# Generated by pormake.
# Topology ssa, (4,4)-cn, num edge types: 1
# Building blocks:
#     Node 0, Type 0, BuildingBlock: KOZSID_clean_sbu_0, # of connection points: 4
#     Node 1, Type 0, BuildingBlock: KOZSID_clean_sbu_0, # of connection points: 4
#     Node 2, Type 0, BuildingBlock: KOZSID_clean_sbu_0, # of connection points: 4
#     Node 3, Type 0, BuildingBlock: KOZSID_clean_sbu_0, # of connection points: 4
#     Node 4, Type 0, BuildingBlock: KOZSID_clean_sbu_0, # of connection points: 4
#     Node 5, Type 0, BuildingBlock: KOZSID_clean_sbu_0, # of connection points: 4
#     Node 6, Type 1, BuildingBlock: ESEHIV_clean_sbu_0, # of connection points: 4
#     Node 7, Type 1, BuildingBlock: ESEHIV_clean_sbu_0, # of connection points: 4
#     Node 8, Type 1, BuildingBlock: ESEHIV_clean_sbu_0, # of connection points: 4
#     Node 9, Type 1, BuildingBlock: ESEHIV_clean_sbu_0, # of connection points: 4
#     Node 10, Type 1, BuildingBlock: ESEHIV_clean_sbu_0, # of connection points: 4
#     Node 11, Type 1, BuildingBlock: ESEHIV_clean_sbu_0, # of connection points: 4
#     Edge 12, Type (0, 1), BuildingBlock: AJUNOK_clean_linker_0, # of connection points: 2
#     Edge 13, Type (0, 1), BuildingBlock: AJUNOK_clean_linker_0, # of connection points: 2
#     Edge 14, Type (0, 1), BuildingBlock: AJUNOK_clean_linker_0, # of connection points: 2
#     Edge 15, Type (0, 1), BuildingBlock: AJUNOK_clean_linker_0, # of connection points: 2
#     Edge 16, Type (0, 1), BuildingBlock: AJUNOK_clean_linker_0, # of connection points: 2
#     Edge 17, Type (0, 1), BuildingBlock: AJUNOK_clean_linker_0, # of connection points: 2
#     Edge 18, Type (0, 1), BuildingBlock: AJUNOK_clean_linker_0, # of connection points: 2
#     Edge 19, Type (0, 1), BuildingBlock: AJUNOK_clean_linker_0, # of connection points: 2
#     Edge 20, Type (0, 1), BuildingBlock: AJUNOK_clean_linker_0, # of connection points: 2
#     Edge 21, Type (0, 1), BuildingBlock: AJUNOK_clean_linker_0, # of connection points: 2
#     Edge 22, Type (0, 1), BuildingBlock: AJUNOK_clean_linker_0, # of connection points: 2
#     Edge 23, Type (0, 1), BuildingBlock: AJUNOK_clean_linker_0, # of connection points: 2
#     Edge 24, Type (0, 1), BuildingBlock: AJUNOK_clean_linker_0, # of connection points: 2
#     Edge 25, Type (0, 1), BuildingBlock: AJUNOK_clean_linker_0, # of connection points: 2
#     Edge 26, Type (0, 1), BuildingBlock: AJUNOK_clean_linker_0, # of connection points: 2
#     Edge 27, Type (0, 1), BuildingBlock: AJUNOK_clean_linker_0, # of connection points: 2
#     Edge 28, Type (0, 1), BuildingBlock: AJUNOK_clean_linker_0, # of connection points: 2
#     Edge 29, Type (0, 1), BuildingBlock: AJUNOK_clean_linker_0, # of connection points: 2
#     Edge 30, Type (0, 1), BuildingBlock: AJUNOK_clean_linker_0, # of connection points: 2
#     Edge 31, Type (0, 1), BuildingBlock: AJUNOK_clean_linker_0, # of connection points: 2
#     Edge 32, Type (0, 1), BuildingBlock: AJUNOK_clean_linker_0, # of connection points: 2
#     Edge 33, Type (0, 1), BuildingBlock: AJUNOK_clean_linker_0, # of connection points: 2
#     Edge 34, Type (0, 1), BuildingBlock: AJUNOK_clean_linker_0, # of connection points: 2
#     Edge 35, Type (0, 1), BuildingBlock: AJUNOK_clean_linker_0, # of connection points: 2
# Relax obj value: 0.030
# Max RMSD: 0.097
# Mean RMSD: 0.055
data_MOF--net-ssa--node1-KOZSID_clean_sbu_0--node2-ESEHIV_clean_sbu_0--edge1-AJUNOK_clean_linker_0
_symmetry_space_group_name_H-M    P1
_symmetry_Int_Tables_number       1
_symmetry_cell_setting            triclinic
loop_
_symmetry_equiv_pos_as_xyz
'x, y, z'
_cell_length_a     41.327202
_cell_length_b     42.645982
_cell_length_c     31.007956
_cell_angle_alpha  86.723821
_cell_angle_beta   90.061483
_cell_angle_gamma 123.12197
loop_
_atom_site_label
_atom_site_type_symbol
_atom_site_fract_x
_atom_site_fract_y
_atom_site_fract_z
_atom_type_partial_charge
C0 C 0.94008 0.50407 1.0043 0.0
C1 C 0.90401 0.48852 0.02438 0.0
C2 C 0.906 0.47599 0.0652 0.0
C3 C 0.94298 0.48431 0.06794 0.0
N4 N 0.96504 0.50188 0.03149 0.0
Co5 Co 0.01982 0.5159 0.02156 0.0
N6 N 0.02157 0.49435 0.08053 0.0
C7 C 0.99242 0.47749 0.11079 0.0
C8 C 1.0017 0.46637 0.14858 0.0
C9 C 0.03923 0.47708 0.1424 0.0
C10 C 0.05091 0.49432 0.10105 0.0
N11 N 0.07447 0.52974 1.01147 0.0
C12 C 0.09889 0.52612 0.03801 0.0
C13 C 0.13465 0.54071 0.01761 0.0
C14 C 0.13305 0.55422 0.9772 0.0
C15 C 0.09655 0.54724 0.97502 0.0
N16 N 0.01815 0.53759 0.9627 0.0
C17 C 0.04763 0.55528 0.93284 0.0
C18 C 0.03847 0.56668 0.89518 0.0
C19 C 1.00068 0.55518 0.90096 0.0
C20 C 0.98862 0.53698 0.94186 0.0
N21 N 0.04027 0.565 0.04628 0.0
C22 C 0.07889 0.63155 0.08966 0.0
C23 C 0.09127 0.63048 0.04826 0.0
C24 C 0.07147 0.59726 0.02715 0.0
C25 C 0.04515 0.59966 0.10761 0.0
C26 C 0.02614 0.56707 0.08523 0.0
N27 N 0.99944 0.46688 0.9969 0.0
C28 C 0.99401 0.43219 0.93544 0.0
C29 C 0.96117 0.39995 0.95433 0.0
C30 C 0.94945 0.401 0.9961 0.0
C31 C 0.96908 0.43444 0.01682 0.0
C32 C 1.01287 0.46498 0.9574 0.0
H33 H 0.95834 0.43364 0.04828 0.0
H34 H 0.0373 0.48879 0.941 0.0
H35 H 0.08281 0.5981 0.99607 0.0
H36 H 1.00097 0.54353 0.10091 0.0
C37 C 0.95708 0.47377 0.10317 0.0
C38 C 0.9485 0.51895 0.95875 0.0
C39 C 0.09027 0.51026 0.08311 0.0
C40 C 0.08279 0.55853 0.94015 0.0
H41 H 0.8785 0.48561 1.01066 0.0
H42 H 0.88283 0.46142 0.08956 0.0
H43 H 0.98353 0.45261 0.17748 0.0
H44 H 0.05624 0.47302 0.16587 0.0
H45 H 0.1596 0.54209 0.0309 0.0
H46 H 0.1561 0.56826 0.95265 0.0
H47 H 0.05682 0.58086 0.86649 0.0
H48 H 0.9837 0.55914 0.87736 0.0
H49 H 0.1169 0.65487 0.03277 0.0
H50 H 0.03449 0.59912 0.13972 0.0
H51 H 1.00405 0.43277 0.90296 0.0
H52 H 0.92447 0.37638 1.01223 0.0
C53 C 0.57573 0.02076 0.58962 0.0
C54 C 0.57648 1.00291 0.62808 0.0
C55 C 0.53992 0.97209 0.63592 0.0
C56 C 0.51903 0.97292 0.602 0.0
N57 N 0.54025 1.00198 0.57254 0.0
Co58 Co 0.52109 0.01552 0.51993 0.0
N59 N 0.46615 0.97541 0.53645 0.0
C60 C 0.453 0.95267 0.57307 0.0
C61 C 0.4138 0.92702 0.57463 0.0
C62 C 0.40131 0.93334 0.53633 0.0
C63 C 0.43383 0.96241 0.51352 0.0
N64 N 0.5021 0.02806 0.46631 0.0
C65 C 0.46661 1.00886 0.44919 0.0
C66 C 0.46653 0.02446 0.40868 0.0
C67 C 0.50337 0.05432 0.39965 0.0
C68 C 0.52381 0.05504 0.4348 0.0
N69 N 0.57594 0.05673 0.5044 0.0
C70 C 0.58901 0.08118 0.46919 0.0
C71 C 0.62771 0.10848 0.46934 0.0
C72 C 0.63988 0.10176 0.50762 0.0
C73 C 0.60769 0.07065 0.52854 0.0
N74 N 0.52597 0.97869 0.48653 0.0
C75 C 0.53133 0.92667 0.43713 0.0
C76 C 0.55165 0.9651 0.42457 0.0
C77 C 0.54844 0.99016 0.44911 0.0
C78 C 0.50785 0.91478 0.47487 0.0
C79 C 0.5059 0.94095 0.49902 0.0
N80 N 0.51631 0.05238 0.55326 0.0
C81 C 0.52398 0.11312 0.55718 0.0
C82 C 0.51462 0.10696 0.60167 0.0
C83 C 0.5056 0.07243 0.62115 0.0
C84 C 0.50633 0.04583 0.59669 0.0
C85 C 0.52489 0.08604 0.53401 0.0
H86 H 0.49873 0.02004 0.6137 0.0
H87 H 0.53291 0.09313 0.50043 0.0
H88 H 0.56454 0.01881 0.437 0.0
H89 H 0.48803 0.92993 0.52791 0.0
C90 C 0.47875 0.95177 0.60145 0.0
C91 C 0.60792 0.05735 0.57274 0.0
C92 C 0.43318 0.97428 0.46876 0.0
C93 C 0.56375 0.07898 0.43788 0.0
H94 H 0.60032 0.01218 0.64946 0.0
H95 H 0.52922 0.95303 0.66459 0.0
H96 H 0.39673 0.90481 0.59938 0.0
H97 H 0.37197 0.9172 0.52543 0.0
H98 H 0.44274 0.01456 0.38712 0.0
H99 H 0.5143 0.07232 0.37016 0.0
H100 H 0.64467 0.13144 0.44534 0.0
H101 H 0.66874 0.11865 0.51966 0.0
H102 H 0.57024 0.97596 0.39566 0.0
H103 H 0.49185 0.8855 0.48647 0.0
H104 H 0.53108 0.13914 0.54015 0.0
H105 H 0.49711 0.06547 0.65513 0.0
C106 C 0.58817 0.5712 0.95994 0.0
C107 C 0.59675 0.59429 0.92259 0.0
C108 C 0.56315 0.59089 0.91111 0.0
C109 C 0.53607 0.56593 0.94186 0.0
N110 N 0.55058 0.55388 0.97291 0.0
Co111 Co 0.52096 0.51474 0.02129 0.0
N112 N 0.47064 0.50475 1.00008 0.0
C113 C 0.46492 0.52008 0.96391 0.0
C114 C 0.42724 0.50939 0.95956 0.0
C115 C 0.40794 0.48656 0.99564 0.0
C116 C 0.43517 0.48483 0.01995 0.0
N117 N 0.49135 0.47598 0.07004 0.0
C118 C 0.45391 0.45931 0.08338 0.0
C119 C 0.44538 0.4368 0.12123 0.0
C120 C 0.47889 0.44002 0.13275 0.0
C121 C 0.50584 0.4643 0.10151 0.0
N122 N 0.57125 0.52437 0.0422 0.0
C123 C 0.5768 0.5081 0.07763 0.0
C124 C 0.61437 0.51839 0.08168 0.0
C125 C 0.63379 0.54187 0.04609 0.0
C126 C 0.60675 0.54442 0.02238 0.0
N127 N 0.52506 0.55419 0.05851 0.0
C128 C 0.52653 0.60751 0.11249 0.0
C129 C 0.53567 0.58182 0.12821 0.0
C130 C 0.53499 0.55595 0.10107 0.0
C131 C 0.51645 0.60556 0.06901 0.0
C132 C 0.516 0.57922 0.043 0.0
N133 N 0.51688 0.47528 0.98399 0.0
C134 C 0.52104 0.42103 0.97485 0.0
C135 C 0.51587 0.4221 0.93017 0.0
C136 C 0.5107 0.45024 0.91327 0.0
C137 C 0.51103 0.47596 0.94034 0.0
C138 C 0.52175 0.44761 1.0007 0.0
H139 H 0.50648 0.49625 0.92509 0.0
H140 H 0.52658 0.44533 0.03421 0.0
H141 H 0.54249 0.53748 0.11533 0.0
H142 H 0.5077 0.57933 1.01042 0.0
C143 C 0.49621 0.54881 0.93862 0.0
C144 C 0.61538 0.56352 0.97953 0.0
C145 C 0.42692 0.46717 0.06356 0.0
C146 C 0.54558 0.48025 0.10371 0.0
H147 H 0.62393 0.61041 0.90428 0.0
H148 H 0.55847 0.60314 0.88218 0.0
H149 H 0.41568 0.519 0.93461 0.0
H150 H 0.37775 0.47417 1.00429 0.0
H151 H 0.4183 0.42111 0.13975 0.0
H152 H 0.48356 0.42792 0.16182 0.0
H153 H 0.62584 0.50844 0.10634 0.0
H154 H 0.66402 0.55442 0.03749 0.0
H155 H 0.54401 0.58201 0.16137 0.0
H156 H 0.50821 0.62394 0.05498 0.0
H157 H 0.525 0.39988 0.98996 0.0
H158 H 0.50553 0.452 0.87924 0.0
C159 C 0.9394 0.44477 0.54539 0.0
C160 C 0.90333 0.42324 0.52779 0.0
C161 C 0.90601 0.43913 0.48733 0.0
C162 C 0.94345 0.46942 0.4823 0.0
N163 N 0.96505 0.4738 0.51699 0.0
Co164 Co 0.02106 0.51522 0.52241 0.0
N165 N 0.02414 0.54038 0.46407 0.0
C166 C 0.99453 0.5291 0.43712 0.0
C167 C 1.0046 0.55116 0.3993 0.0
C168 C 0.04304 0.57811 0.40202 0.0
C169 C 0.05446 0.57095 0.44144 0.0
N170 N 0.07736 0.5561 0.52737 0.0
C171 C 0.10305 0.58491 0.49878 0.0
C172 C 0.13962 0.60541 0.51545 0.0
C173 C 0.13725 0.58902 0.5555 0.0
C174 C 0.09951 0.55943 0.56116 0.0
N175 N 0.01766 0.4906 0.58129 0.0
C176 C 0.04682 0.50284 0.60907 0.0
C177 C 0.03627 0.48181 0.6477 0.0
C178 C 0.9979 0.45473 0.6448 0.0
C179 C 0.98702 0.46069 0.6044 0.0
N180 N 0.03716 0.48469 0.49513 0.0
C181 C 0.07081 0.45396 0.44918 0.0
C182 C 0.0815 0.46462 0.49119 0.0
C183 C 0.06418 0.4795 0.51357 0.0
C184 C 0.04098 0.45628 0.43177 0.0
C185 C 0.02432 0.47117 0.45539 0.0
N186 N 1.00506 0.54573 0.54979 0.0
C187 C 1.00716 0.57906 0.61113 0.0
C188 C 0.97246 0.575 0.59988 0.0
C189 C 0.95649 0.55968 0.56087 0.0
C190 C 0.97339 0.54557 0.53623 0.0
C191 C 0.02301 0.56454 0.5856 0.0
H192 H 0.95938 0.53325 0.50737 0.0
H193 H 0.04893 0.56758 0.59648 0.0
H194 H 0.07412 0.48776 0.54512 0.0
H195 H 1.00219 0.4728 0.44009 0.0
C196 C 0.95838 0.49602 0.44695 0.0
C197 C 0.94717 0.43696 0.58977 0.0
C198 C 0.09462 0.59387 0.45532 0.0
C199 C 0.08379 0.53435 0.59786 0.0
H200 H 0.87749 0.39897 0.54301 0.0
H201 H 0.88305 0.43026 0.46473 0.0
H202 H 0.98637 0.54754 0.37245 0.0
H203 H 0.06085 0.60021 0.37745 0.0
H204 H 0.16545 0.62954 0.50003 0.0
H205 H 0.16041 0.59752 0.57776 0.0
H206 H 0.05428 0.48589 0.67493 0.0
H207 H 0.97985 0.43313 0.66973 0.0
H208 H 0.10406 0.46264 0.50621 0.0
H209 H 0.03184 0.44853 0.39919 0.0
H210 H 0.02117 0.59202 0.64046 0.0
H211 H 0.92991 0.55667 0.55061 0.0
C212 C 0.47429 0.98324 0.11032 0.0
C213 C 0.4733 0.99424 0.15129 0.0
C214 C 0.50312 0.03093 0.15215 0.0
C215 C 0.52067 0.04049 0.11179 0.0
N216 N 0.50367 0.01225 0.08488 0.0
Co217 Co 0.52155 0.01494 0.02342 0.0
N218 N 0.56608 0.06895 0.02503 0.0
C219 C 0.5749 0.09041 0.05905 0.0
C220 C 0.60584 0.1266 0.05092 0.0
C221 C 0.61735 0.12864 1.009 0.0
C222 C 0.59275 0.09344 0.99376 0.0
N223 N 0.53976 0.01744 0.96221 0.0
C224 C 0.56896 0.0465 0.93669 0.0
C225 C 0.57047 0.0354 0.89597 0.0
C226 C 0.54126 0.99843 0.89543 0.0
C227 C 0.52356 0.98889 0.93572 0.0
N228 N 0.47665 0.96115 0.02154 0.0
C229 C 0.46745 0.93996 0.98718 0.0
C230 C 0.4361 0.90395 0.99495 0.0
C231 C 0.42454 0.90181 0.03685 0.0
C232 C 0.44944 0.93683 0.05247 0.0
N233 N 0.48865 0.03244 1.00174 0.0
C234 C 0.45627 0.06871 0.96065 0.0
C235 C 0.45294 0.03766 0.9433 0.0
C236 C 0.4688 0.01971 0.9646 0.0
C237 C 0.47281 0.07912 1.00079 0.0
C238 C 0.48835 0.06044 0.02088 0.0
N239 N 0.55455 0.9975 0.04519 0.0
C240 C 0.56863 0.94946 0.04995 0.0
C241 C 0.58904 0.96364 0.08739 0.0
C242 C 0.59478 0.99681 0.10117 0.0
C243 C 0.57771 0.01338 0.07947 0.0
C244 C 0.55214 0.96703 0.02917 0.0
H245 H 0.58245 0.03815 0.0921 0.0
H246 H 0.53622 0.95448 1.00135 0.0
H247 H 0.4662 0.99675 0.94937 0.0
H248 H 0.50137 0.07021 0.05093 0.0
C249 C 0.55312 0.07576 0.09806 0.0
C250 C 0.44634 0.94497 0.09733 0.0
C251 C 0.59574 0.08517 0.94904 0.0
C252 C 0.49022 0.95411 0.94884 0.0
H253 H 0.45313 0.97746 0.17792 0.0
H254 H 0.51114 0.04855 0.17909 0.0
H255 H 0.61828 0.14901 0.07274 0.0
H256 H 0.64091 0.15338 0.9914 0.0
H257 H 0.59033 0.05246 0.86921 0.0
H258 H 0.53335 0.9808 0.86851 0.0
H259 H 0.42363 0.88163 0.97303 0.0
H260 H 0.40079 0.87704 0.05417 0.0
H261 H 0.44029 0.02861 0.9122 0.0
H262 H 0.4752 0.10264 0.01574 0.0
H263 H 0.56341 0.92371 0.03814 0.0
H264 H 0.61109 1.00909 0.12966 0.0
C265 C 0.55356 0.59926 0.52021 0.0
C266 C 0.55134 0.62574 0.54164 0.0
C267 C 0.52554 0.60677 0.57558 0.0
C268 C 0.51366 0.57001 0.57292 0.0
N269 N 0.53109 0.56449 0.54001 0.0
Co270 Co 0.52033 0.51544 0.52187 0.0
N271 N 0.47936 0.48701 0.56869 0.0
C272 C 0.46745 0.50119 0.59807 0.0
C273 C 0.44078 0.47473 0.62814 0.0
C274 C 0.43619 0.44181 0.61805 0.0
C275 C 0.46047 0.45031 0.58235 0.0
N276 N 0.50892 0.4663 0.50315 0.0
C277 C 0.48685 0.43155 0.52313 0.0
C278 C 0.48851 0.40508 0.50093 0.0
C279 C 0.51311 0.42399 0.46605 0.0
C280 C 0.52505 0.46072 0.46903 0.0
N281 N 0.56194 0.54397 0.47563 0.0
C282 C 0.57448 0.52963 0.44723 0.0
C283 C 0.6014 0.55585 0.41726 0.0
C284 C 0.6058 0.58881 0.42652 0.0
C285 C 0.58136 0.58077 0.462 0.0
N286 N 0.55965 0.51783 0.56323 0.0
C287 C 0.61328 0.5191 0.62369 0.0
C288 C 0.60982 0.50601 0.58227 0.0
C289 C 0.58336 0.50578 0.55289 0.0
C290 C 0.58901 0.53137 0.63384 0.0
C291 C 0.56277 0.53033 0.60385 0.0
N292 N 0.48088 0.51303 0.48064 0.0
C293 C 0.45551 0.50742 0.40808 0.0
C294 C 0.42621 0.51216 0.42214 0.0
C295 C 0.4251 0.5172 0.46634 0.0
C296 C 0.45231 0.51777 0.49444 0.0
C297 C 0.48204 0.50781 0.4374 0.0
H298 H 0.44964 0.52226 0.52736 0.0
H299 H 0.50328 0.5037 0.42431 0.0
H300 H 0.58266 0.49581 0.5218 0.0
H301 H 0.54511 0.53973 0.61447 0.0
C302 C 0.48432 0.53981 0.59877 0.0
C303 C 0.57464 0.60792 0.47912 0.0
C304 C 0.46766 0.42352 0.56535 0.0
C305 C 0.55586 0.49098 0.44495 0.0
H306 H 0.56574 0.65541 0.53254 0.0
H307 H 0.51542 0.61816 0.59836 0.0
H308 H 0.4277 0.47914 0.65538 0.0
H309 H 0.41843 0.41492 0.636 0.0
H310 H 0.47501 0.37555 0.51002 0.0
H311 H 0.52313 0.4127 0.44301 0.0
H312 H 0.61428 0.55113 0.39008 0.0
H313 H 0.62351 0.61523 0.40777 0.0
H314 H 0.6282 0.49683 0.57194 0.0
H315 H 0.59 0.54167 0.66526 0.0
H316 H 0.45755 0.50249 0.37462 0.0
H317 H 0.4033 0.52106 0.47942 0.0
Cu318 Cu 0.24879 0.48179 0.24307 0.0
N319 N 0.26086 0.4567 0.20549 0.0
N320 N 0.29748 0.4478 0.16134 0.0
C321 C 0.29695 0.46956 0.19096 0.0
C322 C 0.2601 0.41971 0.15783 0.0
C323 C 0.23759 0.4253 0.18502 0.0
O324 O 0.29575 0.50851 0.2802 0.0
C325 C 0.19379 0.48362 0.18934 0.0
O326 O 0.17774 0.44754 0.19834 0.0
H327 H 0.32223 0.49436 0.20231 0.0
H328 H 0.20646 0.40794 0.18892 0.0
N329 N 0.20826 0.44834 0.2814 0.0
N330 N 0.16245 0.43032 0.33244 0.0
C331 C 0.19223 0.45948 0.30914 0.0
C332 C 0.18812 0.41066 0.28733 0.0
C333 C 0.15963 0.39939 0.31899 0.0
C334 C 0.30151 0.487 0.30554 0.0
O335 O 0.27636 0.45063 0.30578 0.0
H336 H 0.20178 0.48855 0.31145 0.0
H337 H 0.19366 0.3927 0.26994 0.0
O338 O 0.22652 0.50636 0.20639 0.0
H339 H 0.24963 0.39722 0.13631 0.0
H340 H 0.13887 0.37087 0.33141 0.0
Cu341 Cu 0.78026 0.24273 0.76135 0.0
N342 N 0.76773 0.20539 0.72369 0.0
N343 N 0.7319 0.16093 0.67835 0.0
C344 C 0.73256 0.18368 0.70736 0.0
C345 C 0.76812 0.16829 0.67703 0.0
C346 C 0.79017 0.19577 0.70494 0.0
O347 O 0.73297 0.21965 0.80213 0.0
C348 C 0.83715 0.3018 0.70358 0.0
O349 O 0.85084 0.28062 0.7109 0.0
H350 H 0.70796 0.1846 0.717 0.0
H351 H 0.82054 0.20827 0.71043 0.0
N352 N 0.81985 0.25064 0.79706 0.0
N353 N 0.86555 0.28021 0.84486 0.0
C354 C 0.83767 0.27983 0.82199 0.0
C355 C 0.83688 0.23155 0.80436 0.0
C356 C 0.86527 0.24986 0.83401 0.0
C357 C 0.72524 0.18959 0.82441 0.0
O358 O 0.74815 0.17776 0.81795 0.0
H359 H 0.83053 0.30073 0.82287 0.0
H360 H 0.829 0.20603 0.78964 0.0
O361 O 0.80496 0.29163 0.72342 0.0
H362 H 0.77824 0.15546 0.65648 0.0
H363 H 0.8836 0.2411 0.84716 0.0
Cu364 Cu 0.56021 0.77734 0.28354 0.0
N365 N 0.59299 0.8159 0.24308 0.0
N366 N 0.61184 0.86372 0.19462 0.0
C367 C 0.58291 0.83707 0.22112 0.0
C368 C 0.64147 0.85917 0.19984 0.0
C369 C 0.62973 0.82952 0.2301 0.0
O370 O 0.53634 0.79882 0.31923 0.0
C371 C 0.55202 0.72319 0.22846 0.0
O372 O 0.58958 0.74401 0.23274 0.0
H373 H 0.55483 0.83316 0.2248 0.0
H374 H 0.64687 0.81902 0.24218 0.0
N375 N 0.58884 0.76739 0.32161 0.0
N376 N 0.60144 0.73454 0.36942 0.0
C377 C 0.57668 0.73328 0.34003 0.0
C378 C 0.62268 0.79127 0.33953 0.0
C379 C 0.63037 0.77114 0.3693 0.0
C380 C 0.56103 0.83138 0.33293 0.0
O381 O 0.59727 0.8469 0.32046 0.0
H382 H 0.54977 0.70811 0.33233 0.0
H383 H 0.64005 0.82131 0.33248 0.0
O384 O 0.53089 0.73168 0.24887 0.0
H385 H 0.66973 0.8766 0.18391 0.0
H386 H 0.65452 0.78307 0.3905 0.0
Cu387 Cu 0.79014 0.5458 0.80195 0.0
N388 N 0.83166 0.57873 0.76415 0.0
N389 N 0.87853 0.59684 0.71454 0.0
C390 C 0.84598 0.56773 0.73399 0.0
C391 C 0.88462 0.62773 0.73206 0.0
C392 C 0.85544 0.61643 0.76282 0.0
O393 O 0.81069 0.52255 0.84378 0.0
C394 C 0.7373 0.54381 0.74313 0.0
O395 O 0.76235 0.57968 0.74776 0.0
H396 H 0.83355 0.53873 0.72732 0.0
H397 H 0.85265 0.63432 0.7837 0.0
N398 N 0.77982 0.5729 0.83821 0.0
N399 N 0.74577 0.58544 0.88168 0.0
C400 C 0.74438 0.56383 0.85064 0.0
C401 C 0.80461 0.60096 0.86245 0.0
C402 C 0.78369 0.60884 0.88924 0.0
C403 C 0.83409 0.51235 0.83572 0.0
O404 O 0.83929 0.50761 0.79553 0.0
H405 H 0.71798 0.5409 0.8382 0.0
H406 H 0.83548 0.61337 0.86234 0.0
O407 O 0.74323 0.52045 0.76424 0.0
H408 H 0.90939 0.65598 0.72481 0.0
H409 H 0.79542 0.62862 0.91417 0.0
Cu410 Cu 0.25999 0.78897 0.28412 0.0
N411 N 0.22063 0.78057 0.24764 0.0
N412 N 0.17497 0.75072 0.19984 0.0
C413 C 0.20237 0.75086 0.2235 0.0
C414 C 0.17607 0.78177 0.20931 0.0
C415 C 0.20443 0.80025 0.23893 0.0
O416 O 0.23564 0.7404 0.32254 0.0
C417 C 0.31581 0.84168 0.22114 0.0
O418 O 0.29363 0.85441 0.22706 0.0
H419 H 0.20892 0.72948 0.22362 0.0
H420 H 0.2129 0.82634 0.25261 0.0
N421 N 0.27152 0.8266 0.321 0.0
N422 N 0.30605 0.87236 0.36536 0.0
C423 C 0.30632 0.84912 0.33779 0.0
C424 C 0.24825 0.8358 0.3385 0.0
C425 C 0.26943 0.86391 0.36603 0.0
C426 C 0.20315 0.72985 0.34188 0.0
O427 O 0.18889 0.75043 0.33365 0.0
H428 H 0.33131 0.84816 0.33014 0.0
H429 H 0.21782 0.82245 0.33264 0.0
O430 O 0.30759 0.81172 0.244 0.0
H431 H 0.15839 0.79093 0.19515 0.0
H432 H 0.2582 0.87596 0.38622 0.0
Cu433 Cu 0.48381 0.25237 0.75951 0.0
N434 N 0.45664 0.26392 0.72112 0.0
N435 N 0.44547 0.2997 0.67657 0.0
C436 C 0.47203 0.29748 0.69944 0.0
C437 C 0.41217 0.26577 0.68365 0.0
C438 C 0.41914 0.24375 0.71116 0.0
O439 O 0.51138 0.29707 0.79603 0.0
C440 C 0.48905 0.20705 0.69995 0.0
O441 O 0.45287 0.19669 0.69683 0.0
H442 H 0.50233 0.31954 0.70028 0.0
H443 H 0.39828 0.21514 0.72296 0.0
N444 N 0.45013 0.21169 0.79726 0.0
N445 N 0.43273 0.16498 0.84699 0.0
C446 C 0.46139 0.19207 0.82055 0.0
C447 C 0.41286 0.19655 0.80941 0.0
C448 C 0.40198 0.16751 0.84019 0.0
C449 C 0.48928 0.30294 0.81875 0.0
O450 O 0.45175 0.27956 0.81662 0.0
H451 H 0.49037 0.19789 0.81841 0.0
H452 H 0.39521 0.20664 0.79808 0.0
O453 O 0.51045 0.23319 0.72532 0.0
H454 H 0.38457 0.2576 0.67042 0.0
H455 H 0.37427 0.15066 0.85742 0.0
C456 C 0.14074 0.52921 0.14199 0.0
C457 C 0.11948 0.50592 0.10837 0.0
C458 C 0.16683 0.52397 0.16658 0.0
C459 C 0.17253 0.49493 0.15886 0.0
H460 H 0.13667 0.55128 0.14982 0.0
H461 H 0.18126 0.54169 0.19295 0.0
S462 S 0.12513 0.42738 0.07332 0.0
N463 N 0.1073 0.4538 0.06807 0.0
N464 N 0.15524 0.44367 0.11341 0.0
C465 C 0.15198 0.47223 0.12456 0.0
C466 C 0.12587 0.47774 0.09965 0.0
C467 C 0.66694 0.07685 0.61522 0.0
C468 C 0.63846 0.08316 0.60166 0.0
C469 C 0.69701 0.10213 0.64075 0.0
C470 C 0.6999 0.13482 0.65321 0.0
H471 H 0.66609 0.05237 0.60571 0.0
H472 H 0.71818 0.096 0.65084 0.0
S473 S 0.63266 0.16438 0.62374 0.0
N474 N 0.61457 0.12394 0.6017 0.0
N475 N 0.6718 0.17243 0.64819 0.0
C476 C 0.67143 0.14139 0.63942 0.0
C477 C 0.64063 0.11537 0.61388 0.0
C478 C 0.51437 0.62721 0.18428 0.0
C479 C 0.52861 0.63657 0.14076 0.0
C480 C 0.51862 0.65465 0.21187 0.0
C481 C 0.53728 0.69279 0.19728 0.0
H482 H 0.50047 0.59848 0.19748 0.0
H483 H 0.50905 0.64624 0.24546 0.0
S484 S 0.58037 0.73286 0.08714 0.0
N485 N 0.56239 0.6876 0.08519 0.0
N486 N 0.57016 0.7383 0.13652 0.0
C487 C 0.55086 0.70232 0.15382 0.0
C488 C 0.54649 0.67458 0.12577 0.0
C489 C 0.93707 0.60559 0.61705 0.0
C490 C 0.95107 0.58317 0.63054 0.0
C491 C 0.91443 0.61124 0.64524 0.0
C492 C 0.90468 0.5941 0.6873 0.0
H493 H 0.94336 0.61847 0.58442 0.0
H494 H 0.90342 0.62805 0.63383 0.0
S495 S 0.93419 0.53324 0.73838 0.0
N496 N 0.95361 0.54399 0.68892 0.0
N497 N 0.91139 0.55501 0.74167 0.0
C498 C 0.91897 0.57221 0.70133 0.0
C499 C 0.94211 0.56664 0.67298 0.0
C500 C 0.41809 0.89914 0.16537 0.0
C501 C 0.41267 0.916 0.12771 0.0
C502 C 0.38672 0.87318 0.19439 0.0
C503 C 0.34848 0.86308 0.18721 0.0
H504 H 0.44697 0.90658 0.17282 0.0
H505 H 0.39275 0.86227 0.22351 0.0
S506 S 0.31844 0.89786 0.09257 0.0
N507 N 0.36563 0.91939 0.0847 0.0
N508 N 0.30748 0.87141 0.13803 0.0
C509 C 0.34287 0.87918 0.14905 0.0
C510 C 0.37456 0.90528 0.11975 0.0
C511 C 0.43347 0.3549 0.58643 0.0
C512 C 0.46215 0.39203 0.59427 0.0
C513 C 0.42831 0.32496 0.61343 0.0
C514 C 0.45126 0.33116 0.64962 0.0
H515 H 0.41513 0.34902 0.55904 0.0
H516 H 0.40649 0.2967 0.60555 0.0
S517 S 0.52862 0.42429 0.6853 0.0
N518 N 0.51312 0.43405 0.64065 0.0
N519 N 0.50232 0.37808 0.69305 0.0
C520 C 0.47949 0.36854 0.65829 0.0
C521 C 0.48508 0.3989 0.63029 0.0
C522 C 0.50707 0.86798 0.3945 0.0
C523 C 0.53758 0.90043 0.41282 0.0
C524 C 0.514 0.84498 0.36954 0.0
C525 C 0.55175 0.85323 0.36214 0.0
H526 H 0.47772 0.86085 0.39855 0.0
H527 H 0.48975 0.82112 0.35525 0.0
S528 S 0.64097 0.9325 0.4079 0.0
N529 N 0.60627 0.93754 0.42447 0.0
N530 N 0.61953 0.89515 0.37943 0.0
C531 C 0.58206 0.88485 0.38212 0.0
C532 C 0.57498 0.90812 0.40683 0.0
C533 C 0.64768 0.53965 0.93687 0.0
C534 C 0.64899 0.57013 0.95376 0.0
C535 C 0.67925 0.54492 0.91302 0.0
C536 C 0.71326 0.58088 0.90533 0.0
H537 H 0.6221 0.51155 0.94234 0.0
H538 H 0.67723 0.52052 0.90127 0.0
S539 S 0.72996 0.6698 0.94191 0.0
N540 N 0.68619 0.6372 0.96139 0.0
N541 N 0.74534 0.64755 0.91541 0.0
C542 C 0.71456 0.6116 0.92185 0.0
C543 C 0.68245 0.6061 0.94635 0.0
C544 C 0.14777 0.62799 0.3948 0.0
C545 C 0.12505 0.62901 0.42822 0.0
C546 C 0.17484 0.66074 0.36834 0.0
C547 C 0.18015 0.69593 0.37391 0.0
H548 H 0.14407 0.60151 0.38856 0.0
H549 H 0.19044 0.6581 0.34228 0.0
S550 S 0.1293 0.7139 0.45852 0.0
N551 N 0.11125 0.66856 0.46623 0.0
N552 N 0.161 0.72923 0.4176 0.0
C553 C 0.15817 0.6971 0.40814 0.0
C554 C 0.13104 0.66404 0.43488 0.0
C555 C 0.47591 0.13154 0.92849 0.0
C556 C 0.44737 0.093 0.93467 0.0
C557 C 0.47041 0.15495 0.90059 0.0
C558 C 0.43614 0.14075 0.87796 0.0
H559 H 0.50329 0.1435 0.94421 0.0
H560 H 0.49335 0.18438 0.89626 0.0
S561 S 0.35211 0.04219 0.88384 0.0
N562 N 0.38316 0.04179 0.9171 0.0
N563 N 0.37301 0.08606 0.86395 0.0
C564 C 0.40696 0.1025 0.8846 0.0
C565 C 0.4126 0.07853 0.913 0.0
C566 C 0.35631 0.48835 0.4058 0.0
C567 C 0.39568 0.50971 0.39216 0.0
C568 C 0.32678 0.48341 0.37829 0.0
C569 C 0.33469 0.50021 0.33576 0.0
H570 H 0.34791 0.47393 0.43767 0.0
H571 H 0.29705 0.46518 0.39018 0.0
S572 S 0.43274 0.56051 0.28391 0.0
N573 N 0.44083 0.54912 0.33275 0.0
N574 N 0.3854 0.53995 0.28164 0.0
C575 C 0.37393 0.5227 0.32194 0.0
C576 C 0.40421 0.52733 0.34983 0.0
C577 C 0.89717 0.35168 0.92707 0.0
C578 C 0.93702 0.3668 0.92906 0.0
C579 C 0.87394 0.32269 0.90041 0.0
C580 C 0.88959 0.30761 0.87478 0.0
H581 H 0.88402 0.36317 0.94518 0.0
H582 H 0.84349 0.31227 0.89939 0.0
S583 S 0.99203 0.33659 0.86928 0.0
N584 N 0.991 0.36375 0.90441 0.0
N585 N 0.94723 0.30955 0.85343 0.0
C586 C 0.92919 0.32182 0.87718 0.0
C587 C 0.95295 0.35144 0.90441 0.0
C588 C 0.89758 0.53332 0.93601 0.0
C589 C 0.91678 0.51478 0.92928 0.0
C590 C 0.8696 0.53104 0.90721 0.0
C591 C 0.8596 0.51036 0.86989 0.0
H592 H 0.90486 0.55044 0.96336 0.0
H593 H 0.85677 0.54677 0.91344 0.0
S594 S 0.89972 0.45471 0.83886 0.0
N595 N 0.92199 0.47347 0.88354 0.0
N596 N 0.8707 0.46954 0.82963 0.0
C597 C 0.8781 0.49106 0.86357 0.0
C598 C 0.90621 0.49319 0.893 0.0
C599 C 0.39594 0.9154 0.43017 0.0
C600 C 0.40037 0.94878 0.44198 0.0
C601 C 0.36514 0.89068 0.40507 0.0
C602 C 0.33768 0.89848 0.39089 0.0
H603 H 0.41644 0.90839 0.44051 0.0
H604 H 0.36254 0.865 0.39726 0.0
S605 S 0.33764 0.98315 0.41285 0.0
N606 N 0.37534 0.98863 0.43832 0.0
N607 N 0.31811 0.94299 0.38969 0.0
C608 C 0.34213 0.93206 0.40247 0.0
C609 C 0.37333 0.95701 0.42837 0.0
C610 C 0.4901 0.35438 0.91611 0.0
C611 C 0.51349 0.39277 0.9023 0.0
C612 C 0.48468 0.32605 0.88976 0.0
C613 C 0.50308 0.33434 0.84851 0.0
H614 H 0.47439 0.34595 0.94697 0.0
H615 H 0.46479 0.29705 0.9014 0.0
S616 S 0.56954 0.43024 0.79755 0.0
N617 N 0.55684 0.43746 0.84465 0.0
N618 N 0.54692 0.38424 0.79575 0.0
C619 C 0.52782 0.37257 0.83482 0.0
C620 C 0.53288 0.40162 0.86143 0.0
C621 C 0.134 0.46858 0.4199 0.0
C622 C 0.09347 0.44452 0.42217 0.0
C623 C 0.1563 0.46293 0.39149 0.0
C624 C 0.139 0.43296 0.36436 0.0
H625 H 0.14857 0.4928 0.43911 0.0
H626 H 0.18737 0.48258 0.39017 0.0
S627 S 0.03415 0.36114 0.35903 0.0
N628 N 0.03696 0.38867 0.39623 0.0
N629 N 0.07907 0.37848 0.34204 0.0
C630 C 0.09863 0.40804 0.3671 0.0
C631 C 0.07582 0.41382 0.39608 0.0
C632 C 0.66474 0.11821 0.91914 0.0
C633 C 0.62871 0.11427 0.91824 0.0
C634 C 0.69546 0.14355 0.8898 0.0
C635 C 0.69221 0.16675 0.85781 0.0
H636 H 0.66909 0.10102 0.9424 0.0
H637 H 0.72214 0.14452 0.89202 0.0
S638 S 0.6038 0.16802 0.84247 0.0
N639 N 0.59153 0.13634 0.8832 0.0
N640 N 0.64911 0.184 0.82832 0.0
C641 C 0.65645 0.16374 0.85726 0.0
C642 C 0.62488 0.13755 0.8872 0.0
C643 C 0.55163 0.64157 0.434 0.0
C644 C 0.58263 0.64102 0.45144 0.0
C645 C 0.55807 0.67227 0.40755 0.0
C646 C 0.5958 0.70342 0.39713 0.0
H647 H 0.52219 0.61806 0.44093 0.0
H648 H 0.5331 0.6716 0.39564 0.0
S649 S 0.6867 0.71466 0.43513 0.0
N650 N 0.65201 0.67389 0.45816 0.0
N651 N 0.66468 0.73081 0.40604 0.0
C652 C 0.62709 0.70293 0.4145 0.0
C653 C 0.62034 0.6719 0.44223 0.0
C654 C 0.49254 0.15156 0.60925 0.0
C655 C 0.51213 0.13535 0.62655 0.0
C656 C 0.48732 0.17611 0.63248 0.0
C657 C 0.50215 0.18674 0.67398 0.0
H658 H 0.47971 0.14408 0.57797 0.0
H659 H 0.47053 0.18625 0.61804 0.0
S660 S 0.55787 0.15445 0.73344 0.0
N661 N 0.54794 0.13328 0.68775 0.0
N662 N 0.53861 0.17976 0.73077 0.0
C663 C 0.52312 0.17199 0.69114 0.0
C664 C 0.52787 0.14628 0.66773 0.0
C665 C 0.36134 0.4267 0.10013 0.0
C666 C 0.39431 0.46253 0.08961 0.0
C667 C 0.33008 0.42218 0.12393 0.0
C668 C 0.33051 0.45335 0.13769 0.0
H669 H 0.35975 0.40207 0.08979 0.0
H670 H 0.30544 0.39399 0.13182 0.0
S671 S 0.41042 0.55344 0.11625 0.0
N672 N 0.42604 0.52964 0.0939 0.0
N673 N 0.36692 0.52166 0.13715 0.0
C674 C 0.3635 0.48947 0.12683 0.0
C675 C 0.39541 0.49391 0.103 0.0
C676 C 0.8959 0.40424 0.65241 0.0
C677 C 0.91645 0.4022 0.61728 0.0
C678 C 0.86831 0.37174 0.67889 0.0
C679 C 0.86029 0.33574 0.67163 0.0
H680 H 0.90167 0.43129 0.65993 0.0
H681 H 0.85449 0.37512 0.70626 0.0
S682 S 0.90513 0.31506 0.58277 0.0
N683 N 0.92554 0.36088 0.57624 0.0
N684 N 0.87485 0.3007 0.62495 0.0
C685 C 0.8802 0.33361 0.63587 0.0
C686 C 0.90784 0.36641 0.60909 0.0
C687 C 0.58755 0.93337 0.1588 0.0
C688 C 0.5997 0.94147 0.11497 0.0
C689 C 0.59286 0.9089 0.18492 0.0
C690 C 0.61073 0.89182 0.16829 0.0
H691 H 0.5724 0.94485 0.17261 0.0
H692 H 0.58224 0.90264 0.21824 0.0
S693 S 0.64921 0.90493 0.05634 0.0
N694 N 0.63176 0.93175 0.05646 0.0
N695 N 0.6415 0.88526 0.10592 0.0
C696 C 0.62419 0.90057 0.12501 0.0
C697 C 0.61859 0.92541 0.09821 0.0
C698 C 0.66565 0.55587 0.67681 0.0
C699 C 0.64341 0.5227 0.65513 0.0
C700 C 0.69456 0.56121 0.70541 0.0
C701 C 0.70319 0.53369 0.71478 0.0
H702 H 0.66134 0.5786 0.67093 0.0
H703 H 0.71064 0.58781 0.72018 0.0
S704 S 0.65181 0.4402 0.66921 0.0
N705 N 0.631 0.46068 0.64687 0.0
N706 N 0.68519 0.47078 0.70072 0.0
C707 C 0.68051 0.49979 0.69433 0.0
C708 C 0.65098 0.4944 0.66456 0.0
C709 C 0.14279 0.67854 0.11838 0.0
C710 C 0.10317 0.66431 0.11548 0.0
C711 C 0.16612 0.70733 0.14524 0.0
C712 C 0.15082 0.72314 0.17014 0.0
H713 H 0.15568 0.66656 0.10073 0.0
H714 H 0.19638 0.71711 0.14688 0.0
S715 S 0.04912 0.69656 0.17332 0.0
N716 N 0.04982 0.66891 0.13867 0.0
N717 N 0.09375 0.72277 0.18996 0.0
C718 C 0.11146 0.70976 0.16693 0.0
C719 C 0.0876 0.68032 0.13953 0.0
loop_
_geom_bond_atom_site_label_1
_geom_bond_atom_site_label_2
_geom_bond_distance
_geom_bond_site_symmetry_2
_ccdc_geom_bond_type
C0 C1 1.437 1_556 S
C0 N4 1.376 1_556 S
C0 C38 1.389 . S
C1 C0 1.437 1_554 S
C1 C2 1.360 . S
C1 H41 0.940 1_554 S
C2 C1 1.360 . S
C2 C3 1.439 . S
C2 H42 0.950 . S
C3 C2 1.439 . S
C3 N4 1.374 . S
C3 C37 1.395 . S
N4 C0 1.376 1_554 S
N4 C3 1.374 . S
N4 Co5 2.008 1_655 S
Co5 N4 2.008 1_455 S
Co5 N6 1.998 1_455 S
Co5 N11 2.008 1_554 S
Co5 N16 1.995 1_554 S
Co5 N21 2.282 . S
Co5 N27 2.282 1_454 S
N6 Co5 1.998 1_655 S
N6 C7 1.387 . S
N6 C10 1.369 1_655 S
C7 N6 1.387 . S
C7 C8 1.446 . S
C7 C37 1.391 . S
C8 C7 1.446 . S
C8 C9 1.339 1_655 S
C8 H43 0.949 . S
C9 C8 1.339 1_455 S
C9 C10 1.439 . S
C9 H44 0.950 . S
C10 N6 1.369 1_455 S
C10 C9 1.439 . S
C10 C39 1.392 . S
N11 Co5 2.008 1_556 S
N11 C12 1.376 1_556 S
N11 C15 1.374 . S
C12 N11 1.376 1_554 S
C12 C13 1.443 . S
C12 C39 1.389 . S
C13 C12 1.443 . S
C13 C14 1.340 1_554 S
C13 H45 0.951 . S
C14 C13 1.340 1_556 S
C14 C15 1.439 . S
C14 H46 0.950 . S
C15 N11 1.374 . S
C15 C14 1.439 . S
C15 C40 1.395 . S
N16 Co5 1.995 1_556 S
N16 C17 1.376 . S
N16 C20 1.383 1_455 S
C17 N16 1.376 . S
C17 C18 1.446 . S
C17 C40 1.391 . S
C18 C17 1.446 . S
C18 C19 1.339 . S
C18 H47 0.949 . S
C19 C18 1.339 . S
C19 C20 1.439 1_455 S
C19 H48 0.950 1_455 S
C20 N16 1.383 1_655 S
C20 C19 1.439 1_655 S
C20 C38 1.392 . S
N21 Co5 2.282 . S
N21 C24 1.332 . S
N21 C26 1.332 . S
C22 C23 1.386 . S
C22 C25 1.388 . S
C23 C22 1.386 . S
C23 C24 1.382 . S
C23 H49 0.950 . S
C24 N21 1.332 . S
C24 C23 1.382 . S
C24 H35 0.952 . S
C25 C22 1.388 . S
C25 C26 1.382 . S
C25 H50 0.950 . S
C26 N21 1.332 . S
C26 C25 1.382 . S
C26 H36 0.948 . S
N27 Co5 2.282 1_656 S
N27 C31 1.332 . S
N27 C32 1.332 . S
C28 C29 1.388 . S
C28 C32 1.382 . S
C28 H51 0.950 . S
C29 C28 1.388 . S
C29 C30 1.386 . S
C30 C29 1.386 . S
C30 C31 1.382 . S
C30 H52 0.950 . S
C31 N27 1.332 . S
C31 C30 1.382 . S
C31 H33 0.952 1_556 S
C32 N27 1.332 . S
C32 C28 1.382 . S
C32 H34 0.948 1_655 S
H33 C31 0.952 1_554 S
H34 C32 0.948 1_455 S
H35 C24 0.952 . S
H36 C26 0.948 . S
C37 C3 1.395 . S
C37 C7 1.391 . S
C38 C0 1.389 . S
C38 C20 1.392 . S
C39 C10 1.392 . S
C39 C12 1.389 . S
C40 C15 1.395 . S
C40 C17 1.391 . S
H41 C1 0.940 1_556 S
H42 C2 0.950 . S
H43 C8 0.949 . S
H44 C9 0.950 . S
H45 C13 0.951 . S
H46 C14 0.950 . S
H47 C18 0.949 . S
H48 C19 0.950 1_655 S
H49 C23 0.950 . S
H50 C25 0.950 . S
H51 C28 0.950 . S
H52 C30 0.950 . S
C53 C54 1.443 . S
C53 N57 1.376 . S
C53 C91 1.389 . S
C54 C53 1.443 . S
C54 C55 1.340 1_545 S
C54 H94 0.951 . S
C55 C54 1.340 1_565 S
C55 C56 1.439 . S
C55 H95 0.950 . S
C56 C55 1.439 . S
C56 N57 1.374 1_565 S
C56 C90 1.395 . S
N57 C53 1.376 . S
N57 C56 1.374 1_545 S
N57 Co58 2.008 . S
Co58 N57 2.008 . S
Co58 N59 1.995 1_545 S
Co58 N64 2.008 . S
Co58 N69 1.995 . S
Co58 N74 2.282 1_545 S
Co58 N80 2.282 . S
N59 Co58 1.995 1_565 S
N59 C60 1.376 . S
N59 C63 1.383 . S
C60 N59 1.376 . S
C60 C61 1.446 . S
C60 C90 1.391 . S
C61 C60 1.446 . S
C61 C62 1.339 . S
C61 H96 0.949 . S
C62 C61 1.339 . S
C62 C63 1.439 . S
C62 H97 0.950 . S
C63 N59 1.383 . S
C63 C62 1.439 . S
C63 C92 1.392 . S
N64 Co58 2.008 . S
N64 C65 1.376 1_545 S
N64 C68 1.374 . S
C65 N64 1.376 1_565 S
C65 C66 1.443 1_565 S
C65 C92 1.389 . S
C66 C65 1.443 1_545 S
C66 C67 1.340 . S
C66 H98 0.951 1_545 S
C67 C66 1.340 . S
C67 C68 1.439 . S
C67 H99 0.950 . S
C68 N64 1.374 . S
C68 C67 1.439 . S
C68 C93 1.395 . S
N69 Co58 1.995 . S
N69 C70 1.376 . S
N69 C73 1.383 . S
C70 N69 1.376 . S
C70 C71 1.446 . S
C70 C93 1.391 . S
C71 C70 1.446 . S
C71 C72 1.339 . S
C71 H100 0.949 . S
C72 C71 1.339 . S
C72 C73 1.439 . S
C72 H101 0.950 . S
C73 N69 1.383 . S
C73 C72 1.439 . S
C73 C91 1.392 . S
N74 Co58 2.282 1_565 S
N74 C77 1.332 . S
N74 C79 1.332 . S
C75 C76 1.386 . S
C75 C78 1.388 . S
C76 C75 1.386 . S
C76 C77 1.382 . S
C76 H102 0.950 . S
C77 N74 1.332 . S
C77 C76 1.382 . S
C77 H88 0.952 1_565 S
C78 C75 1.388 . S
C78 C79 1.382 . S
C78 H103 0.950 . S
C79 N74 1.332 . S
C79 C78 1.382 . S
C79 H89 0.948 . S
N80 Co58 2.282 . S
N80 C84 1.332 . S
N80 C85 1.332 . S
C81 C82 1.388 . S
C81 C85 1.382 . S
C81 H104 0.950 . S
C82 C81 1.388 . S
C82 C83 1.386 . S
C83 C82 1.386 . S
C83 C84 1.382 . S
C83 H105 0.950 . S
C84 N80 1.332 . S
C84 C83 1.382 . S
C84 H86 0.973 . S
C85 N80 1.332 . S
C85 C81 1.382 . S
C85 H87 0.948 . S
H86 C84 0.973 . S
H87 C85 0.948 . S
H88 C77 0.952 1_545 S
H89 C79 0.948 . S
C90 C56 1.395 . S
C90 C60 1.391 . S
C91 C53 1.389 . S
C91 C73 1.392 . S
C92 C63 1.392 . S
C92 C65 1.389 . S
C93 C68 1.395 . S
C93 C70 1.391 . S
H94 C54 0.951 . S
H95 C55 0.950 . S
H96 C61 0.949 . S
H97 C62 0.950 . S
H98 C66 0.951 1_565 S
H99 C67 0.950 . S
H100 C71 0.949 . S
H101 C72 0.950 . S
H102 C76 0.950 . S
H103 C78 0.950 . S
H104 C81 0.950 . S
H105 C83 0.950 . S
C106 C107 1.443 . S
C106 N110 1.376 . S
C106 C144 1.389 . S
C107 C106 1.443 . S
C107 C108 1.340 . S
C107 H147 0.951 . S
C108 C107 1.340 . S
C108 C109 1.439 . S
C108 H148 0.950 . S
C109 C108 1.439 . S
C109 N110 1.374 . S
C109 C143 1.395 . S
N110 C106 1.376 . S
N110 C109 1.374 . S
N110 Co111 2.008 1_556 S
Co111 N110 2.008 1_554 S
Co111 N112 1.995 1_554 S
Co111 N117 2.008 . S
Co111 N122 1.995 . S
Co111 N127 2.282 . S
Co111 N133 2.282 1_554 S
N112 Co111 1.995 1_556 S
N112 C113 1.376 . S
N112 C116 1.383 1_556 S
C113 N112 1.376 . S
C113 C114 1.446 . S
C113 C143 1.391 . S
C114 C113 1.446 . S
C114 C115 1.339 1_556 S
C114 H149 0.949 . S
C115 C114 1.339 1_554 S
C115 C116 1.439 . S
C115 H150 0.950 . S
C116 N112 1.383 1_554 S
C116 C115 1.439 . S
C116 C145 1.392 . S
N117 Co111 2.008 . S
N117 C118 1.376 . S
N117 C121 1.374 . S
C118 N117 1.376 . S
C118 C119 1.443 . S
C118 C145 1.389 . S
C119 C118 1.443 . S
C119 C120 1.340 . S
C119 H151 0.951 . S
C120 C119 1.340 . S
C120 C121 1.439 . S
C120 H152 0.950 . S
C121 N117 1.374 . S
C121 C120 1.439 . S
C121 C146 1.395 . S
N122 Co111 1.995 . S
N122 C123 1.376 . S
N122 C126 1.383 1_554 S
C123 N122 1.376 . S
C123 C124 1.446 . S
C123 C146 1.391 . S
C124 C123 1.446 . S
C124 C125 1.339 . S
C124 H153 0.949 . S
C125 C124 1.339 . S
C125 C126 1.439 1_554 S
C125 H154 0.950 1_554 S
C126 N122 1.383 1_556 S
C126 C125 1.439 1_556 S
C126 C144 1.392 . S
N127 Co111 2.282 . S
N127 C130 1.332 . S
N127 C132 1.332 . S
C128 C129 1.386 . S
C128 C131 1.388 . S
C129 C128 1.386 . S
C129 C130 1.382 . S
C129 H155 0.950 . S
C130 N127 1.332 . S
C130 C129 1.382 . S
C130 H141 0.952 . S
C131 C128 1.388 . S
C131 C132 1.382 . S
C131 H156 0.950 . S
C132 N127 1.332 . S
C132 C131 1.382 . S
C132 H142 0.948 . S
N133 Co111 2.282 1_556 S
N133 C137 1.332 . S
N133 C138 1.332 . S
C134 C135 1.388 . S
C134 C138 1.382 . S
C134 H157 0.950 . S
C135 C134 1.388 . S
C135 C136 1.386 . S
C136 C135 1.386 . S
C136 C137 1.382 . S
C136 H158 0.950 . S
C137 N133 1.332 . S
C137 C136 1.382 . S
C137 H139 0.952 . S
C138 N133 1.332 . S
C138 C134 1.382 . S
C138 H140 0.948 1_556 S
H139 C137 0.952 . S
H140 C138 0.948 1_554 S
H141 C130 0.952 . S
H142 C132 0.948 . S
C143 C109 1.395 . S
C143 C113 1.391 . S
C144 C106 1.389 . S
C144 C126 1.392 . S
C145 C116 1.392 . S
C145 C118 1.389 . S
C146 C121 1.395 . S
C146 C123 1.391 . S
H147 C107 0.951 . S
H148 C108 0.950 . S
H149 C114 0.949 . S
H150 C115 0.950 . S
H151 C119 0.951 . S
H152 C120 0.950 . S
H153 C124 0.949 . S
H154 C125 0.950 1_556 S
H155 C129 0.950 . S
H156 C131 0.950 . S
H157 C134 0.950 . S
H158 C136 0.950 . S
C159 C160 1.443 . S
C159 N163 1.376 . S
C159 C197 1.389 . S
C160 C159 1.443 . S
C160 C161 1.340 . S
C160 H200 0.951 . S
C161 C160 1.340 . S
C161 C162 1.439 . S
C161 H201 0.950 . S
C162 C161 1.439 . S
C162 N163 1.374 . S
C162 C196 1.395 . S
N163 C159 1.376 . S
N163 C162 1.374 . S
N163 Co164 2.008 1_655 S
Co164 N163 2.008 1_455 S
Co164 N165 1.995 1_455 S
Co164 N170 2.008 . S
Co164 N175 1.995 . S
Co164 N180 2.282 . S
Co164 N186 2.282 1_455 S
N165 Co164 1.995 1_655 S
N165 C166 1.376 . S
N165 C169 1.383 1_655 S
C166 N165 1.376 . S
C166 C167 1.446 . S
C166 C196 1.391 . S
C167 C166 1.446 . S
C167 C168 1.339 1_655 S
C167 H202 0.949 . S
C168 C167 1.339 1_455 S
C168 C169 1.439 . S
C168 H203 0.950 . S
C169 N165 1.383 1_455 S
C169 C168 1.439 . S
C169 C198 1.392 . S
N170 Co164 2.008 . S
N170 C171 1.376 . S
N170 C174 1.374 . S
C171 N170 1.376 . S
C171 C172 1.443 . S
C171 C198 1.389 . S
C172 C171 1.443 . S
C172 C173 1.340 . S
C172 H204 0.951 . S
C173 C172 1.340 . S
C173 C174 1.439 . S
C173 H205 0.950 . S
C174 N170 1.374 . S
C174 C173 1.439 . S
C174 C199 1.395 . S
N175 Co164 1.995 . S
N175 C176 1.376 . S
N175 C179 1.383 1_455 S
C176 N175 1.376 . S
C176 C177 1.446 . S
C176 C199 1.391 . S
C177 C176 1.446 . S
C177 C178 1.339 1_455 S
C177 H206 0.949 . S
C178 C177 1.339 1_655 S
C178 C179 1.439 . S
C178 H207 0.950 . S
C179 N175 1.383 1_655 S
C179 C178 1.439 . S
C179 C197 1.392 . S
N180 Co164 2.282 . S
N180 C183 1.332 . S
N180 C185 1.332 . S
C181 C182 1.386 . S
C181 C184 1.388 . S
C182 C181 1.386 . S
C182 C183 1.382 . S
C182 H208 0.950 . S
C183 N180 1.332 . S
C183 C182 1.382 . S
C183 H194 0.952 . S
C184 C181 1.388 . S
C184 C185 1.382 . S
C184 H209 0.950 . S
C185 N180 1.332 . S
C185 C184 1.382 . S
C185 H195 0.948 . S
N186 Co164 2.282 1_655 S
N186 C190 1.332 . S
N186 C191 1.332 . S
C187 C188 1.388 . S
C187 C191 1.382 . S
C187 H210 0.950 . S
C188 C187 1.388 . S
C188 C189 1.386 . S
C189 C188 1.386 . S
C189 C190 1.382 . S
C189 H211 0.950 . S
C190 N186 1.332 . S
C190 C189 1.382 . S
C190 H192 0.952 . S
C191 N186 1.332 . S
C191 C187 1.382 . S
C191 H193 0.948 1_655 S
H192 C190 0.952 . S
H193 C191 0.948 1_455 S
H194 C183 0.952 . S
H195 C185 0.948 . S
C196 C162 1.395 . S
C196 C166 1.391 . S
C197 C159 1.389 . S
C197 C179 1.392 . S
C198 C169 1.392 . S
C198 C171 1.389 . S
C199 C174 1.395 . S
C199 C176 1.391 . S
H200 C160 0.951 . S
H201 C161 0.950 . S
H202 C167 0.949 . S
H203 C168 0.950 . S
H204 C172 0.951 . S
H205 C173 0.950 . S
H206 C177 0.949 . S
H207 C178 0.950 . S
H208 C182 0.950 . S
H209 C184 0.950 . S
H210 C187 0.950 . S
H211 C189 0.950 . S
C212 C213 1.443 . S
C212 N216 1.376 1_565 S
C212 C250 1.389 . S
C213 C212 1.443 . S
C213 C214 1.340 1_565 S
C213 H253 0.951 . S
C214 C213 1.340 1_545 S
C214 C215 1.439 . S
C214 H254 0.950 . S
C215 C214 1.439 . S
C215 N216 1.374 . S
C215 C249 1.395 . S
N216 C212 1.376 1_545 S
N216 C215 1.374 . S
N216 Co217 2.008 . S
Co217 N216 2.008 . S
Co217 N218 1.995 . S
Co217 N223 2.008 1_544 S
Co217 N228 1.995 1_545 S
Co217 N233 2.282 1_554 S
Co217 N239 2.282 1_545 S
N218 Co217 1.995 . S
N218 C219 1.376 . S
N218 C222 1.383 1_554 S
C219 N218 1.376 . S
C219 C220 1.446 . S
C219 C249 1.391 . S
C220 C219 1.446 . S
C220 C221 1.339 1_554 S
C220 H255 0.949 . S
C221 C220 1.339 1_556 S
C221 C222 1.439 . S
C221 H256 0.950 . S
C222 N218 1.383 1_556 S
C222 C221 1.439 . S
C222 C251 1.392 . S
N223 Co217 2.008 1_566 S
N223 C224 1.376 1_565 S
N223 C227 1.374 . S
C224 N223 1.376 1_545 S
C224 C225 1.443 . S
C224 C251 1.389 . S
C225 C224 1.443 . S
C225 C226 1.340 1_545 S
C225 H257 0.951 . S
C226 C225 1.340 1_565 S
C226 C227 1.439 . S
C226 H258 0.950 . S
C227 N223 1.374 . S
C227 C226 1.439 . S
C227 C252 1.395 . S
N228 Co217 1.995 1_565 S
N228 C229 1.376 1_554 S
N228 C232 1.383 . S
C229 N228 1.376 1_556 S
C229 C230 1.446 . S
C229 C252 1.391 . S
C230 C229 1.446 . S
C230 C231 1.339 1_556 S
C230 H259 0.949 . S
C231 C230 1.339 1_554 S
C231 C232 1.439 . S
C231 H260 0.950 . S
C232 N228 1.383 . S
C232 C231 1.439 . S
C232 C250 1.392 . S
N233 Co217 2.282 1_556 S
N233 C236 1.332 . S
N233 C238 1.332 . S
C234 C235 1.386 . S
C234 C237 1.388 . S
C235 C234 1.386 . S
C235 C236 1.382 . S
C235 H261 0.950 . S
C236 N233 1.332 . S
C236 C235 1.382 . S
C236 H247 0.952 1_545 S
C237 C234 1.388 . S
C237 C238 1.382 . S
C237 H262 0.950 . S
C238 N233 1.332 . S
C238 C237 1.382 . S
C238 H248 0.948 . S
N239 Co217 2.282 1_565 S
N239 C243 1.332 . S
N239 C244 1.332 . S
C240 C241 1.388 . S
C240 C244 1.382 . S
C240 H263 0.950 . S
C241 C240 1.388 . S
C241 C242 1.386 . S
C242 C241 1.386 . S
C242 C243 1.382 . S
C242 H264 0.950 . S
C243 N239 1.332 . S
C243 C242 1.382 . S
C243 H245 0.952 1_565 S
C244 N239 1.332 . S
C244 C240 1.382 . S
C244 H246 0.948 . S
H245 C243 0.952 1_545 S
H246 C244 0.948 . S
H247 C236 0.952 1_565 S
H248 C238 0.948 . S
C249 C215 1.395 . S
C249 C219 1.391 . S
C250 C212 1.389 . S
C250 C232 1.392 . S
C251 C222 1.392 . S
C251 C224 1.389 . S
C252 C227 1.395 . S
C252 C229 1.391 . S
H253 C213 0.951 . S
H254 C214 0.950 . S
H255 C220 0.949 . S
H256 C221 0.950 . S
H257 C225 0.951 . S
H258 C226 0.950 . S
H259 C230 0.949 . S
H260 C231 0.950 . S
H261 C235 0.950 . S
H262 C237 0.950 . S
H263 C240 0.950 . S
H264 C242 0.950 . S
C265 C266 1.443 . S
C265 N269 1.376 . S
C265 C303 1.389 . S
C266 C265 1.443 . S
C266 C267 1.340 . S
C266 H306 0.951 . S
C267 C266 1.340 . S
C267 C268 1.439 . S
C267 H307 0.950 . S
C268 C267 1.439 . S
C268 N269 1.374 . S
C268 C302 1.395 . S
N269 C265 1.376 . S
N269 C268 1.374 . S
N269 Co270 2.008 . S
Co270 N269 2.008 . S
Co270 N271 1.995 . S
Co270 N276 2.008 . S
Co270 N281 1.995 . S
Co270 N286 2.282 . S
Co270 N292 2.282 . S
N271 Co270 1.995 . S
N271 C272 1.376 . S
N271 C275 1.383 . S
C272 N271 1.376 . S
C272 C273 1.446 . S
C272 C302 1.391 . S
C273 C272 1.446 . S
C273 C274 1.339 . S
C273 H308 0.949 . S
C274 C273 1.339 . S
C274 C275 1.439 . S
C274 H309 0.950 . S
C275 N271 1.383 . S
C275 C274 1.439 . S
C275 C304 1.392 . S
N276 Co270 2.008 . S
N276 C277 1.376 . S
N276 C280 1.374 . S
C277 N276 1.376 . S
C277 C278 1.443 . S
C277 C304 1.389 . S
C278 C277 1.443 . S
C278 C279 1.340 . S
C278 H310 0.951 . S
C279 C278 1.340 . S
C279 C280 1.439 . S
C279 H311 0.950 . S
C280 N276 1.374 . S
C280 C279 1.439 . S
C280 C305 1.395 . S
N281 Co270 1.995 . S
N281 C282 1.376 . S
N281 C285 1.383 . S
C282 N281 1.376 . S
C282 C283 1.446 . S
C282 C305 1.391 . S
C283 C282 1.446 . S
C283 C284 1.339 . S
C283 H312 0.949 . S
C284 C283 1.339 . S
C284 C285 1.439 . S
C284 H313 0.950 . S
C285 N281 1.383 . S
C285 C284 1.439 . S
C285 C303 1.392 . S
N286 Co270 2.282 . S
N286 C289 1.332 . S
N286 C291 1.332 . S
C287 C288 1.386 . S
C287 C290 1.388 . S
C288 C287 1.386 . S
C288 C289 1.382 . S
C288 H314 0.950 . S
C289 N286 1.332 . S
C289 C288 1.382 . S
C289 H300 0.952 . S
C290 C287 1.388 . S
C290 C291 1.382 . S
C290 H315 0.950 . S
C291 N286 1.332 . S
C291 C290 1.382 . S
C291 H301 0.948 . S
N292 Co270 2.282 . S
N292 C296 1.332 . S
N292 C297 1.332 . S
C293 C294 1.388 . S
C293 C297 1.382 . S
C293 H316 0.950 . S
C294 C293 1.388 . S
C294 C295 1.386 . S
C295 C294 1.386 . S
C295 C296 1.382 . S
C295 H317 0.950 . S
C296 N292 1.332 . S
C296 C295 1.382 . S
C296 H298 0.952 . S
C297 N292 1.332 . S
C297 C293 1.382 . S
C297 H299 0.948 . S
H298 C296 0.952 . S
H299 C297 0.948 . S
H300 C289 0.952 . S
H301 C291 0.948 . S
C302 C268 1.395 . S
C302 C272 1.391 . S
C303 C265 1.389 . S
C303 C285 1.392 . S
C304 C275 1.392 . S
C304 C277 1.389 . S
C305 C280 1.395 . S
C305 C282 1.391 . S
H306 C266 0.951 . S
H307 C267 0.950 . S
H308 C273 0.949 . S
H309 C274 0.950 . S
H310 C278 0.951 . S
H311 C279 0.950 . S
H312 C283 0.949 . S
H313 C284 0.950 . S
H314 C288 0.950 . S
H315 C290 0.950 . S
H316 C293 0.950 . S
H317 C295 0.950 . S
Cu318 N319 1.999 . S
Cu318 O324 1.974 . S
Cu318 N329 1.985 . S
Cu318 O338 1.959 . S
N319 Cu318 1.999 . S
N319 C321 1.263 . S
N319 C323 1.389 . S
N320 C321 1.358 . S
N320 C322 1.400 . S
C321 N319 1.263 . S
C321 N320 1.358 . S
C321 H327 0.930 . S
C322 N320 1.400 . S
C322 C323 1.351 . S
C322 H339 0.930 . S
C323 N319 1.389 . S
C323 C322 1.351 . S
C323 H328 0.930 . S
O324 Cu318 1.974 . S
O324 C334 1.282 . S
C325 O326 1.261 . S
C325 O338 1.251 . S
O326 C325 1.261 . S
H327 C321 0.930 . S
H328 C323 0.930 . S
N329 Cu318 1.985 . S
N329 C331 1.335 . S
N329 C332 1.390 . S
N330 C331 1.345 . S
N330 C333 1.336 . S
C331 N329 1.335 . S
C331 N330 1.345 . S
C331 H336 0.930 . S
C332 N329 1.390 . S
C332 C333 1.346 . S
C332 H337 0.930 . S
C333 N330 1.336 . S
C333 C332 1.346 . S
C333 H340 0.929 . S
C334 O324 1.282 . S
C334 O335 1.216 . S
O335 C334 1.216 . S
H336 C331 0.930 . S
H337 C332 0.930 . S
O338 Cu318 1.959 . S
O338 C325 1.251 . S
H339 C322 0.930 . S
H340 C333 0.929 . S
Cu341 N342 1.999 . S
Cu341 O347 1.974 . S
Cu341 N352 1.985 . S
Cu341 O361 1.959 . S
N342 Cu341 1.999 . S
N342 C344 1.263 . S
N342 C346 1.389 . S
N343 C344 1.358 . S
N343 C345 1.400 . S
C344 N342 1.263 . S
C344 N343 1.358 . S
C344 H350 0.930 . S
C345 N343 1.400 . S
C345 C346 1.351 . S
C345 H362 0.930 . S
C346 N342 1.389 . S
C346 C345 1.351 . S
C346 H351 0.930 . S
O347 Cu341 1.974 . S
O347 C357 1.282 . S
C348 O349 1.261 . S
C348 O361 1.251 . S
O349 C348 1.261 . S
H350 C344 0.930 . S
H351 C346 0.930 . S
N352 Cu341 1.985 . S
N352 C354 1.335 . S
N352 C355 1.390 . S
N353 C354 1.345 . S
N353 C356 1.336 . S
C354 N352 1.335 . S
C354 N353 1.345 . S
C354 H359 0.930 . S
C355 N352 1.390 . S
C355 C356 1.346 . S
C355 H360 0.930 . S
C356 N353 1.336 . S
C356 C355 1.346 . S
C356 H363 0.929 . S
C357 O347 1.282 . S
C357 O358 1.216 . S
O358 C357 1.216 . S
H359 C354 0.930 . S
H360 C355 0.930 . S
O361 Cu341 1.959 . S
O361 C348 1.251 . S
H362 C345 0.930 . S
H363 C356 0.929 . S
Cu364 N365 1.999 . S
Cu364 O370 1.974 . S
Cu364 N375 1.985 . S
Cu364 O384 1.959 . S
N365 Cu364 1.999 . S
N365 C367 1.263 . S
N365 C369 1.389 . S
N366 C367 1.358 . S
N366 C368 1.400 . S
C367 N365 1.263 . S
C367 N366 1.358 . S
C367 H373 0.930 . S
C368 N366 1.400 . S
C368 C369 1.351 . S
C368 H385 0.930 . S
C369 N365 1.389 . S
C369 C368 1.351 . S
C369 H374 0.930 . S
O370 Cu364 1.974 . S
O370 C380 1.282 . S
C371 O372 1.261 . S
C371 O384 1.251 . S
O372 C371 1.261 . S
H373 C367 0.930 . S
H374 C369 0.930 . S
N375 Cu364 1.985 . S
N375 C377 1.335 . S
N375 C378 1.390 . S
N376 C377 1.345 . S
N376 C379 1.336 . S
C377 N375 1.335 . S
C377 N376 1.345 . S
C377 H382 0.930 . S
C378 N375 1.390 . S
C378 C379 1.346 . S
C378 H383 0.930 . S
C379 N376 1.336 . S
C379 C378 1.346 . S
C379 H386 0.929 . S
C380 O370 1.282 . S
C380 O381 1.216 . S
O381 C380 1.216 . S
H382 C377 0.930 . S
H383 C378 0.930 . S
O384 Cu364 1.959 . S
O384 C371 1.251 . S
H385 C368 0.930 . S
H386 C379 0.929 . S
Cu387 N388 1.999 . S
Cu387 O393 1.974 . S
Cu387 N398 1.985 . S
Cu387 O407 1.959 . S
N388 Cu387 1.999 . S
N388 C390 1.263 . S
N388 C392 1.389 . S
N389 C390 1.358 . S
N389 C391 1.400 . S
C390 N388 1.263 . S
C390 N389 1.358 . S
C390 H396 0.930 . S
C391 N389 1.400 . S
C391 C392 1.351 . S
C391 H408 0.930 . S
C392 N388 1.389 . S
C392 C391 1.351 . S
C392 H397 0.930 . S
O393 Cu387 1.974 . S
O393 C403 1.282 . S
C394 O395 1.261 . S
C394 O407 1.251 . S
O395 C394 1.261 . S
H396 C390 0.930 . S
H397 C392 0.930 . S
N398 Cu387 1.985 . S
N398 C400 1.335 . S
N398 C401 1.390 . S
N399 C400 1.345 . S
N399 C402 1.336 . S
C400 N398 1.335 . S
C400 N399 1.345 . S
C400 H405 0.930 . S
C401 N398 1.390 . S
C401 C402 1.346 . S
C401 H406 0.930 . S
C402 N399 1.336 . S
C402 C401 1.346 . S
C402 H409 0.929 . S
C403 O393 1.282 . S
C403 O404 1.216 . S
O404 C403 1.216 . S
H405 C400 0.930 . S
H406 C401 0.930 . S
O407 Cu387 1.959 . S
O407 C394 1.251 . S
H408 C391 0.930 . S
H409 C402 0.929 . S
Cu410 N411 1.999 . S
Cu410 O416 1.974 . S
Cu410 N421 1.985 . S
Cu410 O430 1.959 . S
N411 Cu410 1.999 . S
N411 C413 1.263 . S
N411 C415 1.389 . S
N412 C413 1.358 . S
N412 C414 1.400 . S
C413 N411 1.263 . S
C413 N412 1.358 . S
C413 H419 0.930 . S
C414 N412 1.400 . S
C414 C415 1.351 . S
C414 H431 0.930 . S
C415 N411 1.389 . S
C415 C414 1.351 . S
C415 H420 0.930 . S
O416 Cu410 1.974 . S
O416 C426 1.282 . S
C417 O418 1.261 . S
C417 O430 1.251 . S
O418 C417 1.261 . S
H419 C413 0.930 . S
H420 C415 0.930 . S
N421 Cu410 1.985 . S
N421 C423 1.335 . S
N421 C424 1.390 . S
N422 C423 1.345 . S
N422 C425 1.336 . S
C423 N421 1.335 . S
C423 N422 1.345 . S
C423 H428 0.930 . S
C424 N421 1.390 . S
C424 C425 1.346 . S
C424 H429 0.930 . S
C425 N422 1.336 . S
C425 C424 1.346 . S
C425 H432 0.929 . S
C426 O416 1.282 . S
C426 O427 1.216 . S
O427 C426 1.216 . S
H428 C423 0.930 . S
H429 C424 0.930 . S
O430 Cu410 1.959 . S
O430 C417 1.251 . S
H431 C414 0.930 . S
H432 C425 0.929 . S
Cu433 N434 1.999 . S
Cu433 O439 1.974 . S
Cu433 N444 1.985 . S
Cu433 O453 1.959 . S
N434 Cu433 1.999 . S
N434 C436 1.263 . S
N434 C438 1.389 . S
N435 C436 1.358 . S
N435 C437 1.400 . S
C436 N434 1.263 . S
C436 N435 1.358 . S
C436 H442 0.930 . S
C437 N435 1.400 . S
C437 C438 1.351 . S
C437 H454 0.930 . S
C438 N434 1.389 . S
C438 C437 1.351 . S
C438 H443 0.930 . S
O439 Cu433 1.974 . S
O439 C449 1.282 . S
C440 O441 1.261 . S
C440 O453 1.251 . S
O441 C440 1.261 . S
H442 C436 0.930 . S
H443 C438 0.930 . S
N444 Cu433 1.985 . S
N444 C446 1.335 . S
N444 C447 1.390 . S
N445 C446 1.345 . S
N445 C448 1.336 . S
C446 N444 1.335 . S
C446 N445 1.345 . S
C446 H451 0.930 . S
C447 N444 1.390 . S
C447 C448 1.346 . S
C447 H452 0.930 . S
C448 N445 1.336 . S
C448 C447 1.346 . S
C448 H455 0.929 . S
C449 O439 1.282 . S
C449 O450 1.216 . S
O450 C449 1.216 . S
H451 C446 0.930 . S
H452 C447 0.930 . S
O453 Cu433 1.959 . S
O453 C440 1.251 . S
H454 C437 0.930 . S
H455 C448 0.929 . S
C456 C457 1.369 . S
C456 C458 1.419 . S
C456 H460 0.930 . S
C457 C456 1.369 . S
C457 C466 1.429 . S
C458 C456 1.419 . S
C458 C459 1.363 . S
C458 H461 0.929 . S
C459 C458 1.363 . S
C459 C465 1.428 . S
H460 C456 0.930 . S
H461 C458 0.929 . S
S462 N463 1.613 . S
S462 N464 1.610 . S
N463 S462 1.613 . S
N463 C466 1.350 . S
N464 S462 1.610 . S
N464 C465 1.351 . S
C465 C459 1.428 . S
C465 N464 1.351 . S
C465 C466 1.434 . S
C466 C457 1.429 . S
C466 N463 1.350 . S
C466 C465 1.434 . S
C467 C468 1.369 . S
C467 C469 1.419 . S
C467 H471 0.930 . S
C468 C467 1.369 . S
C468 C477 1.429 . S
C469 C467 1.419 . S
C469 C470 1.363 . S
C469 H472 0.929 . S
C470 C469 1.363 . S
C470 C476 1.428 . S
H471 C467 0.930 . S
H472 C469 0.929 . S
S473 N474 1.613 . S
S473 N475 1.610 . S
N474 S473 1.613 . S
N474 C477 1.350 . S
N475 S473 1.610 . S
N475 C476 1.351 . S
C476 C470 1.428 . S
C476 N475 1.351 . S
C476 C477 1.434 . S
C477 C468 1.429 . S
C477 N474 1.350 . S
C477 C476 1.434 . S
C478 C479 1.369 . S
C478 C480 1.419 . S
C478 H482 0.930 . S
C479 C478 1.369 . S
C479 C488 1.429 . S
C480 C478 1.419 . S
C480 C481 1.363 . S
C480 H483 0.929 . S
C481 C480 1.363 . S
C481 C487 1.428 . S
H482 C478 0.930 . S
H483 C480 0.929 . S
S484 N485 1.613 . S
S484 N486 1.610 . S
N485 S484 1.613 . S
N485 C488 1.350 . S
N486 S484 1.610 . S
N486 C487 1.351 . S
C487 C481 1.428 . S
C487 N486 1.351 . S
C487 C488 1.434 . S
C488 C479 1.429 . S
C488 N485 1.350 . S
C488 C487 1.434 . S
C489 C490 1.369 . S
C489 C491 1.419 . S
C489 H493 0.930 . S
C490 C489 1.369 . S
C490 C499 1.429 . S
C491 C489 1.419 . S
C491 C492 1.363 . S
C491 H494 0.929 . S
C492 C491 1.363 . S
C492 C498 1.428 . S
H493 C489 0.930 . S
H494 C491 0.929 . S
S495 N496 1.613 . S
S495 N497 1.610 . S
N496 S495 1.613 . S
N496 C499 1.350 . S
N497 S495 1.610 . S
N497 C498 1.351 . S
C498 C492 1.428 . S
C498 N497 1.351 . S
C498 C499 1.434 . S
C499 C490 1.429 . S
C499 N496 1.350 . S
C499 C498 1.434 . S
C500 C501 1.369 . S
C500 C502 1.419 . S
C500 H504 0.930 . S
C501 C500 1.369 . S
C501 C510 1.429 . S
C502 C500 1.419 . S
C502 C503 1.363 . S
C502 H505 0.929 . S
C503 C502 1.363 . S
C503 C509 1.428 . S
H504 C500 0.930 . S
H505 C502 0.929 . S
S506 N507 1.613 . S
S506 N508 1.610 . S
N507 S506 1.613 . S
N507 C510 1.350 . S
N508 S506 1.610 . S
N508 C509 1.351 . S
C509 C503 1.428 . S
C509 N508 1.351 . S
C509 C510 1.434 . S
C510 C501 1.429 . S
C510 N507 1.350 . S
C510 C509 1.434 . S
C511 C512 1.369 . S
C511 C513 1.419 . S
C511 H515 0.930 . S
C512 C511 1.369 . S
C512 C521 1.429 . S
C513 C511 1.419 . S
C513 C514 1.363 . S
C513 H516 0.929 . S
C514 C513 1.363 . S
C514 C520 1.428 . S
H515 C511 0.930 . S
H516 C513 0.929 . S
S517 N518 1.613 . S
S517 N519 1.610 . S
N518 S517 1.613 . S
N518 C521 1.350 . S
N519 S517 1.610 . S
N519 C520 1.351 . S
C520 C514 1.428 . S
C520 N519 1.351 . S
C520 C521 1.434 . S
C521 C512 1.429 . S
C521 N518 1.350 . S
C521 C520 1.434 . S
C522 C523 1.369 . S
C522 C524 1.419 . S
C522 H526 0.930 . S
C523 C522 1.369 . S
C523 C532 1.429 . S
C524 C522 1.419 . S
C524 C525 1.363 . S
C524 H527 0.929 . S
C525 C524 1.363 . S
C525 C531 1.428 . S
H526 C522 0.930 . S
H527 C524 0.929 . S
S528 N529 1.613 . S
S528 N530 1.610 . S
N529 S528 1.613 . S
N529 C532 1.350 . S
N530 S528 1.610 . S
N530 C531 1.351 . S
C531 C525 1.428 . S
C531 N530 1.351 . S
C531 C532 1.434 . S
C532 C523 1.429 . S
C532 N529 1.350 . S
C532 C531 1.434 . S
C533 C534 1.369 . S
C533 C535 1.419 . S
C533 H537 0.930 . S
C534 C533 1.369 . S
C534 C543 1.429 . S
C535 C533 1.419 . S
C535 C536 1.363 . S
C535 H538 0.929 . S
C536 C535 1.363 . S
C536 C542 1.428 . S
H537 C533 0.930 . S
H538 C535 0.929 . S
S539 N540 1.613 . S
S539 N541 1.610 . S
N540 S539 1.613 . S
N540 C543 1.350 . S
N541 S539 1.610 . S
N541 C542 1.351 . S
C542 C536 1.428 . S
C542 N541 1.351 . S
C542 C543 1.434 . S
C543 C534 1.429 . S
C543 N540 1.350 . S
C543 C542 1.434 . S
C544 C545 1.369 . S
C544 C546 1.419 . S
C544 H548 0.930 . S
C545 C544 1.369 . S
C545 C554 1.429 . S
C546 C544 1.419 . S
C546 C547 1.363 . S
C546 H549 0.929 . S
C547 C546 1.363 . S
C547 C553 1.428 . S
H548 C544 0.930 . S
H549 C546 0.929 . S
S550 N551 1.613 . S
S550 N552 1.610 . S
N551 S550 1.613 . S
N551 C554 1.350 . S
N552 S550 1.610 . S
N552 C553 1.351 . S
C553 C547 1.428 . S
C553 N552 1.351 . S
C553 C554 1.434 . S
C554 C545 1.429 . S
C554 N551 1.350 . S
C554 C553 1.434 . S
C555 C556 1.369 . S
C555 C557 1.419 . S
C555 H559 0.930 . S
C556 C555 1.369 . S
C556 C565 1.429 . S
C557 C555 1.419 . S
C557 C558 1.363 . S
C557 H560 0.929 . S
C558 C557 1.363 . S
C558 C564 1.428 . S
H559 C555 0.930 . S
H560 C557 0.929 . S
S561 N562 1.613 . S
S561 N563 1.610 . S
N562 S561 1.613 . S
N562 C565 1.350 . S
N563 S561 1.610 . S
N563 C564 1.351 . S
C564 C558 1.428 . S
C564 N563 1.351 . S
C564 C565 1.434 . S
C565 C556 1.429 . S
C565 N562 1.350 . S
C565 C564 1.434 . S
C566 C567 1.369 . S
C566 C568 1.419 . S
C566 H570 0.930 . S
C567 C566 1.369 . S
C567 C576 1.429 . S
C568 C566 1.419 . S
C568 C569 1.363 . S
C568 H571 0.929 . S
C569 C568 1.363 . S
C569 C575 1.428 . S
H570 C566 0.930 . S
H571 C568 0.929 . S
S572 N573 1.613 . S
S572 N574 1.610 . S
N573 S572 1.613 . S
N573 C576 1.350 . S
N574 S572 1.610 . S
N574 C575 1.351 . S
C575 C569 1.428 . S
C575 N574 1.351 . S
C575 C576 1.434 . S
C576 C567 1.429 . S
C576 N573 1.350 . S
C576 C575 1.434 . S
C577 C578 1.369 . S
C577 C579 1.419 . S
C577 H581 0.930 . S
C578 C577 1.369 . S
C578 C587 1.429 . S
C579 C577 1.419 . S
C579 C580 1.363 . S
C579 H582 0.929 . S
C580 C579 1.363 . S
C580 C586 1.428 . S
H581 C577 0.930 . S
H582 C579 0.929 . S
S583 N584 1.613 . S
S583 N585 1.610 . S
N584 S583 1.613 . S
N584 C587 1.350 . S
N585 S583 1.610 . S
N585 C586 1.351 . S
C586 C580 1.428 . S
C586 N585 1.351 . S
C586 C587 1.434 . S
C587 C578 1.429 . S
C587 N584 1.350 . S
C587 C586 1.434 . S
C588 C589 1.369 . S
C588 C590 1.419 . S
C588 H592 0.930 . S
C589 C588 1.369 . S
C589 C598 1.429 . S
C590 C588 1.419 . S
C590 C591 1.363 . S
C590 H593 0.929 . S
C591 C590 1.363 . S
C591 C597 1.428 . S
H592 C588 0.930 . S
H593 C590 0.929 . S
S594 N595 1.613 . S
S594 N596 1.610 . S
N595 S594 1.613 . S
N595 C598 1.350 . S
N596 S594 1.610 . S
N596 C597 1.351 . S
C597 C591 1.428 . S
C597 N596 1.351 . S
C597 C598 1.434 . S
C598 C589 1.429 . S
C598 N595 1.350 . S
C598 C597 1.434 . S
C599 C600 1.369 . S
C599 C601 1.419 . S
C599 H603 0.930 . S
C600 C599 1.369 . S
C600 C609 1.429 . S
C601 C599 1.419 . S
C601 C602 1.363 . S
C601 H604 0.929 . S
C602 C601 1.363 . S
C602 C608 1.428 . S
H603 C599 0.930 . S
H604 C601 0.929 . S
S605 N606 1.613 . S
S605 N607 1.610 . S
N606 S605 1.613 . S
N606 C609 1.350 . S
N607 S605 1.610 . S
N607 C608 1.351 . S
C608 C602 1.428 . S
C608 N607 1.351 . S
C608 C609 1.434 . S
C609 C600 1.429 . S
C609 N606 1.350 . S
C609 C608 1.434 . S
C610 C611 1.369 . S
C610 C612 1.419 . S
C610 H614 0.930 . S
C611 C610 1.369 . S
C611 C620 1.429 . S
C612 C610 1.419 . S
C612 C613 1.363 . S
C612 H615 0.929 . S
C613 C612 1.363 . S
C613 C619 1.428 . S
H614 C610 0.930 . S
H615 C612 0.929 . S
S616 N617 1.613 . S
S616 N618 1.610 . S
N617 S616 1.613 . S
N617 C620 1.350 . S
N618 S616 1.610 . S
N618 C619 1.351 . S
C619 C613 1.428 . S
C619 N618 1.351 . S
C619 C620 1.434 . S
C620 C611 1.429 . S
C620 N617 1.350 . S
C620 C619 1.434 . S
C621 C622 1.369 . S
C621 C623 1.419 . S
C621 H625 0.930 . S
C622 C621 1.369 . S
C622 C631 1.429 . S
C623 C621 1.419 . S
C623 C624 1.363 . S
C623 H626 0.929 . S
C624 C623 1.363 . S
C624 C630 1.428 . S
H625 C621 0.930 . S
H626 C623 0.929 . S
S627 N628 1.613 . S
S627 N629 1.610 . S
N628 S627 1.613 . S
N628 C631 1.350 . S
N629 S627 1.610 . S
N629 C630 1.351 . S
C630 C624 1.428 . S
C630 N629 1.351 . S
C630 C631 1.434 . S
C631 C622 1.429 . S
C631 N628 1.350 . S
C631 C630 1.434 . S
C632 C633 1.369 . S
C632 C634 1.419 . S
C632 H636 0.930 . S
C633 C632 1.369 . S
C633 C642 1.429 . S
C634 C632 1.419 . S
C634 C635 1.363 . S
C634 H637 0.929 . S
C635 C634 1.363 . S
C635 C641 1.428 . S
H636 C632 0.930 . S
H637 C634 0.929 . S
S638 N639 1.613 . S
S638 N640 1.610 . S
N639 S638 1.613 . S
N639 C642 1.350 . S
N640 S638 1.610 . S
N640 C641 1.351 . S
C641 C635 1.428 . S
C641 N640 1.351 . S
C641 C642 1.434 . S
C642 C633 1.429 . S
C642 N639 1.350 . S
C642 C641 1.434 . S
C643 C644 1.369 . S
C643 C645 1.419 . S
C643 H647 0.930 . S
C644 C643 1.369 . S
C644 C653 1.429 . S
C645 C643 1.419 . S
C645 C646 1.363 . S
C645 H648 0.929 . S
C646 C645 1.363 . S
C646 C652 1.428 . S
H647 C643 0.930 . S
H648 C645 0.929 . S
S649 N650 1.613 . S
S649 N651 1.610 . S
N650 S649 1.613 . S
N650 C653 1.350 . S
N651 S649 1.610 . S
N651 C652 1.351 . S
C652 C646 1.428 . S
C652 N651 1.351 . S
C652 C653 1.434 . S
C653 C644 1.429 . S
C653 N650 1.350 . S
C653 C652 1.434 . S
C654 C655 1.369 . S
C654 C656 1.419 . S
C654 H658 0.930 . S
C655 C654 1.369 . S
C655 C664 1.429 . S
C656 C654 1.419 . S
C656 C657 1.363 . S
C656 H659 0.929 . S
C657 C656 1.363 . S
C657 C663 1.428 . S
H658 C654 0.930 . S
H659 C656 0.929 . S
S660 N661 1.613 . S
S660 N662 1.610 . S
N661 S660 1.613 . S
N661 C664 1.350 . S
N662 S660 1.610 . S
N662 C663 1.351 . S
C663 C657 1.428 . S
C663 N662 1.351 . S
C663 C664 1.434 . S
C664 C655 1.429 . S
C664 N661 1.350 . S
C664 C663 1.434 . S
C665 C666 1.369 . S
C665 C667 1.419 . S
C665 H669 0.930 . S
C666 C665 1.369 . S
C666 C675 1.429 . S
C667 C665 1.419 . S
C667 C668 1.363 . S
C667 H670 0.929 . S
C668 C667 1.363 . S
C668 C674 1.428 . S
H669 C665 0.930 . S
H670 C667 0.929 . S
S671 N672 1.613 . S
S671 N673 1.610 . S
N672 S671 1.613 . S
N672 C675 1.350 . S
N673 S671 1.610 . S
N673 C674 1.351 . S
C674 C668 1.428 . S
C674 N673 1.351 . S
C674 C675 1.434 . S
C675 C666 1.429 . S
C675 N672 1.350 . S
C675 C674 1.434 . S
C676 C677 1.369 . S
C676 C678 1.419 . S
C676 H680 0.930 . S
C677 C676 1.369 . S
C677 C686 1.429 . S
C678 C676 1.419 . S
C678 C679 1.363 . S
C678 H681 0.929 . S
C679 C678 1.363 . S
C679 C685 1.428 . S
H680 C676 0.930 . S
H681 C678 0.929 . S
S682 N683 1.613 . S
S682 N684 1.610 . S
N683 S682 1.613 . S
N683 C686 1.350 . S
N684 S682 1.610 . S
N684 C685 1.351 . S
C685 C679 1.428 . S
C685 N684 1.351 . S
C685 C686 1.434 . S
C686 C677 1.429 . S
C686 N683 1.350 . S
C686 C685 1.434 . S
C687 C688 1.369 . S
C687 C689 1.419 . S
C687 H691 0.930 . S
C688 C687 1.369 . S
C688 C697 1.429 . S
C689 C687 1.419 . S
C689 C690 1.363 . S
C689 H692 0.929 . S
C690 C689 1.363 . S
C690 C696 1.428 . S
H691 C687 0.930 . S
H692 C689 0.929 . S
S693 N694 1.613 . S
S693 N695 1.610 . S
N694 S693 1.613 . S
N694 C697 1.350 . S
N695 S693 1.610 . S
N695 C696 1.351 . S
C696 C690 1.428 . S
C696 N695 1.351 . S
C696 C697 1.434 . S
C697 C688 1.429 . S
C697 N694 1.350 . S
C697 C696 1.434 . S
C698 C699 1.369 . S
C698 C700 1.419 . S
C698 H702 0.930 . S
C699 C698 1.369 . S
C699 C708 1.429 . S
C700 C698 1.419 . S
C700 C701 1.363 . S
C700 H703 0.929 . S
C701 C700 1.363 . S
C701 C707 1.428 . S
H702 C698 0.930 . S
H703 C700 0.929 . S
S704 N705 1.613 . S
S704 N706 1.610 . S
N705 S704 1.613 . S
N705 C708 1.350 . S
N706 S704 1.610 . S
N706 C707 1.351 . S
C707 C701 1.428 . S
C707 N706 1.351 . S
C707 C708 1.434 . S
C708 C699 1.429 . S
C708 N705 1.350 . S
C708 C707 1.434 . S
C709 C710 1.369 . S
C709 C711 1.419 . S
C709 H713 0.930 . S
C710 C709 1.369 . S
C710 C719 1.429 . S
C711 C709 1.419 . S
C711 C712 1.363 . S
C711 H714 0.929 . S
C712 C711 1.363 . S
C712 C718 1.428 . S
H713 C709 0.930 . S
H714 C711 0.929 . S
S715 N716 1.613 . S
S715 N717 1.610 . S
N716 S715 1.613 . S
N716 C719 1.350 . S
N717 S715 1.610 . S
N717 C718 1.351 . S
C718 C712 1.428 . S
C718 N717 1.351 . S
C718 C719 1.434 . S
C719 C710 1.429 . S
C719 N716 1.350 . S
C719 C718 1.434 . S
C457 C39 2.155 . S
C459 C325 2.126 . S
C468 C91 1.448 . S
C470 N343 1.443 . S
C481 C371 1.918 . S
C479 C128 1.957 . S
C492 N389 1.292 . S
C490 C188 1.303 . S
C503 C417 2.023 . S
C501 C250 2.056 . S
C514 N435 1.473 . S
C512 C304 1.473 . S
C523 C75 1.992 . S
C525 C380 1.991 . S
C534 C144 1.462 . S
C536 N399 1.400 . S
C547 C426 2.090 . S
C545 C198 2.087 . S
C558 N445 1.233 . S
C556 C234 1.308 . S
C567 C294 1.895 . S
C569 C334 1.885 . S
C580 N353 1.234 . S
C578 C29 1.298 . S
C591 C403 1.976 . S
C589 C38 2.026 . S
C600 C92 1.308 . S
C602 N422 1.287 . S
C613 C449 1.773 . S
C611 C135 1.827 . S
C622 C181 1.154 . S
C624 N330 1.121 . S
C633 C251 1.937 . S
C635 C357 1.886 . S
C644 C303 1.292 . S
C646 N376 1.273 . S
C655 C82 1.882 . S
C657 C440 1.864 . S
C668 N320 1.242 . S
C666 C145 1.322 . S
C677 C197 1.987 . S
C679 C348 1.976 . S
C688 C241 1.158 . S
C690 N366 1.069 . S
C699 C287 1.797 . S
C701 C394 1.776 . S
C710 C22 1.170 . S
C712 N412 1.107 . S
