# Generated by pormake.
# Topology gar, (4,6)-cn, num edge types: 1
# Building blocks:
#     Node 0, Type 0, BuildingBlock: AZAVOO_clean_sbu_0, # of connection points: 4
#     Node 1, Type 0, BuildingBlock: AZAVOO_clean_sbu_0, # of connection points: 4
#     Node 2, Type 0, BuildingBlock: AZAVOO_clean_sbu_0, # of connection points: 4
#     Node 3, Type 0, BuildingBlock: AZAVOO_clean_sbu_0, # of connection points: 4
#     Node 4, Type 0, BuildingBlock: AZAVOO_clean_sbu_0, # of connection points: 4
#     Node 5, Type 0, BuildingBlock: AZAVOO_clean_sbu_0, # of connection points: 4
#     Node 6, Type 0, BuildingBlock: AZAVOO_clean_sbu_0, # of connection points: 4
#     Node 7, Type 0, BuildingBlock: AZAVOO_clean_sbu_0, # of connection points: 4
#     Node 8, Type 0, BuildingBlock: AZAVOO_clean_sbu_0, # of connection points: 4
#     Node 9, Type 0, BuildingBlock: AZAVOO_clean_sbu_0, # of connection points: 4
#     Node 10, Type 0, BuildingBlock: AZAVOO_clean_sbu_0, # of connection points: 4
#     Node 11, Type 0, BuildingBlock: AZAVOO_clean_sbu_0, # of connection points: 4
#     Node 12, Type 0, BuildingBlock: AZAVOO_clean_sbu_0, # of connection points: 4
#     Node 13, Type 0, BuildingBlock: AZAVOO_clean_sbu_0, # of connection points: 4
#     Node 14, Type 0, BuildingBlock: AZAVOO_clean_sbu_0, # of connection points: 4
#     Node 15, Type 0, BuildingBlock: AZAVOO_clean_sbu_0, # of connection points: 4
#     Node 16, Type 0, BuildingBlock: AZAVOO_clean_sbu_0, # of connection points: 4
#     Node 17, Type 0, BuildingBlock: AZAVOO_clean_sbu_0, # of connection points: 4
#     Node 18, Type 0, BuildingBlock: AZAVOO_clean_sbu_0, # of connection points: 4
#     Node 19, Type 0, BuildingBlock: AZAVOO_clean_sbu_0, # of connection points: 4
#     Node 20, Type 0, BuildingBlock: AZAVOO_clean_sbu_0, # of connection points: 4
#     Node 21, Type 0, BuildingBlock: AZAVOO_clean_sbu_0, # of connection points: 4
#     Node 22, Type 0, BuildingBlock: AZAVOO_clean_sbu_0, # of connection points: 4
#     Node 23, Type 0, BuildingBlock: AZAVOO_clean_sbu_0, # of connection points: 4
#     Node 24, Type 1, BuildingBlock: BETDEL_clean_sbu_0, # of connection points: 6
#     Node 25, Type 1, BuildingBlock: BETDEL_clean_sbu_0, # of connection points: 6
#     Node 26, Type 1, BuildingBlock: BETDEL_clean_sbu_0, # of connection points: 6
#     Node 27, Type 1, BuildingBlock: BETDEL_clean_sbu_0, # of connection points: 6
#     Node 28, Type 1, BuildingBlock: BETDEL_clean_sbu_0, # of connection points: 6
#     Node 29, Type 1, BuildingBlock: BETDEL_clean_sbu_0, # of connection points: 6
#     Node 30, Type 1, BuildingBlock: BETDEL_clean_sbu_0, # of connection points: 6
#     Node 31, Type 1, BuildingBlock: BETDEL_clean_sbu_0, # of connection points: 6
#     Node 32, Type 1, BuildingBlock: BETDEL_clean_sbu_0, # of connection points: 6
#     Node 33, Type 1, BuildingBlock: BETDEL_clean_sbu_0, # of connection points: 6
#     Node 34, Type 1, BuildingBlock: BETDEL_clean_sbu_0, # of connection points: 6
#     Node 35, Type 1, BuildingBlock: BETDEL_clean_sbu_0, # of connection points: 6
#     Node 36, Type 1, BuildingBlock: BETDEL_clean_sbu_0, # of connection points: 6
#     Node 37, Type 1, BuildingBlock: BETDEL_clean_sbu_0, # of connection points: 6
#     Node 38, Type 1, BuildingBlock: BETDEL_clean_sbu_0, # of connection points: 6
#     Node 39, Type 1, BuildingBlock: BETDEL_clean_sbu_0, # of connection points: 6
#     Edge 40, Type (0, 1), None
#     Edge 41, Type (0, 1), None
#     Edge 42, Type (0, 1), None
#     Edge 43, Type (0, 1), None
#     Edge 44, Type (0, 1), None
#     Edge 45, Type (0, 1), None
#     Edge 46, Type (0, 1), None
#     Edge 47, Type (0, 1), None
#     Edge 48, Type (0, 1), None
#     Edge 49, Type (0, 1), None
#     Edge 50, Type (0, 1), None
#     Edge 51, Type (0, 1), None
#     Edge 52, Type (0, 1), None
#     Edge 53, Type (0, 1), None
#     Edge 54, Type (0, 1), None
#     Edge 55, Type (0, 1), None
#     Edge 56, Type (0, 1), None
#     Edge 57, Type (0, 1), None
#     Edge 58, Type (0, 1), None
#     Edge 59, Type (0, 1), None
#     Edge 60, Type (0, 1), None
#     Edge 61, Type (0, 1), None
#     Edge 62, Type (0, 1), None
#     Edge 63, Type (0, 1), None
#     Edge 64, Type (0, 1), None
#     Edge 65, Type (0, 1), None
#     Edge 66, Type (0, 1), None
#     Edge 67, Type (0, 1), None
#     Edge 68, Type (0, 1), None
#     Edge 69, Type (0, 1), None
#     Edge 70, Type (0, 1), None
#     Edge 71, Type (0, 1), None
#     Edge 72, Type (0, 1), None
#     Edge 73, Type (0, 1), None
#     Edge 74, Type (0, 1), None
#     Edge 75, Type (0, 1), None
#     Edge 76, Type (0, 1), None
#     Edge 77, Type (0, 1), None
#     Edge 78, Type (0, 1), None
#     Edge 79, Type (0, 1), None
#     Edge 80, Type (0, 1), None
#     Edge 81, Type (0, 1), None
#     Edge 82, Type (0, 1), None
#     Edge 83, Type (0, 1), None
#     Edge 84, Type (0, 1), None
#     Edge 85, Type (0, 1), None
#     Edge 86, Type (0, 1), None
#     Edge 87, Type (0, 1), None
#     Edge 88, Type (0, 1), None
#     Edge 89, Type (0, 1), None
#     Edge 90, Type (0, 1), None
#     Edge 91, Type (0, 1), None
#     Edge 92, Type (0, 1), None
#     Edge 93, Type (0, 1), None
#     Edge 94, Type (0, 1), None
#     Edge 95, Type (0, 1), None
#     Edge 96, Type (0, 1), None
#     Edge 97, Type (0, 1), None
#     Edge 98, Type (0, 1), None
#     Edge 99, Type (0, 1), None
#     Edge 100, Type (0, 1), None
#     Edge 101, Type (0, 1), None
#     Edge 102, Type (0, 1), None
#     Edge 103, Type (0, 1), None
#     Edge 104, Type (0, 1), None
#     Edge 105, Type (0, 1), None
#     Edge 106, Type (0, 1), None
#     Edge 107, Type (0, 1), None
#     Edge 108, Type (0, 1), None
#     Edge 109, Type (0, 1), None
#     Edge 110, Type (0, 1), None
#     Edge 111, Type (0, 1), None
#     Edge 112, Type (0, 1), None
#     Edge 113, Type (0, 1), None
#     Edge 114, Type (0, 1), None
#     Edge 115, Type (0, 1), None
#     Edge 116, Type (0, 1), None
#     Edge 117, Type (0, 1), None
#     Edge 118, Type (0, 1), None
#     Edge 119, Type (0, 1), None
#     Edge 120, Type (0, 1), None
#     Edge 121, Type (0, 1), None
#     Edge 122, Type (0, 1), None
#     Edge 123, Type (0, 1), None
#     Edge 124, Type (0, 1), None
#     Edge 125, Type (0, 1), None
#     Edge 126, Type (0, 1), None
#     Edge 127, Type (0, 1), None
#     Edge 128, Type (0, 1), None
#     Edge 129, Type (0, 1), None
#     Edge 130, Type (0, 1), None
#     Edge 131, Type (0, 1), None
#     Edge 132, Type (0, 1), None
#     Edge 133, Type (0, 1), None
#     Edge 134, Type (0, 1), None
#     Edge 135, Type (0, 1), None
# Relax obj value: 0.211
# Max RMSD: 0.319
# Mean RMSD: 0.200
data_MOF--net-gar--node1-AZAVOO_clean_sbu_0--node2-BETDEL_clean_sbu_0--edge1-none
_symmetry_space_group_name_H-M    P1
_symmetry_Int_Tables_number       1
_symmetry_cell_setting            triclinic
loop_
_symmetry_equiv_pos_as_xyz
'x, y, z'
_cell_length_a     27.187972
_cell_length_b     23.486937
_cell_length_c     24.835101
_cell_angle_alpha  99.220155
_cell_angle_beta   90.65807
_cell_angle_gamma 102.02501
loop_
_atom_site_label
_atom_site_type_symbol
_atom_site_fract_x
_atom_site_fract_y
_atom_site_fract_z
_atom_type_partial_charge
Mg0 Mg 0.06277 0.27531 0.41288 0.0
O1 O 0.07939 0.35295 0.48793 0.0
O2 O 0.00736 0.34247 0.53254 0.0
Mg3 Mg 0.94548 0.26994 0.48724 0.0
C4 C 0.05275 0.36893 0.52789 0.0
C5 C 0.14769 0.23572 0.34227 0.0
O6 O 0.11019 0.19009 0.32865 0.0
O7 O 0.06247 0.20446 0.46753 0.0
O8 O 0.98573 0.19835 0.50123 0.0
O9 O 0.03667 0.33577 0.36267 0.0
O10 O 0.9897 0.28285 0.41656 0.0
C11 C 0.02663 0.18038 0.49499 0.0
C12 C 0.99415 0.32157 0.38502 0.0
O13 O 0.14283 0.27702 0.38104 0.0
Mg14 Mg 0.01874 0.79174 0.65097 0.0
O15 O 0.02228 0.69865 0.60798 0.0
O16 O 0.96079 0.67432 0.54397 0.0
Mg17 Mg 0.90868 0.73611 0.56138 0.0
C18 C 1.00023 0.66542 0.56566 0.0
C19 C 0.10695 0.75402 0.69712 0.0
O20 O 0.06801 0.71425 0.70627 0.0
O21 O 0.04001 0.82781 0.57348 0.0
O22 O 0.96743 0.80344 0.52374 0.0
O23 O 0.9721 0.76208 0.71953 0.0
O24 O 0.94023 0.78309 0.64463 0.0
C25 C 0.01285 0.83202 0.53259 0.0
C26 C 0.93355 0.77004 0.69285 0.0
O27 O 0.1 0.7971 0.67528 0.0
Mg28 Mg 0.56277 0.77531 0.91287 0.0
O29 O 0.57939 0.85295 0.98793 0.0
O30 O 0.50736 0.84247 0.03254 0.0
Mg31 Mg 0.44548 0.76994 0.98724 0.0
C32 C 0.55275 0.86892 0.02789 0.0
C33 C 0.64769 0.73572 0.84226 0.0
O34 O 0.61019 0.69009 0.82865 0.0
O35 O 0.56247 0.70446 0.96752 0.0
O36 O 0.48573 0.69834 1.00123 0.0
O37 O 0.53667 0.83577 0.86267 0.0
O38 O 0.4897 0.78285 0.91655 0.0
C39 C 0.52663 0.68038 0.99499 0.0
C40 C 0.49415 0.82157 0.88501 0.0
O41 O 0.64283 0.77702 0.88104 0.0
Mg42 Mg 0.51873 0.29173 0.15097 0.0
O43 O 0.52228 0.19865 0.10798 0.0
O44 O 0.46079 0.17431 0.04397 0.0
Mg45 Mg 0.40867 0.23611 0.06138 0.0
C46 C 0.50023 0.16542 0.06566 0.0
C47 C 0.60695 0.25402 0.19712 0.0
O48 O 0.56801 0.21425 0.20628 0.0
O49 O 0.54001 0.3278 0.07347 0.0
O50 O 0.46743 0.30344 0.02374 0.0
O51 O 0.4721 0.26208 0.21953 0.0
O52 O 0.44022 0.28308 0.14463 0.0
C53 C 0.51285 0.33202 0.03259 0.0
C54 C 0.43355 0.27004 0.19285 0.0
O55 O 0.6 0.29709 0.17528 0.0
Mg56 Mg 0.0701 0.81592 0.18819 0.0
O57 O 0.06817 0.7276 0.12573 0.0
O58 O 0.99222 0.71409 0.08486 0.0
Mg59 Mg 0.94385 0.77825 0.11861 0.0
C60 C 0.03424 0.69881 0.08959 0.0
C61 C 0.16019 0.83979 0.26892 0.0
O62 O 0.12787 0.86688 0.29546 0.0
O63 O 0.0777 0.8772 0.11927 0.0
O64 O 0.99692 0.85208 0.08824 0.0
O65 O 0.0316 0.76678 0.25331 0.0
O66 O 0.99218 0.80075 0.19187 0.0
C67 C 0.0411 0.8838 0.08873 0.0
C68 C 0.99003 0.77404 0.23288 0.0
O69 O 0.15157 0.81994 0.21788 0.0
Mg70 Mg 0.48899 0.73194 0.35096 0.0
O71 O 0.49404 0.82165 0.40559 0.0
O72 O 0.42697 0.81301 0.45704 0.0
Mg73 Mg 0.38617 0.71639 0.43912 0.0
C74 C 0.46736 0.84327 0.44194 0.0
C75 C 0.58249 0.73215 0.28694 0.0
O76 O 0.55337 0.68176 0.26464 0.0
O77 O 0.5246 0.6986 0.42214 0.0
O78 O 0.45681 0.68824 0.47149 0.0
O79 O 0.43947 0.75426 0.28833 0.0
O80 O 0.40794 0.7075 0.35396 0.0
C81 C 0.50279 0.68469 0.46471 0.0
C82 C 0.40008 0.73165 0.31236 0.0
O83 O 0.56653 0.76537 0.32488 0.0
Mg84 Mg 0.5701 0.31592 0.68819 0.0
O85 O 0.56817 0.2276 0.62573 0.0
O86 O 0.49222 0.21409 0.58486 0.0
Mg87 Mg 0.44385 0.27825 0.61861 0.0
C88 C 0.53424 0.19881 0.58959 0.0
C89 C 0.66019 0.33979 0.76892 0.0
O90 O 0.62787 0.36687 0.79546 0.0
O91 O 0.5777 0.3772 0.61927 0.0
O92 O 0.49692 0.35208 0.58824 0.0
O93 O 0.5316 0.26678 0.75331 0.0
O94 O 0.49218 0.30075 0.69187 0.0
C95 C 0.5411 0.38379 0.58873 0.0
C96 C 0.49003 0.27404 0.73288 0.0
O97 O 0.65157 0.31994 0.71788 0.0
Mg98 Mg 0.98899 0.23194 0.85096 0.0
O99 O 0.99404 0.32165 0.90559 0.0
O100 O 0.92697 0.31301 0.95704 0.0
Mg101 Mg 0.88617 0.2164 0.93912 0.0
C102 C 0.96736 0.34327 0.94194 0.0
C103 C 0.08249 0.23215 0.78694 0.0
O104 O 0.05337 0.18176 0.76464 0.0
O105 O 0.02461 0.1986 0.92214 0.0
O106 O 0.95681 0.18824 0.97149 0.0
O107 O 0.93947 0.25426 0.78834 0.0
O108 O 0.90795 0.2075 0.85396 0.0
C109 C 1.00279 0.18469 0.96471 0.0
C110 C 0.90008 0.23165 0.81236 0.0
O111 O 0.06653 0.26537 0.82488 0.0
Mg112 Mg 0.4499 0.02793 0.28276 0.0
O113 O 0.40066 0.939 0.28769 0.0
O114 O 0.37051 0.95281 0.37179 0.0
Mg115 Mg 0.39653 0.04563 0.41609 0.0
C116 C 0.37356 0.92105 0.32571 0.0
C117 C 0.53924 0.11955 0.26847 0.0
O118 O 0.57807 0.16048 0.28969 0.0
O119 O 0.37766 0.05599 0.26718 0.0
O120 O 0.34623 0.06703 0.35003 0.0
O121 O 0.51797 0.00681 0.32318 0.0
O122 O 0.46159 0.04637 0.3675 0.0
C123 C 0.34269 0.0661 0.29856 0.0
C124 C 0.50225 0.02773 0.36908 0.0
O125 O 0.49668 0.11892 0.28842 0.0
Mg126 Mg 0.26096 0.13671 0.46745 0.0
O127 O 0.25898 0.18894 0.55816 0.0
O128 O 0.33906 0.23751 0.57358 0.0
Mg129 Mg 0.38935 0.21976 0.50011 0.0
C130 C 0.29451 0.22255 0.59025 0.0
C131 C 0.1526 0.06937 0.48068 0.0
O132 O 0.17757 0.05239 0.51851 0.0
O133 O 0.26947 0.21606 0.41752 0.0
O134 O 0.352 0.25447 0.42957 0.0
O135 O 0.27998 0.06095 0.50352 0.0
O136 O 0.33611 0.1347 0.48143 0.0
C137 C 0.30958 0.25009 0.40469 0.0
C138 C 0.32648 0.08738 0.50272 0.0
O139 O 0.17506 0.10915 0.45486 0.0
Mg140 Mg 0.15635 0.0023 0.81019 0.0
O141 O 0.20364 0.09632 0.80898 0.0
O142 O 0.25833 0.10921 0.87856 0.0
Mg143 Mg 0.22511 0.04258 0.93448 0.0
C144 C 0.24453 0.12372 0.83447 0.0
C145 C 0.12301 0.04451 0.71333 0.0
O146 O 0.11605 0.08507 0.75362 0.0
O147 O 0.22687 0.96541 0.79594 0.0
O148 O 0.26302 0.97593 0.87905 0.0
O149 O 0.08924 0.03075 0.84379 0.0
O150 O 0.14563 0.00473 0.89507 0.0
C151 C 0.26078 0.95671 0.82771 0.0
C152 C 0.10258 0.02028 0.89061 0.0
O153 O 0.14232 0.00212 0.7226 0.0
Mg154 Mg 0.30051 0.93817 0.04522 0.0
O155 O 0.27872 0.88027 0.95914 0.0
O156 O 0.32909 0.81584 0.95146 0.0
Mg157 Mg 0.38558 0.835 0.02339 0.0
C158 C 0.29282 0.83514 0.9335 0.0
C159 C 0.23415 0.03439 0.05562 0.0
O160 O 0.27509 0.06943 0.0798 0.0
O161 O 0.26189 0.85954 0.08434 0.0
O162 O 0.31981 0.80335 0.07376 0.0
O163 O 0.36211 0.00457 0.01758 0.0
O164 O 0.37268 0.92399 0.04757 0.0
C165 C 0.2782 0.81372 0.09151 0.0
C166 C 0.39192 0.97221 0.03084 0.0
O167 O 0.23289 0.97967 0.03944 0.0
Mg168 Mg 0.2897 0.4005 0.06563 0.0
O169 O 0.28034 0.35188 0.97306 0.0
O170 O 0.34457 0.30684 0.96616 0.0
Mg171 Mg 0.38693 0.32177 0.04949 0.0
C172 C 0.30685 0.32041 0.94445 0.0
C173 C 0.211 0.47537 0.04655 0.0
O174 O 0.25325 0.5135 0.04362 0.0
O175 O 0.25866 0.31485 0.1073 0.0
O176 O 0.32452 0.27206 0.09802 0.0
O177 O 0.34781 0.47782 0.03996 0.0
O178 O 0.36846 0.40636 0.07518 0.0
C179 C 0.28148 0.27435 0.11698 0.0
C180 C 0.38299 0.4537 0.05519 0.0
O181 O 0.21232 0.4236 0.0551 0.0
Mg182 Mg 0.80474 0.13711 0.06283 0.0
O183 O 0.79943 0.1986 0.14602 0.0
O184 O 0.87031 0.24471 0.11887 0.0
Mg185 Mg 0.84941 0.16613 0.05485 0.0
C186 C 0.83636 0.24314 0.15311 0.0
C187 C 0.69688 0.03415 0.07748 0.0
O188 O 0.68691 0.9842 0.09655 0.0
O189 O 0.74893 0.18261 0.0247 0.0
O190 O 0.82309 0.22734 1.00678 0.0
O191 O 0.85471 0.07127 0.07313 0.0
O192 O 0.82875 0.08037 0.99163 0.0
C193 C 0.77623 0.22326 1.00402 0.0
C194 C 0.85158 0.05257 0.02104 0.0
O195 O 0.74241 0.0617 0.07908 0.0
Mg196 Mg 0.10607 0.46578 0.23166 0.0
O197 O 0.15168 0.56068 0.25037 0.0
O198 O 0.18577 0.57009 0.33477 0.0
Mg199 Mg 0.16974 0.48572 0.36826 0.0
C200 C 0.17926 0.59048 0.29127 0.0
C201 C 0.03072 0.46579 0.14487 0.0
O202 O 0.00677 0.43272 0.17824 0.0
O203 O 0.18271 0.44172 0.21174 0.0
O204 O 0.21491 0.45822 0.29796 0.0
O205 O 0.04338 0.49062 0.28016 0.0
O206 O 0.10518 0.45552 0.31243 0.0
C207 C 0.21912 0.4456 0.24668 0.0
C208 C 0.06589 0.47678 0.32053 0.0
O209 O 0.07856 0.48287 0.15041 0.0
Mg210 Mg 0.7897 0.9005 0.56563 0.0
O211 O 0.78034 0.85188 0.47306 0.0
O212 O 0.84457 0.80684 0.46616 0.0
Mg213 Mg 0.88693 0.82177 0.54949 0.0
C214 C 0.80685 0.82041 0.44444 0.0
C215 C 0.711 0.97536 0.54655 0.0
O216 O 0.75325 0.0135 0.54362 0.0
O217 O 0.75866 0.81485 0.6073 0.0
O218 O 0.82452 0.77206 0.59802 0.0
O219 O 0.84781 0.97782 0.53996 0.0
O220 O 0.86846 0.90636 0.57518 0.0
C221 C 0.78148 0.77435 0.61697 0.0
C222 C 0.88299 0.9537 0.55519 0.0
O223 O 0.71232 0.9236 0.5551 0.0
Mg224 Mg 0.90912 0.0392 0.23407 0.0
O225 O 0.84742 0.9513 0.21618 0.0
O226 O 0.81307 0.9505 0.29821 0.0
Mg227 Mg 0.84288 0.03079 0.36201 0.0
C228 C 0.81765 0.92607 0.24935 0.0
C229 C 0.98107 0.0839 0.15697 0.0
O230 O 0.99183 0.11784 0.20481 0.0
O231 O 0.85462 0.10251 0.23221 0.0
O232 O 0.82299 0.09942 0.31467 0.0
O233 O 0.95853 0.98396 0.2603 0.0
O234 O 0.90825 0.0292 0.31339 0.0
C235 C 0.8275 0.12061 0.27041 0.0
C236 C 0.93719 0.9921 0.30625 0.0
O237 O 0.94001 0.0449 0.14986 0.0
Mg238 Mg 0.30474 0.63711 0.56283 0.0
O239 O 0.29943 0.6986 0.64602 0.0
O240 O 0.37031 0.74471 0.61887 0.0
Mg241 Mg 0.34941 0.66613 0.55485 0.0
C242 C 0.33636 0.74314 0.65311 0.0
C243 C 0.19688 0.53415 0.57748 0.0
O244 O 0.18691 0.4842 0.59655 0.0
O245 O 0.24894 0.68261 0.5247 0.0
O246 O 0.32309 0.72734 0.50678 0.0
O247 O 0.35471 0.57127 0.57313 0.0
O248 O 0.32875 0.58037 0.49163 0.0
C249 C 0.27623 0.72327 0.50402 0.0
C250 C 0.35158 0.55257 0.52104 0.0
O251 O 0.24241 0.5617 0.57908 0.0
Mg252 Mg 0.40912 0.5392 0.73407 0.0
O253 O 0.34742 0.4513 0.71618 0.0
O254 O 0.31308 0.4505 0.79821 0.0
Mg255 Mg 0.34288 0.53079 0.86201 0.0
C256 C 0.31765 0.42607 0.74935 0.0
C257 C 0.48107 0.58389 0.65697 0.0
O258 O 0.49183 0.61784 0.70481 0.0
O259 O 0.35462 0.60251 0.73221 0.0
O260 O 0.32299 0.59942 0.81467 0.0
O261 O 0.45853 0.48396 0.7603 0.0
O262 O 0.40825 0.5292 0.81339 0.0
C263 C 0.3275 0.62061 0.77041 0.0
C264 C 0.4372 0.4921 0.80625 0.0
O265 O 0.44001 0.5449 0.64986 0.0
Mg266 Mg 0.60607 0.96578 0.73165 0.0
O267 O 0.65168 0.06068 0.75037 0.0
O268 O 0.68577 0.07009 0.83477 0.0
Mg269 Mg 0.66974 0.98572 0.86826 0.0
C270 C 0.67926 0.09048 0.79127 0.0
C271 C 0.53072 0.96579 0.64487 0.0
O272 O 0.50677 0.93272 0.67824 0.0
O273 O 0.68271 0.94172 0.71174 0.0
O274 O 0.71491 0.95822 0.79795 0.0
O275 O 0.54338 0.99062 0.78016 0.0
O276 O 0.60518 0.95552 0.81243 0.0
C277 C 0.71912 0.9456 0.74668 0.0
C278 C 0.56589 0.97678 0.82053 0.0
O279 O 0.57856 0.98287 0.65041 0.0
Mg280 Mg 0.76096 0.63671 0.96745 0.0
O281 O 0.75898 0.68894 0.05816 0.0
O282 O 0.83906 0.73751 0.07358 0.0
Mg283 Mg 0.88935 0.71976 1.00011 0.0
C284 C 0.79451 0.72255 0.09024 0.0
C285 C 0.6526 0.56937 0.98068 0.0
O286 O 0.67757 0.55239 0.01851 0.0
O287 O 0.76947 0.71606 0.91752 0.0
O288 O 0.852 0.75447 0.92957 0.0
O289 O 0.77998 0.56095 1.00352 0.0
O290 O 0.83611 0.6347 0.98143 0.0
C291 C 0.80958 0.75009 0.90469 0.0
C292 C 0.82648 0.58738 1.00272 0.0
O293 O 0.67506 0.60915 0.95485 0.0
Mg294 Mg 0.9499 0.52793 0.78276 0.0
O295 O 0.90066 0.439 0.78769 0.0
O296 O 0.87051 0.45281 0.87179 0.0
Mg297 Mg 0.89653 0.54563 0.91609 0.0
C298 C 0.87356 0.42105 0.82571 0.0
C299 C 0.03924 0.61955 0.76847 0.0
O300 O 0.07807 0.66049 0.78969 0.0
O301 O 0.87766 0.55599 0.76718 0.0
O302 O 0.84623 0.56703 0.85003 0.0
O303 O 0.01797 0.50681 0.82318 0.0
O304 O 0.96159 0.54637 0.8675 0.0
C305 C 0.84269 0.5661 0.79856 0.0
C306 C 1.00225 0.52773 0.86908 0.0
O307 O 0.99667 0.61892 0.78842 0.0
Mg308 Mg 0.80051 0.43817 0.54522 0.0
O309 O 0.77872 0.38028 0.45915 0.0
O310 O 0.82909 0.31584 0.45146 0.0
Mg311 Mg 0.88558 0.33501 0.52339 0.0
C312 C 0.79282 0.33514 0.4335 0.0
C313 C 0.73415 0.53439 0.55562 0.0
O314 O 0.77509 0.56943 0.5798 0.0
O315 O 0.76189 0.35954 0.58434 0.0
O316 O 0.81981 0.30335 0.57376 0.0
O317 O 0.86211 0.50457 0.51758 0.0
O318 O 0.87268 0.424 0.54757 0.0
C319 C 0.7782 0.31372 0.59151 0.0
C320 C 0.89192 0.47222 0.53085 0.0
O321 O 0.73289 0.47967 0.53944 0.0
Mg322 Mg 0.65635 0.5023 0.31019 0.0
O323 O 0.70364 0.59632 0.30898 0.0
O324 O 0.75833 0.60921 0.37856 0.0
Mg325 Mg 0.72511 0.54258 0.43448 0.0
C326 C 0.74453 0.62372 0.33447 0.0
C327 C 0.62301 0.54451 0.21333 0.0
O328 O 0.61605 0.58507 0.25362 0.0
O329 O 0.72687 0.46541 0.29594 0.0
O330 O 0.76302 0.47593 0.37905 0.0
O331 O 0.58924 0.53075 0.34379 0.0
O332 O 0.64563 0.50473 0.39507 0.0
C333 C 0.76079 0.45671 0.32771 0.0
C334 C 0.60258 0.52028 0.39061 0.0
O335 O 0.64232 0.50212 0.2226 0.0
Dy336 Dy 0.98612 0.01407 0.99962 0.0
C337 C 0.18821 0.05594 0.04878 0.0
C338 C 0.88533 0.01426 0.99765 0.0
Dy339 Dy 0.09384 0.07466 0.04896 0.0
O340 O 0.91619 0.03061 0.96055 0.0
O341 O 0.90851 0.98894 0.0299 0.0
O342 O 0.02021 0.97379 0.92291 0.0
O343 O 0.05834 0.05201 0.96917 0.0
C344 C 0.06348 0.01169 0.93161 0.0
C345 C 0.02048 0.08463 0.11702 0.0
O346 O 0.07171 0.14226 1.00036 0.0
O347 O 0.98938 0.11061 0.01873 0.0
O348 O 0.17621 0.10323 0.07657 0.0
O349 O 0.15006 0.02289 0.01953 0.0
O350 O 0.06389 0.1225 0.12307 0.0
O351 O 0.0224 0.04132 0.08045 0.0
O352 O 1.00245 0.93642 0.03184 0.0
O353 O 0.08194 0.98183 0.0716 0.0
C354 C 0.02395 0.14898 0.99969 0.0
C355 C 0.04414 0.9349 0.05968 0.0
Dy356 Dy 0.2705 0.75341 0.23527 0.0
C357 C 0.25669 0.75558 0.46672 0.0
C358 C 0.25886 0.78273 0.1354 0.0
Dy359 Dy 0.25719 0.77448 0.36178 0.0
O360 O 0.27305 0.73505 0.14417 0.0
O361 O 0.24942 0.8125 0.18126 0.0
O362 O 0.34343 0.72179 0.23312 0.0
O363 O 0.31139 0.74267 0.30729 0.0
C364 C 0.34957 0.72667 0.28593 0.0
C365 C 0.19912 0.82217 0.30072 0.0
O366 O 0.32705 0.83936 0.35842 0.0
O367 O 0.31763 0.84402 0.26611 0.0
O368 O 0.28762 0.79693 0.4478 0.0
O369 O 0.22265 0.72846 0.42908 0.0
O370 O 0.21152 0.84304 0.35201 0.0
O371 O 0.21235 0.77377 0.28873 0.0
O372 O 0.21433 0.6706 0.24289 0.0
O373 O 0.22801 0.67904 0.33702 0.0
C374 C 0.33968 0.86418 0.31538 0.0
C375 C 0.20736 0.64991 0.28962 0.0
Dy376 Dy 0.57346 0.01975 0.515 0.0
C377 C 0.36745 0.06284 0.52164 0.0
C378 C 0.66286 0.99208 0.53752 0.0
Dy379 Dy 0.45432 0.02215 0.52543 0.0
O380 O 0.65814 0.04053 0.52047 0.0
O381 O 0.61892 0.95944 0.54317 0.0
O382 O 0.57741 0.02911 0.42518 0.0
O383 O 0.5113 0.0277 0.466 0.0
C384 C 0.52973 0.02958 0.42026 0.0
C385 C 0.50145 0.98802 0.60634 0.0
O386 O 0.44869 0.93799 0.46867 0.0
O387 O 0.52996 0.92511 0.4888 0.0
O388 O 0.37014 0.00754 0.50951 0.0
O389 O 0.41161 0.09484 0.5368 0.0
O390 O 0.45273 0.97461 0.59846 0.0
O391 O 0.51962 0.02528 0.57755 0.0
O392 O 0.57368 0.112 0.56283 0.0
O393 O 0.49515 0.11483 0.52744 0.0
C394 C 0.48305 0.90526 0.46715 0.0
C395 C 0.53694 0.14081 0.55673 0.0
Dy396 Dy 0.23604 0.26515 0.76411 0.0
C397 C 0.44223 0.26047 0.75852 0.0
C398 C 0.13518 0.24585 0.77444 0.0
Dy399 Dy 0.34223 0.25719 0.77218 0.0
O400 O 0.15852 0.2084 0.74762 0.0
O401 O 0.16659 0.29418 0.79507 0.0
O402 O 0.25182 0.34158 0.71807 0.0
O403 O 0.30547 0.33211 0.77464 0.0
C404 C 0.29743 0.36215 0.73859 0.0
C405 C 0.27926 0.17006 0.81089 0.0
O406 O 0.34141 0.30519 0.85652 0.0
O407 O 0.25438 0.28687 0.85759 0.0
O408 O 0.40588 0.21695 0.7379 0.0
O409 O 0.42351 0.30214 0.78602 0.0
O410 O 0.32544 0.19083 0.82887 0.0
O411 O 0.27116 0.19074 0.76825 0.0
O412 O 0.24447 0.23027 0.674 0.0
O413 O 0.331 0.25329 0.68154 0.0
C414 C 0.29979 0.30488 0.88353 0.0
C415 C 0.28875 0.2368 0.65094 0.0
Dy416 Dy 1.00279 0.98597 0.44714 0.0
C417 C 0.09808 0.03986 0.66111 0.0
C418 C 0.9507 0.96772 0.35234 0.0
Dy419 Dy 0.03987 0.02077 0.56968 0.0
O420 O 0.99445 0.95434 0.3574 0.0
O421 O 0.93368 0.98438 0.39951 0.0
O422 O 0.07461 0.04246 0.42283 0.0
O423 O 0.07446 0.00309 0.4924 0.0
C424 C 0.1003 0.03892 0.46597 0.0
C425 C 0.93695 0.98463 0.56121 0.0
O426 O 0.05252 0.10943 0.54348 0.0
O427 O 0.99316 0.07836 0.47117 0.0
O428 O 0.07483 0.07859 0.64688 0.0
O429 O 0.08911 0.99143 0.62625 0.0
O430 O 0.9631 -0.00176 0.60727 0.0
O431 O 0.96824 0.99092 0.52464 0.0
O432 O 0.99794 0.89676 0.47075 0.0
O433 O 0.05514 0.93094 0.5447 0.0
C434 C 0.02442 0.12041 0.50427 0.0
C435 C 0.02614 0.88728 0.51103 0.0
Dy436 Dy 0.36149 0.82162 0.81088 0.0
C437 C 0.15695 0.75284 0.71769 0.0
C438 C 0.44929 0.83986 0.86886 0.0
Dy439 Dy 0.24737 0.77257 0.77123 0.0
O440 O 0.4444 0.86082 0.8241 0.0
O441 O 0.4059 0.81416 0.88356 0.0
O442 O 0.39104 0.79527 0.72921 0.0
O443 O 0.31691 0.8064 0.73505 0.0
C444 C 0.34732 0.7851 0.70402 0.0
C445 C 0.26978 0.80517 0.87965 0.0
O446 O 0.27426 0.68756 0.75313 0.0
O447 O 0.35108 0.72303 0.80322 0.0
O448 O 0.16619 0.72632 0.75772 0.0
O449 O 0.19747 0.7869 0.70504 0.0
O450 O 0.22798 0.81057 0.85719 0.0
O451 O 0.29363 0.7795 0.84431 0.0
O452 O 0.32782 0.9023 0.8327 0.0
O453 O 0.2619 0.86865 0.76798 0.0
C454 C 0.31725 0.67983 0.77372 0.0
C455 C 0.2874 0.90989 0.80642 0.0
Dy456 Dy 0.54971 0.03453 0.11065 0.0
C457 C 0.55444 0.99494 0.87592 0.0
C458 C 0.54331 0.07958 0.21799 0.0
Dy459 Dy 0.5521 0.02508 0.98433 0.0
O460 O 0.58486 0.0792 0.19315 0.0
O461 O 0.50519 0.0532 0.1848 0.0
O462 O 0.57521 0.94709 0.10788 0.0
O463 O 0.53913 0.96472 0.04161 0.0
C464 C 0.56448 0.93041 0.05564 0.0
C465 C 0.52303 0.11947 0.036 0.0
O466 O 0.47193 0.98252 0.9911 0.0
O467 O 0.46755 0.01823 0.08386 0.0
O468 O 0.56916 0.0486 0.90192 0.0
O469 O 0.5425 0.95782 0.90934 0.0
O470 O 0.50898 0.09574 0.98603 0.0
O471 O 0.55715 0.09698 0.05361 0.0
O472 O 0.62824 0.07886 0.09692 0.0
O473 O 0.63239 0.02859 1.01045 0.0
C474 C 0.44614 0.99323 0.03491 0.0
C475 C 0.65445 0.05601 0.0581 0.0
Dy476 Dy 0.29004 0.32185 0.26382 0.0
C477 C 0.30267 0.0898 0.27678 0.0
C478 C 0.25913 0.41462 0.23275 0.0
Dy479 Dy 0.28232 0.18887 0.2486 0.0
O480 O 0.29577 0.41893 0.2691 0.0
O481 O 0.24454 0.36005 0.21032 0.0
O482 O 0.29183 0.32954 0.35639 0.0
O483 O 0.32057 0.26315 0.30837 0.0
C484 C 0.30835 0.28124 0.35642 0.0
C485 C 0.26244 0.23246 0.15614 0.0
O486 O 0.20925 0.19219 0.28972 0.0
O487 O 0.21626 0.29418 0.30228 0.0
O488 O 0.3033 0.10129 0.22722 0.0
O489 O 0.28296 0.12767 0.30832 0.0
O490 O 0.27879 0.18407 0.15615 0.0
O491 O 0.25173 0.2483 0.20501 0.0
O492 O 0.36162 0.31311 0.21987 0.0
O493 O 0.36455 0.22036 0.23866 0.0
C494 C 0.19329 0.24073 0.31 0.0
C495 C 0.38435 0.26779 0.21796 0.0
Dy496 Dy 0.50279 0.48597 0.94714 0.0
C497 C 0.59809 0.53986 0.16111 0.0
C498 C 0.4507 0.46772 0.85234 0.0
Dy499 Dy 0.53987 0.52077 0.06968 0.0
O500 O 0.49445 0.45434 0.8574 0.0
O501 O 0.43368 0.48438 0.89951 0.0
O502 O 0.57462 0.54246 0.92283 0.0
O503 O 0.57446 0.50308 0.9924 0.0
C504 C 0.6003 0.53892 0.96596 0.0
C505 C 0.43695 0.48463 0.06121 0.0
O506 O 0.55252 0.60943 0.04348 0.0
O507 O 0.49316 0.57836 0.97117 0.0
O508 O 0.57482 0.57859 0.14688 0.0
O509 O 0.58911 0.49143 0.12624 0.0
O510 O 0.4631 0.49824 0.10727 0.0
O511 O 0.46824 0.49092 0.02464 0.0
O512 O 0.49794 0.39676 0.97075 0.0
O513 O 0.55513 0.43094 0.0447 0.0
C514 C 0.52442 0.62041 1.00426 0.0
C515 C 0.52614 0.38728 1.01103 0.0
Dy516 Dy 0.86149 0.32162 0.31088 0.0
C517 C 0.65695 0.25284 0.21769 0.0
C518 C 0.94929 0.33986 0.36886 0.0
Dy519 Dy 0.74737 0.27257 0.27123 0.0
O520 O 0.9444 0.36082 0.3241 0.0
O521 O 0.9059 0.31416 0.38356 0.0
O522 O 0.89104 0.29527 0.22921 0.0
O523 O 0.81691 0.3064 0.23505 0.0
C524 C 0.84732 0.2851 0.20402 0.0
C525 C 0.76978 0.30518 0.37965 0.0
O526 O 0.77426 0.18756 0.25313 0.0
O527 O 0.85108 0.22303 0.30322 0.0
O528 O 0.66619 0.22632 0.25772 0.0
O529 O 0.69747 0.2869 0.20504 0.0
O530 O 0.72798 0.31057 0.35719 0.0
O531 O 0.79363 0.2795 0.34431 0.0
O532 O 0.82782 0.4023 0.3327 0.0
O533 O 0.7619 0.36865 0.26798 0.0
C534 C 0.81725 0.17983 0.27372 0.0
C535 C 0.7874 0.4099 0.30642 0.0
Dy536 Dy 0.04971 0.53453 0.61065 0.0
C537 C 0.05444 0.49494 0.37592 0.0
C538 C 0.04331 0.57958 0.71799 0.0
Dy539 Dy 0.0521 0.52508 0.48433 0.0
O540 O 0.08486 0.57921 0.69314 0.0
O541 O 0.00519 0.5532 0.6848 0.0
O542 O 0.07521 0.44709 0.60788 0.0
O543 O 0.03913 0.46472 0.54161 0.0
C544 C 0.06448 0.43041 0.55565 0.0
C545 C 0.02303 0.61947 0.536 0.0
O546 O 0.97193 0.48252 0.4911 0.0
O547 O 0.96755 0.51823 0.58386 0.0
O548 O 0.06917 0.5486 0.40192 0.0
O549 O 0.04249 0.45782 0.40934 0.0
O550 O 0.00898 0.59574 0.48603 0.0
O551 O 0.05715 0.59698 0.55361 0.0
O552 O 0.12824 0.57885 0.59692 0.0
O553 O 0.13239 0.52859 0.51046 0.0
C554 C 0.94614 0.49324 0.53491 0.0
C555 C 0.15445 0.556 0.5581 0.0
Dy556 Dy 0.73603 0.76515 0.26411 0.0
C557 C 0.94223 0.76047 0.25852 0.0
C558 C 0.63518 0.74585 0.27444 0.0
Dy559 Dy 0.84223 0.75719 0.27218 0.0
O560 O 0.65852 0.7084 0.24762 0.0
O561 O 0.66659 0.79418 0.29507 0.0
O562 O 0.75182 0.84158 0.21807 0.0
O563 O 0.80547 0.83211 0.27464 0.0
C564 C 0.79743 0.86215 0.23859 0.0
C565 C 0.77926 0.67006 0.31089 0.0
O566 O 0.84141 0.80519 0.35652 0.0
O567 O 0.75438 0.78687 0.35759 0.0
O568 O 0.90588 0.71695 0.2379 0.0
O569 O 0.92351 0.80214 0.28602 0.0
O570 O 0.82543 0.69083 0.32887 0.0
O571 O 0.77115 0.69074 0.26825 0.0
O572 O 0.74447 0.73027 0.174 0.0
O573 O 0.831 0.75329 0.18154 0.0
C574 C 0.79978 0.80488 0.38353 0.0
C575 C 0.78875 0.73681 0.15094 0.0
Dy576 Dy 0.7705 0.25341 0.73526 0.0
C577 C 0.75669 0.25558 0.96672 0.0
C578 C 0.75886 0.28273 0.6354 0.0
Dy579 Dy 0.75719 0.27448 0.86178 0.0
O580 O 0.77305 0.23505 0.64417 0.0
O581 O 0.74942 0.3125 0.68126 0.0
O582 O 0.84343 0.22179 0.73312 0.0
O583 O 0.81139 0.24267 0.80729 0.0
C584 C 0.84957 0.22667 0.78593 0.0
C585 C 0.69912 0.32217 0.80072 0.0
O586 O 0.82705 0.33936 0.85842 0.0
O587 O 0.81764 0.34402 0.76611 0.0
O588 O 0.78761 0.29693 0.9478 0.0
O589 O 0.72265 0.22846 0.92908 0.0
O590 O 0.71152 0.34304 0.85201 0.0
O591 O 0.71235 0.27377 0.78873 0.0
O592 O 0.71433 0.1706 0.74289 0.0
O593 O 0.72801 0.17904 0.83702 0.0
C594 C 0.83968 0.36418 0.81538 0.0
C595 C 0.70736 0.14991 0.78962 0.0
Dy596 Dy 0.79004 0.82185 0.76382 0.0
C597 C 0.80267 0.5898 0.77678 0.0
C598 C 0.75913 0.91462 0.73274 0.0
Dy599 Dy 0.78233 0.68887 0.7486 0.0
O600 O 0.79577 0.91893 0.7691 0.0
O601 O 0.74454 0.86005 0.71032 0.0
O602 O 0.79183 0.82954 0.85639 0.0
O603 O 0.82057 0.76315 0.80837 0.0
C604 C 0.80835 0.78123 0.85642 0.0
C605 C 0.76244 0.73246 0.65614 0.0
O606 O 0.70925 0.69219 0.78972 0.0
O607 O 0.71626 0.79418 0.80228 0.0
O608 O 0.8033 0.60128 0.72722 0.0
O609 O 0.78296 0.62767 0.80832 0.0
O610 O 0.7788 0.68407 0.65615 0.0
O611 O 0.75173 0.7483 0.70501 0.0
O612 O 0.86162 0.81311 0.71987 0.0
O613 O 0.86455 0.72036 0.73866 0.0
C614 C 0.69329 0.74073 0.81 0.0
C615 C 0.88435 0.76779 0.71796 0.0
Dy616 Dy 0.48612 0.51407 0.49962 0.0
C617 C 0.68821 0.55594 0.54878 0.0
C618 C 0.38532 0.51426 0.49765 0.0
Dy619 Dy 0.59384 0.57466 0.54896 0.0
O620 O 0.41619 0.53061 0.46055 0.0
O621 O 0.40851 0.48894 0.5299 0.0
O622 O 0.52021 0.47379 0.42291 0.0
O623 O 0.55834 0.55201 0.46916 0.0
C624 C 0.56348 0.51168 0.43161 0.0
C625 C 0.52048 0.58463 0.61702 0.0
O626 O 0.57171 0.64225 0.50036 0.0
O627 O 0.48938 0.61061 0.51873 0.0
O628 O 0.67621 0.60323 0.57657 0.0
O629 O 0.65006 0.52289 0.51952 0.0
O630 O 0.56389 0.6225 0.62306 0.0
O631 O 0.5224 0.54132 0.58045 0.0
O632 O 0.50245 0.43642 0.53184 0.0
O633 O 0.58194 0.48183 0.5716 0.0
C634 C 0.52395 0.64898 0.49969 0.0
C635 C 0.54414 0.4349 0.55968 0.0
Dy636 Dy 0.07346 0.51975 0.015 0.0
C637 C 0.86745 0.56284 0.02164 0.0
C638 C 0.16286 0.49208 0.03752 0.0
Dy639 Dy 0.95432 0.52215 0.02543 0.0
O640 O 0.15814 0.54053 0.02048 0.0
O641 O 0.11892 0.45945 0.04318 0.0
O642 O 0.07741 0.52911 0.92518 0.0
O643 O 0.0113 0.5277 0.966 0.0
C644 C 0.02973 0.52958 0.92026 0.0
C645 C 1.00145 0.48802 0.10634 0.0
O646 O 0.94869 0.43799 0.96867 0.0
O647 O 0.02996 0.42511 0.9888 0.0
O648 O 0.87014 0.50754 1.00951 0.0
O649 O 0.91161 0.59484 0.0368 0.0
O650 O 0.95273 0.47461 0.09846 0.0
O651 O 0.01962 0.52528 0.07755 0.0
O652 O 0.07368 0.612 0.06283 0.0
O653 O 0.99515 0.61483 0.02744 0.0
C654 C 0.98305 0.40526 0.96715 0.0
C655 C 0.03694 0.64082 0.05673 0.0
loop_
_geom_bond_atom_site_label_1
_geom_bond_atom_site_label_2
_geom_bond_distance
_geom_bond_site_symmetry_2
_ccdc_geom_bond_type
Mg0 O1 2.028 . S
Mg0 O7 1.986 . S
Mg0 O9 2.114 . S
Mg0 O10 2.251 1_455 S
Mg0 O13 2.010 . S
O1 Mg0 2.028 . S
O1 C4 1.250 . S
O2 Mg3 2.028 1_455 S
O2 C4 1.248 . S
Mg3 O2 2.028 1_655 S
Mg3 O8 2.032 . S
Mg3 O10 2.079 . S
C4 O1 1.250 . S
C4 O2 1.248 . S
C5 O6 1.264 . S
C5 O13 1.249 . S
O6 C5 1.264 . S
O7 Mg0 1.986 . S
O7 C11 1.246 . S
O8 Mg3 2.032 . S
O8 C11 1.259 1_655 S
O9 Mg0 2.114 . S
O9 C12 1.252 1_455 S
O10 Mg0 2.251 1_655 S
O10 Mg3 2.079 . S
O10 C12 1.273 . S
C11 O7 1.246 . S
C11 O8 1.259 1_455 S
C12 O9 1.252 1_655 S
C12 O10 1.273 . S
O13 Mg0 2.010 . S
O13 C5 1.249 . S
Mg14 O15 2.028 . S
Mg14 O21 1.986 . S
Mg14 O23 2.114 1_455 S
Mg14 O24 2.251 1_455 S
Mg14 O27 2.010 . S
O15 Mg14 2.028 . S
O15 C18 1.250 1_455 S
O16 Mg17 2.028 . S
O16 C18 1.248 . S
Mg17 O16 2.028 . S
Mg17 O22 2.032 . S
Mg17 O24 2.079 . S
C18 O15 1.250 1_655 S
C18 O16 1.248 . S
C19 O20 1.264 . S
C19 O27 1.249 . S
O20 C19 1.264 . S
O21 Mg14 1.986 . S
O21 C25 1.236 1_455 S
O22 Mg17 2.032 . S
O22 C25 1.272 . S
O23 Mg14 2.114 1_655 S
O23 C26 1.252 . S
O24 Mg14 2.251 1_655 S
O24 Mg17 2.079 . S
O24 C26 1.273 . S
C25 O21 1.236 1_655 S
C25 O22 1.272 . S
C26 O23 1.252 . S
C26 O24 1.273 . S
O27 Mg14 2.010 . S
O27 C19 1.249 . S
Mg28 O29 2.028 . S
Mg28 O35 1.986 . S
Mg28 O37 2.114 . S
Mg28 O38 2.251 . S
Mg28 O41 2.010 . S
O29 Mg28 2.028 . S
O29 C32 1.250 . S
O30 Mg31 2.028 . S
O30 C32 1.248 . S
Mg31 O30 2.028 . S
Mg31 O36 2.032 . S
Mg31 O38 2.079 . S
C32 O29 1.250 . S
C32 O30 1.248 . S
C33 O34 1.264 . S
C33 O41 1.249 . S
O34 C33 1.264 . S
O35 Mg28 1.986 . S
O35 C39 1.246 . S
O36 Mg31 2.032 . S
O36 C39 1.259 . S
O37 Mg28 2.114 . S
O37 C40 1.252 . S
O38 Mg28 2.251 . S
O38 Mg31 2.079 . S
O38 C40 1.273 . S
C39 O35 1.246 . S
C39 O36 1.259 . S
C40 O37 1.252 . S
C40 O38 1.273 . S
O41 Mg28 2.010 . S
O41 C33 1.249 . S
Mg42 O43 2.028 . S
Mg42 O49 1.986 . S
Mg42 O51 2.114 . S
Mg42 O52 2.251 . S
Mg42 O55 2.010 . S
O43 Mg42 2.028 . S
O43 C46 1.250 . S
O44 Mg45 2.028 . S
O44 C46 1.248 . S
Mg45 O44 2.028 . S
Mg45 O50 2.032 . S
Mg45 O52 2.079 . S
C46 O43 1.250 . S
C46 O44 1.248 . S
C47 O48 1.264 . S
C47 O55 1.249 . S
O48 C47 1.264 . S
O49 Mg42 1.986 . S
O49 C53 1.246 . S
O50 Mg45 2.032 . S
O50 C53 1.259 . S
O51 Mg42 2.114 . S
O51 C54 1.252 . S
O52 Mg42 2.251 . S
O52 Mg45 2.079 . S
O52 C54 1.273 . S
C53 O49 1.246 . S
C53 O50 1.259 . S
C54 O51 1.252 . S
C54 O52 1.273 . S
O55 Mg42 2.010 . S
O55 C47 1.249 . S
Mg56 O57 2.028 . S
Mg56 O63 1.986 . S
Mg56 O65 2.114 . S
Mg56 O66 2.251 1_455 S
Mg56 O69 2.010 . S
O57 Mg56 2.028 . S
O57 C60 1.250 . S
O58 Mg59 2.028 . S
O58 C60 1.248 1_655 S
Mg59 O58 2.028 . S
Mg59 O64 2.032 1_655 S
Mg59 O66 2.079 . S
C60 O57 1.250 . S
C60 O58 1.248 1_455 S
C61 O62 1.264 . S
C61 O69 1.249 . S
O62 C61 1.264 . S
O63 Mg56 1.986 . S
O63 C67 1.246 . S
O64 Mg59 2.032 1_455 S
O64 C67 1.259 . S
O65 Mg56 2.114 . S
O65 C68 1.252 1_455 S
O66 Mg56 2.251 1_655 S
O66 Mg59 2.079 . S
O66 C68 1.273 . S
C67 O63 1.246 . S
C67 O64 1.259 . S
C68 O65 1.252 1_655 S
C68 O66 1.273 . S
O69 Mg56 2.010 . S
O69 C61 1.249 . S
Mg70 O71 2.028 . S
Mg70 O77 1.986 . S
Mg70 O79 2.114 . S
Mg70 O80 2.251 . S
Mg70 O83 2.010 . S
O71 Mg70 2.028 . S
O71 C74 1.250 . S
O72 Mg73 2.028 . S
O72 C74 1.248 . S
Mg73 O72 2.028 . S
Mg73 O78 2.032 . S
Mg73 O80 2.079 . S
C74 O71 1.250 . S
C74 O72 1.248 . S
C75 O76 1.264 . S
C75 O83 1.249 . S
O76 C75 1.264 . S
O77 Mg70 1.986 . S
O77 C81 1.246 . S
O78 Mg73 2.032 . S
O78 C81 1.259 . S
O79 Mg70 2.114 . S
O79 C82 1.252 . S
O80 Mg70 2.251 . S
O80 Mg73 2.079 . S
O80 C82 1.273 . S
C81 O77 1.246 . S
C81 O78 1.259 . S
C82 O79 1.252 . S
C82 O80 1.273 . S
O83 Mg70 2.010 . S
O83 C75 1.249 . S
Mg84 O85 2.028 . S
Mg84 O91 1.986 . S
Mg84 O93 2.114 . S
Mg84 O94 2.251 . S
Mg84 O97 2.010 . S
O85 Mg84 2.028 . S
O85 C88 1.250 . S
O86 Mg87 2.028 . S
O86 C88 1.248 . S
Mg87 O86 2.028 . S
Mg87 O92 2.032 . S
Mg87 O94 2.079 . S
C88 O85 1.250 . S
C88 O86 1.248 . S
C89 O90 1.264 . S
C89 O97 1.249 . S
O90 C89 1.264 . S
O91 Mg84 1.986 . S
O91 C95 1.246 . S
O92 Mg87 2.032 . S
O92 C95 1.259 . S
O93 Mg84 2.114 . S
O93 C96 1.252 . S
O94 Mg84 2.251 . S
O94 Mg87 2.079 . S
O94 C96 1.273 . S
C95 O91 1.246 . S
C95 O92 1.259 . S
C96 O93 1.252 . S
C96 O94 1.273 . S
O97 Mg84 2.010 . S
O97 C89 1.249 . S
Mg98 O99 2.028 1_655 S
Mg98 O105 1.986 1_655 S
Mg98 O107 2.114 . S
Mg98 O108 2.251 . S
Mg98 O111 2.010 1_655 S
O99 Mg98 2.028 1_455 S
O99 C102 1.236 1_455 S
O100 Mg101 2.028 . S
O100 C102 1.267 . S
Mg101 O100 2.028 . S
Mg101 O106 2.032 . S
Mg101 O108 2.079 . S
C102 O99 1.236 1_655 S
C102 O100 1.267 . S
C103 O104 1.264 . S
C103 O111 1.249 . S
O104 C103 1.264 . S
O105 Mg98 1.986 1_455 S
O105 C109 1.246 1_455 S
O106 Mg101 2.032 . S
O106 C109 1.259 . S
O107 Mg98 2.114 . S
O107 C110 1.252 . S
O108 Mg98 2.251 . S
O108 Mg101 2.079 . S
O108 C110 1.273 . S
C109 O105 1.246 1_655 S
C109 O106 1.259 . S
C110 O107 1.252 . S
C110 O108 1.273 . S
O111 Mg98 2.010 1_455 S
O111 C103 1.249 . S
Mg112 O113 2.028 1_545 S
Mg112 O119 1.986 . S
Mg112 O121 2.114 . S
Mg112 O122 2.251 . S
Mg112 O125 2.010 . S
O113 Mg112 2.028 1_565 S
O113 C116 1.250 . S
O114 Mg115 2.028 1_565 S
O114 C116 1.248 . S
Mg115 O114 2.028 1_545 S
Mg115 O120 2.032 . S
Mg115 O122 2.079 . S
C116 O113 1.250 . S
C116 O114 1.248 . S
C117 O118 1.264 . S
C117 O125 1.249 . S
O118 C117 1.264 . S
O119 Mg112 1.986 . S
O119 C123 1.246 . S
O120 Mg115 2.032 . S
O120 C123 1.259 . S
O121 Mg112 2.114 . S
O121 C124 1.252 . S
O122 Mg112 2.251 . S
O122 Mg115 2.079 . S
O122 C124 1.273 . S
C123 O119 1.246 . S
C123 O120 1.259 . S
C124 O121 1.252 . S
C124 O122 1.273 . S
O125 Mg112 2.010 . S
O125 C117 1.249 . S
Mg126 O127 2.028 . S
Mg126 O133 1.986 . S
Mg126 O135 2.114 . S
Mg126 O136 2.251 . S
Mg126 O139 2.010 . S
O127 Mg126 2.028 . S
O127 C130 1.250 . S
O128 Mg129 2.028 . S
O128 C130 1.248 . S
Mg129 O128 2.028 . S
Mg129 O134 2.032 . S
Mg129 O136 2.079 . S
C130 O127 1.250 . S
C130 O128 1.248 . S
C131 O132 1.264 . S
C131 O139 1.249 . S
O132 C131 1.264 . S
O133 Mg126 1.986 . S
O133 C137 1.246 . S
O134 Mg129 2.032 . S
O134 C137 1.259 . S
O135 Mg126 2.114 . S
O135 C138 1.252 . S
O136 Mg126 2.251 . S
O136 Mg129 2.079 . S
O136 C138 1.273 . S
C137 O133 1.246 . S
C137 O134 1.259 . S
C138 O135 1.252 . S
C138 O136 1.273 . S
O139 Mg126 2.010 . S
O139 C131 1.249 . S
Mg140 O141 2.028 1_565 S
Mg140 O147 1.986 . S
Mg140 O149 2.114 1_565 S
Mg140 O150 2.251 1_565 S
Mg140 O153 2.010 . S
O141 Mg140 2.028 1_545 S
O141 C144 1.250 . S
O142 Mg143 2.028 . S
O142 C144 1.248 . S
Mg143 O142 2.028 . S
Mg143 O148 2.032 1_545 S
Mg143 O150 2.079 . S
C144 O141 1.250 . S
C144 O142 1.248 . S
C145 O146 1.264 . S
C145 O153 1.249 . S
O146 C145 1.264 . S
O147 Mg140 1.986 . S
O147 C151 1.246 . S
O148 Mg143 2.032 1_565 S
O148 C151 1.259 . S
O149 Mg140 2.114 1_545 S
O149 C152 1.252 . S
O150 Mg140 2.251 1_545 S
O150 Mg143 2.079 . S
O150 C152 1.273 . S
C151 O147 1.246 . S
C151 O148 1.259 . S
C152 O149 1.252 . S
C152 O150 1.273 . S
O153 Mg140 2.010 . S
O153 C145 1.249 . S
Mg154 O155 2.028 1_554 S
Mg154 O161 1.986 . S
Mg154 O163 2.117 . S
Mg154 O164 2.251 . S
Mg154 O167 2.010 . S
O155 Mg154 2.028 1_556 S
O155 C158 1.250 . S
O156 Mg157 2.028 1_556 S
O156 C158 1.248 . S
Mg157 O156 2.028 1_554 S
Mg157 O162 2.032 . S
Mg157 O164 2.079 . S
C158 O155 1.250 . S
C158 O156 1.248 . S
C159 O160 1.264 1_565 S
C159 O167 1.249 . S
O160 C159 1.264 1_545 S
O161 Mg154 1.986 . S
O161 C165 1.246 . S
O162 Mg157 2.032 . S
O162 C165 1.259 . S
O163 Mg154 2.117 . S
O163 C166 1.254 . S
O164 Mg154 2.251 . S
O164 Mg157 2.079 . S
O164 C166 1.273 . S
C165 O161 1.246 . S
C165 O162 1.259 . S
C166 O163 1.254 . S
C166 O164 1.273 . S
O167 Mg154 2.010 . S
O167 C159 1.249 . S
Mg168 O169 2.028 1_554 S
Mg168 O175 1.986 . S
Mg168 O177 2.114 . S
Mg168 O178 2.251 . S
Mg168 O181 2.010 . S
O169 Mg168 2.028 1_556 S
O169 C172 1.250 . S
O170 Mg171 2.028 1_556 S
O170 C172 1.248 . S
Mg171 O170 2.028 1_554 S
Mg171 O176 2.032 . S
Mg171 O178 2.079 . S
C172 O169 1.250 . S
C172 O170 1.248 . S
C173 O174 1.264 . S
C173 O181 1.249 . S
O174 C173 1.264 . S
O175 Mg168 1.986 . S
O175 C179 1.246 . S
O176 Mg171 2.032 . S
O176 C179 1.259 . S
O177 Mg168 2.114 . S
O177 C180 1.252 . S
O178 Mg168 2.251 . S
O178 Mg171 2.079 . S
O178 C180 1.273 . S
C179 O175 1.246 . S
C179 O176 1.259 . S
C180 O177 1.252 . S
C180 O178 1.273 . S
O181 Mg168 2.010 . S
O181 C173 1.249 . S
Mg182 O183 2.028 . S
Mg182 O189 1.986 1_554 S
Mg182 O191 2.114 . S
Mg182 O192 2.251 . S
Mg182 O195 2.010 1_554 S
O183 Mg182 2.028 . S
O183 C186 1.250 . S
O184 Mg185 2.028 . S
O184 C186 1.248 . S
Mg185 O184 2.028 . S
Mg185 O190 2.032 1_554 S
Mg185 O192 2.079 . S
C186 O183 1.250 . S
C186 O184 1.248 . S
C187 O188 1.264 1_545 S
C187 O195 1.249 . S
O188 C187 1.264 1_565 S
O189 Mg182 1.986 1_556 S
O189 C193 1.246 . S
O190 Mg185 2.032 1_556 S
O190 C193 1.259 . S
O191 Mg182 2.114 . S
O191 C194 1.252 . S
O192 Mg182 2.251 . S
O192 Mg185 2.079 . S
O192 C194 1.273 . S
C193 O189 1.246 . S
C193 O190 1.259 . S
C194 O191 1.252 . S
C194 O192 1.273 . S
O195 Mg182 2.010 1_556 S
O195 C187 1.249 . S
Mg196 O197 2.028 . S
Mg196 O203 1.986 . S
Mg196 O205 2.114 . S
Mg196 O206 2.251 . S
Mg196 O209 2.010 . S
O197 Mg196 2.028 . S
O197 C200 1.250 . S
O198 Mg199 2.028 . S
O198 C200 1.248 . S
Mg199 O198 2.028 . S
Mg199 O204 2.032 . S
Mg199 O206 2.079 . S
C200 O197 1.250 . S
C200 O198 1.248 . S
C201 O202 1.264 . S
C201 O209 1.249 . S
O202 C201 1.264 . S
O203 Mg196 1.986 . S
O203 C207 1.246 . S
O204 Mg199 2.032 . S
O204 C207 1.259 . S
O205 Mg196 2.114 . S
O205 C208 1.252 . S
O206 Mg196 2.251 . S
O206 Mg199 2.079 . S
O206 C208 1.273 . S
C207 O203 1.246 . S
C207 O204 1.259 . S
C208 O205 1.252 . S
C208 O206 1.273 . S
O209 Mg196 2.010 . S
O209 C201 1.249 . S
Mg210 O211 2.028 . S
Mg210 O217 1.986 . S
Mg210 O219 2.114 . S
Mg210 O220 2.251 . S
Mg210 O223 2.010 . S
O211 Mg210 2.028 . S
O211 C214 1.250 . S
O212 Mg213 2.028 . S
O212 C214 1.248 . S
Mg213 O212 2.028 . S
Mg213 O218 2.032 . S
Mg213 O220 2.079 . S
C214 O211 1.250 . S
C214 O212 1.248 . S
C215 O216 1.264 . S
C215 O223 1.249 . S
O216 C215 1.264 . S
O217 Mg210 1.986 . S
O217 C221 1.246 . S
O218 Mg213 2.032 . S
O218 C221 1.259 . S
O219 Mg210 2.114 . S
O219 C222 1.252 . S
O220 Mg210 2.251 . S
O220 Mg213 2.079 . S
O220 C222 1.273 . S
C221 O217 1.246 . S
C221 O218 1.259 . S
C222 O219 1.252 . S
C222 O220 1.273 . S
O223 Mg210 2.010 . S
O223 C215 1.249 . S
Mg224 O225 2.028 1_545 S
Mg224 O231 1.986 . S
Mg224 O233 2.114 . S
Mg224 O234 2.251 . S
Mg224 O237 2.010 . S
O225 Mg224 2.028 1_565 S
O225 C228 1.250 . S
O226 Mg227 2.028 1_565 S
O226 C228 1.248 . S
Mg227 O226 2.028 1_545 S
Mg227 O232 2.032 . S
Mg227 O234 2.079 . S
C228 O225 1.250 . S
C228 O226 1.248 . S
C229 O230 1.264 1_655 S
C229 O237 1.249 . S
O230 C229 1.264 1_455 S
O231 Mg224 1.986 . S
O231 C235 1.246 . S
O232 Mg227 2.032 . S
O232 C235 1.259 . S
O233 Mg224 2.114 . S
O233 C236 1.252 . S
O234 Mg224 2.251 . S
O234 Mg227 2.079 . S
O234 C236 1.273 . S
C235 O231 1.246 . S
C235 O232 1.259 . S
C236 O233 1.252 . S
C236 O234 1.273 . S
O237 Mg224 2.010 . S
O237 C229 1.249 . S
Mg238 O239 2.028 . S
Mg238 O245 1.986 . S
Mg238 O247 2.114 . S
Mg238 O248 2.251 . S
Mg238 O251 2.010 . S
O239 Mg238 2.028 . S
O239 C242 1.250 . S
O240 Mg241 2.028 . S
O240 C242 1.248 . S
Mg241 O240 2.028 . S
Mg241 O246 2.032 . S
Mg241 O248 2.079 . S
C242 O239 1.250 . S
C242 O240 1.248 . S
C243 O244 1.264 . S
C243 O251 1.249 . S
O244 C243 1.264 . S
O245 Mg238 1.986 . S
O245 C249 1.246 . S
O246 Mg241 2.032 . S
O246 C249 1.259 . S
O247 Mg238 2.114 . S
O247 C250 1.252 . S
O248 Mg238 2.251 . S
O248 Mg241 2.079 . S
O248 C250 1.273 . S
C249 O245 1.246 . S
C249 O246 1.259 . S
C250 O247 1.252 . S
C250 O248 1.273 . S
O251 Mg238 2.010 . S
O251 C243 1.249 . S
Mg252 O253 2.028 . S
Mg252 O259 1.986 . S
Mg252 O261 2.114 . S
Mg252 O262 2.251 . S
Mg252 O265 2.010 . S
O253 Mg252 2.028 . S
O253 C256 1.250 . S
O254 Mg255 2.028 . S
O254 C256 1.248 . S
Mg255 O254 2.028 . S
Mg255 O260 2.032 . S
Mg255 O262 2.079 . S
C256 O253 1.250 . S
C256 O254 1.248 . S
C257 O258 1.264 . S
C257 O265 1.249 . S
O258 C257 1.264 . S
O259 Mg252 1.986 . S
O259 C263 1.246 . S
O260 Mg255 2.032 . S
O260 C263 1.259 . S
O261 Mg252 2.114 . S
O261 C264 1.252 . S
O262 Mg252 2.251 . S
O262 Mg255 2.079 . S
O262 C264 1.273 . S
C263 O259 1.246 . S
C263 O260 1.259 . S
C264 O261 1.252 . S
C264 O262 1.273 . S
O265 Mg252 2.010 . S
O265 C257 1.249 . S
Mg266 O267 2.028 . S
Mg266 O273 1.986 1_545 S
Mg266 O275 2.114 . S
Mg266 O276 2.251 . S
Mg266 O279 2.010 . S
O267 Mg266 2.028 . S
O267 C270 1.250 . S
O268 Mg269 2.028 . S
O268 C270 1.248 . S
Mg269 O268 2.028 . S
Mg269 O274 2.032 . S
Mg269 O276 2.079 . S
C270 O267 1.250 . S
C270 O268 1.248 . S
C271 O272 1.264 1_545 S
C271 O279 1.249 . S
O272 C271 1.264 1_565 S
O273 Mg266 1.986 1_565 S
O273 C277 1.246 . S
O274 Mg269 2.032 . S
O274 C277 1.259 1_545 S
O275 Mg266 2.114 . S
O275 C278 1.252 . S
O276 Mg266 2.251 . S
O276 Mg269 2.079 . S
O276 C278 1.273 . S
C277 O273 1.246 . S
C277 O274 1.259 1_565 S
C278 O275 1.252 . S
C278 O276 1.273 . S
O279 Mg266 2.010 . S
O279 C271 1.249 . S
Mg280 O281 2.028 1_556 S
Mg280 O287 1.986 . S
Mg280 O289 2.114 1_556 S
Mg280 O290 2.251 1_556 S
Mg280 O293 2.010 . S
O281 Mg280 2.028 1_554 S
O281 C284 1.250 . S
O282 Mg283 2.028 . S
O282 C284 1.248 . S
Mg283 O282 2.028 . S
Mg283 O288 2.032 1_554 S
Mg283 O290 2.079 . S
C284 O281 1.250 . S
C284 O282 1.248 . S
C285 O286 1.264 . S
C285 O293 1.249 . S
O286 C285 1.264 . S
O287 Mg280 1.986 . S
O287 C291 1.246 . S
O288 Mg283 2.032 1_556 S
O288 C291 1.259 . S
O289 Mg280 2.114 1_554 S
O289 C292 1.252 . S
O290 Mg280 2.251 1_554 S
O290 Mg283 2.079 . S
O290 C292 1.273 . S
C291 O287 1.246 . S
C291 O288 1.259 . S
C292 O289 1.252 . S
C292 O290 1.273 . S
O293 Mg280 2.010 . S
O293 C285 1.249 . S
Mg294 O295 2.028 . S
Mg294 O301 1.986 . S
Mg294 O303 2.114 . S
Mg294 O304 2.251 . S
Mg294 O307 2.010 . S
O295 Mg294 2.028 . S
O295 C298 1.250 . S
O296 Mg297 2.028 . S
O296 C298 1.248 . S
Mg297 O296 2.028 . S
Mg297 O302 2.032 . S
Mg297 O304 2.079 . S
C298 O295 1.250 . S
C298 O296 1.248 . S
C299 O300 1.264 1_655 S
C299 O307 1.249 . S
O300 C299 1.264 1_455 S
O301 Mg294 1.986 . S
O301 C305 1.246 . S
O302 Mg297 2.032 . S
O302 C305 1.259 . S
O303 Mg294 2.114 . S
O303 C306 1.252 . S
O304 Mg294 2.251 . S
O304 Mg297 2.079 . S
O304 C306 1.273 . S
C305 O301 1.246 . S
C305 O302 1.259 . S
C306 O303 1.252 . S
C306 O304 1.273 . S
O307 Mg294 2.010 . S
O307 C299 1.249 . S
Mg308 O309 2.028 . S
Mg308 O315 1.986 . S
Mg308 O317 2.114 . S
Mg308 O318 2.251 . S
Mg308 O321 2.010 . S
O309 Mg308 2.028 . S
O309 C312 1.250 . S
O310 Mg311 2.028 . S
O310 C312 1.248 . S
Mg311 O310 2.028 . S
Mg311 O316 2.032 . S
Mg311 O318 2.079 . S
C312 O309 1.250 . S
C312 O310 1.248 . S
C313 O314 1.264 . S
C313 O321 1.249 . S
O314 C313 1.264 . S
O315 Mg308 1.986 . S
O315 C319 1.246 . S
O316 Mg311 2.032 . S
O316 C319 1.259 . S
O317 Mg308 2.114 . S
O317 C320 1.252 . S
O318 Mg308 2.251 . S
O318 Mg311 2.079 . S
O318 C320 1.273 . S
C319 O315 1.246 . S
C319 O316 1.259 . S
C320 O317 1.252 . S
C320 O318 1.273 . S
O321 Mg308 2.010 . S
O321 C313 1.249 . S
Mg322 O323 2.028 . S
Mg322 O329 1.986 . S
Mg322 O331 2.114 . S
Mg322 O332 2.251 . S
Mg322 O335 2.010 . S
O323 Mg322 2.028 . S
O323 C326 1.250 . S
O324 Mg325 2.028 . S
O324 C326 1.248 . S
Mg325 O324 2.028 . S
Mg325 O330 2.032 . S
Mg325 O332 2.079 . S
C326 O323 1.250 . S
C326 O324 1.248 . S
C327 O328 1.264 . S
C327 O335 1.249 . S
O328 C327 1.264 . S
O329 Mg322 1.986 . S
O329 C333 1.246 . S
O330 Mg325 2.032 . S
O330 C333 1.259 . S
O331 Mg322 2.114 . S
O331 C334 1.252 . S
O332 Mg322 2.251 . S
O332 Mg325 2.079 . S
O332 C334 1.273 . S
C333 O329 1.246 . S
C333 O330 1.259 . S
C334 O331 1.252 . S
C334 O332 1.273 . S
O335 Mg322 2.010 . S
O335 C327 1.249 . S
Dy336 O340 2.398 1_565 S
Dy336 O341 2.491 1_566 S
Dy336 O342 2.403 . S
Dy336 O343 2.664 1_665 S
Dy336 O347 2.326 1_565 S
Dy336 O351 2.310 1_566 S
Dy336 O352 2.351 1_556 S
C337 O348 1.185 . S
C337 O349 1.355 1_545 S
C338 O340 1.185 . S
C338 O341 1.355 1_556 S
Dy339 O343 2.310 1_554 S
Dy339 O346 2.351 . S
Dy339 O348 2.398 . S
Dy339 O349 2.491 1_545 S
Dy339 O350 2.403 . S
Dy339 O351 2.664 1_455 S
Dy339 O353 2.326 1_545 S
O340 Dy336 2.398 1_545 S
O340 C338 1.185 . S
O341 Dy336 2.491 1_544 S
O341 C338 1.355 1_554 S
O342 Dy336 2.403 . S
O342 C344 1.254 1_655 S
O343 Dy336 2.664 1_445 S
O343 Dy339 2.310 1_556 S
O343 C344 1.268 1_545 S
C344 O342 1.254 1_455 S
C344 O343 1.268 1_565 S
C345 O350 1.254 . S
C345 O351 1.268 1_455 S
O346 Dy339 2.351 . S
O346 C354 1.249 1_554 S
O347 Dy336 2.326 1_545 S
O347 C354 1.267 1_655 S
O348 C337 1.185 . S
O348 Dy339 2.398 . S
O349 C337 1.355 1_565 S
O349 Dy339 2.491 1_565 S
O350 Dy339 2.403 . S
O350 C345 1.254 . S
O351 Dy336 2.310 1_544 S
O351 Dy339 2.664 1_655 S
O351 C345 1.268 1_655 S
O352 Dy336 2.351 1_554 S
O352 C355 1.249 1_655 S
O353 Dy339 2.326 1_565 S
O353 C355 1.267 . S
C354 O346 1.249 1_556 S
C354 O347 1.267 1_455 S
C355 O352 1.249 1_455 S
C355 O353 1.267 . S
Dy356 O360 2.398 . S
Dy356 O361 2.491 . S
Dy356 O362 2.403 . S
Dy356 O363 2.664 . S
Dy356 O367 2.326 . S
Dy356 O371 2.310 . S
Dy356 O372 2.351 . S
C357 O368 1.185 . S
C357 O369 1.355 . S
C358 O360 1.185 . S
C358 O361 1.355 . S
Dy359 O363 2.310 . S
Dy359 O366 2.351 . S
Dy359 O368 2.398 . S
Dy359 O369 2.491 . S
Dy359 O370 2.403 . S
Dy359 O371 2.664 . S
Dy359 O373 2.326 . S
O360 Dy356 2.398 . S
O360 C358 1.185 . S
O361 Dy356 2.491 . S
O361 C358 1.355 . S
O362 Dy356 2.403 . S
O362 C364 1.254 . S
O363 Dy356 2.664 . S
O363 Dy359 2.310 . S
O363 C364 1.268 . S
C364 O362 1.254 . S
C364 O363 1.268 . S
C365 O370 1.254 . S
C365 O371 1.268 . S
O366 Dy359 2.351 . S
O366 C374 1.249 . S
O367 Dy356 2.326 . S
O367 C374 1.267 . S
O368 C357 1.185 . S
O368 Dy359 2.398 . S
O369 C357 1.355 . S
O369 Dy359 2.491 . S
O370 Dy359 2.403 . S
O370 C365 1.254 . S
O371 Dy356 2.310 . S
O371 Dy359 2.664 . S
O371 C365 1.268 . S
O372 Dy356 2.351 . S
O372 C375 1.249 . S
O373 Dy359 2.326 . S
O373 C375 1.267 . S
C374 O366 1.249 . S
C374 O367 1.267 . S
C375 O372 1.249 . S
C375 O373 1.267 . S
Dy376 O380 2.398 1_545 S
Dy376 O381 2.491 1_545 S
Dy376 O382 2.403 . S
Dy376 O383 2.664 . S
Dy376 O387 2.326 1_545 S
Dy376 O391 2.310 . S
Dy376 O392 2.351 . S
C377 O388 1.185 . S
C377 O389 1.355 . S
C378 O380 1.185 . S
C378 O381 1.355 . S
Dy379 O383 2.310 . S
Dy379 O386 2.351 1_545 S
Dy379 O388 2.398 . S
Dy379 O389 2.491 . S
Dy379 O390 2.403 . S
Dy379 O391 2.664 . S
Dy379 O393 2.326 . S
O380 Dy376 2.398 1_565 S
O380 C378 1.185 . S
O381 Dy376 2.491 1_565 S
O381 C378 1.355 . S
O382 Dy376 2.403 . S
O382 C384 1.254 . S
O383 Dy376 2.664 . S
O383 Dy379 2.310 . S
O383 C384 1.268 . S
C384 O382 1.254 . S
C384 O383 1.268 . S
C385 O390 1.254 . S
C385 O391 1.268 . S
O386 Dy379 2.351 1_565 S
O386 C394 1.249 . S
O387 Dy376 2.326 1_565 S
O387 C394 1.267 . S
O388 C377 1.185 . S
O388 Dy379 2.398 . S
O389 C377 1.355 . S
O389 Dy379 2.491 . S
O390 Dy379 2.403 . S
O390 C385 1.254 . S
O391 Dy376 2.310 . S
O391 Dy379 2.664 . S
O391 C385 1.268 . S
O392 Dy376 2.351 . S
O392 C395 1.249 . S
O393 Dy379 2.326 . S
O393 C395 1.267 . S
C394 O386 1.249 . S
C394 O387 1.267 . S
C395 O392 1.249 . S
C395 O393 1.267 . S
Dy396 O400 2.398 . S
Dy396 O401 2.491 . S
Dy396 O402 2.403 . S
Dy396 O403 2.664 . S
Dy396 O407 2.326 . S
Dy396 O411 2.310 . S
Dy396 O412 2.351 . S
C397 O408 1.185 . S
C397 O409 1.355 . S
C398 O400 1.185 . S
C398 O401 1.355 . S
Dy399 O403 2.310 . S
Dy399 O406 2.351 . S
Dy399 O408 2.398 . S
Dy399 O409 2.491 . S
Dy399 O410 2.403 . S
Dy399 O411 2.664 . S
Dy399 O413 2.326 . S
O400 Dy396 2.398 . S
O400 C398 1.185 . S
O401 Dy396 2.491 . S
O401 C398 1.355 . S
O402 Dy396 2.403 . S
O402 C404 1.254 . S
O403 Dy396 2.664 . S
O403 Dy399 2.310 . S
O403 C404 1.268 . S
C404 O402 1.254 . S
C404 O403 1.268 . S
C405 O410 1.254 . S
C405 O411 1.268 . S
O406 Dy399 2.351 . S
O406 C414 1.249 . S
O407 Dy396 2.326 . S
O407 C414 1.267 . S
O408 C397 1.185 . S
O408 Dy399 2.398 . S
O409 C397 1.355 . S
O409 Dy399 2.491 . S
O410 Dy399 2.403 . S
O410 C405 1.254 . S
O411 Dy396 2.310 . S
O411 Dy399 2.664 . S
O411 C405 1.268 . S
O412 Dy396 2.351 . S
O412 C415 1.249 . S
O413 Dy399 2.326 . S
O413 C415 1.267 . S
C414 O406 1.249 . S
C414 O407 1.267 . S
C415 O412 1.249 . S
C415 O413 1.267 . S
Dy416 O420 2.398 1_565 S
Dy416 O421 2.491 1_465 S
Dy416 O422 2.403 1_565 S
Dy416 O423 2.664 1_565 S
Dy416 O427 2.326 1_565 S
Dy416 O431 2.310 1_465 S
Dy416 O432 2.351 . S
C417 O428 1.185 . S
C417 O429 1.355 . S
C418 O420 1.185 1_655 S
C418 O421 1.355 . S
Dy419 O423 2.310 . S
Dy419 O426 2.351 . S
Dy419 O428 2.398 . S
Dy419 O429 2.491 . S
Dy419 O430 2.403 1_455 S
Dy419 O431 2.664 1_455 S
Dy419 O433 2.326 1_545 S
O420 Dy416 2.398 1_545 S
O420 C418 1.185 1_455 S
O421 Dy416 2.491 1_645 S
O421 C418 1.355 . S
O422 Dy416 2.403 1_545 S
O422 C424 1.254 . S
O423 Dy416 2.664 1_545 S
O423 Dy419 2.310 . S
O423 C424 1.268 . S
C424 O422 1.254 . S
C424 O423 1.268 . S
C425 O430 1.254 . S
C425 O431 1.268 . S
O426 Dy419 2.351 . S
O426 C434 1.249 . S
O427 Dy416 2.326 1_545 S
O427 C434 1.267 . S
O428 C417 1.185 . S
O428 Dy419 2.398 . S
O429 C417 1.355 . S
O429 Dy419 2.491 . S
O430 Dy419 2.403 1_655 S
O430 C425 1.254 . S
O431 Dy416 2.310 1_645 S
O431 Dy419 2.664 1_655 S
O431 C425 1.268 . S
O432 Dy416 2.351 . S
O432 C435 1.249 . S
O433 Dy419 2.326 1_565 S
O433 C435 1.267 . S
C434 O426 1.249 . S
C434 O427 1.267 . S
C435 O432 1.249 . S
C435 O433 1.267 . S
Dy436 O440 2.398 . S
Dy436 O441 2.491 . S
Dy436 O442 2.403 . S
Dy436 O443 2.664 . S
Dy436 O447 2.326 . S
Dy436 O451 2.310 . S
Dy436 O452 2.351 . S
C437 O448 1.185 . S
C437 O449 1.355 . S
C438 O440 1.185 . S
C438 O441 1.355 . S
Dy439 O443 2.310 . S
Dy439 O446 2.351 . S
Dy439 O448 2.398 . S
Dy439 O449 2.491 . S
Dy439 O450 2.403 . S
Dy439 O451 2.664 . S
Dy439 O453 2.326 . S
O440 Dy436 2.398 . S
O440 C438 1.185 . S
O441 Dy436 2.491 . S
O441 C438 1.355 . S
O442 Dy436 2.403 . S
O442 C444 1.254 . S
O443 Dy436 2.664 . S
O443 Dy439 2.310 . S
O443 C444 1.268 . S
C444 O442 1.254 . S
C444 O443 1.268 . S
C445 O450 1.254 . S
C445 O451 1.268 . S
O446 Dy439 2.351 . S
O446 C454 1.249 . S
O447 Dy436 2.326 . S
O447 C454 1.267 . S
O448 C437 1.185 . S
O448 Dy439 2.398 . S
O449 C437 1.355 . S
O449 Dy439 2.491 . S
O450 Dy439 2.403 . S
O450 C445 1.254 . S
O451 Dy436 2.310 . S
O451 Dy439 2.664 . S
O451 C445 1.268 . S
O452 Dy436 2.351 . S
O452 C455 1.249 . S
O453 Dy439 2.326 . S
O453 C455 1.267 . S
C454 O446 1.249 . S
C454 O447 1.267 . S
C455 O452 1.249 . S
C455 O453 1.267 . S
Dy456 O460 2.398 1_545 S
Dy456 O461 2.491 . S
Dy456 O462 2.403 1_545 S
Dy456 O463 2.664 1_544 S
Dy456 O467 2.326 1_545 S
Dy456 O471 2.310 . S
Dy456 O472 2.351 . S
C457 O468 1.185 . S
C457 O469 1.355 . S
C458 O460 1.185 . S
C458 O461 1.355 1_565 S
Dy459 O463 2.310 1_545 S
Dy459 O466 2.351 1_545 S
Dy459 O468 2.398 . S
Dy459 O469 2.491 . S
Dy459 O470 2.403 . S
Dy459 O471 2.664 1_556 S
Dy459 O473 2.326 . S
O460 Dy456 2.398 1_565 S
O460 C458 1.185 . S
O461 Dy456 2.491 . S
O461 C458 1.355 1_545 S
O462 Dy456 2.403 1_565 S
O462 C464 1.254 1_554 S
O463 Dy456 2.664 1_566 S
O463 Dy459 2.310 1_565 S
O463 C464 1.268 . S
C464 O462 1.254 1_556 S
C464 O463 1.268 . S
C465 O470 1.254 1_554 S
C465 O471 1.268 . S
O466 Dy459 2.351 1_565 S
O466 C474 1.249 1_556 S
O467 Dy456 2.326 1_565 S
O467 C474 1.267 . S
O468 C457 1.185 . S
O468 Dy459 2.398 . S
O469 C457 1.355 . S
O469 Dy459 2.491 . S
O470 Dy459 2.403 . S
O470 C465 1.254 1_556 S
O471 Dy456 2.310 . S
O471 Dy459 2.664 1_554 S
O471 C465 1.268 . S
O472 Dy456 2.351 . S
O472 C475 1.249 . S
O473 Dy459 2.326 . S
O473 C475 1.267 1_556 S
C474 O466 1.249 1_554 S
C474 O467 1.267 . S
C475 O472 1.249 . S
C475 O473 1.267 1_554 S
Dy476 O480 2.398 . S
Dy476 O481 2.491 . S
Dy476 O482 2.403 . S
Dy476 O483 2.664 . S
Dy476 O487 2.326 . S
Dy476 O491 2.310 . S
Dy476 O492 2.351 . S
C477 O488 1.185 . S
C477 O489 1.355 . S
C478 O480 1.185 . S
C478 O481 1.355 . S
Dy479 O483 2.310 . S
Dy479 O486 2.351 . S
Dy479 O488 2.398 . S
Dy479 O489 2.491 . S
Dy479 O490 2.403 . S
Dy479 O491 2.664 . S
Dy479 O493 2.326 . S
O480 Dy476 2.398 . S
O480 C478 1.185 . S
O481 Dy476 2.491 . S
O481 C478 1.355 . S
O482 Dy476 2.403 . S
O482 C484 1.254 . S
O483 Dy476 2.664 . S
O483 Dy479 2.310 . S
O483 C484 1.268 . S
C484 O482 1.254 . S
C484 O483 1.268 . S
C485 O490 1.254 . S
C485 O491 1.268 . S
O486 Dy479 2.351 . S
O486 C494 1.249 . S
O487 Dy476 2.326 . S
O487 C494 1.267 . S
O488 C477 1.185 . S
O488 Dy479 2.398 . S
O489 C477 1.355 . S
O489 Dy479 2.491 . S
O490 Dy479 2.403 . S
O490 C485 1.254 . S
O491 Dy476 2.310 . S
O491 Dy479 2.664 . S
O491 C485 1.268 . S
O492 Dy476 2.351 . S
O492 C495 1.249 . S
O493 Dy479 2.326 . S
O493 C495 1.267 . S
C494 O486 1.249 . S
C494 O487 1.267 . S
C495 O492 1.249 . S
C495 O493 1.267 . S
Dy496 O500 2.398 . S
Dy496 O501 2.491 . S
Dy496 O502 2.403 . S
Dy496 O503 2.664 1_556 S
Dy496 O507 2.326 . S
Dy496 O511 2.310 1_556 S
Dy496 O512 2.351 . S
C497 O508 1.185 . S
C497 O509 1.355 . S
C498 O500 1.185 . S
C498 O501 1.355 . S
Dy499 O503 2.310 . S
Dy499 O506 2.351 . S
Dy499 O508 2.398 . S
Dy499 O509 2.491 . S
Dy499 O510 2.403 . S
Dy499 O511 2.664 . S
Dy499 O513 2.326 . S
O500 Dy496 2.398 . S
O500 C498 1.185 . S
O501 Dy496 2.491 . S
O501 C498 1.355 . S
O502 Dy496 2.403 . S
O502 C504 1.254 . S
O503 Dy496 2.664 1_554 S
O503 Dy499 2.310 . S
O503 C504 1.268 1_554 S
C504 O502 1.254 . S
C504 O503 1.268 1_556 S
C505 O510 1.254 . S
C505 O511 1.268 . S
O506 Dy499 2.351 . S
O506 C514 1.249 1_554 S
O507 Dy496 2.326 . S
O507 C514 1.267 . S
O508 C497 1.185 . S
O508 Dy499 2.398 . S
O509 C497 1.355 . S
O509 Dy499 2.491 . S
O510 Dy499 2.403 . S
O510 C505 1.254 . S
O511 Dy496 2.310 1_554 S
O511 Dy499 2.664 . S
O511 C505 1.268 . S
O512 Dy496 2.351 . S
O512 C515 1.249 1_556 S
O513 Dy499 2.326 . S
O513 C515 1.267 . S
C514 O506 1.249 1_556 S
C514 O507 1.267 . S
C515 O512 1.249 1_554 S
C515 O513 1.267 . S
Dy516 O520 2.398 . S
Dy516 O521 2.491 . S
Dy516 O522 2.403 . S
Dy516 O523 2.664 . S
Dy516 O527 2.326 . S
Dy516 O531 2.310 . S
Dy516 O532 2.351 . S
C517 O528 1.185 . S
C517 O529 1.355 . S
C518 O520 1.185 . S
C518 O521 1.355 . S
Dy519 O523 2.310 . S
Dy519 O526 2.351 . S
Dy519 O528 2.398 . S
Dy519 O529 2.491 . S
Dy519 O530 2.403 . S
Dy519 O531 2.664 . S
Dy519 O533 2.326 . S
O520 Dy516 2.398 . S
O520 C518 1.185 . S
O521 Dy516 2.491 . S
O521 C518 1.355 . S
O522 Dy516 2.403 . S
O522 C524 1.254 . S
O523 Dy516 2.664 . S
O523 Dy519 2.310 . S
O523 C524 1.268 . S
C524 O522 1.254 . S
C524 O523 1.268 . S
C525 O530 1.254 . S
C525 O531 1.268 . S
O526 Dy519 2.351 . S
O526 C534 1.249 . S
O527 Dy516 2.326 . S
O527 C534 1.267 . S
O528 C517 1.185 . S
O528 Dy519 2.398 . S
O529 C517 1.355 . S
O529 Dy519 2.491 . S
O530 Dy519 2.403 . S
O530 C525 1.254 . S
O531 Dy516 2.310 . S
O531 Dy519 2.664 . S
O531 C525 1.268 . S
O532 Dy516 2.351 . S
O532 C535 1.249 . S
O533 Dy519 2.326 . S
O533 C535 1.267 . S
C534 O526 1.249 . S
C534 O527 1.267 . S
C535 O532 1.249 . S
C535 O533 1.267 . S
Dy536 O540 2.398 1_455 S
Dy536 O541 2.491 1_455 S
Dy536 O542 2.403 . S
Dy536 O543 2.664 . S
Dy536 O547 2.326 1_455 S
Dy536 O551 2.310 . S
Dy536 O552 2.351 . S
C537 O548 1.185 . S
C537 O549 1.355 . S
C538 O540 1.185 . S
C538 O541 1.355 . S
Dy539 O543 2.310 . S
Dy539 O546 2.351 1_455 S
Dy539 O548 2.398 . S
Dy539 O549 2.491 . S
Dy539 O550 2.403 . S
Dy539 O551 2.664 . S
Dy539 O553 2.326 . S
O540 Dy536 2.398 1_655 S
O540 C538 1.185 . S
O541 Dy536 2.491 1_655 S
O541 C538 1.355 . S
O542 Dy536 2.403 . S
O542 C544 1.254 . S
O543 Dy536 2.664 . S
O543 Dy539 2.310 . S
O543 C544 1.268 . S
C544 O542 1.254 . S
C544 O543 1.268 . S
C545 O550 1.254 . S
C545 O551 1.268 . S
O546 Dy539 2.351 1_655 S
O546 C554 1.249 . S
O547 Dy536 2.326 1_655 S
O547 C554 1.267 . S
O548 C537 1.185 . S
O548 Dy539 2.398 . S
O549 C537 1.355 . S
O549 Dy539 2.491 . S
O550 Dy539 2.403 . S
O550 C545 1.254 . S
O551 Dy536 2.310 . S
O551 Dy539 2.664 . S
O551 C545 1.268 . S
O552 Dy536 2.351 . S
O552 C555 1.249 . S
O553 Dy539 2.326 . S
O553 C555 1.267 . S
C554 O546 1.249 . S
C554 O547 1.267 . S
C555 O552 1.249 . S
C555 O553 1.267 . S
Dy556 O560 2.398 . S
Dy556 O561 2.491 . S
Dy556 O562 2.403 . S
Dy556 O563 2.664 . S
Dy556 O567 2.326 . S
Dy556 O571 2.310 . S
Dy556 O572 2.351 . S
C557 O568 1.185 . S
C557 O569 1.355 . S
C558 O560 1.185 . S
C558 O561 1.355 . S
Dy559 O563 2.310 . S
Dy559 O566 2.351 . S
Dy559 O568 2.398 . S
Dy559 O569 2.491 . S
Dy559 O570 2.403 . S
Dy559 O571 2.664 . S
Dy559 O573 2.326 . S
O560 Dy556 2.398 . S
O560 C558 1.185 . S
O561 Dy556 2.491 . S
O561 C558 1.355 . S
O562 Dy556 2.403 . S
O562 C564 1.254 . S
O563 Dy556 2.664 . S
O563 Dy559 2.310 . S
O563 C564 1.268 . S
C564 O562 1.254 . S
C564 O563 1.268 . S
C565 O570 1.254 . S
C565 O571 1.268 . S
O566 Dy559 2.351 . S
O566 C574 1.249 . S
O567 Dy556 2.326 . S
O567 C574 1.267 . S
O568 C557 1.185 . S
O568 Dy559 2.398 . S
O569 C557 1.355 . S
O569 Dy559 2.491 . S
O570 Dy559 2.403 . S
O570 C565 1.254 . S
O571 Dy556 2.310 . S
O571 Dy559 2.664 . S
O571 C565 1.268 . S
O572 Dy556 2.351 . S
O572 C575 1.249 . S
O573 Dy559 2.326 . S
O573 C575 1.267 . S
C574 O566 1.249 . S
C574 O567 1.267 . S
C575 O572 1.249 . S
C575 O573 1.267 . S
Dy576 O580 2.398 . S
Dy576 O581 2.491 . S
Dy576 O582 2.403 . S
Dy576 O583 2.664 . S
Dy576 O587 2.326 . S
Dy576 O591 2.310 . S
Dy576 O592 2.351 . S
C577 O588 1.185 . S
C577 O589 1.355 . S
C578 O580 1.185 . S
C578 O581 1.355 . S
Dy579 O583 2.310 . S
Dy579 O586 2.351 . S
Dy579 O588 2.398 . S
Dy579 O589 2.491 . S
Dy579 O590 2.403 . S
Dy579 O591 2.664 . S
Dy579 O593 2.326 . S
O580 Dy576 2.398 . S
O580 C578 1.185 . S
O581 Dy576 2.491 . S
O581 C578 1.355 . S
O582 Dy576 2.403 . S
O582 C584 1.254 . S
O583 Dy576 2.664 . S
O583 Dy579 2.310 . S
O583 C584 1.268 . S
C584 O582 1.254 . S
C584 O583 1.268 . S
C585 O590 1.254 . S
C585 O591 1.268 . S
O586 Dy579 2.351 . S
O586 C594 1.249 . S
O587 Dy576 2.326 . S
O587 C594 1.267 . S
O588 C577 1.185 . S
O588 Dy579 2.398 . S
O589 C577 1.355 . S
O589 Dy579 2.491 . S
O590 Dy579 2.403 . S
O590 C585 1.254 . S
O591 Dy576 2.310 . S
O591 Dy579 2.664 . S
O591 C585 1.268 . S
O592 Dy576 2.351 . S
O592 C595 1.249 . S
O593 Dy579 2.326 . S
O593 C595 1.267 . S
C594 O586 1.249 . S
C594 O587 1.267 . S
C595 O592 1.249 . S
C595 O593 1.267 . S
Dy596 O600 2.398 . S
Dy596 O601 2.491 . S
Dy596 O602 2.403 . S
Dy596 O603 2.664 . S
Dy596 O607 2.326 . S
Dy596 O611 2.310 . S
Dy596 O612 2.351 . S
C597 O608 1.185 . S
C597 O609 1.355 . S
C598 O600 1.185 . S
C598 O601 1.355 . S
Dy599 O603 2.310 . S
Dy599 O606 2.351 . S
Dy599 O608 2.398 . S
Dy599 O609 2.491 . S
Dy599 O610 2.403 . S
Dy599 O611 2.664 . S
Dy599 O613 2.326 . S
O600 Dy596 2.398 . S
O600 C598 1.185 . S
O601 Dy596 2.491 . S
O601 C598 1.355 . S
O602 Dy596 2.403 . S
O602 C604 1.254 . S
O603 Dy596 2.664 . S
O603 Dy599 2.310 . S
O603 C604 1.268 . S
C604 O602 1.254 . S
C604 O603 1.268 . S
C605 O610 1.254 . S
C605 O611 1.268 . S
O606 Dy599 2.351 . S
O606 C614 1.249 . S
O607 Dy596 2.326 . S
O607 C614 1.267 . S
O608 C597 1.185 . S
O608 Dy599 2.398 . S
O609 C597 1.355 . S
O609 Dy599 2.491 . S
O610 Dy599 2.403 . S
O610 C605 1.254 . S
O611 Dy596 2.310 . S
O611 Dy599 2.664 . S
O611 C605 1.268 . S
O612 Dy596 2.351 . S
O612 C615 1.249 . S
O613 Dy599 2.326 . S
O613 C615 1.267 . S
C614 O606 1.249 . S
C614 O607 1.267 . S
C615 O612 1.249 . S
C615 O613 1.267 . S
Dy616 O620 2.398 . S
Dy616 O621 2.491 . S
Dy616 O622 2.403 . S
Dy616 O623 2.664 . S
Dy616 O627 2.326 . S
Dy616 O631 2.310 . S
Dy616 O632 2.351 . S
C617 O628 1.185 . S
C617 O629 1.355 . S
C618 O620 1.185 . S
C618 O621 1.355 . S
Dy619 O623 2.310 . S
Dy619 O626 2.351 . S
Dy619 O628 2.398 . S
Dy619 O629 2.491 . S
Dy619 O630 2.403 . S
Dy619 O631 2.664 . S
Dy619 O633 2.326 . S
O620 Dy616 2.398 . S
O620 C618 1.185 . S
O621 Dy616 2.491 . S
O621 C618 1.355 . S
O622 Dy616 2.403 . S
O622 C624 1.254 . S
O623 Dy616 2.664 . S
O623 Dy619 2.310 . S
O623 C624 1.268 . S
C624 O622 1.254 . S
C624 O623 1.268 . S
C625 O630 1.254 . S
C625 O631 1.268 . S
O626 Dy619 2.351 . S
O626 C634 1.249 . S
O627 Dy616 2.326 . S
O627 C634 1.267 . S
O628 C617 1.185 . S
O628 Dy619 2.398 . S
O629 C617 1.355 . S
O629 Dy619 2.491 . S
O630 Dy619 2.403 . S
O630 C625 1.254 . S
O631 Dy616 2.310 . S
O631 Dy619 2.664 . S
O631 C625 1.268 . S
O632 Dy616 2.351 . S
O632 C635 1.249 . S
O633 Dy619 2.326 . S
O633 C635 1.267 . S
C634 O626 1.249 . S
C634 O627 1.267 . S
C635 O632 1.249 . S
C635 O633 1.267 . S
Dy636 O640 2.398 . S
Dy636 O641 2.491 1_556 S
Dy636 O642 2.403 . S
Dy636 O643 2.683 . S
Dy636 O647 2.326 . S
Dy636 O651 2.310 1_556 S
Dy636 O652 2.351 1_556 S
C637 O648 1.185 . S
C637 O649 1.355 . S
C638 O640 1.185 . S
C638 O641 1.355 1_556 S
Dy639 O643 2.300 1_654 S
Dy639 O646 2.351 . S
Dy639 O648 2.398 . S
Dy639 O649 2.491 . S
Dy639 O650 2.403 . S
Dy639 O651 2.664 1_655 S
Dy639 O653 2.326 1_655 S
O640 Dy636 2.398 . S
O640 C638 1.185 . S
O641 Dy636 2.491 1_554 S
O641 C638 1.355 1_554 S
O642 Dy636 2.403 . S
O642 C644 1.254 . S
O643 Dy636 2.683 . S
O643 Dy639 2.300 1_456 S
O643 C644 1.274 . S
C644 O642 1.254 . S
C644 O643 1.274 . S
C645 O650 1.254 1_455 S
C645 O651 1.268 . S
O646 Dy639 2.351 . S
O646 C654 1.249 1_654 S
O647 Dy636 2.326 . S
O647 C654 1.267 . S
O648 C637 1.185 . S
O648 Dy639 2.398 . S
O649 C637 1.355 . S
O649 Dy639 2.491 . S
O650 Dy639 2.403 . S
O650 C645 1.254 1_655 S
O651 Dy636 2.310 1_554 S
O651 Dy639 2.664 1_455 S
O651 C645 1.268 . S
O652 Dy636 2.351 1_554 S
O652 C655 1.249 . S
O653 Dy639 2.326 1_455 S
O653 C655 1.267 . S
C654 O646 1.249 1_456 S
C654 O647 1.267 . S
C655 O652 1.249 . S
C655 O653 1.267 . S
C109 C354 2.068 1_655 S
C61 C365 1.551 . S
C74 C394 1.170 . S
C397 C96 1.444 . S
C25 C435 1.783 1_655 S
C438 C40 1.480 . S
C465 C46 1.961 . S
C5 C494 1.293 . S
C345 C229 1.230 1_455 S
C249 C357 1.727 . S
C385 C271 1.040 . S
C414 C172 1.874 . S
C236 C418 1.484 . S
C444 C242 1.766 . S
C457 C278 0.590 . S
C485 C179 2.151 . S
C337 C159 1.469 1_545 S
C285 C504 1.347 . S
C535 C333 1.938 . S
C554 C320 1.028 . S
C123 C477 2.136 . S
C138 C377 1.946 . S
C326 C565 2.050 . S
C594 C298 0.676 . S
C355 C67 1.753 . S
C584 C110 1.910 . S
C88 C395 1.231 . S
C75 C558 1.322 . S
C434 C11 1.593 . S
C47 C517 1.697 . S
C464 C32 1.538 . S
C615 C26 2.055 . S
C344 C152 2.222 1_565 S
C578 C319 1.264 . S
C124 C384 1.507 . S
C284 C575 1.964 . S
C145 C417 1.742 1_565 S
C525 C312 1.767 . S
C117 C458 1.151 1_545 S
C291 C604 1.983 . S
C194 C338 2.399 1_554 S
C180 C505 1.841 . S
C263 C454 1.573 . S
C243 C555 1.146 . S
C598 C277 1.744 . S
C215 C378 1.985 . S
C404 C256 1.623 . S
C375 C200 1.021 . S
C81 C634 2.068 . S
C585 C89 1.551 . S
C102 C654 1.171 1_655 S
C68 C557 1.444 . S
C53 C515 1.788 . S
C518 C12 1.480 . S
C545 C18 1.961 1_455 S
C614 C33 1.293 . S
C625 C257 1.230 . S
C193 C577 1.727 . S
C645 C201 1.040 . S
C574 C214 1.874 . S
C498 C264 1.484 . S
C186 C524 1.766 . S
C537 C208 0.590 . S
C221 C605 2.151 . S
C617 C313 1.469 . S
C131 C424 1.347 . S
C455 C151 1.937 . S
C474 C166 1.028 . S
C597 C305 2.136 . S
C292 C637 1.946 . S
C405 C144 2.050 . S
C374 C116 0.676 . S
C95 C635 1.753 . S
C364 C82 1.910 . S
C60 C655 1.231 . S
C103 C398 1.322 . S
C39 C514 1.593 . S
C437 C19 1.697 . S
C4 C544 1.538 . S
C54 C495 2.055 . S
C624 C334 2.221 . S
C165 C358 1.264 . S
C644 C306 1.507 1_455 S
C130 C415 1.964 . S
C327 C497 1.743 . S
C445 C158 1.767 . S
C299 C538 1.151 . S
C484 C137 1.983 . S
C618 C250 2.399 . S
C425 C222 1.841 1_545 S
C235 C534 1.573 . S
C475 C187 1.147 1_554 S
C207 C478 1.744 . S
C173 C638 1.985 1_554 S
C564 C228 1.623 . S
C595 C270 1.021 . S
