# Generated by pormake.
# Topology ctn, (3,4)-cn, num edge types: 1
# Building blocks:
#     Node 0, Type 0, BuildingBlock: WUSLED_clean_sbu_0, # of connection points: 3
#     Node 1, Type 0, BuildingBlock: WUSLED_clean_sbu_0, # of connection points: 3
#     Node 2, Type 0, BuildingBlock: WUSLED_clean_sbu_0, # of connection points: 3
#     Node 3, Type 0, BuildingBlock: WUSLED_clean_sbu_0, # of connection points: 3
#     Node 4, Type 0, BuildingBlock: WUSLED_clean_sbu_0, # of connection points: 3
#     Node 5, Type 0, BuildingBlock: WUSLED_clean_sbu_0, # of connection points: 3
#     Node 6, Type 0, BuildingBlock: WUSLED_clean_sbu_0, # of connection points: 3
#     Node 7, Type 0, BuildingBlock: WUSLED_clean_sbu_0, # of connection points: 3
#     Node 8, Type 0, BuildingBlock: WUSLED_clean_sbu_0, # of connection points: 3
#     Node 9, Type 0, BuildingBlock: WUSLED_clean_sbu_0, # of connection points: 3
#     Node 10, Type 0, BuildingBlock: WUSLED_clean_sbu_0, # of connection points: 3
#     Node 11, Type 0, BuildingBlock: WUSLED_clean_sbu_0, # of connection points: 3
#     Node 12, Type 0, BuildingBlock: WUSLED_clean_sbu_0, # of connection points: 3
#     Node 13, Type 0, BuildingBlock: WUSLED_clean_sbu_0, # of connection points: 3
#     Node 14, Type 0, BuildingBlock: WUSLED_clean_sbu_0, # of connection points: 3
#     Node 15, Type 0, BuildingBlock: WUSLED_clean_sbu_0, # of connection points: 3
#     Node 16, Type 1, BuildingBlock: NAHDIM_clean_sbu_0, # of connection points: 4
#     Node 17, Type 1, BuildingBlock: NAHDIM_clean_sbu_0, # of connection points: 4
#     Node 18, Type 1, BuildingBlock: NAHDIM_clean_sbu_0, # of connection points: 4
#     Node 19, Type 1, BuildingBlock: NAHDIM_clean_sbu_0, # of connection points: 4
#     Node 20, Type 1, BuildingBlock: NAHDIM_clean_sbu_0, # of connection points: 4
#     Node 21, Type 1, BuildingBlock: NAHDIM_clean_sbu_0, # of connection points: 4
#     Node 22, Type 1, BuildingBlock: NAHDIM_clean_sbu_0, # of connection points: 4
#     Node 23, Type 1, BuildingBlock: NAHDIM_clean_sbu_0, # of connection points: 4
#     Node 24, Type 1, BuildingBlock: NAHDIM_clean_sbu_0, # of connection points: 4
#     Node 25, Type 1, BuildingBlock: NAHDIM_clean_sbu_0, # of connection points: 4
#     Node 26, Type 1, BuildingBlock: NAHDIM_clean_sbu_0, # of connection points: 4
#     Node 27, Type 1, BuildingBlock: NAHDIM_clean_sbu_0, # of connection points: 4
#     Edge 28, Type (0, 1), BuildingBlock: XUDNAN_clean_linker_2, # of connection points: 2
#     Edge 29, Type (0, 1), BuildingBlock: XUDNAN_clean_linker_2, # of connection points: 2
#     Edge 30, Type (0, 1), BuildingBlock: XUDNAN_clean_linker_2, # of connection points: 2
#     Edge 31, Type (0, 1), BuildingBlock: XUDNAN_clean_linker_2, # of connection points: 2
#     Edge 32, Type (0, 1), BuildingBlock: XUDNAN_clean_linker_2, # of connection points: 2
#     Edge 33, Type (0, 1), BuildingBlock: XUDNAN_clean_linker_2, # of connection points: 2
#     Edge 34, Type (0, 1), BuildingBlock: XUDNAN_clean_linker_2, # of connection points: 2
#     Edge 35, Type (0, 1), BuildingBlock: XUDNAN_clean_linker_2, # of connection points: 2
#     Edge 36, Type (0, 1), BuildingBlock: XUDNAN_clean_linker_2, # of connection points: 2
#     Edge 37, Type (0, 1), BuildingBlock: XUDNAN_clean_linker_2, # of connection points: 2
#     Edge 38, Type (0, 1), BuildingBlock: XUDNAN_clean_linker_2, # of connection points: 2
#     Edge 39, Type (0, 1), BuildingBlock: XUDNAN_clean_linker_2, # of connection points: 2
#     Edge 40, Type (0, 1), BuildingBlock: XUDNAN_clean_linker_2, # of connection points: 2
#     Edge 41, Type (0, 1), BuildingBlock: XUDNAN_clean_linker_2, # of connection points: 2
#     Edge 42, Type (0, 1), BuildingBlock: XUDNAN_clean_linker_2, # of connection points: 2
#     Edge 43, Type (0, 1), BuildingBlock: XUDNAN_clean_linker_2, # of connection points: 2
#     Edge 44, Type (0, 1), BuildingBlock: XUDNAN_clean_linker_2, # of connection points: 2
#     Edge 45, Type (0, 1), BuildingBlock: XUDNAN_clean_linker_2, # of connection points: 2
#     Edge 46, Type (0, 1), BuildingBlock: XUDNAN_clean_linker_2, # of connection points: 2
#     Edge 47, Type (0, 1), BuildingBlock: XUDNAN_clean_linker_2, # of connection points: 2
#     Edge 48, Type (0, 1), BuildingBlock: XUDNAN_clean_linker_2, # of connection points: 2
#     Edge 49, Type (0, 1), BuildingBlock: XUDNAN_clean_linker_2, # of connection points: 2
#     Edge 50, Type (0, 1), BuildingBlock: XUDNAN_clean_linker_2, # of connection points: 2
#     Edge 51, Type (0, 1), BuildingBlock: XUDNAN_clean_linker_2, # of connection points: 2
#     Edge 52, Type (0, 1), BuildingBlock: XUDNAN_clean_linker_2, # of connection points: 2
#     Edge 53, Type (0, 1), BuildingBlock: XUDNAN_clean_linker_2, # of connection points: 2
#     Edge 54, Type (0, 1), BuildingBlock: XUDNAN_clean_linker_2, # of connection points: 2
#     Edge 55, Type (0, 1), BuildingBlock: XUDNAN_clean_linker_2, # of connection points: 2
#     Edge 56, Type (0, 1), BuildingBlock: XUDNAN_clean_linker_2, # of connection points: 2
#     Edge 57, Type (0, 1), BuildingBlock: XUDNAN_clean_linker_2, # of connection points: 2
#     Edge 58, Type (0, 1), BuildingBlock: XUDNAN_clean_linker_2, # of connection points: 2
#     Edge 59, Type (0, 1), BuildingBlock: XUDNAN_clean_linker_2, # of connection points: 2
#     Edge 60, Type (0, 1), BuildingBlock: XUDNAN_clean_linker_2, # of connection points: 2
#     Edge 61, Type (0, 1), BuildingBlock: XUDNAN_clean_linker_2, # of connection points: 2
#     Edge 62, Type (0, 1), BuildingBlock: XUDNAN_clean_linker_2, # of connection points: 2
#     Edge 63, Type (0, 1), BuildingBlock: XUDNAN_clean_linker_2, # of connection points: 2
#     Edge 64, Type (0, 1), BuildingBlock: XUDNAN_clean_linker_2, # of connection points: 2
#     Edge 65, Type (0, 1), BuildingBlock: XUDNAN_clean_linker_2, # of connection points: 2
#     Edge 66, Type (0, 1), BuildingBlock: XUDNAN_clean_linker_2, # of connection points: 2
#     Edge 67, Type (0, 1), BuildingBlock: XUDNAN_clean_linker_2, # of connection points: 2
#     Edge 68, Type (0, 1), BuildingBlock: XUDNAN_clean_linker_2, # of connection points: 2
#     Edge 69, Type (0, 1), BuildingBlock: XUDNAN_clean_linker_2, # of connection points: 2
#     Edge 70, Type (0, 1), BuildingBlock: XUDNAN_clean_linker_2, # of connection points: 2
#     Edge 71, Type (0, 1), BuildingBlock: XUDNAN_clean_linker_2, # of connection points: 2
#     Edge 72, Type (0, 1), BuildingBlock: XUDNAN_clean_linker_2, # of connection points: 2
#     Edge 73, Type (0, 1), BuildingBlock: XUDNAN_clean_linker_2, # of connection points: 2
#     Edge 74, Type (0, 1), BuildingBlock: XUDNAN_clean_linker_2, # of connection points: 2
#     Edge 75, Type (0, 1), BuildingBlock: XUDNAN_clean_linker_2, # of connection points: 2
# Relax obj value: 0.002
# Max RMSD: 0.034
# Mean RMSD: 0.019
data_MOF--net-ctn--node1-WUSLED_clean_sbu_0--node2-NAHDIM_clean_sbu_0--edge1-XUDNAN_clean_linker_2
_symmetry_space_group_name_H-M    P1
_symmetry_Int_Tables_number       1
_symmetry_cell_setting            triclinic
loop_
_symmetry_equiv_pos_as_xyz
'x, y, z'
_cell_length_a     70.299749
_cell_length_b     71.154774
_cell_length_c     70.553768
_cell_angle_alpha  91.69164
_cell_angle_beta   89.892291
_cell_angle_gamma 91.9138
loop_
_atom_site_label
_atom_site_type_symbol
_atom_site_fract_x
_atom_site_fract_y
_atom_site_fract_z
_atom_type_partial_charge
C0 C 0.01732 0.06494 0.09229 0.0
C1 C 0.02335 0.04965 0.10258 0.0
C2 C 0.99705 0.05356 0.12489 0.0
C3 C 1.01329 0.044 0.11874 0.0
C4 C 0.99119 0.06892 0.11449 0.0
C5 C 1.00123 0.07453 0.09838 0.0
U6 U 0.05674 0.06078 0.05453 0.0
O7 O 0.05481 0.06439 0.0237 0.0
O8 O 0.07357 0.08327 0.0409 0.0
C9 C 0.06603 0.07955 0.02412 0.0
C10 C 0.02741 0.07104 0.07511 0.0
C11 C 0.0589 0.09578 0.0141 0.0
C12 C 0.05906 0.11474 0.98598 0.0
C13 C 0.06564 0.09947 0.99584 0.0
C14 C 0.03882 0.1229 0.01258 0.0
C15 C 0.04556 0.12669 0.99421 0.0
C16 C 0.04541 0.10757 0.02243 0.0
C17 C 0.09315 0.0218 0.05652 0.0
C18 C 0.12207 0.02089 0.03758 0.0
C19 C 0.11143 0.99335 0.05452 0.0
C20 C 0.0958 1.00313 0.06148 0.0
C21 C 0.12479 1.00208 0.04244 0.0
C22 C 0.10639 0.03062 0.04449 0.0
C23 C 0.07653 0.03177 0.06399 0.0
O24 O 0.04475 0.07815 0.07767 0.0
O25 O 0.02595 0.05948 0.06028 0.0
O26 O 0.06108 0.03023 0.05353 0.0
O27 O 0.07994 0.04896 0.07079 0.0
H28 H 0.03578 0.04209 0.09809 0.0
H29 H 0.01834 0.03225 0.1265 0.0
H30 H 0.9786 0.07642 0.11859 0.0
H31 H 0.99633 0.08632 0.09056 0.0
H32 H 0.06435 0.11701 0.97178 0.0
H33 H 0.07598 0.09046 0.98914 0.0
H34 H 0.0286 0.13189 0.01947 0.0
H35 H 0.04002 0.10494 0.03653 0.0
H36 H 0.13217 0.02818 0.02855 0.0
H37 H 0.11284 0.97885 0.05836 0.0
H38 H 0.08569 0.99606 0.07069 0.0
H39 H 0.10461 0.04504 0.04048 0.0
C40 C 0.28019 0.7551 0.18095 0.0
C41 C 0.29487 0.76885 0.18298 0.0
C42 C 0.28454 0.78379 0.1542 0.0
C43 C 0.297 0.78307 0.16977 0.0
C44 C 0.26958 0.77019 0.1525 0.0
C45 C 0.26746 0.75596 0.16574 0.0
U46 U 0.29988 0.72762 0.22165 0.0
O47 O 0.28536 0.71371 0.24546 0.0
O48 O 0.30192 0.69715 0.22501 0.0
C49 C 0.29037 0.69685 0.23967 0.0
C50 C 0.27857 0.73941 0.1941 0.0
C51 C 0.27512 0.68214 0.23878 0.0
C52 C 0.24875 0.66587 0.22232 0.0
C53 C 0.26219 0.68083 0.22364 0.0
C54 C 0.26065 0.65367 0.25155 0.0
C55 C 0.24799 0.65194 0.23613 0.0
C56 C 0.27409 0.66862 0.25283 0.0
C57 C 0.34857 0.74593 0.24267 0.0
C58 C 0.3641 0.75146 0.27334 0.0
C59 C 0.38308 0.74577 0.24524 0.0
C60 C 0.36655 0.74378 0.23434 0.0
C61 C 0.38212 0.75013 0.26478 0.0
C62 C 0.34747 0.74946 0.26238 0.0
C63 C 0.33167 0.74647 0.23015 0.0
O64 O 0.29129 0.72645 0.19165 0.0
O65 O 0.27596 0.74417 0.21205 0.0
O66 O 0.31518 0.75021 0.23801 0.0
O67 O 0.33035 0.73349 0.21653 0.0
H68 H 0.30484 0.76842 0.19464 0.0
H69 H 0.3085 0.79345 0.17171 0.0
H70 H 0.25987 0.77016 0.1406 0.0
H71 H 0.25609 0.74542 0.1639 0.0
H72 H 0.23905 0.66512 0.2104 0.0
H73 H 0.26273 0.69119 0.21268 0.0
H74 H 0.26064 0.64313 0.26231 0.0
H75 H 0.284 0.66937 0.26459 0.0
H76 H 0.36287 0.75491 0.28834 0.0
H77 H 0.39671 0.74436 0.23825 0.0
H78 H 0.36787 0.74116 0.21919 0.0
H79 H 0.33384 0.75132 0.26925 0.0
C80 C 0.97422 0.44259 0.01394 0.0
C81 C 0.96198 0.42978 1.00408 0.0
C82 C 0.98853 0.40957 0.9965 0.0
C83 C 0.96903 0.41344 0.99544 0.0
C84 C 1.00077 0.42268 1.00614 0.0
C85 C 0.99369 0.43891 0.01487 0.0
U86 U 0.97609 0.47748 0.05554 0.0
O87 O 0.97287 0.50811 0.05749 0.0
O88 O 0.95335 0.48951 0.07319 0.0
C89 C 0.95771 0.50684 0.06839 0.0
C90 C 0.96647 0.4592 0.02395 0.0
C91 C 0.94169 0.51861 0.0634 0.0
C92 C 0.91884 0.53 0.04087 0.0
C93 C 0.93336 0.51775 0.0453 0.0
C94 C 0.92069 0.54372 0.07266 0.0
C95 C 0.91255 0.54334 0.05445 0.0
C96 C 0.93509 0.53151 0.07706 0.0
C97 C 0.01604 0.46903 0.09204 0.0
C98 C 0.02392 0.48807 0.12035 0.0
C99 C 0.04001 0.45898 0.11395 0.0
C100 C 0.0295 0.45609 0.09729 0.0
C101 C 0.03728 0.47492 0.12579 0.0
C102 C 1.01332 0.48511 0.10361 0.0
C103 C 1.00507 0.4651 0.07454 0.0
O104 O 0.95834 0.45583 0.04034 0.0
O105 O 0.97757 0.47447 0.02445 0.0
O106 O 1.00689 0.47752 0.06117 0.0
O107 O 0.98746 0.45878 0.07676 0.0
H108 H 0.94688 0.43227 1.00332 0.0
H109 H 0.95912 0.4036 0.98838 0.0
H110 H 0.0159 0.42041 1.007 0.0
H111 H 1.00343 0.44851 0.02249 0.0
H112 H 0.91294 0.52938 0.02669 0.0
H113 H 0.93828 0.50785 0.03456 0.0
H114 H 0.91597 0.55353 0.08358 0.0
H115 H 0.94128 0.53232 0.09113 0.0
H116 H 0.0214 0.50043 0.12921 0.0
H117 H 0.0504 0.44874 0.11748 0.0
H118 H 0.03186 0.44364 0.08849 0.0
H119 H 1.00295 0.49526 0.09976 0.0
C120 C 0.72752 0.76951 0.19115 0.0
C121 C 0.73701 0.77946 0.17686 0.0
C122 C 0.73863 0.75073 0.15723 0.0
C123 C 0.74247 0.77017 0.16004 0.0
C124 C 0.72958 0.74076 0.17184 0.0
C125 C 0.72406 0.75008 0.1886 0.0
U126 U 0.72727 0.81118 0.22709 0.0
O127 O 0.70273 0.82556 0.23954 0.0
O128 O 0.7227 0.81163 0.25797 0.0
C129 C 0.70644 0.82017 0.25677 0.0
C130 C 0.72031 0.77922 0.20833 0.0
C131 C 0.69005 0.8122 0.26746 0.0
C132 C 0.67496 0.78758 0.28615 0.0
C133 C 0.69039 0.79433 0.27542 0.0
C134 C 0.65848 0.8163 0.28091 0.0
C135 C 0.65881 0.79851 0.28911 0.0
C136 C 0.67394 0.82306 0.2703 0.0
C137 C 0.76222 0.85365 0.22094 0.0
C138 C 0.77941 0.8755 0.24261 0.0
C139 C 0.76878 0.88608 0.21223 0.0
C140 C 0.76106 0.86811 0.20792 0.0
C141 C 0.77802 0.89003 0.22963 0.0
C142 C 0.77155 0.8575 0.23834 0.0
C143 C 0.75426 0.83466 0.21561 0.0
O144 O 0.73204 0.78084 0.22282 0.0
O145 O 0.7111 0.79464 0.20543 0.0
O146 O 0.7369 0.83405 0.20866 0.0
O147 O 0.75732 0.82097 0.22725 0.0
H148 H 0.73991 0.79447 0.17859 0.0
H149 H 0.74964 0.77822 0.14919 0.0
H150 H 0.72622 0.72585 0.17009 0.0
H151 H 0.71671 0.74217 0.19945 0.0
H152 H 0.67585 0.77393 0.29241 0.0
H153 H 0.70263 0.78561 0.27354 0.0
H154 H 0.64621 0.82499 0.28256 0.0
H155 H 0.67333 0.83689 0.26433 0.0
H156 H 0.78634 0.87813 0.25617 0.0
H157 H 0.76774 0.89684 0.20177 0.0
H158 H 0.75422 0.86549 0.19431 0.0
H159 H 0.77279 0.84664 0.24866 0.0
C160 C 1.01267 0.97698 0.44011 0.0
C161 C 0.01574 0.99543 0.434 0.0
C162 C 0.99171 0.99011 0.40928 0.0
C163 C 1.00532 1.00195 0.41874 0.0
C164 C 0.98893 0.97155 0.41535 0.0
C165 C 0.9993 0.96509 0.43061 0.0
U166 U 0.05364 0.97888 0.47647 0.0
O167 O 0.05276 0.97309 0.50692 0.0
O168 O 0.06951 0.95541 0.48767 0.0
C169 C 0.06278 0.95788 0.50492 0.0
C170 C 0.02295 0.96988 0.45648 0.0
C171 C 0.05473 0.94087 0.51385 0.0
C172 C 0.02802 0.91946 0.52056 0.0
C173 C 0.03542 0.93557 0.51185 0.0
C174 C 0.05918 0.91365 0.53326 0.0
C175 C 0.03981 0.90823 0.53136 0.0
C176 C 0.06654 0.9298 0.5246 0.0
C177 C 0.0927 0.01844 0.47482 0.0
C178 C 0.12656 0.019 0.48223 0.0
C179 C 0.10939 0.04791 0.48385 0.0
C180 C 0.09268 0.03795 0.47841 0.0
C181 C 0.12662 0.0386 0.48573 0.0
C182 C 0.1098 1.00903 0.4769 0.0
C183 C 0.07501 1.00851 0.46804 0.0
O184 O 0.03969 0.96295 0.4528 0.0
O185 O 0.02277 0.98047 0.47207 0.0
O186 O 0.06018 1.00938 0.47938 0.0
O187 O 0.07683 0.99181 0.45987 0.0
H188 H 0.0261 1.00479 0.44109 0.0
H189 H 1.00799 0.01623 0.4143 0.0
H190 H 0.97843 0.96212 0.40858 0.0
H191 H 0.99672 0.95081 0.43515 0.0
H192 H 1.013 0.91593 0.51898 0.0
H193 H 0.02605 0.94392 0.5036 0.0
H194 H 0.06877 0.90524 0.54118 0.0
H195 H 0.0815 0.93362 0.52626 0.0
H196 H 0.13955 1.01134 0.48325 0.0
H197 H 0.10876 0.06292 0.4867 0.0
H198 H 0.07969 0.04555 0.47687 0.0
H199 H 0.11033 0.99399 0.47417 0.0
C200 C 0.21995 0.77197 0.84503 0.0
C201 C 0.23864 0.77953 0.84657 0.0
C202 C 0.23173 0.79294 0.87801 0.0
C203 C 0.24443 0.78993 0.86284 0.0
C204 C 0.21309 0.78517 0.87647 0.0
C205 C 0.20728 0.77489 0.86015 0.0
U206 U 0.22284 0.73208 0.80707 0.0
O207 O 0.19965 0.71501 0.79341 0.0
O208 O 0.21868 0.73268 0.77623 0.0
C209 C 0.20318 0.72183 0.7766 0.0
C210 C 0.21315 0.76163 0.82766 0.0
C211 C 0.18663 0.72867 0.76634 0.0
C212 C 0.16107 0.72266 0.74355 0.0
C213 C 0.17634 0.71631 0.75404 0.0
C214 C 0.16602 0.75385 0.7577 0.0
C215 C 0.15581 0.74156 0.7451 0.0
C216 C 0.18125 0.74746 0.76826 0.0
C217 C 0.26308 0.69664 0.81095 0.0
C218 C 0.26714 0.66915 0.79018 0.0
C219 C 0.29049 0.67711 0.81456 0.0
C220 C 0.28004 0.6927 0.8202 0.0
C221 C 0.28418 0.66509 0.79949 0.0
C222 C 0.25667 0.6848 0.79586 0.0
C223 C 0.25243 0.71314 0.81738 0.0
O224 O 0.22409 0.76267 0.81256 0.0
O225 O 0.20572 0.74467 0.83008 0.0
O226 O 0.23507 0.7097 0.82362 0.0
O227 O 0.25373 0.72784 0.80656 0.0
H228 H 0.24877 0.7776 0.83516 0.0
H229 H 0.2588 0.79589 0.86334 0.0
H230 H 0.20299 0.7869 0.88793 0.0
H231 H 0.19279 0.76924 0.85932 0.0
H232 H 0.15369 0.71285 0.73385 0.0
H233 H 0.18028 0.70176 0.75235 0.0
H234 H 0.16221 0.76842 0.75944 0.0
H235 H 0.18894 0.75721 0.77778 0.0
H236 H 0.26175 0.66011 0.77865 0.0
H237 H 0.30368 0.67465 0.82185 0.0
H238 H 0.28526 0.70173 0.83182 0.0
H239 H 0.24358 0.68762 0.78855 0.0
C240 C 0.97745 0.59796 0.51998 0.0
C241 C 0.99214 0.60876 0.51175 0.0
C242 C 0.99307 0.63021 0.53944 0.0
C243 C 0.99986 0.62474 0.52135 0.0
C244 C 0.97824 0.61934 0.54755 0.0
C245 C 0.97052 0.60337 0.5379 0.0
U246 U 0.97765 0.56165 0.47903 0.0
O247 O 0.97211 0.53096 0.47875 0.0
O248 O 0.95398 0.54893 0.46222 0.0
C249 C 0.9571 0.53183 0.46779 0.0
C250 C 0.96929 0.58104 0.51007 0.0
C251 C 0.94024 0.52022 0.47304 0.0
C252 C 0.90948 0.51582 0.48854 0.0
C253 C 0.92588 0.52702 0.48502 0.0
C254 C 0.92192 0.49088 0.4685 0.0
C255 C 0.90718 0.49772 0.48003 0.0
C256 C 0.93822 0.50201 0.46505 0.0
C257 C 0.01596 0.56555 0.44056 0.0
C258 C 1.01415 0.54783 0.41058 0.0
C259 C 0.04235 0.56703 0.41822 0.0
C260 C 0.03422 0.57231 0.43564 0.0
C261 C 0.03229 0.55496 0.40534 0.0
C262 C 1.00608 0.55305 0.42803 0.0
C263 C 1.00716 0.57212 0.45844 0.0
O264 O 0.96155 0.58387 0.49349 0.0
O265 O 0.97992 0.56618 0.50998 0.0
O266 O 1.00837 0.56085 0.47278 0.0
O267 O 0.99021 0.57915 0.45678 0.0
H268 H 0.99765 0.60483 0.49788 0.0
H269 H 1.01105 0.6329 0.51453 0.0
H270 H 0.97281 0.62295 0.56151 0.0
H271 H 0.9592 0.59517 0.5445 0.0
H272 H 0.89837 0.52153 0.49743 0.0
H273 H 0.92719 0.54106 0.49135 0.0
H274 H 0.92083 0.4769 0.46202 0.0
H275 H 0.94918 0.49647 0.45583 0.0
H276 H 1.00613 0.5383 0.40112 0.0
H277 H 0.05625 0.5729 0.41458 0.0
H278 H 0.04206 0.58196 0.44514 0.0
H279 H 0.99201 0.54757 0.43163 0.0
C280 C 0.78778 0.78893 0.85096 0.0
C281 C 0.80392 0.77811 0.85312 0.0
C282 C 0.78753 0.75952 0.87715 0.0
C283 C 0.80382 0.76358 0.86612 0.0
C284 C 0.77136 0.77038 0.87476 0.0
C285 C 0.77151 0.78492 0.86182 0.0
U286 U 0.80812 0.81465 0.8081 0.0
O287 O 0.79319 0.82791 0.78483 0.0
O288 O 0.81222 0.84498 0.8035 0.0
C289 C 0.79952 0.84493 0.78985 0.0
C290 C 0.78762 0.80438 0.83748 0.0
C291 C 0.78493 0.85928 0.79194 0.0
C292 C 0.75767 0.87218 0.80843 0.0
C293 C 0.77108 0.85815 0.80623 0.0
C294 C 0.77165 0.88854 0.78192 0.0
C295 C 0.75785 0.88765 0.7964 0.0
C296 C 0.78506 0.8745 0.77975 0.0
C297 C 0.85242 0.79189 0.78404 0.0
C298 C 0.86654 0.79645 0.75286 0.0
C299 C 0.88112 0.77583 0.77492 0.0
C300 C 0.86712 0.77991 0.78833 0.0
C301 C 0.88079 0.7837 0.75689 0.0
C302 C 0.85235 0.80044 0.76633 0.0
C303 C 0.83689 0.79388 0.79795 0.0
O304 O 0.80203 0.8166 0.83868 0.0
O305 O 0.7832 0.79943 0.81991 0.0
O306 O 0.81945 0.7908 0.79162 0.0
O307 O 0.83844 0.80798 0.81037 0.0
H308 H 0.81663 0.78096 0.84483 0.0
H309 H 0.81661 0.7557 0.8677 0.0
H310 H 0.75846 0.7675 0.88273 0.0
H311 H 0.75887 0.79305 0.86027 0.0
H312 H 0.74711 0.87086 0.81955 0.0
H313 H 0.77072 0.84647 0.81576 0.0
H314 H 0.77239 0.90032 0.77255 0.0
H315 H 0.79568 0.87563 0.76866 0.0
H316 H 0.86592 0.80266 0.73905 0.0
H317 H 0.89204 0.76616 0.77853 0.0
H318 H 0.86746 0.77322 0.80192 0.0
H319 H 0.84109 0.80974 0.76276 0.0
C320 C 0.2877 0.2878 0.358 0.0
C321 C 0.29432 0.26949 0.35519 0.0
C322 C 0.28759 0.26255 0.38828 0.0
C323 C 0.29418 0.25695 0.37019 0.0
C324 C 0.28092 0.28088 0.39092 0.0
C325 C 0.28097 0.29332 0.37595 0.0
U326 U 0.3081 0.31069 0.31294 0.0
O327 O 0.29271 0.32168 0.28858 0.0
O328 O 0.31084 0.34065 0.30637 0.0
C329 C 0.29814 0.33919 0.2927 0.0
C330 C 0.28751 0.30146 0.34263 0.0
C331 C 0.28294 0.35315 0.29328 0.0
C332 C 0.26434 0.37659 0.3102 0.0
C333 C 0.27813 0.36283 0.31018 0.0
C334 C 0.25956 0.37096 0.27653 0.0
C335 C 0.25488 0.38092 0.29336 0.0
C336 C 0.27346 0.3573 0.27651 0.0
C337 C 0.35492 0.29073 0.29146 0.0
C338 C 0.36834 0.28911 0.25956 0.0
C339 C 0.38809 0.2832 0.28667 0.0
C340 C 0.37275 0.28651 0.29877 0.0
C341 C 0.38599 0.28399 0.2669 0.0
C342 C 0.35287 0.29238 0.27175 0.0
C343 C 0.33867 0.29171 0.30478 0.0
O344 O 0.3011 0.31459 0.34323 0.0
O345 O 0.28407 0.29467 0.32539 0.0
O346 O 0.32165 0.28698 0.29813 0.0
O347 O 0.33871 0.30618 0.31679 0.0
H348 H 0.29966 0.26493 0.34145 0.0
H349 H 0.29955 0.24299 0.36772 0.0
H350 H 0.27548 0.28558 0.40456 0.0
H351 H 0.27572 0.30733 0.37842 0.0
H352 H 0.26138 0.38409 0.3234 0.0
H353 H 0.28518 0.35995 0.32337 0.0
H354 H 0.2524 0.3736 0.26335 0.0
H355 H 0.27688 0.35 0.2633 0.0
H356 H 0.36627 0.28979 0.24439 0.0
H357 H 0.40156 0.2796 0.2928 0.0
H358 H 0.37468 0.2852 0.31391 0.0
H359 H 0.33925 0.29564 0.26575 0.0
C360 C 0.47482 0.9456 0.50921 0.0
C361 C 0.47214 0.92706 0.51535 0.0
C362 C 0.48366 0.9146 0.48498 0.0
C363 C 0.47654 0.91173 0.50337 0.0
C364 C 0.48685 0.93319 0.47914 0.0
C365 C 0.4824 0.94846 0.49106 0.0
U366 U 0.47705 0.97964 0.55307 0.0
O367 O 0.47433 1.01041 0.55436 0.0
O368 O 0.45359 0.99233 0.56907 0.0
C369 C 0.45811 1.00943 0.56364 0.0
C370 C 0.46857 0.96205 0.52075 0.0
C371 C 0.44246 0.01984 0.55544 0.0
C372 C 0.41668 0.022 0.53275 0.0
C373 C 0.43138 1.01191 0.54054 0.0
C374 C 0.42398 0.04812 0.55459 0.0
C375 C 0.41282 0.04029 0.5396 0.0
C376 C 0.43865 0.03798 0.56242 0.0
C377 C 0.51418 0.97086 0.59235 0.0
C378 C 0.52746 0.99234 0.61678 0.0
C379 C 0.53137 0.95879 0.619 0.0
C380 C 0.52127 0.95572 0.6021 0.0
C381 C 0.53465 0.97713 0.62657 0.0
C382 C 0.51725 0.98923 0.59983 0.0
C383 C 0.50434 0.96691 0.57413 0.0
O384 O 0.45967 0.95861 0.53676 0.0
O385 O 0.48064 0.97655 0.52211 0.0
O386 O 0.50735 0.97906 0.56067 0.0
O387 O 0.48653 0.96079 0.57516 0.0
H388 H 0.46625 0.92432 0.52923 0.0
H389 H 0.47373 0.89764 0.5083 0.0
H390 H 0.49264 0.93597 0.46523 0.0
H391 H 0.48455 0.96258 0.48592 0.0
H392 H 0.40824 0.01537 0.52144 0.0
H393 H 0.4341 0.99791 0.53494 0.0
H394 H 0.42163 0.06223 0.56007 0.0
H395 H 0.44711 0.04437 0.57386 0.0
H396 H 0.52958 1.00662 0.6223 0.0
H397 H 0.53695 0.94677 0.62594 0.0
H398 H 0.51917 0.94146 0.59651 0.0
H399 H 0.51188 1.00114 0.59254 0.0
C400 C 0.22012 0.27 0.69239 0.0
C401 C 0.23948 0.27084 0.68742 0.0
C402 C 0.23365 0.24745 0.66189 0.0
C403 C 0.24619 0.25962 0.67235 0.0
C404 C 0.2142 0.24704 0.66667 0.0
C405 C 0.20753 0.25818 0.68179 0.0
U406 U 0.22299 0.31156 0.72843 0.0
O407 O 0.20002 0.32826 0.74089 0.0
O408 O 0.21799 0.31193 0.75922 0.0
C409 C 0.20299 0.32238 0.75809 0.0
C410 C 0.2129 0.28081 0.70889 0.0
C411 C 0.18601 0.31561 0.76843 0.0
C412 C 0.1609 0.29203 0.77385 0.0
C413 C 0.17671 0.29843 0.76344 0.0
C414 C 0.16343 0.32003 0.79418 0.0
C415 C 0.1541 0.30273 0.78943 0.0
C416 C 0.17922 0.32638 0.78379 0.0
C417 C 0.26382 0.34859 0.72541 0.0
C418 C 0.27165 0.37187 0.75037 0.0
C419 C 0.28765 0.37341 0.71999 0.0
C420 C 0.27708 0.3575 0.71352 0.0
C421 C 0.2852 0.38072 0.73856 0.0
C422 C 0.26103 0.35597 0.74384 0.0
C423 C 0.2534 0.33144 0.71848 0.0
O424 O 0.22345 0.28085 0.72427 0.0
O425 O 0.20629 0.29741 0.70538 0.0
O426 O 0.2364 0.3339 0.71144 0.0
O427 O 0.25396 0.31689 0.72951 0.0
H428 H 0.24943 0.27998 0.69533 0.0
H429 H 0.2612 0.26047 0.66889 0.0
H430 H 0.2042 0.23772 0.65905 0.0
H431 H 0.19255 0.25732 0.68542 0.0
H432 H 0.15394 0.27876 0.76964 0.0
H433 H 0.18174 0.28994 0.75158 0.0
H434 H 0.1588 0.32851 0.80622 0.0
H435 H 0.18627 0.33966 0.78788 0.0
H436 H 0.26922 0.37726 0.76465 0.0
H437 H 0.29809 0.37971 0.71059 0.0
H438 H 0.27944 0.35199 0.69925 0.0
H439 H 0.25076 0.34934 0.75321 0.0
C440 C 0.78389 0.25745 0.68193 0.0
C441 C 0.79467 0.25708 0.66511 0.0
C442 C 0.78175 0.28683 0.65572 0.0
C443 C 0.79364 0.27159 0.65219 0.0
C444 C 0.77088 0.28713 0.67248 0.0
C445 C 0.77188 0.27261 0.68537 0.0
U446 U 0.80532 0.23301 0.72455 0.0
O447 O 0.79119 0.21898 0.74837 0.0
O448 O 0.8097 0.20296 0.72925 0.0
C449 C 0.79759 0.20238 0.74345 0.0
C450 C 0.78441 0.2418 0.69545 0.0
C451 C 0.78333 0.18667 0.74277 0.0
C452 C 0.7742 0.15468 0.75105 0.0
C453 C 0.78762 0.16965 0.75103 0.0
C454 C 0.75196 0.17352 0.73439 0.0
C455 C 0.75613 0.15642 0.74283 0.0
C456 C 0.76545 0.18849 0.73434 0.0
C457 C 0.84898 0.25849 0.74883 0.0
C458 C 0.86424 0.25031 0.7783 0.0
C459 C 0.87556 0.27762 0.76135 0.0
C460 C 0.86183 0.27383 0.74737 0.0
C461 C 0.87674 0.26613 0.77716 0.0
C462 C 0.85037 0.24656 0.76425 0.0
C463 C 0.83387 0.256 0.73447 0.0
O464 O 0.79889 0.23059 0.694 0.0
O465 O 0.77991 0.24594 0.71315 0.0
O466 O 0.81637 0.25797 0.7406 0.0
O467 O 0.83552 0.24198 0.72209 0.0
H468 H 0.8039 0.24553 0.66184 0.0
H469 H 0.80231 0.27096 0.63949 0.0
H470 H 0.7613 0.29844 0.67552 0.0
H471 H 0.76309 0.27321 0.69798 0.0
H472 H 0.77808 0.14166 0.75737 0.0
H473 H 0.80138 0.16795 0.75754 0.0
H474 H 0.73816 0.17549 0.72811 0.0
H475 H 0.76185 0.20152 0.72786 0.0
H476 H 0.86477 0.24125 0.79034 0.0
H477 H 0.88516 0.28972 0.75988 0.0
H478 H 0.86103 0.28315 0.73554 0.0
H479 H 0.84053 0.23463 0.76559 0.0
C480 C 0.51475 0.56301 0.59518 0.0
C481 C 0.49487 0.56057 0.59502 0.0
C482 C 0.49493 0.5514 0.62807 0.0
C483 C 0.48507 0.55479 0.61123 0.0
C484 C 0.51493 0.55361 0.6281 0.0
C485 C 0.52474 0.55931 0.61183 0.0
U486 U 0.5546 0.56283 0.55735 0.0
O487 O 0.55274 0.56733 0.5267 0.0
O488 O 0.57002 0.58687 0.54471 0.0
C489 C 0.56273 0.58329 0.52779 0.0
C490 C 0.52452 0.57019 0.57812 0.0
C491 C 0.55501 0.59955 0.51799 0.0
C492 C 0.5601 0.63105 0.50589 0.0
C493 C 0.56655 0.61586 0.51597 0.0
C494 C 0.53033 0.61397 0.49963 0.0
C495 C 0.54197 0.63027 0.49742 0.0
C496 C 0.53676 0.5988 0.5098 0.0
C497 C 0.5939 0.52652 0.55859 0.0
C498 C 0.61442 0.51761 0.53224 0.0
C499 C 0.62264 0.50937 0.56417 0.0
C500 C 0.6063 0.51802 0.57103 0.0
C501 C 0.62692 0.50899 0.54466 0.0
C502 C 0.59812 0.52634 0.53913 0.0
C503 C 0.57653 0.53516 0.56616 0.0
O504 O 0.54125 0.5787 0.58073 0.0
O505 O 0.52384 0.55906 0.56292 0.0
O506 O 0.56114 0.53283 0.55567 0.0
O507 O 0.57875 0.55232 0.57341 0.0
H508 H 0.48686 0.56331 0.58234 0.0
H509 H 0.46973 0.55292 0.61052 0.0
H510 H 0.52302 0.55136 0.64083 0.0
H511 H 0.54009 0.56108 0.61238 0.0
H512 H 0.56936 0.64344 0.50479 0.0
H513 H 0.58069 0.6168 0.52207 0.0
H514 H 0.5164 0.61271 0.49312 0.0
H515 H 0.52752 0.58641 0.511 0.0
H516 H 0.61705 0.51741 0.51711 0.0
H517 H 0.63204 0.50318 0.57422 0.0
H518 H 0.60332 0.51805 0.58611 0.0
H519 H 0.58876 0.53283 0.52924 0.0
C520 C 0.51549 0.4816 0.94795 0.0
C521 C 0.51902 0.49984 0.94145 0.0
C522 C 0.49482 0.49464 0.91687 0.0
C523 C 0.50875 0.50632 0.92607 0.0
C524 C 0.49159 0.47628 0.92334 0.0
C525 C 0.50181 0.46986 0.93872 0.0
U526 U 0.55648 0.48306 0.98427 0.0
O527 O 0.55521 0.47881 0.01505 0.0
O528 O 0.57118 0.45953 0.99673 0.0
C529 C 0.56465 0.46319 0.01387 0.0
C530 C 0.52547 0.47463 0.96458 0.0
C531 C 0.55596 0.4471 0.02379 0.0
C532 C 0.5323 0.42151 0.02573 0.0
C533 C 0.5406 0.43651 0.01589 0.0
C534 C 0.55466 0.42748 0.05145 0.0
C535 C 0.53915 0.41685 0.0437 0.0
C536 C 0.56296 0.44244 0.04157 0.0
C537 C 0.597 0.52046 0.98182 0.0
C538 C 0.62646 0.51969 0.99976 0.0
C539 C 0.61837 0.54805 0.98389 0.0
C540 C 0.60153 0.53912 0.97724 0.0
C541 C 0.63107 0.53848 0.99527 0.0
C542 C 0.60957 0.5108 0.99316 0.0
C543 C 0.57911 0.51141 0.97473 0.0
O544 O 0.54186 0.46684 0.96117 0.0
O545 O 0.52576 0.48577 0.97978 0.0
O546 O 0.56419 0.51334 0.98577 0.0
O547 O 0.58041 0.49428 0.96743 0.0
H548 H 0.5296 0.5091 0.94835 0.0
H549 H 0.51177 0.52045 0.92133 0.0
H550 H 0.48083 0.46699 0.91679 0.0
H551 H 0.49884 0.45575 0.94356 0.0
H552 H 0.52057 0.4135 0.01919 0.0
H553 H 0.535 0.4399 1.00214 0.0
H554 H 0.56016 0.4245 0.06533 0.0
H555 H 0.57477 0.45051 0.04793 0.0
H556 H 0.63599 0.51177 1.00826 0.0
H557 H 0.62124 0.56259 0.98038 0.0
H558 H 0.59196 0.54684 0.96857 0.0
H559 H 0.60633 0.49637 0.99688 0.0
C560 C 0.71175 0.26779 0.34547 0.0
C561 C 0.73036 0.27427 0.35001 0.0
C562 C 0.71923 0.28801 0.37997 0.0
C563 C 0.73404 0.28435 0.36706 0.0
C564 C 0.70068 0.28134 0.37542 0.0
C565 C 0.697 0.27141 0.35835 0.0
U566 U 0.72009 0.22954 0.30672 0.0
O567 O 0.69905 0.21156 0.29097 0.0
O568 O 0.71798 0.23106 0.27571 0.0
C569 C 0.70344 0.21897 0.27463 0.0
C570 C 0.70716 0.25775 0.3273 0.0
C571 C 0.6873 0.22438 0.2629 0.0
C572 C 0.66371 0.24668 0.25367 0.0
C573 C 0.67859 0.24173 0.26561 0.0
C574 C 0.66594 0.21684 0.23654 0.0
C575 C 0.65736 0.23436 0.23883 0.0
C576 C 0.68074 0.21194 0.24842 0.0
C577 C 0.76113 0.19564 0.31163 0.0
C578 C 0.7713 0.17399 0.28657 0.0
C579 C 0.78486 0.17255 0.31801 0.0
C580 C 0.77357 0.18737 0.32419 0.0
C581 C 0.78396 0.16573 0.2991 0.0
C582 C 0.75996 0.18879 0.2928 0.0
C583 C 0.74974 0.21151 0.31843 0.0
O584 O 0.71939 0.25991 0.31333 0.0
O585 O 0.70049 0.24035 0.32858 0.0
O586 O 0.73218 0.20721 0.32352 0.0
O587 O 0.75111 0.2268 0.30842 0.0
H588 H 0.74205 0.27163 0.34038 0.0
H589 H 0.7485 0.28912 0.37023 0.0
H590 H 0.68891 0.28411 0.38491 0.0
H591 H 0.68253 0.26665 0.35512 0.0
H592 H 0.65752 0.26031 0.25578 0.0
H593 H 0.68344 0.25152 0.27677 0.0
H594 H 0.66119 0.20684 0.22553 0.0
H595 H 0.6872 0.19843 0.24619 0.0
H596 H 0.77007 0.16894 0.27198 0.0
H597 H 0.79458 0.16671 0.32798 0.0
H598 H 0.77468 0.19249 0.33877 0.0
H599 H 0.75035 0.19494 0.28291 0.0
C600 C 0.4759 0.09756 0.0148 0.0
C601 C 0.47354 0.0991 0.03452 0.0
C602 C 0.48427 0.13204 0.03451 0.0
C603 C 0.47772 0.11614 0.04429 0.0
C604 C 0.4871 0.1303 0.01477 0.0
C605 C 0.48301 0.11321 1.00501 0.0
U606 U 0.47925 0.05975 0.97455 0.0
O607 O 0.47446 0.02906 0.97582 0.0
O608 O 0.456 0.04562 0.95823 0.0
C609 C 0.4591 0.02908 0.96524 0.0
C610 C 0.46977 0.07991 1.00473 0.0
C611 C 0.44223 0.01896 0.97278 0.0
C612 C 0.41483 0.01732 0.99385 0.0
C613 C 0.43094 0.0271 0.98702 0.0
C614 C 0.42121 0.99112 0.97235 0.0
C615 C 0.40973 0.99919 0.98658 0.0
C616 C 0.43728 1.00092 0.96553 0.0
C617 C 0.51766 0.06371 0.93587 0.0
C618 C 0.51617 0.04781 0.90489 0.0
C619 C 0.5453 0.06422 0.91503 0.0
C620 C 0.53665 0.06918 0.93228 0.0
C621 C 0.53505 0.05376 0.90097 0.0
C622 C 0.50758 0.05268 0.92219 0.0
C623 C 0.50839 0.07033 0.95352 0.0
O624 O 0.46206 0.08168 0.98794 0.0
O625 O 0.48146 0.06589 1.00534 0.0
O626 O 0.51001 0.05962 0.96826 0.0
O627 O 0.49119 0.07671 0.95159 0.0
H628 H 0.46802 0.08722 0.04233 0.0
H629 H 0.4752 0.11701 0.05944 0.0
H630 H 0.49237 0.1422 1.00684 0.0
H631 H 0.48506 0.11233 0.98979 0.0
H632 H 0.40623 0.02408 1.00464 0.0
H633 H 0.43454 0.04105 0.99279 0.0
H634 H 0.41794 0.97709 0.96662 0.0
H635 H 0.44587 0.99438 0.95457 0.0
H636 H 0.50797 0.03951 0.89448 0.0
H637 H 0.55978 0.06916 0.91242 0.0
H638 H 0.54467 0.07769 0.94267 0.0
H639 H 0.49294 0.04817 0.92473 0.0
C640 C 0.23556 0.92408 0.01407 0.0
O641 O 0.24731 0.92471 0.99958 0.0
O642 O 0.26254 0.88048 1.00168 0.0
Zn643 Zn 0.26285 0.89751 0.02542 0.0
O644 O 0.2859 0.91567 0.02464 0.0
C645 C 0.28201 0.87444 0.05095 0.0
O646 O 0.29579 0.87905 0.03919 0.0
O647 O 0.23894 0.91296 0.02737 0.0
C648 C 0.29499 0.91937 1.0095 0.0
O649 O 0.28933 0.91131 0.9934 0.0
C650 C 0.24776 0.87551 0.99214 0.0
O651 O 0.23114 0.88172 0.99749 0.0
O652 O 0.26557 0.88086 0.04825 0.0
C653 C 0.16895 0.48476 0.26962 0.0
O654 O 0.17063 0.48945 0.25182 0.0
O655 O 0.12257 0.52193 0.29251 0.0
Zn656 Zn 0.14072 0.51435 0.27095 0.0
O657 O 0.15747 0.53708 0.26361 0.0
C658 C 0.11822 0.51348 0.23518 0.0
O659 O 0.12122 0.53181 0.23554 0.0
O660 O 0.15733 0.49346 0.28031 0.0
C661 C 0.16511 0.5381 0.24728 0.0
O662 O 0.16217 0.52416 0.2349 0.0
C663 C 0.10564 0.52662 0.28899 0.0
O664 O 0.10007 0.52696 0.27126 0.0
O665 O 0.12515 0.50384 0.2483 0.0
C666 C 0.80212 0.61606 0.01703 0.0
O667 O 0.79029 0.60548 1.00663 0.0
O668 O 0.77872 0.6584 0.98774 0.0
Zn669 Zn 0.77382 0.64563 0.01293 0.0
O670 O 0.75159 0.62659 1.01021 0.0
C671 C 0.77062 0.6649 0.05042 0.0
O672 O 0.77915 0.65018 0.05675 0.0
O673 O 0.79793 0.63298 0.02118 0.0
C674 C 0.74711 0.61614 0.02396 0.0
O675 O 0.75729 0.61763 0.03956 0.0
C676 C 0.77182 0.6743 0.98436 0.0
O677 O 0.76103 0.68235 0.99725 0.0
O678 O 0.76709 0.66573 0.03277 0.0
C679 C 0.86394 0.05538 0.28011 0.0
O680 O 0.86156 0.04417 0.29445 0.0
O681 O 0.90373 0.02497 0.29179 0.0
Zn682 Zn 0.88904 0.02597 0.26706 0.0
O683 O 0.86963 1.00407 0.26438 0.0
C684 C 0.91528 0.039 0.23759 0.0
O685 O 0.91157 0.0557 0.24486 0.0
O686 O 0.87518 0.05066 0.26676 0.0
C687 C 0.85463 1.00651 0.25481 0.0
O688 O 0.85231 0.02293 0.24725 0.0
C689 C 0.91385 1.01122 0.29612 0.0
O690 O 0.91476 0.99669 0.28426 0.0
O691 O 0.90743 0.02449 0.2448 0.0
C692 C 0.30476 0.11807 0.50607 0.0
O693 O 0.2951 0.1184 0.49017 0.0
O694 O 0.27772 0.16309 0.49965 0.0
Zn695 Zn 0.27496 0.14272 0.51934 0.0
O696 O 0.25262 0.12415 0.51489 0.0
C697 C 0.25911 0.16779 0.54844 0.0
O698 O 0.24679 0.17115 0.53508 0.0
O699 O 0.29906 0.12764 0.52038 0.0
C700 C 0.23677 0.12664 0.50678 0.0
O701 O 0.23343 0.14308 0.49973 0.0
C702 C 0.27474 0.1623 0.48183 0.0
O703 O 0.26872 0.14636 0.47369 0.0
O704 O 0.27202 0.15603 0.545 0.0
C705 C 0.36698 0.55616 0.78655 0.0
O706 O 0.37096 0.55019 0.80349 0.0
O707 O 0.40654 0.52777 0.7988 0.0
Zn708 Zn 0.3915 0.52572 0.77417 0.0
O709 O 0.37546 0.50144 0.774 0.0
C710 C 0.40884 0.53451 0.73733 0.0
O711 O 0.39409 0.54517 0.7355 0.0
O712 O 0.37417 0.54796 0.77207 0.0
C713 C 0.36519 0.4959 0.75995 0.0
O714 O 0.36489 0.50623 0.74482 0.0
C715 C 0.41652 0.51412 0.80371 0.0
O716 O 0.41678 0.49893 0.79267 0.0
O717 O 0.41041 0.52507 0.75226 0.0
C718 C 0.73663 0.43074 0.51277 0.0
O719 O 0.74855 0.4317 0.49844 0.0
O720 O 0.7497 0.37827 0.50168 0.0
Zn721 Zn 0.75909 0.3986 0.52067 0.0
O722 O 0.7829 0.41181 0.51034 0.0
C723 C 0.76814 0.36908 0.54675 0.0
O724 O 0.76861 0.35879 0.531 0.0
O725 O 0.73829 0.41763 0.52449 0.0
C726 C 0.7933 0.42381 0.51965 0.0
O727 O 0.78901 0.4279 0.53739 0.0
C728 C 0.75426 0.37788 0.4842 0.0
O729 O 0.76546 0.39138 0.47769 0.0
O730 O 0.76466 0.3865 0.54584 0.0
C731 C 0.66747 0.99084 0.79103 0.0
O732 O 0.65994 1.00098 0.80479 0.0
O733 O 0.62774 0.02147 0.78985 0.0
Zn734 Zn 0.64452 0.01437 0.76722 0.0
O735 O 0.65927 0.03751 0.75814 0.0
C736 C 0.62364 1.01186 0.73078 0.0
O737 O 0.63267 0.02784 0.72723 0.0
O738 O 0.66305 0.99407 0.77397 0.0
C739 C 0.67189 0.04622 0.76827 0.0
O740 O 0.67551 0.04015 0.78525 0.0
C741 C 0.61226 0.02945 0.78628 0.0
O742 O 0.60845 0.03325 0.7686 0.0
O743 O 0.62685 1.00384 0.74631 0.0
C744 C 0.02415 0.23549 0.91423 0.0
O745 O 0.04057 0.24148 0.90738 0.0
O746 O 0.98684 0.26645 0.87598 0.0
Zn747 Zn 1.00988 0.26719 0.89359 0.0
O748 O 1.009 0.29069 0.91073 0.0
C749 C 0.04092 0.28234 0.87009 0.0
O750 O 0.03236 0.29832 0.87288 0.0
O751 O 1.00916 0.24409 0.91012 0.0
C752 C 0.02004 0.29332 0.92489 0.0
O753 O 0.03263 0.28064 0.92837 0.0
C754 C 0.98004 0.28198 0.87125 0.0
O755 O 0.98813 0.29774 0.87786 0.0
O756 O 0.03397 0.26756 0.87757 0.0
C757 C 0.52379 0.7357 0.41219 0.0
O758 O 0.54038 0.74092 0.40512 0.0
O759 O 0.48903 0.75988 0.36759 0.0
Zn760 Zn 0.51013 0.76429 0.38713 0.0
O761 O 0.50618 0.79005 0.39944 0.0
C762 C 0.54602 0.77845 0.37028 0.0
O763 O 0.541 0.79472 0.37764 0.0
O764 O 0.50892 0.74375 0.40675 0.0
C765 C 0.5093 0.795 0.41667 0.0
O766 O 0.516 0.78276 0.42831 0.0
C767 C 0.48989 0.77054 0.35342 0.0
O768 O 0.50391 0.78318 0.35261 0.0
O769 O 0.53538 0.76391 0.37284 0.0
C770 C 1.00617 0.79783 0.60786 0.0
O771 O 0.9947 0.78328 0.60393 0.0
O772 O 0.99102 0.77732 0.65802 0.0
Zn773 Zn 1.01416 0.77563 0.64051 0.0
O774 O 1.0121 0.75151 0.62417 0.0
C775 C 0.04273 0.76208 0.66668 0.0
O776 O 0.0312 0.74718 0.6672 0.0
O777 O 0.01584 0.798 0.6231 0.0
C778 C 0.02663 0.74521 0.61565 0.0
O779 O 0.04302 0.75448 0.61761 0.0
C780 C 0.98301 0.76209 0.66345 0.0
O781 O 0.9898 0.74603 0.65735 0.0
O782 O 0.03835 0.77571 0.65642 0.0
C783 C 0.50141 0.30826 0.12101 0.0
O784 O 0.48486 0.29922 0.12216 0.0
O785 O 0.49179 0.27833 0.16305 0.0
Zn786 Zn 0.51245 0.2768 0.14269 0.0
O787 O 0.50471 0.25682 0.12266 0.0
C788 C 0.54312 0.27335 0.1711 0.0
O789 O 0.53178 0.28237 0.18277 0.0
O790 O 0.51569 0.30162 0.12925 0.0
C791 C 0.50976 0.2398 0.123 0.0
O792 O 0.52024 0.23448 0.13715 0.0
C793 C 0.48927 0.26446 0.17386 0.0
O794 O 0.50013 0.2499 0.17152 0.0
O795 O 0.53782 0.26988 0.15407 0.0
H796 H 0.2108 0.81784 0.8996 0.0
H797 H 0.26658 0.7935 0.89579 0.0
H798 H 0.2769 0.81241 0.92401 0.0
H799 H 0.22642 0.86422 0.91512 0.0
H800 H 0.20674 0.86744 0.93117 0.0
H801 H 0.20382 0.8523 0.9104 0.0
H802 H 0.1927 0.82478 0.93145 0.0
H803 H 0.19553 0.83986 0.95228 0.0
H804 H 0.20766 0.81796 0.95063 0.0
H805 H 0.28126 0.83415 0.95269 0.0
H806 H 0.27894 0.85624 0.9802 0.0
H807 H 0.21994 0.86538 0.96607 0.0
C808 C 0.22514 0.81629 0.90476 0.0
C809 C 0.23788 0.80417 0.89529 0.0
C810 C 0.25661 0.80289 0.90249 0.0
C811 C 0.2626 0.8135 0.91861 0.0
C812 C 0.24969 0.8253 0.92752 0.0
C813 C 0.23132 0.82669 0.9209 0.0
C814 C 0.22016 0.84024 0.93322 0.0
C815 C 0.21392 0.85704 0.92179 0.0
C816 C 0.203 0.8301 0.94244 0.0
C817 C 0.23511 0.84623 0.94783 0.0
C818 C 0.25208 0.83753 0.94423 0.0
C819 C 0.26803 0.841 0.95567 0.0
C820 C 0.26657 0.8536 0.97126 0.0
C821 C 0.24925 0.86253 0.97537 0.0
C822 C 0.23336 0.85875 0.96341 0.0
H823 H 0.06919 0.54621 0.39563 0.0
H824 H 1.01333 0.5541 0.37154 0.0
H825 H 0.02611 0.54758 0.33955 0.0
H826 H 0.09622 0.568 0.35828 0.0
H827 H 0.11521 0.55163 0.35883 0.0
H828 H 0.10172 0.55664 0.38001 0.0
H829 H 0.09348 0.52111 0.38314 0.0
H830 H 0.10697 0.51599 0.36199 0.0
H831 H 0.08238 0.50817 0.36354 0.0
H832 H 0.04479 0.54103 0.31023 0.0
H833 H 0.06803 0.5338 0.28519 0.0
H834 H 0.11217 0.52978 0.32775 0.0
C835 C 0.05967 0.54661 0.38361 0.0
C836 C 0.04019 0.55058 0.38615 0.0
C837 C 0.02819 0.55081 0.37004 0.0
C838 C 0.03536 0.54725 0.35178 0.0
C839 C 0.05457 0.54341 0.34978 0.0
C840 C 0.06657 0.54298 0.36522 0.0
C841 C 0.08665 0.53838 0.35903 0.0
C842 C 0.10078 0.55463 0.36436 0.0
C843 C 0.09272 0.51981 0.36743 0.0
C844 C 0.08403 0.53641 0.3377 0.0
C845 C 0.06539 0.53943 0.33273 0.0
C846 C 0.05941 0.53858 0.31393 0.0
C847 C 0.07278 0.53448 0.29979 0.0
C848 C 0.09198 0.53118 0.30443 0.0
C849 C 0.09762 0.53218 0.32371 0.0
H850 H 0.77103 0.75911 0.91263 0.0
H851 H 0.80359 0.72483 0.87326 0.0
H852 H 0.80334 0.69937 0.8963 0.0
H853 H 0.79322 0.74474 0.95522 0.0
H854 H 0.77153 0.74468 0.96888 0.0
H855 H 0.77449 0.76025 0.94935 0.0
H856 H 0.74338 0.74633 0.93415 0.0
H857 H 0.74031 0.73073 0.95365 0.0
H858 H 0.74083 0.72129 0.92967 0.0
H859 H 0.79944 0.67746 0.92393 0.0
H860 H 0.7921 0.66107 0.95365 0.0
H861 H 0.7614 0.70948 0.97436 0.0
C862 C 0.77797 0.7462 0.90872 0.0
C863 C 0.78737 0.74407 0.89106 0.0
C864 C 0.79653 0.72699 0.88676 0.0
C865 C 0.79636 0.71237 0.89973 0.0
C866 C 0.78694 0.71496 0.91696 0.0
C867 C 0.77789 0.73145 0.92145 0.0
C868 C 0.76874 0.73072 0.94089 0.0
C869 C 0.77753 0.746 0.95438 0.0
C870 C 0.74702 0.73236 0.9395 0.0
C871 C 0.77403 0.71123 0.94665 0.0
C872 C 0.78455 0.70235 0.93269 0.0
C873 C 0.79117 0.68428 0.93493 0.0
C874 C 0.78694 0.67508 0.95187 0.0
C875 C 0.77614 0.68393 0.96636 0.0
C876 C 0.76962 0.70225 0.96358 0.0
H877 H 0.98142 0.97154 0.37581 0.0
H878 H 0.97545 0.02451 0.40701 0.0
H879 H 0.95529 0.03583 0.38137 0.0
H880 H 0.98339 0.99091 0.32901 0.0
H881 H 0.96991 0.9715 0.31811 0.0
H882 H 0.98426 0.96779 0.33871 0.0
H883 H 0.9547 0.95394 0.35606 0.0
H884 H 0.94026 0.95764 0.33554 0.0
H885 H 0.93364 0.96761 0.35829 0.0
H886 H 0.93487 0.04101 0.35271 0.0
H887 H 0.91657 0.04 0.32283 0.0
H888 H 0.93578 0.98359 0.31037 0.0
C889 C 0.97584 0.98551 0.3773 0.0
C890 C 0.98008 0.99714 0.39347 0.0
C891 C 0.97265 0.01542 0.39469 0.0
C892 C 0.96107 0.02194 0.38024 0.0
C893 C 0.95707 1.01005 0.36459 0.0
C894 C 0.9643 0.99225 0.363 0.0
C895 C 0.95779 0.98224 0.34476 0.0
C896 C 0.97485 0.97786 0.33189 0.0
C897 C 0.94589 0.9643 0.34892 0.0
C898 C 0.94564 0.99713 0.3364 0.0
C899 C 0.94541 1.01306 0.34807 0.0
C900 C 0.93501 0.02862 0.34344 0.0
C901 C 0.92463 0.0279 0.32643 0.0
C902 C 0.92472 1.01174 0.31418 0.0
C903 C 0.93541 0.99618 0.31935 0.0
H904 H 0.21771 0.23919 0.62682 0.0
H905 H 0.2659 0.22686 0.6622 0.0
H906 H 0.27761 0.20518 0.63715 0.0
H907 H 0.20985 0.19239 0.60723 0.0
H908 H 0.20365 0.20009 0.584 0.0
H909 H 0.19919 0.21486 0.6046 0.0
H910 H 0.2189 0.24215 0.58981 0.0
H911 H 0.22339 0.22748 0.56915 0.0
H912 H 0.24302 0.23832 0.58227 0.0
H913 H 0.28369 0.18421 0.60851 0.0
H914 H 0.28437 0.16647 0.57792 0.0
H915 H 0.23229 0.19255 0.56108 0.0
C916 C 0.23069 0.23188 0.62934 0.0
C917 C 0.2409 0.23478 0.64651 0.0
C918 C 0.25796 0.22508 0.6491 0.0
C919 C 0.26466 0.21264 0.635 0.0
C920 C 0.25421 0.21005 0.61831 0.0
C921 C 0.23764 0.21946 0.61537 0.0
C922 C 0.22917 0.21427 0.59609 0.0
C923 C 0.20929 0.20484 0.59811 0.0
C924 C 0.22859 0.23159 0.58359 0.0
C925 C 0.2435 0.20038 0.58869 0.0
C926 C 0.25781 0.19811 0.60174 0.0
C927 C 0.27259 0.18592 0.59816 0.0
C928 C 0.27282 0.17586 0.58074 0.0
C929 C 0.25841 0.17809 0.56704 0.0
C930 C 0.24356 0.19052 0.5712 0.0
H931 H 0.46062 0.56423 0.64126 0.0
H932 H 0.50528 0.52605 0.65462 0.0
H933 H 0.48813 0.51743 0.68384 0.0
H934 H 0.45142 0.58055 0.68846 0.0
H935 H 0.42604 0.58146 0.68521 0.0
H936 H 0.44179 0.58453 0.6653 0.0
H937 H 0.42401 0.55717 0.64699 0.0
H938 H 0.40818 0.55403 0.66684 0.0
H939 H 0.42142 0.53451 0.65765 0.0
H940 H 0.46611 0.5132 0.71192 0.0
H941 H 0.44104 0.51369 0.7365 0.0
H942 H 0.41045 0.55404 0.70428 0.0
C943 C 0.46673 0.55387 0.65016 0.0
C944 C 0.48439 0.54586 0.64555 0.0
C945 C 0.49195 0.53261 0.65789 0.0
C946 C 0.48223 0.52752 0.67448 0.0
C947 C 0.4649 0.53571 0.67856 0.0
C948 C 0.4572 0.54857 0.66672 0.0
C949 C 0.43841 0.55541 0.67437 0.0
C950 C 0.43949 0.57675 0.67859 0.0
C951 C 0.42204 0.54995 0.66065 0.0
C952 C 0.43681 0.5445 0.69246 0.0
C953 C 0.45221 0.53319 0.69461 0.0
C954 C 0.45396 0.52196 0.71034 0.0
C955 C 0.43963 0.52235 0.72424 0.0
C956 C 0.42372 0.53388 0.72236 0.0
C957 C 0.42237 0.54503 0.70617 0.0
H958 H 0.78066 0.28392 0.61667 0.0
H959 H 0.77996 0.32478 0.66356 0.0
H960 H 0.77695 0.35031 0.64091 0.0
H961 H 0.80837 0.31289 0.58448 0.0
H962 H 0.79525 0.30449 0.56383 0.0
H963 H 0.79767 0.2895 0.58376 0.0
H964 H 0.76098 0.2852 0.58576 0.0
H965 H 0.75844 0.3002 0.56588 0.0
H966 H 0.7466 0.30567 0.58794 0.0
H967 H 0.77335 0.37144 0.613 0.0
H968 H 0.76948 0.38637 0.58211 0.0
H969 H 0.77305 0.33173 0.55351 0.0
C970 C 0.78013 0.29825 0.6222 0.0
C971 C 0.78052 0.30228 0.64196 0.0
C972 C 0.77944 0.32125 0.64853 0.0
C973 C 0.77785 0.33589 0.63576 0.0
C974 C 0.77738 0.33138 0.6164 0.0
C975 C 0.77852 0.31303 0.60965 0.0
C976 C 0.77737 0.31192 0.58819 0.0
C977 C 0.79576 0.30425 0.57956 0.0
C978 C 0.7598 0.30005 0.58156 0.0
C979 C 0.77532 0.33251 0.58393 0.0
C980 C 0.77538 0.34352 0.60038 0.0
C981 C 0.77336 0.36294 0.60002 0.0
C982 C 0.77115 0.37131 0.58239 0.0
C983 C 0.77099 0.36027 0.56533 0.0
C984 C 0.77319 0.34062 0.56623 0.0
H985 H 0.56213 1.0047 0.63515 0.0
H986 H 0.53223 0.95633 0.65863 0.0
H987 H 0.55175 0.9599 0.6876 0.0
H988 H 0.60802 0.99523 0.65316 0.0
H989 H 0.61464 0.01952 0.65837 0.0
H990 H 0.59802 1.01355 0.63958 0.0
H991 H 0.57325 0.03526 0.65526 0.0
H992 H 0.58986 0.04141 0.67403 0.0
H993 H 0.56649 0.03193 0.67962 0.0
H994 H 0.57512 0.96806 0.71367 0.0
H995 H 0.59992 0.98101 0.73555 0.0
H996 H 0.61433 0.0245 0.69555 0.0
C997 C 0.55949 0.99502 0.64649 0.0
C998 C 0.54568 0.98016 0.64451 0.0
C999 C 0.5429 0.96765 0.65963 0.0
C1000 C 0.55386 0.96961 0.67621 0.0
C1001 C 0.56753 0.98421 0.67756 0.0
C1002 C 0.57032 0.99678 0.66317 0.0
C1003 C 0.58611 1.01111 0.66817 0.0
C1004 C 0.60268 1.00976 0.65398 0.0
C1005 C 0.57847 0.03111 0.66934 0.0
C1006 C 0.59181 1.00457 0.68757 0.0
C1007 C 0.58092 0.98901 0.69269 0.0
C1008 C 0.58369 0.98029 0.70985 0.0
C1009 C 0.59786 0.98773 0.72217 0.0
C1010 C 0.60911 1.00379 0.71733 0.0
C1011 C 0.60599 1.01224 0.69973 0.0
H1012 H 0.90109 0.24332 0.79612 0.0
H1013 H 0.88327 0.30099 0.79324 0.0
H1014 H 0.90696 0.31078 0.81755 0.0
H1015 H 0.91022 0.24436 0.84741 0.0
H1016 H 0.93082 0.23002 0.84527 0.0
H1017 H 0.91182 0.22718 0.82822 0.0
H1018 H 0.93587 0.23298 0.80099 0.0
H1019 H 0.95493 0.23591 0.81796 0.0
H1020 H 0.95065 0.2542 0.8015 0.0
H1021 H 0.93319 0.31484 0.84084 0.0
H1022 H 0.96045 0.31292 0.86242 0.0
H1023 H 0.96179 0.25263 0.85105 0.0
C1024 C 0.90203 0.25795 0.80082 0.0
C1025 C 0.89039 0.27142 0.79267 0.0
C1026 C 0.8922 0.29047 0.79906 0.0
C1027 C 0.90554 0.29616 0.81294 0.0
C1028 C 0.917 0.28265 0.82044 0.0
C1029 C 0.9154 0.26393 0.81471 0.0
C1030 C 0.92998 0.25247 0.82476 0.0
C1031 C 0.92012 0.23763 0.83715 0.0
C1032 C 0.94367 0.24335 0.81045 0.0
C1033 C 0.9401 0.26774 0.83683 0.0
C1034 C 0.93228 0.28501 0.8341 0.0
C1035 C 0.93938 0.30138 0.8432 0.0
C1036 C 0.95493 0.30013 0.85542 0.0
C1037 C 0.9633 0.28263 0.8585 0.0
C1038 C 0.95566 0.2662 0.8491 0.0
H1039 H 0.49857 0.8801 0.49263 0.0
H1040 H 0.47572 0.91217 0.44697 0.0
H1041 H 0.48066 0.88553 0.42463 0.0
H1042 H 0.53445 0.85654 0.46489 0.0
H1043 H 0.53125 0.83456 0.47674 0.0
H1044 H 0.52649 0.85637 0.48919 0.0
H1045 H 0.49235 0.84394 0.49682 0.0
H1046 H 0.49702 0.82209 0.48442 0.0
H1047 H 0.47698 0.83558 0.47773 0.0
H1048 H 0.48742 0.85534 0.40724 0.0
H1049 H 0.49537 0.82342 0.396 0.0
H1050 H 0.5133 0.81039 0.45288 0.0
C1051 C 0.49453 0.88151 0.47795 0.0
C1052 C 0.4869 0.89839 0.47159 0.0
C1053 C 0.48196 0.89961 0.45219 0.0
C1054 C 0.48459 0.88448 0.43937 0.0
C1055 C 0.49214 0.86813 0.44611 0.0
C1056 C 0.49704 0.8665 0.46493 0.0
C1057 C 0.50464 0.84721 0.46849 0.0
C1058 C 0.52544 0.84877 0.47523 0.0
C1059 C 0.49199 0.83658 0.48271 0.0
C1060 C 0.50312 0.83823 0.44875 0.0
C1061 C 0.49593 0.85059 0.43607 0.0
C1062 C 0.49309 0.84553 0.41704 0.0
C1063 C 0.49766 0.82734 0.41079 0.0
C1064 C 0.50497 0.81433 0.42352 0.0
C1065 C 0.50777 0.81997 0.44276 0.0
H1066 H 0.12471 0.32306 0.80456 0.0
H1067 H 0.14628 0.26662 0.80058 0.0
H1068 H 0.11954 0.25517 0.82034 0.0
H1069 H 0.10991 0.32134 0.85315 0.0
H1070 H 0.08894 0.33474 0.84969 0.0
H1071 H 0.10945 0.33836 0.83473 0.0
H1072 H 0.0886 0.33136 0.80494 0.0
H1073 H 0.06803 0.32774 0.8198 0.0
H1074 H 0.07479 0.30959 0.803 0.0
H1075 H 0.09078 0.25001 0.84132 0.0
H1076 H 0.06194 0.25145 0.86129 0.0
H1077 H 0.05939 0.31134 0.85188 0.0
C1078 C 0.12389 0.3083 0.8079 0.0
C1079 C 0.13764 0.29574 0.80093 0.0
C1080 C 0.13582 0.27648 0.80547 0.0
C1081 C 0.12073 0.26986 0.81681 0.0
C1082 C 0.10752 0.28264 0.82351 0.0
C1083 C 0.10892 0.30145 0.81918 0.0
C1084 C 0.09292 0.3123 0.82826 0.0
C1085 C 0.10078 0.32758 0.84229 0.0
C1086 C 0.08034 0.32074 0.81309 0.0
C1087 C 0.08235 0.29668 0.83849 0.0
C1088 C 0.09099 0.27968 0.83556 0.0
C1089 C 0.08387 0.26325 0.84366 0.0
C1090 C 0.06748 0.26421 0.85501 0.0
C1091 C 0.05834 0.2815 0.85818 0.0
C1092 C 0.06598 0.2979 0.84976 0.0
H1093 H 0.56304 0.65255 0.47328 0.0
H1094 H 0.50593 0.64424 0.49576 0.0
H1095 H 0.49498 0.67019 0.47649 0.0
H1096 H 0.56251 0.70339 0.47307 0.0
H1097 H 0.57609 0.70492 0.45145 0.0
H1098 H 0.57932 0.68562 0.46695 0.0
H1099 H 0.57179 0.66197 0.43911 0.0
H1100 H 0.56849 0.6812 0.42355 0.0
H1101 H 0.54978 0.66353 0.42626 0.0
H1102 H 0.49021 0.69709 0.45432 0.0
H1103 H 0.49216 0.72276 0.43144 0.0
H1104 H 0.5526 0.71392 0.42437 0.0
C1105 C 0.54827 0.65629 0.47439 0.0
C1106 C 0.53537 0.64623 0.48609 0.0
C1107 C 0.51608 0.65147 0.48674 0.0
C1108 C 0.50973 0.66631 0.47593 0.0
C1109 C 0.52284 0.67587 0.46455 0.0
C1110 C 0.54172 0.67109 0.46377 0.0
C1111 C 0.55294 0.68354 0.4504 0.0
C1112 C 0.56864 0.69505 0.46111 0.0
C1113 C 0.56123 0.67186 0.43385 0.0
C1114 C 0.53742 0.69602 0.4437 0.0
C1115 C 0.52014 0.69139 0.452 0.0
C1116 C 0.50369 0.70086 0.44779 0.0
C1117 C 0.50494 0.71542 0.43475 0.0
C1118 C 0.52253 0.72043 0.4261 0.0
C1119 C 0.53894 0.71054 0.43075 0.0
H1120 H 0.90376 0.80526 0.73335 0.0
H1121 H 0.88881 0.74763 0.74728 0.0
H1122 H 0.91248 0.73619 0.72426 0.0
H1123 H 0.91245 0.79611 0.68261 0.0
H1124 H 0.93244 0.81259 0.68161 0.0
H1125 H 0.91358 0.81645 0.69847 0.0
H1126 H 0.93815 0.81806 0.72582 0.0
H1127 H 0.95707 0.81415 0.70906 0.0
H1128 H 0.95377 0.79876 0.72873 0.0
H1129 H 0.93805 0.73077 0.7008 0.0
H1130 H 0.96466 0.73153 0.67817 0.0
H1131 H 0.96422 0.7926 0.67909 0.0
C1132 C 0.90535 0.79025 0.73133 0.0
C1133 C 0.89448 0.77731 0.74214 0.0
C1134 C 0.89711 0.75778 0.73929 0.0
C1135 C 0.91045 0.75114 0.72618 0.0
C1136 C 0.92115 0.76419 0.71598 0.0
C1137 C 0.91882 0.78333 0.71833 0.0
C1138 C 0.93278 0.79422 0.70595 0.0
C1139 C 0.92218 0.80551 0.69129 0.0
C1140 C 0.94624 0.80705 0.71812 0.0
C1141 C 0.94337 0.77819 0.69648 0.0
C1142 C 0.93627 0.76102 0.70243 0.0
C1143 C 0.94371 0.74413 0.69597 0.0
C1144 C 0.95888 0.74473 0.68308 0.0
C1145 C 0.9666 0.76211 0.67678 0.0
C1146 C 0.95864 0.77908 0.68358 0.0
H1147 H 0.04875 0.89418 0.5663 0.0
H1148 H 1.01331 0.88256 0.51668 0.0
H1149 H 1.00033 0.85381 0.53127 0.0
H1150 H 0.06045 0.84607 0.57371 0.0
H1151 H 0.05998 0.8485 0.59921 0.0
H1152 H 0.06606 0.86856 0.58516 0.0
H1153 H 0.03917 0.88714 0.60146 0.0
H1154 H 0.03297 0.86711 0.61552 0.0
H1155 H 0.01516 0.8774 0.60109 0.0
H1156 H 0.99148 0.82603 0.55094 0.0
H1157 H 0.98769 0.80092 0.5741 0.0
H1158 H 0.02938 0.82993 0.61078 0.0
C1159 C 0.03835 0.88556 0.55841 0.0
C1160 C 0.032 0.89082 0.54032 0.0
C1161 C 0.01818 0.87914 0.53067 0.0
C1162 C 1.0108 0.86267 0.5388 0.0
C1163 C 0.01736 0.85796 0.5566 0.0
C1164 C 0.03085 0.86902 0.56629 0.0
C1165 C 0.03568 0.86057 0.58513 0.0
C1166 C 0.05679 0.85563 0.58584 0.0
C1167 C 0.03043 0.87385 0.60178 0.0
C1168 C 0.02284 0.843 0.58447 0.0
C1169 C 1.01236 0.84181 0.5679 0.0
C1170 C 0.9996 0.82682 0.56397 0.0
C1171 C 0.99754 0.8126 0.57725 0.0
C1172 C 1.00821 0.81339 0.59431 0.0
C1173 C 0.02098 0.82889 0.59792 0.0
H1174 H 0.12124 0.72389 0.73658 0.0
H1175 H 0.15494 0.77484 0.72647 0.0
H1176 H 0.12947 0.78599 0.70598 0.0
H1177 H 0.1027 0.71756 0.68965 0.0
H1178 H 0.07952 0.70916 0.69724 0.0
H1179 H 0.10009 0.70553 0.71169 0.0
H1180 H 0.08383 0.72221 0.74025 0.0
H1181 H 0.0632 0.72587 0.72588 0.0
H1182 H 0.0753 0.74561 0.73773 0.0
H1183 H 0.10061 0.79118 0.68572 0.0
H1184 H 0.07051 0.79014 0.66764 0.0
H1185 H 0.05578 0.73567 0.69075 0.0
C1186 C 0.1233 0.73738 0.73003 0.0
C1187 C 0.14013 0.7485 0.73321 0.0
C1188 C 0.1421 0.76617 0.72451 0.0
C1189 C 0.12775 0.77259 0.71275 0.0
C1190 C 0.11142 0.76122 0.70984 0.0
C1191 C 0.10909 0.74402 0.71829 0.0
C1192 C 0.09024 0.73445 0.71273 0.0
C1193 C 0.09333 0.71556 0.7022 0.0
C1194 C 0.07739 0.73189 0.73019 0.0
C1195 C 0.08245 0.74882 0.69961 0.0
C1196 C 0.09484 0.7642 0.69819 0.0
C1197 C 0.09078 0.77923 0.68678 0.0
C1198 C 0.07363 0.7785 0.67655 0.0
C1199 C 0.06073 0.76284 0.67774 0.0
C1200 C 0.06529 0.74786 0.68949 0.0
H1201 H 0.97494 0.65696 0.56152 0.0
H1202 H 0.03078 0.64137 0.54126 0.0
H1203 H 0.0452 0.66901 0.55832 0.0
H1204 H 0.9825 0.70699 0.55873 0.0
H1205 H 0.96942 0.71234 0.58011 0.0
H1206 H 0.96336 0.69138 0.56617 0.0
H1207 H 0.9679 0.67112 0.59564 0.0
H1208 H 0.97396 0.69202 0.60967 0.0
H1209 H 0.99013 0.6729 0.60837 0.0
H1210 H 0.05367 0.69831 0.57754 0.0
H1211 H 0.05565 0.7272 0.59771 0.0
H1212 H 0.99445 0.7236 0.60625 0.0
C1213 C 0.99022 0.65924 0.56077 0.0
C1214 C 1.00169 0.64695 0.5499 0.0
C1215 C 0.02161 0.65069 0.54917 0.0
C1216 C 0.02998 0.66631 0.55894 0.0
C1217 C 0.01827 0.67812 0.56946 0.0
C1218 C 0.99883 0.67478 0.57047 0.0
C1219 C 0.9895 0.6897 0.58282 0.0
C1220 C 0.97536 0.70075 0.57126 0.0
C1221 C 0.9798 0.68091 0.60015 0.0
C1222 C 1.00675 0.70191 0.58859 0.0
C1223 C 0.02319 0.69497 0.58069 0.0
C1224 C 0.0409 0.70387 0.58382 0.0
C1225 C 0.04186 0.7203 0.59531 0.0
C1226 C 0.02523 0.72772 0.60362 0.0
C1227 C 1.00745 0.7183 0.60018 0.0
H1228 H 0.81275 0.90033 0.24577 0.0
H1229 H 0.76129 0.9234 0.22343 0.0
H1230 H 0.77485 0.9555 0.22886 0.0
H1231 H 0.82168 0.9372 0.28261 0.0
H1232 H 0.84713 0.93723 0.27945 0.0
H1233 H 0.83303 0.91599 0.27478 0.0
H1234 H 0.84702 0.91365 0.24084 0.0
H1235 H 0.86111 0.9349 0.24537 0.0
H1236 H 0.84512 0.93324 0.2254 0.0
H1237 H 0.79437 0.98486 0.23491 0.0
H1238 H 0.81858 1.00996 0.24163 0.0
H1239 H 0.85758 0.96843 0.26075 0.0
C1240 C 0.80423 0.91215 0.24233 0.0
C1241 C 0.78595 0.90933 0.2341 0.0
C1242 C 0.77539 0.92519 0.22951 0.0
C1243 C 0.78293 0.94349 0.23265 0.0
C1244 C 0.80105 0.94578 0.24049 0.0
C1245 C 0.81157 0.93059 0.24535 0.0
C1246 C 0.831 0.93705 0.25293 0.0
C1247 C 0.83334 0.93154 0.27368 0.0
C1248 C 0.847 0.92925 0.24038 0.0
C1249 C 0.82981 0.95821 0.25131 0.0
C1250 C 0.81236 0.96288 0.24415 0.0
C1251 C 0.80804 0.98141 0.24067 0.0
C1252 C 0.82193 0.99558 0.24449 0.0
C1253 C 0.83998 0.99122 0.25178 0.0
C1254 C 0.84386 0.97225 0.25538 0.0
H1255 H 0.79289 0.1337 0.31775 0.0
H1256 H 0.80348 0.1629 0.26543 0.0
H1257 H 0.82484 0.13783 0.25472 0.0
H1258 H 0.84042 0.11819 0.32402 0.0
H1259 H 0.83295 0.09577 0.33326 0.0
H1260 H 0.81815 0.11578 0.33658 0.0
H1261 H 0.7899 0.09705 0.32072 0.0
H1262 H 0.80461 0.07697 0.31739 0.0
H1263 H 0.79287 0.08661 0.29735 0.0
H1264 H 0.8458 0.10982 0.25007 0.0
H1265 H 0.86393 0.08073 0.2515 0.0
H1266 H 0.83969 0.06997 0.30693 0.0
C1267 C 0.79975 0.13489 0.30407 0.0
C1268 C 0.79645 0.15032 0.29243 0.0
C1269 C 0.80555 0.15114 0.27451 0.0
C1270 C 0.81782 0.13701 0.26834 0.0
C1271 C 0.82083 0.12209 0.28022 0.0
C1272 C 0.812 0.1209 0.29768 0.0
C1273 C 0.81763 0.10341 0.30775 0.0
C1274 C 0.8279 0.10861 0.32651 0.0
C1275 C 0.80021 0.09023 0.31099 0.0
C1276 C 0.83112 0.09499 0.2933 0.0
C1277 C 0.83279 0.10597 0.27752 0.0
C1278 C 0.84456 0.1011 0.26234 0.0
C1279 C 0.85483 0.08455 0.2633 0.0
C1280 C 0.85326 0.07301 0.27931 0.0
C1281 C 0.84122 0.07842 0.29447 0.0
H1282 H 0.38376 0.97684 0.96624 0.0
H1283 H 0.39691 0.99758 0.02337 0.0
H1284 H 0.36874 0.97999 0.03539 0.0
H1285 H 0.3328 0.97814 0.97019 0.0
H1286 H 0.32863 0.95678 0.95624 0.0
H1287 H 0.34958 0.97135 0.9521 0.0
H1288 H 0.37083 0.94289 0.95738 0.0
H1289 H 0.34994 0.92824 0.96151 0.0
H1290 H 0.36855 0.93022 0.97906 0.0
H1291 H 0.33927 0.95957 0.04128 0.0
H1292 H 0.31093 0.93807 0.0405 0.0
H1293 H 0.31746 0.9303 0.97959 0.0
C1294 C 0.38083 0.97761 0.98131 0.0
C1295 C 0.39261 0.98868 0.99383 0.0
C1296 C 0.388 0.98946 0.01342 0.0
C1297 C 0.37208 0.97942 0.02041 0.0
C1298 C 0.36085 0.96862 1.00767 0.0
C1299 C 0.36502 0.96766 0.98853 0.0
C1300 C 0.35077 0.95492 0.97784 0.0
C1301 C 0.3398 0.96596 0.96323 0.0
C1302 C 0.36061 0.93807 0.9684 0.0
C1303 C 0.33795 0.94878 0.99396 0.0
C1304 C 0.34398 0.95685 1.01106 0.0
C1305 C 0.33442 0.95319 0.02796 0.0
C1306 C 0.31832 0.94095 0.02737 0.0
C1307 C 0.31191 0.93247 1.00999 0.0
C1308 C 0.32193 0.93653 0.99311 0.0
H1309 H 0.24804 0.40645 0.26558 0.0
H1310 H 0.22853 0.38924 0.32108 0.0
H1311 H 0.20505 0.41423 0.32141 0.0
H1312 H 0.24308 0.456 0.27313 0.0
H1313 H 0.23468 0.45979 0.24947 0.0
H1314 H 0.25024 0.44076 0.25372 0.0
H1315 H 0.22557 0.41704 0.23849 0.0
H1316 H 0.20998 0.43601 0.23411 0.0
H1317 H 0.20151 0.41616 0.2474 0.0
H1318 H 0.18366 0.44148 0.31577 0.0
H1319 H 0.16542 0.46788 0.30405 0.0
H1320 H 0.198 0.46634 0.25173 0.0
C1321 C 0.23872 0.40774 0.27775 0.0
C1322 C 0.24033 0.39581 0.29336 0.0
C1323 C 0.22794 0.39833 0.30908 0.0
C1324 C 0.21443 0.41244 0.30936 0.0
C1325 C 0.21332 0.42395 0.29378 0.0
C1326 C 0.22507 0.42167 0.27822 0.0
C1327 C 0.22084 0.43573 0.26318 0.0
C1328 C 0.23825 0.44885 0.25968 0.0
C1329 C 0.21407 0.42563 0.2447 0.0
C1330 C 0.20486 0.44627 0.27269 0.0
C1331 C 0.20079 0.43933 0.29038 0.0
C1332 C 0.1867 0.44697 0.30191 0.0
C1333 C 0.17643 0.462 0.29514 0.0
C1334 C 0.1802 0.46919 0.27694 0.0
C1335 C 0.19467 0.46116 0.26567 0.0
H1336 H 0.13876 0.07415 0.4751 0.0
H1337 H 0.15524 0.02734 0.50893 0.0
H1338 H 0.18516 0.04453 0.51749 0.0
H1339 H 0.18516 0.0866 0.45753 0.0
H1340 H 0.18171 0.11159 0.45903 0.0
H1341 H 0.1616 0.09555 0.45531 0.0
H1342 H 0.14499 0.10986 0.48493 0.0
H1343 H 0.16501 0.12598 0.4887 0.0
H1344 H 0.15723 0.11078 0.50739 0.0
H1345 H 0.2135 0.06664 0.52222 0.0
H1346 H 0.2378 0.09245 0.52351 0.0
H1347 H 0.20252 0.12551 0.48763 0.0
C1348 C 0.14853 0.06755 0.48448 0.0
C1349 C 0.14456 0.04926 0.49122 0.0
C1350 C 0.15799 0.04114 0.50325 0.0
C1351 C 0.17502 0.05085 0.50831 0.0
C1352 C 0.17846 0.06877 0.50135 0.0
C1353 C 0.16556 0.0771 0.48978 0.0
C1354 C 0.17268 0.09659 0.48435 0.0
C1355 C 0.17545 0.09763 0.46277 0.0
C1356 C 0.15917 0.11169 0.49179 0.0
C1357 C 0.1916 0.09791 0.49468 0.0
C1358 C 0.19467 0.08167 0.50434 0.0
C1359 C 0.21122 0.07944 0.51475 0.0
C1360 C 0.22497 0.09421 0.51537 0.0
C1361 C 0.22211 0.11108 0.50571 0.0
C1362 C 0.20515 0.11286 0.49523 0.0
H1363 H 0.74862 0.13182 0.77161 0.0
H1364 H 0.73105 0.14475 0.71462 0.0
H1365 H 0.70732 0.11839 0.71506 0.0
H1366 H 0.74492 0.08143 0.76519 0.0
H1367 H 0.7363 0.07764 0.78889 0.0
H1368 H 0.75158 0.0978 0.78421 0.0
H1369 H 0.72633 0.1198 0.79858 0.0
H1370 H 0.71095 0.09971 0.80328 0.0
H1371 H 0.70241 0.11851 0.78935 0.0
H1372 H 0.68563 0.0902 0.72162 0.0
H1373 H 0.66781 0.06256 0.73379 0.0
H1374 H 0.70006 0.06774 0.78622 0.0
C1375 C 0.73992 0.12906 0.75913 0.0
C1376 C 0.74175 0.14048 0.74308 0.0
C1377 C 0.72979 0.13645 0.7272 0.0
C1378 C 0.71633 0.12141 0.72726 0.0
C1379 C 0.71496 0.11045 0.7433 0.0
C1380 C 0.72645 0.11408 0.75893 0.0
C1381 C 0.72224 0.10012 0.77433 0.0
C1382 C 0.73981 0.08856 0.77839 0.0
C1383 C 0.71505 0.11014 0.79245 0.0
C1384 C 0.70658 0.08805 0.76493 0.0
C1385 C 0.70257 0.09423 0.74703 0.0
C1386 C 0.68866 0.08525 0.73562 0.0
C1387 C 0.67861 0.06954 0.74266 0.0
C1388 C 0.6825 0.06293 0.76097 0.0
C1389 C 0.6967 0.0724 0.77218 0.0
H1390 H 0.38759 0.064 0.55752 0.0
H1391 H 0.40321 0.04151 0.50195 0.0
H1392 H 0.3776 0.05908 0.48751 0.0
H1393 H 0.33724 0.06299 0.55009 0.0
H1394 H 0.33353 0.0848 0.563 0.0
H1395 H 0.35315 0.07048 0.56907 0.0
H1396 H 0.37665 0.09877 0.56429 0.0
H1397 H 0.3571 0.11318 0.55822 0.0
H1398 H 0.3768 0.11064 0.54206 0.0
H1399 H 0.35001 0.0787 0.47903 0.0
H1400 H 0.32251 0.0992 0.47711 0.0
H1401 H 0.32525 0.10985 0.53798 0.0
C1402 C 0.38578 0.06289 0.54228 0.0
C1403 C 0.39744 0.05121 0.53093 0.0
C1404 C 0.39432 0.05004 0.51106 0.0
C1405 C 0.37988 0.0601 0.50268 0.0
C1406 C 0.36865 0.07139 0.51429 0.0
C1407 C 0.37145 0.0729 0.53365 0.0
C1408 C 0.3573 0.08597 0.5429 0.0
C1409 C 0.34455 0.07543 0.5571 0.0
C1410 C 0.36758 0.10316 0.55243 0.0
C1411 C 0.34607 0.09151 0.52571 0.0
C1412 C 0.35287 0.08292 0.50936 0.0
C1413 C 0.34461 0.08557 0.49174 0.0
C1414 C 0.32896 0.09724 0.4908 0.0
C1415 C 0.3217 0.10621 0.50736 0.0
C1416 C 0.3305 0.10332 0.52503 0.0
H1417 H 0.64289 0.47637 0.55663 0.0
H1418 H 0.65072 0.52078 0.51611 0.0
H1419 H 0.67928 0.5055 0.50361 0.0
H1420 H 0.69293 0.47168 0.56685 0.0
H1421 H 0.69094 0.44651 0.56903 0.0
H1422 H 0.67088 0.46077 0.57466 0.0
H1423 H 0.65016 0.44097 0.55063 0.0
H1424 H 0.67016 0.42668 0.54491 0.0
H1425 H 0.65801 0.43839 0.52638 0.0
H1426 H 0.7069 0.48538 0.49529 0.0
H1427 H 0.73194 0.46207 0.49202 0.0
H1428 H 0.70701 0.43114 0.5386 0.0
C1429 C 0.65069 0.48302 0.54525 0.0
C1430 C 0.64438 0.49979 0.53732 0.0
C1431 C 0.65495 0.50779 0.52224 0.0
C1432 C 0.67132 0.49928 0.51512 0.0
C1433 C 0.67707 0.48279 0.52324 0.0
C1434 C 0.66713 0.47476 0.53801 0.0
C1435 C 0.67642 0.45701 0.54423 0.0
C1436 C 0.6832 0.45912 0.56492 0.0
C1437 C 0.66288 0.43974 0.54136 0.0
C1438 C 0.69312 0.4563 0.53061 0.0
C1439 C 0.69318 0.4713 0.5186 0.0
C1440 C 0.70703 0.47361 0.50465 0.0
C1441 C 0.7212 0.46025 0.50289 0.0
C1442 C 0.72152 0.44475 0.51506 0.0
C1443 C 0.70725 0.44284 0.52912 0.0
H1444 H 0.74165 0.32017 0.38561 0.0
H1445 H 0.70515 0.28036 0.41527 0.0
H1446 H 0.71032 0.2988 0.44513 0.0
H1447 H 0.77581 0.32893 0.42367 0.0
H1448 H 0.77902 0.35357 0.41884 0.0
H1449 H 0.77277 0.33699 0.39991 0.0
H1450 H 0.74339 0.35636 0.39203 0.0
H1451 H 0.7495 0.37296 0.41098 0.0
H1452 H 0.72627 0.36145 0.41038 0.0
H1453 H 0.71912 0.32184 0.47174 0.0
H1454 H 0.73088 0.34777 0.49311 0.0
H1455 H 0.76164 0.37263 0.44612 0.0
C1456 C 0.73493 0.3152 0.39843 0.0
C1457 C 0.72297 0.2988 0.39807 0.0
C1458 C 0.7142 0.29297 0.41513 0.0
C1459 C 0.71713 0.30331 0.43219 0.0
C1460 C 0.72885 0.31948 0.432 0.0
C1461 C 0.73763 0.3254 0.41558 0.0
C1462 C 0.74925 0.3435 0.41917 0.0
C1463 C 0.77047 0.34056 0.41516 0.0
C1464 C 0.74164 0.35951 0.40745 0.0
C1465 C 0.7456 0.34684 0.44017 0.0
C1466 C 0.73383 0.3328 0.44731 0.0
C1467 C 0.72837 0.33289 0.46631 0.0
C1468 C 0.73512 0.34771 0.47834 0.0
C1469 C 0.74718 0.36229 0.47134 0.0
C1470 C 0.75245 0.36174 0.45196 0.0
H1471 H 0.57141 0.04245 0.89223 0.0
H1472 H 0.51805 0.05712 0.86653 0.0
H1473 H 0.53203 0.05223 0.83477 0.0
H1474 H 0.60222 0.06497 0.85844 0.0
H1475 H 0.61965 0.04696 0.8583 0.0
H1476 H 0.60544 0.05121 0.87917 0.0
H1477 H 0.59406 0.0162 0.87859 0.0
H1478 H 0.60827 1.01183 0.85774 0.0
H1479 H 0.58312 1.00599 0.85743 0.0
H1480 H 0.55184 0.04703 0.80593 0.0
H1481 H 0.57584 0.04028 0.78147 0.0
H1482 H 0.61664 0.02825 0.82528 0.0
C1483 C 0.56268 0.04464 0.87991 0.0
C1484 C 0.54356 0.05009 0.88191 0.0
C1485 C 0.5326 0.05267 0.86541 0.0
C1486 C 0.54046 0.05005 0.84729 0.0
C1487 C 0.55931 0.04475 0.84582 0.0
C1488 C 0.57028 0.04194 0.86164 0.0
C1489 C 0.59017 0.03617 0.85598 0.0
C1490 C 0.60526 0.0507 0.86342 0.0
C1491 C 0.59413 0.01637 0.86284 0.0
C1492 C 0.58867 0.03634 0.83451 0.0
C1493 C 0.57074 0.04141 0.82903 0.0
C1494 C 0.5659 0.04295 0.81004 0.0
C1495 C 0.5797 0.03913 0.79623 0.0
C1496 C 0.59816 0.03369 0.80139 0.0
C1497 C 0.60265 0.03228 0.82085 0.0
H1498 H 0.27714 0.22473 0.38873 0.0
H1499 H 0.29872 0.27116 0.42471 0.0
H1500 H 0.298 0.25053 0.45219 0.0
H1501 H 0.2452 0.20487 0.4228 0.0
H1502 H 0.24946 0.18077 0.41593 0.0
H1503 H 0.25216 0.19896 0.39881 0.0
H1504 H 0.2867 0.18908 0.392 0.0
H1505 H 0.28408 0.1708 0.40904 0.0
H1506 H 0.30332 0.1881 0.41135 0.0
H1507 H 0.2943 0.22531 0.47595 0.0
H1508 H 0.28826 0.19692 0.49448 0.0
H1509 H 0.26924 0.16638 0.44338 0.0
C1510 C 0.28193 0.23048 0.40234 0.0
C1511 C 0.28791 0.24964 0.40455 0.0
C1512 C 0.29383 0.25665 0.42268 0.0
C1513 C 0.29357 0.24501 0.43838 0.0
C1514 C 0.28737 0.22632 0.43579 0.0
C1515 C 0.28171 0.21904 0.41824 0.0
C1516 C 0.27536 0.1985 0.41949 0.0
C1517 C 0.25429 0.19561 0.41393 0.0
C1518 C 0.28813 0.18588 0.40724 0.0
C1519 C 0.27829 0.19542 0.44048 0.0
C1520 C 0.28525 0.21168 0.44957 0.0
C1521 C 0.2889 0.21247 0.46898 0.0
C1522 C 0.28539 0.19624 0.47939 0.0
C1523 C 0.27828 0.17933 0.47044 0.0
C1524 C 0.27471 0.17902 0.45068 0.0
H1525 H 0.48401 0.47558 0.88388 0.0
H1526 H 0.47947 0.52943 0.91378 0.0
H1527 H 0.45949 0.54059 0.8879 0.0
H1528 H 0.48615 0.49369 0.83652 0.0
H1529 H 0.47218 0.47428 0.82625 0.0
H1530 H 0.4866 0.47083 0.84685 0.0
H1531 H 0.45691 0.45809 0.86481 0.0
H1532 H 0.4424 0.46153 0.84429 0.0
H1533 H 0.43618 0.47227 0.86681 0.0
H1534 H 0.43891 0.54546 0.85906 0.0
H1535 H 0.42022 0.54386 0.82936 0.0
H1536 H 0.4382 0.48675 0.81857 0.0
C1537 C 0.47879 0.48972 0.88503 0.0
C1538 C 0.48337 0.50163 0.90091 0.0
C1539 C 0.47641 0.52011 0.90168 0.0
C1540 C 0.46493 0.52655 0.88709 0.0
C1541 C 0.46058 0.51437 0.87175 0.0
C1542 C 0.46737 0.49637 0.8706 0.0
C1543 C 0.46051 0.486 0.85269 0.0
C1544 C 0.47736 0.48091 0.83982 0.0
C1545 C 0.44827 0.46844 0.85744 0.0
C1546 C 0.44864 0.50091 0.84402 0.0
C1547 C 0.44886 0.51719 0.8552 0.0
C1548 C 0.43871 0.5328 0.85017 0.0
C1549 C 0.42811 0.53175 0.83327 0.0
C1550 C 0.42773 0.5152 0.82157 0.0
C1551 C 0.43819 0.49963 0.82712 0.0
H1552 H 0.75384 0.71578 0.1515 0.0
H1553 H 0.7337 0.76356 0.12137 0.0
H1554 H 0.7402 0.74711 0.09086 0.0
H1555 H 0.79181 0.70428 0.11878 0.0
H1556 H 0.78826 0.67925 0.12108 0.0
H1557 H 0.7825 0.695 0.14055 0.0
H1558 H 0.74817 0.6806 0.14124 0.0
H1559 H 0.75381 0.66483 0.12176 0.0
H1560 H 0.73398 0.68009 0.11996 0.0
H1561 H 0.74769 0.72491 0.06355 0.0
H1562 H 0.7567 0.69909 0.04152 0.0
H1563 H 0.77218 0.66582 0.0894 0.0
C1564 C 0.75078 0.72279 0.13849 0.0
C1565 C 0.7433 0.74102 0.13887 0.0
C1566 C 0.73968 0.74974 0.12148 0.0
C1567 C 0.74322 0.74045 0.10406 0.0
C1568 C 0.75046 0.72246 0.10421 0.0
C1569 C 0.7543 0.71376 0.12096 0.0
C1570 C 0.76197 0.69433 0.11719 0.0
C1571 C 0.78235 0.69316 0.12485 0.0
C1572 C 0.74869 0.67907 0.12553 0.0
C1573 C 0.76167 0.6934 0.0957 0.0
C1574 C 0.75496 0.70976 0.08849 0.0
C1575 C 0.75306 0.71207 0.06904 0.0
C1576 C 0.75818 0.69729 0.05663 0.0
C1577 C 0.76521 0.68042 0.06369 0.0
C1578 C 0.76697 0.67856 0.08351 0.0
H1579 H 0.98061 0.07579 0.15261 0.0
H1580 H 0.98827 0.01742 0.13552 0.0
H1581 H 0.96906 1.00728 0.16297 0.0
H1582 H 0.98242 0.06944 0.20327 0.0
H1583 H 0.9644 0.0863 0.20842 0.0
H1584 H 0.9794 0.0889 0.18787 0.0
H1585 H 0.94954 0.08934 0.16644 0.0
H1586 H 0.93445 0.08673 0.18691 0.0
H1587 H 0.93215 0.07016 0.16716 0.0
H1588 H 0.94787 1.00354 0.19175 0.0
H1589 H 0.92687 1.00651 0.21974 0.0
H1590 H 0.93284 0.06735 0.21771 0.0
C1591 C 0.97823 0.06086 0.15458 0.0
C1592 C 0.98602 0.04742 0.14185 0.0
C1593 C 0.98272 0.02802 0.14517 0.0
C1594 C 0.97172 0.02211 0.16068 0.0
C1595 C 0.96413 0.03575 0.17281 0.0
C1596 C 0.9673 0.05473 0.16997 0.0
C1597 C 0.9573 0.06656 0.1849 0.0
C1598 C 0.97175 0.0785 0.19682 0.0
C1599 C 0.94248 0.07892 0.1758 0.0
C1600 C 0.94784 0.05129 0.1965 0.0
C1601 C 0.95198 0.03361 0.18933 0.0
C1602 C 0.9446 0.01732 0.19752 0.0
C1603 C 0.93266 0.01916 0.21342 0.0
C1604 C 0.92819 0.03716 0.22099 0.0
C1605 C 0.93599 0.05338 0.21236 0.0
H1606 H 0.25779 0.80378 0.13509 0.0
H1607 H 0.31861 0.7959 0.13931 0.0
H1608 H 0.32433 0.8189 0.11436 0.0
H1609 H 0.25653 0.8075 0.08451 0.0
H1610 H 0.23881 0.82525 0.08471 0.0
H1611 H 0.23938 0.80868 0.10351 0.0
H1612 H 0.24187 0.8362 0.12833 0.0
H1613 H 0.24132 0.85286 0.10961 0.0
H1614 H 0.26072 0.85385 0.12632 0.0
H1615 H 0.32363 0.84169 0.08827 0.0
H1616 H 0.31661 0.86329 0.06278 0.0
H1617 H 0.25619 0.85682 0.07492 0.0
C1618 C 0.27231 0.80687 0.13076 0.0
C1619 C 0.28776 0.79807 0.13935 0.0
C1620 C 0.30655 0.80266 0.13328 0.0
C1621 C 0.30995 0.81564 0.119 0.0
C1622 C 0.29444 0.824 0.11086 0.0
C1623 C 0.27599 0.81987 0.1165 0.0
C1624 C 0.2619 0.83072 0.10515 0.0
C1625 C 0.24836 0.81723 0.09379 0.0
C1626 C 0.2508 0.84421 0.11813 0.0
C1627 C 0.27533 0.84145 0.09214 0.0
C1628 C 0.29403 0.83733 0.09574 0.0
C1629 C 0.30905 0.84509 0.08537 0.0
C1630 C 0.30489 0.85735 0.07087 0.0
C1631 C 0.28585 0.86183 0.06682 0.0
C1632 C 0.27089 0.8538 0.07773 0.0
H1633 H 0.05436 0.50749 0.14103 0.0
H1634 H 0.0451 0.44804 0.15135 0.0
H1635 H 0.06473 0.45146 0.18023 0.0
H1636 H 0.10272 0.51092 0.15636 0.0
H1637 H 0.10088 0.53393 0.16748 0.0
H1638 H 0.08568 0.52704 0.14779 0.0
H1639 H 0.05591 0.53432 0.16807 0.0
H1640 H 0.07104 0.54135 0.1878 0.0
H1641 H 0.05269 0.52333 0.19061 0.0
H1642 H 0.08607 0.461 0.20752 0.0
H1643 H 0.10685 0.4763 0.23197 0.0
H1644 H 0.10198 0.52972 0.20444 0.0
C1645 C 0.05626 0.49525 0.1495 0.0
C1646 C 0.04826 0.47745 0.1438 0.0
C1647 C 0.05131 0.46175 0.15521 0.0
C1648 C 0.06236 0.46356 0.17171 0.0
C1649 C 0.07027 0.4812 0.17675 0.0
C1650 C 0.06729 0.4968 0.16606 0.0
C1651 C 0.07764 0.5141 0.17458 0.0
C1652 C 0.09262 0.52195 0.16072 0.0
C1653 C 0.06347 0.52916 0.18063 0.0
C1654 C 0.08693 0.50574 0.19164 0.0
C1655 C 0.0825 0.48674 0.19261 0.0
C1656 C 0.08958 0.47589 0.20696 0.0
C1657 C 0.10142 0.48472 0.22078 0.0
C1658 C 0.10607 0.50423 0.22019 0.0
C1659 C 0.0987 0.5148 0.20535 0.0
H1660 H 0.39197 0.73911 0.30076 0.0
H1661 H 0.41237 0.77198 0.25352 0.0
H1662 H 0.44196 0.7801 0.27092 0.0
H1663 H 0.41112 0.77034 0.33782 0.0
H1664 H 0.41764 0.7517 0.35304 0.0
H1665 H 0.39794 0.74816 0.33688 0.0
H1666 H 0.41369 0.71871 0.32224 0.0
H1667 H 0.43345 0.72217 0.33834 0.0
H1668 H 0.43763 0.72075 0.31313 0.0
H1669 H 0.46888 0.78535 0.29322 0.0
H1670 H 0.49222 0.78706 0.31919 0.0
H1671 H 0.4553 0.75059 0.35247 0.0
C1672 C 0.40266 0.74804 0.29413 0.0
C1673 C 0.39989 0.75475 0.27566 0.0
C1674 C 0.41427 0.76637 0.26747 0.0
C1675 C 0.4311 0.77116 0.27729 0.0
C1676 C 0.43345 0.76425 0.29535 0.0
C1677 C 0.4197 0.75291 0.30374 0.0
C1678 C 0.426 0.74741 0.32336 0.0
C1679 C 0.41236 0.75485 0.33868 0.0
C1680 C 0.4278 0.72598 0.32431 0.0
C1681 C 0.44537 0.75751 0.32464 0.0
C1682 C 0.44927 0.76716 0.3083 0.0
C1683 C 0.46604 0.77782 0.30608 0.0
C1684 C 0.4792 0.77872 0.32096 0.0
C1685 C 0.47566 0.76894 0.33789 0.0
C1686 C 0.45849 0.75812 0.33968 0.0
H1687 H 0.9779 0.39074 0.96305 0.0
H1688 H 0.01596 0.38765 1.01121 0.0
H1689 H 0.02863 0.35834 0.99766 0.0
H1690 H 0.96663 0.34097 0.95917 0.0
H1691 H 0.96574 0.34038 0.93363 0.0
H1692 H 0.96004 0.36155 0.94675 0.0
H1693 H 0.98569 0.38023 0.92795 0.0
H1694 H 0.99151 0.35909 0.91481 0.0
H1695 H 1.00984 0.37245 0.92757 0.0
H1696 H 0.03709 0.32919 0.97917 0.0
H1697 H 0.04021 0.30178 0.95732 0.0
H1698 H 0.99603 0.32297 0.92152 0.0
C1699 C 0.98881 0.38387 0.97083 0.0
C1700 C 0.99602 0.39173 0.98817 0.0
C1701 C 1.01045 0.38225 0.99773 0.0
C1702 C 0.01767 0.36548 0.99021 0.0
C1703 C 1.0103 0.3582 0.97312 0.0
C1704 C 0.99615 0.36702 0.96356 0.0
C1705 C 0.9905 0.35599 0.94559 0.0
C1706 C 0.96948 0.34933 0.94634 0.0
C1707 C 0.99464 0.36764 0.92794 0.0
C1708 C 1.00366 0.33958 0.94659 0.0
C1709 C 0.015 0.34119 0.96256 0.0
C1710 C 0.02827 0.32777 0.96662 0.0
C1711 C 0.02995 0.31223 0.95409 0.0
C1712 C 0.01837 0.31015 0.93768 0.0
C1713 C 1.0051 0.32411 0.93392 0.0
H1714 H 0.63665 0.81873 0.31415 0.0
H1715 H 0.64363 0.76239 0.29035 0.0
H1716 H 0.61641 0.75087 0.30942 0.0
H1717 H 0.62281 0.80537 0.36115 0.0
H1718 H 0.60559 0.82346 0.36389 0.0
H1719 H 0.62607 0.82712 0.3489 0.0
H1720 H 0.60402 0.83395 0.3207 0.0
H1721 H 0.58348 0.83037 0.33561 0.0
H1722 H 0.58563 0.81688 0.31372 0.0
H1723 H 0.58778 0.74562 0.33065 0.0
H1724 H 0.55985 0.74721 0.35188 0.0
H1725 H 0.57119 0.80714 0.36108 0.0
C1726 C 0.63242 0.80398 0.3128 0.0
C1727 C 0.64242 0.79148 0.30071 0.0
C1728 C 0.63648 0.77223 0.29969 0.0
C1729 C 0.62094 0.76555 0.3104 0.0
C1730 C 0.61141 0.77828 0.32208 0.0
C1731 C 0.61691 0.7971 0.32331 0.0
C1732 C 0.60405 0.80796 0.33662 0.0
C1733 C 0.61531 0.81647 0.35365 0.0
C1734 C 0.59368 0.82319 0.32603 0.0
C1735 C 0.59037 0.79233 0.34262 0.0
C1736 C 0.59489 0.7753 0.33415 0.0
C1737 C 0.58414 0.75889 0.33738 0.0
C1738 C 0.56829 0.75993 0.34949 0.0
C1739 C 0.56328 0.77729 0.35819 0.0
C1740 C 0.57462 0.79364 0.35472 0.0
H1741 H 0.06604 0.15076 0.97133 0.0
H1742 H 1.00906 0.1394 0.99288 0.0
H1743 H 0.99734 0.166 0.97501 0.0
H1744 H 0.06414 0.2011 0.97238 0.0
H1745 H 0.07744 0.20373 0.9507 0.0
H1746 H 0.08133 0.18396 0.9654 0.0
H1747 H 0.07401 0.16113 0.93685 0.0
H1748 H 0.0701 0.18084 0.92206 0.0
H1749 H 0.05183 0.16266 0.92431 0.0
H1750 H 0.99174 0.19376 0.9542 0.0
H1751 H 0.99291 0.22061 0.93272 0.0
H1752 H 0.05349 0.21341 0.92457 0.0
C1753 C 0.05106 0.15373 0.97221 0.0
C1754 C 0.0385 0.14292 0.98359 0.0
C1755 C 0.01905 0.14758 0.98452 0.0
C1756 C 1.01222 0.16261 0.9743 0.0
C1757 C 0.02498 0.17289 0.96318 0.0
C1758 C 0.044 0.16866 0.9621 0.0
C1759 C 0.05479 0.18185 0.94911 0.0
C1760 C 0.07034 0.19334 0.96006 0.0
C1761 C 0.06317 0.17097 0.93207 0.0
C1762 C 0.03888 0.1942 0.94304 0.0
C1763 C 0.02178 0.1888 0.95127 0.0
C1764 C 1.00506 0.1981 0.9477 0.0
C1765 C 1.00586 0.21334 0.93545 0.0
C1766 C 0.02327 0.21918 0.92692 0.0
C1767 C 0.03994 0.20937 0.93083 0.0
H1768 H 0.40025 0.30134 0.23487 0.0
H1769 H 0.40747 0.25316 0.27019 0.0
H1770 H 0.43427 0.2432 0.2502 0.0
H1771 H 0.41155 0.27768 0.18998 0.0
H1772 H 0.42427 0.29777 0.1806 0.0
H1773 H 0.40529 0.30112 0.19744 0.0
H1774 H 0.42824 0.321 0.21928 0.0
H1775 H 0.44729 0.31767 0.20254 0.0
H1776 H 0.45016 0.31112 0.22683 0.0
H1777 H 0.46016 0.23827 0.22685 0.0
H1778 H 0.48416 0.23878 0.20144 0.0
H1779 H 0.46118 0.29029 0.18084 0.0
C1780 C 0.40741 0.28864 0.23828 0.0
C1781 C 0.40182 0.2781 0.25421 0.0
C1782 C 0.41165 0.26162 0.25826 0.0
C1783 C 0.42684 0.25577 0.24693 0.0
C1784 C 0.43214 0.26654 0.23151 0.0
C1785 C 0.42279 0.28262 0.22712 0.0
C1786 C 0.43174 0.2917 0.20986 0.0
C1787 C 0.41735 0.29208 0.1935 0.0
C1788 C 0.43984 0.31155 0.21494 0.0
C1789 C 0.44754 0.2782 0.20533 0.0
C1790 C 0.44739 0.26377 0.218 0.0
C1791 C 0.46044 0.24949 0.21682 0.0
C1792 C 0.47404 0.24992 0.20229 0.0
C1793 C 0.47463 0.26457 0.1891 0.0
C1794 C 0.46116 0.27892 0.19071 0.0
H1795 H 0.55626 0.39072 0.06573 0.0
H1796 H 0.501 0.40774 0.04636 0.0
H1797 H 0.48553 0.38216 0.06421 0.0
H1798 H 0.54606 0.34098 0.06392 0.0
H1799 H 0.5593 0.33651 0.08509 0.0
H1800 H 0.5661 0.35615 0.07073 0.0
H1801 H 0.56326 0.37875 0.09999 0.0
H1802 H 0.55642 0.35918 0.11444 0.0
H1803 H 0.54128 0.37906 0.11318 0.0
H1804 H 0.47597 0.3547 0.08404 0.0
H1805 H 0.47297 0.32706 0.10422 0.0
H1806 H 0.53433 0.32814 0.11151 0.0
C1807 C 0.54089 0.38919 0.06535 0.0
C1808 C 0.52989 0.40128 0.05451 0.0
C1809 C 0.50981 0.39854 0.05425 0.0
C1810 C 0.50086 0.38412 0.06448 0.0
C1811 C 0.51213 0.37251 0.07499 0.0
C1812 C 0.5317 0.37487 0.07552 0.0
C1813 C 0.54049 0.36037 0.08788 0.0
C1814 C 0.55377 0.34776 0.0762 0.0
C1815 C 0.55098 0.36992 0.10488 0.0
C1816 C 0.52279 0.34947 0.09419 0.0
C1817 C 0.50659 0.35674 0.08658 0.0
C1818 C 0.48855 0.34892 0.09011 0.0
C1819 C 0.487 0.33319 0.10161 0.0
C1820 C 0.50339 0.3254 0.10953 0.0
C1821 C 0.52151 0.33379 0.10579 0.0
H1822 H 0.62415 0.25281 0.24692 0.0
H1823 H 0.65624 0.22817 0.20035 0.0
H1824 H 0.63081 0.23578 0.17813 0.0
H1825 H 0.5781 0.23692 0.23086 0.0
H1826 H 0.5664 0.25807 0.23825 0.0
H1827 H 0.58731 0.2511 0.25058 0.0
H1828 H 0.60376 0.28346 0.24437 0.0
H1829 H 0.58287 0.29056 0.23206 0.0
H1830 H 0.60571 0.29145 0.22041 0.0
H1831 H 0.60162 0.24522 0.16097 0.0
H1832 H 0.5708 0.25639 0.14998 0.0
H1833 H 0.55771 0.27559 0.20739 0.0
C1834 C 0.62594 0.24921 0.23202 0.0
C1835 C 0.64219 0.23974 0.22545 0.0
C1836 C 0.64381 0.23511 0.20583 0.0
C1837 C 0.62949 0.23949 0.19305 0.0
C1838 C 0.61359 0.2486 0.20001 0.0
C1839 C 0.61174 0.2535 0.21901 0.0
C1840 C 0.59305 0.26303 0.22278 0.0
C1841 C 0.58047 0.25159 0.23643 0.0
C1842 C 0.59657 0.28333 0.23035 0.0
C1843 C 0.58468 0.2626 0.20296 0.0
C1844 C 0.59678 0.25423 0.19005 0.0
C1845 C 0.59206 0.25189 0.17093 0.0
C1846 C 0.57448 0.25827 0.16483 0.0
C1847 C 0.5618 0.26693 0.17777 0.0
C1848 C 0.56708 0.26913 0.19709 0.0
H1849 H 0.50117 0.13919 0.06932 0.0
H1850 H 0.47394 0.1667 0.02299 0.0
H1851 H 0.47766 0.19722 0.0404 0.0
H1852 H 0.4801 0.16621 0.10697 0.0
H1853 H 0.50115 0.16716 0.12157 0.0
H1854 H 0.49681 0.14755 0.10525 0.0
H1855 H 0.5297 0.15385 0.08962 0.0
H1856 H 0.53417 0.17345 0.10593 0.0
H1857 H 0.53553 0.17684 0.08074 0.0
H1858 H 0.48331 0.22465 0.06342 0.0
H1859 H 0.49175 0.2471 0.08967 0.0
H1860 H 0.51552 0.20176 0.12092 0.0
C1861 C 0.49597 0.15163 0.06284 0.0
C1862 C 0.4873 0.15052 0.04474 0.0
C1863 C 0.48087 0.1672 0.0367 0.0
C1864 C 0.4828 0.1846 0.04654 0.0
C1865 C 0.49128 0.18515 0.0644 0.0
C1866 C 0.49787 0.16913 0.07243 0.0
C1867 C 0.50646 0.17357 0.09181 0.0
C1868 C 0.49547 0.163 0.10731 0.0
C1869 C 0.52773 0.16917 0.09203 0.0
C1870 C 0.50354 0.19456 0.09348 0.0
C1871 C 0.49472 0.20096 0.07754 0.0
C1872 C 0.4903 0.2198 0.07593 0.0
C1873 C 0.49511 0.23245 0.09096 0.0
C1874 C 0.50434 0.22625 0.10737 0.0
C1875 C 0.50854 0.207 0.10856 0.0
H1876 H 0.29556 0.41288 0.7197 0.0
H1877 H 0.30202 0.38571 0.77349 0.0
H1878 H 0.32258 0.41243 0.78504 0.0
H1879 H 0.3434 0.43117 0.7164 0.0
H1880 H 0.33689 0.4529 0.70605 0.0
H1881 H 0.32212 0.43196 0.70226 0.0
H1882 H 0.29301 0.44943 0.71561 0.0
H1883 H 0.30768 0.47044 0.71942 0.0
H1884 H 0.29439 0.46061 0.73885 0.0
H1885 H 0.34335 0.44171 0.79039 0.0
H1886 H 0.36219 0.47158 0.78935 0.0
H1887 H 0.34233 0.47959 0.732 0.0
C1888 C 0.30133 0.41251 0.7339 0.0
C1889 C 0.2971 0.39717 0.74569 0.0
C1890 C 0.30479 0.39739 0.76427 0.0
C1891 C 0.31659 0.41247 0.77093 0.0
C1892 C 0.32055 0.42728 0.75889 0.0
C1893 C 0.31309 0.42746 0.74079 0.0
C1894 C 0.31966 0.44502 0.73065 0.0
C1895 C 0.33121 0.43995 0.71278 0.0
C1896 C 0.30267 0.45709 0.72586 0.0
C1897 C 0.33216 0.45459 0.74579 0.0
C1898 C 0.33245 0.44415 0.76198 0.0
C1899 C 0.34317 0.45003 0.7778 0.0
C1900 C 0.35385 0.46703 0.77706 0.0
C1901 C 0.35376 0.47799 0.76061 0.0
C1902 C 0.3427 0.4716 0.74481 0.0
H1903 H 0.30277 0.64083 0.82226 0.0
H1904 H 0.29136 0.65182 0.76324 0.0
H1905 H 0.31083 0.62493 0.75342 0.0
H1906 H 0.35144 0.62865 0.8158 0.0
H1907 H 0.35048 0.61058 0.83318 0.0
H1908 H 0.33516 0.6303 0.8355 0.0
H1909 H 0.30566 0.60751 0.83657 0.0
H1910 H 0.3209 0.58771 0.83427 0.0
H1911 H 0.30181 0.59026 0.81761 0.0
H1912 H 0.33252 0.59722 0.75008 0.0
H1913 H 0.35387 0.57062 0.75352 0.0
H1914 H 0.35117 0.57807 0.81475 0.0
C1915 C 0.30441 0.63768 0.80725 0.0
C1916 C 0.29548 0.64852 0.79353 0.0
C1917 C 0.29782 0.64364 0.77405 0.0
C1918 C 0.30896 0.62845 0.76833 0.0
C1919 C 0.31768 0.61819 0.78223 0.0
C1920 C 0.31547 0.62258 0.8013 0.0
C1921 C 0.32642 0.60946 0.81344 0.0
C1922 C 0.34179 0.6204 0.82517 0.0
C1923 C 0.31289 0.59806 0.82622 0.0
C1924 C 0.33522 0.59702 0.79823 0.0
C1925 C 0.33004 0.60228 0.78032 0.0
C1926 C 0.33661 0.59296 0.76405 0.0
C1927 C 0.34877 0.57787 0.76615 0.0
C1928 C 0.35421 0.57219 0.7844 0.0
C1929 C 0.34727 0.58197 0.80059 0.0
H1930 H 0.88618 0.49209 0.51274 0.0
H1931 H 0.88766 0.47709 0.45268 0.0
H1932 H 0.85895 0.4567 0.45637 0.0
H1933 H 0.87086 0.44666 0.52863 0.0
H1934 H 0.85547 0.45562 0.547 0.0
H1935 H 0.87601 0.46941 0.53972 0.0
H1936 H 0.85454 0.49722 0.53258 0.0
H1937 H 0.83394 0.48354 0.53993 0.0
H1938 H 0.83461 0.49346 0.51671 0.0
H1939 H 0.83056 0.43738 0.46649 0.0
H1940 H 0.80374 0.421 0.4823 0.0
H1941 H 0.82 0.44866 0.53582 0.0
C1942 C 0.88034 0.48467 0.50034 0.0
C1943 C 0.88932 0.48611 0.48243 0.0
C1944 C 0.88128 0.47599 0.4666 0.0
C1945 C 0.8649 0.46444 0.46853 0.0
C1946 C 0.85658 0.46312 0.48638 0.0
C1947 C 0.86394 0.473 0.50201 0.0
C1948 C 0.85226 0.46887 0.51962 0.0
C1949 C 0.86438 0.45959 0.53463 0.0
C1950 C 0.8433 0.48684 0.52768 0.0
C1951 C 0.83723 0.45515 0.51141 0.0
C1952 C 0.84004 0.45203 0.49221 0.0
C1953 C 0.82818 0.43975 0.48152 0.0
C1954 C 0.81298 0.43047 0.49065 0.0
C1955 C 0.80969 0.43351 0.51031 0.0
C1956 C 0.82206 0.44604 0.52077 0.0
H1957 H 0.7389 0.90718 0.76926 0.0
H1958 H 0.74578 0.90324 0.83015 0.0
H1959 H 0.72334 0.92881 0.83524 0.0
H1960 H 0.73662 0.95772 0.7688 0.0
H1961 H 0.71901 0.95761 0.75025 0.0
H1962 H 0.73538 0.93872 0.75131 0.0
H1963 H 0.70705 0.91451 0.75196 0.0
H1964 H 0.6906 0.93333 0.7509 0.0
H1965 H 0.68892 0.91694 0.76989 0.0
H1966 H 0.70053 0.95511 0.83385 0.0
H1967 H 0.67861 0.98009 0.8261 0.0
H1968 H 0.68656 0.96741 0.76607 0.0
C1969 C 0.73579 0.91175 0.78367 0.0
C1970 C 0.7441 0.90305 0.79931 0.0
C1971 C 0.73941 0.90939 0.81793 0.0
C1972 C 0.72675 0.92402 0.82098 0.0
C1973 C 0.71885 0.93225 0.80528 0.0
C1974 C 0.72314 0.92635 0.78699 0.0
C1975 C 0.71267 0.93763 0.77261 0.0
C1976 C 0.72676 0.94857 0.76 0.0
C1977 C 0.69899 0.92484 0.76064 0.0
C1978 C 0.70185 0.95082 0.78569 0.0
C1979 C 0.70565 0.94746 0.80447 0.0
C1980 C 0.69743 0.95786 0.81919 0.0
C1981 C 0.68498 0.97205 0.81462 0.0
C1982 C 0.68079 0.97577 0.79547 0.0
C1983 C 0.68941 0.96494 0.78085 0.0
H1984 H 0.65518 0.56373 0.97717 0.0
H1985 H 0.64716 0.53542 0.03045 0.0
H1986 H 0.67628 0.55147 0.04302 0.0
H1987 H 0.70646 0.56288 0.97603 0.0
H1988 H 0.70936 0.58595 0.96633 0.0
H1989 H 0.68817 0.5718 0.9612 0.0
H1990 H 0.66737 0.59869 0.97412 0.0
H1991 H 0.68849 0.61294 0.97926 0.0
H1992 H 0.67146 0.6082 0.99779 0.0
H1993 H 0.70593 0.57094 0.05013 0.0
H1994 H 0.7339 0.59274 0.05143 0.0
H1995 H 0.72247 0.6092 0.99387 0.0
C1996 C 0.65945 0.56096 0.99152 0.0
C1997 C 0.64883 0.54815 1.00274 0.0
C1998 C 0.65515 0.54484 0.02139 0.0
C1999 C 0.67164 0.554 0.02873 0.0
C2000 C 0.68171 0.56651 0.0173 0.0
C2001 C 0.67587 0.57003 0.99911 0.0
C2002 C 0.68914 0.58437 0.98992 0.0
C2003 C 0.69886 0.57573 0.97233 0.0
C2004 C 0.67847 0.6021 0.98499 0.0
C2005 C 0.7033 0.58842 1.00584 0.0
C2006 C 0.69876 0.5779 0.02147 0.0
C2007 C 0.70964 0.57923 0.03796 0.0
C2008 C 0.72553 0.59168 0.03855 0.0
C2009 C 0.73045 0.60273 0.02276 0.0
C2010 C 0.71914 0.60097 1.00618 0.0
H2011 H 0.22693 0.63399 0.26382 0.0
H2012 H 0.2395 0.63156 0.20353 0.0
H2013 H 0.21895 0.60293 0.19984 0.0
H2014 H 0.22751 0.58451 0.27073 0.0
H2015 H 0.20819 0.58421 0.28756 0.0
H2016 H 0.22315 0.60508 0.28542 0.0
H2017 H 0.19348 0.62458 0.27904 0.0
H2018 H 0.17842 0.60376 0.2812 0.0
H2019 H 0.17751 0.6173 0.26005 0.0
H2020 H 0.19845 0.57375 0.20282 0.0
H2021 H 0.17843 0.54645 0.21205 0.0
H2022 H 0.1788 0.56751 0.27045 0.0
C2023 C 0.22534 0.62746 0.24983 0.0
C2024 C 0.23479 0.63515 0.23393 0.0
C2025 C 0.23219 0.62619 0.21587 0.0
C2026 C 0.22063 0.60982 0.21364 0.0
C2027 C 0.21167 0.60256 0.2296 0.0
C2028 C 0.21379 0.61111 0.24733 0.0
C2029 C 0.20276 0.60021 0.26218 0.0
C2030 C 0.21621 0.59308 0.27737 0.0
C2031 C 0.18711 0.61218 0.27114 0.0
C2032 C 0.19432 0.58407 0.25005 0.0
C2033 C 0.19966 0.58574 0.2313 0.0
C2034 C 0.19407 0.57235 0.21744 0.0
C2035 C 0.18272 0.55685 0.22285 0.0
C2036 C 0.17697 0.5548 0.24197 0.0
C2037 C 0.18284 0.5687 0.25571 0.0
H2038 H 0.87926 0.53753 0.03386 0.0
H2039 H 0.91301 0.58083 0.06421 0.0
H2040 H 0.88868 0.60394 0.05776 0.0
H2041 H 0.86226 0.56769 0.99707 0.0
H2042 H 0.83892 0.55642 0.99608 0.0
H2043 H 0.85917 0.54324 1.00278 0.0
H2044 H 0.84217 0.53432 0.03402 0.0
H2045 H 0.82191 0.54752 0.02745 0.0
H2046 H 0.83374 0.55267 0.04974 0.0
H2047 H 0.86047 0.62229 0.04877 0.0
H2048 H 0.83041 0.63481 0.03732 0.0
H2049 H 0.81485 0.57994 0.01231 0.0
C2050 C 0.88162 0.55192 0.03896 0.0
C2051 C 0.89803 0.55729 0.04968 0.0
C2052 C 0.90044 0.57625 0.05626 0.0
C2053 C 0.88674 0.58954 0.05257 0.0
C2054 C 0.87065 0.58374 0.04221 0.0
C2055 C 0.86803 0.56542 0.03543 0.0
C2056 C 0.84927 0.56288 0.02487 0.0
C2057 C 0.85261 0.55723 1.00396 0.0
C2058 C 0.83599 0.5485 0.03461 0.0
C2059 C 0.84178 0.58261 0.02686 0.0
C2060 C 0.85437 0.5944 0.03691 0.0
C2061 C 0.85052 0.61321 0.04082 0.0
C2062 C 0.83338 0.62019 0.03426 0.0
C2063 C 0.82022 0.60842 0.02386 0.0
C2064 C 0.82459 0.58936 0.02015 0.0
H2065 H 0.14675 0.97647 0.06052 0.0
H2066 H 0.14015 1.00362 1.00669 0.0
H2067 H 0.16747 0.98655 0.9938 0.0
H2068 H 0.19769 0.97651 0.06059 0.0
H2069 H 0.19904 0.95368 0.07081 0.0
H2070 H 0.17896 0.96806 0.07595 0.0
H2071 H 0.15603 0.94103 0.064 0.0
H2072 H 0.17605 0.92655 0.05883 0.0
H2073 H 0.1591 0.93097 0.04048 0.0
H2074 H 0.19563 0.96688 0.98672 0.0
H2075 H 0.2227 0.94576 0.98583 0.0
H2076 H 0.21069 0.93038 0.04386 0.0
C2077 C 0.1509 0.97872 0.04596 0.0
C2078 C 0.14126 0.99155 0.03469 0.0
C2079 C 0.14743 0.99419 0.01577 0.0
C2080 C 0.16287 0.98443 1.00825 0.0
C2081 C 0.17202 0.97197 0.01974 0.0
C2082 C 0.16626 0.96903 0.03817 0.0
C2083 C 0.17863 0.95484 0.04749 0.0
C2084 C 0.18921 0.96382 0.06473 0.0
C2085 C 0.16674 0.93731 0.05302 0.0
C2086 C 0.19227 0.95032 0.03143 0.0
C2087 C 0.18818 0.96039 0.01557 0.0
C2088 C 0.19893 0.95888 0.99903 0.0
C2089 C 0.21432 0.94683 0.99868 0.0
C2090 C 0.21886 0.93634 0.01475 0.0
C2091 C 0.20756 0.9381 0.0313 0.0
loop_
_geom_bond_atom_site_label_1
_geom_bond_atom_site_label_2
_geom_bond_distance
_geom_bond_site_symmetry_2
_ccdc_geom_bond_type
C0 C1 1.264 . S
C0 C5 1.479 . S
C0 C10 1.465 1_655 S
C1 C0 1.264 . S
C1 C3 1.339 . S
C1 H28 0.931 1_655 S
C2 C3 1.395 . S
C2 C4 1.320 . S
C3 C1 1.339 . S
C3 C2 1.395 . S
C3 H29 0.929 . S
C4 C2 1.320 . S
C4 C5 1.405 . S
C4 H30 0.930 . S
C5 C0 1.479 . S
C5 C4 1.405 . S
C5 H31 0.931 . S
U6 O7 2.454 . S
U6 O8 2.458 . S
U6 C9 2.984 . S
U6 C10 2.847 . S
U6 C23 2.882 . S
U6 O24 2.441 . S
U6 O25 2.420 . S
U6 O26 2.455 . S
U6 O27 2.449 . S
O7 U6 2.454 . S
O7 C9 1.353 . S
O8 U6 2.458 . S
O8 C9 1.286 . S
C9 U6 2.984 . S
C9 O7 1.353 . S
C9 O8 1.286 . S
C9 C11 1.363 . S
C10 C0 1.465 1_455 S
C10 U6 2.847 . S
C10 O24 1.249 . S
C10 O25 1.202 . S
C11 C9 1.363 . S
C11 C13 1.408 . S
C11 C16 1.342 1_554 S
C12 C13 1.310 1_556 S
C12 C15 1.461 . S
C12 H32 0.932 . S
C13 C11 1.408 . S
C13 C12 1.310 1_554 S
C13 H33 0.930 . S
C14 C15 1.474 . S
C14 C16 1.285 . S
C14 H34 0.929 . S
C15 C12 1.461 . S
C15 C14 1.474 . S
C16 C11 1.342 1_556 S
C16 C14 1.285 . S
C16 H35 0.930 . S
C17 C20 1.424 1_545 S
C17 C22 1.245 . S
C17 C23 1.428 . S
C18 C21 1.260 . S
C18 C22 1.477 1_565 S
C18 H36 0.932 . S
C19 C20 1.384 . S
C19 C21 1.479 . S
C19 H37 0.929 . S
C20 C17 1.424 1_565 S
C20 C19 1.384 . S
C20 H38 0.928 . S
C21 C18 1.260 . S
C21 C19 1.479 . S
C22 C17 1.245 . S
C22 C18 1.477 1_545 S
C22 H39 0.932 . S
C23 U6 2.882 . S
C23 C17 1.428 . S
C23 O26 1.301 . S
C23 O27 1.282 . S
O24 U6 2.441 . S
O24 C10 1.249 . S
O25 U6 2.420 . S
O25 C10 1.202 . S
O26 U6 2.455 . S
O26 C23 1.301 . S
O27 U6 2.449 . S
O27 C23 1.282 . S
H28 C1 0.931 1_455 S
H29 C3 0.929 . S
H30 C4 0.930 . S
H31 C5 0.931 . S
H32 C12 0.932 . S
H33 C13 0.930 . S
H34 C14 0.929 . S
H35 C16 0.930 . S
H36 C18 0.932 . S
H37 C19 0.929 . S
H38 C20 0.928 . S
H39 C22 0.932 . S
C40 C41 1.264 . S
C40 C45 1.479 . S
C40 C50 1.465 . S
C41 C40 1.264 . S
C41 C43 1.339 . S
C41 H68 0.931 . S
C42 C43 1.395 . S
C42 C44 1.320 . S
C43 C41 1.339 . S
C43 C42 1.395 . S
C43 H69 0.929 . S
C44 C42 1.320 . S
C44 C45 1.405 . S
C44 H70 0.930 . S
C45 C40 1.479 . S
C45 C44 1.405 . S
C45 H71 0.931 . S
U46 O47 2.454 . S
U46 O48 2.458 . S
U46 C49 2.984 . S
U46 C50 2.847 . S
U46 C63 2.882 . S
U46 O64 2.441 . S
U46 O65 2.420 . S
U46 O66 2.455 . S
U46 O67 2.449 . S
O47 U46 2.454 . S
O47 C49 1.353 . S
O48 U46 2.458 . S
O48 C49 1.286 . S
C49 U46 2.984 . S
C49 O47 1.353 . S
C49 O48 1.286 . S
C49 C51 1.363 . S
C50 C40 1.465 . S
C50 U46 2.847 . S
C50 O64 1.249 . S
C50 O65 1.202 . S
C51 C49 1.363 . S
C51 C53 1.408 . S
C51 C56 1.342 . S
C52 C53 1.310 . S
C52 C55 1.461 . S
C52 H72 0.932 . S
C53 C51 1.408 . S
C53 C52 1.310 . S
C53 H73 0.930 . S
C54 C55 1.474 . S
C54 C56 1.285 . S
C54 H74 0.929 . S
C55 C52 1.461 . S
C55 C54 1.474 . S
C56 C51 1.342 . S
C56 C54 1.285 . S
C56 H75 0.930 . S
C57 C60 1.424 . S
C57 C62 1.245 . S
C57 C63 1.428 . S
C58 C61 1.260 . S
C58 C62 1.477 . S
C58 H76 0.932 . S
C59 C60 1.384 . S
C59 C61 1.479 . S
C59 H77 0.929 . S
C60 C57 1.424 . S
C60 C59 1.384 . S
C60 H78 0.928 . S
C61 C58 1.260 . S
C61 C59 1.479 . S
C62 C57 1.245 . S
C62 C58 1.477 . S
C62 H79 0.932 . S
C63 U46 2.882 . S
C63 C57 1.428 . S
C63 O66 1.301 . S
C63 O67 1.282 . S
O64 U46 2.441 . S
O64 C50 1.249 . S
O65 U46 2.420 . S
O65 C50 1.202 . S
O66 U46 2.455 . S
O66 C63 1.301 . S
O67 U46 2.449 . S
O67 C63 1.282 . S
H68 C41 0.931 . S
H69 C43 0.929 . S
H70 C44 0.930 . S
H71 C45 0.931 . S
H72 C52 0.932 . S
H73 C53 0.930 . S
H74 C54 0.929 . S
H75 C56 0.930 . S
H76 C58 0.932 . S
H77 C59 0.929 . S
H78 C60 0.928 . S
H79 C62 0.932 . S
C80 C81 1.264 . S
C80 C85 1.479 . S
C80 C90 1.465 1_556 S
C81 C80 1.264 . S
C81 C83 1.339 . S
C81 H108 0.931 1_656 S
C82 C83 1.395 . S
C82 C84 1.320 . S
C83 C81 1.339 . S
C83 C82 1.395 . S
C83 H109 0.929 1_655 S
C84 C82 1.320 . S
C84 C85 1.405 . S
C84 H110 0.930 . S
C85 C80 1.479 . S
C85 C84 1.405 . S
C85 H111 0.931 . S
U86 O87 2.454 . S
U86 O88 2.458 . S
U86 C89 2.984 . S
U86 C90 2.847 . S
U86 C103 2.882 . S
U86 O104 2.441 . S
U86 O105 2.420 . S
U86 O106 2.455 . S
U86 O107 2.443 1_655 S
O87 U86 2.454 . S
O87 C89 1.353 . S
O88 U86 2.458 . S
O88 C89 1.286 . S
C89 U86 2.984 . S
C89 O87 1.353 . S
C89 O88 1.286 . S
C89 C91 1.363 . S
C90 C80 1.465 1_554 S
C90 U86 2.847 . S
C90 O104 1.249 . S
C90 O105 1.202 . S
C91 C89 1.363 . S
C91 C93 1.408 . S
C91 C96 1.342 . S
C92 C93 1.310 . S
C92 C95 1.461 . S
C92 H112 0.908 1_554 S
C93 C91 1.408 . S
C93 C92 1.310 . S
C93 H113 0.930 . S
C94 C95 1.474 . S
C94 C96 1.285 . S
C94 H114 0.929 . S
C95 C92 1.461 . S
C95 C94 1.474 . S
C96 C91 1.342 . S
C96 C94 1.285 . S
C96 H115 0.930 . S
C97 C100 1.424 . S
C97 C102 1.245 . S
C97 C103 1.428 1_455 S
C98 C101 1.260 . S
C98 C102 1.477 . S
C98 H116 0.932 . S
C99 C100 1.384 . S
C99 C101 1.479 . S
C99 H117 0.929 . S
C100 C97 1.424 . S
C100 C99 1.384 . S
C100 H118 0.928 . S
C101 C98 1.260 . S
C101 C99 1.479 . S
C102 C97 1.245 . S
C102 C98 1.477 . S
C102 H119 0.932 1_455 S
C103 U86 2.882 . S
C103 C97 1.428 1_655 S
C103 O106 1.301 . S
C103 O107 1.281 1_655 S
O104 U86 2.441 . S
O104 C90 1.249 . S
O105 U86 2.420 . S
O105 C90 1.202 . S
O106 U86 2.455 . S
O106 C103 1.301 . S
O107 U86 2.443 1_455 S
O107 C103 1.281 1_455 S
H108 C81 0.931 1_454 S
H109 C83 0.929 1_455 S
H110 C84 0.930 . S
H111 C85 0.931 . S
H112 C92 0.908 1_556 S
H113 C93 0.930 . S
H114 C94 0.929 . S
H115 C96 0.930 . S
H116 C98 0.932 . S
H117 C99 0.929 . S
H118 C100 0.928 . S
H119 C102 0.932 1_655 S
C120 C121 1.264 . S
C120 C125 1.479 . S
C120 C130 1.465 . S
C121 C120 1.264 . S
C121 C123 1.339 . S
C121 H148 0.931 . S
C122 C123 1.395 . S
C122 C124 1.320 . S
C123 C121 1.339 . S
C123 C122 1.395 . S
C123 H149 0.929 . S
C124 C122 1.320 . S
C124 C125 1.405 . S
C124 H150 0.930 . S
C125 C120 1.479 . S
C125 C124 1.405 . S
C125 H151 0.931 . S
U126 O127 2.454 . S
U126 O128 2.458 . S
U126 C129 2.984 . S
U126 C130 2.847 . S
U126 C143 2.882 . S
U126 O144 2.441 . S
U126 O145 2.420 . S
U126 O146 2.455 . S
U126 O147 2.449 . S
O127 U126 2.454 . S
O127 C129 1.353 . S
O128 U126 2.458 . S
O128 C129 1.286 . S
C129 U126 2.984 . S
C129 O127 1.353 . S
C129 O128 1.286 . S
C129 C131 1.363 . S
C130 C120 1.465 . S
C130 U126 2.847 . S
C130 O144 1.249 . S
C130 O145 1.202 . S
C131 C129 1.363 . S
C131 C133 1.408 . S
C131 C136 1.342 . S
C132 C133 1.310 . S
C132 C135 1.461 . S
C132 H152 0.932 . S
C133 C131 1.408 . S
C133 C132 1.310 . S
C133 H153 0.930 . S
C134 C135 1.474 . S
C134 C136 1.285 . S
C134 H154 0.929 . S
C135 C132 1.461 . S
C135 C134 1.474 . S
C136 C131 1.342 . S
C136 C134 1.285 . S
C136 H155 0.930 . S
C137 C140 1.424 . S
C137 C142 1.245 . S
C137 C143 1.428 . S
C138 C141 1.260 . S
C138 C142 1.477 . S
C138 H156 0.932 . S
C139 C140 1.384 . S
C139 C141 1.479 . S
C139 H157 0.929 . S
C140 C137 1.424 . S
C140 C139 1.384 . S
C140 H158 0.928 . S
C141 C138 1.260 . S
C141 C139 1.479 . S
C142 C137 1.245 . S
C142 C138 1.477 . S
C142 H159 0.932 . S
C143 U126 2.882 . S
C143 C137 1.428 . S
C143 O146 1.301 . S
C143 O147 1.282 . S
O144 U126 2.441 . S
O144 C130 1.249 . S
O145 U126 2.420 . S
O145 C130 1.202 . S
O146 U126 2.455 . S
O146 C143 1.301 . S
O147 U126 2.449 . S
O147 C143 1.282 . S
H148 C121 0.931 . S
H149 C123 0.929 . S
H150 C124 0.930 . S
H151 C125 0.931 . S
H152 C132 0.932 . S
H153 C133 0.930 . S
H154 C134 0.929 . S
H155 C136 0.930 . S
H156 C138 0.932 . S
H157 C139 0.929 . S
H158 C140 0.928 . S
H159 C142 0.932 . S
C160 C161 1.243 1_665 S
C160 C165 1.479 . S
C160 C170 1.465 1_655 S
C161 C160 1.243 1_445 S
C161 C163 1.328 1_455 S
C161 H188 0.964 . S
C162 C163 1.395 1_565 S
C162 C164 1.320 . S
C163 C161 1.328 1_655 S
C163 C162 1.395 1_545 S
C163 H189 0.929 . S
C164 C162 1.320 . S
C164 C165 1.405 . S
C164 H190 0.930 . S
C165 C160 1.479 . S
C165 C164 1.405 . S
C165 H191 0.931 . S
U166 O167 2.454 . S
U166 O168 2.458 . S
U166 C169 2.984 . S
U166 C170 2.847 . S
U166 C183 2.882 1_565 S
U166 O184 2.441 . S
U166 O185 2.420 . S
U166 O186 2.455 . S
U166 O187 2.449 1_565 S
O167 U166 2.454 . S
O167 C169 1.353 . S
O168 U166 2.458 . S
O168 C169 1.286 . S
C169 U166 2.984 . S
C169 O167 1.353 . S
C169 O168 1.286 . S
C169 C171 1.363 . S
C170 C160 1.465 1_455 S
C170 U166 2.847 . S
C170 O184 1.249 . S
C170 O185 1.202 . S
C171 C169 1.363 . S
C171 C173 1.408 . S
C171 C176 1.342 . S
C172 C173 1.310 . S
C172 C175 1.461 . S
C172 H192 0.932 . S
C173 C171 1.408 . S
C173 C172 1.310 . S
C173 H193 0.930 . S
C174 C175 1.474 . S
C174 C176 1.285 . S
C174 H194 0.929 . S
C175 C172 1.461 . S
C175 C174 1.474 . S
C176 C171 1.342 . S
C176 C174 1.285 . S
C176 H195 0.930 . S
C177 C180 1.424 . S
C177 C182 1.245 . S
C177 C183 1.428 . S
C178 C181 1.260 . S
C178 C182 1.477 . S
C178 H196 0.932 . S
C179 C180 1.384 . S
C179 C181 1.479 . S
C179 H197 0.929 . S
C180 C177 1.424 . S
C180 C179 1.384 . S
C180 H198 0.928 . S
C181 C178 1.260 . S
C181 C179 1.479 . S
C182 C177 1.245 . S
C182 C178 1.477 . S
C182 H199 0.924 1_545 S
C183 U166 2.882 1_545 S
C183 C177 1.428 . S
C183 O186 1.301 1_545 S
C183 O187 1.282 . S
O184 U166 2.441 . S
O184 C170 1.249 . S
O185 U166 2.420 . S
O185 C170 1.202 . S
O186 U166 2.455 . S
O186 C183 1.301 1_565 S
O187 U166 2.449 1_545 S
O187 C183 1.282 . S
H188 C161 0.964 . S
H189 C163 0.929 . S
H190 C164 0.930 . S
H191 C165 0.931 . S
H192 C172 0.932 . S
H193 C173 0.930 . S
H194 C174 0.929 . S
H195 C176 0.930 . S
H196 C178 0.932 . S
H197 C179 0.929 . S
H198 C180 0.928 . S
H199 C182 0.924 1_565 S
C200 C201 1.264 . S
C200 C205 1.479 . S
C200 C210 1.465 . S
C201 C200 1.264 . S
C201 C203 1.339 . S
C201 H228 0.931 . S
C202 C203 1.395 . S
C202 C204 1.320 . S
C203 C201 1.339 . S
C203 C202 1.395 . S
C203 H229 0.929 . S
C204 C202 1.320 . S
C204 C205 1.405 . S
C204 H230 0.930 . S
C205 C200 1.479 . S
C205 C204 1.405 . S
C205 H231 0.931 . S
U206 O207 2.454 . S
U206 O208 2.458 . S
U206 C209 2.984 . S
U206 C210 2.847 . S
U206 C223 2.882 . S
U206 O224 2.441 . S
U206 O225 2.420 . S
U206 O226 2.455 . S
U206 O227 2.449 . S
O207 U206 2.454 . S
O207 C209 1.353 . S
O208 U206 2.458 . S
O208 C209 1.286 . S
C209 U206 2.984 . S
C209 O207 1.353 . S
C209 O208 1.286 . S
C209 C211 1.363 . S
C210 C200 1.465 . S
C210 U206 2.847 . S
C210 O224 1.249 . S
C210 O225 1.202 . S
C211 C209 1.363 . S
C211 C213 1.408 . S
C211 C216 1.342 . S
C212 C213 1.310 . S
C212 C215 1.461 . S
C212 H232 0.932 . S
C213 C211 1.408 . S
C213 C212 1.310 . S
C213 H233 0.930 . S
C214 C215 1.474 . S
C214 C216 1.285 . S
C214 H234 0.929 . S
C215 C212 1.461 . S
C215 C214 1.474 . S
C216 C211 1.342 . S
C216 C214 1.285 . S
C216 H235 0.930 . S
C217 C220 1.424 . S
C217 C222 1.245 . S
C217 C223 1.428 . S
C218 C221 1.260 . S
C218 C222 1.477 . S
C218 H236 0.932 . S
C219 C220 1.384 . S
C219 C221 1.479 . S
C219 H237 0.929 . S
C220 C217 1.424 . S
C220 C219 1.384 . S
C220 H238 0.928 . S
C221 C218 1.260 . S
C221 C219 1.479 . S
C222 C217 1.245 . S
C222 C218 1.477 . S
C222 H239 0.932 . S
C223 U206 2.882 . S
C223 C217 1.428 . S
C223 O226 1.301 . S
C223 O227 1.282 . S
O224 U206 2.441 . S
O224 C210 1.249 . S
O225 U206 2.420 . S
O225 C210 1.202 . S
O226 U206 2.455 . S
O226 C223 1.301 . S
O227 U206 2.449 . S
O227 C223 1.282 . S
H228 C201 0.931 . S
H229 C203 0.929 . S
H230 C204 0.930 . S
H231 C205 0.931 . S
H232 C212 0.932 . S
H233 C213 0.930 . S
H234 C214 0.929 . S
H235 C216 0.930 . S
H236 C218 0.932 . S
H237 C219 0.929 . S
H238 C220 0.928 . S
H239 C222 0.932 . S
C240 C241 1.264 . S
C240 C245 1.479 . S
C240 C250 1.465 . S
C241 C240 1.264 . S
C241 C243 1.339 . S
C241 H268 0.931 1_655 S
C242 C243 1.395 . S
C242 C244 1.320 . S
C243 C241 1.339 . S
C243 C242 1.395 . S
C243 H269 0.929 1_655 S
C244 C242 1.320 . S
C244 C245 1.405 . S
C244 H270 0.930 . S
C245 C240 1.479 . S
C245 C244 1.405 . S
C245 H271 0.931 . S
U246 O247 2.454 . S
U246 O248 2.458 . S
U246 C249 2.984 . S
U246 C250 2.847 . S
U246 C263 2.882 . S
U246 O264 2.441 . S
U246 O265 2.420 . S
U246 O266 2.455 . S
U246 O267 2.449 . S
O247 U246 2.454 . S
O247 C249 1.353 . S
O248 U246 2.458 . S
O248 C249 1.286 . S
C249 U246 2.984 . S
C249 O247 1.353 . S
C249 O248 1.286 . S
C249 C251 1.363 . S
C250 C240 1.465 . S
C250 U246 2.847 . S
C250 O264 1.249 . S
C250 O265 1.202 . S
C251 C249 1.363 . S
C251 C253 1.408 . S
C251 C256 1.342 . S
C252 C253 1.310 . S
C252 C255 1.461 . S
C252 H272 0.932 . S
C253 C251 1.408 . S
C253 C252 1.310 . S
C253 H273 0.930 . S
C254 C255 1.474 . S
C254 C256 1.285 . S
C254 H274 0.929 . S
C255 C252 1.461 . S
C255 C254 1.474 . S
C256 C251 1.342 . S
C256 C254 1.285 . S
C256 H275 0.930 . S
C257 C260 1.424 . S
C257 C262 1.245 . S
C257 C263 1.428 1_455 S
C258 C261 1.260 . S
C258 C262 1.477 . S
C258 H276 0.932 . S
C259 C260 1.384 . S
C259 C261 1.479 . S
C259 H277 0.929 . S
C260 C257 1.424 . S
C260 C259 1.384 . S
C260 H278 0.928 . S
C261 C258 1.260 . S
C261 C259 1.479 . S
C262 C257 1.245 . S
C262 C258 1.477 . S
C262 H279 0.932 1_455 S
C263 U246 2.882 . S
C263 C257 1.428 1_655 S
C263 O266 1.301 . S
C263 O267 1.282 . S
O264 U246 2.441 . S
O264 C250 1.249 . S
O265 U246 2.420 . S
O265 C250 1.202 . S
O266 U246 2.455 . S
O266 C263 1.301 . S
O267 U246 2.449 . S
O267 C263 1.282 . S
H268 C241 0.931 1_455 S
H269 C243 0.929 1_455 S
H270 C244 0.930 . S
H271 C245 0.931 . S
H272 C252 0.932 . S
H273 C253 0.930 . S
H274 C254 0.929 . S
H275 C256 0.930 . S
H276 C258 0.932 . S
H277 C259 0.929 . S
H278 C260 0.928 . S
H279 C262 0.932 1_655 S
C280 C281 1.264 . S
C280 C285 1.479 . S
C280 C290 1.465 . S
C281 C280 1.264 . S
C281 C283 1.339 . S
C281 H308 0.931 . S
C282 C283 1.395 . S
C282 C284 1.320 . S
C283 C281 1.339 . S
C283 C282 1.395 . S
C283 H309 0.929 . S
C284 C282 1.320 . S
C284 C285 1.405 . S
C284 H310 0.930 . S
C285 C280 1.479 . S
C285 C284 1.405 . S
C285 H311 0.931 . S
U286 O287 2.454 . S
U286 O288 2.458 . S
U286 C289 2.984 . S
U286 C290 2.847 . S
U286 C303 2.882 . S
U286 O304 2.441 . S
U286 O305 2.420 . S
U286 O306 2.455 . S
U286 O307 2.449 . S
O287 U286 2.454 . S
O287 C289 1.353 . S
O288 U286 2.458 . S
O288 C289 1.286 . S
C289 U286 2.984 . S
C289 O287 1.353 . S
C289 O288 1.286 . S
C289 C291 1.363 . S
C290 C280 1.465 . S
C290 U286 2.847 . S
C290 O304 1.249 . S
C290 O305 1.202 . S
C291 C289 1.363 . S
C291 C293 1.408 . S
C291 C296 1.342 . S
C292 C293 1.310 . S
C292 C295 1.461 . S
C292 H312 0.932 . S
C293 C291 1.408 . S
C293 C292 1.310 . S
C293 H313 0.930 . S
C294 C295 1.474 . S
C294 C296 1.285 . S
C294 H314 0.929 . S
C295 C292 1.461 . S
C295 C294 1.474 . S
C296 C291 1.342 . S
C296 C294 1.285 . S
C296 H315 0.930 . S
C297 C300 1.424 . S
C297 C302 1.245 . S
C297 C303 1.428 . S
C298 C301 1.260 . S
C298 C302 1.477 . S
C298 H316 0.932 . S
C299 C300 1.384 . S
C299 C301 1.479 . S
C299 H317 0.929 . S
C300 C297 1.424 . S
C300 C299 1.384 . S
C300 H318 0.928 . S
C301 C298 1.260 . S
C301 C299 1.479 . S
C302 C297 1.245 . S
C302 C298 1.477 . S
C302 H319 0.932 . S
C303 U286 2.882 . S
C303 C297 1.428 . S
C303 O306 1.301 . S
C303 O307 1.282 . S
O304 U286 2.441 . S
O304 C290 1.249 . S
O305 U286 2.420 . S
O305 C290 1.202 . S
O306 U286 2.455 . S
O306 C303 1.301 . S
O307 U286 2.449 . S
O307 C303 1.282 . S
H308 C281 0.931 . S
H309 C283 0.929 . S
H310 C284 0.930 . S
H311 C285 0.931 . S
H312 C292 0.932 . S
H313 C293 0.930 . S
H314 C294 0.929 . S
H315 C296 0.930 . S
H316 C298 0.932 . S
H317 C299 0.929 . S
H318 C300 0.928 . S
H319 C302 0.932 . S
C320 C321 1.264 . S
C320 C325 1.479 . S
C320 C330 1.465 . S
C321 C320 1.264 . S
C321 C323 1.339 . S
C321 H348 0.931 . S
C322 C323 1.395 . S
C322 C324 1.320 . S
C323 C321 1.339 . S
C323 C322 1.395 . S
C323 H349 0.929 . S
C324 C322 1.320 . S
C324 C325 1.405 . S
C324 H350 0.930 . S
C325 C320 1.479 . S
C325 C324 1.405 . S
C325 H351 0.931 . S
U326 O327 2.454 . S
U326 O328 2.458 . S
U326 C329 2.984 . S
U326 C330 2.847 . S
U326 C343 2.882 . S
U326 O344 2.441 . S
U326 O345 2.420 . S
U326 O346 2.455 . S
U326 O347 2.449 . S
O327 U326 2.454 . S
O327 C329 1.353 . S
O328 U326 2.458 . S
O328 C329 1.286 . S
C329 U326 2.984 . S
C329 O327 1.353 . S
C329 O328 1.286 . S
C329 C331 1.363 . S
C330 C320 1.465 . S
C330 U326 2.847 . S
C330 O344 1.249 . S
C330 O345 1.202 . S
C331 C329 1.363 . S
C331 C333 1.408 . S
C331 C336 1.342 . S
C332 C333 1.310 . S
C332 C335 1.461 . S
C332 H352 0.932 . S
C333 C331 1.408 . S
C333 C332 1.310 . S
C333 H353 0.930 . S
C334 C335 1.474 . S
C334 C336 1.285 . S
C334 H354 0.929 . S
C335 C332 1.461 . S
C335 C334 1.474 . S
C336 C331 1.342 . S
C336 C334 1.285 . S
C336 H355 0.930 . S
C337 C340 1.424 . S
C337 C342 1.245 . S
C337 C343 1.428 . S
C338 C341 1.260 . S
C338 C342 1.477 . S
C338 H356 0.932 . S
C339 C340 1.384 . S
C339 C341 1.479 . S
C339 H357 0.929 . S
C340 C337 1.424 . S
C340 C339 1.384 . S
C340 H358 0.928 . S
C341 C338 1.260 . S
C341 C339 1.479 . S
C342 C337 1.245 . S
C342 C338 1.477 . S
C342 H359 0.932 . S
C343 U326 2.882 . S
C343 C337 1.428 . S
C343 O346 1.301 . S
C343 O347 1.282 . S
O344 U326 2.441 . S
O344 C330 1.249 . S
O345 U326 2.420 . S
O345 C330 1.202 . S
O346 U326 2.455 . S
O346 C343 1.301 . S
O347 U326 2.449 . S
O347 C343 1.282 . S
H348 C321 0.931 . S
H349 C323 0.929 . S
H350 C324 0.930 . S
H351 C325 0.931 . S
H352 C332 0.932 . S
H353 C333 0.930 . S
H354 C334 0.929 . S
H355 C336 0.930 . S
H356 C338 0.932 . S
H357 C339 0.929 . S
H358 C340 0.928 . S
H359 C342 0.932 . S
C360 C361 1.264 . S
C360 C365 1.479 . S
C360 C370 1.465 . S
C361 C360 1.264 . S
C361 C363 1.339 . S
C361 H388 0.931 . S
C362 C363 1.395 . S
C362 C364 1.320 . S
C363 C361 1.339 . S
C363 C362 1.395 . S
C363 H389 0.929 . S
C364 C362 1.320 . S
C364 C365 1.405 . S
C364 H390 0.930 . S
C365 C360 1.479 . S
C365 C364 1.405 . S
C365 H391 0.931 . S
U366 O367 2.454 . S
U366 O368 2.458 . S
U366 C369 2.984 . S
U366 C370 2.847 . S
U366 C383 2.882 . S
U366 O384 2.441 . S
U366 O385 2.420 . S
U366 O386 2.455 . S
U366 O387 2.449 . S
O367 U366 2.454 . S
O367 C369 1.353 . S
O368 U366 2.458 . S
O368 C369 1.286 . S
C369 U366 2.984 . S
C369 O367 1.353 . S
C369 O368 1.286 . S
C369 C371 1.363 1_565 S
C370 C360 1.465 . S
C370 U366 2.847 . S
C370 O384 1.249 . S
C370 O385 1.202 . S
C371 C369 1.363 1_545 S
C371 C373 1.408 . S
C371 C376 1.342 . S
C372 C373 1.310 . S
C372 C375 1.461 . S
C372 H392 0.932 . S
C373 C371 1.408 . S
C373 C372 1.310 . S
C373 H393 0.930 1_545 S
C374 C375 1.474 . S
C374 C376 1.285 . S
C374 H394 0.929 . S
C375 C372 1.461 . S
C375 C374 1.474 . S
C376 C371 1.342 . S
C376 C374 1.285 . S
C376 H395 0.930 . S
C377 C380 1.424 . S
C377 C382 1.245 . S
C377 C383 1.428 . S
C378 C381 1.260 . S
C378 C382 1.477 . S
C378 H396 0.932 1_565 S
C379 C380 1.384 . S
C379 C381 1.479 . S
C379 H397 0.929 . S
C380 C377 1.424 . S
C380 C379 1.384 . S
C380 H398 0.928 . S
C381 C378 1.260 . S
C381 C379 1.479 . S
C382 C377 1.245 . S
C382 C378 1.477 . S
C382 H399 0.932 1_565 S
C383 U366 2.882 . S
C383 C377 1.428 . S
C383 O386 1.301 . S
C383 O387 1.282 . S
O384 U366 2.441 . S
O384 C370 1.249 . S
O385 U366 2.420 . S
O385 C370 1.202 . S
O386 U366 2.455 . S
O386 C383 1.301 . S
O387 U366 2.449 . S
O387 C383 1.282 . S
H388 C361 0.931 . S
H389 C363 0.929 . S
H390 C364 0.930 . S
H391 C365 0.931 . S
H392 C372 0.932 . S
H393 C373 0.930 1_565 S
H394 C374 0.929 . S
H395 C376 0.930 . S
H396 C378 0.932 1_545 S
H397 C379 0.929 . S
H398 C380 0.928 . S
H399 C382 0.932 1_545 S
C400 C401 1.264 . S
C400 C405 1.479 . S
C400 C410 1.465 . S
C401 C400 1.264 . S
C401 C403 1.339 . S
C401 H428 0.931 . S
C402 C403 1.395 . S
C402 C404 1.320 . S
C403 C401 1.339 . S
C403 C402 1.395 . S
C403 H429 0.929 . S
C404 C402 1.320 . S
C404 C405 1.405 . S
C404 H430 0.930 . S
C405 C400 1.479 . S
C405 C404 1.405 . S
C405 H431 0.931 . S
U406 O407 2.454 . S
U406 O408 2.458 . S
U406 C409 2.984 . S
U406 C410 2.847 . S
U406 C423 2.882 . S
U406 O424 2.441 . S
U406 O425 2.420 . S
U406 O426 2.455 . S
U406 O427 2.449 . S
O407 U406 2.454 . S
O407 C409 1.353 . S
O408 U406 2.458 . S
O408 C409 1.286 . S
C409 U406 2.984 . S
C409 O407 1.353 . S
C409 O408 1.286 . S
C409 C411 1.363 . S
C410 C400 1.465 . S
C410 U406 2.847 . S
C410 O424 1.249 . S
C410 O425 1.202 . S
C411 C409 1.363 . S
C411 C413 1.408 . S
C411 C416 1.342 . S
C412 C413 1.310 . S
C412 C415 1.461 . S
C412 H432 0.932 . S
C413 C411 1.408 . S
C413 C412 1.310 . S
C413 H433 0.930 . S
C414 C415 1.474 . S
C414 C416 1.285 . S
C414 H434 0.929 . S
C415 C412 1.461 . S
C415 C414 1.474 . S
C416 C411 1.342 . S
C416 C414 1.285 . S
C416 H435 0.930 . S
C417 C420 1.424 . S
C417 C422 1.245 . S
C417 C423 1.428 . S
C418 C421 1.260 . S
C418 C422 1.477 . S
C418 H436 0.932 . S
C419 C420 1.384 . S
C419 C421 1.479 . S
C419 H437 0.929 . S
C420 C417 1.424 . S
C420 C419 1.384 . S
C420 H438 0.928 . S
C421 C418 1.260 . S
C421 C419 1.479 . S
C422 C417 1.245 . S
C422 C418 1.477 . S
C422 H439 0.932 . S
C423 U406 2.882 . S
C423 C417 1.428 . S
C423 O426 1.301 . S
C423 O427 1.282 . S
O424 U406 2.441 . S
O424 C410 1.249 . S
O425 U406 2.420 . S
O425 C410 1.202 . S
O426 U406 2.455 . S
O426 C423 1.301 . S
O427 U406 2.449 . S
O427 C423 1.282 . S
H428 C401 0.931 . S
H429 C403 0.929 . S
H430 C404 0.930 . S
H431 C405 0.931 . S
H432 C412 0.932 . S
H433 C413 0.930 . S
H434 C414 0.929 . S
H435 C416 0.930 . S
H436 C418 0.932 . S
H437 C419 0.929 . S
H438 C420 0.928 . S
H439 C422 0.932 . S
C440 C441 1.264 . S
C440 C445 1.479 . S
C440 C450 1.465 . S
C441 C440 1.264 . S
C441 C443 1.339 . S
C441 H468 0.931 . S
C442 C443 1.395 . S
C442 C444 1.320 . S
C443 C441 1.339 . S
C443 C442 1.395 . S
C443 H469 0.929 . S
C444 C442 1.320 . S
C444 C445 1.405 . S
C444 H470 0.930 . S
C445 C440 1.479 . S
C445 C444 1.405 . S
C445 H471 0.931 . S
U446 O447 2.454 . S
U446 O448 2.458 . S
U446 C449 2.984 . S
U446 C450 2.847 . S
U446 C463 2.882 . S
U446 O464 2.441 . S
U446 O465 2.420 . S
U446 O466 2.455 . S
U446 O467 2.449 . S
O447 U446 2.454 . S
O447 C449 1.353 . S
O448 U446 2.458 . S
O448 C449 1.286 . S
C449 U446 2.984 . S
C449 O447 1.353 . S
C449 O448 1.286 . S
C449 C451 1.363 . S
C450 C440 1.465 . S
C450 U446 2.847 . S
C450 O464 1.249 . S
C450 O465 1.202 . S
C451 C449 1.363 . S
C451 C453 1.408 . S
C451 C456 1.342 . S
C452 C453 1.310 . S
C452 C455 1.461 . S
C452 H472 0.932 . S
C453 C451 1.408 . S
C453 C452 1.310 . S
C453 H473 0.930 . S
C454 C455 1.474 . S
C454 C456 1.285 . S
C454 H474 0.929 . S
C455 C452 1.461 . S
C455 C454 1.474 . S
C456 C451 1.342 . S
C456 C454 1.285 . S
C456 H475 0.930 . S
C457 C460 1.424 . S
C457 C462 1.245 . S
C457 C463 1.428 . S
C458 C461 1.260 . S
C458 C462 1.477 . S
C458 H476 0.932 . S
C459 C460 1.384 . S
C459 C461 1.479 . S
C459 H477 0.929 . S
C460 C457 1.424 . S
C460 C459 1.384 . S
C460 H478 0.928 . S
C461 C458 1.260 . S
C461 C459 1.479 . S
C462 C457 1.245 . S
C462 C458 1.477 . S
C462 H479 0.932 . S
C463 U446 2.882 . S
C463 C457 1.428 . S
C463 O466 1.301 . S
C463 O467 1.282 . S
O464 U446 2.441 . S
O464 C450 1.249 . S
O465 U446 2.420 . S
O465 C450 1.202 . S
O466 U446 2.455 . S
O466 C463 1.301 . S
O467 U446 2.449 . S
O467 C463 1.282 . S
H468 C441 0.931 . S
H469 C443 0.929 . S
H470 C444 0.930 . S
H471 C445 0.931 . S
H472 C452 0.932 . S
H473 C453 0.930 . S
H474 C454 0.929 . S
H475 C456 0.930 . S
H476 C458 0.932 . S
H477 C459 0.929 . S
H478 C460 0.928 . S
H479 C462 0.932 . S
C480 C481 1.264 . S
C480 C485 1.479 . S
C480 C490 1.465 . S
C481 C480 1.264 . S
C481 C483 1.339 . S
C481 H508 0.931 . S
C482 C483 1.395 . S
C482 C484 1.320 . S
C483 C481 1.339 . S
C483 C482 1.395 . S
C483 H509 0.929 . S
C484 C482 1.320 . S
C484 C485 1.405 . S
C484 H510 0.930 . S
C485 C480 1.479 . S
C485 C484 1.405 . S
C485 H511 0.931 . S
U486 O487 2.454 . S
U486 O488 2.458 . S
U486 C489 2.984 . S
U486 C490 2.847 . S
U486 C503 2.882 . S
U486 O504 2.441 . S
U486 O505 2.420 . S
U486 O506 2.455 . S
U486 O507 2.449 . S
O487 U486 2.454 . S
O487 C489 1.353 . S
O488 U486 2.458 . S
O488 C489 1.286 . S
C489 U486 2.984 . S
C489 O487 1.353 . S
C489 O488 1.286 . S
C489 C491 1.363 . S
C490 C480 1.465 . S
C490 U486 2.847 . S
C490 O504 1.249 . S
C490 O505 1.202 . S
C491 C489 1.363 . S
C491 C493 1.408 . S
C491 C496 1.342 . S
C492 C493 1.310 . S
C492 C495 1.461 . S
C492 H512 0.932 . S
C493 C491 1.408 . S
C493 C492 1.310 . S
C493 H513 0.930 . S
C494 C495 1.474 . S
C494 C496 1.285 . S
C494 H514 0.929 . S
C495 C492 1.461 . S
C495 C494 1.474 . S
C496 C491 1.342 . S
C496 C494 1.285 . S
C496 H515 0.930 . S
C497 C500 1.424 . S
C497 C502 1.245 . S
C497 C503 1.428 . S
C498 C501 1.260 . S
C498 C502 1.477 . S
C498 H516 0.932 . S
C499 C500 1.384 . S
C499 C501 1.479 . S
C499 H517 0.929 . S
C500 C497 1.424 . S
C500 C499 1.384 . S
C500 H518 0.928 . S
C501 C498 1.260 . S
C501 C499 1.479 . S
C502 C497 1.245 . S
C502 C498 1.477 . S
C502 H519 0.932 . S
C503 U486 2.882 . S
C503 C497 1.428 . S
C503 O506 1.301 . S
C503 O507 1.282 . S
O504 U486 2.441 . S
O504 C490 1.249 . S
O505 U486 2.420 . S
O505 C490 1.202 . S
O506 U486 2.455 . S
O506 C503 1.301 . S
O507 U486 2.449 . S
O507 C503 1.282 . S
H508 C481 0.931 . S
H509 C483 0.929 . S
H510 C484 0.930 . S
H511 C485 0.931 . S
H512 C492 0.932 . S
H513 C493 0.930 . S
H514 C494 0.929 . S
H515 C496 0.930 . S
H516 C498 0.932 . S
H517 C499 0.929 . S
H518 C500 0.928 . S
H519 C502 0.932 . S
C520 C521 1.264 . S
C520 C525 1.479 . S
C520 C530 1.465 . S
C521 C520 1.264 . S
C521 C523 1.339 . S
C521 H548 0.931 . S
C522 C523 1.395 . S
C522 C524 1.320 . S
C523 C521 1.339 . S
C523 C522 1.395 . S
C523 H549 0.929 . S
C524 C522 1.320 . S
C524 C525 1.405 . S
C524 H550 0.930 . S
C525 C520 1.479 . S
C525 C524 1.405 . S
C525 H551 0.931 . S
U526 O527 2.454 . S
U526 O528 2.458 . S
U526 C529 2.984 . S
U526 C530 2.847 . S
U526 C543 2.882 . S
U526 O544 2.441 . S
U526 O545 2.420 . S
U526 O546 2.455 . S
U526 O547 2.449 . S
O527 U526 2.454 . S
O527 C529 1.353 . S
O528 U526 2.458 . S
O528 C529 1.286 . S
C529 U526 2.984 . S
C529 O527 1.353 . S
C529 O528 1.286 . S
C529 C531 1.333 1_556 S
C530 C520 1.465 . S
C530 U526 2.847 . S
C530 O544 1.249 . S
C530 O545 1.202 . S
C531 C529 1.333 1_554 S
C531 C533 1.402 1_554 S
C531 C536 1.378 . S
C532 C533 1.310 1_554 S
C532 C535 1.461 . S
C532 H552 0.932 . S
C533 C531 1.402 1_556 S
C533 C532 1.310 1_556 S
C533 H553 0.930 . S
C534 C535 1.474 . S
C534 C536 1.285 . S
C534 H554 0.929 . S
C535 C532 1.461 . S
C535 C534 1.474 . S
C536 C531 1.378 . S
C536 C534 1.285 . S
C536 H555 0.930 . S
C537 C540 1.424 . S
C537 C542 1.245 . S
C537 C543 1.428 . S
C538 C541 1.260 . S
C538 C542 1.477 . S
C538 H556 0.932 . S
C539 C540 1.384 . S
C539 C541 1.479 . S
C539 H557 0.929 . S
C540 C537 1.424 . S
C540 C539 1.384 . S
C540 H558 0.928 . S
C541 C538 1.260 . S
C541 C539 1.479 . S
C542 C537 1.245 . S
C542 C538 1.477 . S
C542 H559 0.932 . S
C543 U526 2.882 . S
C543 C537 1.428 . S
C543 O546 1.301 . S
C543 O547 1.282 . S
O544 U526 2.441 . S
O544 C530 1.249 . S
O545 U526 2.420 . S
O545 C530 1.202 . S
O546 U526 2.455 . S
O546 C543 1.301 . S
O547 U526 2.449 . S
O547 C543 1.282 . S
H548 C521 0.931 . S
H549 C523 0.929 . S
H550 C524 0.930 . S
H551 C525 0.931 . S
H552 C532 0.932 . S
H553 C533 0.930 . S
H554 C534 0.929 . S
H555 C536 0.930 . S
H556 C538 0.932 . S
H557 C539 0.929 . S
H558 C540 0.928 . S
H559 C542 0.932 . S
C560 C561 1.264 . S
C560 C565 1.479 . S
C560 C570 1.465 . S
C561 C560 1.264 . S
C561 C563 1.339 . S
C561 H588 0.931 . S
C562 C563 1.395 . S
C562 C564 1.320 . S
C563 C561 1.339 . S
C563 C562 1.395 . S
C563 H589 0.929 . S
C564 C562 1.320 . S
C564 C565 1.405 . S
C564 H590 0.930 . S
C565 C560 1.479 . S
C565 C564 1.405 . S
C565 H591 0.931 . S
U566 O567 2.454 . S
U566 O568 2.458 . S
U566 C569 2.984 . S
U566 C570 2.847 . S
U566 C583 2.882 . S
U566 O584 2.441 . S
U566 O585 2.420 . S
U566 O586 2.455 . S
U566 O587 2.449 . S
O567 U566 2.454 . S
O567 C569 1.353 . S
O568 U566 2.458 . S
O568 C569 1.286 . S
C569 U566 2.984 . S
C569 O567 1.353 . S
C569 O568 1.286 . S
C569 C571 1.363 . S
C570 C560 1.465 . S
C570 U566 2.847 . S
C570 O584 1.249 . S
C570 O585 1.202 . S
C571 C569 1.363 . S
C571 C573 1.408 . S
C571 C576 1.342 . S
C572 C573 1.310 . S
C572 C575 1.461 . S
C572 H592 0.932 . S
C573 C571 1.408 . S
C573 C572 1.310 . S
C573 H593 0.930 . S
C574 C575 1.474 . S
C574 C576 1.285 . S
C574 H594 0.929 . S
C575 C572 1.461 . S
C575 C574 1.474 . S
C576 C571 1.342 . S
C576 C574 1.285 . S
C576 H595 0.930 . S
C577 C580 1.424 . S
C577 C582 1.245 . S
C577 C583 1.428 . S
C578 C581 1.260 . S
C578 C582 1.477 . S
C578 H596 0.932 . S
C579 C580 1.384 . S
C579 C581 1.479 . S
C579 H597 0.929 . S
C580 C577 1.424 . S
C580 C579 1.384 . S
C580 H598 0.928 . S
C581 C578 1.260 . S
C581 C579 1.479 . S
C582 C577 1.245 . S
C582 C578 1.477 . S
C582 H599 0.932 . S
C583 U566 2.882 . S
C583 C577 1.428 . S
C583 O586 1.301 . S
C583 O587 1.282 . S
O584 U566 2.441 . S
O584 C570 1.249 . S
O585 U566 2.420 . S
O585 C570 1.202 . S
O586 U566 2.455 . S
O586 C583 1.301 . S
O587 U566 2.449 . S
O587 C583 1.282 . S
H588 C561 0.931 . S
H589 C563 0.929 . S
H590 C564 0.930 . S
H591 C565 0.931 . S
H592 C572 0.932 . S
H593 C573 0.930 . S
H594 C574 0.929 . S
H595 C576 0.930 . S
H596 C578 0.932 . S
H597 C579 0.929 . S
H598 C580 0.928 . S
H599 C582 0.932 . S
C600 C601 1.264 . S
C600 C605 1.479 . S
C600 C610 1.465 . S
C601 C600 1.264 . S
C601 C603 1.339 . S
C601 H628 0.892 1_554 S
C602 C603 1.395 . S
C602 C604 1.320 . S
C603 C601 1.339 . S
C603 C602 1.395 . S
C603 H629 0.929 . S
C604 C602 1.320 . S
C604 C605 1.405 . S
C604 H630 0.930 . S
C605 C600 1.479 . S
C605 C604 1.405 . S
C605 H631 0.931 . S
U606 O607 2.454 . S
U606 O608 2.458 . S
U606 C609 2.984 . S
U606 C610 2.847 1_556 S
U606 C623 2.882 . S
U606 O624 2.441 1_556 S
U606 O625 2.420 . S
U606 O626 2.455 . S
U606 O627 2.449 . S
O607 U606 2.454 . S
O607 C609 1.353 . S
O608 U606 2.458 . S
O608 C609 1.286 . S
C609 U606 2.984 . S
C609 O607 1.353 . S
C609 O608 1.286 . S
C609 C611 1.363 . S
C610 C600 1.465 . S
C610 U606 2.847 1_554 S
C610 O624 1.249 . S
C610 O625 1.202 1_554 S
C611 C609 1.363 . S
C611 C613 1.408 . S
C611 C616 1.342 1_545 S
C612 C613 1.310 1_565 S
C612 C615 1.461 . S
C612 H632 0.932 1_556 S
C613 C611 1.408 . S
C613 C612 1.310 1_545 S
C613 H633 0.930 1_556 S
C614 C615 1.474 . S
C614 C616 1.285 . S
C614 H634 0.929 . S
C615 C612 1.461 . S
C615 C614 1.474 . S
C616 C611 1.342 1_565 S
C616 C614 1.285 . S
C616 H635 0.930 . S
C617 C620 1.424 . S
C617 C622 1.245 . S
C617 C623 1.428 . S
C618 C621 1.260 . S
C618 C622 1.477 . S
C618 H636 0.932 . S
C619 C620 1.384 . S
C619 C621 1.479 . S
C619 H637 0.929 . S
C620 C617 1.424 . S
C620 C619 1.384 . S
C620 H638 0.928 . S
C621 C618 1.260 . S
C621 C619 1.479 . S
C622 C617 1.245 . S
C622 C618 1.477 . S
C622 H639 0.932 . S
C623 U606 2.882 . S
C623 C617 1.428 . S
C623 O626 1.301 . S
C623 O627 1.282 . S
O624 U606 2.441 1_554 S
O624 C610 1.249 . S
O625 U606 2.420 . S
O625 C610 1.202 1_556 S
O626 U606 2.455 . S
O626 C623 1.301 . S
O627 U606 2.449 . S
O627 C623 1.282 . S
H628 C601 0.892 1_556 S
H629 C603 0.929 . S
H630 C604 0.930 . S
H631 C605 0.931 . S
H632 C612 0.932 1_554 S
H633 C613 0.930 1_554 S
H634 C614 0.929 . S
H635 C616 0.930 . S
H636 C618 0.932 . S
H637 C619 0.929 . S
H638 C620 0.928 . S
H639 C622 0.932 . S
C640 O641 1.183 . S
C640 O647 1.185 . S
O641 C640 1.183 . S
O642 Zn643 1.899 1_556 S
O642 C650 1.284 . S
Zn643 O642 1.899 1_554 S
Zn643 O644 2.032 . S
Zn643 O647 2.086 . S
Zn643 O652 1.977 . S
O644 Zn643 2.032 . S
O644 C648 1.278 . S
C645 O646 1.203 . S
C645 O652 1.267 . S
O646 C645 1.203 . S
O647 C640 1.185 . S
O647 Zn643 2.086 . S
C648 O644 1.278 . S
C648 O649 1.211 . S
O649 C648 1.211 . S
C650 O642 1.284 . S
C650 O651 1.273 . S
O651 C650 1.273 . S
O652 Zn643 1.977 . S
O652 C645 1.267 . S
C653 O654 1.160 . S
C653 O660 1.185 . S
O654 C653 1.160 . S
O655 Zn656 1.899 . S
O655 C663 1.284 . S
Zn656 O655 1.899 . S
Zn656 O657 2.032 . S
Zn656 O660 2.086 . S
Zn656 O665 1.977 . S
O657 Zn656 2.032 . S
O657 C661 1.278 . S
C658 O659 1.203 . S
C658 O665 1.267 . S
O659 C658 1.203 . S
O660 C653 1.185 . S
O660 Zn656 2.086 . S
C661 O657 1.278 . S
C661 O662 1.211 . S
O662 C661 1.211 . S
C663 O655 1.284 . S
C663 O664 1.273 . S
O664 C663 1.273 . S
O665 Zn656 1.977 . S
O665 C658 1.267 . S
C666 O667 1.160 1_554 S
C666 O673 1.185 . S
O667 C666 1.160 1_556 S
O668 Zn669 1.899 1_556 S
O668 C676 1.284 . S
Zn669 O668 1.899 1_554 S
Zn669 O670 2.032 1_554 S
Zn669 O673 2.086 . S
Zn669 O678 1.977 . S
O670 Zn669 2.032 1_556 S
O670 C674 1.278 . S
C671 O672 1.203 . S
C671 O678 1.267 . S
O672 C671 1.203 . S
O673 C666 1.185 . S
O673 Zn669 2.086 . S
C674 O670 1.278 . S
C674 O675 1.211 1_556 S
O675 C674 1.211 1_554 S
C676 O668 1.284 . S
C676 O677 1.273 . S
O677 C676 1.273 . S
O678 Zn669 1.977 . S
O678 C671 1.267 . S
C679 O680 1.160 . S
C679 O686 1.185 . S
O680 C679 1.160 . S
O681 Zn682 1.899 . S
O681 C689 1.284 . S
Zn682 O681 1.899 . S
Zn682 O683 2.044 . S
Zn682 O686 2.086 . S
Zn682 O691 1.977 . S
O683 Zn682 2.044 . S
O683 C687 1.261 1_545 S
C684 O685 1.203 . S
C684 O691 1.267 . S
O685 C684 1.203 . S
O686 C679 1.185 . S
O686 Zn682 2.086 . S
C687 O683 1.261 1_565 S
C687 O688 1.211 . S
O688 C687 1.211 . S
C689 O681 1.284 . S
C689 O690 1.273 1_545 S
O690 C689 1.273 1_565 S
O691 Zn682 1.977 . S
O691 C684 1.267 . S
C692 O693 1.160 . S
C692 O699 1.185 . S
O693 C692 1.160 . S
O694 Zn695 1.899 . S
O694 C702 1.284 . S
Zn695 O694 1.899 . S
Zn695 O696 2.032 . S
Zn695 O699 2.086 . S
Zn695 O704 1.977 . S
O696 Zn695 2.032 . S
O696 C700 1.278 . S
C697 O698 1.203 . S
C697 O704 1.267 . S
O698 C697 1.203 . S
O699 C692 1.185 . S
O699 Zn695 2.086 . S
C700 O696 1.278 . S
C700 O701 1.211 . S
O701 C700 1.211 . S
C702 O694 1.284 . S
C702 O703 1.273 . S
O703 C702 1.273 . S
O704 Zn695 1.977 . S
O704 C697 1.267 . S
C705 O706 1.160 . S
C705 O712 1.185 . S
O706 C705 1.160 . S
O707 Zn708 1.899 . S
O707 C715 1.284 . S
Zn708 O707 1.899 . S
Zn708 O709 2.032 . S
Zn708 O712 2.086 . S
Zn708 O717 1.977 . S
O709 Zn708 2.032 . S
O709 C713 1.278 . S
C710 O711 1.203 . S
C710 O717 1.267 . S
O711 C710 1.203 . S
O712 C705 1.185 . S
O712 Zn708 2.086 . S
C713 O709 1.278 . S
C713 O714 1.211 . S
O714 C713 1.211 . S
C715 O707 1.284 . S
C715 O716 1.273 . S
O716 C715 1.273 . S
O717 Zn708 1.977 . S
O717 C710 1.267 . S
C718 O719 1.160 . S
C718 O725 1.185 . S
O719 C718 1.160 . S
O720 Zn721 1.899 . S
O720 C728 1.284 . S
Zn721 O720 1.899 . S
Zn721 O722 2.032 . S
Zn721 O725 2.086 . S
Zn721 O730 1.977 . S
O722 Zn721 2.032 . S
O722 C726 1.278 . S
C723 O724 1.203 . S
C723 O730 1.267 . S
O724 C723 1.203 . S
O725 C718 1.185 . S
O725 Zn721 2.086 . S
C726 O722 1.278 . S
C726 O727 1.211 . S
O727 C726 1.211 . S
C728 O720 1.284 . S
C728 O729 1.273 . S
O729 C728 1.273 . S
O730 Zn721 1.977 . S
O730 C723 1.267 . S
C731 O732 1.160 . S
C731 O738 1.185 . S
O732 C731 1.160 . S
O733 Zn734 1.899 . S
O733 C741 1.284 1_565 S
Zn734 O733 1.899 . S
Zn734 O735 2.032 1_565 S
Zn734 O738 2.086 . S
Zn734 O743 1.977 . S
O735 Zn734 2.032 1_545 S
O735 C739 1.278 . S
C736 O737 1.203 1_565 S
C736 O743 1.267 . S
O737 C736 1.203 1_545 S
O738 C731 1.185 . S
O738 Zn734 2.086 . S
C739 O735 1.278 . S
C739 O740 1.211 . S
O740 C739 1.211 . S
C741 O733 1.284 1_545 S
C741 O742 1.273 . S
O742 C741 1.273 . S
O743 Zn734 1.977 . S
O743 C736 1.267 . S
C744 O745 1.160 1_455 S
C744 O751 1.185 . S
O745 C744 1.160 1_655 S
O746 Zn747 1.899 1_655 S
O746 C754 1.284 . S
Zn747 O746 1.899 1_455 S
Zn747 O748 2.034 . S
Zn747 O751 2.086 . S
Zn747 O756 1.977 . S
O748 Zn747 2.034 . S
O748 C752 1.278 . S
C749 O750 1.203 . S
C749 O756 1.267 . S
O750 C749 1.203 . S
O751 C744 1.185 . S
O751 Zn747 2.086 . S
C752 O748 1.278 . S
C752 O753 1.211 . S
O753 C752 1.211 . S
C754 O746 1.284 . S
C754 O755 1.273 . S
O755 C754 1.273 . S
O756 Zn747 1.977 . S
O756 C749 1.267 . S
C757 O758 1.160 . S
C757 O764 1.185 . S
O758 C757 1.160 . S
O759 Zn760 1.899 . S
O759 C767 1.284 . S
Zn760 O759 1.899 . S
Zn760 O761 2.032 . S
Zn760 O764 2.086 . S
Zn760 O769 1.977 . S
O761 Zn760 2.032 . S
O761 C765 1.278 . S
C762 O763 1.203 . S
C762 O769 1.267 . S
O763 C762 1.203 . S
O764 C757 1.185 . S
O764 Zn760 2.086 . S
C765 O761 1.278 . S
C765 O766 1.211 . S
O766 C765 1.211 . S
C767 O759 1.284 . S
C767 O768 1.273 . S
O768 C767 1.273 . S
O769 Zn760 1.977 . S
O769 C762 1.267 . S
C770 O771 1.160 1_455 S
C770 O777 1.185 . S
O771 C770 1.160 1_655 S
O772 Zn773 1.899 1_655 S
O772 C780 1.284 . S
Zn773 O772 1.899 1_455 S
Zn773 O774 2.033 . S
Zn773 O777 2.086 . S
Zn773 O782 1.977 . S
O774 Zn773 2.033 . S
O774 C778 1.278 . S
C775 O776 1.203 . S
C775 O782 1.267 . S
O776 C775 1.203 . S
O777 C770 1.185 . S
O777 Zn773 2.086 . S
C778 O774 1.278 . S
C778 O779 1.211 . S
O779 C778 1.211 . S
C780 O772 1.284 . S
C780 O781 1.273 . S
O781 C780 1.273 . S
O782 Zn773 1.977 . S
O782 C775 1.267 . S
C783 O784 1.160 . S
C783 O790 1.185 . S
O784 C783 1.160 . S
O785 Zn786 1.899 . S
O785 C793 1.284 . S
Zn786 O785 1.899 . S
Zn786 O787 2.032 . S
Zn786 O790 2.086 . S
Zn786 O795 1.977 . S
O787 Zn786 2.032 . S
O787 C791 1.278 . S
C788 O789 1.203 . S
C788 O795 1.267 . S
O789 C788 1.203 . S
O790 C783 1.185 . S
O790 Zn786 2.086 . S
C791 O787 1.278 . S
C791 O792 1.211 . S
O792 C791 1.211 . S
C793 O785 1.284 . S
C793 O794 1.273 . S
O794 C793 1.273 . S
O795 Zn786 1.977 . S
O795 C788 1.267 . S
H796 C808 0.930 . S
H797 C810 0.930 . S
H798 C811 0.930 . S
H799 C815 0.959 . S
H800 C815 0.959 . S
H801 C815 0.961 . S
H802 C816 0.960 . S
H803 C816 0.961 . S
H804 C816 0.959 . S
H805 C819 0.929 . S
H806 C820 0.931 . S
H807 C822 0.930 . S
C808 H796 0.930 . S
C808 C809 1.399 . S
C808 C813 1.399 . S
C809 C808 1.399 . S
C809 C810 1.376 . S
C810 H797 0.930 . S
C810 C809 1.376 . S
C810 C811 1.388 . S
C811 H798 0.930 . S
C811 C810 1.388 . S
C811 C812 1.390 . S
C812 C811 1.390 . S
C812 C813 1.394 . S
C812 C818 1.465 . S
C813 C808 1.399 . S
C813 C812 1.394 . S
C813 C814 1.516 . S
C814 C813 1.516 . S
C814 C815 1.502 . S
C814 C816 1.561 . S
C814 C817 1.526 . S
C815 H799 0.959 . S
C815 H800 0.959 . S
C815 H801 0.961 . S
C815 C814 1.502 . S
C816 H802 0.960 . S
C816 H803 0.961 . S
C816 H804 0.959 . S
C816 C814 1.561 . S
C817 C814 1.526 . S
C817 C818 1.396 . S
C817 C822 1.390 . S
C818 C812 1.465 . S
C818 C817 1.396 . S
C818 C819 1.399 . S
C819 H805 0.929 . S
C819 C818 1.399 . S
C819 C820 1.385 . S
C820 H806 0.931 . S
C820 C819 1.385 . S
C820 C821 1.389 . S
C821 C820 1.389 . S
C821 C822 1.387 . S
C822 H807 0.930 . S
C822 C817 1.390 . S
C822 C821 1.387 . S
H823 C835 0.930 . S
H824 C837 0.930 . S
H825 C838 0.930 . S
H826 C842 0.959 . S
H827 C842 0.959 . S
H828 C842 0.961 . S
H829 C843 0.960 . S
H830 C843 0.961 . S
H831 C843 0.959 . S
H832 C846 0.929 . S
H833 C847 0.931 . S
H834 C849 0.930 . S
C835 H823 0.930 . S
C835 C836 1.399 . S
C835 C840 1.399 . S
C836 C835 1.399 . S
C836 C837 1.376 . S
C837 H824 0.930 . S
C837 C836 1.376 . S
C837 C838 1.388 . S
C838 H825 0.930 . S
C838 C837 1.388 . S
C838 C839 1.390 . S
C839 C838 1.390 . S
C839 C840 1.394 . S
C839 C845 1.465 . S
C840 C835 1.399 . S
C840 C839 1.394 . S
C840 C841 1.516 . S
C841 C840 1.516 . S
C841 C842 1.502 . S
C841 C843 1.561 . S
C841 C844 1.526 . S
C842 H826 0.959 . S
C842 H827 0.959 . S
C842 H828 0.961 . S
C842 C841 1.502 . S
C843 H829 0.960 . S
C843 H830 0.961 . S
C843 H831 0.959 . S
C843 C841 1.561 . S
C844 C841 1.526 . S
C844 C845 1.396 . S
C844 C849 1.390 . S
C845 C839 1.465 . S
C845 C844 1.396 . S
C845 C846 1.399 . S
C846 H832 0.929 . S
C846 C845 1.399 . S
C846 C847 1.385 . S
C847 H833 0.931 . S
C847 C846 1.385 . S
C847 C848 1.389 . S
C848 C847 1.389 . S
C848 C849 1.387 . S
C849 H834 0.930 . S
C849 C844 1.390 . S
C849 C848 1.387 . S
H850 C862 0.930 . S
H851 C864 0.930 . S
H852 C865 0.930 . S
H853 C869 0.959 . S
H854 C869 0.959 . S
H855 C869 0.961 . S
H856 C870 0.960 . S
H857 C870 0.961 . S
H858 C870 0.959 . S
H859 C873 0.929 . S
H860 C874 0.931 . S
H861 C876 0.930 . S
C862 H850 0.930 . S
C862 C863 1.399 . S
C862 C867 1.399 . S
C863 C862 1.399 . S
C863 C864 1.376 . S
C864 H851 0.930 . S
C864 C863 1.376 . S
C864 C865 1.388 . S
C865 H852 0.930 . S
C865 C864 1.388 . S
C865 C866 1.390 . S
C866 C865 1.390 . S
C866 C867 1.394 . S
C866 C872 1.465 . S
C867 C862 1.399 . S
C867 C866 1.394 . S
C867 C868 1.516 . S
C868 C867 1.516 . S
C868 C869 1.502 . S
C868 C870 1.561 . S
C868 C871 1.526 . S
C869 H853 0.959 . S
C869 H854 0.959 . S
C869 H855 0.961 . S
C869 C868 1.502 . S
C870 H856 0.960 . S
C870 H857 0.961 . S
C870 H858 0.959 . S
C870 C868 1.561 . S
C871 C868 1.526 . S
C871 C872 1.396 . S
C871 C876 1.390 . S
C872 C866 1.465 . S
C872 C871 1.396 . S
C872 C873 1.399 . S
C873 H859 0.929 . S
C873 C872 1.399 . S
C873 C874 1.385 . S
C874 H860 0.931 . S
C874 C873 1.385 . S
C874 C875 1.389 . S
C875 C874 1.389 . S
C875 C876 1.387 . S
C876 H861 0.930 . S
C876 C871 1.390 . S
C876 C875 1.387 . S
H877 C889 0.930 . S
H878 C891 0.930 . S
H879 C892 0.930 . S
H880 C896 0.959 . S
H881 C896 0.959 . S
H882 C896 0.961 . S
H883 C897 0.960 . S
H884 C897 0.961 . S
H885 C897 0.959 . S
H886 C900 0.929 . S
H887 C901 0.931 . S
H888 C903 0.930 . S
C889 H877 0.930 . S
C889 C890 1.399 . S
C889 C894 1.399 . S
C890 C889 1.399 . S
C890 C891 1.376 1_565 S
C891 H878 0.930 . S
C891 C890 1.376 1_545 S
C891 C892 1.388 . S
C892 H879 0.930 . S
C892 C891 1.388 . S
C892 C893 1.390 . S
C893 C892 1.390 . S
C893 C894 1.394 1_545 S
C893 C899 1.465 . S
C894 C889 1.399 . S
C894 C893 1.394 1_565 S
C894 C895 1.516 . S
C895 C894 1.516 . S
C895 C896 1.502 . S
C895 C897 1.561 . S
C895 C898 1.526 . S
C896 H880 0.959 . S
C896 H881 0.959 . S
C896 H882 0.961 . S
C896 C895 1.502 . S
C897 H883 0.960 . S
C897 H884 0.961 . S
C897 H885 0.959 . S
C897 C895 1.561 . S
C898 C895 1.526 . S
C898 C899 1.396 1_565 S
C898 C903 1.390 . S
C899 C893 1.465 . S
C899 C898 1.396 1_545 S
C899 C900 1.399 . S
C900 H886 0.929 . S
C900 C899 1.399 . S
C900 C901 1.385 . S
C901 H887 0.931 . S
C901 C900 1.385 . S
C901 C902 1.389 . S
C902 C901 1.389 . S
C902 C903 1.387 1_545 S
C903 H888 0.930 . S
C903 C898 1.390 . S
C903 C902 1.387 1_565 S
H904 C916 0.930 . S
H905 C918 0.930 . S
H906 C919 0.930 . S
H907 C923 0.959 . S
H908 C923 0.959 . S
H909 C923 0.961 . S
H910 C924 0.960 . S
H911 C924 0.961 . S
H912 C924 0.959 . S
H913 C927 0.929 . S
H914 C928 0.931 . S
H915 C930 0.930 . S
C916 H904 0.930 . S
C916 C917 1.399 . S
C916 C921 1.399 . S
C917 C916 1.399 . S
C917 C918 1.376 . S
C918 H905 0.930 . S
C918 C917 1.376 . S
C918 C919 1.388 . S
C919 H906 0.930 . S
C919 C918 1.388 . S
C919 C920 1.390 . S
C920 C919 1.390 . S
C920 C921 1.394 . S
C920 C926 1.465 . S
C921 C916 1.399 . S
C921 C920 1.394 . S
C921 C922 1.516 . S
C922 C921 1.516 . S
C922 C923 1.502 . S
C922 C924 1.561 . S
C922 C925 1.526 . S
C923 H907 0.959 . S
C923 H908 0.959 . S
C923 H909 0.961 . S
C923 C922 1.502 . S
C924 H910 0.960 . S
C924 H911 0.961 . S
C924 H912 0.959 . S
C924 C922 1.561 . S
C925 C922 1.526 . S
C925 C926 1.396 . S
C925 C930 1.390 . S
C926 C920 1.465 . S
C926 C925 1.396 . S
C926 C927 1.399 . S
C927 H913 0.929 . S
C927 C926 1.399 . S
C927 C928 1.385 . S
C928 H914 0.931 . S
C928 C927 1.385 . S
C928 C929 1.389 . S
C929 C928 1.389 . S
C929 C930 1.387 . S
C930 H915 0.930 . S
C930 C925 1.390 . S
C930 C929 1.387 . S
H931 C943 0.930 . S
H932 C945 0.930 . S
H933 C946 0.930 . S
H934 C950 0.959 . S
H935 C950 0.959 . S
H936 C950 0.961 . S
H937 C951 0.960 . S
H938 C951 0.961 . S
H939 C951 0.959 . S
H940 C954 0.929 . S
H941 C955 0.931 . S
H942 C957 0.930 . S
C943 H931 0.930 . S
C943 C944 1.399 . S
C943 C948 1.399 . S
C944 C943 1.399 . S
C944 C945 1.376 . S
C945 H932 0.930 . S
C945 C944 1.376 . S
C945 C946 1.388 . S
C946 H933 0.930 . S
C946 C945 1.388 . S
C946 C947 1.390 . S
C947 C946 1.390 . S
C947 C948 1.394 . S
C947 C953 1.465 . S
C948 C943 1.399 . S
C948 C947 1.394 . S
C948 C949 1.516 . S
C949 C948 1.516 . S
C949 C950 1.502 . S
C949 C951 1.561 . S
C949 C952 1.526 . S
C950 H934 0.959 . S
C950 H935 0.959 . S
C950 H936 0.961 . S
C950 C949 1.502 . S
C951 H937 0.960 . S
C951 H938 0.961 . S
C951 H939 0.959 . S
C951 C949 1.561 . S
C952 C949 1.526 . S
C952 C953 1.396 . S
C952 C957 1.390 . S
C953 C947 1.465 . S
C953 C952 1.396 . S
C953 C954 1.399 . S
C954 H940 0.929 . S
C954 C953 1.399 . S
C954 C955 1.385 . S
C955 H941 0.931 . S
C955 C954 1.385 . S
C955 C956 1.389 . S
C956 C955 1.389 . S
C956 C957 1.387 . S
C957 H942 0.930 . S
C957 C952 1.390 . S
C957 C956 1.387 . S
H958 C970 0.930 . S
H959 C972 0.930 . S
H960 C973 0.930 . S
H961 C977 0.959 . S
H962 C977 0.959 . S
H963 C977 0.961 . S
H964 C978 0.960 . S
H965 C978 0.961 . S
H966 C978 0.959 . S
H967 C981 0.929 . S
H968 C982 0.931 . S
H969 C984 0.930 . S
C970 H958 0.930 . S
C970 C971 1.399 . S
C970 C975 1.399 . S
C971 C970 1.399 . S
C971 C972 1.376 . S
C972 H959 0.930 . S
C972 C971 1.376 . S
C972 C973 1.388 . S
C973 H960 0.930 . S
C973 C972 1.388 . S
C973 C974 1.390 . S
C974 C973 1.390 . S
C974 C975 1.394 . S
C974 C980 1.465 . S
C975 C970 1.399 . S
C975 C974 1.394 . S
C975 C976 1.516 . S
C976 C975 1.516 . S
C976 C977 1.502 . S
C976 C978 1.561 . S
C976 C979 1.526 . S
C977 H961 0.959 . S
C977 H962 0.959 . S
C977 H963 0.961 . S
C977 C976 1.502 . S
C978 H964 0.960 . S
C978 H965 0.961 . S
C978 H966 0.959 . S
C978 C976 1.561 . S
C979 C976 1.526 . S
C979 C980 1.396 . S
C979 C984 1.390 . S
C980 C974 1.465 . S
C980 C979 1.396 . S
C980 C981 1.399 . S
C981 H967 0.929 . S
C981 C980 1.399 . S
C981 C982 1.385 . S
C982 H968 0.931 . S
C982 C981 1.385 . S
C982 C983 1.389 . S
C983 C982 1.389 . S
C983 C984 1.387 . S
C984 H969 0.930 . S
C984 C979 1.390 . S
C984 C983 1.387 . S
H985 C997 0.930 1_545 S
H986 C999 0.930 . S
H987 C1000 0.930 . S
H988 C1004 0.959 . S
H989 C1004 0.959 . S
H990 C1004 0.961 . S
H991 C1005 0.960 . S
H992 C1005 0.961 . S
H993 C1005 0.959 . S
H994 C1008 0.929 . S
H995 C1009 0.931 . S
H996 C1011 0.930 . S
C997 H985 0.930 1_565 S
C997 C998 1.399 . S
C997 C1002 1.399 . S
C998 C997 1.399 . S
C998 C999 1.376 . S
C999 H986 0.930 . S
C999 C998 1.376 . S
C999 C1000 1.388 . S
C1000 H987 0.930 . S
C1000 C999 1.388 . S
C1000 C1001 1.390 . S
C1001 C1000 1.390 . S
C1001 C1002 1.394 . S
C1001 C1007 1.465 . S
C1002 C997 1.399 . S
C1002 C1001 1.394 . S
C1002 C1003 1.516 1_565 S
C1003 C1002 1.516 1_545 S
C1003 C1004 1.502 . S
C1003 C1005 1.561 . S
C1003 C1006 1.518 1_545 S
C1004 H988 0.959 . S
C1004 H989 0.959 . S
C1004 H990 0.961 . S
C1004 C1003 1.502 . S
C1005 H991 0.960 . S
C1005 H992 0.961 . S
C1005 H993 0.959 . S
C1005 C1003 1.561 . S
C1006 C1003 1.518 1_565 S
C1006 C1007 1.409 . S
C1006 C1011 1.386 1_565 S
C1007 C1001 1.465 . S
C1007 C1006 1.409 . S
C1007 C1008 1.399 . S
C1008 H994 0.929 . S
C1008 C1007 1.399 . S
C1008 C1009 1.385 . S
C1009 H995 0.931 . S
C1009 C1008 1.385 . S
C1009 C1010 1.389 . S
C1010 C1009 1.389 . S
C1010 C1011 1.387 1_565 S
C1011 H996 0.930 . S
C1011 C1006 1.386 1_545 S
C1011 C1010 1.387 1_545 S
H1012 C1024 0.930 . S
H1013 C1026 0.930 . S
H1014 C1027 0.930 . S
H1015 C1031 0.959 . S
H1016 C1031 0.959 . S
H1017 C1031 0.961 . S
H1018 C1032 0.960 . S
H1019 C1032 0.961 . S
H1020 C1032 0.959 . S
H1021 C1035 0.929 . S
H1022 C1036 0.931 . S
H1023 C1038 0.930 . S
C1024 H1012 0.930 . S
C1024 C1025 1.399 . S
C1024 C1029 1.399 . S
C1025 C1024 1.399 . S
C1025 C1026 1.376 . S
C1026 H1013 0.930 . S
C1026 C1025 1.376 . S
C1026 C1027 1.388 . S
C1027 H1014 0.930 . S
C1027 C1026 1.388 . S
C1027 C1028 1.390 . S
C1028 C1027 1.390 . S
C1028 C1029 1.394 . S
C1028 C1034 1.465 . S
C1029 C1024 1.399 . S
C1029 C1028 1.394 . S
C1029 C1030 1.516 . S
C1030 C1029 1.516 . S
C1030 C1031 1.502 . S
C1030 C1032 1.561 . S
C1030 C1033 1.526 . S
C1031 H1015 0.959 . S
C1031 H1016 0.959 . S
C1031 H1017 0.961 . S
C1031 C1030 1.502 . S
C1032 H1018 0.960 . S
C1032 H1019 0.961 . S
C1032 H1020 0.959 . S
C1032 C1030 1.561 . S
C1033 C1030 1.526 . S
C1033 C1034 1.396 . S
C1033 C1038 1.390 . S
C1034 C1028 1.465 . S
C1034 C1033 1.396 . S
C1034 C1035 1.399 . S
C1035 H1021 0.929 . S
C1035 C1034 1.399 . S
C1035 C1036 1.385 . S
C1036 H1022 0.931 . S
C1036 C1035 1.385 . S
C1036 C1037 1.389 . S
C1037 C1036 1.389 . S
C1037 C1038 1.387 . S
C1038 H1023 0.930 . S
C1038 C1033 1.390 . S
C1038 C1037 1.387 . S
H1039 C1051 0.930 . S
H1040 C1053 0.930 . S
H1041 C1054 0.930 . S
H1042 C1058 0.959 . S
H1043 C1058 0.959 . S
H1044 C1058 0.961 . S
H1045 C1059 0.960 . S
H1046 C1059 0.961 . S
H1047 C1059 0.959 . S
H1048 C1062 0.929 . S
H1049 C1063 0.931 . S
H1050 C1065 0.930 . S
C1051 H1039 0.930 . S
C1051 C1052 1.399 . S
C1051 C1056 1.399 . S
C1052 C1051 1.399 . S
C1052 C1053 1.376 . S
C1053 H1040 0.930 . S
C1053 C1052 1.376 . S
C1053 C1054 1.388 . S
C1054 H1041 0.930 . S
C1054 C1053 1.388 . S
C1054 C1055 1.390 . S
C1055 C1054 1.390 . S
C1055 C1056 1.394 . S
C1055 C1061 1.465 . S
C1056 C1051 1.399 . S
C1056 C1055 1.394 . S
C1056 C1057 1.516 . S
C1057 C1056 1.516 . S
C1057 C1058 1.502 . S
C1057 C1059 1.561 . S
C1057 C1060 1.526 . S
C1058 H1042 0.959 . S
C1058 H1043 0.959 . S
C1058 H1044 0.961 . S
C1058 C1057 1.502 . S
C1059 H1045 0.960 . S
C1059 H1046 0.961 . S
C1059 H1047 0.959 . S
C1059 C1057 1.561 . S
C1060 C1057 1.526 . S
C1060 C1061 1.396 . S
C1060 C1065 1.390 . S
C1061 C1055 1.465 . S
C1061 C1060 1.396 . S
C1061 C1062 1.399 . S
C1062 H1048 0.929 . S
C1062 C1061 1.399 . S
C1062 C1063 1.385 . S
C1063 H1049 0.931 . S
C1063 C1062 1.385 . S
C1063 C1064 1.389 . S
C1064 C1063 1.389 . S
C1064 C1065 1.387 . S
C1065 H1050 0.930 . S
C1065 C1060 1.390 . S
C1065 C1064 1.387 . S
H1066 C1078 0.930 . S
H1067 C1080 0.930 . S
H1068 C1081 0.930 . S
H1069 C1085 0.959 . S
H1070 C1085 0.959 . S
H1071 C1085 0.961 . S
H1072 C1086 0.960 . S
H1073 C1086 0.961 . S
H1074 C1086 0.959 . S
H1075 C1089 0.929 . S
H1076 C1090 0.931 . S
H1077 C1092 0.930 . S
C1078 H1066 0.930 . S
C1078 C1079 1.399 . S
C1078 C1083 1.399 . S
C1079 C1078 1.399 . S
C1079 C1080 1.376 . S
C1080 H1067 0.930 . S
C1080 C1079 1.376 . S
C1080 C1081 1.388 . S
C1081 H1068 0.930 . S
C1081 C1080 1.388 . S
C1081 C1082 1.390 . S
C1082 C1081 1.390 . S
C1082 C1083 1.394 . S
C1082 C1088 1.465 . S
C1083 C1078 1.399 . S
C1083 C1082 1.394 . S
C1083 C1084 1.516 . S
C1084 C1083 1.516 . S
C1084 C1085 1.502 . S
C1084 C1086 1.561 . S
C1084 C1087 1.526 . S
C1085 H1069 0.959 . S
C1085 H1070 0.959 . S
C1085 H1071 0.961 . S
C1085 C1084 1.502 . S
C1086 H1072 0.960 . S
C1086 H1073 0.961 . S
C1086 H1074 0.959 . S
C1086 C1084 1.561 . S
C1087 C1084 1.526 . S
C1087 C1088 1.396 . S
C1087 C1092 1.390 . S
C1088 C1082 1.465 . S
C1088 C1087 1.396 . S
C1088 C1089 1.399 . S
C1089 H1075 0.929 . S
C1089 C1088 1.399 . S
C1089 C1090 1.385 . S
C1090 H1076 0.931 . S
C1090 C1089 1.385 . S
C1090 C1091 1.389 . S
C1091 C1090 1.389 . S
C1091 C1092 1.387 . S
C1092 H1077 0.930 . S
C1092 C1087 1.390 . S
C1092 C1091 1.387 . S
H1093 C1105 0.930 . S
H1094 C1107 0.930 . S
H1095 C1108 0.930 . S
H1096 C1112 0.959 . S
H1097 C1112 0.959 . S
H1098 C1112 0.961 . S
H1099 C1113 0.960 . S
H1100 C1113 0.961 . S
H1101 C1113 0.959 . S
H1102 C1116 0.929 . S
H1103 C1117 0.931 . S
H1104 C1119 0.930 . S
C1105 H1093 0.930 . S
C1105 C1106 1.399 . S
C1105 C1110 1.399 . S
C1106 C1105 1.399 . S
C1106 C1107 1.376 . S
C1107 H1094 0.930 . S
C1107 C1106 1.376 . S
C1107 C1108 1.388 . S
C1108 H1095 0.930 . S
C1108 C1107 1.388 . S
C1108 C1109 1.390 . S
C1109 C1108 1.390 . S
C1109 C1110 1.394 . S
C1109 C1115 1.465 . S
C1110 C1105 1.399 . S
C1110 C1109 1.394 . S
C1110 C1111 1.516 . S
C1111 C1110 1.516 . S
C1111 C1112 1.502 . S
C1111 C1113 1.561 . S
C1111 C1114 1.526 . S
C1112 H1096 0.959 . S
C1112 H1097 0.959 . S
C1112 H1098 0.961 . S
C1112 C1111 1.502 . S
C1113 H1099 0.960 . S
C1113 H1100 0.961 . S
C1113 H1101 0.959 . S
C1113 C1111 1.561 . S
C1114 C1111 1.526 . S
C1114 C1115 1.396 . S
C1114 C1119 1.390 . S
C1115 C1109 1.465 . S
C1115 C1114 1.396 . S
C1115 C1116 1.399 . S
C1116 H1102 0.929 . S
C1116 C1115 1.399 . S
C1116 C1117 1.385 . S
C1117 H1103 0.931 . S
C1117 C1116 1.385 . S
C1117 C1118 1.389 . S
C1118 C1117 1.389 . S
C1118 C1119 1.387 . S
C1119 H1104 0.930 . S
C1119 C1114 1.390 . S
C1119 C1118 1.387 . S
H1120 C1132 0.930 . S
H1121 C1134 0.930 . S
H1122 C1135 0.930 . S
H1123 C1139 0.959 . S
H1124 C1139 0.959 . S
H1125 C1139 0.961 . S
H1126 C1140 0.960 . S
H1127 C1140 0.961 . S
H1128 C1140 0.959 . S
H1129 C1143 0.929 . S
H1130 C1144 0.931 . S
H1131 C1146 0.930 . S
C1132 H1120 0.930 . S
C1132 C1133 1.399 . S
C1132 C1137 1.399 . S
C1133 C1132 1.399 . S
C1133 C1134 1.376 . S
C1134 H1121 0.930 . S
C1134 C1133 1.376 . S
C1134 C1135 1.388 . S
C1135 H1122 0.930 . S
C1135 C1134 1.388 . S
C1135 C1136 1.390 . S
C1136 C1135 1.390 . S
C1136 C1137 1.394 . S
C1136 C1142 1.465 . S
C1137 C1132 1.399 . S
C1137 C1136 1.394 . S
C1137 C1138 1.516 . S
C1138 C1137 1.516 . S
C1138 C1139 1.502 . S
C1138 C1140 1.561 . S
C1138 C1141 1.526 . S
C1139 H1123 0.959 . S
C1139 H1124 0.959 . S
C1139 H1125 0.961 . S
C1139 C1138 1.502 . S
C1140 H1126 0.960 . S
C1140 H1127 0.961 . S
C1140 H1128 0.959 . S
C1140 C1138 1.561 . S
C1141 C1138 1.526 . S
C1141 C1142 1.396 . S
C1141 C1146 1.390 . S
C1142 C1136 1.465 . S
C1142 C1141 1.396 . S
C1142 C1143 1.399 . S
C1143 H1129 0.929 . S
C1143 C1142 1.399 . S
C1143 C1144 1.385 . S
C1144 H1130 0.931 . S
C1144 C1143 1.385 . S
C1144 C1145 1.389 . S
C1145 C1144 1.389 . S
C1145 C1146 1.387 . S
C1146 H1131 0.930 . S
C1146 C1141 1.390 . S
C1146 C1145 1.387 . S
H1147 C1159 0.930 . S
H1148 C1161 0.930 . S
H1149 C1162 0.930 1_655 S
H1150 C1166 0.959 . S
H1151 C1166 0.959 . S
H1152 C1166 0.961 . S
H1153 C1167 0.960 . S
H1154 C1167 0.961 . S
H1155 C1167 0.959 . S
H1156 C1170 0.931 1_655 S
H1157 C1171 0.907 1_655 S
H1158 C1173 0.930 . S
C1159 H1147 0.930 . S
C1159 C1160 1.399 . S
C1159 C1164 1.399 . S
C1160 C1159 1.399 . S
C1160 C1161 1.376 . S
C1161 H1148 0.930 . S
C1161 C1160 1.376 . S
C1161 C1162 1.388 . S
C1162 H1149 0.930 1_455 S
C1162 C1161 1.388 . S
C1162 C1163 1.390 . S
C1163 C1162 1.390 . S
C1163 C1164 1.394 . S
C1163 C1169 1.465 . S
C1164 C1159 1.399 . S
C1164 C1163 1.394 . S
C1164 C1165 1.516 . S
C1165 C1164 1.516 . S
C1165 C1166 1.502 . S
C1165 C1167 1.561 . S
C1165 C1168 1.526 . S
C1166 H1150 0.959 . S
C1166 H1151 0.959 . S
C1166 H1152 0.961 . S
C1166 C1165 1.502 . S
C1167 H1153 0.960 . S
C1167 H1154 0.961 . S
C1167 H1155 0.959 . S
C1167 C1165 1.561 . S
C1168 C1165 1.526 . S
C1168 C1169 1.396 . S
C1168 C1173 1.390 . S
C1169 C1163 1.465 . S
C1169 C1168 1.396 . S
C1169 C1170 1.397 . S
C1170 H1156 0.931 1_455 S
C1170 C1169 1.397 . S
C1170 C1171 1.382 . S
C1171 H1157 0.907 1_455 S
C1171 C1170 1.382 . S
C1171 C1172 1.419 . S
C1172 C1171 1.419 . S
C1172 C1173 1.387 . S
C1173 H1158 0.930 . S
C1173 C1168 1.390 . S
C1173 C1172 1.387 . S
H1174 C1186 0.930 . S
H1175 C1188 0.930 . S
H1176 C1189 0.930 . S
H1177 C1193 0.959 . S
H1178 C1193 0.959 . S
H1179 C1193 0.961 . S
H1180 C1194 0.960 . S
H1181 C1194 0.961 . S
H1182 C1194 0.959 . S
H1183 C1197 0.929 . S
H1184 C1198 0.931 . S
H1185 C1200 0.930 . S
C1186 H1174 0.930 . S
C1186 C1187 1.399 . S
C1186 C1191 1.399 . S
C1187 C1186 1.399 . S
C1187 C1188 1.376 . S
C1188 H1175 0.930 . S
C1188 C1187 1.376 . S
C1188 C1189 1.388 . S
C1189 H1176 0.930 . S
C1189 C1188 1.388 . S
C1189 C1190 1.390 . S
C1190 C1189 1.390 . S
C1190 C1191 1.394 . S
C1190 C1196 1.465 . S
C1191 C1186 1.399 . S
C1191 C1190 1.394 . S
C1191 C1192 1.516 . S
C1192 C1191 1.516 . S
C1192 C1193 1.502 . S
C1192 C1194 1.561 . S
C1192 C1195 1.526 . S
C1193 H1177 0.959 . S
C1193 H1178 0.959 . S
C1193 H1179 0.961 . S
C1193 C1192 1.502 . S
C1194 H1180 0.960 . S
C1194 H1181 0.961 . S
C1194 H1182 0.959 . S
C1194 C1192 1.561 . S
C1195 C1192 1.526 . S
C1195 C1196 1.396 . S
C1195 C1200 1.390 . S
C1196 C1190 1.465 . S
C1196 C1195 1.396 . S
C1196 C1197 1.399 . S
C1197 H1183 0.929 . S
C1197 C1196 1.399 . S
C1197 C1198 1.385 . S
C1198 H1184 0.931 . S
C1198 C1197 1.385 . S
C1198 C1199 1.389 . S
C1199 C1198 1.389 . S
C1199 C1200 1.387 . S
C1200 H1185 0.930 . S
C1200 C1195 1.390 . S
C1200 C1199 1.387 . S
H1201 C1213 0.930 . S
H1202 C1215 0.930 . S
H1203 C1216 0.930 . S
H1204 C1220 0.959 1_455 S
H1205 C1220 0.959 . S
H1206 C1220 0.961 . S
H1207 C1221 0.960 . S
H1208 C1221 0.961 . S
H1209 C1221 0.959 . S
H1210 C1224 0.919 1_455 S
H1211 C1225 0.950 . S
H1212 C1227 0.930 . S
C1213 H1201 0.930 . S
C1213 C1214 1.399 . S
C1213 C1218 1.399 . S
C1214 C1213 1.399 . S
C1214 C1215 1.376 . S
C1215 H1202 0.930 . S
C1215 C1214 1.376 . S
C1215 C1216 1.388 . S
C1216 H1203 0.930 . S
C1216 C1215 1.388 . S
C1216 C1217 1.390 . S
C1217 C1216 1.390 . S
C1217 C1218 1.394 . S
C1217 C1223 1.465 . S
C1218 C1213 1.399 . S
C1218 C1217 1.394 . S
C1218 C1219 1.516 . S
C1219 C1218 1.516 . S
C1219 C1220 1.502 . S
C1219 C1221 1.561 . S
C1219 C1222 1.526 . S
C1220 H1204 0.959 1_655 S
C1220 H1205 0.959 . S
C1220 H1206 0.961 . S
C1220 C1219 1.502 . S
C1221 H1207 0.960 . S
C1221 H1208 0.961 . S
C1221 H1209 0.959 . S
C1221 C1219 1.561 . S
C1222 C1219 1.526 . S
C1222 C1223 1.396 . S
C1222 C1227 1.390 . S
C1223 C1217 1.465 . S
C1223 C1222 1.396 . S
C1223 C1224 1.416 . S
C1224 H1210 0.919 1_655 S
C1224 C1223 1.416 . S
C1224 C1225 1.383 1_655 S
C1225 H1211 0.950 . S
C1225 C1224 1.383 1_455 S
C1225 C1226 1.377 1_455 S
C1226 C1225 1.377 1_655 S
C1226 C1227 1.387 . S
C1227 H1212 0.930 . S
C1227 C1222 1.390 . S
C1227 C1226 1.387 . S
H1228 C1240 0.930 . S
H1229 C1242 0.930 . S
H1230 C1243 0.930 . S
H1231 C1247 0.959 . S
H1232 C1247 0.959 . S
H1233 C1247 0.961 . S
H1234 C1248 0.960 . S
H1235 C1248 0.961 . S
H1236 C1248 0.959 . S
H1237 C1251 0.929 . S
H1238 C1252 0.931 . S
H1239 C1254 0.930 . S
C1240 H1228 0.930 . S
C1240 C1241 1.399 . S
C1240 C1245 1.399 . S
C1241 C1240 1.399 . S
C1241 C1242 1.376 . S
C1242 H1229 0.930 . S
C1242 C1241 1.376 . S
C1242 C1243 1.388 . S
C1243 H1230 0.930 . S
C1243 C1242 1.388 . S
C1243 C1244 1.390 . S
C1244 C1243 1.390 . S
C1244 C1245 1.394 . S
C1244 C1250 1.465 . S
C1245 C1240 1.399 . S
C1245 C1244 1.394 . S
C1245 C1246 1.516 . S
C1246 C1245 1.516 . S
C1246 C1247 1.502 . S
C1246 C1248 1.561 . S
C1246 C1249 1.526 . S
C1247 H1231 0.959 . S
C1247 H1232 0.959 . S
C1247 H1233 0.961 . S
C1247 C1246 1.502 . S
C1248 H1234 0.960 . S
C1248 H1235 0.961 . S
C1248 H1236 0.959 . S
C1248 C1246 1.561 . S
C1249 C1246 1.526 . S
C1249 C1250 1.396 . S
C1249 C1254 1.390 . S
C1250 C1244 1.465 . S
C1250 C1249 1.396 . S
C1250 C1251 1.399 . S
C1251 H1237 0.929 . S
C1251 C1250 1.399 . S
C1251 C1252 1.385 . S
C1252 H1238 0.931 . S
C1252 C1251 1.385 . S
C1252 C1253 1.389 . S
C1253 C1252 1.389 . S
C1253 C1254 1.387 . S
C1254 H1239 0.930 . S
C1254 C1249 1.390 . S
C1254 C1253 1.387 . S
H1255 C1267 0.930 . S
H1256 C1269 0.930 . S
H1257 C1270 0.930 . S
H1258 C1274 0.959 . S
H1259 C1274 0.959 . S
H1260 C1274 0.961 . S
H1261 C1275 0.960 . S
H1262 C1275 0.961 . S
H1263 C1275 0.959 . S
H1264 C1278 0.929 . S
H1265 C1279 0.931 . S
H1266 C1281 0.930 . S
C1267 H1255 0.930 . S
C1267 C1268 1.399 . S
C1267 C1272 1.399 . S
C1268 C1267 1.399 . S
C1268 C1269 1.376 . S
C1269 H1256 0.930 . S
C1269 C1268 1.376 . S
C1269 C1270 1.388 . S
C1270 H1257 0.930 . S
C1270 C1269 1.388 . S
C1270 C1271 1.390 . S
C1271 C1270 1.390 . S
C1271 C1272 1.394 . S
C1271 C1277 1.465 . S
C1272 C1267 1.399 . S
C1272 C1271 1.394 . S
C1272 C1273 1.516 . S
C1273 C1272 1.516 . S
C1273 C1274 1.502 . S
C1273 C1275 1.561 . S
C1273 C1276 1.526 . S
C1274 H1258 0.959 . S
C1274 H1259 0.959 . S
C1274 H1260 0.961 . S
C1274 C1273 1.502 . S
C1275 H1261 0.960 . S
C1275 H1262 0.961 . S
C1275 H1263 0.959 . S
C1275 C1273 1.561 . S
C1276 C1273 1.526 . S
C1276 C1277 1.396 . S
C1276 C1281 1.390 . S
C1277 C1271 1.465 . S
C1277 C1276 1.396 . S
C1277 C1278 1.399 . S
C1278 H1264 0.929 . S
C1278 C1277 1.399 . S
C1278 C1279 1.385 . S
C1279 H1265 0.931 . S
C1279 C1278 1.385 . S
C1279 C1280 1.389 . S
C1280 C1279 1.389 . S
C1280 C1281 1.387 . S
C1281 H1266 0.930 . S
C1281 C1276 1.390 . S
C1281 C1280 1.387 . S
H1282 C1294 0.930 . S
H1283 C1296 0.930 . S
H1284 C1297 0.930 . S
H1285 C1301 0.959 . S
H1286 C1301 0.959 . S
H1287 C1301 0.961 . S
H1288 C1302 0.960 . S
H1289 C1302 0.961 . S
H1290 C1302 0.959 . S
H1291 C1305 0.929 . S
H1292 C1306 0.931 . S
H1293 C1308 0.930 . S
C1294 H1282 0.930 . S
C1294 C1295 1.399 . S
C1294 C1299 1.399 . S
C1295 C1294 1.399 . S
C1295 C1296 1.376 1_556 S
C1296 H1283 0.930 . S
C1296 C1295 1.376 1_554 S
C1296 C1297 1.388 . S
C1297 H1284 0.930 . S
C1297 C1296 1.388 . S
C1297 C1298 1.390 . S
C1298 C1297 1.390 . S
C1298 C1299 1.394 1_554 S
C1298 C1304 1.465 . S
C1299 C1294 1.399 . S
C1299 C1298 1.394 1_556 S
C1299 C1300 1.516 . S
C1300 C1299 1.516 . S
C1300 C1301 1.502 . S
C1300 C1302 1.561 . S
C1300 C1303 1.526 . S
C1301 H1285 0.959 . S
C1301 H1286 0.959 . S
C1301 H1287 0.961 . S
C1301 C1300 1.502 . S
C1302 H1288 0.960 . S
C1302 H1289 0.961 . S
C1302 H1290 0.959 . S
C1302 C1300 1.561 . S
C1303 C1300 1.526 . S
C1303 C1304 1.396 1_556 S
C1303 C1308 1.390 . S
C1304 C1298 1.465 . S
C1304 C1303 1.396 1_554 S
C1304 C1305 1.399 . S
C1305 H1291 0.929 . S
C1305 C1304 1.399 . S
C1305 C1306 1.385 . S
C1306 H1292 0.931 . S
C1306 C1305 1.385 . S
C1306 C1307 1.389 . S
C1307 C1306 1.389 . S
C1307 C1308 1.387 1_554 S
C1308 H1293 0.930 . S
C1308 C1303 1.390 . S
C1308 C1307 1.387 1_556 S
H1309 C1321 0.930 . S
H1310 C1323 0.930 . S
H1311 C1324 0.930 . S
H1312 C1328 0.959 . S
H1313 C1328 0.959 . S
H1314 C1328 0.961 . S
H1315 C1329 0.960 . S
H1316 C1329 0.961 . S
H1317 C1329 0.959 . S
H1318 C1332 0.929 . S
H1319 C1333 0.931 . S
H1320 C1335 0.930 . S
C1321 H1309 0.930 . S
C1321 C1322 1.399 . S
C1321 C1326 1.399 . S
C1322 C1321 1.399 . S
C1322 C1323 1.376 . S
C1323 H1310 0.930 . S
C1323 C1322 1.376 . S
C1323 C1324 1.388 . S
C1324 H1311 0.930 . S
C1324 C1323 1.388 . S
C1324 C1325 1.390 . S
C1325 C1324 1.390 . S
C1325 C1326 1.394 . S
C1325 C1331 1.465 . S
C1326 C1321 1.399 . S
C1326 C1325 1.394 . S
C1326 C1327 1.516 . S
C1327 C1326 1.516 . S
C1327 C1328 1.502 . S
C1327 C1329 1.561 . S
C1327 C1330 1.526 . S
C1328 H1312 0.959 . S
C1328 H1313 0.959 . S
C1328 H1314 0.961 . S
C1328 C1327 1.502 . S
C1329 H1315 0.960 . S
C1329 H1316 0.961 . S
C1329 H1317 0.959 . S
C1329 C1327 1.561 . S
C1330 C1327 1.526 . S
C1330 C1331 1.396 . S
C1330 C1335 1.390 . S
C1331 C1325 1.465 . S
C1331 C1330 1.396 . S
C1331 C1332 1.399 . S
C1332 H1318 0.929 . S
C1332 C1331 1.399 . S
C1332 C1333 1.385 . S
C1333 H1319 0.931 . S
C1333 C1332 1.385 . S
C1333 C1334 1.389 . S
C1334 C1333 1.389 . S
C1334 C1335 1.387 . S
C1335 H1320 0.930 . S
C1335 C1330 1.390 . S
C1335 C1334 1.387 . S
H1336 C1348 0.930 . S
H1337 C1350 0.930 . S
H1338 C1351 0.930 . S
H1339 C1355 0.959 . S
H1340 C1355 0.959 . S
H1341 C1355 0.961 . S
H1342 C1356 0.960 . S
H1343 C1356 0.961 . S
H1344 C1356 0.959 . S
H1345 C1359 0.929 . S
H1346 C1360 0.931 . S
H1347 C1362 0.930 . S
C1348 H1336 0.930 . S
C1348 C1349 1.399 . S
C1348 C1353 1.399 . S
C1349 C1348 1.399 . S
C1349 C1350 1.376 . S
C1350 H1337 0.930 . S
C1350 C1349 1.376 . S
C1350 C1351 1.388 . S
C1351 H1338 0.930 . S
C1351 C1350 1.388 . S
C1351 C1352 1.390 . S
C1352 C1351 1.390 . S
C1352 C1353 1.394 . S
C1352 C1358 1.465 . S
C1353 C1348 1.399 . S
C1353 C1352 1.394 . S
C1353 C1354 1.516 . S
C1354 C1353 1.516 . S
C1354 C1355 1.502 . S
C1354 C1356 1.561 . S
C1354 C1357 1.526 . S
C1355 H1339 0.959 . S
C1355 H1340 0.959 . S
C1355 H1341 0.961 . S
C1355 C1354 1.502 . S
C1356 H1342 0.960 . S
C1356 H1343 0.961 . S
C1356 H1344 0.959 . S
C1356 C1354 1.561 . S
C1357 C1354 1.526 . S
C1357 C1358 1.396 . S
C1357 C1362 1.390 . S
C1358 C1352 1.465 . S
C1358 C1357 1.396 . S
C1358 C1359 1.399 . S
C1359 H1345 0.929 . S
C1359 C1358 1.399 . S
C1359 C1360 1.385 . S
C1360 H1346 0.931 . S
C1360 C1359 1.385 . S
C1360 C1361 1.389 . S
C1361 C1360 1.389 . S
C1361 C1362 1.387 . S
C1362 H1347 0.930 . S
C1362 C1357 1.390 . S
C1362 C1361 1.387 . S
H1363 C1375 0.930 . S
H1364 C1377 0.930 . S
H1365 C1378 0.930 . S
H1366 C1382 0.959 . S
H1367 C1382 0.959 . S
H1368 C1382 0.961 . S
H1369 C1383 0.960 . S
H1370 C1383 0.961 . S
H1371 C1383 0.959 . S
H1372 C1386 0.929 . S
H1373 C1387 0.931 . S
H1374 C1389 0.930 . S
C1375 H1363 0.930 . S
C1375 C1376 1.399 . S
C1375 C1380 1.399 . S
C1376 C1375 1.399 . S
C1376 C1377 1.376 . S
C1377 H1364 0.930 . S
C1377 C1376 1.376 . S
C1377 C1378 1.388 . S
C1378 H1365 0.930 . S
C1378 C1377 1.388 . S
C1378 C1379 1.390 . S
C1379 C1378 1.390 . S
C1379 C1380 1.394 . S
C1379 C1385 1.465 . S
C1380 C1375 1.399 . S
C1380 C1379 1.394 . S
C1380 C1381 1.516 . S
C1381 C1380 1.516 . S
C1381 C1382 1.502 . S
C1381 C1383 1.561 . S
C1381 C1384 1.526 . S
C1382 H1366 0.959 . S
C1382 H1367 0.959 . S
C1382 H1368 0.961 . S
C1382 C1381 1.502 . S
C1383 H1369 0.960 . S
C1383 H1370 0.961 . S
C1383 H1371 0.959 . S
C1383 C1381 1.561 . S
C1384 C1381 1.526 . S
C1384 C1385 1.396 . S
C1384 C1389 1.390 . S
C1385 C1379 1.465 . S
C1385 C1384 1.396 . S
C1385 C1386 1.399 . S
C1386 H1372 0.929 . S
C1386 C1385 1.399 . S
C1386 C1387 1.385 . S
C1387 H1373 0.931 . S
C1387 C1386 1.385 . S
C1387 C1388 1.389 . S
C1388 C1387 1.389 . S
C1388 C1389 1.387 . S
C1389 H1374 0.930 . S
C1389 C1384 1.390 . S
C1389 C1388 1.387 . S
H1390 C1402 0.930 . S
H1391 C1404 0.930 . S
H1392 C1405 0.930 . S
H1393 C1409 0.959 . S
H1394 C1409 0.959 . S
H1395 C1409 0.961 . S
H1396 C1410 0.960 . S
H1397 C1410 0.961 . S
H1398 C1410 0.959 . S
H1399 C1413 0.929 . S
H1400 C1414 0.931 . S
H1401 C1416 0.930 . S
C1402 H1390 0.930 . S
C1402 C1403 1.399 . S
C1402 C1407 1.399 . S
C1403 C1402 1.399 . S
C1403 C1404 1.376 . S
C1404 H1391 0.930 . S
C1404 C1403 1.376 . S
C1404 C1405 1.388 . S
C1405 H1392 0.930 . S
C1405 C1404 1.388 . S
C1405 C1406 1.390 . S
C1406 C1405 1.390 . S
C1406 C1407 1.394 . S
C1406 C1412 1.465 . S
C1407 C1402 1.399 . S
C1407 C1406 1.394 . S
C1407 C1408 1.516 . S
C1408 C1407 1.516 . S
C1408 C1409 1.502 . S
C1408 C1410 1.561 . S
C1408 C1411 1.526 . S
C1409 H1393 0.959 . S
C1409 H1394 0.959 . S
C1409 H1395 0.961 . S
C1409 C1408 1.502 . S
C1410 H1396 0.960 . S
C1410 H1397 0.961 . S
C1410 H1398 0.959 . S
C1410 C1408 1.561 . S
C1411 C1408 1.526 . S
C1411 C1412 1.396 . S
C1411 C1416 1.390 . S
C1412 C1406 1.465 . S
C1412 C1411 1.396 . S
C1412 C1413 1.399 . S
C1413 H1399 0.929 . S
C1413 C1412 1.399 . S
C1413 C1414 1.385 . S
C1414 H1400 0.931 . S
C1414 C1413 1.385 . S
C1414 C1415 1.389 . S
C1415 C1414 1.389 . S
C1415 C1416 1.387 . S
C1416 H1401 0.930 . S
C1416 C1411 1.390 . S
C1416 C1415 1.387 . S
H1417 C1429 0.930 . S
H1418 C1431 0.930 . S
H1419 C1432 0.930 . S
H1420 C1436 0.959 . S
H1421 C1436 0.959 . S
H1422 C1436 0.961 . S
H1423 C1437 0.960 . S
H1424 C1437 0.961 . S
H1425 C1437 0.959 . S
H1426 C1440 0.929 . S
H1427 C1441 0.931 . S
H1428 C1443 0.930 . S
C1429 H1417 0.930 . S
C1429 C1430 1.399 . S
C1429 C1434 1.399 . S
C1430 C1429 1.399 . S
C1430 C1431 1.376 . S
C1431 H1418 0.930 . S
C1431 C1430 1.376 . S
C1431 C1432 1.388 . S
C1432 H1419 0.930 . S
C1432 C1431 1.388 . S
C1432 C1433 1.390 . S
C1433 C1432 1.390 . S
C1433 C1434 1.394 . S
C1433 C1439 1.465 . S
C1434 C1429 1.399 . S
C1434 C1433 1.394 . S
C1434 C1435 1.516 . S
C1435 C1434 1.516 . S
C1435 C1436 1.502 . S
C1435 C1437 1.561 . S
C1435 C1438 1.526 . S
C1436 H1420 0.959 . S
C1436 H1421 0.959 . S
C1436 H1422 0.961 . S
C1436 C1435 1.502 . S
C1437 H1423 0.960 . S
C1437 H1424 0.961 . S
C1437 H1425 0.959 . S
C1437 C1435 1.561 . S
C1438 C1435 1.526 . S
C1438 C1439 1.396 . S
C1438 C1443 1.390 . S
C1439 C1433 1.465 . S
C1439 C1438 1.396 . S
C1439 C1440 1.399 . S
C1440 H1426 0.929 . S
C1440 C1439 1.399 . S
C1440 C1441 1.385 . S
C1441 H1427 0.931 . S
C1441 C1440 1.385 . S
C1441 C1442 1.389 . S
C1442 C1441 1.389 . S
C1442 C1443 1.387 . S
C1443 H1428 0.930 . S
C1443 C1438 1.390 . S
C1443 C1442 1.387 . S
H1444 C1456 0.930 . S
H1445 C1458 0.930 . S
H1446 C1459 0.930 . S
H1447 C1463 0.959 . S
H1448 C1463 0.959 . S
H1449 C1463 0.961 . S
H1450 C1464 0.960 . S
H1451 C1464 0.961 . S
H1452 C1464 0.959 . S
H1453 C1467 0.929 . S
H1454 C1468 0.931 . S
H1455 C1470 0.930 . S
C1456 H1444 0.930 . S
C1456 C1457 1.399 . S
C1456 C1461 1.399 . S
C1457 C1456 1.399 . S
C1457 C1458 1.376 . S
C1458 H1445 0.930 . S
C1458 C1457 1.376 . S
C1458 C1459 1.388 . S
C1459 H1446 0.930 . S
C1459 C1458 1.388 . S
C1459 C1460 1.390 . S
C1460 C1459 1.390 . S
C1460 C1461 1.394 . S
C1460 C1466 1.465 . S
C1461 C1456 1.399 . S
C1461 C1460 1.394 . S
C1461 C1462 1.516 . S
C1462 C1461 1.516 . S
C1462 C1463 1.502 . S
C1462 C1464 1.561 . S
C1462 C1465 1.526 . S
C1463 H1447 0.959 . S
C1463 H1448 0.959 . S
C1463 H1449 0.961 . S
C1463 C1462 1.502 . S
C1464 H1450 0.960 . S
C1464 H1451 0.961 . S
C1464 H1452 0.959 . S
C1464 C1462 1.561 . S
C1465 C1462 1.526 . S
C1465 C1466 1.396 . S
C1465 C1470 1.390 . S
C1466 C1460 1.465 . S
C1466 C1465 1.396 . S
C1466 C1467 1.399 . S
C1467 H1453 0.929 . S
C1467 C1466 1.399 . S
C1467 C1468 1.385 . S
C1468 H1454 0.931 . S
C1468 C1467 1.385 . S
C1468 C1469 1.389 . S
C1469 C1468 1.389 . S
C1469 C1470 1.387 . S
C1470 H1455 0.930 . S
C1470 C1465 1.390 . S
C1470 C1469 1.387 . S
H1471 C1483 0.908 1_565 S
H1472 C1485 0.930 . S
H1473 C1486 0.930 . S
H1474 C1490 0.959 1_545 S
H1475 C1490 0.959 . S
H1476 C1490 0.961 . S
H1477 C1491 0.960 . S
H1478 C1491 0.961 . S
H1479 C1491 0.959 . S
H1480 C1494 0.929 . S
H1481 C1495 0.931 . S
H1482 C1497 0.963 . S
C1483 H1471 0.908 1_545 S
C1483 C1484 1.399 . S
C1483 C1488 1.399 . S
C1484 C1483 1.399 . S
C1484 C1485 1.376 . S
C1485 H1472 0.930 . S
C1485 C1484 1.376 . S
C1485 C1486 1.388 . S
C1486 H1473 0.930 . S
C1486 C1485 1.388 . S
C1486 C1487 1.390 . S
C1487 C1486 1.390 . S
C1487 C1488 1.394 . S
C1487 C1493 1.465 . S
C1488 C1483 1.399 . S
C1488 C1487 1.394 . S
C1488 C1489 1.516 1_545 S
C1489 C1488 1.516 1_565 S
C1489 C1490 1.502 . S
C1489 C1491 1.561 . S
C1489 C1492 1.526 1_565 S
C1490 H1474 0.959 1_565 S
C1490 H1475 0.959 . S
C1490 H1476 0.961 . S
C1490 C1489 1.502 . S
C1491 H1477 0.960 . S
C1491 H1478 0.961 . S
C1491 H1479 0.959 . S
C1491 C1489 1.561 . S
C1492 C1489 1.526 1_545 S
C1492 C1493 1.396 . S
C1492 C1497 1.379 1_545 S
C1493 C1487 1.465 . S
C1493 C1492 1.396 . S
C1493 C1494 1.399 . S
C1494 H1480 0.929 . S
C1494 C1493 1.399 . S
C1494 C1495 1.385 . S
C1495 H1481 0.931 . S
C1495 C1494 1.385 . S
C1495 C1496 1.389 . S
C1496 C1495 1.389 . S
C1496 C1497 1.365 1_545 S
C1497 H1482 0.963 . S
C1497 C1492 1.379 1_565 S
C1497 C1496 1.365 1_565 S
H1498 C1510 0.930 . S
H1499 C1512 0.930 . S
H1500 C1513 0.930 . S
H1501 C1517 0.959 . S
H1502 C1517 0.959 . S
H1503 C1517 0.961 . S
H1504 C1518 0.960 . S
H1505 C1518 0.961 . S
H1506 C1518 0.959 . S
H1507 C1521 0.929 . S
H1508 C1522 0.931 . S
H1509 C1524 0.930 . S
C1510 H1498 0.930 . S
C1510 C1511 1.399 . S
C1510 C1515 1.399 . S
C1511 C1510 1.399 . S
C1511 C1512 1.376 . S
C1512 H1499 0.930 . S
C1512 C1511 1.376 . S
C1512 C1513 1.388 . S
C1513 H1500 0.930 . S
C1513 C1512 1.388 . S
C1513 C1514 1.390 . S
C1514 C1513 1.390 . S
C1514 C1515 1.394 . S
C1514 C1520 1.465 . S
C1515 C1510 1.399 . S
C1515 C1514 1.394 . S
C1515 C1516 1.516 . S
C1516 C1515 1.516 . S
C1516 C1517 1.502 . S
C1516 C1518 1.561 . S
C1516 C1519 1.526 . S
C1517 H1501 0.959 . S
C1517 H1502 0.959 . S
C1517 H1503 0.961 . S
C1517 C1516 1.502 . S
C1518 H1504 0.960 . S
C1518 H1505 0.961 . S
C1518 H1506 0.959 . S
C1518 C1516 1.561 . S
C1519 C1516 1.526 . S
C1519 C1520 1.396 . S
C1519 C1524 1.390 . S
C1520 C1514 1.465 . S
C1520 C1519 1.396 . S
C1520 C1521 1.399 . S
C1521 H1507 0.929 . S
C1521 C1520 1.399 . S
C1521 C1522 1.385 . S
C1522 H1508 0.931 . S
C1522 C1521 1.385 . S
C1522 C1523 1.389 . S
C1523 C1522 1.389 . S
C1523 C1524 1.387 . S
C1524 H1509 0.930 . S
C1524 C1519 1.390 . S
C1524 C1523 1.387 . S
H1525 C1537 0.930 . S
H1526 C1539 0.930 . S
H1527 C1540 0.930 . S
H1528 C1544 0.959 . S
H1529 C1544 0.959 . S
H1530 C1544 0.961 . S
H1531 C1545 0.960 . S
H1532 C1545 0.961 . S
H1533 C1545 0.959 . S
H1534 C1548 0.929 . S
H1535 C1549 0.931 . S
H1536 C1551 0.930 . S
C1537 H1525 0.930 . S
C1537 C1538 1.399 . S
C1537 C1542 1.399 . S
C1538 C1537 1.399 . S
C1538 C1539 1.376 . S
C1539 H1526 0.930 . S
C1539 C1538 1.376 . S
C1539 C1540 1.388 . S
C1540 H1527 0.930 . S
C1540 C1539 1.388 . S
C1540 C1541 1.390 . S
C1541 C1540 1.390 . S
C1541 C1542 1.394 . S
C1541 C1547 1.465 . S
C1542 C1537 1.399 . S
C1542 C1541 1.394 . S
C1542 C1543 1.516 . S
C1543 C1542 1.516 . S
C1543 C1544 1.502 . S
C1543 C1545 1.561 . S
C1543 C1546 1.526 . S
C1544 H1528 0.959 . S
C1544 H1529 0.959 . S
C1544 H1530 0.961 . S
C1544 C1543 1.502 . S
C1545 H1531 0.960 . S
C1545 H1532 0.961 . S
C1545 H1533 0.959 . S
C1545 C1543 1.561 . S
C1546 C1543 1.526 . S
C1546 C1547 1.396 . S
C1546 C1551 1.390 . S
C1547 C1541 1.465 . S
C1547 C1546 1.396 . S
C1547 C1548 1.399 . S
C1548 H1534 0.929 . S
C1548 C1547 1.399 . S
C1548 C1549 1.385 . S
C1549 H1535 0.931 . S
C1549 C1548 1.385 . S
C1549 C1550 1.389 . S
C1550 C1549 1.389 . S
C1550 C1551 1.387 . S
C1551 H1536 0.930 . S
C1551 C1546 1.390 . S
C1551 C1550 1.387 . S
H1552 C1564 0.930 . S
H1553 C1566 0.930 . S
H1554 C1567 0.930 . S
H1555 C1571 0.959 . S
H1556 C1571 0.959 . S
H1557 C1571 0.961 . S
H1558 C1572 0.960 . S
H1559 C1572 0.961 . S
H1560 C1572 0.959 . S
H1561 C1575 0.929 . S
H1562 C1576 0.931 . S
H1563 C1578 0.930 . S
C1564 H1552 0.930 . S
C1564 C1565 1.399 . S
C1564 C1569 1.399 . S
C1565 C1564 1.399 . S
C1565 C1566 1.376 . S
C1566 H1553 0.930 . S
C1566 C1565 1.376 . S
C1566 C1567 1.388 . S
C1567 H1554 0.930 . S
C1567 C1566 1.388 . S
C1567 C1568 1.390 . S
C1568 C1567 1.390 . S
C1568 C1569 1.394 . S
C1568 C1574 1.465 . S
C1569 C1564 1.399 . S
C1569 C1568 1.394 . S
C1569 C1570 1.516 . S
C1570 C1569 1.516 . S
C1570 C1571 1.502 . S
C1570 C1572 1.561 . S
C1570 C1573 1.526 . S
C1571 H1555 0.959 . S
C1571 H1556 0.959 . S
C1571 H1557 0.961 . S
C1571 C1570 1.502 . S
C1572 H1558 0.960 . S
C1572 H1559 0.961 . S
C1572 H1560 0.959 . S
C1572 C1570 1.561 . S
C1573 C1570 1.526 . S
C1573 C1574 1.396 . S
C1573 C1578 1.390 . S
C1574 C1568 1.465 . S
C1574 C1573 1.396 . S
C1574 C1575 1.399 . S
C1575 H1561 0.929 . S
C1575 C1574 1.399 . S
C1575 C1576 1.385 . S
C1576 H1562 0.931 . S
C1576 C1575 1.385 . S
C1576 C1577 1.389 . S
C1577 C1576 1.389 . S
C1577 C1578 1.387 . S
C1578 H1563 0.930 . S
C1578 C1573 1.390 . S
C1578 C1577 1.387 . S
H1579 C1591 0.930 . S
H1580 C1593 0.930 . S
H1581 C1594 0.930 . S
H1582 C1598 0.959 . S
H1583 C1598 0.959 . S
H1584 C1598 0.961 . S
H1585 C1599 0.960 . S
H1586 C1599 0.961 . S
H1587 C1599 0.959 . S
H1588 C1602 0.929 . S
H1589 C1603 0.931 . S
H1590 C1605 0.930 . S
C1591 H1579 0.930 . S
C1591 C1592 1.399 . S
C1591 C1596 1.399 . S
C1592 C1591 1.399 . S
C1592 C1593 1.376 . S
C1593 H1580 0.930 . S
C1593 C1592 1.376 . S
C1593 C1594 1.388 . S
C1594 H1581 0.930 . S
C1594 C1593 1.388 . S
C1594 C1595 1.390 . S
C1595 C1594 1.390 . S
C1595 C1596 1.394 . S
C1595 C1601 1.465 . S
C1596 C1591 1.399 . S
C1596 C1595 1.394 . S
C1596 C1597 1.516 . S
C1597 C1596 1.516 . S
C1597 C1598 1.502 . S
C1597 C1599 1.561 . S
C1597 C1600 1.526 . S
C1598 H1582 0.959 . S
C1598 H1583 0.959 . S
C1598 H1584 0.961 . S
C1598 C1597 1.502 . S
C1599 H1585 0.960 . S
C1599 H1586 0.961 . S
C1599 H1587 0.959 . S
C1599 C1597 1.561 . S
C1600 C1597 1.526 . S
C1600 C1601 1.396 . S
C1600 C1605 1.390 . S
C1601 C1595 1.465 . S
C1601 C1600 1.396 . S
C1601 C1602 1.399 . S
C1602 H1588 0.929 . S
C1602 C1601 1.399 . S
C1602 C1603 1.385 . S
C1603 H1589 0.931 . S
C1603 C1602 1.385 . S
C1603 C1604 1.389 . S
C1604 C1603 1.389 . S
C1604 C1605 1.387 . S
C1605 H1590 0.930 . S
C1605 C1600 1.390 . S
C1605 C1604 1.387 . S
H1606 C1618 0.930 . S
H1607 C1620 0.930 . S
H1608 C1621 0.930 . S
H1609 C1625 0.959 . S
H1610 C1625 0.959 . S
H1611 C1625 0.961 . S
H1612 C1626 0.960 . S
H1613 C1626 0.961 . S
H1614 C1626 0.959 . S
H1615 C1629 0.929 . S
H1616 C1630 0.931 . S
H1617 C1632 0.930 . S
C1618 H1606 0.930 . S
C1618 C1619 1.399 . S
C1618 C1623 1.399 . S
C1619 C1618 1.399 . S
C1619 C1620 1.376 . S
C1620 H1607 0.930 . S
C1620 C1619 1.376 . S
C1620 C1621 1.388 . S
C1621 H1608 0.930 . S
C1621 C1620 1.388 . S
C1621 C1622 1.390 . S
C1622 C1621 1.390 . S
C1622 C1623 1.394 . S
C1622 C1628 1.465 . S
C1623 C1618 1.399 . S
C1623 C1622 1.394 . S
C1623 C1624 1.516 . S
C1624 C1623 1.516 . S
C1624 C1625 1.502 . S
C1624 C1626 1.561 . S
C1624 C1627 1.526 . S
C1625 H1609 0.959 . S
C1625 H1610 0.959 . S
C1625 H1611 0.961 . S
C1625 C1624 1.502 . S
C1626 H1612 0.960 . S
C1626 H1613 0.961 . S
C1626 H1614 0.959 . S
C1626 C1624 1.561 . S
C1627 C1624 1.526 . S
C1627 C1628 1.396 . S
C1627 C1632 1.390 . S
C1628 C1622 1.465 . S
C1628 C1627 1.396 . S
C1628 C1629 1.399 . S
C1629 H1615 0.929 . S
C1629 C1628 1.399 . S
C1629 C1630 1.385 . S
C1630 H1616 0.931 . S
C1630 C1629 1.385 . S
C1630 C1631 1.389 . S
C1631 C1630 1.389 . S
C1631 C1632 1.387 . S
C1632 H1617 0.930 . S
C1632 C1627 1.390 . S
C1632 C1631 1.387 . S
H1633 C1645 0.930 . S
H1634 C1647 0.930 . S
H1635 C1648 0.930 . S
H1636 C1652 0.959 . S
H1637 C1652 0.959 . S
H1638 C1652 0.961 . S
H1639 C1653 0.960 . S
H1640 C1653 0.961 . S
H1641 C1653 0.959 . S
H1642 C1656 0.929 . S
H1643 C1657 0.931 . S
H1644 C1659 0.930 . S
C1645 H1633 0.930 . S
C1645 C1646 1.399 . S
C1645 C1650 1.399 . S
C1646 C1645 1.399 . S
C1646 C1647 1.376 . S
C1647 H1634 0.930 . S
C1647 C1646 1.376 . S
C1647 C1648 1.388 . S
C1648 H1635 0.930 . S
C1648 C1647 1.388 . S
C1648 C1649 1.390 . S
C1649 C1648 1.390 . S
C1649 C1650 1.394 . S
C1649 C1655 1.465 . S
C1650 C1645 1.399 . S
C1650 C1649 1.394 . S
C1650 C1651 1.516 . S
C1651 C1650 1.516 . S
C1651 C1652 1.502 . S
C1651 C1653 1.561 . S
C1651 C1654 1.526 . S
C1652 H1636 0.959 . S
C1652 H1637 0.959 . S
C1652 H1638 0.961 . S
C1652 C1651 1.502 . S
C1653 H1639 0.960 . S
C1653 H1640 0.961 . S
C1653 H1641 0.959 . S
C1653 C1651 1.561 . S
C1654 C1651 1.526 . S
C1654 C1655 1.396 . S
C1654 C1659 1.390 . S
C1655 C1649 1.465 . S
C1655 C1654 1.396 . S
C1655 C1656 1.399 . S
C1656 H1642 0.929 . S
C1656 C1655 1.399 . S
C1656 C1657 1.385 . S
C1657 H1643 0.931 . S
C1657 C1656 1.385 . S
C1657 C1658 1.389 . S
C1658 C1657 1.389 . S
C1658 C1659 1.387 . S
C1659 H1644 0.930 . S
C1659 C1654 1.390 . S
C1659 C1658 1.387 . S
H1660 C1672 0.930 . S
H1661 C1674 0.930 . S
H1662 C1675 0.930 . S
H1663 C1679 0.959 . S
H1664 C1679 0.959 . S
H1665 C1679 0.961 . S
H1666 C1680 0.960 . S
H1667 C1680 0.961 . S
H1668 C1680 0.959 . S
H1669 C1683 0.929 . S
H1670 C1684 0.931 . S
H1671 C1686 0.930 . S
C1672 H1660 0.930 . S
C1672 C1673 1.399 . S
C1672 C1677 1.399 . S
C1673 C1672 1.399 . S
C1673 C1674 1.376 . S
C1674 H1661 0.930 . S
C1674 C1673 1.376 . S
C1674 C1675 1.388 . S
C1675 H1662 0.930 . S
C1675 C1674 1.388 . S
C1675 C1676 1.390 . S
C1676 C1675 1.390 . S
C1676 C1677 1.394 . S
C1676 C1682 1.465 . S
C1677 C1672 1.399 . S
C1677 C1676 1.394 . S
C1677 C1678 1.516 . S
C1678 C1677 1.516 . S
C1678 C1679 1.502 . S
C1678 C1680 1.561 . S
C1678 C1681 1.526 . S
C1679 H1663 0.959 . S
C1679 H1664 0.959 . S
C1679 H1665 0.961 . S
C1679 C1678 1.502 . S
C1680 H1666 0.960 . S
C1680 H1667 0.961 . S
C1680 H1668 0.959 . S
C1680 C1678 1.561 . S
C1681 C1678 1.526 . S
C1681 C1682 1.396 . S
C1681 C1686 1.390 . S
C1682 C1676 1.465 . S
C1682 C1681 1.396 . S
C1682 C1683 1.399 . S
C1683 H1669 0.929 . S
C1683 C1682 1.399 . S
C1683 C1684 1.385 . S
C1684 H1670 0.931 . S
C1684 C1683 1.385 . S
C1684 C1685 1.389 . S
C1685 C1684 1.389 . S
C1685 C1686 1.387 . S
C1686 H1671 0.930 . S
C1686 C1681 1.390 . S
C1686 C1685 1.387 . S
H1687 C1699 0.930 . S
H1688 C1701 0.930 . S
H1689 C1702 0.930 . S
H1690 C1706 0.959 . S
H1691 C1706 0.959 . S
H1692 C1706 0.961 . S
H1693 C1707 0.960 . S
H1694 C1707 0.961 . S
H1695 C1707 0.959 . S
H1696 C1710 0.929 . S
H1697 C1711 0.931 . S
H1698 C1713 0.930 . S
C1699 H1687 0.930 . S
C1699 C1700 1.399 . S
C1699 C1704 1.399 . S
C1700 C1699 1.399 . S
C1700 C1701 1.376 . S
C1701 H1688 0.930 . S
C1701 C1700 1.376 . S
C1701 C1702 1.388 . S
C1702 H1689 0.930 . S
C1702 C1701 1.388 . S
C1702 C1703 1.390 . S
C1703 C1702 1.390 . S
C1703 C1704 1.394 . S
C1703 C1709 1.465 . S
C1704 C1699 1.399 . S
C1704 C1703 1.394 . S
C1704 C1705 1.516 . S
C1705 C1704 1.516 . S
C1705 C1706 1.502 1_655 S
C1705 C1707 1.561 . S
C1705 C1708 1.526 . S
C1706 H1690 0.959 . S
C1706 H1691 0.959 . S
C1706 H1692 0.961 . S
C1706 C1705 1.502 1_455 S
C1707 H1693 0.960 . S
C1707 H1694 0.961 . S
C1707 H1695 0.959 . S
C1707 C1705 1.561 . S
C1708 C1705 1.526 . S
C1708 C1709 1.396 . S
C1708 C1713 1.390 . S
C1709 C1703 1.465 . S
C1709 C1708 1.396 . S
C1709 C1710 1.399 . S
C1710 H1696 0.929 . S
C1710 C1709 1.399 . S
C1710 C1711 1.385 . S
C1711 H1697 0.931 . S
C1711 C1710 1.385 . S
C1711 C1712 1.389 . S
C1712 C1711 1.389 . S
C1712 C1713 1.387 . S
C1713 H1698 0.930 . S
C1713 C1708 1.390 . S
C1713 C1712 1.387 . S
H1714 C1726 0.930 . S
H1715 C1728 0.930 . S
H1716 C1729 0.930 . S
H1717 C1733 0.959 . S
H1718 C1733 0.959 . S
H1719 C1733 0.961 . S
H1720 C1734 0.960 . S
H1721 C1734 0.961 . S
H1722 C1734 0.959 . S
H1723 C1737 0.929 . S
H1724 C1738 0.931 . S
H1725 C1740 0.930 . S
C1726 H1714 0.930 . S
C1726 C1727 1.399 . S
C1726 C1731 1.399 . S
C1727 C1726 1.399 . S
C1727 C1728 1.376 . S
C1728 H1715 0.930 . S
C1728 C1727 1.376 . S
C1728 C1729 1.388 . S
C1729 H1716 0.930 . S
C1729 C1728 1.388 . S
C1729 C1730 1.390 . S
C1730 C1729 1.390 . S
C1730 C1731 1.394 . S
C1730 C1736 1.465 . S
C1731 C1726 1.399 . S
C1731 C1730 1.394 . S
C1731 C1732 1.516 . S
C1732 C1731 1.516 . S
C1732 C1733 1.502 . S
C1732 C1734 1.561 . S
C1732 C1735 1.526 . S
C1733 H1717 0.959 . S
C1733 H1718 0.959 . S
C1733 H1719 0.961 . S
C1733 C1732 1.502 . S
C1734 H1720 0.960 . S
C1734 H1721 0.961 . S
C1734 H1722 0.959 . S
C1734 C1732 1.561 . S
C1735 C1732 1.526 . S
C1735 C1736 1.396 . S
C1735 C1740 1.390 . S
C1736 C1730 1.465 . S
C1736 C1735 1.396 . S
C1736 C1737 1.399 . S
C1737 H1723 0.929 . S
C1737 C1736 1.399 . S
C1737 C1738 1.385 . S
C1738 H1724 0.931 . S
C1738 C1737 1.385 . S
C1738 C1739 1.389 . S
C1739 C1738 1.389 . S
C1739 C1740 1.387 . S
C1740 H1725 0.930 . S
C1740 C1735 1.390 . S
C1740 C1739 1.387 . S
H1741 C1753 0.930 1_655 S
H1742 C1755 0.930 . S
H1743 C1756 0.930 . S
H1744 C1760 0.959 . S
H1745 C1760 0.959 . S
H1746 C1760 0.961 . S
H1747 C1761 0.960 . S
H1748 C1761 0.961 . S
H1749 C1761 0.959 . S
H1750 C1764 0.929 . S
H1751 C1765 0.931 . S
H1752 C1767 0.896 1_655 S
C1753 H1741 0.930 1_455 S
C1753 C1754 1.399 . S
C1753 C1758 1.399 . S
C1754 C1753 1.399 . S
C1754 C1755 1.376 . S
C1755 H1742 0.930 . S
C1755 C1754 1.376 . S
C1755 C1756 1.388 . S
C1756 H1743 0.930 . S
C1756 C1755 1.388 . S
C1756 C1757 1.390 . S
C1757 C1756 1.390 . S
C1757 C1758 1.394 . S
C1757 C1763 1.465 . S
C1758 C1753 1.399 . S
C1758 C1757 1.394 . S
C1758 C1759 1.516 1_455 S
C1759 C1758 1.516 1_655 S
C1759 C1760 1.502 . S
C1759 C1761 1.561 . S
C1759 C1762 1.526 1_655 S
C1760 H1744 0.959 . S
C1760 H1745 0.959 . S
C1760 H1746 0.961 . S
C1760 C1759 1.502 . S
C1761 H1747 0.960 . S
C1761 H1748 0.961 . S
C1761 H1749 0.959 . S
C1761 C1759 1.561 . S
C1762 C1759 1.526 1_455 S
C1762 C1763 1.396 . S
C1762 C1767 1.402 . S
C1763 C1757 1.465 . S
C1763 C1762 1.396 . S
C1763 C1764 1.399 . S
C1764 H1750 0.929 . S
C1764 C1763 1.399 . S
C1764 C1765 1.385 . S
C1765 H1751 0.931 . S
C1765 C1764 1.385 . S
C1765 C1766 1.389 . S
C1766 C1765 1.389 . S
C1766 C1767 1.409 . S
C1767 H1752 0.896 1_455 S
C1767 C1762 1.402 . S
C1767 C1766 1.409 . S
H1768 C1780 0.930 . S
H1769 C1782 0.930 . S
H1770 C1783 0.930 . S
H1771 C1787 0.959 . S
H1772 C1787 0.959 . S
H1773 C1787 0.961 . S
H1774 C1788 0.960 . S
H1775 C1788 0.961 . S
H1776 C1788 0.959 . S
H1777 C1791 0.929 . S
H1778 C1792 0.931 . S
H1779 C1794 0.930 . S
C1780 H1768 0.930 . S
C1780 C1781 1.399 . S
C1780 C1785 1.399 . S
C1781 C1780 1.399 . S
C1781 C1782 1.376 . S
C1782 H1769 0.930 . S
C1782 C1781 1.376 . S
C1782 C1783 1.388 . S
C1783 H1770 0.930 . S
C1783 C1782 1.388 . S
C1783 C1784 1.390 . S
C1784 C1783 1.390 . S
C1784 C1785 1.394 . S
C1784 C1790 1.465 . S
C1785 C1780 1.399 . S
C1785 C1784 1.394 . S
C1785 C1786 1.516 . S
C1786 C1785 1.516 . S
C1786 C1787 1.502 . S
C1786 C1788 1.561 . S
C1786 C1789 1.526 . S
C1787 H1771 0.959 . S
C1787 H1772 0.959 . S
C1787 H1773 0.961 . S
C1787 C1786 1.502 . S
C1788 H1774 0.960 . S
C1788 H1775 0.961 . S
C1788 H1776 0.959 . S
C1788 C1786 1.561 . S
C1789 C1786 1.526 . S
C1789 C1790 1.396 . S
C1789 C1794 1.390 . S
C1790 C1784 1.465 . S
C1790 C1789 1.396 . S
C1790 C1791 1.399 . S
C1791 H1777 0.929 . S
C1791 C1790 1.399 . S
C1791 C1792 1.385 . S
C1792 H1778 0.931 . S
C1792 C1791 1.385 . S
C1792 C1793 1.389 . S
C1793 C1792 1.389 . S
C1793 C1794 1.387 . S
C1794 H1779 0.930 . S
C1794 C1789 1.390 . S
C1794 C1793 1.387 . S
H1795 C1807 0.930 . S
H1796 C1809 0.930 . S
H1797 C1810 0.930 . S
H1798 C1814 0.959 . S
H1799 C1814 0.959 . S
H1800 C1814 0.961 . S
H1801 C1815 0.960 . S
H1802 C1815 0.961 . S
H1803 C1815 0.959 . S
H1804 C1818 0.929 . S
H1805 C1819 0.931 . S
H1806 C1821 0.930 . S
C1807 H1795 0.930 . S
C1807 C1808 1.399 . S
C1807 C1812 1.399 . S
C1808 C1807 1.399 . S
C1808 C1809 1.376 . S
C1809 H1796 0.930 . S
C1809 C1808 1.376 . S
C1809 C1810 1.388 . S
C1810 H1797 0.930 . S
C1810 C1809 1.388 . S
C1810 C1811 1.390 . S
C1811 C1810 1.390 . S
C1811 C1812 1.394 . S
C1811 C1817 1.465 . S
C1812 C1807 1.399 . S
C1812 C1811 1.394 . S
C1812 C1813 1.516 . S
C1813 C1812 1.516 . S
C1813 C1814 1.502 . S
C1813 C1815 1.561 . S
C1813 C1816 1.526 . S
C1814 H1798 0.959 . S
C1814 H1799 0.959 . S
C1814 H1800 0.961 . S
C1814 C1813 1.502 . S
C1815 H1801 0.960 . S
C1815 H1802 0.961 . S
C1815 H1803 0.959 . S
C1815 C1813 1.561 . S
C1816 C1813 1.526 . S
C1816 C1817 1.396 . S
C1816 C1821 1.390 . S
C1817 C1811 1.465 . S
C1817 C1816 1.396 . S
C1817 C1818 1.399 . S
C1818 H1804 0.929 . S
C1818 C1817 1.399 . S
C1818 C1819 1.385 . S
C1819 H1805 0.931 . S
C1819 C1818 1.385 . S
C1819 C1820 1.389 . S
C1820 C1819 1.389 . S
C1820 C1821 1.387 . S
C1821 H1806 0.930 . S
C1821 C1816 1.390 . S
C1821 C1820 1.387 . S
H1822 C1834 0.930 . S
H1823 C1836 0.930 . S
H1824 C1837 0.930 . S
H1825 C1841 0.959 . S
H1826 C1841 0.959 . S
H1827 C1841 0.961 . S
H1828 C1842 0.960 . S
H1829 C1842 0.961 . S
H1830 C1842 0.959 . S
H1831 C1845 0.929 . S
H1832 C1846 0.931 . S
H1833 C1848 0.930 . S
C1834 H1822 0.930 . S
C1834 C1835 1.399 . S
C1834 C1839 1.399 . S
C1835 C1834 1.399 . S
C1835 C1836 1.376 . S
C1836 H1823 0.930 . S
C1836 C1835 1.376 . S
C1836 C1837 1.388 . S
C1837 H1824 0.930 . S
C1837 C1836 1.388 . S
C1837 C1838 1.390 . S
C1838 C1837 1.390 . S
C1838 C1839 1.394 . S
C1838 C1844 1.465 . S
C1839 C1834 1.399 . S
C1839 C1838 1.394 . S
C1839 C1840 1.516 . S
C1840 C1839 1.516 . S
C1840 C1841 1.502 . S
C1840 C1842 1.561 . S
C1840 C1843 1.526 . S
C1841 H1825 0.959 . S
C1841 H1826 0.959 . S
C1841 H1827 0.961 . S
C1841 C1840 1.502 . S
C1842 H1828 0.960 . S
C1842 H1829 0.961 . S
C1842 H1830 0.959 . S
C1842 C1840 1.561 . S
C1843 C1840 1.526 . S
C1843 C1844 1.396 . S
C1843 C1848 1.390 . S
C1844 C1838 1.465 . S
C1844 C1843 1.396 . S
C1844 C1845 1.399 . S
C1845 H1831 0.929 . S
C1845 C1844 1.399 . S
C1845 C1846 1.385 . S
C1846 H1832 0.931 . S
C1846 C1845 1.385 . S
C1846 C1847 1.389 . S
C1847 C1846 1.389 . S
C1847 C1848 1.387 . S
C1848 H1833 0.930 . S
C1848 C1843 1.390 . S
C1848 C1847 1.387 . S
H1849 C1861 0.930 . S
H1850 C1863 0.930 . S
H1851 C1864 0.930 . S
H1852 C1868 0.959 . S
H1853 C1868 0.959 . S
H1854 C1868 0.961 . S
H1855 C1869 0.960 . S
H1856 C1869 0.961 . S
H1857 C1869 0.959 . S
H1858 C1872 0.929 . S
H1859 C1873 0.931 . S
H1860 C1875 0.930 . S
C1861 H1849 0.930 . S
C1861 C1862 1.399 . S
C1861 C1866 1.399 . S
C1862 C1861 1.399 . S
C1862 C1863 1.376 . S
C1863 H1850 0.930 . S
C1863 C1862 1.376 . S
C1863 C1864 1.388 . S
C1864 H1851 0.930 . S
C1864 C1863 1.388 . S
C1864 C1865 1.390 . S
C1865 C1864 1.390 . S
C1865 C1866 1.394 . S
C1865 C1871 1.465 . S
C1866 C1861 1.399 . S
C1866 C1865 1.394 . S
C1866 C1867 1.516 . S
C1867 C1866 1.516 . S
C1867 C1868 1.502 . S
C1867 C1869 1.561 . S
C1867 C1870 1.526 . S
C1868 H1852 0.959 . S
C1868 H1853 0.959 . S
C1868 H1854 0.961 . S
C1868 C1867 1.502 . S
C1869 H1855 0.960 . S
C1869 H1856 0.961 . S
C1869 H1857 0.959 . S
C1869 C1867 1.561 . S
C1870 C1867 1.526 . S
C1870 C1871 1.396 . S
C1870 C1875 1.390 . S
C1871 C1865 1.465 . S
C1871 C1870 1.396 . S
C1871 C1872 1.399 . S
C1872 H1858 0.929 . S
C1872 C1871 1.399 . S
C1872 C1873 1.385 . S
C1873 H1859 0.931 . S
C1873 C1872 1.385 . S
C1873 C1874 1.389 . S
C1874 C1873 1.389 . S
C1874 C1875 1.387 . S
C1875 H1860 0.930 . S
C1875 C1870 1.390 . S
C1875 C1874 1.387 . S
H1876 C1888 0.930 . S
H1877 C1890 0.930 . S
H1878 C1891 0.930 . S
H1879 C1895 0.959 . S
H1880 C1895 0.959 . S
H1881 C1895 0.961 . S
H1882 C1896 0.960 . S
H1883 C1896 0.961 . S
H1884 C1896 0.959 . S
H1885 C1899 0.929 . S
H1886 C1900 0.931 . S
H1887 C1902 0.930 . S
C1888 H1876 0.930 . S
C1888 C1889 1.399 . S
C1888 C1893 1.399 . S
C1889 C1888 1.399 . S
C1889 C1890 1.376 . S
C1890 H1877 0.930 . S
C1890 C1889 1.376 . S
C1890 C1891 1.388 . S
C1891 H1878 0.930 . S
C1891 C1890 1.388 . S
C1891 C1892 1.390 . S
C1892 C1891 1.390 . S
C1892 C1893 1.394 . S
C1892 C1898 1.465 . S
C1893 C1888 1.399 . S
C1893 C1892 1.394 . S
C1893 C1894 1.516 . S
C1894 C1893 1.516 . S
C1894 C1895 1.502 . S
C1894 C1896 1.561 . S
C1894 C1897 1.526 . S
C1895 H1879 0.959 . S
C1895 H1880 0.959 . S
C1895 H1881 0.961 . S
C1895 C1894 1.502 . S
C1896 H1882 0.960 . S
C1896 H1883 0.961 . S
C1896 H1884 0.959 . S
C1896 C1894 1.561 . S
C1897 C1894 1.526 . S
C1897 C1898 1.396 . S
C1897 C1902 1.390 . S
C1898 C1892 1.465 . S
C1898 C1897 1.396 . S
C1898 C1899 1.399 . S
C1899 H1885 0.929 . S
C1899 C1898 1.399 . S
C1899 C1900 1.385 . S
C1900 H1886 0.931 . S
C1900 C1899 1.385 . S
C1900 C1901 1.389 . S
C1901 C1900 1.389 . S
C1901 C1902 1.387 . S
C1902 H1887 0.930 . S
C1902 C1897 1.390 . S
C1902 C1901 1.387 . S
H1903 C1915 0.930 . S
H1904 C1917 0.930 . S
H1905 C1918 0.930 . S
H1906 C1922 0.959 . S
H1907 C1922 0.959 . S
H1908 C1922 0.961 . S
H1909 C1923 0.960 . S
H1910 C1923 0.961 . S
H1911 C1923 0.959 . S
H1912 C1926 0.929 . S
H1913 C1927 0.931 . S
H1914 C1929 0.930 . S
C1915 H1903 0.930 . S
C1915 C1916 1.399 . S
C1915 C1920 1.399 . S
C1916 C1915 1.399 . S
C1916 C1917 1.376 . S
C1917 H1904 0.930 . S
C1917 C1916 1.376 . S
C1917 C1918 1.388 . S
C1918 H1905 0.930 . S
C1918 C1917 1.388 . S
C1918 C1919 1.390 . S
C1919 C1918 1.390 . S
C1919 C1920 1.394 . S
C1919 C1925 1.465 . S
C1920 C1915 1.399 . S
C1920 C1919 1.394 . S
C1920 C1921 1.516 . S
C1921 C1920 1.516 . S
C1921 C1922 1.502 . S
C1921 C1923 1.561 . S
C1921 C1924 1.526 . S
C1922 H1906 0.959 . S
C1922 H1907 0.959 . S
C1922 H1908 0.961 . S
C1922 C1921 1.502 . S
C1923 H1909 0.960 . S
C1923 H1910 0.961 . S
C1923 H1911 0.959 . S
C1923 C1921 1.561 . S
C1924 C1921 1.526 . S
C1924 C1925 1.396 . S
C1924 C1929 1.390 . S
C1925 C1919 1.465 . S
C1925 C1924 1.396 . S
C1925 C1926 1.399 . S
C1926 H1912 0.929 . S
C1926 C1925 1.399 . S
C1926 C1927 1.385 . S
C1927 H1913 0.931 . S
C1927 C1926 1.385 . S
C1927 C1928 1.389 . S
C1928 C1927 1.389 . S
C1928 C1929 1.387 . S
C1929 H1914 0.930 . S
C1929 C1924 1.390 . S
C1929 C1928 1.387 . S
H1930 C1942 0.930 . S
H1931 C1944 0.930 . S
H1932 C1945 0.930 . S
H1933 C1949 0.959 . S
H1934 C1949 0.959 . S
H1935 C1949 0.961 . S
H1936 C1950 0.960 . S
H1937 C1950 0.961 . S
H1938 C1950 0.959 . S
H1939 C1953 0.929 . S
H1940 C1954 0.931 . S
H1941 C1956 0.930 . S
C1942 H1930 0.930 . S
C1942 C1943 1.399 . S
C1942 C1947 1.399 . S
C1943 C1942 1.399 . S
C1943 C1944 1.376 . S
C1944 H1931 0.930 . S
C1944 C1943 1.376 . S
C1944 C1945 1.388 . S
C1945 H1932 0.930 . S
C1945 C1944 1.388 . S
C1945 C1946 1.390 . S
C1946 C1945 1.390 . S
C1946 C1947 1.394 . S
C1946 C1952 1.465 . S
C1947 C1942 1.399 . S
C1947 C1946 1.394 . S
C1947 C1948 1.516 . S
C1948 C1947 1.516 . S
C1948 C1949 1.502 . S
C1948 C1950 1.561 . S
C1948 C1951 1.526 . S
C1949 H1933 0.959 . S
C1949 H1934 0.959 . S
C1949 H1935 0.961 . S
C1949 C1948 1.502 . S
C1950 H1936 0.960 . S
C1950 H1937 0.961 . S
C1950 H1938 0.959 . S
C1950 C1948 1.561 . S
C1951 C1948 1.526 . S
C1951 C1952 1.396 . S
C1951 C1956 1.390 . S
C1952 C1946 1.465 . S
C1952 C1951 1.396 . S
C1952 C1953 1.399 . S
C1953 H1939 0.929 . S
C1953 C1952 1.399 . S
C1953 C1954 1.385 . S
C1954 H1940 0.931 . S
C1954 C1953 1.385 . S
C1954 C1955 1.389 . S
C1955 C1954 1.389 . S
C1955 C1956 1.387 . S
C1956 H1941 0.930 . S
C1956 C1951 1.390 . S
C1956 C1955 1.387 . S
H1957 C1969 0.930 . S
H1958 C1971 0.930 . S
H1959 C1972 0.930 . S
H1960 C1976 0.959 . S
H1961 C1976 0.959 . S
H1962 C1976 0.961 . S
H1963 C1977 0.960 . S
H1964 C1977 0.961 . S
H1965 C1977 0.959 . S
H1966 C1980 0.929 . S
H1967 C1981 0.931 . S
H1968 C1983 0.930 . S
C1969 H1957 0.930 . S
C1969 C1970 1.399 . S
C1969 C1974 1.399 . S
C1970 C1969 1.399 . S
C1970 C1971 1.376 . S
C1971 H1958 0.930 . S
C1971 C1970 1.376 . S
C1971 C1972 1.388 . S
C1972 H1959 0.930 . S
C1972 C1971 1.388 . S
C1972 C1973 1.390 . S
C1973 C1972 1.390 . S
C1973 C1974 1.394 . S
C1973 C1979 1.465 . S
C1974 C1969 1.399 . S
C1974 C1973 1.394 . S
C1974 C1975 1.516 . S
C1975 C1974 1.516 . S
C1975 C1976 1.502 . S
C1975 C1977 1.561 . S
C1975 C1978 1.526 . S
C1976 H1960 0.959 . S
C1976 H1961 0.959 . S
C1976 H1962 0.961 . S
C1976 C1975 1.502 . S
C1977 H1963 0.960 . S
C1977 H1964 0.961 . S
C1977 H1965 0.959 . S
C1977 C1975 1.561 . S
C1978 C1975 1.526 . S
C1978 C1979 1.396 . S
C1978 C1983 1.390 . S
C1979 C1973 1.465 . S
C1979 C1978 1.396 . S
C1979 C1980 1.399 . S
C1980 H1966 0.929 . S
C1980 C1979 1.399 . S
C1980 C1981 1.385 . S
C1981 H1967 0.931 . S
C1981 C1980 1.385 . S
C1981 C1982 1.389 . S
C1982 C1981 1.389 . S
C1982 C1983 1.387 . S
C1983 H1968 0.930 . S
C1983 C1978 1.390 . S
C1983 C1982 1.387 . S
H1984 C1996 0.930 . S
H1985 C1998 0.930 1_554 S
H1986 C1999 0.930 . S
H1987 C2003 0.959 . S
H1988 C2003 0.959 . S
H1989 C2003 0.961 . S
H1990 C2004 0.960 . S
H1991 C2004 0.961 . S
H1992 C2004 0.959 . S
H1993 C2007 0.929 . S
H1994 C2008 0.931 . S
H1995 C2010 0.930 . S
C1996 H1984 0.930 . S
C1996 C1997 1.399 . S
C1996 C2001 1.399 . S
C1997 C1996 1.399 . S
C1997 C1998 1.376 . S
C1998 H1985 0.930 1_556 S
C1998 C1997 1.376 . S
C1998 C1999 1.388 1_556 S
C1999 H1986 0.930 . S
C1999 C1998 1.388 1_554 S
C1999 C2000 1.390 1_554 S
C2000 C1999 1.390 1_556 S
C2000 C2001 1.394 . S
C2000 C2006 1.465 . S
C2001 C1996 1.399 . S
C2001 C2000 1.394 . S
C2001 C2002 1.516 . S
C2002 C2001 1.516 . S
C2002 C2003 1.502 . S
C2002 C2004 1.561 . S
C2002 C2005 1.526 . S
C2003 H1987 0.959 . S
C2003 H1988 0.959 . S
C2003 H1989 0.961 . S
C2003 C2002 1.502 . S
C2004 H1990 0.960 . S
C2004 H1991 0.961 . S
C2004 H1992 0.959 . S
C2004 C2002 1.561 . S
C2005 C2002 1.526 . S
C2005 C2006 1.396 . S
C2005 C2010 1.390 . S
C2006 C2000 1.465 . S
C2006 C2005 1.396 . S
C2006 C2007 1.399 1_556 S
C2007 H1993 0.929 . S
C2007 C2006 1.399 1_554 S
C2007 C2008 1.385 . S
C2008 H1994 0.931 . S
C2008 C2007 1.385 . S
C2008 C2009 1.389 1_554 S
C2009 C2008 1.389 1_556 S
C2009 C2010 1.387 . S
C2010 H1995 0.930 . S
C2010 C2005 1.390 . S
C2010 C2009 1.387 . S
H2011 C2023 0.930 . S
H2012 C2025 0.930 . S
H2013 C2026 0.930 . S
H2014 C2030 0.959 . S
H2015 C2030 0.959 . S
H2016 C2030 0.961 . S
H2017 C2031 0.960 . S
H2018 C2031 0.961 . S
H2019 C2031 0.959 . S
H2020 C2034 0.929 . S
H2021 C2035 0.931 . S
H2022 C2037 0.930 . S
C2023 H2011 0.930 . S
C2023 C2024 1.399 . S
C2023 C2028 1.399 . S
C2024 C2023 1.399 . S
C2024 C2025 1.376 . S
C2025 H2012 0.930 . S
C2025 C2024 1.376 . S
C2025 C2026 1.388 . S
C2026 H2013 0.930 . S
C2026 C2025 1.388 . S
C2026 C2027 1.390 . S
C2027 C2026 1.390 . S
C2027 C2028 1.394 . S
C2027 C2033 1.465 . S
C2028 C2023 1.399 . S
C2028 C2027 1.394 . S
C2028 C2029 1.516 . S
C2029 C2028 1.516 . S
C2029 C2030 1.502 . S
C2029 C2031 1.561 . S
C2029 C2032 1.526 . S
C2030 H2014 0.959 . S
C2030 H2015 0.959 . S
C2030 H2016 0.961 . S
C2030 C2029 1.502 . S
C2031 H2017 0.960 . S
C2031 H2018 0.961 . S
C2031 H2019 0.959 . S
C2031 C2029 1.561 . S
C2032 C2029 1.526 . S
C2032 C2033 1.396 . S
C2032 C2037 1.390 . S
C2033 C2027 1.465 . S
C2033 C2032 1.396 . S
C2033 C2034 1.399 . S
C2034 H2020 0.929 . S
C2034 C2033 1.399 . S
C2034 C2035 1.385 . S
C2035 H2021 0.931 . S
C2035 C2034 1.385 . S
C2035 C2036 1.389 . S
C2036 C2035 1.389 . S
C2036 C2037 1.387 . S
C2037 H2022 0.930 . S
C2037 C2032 1.390 . S
C2037 C2036 1.387 . S
H2038 C2050 0.930 . S
H2039 C2052 0.930 . S
H2040 C2053 0.930 . S
H2041 C2057 0.959 1_556 S
H2042 C2057 0.959 . S
H2043 C2057 0.961 . S
H2044 C2058 0.960 . S
H2045 C2058 0.961 . S
H2046 C2058 0.959 . S
H2047 C2061 0.929 . S
H2048 C2062 0.931 . S
H2049 C2064 0.930 . S
C2050 H2038 0.930 . S
C2050 C2051 1.399 . S
C2050 C2055 1.399 . S
C2051 C2050 1.399 . S
C2051 C2052 1.376 . S
C2052 H2039 0.930 . S
C2052 C2051 1.376 . S
C2052 C2053 1.388 . S
C2053 H2040 0.930 . S
C2053 C2052 1.388 . S
C2053 C2054 1.390 . S
C2054 C2053 1.390 . S
C2054 C2055 1.394 . S
C2054 C2060 1.465 . S
C2055 C2050 1.399 . S
C2055 C2054 1.394 . S
C2055 C2056 1.516 . S
C2056 C2055 1.516 . S
C2056 C2057 1.502 . S
C2056 C2058 1.561 . S
C2056 C2059 1.526 . S
C2057 H2041 0.959 1_554 S
C2057 H2042 0.959 . S
C2057 H2043 0.961 . S
C2057 C2056 1.502 . S
C2058 H2044 0.960 . S
C2058 H2045 0.961 . S
C2058 H2046 0.959 . S
C2058 C2056 1.561 . S
C2059 C2056 1.526 . S
C2059 C2060 1.396 . S
C2059 C2064 1.390 . S
C2060 C2054 1.465 . S
C2060 C2059 1.396 . S
C2060 C2061 1.399 . S
C2061 H2047 0.929 . S
C2061 C2060 1.399 . S
C2061 C2062 1.385 . S
C2062 H2048 0.931 . S
C2062 C2061 1.385 . S
C2062 C2063 1.389 . S
C2063 C2062 1.389 . S
C2063 C2064 1.387 . S
C2064 H2049 0.930 . S
C2064 C2059 1.390 . S
C2064 C2063 1.387 . S
H2065 C2077 0.930 . S
H2066 C2079 0.930 . S
H2067 C2080 0.930 1_556 S
H2068 C2084 0.959 . S
H2069 C2084 0.959 . S
H2070 C2084 0.961 . S
H2071 C2085 0.960 . S
H2072 C2085 0.961 . S
H2073 C2085 0.959 . S
H2074 C2088 0.884 1_556 S
H2075 C2089 0.931 1_556 S
H2076 C2091 0.930 . S
C2077 H2065 0.930 . S
C2077 C2078 1.399 . S
C2077 C2082 1.399 . S
C2078 C2077 1.399 . S
C2078 C2079 1.376 . S
C2079 H2066 0.930 . S
C2079 C2078 1.376 . S
C2079 C2080 1.388 . S
C2080 H2067 0.930 1_554 S
C2080 C2079 1.388 . S
C2080 C2081 1.390 . S
C2081 C2080 1.390 . S
C2081 C2082 1.394 . S
C2081 C2087 1.465 . S
C2082 C2077 1.399 . S
C2082 C2081 1.394 . S
C2082 C2083 1.516 . S
C2083 C2082 1.516 . S
C2083 C2084 1.502 . S
C2083 C2085 1.561 . S
C2083 C2086 1.526 . S
C2084 H2068 0.959 . S
C2084 H2069 0.959 . S
C2084 H2070 0.961 . S
C2084 C2083 1.502 . S
C2085 H2071 0.960 . S
C2085 H2072 0.961 . S
C2085 H2073 0.959 . S
C2085 C2083 1.561 . S
C2086 C2083 1.526 . S
C2086 C2087 1.396 . S
C2086 C2091 1.390 . S
C2087 C2081 1.465 . S
C2087 C2086 1.396 . S
C2087 C2088 1.440 . S
C2088 H2074 0.884 1_554 S
C2088 C2087 1.440 . S
C2088 C2089 1.392 . S
C2089 H2075 0.931 1_554 S
C2089 C2088 1.392 . S
C2089 C2090 1.389 . S
C2090 C2089 1.389 . S
C2090 C2091 1.387 . S
C2091 H2076 0.930 . S
C2091 C2086 1.390 . S
C2091 C2090 1.387 . S
C821 C650 1.406 . S
C809 C202 1.382 . S
C848 C663 1.609 . S
C836 C261 1.633 . S
C863 C282 1.435 . S
C875 C676 1.443 . S
C902 C689 1.525 . S
C890 C162 1.503 . S
C929 C697 1.468 . S
C917 C402 1.481 . S
C956 C710 1.415 . S
C944 C482 1.430 . S
C971 C442 1.503 . S
C983 C723 1.487 . S
C1010 C736 1.511 . S
C998 C381 1.528 . S
C1025 C461 1.458 . S
C1037 C754 1.442 . S
C1064 C765 1.488 . S
C1052 C362 1.502 . S
C1079 C415 1.406 . S
C1091 C749 1.398 . S
C1118 C757 1.462 . S
C1106 C495 1.503 . S
C1133 C301 1.524 . S
C1145 C780 1.509 . S
C1160 C175 1.530 . S
C1172 C770 1.497 . S
C1187 C215 1.466 . S
C1199 C775 1.432 . S
C1214 C242 1.515 . S
C1226 C778 1.487 1_655 S
C1241 C141 1.476 . S
C1253 C687 1.428 . S
C1268 C581 1.456 . S
C1280 C679 1.453 . S
C1307 C648 1.476 . S
C1295 C615 1.526 . S
C1334 C653 1.451 . S
C1322 C335 1.490 . S
C1349 C181 1.573 . S
C1361 C700 1.544 . S
C1388 C739 1.499 . S
C1376 C455 1.506 . S
C1415 C692 1.409 . S
C1403 C375 1.458 . S
C1442 C718 1.481 . S
C1430 C501 1.515 . S
C1469 C728 1.410 . S
C1457 C562 1.377 . S
C1484 C621 1.632 . S
C1496 C741 1.605 . S
C1511 C322 1.455 . S
C1523 C702 1.455 . S
C1550 C715 1.535 . S
C1538 C522 1.511 . S
C1565 C122 1.447 . S
C1577 C671 1.417 . S
C1604 C684 1.418 . S
C1592 C2 1.401 . S
C1631 C645 1.494 . S
C1619 C42 1.519 . S
C1658 C658 1.509 . S
C1646 C101 1.529 . S
C1673 C61 1.460 . S
C1685 C767 1.444 . S
C1700 C82 1.487 . S
C1712 C752 1.456 1_655 S
C1727 C135 1.410 . S
C1739 C762 1.371 . S
C1754 C15 1.499 . S
C1766 C744 1.496 . S
C1793 C793 1.503 . S
C1781 C341 1.515 . S
C1820 C783 1.472 . S
C1808 C535 1.531 . S
C1847 C788 1.448 . S
C1835 C575 1.463 . S
C1862 C602 1.526 . S
C1874 C791 1.517 . S
C1889 C421 1.482 . S
C1901 C713 1.481 . S
C1928 C705 1.457 . S
C1916 C221 1.448 . S
C1955 C726 1.524 . S
C1943 C255 1.522 . S
C1982 C731 1.449 . S
C1970 C295 1.493 . S
C1997 C541 1.572 . S
C2009 C674 1.537 . S
C2036 C661 1.459 . S
C2024 C55 1.511 . S
C2051 C95 1.460 . S
C2063 C666 1.412 . S
C2090 C640 1.464 . S
C2078 C21 1.506 . S
