# Generated by pormake.
# Topology ocu, (6,8)-cn, num edge types: 1
# Building blocks:
#     Node 0, Type 0, BuildingBlock: MIFKUJ_clean_sbu_0, # of connection points: 6
#     Node 1, Type 0, BuildingBlock: MIFKUJ_clean_sbu_0, # of connection points: 6
#     Node 2, Type 0, BuildingBlock: MIFKUJ_clean_sbu_0, # of connection points: 6
#     Node 3, Type 0, BuildingBlock: MIFKUJ_clean_sbu_0, # of connection points: 6
#     Node 4, Type 0, BuildingBlock: MIFKUJ_clean_sbu_0, # of connection points: 6
#     Node 5, Type 0, BuildingBlock: MIFKUJ_clean_sbu_0, # of connection points: 6
#     Node 6, Type 0, BuildingBlock: MIFKUJ_clean_sbu_0, # of connection points: 6
#     Node 7, Type 0, BuildingBlock: MIFKUJ_clean_sbu_0, # of connection points: 6
#     Node 8, Type 1, BuildingBlock: GIZVER_clean_sbu_0, # of connection points: 8
#     Node 9, Type 1, BuildingBlock: GIZVER_clean_sbu_0, # of connection points: 8
#     Node 10, Type 1, BuildingBlock: GIZVER_clean_sbu_0, # of connection points: 8
#     Node 11, Type 1, BuildingBlock: GIZVER_clean_sbu_0, # of connection points: 8
#     Node 12, Type 1, BuildingBlock: GIZVER_clean_sbu_0, # of connection points: 8
#     Node 13, Type 1, BuildingBlock: GIZVER_clean_sbu_0, # of connection points: 8
#     Edge 14, Type (0, 1), BuildingBlock: ZUJKAS_clean_linker_0, # of connection points: 2
#     Edge 15, Type (0, 1), BuildingBlock: ZUJKAS_clean_linker_0, # of connection points: 2
#     Edge 16, Type (0, 1), BuildingBlock: ZUJKAS_clean_linker_0, # of connection points: 2
#     Edge 17, Type (0, 1), BuildingBlock: ZUJKAS_clean_linker_0, # of connection points: 2
#     Edge 18, Type (0, 1), BuildingBlock: ZUJKAS_clean_linker_0, # of connection points: 2
#     Edge 19, Type (0, 1), BuildingBlock: ZUJKAS_clean_linker_0, # of connection points: 2
#     Edge 20, Type (0, 1), BuildingBlock: ZUJKAS_clean_linker_0, # of connection points: 2
#     Edge 21, Type (0, 1), BuildingBlock: ZUJKAS_clean_linker_0, # of connection points: 2
#     Edge 22, Type (0, 1), BuildingBlock: ZUJKAS_clean_linker_0, # of connection points: 2
#     Edge 23, Type (0, 1), BuildingBlock: ZUJKAS_clean_linker_0, # of connection points: 2
#     Edge 24, Type (0, 1), BuildingBlock: ZUJKAS_clean_linker_0, # of connection points: 2
#     Edge 25, Type (0, 1), BuildingBlock: ZUJKAS_clean_linker_0, # of connection points: 2
#     Edge 26, Type (0, 1), BuildingBlock: ZUJKAS_clean_linker_0, # of connection points: 2
#     Edge 27, Type (0, 1), BuildingBlock: ZUJKAS_clean_linker_0, # of connection points: 2
#     Edge 28, Type (0, 1), BuildingBlock: ZUJKAS_clean_linker_0, # of connection points: 2
#     Edge 29, Type (0, 1), BuildingBlock: ZUJKAS_clean_linker_0, # of connection points: 2
#     Edge 30, Type (0, 1), BuildingBlock: ZUJKAS_clean_linker_0, # of connection points: 2
#     Edge 31, Type (0, 1), BuildingBlock: ZUJKAS_clean_linker_0, # of connection points: 2
#     Edge 32, Type (0, 1), BuildingBlock: ZUJKAS_clean_linker_0, # of connection points: 2
#     Edge 33, Type (0, 1), BuildingBlock: ZUJKAS_clean_linker_0, # of connection points: 2
#     Edge 34, Type (0, 1), BuildingBlock: ZUJKAS_clean_linker_0, # of connection points: 2
#     Edge 35, Type (0, 1), BuildingBlock: ZUJKAS_clean_linker_0, # of connection points: 2
#     Edge 36, Type (0, 1), BuildingBlock: ZUJKAS_clean_linker_0, # of connection points: 2
#     Edge 37, Type (0, 1), BuildingBlock: ZUJKAS_clean_linker_0, # of connection points: 2
#     Edge 38, Type (0, 1), BuildingBlock: ZUJKAS_clean_linker_0, # of connection points: 2
#     Edge 39, Type (0, 1), BuildingBlock: ZUJKAS_clean_linker_0, # of connection points: 2
#     Edge 40, Type (0, 1), BuildingBlock: ZUJKAS_clean_linker_0, # of connection points: 2
#     Edge 41, Type (0, 1), BuildingBlock: ZUJKAS_clean_linker_0, # of connection points: 2
#     Edge 42, Type (0, 1), BuildingBlock: ZUJKAS_clean_linker_0, # of connection points: 2
#     Edge 43, Type (0, 1), BuildingBlock: ZUJKAS_clean_linker_0, # of connection points: 2
#     Edge 44, Type (0, 1), BuildingBlock: ZUJKAS_clean_linker_0, # of connection points: 2
#     Edge 45, Type (0, 1), BuildingBlock: ZUJKAS_clean_linker_0, # of connection points: 2
#     Edge 46, Type (0, 1), BuildingBlock: ZUJKAS_clean_linker_0, # of connection points: 2
#     Edge 47, Type (0, 1), BuildingBlock: ZUJKAS_clean_linker_0, # of connection points: 2
#     Edge 48, Type (0, 1), BuildingBlock: ZUJKAS_clean_linker_0, # of connection points: 2
#     Edge 49, Type (0, 1), BuildingBlock: ZUJKAS_clean_linker_0, # of connection points: 2
#     Edge 50, Type (0, 1), BuildingBlock: ZUJKAS_clean_linker_0, # of connection points: 2
#     Edge 51, Type (0, 1), BuildingBlock: ZUJKAS_clean_linker_0, # of connection points: 2
#     Edge 52, Type (0, 1), BuildingBlock: ZUJKAS_clean_linker_0, # of connection points: 2
#     Edge 53, Type (0, 1), BuildingBlock: ZUJKAS_clean_linker_0, # of connection points: 2
#     Edge 54, Type (0, 1), BuildingBlock: ZUJKAS_clean_linker_0, # of connection points: 2
#     Edge 55, Type (0, 1), BuildingBlock: ZUJKAS_clean_linker_0, # of connection points: 2
#     Edge 56, Type (0, 1), BuildingBlock: ZUJKAS_clean_linker_0, # of connection points: 2
#     Edge 57, Type (0, 1), BuildingBlock: ZUJKAS_clean_linker_0, # of connection points: 2
#     Edge 58, Type (0, 1), BuildingBlock: ZUJKAS_clean_linker_0, # of connection points: 2
#     Edge 59, Type (0, 1), BuildingBlock: ZUJKAS_clean_linker_0, # of connection points: 2
#     Edge 60, Type (0, 1), BuildingBlock: ZUJKAS_clean_linker_0, # of connection points: 2
#     Edge 61, Type (0, 1), BuildingBlock: ZUJKAS_clean_linker_0, # of connection points: 2
# Relax obj value: 0.108
# Max RMSD: 0.237
# Mean RMSD: 0.164
data_MOF--net-ocu--node1-MIFKUJ_clean_sbu_0--node2-GIZVER_clean_sbu_0--edge1-ZUJKAS_clean_linker_0
_symmetry_space_group_name_H-M    P1
_symmetry_Int_Tables_number       1
_symmetry_cell_setting            triclinic
loop_
_symmetry_equiv_pos_as_xyz
'x, y, z'
_cell_length_a     53.03486
_cell_length_b     56.953881
_cell_length_c     38.109781
_cell_angle_alpha  91.141793
_cell_angle_beta   93.673416
_cell_angle_gamma 104.31228
loop_
_atom_site_label
_atom_site_type_symbol
_atom_site_fract_x
_atom_site_fract_y
_atom_site_fract_z
_atom_type_partial_charge
Zn0 Zn 0.22855 0.27498 0.25617 0.0
Zn1 Zn 0.27989 0.22991 0.25714 0.0
C2 C 0.19699 0.2937 0.29932 0.0
O3 O 0.18066 0.27533 0.2821 0.0
C4 C 0.31113 0.21071 0.21398 0.0
O5 O 0.32773 0.22892 0.23116 0.0
O6 O 0.20538 0.28116 0.21487 0.0
O7 O 0.26583 0.28765 0.24019 0.0
O8 O 0.2939 0.26452 0.23981 0.0
C9 C 0.21162 0.30323 0.20634 0.0
O10 O 0.23181 0.31804 0.22344 0.0
O11 O 0.22118 0.29756 0.2943 0.0
C12 C 0.29645 0.20163 0.30694 0.0
O13 O 0.27642 0.187 0.28924 0.0
O14 O 0.30298 0.22375 0.29866 0.0
O15 O 0.24254 0.21724 0.27284 0.0
O16 O 0.21433 0.24024 0.27267 0.0
O17 O 0.287 0.20713 0.21914 0.0
C18 C 0.28823 0.28468 0.23402 0.0
C19 C 0.22004 0.22013 0.27858 0.0
Zn20 Zn 0.75659 0.28332 0.21901 0.0
Zn21 Zn 0.74634 0.22806 0.29414 0.0
C22 C 0.70706 0.2898 0.18941 0.0
O23 O 0.70249 0.26644 0.18211 0.0
C24 C 0.77297 0.20267 0.34111 0.0
O25 O 0.7596 0.21179 0.36325 0.0
O26 O 0.79096 0.30474 0.20921 0.0
O27 O 0.75853 0.27532 0.26974 0.0
O28 O 0.76017 0.26034 0.32116 0.0
C29 C 0.79203 0.32157 0.18766 0.0
O30 O 0.77077 0.3229 0.16898 0.0
O31 O 0.72822 0.30058 0.20674 0.0
C32 C 0.70068 0.1912 0.30553 0.0
O33 O 0.71571 0.17694 0.29767 0.0
O34 O 0.70994 0.21398 0.30678 0.0
O35 O 0.74531 0.23344 0.24123 0.0
O36 O 0.74824 0.25131 0.19095 0.0
O37 O 0.7702 0.20666 0.30853 0.0
C38 C 0.76481 0.27886 0.30238 0.0
C39 C 0.74211 0.23185 0.20779 0.0
Zn40 Zn 0.78125 0.73487 0.24245 0.0
Zn41 Zn 0.72966 0.76879 0.26713 0.0
C42 C 0.81974 0.73084 0.2967 0.0
O43 O 0.83417 0.74768 0.27836 0.0
C44 C 0.70206 0.78284 0.20875 0.0
O45 O 0.68563 0.76299 0.21786 0.0
O46 O 0.80107 0.72218 0.20567 0.0
O47 O 0.74326 0.71739 0.23517 0.0
O48 O 0.71247 0.73401 0.25378 0.0
C49 C 0.79071 0.70774 0.17988 0.0
O50 O 0.76521 0.70178 0.17403 0.0
O51 O 0.7955 0.72339 0.28767 0.0
C52 C 0.71858 0.80361 0.31259 0.0
O53 O 0.73959 0.81582 0.2984 0.0
O54 O 0.70994 0.78117 0.30421 0.0
O55 O 0.76698 0.77505 0.2866 0.0
O56 O 0.79109 0.77146 0.24308 0.0
O57 O 0.72452 0.78925 0.22519 0.0
C58 C 0.71949 0.71639 0.23984 0.0
C59 C 0.78547 0.78424 0.26767 0.0
Zn60 Zn 0.22774 0.76586 0.26706 0.0
Zn61 Zn 0.27654 0.73991 0.23431 0.0
C62 C 0.18122 0.73241 0.2808 0.0
O63 O 0.17216 0.7461 0.25843 0.0
C64 C 0.31103 0.77601 0.20074 0.0
O65 O 0.32621 0.76209 0.21127 0.0
O66 O 0.2123 0.79408 0.2786 0.0
O67 O 0.26303 0.77338 0.29352 0.0
O68 O 0.29077 0.75094 0.28367 0.0
C69 C 0.21268 0.79834 0.31158 0.0
O70 O 0.22237 0.78458 0.33316 0.0
O71 O 0.20551 0.73747 0.28959 0.0
C72 C 0.29463 0.71199 0.18243 0.0
O73 O 0.28362 0.72535 0.16175 0.0
O74 O 0.29456 0.715 0.21563 0.0
O75 O 0.23831 0.72449 0.22489 0.0
O76 O 0.22295 0.75652 0.21509 0.0
O77 O 0.28708 0.77018 0.20695 0.0
C78 C 0.2843 0.76753 0.30112 0.0
C79 C 0.22399 0.7351 0.20644 0.0
Zn80 Zn 0.25664 0.779 0.71569 0.0
Zn81 Zn 0.25639 0.73106 0.79704 0.0
C82 C 0.22342 0.79614 0.66622 0.0
O83 O 0.22712 0.77759 0.64803 0.0
C84 C 0.29509 0.71782 0.83877 0.0
O85 O 0.28061 0.72454 0.86184 0.0
O86 O 0.29049 0.7875 0.69377 0.0
O87 O 0.26626 0.78521 0.76793 0.0
O88 O 0.26469 0.76533 0.81718 0.0
C89 C 0.30221 0.80974 0.69768 0.0
O90 O 0.29043 0.82467 0.71264 0.0
O91 O 0.23444 0.80093 0.6971 0.0
C92 C 0.22803 0.68691 0.81629 0.0
O93 O 0.2456 0.68149 0.797 0.0
O94 O 0.2291 0.70909 0.82309 0.0
O95 O 0.24105 0.72428 0.74687 0.0
O96 O 0.23797 0.74522 0.69954 0.0
O97 O 0.28928 0.7196 0.80618 0.0
C98 C 0.27037 0.78509 0.80118 0.0
C99 C 0.23345 0.72517 0.71474 0.0
Zn100 Zn 0.28113 0.22609 0.7415 0.0
Zn101 Zn 0.22826 0.27192 0.76074 0.0
C102 C 0.31749 0.21339 0.79097 0.0
O103 O 0.33306 0.23126 0.77572 0.0
C104 C 0.19064 0.28787 0.71995 0.0
O105 O 0.17677 0.27432 0.74285 0.0
O106 O 0.28944 0.20959 0.69765 0.0
O107 O 0.24317 0.22586 0.7452 0.0
O108 O 0.20735 0.23704 0.75396 0.0
C109 C 0.28273 0.18651 0.69647 0.0
O110 O 0.26797 0.17543 0.7206 0.0
O111 O 0.29323 0.20799 0.78165 0.0
C112 C 0.22475 0.31056 0.80688 0.0
O113 O 0.23709 0.32272 0.7815 0.0
O114 O 0.2204 0.28753 0.8057 0.0
O115 O 0.266 0.27186 0.75636 0.0
O116 O 0.30201 0.26112 0.7476 0.0
O117 O 0.21511 0.28983 0.72123 0.0
C118 C 0.21846 0.22064 0.74508 0.0
C119 C 0.2907 0.27743 0.75627 0.0
Zn120 Zn 0.72463 0.26224 0.76546 0.0
Zn121 Zn 0.77371 0.23784 0.73178 0.0
C122 C 0.69563 0.22681 0.80658 0.0
O123 O 0.67854 0.23899 0.79656 0.0
C124 C 0.82049 0.27023 0.71458 0.0
O125 O 0.82986 0.25724 0.73776 0.0
O126 O 0.70604 0.28623 0.78501 0.0
O127 O 0.76246 0.28023 0.76794 0.0
O128 O 0.77854 0.24956 0.78279 0.0
C129 C 0.71376 0.29518 0.81586 0.0
O130 O 0.73302 0.2885 0.83289 0.0
O131 O 0.71874 0.23365 0.79698 0.0
C132 C 0.78623 0.2014 0.6918 0.0
O133 O 0.77466 0.21266 0.66851 0.0
O134 O 0.78885 0.20894 0.72381 0.0
O135 O 0.73805 0.22965 0.70595 0.0
O136 O 0.70768 0.2485 0.7184 0.0
O137 O 0.79604 0.26514 0.70679 0.0
C138 C 0.77841 0.27173 0.78692 0.0
C139 C 0.71559 0.23344 0.69964 0.0
Zn140 Zn 0.72918 0.77432 0.75936 0.0
Zn141 Zn 0.77644 0.7275 0.74735 0.0
C142 C 0.70541 0.79076 0.81605 0.0
O143 O 0.68749 0.77127 0.80479 0.0
C144 C 0.80357 0.71073 0.69484 0.0
O145 O 0.82034 0.73094 0.70611 0.0
O146 O 0.70248 0.78208 0.7244 0.0
O147 O 0.76433 0.78801 0.73784 0.0
O148 O 0.7889 0.76226 0.72998 0.0
C149 C 0.70311 0.78089 0.69113 0.0
O150 O 0.72109 0.7721 0.67732 0.0
O151 O 0.72693 0.79589 0.80146 0.0
C152 C 0.79706 0.71375 0.81499 0.0
O153 O 0.77308 0.71097 0.82414 0.0
O154 O 0.80297 0.72215 0.78508 0.0
O155 O 0.74033 0.71345 0.76591 0.0
O156 O 0.71533 0.73883 0.7737 0.0
O157 O 0.78142 0.70509 0.7078 0.0
C158 C 0.78488 0.78332 0.72701 0.0
C159 C 0.71927 0.71767 0.7757 0.0
Co160 Co 0.03427 0.95984 0.48463 0.0
Co161 Co 0.03491 0.97306 0.54981 0.0
Co162 Co 1.00266 0.003 0.50391 0.0
O163 O 0.03385 0.98948 0.50881 0.0
H164 H 0.0499 0.00183 0.50745 0.0
O165 O 0.97149 0.01645 0.49944 0.0
Co166 Co 0.97072 0.04586 0.52388 0.0
Co167 Co 0.96937 0.03258 0.45868 0.0
H168 H 0.95552 0.00401 0.50098 0.0
O169 O 0.06621 0.97061 0.56997 0.0
O170 O 0.03933 0.9444 0.53041 0.0
O171 O 0.00448 0.96587 0.57628 0.0
O172 O 0.97952 0.97744 0.53422 0.0
O173 O 0.0169 0.02432 0.54611 0.0
O174 O 0.96689 0.07182 0.5471 0.0
O175 O 0.93589 0.03846 0.52843 0.0
O176 O 0.00769 0.05716 0.52419 0.0
O177 O 0.02558 0.02853 0.47318 0.0
O178 O 0.99963 0.04025 0.43249 0.0
O179 O 0.96559 0.06137 0.47825 0.0
O180 O 0.93746 0.03513 0.43994 0.0
C181 C 0.0618 0.94542 0.46324 0.0
C182 C 0.98413 0.95879 0.46277 0.0
C183 C 0.98212 0.96615 0.56271 0.0
C184 C 0.0603 0.95011 0.552 0.0
C185 C 0.94256 0.05969 0.54482 0.0
C186 C 0.02179 0.04729 0.54451 0.0
C187 C 0.0223 0.04018 0.44519 0.0
C188 C 0.94419 0.05573 0.45761 0.0
O189 O 0.03736 0.93373 0.4615 0.0
O190 O 0.06917 0.96658 0.47983 0.0
O191 O 0.98851 0.98175 0.4617 0.0
O192 O 0.99742 0.94912 0.48452 0.0
Co193 Co 0.54079 0.95573 0.99749 0.0
Co194 Co 0.54392 0.97501 0.06076 0.0
Co195 Co 0.51045 0.00193 0.00986 0.0
O196 O 0.54064 0.98714 0.01642 0.0
H197 H 0.55676 0.99883 0.01261 0.0
O198 O 0.48015 0.01669 0.00354 0.0
Co199 Co 0.48045 0.04798 0.02325 0.0
Co200 Co 0.47744 0.02991 0.96035 0.0
H201 H 0.46395 0.00501 0.00703 0.0
O202 O 0.57576 0.97169 0.07994 0.0
O203 O 0.54573 0.94424 0.04603 0.0
O204 O 0.51486 0.97221 0.08937 0.0
O205 O 0.48951 0.98245 0.0464 0.0
O206 O 0.52852 0.02756 0.04564 0.0
O207 O 0.4777 0.07574 0.04252 0.0
O208 O 0.44582 0.0418 0.03007 0.0
O209 O 0.51729 0.0586 0.02039 0.0
O210 O 0.53158 0.02133 0.97315 0.0
O211 O 0.50691 0.03454 0.93245 0.0
O212 O 0.47368 0.05983 0.97531 0.0
O213 O 0.4454 0.03092 0.94091 0.0
C214 C 0.56894 0.93977 0.98098 0.0
C215 C 0.48736 0.95373 0.97986 0.0
C216 C 0.49268 0.97371 0.07648 0.0
C217 C 0.5677 0.95005 0.06546 0.0
C218 C 0.45333 0.06406 0.04302 0.0
C219 C 0.53321 0.05015 0.03981 0.0
C220 C 0.52882 0.03173 0.94425 0.0
C221 C 0.45198 0.05265 0.95536 0.0
O222 O 0.54453 0.92785 0.97957 0.0
O223 O 0.5756 0.96221 0.99314 0.0
O224 O 0.49225 0.97634 0.97412 0.0
O225 O 0.50362 0.9448 0.99787 0.0
Co226 Co 0.03362 0.45527 0.9893 0.0
Co227 Co 0.0468 0.48394 0.04567 0.0
Co228 Co 1.00337 0.50175 0.99833 0.0
O229 O 0.03482 0.48847 0.9999 0.0
H230 H 0.04892 0.49913 0.98877 0.0
O231 O 0.97212 0.51541 0.99631 0.0
Co232 Co 0.97481 0.54906 0.00728 0.0
Co233 Co 0.96101 0.52118 0.95041 0.0
H234 H 0.95779 0.50497 0.00731 0.0
O235 O 0.08002 0.47892 0.05824 0.0
O236 O 0.04383 0.45098 0.03907 0.0
O237 O 0.02428 0.48812 0.08148 0.0
O238 O 0.99022 0.48687 0.04327 0.0
O239 O 0.02482 0.53085 0.02568 0.0
O240 O 0.97377 0.57925 0.01916 0.0
O241 O 0.94209 0.5448 0.02099 0.0
O242 O 0.01014 0.55798 0.9953 0.0
O243 O 0.01673 0.51649 0.95363 0.0
O244 O 0.98443 0.51928 0.91465 0.0
O245 O 0.96302 0.55381 0.95827 0.0
O246 O 0.92755 0.52518 0.93819 0.0
C247 C 0.06 0.43731 0.97216 0.0
C248 C 0.98003 0.45074 0.97957 0.0
C249 C 1.00004 0.48584 0.07461 0.0
C250 C 0.06783 0.45634 0.05212 0.0
C251 C 0.95016 0.56825 0.02628 0.0
C252 C 0.02758 0.55244 0.01556 0.0
C253 C 0.00818 0.51985 0.92253 0.0
C254 C 0.93891 0.54784 0.94542 0.0
O255 O 0.03642 0.42538 0.97809 0.0
O256 O 0.06692 0.46078 0.97764 0.0
O257 O 0.98183 0.4726 0.97108 0.0
O258 O 0.99798 0.44523 0.99896 0.0
Co259 Co 0.53138 0.45486 0.98459 0.0
Co260 Co 0.53263 0.47215 0.0485 0.0
Co261 Co 0.50074 0.49978 0.99898 0.0
O262 O 0.53145 0.4858 0.0051 0.0
H263 H 0.54762 0.49775 1.00248 0.0
O264 O 0.47013 0.51397 0.99282 0.0
Co265 Co 0.47089 0.5453 0.01298 0.0
Co266 Co 0.46907 0.52743 0.94899 0.0
H267 H 0.4539 0.5022 0.99577 0.0
O268 O 0.56358 0.46846 0.06902 0.0
O269 O 0.5346 0.44183 0.03242 0.0
O270 O 0.50255 0.46767 0.07532 0.0
O271 O 0.47727 0.47512 0.03022 0.0
O272 O 0.51499 0.52175 0.0404 0.0
O273 O 0.46842 0.57327 0.03166 0.0
O274 O 0.4359 0.54045 0.0154 0.0
O275 O 0.50789 0.55436 0.01521 0.0
O276 O 0.52424 0.52448 0.96789 0.0
O277 O 0.49934 0.53165 0.92224 0.0
O278 O 0.46867 0.5582 0.96513 0.0
O279 O 0.43839 0.53271 0.92885 0.0
C280 C 0.55912 0.43842 0.96815 0.0
C281 C 0.48115 0.4547 0.96042 0.0
C282 C 0.48005 0.46604 0.06056 0.0
C283 C 0.55588 0.44718 0.05333 0.0
C284 C 0.44368 0.56252 0.02901 0.0
C285 C 0.52054 0.54467 0.03778 0.0
C286 C 0.52174 0.53361 0.93755 0.0
C287 C 0.44747 0.55393 0.94428 0.0
O288 O 0.53448 0.42724 0.96535 0.0
O289 O 0.56635 0.46046 0.98192 0.0
O290 O 0.48648 0.47763 0.95761 0.0
O291 O 0.49422 0.44512 0.98266 0.0
Co292 Co 0.05066 0.47379 0.50959 0.0
Co293 Co 0.02809 0.47271 0.44739 0.0
Co294 Co 1.00169 0.50306 0.5 0.0
O295 O 0.01633 0.47455 0.49155 0.0
H296 H 1.00374 0.45954 0.49542 0.0
O297 O 0.98725 0.53171 0.50872 0.0
Co298 Co 0.95461 0.53494 0.48754 0.0
Co299 Co 0.97259 0.53263 0.55111 0.0
H300 H 1.00064 0.54657 0.50714 0.0
O301 O 0.02967 0.4434 0.42734 0.0
O302 O 0.06127 0.46955 0.46098 0.0
O303 O 0.03035 0.50069 0.4197 0.0
O304 O 0.02128 0.52356 0.46308 0.0
O305 O 0.97268 0.48833 0.46415 0.0
O306 O 0.92591 0.54125 0.46729 0.0
O307 O 0.96409 0.56753 0.48467 0.0
O308 O 0.94048 0.50079 0.4868 0.0
O309 O 0.98206 0.48235 0.53689 0.0
O310 O 0.96647 0.50348 0.57643 0.0
O311 O 0.94113 0.53802 0.53456 0.0
O312 O 0.97152 0.56161 0.57286 0.0
C313 C 0.068 0.44749 0.52733 0.0
C314 C 0.05487 0.52182 0.52943 0.0
C315 C 0.02923 0.52109 0.43255 0.0
C316 C 0.05351 0.44972 0.44124 0.0
C317 C 0.94031 0.56341 0.47032 0.0
C318 C 0.94845 0.48578 0.4679 0.0
C319 C 0.97046 0.48375 0.56501 0.0
C320 C 0.94846 0.55673 0.55647 0.0
O321 O 0.08107 0.47006 0.52729 0.0
O322 O 0.04362 0.44142 0.51505 0.0
O323 O 0.03086 0.51788 0.53554 0.0
O324 O 0.0625 0.50809 0.50789 0.0
Co325 Co 0.55482 0.97087 0.51038 0.0
Co326 Co 0.53386 0.97285 0.44883 0.0
Co327 Co 0.50331 0.99733 0.50514 0.0
O328 O 0.52071 0.97168 0.49198 0.0
H329 H 0.50879 0.95592 0.49347 0.0
O330 O 0.48583 0.02287 0.51857 0.0
Co331 Co 0.45146 0.02322 0.50073 0.0
Co332 Co 0.47315 0.02173 0.56236 0.0
H333 H 0.49758 0.03867 0.51669 0.0
O334 O 0.53444 0.94454 0.42528 0.0
O335 O 0.56623 0.96816 0.46191 0.0
O336 O 0.53472 0.00192 0.42467 0.0
O337 O 0.51514 0.01886 0.46491 0.0
O338 O 0.47247 0.97911 0.47509 0.0
O339 O 0.4209 0.02735 0.48326 0.0
O340 O 0.45838 0.05557 0.4974 0.0
O341 O 0.4399 0.98858 0.50107 0.0
O342 O 0.4916 0.97588 0.54525 0.0
O343 O 0.47309 0.99268 0.58686 0.0
O344 O 0.44029 0.02546 0.54933 0.0
O345 O 0.47134 0.05002 0.58568 0.0
C346 C 0.57173 0.94381 0.52628 0.0
C347 C 0.55753 0.02093 0.52615 0.0
C348 C 0.52611 0.01937 0.43592 0.0
C349 C 0.55791 0.94923 0.44046 0.0
C350 C 0.4341 0.04998 0.48492 0.0
C351 C 0.44908 0.97355 0.48389 0.0
C352 C 0.48139 0.97524 0.57479 0.0
C353 C 0.44784 0.04453 0.57056 0.0
O354 O 0.58514 0.96637 0.52844 0.0
O355 O 0.54749 0.93851 0.51366 0.0
O356 O 0.53418 0.01548 0.53511 0.0
O357 O 0.56682 0.00554 0.50989 0.0
H358 H 0.22828 0.17912 0.31002 0.0
H359 H 0.19706 0.14748 0.33857 0.0
H360 H 0.13633 0.18375 0.31339 0.0
H361 H 0.16751 0.21571 0.28511 0.0
H362 H 0.16157 0.1559 0.39774 0.0
H363 H 0.10926 0.10925 0.27477 0.0
H364 H 0.1425 0.12743 0.27603 0.0
H365 H 0.11611 0.14186 0.2776 0.0
C366 C 0.20828 0.1804 0.31023 0.0
C367 C 0.20059 0.20011 0.29482 0.0
C368 C 0.19041 0.16226 0.32685 0.0
C369 C 0.16421 0.16305 0.32817 0.0
C370 C 0.15637 0.18257 0.31267 0.0
H371 H 0.02031 0.07153 0.39227 0.0
H372 H 0.05559 0.09981 0.36652 0.0
C373 C 0.1743 0.2009 0.29643 0.0
C374 C 0.14507 0.14354 0.34566 0.0
H375 H 0.09205 0.09549 0.32819 0.0
C376 C 0.14642 0.14259 0.38257 0.0
C377 C 0.12525 0.12614 0.32604 0.0
C378 C 0.12308 0.12595 0.28638 0.0
C379 C 0.12803 0.12535 0.40031 0.0
C380 C 0.10803 0.10788 0.38066 0.0
C381 C 0.10717 0.10865 0.34362 0.0
C382 C 0.08668 0.08984 0.39753 0.0
C383 C 0.12963 0.12683 0.43998 0.0
C384 C 0.09182 0.07412 0.42381 0.0
C385 C 0.07126 0.05777 0.43929 0.0
C386 C 0.04499 0.05636 0.42842 0.0
C387 C 0.0401 0.07175 0.40156 0.0
C388 C 0.06046 0.08813 0.38657 0.0
H389 H 0.1411 0.14491 0.45055 0.0
H390 H 0.1099 0.12321 0.45005 0.0
H391 H 0.1395 0.11309 0.45032 0.0
H392 H 0.11173 0.07434 0.43233 0.0
H393 H 0.07595 0.04629 0.45972 0.0
H394 H 0.80904 0.187 0.30471 0.0
H395 H 0.83978 0.16417 0.3271 0.0
H396 H 0.80911 0.16325 0.42933 0.0
H397 H 0.77884 0.1866 0.40745 0.0
H398 H 0.86214 0.1735 0.43431 0.0
H399 H 0.82163 0.09266 0.34579 0.0
H400 H 0.83195 0.12018 0.32277 0.0
H401 H 0.80521 0.11661 0.35063 0.0
C402 C 0.80877 0.18186 0.33192 0.0
C403 C 0.79134 0.18846 0.35422 0.0
C404 C 0.8263 0.16874 0.34466 0.0
C405 C 0.82647 0.16164 0.37975 0.0
C406 C 0.8093 0.16847 0.40214 0.0
H407 H 0.89147 0.04514 0.45263 0.0
H408 H 0.86362 0.07238 0.43784 0.0
C409 C 0.79193 0.18175 0.38953 0.0
C410 C 0.84436 0.14698 0.3932 0.0
H411 H 0.86083 0.09347 0.37965 0.0
C412 C 0.86181 0.15593 0.42251 0.0
C413 C 0.84374 0.12397 0.37799 0.0
C414 C 0.82447 0.11264 0.34778 0.0
C415 C 0.8787 0.14255 0.43696 0.0
C416 C 0.87848 0.11974 0.42123 0.0
C417 C 0.86105 0.1109 0.39184 0.0
C418 C 0.89558 0.10428 0.43484 0.0
C419 C 0.89618 0.1529 0.46925 0.0
C420 C 0.92286 0.11318 0.43922 0.0
C421 C 0.93876 0.09769 0.4488 0.0
C422 C 0.92767 0.07293 0.4529 0.0
C423 C 0.90045 0.06416 0.44935 0.0
C424 C 0.88457 0.07972 0.4408 0.0
H425 H 0.88769 0.1654 0.48479 0.0
H426 H 0.89976 0.13845 0.48652 0.0
H427 H 0.91521 0.16351 0.46096 0.0
H428 H 0.93196 0.13185 0.43399 0.0
H429 H 0.95975 0.10477 0.45108 0.0
H430 H 0.78715 0.80923 0.32987 0.0
H431 H 0.82102 0.84376 0.35375 0.0
H432 H 0.86119 0.84521 0.25857 0.0
H433 H 0.82747 0.80999 0.23459 0.0
H434 H 0.8933 0.84593 0.31488 0.0
H435 H 0.83832 0.91481 0.33658 0.0
H436 H 0.82317 0.88713 0.35654 0.0
H437 H 0.82487 0.8877 0.30945 0.0
C438 C 0.8029 0.81709 0.31364 0.0
C439 C 0.80465 0.80679 0.28033 0.0
C440 C 0.82219 0.83702 0.32728 0.0
C441 C 0.84339 0.84736 0.30771 0.0
C442 C 0.84486 0.83759 0.274 0.0
H443 H 0.95839 0.97295 0.40584 0.0
H444 H 0.92577 0.94723 0.36407 0.0
C445 C 0.82562 0.81747 0.26038 0.0
C446 C 0.86522 0.86661 0.32419 0.0
H447 H 0.87843 0.91939 0.37355 0.0
C448 C 0.89017 0.86224 0.32713 0.0
C449 C 0.86126 0.88808 0.33966 0.0
C450 C 0.83549 0.89482 0.33503 0.0
C451 C 0.91088 0.87804 0.34689 0.0
C452 C 0.90628 0.89834 0.36497 0.0
C453 C 0.88178 0.90352 0.36027 0.0
C454 C 0.92629 0.91386 0.38996 0.0
C455 C 0.9374 0.87267 0.34841 0.0
C456 C 0.93702 0.90366 0.41871 0.0
C457 C 0.95581 0.91825 0.44245 0.0
C458 C 0.96386 0.94337 0.43817 0.0
C459 C 0.95261 0.95363 0.40983 0.0
C460 C 0.93401 0.93898 0.38591 0.0
H461 H 0.93979 0.862 0.32467 0.0
H462 H 0.95329 0.8896 0.35069 0.0
H463 H 0.93952 0.86172 0.37168 0.0
H464 H 0.93074 0.8844 0.42294 0.0
H465 H 0.96389 0.90985 0.46424 0.0
H466 H 0.21848 0.81599 0.3792 0.0
H467 H 0.19731 0.84492 0.40518 0.0
H468 H 0.16016 0.85298 0.30371 0.0
H469 H 0.18172 0.82415 0.27717 0.0
H470 H 0.17908 0.89744 0.34458 0.0
H471 H 0.11915 0.82458 0.42066 0.0
H472 H 0.1537 0.82803 0.42749 0.0
H473 H 0.13747 0.81825 0.38491 0.0
C474 C 0.20594 0.824 0.36227 0.0
C475 C 0.20148 0.81752 0.32617 0.0
C476 C 0.19384 0.84052 0.37722 0.0
C477 C 0.1768 0.85073 0.35652 0.0
C478 C 0.17317 0.84519 0.32017 0.0
H479 H 0.05051 0.90555 0.41943 0.0
H480 H 0.0805 0.8849 0.39435 0.0
C481 C 0.18545 0.82871 0.30506 0.0
C482 C 0.16169 0.86605 0.37327 0.0
H483 H 0.11555 0.86442 0.43225 0.0
C484 C 0.16521 0.8903 0.3638 0.0
C485 C 0.14351 0.85659 0.39818 0.0
C486 C 0.13799 0.83039 0.40825 0.0
C487 C 0.15091 0.90532 0.37856 0.0
C488 C 0.13288 0.89585 0.40363 0.0
C489 C 0.12958 0.87169 0.41326 0.0
C490 C 0.11537 0.90978 0.41792 0.0
C491 C 0.15455 0.93092 0.36648 0.0
C492 C 0.12503 0.93079 0.43955 0.0
C493 C 0.10779 0.94284 0.45402 0.0
C494 C 0.08068 0.93389 0.44723 0.0
C495 C 0.07125 0.91295 0.42536 0.0
C496 C 0.08838 0.90108 0.41092 0.0
H497 H 0.16572 0.93406 0.34261 0.0
H498 H 0.13536 0.9351 0.36075 0.0
H499 H 0.16539 0.94375 0.38776 0.0
H500 H 0.14581 0.93757 0.44577 0.0
H501 H 0.11561 0.9588 0.471 0.0
H502 H 0.19148 0.78637 0.60584 0.0
H503 H 0.16368 0.81094 0.58 0.0
H504 H 0.18924 0.86401 0.66538 0.0
H505 H 0.21705 0.83951 0.69163 0.0
H506 H 0.12261 0.82803 0.61592 0.0
H507 H 0.20222 0.90181 0.57083 0.0
H508 H 0.20637 0.8719 0.5798 0.0
H509 H 0.2066 0.89304 0.61546 0.0
C510 C 0.19127 0.8033 0.61913 0.0
C511 C 0.20656 0.81104 0.65076 0.0
C512 C 0.17533 0.81726 0.60432 0.0
C513 C 0.17465 0.83934 0.62062 0.0
C514 C 0.18976 0.84711 0.65224 0.0
H515 H 0.10228 0.95549 0.59911 0.0
H516 H 0.12904 0.92715 0.61103 0.0
C517 C 0.20555 0.83305 0.66726 0.0
C518 C 0.15781 0.85415 0.60495 0.0
H519 H 0.15992 0.90891 0.56898 0.0
C520 C 0.13065 0.84561 0.60527 0.0
C521 C 0.16848 0.87695 0.59095 0.0
C522 C 0.19751 0.88649 0.58887 0.0
C523 C 0.11385 0.85989 0.59359 0.0
C524 C 0.12458 0.88307 0.58052 0.0
C525 C 0.15173 0.89115 0.579 0.0
C526 C 0.10833 0.90022 0.57162 0.0
C527 C 0.08493 0.85056 0.59698 0.0
C528 C 0.08789 0.89466 0.54507 0.0
C529 C 0.07221 0.91084 0.53836 0.0
C530 C 0.07698 0.93295 0.55781 0.0
C531 C 0.09793 0.93863 0.58366 0.0
C532 C 0.11336 0.92245 0.59049 0.0
H533 H 0.08047 0.83472 0.61413 0.0
H534 H 0.0766 0.86499 0.6079 0.0
H535 H 0.07503 0.84479 0.57056 0.0
H536 H 0.08402 0.87782 0.52964 0.0
H537 H 0.05637 0.90598 0.51811 0.0
H538 H 0.17337 0.19534 0.77018 0.0
H539 H 0.14237 0.15992 0.74192 0.0
H540 H 0.19527 0.15855 0.66078 0.0
H541 H 0.22676 0.19317 0.6901 0.0
H542 H 0.11887 0.1616 0.68187 0.0
H543 H 0.16906 0.08781 0.67158 0.0
H544 H 0.18204 0.11439 0.69991 0.0
H545 H 0.18766 0.11503 0.65375 0.0
C546 C 0.17868 0.18687 0.747 0.0
C547 C 0.20245 0.19674 0.73239 0.0
C548 C 0.16097 0.16671 0.73081 0.0
C549 C 0.16647 0.15641 0.69927 0.0
C550 C 0.1908 0.16564 0.68556 0.0
H551 H 0.0466 0.09466 0.53583 0.0
H552 H 0.0825 0.12013 0.57334 0.0
C553 C 0.2088 0.18549 0.70227 0.0
C554 C 0.14545 0.13858 0.67836 0.0
H555 H 0.13151 0.08492 0.63083 0.0
C556 C 0.12158 0.14466 0.67118 0.0
C557 C 0.14881 0.1164 0.66452 0.0
C558 C 0.1732 0.10792 0.67317 0.0
C559 C 0.10121 0.12951 0.65008 0.0
C560 C 0.10514 0.10808 0.63445 0.0
C561 C 0.12871 0.1016 0.6423 0.0
C562 C 0.08484 0.09214 0.61017 0.0
C563 C 0.07558 0.13652 0.64524 0.0
C564 C 0.07514 0.06764 0.61742 0.0
C565 C 0.05498 0.05292 0.59563 0.0
C566 C 0.04404 0.06253 0.56637 0.0
C567 C 0.05432 0.08688 0.55855 0.0
C568 C 0.07475 0.10147 0.58004 0.0
H569 H 0.0731 0.1487 0.6672 0.0
H570 H 0.07511 0.14643 0.62053 0.0
H571 H 0.05879 0.12031 0.64357 0.0
H572 H 0.08276 0.06003 0.6404 0.0
H573 H 0.04753 0.03418 0.60224 0.0
H574 H 0.77244 0.17413 0.63121 0.0
H575 H 0.79319 0.14408 0.6076 0.0
H576 H 0.84598 0.15383 0.7007 0.0
H577 H 0.82468 0.18354 0.72501 0.0
H578 H 0.84207 0.15381 0.59083 0.0
H579 H 0.82748 0.08099 0.68712 0.0
H580 H 0.80934 0.10398 0.68662 0.0
H581 H 0.84189 0.11036 0.70737 0.0
C582 C 0.78819 0.16959 0.64696 0.0
C583 C 0.79705 0.18128 0.67989 0.0
C584 C 0.8 0.15236 0.63344 0.0
C585 C 0.82102 0.14651 0.65243 0.0
C586 C 0.82941 0.1576 0.68588 0.0
H587 H 0.95069 0.10468 0.57562 0.0
H588 H 0.91882 0.12339 0.60022 0.0
C589 C 0.81734 0.1747 0.69967 0.0
C590 C 0.83581 0.13092 0.63547 0.0
H591 H 0.86076 0.08147 0.64683 0.0
C592 C 0.84582 0.13781 0.60294 0.0
C593 C 0.8405 0.10987 0.65097 0.0
C594 C 0.82901 0.1007 0.68477 0.0
C595 C 0.86115 0.12481 0.58619 0.0
C596 C 0.86707 0.10464 0.60263 0.0
C597 C 0.85631 0.0971 0.63445 0.0
C598 C 0.88607 0.09252 0.58833 0.0
C599 C 0.87121 0.13291 0.55116 0.0
C600 C 0.87819 0.06878 0.57378 0.0
C601 C 0.89645 0.05794 0.55943 0.0
C602 C 0.92285 0.07065 0.55984 0.0
C603 C 0.93056 0.09433 0.57483 0.0
C604 C 0.91236 0.10511 0.5889 0.0
H605 H 0.85996 0.1448 0.53815 0.0
H606 H 0.89191 0.14329 0.55524 0.0
H607 H 0.8703 0.11704 0.53327 0.0
H608 H 0.85792 0.05881 0.57313 0.0
H609 H 0.8899 0.03969 0.54807 0.0
H610 H 0.82434 0.77815 0.68607 0.0
H611 H 0.85543 0.80939 0.65709 0.0
H612 H 0.82142 0.86418 0.69965 0.0
H613 H 0.78947 0.83276 0.72753 0.0
H614 H 0.83226 0.87521 0.6357 0.0
H615 H 0.92038 0.85373 0.69795 0.0
H616 H 0.9002 0.82807 0.6733 0.0
H617 H 0.88823 0.84001 0.71128 0.0
C618 C 0.8235 0.79684 0.68955 0.0
C619 C 0.80437 0.80274 0.70969 0.0
C620 C 0.84156 0.81487 0.67302 0.0
C621 C 0.84158 0.83956 0.67666 0.0
C622 C 0.82222 0.84545 0.69635 0.0
H623 H 0.97768 0.95482 0.63173 0.0
H624 H 0.94277 0.92583 0.65804 0.0
C625 C 0.80389 0.82736 0.71249 0.0
C626 C 0.86146 0.8591 0.65976 0.0
H627 H 0.92698 0.88034 0.65029 0.0
C628 C 0.85299 0.87634 0.63912 0.0
C629 C 0.88875 0.8612 0.6643 0.0
C630 C 0.89996 0.84493 0.68821 0.0
C631 C 0.87066 0.89513 0.6229 0.0
C632 C 0.89786 0.89659 0.62626 0.0
C633 C 0.90629 0.87942 0.64711 0.0
C634 C 0.91812 0.91607 0.60981 0.0
C635 C 0.85989 0.91366 0.60327 0.0
C636 C 0.91626 0.92109 0.57368 0.0
C637 C 0.9362 0.93833 0.5586 0.0
C638 C 0.95889 0.95066 0.57901 0.0
C639 C 0.96055 0.94582 0.6151 0.0
C640 C 0.94051 0.929 0.63022 0.0
H641 H 0.84072 0.91471 0.61245 0.0
H642 H 0.87345 0.93197 0.60644 0.0
H643 H 0.85689 0.90832 0.57486 0.0
H644 H 0.89981 0.91109 0.55673 0.0
H645 H 0.93441 0.94114 0.53061 0.0
H646 H 0.28348 0.16947 0.17619 0.0
H647 H 0.3013 0.14147 0.14111 0.0
H648 H 0.37911 0.18587 0.16666 0.0
H649 H 0.36162 0.21394 0.20075 0.0
H650 H 0.37067 0.17268 0.09704 0.0
H651 H 0.33928 0.09191 0.17835 0.0
H652 H 0.31388 0.10519 0.16109 0.0
H653 H 0.33831 0.12193 0.19321 0.0
C654 C 0.30437 0.17327 0.17416 0.0
C655 C 0.3211 0.19395 0.19136 0.0
C656 C 0.31455 0.15714 0.15436 0.0
C657 C 0.34161 0.16135 0.15166 0.0
C658 C 0.35818 0.18217 0.16838 0.0
H659 H 0.46487 0.1071 0.08008 0.0
H660 H 0.43498 0.12877 0.10316 0.0
C661 C 0.3481 0.19824 0.18794 0.0
C662 C 0.35319 0.14454 0.13131 0.0
H663 H 0.3643 0.08786 0.13082 0.0
C664 C 0.36901 0.15405 0.10422 0.0
C665 C 0.35099 0.12017 0.14051 0.0
C666 C 0.33488 0.10913 0.17002 0.0
C667 C 0.3834 0.14027 0.08703 0.0
C668 C 0.38213 0.11625 0.09724 0.0
C669 C 0.36528 0.10626 0.12304 0.0
C670 C 0.39993 0.10221 0.08372 0.0
C671 C 0.40037 0.15194 0.0587 0.0
C672 C 0.39025 0.07955 0.06603 0.0
C673 C 0.40746 0.06685 0.05294 0.0
C674 C 0.43461 0.07662 0.05746 0.0
C675 C 0.44411 0.09909 0.07576 0.0
C676 C 0.42701 0.11161 0.08892 0.0
H677 H 0.39156 0.16508 0.04435 0.0
H678 H 0.41958 0.16212 0.07109 0.0
H679 H 0.40368 0.13832 0.03952 0.0
H680 H 0.36941 0.07186 0.06193 0.0
H681 H 0.39952 0.0496 0.03895 0.0
H682 H 0.80242 0.35799 0.1414 0.0
H683 H 0.84187 0.39099 0.14118 0.0
H684 H 0.87506 0.36272 0.23236 0.0
H685 H 0.83579 0.32941 0.2326 0.0
H686 H 0.86611 0.42656 0.19704 0.0
H687 H 0.92905 0.36665 0.15731 0.0
H688 H 0.89392 0.3567 0.15297 0.0
H689 H 0.91098 0.35903 0.1956 0.0
C690 C 0.81814 0.35872 0.16132 0.0
C691 C 0.81617 0.34096 0.18671 0.0
C692 C 0.84055 0.37765 0.16131 0.0
C693 C 0.86128 0.37914 0.18669 0.0
C694 C 0.8593 0.36166 0.21239 0.0
H695 H 0.01146 0.4709 0.14038 0.0
H696 H 0.98011 0.45004 0.18079 0.0
C697 C 0.83692 0.34263 0.21233 0.0
C698 C 0.88532 0.39851 0.18481 0.0
H699 H 0.94658 0.40842 0.15677 0.0
C700 C 0.88395 0.42268 0.18894 0.0
C701 C 0.90858 0.39328 0.17476 0.0
C702 C 0.91089 0.36755 0.16968 0.0
C703 C 0.90477 0.44184 0.18094 0.0
C704 C 0.92717 0.43651 0.168 0.0
C705 C 0.92934 0.41244 0.16674 0.0
C706 C 0.94623 0.4545 0.14949 0.0
C707 C 0.90215 0.4675 0.18501 0.0
C708 C 0.93755 0.46459 0.11915 0.0
C709 C 0.95532 0.47639 0.09597 0.0
C710 C 0.98209 0.47811 0.10258 0.0
C711 C 0.99094 0.46974 0.13442 0.0
C712 C 0.97308 0.45788 0.15762 0.0
H713 H 0.88991 0.46929 0.20702 0.0
H714 H 0.92147 0.48059 0.18985 0.0
H715 H 0.89235 0.47232 0.16057 0.0
H716 H 0.9169 0.46174 0.11194 0.0
H717 H 0.94789 0.48285 0.07186 0.0
H718 H 0.65908 0.77076 0.16288 0.0
H719 H 0.63907 0.79794 0.12858 0.0
H720 H 0.70271 0.8585 0.16412 0.0
H721 H 0.72315 0.83121 0.19829 0.0
H722 H 0.62246 0.83418 0.15931 0.0
H723 H 0.69192 0.87194 0.05998 0.0
H724 H 0.69348 0.8451 0.08363 0.0
H725 H 0.70665 0.87469 0.10414 0.0
C726 C 0.66917 0.78978 0.16285 0.0
C727 C 0.69267 0.79883 0.18348 0.0
C728 C 0.65767 0.8053 0.14318 0.0
C729 C 0.66938 0.83026 0.14358 0.0
C730 C 0.69352 0.83925 0.16283 0.0
H731 H 0.61613 0.95776 0.09946 0.0
H732 H 0.64078 0.92781 0.11384 0.0
C733 C 0.70516 0.82364 0.18246 0.0
C734 C 0.65479 0.84699 0.12737 0.0
H735 H 0.65823 0.89228 0.06891 0.0
C736 C 0.63017 0.84667 0.13923 0.0
C737 C 0.66485 0.86332 0.1012 0.0
C738 C 0.69057 0.86369 0.0862 0.0
C739 C 0.61569 0.86264 0.12646 0.0
C740 C 0.62595 0.87928 0.10082 0.0
C741 C 0.6504 0.87945 0.08853 0.0
C742 C 0.61211 0.89756 0.08836 0.0
C743 C 0.58988 0.86218 0.14135 0.0
C744 C 0.58804 0.89056 0.06852 0.0
C745 C 0.57379 0.90766 0.06031 0.0
C746 C 0.58337 0.93205 0.07184 0.0
C747 C 0.608 0.9391 0.09048 0.0
C748 C 0.62223 0.92204 0.09856 0.0
H749 H 0.58677 0.85107 0.16506 0.0
H750 H 0.58864 0.88085 0.1484 0.0
H751 H 0.57381 0.85436 0.12115 0.0
H752 H 0.58003 0.87177 0.0601 0.0
H753 H 0.55503 0.90165 0.04562 0.0
H754 H 0.23396 0.70287 0.15963 0.0
H755 H 0.20315 0.67554 0.11792 0.0
H756 H 0.14103 0.70511 0.15272 0.0
H757 H 0.17259 0.73433 0.19154 0.0
H758 H 0.16806 0.64093 0.13064 0.0
H759 H 0.11853 0.69917 0.05311 0.0
H760 H 0.14739 0.71169 0.08159 0.0
H761 H 0.11557 0.70451 0.09891 0.0
C762 C 0.21389 0.70409 0.15741 0.0
C763 C 0.20569 0.72081 0.1786 0.0
C764 C 0.19618 0.6883 0.13376 0.0
C765 C 0.16959 0.6882 0.1317 0.0
C766 C 0.16145 0.70521 0.15266 0.0
H767 H 0.05042 0.55651 0.08183 0.0
H768 H 0.08536 0.58971 0.10784 0.0
C769 C 0.17946 0.72177 0.17527 0.0
C770 C 0.15033 0.6687 0.11054 0.0
H771 H 0.09487 0.65712 0.05561 0.0
C772 C 0.15238 0.64467 0.11374 0.0
C773 C 0.12997 0.67326 0.08784 0.0
C774 C 0.12795 0.69861 0.07987 0.0
C775 C 0.1345 0.6252 0.09578 0.0
C776 C 0.11281 0.62955 0.07571 0.0
C777 C 0.11115 0.65361 0.07154 0.0
C778 C 0.09137 0.60943 0.05974 0.0
C779 C 0.13951 0.60028 0.09815 0.0
C780 C 0.08204 0.60989 0.02443 0.0
C781 C 0.06129 0.59133 0.00991 0.0
C782 C 0.04989 0.57174 0.03025 0.0
C783 C 0.05925 0.57118 0.06541 0.0
C784 C 0.07939 0.59009 0.0802 0.0
H785 H 0.16074 0.60147 0.10203 0.0
H786 H 0.13022 0.59123 0.12123 0.0
H787 H 0.13164 0.58883 0.0741 0.0
H788 H 0.0908 0.62463 0.00807 0.0
H789 H 0.05431 0.59215 0.98273 0.0
H790 H 0.26927 0.79868 0.87034 0.0
H791 H 0.30096 0.83117 0.90431 0.0
H792 H 0.34165 0.85125 0.81067 0.0
H793 H 0.30946 0.81982 0.77672 0.0
H794 H 0.34877 0.83497 0.9196 0.0
H795 H 0.34523 0.91684 0.84726 0.0
H796 H 0.32088 0.88867 0.83868 0.0
H797 H 0.35115 0.89449 0.81737 0.0
C798 C 0.2845 0.81061 0.85687 0.0
C799 C 0.28648 0.80705 0.82065 0.0
C800 C 0.30273 0.82909 0.87633 0.0
C801 C 0.32362 0.84412 0.86011 0.0
C802 C 0.3253 0.84072 0.82377 0.0
H803 H 0.47711 0.90566 0.96073 0.0
H804 H 0.43632 0.87975 0.93404 0.0
C805 C 0.30677 0.82264 0.80423 0.0
C806 C 0.34502 0.86162 0.8815 0.0
H807 H 0.3858 0.91838 0.88149 0.0
C808 C 0.35653 0.85335 0.91153 0.0
C809 C 0.35503 0.88585 0.87174 0.0
C810 C 0.34218 0.89702 0.84224 0.0
C811 C 0.37827 0.86817 0.93102 0.0
C812 C 0.38973 0.89161 0.91931 0.0
C813 C 0.37753 0.90026 0.89022 0.0
C814 C 0.41455 0.90729 0.93626 0.0
C815 C 0.38837 0.8585 0.96423 0.0
C816 C 0.4165 0.93178 0.94522 0.0
C817 C 0.44012 0.94684 0.95937 0.0
C818 C 0.46226 0.93767 0.9654 0.0
C819 C 0.46029 0.91315 0.95682 0.0
C820 C 0.43684 0.89825 0.94185 0.0
H821 H 0.3725 0.84529 0.97624 0.0
H822 H 0.40333 0.84881 0.95774 0.0
H823 H 0.39723 0.87328 0.98403 0.0
H824 H 0.39972 0.93931 0.94115 0.0
H825 H 0.44101 0.96565 0.96585 0.0
H826 H 0.19167 0.29061 0.85703 0.0
H827 H 0.16625 0.31124 0.89273 0.0
H828 H 0.20336 0.37951 0.84955 0.0
H829 H 0.22913 0.35921 0.81434 0.0
H830 H 0.19667 0.38338 0.92144 0.0
H831 H 0.10481 0.33385 0.84681 0.0
H832 H 0.12339 0.31488 0.86759 0.0
H833 H 0.13659 0.33378 0.8326 0.0
C834 C 0.19474 0.31007 0.85556 0.0
C835 C 0.21225 0.3232 0.83251 0.0
C836 C 0.18005 0.32181 0.87579 0.0
C837 C 0.18249 0.34684 0.8732 0.0
C838 C 0.20102 0.36017 0.85178 0.0
H839 H 0.10556 0.45586 0.94146 0.0
H840 H 0.13609 0.43378 0.92038 0.0
C841 C 0.21573 0.34849 0.83163 0.0
C842 C 0.16485 0.35903 0.89116 0.0
H843 H 0.10103 0.36076 0.89259 0.0
C844 C 0.17573 0.37836 0.91534 0.0
C845 C 0.13756 0.35259 0.88294 0.0
C846 C 0.12483 0.3328 0.85586 0.0
C847 C 0.16006 0.39137 0.93166 0.0
C848 C 0.13275 0.38507 0.92319 0.0
C849 C 0.1219 0.36551 0.89933 0.0
C850 C 0.11499 0.39883 0.93765 0.0
C851 C 0.17314 0.41169 0.95773 0.0
C852 C 0.09256 0.38655 0.95365 0.0
C853 C 0.07477 0.39905 0.96497 0.0
C854 C 0.0791 0.42417 0.96072 0.0
C855 C 0.10174 0.43654 0.94525 0.0
C856 C 0.11934 0.42395 0.93343 0.0
H857 H 0.19056 0.40777 0.97183 0.0
H858 H 0.17989 0.42858 0.94331 0.0
H859 H 0.15979 0.41498 0.97743 0.0
H860 H 0.08872 0.36719 0.95718 0.0
H861 H 0.05764 0.38904 0.97711 0.0
H862 H 0.653 0.21443 0.84427 0.0
H863 H 0.63562 0.17594 0.87136 0.0
H864 H 0.70085 0.14986 0.84001 0.0
H865 H 0.71861 0.18872 0.81276 0.0
H866 H 0.65 0.11897 0.81945 0.0
H867 H 0.65992 0.14547 0.96102 0.0
H868 H 0.64658 0.16582 0.93454 0.0
H869 H 0.6793 0.16336 0.92907 0.0
C870 C 0.66391 0.20069 0.84358 0.0
C871 C 0.68713 0.20455 0.82635 0.0
C872 C 0.65404 0.17875 0.85929 0.0
C873 C 0.66712 0.16019 0.85801 0.0
C874 C 0.69064 0.1641 0.84151 0.0
H875 H 0.57985 0.03548 0.96666 0.0
H876 H 0.61853 0.06178 0.94388 0.0
C877 C 0.70076 0.18627 0.82608 0.0
C878 C 0.65451 0.13618 0.87113 0.0
H879 H 0.62505 0.11036 0.94266 0.0
C880 C 0.64508 0.1168 0.84659 0.0
C881 C 0.64847 0.13328 0.90659 0.0
C882 C 0.65933 0.15303 0.93441 0.0
C883 C 0.62787 0.09529 0.85604 0.0
C884 C 0.61974 0.09337 0.89071 0.0
C885 C 0.63103 0.11193 0.91593 0.0
C886 C 0.59733 0.07397 0.90045 0.0
C887 C 0.61781 0.07521 0.82848 0.0
C888 C 0.57263 0.07168 0.88312 0.0
C889 C 0.55046 0.05669 0.89604 0.0
C890 C 0.55252 0.04384 0.92677 0.0
C891 C 0.57749 0.0451 0.94293 0.0
C892 C 0.59967 0.06015 0.92998 0.0
H893 H 0.63225 0.07545 0.80852 0.0
H894 H 0.61323 0.05715 0.8404 0.0
H895 H 0.59974 0.07789 0.81462 0.0
H896 H 0.57027 0.08258 0.86076 0.0
H897 H 0.53158 0.05619 0.88293 0.0
H898 H 0.78828 0.68829 0.87502 0.0
H899 H 0.81567 0.6644 0.90329 0.0
H900 H 0.87482 0.69045 0.83102 0.0
H901 H 0.84736 0.71411 0.80213 0.0
H902 H 0.86056 0.64163 0.83131 0.0
H903 H 0.8818 0.67864 0.96826 0.0
H904 H 0.84747 0.67059 0.95552 0.0
H905 H 0.86889 0.69451 0.9337 0.0
C906 C 0.80737 0.68941 0.86561 0.0
C907 C 0.81553 0.70299 0.83611 0.0
C908 C 0.82309 0.67581 0.88198 0.0
C909 C 0.84738 0.67573 0.86943 0.0
C910 C 0.85616 0.69028 0.84117 0.0
H911 H 0.95798 0.59705 0.95366 0.0
H912 H 0.93576 0.62849 0.93731 0.0
C913 C 0.84044 0.70382 0.82472 0.0
C914 C 0.8621 0.65835 0.88287 0.0
H915 H 0.88882 0.63907 0.95753 0.0
C916 C 0.86695 0.64125 0.85886 0.0
C917 C 0.87057 0.65792 0.91879 0.0
C918 C 0.86715 0.67656 0.9455 0.0
C919 C 0.8795 0.62342 0.86983 0.0
C920 C 0.88694 0.62231 0.90594 0.0
C921 C 0.88273 0.63975 0.92992 0.0
C922 C 0.89946 0.60329 0.91894 0.0
C923 C 0.88489 0.60603 0.84255 0.0
C924 C 0.88614 0.57872 0.91499 0.0
C925 C 0.89876 0.56068 0.92427 0.0
C926 C 0.92493 0.56691 0.93782 0.0
C927 C 0.93787 0.59159 0.94309 0.0
C928 C 0.9252 0.60962 0.93386 0.0
H929 H 0.88401 0.61305 0.81562 0.0
H930 H 0.90438 0.60248 0.84828 0.0
H931 H 0.86997 0.58854 0.84287 0.0
H932 H 0.86609 0.57349 0.9041 0.0
H933 H 0.88814 0.54187 0.92023 0.0
H934 H 0.224 0.34753 0.1778 0.0
H935 H 0.19569 0.36648 0.14153 0.0
H936 H 0.13418 0.3007 0.1395 0.0
H937 H 0.16247 0.28152 0.17657 0.0
H938 H 0.1683 0.35449 0.07504 0.0
H939 H 0.10194 0.35227 0.18328 0.0
H940 H 0.13361 0.34611 0.19044 0.0
H941 H 0.10705 0.32372 0.16859 0.0
C942 C 0.20454 0.33693 0.16943 0.0
C943 C 0.19535 0.31311 0.18045 0.0
C944 C 0.18842 0.34779 0.14854 0.0
C945 C 0.16274 0.33513 0.13828 0.0
C946 C 0.15384 0.31089 0.14763 0.0
H947 H 0.04575 0.40761 0.05128 0.0
H948 H 0.06705 0.37529 0.06642 0.0
C949 C 0.17005 0.29993 0.1686 0.0
C950 C 0.14516 0.34823 0.11995 0.0
H951 H 0.09445 0.37364 0.13341 0.0
C952 C 0.15189 0.35837 0.08752 0.0
C953 C 0.12379 0.3533 0.13634 0.0
C954 C 0.11614 0.34347 0.17168 0.0
C955 C 0.13837 0.37414 0.07164 0.0
C956 C 0.11788 0.38012 0.08889 0.0
C957 C 0.11026 0.36902 0.12036 0.0
C958 C 0.10548 0.39932 0.0764 0.0
C959 C 0.14644 0.38468 0.03693 0.0
C960 C 0.1201 0.42352 0.07697 0.0
C961 C 0.10798 0.44208 0.06866 0.0
C962 C 0.08102 0.43672 0.0596 0.0
C963 C 0.06656 0.41237 0.05826 0.0
C964 C 0.07866 0.39385 0.06681 0.0
H965 H 0.1571 0.37344 0.02255 0.0
H966 H 0.12922 0.38641 0.01996 0.0
H967 H 0.1596 0.40305 0.04184 0.0
H968 H 0.14077 0.42814 0.08485 0.0
H969 H 0.11967 0.46063 0.06978 0.0
H970 H 0.18653 0.69149 0.85264 0.0
H971 H 0.1482 0.65928 0.86424 0.0
H972 H 0.18095 0.60668 0.81287 0.0
H973 H 0.21916 0.63861 0.80092 0.0
H974 H 0.1275 0.60453 0.79078 0.0
H975 H 0.14641 0.60528 0.93612 0.0
H976 H 0.14676 0.63428 0.91815 0.0
H977 H 0.17129 0.61903 0.9074 0.0
C978 C 0.18567 0.67304 0.84413 0.0
C979 C 0.20587 0.66755 0.82602 0.0
C980 C 0.16381 0.65471 0.85074 0.0
C981 C 0.16195 0.63071 0.83947 0.0
C982 C 0.18213 0.62515 0.82167 0.0
H983 H 0.05467 0.50867 0.91843 0.0
H984 H 0.09209 0.53239 0.88991 0.0
C985 C 0.20397 0.64341 0.81509 0.0
C986 C 0.13888 0.61131 0.8461 0.0
H987 H 0.10587 0.58118 0.91201 0.0
C988 C 0.12274 0.59926 0.81723 0.0
C989 C 0.13308 0.60448 0.88062 0.0
C990 C 0.15037 0.61626 0.9124 0.0
C991 C 0.10048 0.58068 0.82214 0.0
C992 C 0.09438 0.57426 0.85672 0.0
C993 C 0.11075 0.58614 0.88548 0.0
C994 C 0.07071 0.55589 0.86445 0.0
C995 C 0.08377 0.568 0.79049 0.0
C996 C 0.04607 0.56048 0.85784 0.0
C997 C 0.02457 0.54681 0.87391 0.0
C998 C 0.02772 0.52875 0.89713 0.0
C999 C 0.05184 0.52268 0.90086 0.0
C1000 C 0.07318 0.53616 0.88458 0.0
H1001 H 0.09435 0.57095 0.76609 0.0
H1002 H 0.07714 0.54821 0.79436 0.0
H1003 H 0.06622 0.57524 0.78681 0.0
H1004 H 0.0439 0.57588 0.84278 0.0
H1005 H 0.00621 0.55193 0.87081 0.0
H1006 H 0.36704 0.22315 0.82161 0.0
H1007 H 0.38705 0.1961 0.8566 0.0
H1008 H 0.3137 0.14217 0.85041 0.0
H1009 H 0.29333 0.16915 0.81548 0.0
H1010 H 0.36307 0.16497 0.92504 0.0
H1011 H 0.37768 0.11698 0.80183 0.0
H1012 H 0.37672 0.14846 0.80232 0.0
H1013 H 0.34736 0.12534 0.80633 0.0
C1014 C 0.35502 0.20568 0.82809 0.0
C1015 C 0.32862 0.19823 0.8156 0.0
C1016 C 0.36649 0.19032 0.84816 0.0
C1017 C 0.35181 0.16723 0.85591 0.0
C1018 C 0.32525 0.16001 0.84468 0.0
H1019 H 0.4033 0.04162 0.92215 0.0
H1020 H 0.37772 0.06953 0.90211 0.0
C1021 C 0.31368 0.17544 0.82477 0.0
C1022 C 0.36485 0.15002 0.87325 0.0
H1023 H 0.39311 0.10393 0.8552 0.0
C1024 C 0.36959 0.15152 0.90994 0.0
C1025 C 0.37322 0.13261 0.85329 0.0
C1026 C 0.36865 0.1306 0.81372 0.0
C1027 C 0.38248 0.13579 0.92731 0.0
C1028 C 0.39132 0.11859 0.90729 0.0
C1029 C 0.38636 0.11712 0.87055 0.0
C1030 C 0.40567 0.10178 0.92355 0.0
C1031 C 0.38614 0.13747 0.96688 0.0
C1032 C 0.42974 0.11058 0.94298 0.0
C1033 C 0.44446 0.09458 0.95473 0.0
C1034 C 0.43549 0.06956 0.94675 0.0
C1035 C 0.41096 0.0608 0.92842 0.0
C1036 C 0.39625 0.07673 0.91695 0.0
H1037 H 0.37199 0.14632 0.97853 0.0
H1038 H 0.38391 0.11925 0.97798 0.0
H1039 H 0.40608 0.14856 0.97486 0.0
H1040 H 0.43763 0.12988 0.9479 0.0
H1041 H 0.46325 0.10188 0.96885 0.0
H1042 H 0.81887 0.26145 0.82741 0.0
H1043 H 0.85202 0.28974 0.86595 0.0
H1044 H 0.81627 0.34778 0.83853 0.0
H1045 H 0.78299 0.31978 0.80073 0.0
H1046 H 0.88738 0.33094 0.84741 0.0
H1047 H 0.82398 0.35489 0.94498 0.0
H1048 H 0.81311 0.32909 0.9146 0.0
H1049 H 0.81299 0.35905 0.90057 0.0
C1050 C 0.81793 0.28018 0.8299 0.0
C1051 C 0.79822 0.28832 0.81107 0.0
C1052 C 0.83688 0.29631 0.85188 0.0
C1053 C 0.83632 0.32076 0.8556 0.0
C1054 C 0.81671 0.32888 0.83679 0.0
H1055 H 0.93686 0.45524 0.93932 0.0
H1056 H 0.90186 0.42259 0.9114 0.0
C1057 C 0.7978 0.31284 0.81491 0.0
C1058 C 0.85699 0.33822 0.87752 0.0
H1059 H 0.86679 0.38138 0.94398 0.0
C1060 C 0.88295 0.34173 0.86885 0.0
C1061 C 0.85112 0.35232 0.90543 0.0
C1062 C 0.82381 0.3485 0.9172 0.0
C1063 C 0.90308 0.35958 0.88651 0.0
C1064 C 0.89709 0.37408 0.91375 0.0
C1065 C 0.87124 0.37028 0.92292 0.0
C1066 C 0.91741 0.39366 0.93245 0.0
C1067 C 0.9305 0.36336 0.87515 0.0
C1068 C 0.93735 0.38813 0.95414 0.0
C1069 C 0.95732 0.40669 0.97021 0.0
C1070 C 0.95772 0.43117 0.96483 0.0
C1071 C 0.93723 0.43661 0.94389 0.0
C1072 C 0.9172 0.418 0.92795 0.0
H1073 H 0.93103 0.35385 0.84957 0.0
H1074 H 0.93966 0.38298 0.87282 0.0
H1075 H 0.94244 0.35624 0.89529 0.0
H1076 H 0.93764 0.36943 0.95827 0.0
H1077 H 0.97273 0.40181 0.98624 0.0
H1078 H 0.73256 0.83749 0.83481 0.0
H1079 H 0.71844 0.86667 0.87233 0.0
H1080 H 0.64941 0.81169 0.89257 0.0
H1081 H 0.66338 0.78254 0.85566 0.0
H1082 H 0.67321 0.88131 0.85901 0.0
H1083 H 0.67272 0.84199 0.99034 0.0
H1084 H 0.69015 0.83296 0.95532 0.0
H1085 H 0.65569 0.81992 0.95724 0.0
C1086 C 0.71467 0.83149 0.84791 0.0
C1087 C 0.69907 0.80769 0.84219 0.0
C1088 C 0.70661 0.8482 0.86928 0.0
C1089 C 0.68304 0.8413 0.88568 0.0
C1090 C 0.66795 0.81732 0.88091 0.0
H1091 H 0.56185 0.8917 0.96476 0.0
H1092 H 0.59384 0.87093 0.94536 0.0
C1093 C 0.67589 0.8007 0.8595 0.0
C1094 C 0.67256 0.85949 0.90458 0.0
H1095 H 0.64397 0.86862 0.9798 0.0
C1096 C 0.66738 0.87892 0.88573 0.0
C1097 C 0.66501 0.85638 0.93949 0.0
C1098 C 0.67144 0.83682 0.96189 0.0
C1099 C 0.65323 0.89424 0.89991 0.0
C1100 C 0.64429 0.89016 0.93397 0.0
C1101 C 0.65073 0.87161 0.95359 0.0
C1102 C 0.62579 0.90311 0.94794 0.0
C1103 C 0.64652 0.91373 0.87757 0.0
C1104 C 0.63327 0.9281 0.95637 0.0
C1105 C 0.61493 0.94012 0.96754 0.0
C1106 C 0.58883 0.92732 0.97024 0.0
C1107 C 0.58168 0.9022 0.96255 0.0
C1108 C 0.59998 0.89023 0.95165 0.0
H1109 H 0.65213 0.91252 0.85012 0.0
H1110 H 0.62526 0.91248 0.87694 0.0
H1111 H 0.65693 0.93181 0.88922 0.0
H1112 H 0.65319 0.9383 0.95405 0.0
H1113 H 0.6211 0.95944 0.97357 0.0
H1114 H 0.84323 0.71203 0.19012 0.0
H1115 H 0.8693 0.68905 0.16005 0.0
H1116 H 0.80139 0.65241 0.09394 0.0
H1117 H 0.7751 0.67537 0.12378 0.0
H1118 H 0.85982 0.63801 0.15762 0.0
H1119 H 0.85843 0.67493 0.02408 0.0
H1120 H 0.84922 0.68963 0.06182 0.0
H1121 H 0.82678 0.66368 0.04031 0.0
C1122 C 0.83386 0.69934 0.16886 0.0
C1123 C 0.80704 0.69557 0.15937 0.0
C1124 C 0.8488 0.68617 0.15177 0.0
C1125 C 0.83733 0.66914 0.12462 0.0
C1126 C 0.81071 0.6657 0.11449 0.0
H1127 H 0.90156 0.55136 0.0503 0.0
H1128 H 0.87306 0.57533 0.07265 0.0
C1129 C 0.7957 0.67881 0.13167 0.0
C1130 C 0.85294 0.65404 0.10839 0.0
H1131 H 0.87648 0.64085 0.03093 0.0
C1132 C 0.86347 0.63861 0.12993 0.0
C1133 C 0.85778 0.65499 0.07231 0.0
C1134 C 0.84766 0.67183 0.04826 0.0
C1135 C 0.87861 0.62401 0.11635 0.0
C1136 C 0.88313 0.62467 0.08016 0.0
C1137 C 0.87276 0.64021 0.05861 0.0
C1138 C 0.89953 0.61006 0.06467 0.0
C1139 C 0.89015 0.60837 0.14097 0.0
C1140 C 0.92352 0.62165 0.05198 0.0
C1141 C 0.93987 0.60804 0.03936 0.0
C1142 C 0.93243 0.58254 0.0389 0.0
C1143 C 0.90798 0.57096 0.0506 0.0
C1144 C 0.89169 0.58462 0.06343 0.0
H1145 H 0.88932 0.61365 0.16902 0.0
H1146 H 0.87902 0.58919 0.13663 0.0
H1147 H 0.91078 0.60953 0.13579 0.0
H1148 H 0.92986 0.64126 0.05254 0.0
H1149 H 0.95842 0.61755 0.03013 0.0
H1150 H 0.30336 0.82065 0.21512 0.0
H1151 H 0.32955 0.85947 0.19604 0.0
H1152 H 0.37026 0.82104 0.12972 0.0
H1153 H 0.34532 0.7825 0.15051 0.0
H1154 H 0.40319 0.85213 0.1707 0.0
H1155 H 0.332 0.89895 0.11042 0.0
H1156 H 0.3257 0.89013 0.15457 0.0
H1157 H 0.3231 0.86725 0.12036 0.0
C1158 C 0.31749 0.82064 0.1958 0.0
C1159 C 0.32252 0.79881 0.18421 0.0
C1160 C 0.33234 0.84277 0.18479 0.0
C1161 C 0.3518 0.8432 0.16127 0.0
C1162 C 0.35547 0.82118 0.14801 0.0
H1163 H 0.44466 0.95331 0.04498 0.0
H1164 H 0.409 0.92486 0.07039 0.0
C1165 C 0.34121 0.7992 0.15975 0.0
C1166 C 0.37049 0.86618 0.15345 0.0
H1167 H 0.37591 0.92219 0.11986 0.0
C1168 C 0.39718 0.86743 0.15949 0.0
C1169 C 0.36264 0.88615 0.13898 0.0
C1170 C 0.33431 0.88553 0.13038 0.0
C1171 C 0.41628 0.88756 0.15018 0.0
C1172 C 0.40852 0.90774 0.13618 0.0
C1173 C 0.38181 0.90686 0.13109 0.0
C1174 C 0.4278 0.92859 0.12307 0.0
C1175 C 0.44446 0.88628 0.15368 0.0
C1176 C 0.44967 0.94114 0.14461 0.0
C1177 C 0.47051 0.95694 0.1299 0.0
C1178 C 0.46928 0.96107 0.0937 0.0
C1179 C 0.44621 0.95046 0.07298 0.0
C1180 C 0.42574 0.93419 0.08749 0.0
H1181 H 0.44625 0.86734 0.15616 0.0
H1182 H 0.45493 0.894 0.1306 0.0
H1183 H 0.45431 0.89677 0.17769 0.0
H1184 H 0.45125 0.9377 0.1724 0.0
H1185 H 0.48792 0.9652 0.14652 0.0
H1186 H 0.7245 0.18732 0.23531 0.0
H1187 H 0.69281 0.15214 0.20714 0.0
H1188 H 0.69464 0.18967 0.10981 0.0
H1189 H 0.72585 0.22486 0.13797 0.0
H1190 H 0.64353 0.15541 0.17846 0.0
H1191 H 0.69802 0.12107 0.07802 0.0
H1192 H 0.71408 0.14045 0.11517 0.0
H1193 H 0.70127 0.1532 0.0773 0.0
C1194 C 0.71837 0.1879 0.20787 0.0
C1195 C 0.72736 0.20899 0.18917 0.0
C1196 C 0.70037 0.16779 0.19172 0.0
C1197 C 0.69145 0.16825 0.15632 0.0
C1198 C 0.70154 0.18875 0.137 0.0
H1199 H 0.54579 0.09977 0.04326 0.0
H1200 H 0.58482 0.1271 0.07249 0.0
C1201 C 0.71937 0.20891 0.15322 0.0
C1202 C 0.66958 0.1486 0.14059 0.0
H1203 H 0.65138 0.10781 0.07102 0.0
C1204 C 0.64533 0.1448 0.15522 0.0
C1205 C 0.67198 0.13471 0.11036 0.0
C1206 C 0.6978 0.13735 0.09443 0.0
C1207 C 0.62319 0.12812 0.13967 0.0
C1208 C 0.62536 0.11502 0.10859 0.0
C1209 C 0.64977 0.1181 0.09466 0.0
C1210 C 0.60226 0.09841 0.08989 0.0
C1211 C 0.59755 0.12475 0.15635 0.0
C1212 C 0.59943 0.07327 0.0895 0.0
C1213 C 0.57709 0.05757 0.07299 0.0
C1214 C 0.55731 0.06679 0.05623 0.0
C1215 C 0.56059 0.09206 0.05595 0.0
C1216 C 0.58283 0.1077 0.07272 0.0
H1217 H 0.60021 0.13241 0.18377 0.0
H1218 H 0.58483 0.13409 0.14073 0.0
H1219 H 0.58735 0.10522 0.15652 0.0
H1220 H 0.61431 0.06579 0.1025 0.0
H1221 H 0.57528 0.03821 0.07348 0.0
H1222 H 0.72228 0.67092 0.78912 0.0
H1223 H 0.69121 0.63908 0.81729 0.0
H1224 H 0.64031 0.68681 0.8277 0.0
H1225 H 0.67152 0.71894 0.8 0.0
H1226 H 0.64362 0.66265 0.88779 0.0
H1227 H 0.62359 0.59587 0.77558 0.0
H1228 H 0.65756 0.60567 0.78991 0.0
H1229 H 0.641 0.62706 0.77137 0.0
C1230 C 0.7044 0.6747 0.79708 0.0
C1231 C 0.69955 0.6977 0.79179 0.0
C1232 C 0.68647 0.65629 0.81317 0.0
C1233 C 0.66293 0.66011 0.82433 0.0
C1234 C 0.65813 0.68312 0.81936 0.0
H1235 H 0.52342 0.55131 0.87114 0.0
H1236 H 0.55824 0.58102 0.8461 0.0
C1237 C 0.67607 0.70156 0.80328 0.0
C1238 C 0.64354 0.64037 0.8415 0.0
H1239 H 0.60623 0.5819 0.8293 0.0
C1240 C 0.6355 0.645 0.87493 0.0
C1241 C 0.63249 0.61723 0.82492 0.0
C1242 C 0.63886 0.61117 0.78834 0.0
C1243 C 0.61708 0.62738 0.89205 0.0
C1244 C 0.60643 0.60407 0.87575 0.0
C1245 C 0.61443 0.5995 0.84228 0.0
C1246 C 0.58566 0.58482 0.8916 0.0
C1247 C 0.60858 0.63428 0.927 0.0
C1248 C 0.58922 0.57615 0.92558 0.0
C1249 C 0.56905 0.55887 0.94022 0.0
C1250 C 0.54475 0.54967 0.92125 0.0
C1251 C 0.54168 0.55783 0.88685 0.0
C1252 C 0.56173 0.57497 0.87232 0.0
H1253 H 0.61329 0.65426 0.9316 0.0
H1254 H 0.58727 0.62691 0.92866 0.0
H1255 H 0.61891 0.62664 0.94843 0.0
H1256 H 0.60759 0.58282 0.94096 0.0
H1257 H 0.57228 0.55322 0.96675 0.0
H1258 H 0.29987 0.69682 0.90131 0.0
H1259 H 0.33101 0.67375 0.91973 0.0
H1260 H 0.36845 0.68894 0.82252 0.0
H1261 H 0.33616 0.71107 0.80303 0.0
H1262 H 0.36174 0.6441 0.83379 0.0
H1263 H 0.4039 0.69184 0.9591 0.0
H1264 H 0.36917 0.68244 0.96018 0.0
H1265 H 0.38349 0.70408 0.92858 0.0
C1266 C 0.31495 0.69557 0.88401 0.0
C1267 C 0.31562 0.7058 0.85074 0.0
C1268 C 0.33297 0.68254 0.89478 0.0
C1269 C 0.35258 0.68006 0.87299 0.0
C1270 C 0.35363 0.69074 0.83996 0.0
H1271 H 0.46786 0.60292 0.9525 0.0
H1272 H 0.44683 0.63498 0.93449 0.0
C1273 C 0.3352 0.70337 0.82882 0.0
C1274 C 0.37021 0.66436 0.88336 0.0
H1275 H 0.40657 0.64996 0.95311 0.0
C1276 C 0.37191 0.6457 0.85968 0.0
C1277 C 0.38398 0.66659 0.91687 0.0
C1278 C 0.38527 0.68753 0.94239 0.0
C1279 C 0.38591 0.62862 0.86911 0.0
C1280 C 0.39761 0.62953 0.90374 0.0
C1281 C 0.39707 0.64887 0.92685 0.0
C1282 C 0.41 0.61032 0.91653 0.0
C1283 C 0.38804 0.60984 0.84167 0.0
C1284 C 0.39601 0.58589 0.91368 0.0
C1285 C 0.40811 0.56761 0.92327 0.0
C1286 C 0.43423 0.57342 0.93684 0.0
C1287 C 0.44776 0.59792 0.94182 0.0
C1288 C 0.43577 0.61624 0.93156 0.0
H1289 H 0.38637 0.6166 0.81468 0.0
H1290 H 0.40683 0.60462 0.84542 0.0
H1291 H 0.37184 0.59342 0.84351 0.0
H1292 H 0.37579 0.58092 0.90353 0.0
H1293 H 0.39702 0.54889 0.91985 0.0
H1294 H 0.28053 0.30606 0.80865 0.0
H1295 H 0.3111 0.34117 0.83818 0.0
H1296 H 0.36718 0.3379 0.7621 0.0
H1297 H 0.33704 0.30205 0.73363 0.0
H1298 H 0.38839 0.33755 0.8242 0.0
H1299 H 0.33797 0.41159 0.82439 0.0
H1300 H 0.31858 0.38483 0.84242 0.0
H1301 H 0.32606 0.3844 0.79698 0.0
C1302 C 0.29902 0.3134 0.79756 0.0
C1303 C 0.30646 0.30149 0.76887 0.0
C1304 C 0.3165 0.33353 0.8144 0.0
C1305 C 0.34142 0.3424 0.80222 0.0
C1306 C 0.34809 0.3314 0.77202 0.0
H1307 H 0.45772 0.46656 0.89974 0.0
H1308 H 0.42365 0.43997 0.86068 0.0
C1309 C 0.33087 0.31098 0.75571 0.0
C1310 C 0.36173 0.36068 0.82355 0.0
H1311 H 0.37411 0.41551 0.86782 0.0
C1312 C 0.38534 0.35474 0.83327 0.0
C1313 C 0.35794 0.38321 0.83529 0.0
C1314 C 0.33386 0.39148 0.82389 0.0
C1315 C 0.40498 0.37039 0.85488 0.0
C1316 C 0.40055 0.39222 0.86838 0.0
C1317 C 0.37728 0.39854 0.85797 0.0
C1318 C 0.42 0.4087 0.89313 0.0
C1319 C 0.43042 0.36343 0.86257 0.0
C1320 C 0.42877 0.40013 0.92476 0.0
C1321 C 0.44852 0.41513 0.94681 0.0
C1322 C 0.45943 0.43917 0.93799 0.0
C1323 C 0.44976 0.44807 0.90715 0.0
C1324 C 0.43027 0.43293 0.88484 0.0
H1325 H 0.43369 0.35064 0.84195 0.0
H1326 H 0.44724 0.37961 0.86442 0.0
H1327 H 0.42987 0.35422 0.88799 0.0
H1328 H 0.42055 0.38171 0.93221 0.0
H1329 H 0.45525 0.40789 0.97071 0.0
H1330 H 0.67206 0.31154 0.78972 0.0
H1331 H 0.65035 0.33888 0.81917 0.0
H1332 H 0.70473 0.345 0.90999 0.0
H1333 H 0.72638 0.31752 0.88097 0.0
H1334 H 0.65356 0.33552 0.92723 0.0
H1335 H 0.67509 0.41224 0.83754 0.0
H1336 H 0.66024 0.38367 0.81512 0.0
H1337 H 0.69209 0.3884 0.83752 0.0
C1338 C 0.67953 0.31884 0.81585 0.0
C1339 C 0.70098 0.31235 0.83295 0.0
C1340 C 0.6672 0.33459 0.83257 0.0
C1341 C 0.67617 0.34427 0.86659 0.0
C1342 C 0.69758 0.33785 0.88368 0.0
H1343 H 0.61211 0.45622 0.9651 0.0
H1344 H 0.64325 0.4344 0.94432 0.0
C1345 C 0.70992 0.32213 0.867 0.0
C1346 C 0.66243 0.36014 0.88497 0.0
H1347 H 0.64192 0.41225 0.87728 0.0
C1348 C 0.65127 0.35243 0.91651 0.0
C1349 C 0.65982 0.38241 0.87133 0.0
C1350 C 0.67267 0.39234 0.8387 0.0
C1351 C 0.63654 0.36583 0.93389 0.0
C1352 C 0.63262 0.38735 0.91908 0.0
C1353 C 0.64479 0.39565 0.88845 0.0
C1354 C 0.61436 0.40044 0.9334 0.0
C1355 C 0.62504 0.35661 0.9677 0.0
C1356 C 0.58787 0.38861 0.93397 0.0
C1357 C 0.57014 0.40098 0.9456 0.0
C1358 C 0.57846 0.42553 0.95678 0.0
C1359 C 0.60509 0.43735 0.95657 0.0
C1360 C 0.62287 0.42492 0.94474 0.0
H1361 H 0.63692 0.34565 0.98169 0.0
H1362 H 0.62349 0.3717 0.98563 0.0
H1363 H 0.60517 0.34477 0.96151 0.0
H1364 H 0.58079 0.36986 0.92479 0.0
H1365 H 0.54982 0.39125 0.9455 0.0
H1366 H 0.71204 0.33874 0.19573 0.0
H1367 H 0.68436 0.36212 0.16652 0.0
H1368 H 0.6348 0.29632 0.11808 0.0
H1369 H 0.6621 0.27272 0.14754 0.0
H1370 H 0.67376 0.36443 0.09335 0.0
H1371 H 0.58281 0.32919 0.16104 0.0
H1372 H 0.61402 0.32509 0.17766 0.0
H1373 H 0.59628 0.30663 0.141 0.0
C1374 C 0.69507 0.32918 0.17923 0.0
C1375 C 0.68923 0.30384 0.1741 0.0
C1376 C 0.67934 0.34259 0.16244 0.0
C1377 C 0.65744 0.33093 0.14035 0.0
C1378 C 0.65137 0.30564 0.13545 0.0
H1379 H 0.54355 0.39904 0.03195 0.0
H1380 H 0.56826 0.36896 0.04696 0.0
C1381 C 0.66706 0.29219 0.15227 0.0
C1382 C 0.64146 0.34545 0.12174 0.0
H1383 H 0.58122 0.3571 0.11666 0.0
C1384 C 0.65348 0.36273 0.09829 0.0
C1385 C 0.61493 0.34301 0.12792 0.0
C1386 C 0.60121 0.32512 0.15345 0.0
C1387 C 0.63986 0.37807 0.08152 0.0
C1388 C 0.61366 0.37629 0.08879 0.0
C1389 C 0.60131 0.35835 0.11109 0.0
C1390 C 0.59969 0.39452 0.07681 0.0
C1391 C 0.65385 0.39634 0.05667 0.0
C1392 C 0.60924 0.41876 0.08853 0.0
C1393 C 0.59521 0.43586 0.08021 0.0
C1394 C 0.57122 0.42905 0.06008 0.0
C1395 C 0.56192 0.40483 0.04761 0.0
C1396 C 0.57599 0.38765 0.05612 0.0
H1397 H 0.66905 0.38961 0.04376 0.0
H1398 H 0.64017 0.40072 0.03601 0.0
H1399 H 0.66371 0.41332 0.07183 0.0
H1400 H 0.62727 0.42437 0.10499 0.0
H1401 H 0.60303 0.45436 0.09013 0.0
H1402 H 0.66651 0.71009 0.23461 0.0
H1403 H 0.63395 0.67635 0.20522 0.0
H1404 H 0.69409 0.63988 0.18509 0.0
H1405 H 0.72689 0.67358 0.21424 0.0
H1406 H 0.66385 0.64538 0.1254 0.0
H1407 H 0.60163 0.60662 0.23199 0.0
H1408 H 0.60679 0.63889 0.22943 0.0
H1409 H 0.63399 0.6262 0.24059 0.0
C1410 C 0.6728 0.6947 0.22457 0.0
C1411 C 0.69935 0.69465 0.22647 0.0
C1412 C 0.65412 0.67537 0.20794 0.0
C1413 C 0.66164 0.65559 0.19328 0.0
C1414 C 0.68795 0.65501 0.19635 0.0
H1415 H 0.55055 0.53023 0.08999 0.0
H1416 H 0.58628 0.55584 0.1277 0.0
C1417 C 0.70665 0.67432 0.21294 0.0
C1418 C 0.64248 0.6368 0.17164 0.0
H1419 H 0.58359 0.59578 0.17287 0.0
C1420 C 0.64645 0.6343 0.13585 0.0
C1421 C 0.61997 0.62228 0.18547 0.0
C1422 C 0.6154 0.62342 0.22406 0.0
C1423 C 0.62795 0.61828 0.11315 0.0
C1424 C 0.60482 0.60471 0.12661 0.0
C1425 C 0.60129 0.60646 0.16265 0.0
C1426 C 0.58363 0.58923 0.10342 0.0
C1427 C 0.63322 0.61613 0.07491 0.0
C1428 C 0.57032 0.59966 0.07756 0.0
C1429 C 0.54991 0.58516 0.05602 0.0
C1430 C 0.54244 0.55997 0.06012 0.0
C1431 C 0.55587 0.54958 0.08612 0.0
C1432 C 0.57624 0.56414 0.10771 0.0
H1433 H 0.65432 0.6227 0.07082 0.0
H1434 H 0.62632 0.59705 0.06474 0.0
H1435 H 0.62257 0.62729 0.0592 0.0
H1436 H 0.57555 0.61908 0.07429 0.0
H1437 H 0.53992 0.59372 0.03633 0.0
H1438 H 0.31264 0.67634 0.21556 0.0
H1439 H 0.33447 0.64772 0.18943 0.0
H1440 H 0.32834 0.67965 0.08853 0.0
H1441 H 0.30581 0.70767 0.11411 0.0
H1442 H 0.31716 0.63115 0.08145 0.0
H1443 H 0.40928 0.66428 0.16509 0.0
H1444 H 0.38125 0.65353 0.18972 0.0
H1445 H 0.38356 0.67991 0.16372 0.0
C1446 C 0.31595 0.67724 0.18781 0.0
C1447 C 0.30767 0.69441 0.16699 0.0
C1448 C 0.32854 0.66095 0.17293 0.0
C1449 C 0.3335 0.66181 0.13712 0.0
C1450 C 0.3248 0.67865 0.11622 0.0
H1451 H 0.45158 0.61126 0.03736 0.0
H1452 H 0.42283 0.63372 0.06189 0.0
C1453 C 0.31198 0.69472 0.13094 0.0
C1454 C 0.34811 0.64554 0.12132 0.0
H1455 H 0.40651 0.63025 0.12732 0.0
C1456 C 0.33669 0.6309 0.09151 0.0
C1457 C 0.37373 0.64545 0.13417 0.0
C1458 C 0.38781 0.66179 0.1647 0.0
C1459 C 0.35023 0.61634 0.07407 0.0
C1460 C 0.37566 0.61598 0.0873 0.0
C1461 C 0.38694 0.6304 0.11733 0.0
C1462 C 0.39172 0.60197 0.0695 0.0
C1463 C 0.33758 0.60219 0.04095 0.0
C1464 C 0.38363 0.57659 0.0649 0.0
C1465 C 0.40003 0.56363 0.05042 0.0
C1466 C 0.42493 0.57585 0.04096 0.0
C1467 C 0.43263 0.60127 0.0448 0.0
C1468 C 0.41621 0.61416 0.05882 0.0
H1469 H 0.32106 0.60905 0.0296 0.0
H1470 H 0.35193 0.60302 0.02075 0.0
H1471 H 0.32985 0.58291 0.04717 0.0
H1472 H 0.365 0.56673 0.07348 0.0
H1473 H 0.39364 0.54404 0.04789 0.0
H1474 H 0.28327 0.33023 0.21631 0.0
H1475 H 0.31313 0.36141 0.18543 0.0
H1476 H 0.36712 0.31609 0.18239 0.0
H1477 H 0.33706 0.28455 0.21259 0.0
H1478 H 0.36154 0.38817 0.20099 0.0
H1479 H 0.36303 0.33283 0.08059 0.0
H1480 H 0.33998 0.32294 0.11337 0.0
H1481 H 0.37274 0.31936 0.1197 0.0
C1482 C 0.30143 0.32675 0.20908 0.0
C1483 C 0.30741 0.30454 0.21698 0.0
C1484 C 0.31863 0.34475 0.19131 0.0
C1485 C 0.34238 0.34117 0.18062 0.0
C1486 C 0.34872 0.31927 0.18925 0.0
H1487 H 0.47861 0.45184 0.12868 0.0
H1488 H 0.44437 0.42293 0.15595 0.0
C1489 C 0.33151 0.30123 0.20698 0.0
C1490 C 0.3606 0.36051 0.16126 0.0
H1491 H 0.395 0.37067 0.08734 0.0
C1492 C 0.36869 0.38426 0.17605 0.0
C1493 C 0.36979 0.35591 0.12822 0.0
C1494 C 0.36075 0.33146 0.10932 0.0
C1495 C 0.38607 0.40305 0.15958 0.0
C1496 C 0.39627 0.39815 0.12744 0.0
C1497 C 0.38756 0.37461 0.11205 0.0
C1498 C 0.4168 0.41683 0.11037 0.0
C1499 C 0.39306 0.42813 0.17675 0.0
C1500 C 0.4133 0.42318 0.07508 0.0
C1501 C 0.43317 0.43996 0.0591 0.0
C1502 C 0.45722 0.4506 0.07786 0.0
C1503 C 0.46043 0.44431 0.11323 0.0
C1504 C 0.44066 0.42773 0.1291 0.0
H1505 H 0.37769 0.4308 0.19379 0.0
H1506 H 0.41144 0.43059 0.19363 0.0
H1507 H 0.39602 0.44234 0.15683 0.0
H1508 H 0.39524 0.41501 0.05976 0.0
H1509 H 0.43 0.44397 0.03174 0.0
H1510 H 0.84654 0.72012 0.65698 0.0
H1511 H 0.864 0.69113 0.62441 0.0
H1512 H 0.79759 0.63368 0.64633 0.0
H1513 H 0.77994 0.6627 0.67928 0.0
H1514 H 0.8449 0.62385 0.66594 0.0
H1515 H 0.84484 0.65441 0.52922 0.0
H1516 H 0.85981 0.6788 0.56017 0.0
H1517 H 0.82571 0.66407 0.56159 0.0
C1518 C 0.83534 0.70141 0.65434 0.0
C1519 C 0.81189 0.69371 0.67087 0.0
C1520 C 0.84528 0.68488 0.63543 0.0
C1521 C 0.83198 0.66028 0.63257 0.0
C1522 C 0.80807 0.65263 0.64798 0.0
H1523 H 0.89895 0.55288 0.52655 0.0
H1524 H 0.8682 0.57654 0.54236 0.0
C1525 C 0.79799 0.66924 0.66675 0.0
C1526 C 0.8447 0.64237 0.61723 0.0
H1527 H 0.87498 0.63005 0.54502 0.0
C1528 C 0.85105 0.62493 0.63929 0.0
C1529 C 0.85259 0.64365 0.58238 0.0
C1530 C 0.84515 0.6611 0.55686 0.0
C1531 C 0.86626 0.60964 0.62809 0.0
C1532 C 0.87559 0.61202 0.59408 0.0
C1533 C 0.86807 0.62849 0.57127 0.0
C1534 C 0.89446 0.59857 0.58283 0.0
C1535 C 0.87276 0.5914 0.65304 0.0
C1536 C 0.91958 0.60358 0.59973 0.0
C1537 C 0.93721 0.59029 0.59065 0.0
C1538 C 0.93007 0.57163 0.56448 0.0
C1539 C 0.90506 0.56705 0.54691 0.0
C1540 C 0.88746 0.58054 0.55587 0.0
H1541 H 0.85901 0.58758 0.67421 0.0
H1542 H 0.87235 0.5741 0.63877 0.0
H1543 H 0.89272 0.59871 0.66559 0.0
H1544 H 0.92546 0.61767 0.62027 0.0
H1545 H 0.95632 0.59443 0.60459 0.0
H1546 H 0.33307 0.85541 0.70722 0.0
H1547 H 0.37738 0.87055 0.69003 0.0
H1548 H 0.37729 0.79929 0.64933 0.0
H1549 H 0.33244 0.78387 0.66618 0.0
H1550 H 0.42491 0.85437 0.70762 0.0
H1551 H 0.39193 0.84464 0.56469 0.0
H1552 H 0.36858 0.84304 0.59752 0.0
H1553 H 0.38432 0.81884 0.5922 0.0
C1554 C 0.34239 0.84289 0.69467 0.0
C1555 C 0.32917 0.81854 0.68762 0.0
C1556 C 0.36781 0.85151 0.68519 0.0
C1557 C 0.3805 0.83599 0.66849 0.0
C1558 C 0.3677 0.8115 0.66211 0.0
H1559 H 0.4949 0.93361 0.5558 0.0
H1560 H 0.48132 0.89407 0.58181 0.0
C1561 C 0.34212 0.8028 0.67163 0.0
C1562 C 0.40618 0.84668 0.65533 0.0
H1563 H 0.43018 0.87393 0.58173 0.0
C1564 C 0.42662 0.85801 0.67992 0.0
C1565 C 0.40852 0.85093 0.61916 0.0
C1566 C 0.38726 0.8388 0.59168 0.0
C1567 C 0.44779 0.87593 0.6697 0.0
C1568 C 0.44811 0.88272 0.63428 0.0
C1569 C 0.42968 0.86889 0.60902 0.0
C1570 C 0.46256 0.90699 0.62431 0.0
C1571 C 0.46846 0.88878 0.69733 0.0
C1572 C 0.45705 0.92747 0.64015 0.0
C1573 C 0.46452 0.95005 0.62524 0.0
C1574 C 0.47747 0.95251 0.59403 0.0
C1575 C 0.48467 0.93232 0.57967 0.0
C1576 C 0.47713 0.9097 0.59461 0.0
H1577 H 0.47201 0.87601 0.71763 0.0
H1578 H 0.48712 0.89707 0.68566 0.0
H1579 H 0.46162 0.90329 0.71075 0.0
H1580 H 0.44521 0.9257 0.66254 0.0
H1581 H 0.45882 0.96523 0.63708 0.0
H1582 H 0.21334 0.31921 0.6705 0.0
H1583 H 0.19237 0.34436 0.63272 0.0
H1584 H 0.11865 0.31321 0.67537 0.0
H1585 H 0.13925 0.2881 0.71309 0.0
H1586 H 0.14464 0.32988 0.58161 0.0
H1587 H 0.13539 0.38884 0.69582 0.0
H1588 H 0.15782 0.36957 0.69719 0.0
H1589 H 0.12362 0.35673 0.70076 0.0
C1590 C 0.19262 0.31756 0.6716 0.0
C1591 C 0.17801 0.3018 0.69502 0.0
C1592 C 0.18069 0.33188 0.64996 0.0
C1593 C 0.15406 0.33074 0.65159 0.0
C1594 C 0.13928 0.31447 0.67403 0.0
H1595 H 0.04847 0.39807 0.52842 0.0
H1596 H 0.06984 0.36859 0.55556 0.0
C1597 C 0.15113 0.30014 0.69554 0.0
C1598 C 0.14187 0.3474 0.63128 0.0
H1599 H 0.11537 0.39576 0.64117 0.0
C1600 C 0.13823 0.34431 0.59452 0.0
C1601 C 0.13375 0.36626 0.64832 0.0
C1602 C 0.13796 0.37078 0.68767 0.0
C1603 C 0.1263 0.35952 0.57435 0.0
C1604 C 0.11782 0.37812 0.59149 0.0
C1605 C 0.12173 0.38132 0.62819 0.0
C1606 C 0.10568 0.39516 0.57194 0.0
C1607 C 0.12316 0.35593 0.53489 0.0
C1608 C 0.11883 0.41973 0.57206 0.0
C1609 C 0.10676 0.43652 0.5567 0.0
C1610 C 0.08111 0.42912 0.54122 0.0
C1611 C 0.06817 0.40435 0.5403 0.0
C1612 C 0.08039 0.38748 0.55558 0.0
H1613 H 0.13416 0.34311 0.52527 0.0
H1614 H 0.1022 0.34859 0.52657 0.0
H1615 H 0.12992 0.37355 0.52218 0.0
H1616 H 0.13834 0.42599 0.58464 0.0
H1617 H 0.11737 0.45542 0.55776 0.0
H1618 H 0.66233 0.21755 0.6968 0.0
H1619 H 0.63518 0.1848 0.65791 0.0
H1620 H 0.70229 0.18177 0.60153 0.0
H1621 H 0.72935 0.21442 0.63994 0.0
H1622 H 0.6273 0.17605 0.57819 0.0
H1623 H 0.67788 0.11462 0.65004 0.0
H1624 H 0.67832 0.14451 0.66715 0.0
H1625 H 0.69839 0.14102 0.6322 0.0
C1626 C 0.67108 0.21039 0.67544 0.0
C1627 C 0.69805 0.21821 0.67177 0.0
C1628 C 0.6556 0.19165 0.65336 0.0
C1629 C 0.6669 0.18064 0.62735 0.0
C1630 C 0.69333 0.18982 0.62181 0.0
H1631 H 0.60957 0.0396 0.51631 0.0
H1632 H 0.63672 0.0797 0.536 0.0
C1633 C 0.70876 0.20841 0.64385 0.0
C1634 C 0.65195 0.15799 0.6086 0.0
H1635 H 0.6469 0.09707 0.60404 0.0
C1636 C 0.63157 0.15877 0.5837 0.0
C1637 C 0.65777 0.13554 0.61575 0.0
C1638 C 0.67915 0.13367 0.64289 0.0
C1639 C 0.61674 0.13755 0.56571 0.0
C1640 C 0.62214 0.115 0.57353 0.0
C1641 C 0.64287 0.11437 0.59797 0.0
C1642 C 0.60542 0.09161 0.55877 0.0
C1643 C 0.59559 0.13952 0.53833 0.0
C1644 C 0.57892 0.08499 0.56519 0.0
C1645 C 0.56344 0.06221 0.55407 0.0
C1646 C 0.57418 0.04535 0.53658 0.0
C1647 C 0.6007 0.0521 0.52977 0.0
C1648 C 0.61622 0.07501 0.54094 0.0
H1649 H 0.59973 0.15778 0.52698 0.0
H1650 H 0.59332 0.12568 0.51666 0.0
H1651 H 0.57678 0.13664 0.55083 0.0
H1652 H 0.5703 0.09722 0.57967 0.0
H1653 H 0.54309 0.05772 0.55977 0.0
H1654 H 0.78229 0.32153 0.26877 0.0
H1655 H 0.81361 0.35834 0.29303 0.0
H1656 H 0.81268 0.32696 0.39515 0.0
H1657 H 0.78248 0.2899 0.37085 0.0
H1658 H 0.81304 0.39138 0.34672 0.0
H1659 H 0.88967 0.34284 0.37769 0.0
H1660 H 0.86048 0.32946 0.35016 0.0
H1661 H 0.85989 0.32944 0.39735 0.0
C1662 C 0.78888 0.32244 0.29629 0.0
C1663 C 0.78049 0.30251 0.31759 0.0
C1664 C 0.80664 0.34354 0.3102 0.0
C1665 C 0.81605 0.34509 0.34568 0.0
C1666 C 0.8063 0.32585 0.36745 0.0
H1667 H 0.8963 0.46985 0.4772 0.0
H1668 H 0.86452 0.43667 0.44519 0.0
C1669 C 0.78885 0.30474 0.35354 0.0
C1670 C 0.83645 0.36646 0.36008 0.0
H1671 H 0.89649 0.38237 0.4045 0.0
C1672 C 0.83139 0.3895 0.3591 0.0
C1673 C 0.86065 0.36406 0.37549 0.0
C1674 C 0.86815 0.34016 0.37493 0.0
C1675 C 0.84948 0.41005 0.37439 0.0
C1676 C 0.87294 0.40734 0.39185 0.0
C1677 C 0.87836 0.38443 0.39161 0.0
C1678 C 0.8921 0.42786 0.41084 0.0
C1679 C 0.84337 0.43446 0.37131 0.0
C1680 C 0.91842 0.43341 0.40312 0.0
C1681 C 0.93675 0.45205 0.42187 0.0
C1682 C 0.92913 0.46561 0.44867 0.0
C1683 C 0.90279 0.45992 0.4565 0.0
C1684 C 0.88452 0.44109 0.43798 0.0
H1685 H 0.82952 0.43467 0.34823 0.0
H1686 H 0.83407 0.43848 0.39522 0.0
H1687 H 0.86133 0.4491 0.36885 0.0
H1688 H 0.92478 0.42334 0.38248 0.0
H1689 H 0.95686 0.45596 0.41511 0.0
H1690 H 0.67058 0.78607 0.33859 0.0
H1691 H 0.64448 0.8096 0.36808 0.0
H1692 H 0.70719 0.87405 0.36529 0.0
H1693 H 0.73337 0.85087 0.336 0.0
H1694 H 0.65838 0.84595 0.43413 0.0
H1695 H 0.63976 0.88411 0.30432 0.0
H1696 H 0.64977 0.85613 0.30817 0.0
H1697 H 0.67308 0.88462 0.3176 0.0
C1698 C 0.67899 0.80515 0.34483 0.0
C1699 C 0.70394 0.81664 0.33457 0.0
C1700 C 0.66408 0.81853 0.36175 0.0
C1701 C 0.67391 0.84354 0.36862 0.0
C1702 C 0.69927 0.85476 0.36009 0.0
H1703 H 0.60855 0.95319 0.46612 0.0
H1704 H 0.63664 0.92643 0.4523 0.0
C1705 C 0.71416 0.84146 0.34325 0.0
C1706 C 0.65686 0.85846 0.3813 0.0
H1707 H 0.62326 0.89937 0.35339 0.0
C1708 C 0.65067 0.85765 0.4166 0.0
C1709 C 0.64678 0.87356 0.3582 0.0
C1710 C 0.65246 0.87467 0.31987 0.0
C1711 C 0.63472 0.87184 0.42946 0.0
C1712 C 0.62485 0.88709 0.40633 0.0
C1713 C 0.63096 0.88771 0.37104 0.0
C1714 C 0.6074 0.90207 0.41757 0.0
C1715 C 0.62804 0.87013 0.46737 0.0
C1716 C 0.58175 0.89729 0.40253 0.0
C1717 C 0.56569 0.91247 0.41033 0.0
C1718 C 0.57504 0.93296 0.4331 0.0
C1719 C 0.60071 0.93758 0.4485 0.0
C1720 C 0.61675 0.92222 0.44084 0.0
H1721 H 0.63398 0.85488 0.48044 0.0
H1722 H 0.63817 0.88724 0.48205 0.0
H1723 H 0.60674 0.86775 0.46912 0.0
H1724 H 0.57424 0.8819 0.38435 0.0
H1725 H 0.54603 0.90826 0.39808 0.0
H1726 H 0.13142 0.71025 0.25616 0.0
H1727 H 0.10244 0.67433 0.27882 0.0
H1728 H 0.16177 0.67098 0.36018 0.0
H1729 H 0.19112 0.70643 0.33706 0.0
H1730 H 0.1408 0.62749 0.32838 0.0
H1731 H 0.06199 0.66951 0.36576 0.0
H1732 H 0.06908 0.67294 0.32045 0.0
H1733 H 0.09341 0.68721 0.35451 0.0
C1734 C 0.1382 0.70195 0.27904 0.0
C1735 C 0.16347 0.71117 0.29497 0.0
C1736 C 0.12157 0.68152 0.29205 0.0
C1737 C 0.1298 0.67027 0.32154 0.0
C1738 C 0.15502 0.67947 0.33746 0.0
H1739 H 0.0421 0.56801 0.45786 0.0
H1740 H 0.06476 0.60384 0.42813 0.0
C1741 C 0.17176 0.69971 0.32424 0.0
C1742 C 0.11258 0.64836 0.33518 0.0
H1743 H 0.05369 0.62676 0.36934 0.0
C1744 C 0.12174 0.6273 0.33734 0.0
C1745 C 0.08785 0.6483 0.34711 0.0
C1746 C 0.07756 0.67076 0.3472 0.0
C1747 C 0.10697 0.6062 0.35143 0.0
C1748 C 0.08198 0.60596 0.36262 0.0
C1749 C 0.07272 0.62696 0.36028 0.0
C1750 C 0.06595 0.58455 0.379 0.0
C1751 C 0.11869 0.58469 0.35533 0.0
C1752 C 0.05837 0.56199 0.36079 0.0
C1753 C 0.04567 0.54137 0.37783 0.0
C1754 C 0.03997 0.54311 0.41318 0.0
C1755 C 0.04624 0.56602 0.43064 0.0
C1756 C 0.05919 0.58654 0.4137 0.0
H1757 H 0.14021 0.58994 0.3539 0.0
H1758 H 0.11423 0.57592 0.38073 0.0
H1759 H 0.11036 0.57114 0.33369 0.0
H1760 H 0.06283 0.56022 0.33368 0.0
H1761 H 0.04078 0.52404 0.36353 0.0
H1762 H 0.28218 0.15786 0.33644 0.0
H1763 H 0.30929 0.13801 0.37332 0.0
H1764 H 0.3732 0.20178 0.37406 0.0
H1765 H 0.34598 0.22205 0.33677 0.0
H1766 H 0.36005 0.13333 0.34674 0.0
H1767 H 0.36808 0.1772 0.4805 0.0
H1768 H 0.34048 0.17622 0.44963 0.0
H1769 H 0.37164 0.19579 0.44244 0.0
C1770 C 0.30187 0.16789 0.3448 0.0
C1771 C 0.31203 0.19146 0.3334 0.0
C1772 C 0.31729 0.15651 0.36599 0.0
C1773 C 0.34316 0.16845 0.3764 0.0
C1774 C 0.35315 0.1924 0.36653 0.0
H1775 H 0.45623 0.09876 0.48237 0.0
H1776 H 0.43596 0.12978 0.45801 0.0
C1777 C 0.33762 0.20391 0.34523 0.0
C1778 C 0.36009 0.15454 0.39414 0.0
H1779 H 0.38752 0.14441 0.47417 0.0
C1780 C 0.36626 0.13588 0.37454 0.0
C1781 C 0.36827 0.15809 0.43029 0.0
C1782 C 0.36182 0.17784 0.45223 0.0
C1783 C 0.3797 0.12013 0.39037 0.0
C1784 C 0.38678 0.12287 0.42689 0.0
C1785 C 0.38171 0.14222 0.44627 0.0
C1786 C 0.39831 0.10495 0.44526 0.0
C1787 C 0.38595 0.10044 0.36795 0.0
C1788 C 0.38358 0.08095 0.44707 0.0
C1789 C 0.39506 0.06321 0.46077 0.0
C1790 C 0.4215 0.06918 0.47303 0.0
C1791 C 0.43589 0.09352 0.47279 0.0
C1792 C 0.42434 0.11129 0.45903 0.0
H1793 H 0.38518 0.10451 0.33956 0.0
H1794 H 0.40562 0.09797 0.37594 0.0
H1795 H 0.37144 0.08306 0.37141 0.0
H1796 H 0.36332 0.07581 0.437 0.0
H1797 H 0.38331 0.04473 0.46103 0.0
H1798 H 0.69696 0.78018 0.61897 0.0
H1799 H 0.67183 0.80267 0.58268 0.0
H1800 H 0.64653 0.8309 0.67647 0.0
H1801 H 0.67067 0.80793 0.71266 0.0
H1802 H 0.60753 0.8191 0.62668 0.0
H1803 H 0.69577 0.87439 0.56924 0.0
H1804 H 0.68974 0.84231 0.56068 0.0
H1805 H 0.69776 0.85454 0.60501 0.0
C1806 C 0.68581 0.79099 0.63181 0.0
C1807 C 0.68601 0.79241 0.66873 0.0
C1808 C 0.67163 0.80399 0.61104 0.0
C1809 C 0.65778 0.81895 0.62686 0.0
C1810 C 0.65716 0.81959 0.66362 0.0
H1811 H 0.61728 0.94836 0.56633 0.0
H1812 H 0.63708 0.91604 0.58607 0.0
C1813 C 0.67102 0.80642 0.68432 0.0
C1814 C 0.64448 0.83462 0.60571 0.0
H1815 H 0.65569 0.8828 0.55181 0.0
C1816 C 0.618 0.83292 0.61007 0.0
C1817 C 0.65823 0.85276 0.58422 0.0
C1818 C 0.68698 0.85634 0.57966 0.0
C1819 C 0.60513 0.84935 0.59468 0.0
C1820 C 0.61894 0.8676 0.57345 0.0
C1821 C 0.64514 0.86875 0.56799 0.0
C1822 C 0.60734 0.88703 0.55942 0.0
C1823 C 0.5773 0.84776 0.6029 0.0
C1824 C 0.5843 0.88156 0.53728 0.0
C1825 C 0.57272 0.90001 0.52638 0.0
C1826 C 0.58423 0.9243 0.53699 0.0
C1827 C 0.60785 0.92982 0.55793 0.0
C1828 C 0.61923 0.91136 0.56913 0.0
H1829 H 0.57167 0.83648 0.62595 0.0
H1830 H 0.57428 0.86606 0.60834 0.0
H1831 H 0.564 0.83934 0.57993 0.0
H1832 H 0.57518 0.86301 0.5286 0.0
H1833 H 0.5548 0.89525 0.50961 0.0
H1834 H 0.67189 0.14524 0.29018 0.0
H1835 H 0.6276 0.12712 0.30567 0.0
H1836 H 0.62316 0.19546 0.35247 0.0
H1837 H 0.66771 0.21387 0.3369 0.0
H1838 H 0.61335 0.1567 0.39718 0.0
H1839 H 0.55386 0.13133 0.27198 0.0
H1840 H 0.58463 0.12374 0.27019 0.0
H1841 H 0.58385 0.15504 0.27569 0.0
C1842 C 0.66139 0.15652 0.30333 0.0
C1843 C 0.6733 0.18086 0.31268 0.0
C1844 C 0.63594 0.14625 0.31169 0.0
C1845 C 0.62197 0.16012 0.32954 0.0
C1846 C 0.63353 0.18463 0.33814 0.0
H1847 H 0.51002 0.06057 0.45041 0.0
H1848 H 0.52363 0.09974 0.42292 0.0
C1849 C 0.65897 0.19502 0.32943 0.0
C1850 C 0.59727 0.14761 0.34396 0.0
H1851 H 0.54281 0.103 0.31993 0.0
C1852 C 0.59728 0.14559 0.38055 0.0
C1853 C 0.57629 0.1335 0.32209 0.0
C1854 C 0.57452 0.13622 0.2828 0.0
C1855 C 0.57882 0.12729 0.39552 0.0
C1856 C 0.55968 0.1111 0.3731 0.0
C1857 C 0.55768 0.11529 0.33698 0.0
C1858 C 0.5464 0.08701 0.38506 0.0
C1859 C 0.58185 0.12374 0.43462 0.0
C1860 C 0.55353 0.06668 0.37152 0.0
C1861 C 0.54573 0.04434 0.38687 0.0
C1862 C 0.53072 0.04193 0.41624 0.0
C1863 C 0.52195 0.06192 0.42815 0.0
C1864 C 0.52968 0.08432 0.41253 0.0
H1865 H 0.59917 0.13684 0.44764 0.0
H1866 H 0.5643 0.12616 0.44713 0.0
H1867 H 0.58376 0.10509 0.43962 0.0
H1868 H 0.56647 0.06842 0.3503 0.0
H1869 H 0.5526 0.0293 0.37679 0.0
H1870 H 0.79748 0.68967 0.33063 0.0
H1871 H 0.81973 0.66565 0.36812 0.0
H1872 H 0.89265 0.71897 0.36123 0.0
H1873 H 0.87063 0.74287 0.3231 0.0
H1874 H 0.89697 0.67428 0.34479 0.0
H1875 H 0.84858 0.67183 0.46929 0.0
H1876 H 0.8254 0.66184 0.43237 0.0
H1877 H 0.84496 0.69265 0.4354 0.0
C1878 C 0.81815 0.69657 0.33766 0.0
C1879 C 0.83228 0.71817 0.32372 0.0
C1880 C 0.83085 0.68285 0.35931 0.0
C1881 C 0.85785 0.6906 0.36786 0.0
C1882 C 0.8718 0.71265 0.3551 0.0
H1883 H 0.96563 0.61142 0.46584 0.0
H1884 H 0.94708 0.64429 0.44418 0.0
C1885 C 0.85915 0.72631 0.33331 0.0
C1886 C 0.8719 0.67457 0.387 0.0
H1887 H 0.87193 0.64104 0.46043 0.0
C1888 C 0.89177 0.66733 0.37034 0.0
C1889 C 0.86512 0.66546 0.42034 0.0
C1890 C 0.84502 0.67355 0.44053 0.0
C1891 C 0.90427 0.65051 0.38536 0.0
C1892 C 0.8969 0.64083 0.41811 0.0
C1893 C 0.8775 0.64847 0.43526 0.0
C1894 C 0.90798 0.62158 0.43371 0.0
C1895 C 0.92454 0.64246 0.36539 0.0
C1896 C 0.89201 0.59809 0.43577 0.0
C1897 C 0.90253 0.57931 0.44794 0.0
C1898 C 0.92923 0.58367 0.45856 0.0
C1899 C 0.94504 0.60742 0.45758 0.0
C1900 C 0.9345 0.6262 0.44519 0.0
H1901 H 0.92475 0.64849 0.33784 0.0
H1902 H 0.94413 0.65026 0.37874 0.0
H1903 H 0.92098 0.6224 0.36499 0.0
H1904 H 0.87148 0.59416 0.42715 0.0
H1905 H 0.88971 0.56131 0.44874 0.0
H1906 H 0.33776 0.7779 0.30777 0.0
H1907 H 0.3667 0.80908 0.3473 0.0
H1908 H 0.3 0.8211 0.39716 0.0
H1909 H 0.27118 0.79029 0.35786 0.0
H1910 H 0.33053 0.86224 0.36809 0.0
H1911 H 0.39145 0.81655 0.45313 0.0
H1912 H 0.38969 0.80898 0.40685 0.0
H1913 H 0.36085 0.8004 0.43063 0.0
C1914 C 0.32939 0.78663 0.32795 0.0
C1915 C 0.30219 0.78183 0.32952 0.0
C1916 C 0.34593 0.80443 0.35053 0.0
C1917 C 0.33546 0.81738 0.37518 0.0
C1918 C 0.30846 0.81136 0.37831 0.0
H1919 H 0.39726 0.95473 0.49456 0.0
H1920 H 0.36923 0.91588 0.47152 0.0
C1921 C 0.29201 0.79376 0.35575 0.0
C1922 C 0.35193 0.83929 0.39432 0.0
H1923 H 0.40397 0.85967 0.45407 0.0
C1924 C 0.34645 0.86167 0.38714 0.0
C1925 C 0.37276 0.83846 0.4189 0.0
C1926 C 0.37901 0.81481 0.42816 0.0
C1927 C 0.36156 0.88335 0.40333 0.0
C1928 C 0.3824 0.88258 0.428 0.0
C1929 C 0.38784 0.86017 0.43534 0.0
C1930 C 0.39961 0.90505 0.44483 0.0
C1931 C 0.35561 0.90696 0.3929 0.0
C1932 C 0.42614 0.9114 0.43856 0.0
C1933 C 0.4422 0.93344 0.45182 0.0
C1934 C 0.43205 0.94964 0.47168 0.0
C1935 C 0.40563 0.94284 0.47903 0.0
C1936 C 0.38958 0.92067 0.4658 0.0
H1937 H 0.34322 0.90489 0.36783 0.0
H1938 H 0.34493 0.91334 0.41373 0.0
H1939 H 0.37385 0.92114 0.3899 0.0
H1940 H 0.43431 0.89957 0.42257 0.0
H1941 H 0.4625 0.93791 0.44591 0.0
H1942 H 0.14612 0.291 0.30973 0.0
H1943 H 0.12804 0.31947 0.34204 0.0
H1944 H 0.20565 0.36272 0.37221 0.0
H1945 H 0.22409 0.33441 0.33873 0.0
H1946 H 0.13268 0.33343 0.41042 0.0
H1947 H 0.17191 0.41307 0.33013 0.0
H1948 H 0.173 0.38274 0.31712 0.0
H1949 H 0.19586 0.39951 0.35104 0.0
C1950 C 0.15949 0.30651 0.32324 0.0
C1951 C 0.18662 0.31046 0.3214 0.0
C1952 C 0.14905 0.3228 0.34182 0.0
C1953 C 0.16539 0.34348 0.35918 0.0
C1954 C 0.19258 0.3472 0.35838 0.0
H1955 H 0.10617 0.45881 0.46003 0.0
H1956 H 0.13599 0.43381 0.44528 0.0
C1957 C 0.20311 0.33089 0.33947 0.0
C1958 C 0.15344 0.36096 0.37753 0.0
H1959 H 0.14502 0.41856 0.37468 0.0
C1960 C 0.13565 0.35213 0.40285 0.0
C1961 C 0.15728 0.38541 0.36777 0.0
C1962 C 0.17537 0.39579 0.33985 0.0
C1963 C 0.12092 0.3667 0.4176 0.0
C1964 C 0.12402 0.39079 0.40682 0.0
C1965 C 0.14275 0.40008 0.38294 0.0
C1966 C 0.10614 0.40569 0.4172 0.0
C1967 C 0.1016 0.35594 0.44389 0.0
C1968 C 0.07955 0.39822 0.40619 0.0
C1969 C 0.06256 0.41243 0.41438 0.0
C1970 C 0.07177 0.43453 0.43372 0.0
C1971 C 0.09843 0.44192 0.44506 0.0
C1972 C 0.1155 0.42768 0.43666 0.0
H1973 H 0.10704 0.34057 0.45727 0.0
H1974 H 0.10005 0.36978 0.46404 0.0
H1975 H 0.08208 0.34891 0.42992 0.0
H1976 H 0.07196 0.38151 0.3907 0.0
H1977 H 0.04219 0.40611 0.40522 0.0
H1978 H 0.27111 0.13735 0.68628 0.0
H1979 H 0.29681 0.11353 0.65726 0.0
H1980 H 0.34893 0.17922 0.62573 0.0
H1981 H 0.3232 0.20333 0.65457 0.0
H1982 H 0.33685 0.13821 0.57339 0.0
H1983 H 0.36976 0.11485 0.70673 0.0
H1984 H 0.335 0.10825 0.69768 0.0
H1985 H 0.35393 0.13917 0.69968 0.0
C1986 C 0.28775 0.14678 0.67262 0.0
C1987 C 0.29529 0.17228 0.67317 0.0
C1988 C 0.30244 0.13311 0.6561 0.0
C1989 C 0.32501 0.14463 0.6399 0.0
C1990 C 0.33161 0.16999 0.63822 0.0
H1991 H 0.45823 0.08636 0.61107 0.0
H1992 H 0.42841 0.11125 0.62443 0.0
C1993 C 0.31686 0.18374 0.65471 0.0
C1994 C 0.34296 0.13034 0.62784 0.0
H1995 H 0.38327 0.09577 0.65837 0.0
C1996 C 0.34702 0.12889 0.59188 0.0
C1997 C 0.35648 0.11853 0.65213 0.0
C1998 C 0.35383 0.12037 0.69125 0.0
C1999 C 0.36399 0.11557 0.57953 0.0
C2000 C 0.37703 0.10331 0.60382 0.0
C2001 C 0.37314 0.10504 0.63976 0.0
C2002 C 0.39538 0.08903 0.593 0.0
C2003 C 0.36826 0.11511 0.54078 0.0
C2004 C 0.38675 0.06821 0.57082 0.0
C2005 C 0.40378 0.0538 0.56323 0.0
C2006 C 0.42975 0.05993 0.57776 0.0
C2007 C 0.43836 0.081 0.59954 0.0
C2008 C 0.42135 0.09532 0.60714 0.0
H2009 H 0.36147 0.12967 0.52699 0.0
H2010 H 0.38922 0.11716 0.53656 0.0
H2011 H 0.35716 0.09743 0.52856 0.0
H2012 H 0.36666 0.06273 0.56013 0.0
H2013 H 0.39647 0.03769 0.5464 0.0
H2014 H 0.80704 0.3039 0.67201 0.0
H2015 H 0.83624 0.33862 0.64699 0.0
H2016 H 0.90284 0.31787 0.69554 0.0
H2017 H 0.87375 0.28338 0.72136 0.0
H2018 H 0.9065 0.36585 0.70553 0.0
H2019 H 0.88099 0.33913 0.56474 0.0
H2020 H 0.85293 0.33994 0.58818 0.0
H2021 H 0.87159 0.31838 0.59952 0.0
C2022 C 0.82791 0.30661 0.67717 0.0
C2023 C 0.8381 0.29083 0.69853 0.0
C2024 C 0.84457 0.32639 0.66267 0.0
C2025 C 0.87172 0.33055 0.66887 0.0
C2026 C 0.88195 0.31487 0.69025 0.0
H2027 H 0.97705 0.43829 0.55135 0.0
H2028 H 0.95611 0.4006 0.57855 0.0
C2029 C 0.86529 0.29517 0.70495 0.0
C2030 C 0.88937 0.35184 0.65418 0.0
H2031 H 0.9043 0.38038 0.5776 0.0
C2032 C 0.90623 0.36892 0.67752 0.0
C2033 C 0.88932 0.35561 0.6176 0.0
C2034 C 0.87294 0.33716 0.59103 0.0
C2035 C 0.92236 0.39013 0.66537 0.0
C2036 C 0.92116 0.39457 0.62899 0.0
C2037 C 0.90501 0.37707 0.60553 0.0
C2038 C 0.93562 0.41764 0.61474 0.0
C2039 C 0.94057 0.40752 0.6916 0.0
C2040 C 0.93114 0.43972 0.62618 0.0
C2041 C 0.94318 0.46131 0.61088 0.0
C2042 C 0.95969 0.4612 0.58344 0.0
C2043 C 0.96446 0.43906 0.5724 0.0
C2044 C 0.9525 0.41749 0.58789 0.0
H2045 H 0.94528 0.39816 0.71554 0.0
H2046 H 0.95906 0.41643 0.68 0.0
H2047 H 0.93099 0.42177 0.69988 0.0
H2048 H 0.9177 0.44019 0.64626 0.0
H2049 H 0.93888 0.47796 0.61987 0.0
H2050 H 0.22519 0.67765 0.73347 0.0
H2051 H 0.19714 0.64177 0.70217 0.0
H2052 H 0.176 0.68705 0.62175 0.0
H2053 H 0.20442 0.72278 0.65232 0.0
H2054 H 0.14589 0.62962 0.68656 0.0
H2055 H 0.19501 0.63626 0.5622 0.0
H2056 H 0.20946 0.65424 0.60123 0.0
H2057 H 0.1856 0.66356 0.57268 0.0
C2058 C 0.21474 0.67995 0.70903 0.0
C2059 C 0.21724 0.70312 0.6954 0.0
C2060 C 0.19869 0.6594 0.69111 0.0
C2061 C 0.18481 0.6616 0.65919 0.0
C2062 C 0.18709 0.68474 0.64573 0.0
H2063 H 0.04548 0.55986 0.56699 0.0
H2064 H 0.07737 0.59297 0.59902 0.0
C2065 C 0.20329 0.70522 0.66342 0.0
C2066 C 0.16711 0.6399 0.64063 0.0
H2067 H 0.15187 0.61019 0.5604 0.0
C2068 C 0.14735 0.62525 0.65906 0.0
C2069 C 0.16924 0.63388 0.60489 0.0
C2070 C 0.19115 0.64767 0.58422 0.0
C2071 C 0.12923 0.60522 0.64248 0.0
C2072 C 0.13043 0.60008 0.60619 0.0
C2073 C 0.15066 0.6143 0.58806 0.0
C2074 C 0.11098 0.58006 0.58646 0.0
C2075 C 0.10925 0.58959 0.66424 0.0
C2076 C 0.11924 0.56226 0.56751 0.0
C2077 C 0.10107 0.54353 0.54861 0.0
C2078 C 0.07421 0.54217 0.54837 0.0
C2079 C 0.06599 0.5602 0.56696 0.0
C2080 C 0.08421 0.57906 0.58554 0.0
H2081 H 0.11596 0.59115 0.69262 0.0
H2082 H 0.09091 0.59566 0.66152 0.0
H2083 H 0.1049 0.57022 0.65543 0.0
H2084 H 0.13979 0.56272 0.5676 0.0
H2085 H 0.10807 0.52993 0.53462 0.0
loop_
_geom_bond_atom_site_label_1
_geom_bond_atom_site_label_2
_geom_bond_distance
_geom_bond_site_symmetry_2
_ccdc_geom_bond_type
Zn0 O6 1.969 . S
Zn0 O7 1.965 . S
Zn0 O11 2.024 . S
Zn0 O16 1.969 . S
Zn1 O8 1.969 . S
Zn1 O14 1.969 . S
Zn1 O15 1.965 . S
Zn1 O17 2.024 . S
C2 O3 1.229 . S
C2 O11 1.058 . S
O3 C2 1.229 . S
C4 O5 1.229 . S
C4 O17 1.058 . S
O5 C4 1.229 . S
O6 Zn0 1.969 . S
O6 C9 1.267 . S
O7 Zn0 1.965 . S
O7 C18 1.260 . S
O8 Zn1 1.969 . S
O8 C18 1.258 . S
C9 O6 1.267 . S
C9 O10 1.228 . S
O10 C9 1.228 . S
O11 Zn0 2.024 . S
O11 C2 1.058 . S
C12 O13 1.228 . S
C12 O14 1.267 . S
O13 C12 1.228 . S
O14 Zn1 1.969 . S
O14 C12 1.267 . S
O15 Zn1 1.965 . S
O15 C19 1.260 . S
O16 Zn0 1.969 . S
O16 C19 1.258 . S
O17 Zn1 2.024 . S
O17 C4 1.058 . S
C18 O7 1.260 . S
C18 O8 1.258 . S
C19 O15 1.260 . S
C19 O16 1.258 . S
Zn20 O26 1.969 . S
Zn20 O27 1.965 . S
Zn20 O31 2.024 . S
Zn20 O36 1.969 . S
Zn21 O28 1.969 . S
Zn21 O34 1.969 . S
Zn21 O35 1.965 . S
Zn21 O37 2.024 . S
C22 O23 1.229 . S
C22 O31 1.058 . S
O23 C22 1.229 . S
C24 O25 1.229 . S
C24 O37 1.058 . S
O25 C24 1.229 . S
O26 Zn20 1.969 . S
O26 C29 1.267 . S
O27 Zn20 1.965 . S
O27 C38 1.260 . S
O28 Zn21 1.969 . S
O28 C38 1.258 . S
C29 O26 1.267 . S
C29 O30 1.228 . S
O30 C29 1.228 . S
O31 Zn20 2.024 . S
O31 C22 1.058 . S
C32 O33 1.228 . S
C32 O34 1.267 . S
O33 C32 1.228 . S
O34 Zn21 1.969 . S
O34 C32 1.267 . S
O35 Zn21 1.965 . S
O35 C39 1.260 . S
O36 Zn20 1.969 . S
O36 C39 1.258 . S
O37 Zn21 2.024 . S
O37 C24 1.058 . S
C38 O27 1.260 . S
C38 O28 1.258 . S
C39 O35 1.260 . S
C39 O36 1.258 . S
Zn40 O46 1.969 . S
Zn40 O47 1.965 . S
Zn40 O51 2.024 . S
Zn40 O56 1.969 . S
Zn41 O48 1.969 . S
Zn41 O54 1.969 . S
Zn41 O55 1.965 . S
Zn41 O57 2.024 . S
C42 O43 1.229 . S
C42 O51 1.058 . S
O43 C42 1.229 . S
C44 O45 1.229 . S
C44 O57 1.058 . S
O45 C44 1.229 . S
O46 Zn40 1.969 . S
O46 C49 1.267 . S
O47 Zn40 1.965 . S
O47 C58 1.260 . S
O48 Zn41 1.969 . S
O48 C58 1.258 . S
C49 O46 1.267 . S
C49 O50 1.228 . S
O50 C49 1.228 . S
O51 Zn40 2.024 . S
O51 C42 1.058 . S
C52 O53 1.228 . S
C52 O54 1.267 . S
O53 C52 1.228 . S
O54 Zn41 1.969 . S
O54 C52 1.267 . S
O55 Zn41 1.965 . S
O55 C59 1.260 . S
O56 Zn40 1.969 . S
O56 C59 1.258 . S
O57 Zn41 2.024 . S
O57 C44 1.058 . S
C58 O47 1.260 . S
C58 O48 1.258 . S
C59 O55 1.260 . S
C59 O56 1.258 . S
Zn60 O66 1.969 . S
Zn60 O67 1.965 . S
Zn60 O71 2.024 . S
Zn60 O76 1.969 . S
Zn61 O68 1.969 . S
Zn61 O74 1.969 . S
Zn61 O75 1.965 . S
Zn61 O77 2.024 . S
C62 O63 1.229 . S
C62 O71 1.058 . S
O63 C62 1.229 . S
C64 O65 1.229 . S
C64 O77 1.058 . S
O65 C64 1.229 . S
O66 Zn60 1.969 . S
O66 C69 1.267 . S
O67 Zn60 1.965 . S
O67 C78 1.260 . S
O68 Zn61 1.969 . S
O68 C78 1.258 . S
C69 O66 1.267 . S
C69 O70 1.228 . S
O70 C69 1.228 . S
O71 Zn60 2.024 . S
O71 C62 1.058 . S
C72 O73 1.228 . S
C72 O74 1.267 . S
O73 C72 1.228 . S
O74 Zn61 1.969 . S
O74 C72 1.267 . S
O75 Zn61 1.965 . S
O75 C79 1.260 . S
O76 Zn60 1.969 . S
O76 C79 1.258 . S
O77 Zn61 2.024 . S
O77 C64 1.058 . S
C78 O67 1.260 . S
C78 O68 1.258 . S
C79 O75 1.260 . S
C79 O76 1.258 . S
Zn80 O86 1.969 . S
Zn80 O87 1.965 . S
Zn80 O91 2.024 . S
Zn80 O96 1.969 . S
Zn81 O88 1.969 . S
Zn81 O94 1.969 . S
Zn81 O95 1.965 . S
Zn81 O97 2.024 . S
C82 O83 1.229 . S
C82 O91 1.058 . S
O83 C82 1.229 . S
C84 O85 1.229 . S
C84 O97 1.058 . S
O85 C84 1.229 . S
O86 Zn80 1.969 . S
O86 C89 1.267 . S
O87 Zn80 1.965 . S
O87 C98 1.260 . S
O88 Zn81 1.969 . S
O88 C98 1.258 . S
C89 O86 1.267 . S
C89 O90 1.228 . S
O90 C89 1.228 . S
O91 Zn80 2.024 . S
O91 C82 1.058 . S
C92 O93 1.228 . S
C92 O94 1.267 . S
O93 C92 1.228 . S
O94 Zn81 1.969 . S
O94 C92 1.267 . S
O95 Zn81 1.965 . S
O95 C99 1.260 . S
O96 Zn80 1.969 . S
O96 C99 1.258 . S
O97 Zn81 2.024 . S
O97 C84 1.058 . S
C98 O87 1.260 . S
C98 O88 1.258 . S
C99 O95 1.260 . S
C99 O96 1.258 . S
Zn100 O106 1.969 . S
Zn100 O107 1.965 . S
Zn100 O111 2.024 . S
Zn100 O116 1.969 . S
Zn101 O108 1.969 . S
Zn101 O114 1.969 . S
Zn101 O115 1.965 . S
Zn101 O117 2.024 . S
C102 O103 1.229 . S
C102 O111 1.058 . S
O103 C102 1.229 . S
C104 O105 1.229 . S
C104 O117 1.058 . S
O105 C104 1.229 . S
O106 Zn100 1.969 . S
O106 C109 1.267 . S
O107 Zn100 1.965 . S
O107 C118 1.260 . S
O108 Zn101 1.969 . S
O108 C118 1.258 . S
C109 O106 1.267 . S
C109 O110 1.228 . S
O110 C109 1.228 . S
O111 Zn100 2.024 . S
O111 C102 1.058 . S
C112 O113 1.228 . S
C112 O114 1.267 . S
O113 C112 1.228 . S
O114 Zn101 1.969 . S
O114 C112 1.267 . S
O115 Zn101 1.965 . S
O115 C119 1.260 . S
O116 Zn100 1.969 . S
O116 C119 1.258 . S
O117 Zn101 2.024 . S
O117 C104 1.058 . S
C118 O107 1.260 . S
C118 O108 1.258 . S
C119 O115 1.260 . S
C119 O116 1.258 . S
Zn120 O126 1.969 . S
Zn120 O127 1.965 . S
Zn120 O131 2.024 . S
Zn120 O136 1.969 . S
Zn121 O128 1.969 . S
Zn121 O134 1.969 . S
Zn121 O135 1.965 . S
Zn121 O137 2.024 . S
C122 O123 1.229 . S
C122 O131 1.058 . S
O123 C122 1.229 . S
C124 O125 1.229 . S
C124 O137 1.058 . S
O125 C124 1.229 . S
O126 Zn120 1.969 . S
O126 C129 1.267 . S
O127 Zn120 1.965 . S
O127 C138 1.260 . S
O128 Zn121 1.969 . S
O128 C138 1.258 . S
C129 O126 1.267 . S
C129 O130 1.228 . S
O130 C129 1.228 . S
O131 Zn120 2.024 . S
O131 C122 1.058 . S
C132 O133 1.228 . S
C132 O134 1.267 . S
O133 C132 1.228 . S
O134 Zn121 1.969 . S
O134 C132 1.267 . S
O135 Zn121 1.965 . S
O135 C139 1.260 . S
O136 Zn120 1.969 . S
O136 C139 1.258 . S
O137 Zn121 2.024 . S
O137 C124 1.058 . S
C138 O127 1.260 . S
C138 O128 1.258 . S
C139 O135 1.260 . S
C139 O136 1.258 . S
Zn140 O146 1.969 . S
Zn140 O147 1.965 . S
Zn140 O151 2.024 . S
Zn140 O156 1.969 . S
Zn141 O148 1.969 . S
Zn141 O154 1.969 . S
Zn141 O155 1.965 . S
Zn141 O157 2.024 . S
C142 O143 1.229 . S
C142 O151 1.058 . S
O143 C142 1.229 . S
C144 O145 1.229 . S
C144 O157 1.058 . S
O145 C144 1.229 . S
O146 Zn140 1.969 . S
O146 C149 1.267 . S
O147 Zn140 1.965 . S
O147 C158 1.260 . S
O148 Zn141 1.969 . S
O148 C158 1.258 . S
C149 O146 1.267 . S
C149 O150 1.228 . S
O150 C149 1.228 . S
O151 Zn140 2.024 . S
O151 C142 1.058 . S
C152 O153 1.228 . S
C152 O154 1.267 . S
O153 C152 1.228 . S
O154 Zn141 1.969 . S
O154 C152 1.267 . S
O155 Zn141 1.965 . S
O155 C159 1.260 . S
O156 Zn140 1.969 . S
O156 C159 1.258 . S
O157 Zn141 2.024 . S
O157 C144 1.058 . S
C158 O147 1.260 . S
C158 O148 1.258 . S
C159 O155 1.260 . S
C159 O156 1.258 . S
Co160 O163 2.042 . S
Co160 O170 2.264 . S
Co160 O189 2.286 . S
Co160 O190 2.069 . S
Co160 O192 2.015 1_455 S
Co161 O163 2.122 . S
Co161 O169 2.073 . S
Co161 O170 2.327 . S
Co161 O171 1.976 1_455 S
Co162 O163 2.093 1_545 S
Co162 O165 2.081 1_455 S
Co162 O172 2.106 1_445 S
Co162 O173 2.147 . S
Co162 O177 2.116 . S
Co162 O191 2.140 1_445 S
O163 Co160 2.042 . S
O163 Co161 2.122 . S
O163 Co162 2.093 1_565 S
O163 H164 0.980 . S
H164 O163 0.980 . S
O165 Co162 2.081 1_655 S
O165 Co166 2.042 . S
O165 Co167 2.122 . S
O165 H168 0.980 . S
Co166 O165 2.042 . S
Co166 O174 2.286 . S
Co166 O175 2.069 . S
Co166 O176 2.015 1_655 S
Co166 O179 2.264 . S
Co167 O165 2.122 . S
Co167 O178 1.976 1_655 S
Co167 O179 2.327 . S
Co167 O180 2.073 . S
H168 O165 0.980 . S
O169 Co161 2.073 . S
O169 C184 1.245 . S
O170 Co160 2.264 . S
O170 Co161 2.327 . S
O170 C184 1.257 . S
O171 Co161 1.976 1_655 S
O171 C183 1.251 . S
O172 Co162 2.106 1_665 S
O172 C183 1.274 . S
O173 Co162 2.147 . S
O173 C186 1.246 . S
O174 Co166 2.286 . S
O174 C185 1.259 . S
O175 Co166 2.069 . S
O175 C185 1.289 . S
O176 Co166 2.015 1_455 S
O176 C186 1.257 . S
O177 Co162 2.116 . S
O177 C187 1.274 . S
O178 Co167 1.976 1_455 S
O178 C187 1.251 . S
O179 Co166 2.264 . S
O179 Co167 2.327 . S
O179 C188 1.257 . S
O180 Co167 2.073 . S
O180 C188 1.245 . S
C181 O189 1.259 . S
C181 O190 1.289 . S
C182 O191 1.246 . S
C182 O192 1.257 . S
C183 O171 1.251 . S
C183 O172 1.274 . S
C184 O169 1.245 . S
C184 O170 1.257 . S
C185 O174 1.259 . S
C185 O175 1.289 . S
C186 O173 1.246 . S
C186 O176 1.257 . S
C187 O177 1.274 . S
C187 O178 1.251 . S
C188 O179 1.257 . S
C188 O180 1.245 . S
O189 Co160 2.286 . S
O189 C181 1.259 . S
O190 Co160 2.069 . S
O190 C181 1.289 . S
O191 Co162 2.140 1_665 S
O191 C182 1.246 . S
O192 Co160 2.015 1_655 S
O192 C182 1.257 . S
Co193 O196 2.042 1_556 S
Co193 O203 2.264 1_556 S
Co193 O222 2.286 . S
Co193 O223 2.069 . S
Co193 O225 2.015 . S
Co194 O196 2.122 . S
Co194 O202 2.073 . S
Co194 O203 2.327 . S
Co194 O204 1.976 . S
Co195 O196 2.086 1_545 S
Co195 O198 2.088 1_554 S
Co195 O205 2.111 1_545 S
Co195 O206 2.144 . S
Co195 O210 2.112 1_554 S
Co195 O224 2.143 1_544 S
O196 Co193 2.042 1_554 S
O196 Co194 2.122 . S
O196 Co195 2.086 1_565 S
O196 H197 0.980 . S
H197 O196 0.980 . S
O198 Co195 2.088 1_556 S
O198 Co199 2.042 1_556 S
O198 Co200 2.122 . S
O198 H201 0.980 . S
Co199 O198 2.042 1_554 S
Co199 O207 2.286 . S
Co199 O208 2.069 . S
Co199 O209 2.015 . S
Co199 O212 2.264 1_554 S
Co200 O198 2.122 . S
Co200 O211 1.976 . S
Co200 O212 2.327 . S
Co200 O213 2.073 . S
H201 O198 0.980 . S
O202 Co194 2.073 . S
O202 C217 1.245 . S
O203 Co193 2.264 1_554 S
O203 Co194 2.327 . S
O203 C217 1.257 . S
O204 Co194 1.976 . S
O204 C216 1.251 . S
O205 Co195 2.111 1_565 S
O205 C216 1.274 . S
O206 Co195 2.144 . S
O206 C219 1.246 . S
O207 Co199 2.286 . S
O207 C218 1.259 . S
O208 Co199 2.069 . S
O208 C218 1.289 . S
O209 Co199 2.015 . S
O209 C219 1.257 . S
O210 Co195 2.112 1_556 S
O210 C220 1.274 . S
O211 Co200 1.976 . S
O211 C220 1.251 . S
O212 Co199 2.264 1_556 S
O212 Co200 2.327 . S
O212 C221 1.257 . S
O213 Co200 2.073 . S
O213 C221 1.245 . S
C214 O222 1.259 . S
C214 O223 1.289 . S
C215 O224 1.246 . S
C215 O225 1.257 . S
C216 O204 1.251 . S
C216 O205 1.274 . S
C217 O202 1.245 . S
C217 O203 1.257 . S
C218 O207 1.259 . S
C218 O208 1.289 . S
C219 O206 1.246 . S
C219 O209 1.257 . S
C220 O210 1.274 . S
C220 O211 1.251 . S
C221 O212 1.257 . S
C221 O213 1.245 . S
O222 Co193 2.286 . S
O222 C214 1.259 . S
O223 Co193 2.069 . S
O223 C214 1.289 . S
O224 Co195 2.143 1_566 S
O224 C215 1.246 . S
O225 Co193 2.015 . S
O225 C215 1.257 . S
Co226 O229 2.042 1_556 S
Co226 O236 2.264 1_556 S
Co226 O255 2.286 . S
Co226 O256 2.069 . S
Co226 O258 2.015 1_455 S
Co227 O229 2.122 . S
Co227 O235 2.073 . S
Co227 O236 2.327 . S
Co227 O237 1.976 1_455 S
Co228 O229 2.093 . S
Co228 O231 2.081 1_454 S
Co228 O238 2.107 1_455 S
Co228 O239 2.146 . S
Co228 O243 2.116 1_554 S
Co228 O257 2.141 1_454 S
O229 Co226 2.042 1_554 S
O229 Co227 2.122 . S
O229 Co228 2.093 . S
O229 H230 0.980 . S
H230 O229 0.980 . S
O231 Co228 2.081 1_656 S
O231 Co232 2.042 1_556 S
O231 Co233 2.122 . S
O231 H234 0.980 . S
Co232 O231 2.042 1_554 S
Co232 O240 2.286 . S
Co232 O241 2.069 . S
Co232 O242 2.015 1_655 S
Co232 O245 2.264 1_554 S
Co233 O231 2.122 . S
Co233 O244 1.976 1_655 S
Co233 O245 2.327 . S
Co233 O246 2.073 . S
H234 O231 0.980 . S
O235 Co227 2.073 . S
O235 C250 1.245 . S
O236 Co226 2.264 1_554 S
O236 Co227 2.327 . S
O236 C250 1.257 . S
O237 Co227 1.976 1_655 S
O237 C249 1.251 . S
O238 Co228 2.107 1_655 S
O238 C249 1.274 . S
O239 Co228 2.146 . S
O239 C252 1.246 . S
O240 Co232 2.286 . S
O240 C251 1.259 . S
O241 Co232 2.069 . S
O241 C251 1.289 . S
O242 Co232 2.015 1_455 S
O242 C252 1.257 . S
O243 Co228 2.116 1_556 S
O243 C253 1.274 . S
O244 Co233 1.976 1_455 S
O244 C253 1.251 . S
O245 Co232 2.264 1_556 S
O245 Co233 2.327 . S
O245 C254 1.257 . S
O246 Co233 2.073 . S
O246 C254 1.245 . S
C247 O255 1.259 . S
C247 O256 1.289 . S
C248 O257 1.246 . S
C248 O258 1.257 . S
C249 O237 1.251 . S
C249 O238 1.274 . S
C250 O235 1.245 . S
C250 O236 1.257 . S
C251 O240 1.259 . S
C251 O241 1.289 . S
C252 O239 1.246 . S
C252 O242 1.257 . S
C253 O243 1.274 . S
C253 O244 1.251 . S
C254 O245 1.257 . S
C254 O246 1.245 . S
O255 Co226 2.286 . S
O255 C247 1.259 . S
O256 Co226 2.069 . S
O256 C247 1.289 . S
O257 Co228 2.141 1_656 S
O257 C248 1.246 . S
O258 Co226 2.015 1_655 S
O258 C248 1.257 . S
Co259 O262 2.042 1_556 S
Co259 O269 2.264 1_556 S
Co259 O288 2.286 . S
Co259 O289 2.069 . S
Co259 O291 2.015 . S
Co260 O262 2.122 . S
Co260 O268 2.073 . S
Co260 O269 2.327 . S
Co260 O270 1.976 . S
Co261 O262 2.087 . S
Co261 O264 2.087 1_554 S
Co261 O271 2.111 . S
Co261 O272 2.143 . S
Co261 O276 2.111 1_554 S
Co261 O290 2.143 1_554 S
O262 Co259 2.042 1_554 S
O262 Co260 2.122 . S
O262 Co261 2.087 . S
O262 H263 0.980 . S
H263 O262 0.980 . S
O264 Co261 2.087 1_556 S
O264 Co265 2.042 1_556 S
O264 Co266 2.122 . S
O264 H267 0.980 . S
Co265 O264 2.042 1_554 S
Co265 O273 2.286 . S
Co265 O274 2.069 . S
Co265 O275 2.015 . S
Co265 O278 2.264 1_554 S
Co266 O264 2.122 . S
Co266 O277 1.976 . S
Co266 O278 2.327 . S
Co266 O279 2.073 . S
H267 O264 0.980 . S
O268 Co260 2.073 . S
O268 C283 1.245 . S
O269 Co259 2.264 1_554 S
O269 Co260 2.327 . S
O269 C283 1.257 . S
O270 Co260 1.976 . S
O270 C282 1.251 . S
O271 Co261 2.111 . S
O271 C282 1.274 . S
O272 Co261 2.143 . S
O272 C285 1.246 . S
O273 Co265 2.286 . S
O273 C284 1.259 . S
O274 Co265 2.069 . S
O274 C284 1.289 . S
O275 Co265 2.015 . S
O275 C285 1.257 . S
O276 Co261 2.111 1_556 S
O276 C286 1.274 . S
O277 Co266 1.976 . S
O277 C286 1.251 . S
O278 Co265 2.264 1_556 S
O278 Co266 2.327 . S
O278 C287 1.257 . S
O279 Co266 2.073 . S
O279 C287 1.245 . S
C280 O288 1.259 . S
C280 O289 1.289 . S
C281 O290 1.246 . S
C281 O291 1.257 . S
C282 O270 1.251 . S
C282 O271 1.274 . S
C283 O268 1.245 . S
C283 O269 1.257 . S
C284 O273 1.259 . S
C284 O274 1.289 . S
C285 O272 1.246 . S
C285 O275 1.257 . S
C286 O276 1.274 . S
C286 O277 1.251 . S
C287 O278 1.257 . S
C287 O279 1.245 . S
O288 Co259 2.286 . S
O288 C280 1.259 . S
O289 Co259 2.069 . S
O289 C280 1.289 . S
O290 Co261 2.143 1_556 S
O290 C281 1.246 . S
O291 Co259 2.015 . S
O291 C281 1.257 . S
Co292 O295 2.042 . S
Co292 O302 2.264 . S
Co292 O321 2.286 . S
Co292 O322 2.069 . S
Co292 O324 2.015 . S
Co293 O295 2.122 . S
Co293 O301 2.073 . S
Co293 O302 2.327 . S
Co293 O303 1.976 . S
Co294 O295 2.093 . S
Co294 O297 2.081 1_455 S
Co294 O304 2.114 . S
Co294 O305 2.139 1_455 S
Co294 O309 2.109 1_455 S
Co294 O323 2.148 . S
O295 Co292 2.042 . S
O295 Co293 2.122 . S
O295 Co294 2.093 . S
O295 H296 0.980 . S
H296 O295 0.980 . S
O297 Co294 2.081 1_655 S
O297 Co298 2.042 . S
O297 Co299 2.122 . S
O297 H300 0.980 . S
Co298 O297 2.042 . S
Co298 O306 2.286 . S
Co298 O307 2.069 . S
Co298 O308 2.015 . S
Co298 O311 2.264 . S
Co299 O297 2.122 . S
Co299 O310 1.976 . S
Co299 O311 2.327 . S
Co299 O312 2.073 . S
H300 O297 0.980 . S
O301 Co293 2.073 . S
O301 C316 1.245 . S
O302 Co292 2.264 . S
O302 Co293 2.327 . S
O302 C316 1.257 . S
O303 Co293 1.976 . S
O303 C315 1.251 . S
O304 Co294 2.114 . S
O304 C315 1.274 . S
O305 Co294 2.139 1_655 S
O305 C318 1.246 . S
O306 Co298 2.286 . S
O306 C317 1.259 . S
O307 Co298 2.069 . S
O307 C317 1.289 . S
O308 Co298 2.015 . S
O308 C318 1.257 . S
O309 Co294 2.109 1_655 S
O309 C319 1.274 . S
O310 Co299 1.976 . S
O310 C319 1.251 . S
O311 Co298 2.264 . S
O311 Co299 2.327 . S
O311 C320 1.257 . S
O312 Co299 2.073 . S
O312 C320 1.245 . S
C313 O321 1.259 . S
C313 O322 1.289 . S
C314 O323 1.246 . S
C314 O324 1.257 . S
C315 O303 1.251 . S
C315 O304 1.274 . S
C316 O301 1.245 . S
C316 O302 1.257 . S
C317 O306 1.259 . S
C317 O307 1.289 . S
C318 O305 1.246 . S
C318 O308 1.257 . S
C319 O309 1.274 . S
C319 O310 1.251 . S
C320 O311 1.257 . S
C320 O312 1.245 . S
O321 Co292 2.286 . S
O321 C313 1.259 . S
O322 Co292 2.069 . S
O322 C313 1.289 . S
O323 Co294 2.148 . S
O323 C314 1.246 . S
O324 Co292 2.015 . S
O324 C314 1.257 . S
Co325 O328 2.042 . S
Co325 O335 2.264 . S
Co325 O354 2.286 . S
Co325 O355 2.069 . S
Co325 O357 2.015 1_565 S
Co326 O328 2.122 . S
Co326 O334 2.073 . S
Co326 O335 2.327 . S
Co326 O336 1.976 1_565 S
Co327 O328 2.086 1_545 S
Co327 O330 2.088 . S
Co327 O337 2.112 . S
Co327 O338 2.143 1_545 S
Co327 O342 2.110 1_545 S
Co327 O356 2.144 . S
O328 Co325 2.042 . S
O328 Co326 2.122 . S
O328 Co327 2.086 1_565 S
O328 H329 0.980 . S
H329 O328 0.980 . S
O330 Co327 2.088 . S
O330 Co331 2.042 . S
O330 Co332 2.122 . S
O330 H333 0.980 . S
Co331 O330 2.042 . S
Co331 O339 2.286 . S
Co331 O340 2.069 . S
Co331 O341 2.015 1_545 S
Co331 O344 2.264 . S
Co332 O330 2.122 . S
Co332 O343 1.976 1_545 S
Co332 O344 2.327 . S
Co332 O345 2.073 . S
H333 O330 0.980 . S
O334 Co326 2.073 . S
O334 C349 1.245 . S
O335 Co325 2.264 . S
O335 Co326 2.327 . S
O335 C349 1.257 . S
O336 Co326 1.976 1_545 S
O336 C348 1.251 . S
O337 Co327 2.112 . S
O337 C348 1.274 . S
O338 Co327 2.143 1_565 S
O338 C351 1.246 . S
O339 Co331 2.286 . S
O339 C350 1.259 . S
O340 Co331 2.069 . S
O340 C350 1.289 . S
O341 Co331 2.015 1_565 S
O341 C351 1.257 . S
O342 Co327 2.110 1_565 S
O342 C352 1.274 . S
O343 Co332 1.976 1_565 S
O343 C352 1.251 . S
O344 Co331 2.264 . S
O344 Co332 2.327 . S
O344 C353 1.257 . S
O345 Co332 2.073 . S
O345 C353 1.245 . S
C346 O354 1.259 . S
C346 O355 1.289 . S
C347 O356 1.246 . S
C347 O357 1.257 . S
C348 O336 1.251 . S
C348 O337 1.274 . S
C349 O334 1.245 . S
C349 O335 1.257 . S
C350 O339 1.259 . S
C350 O340 1.289 . S
C351 O338 1.246 . S
C351 O341 1.257 . S
C352 O342 1.274 . S
C352 O343 1.251 . S
C353 O344 1.257 . S
C353 O345 1.245 . S
O354 Co325 2.286 . S
O354 C346 1.259 . S
O355 Co325 2.069 . S
O355 C346 1.289 . S
O356 Co327 2.144 . S
O356 C347 1.246 . S
O357 Co325 2.015 1_545 S
O357 C347 1.257 . S
H358 C366 0.929 . S
H359 C368 0.930 . S
H360 C370 0.930 . S
H361 C373 0.929 . S
H362 C376 0.930 . S
H363 C378 0.960 . S
H364 C378 0.960 . S
H365 C378 0.960 . S
C366 H358 0.929 . S
C366 C367 1.377 . S
C366 C368 1.384 . S
C367 C366 1.377 . S
C367 C373 1.390 . S
C368 H359 0.930 . S
C368 C366 1.384 . S
C368 C369 1.372 . S
C369 C368 1.372 . S
C369 C370 1.400 . S
C369 C374 1.490 . S
C370 H360 0.930 . S
C370 C369 1.400 . S
C370 C373 1.386 . S
H371 C387 0.930 . S
H372 C388 0.931 . S
C373 H361 0.929 . S
C373 C367 1.390 . S
C373 C370 1.386 . S
C374 C369 1.490 . S
C374 C376 1.395 . S
C374 C377 1.403 . S
H375 C381 0.930 . S
C376 H362 0.930 . S
C376 C374 1.395 . S
C376 C379 1.403 . S
C377 C374 1.403 . S
C377 C378 1.524 . S
C377 C381 1.400 . S
C378 H363 0.960 . S
C378 H364 0.960 . S
C378 H365 0.960 . S
C378 C377 1.524 . S
C379 C376 1.403 . S
C379 C380 1.392 . S
C379 C383 1.495 . S
C380 C379 1.392 . S
C380 C381 1.385 . S
C380 C382 1.478 . S
C381 H375 0.930 . S
C381 C377 1.400 . S
C381 C380 1.385 . S
C382 C380 1.478 . S
C382 C384 1.381 . S
C382 C388 1.383 . S
C383 C379 1.495 . S
C383 H389 0.959 . S
C383 H390 0.961 . S
C383 H391 0.960 . S
C384 C382 1.381 . S
C384 C385 1.394 . S
C384 H392 0.930 . S
C385 C384 1.394 . S
C385 C386 1.383 . S
C385 H393 0.929 . S
C386 C385 1.383 . S
C386 C387 1.377 . S
C387 H371 0.930 . S
C387 C386 1.377 . S
C387 C388 1.379 . S
C388 H372 0.931 . S
C388 C382 1.383 . S
C388 C387 1.379 . S
H389 C383 0.959 . S
H390 C383 0.961 . S
H391 C383 0.960 . S
H392 C384 0.930 . S
H393 C385 0.929 . S
H394 C402 0.929 . S
H395 C404 0.930 . S
H396 C406 0.930 . S
H397 C409 0.929 . S
H398 C412 0.930 . S
H399 C414 0.960 . S
H400 C414 0.960 . S
H401 C414 0.960 . S
C402 H394 0.929 . S
C402 C403 1.377 . S
C402 C404 1.384 . S
C403 C402 1.377 . S
C403 C409 1.390 . S
C404 H395 0.930 . S
C404 C402 1.384 . S
C404 C405 1.372 . S
C405 C404 1.372 . S
C405 C406 1.400 . S
C405 C410 1.490 . S
C406 H396 0.930 . S
C406 C405 1.400 . S
C406 C409 1.386 . S
H407 C423 0.930 . S
H408 C424 0.931 . S
C409 H397 0.929 . S
C409 C403 1.390 . S
C409 C406 1.386 . S
C410 C405 1.490 . S
C410 C412 1.395 . S
C410 C413 1.403 . S
H411 C417 0.930 . S
C412 H398 0.930 . S
C412 C410 1.395 . S
C412 C415 1.403 . S
C413 C410 1.403 . S
C413 C414 1.524 . S
C413 C417 1.400 . S
C414 H399 0.960 . S
C414 H400 0.960 . S
C414 H401 0.960 . S
C414 C413 1.524 . S
C415 C412 1.403 . S
C415 C416 1.392 . S
C415 C419 1.495 . S
C416 C415 1.392 . S
C416 C417 1.385 . S
C416 C418 1.478 . S
C417 H411 0.930 . S
C417 C413 1.400 . S
C417 C416 1.385 . S
C418 C416 1.478 . S
C418 C420 1.381 . S
C418 C424 1.383 . S
C419 C415 1.495 . S
C419 H425 0.959 . S
C419 H426 0.961 . S
C419 H427 0.960 . S
C420 C418 1.381 . S
C420 C421 1.394 . S
C420 H428 0.930 . S
C421 C420 1.394 . S
C421 C422 1.383 . S
C421 H429 0.929 . S
C422 C421 1.383 . S
C422 C423 1.377 . S
C423 H407 0.930 . S
C423 C422 1.377 . S
C423 C424 1.379 . S
C424 H408 0.931 . S
C424 C418 1.383 . S
C424 C423 1.379 . S
H425 C419 0.959 . S
H426 C419 0.961 . S
H427 C419 0.960 . S
H428 C420 0.930 . S
H429 C421 0.929 . S
H430 C438 0.929 . S
H431 C440 0.930 . S
H432 C442 0.930 . S
H433 C445 0.929 . S
H434 C448 0.930 . S
H435 C450 0.960 . S
H436 C450 0.960 . S
H437 C450 0.960 . S
C438 H430 0.929 . S
C438 C439 1.377 . S
C438 C440 1.384 . S
C439 C438 1.377 . S
C439 C445 1.390 . S
C440 H431 0.930 . S
C440 C438 1.384 . S
C440 C441 1.372 . S
C441 C440 1.372 . S
C441 C442 1.400 . S
C441 C446 1.490 . S
C442 H432 0.930 . S
C442 C441 1.400 . S
C442 C445 1.386 . S
H443 C459 0.930 . S
H444 C460 0.931 . S
C445 H433 0.929 . S
C445 C439 1.390 . S
C445 C442 1.386 . S
C446 C441 1.490 . S
C446 C448 1.395 . S
C446 C449 1.403 . S
H447 C453 0.930 . S
C448 H434 0.930 . S
C448 C446 1.395 . S
C448 C451 1.403 . S
C449 C446 1.403 . S
C449 C450 1.524 . S
C449 C453 1.400 . S
C450 H435 0.960 . S
C450 H436 0.960 . S
C450 H437 0.960 . S
C450 C449 1.524 . S
C451 C448 1.403 . S
C451 C452 1.392 . S
C451 C455 1.495 . S
C452 C451 1.392 . S
C452 C453 1.385 . S
C452 C454 1.478 . S
C453 H447 0.930 . S
C453 C449 1.400 . S
C453 C452 1.385 . S
C454 C452 1.478 . S
C454 C456 1.381 . S
C454 C460 1.383 . S
C455 C451 1.495 . S
C455 H461 0.959 . S
C455 H462 0.961 . S
C455 H463 0.960 . S
C456 C454 1.381 . S
C456 C457 1.394 . S
C456 H464 0.930 . S
C457 C456 1.394 . S
C457 C458 1.383 . S
C457 H465 0.929 . S
C458 C457 1.383 . S
C458 C459 1.377 . S
C459 H443 0.930 . S
C459 C458 1.377 . S
C459 C460 1.379 . S
C460 H444 0.931 . S
C460 C454 1.383 . S
C460 C459 1.379 . S
H461 C455 0.959 . S
H462 C455 0.961 . S
H463 C455 0.960 . S
H464 C456 0.930 . S
H465 C457 0.929 . S
H466 C474 0.929 . S
H467 C476 0.930 . S
H468 C478 0.930 . S
H469 C481 0.929 . S
H470 C484 0.930 . S
H471 C486 0.960 . S
H472 C486 0.960 . S
H473 C486 0.960 . S
C474 H466 0.929 . S
C474 C475 1.377 . S
C474 C476 1.384 . S
C475 C474 1.377 . S
C475 C481 1.390 . S
C476 H467 0.930 . S
C476 C474 1.384 . S
C476 C477 1.372 . S
C477 C476 1.372 . S
C477 C478 1.400 . S
C477 C482 1.490 . S
C478 H468 0.930 . S
C478 C477 1.400 . S
C478 C481 1.386 . S
H479 C495 0.930 . S
H480 C496 0.931 . S
C481 H469 0.929 . S
C481 C475 1.390 . S
C481 C478 1.386 . S
C482 C477 1.490 . S
C482 C484 1.395 . S
C482 C485 1.403 . S
H483 C489 0.930 . S
C484 H470 0.930 . S
C484 C482 1.395 . S
C484 C487 1.403 . S
C485 C482 1.403 . S
C485 C486 1.524 . S
C485 C489 1.400 . S
C486 H471 0.960 . S
C486 H472 0.960 . S
C486 H473 0.960 . S
C486 C485 1.524 . S
C487 C484 1.403 . S
C487 C488 1.392 . S
C487 C491 1.495 . S
C488 C487 1.392 . S
C488 C489 1.385 . S
C488 C490 1.478 . S
C489 H483 0.930 . S
C489 C485 1.400 . S
C489 C488 1.385 . S
C490 C488 1.478 . S
C490 C492 1.381 . S
C490 C496 1.383 . S
C491 C487 1.495 . S
C491 H497 0.959 . S
C491 H498 0.961 . S
C491 H499 0.960 . S
C492 C490 1.381 . S
C492 C493 1.394 . S
C492 H500 0.930 . S
C493 C492 1.394 . S
C493 C494 1.383 . S
C493 H501 0.929 . S
C494 C493 1.383 . S
C494 C495 1.377 . S
C495 H479 0.930 . S
C495 C494 1.377 . S
C495 C496 1.379 . S
C496 H480 0.931 . S
C496 C490 1.383 . S
C496 C495 1.379 . S
H497 C491 0.959 . S
H498 C491 0.961 . S
H499 C491 0.960 . S
H500 C492 0.930 . S
H501 C493 0.929 . S
H502 C510 0.929 . S
H503 C512 0.930 . S
H504 C514 0.930 . S
H505 C517 0.929 . S
H506 C520 0.930 . S
H507 C522 0.960 . S
H508 C522 0.960 . S
H509 C522 0.960 . S
C510 H502 0.929 . S
C510 C511 1.377 . S
C510 C512 1.384 . S
C511 C510 1.377 . S
C511 C517 1.390 . S
C512 H503 0.930 . S
C512 C510 1.384 . S
C512 C513 1.372 . S
C513 C512 1.372 . S
C513 C514 1.400 . S
C513 C518 1.490 . S
C514 H504 0.930 . S
C514 C513 1.400 . S
C514 C517 1.386 . S
H515 C531 0.930 . S
H516 C532 0.931 . S
C517 H505 0.929 . S
C517 C511 1.390 . S
C517 C514 1.386 . S
C518 C513 1.490 . S
C518 C520 1.395 . S
C518 C521 1.403 . S
H519 C525 0.930 . S
C520 H506 0.930 . S
C520 C518 1.395 . S
C520 C523 1.403 . S
C521 C518 1.403 . S
C521 C522 1.524 . S
C521 C525 1.400 . S
C522 H507 0.960 . S
C522 H508 0.960 . S
C522 H509 0.960 . S
C522 C521 1.524 . S
C523 C520 1.403 . S
C523 C524 1.392 . S
C523 C527 1.495 . S
C524 C523 1.392 . S
C524 C525 1.385 . S
C524 C526 1.478 . S
C525 H519 0.930 . S
C525 C521 1.400 . S
C525 C524 1.385 . S
C526 C524 1.478 . S
C526 C528 1.381 . S
C526 C532 1.383 . S
C527 C523 1.495 . S
C527 H533 0.959 . S
C527 H534 0.961 . S
C527 H535 0.960 . S
C528 C526 1.381 . S
C528 C529 1.394 . S
C528 H536 0.930 . S
C529 C528 1.394 . S
C529 C530 1.383 . S
C529 H537 0.929 . S
C530 C529 1.383 . S
C530 C531 1.377 . S
C531 H515 0.930 . S
C531 C530 1.377 . S
C531 C532 1.379 . S
C532 H516 0.931 . S
C532 C526 1.383 . S
C532 C531 1.379 . S
H533 C527 0.959 . S
H534 C527 0.961 . S
H535 C527 0.960 . S
H536 C528 0.930 . S
H537 C529 0.929 . S
H538 C546 0.929 . S
H539 C548 0.930 . S
H540 C550 0.930 . S
H541 C553 0.929 . S
H542 C556 0.930 . S
H543 C558 0.960 . S
H544 C558 0.960 . S
H545 C558 0.960 . S
C546 H538 0.929 . S
C546 C547 1.377 . S
C546 C548 1.384 . S
C547 C546 1.377 . S
C547 C553 1.390 . S
C548 H539 0.930 . S
C548 C546 1.384 . S
C548 C549 1.372 . S
C549 C548 1.372 . S
C549 C550 1.400 . S
C549 C554 1.490 . S
C550 H540 0.930 . S
C550 C549 1.400 . S
C550 C553 1.386 . S
H551 C567 0.930 . S
H552 C568 0.931 . S
C553 H541 0.929 . S
C553 C547 1.390 . S
C553 C550 1.386 . S
C554 C549 1.490 . S
C554 C556 1.395 . S
C554 C557 1.403 . S
H555 C561 0.930 . S
C556 H542 0.930 . S
C556 C554 1.395 . S
C556 C559 1.403 . S
C557 C554 1.403 . S
C557 C558 1.524 . S
C557 C561 1.400 . S
C558 H543 0.960 . S
C558 H544 0.960 . S
C558 H545 0.960 . S
C558 C557 1.524 . S
C559 C556 1.403 . S
C559 C560 1.392 . S
C559 C563 1.495 . S
C560 C559 1.392 . S
C560 C561 1.385 . S
C560 C562 1.478 . S
C561 H555 0.930 . S
C561 C557 1.400 . S
C561 C560 1.385 . S
C562 C560 1.478 . S
C562 C564 1.381 . S
C562 C568 1.383 . S
C563 C559 1.495 . S
C563 H569 0.959 . S
C563 H570 0.961 . S
C563 H571 0.960 . S
C564 C562 1.381 . S
C564 C565 1.394 . S
C564 H572 0.930 . S
C565 C564 1.394 . S
C565 C566 1.383 . S
C565 H573 0.929 . S
C566 C565 1.383 . S
C566 C567 1.377 . S
C567 H551 0.930 . S
C567 C566 1.377 . S
C567 C568 1.379 . S
C568 H552 0.931 . S
C568 C562 1.383 . S
C568 C567 1.379 . S
H569 C563 0.959 . S
H570 C563 0.961 . S
H571 C563 0.960 . S
H572 C564 0.930 . S
H573 C565 0.929 . S
H574 C582 0.929 . S
H575 C584 0.930 . S
H576 C586 0.930 . S
H577 C589 0.929 . S
H578 C592 0.930 . S
H579 C594 0.960 . S
H580 C594 0.960 . S
H581 C594 0.960 . S
C582 H574 0.929 . S
C582 C583 1.377 . S
C582 C584 1.384 . S
C583 C582 1.377 . S
C583 C589 1.390 . S
C584 H575 0.930 . S
C584 C582 1.384 . S
C584 C585 1.372 . S
C585 C584 1.372 . S
C585 C586 1.400 . S
C585 C590 1.490 . S
C586 H576 0.930 . S
C586 C585 1.400 . S
C586 C589 1.386 . S
H587 C603 0.930 . S
H588 C604 0.931 . S
C589 H577 0.929 . S
C589 C583 1.390 . S
C589 C586 1.386 . S
C590 C585 1.490 . S
C590 C592 1.395 . S
C590 C593 1.403 . S
H591 C597 0.930 . S
C592 H578 0.930 . S
C592 C590 1.395 . S
C592 C595 1.403 . S
C593 C590 1.403 . S
C593 C594 1.524 . S
C593 C597 1.400 . S
C594 H579 0.960 . S
C594 H580 0.960 . S
C594 H581 0.960 . S
C594 C593 1.524 . S
C595 C592 1.403 . S
C595 C596 1.392 . S
C595 C599 1.495 . S
C596 C595 1.392 . S
C596 C597 1.385 . S
C596 C598 1.478 . S
C597 H591 0.930 . S
C597 C593 1.400 . S
C597 C596 1.385 . S
C598 C596 1.478 . S
C598 C600 1.381 . S
C598 C604 1.383 . S
C599 C595 1.495 . S
C599 H605 0.959 . S
C599 H606 0.961 . S
C599 H607 0.960 . S
C600 C598 1.381 . S
C600 C601 1.394 . S
C600 H608 0.930 . S
C601 C600 1.394 . S
C601 C602 1.383 . S
C601 H609 0.929 . S
C602 C601 1.383 . S
C602 C603 1.377 . S
C603 H587 0.930 . S
C603 C602 1.377 . S
C603 C604 1.379 . S
C604 H588 0.931 . S
C604 C598 1.383 . S
C604 C603 1.379 . S
H605 C599 0.959 . S
H606 C599 0.961 . S
H607 C599 0.960 . S
H608 C600 0.930 . S
H609 C601 0.929 . S
H610 C618 0.929 . S
H611 C620 0.930 . S
H612 C622 0.930 . S
H613 C625 0.929 . S
H614 C628 0.930 . S
H615 C630 0.960 . S
H616 C630 0.960 . S
H617 C630 0.960 . S
C618 H610 0.929 . S
C618 C619 1.377 . S
C618 C620 1.384 . S
C619 C618 1.377 . S
C619 C625 1.390 . S
C620 H611 0.930 . S
C620 C618 1.384 . S
C620 C621 1.372 . S
C621 C620 1.372 . S
C621 C622 1.400 . S
C621 C626 1.490 . S
C622 H612 0.930 . S
C622 C621 1.400 . S
C622 C625 1.386 . S
H623 C639 0.930 . S
H624 C640 0.931 . S
C625 H613 0.929 . S
C625 C619 1.390 . S
C625 C622 1.386 . S
C626 C621 1.490 . S
C626 C628 1.395 . S
C626 C629 1.403 . S
H627 C633 0.930 . S
C628 H614 0.930 . S
C628 C626 1.395 . S
C628 C631 1.403 . S
C629 C626 1.403 . S
C629 C630 1.524 . S
C629 C633 1.400 . S
C630 H615 0.960 . S
C630 H616 0.960 . S
C630 H617 0.960 . S
C630 C629 1.524 . S
C631 C628 1.403 . S
C631 C632 1.392 . S
C631 C635 1.495 . S
C632 C631 1.392 . S
C632 C633 1.385 . S
C632 C634 1.478 . S
C633 H627 0.930 . S
C633 C629 1.400 . S
C633 C632 1.385 . S
C634 C632 1.478 . S
C634 C636 1.381 . S
C634 C640 1.383 . S
C635 C631 1.495 . S
C635 H641 0.959 . S
C635 H642 0.961 . S
C635 H643 0.960 . S
C636 C634 1.381 . S
C636 C637 1.394 . S
C636 H644 0.930 . S
C637 C636 1.394 . S
C637 C638 1.383 . S
C637 H645 0.929 . S
C638 C637 1.383 . S
C638 C639 1.377 . S
C639 H623 0.930 . S
C639 C638 1.377 . S
C639 C640 1.379 . S
C640 H624 0.931 . S
C640 C634 1.383 . S
C640 C639 1.379 . S
H641 C635 0.959 . S
H642 C635 0.961 . S
H643 C635 0.960 . S
H644 C636 0.930 . S
H645 C637 0.929 . S
H646 C654 0.929 . S
H647 C656 0.930 . S
H648 C658 0.930 . S
H649 C661 0.929 . S
H650 C664 0.930 . S
H651 C666 0.960 . S
H652 C666 0.960 . S
H653 C666 0.960 . S
C654 H646 0.929 . S
C654 C655 1.377 . S
C654 C656 1.384 . S
C655 C654 1.377 . S
C655 C661 1.390 . S
C656 H647 0.930 . S
C656 C654 1.384 . S
C656 C657 1.372 . S
C657 C656 1.372 . S
C657 C658 1.400 . S
C657 C662 1.490 . S
C658 H648 0.930 . S
C658 C657 1.400 . S
C658 C661 1.386 . S
H659 C675 0.930 . S
H660 C676 0.931 . S
C661 H649 0.929 . S
C661 C655 1.390 . S
C661 C658 1.386 . S
C662 C657 1.490 . S
C662 C664 1.395 . S
C662 C665 1.403 . S
H663 C669 0.930 . S
C664 H650 0.930 . S
C664 C662 1.395 . S
C664 C667 1.403 . S
C665 C662 1.403 . S
C665 C666 1.524 . S
C665 C669 1.400 . S
C666 H651 0.960 . S
C666 H652 0.960 . S
C666 H653 0.960 . S
C666 C665 1.524 . S
C667 C664 1.403 . S
C667 C668 1.392 . S
C667 C671 1.495 . S
C668 C667 1.392 . S
C668 C669 1.385 . S
C668 C670 1.478 . S
C669 H663 0.930 . S
C669 C665 1.400 . S
C669 C668 1.385 . S
C670 C668 1.478 . S
C670 C672 1.381 . S
C670 C676 1.383 . S
C671 C667 1.495 . S
C671 H677 0.959 . S
C671 H678 0.961 . S
C671 H679 0.960 . S
C672 C670 1.381 . S
C672 C673 1.394 . S
C672 H680 0.930 . S
C673 C672 1.394 . S
C673 C674 1.383 . S
C673 H681 0.929 . S
C674 C673 1.383 . S
C674 C675 1.377 . S
C675 H659 0.930 . S
C675 C674 1.377 . S
C675 C676 1.379 . S
C676 H660 0.931 . S
C676 C670 1.383 . S
C676 C675 1.379 . S
H677 C671 0.959 . S
H678 C671 0.961 . S
H679 C671 0.960 . S
H680 C672 0.930 . S
H681 C673 0.929 . S
H682 C690 0.929 . S
H683 C692 0.930 . S
H684 C694 0.930 . S
H685 C697 0.929 . S
H686 C700 0.930 . S
H687 C702 0.960 . S
H688 C702 0.960 . S
H689 C702 0.960 . S
C690 H682 0.929 . S
C690 C691 1.377 . S
C690 C692 1.384 . S
C691 C690 1.377 . S
C691 C697 1.390 . S
C692 H683 0.930 . S
C692 C690 1.384 . S
C692 C693 1.372 . S
C693 C692 1.372 . S
C693 C694 1.400 . S
C693 C698 1.490 . S
C694 H684 0.930 . S
C694 C693 1.400 . S
C694 C697 1.386 . S
H695 C711 0.930 . S
H696 C712 0.931 . S
C697 H685 0.929 . S
C697 C691 1.390 . S
C697 C694 1.386 . S
C698 C693 1.490 . S
C698 C700 1.395 . S
C698 C701 1.403 . S
H699 C705 0.930 . S
C700 H686 0.930 . S
C700 C698 1.395 . S
C700 C703 1.403 . S
C701 C698 1.403 . S
C701 C702 1.524 . S
C701 C705 1.400 . S
C702 H687 0.960 . S
C702 H688 0.960 . S
C702 H689 0.960 . S
C702 C701 1.524 . S
C703 C700 1.403 . S
C703 C704 1.392 . S
C703 C707 1.495 . S
C704 C703 1.392 . S
C704 C705 1.385 . S
C704 C706 1.478 . S
C705 H699 0.930 . S
C705 C701 1.400 . S
C705 C704 1.385 . S
C706 C704 1.478 . S
C706 C708 1.381 . S
C706 C712 1.383 . S
C707 C703 1.495 . S
C707 H713 0.959 . S
C707 H714 0.961 . S
C707 H715 0.960 . S
C708 C706 1.381 . S
C708 C709 1.394 . S
C708 H716 0.930 . S
C709 C708 1.394 . S
C709 C710 1.383 . S
C709 H717 0.929 . S
C710 C709 1.383 . S
C710 C711 1.377 . S
C711 H695 0.930 . S
C711 C710 1.377 . S
C711 C712 1.379 . S
C712 H696 0.931 . S
C712 C706 1.383 . S
C712 C711 1.379 . S
H713 C707 0.959 . S
H714 C707 0.961 . S
H715 C707 0.960 . S
H716 C708 0.930 . S
H717 C709 0.929 . S
H718 C726 0.929 . S
H719 C728 0.930 . S
H720 C730 0.930 . S
H721 C733 0.929 . S
H722 C736 0.930 . S
H723 C738 0.960 . S
H724 C738 0.960 . S
H725 C738 0.960 . S
C726 H718 0.929 . S
C726 C727 1.377 . S
C726 C728 1.384 . S
C727 C726 1.377 . S
C727 C733 1.390 . S
C728 H719 0.930 . S
C728 C726 1.384 . S
C728 C729 1.372 . S
C729 C728 1.372 . S
C729 C730 1.400 . S
C729 C734 1.490 . S
C730 H720 0.930 . S
C730 C729 1.400 . S
C730 C733 1.386 . S
H731 C747 0.930 . S
H732 C748 0.931 . S
C733 H721 0.929 . S
C733 C727 1.390 . S
C733 C730 1.386 . S
C734 C729 1.490 . S
C734 C736 1.395 . S
C734 C737 1.403 . S
H735 C741 0.930 . S
C736 H722 0.930 . S
C736 C734 1.395 . S
C736 C739 1.403 . S
C737 C734 1.403 . S
C737 C738 1.524 . S
C737 C741 1.400 . S
C738 H723 0.960 . S
C738 H724 0.960 . S
C738 H725 0.960 . S
C738 C737 1.524 . S
C739 C736 1.403 . S
C739 C740 1.392 . S
C739 C743 1.495 . S
C740 C739 1.392 . S
C740 C741 1.385 . S
C740 C742 1.478 . S
C741 H735 0.930 . S
C741 C737 1.400 . S
C741 C740 1.385 . S
C742 C740 1.478 . S
C742 C744 1.381 . S
C742 C748 1.383 . S
C743 C739 1.495 . S
C743 H749 0.959 . S
C743 H750 0.961 . S
C743 H751 0.960 . S
C744 C742 1.381 . S
C744 C745 1.394 . S
C744 H752 0.930 . S
C745 C744 1.394 . S
C745 C746 1.383 . S
C745 H753 0.929 . S
C746 C745 1.383 . S
C746 C747 1.377 . S
C747 H731 0.930 . S
C747 C746 1.377 . S
C747 C748 1.379 . S
C748 H732 0.931 . S
C748 C742 1.383 . S
C748 C747 1.379 . S
H749 C743 0.959 . S
H750 C743 0.961 . S
H751 C743 0.960 . S
H752 C744 0.930 . S
H753 C745 0.929 . S
H754 C762 0.929 . S
H755 C764 0.930 . S
H756 C766 0.930 . S
H757 C769 0.929 . S
H758 C772 0.930 . S
H759 C774 0.960 . S
H760 C774 0.960 . S
H761 C774 0.960 . S
C762 H754 0.929 . S
C762 C763 1.377 . S
C762 C764 1.384 . S
C763 C762 1.377 . S
C763 C769 1.390 . S
C764 H755 0.930 . S
C764 C762 1.384 . S
C764 C765 1.372 . S
C765 C764 1.372 . S
C765 C766 1.400 . S
C765 C770 1.490 . S
C766 H756 0.930 . S
C766 C765 1.400 . S
C766 C769 1.386 . S
H767 C783 0.930 . S
H768 C784 0.931 . S
C769 H757 0.929 . S
C769 C763 1.390 . S
C769 C766 1.386 . S
C770 C765 1.490 . S
C770 C772 1.395 . S
C770 C773 1.403 . S
H771 C777 0.930 . S
C772 H758 0.930 . S
C772 C770 1.395 . S
C772 C775 1.403 . S
C773 C770 1.403 . S
C773 C774 1.524 . S
C773 C777 1.400 . S
C774 H759 0.960 . S
C774 H760 0.960 . S
C774 H761 0.960 . S
C774 C773 1.524 . S
C775 C772 1.403 . S
C775 C776 1.392 . S
C775 C779 1.495 . S
C776 C775 1.392 . S
C776 C777 1.385 . S
C776 C778 1.478 . S
C777 H771 0.930 . S
C777 C773 1.400 . S
C777 C776 1.385 . S
C778 C776 1.478 . S
C778 C780 1.381 . S
C778 C784 1.383 . S
C779 C775 1.495 . S
C779 H785 0.959 . S
C779 H786 0.961 . S
C779 H787 0.960 . S
C780 C778 1.381 . S
C780 C781 1.394 . S
C780 H788 0.930 . S
C781 C780 1.394 . S
C781 C782 1.383 . S
C781 H789 0.929 . S
C782 C781 1.383 . S
C782 C783 1.377 . S
C783 H767 0.930 . S
C783 C782 1.377 . S
C783 C784 1.379 . S
C784 H768 0.931 . S
C784 C778 1.383 . S
C784 C783 1.379 . S
H785 C779 0.959 . S
H786 C779 0.961 . S
H787 C779 0.960 . S
H788 C780 0.930 . S
H789 C781 0.929 . S
H790 C798 0.929 . S
H791 C800 0.930 . S
H792 C802 0.930 . S
H793 C805 0.929 . S
H794 C808 0.930 . S
H795 C810 0.960 . S
H796 C810 0.960 . S
H797 C810 0.960 . S
C798 H790 0.929 . S
C798 C799 1.377 . S
C798 C800 1.384 . S
C799 C798 1.377 . S
C799 C805 1.390 . S
C800 H791 0.930 . S
C800 C798 1.384 . S
C800 C801 1.372 . S
C801 C800 1.372 . S
C801 C802 1.400 . S
C801 C806 1.490 . S
C802 H792 0.930 . S
C802 C801 1.400 . S
C802 C805 1.386 . S
H803 C819 0.930 . S
H804 C820 0.931 . S
C805 H793 0.929 . S
C805 C799 1.390 . S
C805 C802 1.386 . S
C806 C801 1.490 . S
C806 C808 1.395 . S
C806 C809 1.403 . S
H807 C813 0.930 . S
C808 H794 0.930 . S
C808 C806 1.395 . S
C808 C811 1.403 . S
C809 C806 1.403 . S
C809 C810 1.524 . S
C809 C813 1.400 . S
C810 H795 0.960 . S
C810 H796 0.960 . S
C810 H797 0.960 . S
C810 C809 1.524 . S
C811 C808 1.403 . S
C811 C812 1.392 . S
C811 C815 1.495 . S
C812 C811 1.392 . S
C812 C813 1.385 . S
C812 C814 1.478 . S
C813 H807 0.930 . S
C813 C809 1.400 . S
C813 C812 1.385 . S
C814 C812 1.478 . S
C814 C816 1.381 . S
C814 C820 1.383 . S
C815 C811 1.495 . S
C815 H821 0.959 . S
C815 H822 0.961 . S
C815 H823 0.960 . S
C816 C814 1.381 . S
C816 C817 1.394 . S
C816 H824 0.930 . S
C817 C816 1.394 . S
C817 C818 1.383 . S
C817 H825 0.929 . S
C818 C817 1.383 . S
C818 C819 1.377 . S
C819 H803 0.930 . S
C819 C818 1.377 . S
C819 C820 1.379 . S
C820 H804 0.931 . S
C820 C814 1.383 . S
C820 C819 1.379 . S
H821 C815 0.959 . S
H822 C815 0.961 . S
H823 C815 0.960 . S
H824 C816 0.930 . S
H825 C817 0.929 . S
H826 C834 0.929 . S
H827 C836 0.930 . S
H828 C838 0.930 . S
H829 C841 0.929 . S
H830 C844 0.930 . S
H831 C846 0.960 . S
H832 C846 0.960 . S
H833 C846 0.960 . S
C834 H826 0.929 . S
C834 C835 1.377 . S
C834 C836 1.384 . S
C835 C834 1.377 . S
C835 C841 1.390 . S
C836 H827 0.930 . S
C836 C834 1.384 . S
C836 C837 1.372 . S
C837 C836 1.372 . S
C837 C838 1.400 . S
C837 C842 1.490 . S
C838 H828 0.930 . S
C838 C837 1.400 . S
C838 C841 1.386 . S
H839 C855 0.930 . S
H840 C856 0.931 . S
C841 H829 0.929 . S
C841 C835 1.390 . S
C841 C838 1.386 . S
C842 C837 1.490 . S
C842 C844 1.395 . S
C842 C845 1.403 . S
H843 C849 0.930 . S
C844 H830 0.930 . S
C844 C842 1.395 . S
C844 C847 1.403 . S
C845 C842 1.403 . S
C845 C846 1.524 . S
C845 C849 1.400 . S
C846 H831 0.960 . S
C846 H832 0.960 . S
C846 H833 0.960 . S
C846 C845 1.524 . S
C847 C844 1.403 . S
C847 C848 1.392 . S
C847 C851 1.495 . S
C848 C847 1.392 . S
C848 C849 1.385 . S
C848 C850 1.478 . S
C849 H843 0.930 . S
C849 C845 1.400 . S
C849 C848 1.385 . S
C850 C848 1.478 . S
C850 C852 1.381 . S
C850 C856 1.383 . S
C851 C847 1.495 . S
C851 H857 0.959 . S
C851 H858 0.961 . S
C851 H859 0.960 . S
C852 C850 1.381 . S
C852 C853 1.394 . S
C852 H860 0.930 . S
C853 C852 1.394 . S
C853 C854 1.383 . S
C853 H861 0.929 . S
C854 C853 1.383 . S
C854 C855 1.377 . S
C855 H839 0.930 . S
C855 C854 1.377 . S
C855 C856 1.379 . S
C856 H840 0.931 . S
C856 C850 1.383 . S
C856 C855 1.379 . S
H857 C851 0.959 . S
H858 C851 0.961 . S
H859 C851 0.960 . S
H860 C852 0.930 . S
H861 C853 0.929 . S
H862 C870 0.929 . S
H863 C872 0.930 . S
H864 C874 0.930 . S
H865 C877 0.929 . S
H866 C880 0.930 . S
H867 C882 0.960 . S
H868 C882 0.960 . S
H869 C882 0.960 . S
C870 H862 0.929 . S
C870 C871 1.377 . S
C870 C872 1.384 . S
C871 C870 1.377 . S
C871 C877 1.390 . S
C872 H863 0.930 . S
C872 C870 1.384 . S
C872 C873 1.372 . S
C873 C872 1.372 . S
C873 C874 1.400 . S
C873 C878 1.490 . S
C874 H864 0.930 . S
C874 C873 1.400 . S
C874 C877 1.386 . S
H875 C891 0.930 . S
H876 C892 0.931 . S
C877 H865 0.929 . S
C877 C871 1.390 . S
C877 C874 1.386 . S
C878 C873 1.490 . S
C878 C880 1.395 . S
C878 C881 1.403 . S
H879 C885 0.930 . S
C880 H866 0.930 . S
C880 C878 1.395 . S
C880 C883 1.403 . S
C881 C878 1.403 . S
C881 C882 1.524 . S
C881 C885 1.400 . S
C882 H867 0.960 . S
C882 H868 0.960 . S
C882 H869 0.960 . S
C882 C881 1.524 . S
C883 C880 1.403 . S
C883 C884 1.392 . S
C883 C887 1.495 . S
C884 C883 1.392 . S
C884 C885 1.385 . S
C884 C886 1.478 . S
C885 H879 0.930 . S
C885 C881 1.400 . S
C885 C884 1.385 . S
C886 C884 1.478 . S
C886 C888 1.381 . S
C886 C892 1.383 . S
C887 C883 1.495 . S
C887 H893 0.959 . S
C887 H894 0.961 . S
C887 H895 0.960 . S
C888 C886 1.381 . S
C888 C889 1.394 . S
C888 H896 0.930 . S
C889 C888 1.394 . S
C889 C890 1.383 . S
C889 H897 0.929 . S
C890 C889 1.383 . S
C890 C891 1.377 . S
C891 H875 0.930 . S
C891 C890 1.377 . S
C891 C892 1.379 . S
C892 H876 0.931 . S
C892 C886 1.383 . S
C892 C891 1.379 . S
H893 C887 0.959 . S
H894 C887 0.961 . S
H895 C887 0.960 . S
H896 C888 0.930 . S
H897 C889 0.929 . S
H898 C906 0.929 . S
H899 C908 0.930 . S
H900 C910 0.930 . S
H901 C913 0.929 . S
H902 C916 0.930 . S
H903 C918 0.960 . S
H904 C918 0.960 . S
H905 C918 0.960 . S
C906 H898 0.929 . S
C906 C907 1.377 . S
C906 C908 1.384 . S
C907 C906 1.377 . S
C907 C913 1.390 . S
C908 H899 0.930 . S
C908 C906 1.384 . S
C908 C909 1.372 . S
C909 C908 1.372 . S
C909 C910 1.400 . S
C909 C914 1.490 . S
C910 H900 0.930 . S
C910 C909 1.400 . S
C910 C913 1.386 . S
H911 C927 0.930 . S
H912 C928 0.931 . S
C913 H901 0.929 . S
C913 C907 1.390 . S
C913 C910 1.386 . S
C914 C909 1.490 . S
C914 C916 1.395 . S
C914 C917 1.403 . S
H915 C921 0.930 . S
C916 H902 0.930 . S
C916 C914 1.395 . S
C916 C919 1.403 . S
C917 C914 1.403 . S
C917 C918 1.524 . S
C917 C921 1.400 . S
C918 H903 0.960 . S
C918 H904 0.960 . S
C918 H905 0.960 . S
C918 C917 1.524 . S
C919 C916 1.403 . S
C919 C920 1.392 . S
C919 C923 1.495 . S
C920 C919 1.392 . S
C920 C921 1.385 . S
C920 C922 1.478 . S
C921 H915 0.930 . S
C921 C917 1.400 . S
C921 C920 1.385 . S
C922 C920 1.478 . S
C922 C924 1.381 . S
C922 C928 1.383 . S
C923 C919 1.495 . S
C923 H929 0.959 . S
C923 H930 0.961 . S
C923 H931 0.960 . S
C924 C922 1.381 . S
C924 C925 1.394 . S
C924 H932 0.930 . S
C925 C924 1.394 . S
C925 C926 1.383 . S
C925 H933 0.929 . S
C926 C925 1.383 . S
C926 C927 1.377 . S
C927 H911 0.930 . S
C927 C926 1.377 . S
C927 C928 1.379 . S
C928 H912 0.931 . S
C928 C922 1.383 . S
C928 C927 1.379 . S
H929 C923 0.959 . S
H930 C923 0.961 . S
H931 C923 0.960 . S
H932 C924 0.930 . S
H933 C925 0.929 . S
H934 C942 0.929 . S
H935 C944 0.930 . S
H936 C946 0.930 . S
H937 C949 0.929 . S
H938 C952 0.930 . S
H939 C954 0.960 . S
H940 C954 0.960 . S
H941 C954 0.960 . S
C942 H934 0.929 . S
C942 C943 1.377 . S
C942 C944 1.384 . S
C943 C942 1.377 . S
C943 C949 1.390 . S
C944 H935 0.930 . S
C944 C942 1.384 . S
C944 C945 1.372 . S
C945 C944 1.372 . S
C945 C946 1.400 . S
C945 C950 1.490 . S
C946 H936 0.930 . S
C946 C945 1.400 . S
C946 C949 1.386 . S
H947 C963 0.930 . S
H948 C964 0.931 . S
C949 H937 0.929 . S
C949 C943 1.390 . S
C949 C946 1.386 . S
C950 C945 1.490 . S
C950 C952 1.395 . S
C950 C953 1.403 . S
H951 C957 0.930 . S
C952 H938 0.930 . S
C952 C950 1.395 . S
C952 C955 1.403 . S
C953 C950 1.403 . S
C953 C954 1.524 . S
C953 C957 1.400 . S
C954 H939 0.960 . S
C954 H940 0.960 . S
C954 H941 0.960 . S
C954 C953 1.524 . S
C955 C952 1.403 . S
C955 C956 1.392 . S
C955 C959 1.495 . S
C956 C955 1.392 . S
C956 C957 1.385 . S
C956 C958 1.478 . S
C957 H951 0.930 . S
C957 C953 1.400 . S
C957 C956 1.385 . S
C958 C956 1.478 . S
C958 C960 1.381 . S
C958 C964 1.383 . S
C959 C955 1.495 . S
C959 H965 0.959 . S
C959 H966 0.961 . S
C959 H967 0.960 . S
C960 C958 1.381 . S
C960 C961 1.394 . S
C960 H968 0.930 . S
C961 C960 1.394 . S
C961 C962 1.383 . S
C961 H969 0.929 . S
C962 C961 1.383 . S
C962 C963 1.377 . S
C963 H947 0.930 . S
C963 C962 1.377 . S
C963 C964 1.379 . S
C964 H948 0.931 . S
C964 C958 1.383 . S
C964 C963 1.379 . S
H965 C959 0.959 . S
H966 C959 0.961 . S
H967 C959 0.960 . S
H968 C960 0.930 . S
H969 C961 0.929 . S
H970 C978 0.929 . S
H971 C980 0.930 . S
H972 C982 0.930 . S
H973 C985 0.929 . S
H974 C988 0.930 . S
H975 C990 0.960 . S
H976 C990 0.960 . S
H977 C990 0.960 . S
C978 H970 0.929 . S
C978 C979 1.377 . S
C978 C980 1.384 . S
C979 C978 1.377 . S
C979 C985 1.390 . S
C980 H971 0.930 . S
C980 C978 1.384 . S
C980 C981 1.372 . S
C981 C980 1.372 . S
C981 C982 1.400 . S
C981 C986 1.490 . S
C982 H972 0.930 . S
C982 C981 1.400 . S
C982 C985 1.386 . S
H983 C999 0.930 . S
H984 C1000 0.931 . S
C985 H973 0.929 . S
C985 C979 1.390 . S
C985 C982 1.386 . S
C986 C981 1.490 . S
C986 C988 1.395 . S
C986 C989 1.403 . S
H987 C993 0.930 . S
C988 H974 0.930 . S
C988 C986 1.395 . S
C988 C991 1.403 . S
C989 C986 1.403 . S
C989 C990 1.524 . S
C989 C993 1.400 . S
C990 H975 0.960 . S
C990 H976 0.960 . S
C990 H977 0.960 . S
C990 C989 1.524 . S
C991 C988 1.403 . S
C991 C992 1.392 . S
C991 C995 1.495 . S
C992 C991 1.392 . S
C992 C993 1.385 . S
C992 C994 1.478 . S
C993 H987 0.930 . S
C993 C989 1.400 . S
C993 C992 1.385 . S
C994 C992 1.478 . S
C994 C996 1.381 . S
C994 C1000 1.383 . S
C995 C991 1.495 . S
C995 H1001 0.959 . S
C995 H1002 0.961 . S
C995 H1003 0.960 . S
C996 C994 1.381 . S
C996 C997 1.394 . S
C996 H1004 0.930 . S
C997 C996 1.394 . S
C997 C998 1.383 . S
C997 H1005 0.929 . S
C998 C997 1.383 . S
C998 C999 1.377 . S
C999 H983 0.930 . S
C999 C998 1.377 . S
C999 C1000 1.379 . S
C1000 H984 0.931 . S
C1000 C994 1.383 . S
C1000 C999 1.379 . S
H1001 C995 0.959 . S
H1002 C995 0.961 . S
H1003 C995 0.960 . S
H1004 C996 0.930 . S
H1005 C997 0.929 . S
H1006 C1014 0.929 . S
H1007 C1016 0.930 . S
H1008 C1018 0.930 . S
H1009 C1021 0.929 . S
H1010 C1024 0.930 . S
H1011 C1026 0.960 . S
H1012 C1026 0.960 . S
H1013 C1026 0.960 . S
C1014 H1006 0.929 . S
C1014 C1015 1.377 . S
C1014 C1016 1.384 . S
C1015 C1014 1.377 . S
C1015 C1021 1.390 . S
C1016 H1007 0.930 . S
C1016 C1014 1.384 . S
C1016 C1017 1.372 . S
C1017 C1016 1.372 . S
C1017 C1018 1.400 . S
C1017 C1022 1.490 . S
C1018 H1008 0.930 . S
C1018 C1017 1.400 . S
C1018 C1021 1.386 . S
H1019 C1035 0.930 . S
H1020 C1036 0.931 . S
C1021 H1009 0.929 . S
C1021 C1015 1.390 . S
C1021 C1018 1.386 . S
C1022 C1017 1.490 . S
C1022 C1024 1.395 . S
C1022 C1025 1.403 . S
H1023 C1029 0.930 . S
C1024 H1010 0.930 . S
C1024 C1022 1.395 . S
C1024 C1027 1.403 . S
C1025 C1022 1.403 . S
C1025 C1026 1.524 . S
C1025 C1029 1.400 . S
C1026 H1011 0.960 . S
C1026 H1012 0.960 . S
C1026 H1013 0.960 . S
C1026 C1025 1.524 . S
C1027 C1024 1.403 . S
C1027 C1028 1.392 . S
C1027 C1031 1.495 . S
C1028 C1027 1.392 . S
C1028 C1029 1.385 . S
C1028 C1030 1.478 . S
C1029 H1023 0.930 . S
C1029 C1025 1.400 . S
C1029 C1028 1.385 . S
C1030 C1028 1.478 . S
C1030 C1032 1.381 . S
C1030 C1036 1.383 . S
C1031 C1027 1.495 . S
C1031 H1037 0.959 . S
C1031 H1038 0.961 . S
C1031 H1039 0.960 . S
C1032 C1030 1.381 . S
C1032 C1033 1.394 . S
C1032 H1040 0.930 . S
C1033 C1032 1.394 . S
C1033 C1034 1.383 . S
C1033 H1041 0.929 . S
C1034 C1033 1.383 . S
C1034 C1035 1.377 . S
C1035 H1019 0.930 . S
C1035 C1034 1.377 . S
C1035 C1036 1.379 . S
C1036 H1020 0.931 . S
C1036 C1030 1.383 . S
C1036 C1035 1.379 . S
H1037 C1031 0.959 . S
H1038 C1031 0.961 . S
H1039 C1031 0.960 . S
H1040 C1032 0.930 . S
H1041 C1033 0.929 . S
H1042 C1050 0.929 . S
H1043 C1052 0.930 . S
H1044 C1054 0.930 . S
H1045 C1057 0.929 . S
H1046 C1060 0.930 . S
H1047 C1062 0.960 . S
H1048 C1062 0.960 . S
H1049 C1062 0.960 . S
C1050 H1042 0.929 . S
C1050 C1051 1.377 . S
C1050 C1052 1.384 . S
C1051 C1050 1.377 . S
C1051 C1057 1.390 . S
C1052 H1043 0.930 . S
C1052 C1050 1.384 . S
C1052 C1053 1.372 . S
C1053 C1052 1.372 . S
C1053 C1054 1.400 . S
C1053 C1058 1.490 . S
C1054 H1044 0.930 . S
C1054 C1053 1.400 . S
C1054 C1057 1.386 . S
H1055 C1071 0.930 . S
H1056 C1072 0.931 . S
C1057 H1045 0.929 . S
C1057 C1051 1.390 . S
C1057 C1054 1.386 . S
C1058 C1053 1.490 . S
C1058 C1060 1.395 . S
C1058 C1061 1.403 . S
H1059 C1065 0.930 . S
C1060 H1046 0.930 . S
C1060 C1058 1.395 . S
C1060 C1063 1.403 . S
C1061 C1058 1.403 . S
C1061 C1062 1.524 . S
C1061 C1065 1.400 . S
C1062 H1047 0.960 . S
C1062 H1048 0.960 . S
C1062 H1049 0.960 . S
C1062 C1061 1.524 . S
C1063 C1060 1.403 . S
C1063 C1064 1.392 . S
C1063 C1067 1.495 . S
C1064 C1063 1.392 . S
C1064 C1065 1.385 . S
C1064 C1066 1.478 . S
C1065 H1059 0.930 . S
C1065 C1061 1.400 . S
C1065 C1064 1.385 . S
C1066 C1064 1.478 . S
C1066 C1068 1.381 . S
C1066 C1072 1.383 . S
C1067 C1063 1.495 . S
C1067 H1073 0.959 . S
C1067 H1074 0.961 . S
C1067 H1075 0.960 . S
C1068 C1066 1.381 . S
C1068 C1069 1.394 . S
C1068 H1076 0.930 . S
C1069 C1068 1.394 . S
C1069 C1070 1.383 . S
C1069 H1077 0.929 . S
C1070 C1069 1.383 . S
C1070 C1071 1.377 . S
C1071 H1055 0.930 . S
C1071 C1070 1.377 . S
C1071 C1072 1.379 . S
C1072 H1056 0.931 . S
C1072 C1066 1.383 . S
C1072 C1071 1.379 . S
H1073 C1067 0.959 . S
H1074 C1067 0.961 . S
H1075 C1067 0.960 . S
H1076 C1068 0.930 . S
H1077 C1069 0.929 . S
H1078 C1086 0.929 . S
H1079 C1088 0.930 . S
H1080 C1090 0.930 . S
H1081 C1093 0.929 . S
H1082 C1096 0.930 . S
H1083 C1098 0.960 . S
H1084 C1098 0.960 . S
H1085 C1098 0.960 . S
C1086 H1078 0.929 . S
C1086 C1087 1.377 . S
C1086 C1088 1.384 . S
C1087 C1086 1.377 . S
C1087 C1093 1.390 . S
C1088 H1079 0.930 . S
C1088 C1086 1.384 . S
C1088 C1089 1.372 . S
C1089 C1088 1.372 . S
C1089 C1090 1.400 . S
C1089 C1094 1.490 . S
C1090 H1080 0.930 . S
C1090 C1089 1.400 . S
C1090 C1093 1.386 . S
H1091 C1107 0.930 . S
H1092 C1108 0.931 . S
C1093 H1081 0.929 . S
C1093 C1087 1.390 . S
C1093 C1090 1.386 . S
C1094 C1089 1.490 . S
C1094 C1096 1.395 . S
C1094 C1097 1.403 . S
H1095 C1101 0.930 . S
C1096 H1082 0.930 . S
C1096 C1094 1.395 . S
C1096 C1099 1.403 . S
C1097 C1094 1.403 . S
C1097 C1098 1.524 . S
C1097 C1101 1.400 . S
C1098 H1083 0.960 . S
C1098 H1084 0.960 . S
C1098 H1085 0.960 . S
C1098 C1097 1.524 . S
C1099 C1096 1.403 . S
C1099 C1100 1.392 . S
C1099 C1103 1.495 . S
C1100 C1099 1.392 . S
C1100 C1101 1.385 . S
C1100 C1102 1.478 . S
C1101 H1095 0.930 . S
C1101 C1097 1.400 . S
C1101 C1100 1.385 . S
C1102 C1100 1.478 . S
C1102 C1104 1.381 . S
C1102 C1108 1.383 . S
C1103 C1099 1.495 . S
C1103 H1109 0.959 . S
C1103 H1110 0.961 . S
C1103 H1111 0.960 . S
C1104 C1102 1.381 . S
C1104 C1105 1.394 . S
C1104 H1112 0.930 . S
C1105 C1104 1.394 . S
C1105 C1106 1.383 . S
C1105 H1113 0.929 . S
C1106 C1105 1.383 . S
C1106 C1107 1.377 . S
C1107 H1091 0.930 . S
C1107 C1106 1.377 . S
C1107 C1108 1.379 . S
C1108 H1092 0.931 . S
C1108 C1102 1.383 . S
C1108 C1107 1.379 . S
H1109 C1103 0.959 . S
H1110 C1103 0.961 . S
H1111 C1103 0.960 . S
H1112 C1104 0.930 . S
H1113 C1105 0.929 . S
H1114 C1122 0.929 . S
H1115 C1124 0.930 . S
H1116 C1126 0.930 . S
H1117 C1129 0.929 . S
H1118 C1132 0.930 . S
H1119 C1134 0.960 . S
H1120 C1134 0.960 . S
H1121 C1134 0.960 . S
C1122 H1114 0.929 . S
C1122 C1123 1.377 . S
C1122 C1124 1.384 . S
C1123 C1122 1.377 . S
C1123 C1129 1.390 . S
C1124 H1115 0.930 . S
C1124 C1122 1.384 . S
C1124 C1125 1.372 . S
C1125 C1124 1.372 . S
C1125 C1126 1.400 . S
C1125 C1130 1.490 . S
C1126 H1116 0.930 . S
C1126 C1125 1.400 . S
C1126 C1129 1.386 . S
H1127 C1143 0.930 . S
H1128 C1144 0.931 . S
C1129 H1117 0.929 . S
C1129 C1123 1.390 . S
C1129 C1126 1.386 . S
C1130 C1125 1.490 . S
C1130 C1132 1.395 . S
C1130 C1133 1.403 . S
H1131 C1137 0.930 . S
C1132 H1118 0.930 . S
C1132 C1130 1.395 . S
C1132 C1135 1.403 . S
C1133 C1130 1.403 . S
C1133 C1134 1.524 . S
C1133 C1137 1.400 . S
C1134 H1119 0.960 . S
C1134 H1120 0.960 . S
C1134 H1121 0.960 . S
C1134 C1133 1.524 . S
C1135 C1132 1.403 . S
C1135 C1136 1.392 . S
C1135 C1139 1.495 . S
C1136 C1135 1.392 . S
C1136 C1137 1.385 . S
C1136 C1138 1.478 . S
C1137 H1131 0.930 . S
C1137 C1133 1.400 . S
C1137 C1136 1.385 . S
C1138 C1136 1.478 . S
C1138 C1140 1.381 . S
C1138 C1144 1.383 . S
C1139 C1135 1.495 . S
C1139 H1145 0.959 . S
C1139 H1146 0.961 . S
C1139 H1147 0.960 . S
C1140 C1138 1.381 . S
C1140 C1141 1.394 . S
C1140 H1148 0.930 . S
C1141 C1140 1.394 . S
C1141 C1142 1.383 . S
C1141 H1149 0.929 . S
C1142 C1141 1.383 . S
C1142 C1143 1.377 . S
C1143 H1127 0.930 . S
C1143 C1142 1.377 . S
C1143 C1144 1.379 . S
C1144 H1128 0.931 . S
C1144 C1138 1.383 . S
C1144 C1143 1.379 . S
H1145 C1139 0.959 . S
H1146 C1139 0.961 . S
H1147 C1139 0.960 . S
H1148 C1140 0.930 . S
H1149 C1141 0.929 . S
H1150 C1158 0.929 . S
H1151 C1160 0.930 . S
H1152 C1162 0.930 . S
H1153 C1165 0.929 . S
H1154 C1168 0.930 . S
H1155 C1170 0.960 . S
H1156 C1170 0.960 . S
H1157 C1170 0.960 . S
C1158 H1150 0.929 . S
C1158 C1159 1.377 . S
C1158 C1160 1.384 . S
C1159 C1158 1.377 . S
C1159 C1165 1.390 . S
C1160 H1151 0.930 . S
C1160 C1158 1.384 . S
C1160 C1161 1.372 . S
C1161 C1160 1.372 . S
C1161 C1162 1.400 . S
C1161 C1166 1.490 . S
C1162 H1152 0.930 . S
C1162 C1161 1.400 . S
C1162 C1165 1.386 . S
H1163 C1179 0.925 1_556 S
H1164 C1180 0.931 . S
C1165 H1153 0.929 . S
C1165 C1159 1.390 . S
C1165 C1162 1.386 . S
C1166 C1161 1.490 . S
C1166 C1168 1.395 . S
C1166 C1169 1.403 . S
H1167 C1173 0.930 . S
C1168 H1154 0.930 . S
C1168 C1166 1.395 . S
C1168 C1171 1.403 . S
C1169 C1166 1.403 . S
C1169 C1170 1.524 . S
C1169 C1173 1.400 . S
C1170 H1155 0.960 . S
C1170 H1156 0.960 . S
C1170 H1157 0.960 . S
C1170 C1169 1.524 . S
C1171 C1168 1.403 . S
C1171 C1172 1.392 . S
C1171 C1175 1.495 . S
C1172 C1171 1.392 . S
C1172 C1173 1.385 . S
C1172 C1174 1.478 . S
C1173 H1167 0.930 . S
C1173 C1169 1.400 . S
C1173 C1172 1.385 . S
C1174 C1172 1.478 . S
C1174 C1176 1.381 . S
C1174 C1180 1.383 . S
C1175 C1171 1.495 . S
C1175 H1181 0.959 . S
C1175 H1182 0.961 . S
C1175 H1183 0.960 . S
C1176 C1174 1.381 . S
C1176 C1177 1.394 . S
C1176 H1184 0.930 . S
C1177 C1176 1.394 . S
C1177 C1178 1.383 . S
C1177 H1185 0.929 . S
C1178 C1177 1.383 . S
C1178 C1179 1.377 . S
C1179 H1163 0.925 1_554 S
C1179 C1178 1.377 . S
C1179 C1180 1.379 . S
C1180 H1164 0.931 . S
C1180 C1174 1.383 . S
C1180 C1179 1.379 . S
H1181 C1175 0.959 . S
H1182 C1175 0.961 . S
H1183 C1175 0.960 . S
H1184 C1176 0.930 . S
H1185 C1177 0.929 . S
H1186 C1194 0.929 . S
H1187 C1196 0.930 . S
H1188 C1198 0.930 . S
H1189 C1201 0.929 . S
H1190 C1204 0.930 . S
H1191 C1206 0.960 . S
H1192 C1206 0.960 . S
H1193 C1206 0.960 . S
C1194 H1186 0.929 . S
C1194 C1195 1.377 . S
C1194 C1196 1.384 . S
C1195 C1194 1.377 . S
C1195 C1201 1.390 . S
C1196 H1187 0.930 . S
C1196 C1194 1.384 . S
C1196 C1197 1.372 . S
C1197 C1196 1.372 . S
C1197 C1198 1.400 . S
C1197 C1202 1.490 . S
C1198 H1188 0.930 . S
C1198 C1197 1.400 . S
C1198 C1201 1.386 . S
H1199 C1215 0.930 . S
H1200 C1216 0.931 . S
C1201 H1189 0.929 . S
C1201 C1195 1.390 . S
C1201 C1198 1.386 . S
C1202 C1197 1.490 . S
C1202 C1204 1.395 . S
C1202 C1205 1.403 . S
H1203 C1209 0.930 . S
C1204 H1190 0.930 . S
C1204 C1202 1.395 . S
C1204 C1207 1.403 . S
C1205 C1202 1.403 . S
C1205 C1206 1.524 . S
C1205 C1209 1.400 . S
C1206 H1191 0.960 . S
C1206 H1192 0.960 . S
C1206 H1193 0.960 . S
C1206 C1205 1.524 . S
C1207 C1204 1.403 . S
C1207 C1208 1.392 . S
C1207 C1211 1.495 . S
C1208 C1207 1.392 . S
C1208 C1209 1.385 . S
C1208 C1210 1.478 . S
C1209 H1203 0.930 . S
C1209 C1205 1.400 . S
C1209 C1208 1.385 . S
C1210 C1208 1.478 . S
C1210 C1212 1.381 . S
C1210 C1216 1.383 . S
C1211 C1207 1.495 . S
C1211 H1217 0.959 . S
C1211 H1218 0.961 . S
C1211 H1219 0.960 . S
C1212 C1210 1.381 . S
C1212 C1213 1.394 . S
C1212 H1220 0.930 . S
C1213 C1212 1.394 . S
C1213 C1214 1.383 . S
C1213 H1221 0.929 . S
C1214 C1213 1.383 . S
C1214 C1215 1.377 . S
C1215 H1199 0.930 . S
C1215 C1214 1.377 . S
C1215 C1216 1.379 . S
C1216 H1200 0.931 . S
C1216 C1210 1.383 . S
C1216 C1215 1.379 . S
H1217 C1211 0.959 . S
H1218 C1211 0.961 . S
H1219 C1211 0.960 . S
H1220 C1212 0.930 . S
H1221 C1213 0.929 . S
H1222 C1230 0.929 . S
H1223 C1232 0.930 . S
H1224 C1234 0.930 . S
H1225 C1237 0.929 . S
H1226 C1240 0.930 . S
H1227 C1242 0.960 . S
H1228 C1242 0.960 . S
H1229 C1242 0.960 . S
C1230 H1222 0.929 . S
C1230 C1231 1.377 . S
C1230 C1232 1.384 . S
C1231 C1230 1.377 . S
C1231 C1237 1.390 . S
C1232 H1223 0.930 . S
C1232 C1230 1.384 . S
C1232 C1233 1.372 . S
C1233 C1232 1.372 . S
C1233 C1234 1.400 . S
C1233 C1238 1.490 . S
C1234 H1224 0.930 . S
C1234 C1233 1.400 . S
C1234 C1237 1.386 . S
H1235 C1251 0.930 . S
H1236 C1252 0.931 . S
C1237 H1225 0.929 . S
C1237 C1231 1.390 . S
C1237 C1234 1.386 . S
C1238 C1233 1.490 . S
C1238 C1240 1.395 . S
C1238 C1241 1.403 . S
H1239 C1245 0.930 . S
C1240 H1226 0.930 . S
C1240 C1238 1.395 . S
C1240 C1243 1.403 . S
C1241 C1238 1.403 . S
C1241 C1242 1.524 . S
C1241 C1245 1.400 . S
C1242 H1227 0.960 . S
C1242 H1228 0.960 . S
C1242 H1229 0.960 . S
C1242 C1241 1.524 . S
C1243 C1240 1.403 . S
C1243 C1244 1.392 . S
C1243 C1247 1.495 . S
C1244 C1243 1.392 . S
C1244 C1245 1.385 . S
C1244 C1246 1.478 . S
C1245 H1239 0.930 . S
C1245 C1241 1.400 . S
C1245 C1244 1.385 . S
C1246 C1244 1.478 . S
C1246 C1248 1.381 . S
C1246 C1252 1.383 . S
C1247 C1243 1.495 . S
C1247 H1253 0.959 . S
C1247 H1254 0.961 . S
C1247 H1255 0.960 . S
C1248 C1246 1.381 . S
C1248 C1249 1.394 . S
C1248 H1256 0.930 . S
C1249 C1248 1.394 . S
C1249 C1250 1.383 . S
C1249 H1257 0.929 . S
C1250 C1249 1.383 . S
C1250 C1251 1.377 . S
C1251 H1235 0.930 . S
C1251 C1250 1.377 . S
C1251 C1252 1.379 . S
C1252 H1236 0.931 . S
C1252 C1246 1.383 . S
C1252 C1251 1.379 . S
H1253 C1247 0.959 . S
H1254 C1247 0.961 . S
H1255 C1247 0.960 . S
H1256 C1248 0.930 . S
H1257 C1249 0.929 . S
H1258 C1266 0.929 . S
H1259 C1268 0.930 . S
H1260 C1270 0.930 . S
H1261 C1273 0.929 . S
H1262 C1276 0.930 . S
H1263 C1278 0.960 . S
H1264 C1278 0.960 . S
H1265 C1278 0.960 . S
C1266 H1258 0.929 . S
C1266 C1267 1.377 . S
C1266 C1268 1.384 . S
C1267 C1266 1.377 . S
C1267 C1273 1.390 . S
C1268 H1259 0.930 . S
C1268 C1266 1.384 . S
C1268 C1269 1.372 . S
C1269 C1268 1.372 . S
C1269 C1270 1.400 . S
C1269 C1274 1.490 . S
C1270 H1260 0.930 . S
C1270 C1269 1.400 . S
C1270 C1273 1.386 . S
H1271 C1287 0.930 . S
H1272 C1288 0.931 . S
C1273 H1261 0.929 . S
C1273 C1267 1.390 . S
C1273 C1270 1.386 . S
C1274 C1269 1.490 . S
C1274 C1276 1.395 . S
C1274 C1277 1.403 . S
H1275 C1281 0.930 . S
C1276 H1262 0.930 . S
C1276 C1274 1.395 . S
C1276 C1279 1.403 . S
C1277 C1274 1.403 . S
C1277 C1278 1.524 . S
C1277 C1281 1.400 . S
C1278 H1263 0.960 . S
C1278 H1264 0.960 . S
C1278 H1265 0.960 . S
C1278 C1277 1.524 . S
C1279 C1276 1.403 . S
C1279 C1280 1.392 . S
C1279 C1283 1.495 . S
C1280 C1279 1.392 . S
C1280 C1281 1.385 . S
C1280 C1282 1.478 . S
C1281 H1275 0.930 . S
C1281 C1277 1.400 . S
C1281 C1280 1.385 . S
C1282 C1280 1.478 . S
C1282 C1284 1.381 . S
C1282 C1288 1.383 . S
C1283 C1279 1.495 . S
C1283 H1289 0.959 . S
C1283 H1290 0.961 . S
C1283 H1291 0.960 . S
C1284 C1282 1.381 . S
C1284 C1285 1.394 . S
C1284 H1292 0.930 . S
C1285 C1284 1.394 . S
C1285 C1286 1.383 . S
C1285 H1293 0.929 . S
C1286 C1285 1.383 . S
C1286 C1287 1.377 . S
C1287 H1271 0.930 . S
C1287 C1286 1.377 . S
C1287 C1288 1.379 . S
C1288 H1272 0.931 . S
C1288 C1282 1.383 . S
C1288 C1287 1.379 . S
H1289 C1283 0.959 . S
H1290 C1283 0.961 . S
H1291 C1283 0.960 . S
H1292 C1284 0.930 . S
H1293 C1285 0.929 . S
H1294 C1302 0.929 . S
H1295 C1304 0.930 . S
H1296 C1306 0.930 . S
H1297 C1309 0.929 . S
H1298 C1312 0.930 . S
H1299 C1314 0.960 . S
H1300 C1314 0.960 . S
H1301 C1314 0.960 . S
C1302 H1294 0.929 . S
C1302 C1303 1.377 . S
C1302 C1304 1.384 . S
C1303 C1302 1.377 . S
C1303 C1309 1.390 . S
C1304 H1295 0.930 . S
C1304 C1302 1.384 . S
C1304 C1305 1.372 . S
C1305 C1304 1.372 . S
C1305 C1306 1.400 . S
C1305 C1310 1.490 . S
C1306 H1296 0.930 . S
C1306 C1305 1.400 . S
C1306 C1309 1.386 . S
H1307 C1323 0.930 . S
H1308 C1324 0.931 . S
C1309 H1297 0.929 . S
C1309 C1303 1.390 . S
C1309 C1306 1.386 . S
C1310 C1305 1.490 . S
C1310 C1312 1.395 . S
C1310 C1313 1.403 . S
H1311 C1317 0.930 . S
C1312 H1298 0.930 . S
C1312 C1310 1.395 . S
C1312 C1315 1.403 . S
C1313 C1310 1.403 . S
C1313 C1314 1.524 . S
C1313 C1317 1.400 . S
C1314 H1299 0.960 . S
C1314 H1300 0.960 . S
C1314 H1301 0.960 . S
C1314 C1313 1.524 . S
C1315 C1312 1.403 . S
C1315 C1316 1.392 . S
C1315 C1319 1.495 . S
C1316 C1315 1.392 . S
C1316 C1317 1.385 . S
C1316 C1318 1.478 . S
C1317 H1311 0.930 . S
C1317 C1313 1.400 . S
C1317 C1316 1.385 . S
C1318 C1316 1.478 . S
C1318 C1320 1.381 . S
C1318 C1324 1.383 . S
C1319 C1315 1.495 . S
C1319 H1325 0.959 . S
C1319 H1326 0.961 . S
C1319 H1327 0.960 . S
C1320 C1318 1.381 . S
C1320 C1321 1.394 . S
C1320 H1328 0.930 . S
C1321 C1320 1.394 . S
C1321 C1322 1.383 . S
C1321 H1329 0.929 . S
C1322 C1321 1.383 . S
C1322 C1323 1.377 . S
C1323 H1307 0.930 . S
C1323 C1322 1.377 . S
C1323 C1324 1.379 . S
C1324 H1308 0.931 . S
C1324 C1318 1.383 . S
C1324 C1323 1.379 . S
H1325 C1319 0.959 . S
H1326 C1319 0.961 . S
H1327 C1319 0.960 . S
H1328 C1320 0.930 . S
H1329 C1321 0.929 . S
H1330 C1338 0.929 . S
H1331 C1340 0.930 . S
H1332 C1342 0.930 . S
H1333 C1345 0.929 . S
H1334 C1348 0.930 . S
H1335 C1350 0.960 . S
H1336 C1350 0.960 . S
H1337 C1350 0.960 . S
C1338 H1330 0.929 . S
C1338 C1339 1.377 . S
C1338 C1340 1.384 . S
C1339 C1338 1.377 . S
C1339 C1345 1.390 . S
C1340 H1331 0.930 . S
C1340 C1338 1.384 . S
C1340 C1341 1.372 . S
C1341 C1340 1.372 . S
C1341 C1342 1.400 . S
C1341 C1346 1.490 . S
C1342 H1332 0.930 . S
C1342 C1341 1.400 . S
C1342 C1345 1.386 . S
H1343 C1359 0.930 . S
H1344 C1360 0.931 . S
C1345 H1333 0.929 . S
C1345 C1339 1.390 . S
C1345 C1342 1.386 . S
C1346 C1341 1.490 . S
C1346 C1348 1.395 . S
C1346 C1349 1.403 . S
H1347 C1353 0.930 . S
C1348 H1334 0.930 . S
C1348 C1346 1.395 . S
C1348 C1351 1.403 . S
C1349 C1346 1.403 . S
C1349 C1350 1.524 . S
C1349 C1353 1.400 . S
C1350 H1335 0.960 . S
C1350 H1336 0.960 . S
C1350 H1337 0.960 . S
C1350 C1349 1.524 . S
C1351 C1348 1.403 . S
C1351 C1352 1.392 . S
C1351 C1355 1.495 . S
C1352 C1351 1.392 . S
C1352 C1353 1.385 . S
C1352 C1354 1.478 . S
C1353 H1347 0.930 . S
C1353 C1349 1.400 . S
C1353 C1352 1.385 . S
C1354 C1352 1.478 . S
C1354 C1356 1.381 . S
C1354 C1360 1.383 . S
C1355 C1351 1.495 . S
C1355 H1361 0.959 . S
C1355 H1362 0.961 . S
C1355 H1363 0.960 . S
C1356 C1354 1.381 . S
C1356 C1357 1.394 . S
C1356 H1364 0.930 . S
C1357 C1356 1.394 . S
C1357 C1358 1.383 . S
C1357 H1365 0.929 . S
C1358 C1357 1.383 . S
C1358 C1359 1.377 . S
C1359 H1343 0.930 . S
C1359 C1358 1.377 . S
C1359 C1360 1.379 . S
C1360 H1344 0.931 . S
C1360 C1354 1.383 . S
C1360 C1359 1.379 . S
H1361 C1355 0.959 . S
H1362 C1355 0.961 . S
H1363 C1355 0.960 . S
H1364 C1356 0.930 . S
H1365 C1357 0.929 . S
H1366 C1374 0.929 . S
H1367 C1376 0.930 . S
H1368 C1378 0.930 . S
H1369 C1381 0.929 . S
H1370 C1384 0.930 . S
H1371 C1386 0.960 . S
H1372 C1386 0.960 . S
H1373 C1386 0.960 . S
C1374 H1366 0.929 . S
C1374 C1375 1.377 . S
C1374 C1376 1.384 . S
C1375 C1374 1.377 . S
C1375 C1381 1.390 . S
C1376 H1367 0.930 . S
C1376 C1374 1.384 . S
C1376 C1377 1.372 . S
C1377 C1376 1.372 . S
C1377 C1378 1.400 . S
C1377 C1382 1.490 . S
C1378 H1368 0.930 . S
C1378 C1377 1.400 . S
C1378 C1381 1.386 . S
H1379 C1395 0.930 . S
H1380 C1396 0.931 . S
C1381 H1369 0.929 . S
C1381 C1375 1.390 . S
C1381 C1378 1.386 . S
C1382 C1377 1.490 . S
C1382 C1384 1.395 . S
C1382 C1385 1.403 . S
H1383 C1389 0.930 . S
C1384 H1370 0.930 . S
C1384 C1382 1.395 . S
C1384 C1387 1.403 . S
C1385 C1382 1.403 . S
C1385 C1386 1.524 . S
C1385 C1389 1.400 . S
C1386 H1371 0.960 . S
C1386 H1372 0.960 . S
C1386 H1373 0.960 . S
C1386 C1385 1.524 . S
C1387 C1384 1.403 . S
C1387 C1388 1.392 . S
C1387 C1391 1.495 . S
C1388 C1387 1.392 . S
C1388 C1389 1.385 . S
C1388 C1390 1.478 . S
C1389 H1383 0.930 . S
C1389 C1385 1.400 . S
C1389 C1388 1.385 . S
C1390 C1388 1.478 . S
C1390 C1392 1.381 . S
C1390 C1396 1.383 . S
C1391 C1387 1.495 . S
C1391 H1397 0.959 . S
C1391 H1398 0.961 . S
C1391 H1399 0.960 . S
C1392 C1390 1.381 . S
C1392 C1393 1.394 . S
C1392 H1400 0.930 . S
C1393 C1392 1.394 . S
C1393 C1394 1.383 . S
C1393 H1401 0.929 . S
C1394 C1393 1.383 . S
C1394 C1395 1.377 . S
C1395 H1379 0.930 . S
C1395 C1394 1.377 . S
C1395 C1396 1.379 . S
C1396 H1380 0.931 . S
C1396 C1390 1.383 . S
C1396 C1395 1.379 . S
H1397 C1391 0.959 . S
H1398 C1391 0.961 . S
H1399 C1391 0.960 . S
H1400 C1392 0.930 . S
H1401 C1393 0.929 . S
H1402 C1410 0.929 . S
H1403 C1412 0.930 . S
H1404 C1414 0.930 . S
H1405 C1417 0.929 . S
H1406 C1420 0.930 . S
H1407 C1422 0.960 . S
H1408 C1422 0.960 . S
H1409 C1422 0.960 . S
C1410 H1402 0.929 . S
C1410 C1411 1.377 . S
C1410 C1412 1.384 . S
C1411 C1410 1.377 . S
C1411 C1417 1.390 . S
C1412 H1403 0.930 . S
C1412 C1410 1.384 . S
C1412 C1413 1.372 . S
C1413 C1412 1.372 . S
C1413 C1414 1.400 . S
C1413 C1418 1.490 . S
C1414 H1404 0.930 . S
C1414 C1413 1.400 . S
C1414 C1417 1.386 . S
H1415 C1431 0.930 . S
H1416 C1432 0.931 . S
C1417 H1405 0.929 . S
C1417 C1411 1.390 . S
C1417 C1414 1.386 . S
C1418 C1413 1.490 . S
C1418 C1420 1.395 . S
C1418 C1421 1.403 . S
H1419 C1425 0.930 . S
C1420 H1406 0.930 . S
C1420 C1418 1.395 . S
C1420 C1423 1.403 . S
C1421 C1418 1.403 . S
C1421 C1422 1.524 . S
C1421 C1425 1.400 . S
C1422 H1407 0.960 . S
C1422 H1408 0.960 . S
C1422 H1409 0.960 . S
C1422 C1421 1.524 . S
C1423 C1420 1.403 . S
C1423 C1424 1.392 . S
C1423 C1427 1.495 . S
C1424 C1423 1.392 . S
C1424 C1425 1.385 . S
C1424 C1426 1.478 . S
C1425 H1419 0.930 . S
C1425 C1421 1.400 . S
C1425 C1424 1.385 . S
C1426 C1424 1.478 . S
C1426 C1428 1.381 . S
C1426 C1432 1.383 . S
C1427 C1423 1.495 . S
C1427 H1433 0.959 . S
C1427 H1434 0.961 . S
C1427 H1435 0.960 . S
C1428 C1426 1.381 . S
C1428 C1429 1.394 . S
C1428 H1436 0.930 . S
C1429 C1428 1.394 . S
C1429 C1430 1.383 . S
C1429 H1437 0.929 . S
C1430 C1429 1.383 . S
C1430 C1431 1.377 . S
C1431 H1415 0.930 . S
C1431 C1430 1.377 . S
C1431 C1432 1.379 . S
C1432 H1416 0.931 . S
C1432 C1426 1.383 . S
C1432 C1431 1.379 . S
H1433 C1427 0.959 . S
H1434 C1427 0.961 . S
H1435 C1427 0.960 . S
H1436 C1428 0.930 . S
H1437 C1429 0.929 . S
H1438 C1446 0.929 . S
H1439 C1448 0.930 . S
H1440 C1450 0.930 . S
H1441 C1453 0.929 . S
H1442 C1456 0.930 . S
H1443 C1458 0.960 . S
H1444 C1458 0.960 . S
H1445 C1458 0.960 . S
C1446 H1438 0.929 . S
C1446 C1447 1.377 . S
C1446 C1448 1.384 . S
C1447 C1446 1.377 . S
C1447 C1453 1.390 . S
C1448 H1439 0.930 . S
C1448 C1446 1.384 . S
C1448 C1449 1.372 . S
C1449 C1448 1.372 . S
C1449 C1450 1.400 . S
C1449 C1454 1.490 . S
C1450 H1440 0.930 . S
C1450 C1449 1.400 . S
C1450 C1453 1.386 . S
H1451 C1467 0.930 . S
H1452 C1468 0.931 . S
C1453 H1441 0.929 . S
C1453 C1447 1.390 . S
C1453 C1450 1.386 . S
C1454 C1449 1.490 . S
C1454 C1456 1.395 . S
C1454 C1457 1.403 . S
H1455 C1461 0.930 . S
C1456 H1442 0.930 . S
C1456 C1454 1.395 . S
C1456 C1459 1.403 . S
C1457 C1454 1.403 . S
C1457 C1458 1.524 . S
C1457 C1461 1.400 . S
C1458 H1443 0.960 . S
C1458 H1444 0.960 . S
C1458 H1445 0.960 . S
C1458 C1457 1.524 . S
C1459 C1456 1.403 . S
C1459 C1460 1.392 . S
C1459 C1463 1.495 . S
C1460 C1459 1.392 . S
C1460 C1461 1.385 . S
C1460 C1462 1.478 . S
C1461 H1455 0.930 . S
C1461 C1457 1.400 . S
C1461 C1460 1.385 . S
C1462 C1460 1.478 . S
C1462 C1464 1.381 . S
C1462 C1468 1.383 . S
C1463 C1459 1.495 . S
C1463 H1469 0.959 . S
C1463 H1470 0.961 . S
C1463 H1471 0.960 . S
C1464 C1462 1.381 . S
C1464 C1465 1.394 . S
C1464 H1472 0.930 . S
C1465 C1464 1.394 . S
C1465 C1466 1.383 . S
C1465 H1473 0.929 . S
C1466 C1465 1.383 . S
C1466 C1467 1.377 . S
C1467 H1451 0.930 . S
C1467 C1466 1.377 . S
C1467 C1468 1.379 . S
C1468 H1452 0.931 . S
C1468 C1462 1.383 . S
C1468 C1467 1.379 . S
H1469 C1463 0.959 . S
H1470 C1463 0.961 . S
H1471 C1463 0.960 . S
H1472 C1464 0.930 . S
H1473 C1465 0.929 . S
H1474 C1482 0.929 . S
H1475 C1484 0.930 . S
H1476 C1486 0.930 . S
H1477 C1489 0.929 . S
H1478 C1492 0.930 . S
H1479 C1494 0.960 . S
H1480 C1494 0.960 . S
H1481 C1494 0.960 . S
C1482 H1474 0.929 . S
C1482 C1483 1.377 . S
C1482 C1484 1.384 . S
C1483 C1482 1.377 . S
C1483 C1489 1.390 . S
C1484 H1475 0.930 . S
C1484 C1482 1.384 . S
C1484 C1485 1.372 . S
C1485 C1484 1.372 . S
C1485 C1486 1.400 . S
C1485 C1490 1.490 . S
C1486 H1476 0.930 . S
C1486 C1485 1.400 . S
C1486 C1489 1.386 . S
H1487 C1503 0.930 . S
H1488 C1504 0.931 . S
C1489 H1477 0.929 . S
C1489 C1483 1.390 . S
C1489 C1486 1.386 . S
C1490 C1485 1.490 . S
C1490 C1492 1.395 . S
C1490 C1493 1.403 . S
H1491 C1497 0.930 . S
C1492 H1478 0.930 . S
C1492 C1490 1.395 . S
C1492 C1495 1.403 . S
C1493 C1490 1.403 . S
C1493 C1494 1.524 . S
C1493 C1497 1.400 . S
C1494 H1479 0.960 . S
C1494 H1480 0.960 . S
C1494 H1481 0.960 . S
C1494 C1493 1.524 . S
C1495 C1492 1.403 . S
C1495 C1496 1.392 . S
C1495 C1499 1.495 . S
C1496 C1495 1.392 . S
C1496 C1497 1.385 . S
C1496 C1498 1.478 . S
C1497 H1491 0.930 . S
C1497 C1493 1.400 . S
C1497 C1496 1.385 . S
C1498 C1496 1.478 . S
C1498 C1500 1.381 . S
C1498 C1504 1.383 . S
C1499 C1495 1.495 . S
C1499 H1505 0.959 . S
C1499 H1506 0.961 . S
C1499 H1507 0.960 . S
C1500 C1498 1.381 . S
C1500 C1501 1.394 . S
C1500 H1508 0.930 . S
C1501 C1500 1.394 . S
C1501 C1502 1.383 . S
C1501 H1509 0.929 . S
C1502 C1501 1.383 . S
C1502 C1503 1.377 . S
C1503 H1487 0.930 . S
C1503 C1502 1.377 . S
C1503 C1504 1.379 . S
C1504 H1488 0.931 . S
C1504 C1498 1.383 . S
C1504 C1503 1.379 . S
H1505 C1499 0.959 . S
H1506 C1499 0.961 . S
H1507 C1499 0.960 . S
H1508 C1500 0.930 . S
H1509 C1501 0.929 . S
H1510 C1518 0.929 . S
H1511 C1520 0.930 . S
H1512 C1522 0.930 . S
H1513 C1525 0.929 . S
H1514 C1528 0.930 . S
H1515 C1530 0.960 . S
H1516 C1530 0.960 . S
H1517 C1530 0.960 . S
C1518 H1510 0.929 . S
C1518 C1519 1.377 . S
C1518 C1520 1.384 . S
C1519 C1518 1.377 . S
C1519 C1525 1.390 . S
C1520 H1511 0.930 . S
C1520 C1518 1.384 . S
C1520 C1521 1.372 . S
C1521 C1520 1.372 . S
C1521 C1522 1.400 . S
C1521 C1526 1.490 . S
C1522 H1512 0.930 . S
C1522 C1521 1.400 . S
C1522 C1525 1.386 . S
H1523 C1539 0.930 . S
H1524 C1540 0.931 . S
C1525 H1513 0.929 . S
C1525 C1519 1.390 . S
C1525 C1522 1.386 . S
C1526 C1521 1.490 . S
C1526 C1528 1.395 . S
C1526 C1529 1.403 . S
H1527 C1533 0.930 . S
C1528 H1514 0.930 . S
C1528 C1526 1.395 . S
C1528 C1531 1.403 . S
C1529 C1526 1.403 . S
C1529 C1530 1.524 . S
C1529 C1533 1.400 . S
C1530 H1515 0.960 . S
C1530 H1516 0.960 . S
C1530 H1517 0.960 . S
C1530 C1529 1.524 . S
C1531 C1528 1.403 . S
C1531 C1532 1.392 . S
C1531 C1535 1.495 . S
C1532 C1531 1.392 . S
C1532 C1533 1.385 . S
C1532 C1534 1.478 . S
C1533 H1527 0.930 . S
C1533 C1529 1.400 . S
C1533 C1532 1.385 . S
C1534 C1532 1.478 . S
C1534 C1536 1.381 . S
C1534 C1540 1.383 . S
C1535 C1531 1.495 . S
C1535 H1541 0.959 . S
C1535 H1542 0.961 . S
C1535 H1543 0.960 . S
C1536 C1534 1.381 . S
C1536 C1537 1.394 . S
C1536 H1544 0.930 . S
C1537 C1536 1.394 . S
C1537 C1538 1.383 . S
C1537 H1545 0.929 . S
C1538 C1537 1.383 . S
C1538 C1539 1.377 . S
C1539 H1523 0.930 . S
C1539 C1538 1.377 . S
C1539 C1540 1.379 . S
C1540 H1524 0.931 . S
C1540 C1534 1.383 . S
C1540 C1539 1.379 . S
H1541 C1535 0.959 . S
H1542 C1535 0.961 . S
H1543 C1535 0.960 . S
H1544 C1536 0.930 . S
H1545 C1537 0.929 . S
H1546 C1554 0.929 . S
H1547 C1556 0.930 . S
H1548 C1558 0.930 . S
H1549 C1561 0.929 . S
H1550 C1564 0.930 . S
H1551 C1566 0.960 . S
H1552 C1566 0.960 . S
H1553 C1566 0.960 . S
C1554 H1546 0.929 . S
C1554 C1555 1.377 . S
C1554 C1556 1.384 . S
C1555 C1554 1.377 . S
C1555 C1561 1.390 . S
C1556 H1547 0.930 . S
C1556 C1554 1.384 . S
C1556 C1557 1.372 . S
C1557 C1556 1.372 . S
C1557 C1558 1.400 . S
C1557 C1562 1.490 . S
C1558 H1548 0.930 . S
C1558 C1557 1.400 . S
C1558 C1561 1.386 . S
H1559 C1575 0.930 . S
H1560 C1576 0.931 . S
C1561 H1549 0.929 . S
C1561 C1555 1.390 . S
C1561 C1558 1.386 . S
C1562 C1557 1.490 . S
C1562 C1564 1.395 . S
C1562 C1565 1.403 . S
H1563 C1569 0.930 . S
C1564 H1550 0.930 . S
C1564 C1562 1.395 . S
C1564 C1567 1.403 . S
C1565 C1562 1.403 . S
C1565 C1566 1.524 . S
C1565 C1569 1.400 . S
C1566 H1551 0.960 . S
C1566 H1552 0.960 . S
C1566 H1553 0.960 . S
C1566 C1565 1.524 . S
C1567 C1564 1.403 . S
C1567 C1568 1.392 . S
C1567 C1571 1.495 . S
C1568 C1567 1.392 . S
C1568 C1569 1.385 . S
C1568 C1570 1.478 . S
C1569 H1563 0.930 . S
C1569 C1565 1.400 . S
C1569 C1568 1.385 . S
C1570 C1568 1.478 . S
C1570 C1572 1.381 . S
C1570 C1576 1.383 . S
C1571 C1567 1.495 . S
C1571 H1577 0.959 . S
C1571 H1578 0.961 . S
C1571 H1579 0.960 . S
C1572 C1570 1.381 . S
C1572 C1573 1.394 . S
C1572 H1580 0.930 . S
C1573 C1572 1.394 . S
C1573 C1574 1.383 . S
C1573 H1581 0.929 . S
C1574 C1573 1.383 . S
C1574 C1575 1.377 . S
C1575 H1559 0.930 . S
C1575 C1574 1.377 . S
C1575 C1576 1.379 . S
C1576 H1560 0.931 . S
C1576 C1570 1.383 . S
C1576 C1575 1.379 . S
H1577 C1571 0.959 . S
H1578 C1571 0.961 . S
H1579 C1571 0.960 . S
H1580 C1572 0.930 . S
H1581 C1573 0.929 . S
H1582 C1590 0.929 . S
H1583 C1592 0.930 . S
H1584 C1594 0.930 . S
H1585 C1597 0.929 . S
H1586 C1600 0.930 . S
H1587 C1602 0.960 . S
H1588 C1602 0.960 . S
H1589 C1602 0.960 . S
C1590 H1582 0.929 . S
C1590 C1591 1.377 . S
C1590 C1592 1.384 . S
C1591 C1590 1.377 . S
C1591 C1597 1.390 . S
C1592 H1583 0.930 . S
C1592 C1590 1.384 . S
C1592 C1593 1.372 . S
C1593 C1592 1.372 . S
C1593 C1594 1.400 . S
C1593 C1598 1.490 . S
C1594 H1584 0.930 . S
C1594 C1593 1.400 . S
C1594 C1597 1.386 . S
H1595 C1611 0.930 . S
H1596 C1612 0.931 . S
C1597 H1585 0.929 . S
C1597 C1591 1.390 . S
C1597 C1594 1.386 . S
C1598 C1593 1.490 . S
C1598 C1600 1.395 . S
C1598 C1601 1.403 . S
H1599 C1605 0.930 . S
C1600 H1586 0.930 . S
C1600 C1598 1.395 . S
C1600 C1603 1.403 . S
C1601 C1598 1.403 . S
C1601 C1602 1.524 . S
C1601 C1605 1.400 . S
C1602 H1587 0.960 . S
C1602 H1588 0.960 . S
C1602 H1589 0.960 . S
C1602 C1601 1.524 . S
C1603 C1600 1.403 . S
C1603 C1604 1.392 . S
C1603 C1607 1.495 . S
C1604 C1603 1.392 . S
C1604 C1605 1.385 . S
C1604 C1606 1.478 . S
C1605 H1599 0.930 . S
C1605 C1601 1.400 . S
C1605 C1604 1.385 . S
C1606 C1604 1.478 . S
C1606 C1608 1.381 . S
C1606 C1612 1.383 . S
C1607 C1603 1.495 . S
C1607 H1613 0.959 . S
C1607 H1614 0.961 . S
C1607 H1615 0.960 . S
C1608 C1606 1.381 . S
C1608 C1609 1.394 . S
C1608 H1616 0.930 . S
C1609 C1608 1.394 . S
C1609 C1610 1.383 . S
C1609 H1617 0.929 . S
C1610 C1609 1.383 . S
C1610 C1611 1.377 . S
C1611 H1595 0.930 . S
C1611 C1610 1.377 . S
C1611 C1612 1.379 . S
C1612 H1596 0.931 . S
C1612 C1606 1.383 . S
C1612 C1611 1.379 . S
H1613 C1607 0.959 . S
H1614 C1607 0.961 . S
H1615 C1607 0.960 . S
H1616 C1608 0.930 . S
H1617 C1609 0.929 . S
H1618 C1626 0.929 . S
H1619 C1628 0.930 . S
H1620 C1630 0.930 . S
H1621 C1633 0.929 . S
H1622 C1636 0.930 . S
H1623 C1638 0.960 . S
H1624 C1638 0.960 . S
H1625 C1638 0.960 . S
C1626 H1618 0.929 . S
C1626 C1627 1.377 . S
C1626 C1628 1.384 . S
C1627 C1626 1.377 . S
C1627 C1633 1.390 . S
C1628 H1619 0.930 . S
C1628 C1626 1.384 . S
C1628 C1629 1.372 . S
C1629 C1628 1.372 . S
C1629 C1630 1.400 . S
C1629 C1634 1.490 . S
C1630 H1620 0.930 . S
C1630 C1629 1.400 . S
C1630 C1633 1.386 . S
H1631 C1647 0.930 . S
H1632 C1648 0.931 . S
C1633 H1621 0.929 . S
C1633 C1627 1.390 . S
C1633 C1630 1.386 . S
C1634 C1629 1.490 . S
C1634 C1636 1.395 . S
C1634 C1637 1.403 . S
H1635 C1641 0.930 . S
C1636 H1622 0.930 . S
C1636 C1634 1.395 . S
C1636 C1639 1.403 . S
C1637 C1634 1.403 . S
C1637 C1638 1.524 . S
C1637 C1641 1.400 . S
C1638 H1623 0.960 . S
C1638 H1624 0.960 . S
C1638 H1625 0.960 . S
C1638 C1637 1.524 . S
C1639 C1636 1.403 . S
C1639 C1640 1.392 . S
C1639 C1643 1.495 . S
C1640 C1639 1.392 . S
C1640 C1641 1.385 . S
C1640 C1642 1.478 . S
C1641 H1635 0.930 . S
C1641 C1637 1.400 . S
C1641 C1640 1.385 . S
C1642 C1640 1.478 . S
C1642 C1644 1.381 . S
C1642 C1648 1.383 . S
C1643 C1639 1.495 . S
C1643 H1649 0.959 . S
C1643 H1650 0.961 . S
C1643 H1651 0.960 . S
C1644 C1642 1.381 . S
C1644 C1645 1.394 . S
C1644 H1652 0.930 . S
C1645 C1644 1.394 . S
C1645 C1646 1.383 . S
C1645 H1653 0.929 . S
C1646 C1645 1.383 . S
C1646 C1647 1.377 . S
C1647 H1631 0.930 . S
C1647 C1646 1.377 . S
C1647 C1648 1.379 . S
C1648 H1632 0.931 . S
C1648 C1642 1.383 . S
C1648 C1647 1.379 . S
H1649 C1643 0.959 . S
H1650 C1643 0.961 . S
H1651 C1643 0.960 . S
H1652 C1644 0.930 . S
H1653 C1645 0.929 . S
H1654 C1662 0.929 . S
H1655 C1664 0.930 . S
H1656 C1666 0.930 . S
H1657 C1669 0.929 . S
H1658 C1672 0.930 . S
H1659 C1674 0.960 . S
H1660 C1674 0.960 . S
H1661 C1674 0.960 . S
C1662 H1654 0.929 . S
C1662 C1663 1.377 . S
C1662 C1664 1.384 . S
C1663 C1662 1.377 . S
C1663 C1669 1.390 . S
C1664 H1655 0.930 . S
C1664 C1662 1.384 . S
C1664 C1665 1.372 . S
C1665 C1664 1.372 . S
C1665 C1666 1.400 . S
C1665 C1670 1.490 . S
C1666 H1656 0.930 . S
C1666 C1665 1.400 . S
C1666 C1669 1.386 . S
H1667 C1683 0.930 . S
H1668 C1684 0.931 . S
C1669 H1657 0.929 . S
C1669 C1663 1.390 . S
C1669 C1666 1.386 . S
C1670 C1665 1.490 . S
C1670 C1672 1.395 . S
C1670 C1673 1.403 . S
H1671 C1677 0.930 . S
C1672 H1658 0.930 . S
C1672 C1670 1.395 . S
C1672 C1675 1.403 . S
C1673 C1670 1.403 . S
C1673 C1674 1.524 . S
C1673 C1677 1.400 . S
C1674 H1659 0.960 . S
C1674 H1660 0.960 . S
C1674 H1661 0.960 . S
C1674 C1673 1.524 . S
C1675 C1672 1.403 . S
C1675 C1676 1.392 . S
C1675 C1679 1.495 . S
C1676 C1675 1.392 . S
C1676 C1677 1.385 . S
C1676 C1678 1.478 . S
C1677 H1671 0.930 . S
C1677 C1673 1.400 . S
C1677 C1676 1.385 . S
C1678 C1676 1.478 . S
C1678 C1680 1.381 . S
C1678 C1684 1.383 . S
C1679 C1675 1.495 . S
C1679 H1685 0.959 . S
C1679 H1686 0.961 . S
C1679 H1687 0.960 . S
C1680 C1678 1.381 . S
C1680 C1681 1.394 . S
C1680 H1688 0.930 . S
C1681 C1680 1.394 . S
C1681 C1682 1.383 . S
C1681 H1689 0.929 . S
C1682 C1681 1.383 . S
C1682 C1683 1.377 . S
C1683 H1667 0.930 . S
C1683 C1682 1.377 . S
C1683 C1684 1.379 . S
C1684 H1668 0.931 . S
C1684 C1678 1.383 . S
C1684 C1683 1.379 . S
H1685 C1679 0.959 . S
H1686 C1679 0.961 . S
H1687 C1679 0.960 . S
H1688 C1680 0.930 . S
H1689 C1681 0.929 . S
H1690 C1698 0.929 . S
H1691 C1700 0.930 . S
H1692 C1702 0.930 . S
H1693 C1705 0.929 . S
H1694 C1708 0.930 . S
H1695 C1710 0.960 . S
H1696 C1710 0.960 . S
H1697 C1710 0.960 . S
C1698 H1690 0.929 . S
C1698 C1699 1.377 . S
C1698 C1700 1.384 . S
C1699 C1698 1.377 . S
C1699 C1705 1.390 . S
C1700 H1691 0.930 . S
C1700 C1698 1.384 . S
C1700 C1701 1.372 . S
C1701 C1700 1.372 . S
C1701 C1702 1.400 . S
C1701 C1706 1.490 . S
C1702 H1692 0.930 . S
C1702 C1701 1.400 . S
C1702 C1705 1.386 . S
H1703 C1719 0.930 . S
H1704 C1720 0.931 . S
C1705 H1693 0.929 . S
C1705 C1699 1.390 . S
C1705 C1702 1.386 . S
C1706 C1701 1.490 . S
C1706 C1708 1.395 . S
C1706 C1709 1.403 . S
H1707 C1713 0.930 . S
C1708 H1694 0.930 . S
C1708 C1706 1.395 . S
C1708 C1711 1.403 . S
C1709 C1706 1.403 . S
C1709 C1710 1.524 . S
C1709 C1713 1.400 . S
C1710 H1695 0.960 . S
C1710 H1696 0.960 . S
C1710 H1697 0.960 . S
C1710 C1709 1.524 . S
C1711 C1708 1.403 . S
C1711 C1712 1.392 . S
C1711 C1715 1.495 . S
C1712 C1711 1.392 . S
C1712 C1713 1.385 . S
C1712 C1714 1.478 . S
C1713 H1707 0.930 . S
C1713 C1709 1.400 . S
C1713 C1712 1.385 . S
C1714 C1712 1.478 . S
C1714 C1716 1.381 . S
C1714 C1720 1.383 . S
C1715 C1711 1.495 . S
C1715 H1721 0.959 . S
C1715 H1722 0.961 . S
C1715 H1723 0.960 . S
C1716 C1714 1.381 . S
C1716 C1717 1.394 . S
C1716 H1724 0.930 . S
C1717 C1716 1.394 . S
C1717 C1718 1.383 . S
C1717 H1725 0.929 . S
C1718 C1717 1.383 . S
C1718 C1719 1.377 . S
C1719 H1703 0.930 . S
C1719 C1718 1.377 . S
C1719 C1720 1.379 . S
C1720 H1704 0.931 . S
C1720 C1714 1.383 . S
C1720 C1719 1.379 . S
H1721 C1715 0.959 . S
H1722 C1715 0.961 . S
H1723 C1715 0.960 . S
H1724 C1716 0.930 . S
H1725 C1717 0.929 . S
H1726 C1734 0.929 . S
H1727 C1736 0.930 . S
H1728 C1738 0.930 . S
H1729 C1741 0.929 . S
H1730 C1744 0.930 . S
H1731 C1746 0.960 . S
H1732 C1746 0.960 . S
H1733 C1746 0.960 . S
C1734 H1726 0.929 . S
C1734 C1735 1.377 . S
C1734 C1736 1.384 . S
C1735 C1734 1.377 . S
C1735 C1741 1.390 . S
C1736 H1727 0.930 . S
C1736 C1734 1.384 . S
C1736 C1737 1.372 . S
C1737 C1736 1.372 . S
C1737 C1738 1.400 . S
C1737 C1742 1.490 . S
C1738 H1728 0.930 . S
C1738 C1737 1.400 . S
C1738 C1741 1.386 . S
H1739 C1755 0.930 . S
H1740 C1756 0.931 . S
C1741 H1729 0.929 . S
C1741 C1735 1.390 . S
C1741 C1738 1.386 . S
C1742 C1737 1.490 . S
C1742 C1744 1.395 . S
C1742 C1745 1.403 . S
H1743 C1749 0.930 . S
C1744 H1730 0.930 . S
C1744 C1742 1.395 . S
C1744 C1747 1.403 . S
C1745 C1742 1.403 . S
C1745 C1746 1.524 . S
C1745 C1749 1.400 . S
C1746 H1731 0.960 . S
C1746 H1732 0.960 . S
C1746 H1733 0.960 . S
C1746 C1745 1.524 . S
C1747 C1744 1.403 . S
C1747 C1748 1.392 . S
C1747 C1751 1.495 . S
C1748 C1747 1.392 . S
C1748 C1749 1.385 . S
C1748 C1750 1.478 . S
C1749 H1743 0.930 . S
C1749 C1745 1.400 . S
C1749 C1748 1.385 . S
C1750 C1748 1.478 . S
C1750 C1752 1.381 . S
C1750 C1756 1.383 . S
C1751 C1747 1.495 . S
C1751 H1757 0.959 . S
C1751 H1758 0.961 . S
C1751 H1759 0.960 . S
C1752 C1750 1.381 . S
C1752 C1753 1.394 . S
C1752 H1760 0.930 . S
C1753 C1752 1.394 . S
C1753 C1754 1.383 . S
C1753 H1761 0.929 . S
C1754 C1753 1.383 . S
C1754 C1755 1.377 . S
C1755 H1739 0.930 . S
C1755 C1754 1.377 . S
C1755 C1756 1.379 . S
C1756 H1740 0.931 . S
C1756 C1750 1.383 . S
C1756 C1755 1.379 . S
H1757 C1751 0.959 . S
H1758 C1751 0.961 . S
H1759 C1751 0.960 . S
H1760 C1752 0.930 . S
H1761 C1753 0.929 . S
H1762 C1770 0.929 . S
H1763 C1772 0.930 . S
H1764 C1774 0.930 . S
H1765 C1777 0.929 . S
H1766 C1780 0.930 . S
H1767 C1782 0.960 . S
H1768 C1782 0.960 . S
H1769 C1782 0.960 . S
C1770 H1762 0.929 . S
C1770 C1771 1.377 . S
C1770 C1772 1.384 . S
C1771 C1770 1.377 . S
C1771 C1777 1.390 . S
C1772 H1763 0.930 . S
C1772 C1770 1.384 . S
C1772 C1773 1.372 . S
C1773 C1772 1.372 . S
C1773 C1774 1.400 . S
C1773 C1778 1.490 . S
C1774 H1764 0.930 . S
C1774 C1773 1.400 . S
C1774 C1777 1.386 . S
H1775 C1791 0.930 . S
H1776 C1792 0.931 . S
C1777 H1765 0.929 . S
C1777 C1771 1.390 . S
C1777 C1774 1.386 . S
C1778 C1773 1.490 . S
C1778 C1780 1.395 . S
C1778 C1781 1.403 . S
H1779 C1785 0.930 . S
C1780 H1766 0.930 . S
C1780 C1778 1.395 . S
C1780 C1783 1.403 . S
C1781 C1778 1.403 . S
C1781 C1782 1.524 . S
C1781 C1785 1.400 . S
C1782 H1767 0.960 . S
C1782 H1768 0.960 . S
C1782 H1769 0.960 . S
C1782 C1781 1.524 . S
C1783 C1780 1.403 . S
C1783 C1784 1.392 . S
C1783 C1787 1.495 . S
C1784 C1783 1.392 . S
C1784 C1785 1.385 . S
C1784 C1786 1.478 . S
C1785 H1779 0.930 . S
C1785 C1781 1.400 . S
C1785 C1784 1.385 . S
C1786 C1784 1.478 . S
C1786 C1788 1.381 . S
C1786 C1792 1.383 . S
C1787 C1783 1.495 . S
C1787 H1793 0.959 . S
C1787 H1794 0.961 . S
C1787 H1795 0.960 . S
C1788 C1786 1.381 . S
C1788 C1789 1.394 . S
C1788 H1796 0.930 . S
C1789 C1788 1.394 . S
C1789 C1790 1.383 . S
C1789 H1797 0.929 . S
C1790 C1789 1.383 . S
C1790 C1791 1.377 . S
C1791 H1775 0.930 . S
C1791 C1790 1.377 . S
C1791 C1792 1.379 . S
C1792 H1776 0.931 . S
C1792 C1786 1.383 . S
C1792 C1791 1.379 . S
H1793 C1787 0.959 . S
H1794 C1787 0.961 . S
H1795 C1787 0.960 . S
H1796 C1788 0.930 . S
H1797 C1789 0.929 . S
H1798 C1806 0.929 . S
H1799 C1808 0.930 . S
H1800 C1810 0.930 . S
H1801 C1813 0.929 . S
H1802 C1816 0.930 . S
H1803 C1818 0.960 . S
H1804 C1818 0.960 . S
H1805 C1818 0.960 . S
C1806 H1798 0.929 . S
C1806 C1807 1.377 . S
C1806 C1808 1.384 . S
C1807 C1806 1.377 . S
C1807 C1813 1.390 . S
C1808 H1799 0.930 . S
C1808 C1806 1.384 . S
C1808 C1809 1.372 . S
C1809 C1808 1.372 . S
C1809 C1810 1.400 . S
C1809 C1814 1.490 . S
C1810 H1800 0.930 . S
C1810 C1809 1.400 . S
C1810 C1813 1.386 . S
H1811 C1827 0.930 . S
H1812 C1828 0.931 . S
C1813 H1801 0.929 . S
C1813 C1807 1.390 . S
C1813 C1810 1.386 . S
C1814 C1809 1.490 . S
C1814 C1816 1.395 . S
C1814 C1817 1.403 . S
H1815 C1821 0.930 . S
C1816 H1802 0.930 . S
C1816 C1814 1.395 . S
C1816 C1819 1.403 . S
C1817 C1814 1.403 . S
C1817 C1818 1.524 . S
C1817 C1821 1.400 . S
C1818 H1803 0.960 . S
C1818 H1804 0.960 . S
C1818 H1805 0.960 . S
C1818 C1817 1.524 . S
C1819 C1816 1.403 . S
C1819 C1820 1.392 . S
C1819 C1823 1.495 . S
C1820 C1819 1.392 . S
C1820 C1821 1.385 . S
C1820 C1822 1.478 . S
C1821 H1815 0.930 . S
C1821 C1817 1.400 . S
C1821 C1820 1.385 . S
C1822 C1820 1.478 . S
C1822 C1824 1.381 . S
C1822 C1828 1.383 . S
C1823 C1819 1.495 . S
C1823 H1829 0.959 . S
C1823 H1830 0.961 . S
C1823 H1831 0.960 . S
C1824 C1822 1.381 . S
C1824 C1825 1.394 . S
C1824 H1832 0.930 . S
C1825 C1824 1.394 . S
C1825 C1826 1.383 . S
C1825 H1833 0.929 . S
C1826 C1825 1.383 . S
C1826 C1827 1.377 . S
C1827 H1811 0.930 . S
C1827 C1826 1.377 . S
C1827 C1828 1.379 . S
C1828 H1812 0.931 . S
C1828 C1822 1.383 . S
C1828 C1827 1.379 . S
H1829 C1823 0.959 . S
H1830 C1823 0.961 . S
H1831 C1823 0.960 . S
H1832 C1824 0.930 . S
H1833 C1825 0.929 . S
H1834 C1842 0.929 . S
H1835 C1844 0.930 . S
H1836 C1846 0.930 . S
H1837 C1849 0.929 . S
H1838 C1852 0.930 . S
H1839 C1854 0.960 . S
H1840 C1854 0.960 . S
H1841 C1854 0.960 . S
C1842 H1834 0.929 . S
C1842 C1843 1.377 . S
C1842 C1844 1.384 . S
C1843 C1842 1.377 . S
C1843 C1849 1.390 . S
C1844 H1835 0.930 . S
C1844 C1842 1.384 . S
C1844 C1845 1.372 . S
C1845 C1844 1.372 . S
C1845 C1846 1.400 . S
C1845 C1850 1.490 . S
C1846 H1836 0.930 . S
C1846 C1845 1.400 . S
C1846 C1849 1.386 . S
H1847 C1863 0.930 . S
H1848 C1864 0.931 . S
C1849 H1837 0.929 . S
C1849 C1843 1.390 . S
C1849 C1846 1.386 . S
C1850 C1845 1.490 . S
C1850 C1852 1.395 . S
C1850 C1853 1.403 . S
H1851 C1857 0.930 . S
C1852 H1838 0.930 . S
C1852 C1850 1.395 . S
C1852 C1855 1.403 . S
C1853 C1850 1.403 . S
C1853 C1854 1.524 . S
C1853 C1857 1.400 . S
C1854 H1839 0.960 . S
C1854 H1840 0.960 . S
C1854 H1841 0.960 . S
C1854 C1853 1.524 . S
C1855 C1852 1.403 . S
C1855 C1856 1.392 . S
C1855 C1859 1.495 . S
C1856 C1855 1.392 . S
C1856 C1857 1.385 . S
C1856 C1858 1.478 . S
C1857 H1851 0.930 . S
C1857 C1853 1.400 . S
C1857 C1856 1.385 . S
C1858 C1856 1.478 . S
C1858 C1860 1.381 . S
C1858 C1864 1.383 . S
C1859 C1855 1.495 . S
C1859 H1865 0.959 . S
C1859 H1866 0.961 . S
C1859 H1867 0.960 . S
C1860 C1858 1.381 . S
C1860 C1861 1.394 . S
C1860 H1868 0.930 . S
C1861 C1860 1.394 . S
C1861 C1862 1.383 . S
C1861 H1869 0.929 . S
C1862 C1861 1.383 . S
C1862 C1863 1.377 . S
C1863 H1847 0.930 . S
C1863 C1862 1.377 . S
C1863 C1864 1.379 . S
C1864 H1848 0.931 . S
C1864 C1858 1.383 . S
C1864 C1863 1.379 . S
H1865 C1859 0.959 . S
H1866 C1859 0.961 . S
H1867 C1859 0.960 . S
H1868 C1860 0.930 . S
H1869 C1861 0.929 . S
H1870 C1878 0.929 . S
H1871 C1880 0.930 . S
H1872 C1882 0.930 . S
H1873 C1885 0.929 . S
H1874 C1888 0.930 . S
H1875 C1890 0.960 . S
H1876 C1890 0.960 . S
H1877 C1890 0.960 . S
C1878 H1870 0.929 . S
C1878 C1879 1.377 . S
C1878 C1880 1.384 . S
C1879 C1878 1.377 . S
C1879 C1885 1.390 . S
C1880 H1871 0.930 . S
C1880 C1878 1.384 . S
C1880 C1881 1.372 . S
C1881 C1880 1.372 . S
C1881 C1882 1.400 . S
C1881 C1886 1.490 . S
C1882 H1872 0.930 . S
C1882 C1881 1.400 . S
C1882 C1885 1.386 . S
H1883 C1899 0.930 . S
H1884 C1900 0.931 . S
C1885 H1873 0.929 . S
C1885 C1879 1.390 . S
C1885 C1882 1.386 . S
C1886 C1881 1.490 . S
C1886 C1888 1.395 . S
C1886 C1889 1.403 . S
H1887 C1893 0.930 . S
C1888 H1874 0.930 . S
C1888 C1886 1.395 . S
C1888 C1891 1.403 . S
C1889 C1886 1.403 . S
C1889 C1890 1.524 . S
C1889 C1893 1.400 . S
C1890 H1875 0.960 . S
C1890 H1876 0.960 . S
C1890 H1877 0.960 . S
C1890 C1889 1.524 . S
C1891 C1888 1.403 . S
C1891 C1892 1.392 . S
C1891 C1895 1.495 . S
C1892 C1891 1.392 . S
C1892 C1893 1.385 . S
C1892 C1894 1.478 . S
C1893 H1887 0.930 . S
C1893 C1889 1.400 . S
C1893 C1892 1.385 . S
C1894 C1892 1.478 . S
C1894 C1896 1.381 . S
C1894 C1900 1.383 . S
C1895 C1891 1.495 . S
C1895 H1901 0.959 . S
C1895 H1902 0.961 . S
C1895 H1903 0.960 . S
C1896 C1894 1.381 . S
C1896 C1897 1.394 . S
C1896 H1904 0.930 . S
C1897 C1896 1.394 . S
C1897 C1898 1.383 . S
C1897 H1905 0.929 . S
C1898 C1897 1.383 . S
C1898 C1899 1.377 . S
C1899 H1883 0.930 . S
C1899 C1898 1.377 . S
C1899 C1900 1.379 . S
C1900 H1884 0.931 . S
C1900 C1894 1.383 . S
C1900 C1899 1.379 . S
H1901 C1895 0.959 . S
H1902 C1895 0.961 . S
H1903 C1895 0.960 . S
H1904 C1896 0.930 . S
H1905 C1897 0.929 . S
H1906 C1914 0.929 . S
H1907 C1916 0.930 . S
H1908 C1918 0.930 . S
H1909 C1921 0.929 . S
H1910 C1924 0.930 . S
H1911 C1926 0.960 . S
H1912 C1926 0.960 . S
H1913 C1926 0.960 . S
C1914 H1906 0.929 . S
C1914 C1915 1.377 . S
C1914 C1916 1.384 . S
C1915 C1914 1.377 . S
C1915 C1921 1.390 . S
C1916 H1907 0.930 . S
C1916 C1914 1.384 . S
C1916 C1917 1.372 . S
C1917 C1916 1.372 . S
C1917 C1918 1.400 . S
C1917 C1922 1.490 . S
C1918 H1908 0.930 . S
C1918 C1917 1.400 . S
C1918 C1921 1.386 . S
H1919 C1935 0.930 . S
H1920 C1936 0.931 . S
C1921 H1909 0.929 . S
C1921 C1915 1.390 . S
C1921 C1918 1.386 . S
C1922 C1917 1.490 . S
C1922 C1924 1.395 . S
C1922 C1925 1.403 . S
H1923 C1929 0.930 . S
C1924 H1910 0.930 . S
C1924 C1922 1.395 . S
C1924 C1927 1.403 . S
C1925 C1922 1.403 . S
C1925 C1926 1.524 . S
C1925 C1929 1.400 . S
C1926 H1911 0.960 . S
C1926 H1912 0.960 . S
C1926 H1913 0.960 . S
C1926 C1925 1.524 . S
C1927 C1924 1.403 . S
C1927 C1928 1.392 . S
C1927 C1931 1.495 . S
C1928 C1927 1.392 . S
C1928 C1929 1.385 . S
C1928 C1930 1.478 . S
C1929 H1923 0.930 . S
C1929 C1925 1.400 . S
C1929 C1928 1.385 . S
C1930 C1928 1.478 . S
C1930 C1932 1.381 . S
C1930 C1936 1.383 . S
C1931 C1927 1.495 . S
C1931 H1937 0.959 . S
C1931 H1938 0.961 . S
C1931 H1939 0.960 . S
C1932 C1930 1.381 . S
C1932 C1933 1.394 . S
C1932 H1940 0.930 . S
C1933 C1932 1.394 . S
C1933 C1934 1.383 . S
C1933 H1941 0.929 . S
C1934 C1933 1.383 . S
C1934 C1935 1.377 . S
C1935 H1919 0.930 . S
C1935 C1934 1.377 . S
C1935 C1936 1.379 . S
C1936 H1920 0.931 . S
C1936 C1930 1.383 . S
C1936 C1935 1.379 . S
H1937 C1931 0.959 . S
H1938 C1931 0.961 . S
H1939 C1931 0.960 . S
H1940 C1932 0.930 . S
H1941 C1933 0.929 . S
H1942 C1950 0.929 . S
H1943 C1952 0.930 . S
H1944 C1954 0.930 . S
H1945 C1957 0.929 . S
H1946 C1960 0.930 . S
H1947 C1962 0.960 . S
H1948 C1962 0.960 . S
H1949 C1962 0.960 . S
C1950 H1942 0.929 . S
C1950 C1951 1.377 . S
C1950 C1952 1.384 . S
C1951 C1950 1.377 . S
C1951 C1957 1.390 . S
C1952 H1943 0.930 . S
C1952 C1950 1.384 . S
C1952 C1953 1.372 . S
C1953 C1952 1.372 . S
C1953 C1954 1.400 . S
C1953 C1958 1.490 . S
C1954 H1944 0.930 . S
C1954 C1953 1.400 . S
C1954 C1957 1.386 . S
H1955 C1971 0.930 . S
H1956 C1972 0.931 . S
C1957 H1945 0.929 . S
C1957 C1951 1.390 . S
C1957 C1954 1.386 . S
C1958 C1953 1.490 . S
C1958 C1960 1.395 . S
C1958 C1961 1.403 . S
H1959 C1965 0.930 . S
C1960 H1946 0.930 . S
C1960 C1958 1.395 . S
C1960 C1963 1.403 . S
C1961 C1958 1.403 . S
C1961 C1962 1.524 . S
C1961 C1965 1.400 . S
C1962 H1947 0.960 . S
C1962 H1948 0.960 . S
C1962 H1949 0.960 . S
C1962 C1961 1.524 . S
C1963 C1960 1.403 . S
C1963 C1964 1.392 . S
C1963 C1967 1.495 . S
C1964 C1963 1.392 . S
C1964 C1965 1.385 . S
C1964 C1966 1.478 . S
C1965 H1959 0.930 . S
C1965 C1961 1.400 . S
C1965 C1964 1.385 . S
C1966 C1964 1.478 . S
C1966 C1968 1.381 . S
C1966 C1972 1.383 . S
C1967 C1963 1.495 . S
C1967 H1973 0.959 . S
C1967 H1974 0.961 . S
C1967 H1975 0.960 . S
C1968 C1966 1.381 . S
C1968 C1969 1.394 . S
C1968 H1976 0.930 . S
C1969 C1968 1.394 . S
C1969 C1970 1.383 . S
C1969 H1977 0.929 . S
C1970 C1969 1.383 . S
C1970 C1971 1.377 . S
C1971 H1955 0.930 . S
C1971 C1970 1.377 . S
C1971 C1972 1.379 . S
C1972 H1956 0.931 . S
C1972 C1966 1.383 . S
C1972 C1971 1.379 . S
H1973 C1967 0.959 . S
H1974 C1967 0.961 . S
H1975 C1967 0.960 . S
H1976 C1968 0.930 . S
H1977 C1969 0.929 . S
H1978 C1986 0.929 . S
H1979 C1988 0.930 . S
H1980 C1990 0.930 . S
H1981 C1993 0.929 . S
H1982 C1996 0.930 . S
H1983 C1998 0.960 . S
H1984 C1998 0.960 . S
H1985 C1998 0.960 . S
C1986 H1978 0.929 . S
C1986 C1987 1.377 . S
C1986 C1988 1.384 . S
C1987 C1986 1.377 . S
C1987 C1993 1.390 . S
C1988 H1979 0.930 . S
C1988 C1986 1.384 . S
C1988 C1989 1.372 . S
C1989 C1988 1.372 . S
C1989 C1990 1.400 . S
C1989 C1994 1.490 . S
C1990 H1980 0.930 . S
C1990 C1989 1.400 . S
C1990 C1993 1.386 . S
H1991 C2007 0.930 . S
H1992 C2008 0.931 . S
C1993 H1981 0.929 . S
C1993 C1987 1.390 . S
C1993 C1990 1.386 . S
C1994 C1989 1.490 . S
C1994 C1996 1.395 . S
C1994 C1997 1.403 . S
H1995 C2001 0.930 . S
C1996 H1982 0.930 . S
C1996 C1994 1.395 . S
C1996 C1999 1.403 . S
C1997 C1994 1.403 . S
C1997 C1998 1.524 . S
C1997 C2001 1.400 . S
C1998 H1983 0.960 . S
C1998 H1984 0.960 . S
C1998 H1985 0.960 . S
C1998 C1997 1.524 . S
C1999 C1996 1.403 . S
C1999 C2000 1.392 . S
C1999 C2003 1.495 . S
C2000 C1999 1.392 . S
C2000 C2001 1.385 . S
C2000 C2002 1.478 . S
C2001 H1995 0.930 . S
C2001 C1997 1.400 . S
C2001 C2000 1.385 . S
C2002 C2000 1.478 . S
C2002 C2004 1.381 . S
C2002 C2008 1.383 . S
C2003 C1999 1.495 . S
C2003 H2009 0.959 . S
C2003 H2010 0.961 . S
C2003 H2011 0.960 . S
C2004 C2002 1.381 . S
C2004 C2005 1.394 . S
C2004 H2012 0.930 . S
C2005 C2004 1.394 . S
C2005 C2006 1.383 . S
C2005 H2013 0.929 . S
C2006 C2005 1.383 . S
C2006 C2007 1.377 . S
C2007 H1991 0.930 . S
C2007 C2006 1.377 . S
C2007 C2008 1.379 . S
C2008 H1992 0.931 . S
C2008 C2002 1.383 . S
C2008 C2007 1.379 . S
H2009 C2003 0.959 . S
H2010 C2003 0.961 . S
H2011 C2003 0.960 . S
H2012 C2004 0.930 . S
H2013 C2005 0.929 . S
H2014 C2022 0.929 . S
H2015 C2024 0.930 . S
H2016 C2026 0.930 . S
H2017 C2029 0.929 . S
H2018 C2032 0.930 . S
H2019 C2034 0.960 . S
H2020 C2034 0.960 . S
H2021 C2034 0.960 . S
C2022 H2014 0.929 . S
C2022 C2023 1.377 . S
C2022 C2024 1.384 . S
C2023 C2022 1.377 . S
C2023 C2029 1.390 . S
C2024 H2015 0.930 . S
C2024 C2022 1.384 . S
C2024 C2025 1.372 . S
C2025 C2024 1.372 . S
C2025 C2026 1.400 . S
C2025 C2030 1.490 . S
C2026 H2016 0.930 . S
C2026 C2025 1.400 . S
C2026 C2029 1.386 . S
H2027 C2043 0.930 . S
H2028 C2044 0.931 . S
C2029 H2017 0.929 . S
C2029 C2023 1.390 . S
C2029 C2026 1.386 . S
C2030 C2025 1.490 . S
C2030 C2032 1.395 . S
C2030 C2033 1.403 . S
H2031 C2037 0.930 . S
C2032 H2018 0.930 . S
C2032 C2030 1.395 . S
C2032 C2035 1.403 . S
C2033 C2030 1.403 . S
C2033 C2034 1.524 . S
C2033 C2037 1.400 . S
C2034 H2019 0.960 . S
C2034 H2020 0.960 . S
C2034 H2021 0.960 . S
C2034 C2033 1.524 . S
C2035 C2032 1.403 . S
C2035 C2036 1.392 . S
C2035 C2039 1.495 . S
C2036 C2035 1.392 . S
C2036 C2037 1.385 . S
C2036 C2038 1.478 . S
C2037 H2031 0.930 . S
C2037 C2033 1.400 . S
C2037 C2036 1.385 . S
C2038 C2036 1.478 . S
C2038 C2040 1.381 . S
C2038 C2044 1.383 . S
C2039 C2035 1.495 . S
C2039 H2045 0.959 . S
C2039 H2046 0.961 . S
C2039 H2047 0.960 . S
C2040 C2038 1.381 . S
C2040 C2041 1.394 . S
C2040 H2048 0.930 . S
C2041 C2040 1.394 . S
C2041 C2042 1.383 . S
C2041 H2049 0.929 . S
C2042 C2041 1.383 . S
C2042 C2043 1.377 . S
C2043 H2027 0.930 . S
C2043 C2042 1.377 . S
C2043 C2044 1.379 . S
C2044 H2028 0.931 . S
C2044 C2038 1.383 . S
C2044 C2043 1.379 . S
H2045 C2039 0.959 . S
H2046 C2039 0.961 . S
H2047 C2039 0.960 . S
H2048 C2040 0.930 . S
H2049 C2041 0.929 . S
H2050 C2058 0.929 . S
H2051 C2060 0.930 . S
H2052 C2062 0.930 . S
H2053 C2065 0.929 . S
H2054 C2068 0.930 . S
H2055 C2070 0.960 . S
H2056 C2070 0.960 . S
H2057 C2070 0.960 . S
C2058 H2050 0.929 . S
C2058 C2059 1.377 . S
C2058 C2060 1.384 . S
C2059 C2058 1.377 . S
C2059 C2065 1.390 . S
C2060 H2051 0.930 . S
C2060 C2058 1.384 . S
C2060 C2061 1.372 . S
C2061 C2060 1.372 . S
C2061 C2062 1.400 . S
C2061 C2066 1.490 . S
C2062 H2052 0.930 . S
C2062 C2061 1.400 . S
C2062 C2065 1.386 . S
H2063 C2079 0.930 . S
H2064 C2080 0.931 . S
C2065 H2053 0.929 . S
C2065 C2059 1.390 . S
C2065 C2062 1.386 . S
C2066 C2061 1.490 . S
C2066 C2068 1.395 . S
C2066 C2069 1.403 . S
H2067 C2073 0.930 . S
C2068 H2054 0.930 . S
C2068 C2066 1.395 . S
C2068 C2071 1.403 . S
C2069 C2066 1.403 . S
C2069 C2070 1.524 . S
C2069 C2073 1.400 . S
C2070 H2055 0.960 . S
C2070 H2056 0.960 . S
C2070 H2057 0.960 . S
C2070 C2069 1.524 . S
C2071 C2068 1.403 . S
C2071 C2072 1.392 . S
C2071 C2075 1.495 . S
C2072 C2071 1.392 . S
C2072 C2073 1.385 . S
C2072 C2074 1.478 . S
C2073 H2067 0.930 . S
C2073 C2069 1.400 . S
C2073 C2072 1.385 . S
C2074 C2072 1.478 . S
C2074 C2076 1.381 . S
C2074 C2080 1.383 . S
C2075 C2071 1.495 . S
C2075 H2081 0.959 . S
C2075 H2082 0.961 . S
C2075 H2083 0.960 . S
C2076 C2074 1.381 . S
C2076 C2077 1.394 . S
C2076 H2084 0.930 . S
C2077 C2076 1.394 . S
C2077 C2078 1.383 . S
C2077 H2085 0.929 . S
C2078 C2077 1.383 . S
C2078 C2079 1.377 . S
C2079 H2063 0.930 . S
C2079 C2078 1.377 . S
C2079 C2080 1.379 . S
C2080 H2064 0.931 . S
C2080 C2074 1.383 . S
C2080 C2079 1.379 . S
H2081 C2075 0.959 . S
H2082 C2075 0.961 . S
H2083 C2075 0.960 . S
H2084 C2076 0.930 . S
H2085 C2077 0.929 . S
C386 C187 1.871 . S
C367 C19 1.934 . S
C422 C188 1.880 . S
C403 C24 1.884 . S
C458 C182 1.111 . S
C439 C59 1.144 . S
C475 C69 1.108 . S
C494 C181 1.157 . S
C511 C82 1.874 . S
C530 C184 1.871 . S
C566 C186 1.107 . S
C547 C118 1.151 . S
C583 C132 1.110 . S
C602 C185 1.135 . S
C619 C158 1.928 . S
C638 C183 1.870 . S
C674 C218 1.822 . S
C655 C4 1.654 . S
C691 C29 0.983 . S
C710 C249 0.981 . S
C746 C217 1.496 . S
C727 C44 1.442 . S
C782 C252 1.081 . S
C763 C79 1.039 . S
C799 C98 1.333 . S
C818 C215 1.313 . S
C854 C247 1.543 . S
C835 C112 1.470 . S
C871 C122 0.995 . S
C890 C220 0.986 . S
C907 C152 1.261 . S
C926 C254 1.281 . S
C943 C9 1.248 . S
C962 C250 1.300 . S
C979 C92 0.984 . S
C998 C253 0.915 . S
C1034 C221 1.538 . S
C1015 C102 1.438 . S
C1070 C248 1.011 . S
C1051 C138 1.043 . S
C1087 C142 1.655 . S
C1106 C214 1.818 . S
C1123 C49 1.467 . S
C1142 C251 1.528 . S
C1178 C216 0.977 . S
C1159 C64 1.003 . S
C1195 C39 1.331 . S
C1214 C219 1.278 . S
C1231 C159 1.928 . S
C1250 C286 1.869 . S
C1267 C84 1.386 . S
C1286 C287 1.406 . S
C1322 C281 1.126 . S
C1303 C119 1.165 . S
C1358 C280 1.624 . S
C1339 C129 1.616 . S
C1375 C22 1.400 . S
C1394 C283 1.411 . S
C1430 C285 1.158 . S
C1411 C58 1.166 . S
C1447 C72 1.616 . S
C1466 C284 1.644 . S
C1483 C18 1.921 . S
C1502 C282 1.855 . S
C1519 C144 1.781 . S
C1538 C320 1.852 . S
C1574 C352 0.779 . S
C1555 C89 0.729 . S
C1591 C104 1.382 . S
C1610 C313 1.506 . S
C1627 C139 1.343 . S
C1646 C347 1.397 . S
C1682 C318 1.030 . S
C1663 C38 1.057 . S
C1699 C52 1.593 . S
C1718 C349 1.627 . S
C1754 C315 1.245 . S
C1735 C62 1.265 . S
C1790 C350 1.283 . S
C1771 C12 1.205 . S
C1826 C346 1.292 . S
C1807 C149 1.200 . S
C1843 C32 0.742 . S
C1862 C348 0.693 . S
C1879 C42 1.375 . S
C1898 C317 1.499 . S
C1934 C351 1.358 . S
C1915 C78 1.345 . S
C1951 C2 1.781 . S
C1970 C316 1.890 . S
C1987 C109 1.594 . S
C2006 C353 1.653 . S
C2042 C319 1.243 . S
C2023 C124 1.277 . S
C2078 C314 1.063 . S
C2059 C99 1.067 . S
