# Generated by pormake.
# Topology ibd, (4,6)-cn, num edge types: 1
# Building blocks:
#     Node 0, Type 0, BuildingBlock: GALJAG_clean_sbu_0, # of connection points: 4
#     Node 1, Type 0, BuildingBlock: GALJAG_clean_sbu_0, # of connection points: 4
#     Node 2, Type 0, BuildingBlock: GALJAG_clean_sbu_0, # of connection points: 4
#     Node 3, Type 0, BuildingBlock: GALJAG_clean_sbu_0, # of connection points: 4
#     Node 4, Type 0, BuildingBlock: GALJAG_clean_sbu_0, # of connection points: 4
#     Node 5, Type 0, BuildingBlock: GALJAG_clean_sbu_0, # of connection points: 4
#     Node 6, Type 0, BuildingBlock: GALJAG_clean_sbu_0, # of connection points: 4
#     Node 7, Type 0, BuildingBlock: GALJAG_clean_sbu_0, # of connection points: 4
#     Node 8, Type 0, BuildingBlock: GALJAG_clean_sbu_0, # of connection points: 4
#     Node 9, Type 0, BuildingBlock: GALJAG_clean_sbu_0, # of connection points: 4
#     Node 10, Type 0, BuildingBlock: GALJAG_clean_sbu_0, # of connection points: 4
#     Node 11, Type 0, BuildingBlock: GALJAG_clean_sbu_0, # of connection points: 4
#     Node 12, Type 0, BuildingBlock: GALJAG_clean_sbu_0, # of connection points: 4
#     Node 13, Type 0, BuildingBlock: GALJAG_clean_sbu_0, # of connection points: 4
#     Node 14, Type 0, BuildingBlock: GALJAG_clean_sbu_0, # of connection points: 4
#     Node 15, Type 0, BuildingBlock: GALJAG_clean_sbu_0, # of connection points: 4
#     Node 16, Type 0, BuildingBlock: GALJAG_clean_sbu_0, # of connection points: 4
#     Node 17, Type 0, BuildingBlock: GALJAG_clean_sbu_0, # of connection points: 4
#     Node 18, Type 0, BuildingBlock: GALJAG_clean_sbu_0, # of connection points: 4
#     Node 19, Type 0, BuildingBlock: GALJAG_clean_sbu_0, # of connection points: 4
#     Node 20, Type 0, BuildingBlock: GALJAG_clean_sbu_0, # of connection points: 4
#     Node 21, Type 0, BuildingBlock: GALJAG_clean_sbu_0, # of connection points: 4
#     Node 22, Type 0, BuildingBlock: GALJAG_clean_sbu_0, # of connection points: 4
#     Node 23, Type 0, BuildingBlock: GALJAG_clean_sbu_0, # of connection points: 4
#     Node 24, Type 1, BuildingBlock: OJICUG_clean_sbu_0, # of connection points: 6
#     Node 25, Type 1, BuildingBlock: OJICUG_clean_sbu_0, # of connection points: 6
#     Node 26, Type 1, BuildingBlock: OJICUG_clean_sbu_0, # of connection points: 6
#     Node 27, Type 1, BuildingBlock: OJICUG_clean_sbu_0, # of connection points: 6
#     Node 28, Type 1, BuildingBlock: OJICUG_clean_sbu_0, # of connection points: 6
#     Node 29, Type 1, BuildingBlock: OJICUG_clean_sbu_0, # of connection points: 6
#     Node 30, Type 1, BuildingBlock: OJICUG_clean_sbu_0, # of connection points: 6
#     Node 31, Type 1, BuildingBlock: OJICUG_clean_sbu_0, # of connection points: 6
#     Node 32, Type 1, BuildingBlock: OJICUG_clean_sbu_0, # of connection points: 6
#     Node 33, Type 1, BuildingBlock: OJICUG_clean_sbu_0, # of connection points: 6
#     Node 34, Type 1, BuildingBlock: OJICUG_clean_sbu_0, # of connection points: 6
#     Node 35, Type 1, BuildingBlock: OJICUG_clean_sbu_0, # of connection points: 6
#     Node 36, Type 1, BuildingBlock: OJICUG_clean_sbu_0, # of connection points: 6
#     Node 37, Type 1, BuildingBlock: OJICUG_clean_sbu_0, # of connection points: 6
#     Node 38, Type 1, BuildingBlock: OJICUG_clean_sbu_0, # of connection points: 6
#     Node 39, Type 1, BuildingBlock: OJICUG_clean_sbu_0, # of connection points: 6
#     Edge 40, Type (0, 1), BuildingBlock: ZUJKAS_clean_linker_0, # of connection points: 2
#     Edge 41, Type (0, 1), BuildingBlock: ZUJKAS_clean_linker_0, # of connection points: 2
#     Edge 42, Type (0, 1), BuildingBlock: ZUJKAS_clean_linker_0, # of connection points: 2
#     Edge 43, Type (0, 1), BuildingBlock: ZUJKAS_clean_linker_0, # of connection points: 2
#     Edge 44, Type (0, 1), BuildingBlock: ZUJKAS_clean_linker_0, # of connection points: 2
#     Edge 45, Type (0, 1), BuildingBlock: ZUJKAS_clean_linker_0, # of connection points: 2
#     Edge 46, Type (0, 1), BuildingBlock: ZUJKAS_clean_linker_0, # of connection points: 2
#     Edge 47, Type (0, 1), BuildingBlock: ZUJKAS_clean_linker_0, # of connection points: 2
#     Edge 48, Type (0, 1), BuildingBlock: ZUJKAS_clean_linker_0, # of connection points: 2
#     Edge 49, Type (0, 1), BuildingBlock: ZUJKAS_clean_linker_0, # of connection points: 2
#     Edge 50, Type (0, 1), BuildingBlock: ZUJKAS_clean_linker_0, # of connection points: 2
#     Edge 51, Type (0, 1), BuildingBlock: ZUJKAS_clean_linker_0, # of connection points: 2
#     Edge 52, Type (0, 1), BuildingBlock: ZUJKAS_clean_linker_0, # of connection points: 2
#     Edge 53, Type (0, 1), BuildingBlock: ZUJKAS_clean_linker_0, # of connection points: 2
#     Edge 54, Type (0, 1), BuildingBlock: ZUJKAS_clean_linker_0, # of connection points: 2
#     Edge 55, Type (0, 1), BuildingBlock: ZUJKAS_clean_linker_0, # of connection points: 2
#     Edge 56, Type (0, 1), BuildingBlock: ZUJKAS_clean_linker_0, # of connection points: 2
#     Edge 57, Type (0, 1), BuildingBlock: ZUJKAS_clean_linker_0, # of connection points: 2
#     Edge 58, Type (0, 1), BuildingBlock: ZUJKAS_clean_linker_0, # of connection points: 2
#     Edge 59, Type (0, 1), BuildingBlock: ZUJKAS_clean_linker_0, # of connection points: 2
#     Edge 60, Type (0, 1), BuildingBlock: ZUJKAS_clean_linker_0, # of connection points: 2
#     Edge 61, Type (0, 1), BuildingBlock: ZUJKAS_clean_linker_0, # of connection points: 2
#     Edge 62, Type (0, 1), BuildingBlock: ZUJKAS_clean_linker_0, # of connection points: 2
#     Edge 63, Type (0, 1), BuildingBlock: ZUJKAS_clean_linker_0, # of connection points: 2
#     Edge 64, Type (0, 1), BuildingBlock: ZUJKAS_clean_linker_0, # of connection points: 2
#     Edge 65, Type (0, 1), BuildingBlock: ZUJKAS_clean_linker_0, # of connection points: 2
#     Edge 66, Type (0, 1), BuildingBlock: ZUJKAS_clean_linker_0, # of connection points: 2
#     Edge 67, Type (0, 1), BuildingBlock: ZUJKAS_clean_linker_0, # of connection points: 2
#     Edge 68, Type (0, 1), BuildingBlock: ZUJKAS_clean_linker_0, # of connection points: 2
#     Edge 69, Type (0, 1), BuildingBlock: ZUJKAS_clean_linker_0, # of connection points: 2
#     Edge 70, Type (0, 1), BuildingBlock: ZUJKAS_clean_linker_0, # of connection points: 2
#     Edge 71, Type (0, 1), BuildingBlock: ZUJKAS_clean_linker_0, # of connection points: 2
#     Edge 72, Type (0, 1), BuildingBlock: ZUJKAS_clean_linker_0, # of connection points: 2
#     Edge 73, Type (0, 1), BuildingBlock: ZUJKAS_clean_linker_0, # of connection points: 2
#     Edge 74, Type (0, 1), BuildingBlock: ZUJKAS_clean_linker_0, # of connection points: 2
#     Edge 75, Type (0, 1), BuildingBlock: ZUJKAS_clean_linker_0, # of connection points: 2
#     Edge 76, Type (0, 1), BuildingBlock: ZUJKAS_clean_linker_0, # of connection points: 2
#     Edge 77, Type (0, 1), BuildingBlock: ZUJKAS_clean_linker_0, # of connection points: 2
#     Edge 78, Type (0, 1), BuildingBlock: ZUJKAS_clean_linker_0, # of connection points: 2
#     Edge 79, Type (0, 1), BuildingBlock: ZUJKAS_clean_linker_0, # of connection points: 2
#     Edge 80, Type (0, 1), BuildingBlock: ZUJKAS_clean_linker_0, # of connection points: 2
#     Edge 81, Type (0, 1), BuildingBlock: ZUJKAS_clean_linker_0, # of connection points: 2
#     Edge 82, Type (0, 1), BuildingBlock: ZUJKAS_clean_linker_0, # of connection points: 2
#     Edge 83, Type (0, 1), BuildingBlock: ZUJKAS_clean_linker_0, # of connection points: 2
#     Edge 84, Type (0, 1), BuildingBlock: ZUJKAS_clean_linker_0, # of connection points: 2
#     Edge 85, Type (0, 1), BuildingBlock: ZUJKAS_clean_linker_0, # of connection points: 2
#     Edge 86, Type (0, 1), BuildingBlock: ZUJKAS_clean_linker_0, # of connection points: 2
#     Edge 87, Type (0, 1), BuildingBlock: ZUJKAS_clean_linker_0, # of connection points: 2
#     Edge 88, Type (0, 1), BuildingBlock: ZUJKAS_clean_linker_0, # of connection points: 2
#     Edge 89, Type (0, 1), BuildingBlock: ZUJKAS_clean_linker_0, # of connection points: 2
#     Edge 90, Type (0, 1), BuildingBlock: ZUJKAS_clean_linker_0, # of connection points: 2
#     Edge 91, Type (0, 1), BuildingBlock: ZUJKAS_clean_linker_0, # of connection points: 2
#     Edge 92, Type (0, 1), BuildingBlock: ZUJKAS_clean_linker_0, # of connection points: 2
#     Edge 93, Type (0, 1), BuildingBlock: ZUJKAS_clean_linker_0, # of connection points: 2
#     Edge 94, Type (0, 1), BuildingBlock: ZUJKAS_clean_linker_0, # of connection points: 2
#     Edge 95, Type (0, 1), BuildingBlock: ZUJKAS_clean_linker_0, # of connection points: 2
#     Edge 96, Type (0, 1), BuildingBlock: ZUJKAS_clean_linker_0, # of connection points: 2
#     Edge 97, Type (0, 1), BuildingBlock: ZUJKAS_clean_linker_0, # of connection points: 2
#     Edge 98, Type (0, 1), BuildingBlock: ZUJKAS_clean_linker_0, # of connection points: 2
#     Edge 99, Type (0, 1), BuildingBlock: ZUJKAS_clean_linker_0, # of connection points: 2
#     Edge 100, Type (0, 1), BuildingBlock: ZUJKAS_clean_linker_0, # of connection points: 2
#     Edge 101, Type (0, 1), BuildingBlock: ZUJKAS_clean_linker_0, # of connection points: 2
#     Edge 102, Type (0, 1), BuildingBlock: ZUJKAS_clean_linker_0, # of connection points: 2
#     Edge 103, Type (0, 1), BuildingBlock: ZUJKAS_clean_linker_0, # of connection points: 2
#     Edge 104, Type (0, 1), BuildingBlock: ZUJKAS_clean_linker_0, # of connection points: 2
#     Edge 105, Type (0, 1), BuildingBlock: ZUJKAS_clean_linker_0, # of connection points: 2
#     Edge 106, Type (0, 1), BuildingBlock: ZUJKAS_clean_linker_0, # of connection points: 2
#     Edge 107, Type (0, 1), BuildingBlock: ZUJKAS_clean_linker_0, # of connection points: 2
#     Edge 108, Type (0, 1), BuildingBlock: ZUJKAS_clean_linker_0, # of connection points: 2
#     Edge 109, Type (0, 1), BuildingBlock: ZUJKAS_clean_linker_0, # of connection points: 2
#     Edge 110, Type (0, 1), BuildingBlock: ZUJKAS_clean_linker_0, # of connection points: 2
#     Edge 111, Type (0, 1), BuildingBlock: ZUJKAS_clean_linker_0, # of connection points: 2
#     Edge 112, Type (0, 1), BuildingBlock: ZUJKAS_clean_linker_0, # of connection points: 2
#     Edge 113, Type (0, 1), BuildingBlock: ZUJKAS_clean_linker_0, # of connection points: 2
#     Edge 114, Type (0, 1), BuildingBlock: ZUJKAS_clean_linker_0, # of connection points: 2
#     Edge 115, Type (0, 1), BuildingBlock: ZUJKAS_clean_linker_0, # of connection points: 2
#     Edge 116, Type (0, 1), BuildingBlock: ZUJKAS_clean_linker_0, # of connection points: 2
#     Edge 117, Type (0, 1), BuildingBlock: ZUJKAS_clean_linker_0, # of connection points: 2
#     Edge 118, Type (0, 1), BuildingBlock: ZUJKAS_clean_linker_0, # of connection points: 2
#     Edge 119, Type (0, 1), BuildingBlock: ZUJKAS_clean_linker_0, # of connection points: 2
#     Edge 120, Type (0, 1), BuildingBlock: ZUJKAS_clean_linker_0, # of connection points: 2
#     Edge 121, Type (0, 1), BuildingBlock: ZUJKAS_clean_linker_0, # of connection points: 2
#     Edge 122, Type (0, 1), BuildingBlock: ZUJKAS_clean_linker_0, # of connection points: 2
#     Edge 123, Type (0, 1), BuildingBlock: ZUJKAS_clean_linker_0, # of connection points: 2
#     Edge 124, Type (0, 1), BuildingBlock: ZUJKAS_clean_linker_0, # of connection points: 2
#     Edge 125, Type (0, 1), BuildingBlock: ZUJKAS_clean_linker_0, # of connection points: 2
#     Edge 126, Type (0, 1), BuildingBlock: ZUJKAS_clean_linker_0, # of connection points: 2
#     Edge 127, Type (0, 1), BuildingBlock: ZUJKAS_clean_linker_0, # of connection points: 2
#     Edge 128, Type (0, 1), BuildingBlock: ZUJKAS_clean_linker_0, # of connection points: 2
#     Edge 129, Type (0, 1), BuildingBlock: ZUJKAS_clean_linker_0, # of connection points: 2
#     Edge 130, Type (0, 1), BuildingBlock: ZUJKAS_clean_linker_0, # of connection points: 2
#     Edge 131, Type (0, 1), BuildingBlock: ZUJKAS_clean_linker_0, # of connection points: 2
#     Edge 132, Type (0, 1), BuildingBlock: ZUJKAS_clean_linker_0, # of connection points: 2
#     Edge 133, Type (0, 1), BuildingBlock: ZUJKAS_clean_linker_0, # of connection points: 2
#     Edge 134, Type (0, 1), BuildingBlock: ZUJKAS_clean_linker_0, # of connection points: 2
#     Edge 135, Type (0, 1), BuildingBlock: ZUJKAS_clean_linker_0, # of connection points: 2
# Relax obj value: 0.277
# Max RMSD: 0.280
# Mean RMSD: 0.234
data_MOF--net-ibd--node1-GALJAG_clean_sbu_0--node2-OJICUG_clean_sbu_0--edge1-ZUJKAS_clean_linker_0
_symmetry_space_group_name_H-M    P1
_symmetry_Int_Tables_number       1
_symmetry_cell_setting            triclinic
loop_
_symmetry_equiv_pos_as_xyz
'x, y, z'
_cell_length_a     63.598104
_cell_length_b     63.579506
_cell_length_c     63.59887
_cell_angle_alpha  90.078107
_cell_angle_beta   90.079115
_cell_angle_gamma 90.036855
loop_
_atom_site_label
_atom_site_type_symbol
_atom_site_fract_x
_atom_site_fract_y
_atom_site_fract_z
_atom_type_partial_charge
In0 In 0.99364 0.25911 0.36759 0.0
O1 O 0.02606 0.2468 0.35852 0.0
O2 O 0.00738 0.26045 0.33452 0.0
C3 C 0.00611 0.28231 0.40075 0.0
C4 C 0.96387 0.28189 0.34829 0.0
C5 C 0.97895 0.2218 0.38165 0.0
O6 O 0.01544 0.2829 0.38328 0.0
O7 O 0.9905 0.27009 0.40144 0.0
O8 O 0.96701 0.23654 0.37599 0.0
O9 O -0.00173 0.22577 0.37993 0.0
C10 C 0.02447 0.25173 0.33941 0.0
O11 O 0.96727 0.26283 0.3438 0.0
O12 O 0.97561 0.28947 0.36242 0.0
In13 In -0.00143 0.73703 0.61475 0.0
O14 O 0.99081 0.75938 0.64161 0.0
O15 O 0.9679 0.7553 0.61762 0.0
C16 C 0.02625 0.75964 0.59208 0.0
C17 C 0.02076 0.71151 0.64015 0.0
C18 C 0.97345 0.71176 0.5919 0.0
O19 O 0.01885 0.76616 0.60926 0.0
O20 O 0.0197 0.74179 0.58641 0.0
O21 O 0.9814 0.70602 0.60913 0.0
O22 O 0.97824 0.73015 0.58623 0.0
C23 C 0.97286 0.76416 0.63465 0.0
O24 O 0.02775 0.71782 0.62271 0.0
O25 O 0.00268 0.7182 0.64479 0.0
In26 In 0.50739 0.71722 0.88018 0.0
O27 O 0.53548 0.71756 0.85795 0.0
O28 O 0.52219 0.68799 0.86543 0.0
C29 C 0.5213 0.74549 0.90856 0.0
C30 C 0.48147 0.73701 0.85305 0.0
C31 C 0.48859 0.6871 0.903 0.0
O32 O 0.53291 0.73138 0.90087 0.0
O33 O 0.50252 0.74519 0.90216 0.0
O34 O 0.50411 0.69751 0.90982 0.0
O35 O 0.48274 0.69178 0.88462 0.0
C36 C 0.53584 0.69797 0.85518 0.0
O37 O 0.47484 0.72425 0.86665 0.0
O38 O 0.50103 0.7401 0.85346 0.0
In39 In 0.48948 0.266 0.12358 0.0
O40 O 0.5184 0.24519 0.12606 0.0
O41 O 0.51209 0.26632 0.15128 0.0
C42 C 0.47802 0.23455 0.09752 0.0
C43 C 0.45715 0.27408 0.14967 0.0
C44 C 0.49939 0.30253 0.10449 0.0
O45 O 0.47089 0.2363 0.11591 0.0
O46 O 0.49086 0.24869 0.09225 0.0
O47 O 0.48238 0.29292 0.1012 0.0
O48 O 0.5115 0.29374 0.11748 0.0
C49 C 0.52383 0.25212 0.14386 0.0
O50 O 0.45868 0.28231 0.13173 0.0
O51 O 0.47195 0.2618 0.15447 0.0
In52 In -0.00296 0.76162 0.11482 0.0
O53 O 0.97168 0.78149 0.09931 0.0
O54 O 0.00237 0.78247 0.08624 0.0
C55 C 0.97214 0.74401 0.14407 0.0
C56 C 0.00963 0.72754 0.09299 0.0
C57 C 0.0229 0.78613 0.13763 0.0
O58 O 0.96498 0.75513 0.12931 0.0
O59 O 0.99183 0.7416 0.14392 0.0
O60 O 0.02958 0.77304 0.12433 0.0
O61 O 0.00316 0.7871 0.13916 0.0
C62 C 0.9836 0.78873 0.08526 0.0
O63 O 0.02149 0.73718 0.10563 0.0
O64 O 0.99129 0.73491 0.09156 0.0
In65 In 0.49628 0.77851 0.36753 0.0
O66 O 0.49347 0.75239 0.39194 0.0
O67 O 0.52069 0.75287 0.37266 0.0
C68 C 0.46568 0.7675 0.3403 0.0
C69 C 0.48089 0.80631 0.39556 0.0
C70 C 0.52884 0.79546 0.34653 0.0
O71 O 0.47111 0.75594 0.35546 0.0
O72 O 0.47551 0.78466 0.33904 0.0
O73 O 0.5219 0.80342 0.36332 0.0
O74 O 0.5193 0.77917 0.34043 0.0
C75 C 0.51084 0.744 0.38736 0.0
O76 O 0.47241 0.80318 0.3779 0.0
O77 O 0.49722 0.7956 0.39895 0.0
In78 In 0.49662 0.24627 0.62863 0.0
O79 O 0.51997 0.2235 0.61373 0.0
O80 O 0.48974 0.22645 0.59975 0.0
C81 C 0.52544 0.2499 0.65948 0.0
C82 C 0.49077 0.28133 0.60552 0.0
C83 C 0.46185 0.23416 0.64943 0.0
O84 O 0.51615 0.23283 0.65547 0.0
O85 O 0.52031 0.26509 0.64781 0.0
O86 O 0.47149 0.25099 0.65369 0.0
O87 O 0.46966 0.22359 0.6346 0.0
C88 C 0.5076 0.21788 0.59925 0.0
O89 O 0.47668 0.27374 0.6172 0.0
O90 O 0.50801 0.27157 0.60597 0.0
In91 In 0.98766 0.224 0.87683 0.0
O92 O 0.98084 0.20086 0.90325 0.0
O93 O 0.00528 0.19324 0.88187 0.0
C94 C 0.95659 0.21912 0.84859 0.0
C95 C 0.97741 0.25469 0.90405 0.0
C96 C 0.02229 0.23659 0.85589 0.0
O97 O 0.96124 0.20512 0.86185 0.0
O98 O 0.96734 0.23576 0.8499 0.0
O99 O 0.01742 0.24368 0.87371 0.0
O100 O 0.00982 0.22294 0.84869 0.0
C101 C 0.99498 0.18803 0.89795 0.0
O102 O 0.99471 0.24504 0.90476 0.0
O103 O 0.96501 0.24861 0.88978 0.0
In104 In 0.37267 0.98997 0.23758 0.0
O105 O 0.36932 0.9548 0.24386 0.0
O106 O 0.34595 0.97535 0.25601 0.0
C107 C 0.40089 0.98428 0.20673 0.0
C108 C 0.3461 0.01569 0.21715 0.0
C109 C 0.39219 0.00395 0.27244 0.0
O110 O 0.38672 0.97101 0.21078 0.0
O111 O 0.4008 0.00044 0.21825 0.0
O112 O 0.37459 0.01088 0.26653 0.0
O113 O 0.39989 0.98983 0.26083 0.0
C114 C 0.3526 0.95675 0.25427 0.0
O115 O 0.35981 0.02234 0.22981 0.0
O116 O 0.34568 0.99599 0.21482 0.0
In117 In 0.26142 0.11722 0.52552 0.0
O118 O 0.22935 0.12987 0.53481 0.0
O119 O 0.25625 0.1432 0.54963 0.0
C120 C 0.24464 0.08462 0.50419 0.0
C121 C 0.27722 0.14152 0.49475 0.0
C122 C 0.28685 0.09935 0.55434 0.0
O123 O 0.23596 0.09255 0.52014 0.0
O124 O 0.26173 0.09317 0.49897 0.0
O125 O 0.29256 0.11484 0.54342 0.0
O126 O 0.2684 0.09307 0.5508 0.0
C127 C 0.23648 0.14288 0.548 0.0
O128 O 0.2878 0.12736 0.50373 0.0
O129 O 0.25861 0.14348 0.50133 0.0
In130 In 0.12319 0.00889 0.75345 0.0
O131 O 0.10323 0.98333 0.76831 0.0
O132 O 0.0957 0.01505 0.77563 0.0
C133 C 0.15192 0.97979 0.7425 0.0
C134 C 0.10486 0.02 0.717 0.0
C135 C 0.14376 0.03895 0.77527 0.0
O136 O 0.14358 0.98031 0.76046 0.0
O137 O 0.1459 0.99404 0.73011 0.0
O138 O 0.12893 0.04317 0.76284 0.0
O139 O 0.14822 0.0197 0.77657 0.0
C140 C 0.0915 0.99585 0.77822 0.0
O141 O 0.12131 0.02884 0.72378 0.0
O142 O 0.09789 0.00541 0.72849 0.0
In143 In 0.21821 0.86876 0.9892 0.0
O144 O 0.1881 0.88479 0.00019 0.0
O145 O 0.21271 0.88086 0.02243 0.0
C146 C 0.20241 0.85041 0.95438 0.0
C147 C 0.24283 0.90003 0.97439 0.0
C148 C 0.23365 0.83594 0.01085 0.0
O149 O 0.19094 0.859 0.96807 0.0
O150 O 0.22185 0.85116 0.9582 0.0
O151 O 0.24402 0.85255 0.00761 0.0
O152 O 0.21532 0.83586 0.0032 0.0
C153 C 0.19447 0.88766 0.01876 0.0
O154 O 0.25014 0.88264 0.98039 0.0
O155 O 0.22314 0.9016 0.97572 0.0
In156 In 0.27518 0.37672 0.01206 0.0
O157 O 0.28846 0.37371 0.97897 0.0
O158 O 0.2981 0.35139 0.00194 0.0
C159 C 0.24736 0.40593 -0.00087 0.0
C160 C 0.24878 0.34829 0.02907 0.0
C161 C 0.30607 0.39435 0.03499 0.0
O162 O 0.25269 0.39048 0.98794 0.0
O163 O 0.25609 0.40673 0.01692 0.0
O164 O 0.29574 0.37868 0.04143 0.0
O165 O 0.30071 0.40108 0.01712 0.0
C166 C 0.29931 0.35764 0.98316 0.0
O167 O 0.25564 0.36383 0.03934 0.0
O168 O 0.25533 0.34711 0.01044 0.0
In169 In 0.77958 0.12837 0.01385 0.0
O170 O 0.76199 0.10796 0.03727 0.0
O171 O 0.74939 0.11075 0.00637 0.0
C172 C 0.80604 0.1477 0.04073 0.0
C173 C 0.80248 0.1007 0.99137 0.0
C174 C 0.75797 0.16135 -0.00128 0.0
O175 O 0.79167 0.13551 0.04686 0.0
O176 O 0.80717 0.14996 0.02107 0.0
O177 O 0.77225 0.15233 0.98828 0.0
O178 O 0.755 0.15403 0.01691 0.0
C179 C 0.74762 0.10294 0.02449 0.0
O180 O 0.79312 0.11603 0.98298 0.0
O181 O 0.80079 0.09977 0.01107 0.0
In182 In 0.12278 0.48784 0.27372 0.0
O183 O 0.14258 0.47584 0.30076 0.0
O184 O 0.12963 0.45305 0.27998 0.0
C185 C 0.09637 0.51193 0.29635 0.0
C186 C 0.1563 0.5094 0.25963 0.0
C187 C 0.09722 0.47544 0.24226 0.0
O188 O 0.1046 0.49547 0.30371 0.0
O189 O 0.10153 0.51617 0.27771 0.0
O190 O 0.11297 0.4871 0.23929 0.0
O191 O 0.09467 0.46957 0.26103 0.0
C192 C 0.14067 0.45666 0.29609 0.0
O193 O 0.15217 0.49094 0.25357 0.0
O194 O 0.14366 0.51685 0.27294 0.0
In195 In 0.72333 0.87804 0.50006 0.0
O196 O 0.72072 0.84659 0.48296 0.0
O197 O 0.745 0.86753 0.47367 0.0
C198 C 0.69235 0.90196 0.4838 0.0
C199 C 0.70972 0.85808 0.53467 0.0
C200 C 0.75723 0.90076 0.51143 0.0
O201 O 0.69566 0.88335 0.47785 0.0
O202 O 0.70455 0.90842 0.49805 0.0
O203 O 0.74759 0.88897 0.52408 0.0
O204 O 0.7496 0.90131 0.49313 0.0
C205 C 0.73618 0.84998 0.47103 0.0
O206 O 0.70017 0.87371 0.52705 0.0
O207 O 0.72606 0.85263 0.52484 0.0
In208 In 0.87959 0.98189 0.26939 0.0
O209 O 0.90373 0.98974 0.29474 0.0
O210 O 0.89552 0.95769 0.29056 0.0
C211 C 0.84715 0.00625 0.28111 0.0
C212 C 0.90335 0.00354 0.24194 0.0
C213 C 0.85988 0.94944 0.2505 0.0
O214 O 0.85915 -0.00241 0.29437 0.0
O215 O 0.85149 0.00244 0.26214 0.0
O216 O 0.87526 0.95888 0.24232 0.0
O217 O 0.85478 0.956 0.26852 0.0
C218 C 0.90664 0.97096 0.30025 0.0
O219 O 0.90523 0.98396 0.24451 0.0
O220 O 0.88961 0.01216 0.2533 0.0
In221 In 0.23265 0.61562 0.50057 0.0
O222 O 0.26487 0.61054 0.48586 0.0
O223 O 0.25073 0.58486 0.50192 0.0
C224 C 0.21499 0.62978 0.46472 0.0
C225 C 0.20305 0.59257 0.51999 0.0
C226 C 0.24745 0.64686 0.52519 0.0
O227 O 0.23293 0.62142 0.46523 0.0
O228 O 0.20588 0.63088 0.48228 0.0
O229 O 0.25198 0.62781 0.52817 0.0
O230 O 0.23533 0.65018 0.50986 0.0
C231 C 0.26623 0.59159 0.49156 0.0
O232 O 0.21096 0.60884 0.52818 0.0
O233 O 0.20996 0.58807 0.50195 0.0
In234 In 0.37322 0.49943 0.73655 0.0
O235 O 0.38408 0.4911 0.76969 0.0
O236 O 0.40082 0.47803 0.74391 0.0
C237 C 0.34882 0.53218 0.74794 0.0
C238 C 0.39905 0.51457 0.70677 0.0
C239 C 0.34592 0.46838 0.72763 0.0
O240 O 0.36519 0.52714 0.75792 0.0
O241 O 0.34504 0.52098 0.73201 0.0
O242 O 0.35415 0.47971 0.71362 0.0
O243 O 0.35122 0.47292 0.74619 0.0
C244 C 0.39879 0.47931 0.76358 0.0
O245 O 0.38748 0.49874 0.70387 0.0
O246 O 0.39752 0.52291 0.72472 0.0
In247 In 0.61913 0.00348 0.73392 0.0
O248 O 0.6325 0.98477 0.76135 0.0
O249 O 0.63544 0.97183 0.73067 0.0
C250 C 0.58923 0.01406 0.7618 0.0
C251 C 0.64839 0.03299 0.7249 0.0
C252 C 0.59801 0.99153 0.69924 0.0
O253 O 0.5916 0.99557 0.75504 0.0
O254 O 0.6019 0.02742 0.75436 0.0
O255 O 0.59094 0.00507 0.71192 0.0
O256 O 0.61597 0.98447 0.70379 0.0
C257 C 0.63885 0.96973 0.75008 0.0
O258 O 0.63249 0.02987 0.7135 0.0
O259 O 0.64927 0.0216 0.74103 0.0
In260 In 0.72583 0.62495 0.9719 0.0
O261 O 0.70209 0.63971 0.99444 0.0
O262 O 0.73385 0.64997 -0.00389 0.0
C263 C 0.69124 0.6076 0.95464 0.0
C264 C 0.74768 0.64605 0.94243 0.0
C265 C 0.75 0.59417 0.98808 0.0
O266 O 0.6978 0.6028 0.97275 0.0
O267 O 0.70198 0.62142 0.94534 0.0
O268 O 0.74135 0.59264 0.97028 0.0
O269 O 0.74635 0.61112 -0.00233 0.0
C270 C 0.71545 0.65144 0.00329 0.0
O271 O 0.75323 0.62822 0.94905 0.0
O272 O 0.73108 0.65317 0.9506 0.0
In273 In 0.86015 0.50248 0.7534 0.0
O274 O 0.84918 0.46925 0.76024 0.0
O275 O 0.83328 0.49439 0.77556 0.0
C276 C 0.88543 0.49287 0.72095 0.0
C277 C 0.83463 0.53052 0.73478 0.0
C278 C 0.88744 0.50975 0.78494 0.0
O279 O 0.87053 0.48113 0.72669 0.0
O280 O 0.88734 0.50965 0.73136 0.0
O281 O 0.8754 0.52391 0.77796 0.0
O282 O 0.88559 0.49214 0.77605 0.0
C283 C 0.83508 0.47478 0.77299 0.0
O284 O 0.84754 0.53579 0.74893 0.0
O285 O 0.83441 0.51117 0.7304 0.0
In286 In 0.7638 0.36972 0.47751 0.0
O287 O 0.74086 0.38486 0.50048 0.0
O288 O 0.74757 0.40113 0.47211 0.0
C289 C 0.74573 0.34541 0.4478 0.0
C290 C 0.79837 0.38896 0.46267 0.0
C291 C 0.77357 0.34468 0.51019 0.0
O292 O 0.73804 0.36275 0.45354 0.0
O293 O 0.7626 0.34042 0.45693 0.0
O294 O 0.78699 0.35607 0.5011 0.0
O295 O 0.75516 0.34609 0.50294 0.0
C296 C 0.73766 0.40089 0.48926 0.0
O297 O 0.7907 0.393 0.48051 0.0
O298 O 0.78882 0.37485 0.45246 0.0
In299 In 0.61497 0.49453 0.22116 0.0
O300 O 0.60109 0.4712 0.24434 0.0
O301 O 0.58535 0.50042 0.2404 0.0
C302 C 0.63933 0.46556 0.20225 0.0
C303 C 0.59584 0.51118 0.18728 0.0
C304 C 0.63911 0.51936 0.24563 0.0
O305 O 0.62264 0.46069 0.21173 0.0
O306 O 0.64354 0.48493 0.20222 0.0
O307 O 0.62535 0.52659 0.23335 0.0
O308 O 0.6405 0.49959 0.24579 0.0
C309 C 0.58591 0.48283 0.24955 0.0
O310 O 0.58885 0.4951 0.19655 0.0
O311 O 0.61255 0.51859 0.19495 0.0
Sc312 Sc 0.09395 0.14571 0.11782 0.0
Sc313 Sc 0.1213 0.10757 0.14723 0.0
Sc314 Sc 0.13787 0.11987 0.09597 0.0
O315 O 0.1177 0.12439 0.12035 0.0
C316 C 0.09408 0.12499 0.07212 0.0
C317 C 0.0714 0.10802 0.14181 0.0
C318 C 0.13078 0.07297 0.11212 0.0
C319 C 0.10904 0.15273 0.16519 0.0
C320 C 0.13219 0.16973 0.09602 0.0
C321 C 0.1689 0.11726 0.13522 0.0
O322 O 0.08523 0.13512 0.08689 0.0
O323 O 0.08839 0.10046 0.14909 0.0
O324 O 0.13556 0.08628 0.09803 0.0
O325 O 0.09976 0.1587 0.14853 0.0
O326 O 0.14226 0.15305 0.09154 0.0
O327 O 0.15455 0.11288 0.14836 0.0
O328 O 0.11452 0.16955 0.10534 0.0
O329 O 0.11766 0.1348 0.16694 0.0
O330 O 0.16534 0.12003 0.11576 0.0
O331 O 0.07085 0.12426 0.13017 0.0
O332 O 0.11298 0.1187 0.07317 0.0
O333 O 0.12544 0.07825 0.13065 0.0
Sc334 Sc 0.16822 0.85289 0.39088 0.0
Sc335 Sc 0.11703 0.84363 0.37182 0.0
Sc336 Sc 0.14678 0.88599 0.35202 0.0
O337 O 0.14398 0.86087 0.3716 0.0
C338 C 0.16897 0.90291 0.39378 0.0
C339 C 0.12854 0.84538 0.42057 0.0
C340 C 0.09929 0.89039 0.36747 0.0
C341 C 0.15205 0.80809 0.37517 0.0
C342 C 0.19227 0.86515 0.34878 0.0
C343 C 0.12282 0.85295 0.32291 0.0
O344 O 0.17293 0.88479 0.40123 0.0
O345 O 0.11552 0.84334 0.40554 0.0
O346 O 0.11614 0.89813 0.35999 0.0
O347 O 0.16621 0.82031 0.38223 0.0
O348 O 0.17751 0.87653 0.34159 0.0
O349 O 0.11555 0.84216 0.33806 0.0
O350 O 0.19125 0.85601 0.36647 0.0
O351 O 0.13339 0.81402 0.37125 0.0
O352 O 0.1342 0.86915 0.32559 0.0
O353 O 0.14803 0.84862 0.41767 0.0
O354 O 0.15982 0.90567 0.37623 0.0
O355 O 0.09748 0.87112 0.37239 0.0
Sc356 Sc 0.39455 0.84295 0.62973 0.0
Sc357 Sc 0.35093 0.87411 0.6156 0.0
Sc358 Sc 0.37832 0.88438 0.66269 0.0
O359 O 0.37455 0.86709 0.63603 0.0
C360 C 0.38906 0.8383 0.67926 0.0
C361 C 0.35032 0.82391 0.61561 0.0
C362 C 0.32861 0.87984 0.66031 0.0
C363 C 0.38831 0.86318 0.58421 0.0
C364 C 0.42546 0.87867 0.64671 0.0
C365 C 0.36611 0.91982 0.62938 0.0
O366 O 0.39321 0.83076 0.66124 0.0
O367 O 0.3417 0.84169 0.6126 0.0
O368 O 0.34556 0.88214 0.67068 0.0
O369 O 0.39838 0.85223 0.59752 0.0
O370 O 0.41129 0.88838 0.65692 0.0
O371 O 0.35772 0.90722 0.6163 0.0
O372 O 0.42193 0.86176 0.63661 0.0
O373 O 0.37087 0.87195 0.58836 0.0
O374 O 0.37362 0.91383 0.64687 0.0
O375 O 0.36921 0.8219 0.62186 0.0
O376 O 0.38375 0.85733 0.68208 0.0
O377 O 0.3282 0.87728 0.64047 0.0
Sc378 Sc 0.36212 0.10358 0.85383 0.0
Sc379 Sc 0.39392 0.14465 0.87303 0.0
Sc380 Sc 0.347 0.13144 0.8993 0.0
O381 O 0.3677 0.12652 0.87543 0.0
C382 C 0.31627 0.12303 0.86073 0.0
C383 C 0.37952 0.14063 0.82509 0.0
C384 C 0.35987 0.17844 0.88693 0.0
C385 C 0.41168 0.09953 0.86055 0.0
C386 C 0.34735 0.08126 0.89609 0.0
C387 C 0.39102 0.13699 0.92257 0.0
O388 O 0.3297 0.11245 0.85038 0.0
O389 O 0.38951 0.14959 0.83992 0.0
O390 O 0.34777 0.1651 0.89558 0.0
O391 O 0.39397 0.09217 0.85486 0.0
O392 O 0.34358 0.09834 0.9058 0.0
O393 O 0.40102 0.14196 0.906 0.0
O394 O 0.35448 0.08075 0.87745 0.0
O395 O 0.41399 0.1181 0.86755 0.0
O396 O 0.37156 0.13243 0.92255 0.0
O397 O 0.36896 0.12387 0.82769 0.0
O398 O 0.32024 0.13109 0.87859 0.0
O399 O 0.37695 0.17333 0.87801 0.0
Sc400 Sc 0.6365 0.37832 0.90386 0.0
Sc401 Sc 0.59456 0.34608 0.88705 0.0
Sc402 Sc 0.61666 0.38317 0.85243 0.0
O403 O 0.61595 0.36913 0.8811 0.0
C404 C 0.62419 0.4222 0.88309 0.0
C405 C 0.59416 0.37232 0.92978 0.0
C406 C 0.56748 0.37894 0.8605 0.0
C407 C 0.63566 0.32872 0.91029 0.0
C408 C 0.66535 0.37872 0.8628 0.0
C409 C 0.60805 0.3351 0.84016 0.0
O410 O 0.63058 0.41108 0.89839 0.0
O411 O 0.58564 0.36023 0.91632 0.0
O412 O 0.58334 0.38762 0.85208 0.0
O413 O 0.64444 0.3466 0.91172 0.0
O414 O 0.65013 0.38033 0.84995 0.0
O415 O 0.60098 0.32978 0.85807 0.0
O416 O 0.66284 0.37815 0.88262 0.0
O417 O 0.61757 0.32607 0.90213 0.0
O418 O 0.61398 0.35373 0.83597 0.0
O419 O 0.61269 0.37953 0.92788 0.0
O420 O 0.61913 0.41439 0.8654 0.0
O421 O 0.56899 0.36342 0.87299 0.0
Sc422 Sc 0.90483 0.3703 0.12504 0.0
Sc423 Sc 0.8711 0.41187 0.13936 0.0
Sc424 Sc 0.85701 0.37717 0.09839 0.0
O425 O 0.87766 0.38648 0.12092 0.0
C426 C 0.90049 0.37051 0.07499 0.0
C427 C 0.92038 0.41738 0.13096 0.0
C428 C 0.85479 0.42727 0.09472 0.0
C429 C 0.89132 0.38056 0.17242 0.0
C430 C 0.87264 0.33307 0.11688 0.0
C431 C 0.82622 0.38925 0.13571 0.0
O432 O 0.91089 0.36802 0.09187 0.0
O433 O 0.9027 0.42433 0.13724 0.0
O434 O 0.85155 0.40877 0.08785 0.0
O435 O 0.90205 0.37076 0.1587 0.0
O436 O 0.86007 0.3445 0.10637 0.0
O437 O 0.83891 0.40232 0.14403 0.0
O438 O 0.88931 0.34021 0.12528 0.0
O439 O 0.87877 0.3954 0.16784 0.0
O440 O 0.83077 0.37856 0.11947 0.0
O441 O 0.92323 0.39847 0.12522 0.0
O442 O 0.88094 0.37453 0.07478 0.0
O443 O 0.86247 0.431 0.11282 0.0
Sc444 Sc 0.86228 0.60969 0.34064 0.0
Sc445 Sc 0.88116 0.65123 0.37195 0.0
Sc446 Sc 0.83683 0.62216 0.3882 0.0
O447 O 0.86005 0.62773 0.36692 0.0
C448 C 0.81269 0.61474 0.34485 0.0
C449 C 0.874 0.65455 0.32229 0.0
C450 C 0.83777 0.67232 0.38549 0.0
C451 C 0.91038 0.61478 0.35451 0.0
C452 C 0.85152 0.57582 0.37601 0.0
C453 C 0.87497 0.63353 0.41851 0.0
O454 O 0.82921 0.61146 0.33415 0.0
O455 O 0.88041 0.66178 0.33979 0.0
O456 O 0.8287 0.65501 0.38983 0.0
O457 O 0.89568 0.60597 0.34419 0.0
O458 O 0.84311 0.58893 0.38856 0.0
O459 O 0.88503 0.64369 0.40462 0.0
O460 O 0.8587 0.58099 0.35811 0.0
O461 O 0.90758 0.63108 0.36576 0.0
O462 O 0.85737 0.62485 0.41488 0.0
O463 O 0.86635 0.63621 0.32028 0.0
O464 O 0.81302 0.61849 0.36445 0.0
O465 O 0.85657 0.67341 0.37876 0.0
Sc466 Sc 0.88586 0.84907 0.84882 0.0
Sc467 Sc 0.84012 0.86375 0.87631 0.0
Sc468 Sc 0.85576 0.89202 0.83156 0.0
O469 O 0.8606 0.86826 0.85225 0.0
C470 C 0.90489 0.89462 0.83873 0.0
C471 C 0.88448 0.85495 0.89833 0.0
C472 C 0.84269 0.91337 0.87527 0.0
C473 C 0.84957 0.81685 0.86182 0.0
C474 C 0.87255 0.85558 0.80127 0.0
C475 C 0.80972 0.87439 0.83779 0.0
O476 O 0.90677 0.87508 0.84262 0.0
O477 O 0.86482 0.85847 0.89897 0.0
O478 O 0.84662 0.91405 0.8557 0.0
O479 O 0.8678 0.82089 0.85466 0.0
O480 O 0.86434 0.8735 0.80451 0.0
O481 O 0.81279 0.86857 0.85666 0.0
O482 O 0.88007 0.84435 0.81595 0.0
O483 O 0.83756 0.83084 0.86951 0.0
O484 O 0.824 0.88226 0.82628 0.0
O485 O 0.89437 0.85187 0.88129 0.0
O486 O 0.88728 0.90339 0.83523 0.0
O487 O 0.8409 0.89623 0.88532 0.0
Sc488 Sc 0.85928 0.11365 0.58677 0.0
Sc489 Sc 0.90431 0.13989 0.60495 0.0
Sc490 Sc 0.88671 0.09428 0.63075 0.0
O491 O 0.88343 0.11591 0.60751 0.0
C492 C 0.83726 0.10031 0.63 0.0
C493 C 0.86055 0.16262 0.59461 0.0
C494 C 0.89717 0.13772 0.65413 0.0
C495 C 0.89755 0.12745 0.55735 0.0
C496 C 0.87355 0.06609 0.59126 0.0
C497 C 0.93426 0.10158 0.6177 0.0
O498 O 0.83665 0.10559 0.61073 0.0
O499 O 0.88022 0.16288 0.59822 0.0
O500 O 0.89309 0.11811 0.65414 0.0
O501 O 0.87866 0.1215 0.56001 0.0
O502 O 0.88034 0.06806 0.60999 0.0
O503 O 0.93118 0.12026 0.61133 0.0
O504 O 0.86624 0.08132 0.58061 0.0
O505 O 0.90936 0.1335 0.57229 0.0
O506 O 0.91952 0.08988 0.62435 0.0
O507 O 0.85036 0.14578 0.59126 0.0
O508 O 0.85432 0.09647 0.63963 0.0
O509 O 0.90094 0.14801 0.63745 0.0
Sc510 Sc 0.61023 0.10289 0.33828 0.0
Sc511 Sc 0.63229 0.12393 0.38461 0.0
Sc512 Sc 0.58981 0.14954 0.36005 0.0
O513 O 0.61081 0.12546 0.36096 0.0
C514 C 0.60201 0.1445 0.31165 0.0
C515 C 0.65941 0.10831 0.34534 0.0
C516 C 0.63232 0.17274 0.37359 0.0
C517 C 0.61808 0.07612 0.38006 0.0
C518 C 0.56139 0.1105 0.34673 0.0
C519 C 0.59163 0.14014 0.40907 0.0
O520 O 0.60791 0.12547 0.31314 0.0
O521 O 0.65765 0.11542 0.36393 0.0
O522 O 0.61373 0.17275 0.36619 0.0
O523 O 0.61256 0.07777 0.3609 0.0
O524 O 0.5636 0.12896 0.35406 0.0
O525 O 0.60986 0.13204 0.40857 0.0
O526 O 0.57674 0.09951 0.34023 0.0
O527 O 0.62522 0.09149 0.39071 0.0
O528 O 0.58229 0.14686 0.39277 0.0
O529 O 0.64368 0.10357 0.33398 0.0
O530 O 0.59501 0.15493 0.32718 0.0
O531 O 0.64123 0.15627 0.38058 0.0
Sc532 Sc 0.65718 0.87488 0.09649 0.0
Sc533 Sc 0.61226 0.85863 0.12471 0.0
Sc534 Sc 0.63806 0.90561 0.13838 0.0
O535 O 0.63583 0.87968 0.11983 0.0
C536 C 0.68603 0.89189 0.13393 0.0
C537 C 0.65082 0.82843 0.11393 0.0
C538 C 0.6255 0.87019 0.1716 0.0
C539 C 0.61399 0.86067 0.07477 0.0
C540 C 0.64953 0.92414 0.09326 0.0
C541 C 0.58875 0.90252 0.13163 0.0
O542 O 0.68357 0.88237 0.11651 0.0
O543 O 0.63252 0.83165 0.12124 0.0
O544 O 0.63261 0.88824 0.16686 0.0
O545 O 0.63317 0.86637 0.0739 0.0
O546 O 0.6434 0.92604 0.11215 0.0
O547 O 0.58876 0.88278 0.12843 0.0
O548 O 0.65518 0.90673 0.08527 0.0
O549 O 0.60426 0.85777 0.09196 0.0
O550 O 0.60541 0.91295 0.13509 0.0
O551 O 0.66168 0.84265 0.10511 0.0
O552 O 0.67104 0.9009 0.14356 0.0
O553 O 0.61808 0.8575 0.15801 0.0
Sc554 Sc 0.34652 0.61374 0.10954 0.0
Sc555 Sc 0.3873 0.64988 0.11981 0.0
Sc556 Sc 0.37699 0.60915 0.15572 0.0
O557 O 0.37019 0.6243 0.1284 0.0
C558 C 0.32702 0.60786 0.15552 0.0
C559 C 0.34083 0.66337 0.10613 0.0
C560 C 0.38268 0.6573 0.16906 0.0
C561 C 0.38176 0.62589 0.07612 0.0
C562 C 0.36746 0.57081 0.12477 0.0
C563 C 0.42266 0.61936 0.13794 0.0
O564 O 0.32531 0.60955 0.13565 0.0
O565 O 0.35978 0.66746 0.11109 0.0
O566 O 0.37984 0.63797 0.17324 0.0
O567 O 0.36499 0.61629 0.0812 0.0
O568 O 0.37512 0.57838 0.14161 0.0
O569 O 0.41685 0.63503 0.12703 0.0
O570 O 0.35705 0.58176 0.11169 0.0
O571 O 0.39135 0.63835 0.08845 0.0
O572 O 0.41002 0.6086 0.14903 0.0
O573 O 0.33364 0.64473 0.10518 0.0
O574 O 0.34462 0.60792 0.16499 0.0
O575 O 0.38532 0.66406 0.15045 0.0
Sc576 Sc 0.12245 0.58783 0.85229 0.0
Sc577 Sc 0.1433 0.6224 0.89048 0.0
Sc578 Sc 0.09437 0.63302 0.86697 0.0
O579 O 0.12007 0.6144 0.86994 0.0
C580 C 0.10336 0.62084 0.81951 0.0
C581 C 0.16909 0.60602 0.85065 0.0
C582 C 0.13078 0.66726 0.87246 0.0
C583 C 0.14125 0.57277 0.89642 0.0
C584 C 0.07407 0.58703 0.86385 0.0
C585 C 0.10145 0.6328 0.91636 0.0
O586 O 0.11185 0.60329 0.82397 0.0
O587 O 0.16796 0.61593 0.86801 0.0
O588 O 0.11217 0.66181 0.86765 0.0
O589 O 0.13353 0.56914 0.87832 0.0
O590 O 0.07298 0.60687 0.86592 0.0
O591 O 0.1212 0.62969 0.91527 0.0
O592 O 0.09114 0.57753 0.85974 0.0
O593 O 0.14518 0.5912 0.90307 0.0
O594 O 0.08966 0.63387 0.90026 0.0
O595 O 0.15386 0.59556 0.843 0.0
O596 O 0.09694 0.63364 0.83343 0.0
O597 O 0.14407 0.65455 0.88023 0.0
Sc598 Sc 0.13471 0.36604 0.61724 0.0
Sc599 Sc 0.08873 0.34599 0.64075 0.0
Sc600 Sc 0.1162 0.3878 0.66456 0.0
O601 O 0.11321 0.36658 0.64084 0.0
C602 C 0.16357 0.37422 0.6576 0.0
C603 C 0.12717 0.31734 0.62578 0.0
C604 C 0.10099 0.34694 0.68928 0.0
C605 C 0.09199 0.35719 0.59221 0.0
C606 C 0.12866 0.41506 0.62422 0.0
C607 C 0.06705 0.3888 0.6555 0.0
O608 O 0.1611 0.36958 0.63831 0.0
O609 O 0.10867 0.31964 0.63302 0.0
O610 O 0.10932 0.36508 0.68863 0.0
O611 O 0.11127 0.36237 0.59299 0.0
O612 O 0.12356 0.41323 0.64344 0.0
O613 O 0.06614 0.3702 0.64817 0.0
O614 O 0.1326 0.39936 0.61248 0.0
O615 O 0.0817 0.35144 0.60829 0.0
O616 O 0.08401 0.39717 0.66195 0.0
O617 O 0.13857 0.33267 0.6199 0.0
O618 O 0.14866 0.3804 0.6693 0.0
O619 O 0.09308 0.33806 0.67322 0.0
Sc620 Sc 0.59447 0.64312 0.60681 0.0
Sc621 Sc 0.62139 0.59754 0.62258 0.0
Sc622 Sc 0.64408 0.63118 0.58498 0.0
O623 O 0.61997 0.62394 0.60475 0.0
C624 C 0.60381 0.64285 0.55744 0.0
C625 C 0.57324 0.59775 0.60881 0.0
C626 C 0.64124 0.58134 0.57959 0.0
C627 C 0.60146 0.63043 0.65475 0.0
C628 C 0.6317 0.67636 0.60327 0.0
C629 C 0.66843 0.61494 0.62562 0.0
O630 O 0.59185 0.64561 0.57321 0.0
O631 O 0.58978 0.58837 0.61493 0.0
O632 O 0.64686 0.59944 0.57327 0.0
O633 O 0.59442 0.64268 0.64063 0.0
O634 O 0.64435 0.66371 0.59436 0.0
O635 O 0.6531 0.60394 0.63218 0.0
O636 O 0.61322 0.67113 0.60866 0.0
O637 O 0.61131 0.61358 0.65053 0.0
O638 O 0.66762 0.62568 0.60878 0.0
O639 O 0.57256 0.61743 0.60542 0.0
O640 O 0.62302 0.63755 0.55918 0.0
O641 O 0.63176 0.57841 0.59689 0.0
Sc642 Sc 0.35247 0.36738 0.40766 0.0
Sc643 Sc 0.36397 0.39154 0.35929 0.0
Sc644 Sc 0.39487 0.34911 0.37697 0.0
O645 O 0.37046 0.36934 0.38131 0.0
C646 C 0.39882 0.35995 0.42573 0.0
C647 C 0.35717 0.41701 0.40188 0.0
C648 C 0.41404 0.39193 0.35912 0.0
C649 C 0.31792 0.37668 0.37263 0.0
C650 C 0.3601 0.31902 0.39707 0.0
C651 C 0.37459 0.3514 0.33112 0.0
O652 O 0.37956 0.3649 0.42788 0.0
O653 O 0.36131 0.41614 0.38236 0.0
O654 O 0.41601 0.3735 0.36657 0.0
O655 O 0.32332 0.36938 0.39042 0.0
O656 O 0.37691 0.32204 0.38671 0.0
O657 O 0.36608 0.36928 0.33385 0.0
O658 O 0.34966 0.33388 0.40533 0.0
O659 O 0.33086 0.38529 0.36012 0.0
O660 O 0.38543 0.34226 0.34522 0.0
O661 O 0.35331 0.40078 0.41286 0.0
O662 O 0.40664 0.35407 0.4083 0.0
O663 O 0.39629 0.4004 0.35579 0.0
H664 H 0.06064 0.22953 0.34567 0.0
H665 H 0.08505 0.21687 0.31873 0.0
H666 H 0.04889 0.24871 0.27099 0.0
H667 H 0.02458 0.26151 0.29777 0.0
H668 H 0.07107 0.19097 0.28685 0.0
H669 H 0.10936 0.2614 0.25323 0.0
H670 H 0.09678 0.26152 0.2787 0.0
H671 H 0.08135 0.26423 0.25512 0.0
C672 C 0.05818 0.2342 0.32948 0.0
C673 C 0.04065 0.24637 0.32375 0.0
C674 C 0.07216 0.22701 0.31416 0.0
C675 C 0.06893 0.2321 0.29294 0.0
C676 C 0.05195 0.24502 0.28733 0.0
H677 H 0.08623 0.18878 0.17045 0.0
H678 H 0.08152 0.20877 0.20283 0.0
C679 C 0.03795 0.25215 0.30262 0.0
C680 C 0.08119 0.22149 0.27633 0.0
H681 H 0.10795 0.23064 0.2308 0.0
C682 C 0.07961 0.19954 0.27484 0.0
C683 C 0.09221 0.2328 0.26072 0.0
C684 C 0.09522 0.25628 0.26211 0.0
C685 C 0.08743 0.18869 0.25735 0.0
C686 C 0.09755 0.20013 0.24118 0.0
C687 C 0.10017 0.22196 0.24323 0.0
C688 C 0.10323 0.18997 0.22107 0.0
C689 C 0.08349 0.16531 0.25568 0.0
C690 C 0.11759 0.17327 0.22045 0.0
C691 C 0.12015 0.1616 0.20201 0.0
C692 C 0.10854 0.16665 0.18384 0.0
C693 C 0.0953 0.18435 0.18418 0.0
C694 C 0.09264 0.19586 0.20266 0.0
H695 H 0.07202 0.1597 0.26759 0.0
H696 H 0.07746 0.16115 0.23982 0.0
H697 H 0.09848 0.15675 0.2582 0.0
H698 H 0.12623 0.16877 0.23443 0.0
H699 H 0.13074 0.14827 0.20219 0.0
H700 H 0.04425 0.74812 0.55514 0.0
H701 H 0.06727 0.7691 0.53287 0.0
H702 H 0.06487 0.82003 0.57769 0.0
H703 H 0.04146 0.7991 0.60009 0.0
H704 H 0.05681 0.8329 0.53747 0.0
H705 H 0.12888 0.78473 0.53856 0.0
H706 H 0.1064 0.76876 0.53263 0.0
H707 H 0.10825 0.78166 0.55782 0.0
C708 C 0.0488 0.76369 0.5604 0.0
C709 C 0.04109 0.77199 0.57933 0.0
C710 C 0.06211 0.77559 0.54775 0.0
C711 C 0.06812 0.79594 0.55386 0.0
C712 C 0.06059 0.80426 0.57285 0.0
H713 H 0.15085 0.84901 0.4574 0.0
H714 H 0.13812 0.84252 0.4931 0.0
C715 C 0.04723 0.79231 0.58557 0.0
C716 C 0.08069 0.80892 0.5393 0.0
H717 H 0.12326 0.80578 0.50702 0.0
C718 C 0.07162 0.8273 0.53116 0.0
C719 C 0.10026 0.80193 0.53145 0.0
C720 C 0.11161 0.78331 0.54077 0.0
C721 C 0.08065 0.83774 0.514 0.0
C722 C 0.09891 0.82925 0.50457 0.0
C723 C 0.10904 0.81208 0.51401 0.0
C724 C 0.10611 0.836 0.48354 0.0
C725 C 0.07011 0.85727 0.50566 0.0
C726 C 0.09232 0.83451 0.46638 0.0
C727 C 0.09948 0.83819 0.44603 0.0
C728 C 0.1207 0.84316 0.44236 0.0
C729 C 0.13442 0.84514 0.45965 0.0
C730 C 0.12718 0.84151 0.48007 0.0
H731 H 0.06209 0.866 0.51849 0.0
H732 H 0.08156 0.86793 0.49792 0.0
H733 H 0.05795 0.85269 0.49399 0.0
H734 H 0.07614 0.82968 0.46862 0.0
H735 H 0.08846 0.83648 0.43313 0.0
H736 H 0.44057 0.72717 0.84426 0.0
H737 H 0.41925 0.74034 0.81493 0.0
H738 H 0.47005 0.78136 0.79657 0.0
H739 H 0.49156 0.76794 0.8254 0.0
H740 H 0.40536 0.77965 0.80377 0.0
H741 H 0.45902 0.7481 0.74317 0.0
H742 H 0.4608 0.74059 0.77047 0.0
H743 H 0.4727 0.76467 0.76148 0.0
C744 C 0.4471 0.7391 0.83402 0.0
C745 C 0.46778 0.7464 0.83691 0.0
C746 C 0.43494 0.74656 0.8173 0.0
C747 C 0.4433 0.76141 0.80332 0.0
C748 C 0.46355 0.76945 0.80685 0.0
H749 H 0.39264 0.85069 0.72017 0.0
H750 H 0.40163 0.82901 0.75033 0.0
C751 C 0.47576 0.76189 0.8234 0.0
C752 C 0.43111 0.76847 0.78484 0.0
H753 H 0.43527 0.77526 0.7319 0.0
C754 C 0.41169 0.77844 0.78799 0.0
C755 C 0.43908 0.76627 0.76421 0.0
C756 C 0.45893 0.7541 0.75959 0.0
C757 C 0.40072 0.78753 0.77114 0.0
C758 C 0.40973 0.78707 0.75081 0.0
C759 C 0.42846 0.77588 0.74752 0.0
C760 C 0.40127 0.7996 0.73311 0.0
C761 C 0.37972 0.79771 0.77539 0.0
C762 C 0.39829 0.79035 0.71325 0.0
C763 C 0.39363 0.80282 0.6958 0.0
C764 C 0.39176 0.82475 0.69793 0.0
C765 C 0.39383 0.83384 0.71799 0.0
C766 C 0.39877 0.82141 0.73535 0.0
H767 H 0.37156 0.78987 0.78868 0.0
H768 H 0.38224 0.81439 0.77988 0.0
H769 H 0.36934 0.79717 0.76134 0.0
H770 H 0.40026 0.77356 0.71115 0.0
H771 H 0.39198 0.79534 0.68056 0.0
H772 H 0.44846 0.20422 0.10441 0.0
H773 H 0.43537 0.1782 0.07914 0.0
H774 H 0.47924 0.20108 0.03283 0.0
H775 H 0.49247 0.22699 0.05796 0.0
H776 H 0.41712 0.19031 0.04132 0.0
H777 H 0.48432 0.13699 0.02684 0.0
H778 H 0.48259 0.15359 0.04988 0.0
H779 H 0.49138 0.16428 0.02523 0.0
C780 C 0.45555 0.20345 0.08895 0.0
C781 C 0.47139 0.21768 0.08307 0.0
C782 C 0.44811 0.18855 0.0746 0.0
C783 C 0.45658 0.18752 0.05427 0.0
C784 C 0.47285 0.20129 0.04861 0.0
H785 H 0.42977 0.15389 0.9304 0.0
H786 H 0.44537 0.16133 0.96461 0.0
C787 C 0.48024 0.21622 0.06291 0.0
C788 C 0.44665 0.17416 0.03806 0.0
H789 H 0.45773 0.13826 -0.00024 0.0
C790 C 0.42578 0.17855 0.03251 0.0
C791 C 0.4581 0.15893 0.02664 0.0
C792 C 0.48029 0.153 0.03257 0.0
C793 C 0.41647 0.16919 0.01486 0.0
C794 C 0.42824 0.15463 0.00282 0.0
C795 C 0.44876 0.1494 0.00906 0.0
C796 C 0.42035 0.14673 0.98242 0.0
C797 C 0.39464 0.17607 0.00848 0.0
C798 C 0.40155 0.13528 0.98112 0.0
C799 C 0.3924 0.13122 0.96155 0.0
C800 C 0.4021 0.13832 0.94299 0.0
C801 C 0.42178 0.14833 0.94436 0.0
C802 C 0.43078 0.15255 0.96391 0.0
H803 H 0.38947 0.19036 0.01713 0.0
H804 H 0.39395 0.17942 0.99136 0.0
H805 H 0.3833 0.16328 0.01194 0.0
H806 H 0.39352 0.13025 0.99526 0.0
H807 H 0.3774 0.12316 0.96103 0.0
H808 H 0.0658 0.78749 0.1366 0.0
H809 H 0.08915 0.80257 0.16333 0.0
H810 H 0.03523 0.82524 0.19764 0.0
H811 H 0.01189 0.81075 0.1708 0.0
H812 H 0.06861 0.85325 0.19808 0.0
H813 H 0.09383 0.77219 0.2196 0.0
H814 H 0.09873 0.78001 0.19292 0.0
H815 H 0.07215 0.7771 0.20201 0.0
C816 C 0.05898 0.79602 0.14967 0.0
C817 C 0.03705 0.79773 0.15182 0.0
C818 C 0.07231 0.80452 0.16493 0.0
C819 C 0.06385 0.81459 0.18263 0.0
C820 C 0.04204 0.81744 0.18411 0.0
H821 H 0.09409 0.82348 0.3105 0.0
H822 H 0.08321 0.81502 0.27471 0.0
C823 C 0.02873 0.80911 0.1688 0.0
C824 C 0.07729 0.82065 0.20059 0.0
H825 H 0.10591 0.79976 0.24086 0.0
C826 C 0.07706 0.84167 0.20731 0.0
C827 C 0.08809 0.80536 0.21261 0.0
C828 C 0.08816 0.78237 0.20659 0.0
C829 C 0.08658 0.84769 0.22628 0.0
C830 C 0.09693 0.83229 0.23853 0.0
C831 C 0.098 0.81148 0.23132 0.0
C832 C 0.10467 0.83689 0.25993 0.0
C833 C 0.08441 0.87017 0.23364 0.0
C834 C 0.12061 0.85172 0.26339 0.0
C835 C 0.12678 0.85674 0.28387 0.0
C836 C 0.11722 0.84683 0.30119 0.0
C837 C 0.10175 0.83144 0.29756 0.0
C838 C 0.09553 0.82656 0.27711 0.0
H839 H 0.07261 0.87902 0.22428 0.0
H840 H 0.07976 0.87075 0.25045 0.0
H841 H 0.09978 0.87828 0.23204 0.0
H842 H 0.12813 0.85954 0.25028 0.0
H843 H 0.13891 0.8685 0.28612 0.0
H844 H 0.49454 0.81238 0.43565 0.0
H845 H 0.4767 0.83168 0.46362 0.0
H846 H 0.42865 0.85113 0.41983 0.0
H847 H 0.44621 0.83139 0.39176 0.0
H848 H 0.46387 0.87369 0.46905 0.0
H849 H 0.39588 0.81844 0.46442 0.0
H850 H 0.42035 0.81332 0.45109 0.0
H851 H 0.40236 0.83251 0.44083 0.0
C852 C 0.48031 0.82096 0.4319 0.0
C853 C 0.47158 0.82016 0.41162 0.0
C854 C 0.47018 0.83204 0.44787 0.0
C855 C 0.45121 0.84253 0.44383 0.0
C856 C 0.44309 0.8428 0.42331 0.0
H857 H 0.3688 0.87805 0.5487 0.0
H858 H 0.38295 0.8787 0.51289 0.0
C859 C 0.45317 0.83159 0.40731 0.0
C860 C 0.4393 0.85154 0.46161 0.0
H861 H 0.39637 0.84232 0.49234 0.0
C862 C 0.44892 0.86712 0.47398 0.0
C863 C 0.41975 0.84298 0.4679 0.0
C864 C 0.40896 0.8258 0.45551 0.0
C865 C 0.44 0.87362 0.49306 0.0
C866 C 0.42117 0.86409 0.49996 0.0
C867 C 0.41083 0.84957 0.48693 0.0
C868 C 0.41347 0.86657 0.52171 0.0
C869 C 0.45115 0.89011 0.50599 0.0
C870 C 0.42598 0.85953 0.53844 0.0
C871 C 0.41795 0.85895 0.5588 0.0
C872 C 0.39718 0.86534 0.56283 0.0
C873 C 0.38486 0.87302 0.54612 0.0
C874 C 0.39291 0.87346 0.52568 0.0
H875 H 0.4608 0.90061 0.49591 0.0
H876 H 0.4398 0.89983 0.51503 0.0
H877 H 0.46188 0.88226 0.51729 0.0
H878 H 0.44172 0.85368 0.53563 0.0
H879 H 0.42791 0.85306 0.5713 0.0
H880 H 0.43708 0.20005 0.6415 0.0
H881 H 0.41165 0.18392 0.6654 0.0
H882 H 0.42214 0.23397 0.71012 0.0
H883 H 0.44701 0.25042 0.68611 0.0
H884 H 0.42367 0.16904 0.70196 0.0
H885 H 0.36012 0.22595 0.71679 0.0
H886 H 0.37762 0.22831 0.69457 0.0
H887 H 0.38515 0.23851 0.71997 0.0
C888 C 0.43349 0.20789 0.6562 0.0
C889 C 0.44412 0.22638 0.66208 0.0
C890 C 0.41893 0.1987 0.66978 0.0
C891 C 0.4148 0.20784 0.68945 0.0
C892 C 0.4246 0.22692 0.69481 0.0
H893 H 0.39683 0.17833 0.81406 0.0
H894 H 0.40035 0.19301 0.77887 0.0
C895 C 0.439 0.23621 0.68116 0.0
C896 C 0.40333 0.19587 0.70574 0.0
H897 H 0.3683 0.20194 0.74587 0.0
C898 C 0.4111 0.17594 0.71117 0.0
C899 C 0.3869 0.20487 0.71772 0.0
C900 C 0.37684 0.2255 0.71178 0.0
C901 C 0.40416 0.16557 0.72929 0.0
C902 C 0.38895 0.17536 0.74215 0.0
C903 C 0.38008 0.19459 0.73598 0.0
C904 C 0.38435 0.16727 0.76335 0.0
C905 C 0.41426 0.14497 0.7354 0.0
C906 C 0.37387 0.1481 0.7662 0.0
C907 C 0.37189 0.13955 0.78634 0.0
C908 C 0.38044 0.15008 0.80388 0.0
C909 C 0.39026 0.16968 0.80092 0.0
C910 C 0.39215 0.17819 0.78084 0.0
H911 H 0.4274 0.14061 0.72477 0.0
H912 H 0.42036 0.14585 0.75174 0.0
H913 H 0.40232 0.13225 0.73481 0.0
H914 H 0.36766 0.13954 0.75282 0.0
H915 H 0.3641 0.12451 0.78808 0.0
H916 H 0.02382 0.15755 0.88905 0.0
H917 H 0.03838 0.13188 0.9137 0.0
H918 H 0.99439 0.15256 0.96102 0.0
H919 H 0.97942 0.17765 0.93635 0.0
H920 H 0.05789 0.14622 0.94687 0.0
H921 H -0.00276 0.09146 0.9751 0.0
H922 H 0.99413 0.10625 0.95105 0.0
H923 H 0.98722 0.11776 0.97606 0.0
C924 C 0.01681 0.15609 0.9045 0.0
C925 C 0.00071 0.16976 0.91094 0.0
C926 C 0.02508 0.14137 0.91852 0.0
C927 C 0.01739 0.14016 0.93917 0.0
C928 C 0.00025 0.15276 0.94504 0.0
H929 H 0.05487 0.13939 0.0619 0.0
H930 H 0.03703 0.13633 0.02809 0.0
C931 C 0.99185 0.16732 0.93099 0.0
C932 C 0.0298 0.12946 0.95569 0.0
H933 H 0.02415 0.10175 0.00122 0.0
C934 C 0.05075 0.13588 0.95838 0.0
C935 C 0.02048 0.11599 0.9707 0.0
C936 C -0.00142 0.10732 0.96791 0.0
C937 C 0.06195 0.13094 0.97667 0.0
C938 C 0.05199 0.11895 0.99249 0.0
C939 C 0.03165 0.11107 0.98908 0.0
C940 C 0.06128 0.11731 0.01369 0.0
C941 C 0.08369 0.14008 0.97965 0.0
C942 C 0.08051 0.10708 0.01692 0.0
C943 C 0.09092 0.10899 0.03617 0.0
C944 C 0.08214 0.12107 0.05253 0.0
C945 C 0.0622 0.13015 0.0496 0.0
C946 C 0.05189 0.1283 0.03033 0.0
H947 H 0.08791 0.15139 0.96704 0.0
H948 H 0.08484 0.14829 0.99503 0.0
H949 H 0.09545 0.12721 0.97953 0.0
H950 H 0.08785 0.09831 0.00429 0.0
H951 H 0.10611 0.10151 0.038 0.0
H952 H 0.31769 0.00542 0.18679 0.0
H953 H 0.29139 0.02842 0.17079 0.0
H954 H 0.31426 0.08056 0.20782 0.0
H955 H 0.34095 0.05776 0.22353 0.0
H956 H 0.26077 0.04774 0.19331 0.0
H957 H 0.3077 0.10702 0.14975 0.0
H958 H 0.31864 0.08241 0.15874 0.0
H959 H 0.31516 0.10388 0.17681 0.0
C960 C 0.3173 0.02185 0.19128 0.0
C961 C 0.33125 0.02982 0.20644 0.0
C962 C 0.30234 0.03497 0.18211 0.0
C963 C 0.30107 0.05622 0.18796 0.0
C964 C 0.3153 0.06433 0.20275 0.0
H965 H 0.1833 0.12257 0.17528 0.0
H966 H 0.21779 0.11214 0.18866 0.0
C967 C 0.33039 0.05124 0.21183 0.0
C968 C 0.28345 0.06918 0.18024 0.0
H969 H 0.27101 0.11384 0.15317 0.0
C970 C 0.26301 0.06217 0.18451 0.0
C971 C 0.28651 0.08795 0.16873 0.0
C972 C 0.30818 0.09571 0.16304 0.0
C973 C 0.24545 0.07333 0.17749 0.0
C974 C 0.24844 0.09236 0.16638 0.0
C975 C 0.26887 0.09942 0.16202 0.0
C976 C 0.23029 0.10412 0.15806 0.0
C977 C 0.22384 0.06431 0.18153 0.0
C978 C 0.22661 0.10454 0.13633 0.0
C979 C 0.20702 0.11072 0.12861 0.0
C980 C 0.19086 0.11633 0.14259 0.0
C981 C 0.19536 0.11794 0.16418 0.0
C982 C 0.21502 0.11202 0.17184 0.0
H983 H 0.22453 0.04744 0.18604 0.0
H984 H 0.21632 0.07308 0.1946 0.0
H985 H 0.21368 0.06582 0.16739 0.0
H986 H 0.23831 0.09857 0.12548 0.0
H987 H 0.20405 0.10943 0.11188 0.0
H988 H 0.25893 0.06721 0.4678 0.0
H989 H 0.2446 0.0367 0.44921 0.0
H990 H 0.19653 0.03027 0.49658 0.0
H991 H 0.21048 0.06109 0.515 0.0
H992 H 0.24091 -0.00351 0.4635 0.0
H993 H 0.16254 0.02859 0.44246 0.0
H994 H 0.1838 0.045 0.45173 0.0
H995 H 0.1684 0.02996 0.47004 0.0
C996 C 0.24521 0.05938 0.47416 0.0
C997 C 0.23575 0.06653 0.49278 0.0
C998 C 0.23707 0.04197 0.46354 0.0
C999 C 0.21935 0.03143 0.47138 0.0
C1000 C 0.20992 0.03848 0.49003 0.0
H1001 H 0.18306 0.9046 0.43447 0.0
H1002 H 0.19479 0.93564 0.45394 0.0
C1003 C 0.21798 0.05599 0.50059 0.0
C1004 C 0.21128 0.01259 0.4604 0.0
H1005 H 0.16785 0.99209 0.43642 0.0
C1006 C 0.22495 0.99552 0.45752 0.0
C1007 C 0.19053 0.01152 0.45247 0.0
C1008 C 0.17551 0.02981 0.45412 0.0
C1009 C 0.2184 0.9773 0.44697 0.0
C1010 C 0.19746 0.97598 0.43957 0.0
C1011 C 0.18382 0.9931 0.44234 0.0
C1012 C 0.18963 0.95727 0.42819 0.0
C1013 C 0.23411 0.95987 0.44339 0.0
C1014 C 0.18219 0.95931 0.40754 0.0
C1015 C 0.17524 0.94168 0.39646 0.0
C1016 C 0.17565 0.92166 0.40584 0.0
C1017 C 0.18276 0.91974 0.4267 0.0
C1018 C 0.18956 0.93744 0.43783 0.0
H1019 H 0.25056 0.96556 0.44505 0.0
H1020 H 0.23158 0.94733 0.45524 0.0
H1021 H 0.23219 0.95284 0.42751 0.0
H1022 H 0.18205 0.97452 0.39988 0.0
H1023 H 0.16985 0.94374 0.38043 0.0
H1024 H 0.17045 0.95048 0.76779 0.0
H1025 H 0.19846 0.92575 0.75821 0.0
H1026 H 0.19706 0.94873 0.69448 0.0
H1027 H 0.16921 0.97356 0.70388 0.0
H1028 H 0.19869 0.89894 0.70492 0.0
H1029 H 0.25957 0.952 0.73952 0.0
H1030 H 0.23557 0.94682 0.75367 0.0
H1031 H 0.23481 0.96227 0.73015 0.0
C1032 C 0.17599 0.95012 0.7517 0.0
C1033 C 0.16781 0.96403 0.73659 0.0
C1034 C 0.1919 0.93598 0.74628 0.0
C1035 C 0.19967 0.93551 0.72568 0.0
C1036 C 0.19109 0.94889 0.71043 0.0
H1037 H 0.2897 0.88639 0.64339 0.0
H1038 H 0.25751 0.89509 0.66206 0.0
C1039 C 0.17531 0.9631 0.71585 0.0
C1040 C 0.21786 0.92232 0.72022 0.0
H1041 H 0.27135 0.92329 0.71975 0.0
C1042 C 0.21462 0.90398 0.7084 0.0
C1043 C 0.23847 0.92894 0.72506 0.0
C1044 C 0.24253 0.94859 0.73777 0.0
C1045 C 0.23168 0.89242 0.70057 0.0
C1046 C 0.25237 0.89983 0.70419 0.0
C1047 C 0.2555 0.9176 0.71696 0.0
C1048 C 0.27085 0.89103 0.69314 0.0
C1049 C 0.22735 0.87257 0.68827 0.0
C1050 C 0.28916 0.88592 0.70437 0.0
C1051 C 0.30779 0.88136 0.69371 0.0
C1052 C 0.30841 0.88179 0.6716 0.0
C1053 C 0.28976 0.88581 0.66041 0.0
C1054 C 0.27123 0.8906 0.67109 0.0
H1055 H 0.21263 0.86491 0.69373 0.0
H1056 H 0.22521 0.87659 0.67143 0.0
H1057 H 0.24047 0.86115 0.68967 0.0
H1058 H 0.28924 0.88626 0.72141 0.0
H1059 H 0.32185 0.87817 0.70279 0.0
H1060 H 0.23021 0.93837 0.96021 0.0
H1061 H 0.25235 0.96703 0.94736 0.0
H1062 H 0.30772 0.92938 0.95808 0.0
H1063 H 0.28564 0.9006 0.97115 0.0
H1064 H 0.31048 0.97158 0.9733 0.0
H1065 H 0.28349 0.96769 0.89042 0.0
H1066 H 0.26243 0.96934 0.90912 0.0
H1067 H 0.2792 0.94658 0.90889 0.0
C1068 C 0.24709 0.93616 0.95978 0.0
C1069 C 0.25621 0.91724 0.96656 0.0
C1070 C 0.25969 0.9525 0.95237 0.0
C1071 C 0.2816 0.95015 0.95153 0.0
C1072 C 0.29081 0.93139 0.95853 0.0
H1073 H 0.35616 0.04147 0.88222 0.0
H1074 H 0.34367 0.00832 0.89694 0.0
C1075 C 0.27819 0.91499 0.96593 0.0
C1076 C 0.2948 0.96748 0.94353 0.0
H1077 H 0.3023 -0.00145 0.90058 0.0
C1078 C 0.30892 0.97738 0.95734 0.0
C1079 C 0.29292 0.97472 0.92263 0.0
C1080 C 0.27885 0.96392 0.90682 0.0
C1081 C 0.32058 0.995 0.95099 0.0
C1082 C 0.31777 0.00297 0.93044 0.0
C1083 C 0.30431 0.99249 0.9164 0.0
C1084 C 0.32775 0.02272 0.92332 0.0
C1085 C 0.33572 0.00495 0.96635 0.0
C1086 C 0.32319 0.04178 0.93347 0.0
C1087 C 0.33034 0.06079 0.92514 0.0
C1088 C 0.34197 0.06108 0.90634 0.0
C1089 C 0.34714 0.04186 0.89664 0.0
C1090 C 0.34005 0.02288 0.90504 0.0
H1091 H 0.34085 0.99355 0.97854 0.0
H1092 H 0.34983 0.01118 0.95819 0.0
H1093 H 0.32779 0.01822 0.97445 0.0
H1094 H 0.31334 0.04205 0.94734 0.0
H1095 H 0.32602 0.07528 0.93299 0.0
H1096 H 0.32068 0.95838 0.28233 0.0
H1097 H 0.30169 0.92902 0.29787 0.0
H1098 H 0.34039 0.88516 0.26353 0.0
H1099 H 0.35977 0.91474 0.24786 0.0
H1100 H 0.2955 0.87873 0.26007 0.0
H1101 H 0.32072 0.88573 0.34277 0.0
H1102 H 0.31454 0.91104 0.33197 0.0
H1103 H 0.33602 0.89607 0.32116 0.0
C1104 C 0.3253 0.94251 0.27819 0.0
C1105 C 0.34166 0.93881 0.26391 0.0
C1106 C 0.31457 0.92575 0.28721 0.0
C1107 C 0.31995 0.90498 0.28212 0.0
C1108 C 0.33626 0.90112 0.26783 0.0
H1109 H 0.22685 0.84091 0.35761 0.0
H1110 H 0.26055 0.8409 0.33918 0.0
C1111 C 0.34723 0.91798 0.2589 0.0
C1112 C 0.30699 0.88779 0.29067 0.0
H1113 H 0.28427 0.87444 0.3371 0.0
C1114 C 0.29344 0.87709 0.27692 0.0
C1115 C 0.30477 0.88515 0.31258 0.0
C1116 C 0.31998 0.89495 0.32795 0.0
C1117 C 0.27593 0.86616 0.28464 0.0
C1118 C 0.27186 0.86644 0.3065 0.0
C1119 C 0.28709 0.8746 0.32029 0.0
C1120 C 0.25057 0.86263 0.31501 0.0
C1121 C 0.26125 0.85566 0.26924 0.0
C1122 C 0.2337 0.87463 0.30736 0.0
C1123 C 0.21448 0.87475 0.31784 0.0
C1124 C 0.21182 0.86307 0.33638 0.0
C1125 C 0.22843 0.85026 0.34348 0.0
C1126 C 0.24767 0.8501 0.3329 0.0
H1127 H 0.27021 0.84884 0.25589 0.0
H1128 H 0.25189 0.84302 0.27681 0.0
H1129 H 0.25034 0.86758 0.26265 0.0
H1130 H 0.23572 0.88495 0.29398 0.0
H1131 H 0.20205 0.88474 0.31188 0.0
H1132 H 0.27684 0.06704 0.58021 0.0
H1133 H 0.30086 0.04502 0.60013 0.0
H1134 H 0.35297 0.08425 0.58141 0.0
H1135 H 0.32882 0.10633 0.56096 0.0
H1136 H 0.36002 0.04417 0.57213 0.0
H1137 H 0.33328 0.04729 0.65412 0.0
H1138 H 0.31084 0.04328 0.63756 0.0
H1139 H 0.326 0.06717 0.63517 0.0
C1140 C 0.29333 0.07129 0.5807 0.0
C1141 C 0.30101 0.08827 0.56892 0.0
C1142 C 0.30705 0.05883 0.59233 0.0
C1143 C 0.32868 0.0632 0.59259 0.0
C1144 C 0.33629 0.08077 0.58161 0.0
H1145 H 0.38253 0.95205 0.65302 0.0
H1146 H 0.38094 0.98974 0.64547 0.0
C1147 C 0.32251 0.09331 0.56993 0.0
C1148 C 0.34321 0.04735 0.60142 0.0
H1149 H 0.34573 0.01237 0.64183 0.0
C1150 C 0.35746 0.03762 0.58766 0.0
C1151 C 0.3404 0.03909 0.62185 0.0
C1152 C 0.32695 0.04997 0.63805 0.0
C1153 C 0.36689 0.01842 0.59287 0.0
C1154 C 0.36152 0.00861 0.61205 0.0
C1155 C 0.34943 0.01963 0.62685 0.0
C1156 C 0.36518 0.98592 0.61555 0.0
C1157 C 0.38156 0.00827 0.57724 0.0
C1158 C 0.35683 0.97132 0.60123 0.0
C1159 C 0.35765 0.94984 0.60546 0.0
C1160 C 0.36664 0.94251 0.62426 0.0
C1161 C 0.37544 0.95716 0.63841 0.0
C1162 C 0.37462 0.9787 0.63411 0.0
H1163 H 0.39046 0.02039 0.56837 0.0
H1164 H 0.39289 -0.00245 0.58508 0.0
H1165 H 0.37221 -0.00092 0.56569 0.0
H1166 H 0.34889 0.97655 0.5871 0.0
H1167 H 0.35069 0.93907 0.59422 0.0
H1168 H 0.17558 0.03275 0.80297 0.0
H1169 H 0.19672 0.0593 0.82067 0.0
H1170 H 0.15962 0.1084 0.79211 0.0
H1171 H 0.13842 0.08166 0.77392 0.0
H1172 H 0.20107 0.11501 0.78691 0.0
H1173 H 0.18705 0.09744 0.87029 0.0
H1174 H 0.19289 0.07341 0.85679 0.0
H1175 H 0.16969 0.08816 0.84975 0.0
C1176 C 0.1717 0.04918 0.80066 0.0
C1177 C 0.1554 0.05516 0.78705 0.0
C1178 C 0.18365 0.06436 0.81099 0.0
C1179 C 0.17942 0.08582 0.80811 0.0
C1180 C 0.16292 0.0919 0.79476 0.0
H1181 H 0.28228 0.14332 0.87806 0.0
H1182 H 0.24603 0.14313 0.86509 0.0
C1183 C 0.1509 0.07665 0.78437 0.0
C1184 C 0.19403 0.10148 0.81719 0.0
H1185 H 0.22311 0.10908 0.8615 0.0
C1186 C 0.20548 0.1143 0.80338 0.0
C1187 C 0.19938 0.10119 0.83876 0.0
C1188 C 0.18638 0.08947 0.85474 0.0
C1189 C 0.22378 0.12462 0.8101 0.0
C1190 C 0.23093 0.12153 0.83093 0.0
C1191 C 0.21795 0.11105 0.84535 0.0
C1192 C 0.25309 0.1253 0.83697 0.0
C1193 C 0.23588 0.13769 0.79448 0.0
C1194 C 0.2691 0.11553 0.82537 0.0
C1195 C 0.28974 0.11558 0.83268 0.0
C1196 C 0.29481 0.12517 0.85196 0.0
C1197 C 0.2789 0.13569 0.86319 0.0
C1198 C 0.25819 0.13569 0.85578 0.0
H1199 H 0.22497 0.14588 0.78357 0.0
H1200 H 0.24595 0.14958 0.80242 0.0
H1201 H 0.246 0.12724 0.78485 0.0
H1202 H 0.2655 0.10683 0.81116 0.0
H1203 H 0.30154 0.10735 0.82358 0.0
H1204 H 0.20336 0.89275 0.06038 0.0
H1205 H 0.18699 0.9177 0.08466 0.0
H1206 H 0.14307 0.93588 0.0362 0.0
H1207 H 0.15891 0.91055 0.01216 0.0
H1208 H 0.189 0.95818 0.07733 0.0
H1209 H 0.10528 0.93756 0.08651 0.0
H1210 H 0.12436 0.91912 0.07639 0.0
H1211 H 0.11223 0.93813 0.05923 0.0
C1212 C 0.18982 0.90166 0.05513 0.0
C1213 C 0.1825 0.8999 0.03436 0.0
C1214 C 0.18046 0.91584 0.06902 0.0
C1215 C 0.16367 0.92852 0.06234 0.0
C1216 C 0.15561 0.9259 0.04193 0.0
H1217 H 0.13914 0.05571 0.07373 0.0
H1218 H 0.1454 0.01883 0.06549 0.0
C1219 C 0.16483 0.91156 0.02811 0.0
C1220 C 0.15709 0.94686 0.07509 0.0
H1221 H 0.11396 0.97494 0.0904 0.0
C1222 C 0.17263 0.96152 0.08072 0.0
C1223 C 0.13575 0.95125 0.07962 0.0
C1224 C 0.11851 0.93553 0.0753 0.0
C1225 C 0.16729 0.98105 0.08931 0.0
C1226 C 0.14588 0.9861 0.09213 0.0
C1227 C 0.13037 0.971 0.08794 0.0
C1228 C 0.13956 0.00781 0.09708 0.0
C1229 C 0.18449 -0.00335 0.09431 0.0
C1230 C 0.13374 0.01359 0.11751 0.0
C1231 C 0.13019 0.03476 0.12238 0.0
C1232 C 0.13246 0.05036 0.10682 0.0
C1233 C 0.13744 0.04421 0.08616 0.0
C1234 C 0.14096 0.02313 0.08137 0.0
H1235 H 0.20014 0.98896 0.09535 0.0
H1236 H 0.18513 0.0087 0.08171 0.0
H1237 H 0.18121 0.00484 0.10938 0.0
H1238 H 0.13264 0.00185 0.1298 0.0
H1239 H 0.12631 0.03894 0.13842 0.0
H1240 H 0.23236 0.3472 0.0688 0.0
H1241 H 0.20907 0.32023 0.08361 0.0
H1242 H 0.20966 0.28703 0.02442 0.0
H1243 H 0.23262 0.3139 0.00949 0.0
H1244 H 0.16918 0.29111 0.04298 0.0
H1245 H 0.22945 0.26027 0.09861 0.0
H1246 H 0.22379 0.28794 0.10005 0.0
H1247 H 0.23614 0.27736 0.07699 0.0
C1248 C 0.22745 0.33416 0.05897 0.0
C1249 C 0.23438 0.33254 0.03805 0.0
C1250 C 0.21422 0.31879 0.06744 0.0
C1251 C 0.20786 0.3016 0.05513 0.0
C1252 C 0.21443 0.30021 0.03414 0.0
H1253 H 0.16962 0.17659 0.07614 0.0
H1254 H 0.18605 0.21022 0.06803 0.0
C1255 C 0.22759 0.31552 0.02568 0.0
C1256 C 0.19488 0.28456 0.06402 0.0
H1257 H 0.19701 0.24265 0.09736 0.0
C1258 C 0.17508 0.28064 0.05508 0.0
C1259 C 0.20281 0.27094 0.07968 0.0
C1260 C 0.22426 0.27414 0.08936 0.0
C1261 C 0.16323 0.26299 0.06091 0.0
C1262 C 0.17139 0.24912 0.07621 0.0
C1263 C 0.19085 0.25343 0.08568 0.0
C1264 C 0.16096 0.229 0.0812 0.0
C1265 C 0.1426 0.25872 0.04996 0.0
C1266 C 0.14139 0.22852 0.0913 0.0
C1267 C 0.13185 0.20926 0.09594 0.0
C1268 C 0.14181 0.19021 0.0906 0.0
C1269 C 0.16145 0.19089 0.08046 0.0
C1270 C 0.17092 0.2101 0.07586 0.0
H1271 H 0.14016 0.26918 0.03619 0.0
H1272 H 0.14182 0.24212 0.04458 0.0
H1273 H 0.12949 0.26132 0.06116 0.0
H1274 H 0.1336 0.243 0.09575 0.0
H1275 H 0.11678 0.20932 0.10385 0.0
H1276 H 0.72352 0.17945 0.01651 0.0
H1277 H 0.70071 0.20638 0.00129 0.0
H1278 H 0.74023 0.20884 0.94625 0.0
H1279 H 0.76283 0.1815 0.96117 0.0
H1280 H 0.70953 0.24618 0.9901 0.0
H1281 H 0.68244 0.20128 0.92042 0.0
H1282 H 0.69606 0.18906 0.94211 0.0
H1283 H 0.71056 0.2029 0.92217 0.0
C1284 C 0.72734 0.18572 0.00116 0.0
C1285 C 0.74489 0.17835 0.98997 0.0
C1286 C 0.71428 0.20106 0.99248 0.0
C1287 C 0.71854 0.20928 0.97247 0.0
C1288 C 0.73634 0.20229 0.96147 0.0
H1289 H 0.67692 0.32687 0.92184 0.0
H1290 H 0.69574 0.29725 0.93709 0.0
C1291 C 0.74933 0.18683 0.97008 0.0
C1292 C 0.70477 0.22572 0.96349 0.0
H1293 H 0.67527 0.23821 0.92039 0.0
C1294 C 0.70191 0.24437 0.97493 0.0
C1295 C 0.69452 0.22316 0.94388 0.0
C1296 C 0.69585 0.20293 0.93152 0.0
C1297 C 0.68961 0.26083 0.96701 0.0
C1298 C 0.68036 0.25874 0.94687 0.0
C1299 C 0.68261 0.23983 0.93571 0.0
C1300 C 0.66891 0.27631 0.93687 0.0
C1301 C 0.68656 0.28025 0.98033 0.0
C1302 C 0.64777 0.27406 0.93091 0.0
C1303 C 0.63694 0.29096 0.92193 0.0
C1304 C 0.64712 0.31036 0.9188 0.0
C1305 C 0.66847 0.31228 0.92431 0.0
C1306 C 0.67927 0.29539 0.93312 0.0
H1307 H 0.68903 0.27685 -0.00271 0.0
H1308 H 0.6982 0.29236 0.97561 0.0
H1309 H 0.67056 0.2869 0.97823 0.0
H1310 H 0.63958 0.25935 0.93352 0.0
H1311 H 0.62053 0.28894 0.9178 0.0
H1312 H 0.06268 0.45032 0.24496 0.0
H1313 H 0.03627 0.44384 0.21779 0.0
H1314 H 0.07104 0.4826 0.17441 0.0
H1315 H 0.09757 0.4893 0.20163 0.0
H1316 H 0.02773 0.49225 0.17663 0.0
H1317 H 0.04093 0.40705 0.16486 0.0
H1318 H 0.03791 0.41377 0.19211 0.0
H1319 H 0.05998 0.42389 0.17759 0.0
C1320 C 0.06484 0.45726 0.22957 0.0
C1321 C 0.08219 0.47024 0.22537 0.0
C1322 C 0.0498 0.45349 0.21405 0.0
C1323 C 0.05188 0.46255 0.19405 0.0
C1324 C 0.06926 0.4754 0.18973 0.0
H1325 H 0.95685 0.41455 0.10872 0.0
H1326 H 0.99065 0.43017 0.11825 0.0
C1327 C 0.08439 0.47913 0.20526 0.0
C1328 C 0.03526 0.45924 0.17815 0.0
H1329 H 0.00705 0.42032 0.15454 0.0
C1330 C 0.0234 0.47659 0.17141 0.0
C1331 C 0.02997 0.43888 0.17101 0.0
C1332 C 0.04301 0.41986 0.17659 0.0
C1333 C 0.00539 0.47388 0.15889 0.0
C1334 C -0.00098 0.45329 0.15336 0.0
C1335 C 0.0118 0.43614 0.15889 0.0
C1336 C 0.97819 0.44865 0.14397 0.0
C1337 C 0.99319 0.49304 0.15212 0.0
C1338 C 0.95979 0.45468 0.15459 0.0
C1339 C 0.9404 0.44599 0.14898 0.0
C1340 C 0.93922 0.43079 0.13298 0.0
C1341 C 0.95735 0.42609 0.12126 0.0
C1342 C 0.97666 0.43501 0.12667 0.0
H1343 H 0.00374 0.50686 0.15035 0.0
H1344 H 0.98483 0.49032 0.13702 0.0
H1345 H 0.98142 0.49696 0.16437 0.0
H1346 H 0.9606 0.46479 0.16828 0.0
H1347 H 0.92672 0.4498 0.15837 0.0
H1348 H 0.76931 0.85398 0.44424 0.0
H1349 H 0.78518 0.82642 0.4226 0.0
H1350 H 0.7376 0.78267 0.44315 0.0
H1351 H 0.72148 0.8102 0.4646 0.0
H1352 H 0.80118 0.79031 0.44004 0.0
H1353 H 0.74097 0.77049 0.38019 0.0
H1354 H 0.74047 0.79475 0.39503 0.0
H1355 H 0.73078 0.77078 0.40649 0.0
C1356 C 0.762 0.8386 0.44382 0.0
C1357 C 0.74424 0.83416 0.45616 0.0
C1358 C 0.77105 0.82291 0.43143 0.0
C1359 C 0.76241 0.80262 0.4311 0.0
C1360 C 0.74422 0.79837 0.44282 0.0
H1361 H 0.79893 0.67725 0.40332 0.0
H1362 H 0.78105 0.71019 0.41157 0.0
C1363 C 0.73514 0.81405 0.4552 0.0
C1364 C 0.77381 0.78527 0.42071 0.0
H1365 H 0.768 0.74472 0.386 0.0
C1366 C 0.79411 0.78055 0.42795 0.0
C1367 C 0.76443 0.77257 0.40504 0.0
C1368 C 0.74304 0.7775 0.39607 0.0
C1369 C 0.80494 0.76284 0.42065 0.0
C1370 C 0.79532 0.74976 0.40542 0.0
C1371 C 0.77528 0.75482 0.39769 0.0
C1372 C 0.80533 0.73004 0.39844 0.0
C1373 C 0.82616 0.75772 0.43002 0.0
C1374 C 0.82465 0.73037 0.38788 0.0
C1375 C 0.83502 0.71159 0.38327 0.0
C1376 C 0.82614 0.69215 0.38902 0.0
C1377 C 0.8063 0.69191 0.39878 0.0
C1378 C 0.796 0.71071 0.40344 0.0
H1379 H 0.82933 0.76691 0.44456 0.0
H1380 H 0.8273 0.74071 0.43382 0.0
H1381 H 0.83863 0.7615 0.41845 0.0
H1382 H 0.8319 0.74518 0.3836 0.0
H1383 H 0.85015 0.71236 0.3755 0.0
H1384 H 0.90264 0.04577 0.23488 0.0
H1385 H 0.92645 0.06608 0.21254 0.0
H1386 H 0.95789 0.00889 0.194 0.0
H1387 H 0.93404 0.98846 0.21613 0.0
H1388 H 0.96935 0.06685 0.21886 0.0
H1389 H 0.95083 0.04003 0.13799 0.0
H1390 H 0.93309 0.03621 0.15983 0.0
H1391 H 0.955 0.01874 0.15603 0.0
C1392 C 0.91443 0.0375 0.22579 0.0
C1393 C 0.9166 0.01556 0.22729 0.0
C1394 C 0.92795 0.04911 0.21301 0.0
C1395 C 0.94369 0.03893 0.20142 0.0
C1396 C 0.94552 0.01697 0.20246 0.0
H1397 H 0.0663 0.07304 0.1661 0.0
H1398 H 0.03345 0.05787 0.17863 0.0
C1399 C 0.93202 0.00535 0.21525 0.0
C1400 C 0.95975 0.05137 0.19025 0.0
H1401 H 0.98448 0.05681 0.14296 0.0
C1402 C 0.97242 0.06495 0.20219 0.0
C1403 C 0.96359 0.04893 0.16849 0.0
C1404 C 0.94978 0.03534 0.15478 0.0
C1405 C 0.98955 0.07534 0.19315 0.0
C1406 C 0.99414 0.0719 0.17172 0.0
C1407 C 0.9809 0.0592 0.15947 0.0
C1408 C 0.01361 0.08017 0.1624 0.0
C1409 C 0.00306 0.08943 0.2067 0.0
C1410 C 0.01312 0.09741 0.14872 0.0
C1411 C 0.03192 0.10624 0.14153 0.0
C1412 C 0.0514 0.09786 0.14791 0.0
C1413 C 0.05163 0.08003 0.16099 0.0
C1414 C 0.0329 0.0713 0.16817 0.0
H1415 H 0.99503 0.09383 0.22158 0.0
H1416 H 0.01783 0.08106 0.21075 0.0
H1417 H 0.00734 0.104 0.1981 0.0
H1418 H -0.00173 0.10437 0.14414 0.0
H1419 H 0.03116 0.11989 0.13139 0.0
H1420 H 0.23909 0.68881 0.52233 0.0
H1421 H 0.25556 0.71734 0.54236 0.0
H1422 H 0.29214 0.6721 0.57715 0.0
H1423 H 0.27578 0.64344 0.5572 0.0
H1424 H 0.25846 0.72314 0.58905 0.0
H1425 H 0.33524 0.71325 0.54811 0.0
H1426 H 0.31097 0.7029 0.53757 0.0
H1427 H 0.32355 0.69006 0.5593 0.0
C1428 C 0.25053 0.68494 0.53435 0.0
C1429 C 0.25629 0.66395 0.53813 0.0
C1430 C 0.25985 0.70121 0.54579 0.0
C1431 C 0.27513 0.69673 0.56104 0.0
C1432 C 0.28048 0.67579 0.56528 0.0
H1433 H 0.36092 0.78302 0.62402 0.0
H1434 H 0.34173 0.7513 0.61379 0.0
C1435 C 0.27112 0.65949 0.55391 0.0
C1436 C 0.28612 0.71409 0.57181 0.0
H1437 H 0.33314 0.73974 0.57379 0.0
C1438 C 0.27482 0.72676 0.58586 0.0
C1439 C 0.30745 0.71858 0.56759 0.0
C1440 C 0.32008 0.70562 0.55223 0.0
C1441 C 0.28434 0.74403 0.59579 0.0
C1442 C 0.30553 0.74892 0.5911 0.0
C1443 C 0.31692 0.73592 0.57738 0.0
C1444 C 0.31595 0.76807 0.59923 0.0
C1445 C 0.27167 0.75678 0.61127 0.0
C1446 C 0.30775 0.78798 0.59448 0.0
C1447 C 0.31861 0.80613 0.60037 0.0
C1448 C 0.33805 0.8047 0.61085 0.0
C1449 C 0.34604 0.7847 0.6159 0.0
C1450 C 0.33509 0.76655 0.61011 0.0
H1451 H 0.25867 0.74735 0.61813 0.0
H1452 H 0.2817 0.76283 0.62425 0.0
H1453 H 0.26456 0.7704 0.60301 0.0
H1454 H 0.29329 0.7895 0.58562 0.0
H1455 H 0.31204 0.82125 0.59612 0.0
H1456 H 0.08523 0.50832 0.33771 0.0
H1457 H 0.05752 0.52788 0.35606 0.0
H1458 H 0.04497 0.56313 0.29948 0.0
H1459 H 0.07293 0.54424 0.28136 0.0
H1460 H 0.04326 0.58777 0.33466 0.0
H1461 H -0.00381 0.51455 0.34492 0.0
H1462 H 0.02182 0.51467 0.3568 0.0
H1463 H 0.01937 0.51541 0.32866 0.0
C1464 C 0.07667 0.52041 0.32931 0.0
C1465 C 0.08102 0.52464 0.30807 0.0
C1466 C 0.06084 0.53149 0.33977 0.0
C1467 C 0.04898 0.54666 0.329 0.0
C1468 C 0.05394 0.55146 0.30807 0.0
H1469 H 0.92448 0.58561 0.32649 0.0
H1470 H 0.9593 0.56992 0.32457 0.0
C1471 C 0.06986 0.5406 0.29771 0.0
C1472 C 0.03043 0.5567 0.33871 0.0
H1473 H 0.98015 0.54631 0.3541 0.0
C1474 C 0.02953 0.57875 0.33926 0.0
C1475 C 0.01259 0.5448 0.34459 0.0
C1476 C 0.01236 0.52106 0.34362 0.0
C1477 C 0.01083 0.58928 0.3443 0.0
C1478 C 0.99279 0.57735 0.3494 0.0
C1479 C 0.99408 0.55534 0.35016 0.0
C1480 C 0.97179 0.58708 0.35123 0.0
C1481 C 0.01018 0.61296 0.34275 0.0
C1482 C 0.96729 0.60194 0.36691 0.0
C1483 C 0.94736 0.61117 0.36792 0.0
C1484 C 0.93161 0.60544 0.35342 0.0
C1485 C 0.9362 0.59036 0.33793 0.0
C1486 C 0.95609 0.58133 0.33683 0.0
H1487 H 0.02443 0.61945 0.33502 0.0
H1488 H -0.00388 0.61814 0.33377 0.0
H1489 H 0.00916 0.61978 0.35878 0.0
H1490 H 0.97911 0.6063 0.37839 0.0
H1491 H 0.94424 0.62258 0.38018 0.0
H1492 H 0.43116 0.45332 0.75362 0.0
H1493 H 0.45348 0.43347 0.77764 0.0
H1494 H 0.41894 0.4581 0.83056 0.0
H1495 H 0.3966 0.47835 0.8065 0.0
H1496 H 0.46136 0.46142 0.83562 0.0
H1497 H 0.44141 0.38054 0.81117 0.0
H1498 H 0.44792 0.39637 0.7888 0.0
H1499 H 0.42523 0.4029 0.80444 0.0
C1500 C 0.42822 0.45443 0.77035 0.0
C1501 C 0.41217 0.46736 0.77821 0.0
C1502 C 0.44083 0.4429 0.78405 0.0
C1503 C 0.4375 0.44392 0.80583 0.0
C1504 C 0.42154 0.4569 0.81377 0.0
H1505 H 0.52883 0.36484 0.87392 0.0
H1506 H 0.49433 0.38016 0.86588 0.0
C1507 C 0.40888 0.46849 0.80004 0.0
C1508 C 0.45199 0.43273 0.82011 0.0
H1509 H 0.4764 0.38541 0.8262 0.0
C1510 C 0.4643 0.44469 0.83399 0.0
C1511 C 0.45547 0.41083 0.81838 0.0
C1512 C 0.44161 0.3969 0.80505 0.0
C1513 C 0.48135 0.43567 0.84463 0.0
C1514 C 0.4863 0.41431 0.84095 0.0
C1515 C 0.47277 0.4019 0.82871 0.0
C1516 C 0.50689 0.40549 0.847 0.0
C1517 C 0.49446 0.44932 0.85897 0.0
C1518 C 0.5252 0.41447 0.8387 0.0
C1519 C 0.54477 0.40579 0.8431 0.0
C1520 C 0.54648 0.38779 0.85582 0.0
C1521 C 0.52806 0.37871 0.86408 0.0
C1522 C 0.50837 0.38745 0.85958 0.0
H1523 H 0.48489 0.4622 0.8659 0.0
H1524 H 0.50158 0.43999 0.8719 0.0
H1525 H 0.50731 0.45666 0.84974 0.0
H1526 H 0.52432 0.42806 0.82847 0.0
H1527 H 0.55856 0.41321 0.83641 0.0
H1528 H 0.9326 0.7747 0.62398 0.0
H1529 H 0.90793 0.79609 0.64448 0.0
H1530 H 0.95589 0.80632 0.69145 0.0
H1531 H 0.98057 0.78527 0.67105 0.0
H1532 H 0.89448 0.78678 0.68403 0.0
H1533 H 0.93192 0.865 0.68432 0.0
H1534 H 0.9388 0.84487 0.66546 0.0
H1535 H 0.95067 0.84513 0.69121 0.0
C1536 C 0.93795 0.78182 0.63852 0.0
C1537 C 0.95847 0.77832 0.64598 0.0
C1538 C 0.92387 0.79404 0.65016 0.0
C1539 C 0.93021 0.80308 0.66926 0.0
C1540 C 0.95084 0.79995 0.67646 0.0
H1541 H 0.88613 0.81702 0.78821 0.0
H1542 H 0.89393 0.80597 0.75249 0.0
C1543 C 0.96488 0.78775 0.66489 0.0
C1544 C 0.9149 0.81384 0.68302 0.0
H1545 H 0.91078 0.85644 0.71525 0.0
C1546 C 0.89766 0.80227 0.69046 0.0
C1547 C 0.91872 0.83424 0.691 0.0
C1548 C 0.93591 0.8481 0.68238 0.0
C1549 C 0.88547 0.8097 0.70723 0.0
C1550 C 0.89097 0.82895 0.71693 0.0
C1551 C 0.90679 0.84149 0.70803 0.0
C1552 C 0.88302 0.83476 0.73797 0.0
C1553 C 0.86744 0.79642 0.71501 0.0
C1554 C 0.87437 0.8547 0.74171 0.0
C1555 C 0.87006 0.86121 0.76227 0.0
C1556 C 0.8746 0.84794 0.77939 0.0
C1557 C 0.8825 0.82768 0.77544 0.0
C1558 C 0.88675 0.82122 0.75495 0.0
H1559 H 0.86029 0.78728 0.70192 0.0
H1560 H 0.87341 0.78499 0.72677 0.0
H1561 H 0.85507 0.80618 0.72251 0.0
H1562 H 0.87159 0.86545 0.72881 0.0
H1563 H 0.86395 0.87691 0.76475 0.0
H1564 H 0.00207 0.19039 0.39934 0.0
H1565 H 0.98932 0.16368 0.42383 0.0
H1566 H 0.92553 0.18386 0.41284 0.0
H1567 H 0.93812 0.2106 0.38833 0.0
H1568 H 0.96733 0.1813 0.4588 0.0
H1569 H 0.92057 0.11868 0.41967 0.0
H1570 H 0.94066 0.13359 0.40618 0.0
H1571 H 0.9153 0.14504 0.4109 0.0
C1572 C 0.98527 0.18868 0.40161 0.0
C1573 C 0.97108 0.20277 0.39223 0.0
C1574 C 0.97803 0.17335 0.41551 0.0
C1575 C 0.95651 0.17176 0.42001 0.0
C1576 C 0.94217 0.1846 0.40927 0.0
H1577 H 0.8765 0.13643 0.52107 0.0
H1578 H 0.89206 0.14334 0.48652 0.0
C1579 C 0.9494 0.2 0.39542 0.0
C1580 C 0.94959 0.16035 0.43896 0.0
H1581 H 0.91579 0.12273 0.45679 0.0
C1582 C 0.95637 0.16821 0.45841 0.0
C1583 C 0.93502 0.14362 0.43824 0.0
C1584 C 0.92753 0.13457 0.41763 0.0
C1585 C 0.94832 0.16039 0.47728 0.0
C1586 C 0.93362 0.14366 0.47668 0.0
C1587 C 0.92719 0.13541 0.45719 0.0
C1588 C 0.92382 0.13572 0.49618 0.0
C1589 C 0.95479 0.171 0.49757 0.0
C1590 C 0.93638 0.12827 0.51271 0.0
C1591 C 0.92765 0.12489 0.53251 0.0
C1592 C 0.9061 0.12826 0.53588 0.0
C1593 C 0.89319 0.13384 0.51885 0.0
C1594 C 0.90204 0.13771 0.49914 0.0
H1595 H 0.96171 0.1868 0.49478 0.0
H1596 H 0.94116 0.17282 0.50832 0.0
H1597 H 0.96685 0.16128 0.50558 0.0
H1598 H 0.95313 0.12607 0.51056 0.0
H1599 H 0.93785 0.12017 0.54533 0.0
H1600 H 0.55082 0.22112 0.1314 0.0
H1601 H 0.57567 0.20183 0.15364 0.0
H1602 H 0.5605 0.2424 0.20587 0.0
H1603 H 0.53598 0.26195 0.18372 0.0
H1604 H 0.60398 0.23033 0.20364 0.0
H1605 H 0.54869 0.1624 0.1973 0.0
H1606 H 0.55945 0.17268 0.1733 0.0
H1607 H 0.54155 0.18837 0.18847 0.0
C1608 C 0.55312 0.22618 0.14751 0.0
C1609 C 0.54124 0.2428 0.15597 0.0
C1610 C 0.56728 0.21514 0.16017 0.0
C1611 C 0.56959 0.22049 0.18144 0.0
C1612 C 0.55888 0.23803 0.18947 0.0
H1613 H 0.59386 0.18572 0.30298 0.0
H1614 H 0.59226 0.20249 0.26873 0.0
C1615 C 0.54482 0.24912 0.17683 0.0
C1616 C 0.58096 0.2066 0.19614 0.0
H1617 H 0.57492 0.16052 0.22279 0.0
C1618 C 0.59796 0.21486 0.20756 0.0
C1619 C 0.57314 0.18636 0.20107 0.0
C1620 C 0.55464 0.17687 0.18953 0.0
C1621 C 0.60653 0.2039 0.22467 0.0
C1622 C 0.59757 0.18445 0.23063 0.0
C1623 C 0.58171 0.17547 0.21818 0.0
C1624 C 0.60181 0.17481 0.25134 0.0
C1625 C 0.62457 0.21362 0.23665 0.0
C1626 C 0.60747 0.15354 0.25295 0.0
C1627 C 0.60815 0.14374 0.27261 0.0
C1628 C 0.60294 0.15503 0.29093 0.0
C1629 C 0.5979 0.17649 0.28923 0.0
C1630 C 0.59726 0.18623 0.26964 0.0
H1631 H 0.63447 0.22346 0.22616 0.0
H1632 H 0.61823 0.224 0.24917 0.0
H1633 H 0.63461 0.20143 0.2441 0.0
H1634 H 0.61078 0.1444 0.23895 0.0
H1635 H 0.61215 0.12721 0.27336 0.0
H1636 H 0.56173 0.75132 0.92142 0.0
H1637 H 0.57467 0.77644 0.94763 0.0
H1638 H 0.5117 0.79981 0.9566 0.0
H1639 H 0.49856 0.77479 0.93025 0.0
H1640 H 0.56535 0.82577 0.94883 0.0
H1641 H 0.53758 0.77647 0.01578 0.0
H1642 H 0.54342 0.76513 0.9904 0.0
H1643 H 0.5203 0.78087 0.99373 0.0
C1644 C 0.55064 0.76187 0.92889 0.0
C1645 C 0.52912 0.76104 0.92391 0.0
C1646 C 0.55807 0.77625 0.94374 0.0
C1647 C 0.5441 0.78988 0.95393 0.0
C1648 C 0.52266 0.78936 0.9488 0.0
H1649 H 0.57158 0.85914 0.06847 0.0
H1650 H 0.55306 0.8459 0.03752 0.0
C1651 C 0.51521 0.77507 0.93383 0.0
C1652 C 0.55192 0.8038 0.97074 0.0
H1653 H 0.55674 0.80686 0.02398 0.0
C1654 C 0.56335 0.82184 0.9653 0.0
C1655 C 0.54908 0.79856 0.99209 0.0
C1656 C 0.537 0.77919 -0.00146 0.0
C1657 C 0.57235 0.83474 0.98083 0.0
C1658 C 0.57027 0.82903 0.00222 0.0
C1659 C 0.55831 0.81125 0.00758 0.0
C1660 C 0.58129 0.84036 0.01937 0.0
C1661 C 0.58391 0.85435 0.97415 0.0
C1662 C 0.6033 0.84213 0.01928 0.0
C1663 C 0.61394 0.84992 0.03688 0.0
C1664 C 0.60275 0.85566 0.05504 0.0
C1665 C 0.58066 0.85468 0.05477 0.0
C1666 C 0.57004 0.84715 0.03709 0.0
H1667 H 0.57799 0.86024 0.9588 0.0
H1668 H 0.58236 0.86706 0.98603 0.0
H1669 H 0.60084 0.85064 0.97222 0.0
H1670 H 0.61237 0.83649 0.00602 0.0
H1671 H 0.63096 0.85034 0.03666 0.0
H1672 H 0.93649 0.1825 0.83907 0.0
H1673 H 0.91843 0.1741 0.8062 0.0
H1674 H 0.92503 0.2385 0.786 0.0
H1675 H 0.94357 0.24696 0.8187 0.0
H1676 H 0.88354 0.18957 0.78234 0.0
H1677 H 0.96103 0.20448 0.74435 0.0
H1678 H 0.95808 0.20278 0.77248 0.0
H1679 H 0.94999 0.22611 0.75877 0.0
C1680 C 0.93368 0.19499 0.82785 0.0
C1681 C 0.9418 0.21527 0.83119 0.0
C1682 C 0.9233 0.19018 0.80912 0.0
C1683 C 0.92083 0.2056 0.79358 0.0
C1684 C 0.92715 0.22634 0.79772 0.0
H1685 H 0.90152 0.18007 0.6604 0.0
H1686 H 0.90343 0.19876 0.69387 0.0
C1687 C 0.93769 0.23113 0.81638 0.0
C1688 C 0.91437 0.19921 0.77222 0.0
H1689 H 0.93403 0.19159 0.72297 0.0
C1690 C 0.89443 0.19023 0.76924 0.0
C1691 C 0.92873 0.20003 0.75527 0.0
C1692 C 0.95072 0.2087 0.7578 0.0
C1693 C 0.88858 0.18169 0.74973 0.0
C1694 C 0.90323 0.18189 0.73303 0.0
C1695 C 0.92285 0.19154 0.73583 0.0
C1696 C 0.89934 0.17091 0.71293 0.0
C1697 C 0.86691 0.17237 0.74722 0.0
C1698 C 0.89642 0.14905 0.71262 0.0
C1699 C 0.89537 0.13826 0.69352 0.0
C1700 C 0.89747 0.14915 0.6744 0.0
C1701 C 0.9 0.17114 0.67482 0.0
C1702 C 0.90097 0.1819 0.69391 0.0
H1703 H 0.85571 0.17915 0.75878 0.0
H1704 H 0.8607 0.175 0.73112 0.0
H1705 H 0.86772 0.15516 0.75 0.0
H1706 H 0.89567 0.14022 0.72715 0.0
H1707 H 0.89341 0.12134 0.69378 0.0
H1708 H 0.48392 0.20514 0.56593 0.0
H1709 H 0.49582 0.18551 0.5351 0.0
H1710 H 0.55748 0.17933 0.56273 0.0
H1711 H 0.54568 0.19889 0.59373 0.0
H1712 H 0.52991 0.20189 0.5111 0.0
H1713 H 0.54501 0.12003 0.53768 0.0
H1714 H 0.52773 0.13777 0.55164 0.0
H1715 H 0.55573 0.14045 0.55409 0.0
C1716 C 0.49989 0.19923 0.56564 0.0
C1717 C 0.51395 0.20366 0.58211 0.0
C1718 C 0.50662 0.18799 0.54806 0.0
C1719 C 0.52743 0.18086 0.54679 0.0
C1720 C 0.54124 0.18439 0.56364 0.0
H1721 H 0.60933 0.13809 0.44825 0.0
H1722 H 0.59243 0.14604 0.48185 0.0
C1723 C 0.53453 0.19569 0.58123 0.0
C1724 C 0.53543 0.1724 0.52675 0.0
H1725 H 0.55794 0.12943 0.50385 0.0
C1726 C 0.53583 0.18597 0.50941 0.0
C1727 C 0.54334 0.15175 0.52482 0.0
C1728 C 0.54284 0.13654 0.54298 0.0
C1729 C 0.5444 0.17961 0.49019 0.0
C1730 C 0.55226 0.1589 0.48816 0.0
C1731 C 0.55176 0.14524 0.50548 0.0
C1732 C 0.56171 0.15156 0.46828 0.0
C1733 C 0.54563 0.19538 0.4725 0.0
C1734 C 0.54982 0.15138 0.44971 0.0
C1735 C 0.55945 0.14713 0.43049 0.0
C1736 C 0.58109 0.14266 0.42959 0.0
C1737 C 0.59267 0.14159 0.44841 0.0
C1738 C 0.58305 0.14607 0.46762 0.0
H1739 H 0.54392 0.2118 0.47828 0.0
H1740 H 0.5608 0.19407 0.46398 0.0
H1741 H 0.53271 0.19232 0.46115 0.0
H1742 H 0.53322 0.15513 0.45001 0.0
H1743 H 0.55001 0.14771 0.41631 0.0
H1744 H 0.5516 0.83093 0.35567 0.0
H1745 H 0.57863 0.84746 0.33363 0.0
H1746 H 0.57198 0.79745 0.28818 0.0
H1747 H 0.54543 0.78076 0.31012 0.0
H1748 H 0.61424 0.81014 0.29524 0.0
H1749 H 0.56055 0.87777 0.27951 0.0
H1750 H 0.56731 0.87218 0.30639 0.0
H1751 H 0.5513 0.85399 0.29186 0.0
C1752 C 0.55611 0.82339 0.34107 0.0
C1753 C 0.54626 0.80472 0.33443 0.0
C1754 C 0.5715 0.83284 0.32854 0.0
C1755 C 0.57707 0.82377 0.30921 0.0
C1756 C 0.5679 0.80467 0.30308 0.0
H1757 H 0.61569 0.83171 0.18795 0.0
H1758 H 0.6104 0.82282 0.22477 0.0
C1759 C 0.55264 0.79522 0.31557 0.0
C1760 C 0.59095 0.83472 0.29419 0.0
H1761 H 0.58964 0.87385 0.25765 0.0
C1762 C 0.60919 0.82438 0.28733 0.0
C1763 C 0.5844 0.85339 0.28406 0.0
C1764 C 0.56479 0.86502 0.29067 0.0
C1765 C 0.62015 0.83133 0.26954 0.0
C1766 C 0.61246 0.84887 0.2583 0.0
C1767 C 0.59541 0.86033 0.2663 0.0
C1768 C 0.61934 0.85349 0.23663 0.0
C1769 C 0.63926 0.81928 0.26237 0.0
C1770 C 0.6261 0.87372 0.23106 0.0
C1771 C 0.62899 0.87894 0.20993 0.0
C1772 C 0.62486 0.86407 0.19402 0.0
C1773 C 0.61891 0.84358 0.19976 0.0
C1774 C 0.61612 0.83838 0.22086 0.0
H1775 H 0.64741 0.81183 0.2759 0.0
H1776 H 0.63426 0.80655 0.2515 0.0
H1777 H 0.65053 0.82964 0.25398 0.0
H1778 H 0.62841 0.88566 0.24302 0.0
H1779 H 0.63363 0.89487 0.20606 0.0
H1780 H 0.94339 0.80193 0.07869 0.0
H1781 H 0.92959 0.8196 0.04746 0.0
H1782 H 0.99217 0.8232 0.02169 0.0
H1783 H 0.00612 0.80529 0.05278 0.0
H1784 H 0.93973 0.85877 0.02606 0.0
H1785 H 0.95794 0.7868 0.97951 0.0
H1786 H 0.95801 0.78699 0.00788 0.0
H1787 H 0.97958 0.7983 0.99363 0.0
C1788 C 0.95426 0.80676 0.06652 0.0
C1789 C 0.97577 0.80199 0.06798 0.0
C1790 C 0.94636 0.81691 0.04876 0.0
C1791 C 0.95986 0.82238 0.03224 0.0
C1792 C 0.98152 0.81881 0.03422 0.0
H1793 H 0.92712 0.85312 0.90338 0.0
H1794 H 0.94667 0.84875 0.93611 0.0
C1795 C 0.98944 0.80862 0.05197 0.0
C1796 C 0.95093 0.82995 0.01224 0.0
H1797 H 0.94198 0.81478 0.9616 0.0
C1798 C 0.94033 0.84929 0.01188 0.0
C1799 C 0.95173 0.81742 0.99388 0.0
C1800 C 0.96227 0.79614 0.99365 0.0
C1801 C 0.93037 0.85643 0.99353 0.0
C1802 C 0.93079 0.84366 0.97531 0.0
C1803 C 0.94178 0.82455 0.9756 0.0
C1804 C 0.9191 0.8491 0.95599 0.0
C1805 C 0.91956 0.87753 0.99378 0.0
C1806 C 0.89712 0.8509 0.95639 0.0
C1807 C 0.88586 0.85342 0.93771 0.0
C1808 C 0.89639 0.8539 0.91829 0.0
C1809 C 0.91848 0.85264 0.91804 0.0
C1810 C 0.92971 0.85023 0.93672 0.0
H1811 H 0.92596 0.88787 0.00635 0.0
H1812 H 0.92123 0.88565 0.97842 0.0
H1813 H 0.90256 0.8752 -0.00312 0.0
H1814 H 0.88861 0.84956 0.97107 0.0
H1815 H 0.86887 0.8543 0.93846 0.0
H1816 H 0.64977 0.96297 0.79096 0.0
H1817 H 0.67373 0.93602 0.80432 0.0
H1818 H 0.67825 0.909 0.74226 0.0
H1819 H 0.6544 0.93599 0.72869 0.0
H1820 H 0.67633 0.88812 0.80095 0.0
H1821 H 0.73773 0.93411 0.75849 0.0
H1822 H 0.71205 0.94479 0.76398 0.0
H1823 H 0.71525 0.92551 0.74361 0.0
C1824 C 0.65554 0.95104 0.78024 0.0
C1825 C 0.65058 0.95177 0.75873 0.0
C1826 C 0.66907 0.93559 0.78793 0.0
C1827 C 0.67776 0.9207 0.7742 0.0
C1828 C 0.67166 0.92045 0.75302 0.0
H1829 H 0.79906 0.86478 0.79765 0.0
H1830 H 0.76458 0.86901 0.78124 0.0
C1831 C 0.65815 0.93592 0.74531 0.0
C1832 C 0.69562 0.90784 0.78136 0.0
H1833 H 0.74904 0.90645 0.77957 0.0
C1834 C 0.69226 0.89181 0.7961 0.0
C1835 C 0.71627 0.91282 0.77493 0.0
C1836 C 0.72071 0.93031 0.75949 0.0
C1837 C 0.70924 0.88079 0.80494 0.0
C1838 C 0.72997 0.88643 0.79918 0.0
C1839 C 0.73315 0.902 0.78387 0.0
C1840 C 0.74885 0.87818 0.81001 0.0
C1841 C 0.7048 0.8634 0.8204 0.0
C1842 C 0.75124 0.881 0.8318 0.0
C1843 C 0.77087 0.87818 0.84126 0.0
C1844 C 0.78842 0.87309 0.82893 0.0
C1845 C 0.78575 0.86895 0.80741 0.0
C1846 C 0.76607 0.87127 0.79807 0.0
H1847 H 0.68937 0.85587 0.81711 0.0
H1848 H 0.71723 0.85114 0.82002 0.0
H1849 H 0.7041 0.87011 0.8365 0.0
H1850 H 0.73837 0.88686 0.84126 0.0
H1851 H 0.77263 0.88155 0.85788 0.0
H1852 H 0.7734 0.90569 0.55083 0.0
H1853 H 0.80148 0.92974 0.56166 0.0
H1854 H 0.81083 0.94797 0.49705 0.0
H1855 H 0.78248 0.92429 0.48612 0.0
H1856 H 0.84505 0.93587 0.54971 0.0
H1857 H 0.79248 0.00227 0.5276 0.0
H1858 H 0.78314 0.97558 0.52979 0.0
H1859 H 0.79773 0.98365 0.507 0.0
C1860 C 0.7816 0.91466 0.53892 0.0
C1861 C 0.77555 0.91346 0.5177 0.0
C1862 C 0.7977 0.92826 0.54511 0.0
C1863 C 0.80798 0.94074 0.53016 0.0
C1864 C 0.80285 0.93861 0.50881 0.0
H1865 H 0.87582 0.05625 0.54979 0.0
H1866 H 0.86564 0.02302 0.53345 0.0
C1867 C 0.78665 0.92514 0.50262 0.0
C1868 C 0.8223 0.9576 0.53716 0.0
H1869 H 0.82573 0.01091 0.54084 0.0
C1870 C 0.841 0.95231 0.54765 0.0
C1871 C 0.81678 0.97897 0.53455 0.0
C1872 C 0.79638 0.98555 0.5243 0.0
C1873 C 0.85441 0.96798 0.55562 0.0
C1874 C 0.84872 0.98932 0.55321 0.0
C1875 C 0.83018 0.99452 0.54243 0.0
C1876 C 0.86061 0.00679 0.56291 0.0
C1877 C 0.87447 0.96161 0.56654 0.0
C1878 C 0.86212 0.00833 0.58489 0.0
C1879 C 0.86814 0.0273 0.59428 0.0
C1880 C 0.87229 0.045 0.58177 0.0
C1881 C 0.87242 0.04289 0.55978 0.0
C1882 C 0.86672 0.0239 0.55044 0.0
H1883 H 0.87972 0.94573 0.56145 0.0
H1884 H 0.88728 0.97307 0.56345 0.0
H1885 H 0.8717 0.96108 0.58375 0.0
H1886 H 0.85707 0.99546 0.59481 0.0
H1887 H 0.86786 0.02855 0.61127 0.0
H1888 H 0.83525 0.01805 0.32068 0.0
H1889 H 0.80474 0.03959 0.33036 0.0
H1890 H 0.78857 0.04637 0.26486 0.0
H1891 H 0.81891 0.02493 0.25502 0.0
H1892 H 0.79287 0.08336 0.31389 0.0
H1893 H 0.73627 0.01883 0.29605 0.0
H1894 H 0.76377 0.01396 0.30128 0.0
H1895 H 0.75576 0.02454 0.27639 0.0
C1896 C 0.82523 0.02421 0.30836 0.0
C1897 C 0.82932 0.01971 0.28712 0.0
C1898 C 0.80792 0.03654 0.3139 0.0
C1899 C 0.79448 0.04438 0.29828 0.0
C1900 C 0.79878 0.0403 0.27708 0.0
H1901 H 0.67059 0.09977 0.30474 0.0
H1902 H 0.70471 0.0875 0.29218 0.0
C1903 C 0.81607 0.02806 0.27153 0.0
C1904 C 0.77537 0.05604 0.30414 0.0
H1905 H 0.72206 0.05149 0.30593 0.0
C1906 C 0.77734 0.07649 0.31218 0.0
C1907 C 0.75527 0.04694 0.30172 0.0
C1908 C 0.75249 0.02481 0.29352 0.0
C1909 C 0.75952 0.08824 0.31775 0.0
C1910 C 0.73938 0.07901 0.3156 0.0
C1911 C 0.73751 0.05858 0.30743 0.0
C1912 C 0.71996 0.0897 0.32254 0.0
C1913 C 0.76239 0.11047 0.32557 0.0
C1914 C 0.71739 0.09543 0.34368 0.0
C1915 C 0.69795 0.10259 0.3509 0.0
C1916 C 0.68066 0.10379 0.33714 0.0
C1917 C 0.68354 0.09887 0.31578 0.0
C1918 C 0.70303 0.09189 0.30855 0.0
H1919 H 0.77752 0.11728 0.32009 0.0
H1920 H 0.74934 0.12077 0.32027 0.0
H1921 H 0.76262 0.11043 0.34302 0.0
H1922 H 0.7301 0.09339 0.35484 0.0
H1923 H 0.69624 0.10616 0.36746 0.0
H1924 H 0.7116 0.09516 0.00246 0.0
H1925 H 0.68422 0.06937 0.01086 0.0
H1926 H 0.71858 0.05148 0.06662 0.0
H1927 H 0.74535 0.07771 0.0588 0.0
H1928 H 0.68719 0.02886 0.0124 0.0
H1929 H 0.6611 0.05494 0.09044 0.0
H1930 H 0.67685 0.07153 0.07368 0.0
H1931 H 0.68913 0.05263 0.09093 0.0
C1932 C 0.71306 0.08594 0.0167 0.0
C1933 C 0.73051 0.08842 0.03005 0.0
C1934 C 0.69742 0.07126 0.02148 0.0
C1935 C 0.6991 0.05881 0.0396 0.0
C1936 C 0.71652 0.06141 0.05296 0.0
H1937 H 0.6788 0.93312 0.06354 0.0
H1938 H 0.685 0.96703 0.04688 0.0
C1939 C 0.73195 0.07626 0.04837 0.0
C1940 C 0.68395 0.04162 0.04369 0.0
H1941 H 0.65948 0.01681 0.08419 0.0
C1942 C 0.68063 0.02646 0.02795 0.0
C1943 C 0.67468 0.03879 0.06367 0.0
C1944 C 0.67544 0.05553 0.0805 0.0
C1945 C 0.6701 0.0076 0.03233 0.0
C1946 C 0.66351 0.00353 0.05317 0.0
C1947 C 0.66496 0.01959 0.0683 0.0
C1948 C 0.65758 0.98217 0.06038 0.0
C1949 C 0.66667 0.99211 0.01467 0.0
C1950 C 0.64026 0.97932 0.07374 0.0
C1951 C 0.63717 0.96012 0.08389 0.0
C1952 C 0.65114 0.94335 0.08053 0.0
C1953 C 0.6677 0.94576 0.06621 0.0
C1954 C 0.6711 0.96511 0.05649 0.0
H1955 H 0.66368 0.00048 -0.00036 0.0
H1956 H 0.68111 0.98256 0.01251 0.0
H1957 H 0.65323 0.98143 0.01787 0.0
H1958 H 0.62964 0.99222 0.07704 0.0
H1959 H 0.62418 0.95855 0.09478 0.0
H1960 H 0.68395 0.04193 0.74709 0.0
H1961 H 0.71531 0.06005 0.73423 0.0
H1962 H 0.68384 0.07283 0.6755 0.0
H1963 H 0.65231 0.05505 0.68837 0.0
H1964 H 0.73603 0.0446 0.69976 0.0
H1965 H 0.71462 0.12808 0.68671 0.0
H1966 H 0.6994 0.1108 0.70332 0.0
H1967 H 0.69641 0.10978 0.67521 0.0
C1968 C 0.68353 0.04909 0.73165 0.0
C1969 C 0.66577 0.04697 0.71865 0.0
C1970 C 0.70143 0.05944 0.72435 0.0
C1971 C 0.70183 0.0679 0.70399 0.0
C1972 C 0.68372 0.0668 0.69141 0.0
H1973 H 0.79706 0.10168 0.61439 0.0
H1974 H 0.76434 0.09557 0.63363 0.0
C1975 C 0.66576 0.0565 0.69874 0.0
C1976 C 0.72196 0.07501 0.69484 0.0
H1977 H 0.746 0.1159 0.66977 0.0
C1978 C 0.73833 0.06029 0.69348 0.0
C1979 C 0.72477 0.09539 0.68646 0.0
C1980 C 0.70793 0.112 0.68814 0.0
C1981 C 0.75727 0.06519 0.68344 0.0
C1982 C 0.76003 0.08551 0.67486 0.0
C1983 C 0.74378 0.10035 0.67641 0.0
C1984 C 0.77956 0.09126 0.66376 0.0
C1985 C 0.77388 0.04834 0.68145 0.0
C1986 C 0.79882 0.09136 0.67448 0.0
C1987 C 0.81753 0.09466 0.66356 0.0
C1988 C 0.81729 0.09812 0.64171 0.0
C1989 C 0.79783 0.09894 0.63118 0.0
C1990 C 0.77912 0.09553 0.64214 0.0
H1991 H 0.76742 0.0324 0.6845 0.0
H1992 H 0.78101 0.04848 0.66552 0.0
H1993 H 0.78654 0.05136 0.69309 0.0
H1994 H 0.79941 0.08843 0.69125 0.0
H1995 H 0.83219 0.09422 0.67224 0.0
H1996 H 0.66562 0.89211 0.45158 0.0
H1997 H 0.64236 0.91625 0.43252 0.0
H1998 H 0.66042 0.9666 0.47434 0.0
H1999 H 0.68341 0.94262 0.49357 0.0
H2000 H 0.61631 0.96574 0.4631 0.0
H2001 H 0.67025 0.96077 0.39414 0.0
H2002 H 0.65923 0.93665 0.40393 0.0
H2003 H 0.67772 0.95105 0.41971 0.0
C2004 C 0.66436 0.90826 0.45688 0.0
C2005 C 0.6765 0.9156 0.47387 0.0
C2006 C 0.65112 0.92199 0.44598 0.0
C2007 C 0.64994 0.9432 0.45191 0.0
C2008 C 0.66115 0.95025 0.46956 0.0
H2009 H 0.62663 0.06657 0.42104 0.0
H2010 H 0.6283 0.0319 0.437 0.0
C2011 C 0.67434 0.93657 0.48046 0.0
C2012 C 0.63878 0.95873 0.43878 0.0
H2013 H 0.64455 0.9869 0.3936 0.0
C2014 C 0.62215 0.97013 0.4477 0.0
C2015 C 0.64637 0.96426 0.41864 0.0
C2016 C 0.66444 0.95268 0.40847 0.0
C2017 C 0.61369 0.98774 0.43749 0.0
C2018 C 0.62241 0.99423 0.41812 0.0
C2019 C 0.63794 0.98189 0.40849 0.0
C2020 C 0.6181 0.0152 0.4091 0.0
C2021 C 0.596 -0.00039 0.44786 0.0
C2022 C 0.61198 0.01734 0.38802 0.0
C2023 C 0.61124 0.03722 0.3787 0.0
C2024 C 0.61685 0.05526 0.39028 0.0
C2025 C 0.62227 0.05305 0.41161 0.0
C2026 C 0.62298 0.03322 0.42087 0.0
H2027 H 0.58619 0.98896 0.45762 0.0
H2028 H 0.60269 0.01181 0.45843 0.0
H2029 H 0.58578 0.00746 0.43607 0.0
H2030 H 0.60838 0.00357 0.37862 0.0
H2031 H 0.60694 0.03835 0.36225 0.0
H2032 H 0.82202 0.93295 0.26167 0.0
H2033 H 0.79787 0.91346 0.23915 0.0
H2034 H 0.84469 0.91159 0.19013 0.0
H2035 H 0.86877 0.93173 0.21245 0.0
H2036 H 0.8095 0.92818 0.17633 0.0
H2037 H 0.78896 0.85502 0.21784 0.0
H2038 H 0.78604 0.87704 0.23519 0.0
H2039 H 0.81168 0.87056 0.22497 0.0
C2040 C 0.8274 0.92787 0.24633 0.0
C2041 C 0.84718 0.934 0.23873 0.0
C2042 C 0.81363 0.91655 0.23351 0.0
C2043 C 0.81954 0.91082 0.21301 0.0
C2044 C 0.83984 0.91575 0.20592 0.0
H2045 H 0.72362 0.87885 0.11706 0.0
H2046 H 0.75835 0.87969 0.13391 0.0
C2047 C 0.85357 0.92726 0.21868 0.0
C2048 C 0.80342 0.90295 0.19812 0.0
H2049 H 0.7617 0.86935 0.19462 0.0
C2050 C 0.79944 0.91491 0.17998 0.0
C2051 C 0.79031 0.88561 0.20284 0.0
C2052 C 0.79464 0.87122 0.22117 0.0
C2053 C 0.78174 0.91104 0.16742 0.0
C2054 C 0.76777 0.89478 0.17314 0.0
C2055 C 0.77245 0.88192 0.19042 0.0
C2056 C 0.74695 0.89285 0.16312 0.0
C2057 C 0.77724 0.92527 0.14898 0.0
C2058 C 0.72921 0.89985 0.1741 0.0
C2059 C 0.70949 0.89956 0.16456 0.0
C2060 C 0.7071 0.89213 0.14384 0.0
C2061 C 0.72493 0.88475 0.13299 0.0
C2062 C 0.74474 0.88517 0.14257 0.0
H2063 H 0.78908 0.93803 0.14741 0.0
H2064 H 0.77717 0.91589 0.13425 0.0
H2065 H 0.76143 0.93249 0.15071 0.0
H2066 H 0.73071 0.9059 0.18997 0.0
H2067 H 0.69613 0.9052 0.17347 0.0
H2068 H 0.81993 0.06459 0.00619 0.0
H2069 H 0.83085 0.03398 0.98562 0.0
H2070 H 0.81779 0.06761 0.92825 0.0
H2071 H 0.80676 0.09836 0.94871 0.0
H2072 H 0.80016 0.0154 0.95602 0.0
H2073 H 0.87628 0.03729 0.91881 0.0
H2074 H 0.86701 0.04944 0.94279 0.0
H2075 H 0.85545 0.05645 0.91804 0.0
C2076 C 0.81983 0.06565 0.98919 0.0
C2077 C 0.81238 0.08379 0.97902 0.0
C2078 C 0.82607 0.04817 0.9775 0.0
C2079 C 0.82518 0.04866 0.95549 0.0
C2080 C 0.81881 0.0671 0.94524 0.0
H2081 H 0.83932 0.95315 0.8591 0.0
H2082 H 0.83518 0.98608 0.87856 0.0
C2083 C 0.81247 0.08459 0.95694 0.0
C2084 C 0.82842 0.02911 0.94344 0.0
H2085 H 0.86087 0.00507 0.90821 0.0
C2086 C 0.81348 0.01305 0.94563 0.0
C2087 C 0.84565 0.02637 0.92977 0.0
C2088 C 0.86215 0.0432 0.9272 0.0
C2089 C 0.81521 0.99424 0.93432 0.0
C2090 C 0.83267 0.99125 0.9209 0.0
C2091 C 0.84756 0.00741 0.91859 0.0
C2092 C 0.83573 0.97139 0.90921 0.0
C2093 C 0.79805 0.97795 0.93649 0.0
C2094 C 0.83771 0.9523 0.92006 0.0
C2095 C 0.83985 0.93346 0.90903 0.0
C2096 C 0.84037 0.93338 0.88692 0.0
C2097 C 0.8389 0.95263 0.87611 0.0
C2098 C 0.83659 0.97147 0.88719 0.0
H2099 H 0.78321 0.98499 0.94241 0.0
H2100 H 0.79479 0.9701 0.92123 0.0
H2101 H 0.80312 0.96579 0.94792 0.0
H2102 H 0.83757 0.95198 0.93709 0.0
H2103 H 0.84124 0.91897 0.91787 0.0
H2104 H 0.78487 0.63483 0.92407 0.0
H2105 H 0.80693 0.65652 0.90107 0.0
H2106 H 0.76076 0.70613 0.90361 0.0
H2107 H 0.7386 0.68456 0.92631 0.0
H2108 H 0.77886 0.69872 0.86256 0.0
H2109 H 0.83868 0.70764 0.92628 0.0
H2110 H 0.83157 0.68148 0.91813 0.0
H2111 H 0.81268 0.69759 0.93151 0.0
C2112 C 0.77935 0.65027 0.91951 0.0
C2113 C 0.76014 0.65814 0.92713 0.0
C2114 C 0.79196 0.66262 0.90642 0.0
C2115 C 0.78552 0.68296 0.90087 0.0
C2116 C 0.76596 0.69044 0.90773 0.0
H2117 H 0.80926 0.80332 0.86648 0.0
H2118 H 0.79696 0.76732 0.87018 0.0
C2119 C 0.75337 0.67815 0.92077 0.0
C2120 C 0.79958 0.69736 0.88935 0.0
H2121 H 0.84125 0.73014 0.89744 0.0
C2122 C 0.79281 0.70528 0.86991 0.0
C2123 C 0.81788 0.70568 0.89891 0.0
C2124 C 0.8257 0.69781 0.9199 0.0
C2125 C 0.80303 0.72237 0.86049 0.0
C2126 C 0.82016 0.7319 0.87101 0.0
C2127 C 0.82806 0.7228 0.88948 0.0
C2128 C 0.82756 0.75319 0.86544 0.0
C2129 C 0.79479 0.73071 0.83989 0.0
C2130 C 0.84891 0.75722 0.86168 0.0
C2131 C 0.85608 0.77793 0.85965 0.0
C2132 C 0.842 0.79487 0.86176 0.0
C2133 C 0.82054 0.79066 0.86491 0.0
C2134 C 0.81342 0.77005 0.86675 0.0
H2135 H 0.78752 0.71794 0.83039 0.0
H2136 H 0.78245 0.74263 0.84305 0.0
H2137 H 0.80747 0.73822 0.83054 0.0
H2138 H 0.86009 0.74439 0.8609 0.0
H2139 H 0.87271 0.78068 0.85726 0.0
H2140 H 0.27177 0.83384 0.03012 0.0
H2141 H 0.28733 0.80366 0.04801 0.0
H2142 H 0.23153 0.76714 0.03541 0.0
H2143 H 0.21564 0.79748 0.01766 0.0
H2144 H 0.24764 0.76288 0.07708 0.0
H2145 H 0.30937 0.75165 0.01655 0.0
H2146 H 0.30838 0.77789 0.02695 0.0
H2147 H 0.28644 0.7678 0.01218 0.0
C2148 C 0.26277 0.81941 0.03119 0.0
C2149 C 0.24257 0.81793 0.02236 0.0
C2150 C 0.27171 0.80218 0.04134 0.0
C2151 C 0.2607 0.78312 0.04267 0.0
C2152 C 0.24029 0.78172 0.0344 0.0
H2153 H 0.29987 0.66154 0.09258 0.0
H2154 H 0.27871 0.69041 0.07854 0.0
C2155 C 0.23128 0.79902 0.02427 0.0
C2156 C 0.27076 0.76463 0.05244 0.0
H2157 H 0.3137 0.73279 0.04855 0.0
C2158 C 0.26198 0.75613 0.07079 0.0
C2159 C 0.28937 0.75586 0.04405 0.0
C2160 C 0.29886 0.76361 0.02374 0.0
C2161 C 0.27184 0.7395 0.08146 0.0
C2162 C 0.29077 0.73121 0.07337 0.0
C2163 C 0.29926 0.73939 0.05477 0.0
C2164 C 0.3024 0.71421 0.08403 0.0
C2165 C 0.26234 0.73132 0.10156 0.0
C2166 C 0.32264 0.71815 0.09185 0.0
C2167 C 0.3348 0.70175 0.0998 0.0
C2168 C 0.327 0.68103 0.09992 0.0
C2169 C 0.30639 0.67729 0.09272 0.0
C2170 C 0.29421 0.69376 0.08479 0.0
H2171 H 0.24984 0.74188 0.10767 0.0
H2172 H 0.2553 0.71562 0.09862 0.0
H2173 H 0.27464 0.72947 0.11383 0.0
H2174 H 0.32921 0.73387 0.09131 0.0
H2175 H 0.35055 0.70526 0.10527 0.0
H2176 H 0.89818 0.54732 0.80283 0.0
H2177 H 0.92877 0.55438 0.8252 0.0
H2178 H 0.94386 0.48827 0.82562 0.0
H2179 H 0.91349 0.48108 0.80309 0.0
H2180 H 0.94459 0.53686 0.8657 0.0
H2181 H 0.99387 0.51846 0.79559 0.0
H2182 H 0.966 0.52327 0.79357 0.0
H2183 H 0.97539 0.49872 0.80381 0.0
C2184 C 0.90779 0.53426 0.80801 0.0
C2185 C 0.9037 0.51372 0.80097 0.0
C2186 C 0.92517 0.5383 0.82084 0.0
C2187 C 0.93861 0.52185 0.82678 0.0
C2188 C 0.93373 0.50115 0.82098 0.0
H2189 H 0.06924 0.54419 0.86158 0.0
H2190 H 0.03626 0.52472 0.85808 0.0
C2191 C 0.91642 0.49711 0.80811 0.0
C2192 C 0.95896 0.52677 0.83677 0.0
H2193 H 0.01112 0.53102 0.82548 0.0
C2194 C 0.95922 0.53534 0.85709 0.0
C2195 C 0.97796 0.52461 0.82546 0.0
C2196 C 0.97844 0.5159 0.80335 0.0
C2197 C 0.97805 0.54243 0.86621 0.0
C2198 C -0.00312 0.54131 0.85443 0.0
C2199 C -0.00331 0.53179 0.83452 0.0
C2200 C 0.01638 0.55218 0.86101 0.0
C2201 C 0.97752 0.55131 0.8882 0.0
C2202 C 0.01611 0.574 0.86426 0.0
C2203 C 0.03487 0.58515 0.86632 0.0
C2204 C 0.05432 0.57474 0.86482 0.0
C2205 C 0.05454 0.55272 0.86264 0.0
C2206 C 0.03572 0.54155 0.86072 0.0
H2207 H 0.96478 0.54395 0.8976 0.0
H2208 H 0.99273 0.54894 0.89646 0.0
H2209 H 0.97426 0.56844 0.88741 0.0
H2210 H 0.00144 0.58263 0.86397 0.0
H2211 H 0.03407 0.60208 0.86802 0.0
H2212 H 0.24821 0.17588 0.57269 0.0
H2213 H 0.22527 0.20023 0.59149 0.0
H2214 H 0.17087 0.16545 0.5704 0.0
H2215 H 0.19376 0.14137 0.55098 0.0
H2216 H 0.16649 0.20611 0.5632 0.0
H2217 H 0.1928 0.19614 0.64532 0.0
H2218 H 0.21468 0.20162 0.62847 0.0
H2219 H 0.19978 0.17776 0.62481 0.0
C2220 C 0.23137 0.17329 0.57226 0.0
C2221 C 0.22273 0.15681 0.56035 0.0
C2222 C 0.21829 0.18707 0.5832 0.0
C2223 C 0.19638 0.18437 0.58273 0.0
C2224 C 0.18775 0.16767 0.57113 0.0
H2225 H 0.10561 0.27995 0.62615 0.0
H2226 H 0.11976 0.24487 0.61854 0.0
C2227 C 0.20082 0.154 0.56001 0.0
C2228 C 0.18254 0.20031 0.59249 0.0
H2229 H 0.17597 0.2295 0.63707 0.0
C2230 C 0.16815 0.21087 0.57951 0.0
C2231 C 0.18466 0.20641 0.6138 0.0
C2232 C 0.19867 0.1947 0.62893 0.0
C2233 C 0.15692 0.22833 0.58685 0.0
C2234 C 0.16018 0.23528 0.60769 0.0
C2235 C 0.17364 0.22408 0.62106 0.0
C2236 C 0.15179 0.25563 0.61484 0.0
C2237 C 0.14262 0.24004 0.57197 0.0
C2238 C 0.1653 0.27301 0.61568 0.0
C2239 C 0.15733 0.29298 0.61982 0.0
C2240 C 0.1357 0.29588 0.62334 0.0
C2241 C 0.12234 0.27823 0.62346 0.0
C2242 C 0.13034 0.25821 0.61913 0.0
H2243 H 0.14282 0.23328 0.55585 0.0
H2244 H 0.12625 0.23952 0.57797 0.0
H2245 H 0.1474 0.25683 0.57109 0.0
H2246 H 0.18191 0.27121 0.61237 0.0
H2247 H 0.16809 0.3062 0.61984 0.0
H2248 H 0.06014 0.01955 0.7954 0.0
H2249 H 0.02841 0.00669 0.81311 0.0
H2250 H 0.05071 0.94294 0.80689 0.0
H2251 H 0.08232 0.95559 0.7892 0.0
H2252 H 0.00073 0.97797 0.79229 0.0
H2253 H 0.02909 0.94619 0.86833 0.0
H2254 H 0.04367 0.96542 0.85333 0.0
H2255 H 0.04446 0.9381 0.84607 0.0
C2256 C 0.05842 0.00283 0.79817 0.0
C2257 C 0.07358 0.98853 0.79085 0.0
C2258 C 0.04036 0.99555 0.8083 0.0
C2259 C 0.03743 0.97393 0.81152 0.0
C2260 C 0.05292 0.95972 0.80492 0.0
H2261 H 0.9456 0.88134 0.83536 0.0
H2262 H 0.97698 0.9031 0.83136 0.0
C2263 C 0.07087 0.96695 0.79466 0.0
C2264 C 0.01716 0.96584 0.81927 0.0
H2265 H 0.99557 0.93365 0.85623 0.0
C2266 C -0.00059 0.96863 0.8065 0.0
C2267 C 0.01569 0.9536 0.83771 0.0
C2268 C 0.0342 0.95078 0.85228 0.0
C2269 C 0.98044 0.9584 0.81099 0.0
C2270 C 0.97914 0.94552 0.82908 0.0
C2271 C -0.00334 0.94352 0.84237 0.0
C2272 C 0.96029 0.93269 0.83345 0.0
C2273 C 0.9624 0.96048 0.79566 0.0
C2274 C 0.94062 0.94216 0.83644 0.0
C2275 C 0.92261 0.92978 0.83844 0.0
C2276 C 0.92405 0.90771 0.83781 0.0
C2277 C 0.94394 0.89828 0.83582 0.0
C2278 C 0.96189 0.91069 0.8336 0.0
H2279 H 0.96756 0.96706 0.78033 0.0
H2280 H 0.95484 0.945 0.79276 0.0
H2281 H 0.9504 0.97124 0.80233 0.0
H2282 H 0.93916 0.95913 0.83686 0.0
H2283 H 0.90756 0.93751 0.84031 0.0
H2284 H 0.75773 0.30611 0.43588 0.0
H2285 H 0.73779 0.28118 0.41455 0.0
H2286 H 0.6898 0.32801 0.40428 0.0
H2287 H 0.70952 0.35298 0.42604 0.0
H2288 H 0.6741 0.29203 0.41978 0.0
H2289 H 0.72585 0.27308 0.35274 0.0
H2290 H 0.73958 0.27063 0.37725 0.0
H2291 H 0.72989 0.29597 0.36911 0.0
C2292 C 0.74314 0.31124 0.42873 0.0
C2293 C 0.73509 0.33141 0.43271 0.0
C2294 C 0.73185 0.29704 0.41637 0.0
C2295 C 0.71247 0.30286 0.40755 0.0
C2296 C 0.70482 0.3233 0.41081 0.0
H2297 H 0.61853 0.21189 0.36185 0.0
H2298 H 0.63698 0.2454 0.36611 0.0
C2299 C 0.71606 0.33749 0.42326 0.0
C2300 C 0.69906 0.28671 0.39753 0.0
H2301 H 0.70009 0.24643 0.36205 0.0
C2302 C 0.67952 0.28237 0.4068 0.0
C2303 C 0.7062 0.27416 0.38062 0.0
C2304 C 0.72644 0.27885 0.36923 0.0
C2305 C 0.66757 0.26493 0.40057 0.0
C2306 C 0.67531 0.25169 0.38449 0.0
C2307 C 0.6943 0.25663 0.37445 0.0
C2308 C 0.66497 0.23152 0.37954 0.0
C2309 C 0.64742 0.26005 0.41212 0.0
C2310 C 0.67493 0.21268 0.38511 0.0
C2311 C 0.6645 0.19354 0.38273 0.0
C2312 C 0.6439 0.1929 0.37467 0.0
C2313 C 0.63431 0.21181 0.36829 0.0
C2314 C 0.64479 0.23097 0.3707 0.0
H2315 H 0.6453 0.27014 0.42623 0.0
H2316 H 0.63386 0.26266 0.40145 0.0
H2317 H 0.64714 0.24332 0.41711 0.0
H2318 H 0.69054 0.21286 0.39197 0.0
H2319 H 0.67245 0.17931 0.38765 0.0
H2320 H 0.88763 0.4551 0.70083 0.0
H2321 H 0.91788 0.44118 0.68168 0.0
H2322 H 0.94888 0.50133 0.68672 0.0
H2323 H 0.91883 0.51531 0.70622 0.0
H2324 H 0.94397 0.45322 0.64549 0.0
H2325 H 0.98373 0.45964 0.72334 0.0
H2326 H 0.95567 0.46241 0.72032 0.0
H2327 H 0.97287 0.4836 0.71306 0.0
C2328 C 0.90065 0.46552 0.69739 0.0
C2329 C 0.90113 0.48613 0.70537 0.0
C2330 C 0.91786 0.45757 0.68637 0.0
C2331 C 0.93565 0.47017 0.68317 0.0
C2332 C 0.93532 0.49135 0.68932 0.0
H2333 H 0.06401 0.43108 0.66195 0.0
H2334 H 0.03213 0.45204 0.66506 0.0
C2335 C 0.91817 0.49928 0.70044 0.0
C2336 C 0.9555 0.46026 0.67655 0.0
H2337 H 0.00322 0.44519 0.69568 0.0
C2338 C 0.95704 0.45158 0.65632 0.0
C2339 C 0.97234 0.45802 0.69091 0.0
C2340 C 0.97113 0.46624 0.71318 0.0
C2341 C 0.9752 0.44073 0.65002 0.0
C2342 C 0.9919 0.43828 0.66451 0.0
C2343 C 0.99039 0.44722 0.6846 0.0
C2344 C 0.01094 0.42595 0.65969 0.0
C2345 C 0.9764 0.43207 0.62797 0.0
C2346 C 0.00955 0.40432 0.65551 0.0
C2347 C 0.02778 0.39221 0.65371 0.0
C2348 C 0.04767 0.40154 0.65637 0.0
C2349 C 0.04894 0.42332 0.66007 0.0
C2350 C 0.03076 0.43539 0.66171 0.0
H2351 H 0.96529 0.44024 0.61724 0.0
H2352 H 0.99256 0.43355 0.62154 0.0
H2353 H 0.97216 0.41514 0.62819 0.0
H2354 H 0.99437 0.39665 0.65441 0.0
H2355 H 0.02628 0.37548 0.65085 0.0
H2356 H 0.55707 0.50135 0.17201 0.0
H2357 H 0.53463 0.52371 0.15057 0.0
H2358 H 0.5854 0.5682 0.14343 0.0
H2359 H 0.60787 0.54601 0.16537 0.0
H2360 H 0.55226 0.58599 0.16061 0.0
H2361 H 0.52458 0.54218 0.09128 0.0
H2362 H 0.52202 0.52585 0.11404 0.0
H2363 H 0.54778 0.53439 0.10576 0.0
C2364 C 0.56367 0.51556 0.16534 0.0
C2365 C 0.58408 0.52211 0.17059 0.0
C2366 C 0.55089 0.52825 0.15285 0.0
C2367 C 0.55839 0.54756 0.14518 0.0
C2368 C 0.57934 0.55331 0.14907 0.0
H2369 H 0.45355 0.6332 0.11111 0.0
H2370 H 0.4896 0.61971 0.10808 0.0
C2371 C 0.59212 0.54065 0.16166 0.0
C2372 C 0.54319 0.56319 0.13709 0.0
H2373 H 0.49846 0.56618 0.10764 0.0
C2374 C 0.54098 0.58205 0.14841 0.0
C2375 C 0.52855 0.55822 0.12108 0.0
C2376 C 0.53104 0.53914 0.10723 0.0
C2377 C 0.52322 0.59477 0.14581 0.0
C2378 C 0.50741 0.5884 0.13163 0.0
C2379 C 0.51062 0.57084 0.11869 0.0
C2380 C 0.48609 0.59714 0.13321 0.0
C2381 C 0.52049 0.61393 0.15953 0.0
C2382 C 0.47252 0.58894 0.14846 0.0
C2383 C 0.45209 0.59653 0.15027 0.0
C2384 C 0.44485 0.61252 0.13686 0.0
C2385 C 0.45868 0.62097 0.12175 0.0
C2386 C 0.47919 0.61324 0.1199 0.0
H2387 H 0.53553 0.61887 0.16695 0.0
H2388 H 0.51411 0.62724 0.1502 0.0
H2389 H 0.50902 0.61034 0.17218 0.0
H2390 H 0.47773 0.57652 0.15887 0.0
H2391 H 0.44192 0.58967 0.16209 0.0
H2392 H 0.53806 0.65627 0.84543 0.0
H2393 H 0.55507 0.64066 0.81467 0.0
H2394 H 0.57984 0.70146 0.79757 0.0
H2395 H 0.56321 0.71708 0.82842 0.0
H2396 H 0.54335 0.65305 0.77548 0.0
H2397 H 0.62934 0.66303 0.78485 0.0
H2398 H 0.61131 0.66476 0.80672 0.0
H2399 H 0.6151 0.68693 0.78956 0.0
C2400 C 0.54763 0.66618 0.83543 0.0
C2401 C 0.5492 0.6879 0.83918 0.0
C2402 C 0.55733 0.65725 0.8179 0.0
C2403 C 0.56882 0.66988 0.80394 0.0
C2404 C 0.57142 0.69134 0.80836 0.0
H2405 H 0.57851 0.66323 0.67055 0.0
H2406 H 0.5717 0.67138 0.70745 0.0
C2407 C 0.56177 0.70028 0.82592 0.0
C2408 C 0.57527 0.66144 0.78328 0.0
H2409 H 0.61671 0.6577 0.74946 0.0
C2410 C 0.55945 0.65375 0.76992 0.0
C2411 C 0.59628 0.66232 0.77611 0.0
C2412 C 0.61402 0.66952 0.79015 0.0
C2413 C 0.56394 0.6477 0.74925 0.0
C2414 C 0.58471 0.64969 0.74171 0.0
C2415 C 0.60074 0.6565 0.75529 0.0
C2416 C 0.58984 0.64529 0.71955 0.0
C2417 C 0.54636 0.63948 0.73554 0.0
C2418 C 0.60271 0.62823 0.71429 0.0
C2419 C 0.60664 0.62348 0.69322 0.0
C2420 C 0.59787 0.63585 0.67709 0.0
C2421 C 0.58542 0.6533 0.68253 0.0
C2422 C 0.58146 0.65797 0.70359 0.0
H2423 H 0.53271 0.63412 0.74502 0.0
H2424 H 0.5409 0.65223 0.72496 0.0
H2425 H 0.55186 0.6262 0.72562 0.0
H2426 H 0.60936 0.61835 0.72647 0.0
H2427 H 0.61643 0.61002 0.68961 0.0
H2428 H 0.47429 0.32706 0.08001 0.0
H2429 H 0.48595 0.35221 0.05337 0.0
H2430 H 0.55012 0.34429 0.07385 0.0
H2431 H 0.53854 0.31956 0.10089 0.0
H2432 H 0.53963 0.38633 0.05702 0.0
H2433 H 0.51621 0.31879 0.00609 0.0
H2434 H 0.49594 0.32969 0.02243 0.0
H2435 H 0.51797 0.31656 0.03427 0.0
C2436 C 0.4908 0.33119 0.07924 0.0
C2437 C 0.50561 0.32104 0.09211 0.0
C2438 C 0.49741 0.3456 0.06411 0.0
C2439 C 0.5189 0.34972 0.06146 0.0
C2440 C 0.53346 0.34126 0.0757 0.0
H2441 H 0.60924 0.37817 0.9695 0.0
H2442 H 0.58857 0.37914 0.00186 0.0
C2443 C 0.52684 0.32704 0.09103 0.0
C2444 C 0.52658 0.35905 0.0417 0.0
H2445 H 0.53308 0.34686 0.99 0.0
C2446 C 0.53796 0.37796 0.04224 0.0
C2447 C 0.52444 0.34793 0.02254 0.0
C2448 C 0.51313 0.32704 0.02118 0.0
C2449 C 0.54761 0.38589 0.02402 0.0
C2450 C 0.54608 0.37434 0.00506 0.0
C2451 C 0.53406 0.35584 0.00449 0.0
C2452 C 0.55838 0.37948 0.98601 0.0
C2453 C 0.55948 0.40639 0.02532 0.0
C2454 C 0.54833 0.37968 0.96634 0.0
C2455 C 0.5601 0.37841 0.94792 0.0
C2456 C 0.58212 0.37731 0.94886 0.0
C2457 C 0.59226 0.37903 0.96841 0.0
C2458 C 0.58045 0.37984 0.9869 0.0
H2459 H 0.5529 0.41671 0.03779 0.0
H2460 H 0.57612 0.40311 0.02944 0.0
H2461 H 0.5591 0.41495 0.01013 0.0
H2462 H 0.53133 0.37937 0.9653 0.0
H2463 H 0.55194 0.37741 0.93299 0.0
H2464 H 0.95275 0.32257 0.3562 0.0
H2465 H 0.93083 0.34527 0.33418 0.0
H2466 H 0.91911 0.29315 0.29222 0.0
H2467 H 0.94045 0.27036 0.31437 0.0
H2468 H 0.94182 0.35453 0.29549 0.0
H2469 H 0.86233 0.3204 0.29211 0.0
H2470 H 0.88088 0.31354 0.31253 0.0
H2471 H 0.88137 0.30018 0.2875 0.0
C2472 C 0.94504 0.31586 0.34256 0.0
C2473 C 0.94843 0.29478 0.33684 0.0
C2474 C 0.93246 0.32881 0.33006 0.0
C2475 C 0.92308 0.32085 0.31172 0.0
C2476 C 0.92565 0.29951 0.30661 0.0
H2477 H 0.92116 0.35474 0.18904 0.0
H2478 H 0.9258 0.34479 0.22567 0.0
C2479 C 0.93809 0.28654 0.31915 0.0
C2480 C 0.91386 0.33527 0.29599 0.0
H2481 H 0.8744 0.33809 0.25974 0.0
C2482 C 0.92675 0.35138 0.28813 0.0
C2483 C 0.89408 0.33144 0.28654 0.0
C2484 C 0.87881 0.31558 0.29532 0.0
C2485 C 0.92135 0.36221 0.26978 0.0
C2486 C 0.90278 0.35659 0.25899 0.0
C2487 C 0.88883 0.34207 0.26794 0.0
C2488 C 0.89945 0.36305 0.23701 0.0
C2489 C 0.9362 0.37865 0.26133 0.0
C2490 C 0.88282 0.37631 0.23133 0.0
C2491 C 0.88011 0.38213 0.21029 0.0
C2492 C 0.89386 0.37449 0.1947 0.0
C2493 C 0.91029 0.36094 0.20058 0.0
C2494 C 0.91304 0.3553 0.22152 0.0
H2495 H 0.94607 0.3855 0.27405 0.0
H2496 H 0.94684 0.37126 0.24965 0.0
H2497 H 0.92746 0.39151 0.25339 0.0
H2498 H 0.87211 0.38226 0.24315 0.0
H2499 H 0.86723 0.39251 0.20625 0.0
H2500 H 0.95182 0.72237 0.55669 0.0
H2501 H 0.93045 0.69947 0.53453 0.0
H2502 H 0.94278 0.64725 0.57598 0.0
H2503 H 0.96438 0.67021 0.59838 0.0
H2504 H 0.95057 0.63875 0.53339 0.0
H2505 H 0.87192 0.6739 0.54356 0.0
H2506 H 0.89132 0.69375 0.53854 0.0
H2507 H 0.89309 0.67814 0.5621 0.0
C2508 C 0.94982 0.70608 0.56124 0.0
C2509 C 0.95975 0.69804 0.57922 0.0
C2510 C 0.93745 0.69306 0.54868 0.0
C2511 C 0.93474 0.6718 0.55388 0.0
C2512 C 0.94451 0.6637 0.57191 0.0
H2513 H 0.85606 0.61857 0.45427 0.0
H2514 H 0.86959 0.6205 0.49028 0.0
C2515 C 0.95683 0.67679 0.58461 0.0
C2516 C 0.92327 0.65797 0.53917 0.0
H2517 H 0.87865 0.65735 0.50957 0.0
C2518 C 0.93461 0.64232 0.52854 0.0
C2519 C 0.9023 0.66228 0.53324 0.0
C2520 C 0.88889 0.67779 0.54515 0.0
C2521 C 0.92627 0.63253 0.51062 0.0
C2522 C 0.90633 0.63886 0.50312 0.0
C2523 C 0.89411 0.65275 0.51513 0.0
C2524 C 0.8994 0.63427 0.48141 0.0
C2525 C 0.93934 0.61632 0.49928 0.0
C2526 C 0.91174 0.64126 0.46455 0.0
C2527 C 0.90407 0.64032 0.44405 0.0
C2528 C 0.88379 0.63249 0.44 0.0
C2529 C 0.87174 0.62473 0.45685 0.0
C2530 C 0.87944 0.62575 0.47742 0.0
H2531 H 0.94944 0.60752 0.51049 0.0
H2532 H 0.92934 0.60497 0.49053 0.0
H2533 H 0.94986 0.62437 0.48793 0.0
H2534 H 0.92696 0.64842 0.46732 0.0
H2535 H 0.91382 0.64635 0.43148 0.0
H2536 H 0.5355 0.22067 0.68925 0.0
H2537 H 0.55669 0.22617 0.72104 0.0
H2538 H 0.56939 0.2899 0.70171 0.0
H2539 H 0.54832 0.28457 0.66996 0.0
H2540 H 0.60541 0.2651 0.72053 0.0
H2541 H 0.53132 0.26649 0.76743 0.0
H2542 H 0.53601 0.24445 0.75028 0.0
H2543 H 0.53119 0.26996 0.73927 0.0
C2544 C 0.54308 0.23574 0.69164 0.0
C2545 C 0.5401 0.25228 0.67729 0.0
C2546 C 0.55516 0.23883 0.70976 0.0
C2547 C 0.56442 0.25846 0.71368 0.0
C2548 C 0.56237 0.27463 0.69886 0.0
H2549 H 0.61741 0.34161 0.79876 0.0
H2550 H 0.61088 0.31792 0.76952 0.0
C2551 C 0.55025 0.27159 0.68081 0.0
C2552 C 0.57448 0.26307 0.73408 0.0
H2553 H 0.56222 0.27677 0.78437 0.0
C2554 C 0.59611 0.26729 0.73465 0.0
C2555 C 0.56226 0.26569 0.75243 0.0
C2556 C 0.53888 0.26153 0.75249 0.0
C2557 C 0.60573 0.27502 0.75297 0.0
C2558 C 0.5932 0.27913 0.77088 0.0
C2559 C 0.57182 0.27362 0.77064 0.0
C2560 C 0.60096 0.29174 0.78889 0.0
C2561 C 0.62908 0.27914 0.75277 0.0
C2562 C 0.59761 0.28497 0.80961 0.0
C2563 C 0.60097 0.29869 0.82647 0.0
C2564 C 0.60769 0.31947 0.82287 0.0
C2565 C 0.61222 0.32576 0.80217 0.0
C2566 C 0.60872 0.3121 0.78536 0.0
H2567 H 0.63727 0.26792 0.74216 0.0
H2568 H 0.63202 0.29523 0.7467 0.0
H2569 H 0.636 0.27787 0.76876 0.0
H2570 H 0.59149 0.26936 0.81267 0.0
H2571 H 0.59745 0.29328 0.84222 0.0
H2572 H 0.94026 0.27587 0.90753 0.0
H2573 H 0.93097 0.30229 0.93393 0.0
H2574 H 0.99341 0.29832 0.96022 0.0
H2575 H 0.00271 0.27166 0.93412 0.0
H2576 H 0.96198 0.29212 0.98901 0.0
H2577 H 0.94639 0.36421 0.94259 0.0
H2578 H 0.93264 0.3414 0.93314 0.0
H2579 H 0.96089 0.3421 0.93218 0.0
C2580 C 0.95207 0.28084 0.91878 0.0
C2581 C 0.97214 0.27163 0.91891 0.0
C2582 C 0.94682 0.29608 0.93369 0.0
C2583 C 0.96162 0.30246 0.94878 0.0
C2584 C 0.98185 0.2937 0.94856 0.0
H2585 H 0.94279 0.36762 0.06783 0.0
H2586 H 0.95991 0.35485 0.03589 0.0
C2587 C 0.98708 0.27842 0.93373 0.0
C2588 C 0.95527 0.31628 0.96631 0.0
H2589 H 0.93364 0.36398 0.97807 0.0
C2590 C 0.9561 0.30796 0.98669 0.0
C2591 C 0.94748 0.33685 0.9631 0.0
C2592 C 0.94695 0.34677 0.94158 0.0
C2593 C 0.94861 0.31934 0.00394 0.0
C2594 C 0.94049 0.3398 0.00074 0.0
C2595 C 0.94002 0.34834 0.98042 0.0
C2596 C 0.93099 0.35169 0.01823 0.0
C2597 C 0.94856 0.30896 0.0253 0.0
C2598 C 0.90926 0.35533 0.0183 0.0
C2599 C 0.89943 0.36278 0.03643 0.0
C2600 C 0.91122 0.36657 0.05479 0.0
C2601 C 0.93323 0.36448 0.05407 0.0
C2602 C 0.94304 0.35721 0.03586 0.0
H2603 H 0.95119 0.29172 0.02421 0.0
H2604 H 0.96135 0.31576 0.03506 0.0
H2605 H 0.93342 0.31174 0.03351 0.0
H2606 H 0.89975 0.35123 0.00476 0.0
H2607 H 0.88248 0.36437 0.0364 0.0
H2608 H 0.92935 0.746 0.14702 0.0
H2609 H 0.90725 0.73196 0.17526 0.0
H2610 H 0.96251 0.70842 0.20681 0.0
H2611 H 0.98461 0.72202 0.17854 0.0
H2612 H 0.93016 0.67944 0.20452 0.0
H2613 H 0.90195 0.7566 0.23465 0.0
H2614 H 0.89739 0.75173 0.20717 0.0
H2615 H 0.92384 0.7543 0.21677 0.0
C2616 C 0.93675 0.7378 0.15998 0.0
C2617 C 0.95868 0.73513 0.16066 0.0
C2618 C 0.92414 0.72992 0.17613 0.0
C2619 C 0.93331 0.71946 0.19323 0.0
C2620 C 0.95517 0.71653 0.19375 0.0
H2621 H 0.89836 0.68971 0.318 0.0
H2622 H 0.90913 0.70641 0.28523 0.0
C2623 C 0.96776 0.72431 0.17761 0.0
C2624 C 0.92031 0.71124 0.21059 0.0
H2625 H 0.88922 0.72621 0.25167 0.0
C2626 C 0.92104 0.68961 0.21474 0.0
C2627 C 0.90861 0.72465 0.22392 0.0
C2628 C 0.90796 0.74814 0.22059 0.0
C2629 C 0.91085 0.68103 0.23225 0.0
C2630 C 0.89917 0.69443 0.24563 0.0
C2631 C 0.89801 0.71601 0.2412 0.0
C2632 C 0.88985 0.68655 0.26537 0.0
C2633 C 0.91355 0.65787 0.23679 0.0
C2634 C 0.87472 0.6705 0.26507 0.0
C2635 C 0.86868 0.66075 0.28377 0.0
C2636 C 0.87749 0.66711 0.30307 0.0
C2637 C 0.89136 0.68434 0.30341 0.0
C2638 C 0.89753 0.69394 0.2847 0.0
H2639 H 0.9266 0.65085 0.22755 0.0
H2640 H 0.91673 0.65522 0.25375 0.0
H2641 H 0.89886 0.64941 0.2326 0.0
H2642 H 0.86826 0.66494 0.25031 0.0
H2643 H 0.85771 0.64774 0.28299 0.0
H2644 H 0.54791 0.7237 0.38025 0.0
H2645 H 0.56501 0.69786 0.40305 0.0
H2646 H 0.51156 0.69932 0.44473 0.0
H2647 H 0.49425 0.72482 0.42186 0.0
H2648 H 0.57572 0.70737 0.44299 0.0
H2649 H 0.52471 0.63702 0.44332 0.0
H2650 H 0.52295 0.657 0.42321 0.0
H2651 H 0.50995 0.66057 0.4481 0.0
C2652 C 0.53961 0.71812 0.39402 0.0
C2653 C 0.51981 0.72634 0.39938 0.0
C2654 C 0.54937 0.70335 0.40699 0.0
C2655 C 0.53946 0.69648 0.42544 0.0
C2656 C 0.51928 0.70399 0.4303 0.0
H2657 H 0.56386 0.65507 0.54733 0.0
H2658 H 0.55025 0.6644 0.51278 0.0
C2659 C 0.50948 0.71871 0.41732 0.0
C2660 C 0.55124 0.68401 0.44113 0.0
H2661 H 0.54692 0.64188 0.47401 0.0
C2662 C 0.56974 0.69276 0.44945 0.0
C2663 C 0.54337 0.66499 0.44949 0.0
C2664 C 0.52426 0.65424 0.4404 0.0
C2665 C 0.57977 0.68381 0.4669 0.0
C2666 C 0.57121 0.66543 0.47601 0.0
C2667 C 0.55338 0.65602 0.46698 0.0
C2668 C 0.57911 0.6573 0.49628 0.0
C2669 C 0.59861 0.69486 0.47626 0.0
C2670 C 0.59972 0.64974 0.49832 0.0
C2671 C 0.60767 0.64452 0.51814 0.0
C2672 C 0.59507 0.6467 0.5362 0.0
C2673 C 0.5741 0.65336 0.53385 0.0
C2674 C 0.56622 0.6586 0.51408 0.0
H2675 H 0.60107 0.71072 0.46938 0.0
H2676 H 0.59681 0.69654 0.49355 0.0
H2677 H 0.61294 0.68538 0.47326 0.0
H2678 H 0.60979 0.64837 0.48467 0.0
H2679 H 0.62381 0.63923 0.51934 0.0
H2680 H 0.80584 0.52207 0.70442 0.0
H2681 H 0.78339 0.54689 0.68586 0.0
H2682 H 0.81036 0.59823 0.72122 0.0
H2683 H 0.83286 0.57325 0.74023 0.0
H2684 H 0.76737 0.59979 0.71988 0.0
H2685 H 0.79805 0.58833 0.63973 0.0
H2686 H 0.79229 0.56339 0.65148 0.0
H2687 H 0.81235 0.57997 0.66282 0.0
C2688 C 0.80711 0.53864 0.7082 0.0
C2689 C 0.82112 0.54575 0.72373 0.0
C2690 C 0.79442 0.55284 0.69742 0.0
C2691 C 0.79562 0.57444 0.70179 0.0
C2692 C 0.80945 0.58163 0.71744 0.0
H2693 H 0.70555 0.63554 0.61727 0.0
H2694 H 0.73858 0.633 0.63698 0.0
C2695 C 0.8222 0.56737 0.7283 0.0
C2696 C 0.78115 0.58898 0.69088 0.0
H2697 H 0.76093 0.59818 0.64215 0.0
C2698 C 0.76627 0.59997 0.70286 0.0
C2699 C 0.7801 0.58977 0.66869 0.0
C2700 C 0.79674 0.57991 0.65497 0.0
C2701 C 0.74904 0.60979 0.69324 0.0
C2702 C 0.7465 0.60808 0.6712 0.0
C2703 C 0.76262 0.59913 0.6591 0.0
C2704 C 0.72609 0.61224 0.66083 0.0
C2705 C 0.73325 0.62105 0.70687 0.0
C2706 C 0.70817 0.60139 0.66769 0.0
C2707 C 0.68938 0.60275 0.65654 0.0
C2708 C 0.68812 0.6148 0.63805 0.0
C2709 C 0.70598 0.62606 0.63141 0.0
C2710 C 0.72485 0.62472 0.64268 0.0
H2711 H 0.74109 0.62835 0.7207 0.0
H2712 H 0.72477 0.63347 0.698 0.0
H2713 H 0.72161 0.60953 0.71288 0.0
H2714 H 0.7089 0.59112 0.68125 0.0
H2715 H 0.676 0.59386 0.66215 0.0
H2716 H 0.67654 0.61267 0.91457 0.0
H2717 H 0.65276 0.589 0.89558 0.0
H2718 H 0.64406 0.55263 0.95215 0.0
H2719 H 0.66731 0.57633 0.97119 0.0
H2720 H 0.66368 0.54938 0.89 0.0
H2721 H 0.58607 0.54922 0.92785 0.0
H2722 H 0.60458 0.5705 0.9315 0.0
H2723 H 0.60597 0.54725 0.9477 0.0
C2724 C 0.66899 0.6 0.92309 0.0
C2725 C 0.67393 0.59616 0.94429 0.0
C2726 C 0.65538 0.58655 0.91223 0.0
C2727 C 0.64643 0.56917 0.92247 0.0
C2728 C 0.65028 0.56622 0.94402 0.0
H2729 H 0.62966 0.44421 0.91953 0.0
H2730 H 0.62982 0.4822 0.9242 0.0
C2731 C 0.66381 0.57966 0.95485 0.0
C2732 C 0.63666 0.55191 0.91025 0.0
H2733 H 0.59825 0.51472 0.91434 0.0
C2734 C 0.64896 0.54219 0.89471 0.0
C2735 C 0.6174 0.54262 0.9163 0.0
C2736 C 0.60268 0.55314 0.9316 0.0
C2737 C 0.64375 0.52225 0.88687 0.0
C2738 C 0.62566 0.51198 0.89466 0.0
C2739 C 0.61224 0.5226 0.90858 0.0
C2740 C 0.62275 0.48916 0.89167 0.0
C2741 C 0.65865 0.51149 0.87185 0.0
C2742 C 0.61837 0.48054 0.87184 0.0
C2743 C 0.61838 0.45871 0.86904 0.0
C2744 C 0.62283 0.44525 0.88605 0.0
C2745 C 0.62641 0.45406 0.90603 0.0
C2746 C 0.62633 0.47578 0.90879 0.0
H2747 H 0.67286 0.52112 0.86858 0.0
H2748 H 0.66372 0.49612 0.87838 0.0
H2749 H 0.65048 0.50841 0.85673 0.0
H2750 H 0.61545 0.49068 0.85848 0.0
H2751 H 0.6154 0.45243 0.85348 0.0
H2752 H 0.67261 0.47316 0.17684 0.0
H2753 H 0.69847 0.44796 0.16413 0.0
H2754 H 0.66454 0.39743 0.19404 0.0
H2755 H 0.63838 0.42278 0.20694 0.0
H2756 H 0.70736 0.39912 0.20449 0.0
H2757 H 0.69705 0.40257 0.11846 0.0
H2758 H 0.69775 0.42852 0.12952 0.0
H2759 H 0.67678 0.41082 0.13659 0.0
C2760 C 0.67043 0.45665 0.18043 0.0
C2761 C 0.65354 0.4499 0.19288 0.0
C2762 C 0.68511 0.44224 0.17301 0.0
C2763 C 0.68319 0.42081 0.17786 0.0
C2764 C 0.6661 0.41389 0.18994 0.0
H2765 H 0.79451 0.363 0.12272 0.0
H2766 H 0.75805 0.36281 0.13479 0.0
C2767 C 0.65123 0.42835 0.19727 0.0
C2768 C 0.70047 0.40645 0.17211 0.0
H2769 H 0.73284 0.39591 0.13088 0.0
C2770 C 0.71266 0.39779 0.18833 0.0
C2771 C 0.70709 0.40428 0.15104 0.0
C2772 C 0.69382 0.41186 0.13291 0.0
C2773 C 0.73248 0.3891 0.18417 0.0
C2774 C 0.74027 0.38949 0.16337 0.0
C2775 C 0.72704 0.39595 0.14692 0.0
C2776 C 0.76285 0.3866 0.15866 0.0
C2777 C 0.74527 0.38058 0.20222 0.0
C2778 C 0.77768 0.39986 0.16827 0.0
C2779 C 0.79849 0.40007 0.16143 0.0
C2780 C 0.80484 0.38718 0.14462 0.0
C2781 C 0.79014 0.37324 0.13561 0.0
C2782 C 0.7693 0.37303 0.14253 0.0
H2783 H 0.7349 0.37371 0.21447 0.0
H2784 H 0.75656 0.36837 0.19689 0.0
H2785 H 0.75422 0.39363 0.20962 0.0
H2786 H 0.77295 0.41091 0.18035 0.0
H2787 H 0.80936 0.41098 0.16875 0.0
H2788 H 0.81715 0.38379 0.42442 0.0
H2789 H 0.83899 0.4096 0.40608 0.0
H2790 H 0.83814 0.44939 0.46113 0.0
H2791 H 0.81702 0.4235 0.47963 0.0
H2792 H 0.82281 0.44623 0.3974 0.0
H2793 H 0.89612 0.46118 0.44084 0.0
H2794 H 0.88071 0.43766 0.44496 0.0
H2795 H 0.87455 0.46162 0.45889 0.0
C2796 C 0.82229 0.39772 0.43282 0.0
C2797 C 0.8152 0.40181 0.45333 0.0
C2798 C 0.83479 0.41242 0.42235 0.0
C2799 C 0.84034 0.43138 0.43225 0.0
C2800 C 0.83456 0.43468 0.4533 0.0
H2801 H 0.84155 0.559 0.41426 0.0
H2802 H 0.84355 0.52219 0.42485 0.0
C2803 C 0.82225 0.41994 0.46381 0.0
C2804 C 0.84817 0.44935 0.41973 0.0
H2805 H 0.88048 0.49207 0.42317 0.0
C2806 C 0.83589 0.45589 0.40257 0.0
C2807 C 0.86524 0.46196 0.42644 0.0
C2808 C 0.88 0.45506 0.44367 0.0
C2809 C 0.83898 0.47558 0.39325 0.0
C2810 C 0.85483 0.48894 0.40124 0.0
C2811 C 0.86819 0.48179 0.41727 0.0
C2812 C 0.85577 0.51124 0.39507 0.0
C2813 C 0.82423 0.48267 0.37604 0.0
C2814 C 0.86218 0.51715 0.37487 0.0
C2815 C 0.86097 0.53819 0.36868 0.0
C2816 C 0.85328 0.55359 0.38263 0.0
C2817 C 0.84736 0.54756 0.40305 0.0
C2818 C 0.84865 0.52657 0.40921 0.0
H2819 H 0.81159 0.47101 0.37286 0.0
H2820 H 0.81685 0.4979 0.38035 0.0
H2821 H 0.83323 0.48512 0.36131 0.0
H2822 H 0.86776 0.50545 0.36381 0.0
H2823 H 0.86579 0.5423 0.35289 0.0
H2824 H 0.80025 0.48267 0.79642 0.0
H2825 H 0.77836 0.45719 0.8149 0.0
H2826 H 0.81895 0.40687 0.79426 0.0
H2827 H 0.84056 0.4323 0.77508 0.0
H2828 H 0.77947 0.39639 0.78873 0.0
H2829 H 0.7875 0.42702 0.86922 0.0
H2830 H 0.77961 0.44805 0.85227 0.0
H2831 H 0.80465 0.43534 0.84821 0.0
C2832 C 0.80458 0.4662 0.79594 0.0
C2833 C 0.82207 0.45944 0.78437 0.0
C2834 C 0.79222 0.45167 0.80669 0.0
C2835 C 0.79737 0.43019 0.80644 0.0
C2836 C 0.81485 0.42339 0.79486 0.0
H2837 H 0.70203 0.36866 0.88317 0.0
H2838 H 0.73788 0.37354 0.8701 0.0
C2839 C 0.82711 0.43792 0.78388 0.0
C2840 C 0.78339 0.4149 0.81693 0.0
H2841 H 0.75411 0.4093 0.8613 0.0
C2842 C 0.77429 0.39883 0.80479 0.0
C2843 C 0.77719 0.41745 0.83812 0.0
C2844 C 0.78799 0.43275 0.85273 0.0
C2845 C 0.75757 0.3868 0.8126 0.0
C2846 C 0.74938 0.39152 0.83273 0.0
C2847 C 0.76001 0.40596 0.84566 0.0
C2848 C 0.72822 0.38447 0.83934 0.0
C2849 C 0.7484 0.36974 0.79887 0.0
C2850 C 0.71091 0.38862 0.82629 0.0
C2851 C 0.69051 0.38568 0.8336 0.0
C2852 C 0.68695 0.37897 0.85433 0.0
C2853 C 0.70427 0.37402 0.86717 0.0
C2854 C 0.72476 0.37671 0.85971 0.0
H2855 H 0.76095 0.36198 0.78952 0.0
H2856 H 0.74009 0.35761 0.80826 0.0
H2857 H 0.73715 0.37684 0.78757 0.0
H2858 H 0.71308 0.39531 0.81079 0.0
H2859 H 0.67755 0.38975 0.82332 0.0
H2860 H 0.77104 0.59498 0.02536 0.0
H2861 H 0.79218 0.56689 0.04088 0.0
H2862 H 0.7801 0.52768 0.9868 0.0
H2863 H 0.75876 0.5557 0.97117 0.0
H2864 H 0.77196 0.5086 0.02618 0.0
H2865 H 0.85108 0.54551 0.02405 0.0
H2866 H 0.83092 0.56163 0.03553 0.0
H2867 H 0.8294 0.55473 0.00816 0.0
C2868 C 0.77302 0.58044 0.0167 0.0
C2869 C 0.76327 0.57748 -0.00293 0.0
C2870 C 0.78522 0.56449 0.02551 0.0
C2871 C 0.78793 0.5454 0.0148 0.0
C2872 C 0.7783 0.54242 0.99517 0.0
H2873 H 0.84204 0.42616 0.05366 0.0
H2874 H 0.82736 0.45496 0.03303 0.0
C2875 C 0.76612 0.55839 0.98631 0.0
C2876 C 0.79963 0.52806 0.0248 0.0
H2877 H 0.84757 0.51447 0.04472 0.0
C2878 C 0.78854 0.50975 0.03004 0.0
C2879 C 0.8212 0.52978 0.0299 0.0
C2880 C 0.83394 0.54889 0.02398 0.0
C2881 C 0.79834 0.49324 0.04082 0.0
C2882 C 0.81989 0.495 0.04605 0.0
C2883 C 0.83105 0.51322 0.04062 0.0
C2884 C 0.83089 0.4782 0.05766 0.0
C2885 C 0.78537 0.47438 0.04711 0.0
C2886 C 0.83859 0.48203 0.07797 0.0
C2887 C 0.84714 0.46564 0.0898 0.0
C2888 C 0.84809 0.44516 0.08147 0.0
C2889 C 0.84129 0.44167 0.06068 0.0
C2890 C 0.83284 0.45808 0.04886 0.0
H2891 H 0.76823 0.47769 0.04634 0.0
H2892 H 0.78876 0.46115 0.03624 0.0
H2893 H 0.78934 0.46925 0.06332 0.0
H2894 H 0.8373 0.49754 0.08493 0.0
H2895 H 0.8523 0.4689 0.10571 0.0
H2896 H 0.64327 0.56198 0.24282 0.0
H2897 H 0.67044 0.58382 0.25932 0.0
H2898 H 0.69442 0.52942 0.29193 0.0
H2899 H 0.66765 0.50742 0.27518 0.0
H2900 H 0.68239 0.59217 0.30119 0.0
H2901 H 0.74454 0.54999 0.25708 0.0
H2902 H 0.71698 0.54739 0.25083 0.0
H2903 H 0.72823 0.53266 0.27221 0.0
C2904 C 0.65421 0.55474 0.25369 0.0
C2905 C 0.65359 0.53297 0.25753 0.0
C2906 C 0.66966 0.56723 0.2631 0.0
C2907 C 0.68463 0.5581 0.27645 0.0
C2908 C 0.68324 0.53662 0.28128 0.0
H2909 H 0.77483 0.60579 0.36284 0.0
H2910 H 0.74232 0.59637 0.34481 0.0
C2911 C 0.66792 0.52411 0.27178 0.0
C2912 C 0.70247 0.57065 0.28444 0.0
H2913 H 0.75597 0.57174 0.2854 0.0
C2914 C 0.69851 0.58791 0.29762 0.0
C2915 C 0.72341 0.56537 0.27923 0.0
C2916 C 0.72858 0.54798 0.26389 0.0
C2917 C 0.7151 0.59943 0.3066 0.0
C2918 C 0.73606 0.59316 0.30257 0.0
C2919 C 0.73991 0.57649 0.28861 0.0
C2920 C 0.75433 0.60251 0.31356 0.0
C2921 C 0.70999 0.61812 0.32029 0.0
C2922 C 0.77193 0.60913 0.30202 0.0
C2923 C 0.79071 0.61403 0.31227 0.0
C2924 C 0.79216 0.61255 0.33426 0.0
C2925 C 0.77416 0.60718 0.34588 0.0
C2926 C 0.75547 0.60197 0.33559 0.0
H2927 H 0.69472 0.62528 0.31571 0.0
H2928 H 0.7086 0.61288 0.33686 0.0
H2929 H 0.72242 0.63035 0.31938 0.0
H2930 H 0.77139 0.60962 0.285 0.0
H2931 H 0.80428 0.61832 0.30292 0.0
H2932 H 0.7126 0.40255 0.52393 0.0
H2933 H 0.69193 0.43252 0.53636 0.0
H2934 H 0.71206 0.4688 0.48274 0.0
H2935 H 0.73234 0.43875 0.46996 0.0
H2936 H 0.70847 0.4703 0.54727 0.0
H2937 H 0.64953 0.48117 0.48385 0.0
H2938 H 0.6649 0.45745 0.48648 0.0
H2939 H 0.67614 0.48047 0.4745 0.0
C2940 C 0.71236 0.41682 0.51464 0.0
C2941 C 0.72407 0.41837 0.49601 0.0
C2942 C 0.70054 0.43389 0.52174 0.0
C2943 C 0.70025 0.45276 0.51032 0.0
C2944 C 0.71166 0.45422 0.49151 0.0
H2945 H 0.66437 0.57984 0.54318 0.0
H2946 H 0.67716 0.54834 0.52506 0.0
C2947 C 0.72336 0.4371 0.48433 0.0
C2948 C 0.68965 0.47148 0.51911 0.0
H2949 H 0.65281 0.50917 0.50878 0.0
C2950 C 0.69617 0.47868 0.53893 0.0
C2951 C 0.67371 0.48243 0.5081 0.0
C2952 C 0.6655 0.47489 0.48714 0.0
C2953 C 0.68739 0.49672 0.54796 0.0
C2954 C 0.67158 0.50772 0.53691 0.0
C2955 C 0.665 0.50062 0.5171 0.0
C2956 C 0.6617 0.52656 0.54605 0.0
C2957 C 0.69525 0.50411 0.56913 0.0
C2958 C 0.64835 0.52455 0.5634 0.0
C2959 C 0.64104 0.54241 0.5738 0.0
C2960 C 0.647 0.56262 0.567 0.0
C2961 C 0.65957 0.56454 0.5489 0.0
C2962 C 0.66685 0.5466 0.53849 0.0
H2963 H 0.70999 0.49602 0.57386 0.0
H2964 H 0.69811 0.52134 0.56896 0.0
H2965 H 0.68311 0.50084 0.58121 0.0
H2966 H 0.64413 0.50914 0.5693 0.0
H2967 H 0.63123 0.54031 0.58754 0.0
H2968 H 0.67383 0.86524 0.5572 0.0
H2969 H 0.65786 0.84171 0.58315 0.0
H2970 H 0.71104 0.79991 0.57781 0.0
H2971 H 0.72718 0.82344 0.55244 0.0
H2972 H 0.64613 0.80368 0.57194 0.0
H2973 H 0.69949 0.79481 0.63935 0.0
H2974 H 0.70134 0.81682 0.62149 0.0
H2975 H 0.71432 0.79229 0.61557 0.0
C2976 C 0.68235 0.85132 0.56206 0.0
C2977 C 0.70161 0.846 0.55266 0.0
C2978 C 0.67326 0.83796 0.57694 0.0
C2979 C 0.68337 0.81919 0.58266 0.0
C2980 C 0.70319 0.81457 0.57415 0.0
H2981 H 0.66976 0.69388 0.5937 0.0
H2982 H 0.67943 0.73091 0.5954 0.0
C2983 C 0.71229 0.82791 0.55939 0.0
C2984 C 0.67184 0.80249 0.594 0.0
H2985 H 0.68014 0.76259 0.6288 0.0
C2986 C 0.65311 0.7951 0.58492 0.0
C2987 C 0.68089 0.79139 0.611 0.0
C2988 C 0.70001 0.79944 0.62252 0.0
C2989 C 0.64454 0.77567 0.59073 0.0
C2990 C 0.65488 0.76355 0.60624 0.0
C2991 C 0.67241 0.77187 0.61677 0.0
C2992 C 0.64991 0.74105 0.60888 0.0
C2993 C 0.62566 0.76741 0.57888 0.0
C2994 C 0.63031 0.73449 0.61648 0.0
C2995 C 0.62461 0.71329 0.61536 0.0
C2996 C 0.63848 0.69837 0.60666 0.0
C2997 C 0.65859 0.70493 0.60027 0.0
C2998 C 0.66423 0.72608 0.60137 0.0
H2999 H 0.62088 0.77795 0.5658 0.0
H3000 H 0.62907 0.75159 0.57229 0.0
H3001 H 0.61217 0.76585 0.58981 0.0
H3002 H 0.61916 0.74585 0.62252 0.0
H3003 H 0.60909 0.70874 0.62068 0.0
H3004 H 0.23404 0.63364 0.4265 0.0
H3005 H 0.22333 0.65706 0.39788 0.0
H3006 H 0.16647 0.67223 0.43145 0.0
H3007 H 0.17699 0.64889 0.46007 0.0
H3008 H 0.16492 0.6705 0.38253 0.0
H3009 H 0.22691 0.7204 0.41988 0.0
H3010 H 0.23362 0.69414 0.41174 0.0
H3011 H 0.21588 0.698 0.4333 0.0
C3012 C 0.21896 0.64148 0.42748 0.0
C3013 C 0.20652 0.63984 0.44567 0.0
C3014 C 0.21284 0.65473 0.41109 0.0
C3015 C 0.19423 0.66641 0.41273 0.0
C3016 C 0.18085 0.66324 0.42993 0.0
H3017 H 0.12739 0.77422 0.38354 0.0
H3018 H 0.13863 0.73761 0.38553 0.0
C3019 C 0.18696 0.65004 0.44633 0.0
C3020 C 0.19069 0.68485 0.3992 0.0
H3021 H 0.20426 0.73649 0.39627 0.0
C3022 C 0.17375 0.68488 0.38508 0.0
C3023 C 0.2024 0.70344 0.40253 0.0
C3024 C 0.22069 0.70421 0.41771 0.0
C3025 C 0.16761 0.70345 0.37483 0.0
C3026 C 0.17828 0.72246 0.3795 0.0
C3027 C 0.19604 0.72198 0.39263 0.0
C3028 C 0.17001 0.74342 0.37353 0.0
C3029 C 0.14955 0.70253 0.35947 0.0
C3030 C 0.1838 0.75898 0.36607 0.0
C3031 C 0.17764 0.78003 0.36578 0.0
C3032 C 0.15742 0.78578 0.37243 0.0
C3033 C 0.14304 0.7701 0.37822 0.0
C3034 C 0.14939 0.74911 0.37909 0.0
H3035 H 0.14935 0.68721 0.35105 0.0
H3036 H 0.13451 0.70386 0.3682 0.0
H3037 H 0.15039 0.71539 0.34771 0.0
H3038 H 0.19977 0.75501 0.36171 0.0
H3039 H 0.18891 0.79189 0.36103 0.0
H3040 H 0.60881 0.96026 0.67186 0.0
H3041 H 0.58482 0.94001 0.64954 0.0
H3042 H 0.53389 0.98123 0.66714 0.0
H3043 H 0.55776 0.00169 0.689 0.0
H3044 H 0.55364 0.91901 0.66737 0.0
H3045 H 0.5191 0.97025 0.60689 0.0
H3046 H 0.54329 0.9769 0.62029 0.0
H3047 H 0.51819 0.98334 0.63182 0.0
C3048 C 0.59265 0.96541 0.67037 0.0
C3049 C 0.58506 0.98239 0.68232 0.0
C3050 C 0.57899 0.95384 0.6576 0.0
C3051 C 0.55761 0.95918 0.65652 0.0
C3052 C 0.55041 0.97709 0.66727 0.0
H3053 H 0.43838 0.91552 0.66455 0.0
H3054 H 0.47265 0.93228 0.66162 0.0
C3055 C 0.56405 0.98868 0.67996 0.0
C3056 C 0.54209 0.94417 0.64781 0.0
H3057 H 0.49545 0.94305 0.62137 0.0
C3058 C 0.5413 0.92396 0.65669 0.0
C3059 C 0.52606 0.95058 0.6338 0.0
C3060 C 0.52687 0.9714 0.62251 0.0
C3061 C 0.5238 0.91089 0.65369 0.0
C3062 C 0.50684 0.91825 0.64142 0.0
C3063 C 0.50846 0.9376 0.63096 0.0
C3064 C 0.48615 0.90786 0.6422 0.0
C3065 C 0.5227 0.89013 0.66511 0.0
C3066 C 0.48255 0.88848 0.6323 0.0
C3067 C 0.46291 0.87871 0.634 0.0
C3068 C 0.44665 0.88823 0.64565 0.0
C3069 C 0.4505 0.90766 0.65554 0.0
C3070 C 0.47003 0.91736 0.65377 0.0
H3071 H 0.53692 0.88715 0.67484 0.0
H3072 H 0.50866 0.88978 0.67547 0.0
H3073 H 0.52107 0.87715 0.65354 0.0
H3074 H 0.49489 0.88097 0.62328 0.0
H3075 H 0.46044 0.86382 0.62608 0.0
H3076 H 0.32442 0.32367 0.98909 0.0
H3077 H 0.33968 0.30115 0.96219 0.0
H3078 H 0.316 0.34235 0.91378 0.0
H3079 H 0.30032 0.36496 0.94081 0.0
H3080 H 0.30404 0.30236 0.90755 0.0
H3081 H 0.38916 0.30302 0.92283 0.0
H3082 H 0.37546 0.29898 0.94708 0.0
H3083 H 0.37188 0.32324 0.93283 0.0
C3084 C 0.32284 0.32821 0.97275 0.0
C3085 C 0.31109 0.34597 0.96702 0.0
C3086 C 0.33177 0.31544 0.95738 0.0
C3087 C 0.32928 0.32027 0.93599 0.0
C3088 C 0.31828 0.3385 0.93021 0.0
H3089 H 0.38055 0.21174 0.86896 0.0
H3090 H 0.37306 0.24916 0.87365 0.0
C3091 C 0.30933 0.35135 0.94565 0.0
C3092 C 0.33551 0.3045 0.92008 0.0
H3093 H 0.37459 0.26929 0.91027 0.0
C3094 C 0.31966 0.29551 0.9076 0.0
C3095 C 0.35598 0.29589 0.91966 0.0
C3096 C 0.37411 0.306 0.93117 0.0
C3097 C 0.32314 0.2767 0.89665 0.0
C3098 C 0.3428 0.26654 0.89867 0.0
C3099 C 0.35933 0.27683 0.90911 0.0
C3100 C 0.34561 0.24415 0.89305 0.0
C3101 C 0.30541 0.26739 0.88389 0.0
C3102 C 0.33258 0.22895 0.90233 0.0
C3103 C 0.33678 0.2076 0.89972 0.0
C3104 C 0.35429 0.201 0.888 0.0
C3105 C 0.36698 0.21627 0.87819 0.0
C3106 C 0.36271 0.23766 0.88077 0.0
H3107 H 0.29542 0.27998 0.87706 0.0
H3108 H 0.31138 0.25728 0.87097 0.0
H3109 H 0.2953 0.25773 0.89431 0.0
H3110 H 0.31967 0.23359 0.9124 0.0
H3111 H 0.3267 0.19632 0.90753 0.0
H3112 H 0.40605 0.49796 0.66782 0.0
H3113 H 0.43375 0.50789 0.64297 0.0
H3114 H 0.45371 0.55738 0.68494 0.0
H3115 H 0.42622 0.54751 0.7099 0.0
H3116 H 0.44446 0.54878 0.62324 0.0
H3117 H 0.5055 0.51723 0.67696 0.0
H3118 H 0.47801 0.51051 0.67931 0.0
H3119 H 0.48757 0.53514 0.68944 0.0
C3120 C 0.41621 0.5111 0.67163 0.0
C3121 C 0.41418 0.52184 0.69087 0.0
C3122 C 0.43195 0.51675 0.65742 0.0
C3123 C 0.44583 0.53314 0.66234 0.0
C3124 C 0.44322 0.5445 0.68107 0.0
H3125 H 0.5332 0.61313 0.60836 0.0
H3126 H 0.50114 0.59352 0.61522 0.0
C3127 C 0.42753 0.53888 0.69527 0.0
C3128 C 0.46392 0.53772 0.64866 0.0
H3129 H 0.51731 0.54027 0.64987 0.0
C3130 C 0.46044 0.54665 0.62881 0.0
C3131 C 0.48466 0.53433 0.6558 0.0
C3132 C 0.48923 0.52358 0.67645 0.0
C3133 C 0.47734 0.55368 0.61649 0.0
C3134 C 0.49803 0.55198 0.6245 0.0
C3135 C 0.50145 0.54169 0.64372 0.0
C3136 C 0.51615 0.56295 0.61491 0.0
C3137 C 0.47281 0.56322 0.59527 0.0
C3138 C 0.53526 0.55229 0.61204 0.0
C3139 C 0.55378 0.56354 0.6086 0.0
C3140 C 0.55344 0.58564 0.60787 0.0
C3141 C 0.53401 0.59612 0.60886 0.0
C3142 C 0.51556 0.58488 0.61257 0.0
H3143 H 0.45856 0.55605 0.58809 0.0
H3144 H 0.4697 0.58029 0.59722 0.0
H3145 H 0.48625 0.56121 0.58432 0.0
H3146 H 0.53606 0.53536 0.61382 0.0
H3147 H 0.56847 0.555 0.60763 0.0
H3148 H 0.80991 0.14261 0.08328 0.0
H3149 H 0.82784 0.16632 0.10794 0.0
H3150 H 0.84851 0.20455 0.05587 0.0
H3151 H 0.83155 0.18054 0.0313 0.0
H3152 H 0.878 0.20277 0.08631 0.0
H3153 H 0.79973 0.22122 0.12129 0.0
H3154 H 0.80895 0.19464 0.12351 0.0
H3155 H 0.8022 0.20509 0.09813 0.0
C3156 C 0.81863 0.15588 0.07715 0.0
C3157 C 0.8191 0.15997 0.05543 0.0
C3158 C 0.82877 0.16944 0.09124 0.0
C3159 C 0.83907 0.18747 0.08378 0.0
C3160 C 0.84062 0.19075 0.06201 0.0
H3161 H 0.84059 0.31172 0.09806 0.0
H3162 H 0.83483 0.27403 0.09731 0.0
C3163 C 0.83083 0.17707 0.04796 0.0
C3164 C 0.84637 0.20433 0.09813 0.0
H3165 H 0.82701 0.24462 0.12779 0.0
C3166 C 0.86705 0.2117 0.09586 0.0
C3167 C 0.83202 0.2158 0.11071 0.0
C3168 C 0.80945 0.20894 0.11355 0.0
C3169 C 0.87311 0.23139 0.1038 0.0
C3170 C 0.85819 0.24364 0.11483 0.0
C3171 C 0.83831 0.23516 0.11921 0.0
C3172 C 0.86107 0.26655 0.1177 0.0
C3173 C 0.8947 0.23973 0.09856 0.0
C3174 C 0.87752 0.27495 0.12981 0.0
C3175 C 0.88106 0.29669 0.13007 0.0
C3176 C 0.86806 0.31029 0.11838 0.0
C3177 C 0.85101 0.30179 0.10716 0.0
C3178 C 0.84762 0.28019 0.10678 0.0
H3179 H 0.9035 0.22906 0.08787 0.0
H3180 H 0.89348 0.2554 0.09097 0.0
H3181 H 0.90397 0.24158 0.11323 0.0
H3182 H 0.88784 0.26471 0.13866 0.0
H3183 H 0.89421 0.30276 0.13907 0.0
H3184 H 0.55963 0.988 0.77839 0.0
H3185 H 0.53024 -0.00239 0.80126 0.0
H3186 H 0.5515 0.06202 0.80183 0.0
H3187 H 0.58101 0.05257 0.77894 0.0
H3188 H 0.53705 0.04211 0.84342 0.0
H3189 H 0.48153 0.03571 0.77576 0.0
H3190 H 0.49916 0.01409 0.78046 0.0
H3191 H 0.50949 0.03895 0.77209 0.0
C3192 C 0.55817 0.00417 0.78354 0.0
C3193 C 0.57246 0.01961 0.77674 0.0
C3194 C 0.54142 0.00959 0.7966 0.0
C3195 C 0.53876 0.03049 0.80305 0.0
C3196 C 0.55342 0.04579 0.79698 0.0
H3197 H 0.4527 0.1121 0.86257 0.0
H3198 H 0.48358 0.09208 0.85227 0.0
C3199 C 0.57016 0.0404 0.78386 0.0
C3200 C 0.51982 0.03677 0.81475 0.0
H3201 H 0.46768 0.04682 0.80797 0.0
C3202 C 0.5218 0.04298 0.83582 0.0
C3203 C 0.50003 0.03765 0.80472 0.0
C3204 C 0.49727 0.03137 0.78198 0.0
C3205 C 0.5044 0.05049 0.84709 0.0
C3206 C 0.48476 0.05229 0.83675 0.0
C3207 C 0.48272 0.04536 0.81589 0.0
C3208 C 0.46658 0.06315 0.84635 0.0
C3209 C 0.50725 0.05649 0.86987 0.0
C3210 C 0.44669 0.05357 0.84641 0.0
C3211 C 0.42886 0.06512 0.85191 0.0
C3212 C 0.43065 0.08647 0.85746 0.0
C3213 C 0.45074 0.09568 0.85843 0.0
C3214 C 0.4685 0.08418 0.85274 0.0
H3215 H 0.52013 0.04728 0.87724 0.0
H3216 H 0.51161 0.07336 0.87088 0.0
H3217 H 0.4926 0.05399 0.87901 0.0
H3218 H 0.44488 0.03737 0.84141 0.0
H3219 H 0.41364 0.05751 0.85114 0.0
H3220 H 0.91801 0.93129 0.31167 0.0
H3221 H 0.94985 0.92099 0.33062 0.0
H3222 H 0.96557 0.98626 0.34033 0.0
H3223 H 0.9337 -0.00325 0.32142 0.0
H3224 H 0.98958 0.93596 0.31337 0.0
H3225 H 0.9792 0.956 0.39798 0.0
H3226 H 0.95721 0.95081 0.38068 0.0
H3227 H 0.9711 0.97528 0.37888 0.0
C3228 C 0.92795 0.94345 0.31831 0.0
C3229 C 0.92351 0.96481 0.31492 0.0
C3230 C 0.94609 0.93754 0.32914 0.0
C3231 C 0.95993 0.95288 0.3369 0.0
C3232 C 0.9549 0.97422 0.33469 0.0
H3233 H 0.09376 0.93005 0.35148 0.0
H3234 H 0.06036 0.94856 0.34699 0.0
C3235 C 0.93676 0.98016 0.3238 0.0
C3236 C 0.98098 0.94657 0.34432 0.0
H3237 H 0.01284 0.9439 0.38748 0.0
C3238 C 0.99471 0.93773 0.32955 0.0
C3239 C 0.98749 0.94902 0.36542 0.0
C3240 C 0.97301 0.95818 0.38179 0.0
C3241 C 0.01483 0.93101 0.33535 0.0
C3242 C 0.02143 0.93344 0.35644 0.0
C3243 C 0.00774 0.94236 0.37127 0.0
C3244 C 0.04194 0.92515 0.36336 0.0
C3245 C 0.02868 0.92082 0.31897 0.0
C3246 C 0.04265 0.90646 0.37495 0.0
C3247 C 0.06164 0.8958 0.3775 0.0
C3248 C 0.08024 0.90372 0.3685 0.0
C3249 C 0.07973 0.92342 0.35846 0.0
C3250 C 0.06068 0.93404 0.35588 0.0
H3251 H 0.01991 0.91705 0.30432 0.0
H3252 H 0.04171 0.9317 0.3149 0.0
H3253 H 0.03573 0.90611 0.32518 0.0
H3254 H 0.0283 0.89941 0.38083 0.0
H3255 H 0.06151 0.88082 0.38558 0.0
H3256 H 0.42329 0.29947 0.1425 0.0
H3257 H 0.39715 0.31115 0.16829 0.0
H3258 H 0.42662 0.27253 0.21561 0.0
H3259 H 0.45248 0.26051 0.18992 0.0
H3260 H 0.38159 0.27303 0.21735 0.0
H3261 H 0.41696 0.35327 0.21329 0.0
H3262 H 0.40702 0.34214 0.18926 0.0
H3263 H 0.42963 0.3307 0.20172 0.0
C3264 C 0.42398 0.29326 0.15834 0.0
C3265 C 0.44007 0.27934 0.16434 0.0
C3266 C 0.40907 0.29994 0.173 0.0
C3267 C 0.41019 0.2929 0.19386 0.0
C3268 C 0.42552 0.27811 0.19955 0.0
H3269 H 0.38995 0.31309 0.31915 0.0
H3270 H 0.39138 0.29864 0.28379 0.0
C3271 C 0.44035 0.27136 0.18491 0.0
C3272 C 0.39704 0.30237 0.21045 0.0
H3273 H 0.39348 0.34661 0.24052 0.0
C3274 C 0.38379 0.28925 0.2222 0.0
C3275 C 0.39984 0.32358 0.21658 0.0
C3276 C 0.4142 0.3383 0.20469 0.0
C3277 C 0.37426 0.29645 0.24073 0.0
C3278 C 0.37846 0.31713 0.24775 0.0
C3279 C 0.39033 0.33073 0.23509 0.0
C3280 C 0.3738 0.32403 0.26944 0.0
C3281 C 0.36045 0.28161 0.253 0.0
C3282 C 0.36342 0.34313 0.27317 0.0
C3283 C 0.36283 0.35164 0.29342 0.0
C3284 C 0.37278 0.34125 0.31024 0.0
C3285 C 0.38221 0.32159 0.30658 0.0
C3286 C 0.3828 0.31313 0.28637 0.0
H3287 H 0.35242 0.27028 0.24236 0.0
H3288 H 0.37033 0.27241 0.26405 0.0
H3289 H 0.34838 0.29025 0.2622 0.0
H3290 H 0.35656 0.35187 0.26026 0.0
H3291 H 0.35531 0.36675 0.29569 0.0
H3292 H 0.45501 0.66277 0.89163 0.0
H3293 H 0.43373 0.64034 0.91461 0.0
H3294 H 0.475 0.65464 0.96659 0.0
H3295 H 0.49649 0.67669 0.94373 0.0
H3296 H 0.46122 0.61192 0.96513 0.0
H3297 H 0.39518 0.66923 0.95764 0.0
H3298 H 0.40516 0.65742 0.93398 0.0
H3299 H 0.42133 0.67538 0.94862 0.0
C3300 C 0.4597 0.66086 0.90789 0.0
C3301 C 0.47723 0.67167 0.916 0.0
C3302 C 0.44752 0.64809 0.92097 0.0
C3303 C 0.45265 0.64612 0.94232 0.0
C3304 C 0.4708 0.65598 0.95013 0.0
H3305 H 0.4221 0.63275 0.06409 0.0
H3306 H 0.43669 0.63049 0.02888 0.0
C3307 C 0.48301 0.66865 0.93708 0.0
C3308 C 0.43833 0.6356 0.95724 0.0
H3309 H 0.39314 0.64455 0.9846 0.0
C3310 C 0.44607 0.61868 0.96908 0.0
C3311 C 0.41846 0.64431 0.96217 0.0
C3312 C 0.40947 0.66265 0.95007 0.0
C3313 C 0.43523 0.61135 0.98678 0.0
C3314 C 0.4164 0.62143 0.99286 0.0
C3315 C 0.40764 0.63692 0.97988 0.0
C3316 C 0.40794 0.61936 0.01437 0.0
C3317 C 0.4446 0.59367 -0.00051 0.0
C3318 C 0.38683 0.61398 0.0179 0.0
C3319 C 0.37834 0.61535 0.03815 0.0
C3320 C 0.39078 0.62255 0.055 0.0
C3321 C 0.41204 0.62734 0.05142 0.0
C3322 C 0.42051 0.62576 0.03133 0.0
H3323 H 0.45382 0.58286 0.98932 0.0
H3324 H 0.45548 0.60032 0.01142 0.0
H3325 H 0.43224 0.58451 0.00774 0.0
H3326 H 0.37682 0.60931 0.00491 0.0
H3327 H 0.3619 0.61156 0.04046 0.0
H3328 H 0.06033 0.69589 0.63408 0.0
H3329 H 0.08052 0.6735 0.65813 0.0
H3330 H 0.02853 0.67352 0.70164 0.0
H3331 H 0.00827 0.69556 0.67772 0.0
H3332 H 0.09231 0.68382 0.69818 0.0
H3333 H 0.04422 0.6116 0.69971 0.0
H3334 H 0.04168 0.63113 0.67924 0.0
H3335 H 0.02816 0.63438 0.70392 0.0
C3336 C 0.05315 0.69089 0.64868 0.0
C3337 C 0.03275 0.69744 0.65408 0.0
C3338 C 0.06467 0.67808 0.66233 0.0
C3339 C 0.05584 0.67151 0.68143 0.0
C3340 C 0.03541 0.67792 0.68671 0.0
H3341 H 0.0912 0.65886 0.80398 0.0
H3342 H 0.0848 0.66829 0.76753 0.0
C3343 C 0.02393 0.6907 0.67312 0.0
C3344 C 0.06845 0.65974 0.69697 0.0
H3345 H 0.06457 0.61898 0.73147 0.0
C3346 C 0.0866 0.66932 0.70511 0.0
C3347 C 0.06129 0.64059 0.70567 0.0
C3348 C 0.04289 0.62872 0.69649 0.0
C3349 C 0.09653 0.66133 0.72307 0.0
C3350 C 0.08784 0.64358 0.73321 0.0
C3351 C 0.071 0.63281 0.72385 0.0
C3352 C 0.09378 0.63795 0.75493 0.0
C3353 C 0.11564 0.67255 0.7316 0.0
C3354 C 0.1006 0.6176 0.75997 0.0
C3355 C 0.10417 0.61205 0.78095 0.0
C3356 C 0.10065 0.62671 0.79718 0.0
C3357 C 0.09403 0.64714 0.79193 0.0
C3358 C 0.09059 0.65266 0.77105 0.0
H3359 H 0.12455 0.68036 0.71878 0.0
H3360 H 0.11054 0.68492 0.7428 0.0
H3361 H 0.12628 0.66154 0.73999 0.0
H3362 H 0.10288 0.60597 0.74772 0.0
H3363 H 0.10923 0.59617 0.78447 0.0
H3364 H 0.04206 0.30543 0.4047 0.0
H3365 H 0.05518 0.32292 0.43648 0.0
H3366 H -0.00087 0.30439 0.4698 0.0
H3367 H 0.98613 0.28651 0.43831 0.0
H3368 H 0.03853 0.35477 0.46292 0.0
H3369 H 0.04697 0.27827 0.50414 0.0
H3370 H 0.04255 0.28009 0.47618 0.0
H3371 H 0.02099 0.28308 0.4942 0.0
C3372 C 0.03249 0.30523 0.41878 0.0
C3373 C 0.01323 0.29439 0.41918 0.0
C3374 C 0.03996 0.31526 0.43685 0.0
C3375 C 0.02825 0.3146 0.4555 0.0
C3376 C 0.00855 0.30469 0.45563 0.0
H3377 H 0.05064 0.34854 0.58431 0.0
H3378 H 0.0344 0.34159 0.55027 0.0
C3379 C 0.00115 0.29454 0.43764 0.0
C3380 C 0.03712 0.32322 0.47515 0.0
H3381 H 0.05238 0.30896 0.5245 0.0
C3382 C 0.04162 0.34481 0.4764 0.0
C3383 C 0.04128 0.31006 0.49257 0.0
C3384 C 0.0379 0.28656 0.49172 0.0
C3385 C 0.04978 0.35368 0.49493 0.0
C3386 C 0.05356 0.34055 0.5124 0.0
C3387 C 0.04921 0.31898 0.51106 0.0
C3388 C 0.0624 0.34852 0.53231 0.0
C3389 C 0.05401 0.377 0.49586 0.0
C3390 C 0.08339 0.35516 0.53333 0.0
C3391 C 0.09282 0.35907 0.5528 0.0
C3392 C 0.08138 0.35623 0.57152 0.0
C3393 C 0.05999 0.3507 0.57025 0.0
C3394 C 0.05063 0.34679 0.55082 0.0
H3395 H 0.04646 0.38552 0.4826 0.0
H3396 H 0.04825 0.38371 0.51092 0.0
H3397 H 0.07122 0.37976 0.49506 0.0
H3398 H 0.09278 0.35626 0.51918 0.0
H3399 H 0.1093 0.36336 0.5532 0.0
H3400 H 0.45284 0.78917 0.30564 0.0
H3401 H 0.43097 0.77605 0.27678 0.0
H3402 H 0.42253 0.71737 0.30969 0.0
H3403 H 0.44414 0.73045 0.33869 0.0
H3404 H 0.443 0.74139 0.254 0.0
H3405 H 0.36351 0.72884 0.28708 0.0
H3406 H 0.38284 0.74559 0.29954 0.0
H3407 H 0.38394 0.71752 0.30294 0.0
C3408 C 0.44593 0.77365 0.30692 0.0
C3409 C 0.45028 0.76076 0.32432 0.0
C3410 C 0.43342 0.76621 0.29046 0.0
C3411 C 0.42495 0.74586 0.29122 0.0
C3412 C 0.42852 0.73331 0.30901 0.0
H3413 H 0.3838 0.64848 0.21112 0.0
H3414 H 0.39106 0.67283 0.23987 0.0
C3415 C 0.44102 0.74073 0.32548 0.0
C3416 C 0.41498 0.73661 0.27235 0.0
H3417 H 0.37174 0.70963 0.25544 0.0
C3418 C 0.42725 0.73482 0.25413 0.0
C3419 C 0.39451 0.72798 0.27269 0.0
C3420 C 0.38035 0.73024 0.29156 0.0
C3421 C 0.42006 0.72359 0.23658 0.0
C3422 C 0.39984 0.71433 0.23715 0.0
C3423 C 0.38722 0.7168 0.25508 0.0
C3424 C 0.39246 0.70042 0.22004 0.0
C3425 C 0.43466 0.72073 0.21808 0.0
C3426 C 0.39015 0.70802 0.19948 0.0
C3427 C 0.38621 0.6941 0.18293 0.0
C3428 C 0.38432 0.67238 0.18673 0.0
C3429 C 0.38532 0.66506 0.20758 0.0
C3430 C 0.38939 0.67897 0.22407 0.0
H3431 H 0.4511 0.72523 0.22195 0.0
H3432 H 0.43456 0.70414 0.2126 0.0
H3433 H 0.42928 0.7308 0.2049 0.0
H3434 H 0.39207 0.72461 0.19616 0.0
H3435 H 0.38523 0.70031 0.1671 0.0
H3436 H 0.98724 0.70517 0.06402 0.0
H3437 H 0.0013 0.68127 0.03737 0.0
H3438 H 0.06338 0.68817 0.06391 0.0
H3439 H 0.04941 0.71179 0.09079 0.0
H3440 H 0.0307 0.69648 0.00966 0.0
H3441 H 0.06153 0.62545 0.0497 0.0
H3442 H 0.0427 0.64293 0.06183 0.0
H3443 H 0.07014 0.64974 0.06131 0.0
C3444 C 0.00378 0.70115 0.06451 0.0
C3445 C 0.01729 0.71047 0.07932 0.0
C3446 C 0.01177 0.68747 0.04932 0.0
C3447 C 0.03334 0.68284 0.04879 0.0
C3448 C 0.04663 0.69118 0.06432 0.0
H3449 H 0.12075 0.64291 0.95363 0.0
H3450 H 0.10357 0.65246 0.98678 0.0
C3451 C 0.03864 0.70482 0.07955 0.0
C3452 C 0.04239 0.67225 0.03021 0.0
H3453 H 0.0735 0.63143 0.01446 0.0
C3454 C 0.0398 0.68208 0.01066 0.0
C3455 C 0.05449 0.65367 0.03168 0.0
C3456 C 0.05726 0.6422 0.05223 0.0
C3457 C 0.04939 0.67413 0.99255 0.0
C3458 C 0.06157 0.6556 0.99398 0.0
C3459 C 0.06408 0.64561 0.01348 0.0
C3460 C 0.07204 0.6468 0.97526 0.0
C3461 C 0.04695 0.68605 0.97215 0.0
C3462 C 0.05998 0.63981 0.95819 0.0
C3463 C 0.06966 0.6346 0.93925 0.0
C3464 C 0.09162 0.63607 0.93714 0.0
C3465 C 0.10379 0.64175 0.95474 0.0
C3466 C 0.09403 0.64714 0.97368 0.0
H3467 H 0.04131 0.70238 0.97477 0.0
H3468 H 0.06209 0.68671 0.9635 0.0
H3469 H 0.03528 0.67786 0.96206 0.0
H3470 H 0.04299 0.63913 0.95928 0.0
H3471 H 0.05985 0.6299 0.92611 0.0
H3472 H 0.0338 0.22581 0.81613 0.0
H3473 H 0.05869 0.24424 0.79362 0.0
H3474 H 0.0754 0.28525 0.84512 0.0
H3475 H 0.05015 0.26704 0.86771 0.0
H3476 H 0.06189 0.30653 0.81141 0.0
H3477 H 0.12137 0.24918 0.78535 0.0
H3478 H 0.09546 0.23849 0.78233 0.0
H3479 H 0.10512 0.24485 0.80823 0.0
C3480 C 0.04316 0.23839 0.82282 0.0
C3481 C 0.03991 0.24514 0.84357 0.0
C3482 C 0.05757 0.24878 0.81 0.0
C3483 C 0.06911 0.26595 0.81778 0.0
C3484 C 0.06677 0.27193 0.83888 0.0
H3485 H 0.11707 0.35965 0.72734 0.0
H3486 H 0.1147 0.34116 0.76101 0.0
C3487 C 0.05231 0.26156 0.85172 0.0
C3488 C 0.08059 0.2796 0.80291 0.0
H3489 H 0.1132 0.27742 0.76047 0.0
C3490 C 0.07361 0.30042 0.80065 0.0
C3491 C 0.09592 0.27159 0.78898 0.0
C3492 C 0.10504 0.24985 0.79151 0.0
C3493 C 0.08006 0.31278 0.78363 0.0
C3494 C 0.09406 0.30412 0.76872 0.0
C3495 C 0.10233 0.28392 0.77189 0.0
C3496 C 0.09773 0.31451 0.74833 0.0
C3497 C 0.07054 0.33435 0.78081 0.0
C3498 C 0.08944 0.30533 0.73007 0.0
C3499 C 0.09074 0.31576 0.71088 0.0
C3500 C 0.1004 0.33562 0.70957 0.0
C3501 C 0.10932 0.34449 0.72783 0.0
C3502 C 0.10802 0.33397 0.74707 0.0
H3503 H 0.05789 0.33759 0.7924 0.0
H3504 H 0.08295 0.34647 0.7828 0.0
H3505 H 0.06392 0.33602 0.76474 0.0
H3506 H 0.08138 0.29032 0.73079 0.0
H3507 H 0.08384 0.30837 0.69716 0.0
H3508 H 0.45383 0.30209 0.59935 0.0
H3509 H 0.44475 0.32444 0.56946 0.0
H3510 H 0.50876 0.32121 0.54742 0.0
H3511 H 0.51795 0.29857 0.57717 0.0
H3512 H 0.46096 0.36304 0.55024 0.0
H3513 H 0.47279 0.29068 0.50205 0.0
H3514 H 0.47132 0.28991 0.53036 0.0
H3515 H 0.49471 0.29935 0.5177 0.0
C3516 C 0.4661 0.30655 0.58843 0.0
C3517 C 0.4865 0.29831 0.59035 0.0
C3518 C 0.4609 0.31937 0.57141 0.0
C3519 C 0.47603 0.32414 0.55612 0.0
C3520 C 0.49684 0.31745 0.55897 0.0
H3521 H 0.44165 0.35574 0.42729 0.0
H3522 H 0.4636 0.3519 0.45859 0.0
C3523 C 0.50205 0.30456 0.57596 0.0
C3524 C 0.4692 0.33344 0.53599 0.0
H3525 H 0.45885 0.32004 0.48512 0.0
C3526 C 0.46076 0.35382 0.53588 0.0
C3527 C 0.469 0.3213 0.51734 0.0
C3528 C 0.47729 0.29905 0.51674 0.0
C3529 C 0.45159 0.36221 0.51763 0.0
C3530 C 0.45048 0.34966 0.49927 0.0
C3531 C 0.45978 0.32966 0.49919 0.0
C3532 C 0.43798 0.3558 0.48061 0.0
C3533 C 0.44296 0.38429 0.51827 0.0
C3534 C 0.41634 0.35958 0.48262 0.0
C3535 C 0.40375 0.36185 0.46478 0.0
C3536 C 0.41252 0.36003 0.44457 0.0
C3537 C 0.43435 0.35705 0.44262 0.0
C3538 C 0.44695 0.35495 0.46048 0.0
H3539 H 0.45145 0.39405 0.53004 0.0
H3540 H 0.44406 0.39203 0.50267 0.0
H3541 H 0.42617 0.38373 0.52298 0.0
H3542 H 0.40897 0.35972 0.49795 0.0
H3543 H 0.387 0.36408 0.46687 0.0
H3544 H 0.13844 0.41398 0.29022 0.0
H3545 H 0.15974 0.38704 0.30781 0.0
H3546 H 0.18954 0.43536 0.34519 0.0
H3547 H 0.16796 0.46191 0.3284 0.0
H3548 H 0.19967 0.38304 0.30501 0.0
H3549 H 0.18394 0.39184 0.38905 0.0
H3550 H 0.16648 0.40275 0.36947 0.0
H3551 H 0.18869 0.4177 0.3791 0.0
C3552 C 0.1492 0.4187 0.30258 0.0
C3553 C 0.15162 0.44002 0.30792 0.0
C3554 C 0.1613 0.40331 0.31264 0.0
C3555 C 0.17595 0.40906 0.32818 0.0
C3556 C 0.17784 0.43033 0.33387 0.0
H3557 H 0.2997 0.39556 0.33883 0.0
H3558 H 0.26297 0.39532 0.32877 0.0
C3559 C 0.16567 0.4456 0.32401 0.0
C3560 C 0.19168 0.39383 0.3362 0.0
H3561 H 0.2218 0.38577 0.37976 0.0
C3562 C 0.20408 0.38301 0.32149 0.0
C3563 C 0.19714 0.39291 0.35775 0.0
C3564 C 0.18311 0.40174 0.37469 0.0
C3565 C 0.22325 0.37391 0.32739 0.0
C3566 C 0.23043 0.37639 0.34831 0.0
C3567 C 0.21668 0.38451 0.36353 0.0
C3568 C 0.253 0.37443 0.35374 0.0
C3569 C 0.23615 0.36286 0.31086 0.0
C3570 C 0.25966 0.36333 0.37162 0.0
C3571 C 0.28082 0.36378 0.37775 0.0
C3572 C 0.2956 0.37542 0.3661 0.0
C3573 C 0.28884 0.38628 0.3481 0.0
C3574 C 0.26779 0.38594 0.34213 0.0
H3575 H 0.22578 0.35425 0.29971 0.0
H3576 H 0.24504 0.37469 0.30162 0.0
H3577 H 0.24744 0.35156 0.31792 0.0
H3578 H 0.24845 0.35459 0.38099 0.0
H3579 H 0.28552 0.3552 0.39167 0.0
H3580 H 0.32982 0.428 0.02391 0.0
H3581 H 0.35247 0.44891 0.04653 0.0
H3582 H 0.34168 0.4058 0.09777 0.0
H3583 H 0.31844 0.38488 0.07512 0.0
H3584 H 0.33218 0.44456 0.10858 0.0
H3585 H 0.41002 0.44765 0.07165 0.0
H3586 H 0.39063 0.45241 0.0518 0.0
H3587 H 0.39112 0.42739 0.06519 0.0
C3588 C 0.33263 0.42267 0.03984 0.0
C3589 C 0.3222 0.40496 0.04784 0.0
C3590 C 0.34586 0.43449 0.05271 0.0
C3591 C 0.34913 0.42872 0.07377 0.0
C3592 C 0.33958 0.41039 0.0815 0.0
H3593 H 0.38006 0.53958 0.15182 0.0
H3594 H 0.38169 0.50169 0.14447 0.0
C3595 C 0.32625 0.39852 0.06859 0.0
C3596 C 0.35921 0.44401 0.08818 0.0
H3597 H 0.39778 0.48125 0.0879 0.0
C3598 C 0.34698 0.45207 0.10469 0.0
C3599 C 0.37864 0.45365 0.08331 0.0
C3600 C 0.39341 0.4446 0.06714 0.0
C3601 C 0.35229 0.4711 0.1145 0.0
C3602 C 0.37029 0.48213 0.10762 0.0
C3603 C 0.38382 0.47283 0.09292 0.0
C3604 C 0.37251 0.50481 0.11188 0.0
C3605 C 0.33746 0.48039 0.13053 0.0
C3606 C 0.36726 0.51896 0.09584 0.0
C3607 C 0.36614 0.54042 0.09996 0.0
C3608 C 0.37037 0.5482 0.12022 0.0
C3609 C 0.37662 0.53406 0.13607 0.0
C3610 C 0.37759 0.51245 0.13194 0.0
H3611 H 0.32394 0.46986 0.13391 0.0
H3612 H 0.34605 0.48339 0.14544 0.0
H3613 H 0.33132 0.49569 0.12478 0.0
H3614 H 0.3632 0.51328 0.08028 0.0
H3615 H 0.36153 0.55088 0.08733 0.0
H3616 H 0.31236 0.54472 0.72939 0.0
H3617 H 0.2843 0.5654 0.74549 0.0
H3618 H 0.32295 0.57565 0.80031 0.0
H3619 H 0.35123 0.55504 0.78426 0.0
H3620 H 0.26913 0.54905 0.78532 0.0
H3621 H 0.29207 0.63346 0.79011 0.0
H3622 H 0.30268 0.61584 0.77046 0.0
H3623 H 0.31159 0.6142 0.79717 0.0
C3624 C 0.31513 0.55186 0.74462 0.0
C3625 C 0.33385 0.54807 0.7557 0.0
C3626 C 0.29912 0.56372 0.75375 0.0
C3627 C 0.30164 0.57208 0.77401 0.0
C3628 C 0.32087 0.56958 0.78452 0.0
H3629 H 0.20888 0.6129 0.86592 0.0
H3630 H 0.2421 0.60723 0.84712 0.0
C3631 C 0.33693 0.5577 0.77538 0.0
C3632 C 0.28306 0.57991 0.78543 0.0
H3633 H 0.2607 0.6234 0.80761 0.0
C3634 C 0.26723 0.56533 0.79011 0.0
C3635 C 0.28094 0.60105 0.79194 0.0
C3636 C 0.29762 0.61717 0.78712 0.0
C3637 C 0.24917 0.5713 0.80107 0.0
C3638 C 0.24667 0.59256 0.80709 0.0
C3639 C 0.26267 0.60716 0.80279 0.0
C3640 C 0.22719 0.59964 0.81747 0.0
C3641 C 0.23301 0.55471 0.80633 0.0
C3642 C 0.208 0.598 0.80674 0.0
C3643 C 0.18913 0.60092 0.81741 0.0
C3644 C 0.18913 0.60582 0.83897 0.0
C3645 C 0.20842 0.60903 0.84934 0.0
C3646 C 0.22737 0.60586 0.83863 0.0
H3647 H 0.23971 0.5386 0.80547 0.0
H3648 H 0.2265 0.5572 0.82234 0.0
H3649 H 0.21985 0.55564 0.79489 0.0
H3650 H 0.20762 0.59351 0.7903 0.0
H3651 H 0.17453 0.59874 0.8089 0.0
H3652 H 0.1851 0.59947 0.55836 0.0
H3653 H 0.16422 0.5745 0.57894 0.0
H3654 H 0.1674 0.52971 0.52802 0.0
H3655 H 0.18778 0.55469 0.50722 0.0
H3656 H 0.12814 0.53053 0.54829 0.0
H3657 H 0.19479 0.52429 0.60497 0.0
H3658 H 0.18384 0.55006 0.60133 0.0
H3659 H 0.19739 0.53743 0.58001 0.0
C3660 C 0.18105 0.58442 0.55146 0.0
C3661 C 0.18828 0.57886 0.53133 0.0
C3662 C 0.1692 0.57018 0.56324 0.0
C3663 C 0.16466 0.55017 0.55512 0.0
C3664 C 0.17081 0.54509 0.53457 0.0
H3665 H 0.13523 0.42549 0.58308 0.0
H3666 H 0.13966 0.46053 0.5683 0.0
C3667 C 0.18251 0.55934 0.52274 0.0
C3668 C 0.15522 0.53369 0.56844 0.0
H3669 H 0.16668 0.50104 0.60938 0.0
C3670 C 0.13636 0.52427 0.56186 0.0
C3671 C 0.16602 0.52562 0.58615 0.0
C3672 C 0.1867 0.53471 0.59353 0.0
C3673 C 0.12844 0.5064 0.57204 0.0
C3674 C 0.13985 0.4977 0.58901 0.0
C3675 C 0.15801 0.50783 0.59635 0.0
C3676 C 0.13476 0.47685 0.59778 0.0
C3677 C 0.10826 0.49667 0.56423 0.0
C3678 C 0.13082 0.47443 0.61932 0.0
C3679 C 0.12842 0.45436 0.6279 0.0
C3680 C 0.1302 0.43638 0.61508 0.0
C3681 C 0.13382 0.43896 0.59343 0.0
C3682 C 0.13612 0.459 0.58489 0.0
H3683 H 0.09823 0.50846 0.55614 0.0
H3684 H 0.11202 0.48408 0.55273 0.0
H3685 H 0.09919 0.48957 0.57733 0.0
H3686 H 0.12997 0.48806 0.62953 0.0
H3687 H 0.12562 0.45296 0.64463 0.0
H3688 H 0.18472 0.49706 0.23008 0.0
H3689 H 0.21354 0.51779 0.21537 0.0
H3690 H 0.19693 0.56993 0.25551 0.0
H3691 H 0.16786 0.54936 0.27014 0.0
H3692 H 0.20343 0.58128 0.21351 0.0
H3693 H 0.26922 0.533 0.24411 0.0
H3694 H 0.24995 0.5179 0.22999 0.0
H3695 H 0.24274 0.53085 0.25409 0.0
C3696 C 0.1873 0.51288 0.23587 0.0
C3697 C 0.17413 0.52159 0.25131 0.0
C3698 C 0.2038 0.52466 0.22753 0.0
C3699 C 0.20749 0.54525 0.23459 0.0
C3700 C 0.19436 0.55401 0.24996 0.0
H3701 H 0.32321 0.60835 0.19834 0.0
H3702 H 0.29308 0.59681 0.21906 0.0
C3703 C 0.17782 0.54224 0.25831 0.0
C3704 C 0.22472 0.55779 0.22542 0.0
H3705 H 0.27756 0.55729 0.21674 0.0
C3706 C 0.21969 0.57622 0.21439 0.0
C3707 C 0.24591 0.55128 0.22692 0.0
C3708 C 0.25235 0.53229 0.2396 0.0
C3709 C 0.23527 0.58788 0.20403 0.0
C3710 C 0.25629 0.58067 0.20452 0.0
C3711 C 0.2614 0.56271 0.21627 0.0
C3712 C 0.27316 0.59074 0.19213 0.0
C3713 C 0.22908 0.60773 0.19263 0.0
C3714 C 0.27175 0.59155 0.17013 0.0
C3715 C 0.28891 0.59822 0.15821 0.0
C3716 C 0.30788 0.6039 0.16809 0.0
C3717 C 0.30889 0.60393 0.1902 0.0
C3718 C 0.29169 0.59738 0.20209 0.0
H3719 H 0.21439 0.61453 0.19918 0.0
H3720 H 0.24172 0.61976 0.19354 0.0
H3721 H 0.2262 0.604 0.17582 0.0
H3722 H 0.25774 0.58607 0.16211 0.0
H3723 H 0.28761 0.59793 0.14123 0.0
H3724 H 0.22674 0.40697 0.96161 0.0
H3725 H 0.20435 0.43513 0.94804 0.0
H3726 H 0.21218 0.46952 0.00603 0.0
H3727 H 0.23478 0.44147 0.0197 0.0
H3728 H 0.16633 0.45418 0.96487 0.0
H3729 H 0.23404 0.50945 0.95914 0.0
H3730 H 0.23747 0.48147 0.96246 0.0
H3731 H 0.22985 0.49753 0.98441 0.0
C3732 C 0.22359 0.42046 0.97153 0.0
C3733 C 0.23266 0.42217 0.99162 0.0
C3734 C 0.21074 0.43646 0.96379 0.0
C3735 C 0.20685 0.45442 0.97598 0.0
C3736 C 0.21525 0.45584 -0.00366 0.0
H3737 H 0.1532 0.57388 0.93771 0.0
H3738 H 0.16612 0.54476 0.95904 0.0
C3739 C 0.2281 0.43983 0.00411 0.0
C3740 C 0.195 0.47212 0.96683 0.0
H3741 H 0.20099 0.52219 0.94873 0.0
C3742 C 0.17381 0.46912 0.96144 0.0
C3743 C 0.2049 0.49151 0.96239 0.0
C3744 C 0.22786 0.49525 0.96722 0.0
C3745 C 0.1622 0.48511 0.95162 0.0
C3746 C 0.17225 0.50435 0.94678 0.0
C3747 C 0.19333 0.50743 0.95255 0.0
C3748 C 0.16168 0.52123 0.93483 0.0
C3749 C 0.13933 0.48131 0.9466 0.0
C3750 C 0.15465 0.51757 0.91423 0.0
C3751 C 0.1472 0.53418 0.90196 0.0
C3752 C 0.14692 0.55479 0.91003 0.0
C3753 C 0.15334 0.55824 0.93093 0.0
C3754 C 0.16068 0.54162 0.94319 0.0
H3755 H 0.13253 0.46884 0.95675 0.0
H3756 H 0.12994 0.4959 0.94856 0.0
H3757 H 0.13787 0.47605 0.93002 0.0
H3758 H 0.15574 0.50203 0.90732 0.0
H3759 H 0.14244 0.53097 0.88591 0.0
H3760 H 0.33183 0.4565 0.68897 0.0
H3761 H 0.30404 0.43108 0.68107 0.0
H3762 H 0.29813 0.41686 0.74708 0.0
H3763 H 0.32582 0.44244 0.75519 0.0
H3764 H 0.29775 0.38611 0.69201 0.0
H3765 H 0.24031 0.44173 0.72802 0.0
H3766 H 0.2666 0.4497 0.72098 0.0
H3767 H 0.26234 0.43383 0.7439 0.0
C3768 C 0.32478 0.44779 0.70178 0.0
C3769 C 0.33071 0.45164 0.72272 0.0
C3770 C 0.30905 0.43319 0.69723 0.0
C3771 C 0.29904 0.42229 0.71353 0.0
C3772 C 0.30565 0.42528 0.73435 0.0
H3773 H 0.17424 0.3696 0.6988 0.0
H3774 H 0.20888 0.37497 0.71451 0.0
C3775 C 0.32139 0.4399 0.73893 0.0
C3776 C 0.28018 0.4097 0.70878 0.0
H3777 H 0.22679 0.41195 0.71138 0.0
C3778 C 0.2822 0.39149 0.69647 0.0
C3779 C 0.26002 0.41685 0.71472 0.0
C3780 C 0.25702 0.43666 0.72752 0.0
C3781 C 0.26439 0.38049 0.68943 0.0
C3782 C 0.24419 0.38825 0.6945 0.0
C3783 C 0.2423 0.40595 0.70759 0.0
C3784 C 0.22474 0.37993 0.68484 0.0
C3785 C 0.26739 0.36085 0.67646 0.0
C3786 C 0.22232 0.38022 0.66289 0.0
C3787 C 0.20257 0.37694 0.65385 0.0
C3788 C 0.18489 0.3738 0.66667 0.0
C3789 C 0.18757 0.37226 0.68855 0.0
C3790 C 0.20735 0.37521 0.69754 0.0
H3791 H 0.28241 0.35289 0.68052 0.0
H3792 H 0.25425 0.34958 0.67871 0.0
H3793 H 0.26811 0.36519 0.65958 0.0
H3794 H 0.23537 0.38436 0.65279 0.0
H3795 H 0.20093 0.37827 0.63694 0.0
H3796 H 0.29911 0.60127 0.4657 0.0
H3797 H 0.32514 0.57679 0.45122 0.0
H3798 H 0.29854 0.52655 0.48813 0.0
H3799 H 0.27263 0.55083 0.50273 0.0
H3800 H 0.34506 0.52729 0.48469 0.0
H3801 H 0.30203 0.53237 0.40832 0.0
H3802 H 0.31123 0.5564 0.42015 0.0
H3803 H 0.29061 0.5417 0.43255 0.0
C3804 C 0.29908 0.58509 0.471 0.0
C3805 C 0.2837 0.57784 0.48511 0.0
C3806 C 0.31393 0.57117 0.46273 0.0
C3807 C 0.31354 0.5499 0.46849 0.0
C3808 C 0.29905 0.54295 0.48354 0.0
H3809 H 0.34341 0.42608 0.44153 0.0
H3810 H 0.33863 0.46062 0.45726 0.0
C3811 C 0.2842 0.5568 0.49178 0.0
C3812 C 0.32641 0.53422 0.45729 0.0
H3813 H 0.32711 0.50588 0.41181 0.0
C3814 C 0.34151 0.52282 0.46861 0.0
C3815 C 0.32178 0.52862 0.43627 0.0
C3816 C 0.30548 0.54027 0.42353 0.0
C3817 C 0.35138 0.5052 0.45975 0.0
C3818 C 0.34553 0.49863 0.4393 0.0
C3819 C 0.33151 0.51092 0.42751 0.0
C3820 C 0.35142 0.47779 0.43081 0.0
C3821 C 0.36753 0.49351 0.47258 0.0
C3822 C 0.35993 0.47592 0.41056 0.0
C3823 C 0.36233 0.45613 0.40131 0.0
C3824 C 0.35619 0.43786 0.41216 0.0
C3825 C 0.34835 0.43978 0.43273 0.0
C3826 C 0.34583 0.45955 0.44188 0.0
H3827 H 0.37593 0.50434 0.48345 0.0
H3828 H 0.3595 0.48147 0.48231 0.0
H3829 H 0.37925 0.48552 0.46241 0.0
H3830 H 0.36415 0.48983 0.40168 0.0
H3831 H 0.36857 0.45521 0.38549 0.0
H3832 H 0.25921 0.17594 0.47675 0.0
H3833 H 0.27545 0.20051 0.45218 0.0
H3834 H 0.33162 0.16248 0.451 0.0
H3835 H 0.31562 0.13809 0.47606 0.0
H3836 H 0.34026 0.20249 0.4595 0.0
H3837 H 0.28796 0.2 0.39023 0.0
H3838 H 0.27318 0.20441 0.4138 0.0
H3839 H 0.28731 0.18007 0.41043 0.0
C3840 C 0.27489 0.17264 0.471 0.0
C3841 C 0.28621 0.15519 0.47838 0.0
C3842 C 0.28408 0.18657 0.45678 0.0
C3843 C 0.30461 0.18312 0.44945 0.0
C3844 C 0.31569 0.16533 0.45632 0.0
H3845 H 0.38105 0.28206 0.38919 0.0
H3846 H 0.36931 0.24635 0.39779 0.0
C3847 C 0.30656 0.15146 0.47067 0.0
C3848 C 0.31527 0.19945 0.43679 0.0
H3849 H 0.3081 0.23225 0.39497 0.0
C3850 C 0.33357 0.20865 0.44507 0.0
C3851 C 0.30654 0.2074 0.41794 0.0
C3852 C 0.28779 0.19728 0.40748 0.0
C3853 C 0.34246 0.22658 0.43589 0.0
C3854 C 0.33288 0.23535 0.41788 0.0
C3855 C 0.31533 0.22546 0.40885 0.0
C3856 C 0.33918 0.25624 0.41004 0.0
C3857 C 0.36121 0.23683 0.4463 0.0
C3858 C 0.32583 0.27339 0.41355 0.0
C3859 C 0.33245 0.29371 0.40878 0.0
C3860 C 0.35255 0.29725 0.40029 0.0
C3861 C 0.36553 0.27988 0.39583 0.0
C3862 C 0.35888 0.2595 0.40073 0.0
H3863 H 0.3653 0.2293 0.46152 0.0
H3864 H 0.37503 0.23568 0.43575 0.0
H3865 H 0.35806 0.25378 0.44914 0.0
H3866 H 0.31056 0.27112 0.42074 0.0
H3867 H 0.32195 0.30668 0.41219 0.0
H3868 H 0.81266 0.33667 0.52574 0.0
H3869 H 0.82294 0.30747 0.5485 0.0
H3870 H 0.75793 0.28914 0.55462 0.0
H3871 H 0.74751 0.31816 0.53156 0.0
H3872 H 0.81086 0.29257 0.59001 0.0
H3873 H 0.78711 0.23925 0.5245 0.0
H3874 H 0.78991 0.26725 0.52098 0.0
H3875 H 0.76727 0.25684 0.53422 0.0
C3876 C 0.80052 0.32665 0.53223 0.0
C3877 C 0.77933 0.32942 0.52661 0.0
C3878 C 0.8064 0.31006 0.5453 0.0
C3879 C 0.7912 0.29605 0.55293 0.0
C3880 C 0.76988 0.29969 0.54862 0.0
H3881 H 0.81801 0.1686 0.59457 0.0
H3882 H 0.79908 0.20154 0.58922 0.0
C3883 C 0.76398 0.31624 0.53547 0.0
C3884 C 0.79801 0.27638 0.56314 0.0
H3885 H 0.80292 0.22383 0.55383 0.0
C3886 C 0.80892 0.27746 0.5823 0.0
C3887 C 0.79544 0.25677 0.55294 0.0
C3888 C 0.78444 0.25483 0.53196 0.0
C3889 C 0.81772 0.25937 0.59138 0.0
C3890 C 0.81584 0.23991 0.58074 0.0
C3891 C 0.80426 0.23877 0.56199 0.0
C3892 C 0.82711 0.22077 0.58759 0.0
C3893 C 0.82904 0.26129 0.61214 0.0
C3894 C 0.84915 0.22073 0.58873 0.0
C3895 C 0.86004 0.20193 0.59184 0.0
C3896 C 0.84907 0.1828 0.59351 0.0
C3897 C 0.82696 0.18303 0.59312 0.0
C3898 C 0.81609 0.20185 0.59018 0.0
H3899 H 0.82309 0.27487 0.62139 0.0
H3900 H 0.82731 0.24678 0.62167 0.0
H3901 H 0.84603 0.26394 0.60919 0.0
H3902 H 0.858 0.23507 0.58622 0.0
H3903 H 0.87707 0.2023 0.59202 0.0
H3904 H 0.43094 0.99286 0.28671 0.0
H3905 H 0.4528 0.01228 0.3115 0.0
H3906 H 0.4018 0.05548 0.32309 0.0
H3907 H 0.37986 0.03622 0.29793 0.0
H3908 H 0.43648 0.07501 0.30951 0.0
H3909 H 0.45915 0.02174 0.37384 0.0
H3910 H 0.46258 0.00884 0.34902 0.0
H3911 H 0.43661 0.01673 0.35721 0.0
C3912 C 0.42418 0.00614 0.29495 0.0
C3913 C 0.40382 0.0132 0.29023 0.0
C3914 C 0.43662 0.01711 0.30932 0.0
C3915 C 0.42884 0.03518 0.31935 0.0
C3916 C 0.40802 0.04147 0.31564 0.0
H3917 H 0.52432 0.12745 0.36108 0.0
H3918 H 0.48931 0.11139 0.35988 0.0
C3919 C 0.39556 0.0305 0.30123 0.0
C3920 C 0.44367 0.04931 0.33037 0.0
H3921 H 0.48567 0.048 0.36366 0.0
C3922 C 0.44683 0.06943 0.32188 0.0
C3923 C 0.45703 0.04204 0.34656 0.0
C3924 C 0.45349 0.02122 0.35731 0.0
C3925 C 0.46434 0.08156 0.32756 0.0
C3926 C 0.47881 0.07336 0.34229 0.0
C3927 C 0.4746 0.05412 0.35221 0.0
C3928 C 0.49987 0.08274 0.34487 0.0
C3929 C 0.46821 0.10215 0.31642 0.0
C3930 C 0.51732 0.07175 0.33714 0.0
C3931 C 0.53724 0.0808 0.33776 0.0
C3932 C 0.54013 0.10107 0.34617 0.0
C3933 C 0.52262 0.11191 0.3543 0.0
C3934 C 0.50262 0.10277 0.35368 0.0
H3935 H 0.4565 0.10516 0.3038 0.0
H3936 H 0.46735 0.11525 0.32793 0.0
H3937 H 0.48418 0.1023 0.30937 0.0
H3938 H 0.51544 0.05629 0.33018 0.0
H3939 H 0.55033 0.07192 0.33147 0.0
H3940 H 0.67648 0.65995 0.01919 0.0
H3941 H 0.66746 0.68662 0.04557 0.0
H3942 H 0.73311 0.70219 0.05257 0.0
H3943 H 0.74224 0.67584 0.0261 0.0
H3944 H 0.68234 0.69467 0.0892 0.0
H3945 H 0.70344 0.75666 0.03121 0.0
H3946 H 0.69917 0.72961 0.02372 0.0
H3947 H 0.72338 0.73727 0.03614 0.0
C3948 C 0.68899 0.66893 0.02652 0.0
C3949 C 0.71002 0.66609 0.02039 0.0
C3950 C 0.68383 0.68402 0.04164 0.0
C3951 C 0.69963 0.69641 0.0508 0.0
C3952 C 0.72071 0.69286 0.04549 0.0
H3953 H 0.69182 0.81631 0.11296 0.0
H3954 H 0.70516 0.78172 0.10299 0.0
C3955 C 0.72588 0.67787 0.03034 0.0
C3956 C 0.69396 0.7144 0.06429 0.0
H3957 H 0.69331 0.76793 0.06481 0.0
C3958 C 0.68479 0.71073 0.08401 0.0
C3959 C 0.69715 0.73524 0.05731 0.0
C3960 C 0.70616 0.74005 0.03588 0.0
C3961 C 0.67885 0.72753 0.09709 0.0
C3962 C 0.68193 0.74837 0.09001 0.0
C3963 C 0.69123 0.75192 0.07033 0.0
C3964 C 0.67449 0.767 0.10177 0.0
C3965 C 0.66948 0.72285 0.11834 0.0
C3966 C 0.65292 0.76989 0.10541 0.0
C3967 C 0.64527 0.78962 0.11134 0.0
C3968 C 0.65908 0.80678 0.11328 0.0
C3969 C 0.68081 0.8034 0.11134 0.0
C3970 C 0.68845 0.78364 0.10571 0.0
H3971 H 0.67419 0.70703 0.12404 0.0
H3972 H 0.67431 0.7348 0.13015 0.0
H3973 H 0.65208 0.72312 0.11708 0.0
H3974 H 0.64182 0.7574 0.10206 0.0
H3975 H 0.62843 0.79181 0.11265 0.0
H3976 H 0.58365 0.44544 0.2703 0.0
H3977 H 0.55526 0.43307 0.29308 0.0
H3978 H 0.52326 0.49239 0.28565 0.0
H3979 H 0.55149 0.50483 0.26264 0.0
H3980 H 0.53752 0.45023 0.33117 0.0
H3981 H 0.48088 0.44765 0.26444 0.0
H3982 H 0.50889 0.44993 0.26059 0.0
H3983 H 0.49382 0.47245 0.26856 0.0
C3984 C 0.57064 0.4559 0.27363 0.0
C3985 C 0.56963 0.47601 0.26453 0.0
C3986 C 0.5545 0.44884 0.28669 0.0
C3987 C 0.53712 0.46175 0.29078 0.0
C3988 C 0.53646 0.48213 0.2824 0.0
H3989 H 0.41665 0.43315 0.34728 0.0
H3990 H 0.4473 0.4516 0.33352 0.0
C3991 C 0.55258 0.4892 0.26932 0.0
C3992 C 0.51918 0.45339 0.30287 0.0
H3993 H 0.46787 0.4387 0.29786 0.0
C3994 C 0.52224 0.44776 0.32398 0.0
C3995 C 0.49936 0.45017 0.29332 0.0
C3996 C 0.49547 0.45518 0.27044 0.0
C3997 C 0.50584 0.43904 0.33589 0.0
C3998 C 0.4861 0.4356 0.32624 0.0
C3999 C 0.48302 0.44147 0.30521 0.0
C4000 C 0.46847 0.42525 0.33727 0.0
C4001 C 0.50973 0.43376 0.35868 0.0
C4002 C 0.47033 0.4044 0.34421 0.0
C4003 C 0.45283 0.39376 0.35213 0.0
C4004 C 0.43312 0.40375 0.353 0.0
C4005 C 0.43154 0.4249 0.34669 0.0
C4006 C 0.44905 0.43552 0.33887 0.0
H4007 H 0.52332 0.44266 0.36514 0.0
H4008 H 0.49564 0.43718 0.36839 0.0
H4009 H 0.51329 0.41673 0.36006 0.0
H4010 H 0.4851 0.39606 0.3427 0.0
H4011 H 0.45459 0.37748 0.3568 0.0
H4012 H 0.22276 0.82237 0.92935 0.0
H4013 H 0.20689 0.79799 0.90438 0.0
H4014 H 0.14648 0.82746 0.91369 0.0
H4015 H 0.16221 0.85137 0.93948 0.0
H4016 H 0.14397 0.78782 0.92119 0.0
H4017 H 0.18554 0.79547 0.84577 0.0
H4018 H 0.20436 0.79257 0.86652 0.0
H4019 H 0.18739 0.81531 0.86605 0.0
C4020 C 0.20621 0.82401 0.92566 0.0
C4021 C 0.19364 0.83856 0.9365 0.0
C4022 C 0.19717 0.8102 0.91117 0.0
C4023 C 0.17551 0.81103 0.90689 0.0
C4024 C 0.16324 0.82658 0.91666 0.0
H4025 H 0.10554 0.70054 0.8617 0.0
H4026 H 0.11419 0.73795 0.86441 0.0
C4027 C 0.17221 0.84018 0.93143 0.0
C4028 C 0.1653 0.79342 0.89549 0.0
H4029 H 0.1718 0.76015 0.85381 0.0
C4030 C 0.14958 0.78216 0.90612 0.0
C4031 C 0.17261 0.78599 0.87582 0.0
C4032 C 0.18825 0.79816 0.86283 0.0
C4033 C 0.14223 0.76285 0.89851 0.0
C4034 C 0.15073 0.75467 0.87969 0.0
C4035 C 0.16543 0.76649 0.8683 0.0
C4036 C 0.14654 0.73272 0.87344 0.0
C4037 C 0.12654 0.75061 0.91146 0.0
C4038 C 0.16217 0.71756 0.87675 0.0
C4039 C 0.15733 0.69621 0.87532 0.0
C4040 C 0.13673 0.68968 0.87053 0.0
C4041 C 0.12151 0.705 0.86564 0.0
C4042 C 0.12639 0.72638 0.86712 0.0
H4043 H 0.12329 0.7582 0.92686 0.0
H4044 H 0.11149 0.74934 0.90269 0.0
H4045 H 0.13238 0.73441 0.91436 0.0
H4046 H 0.17782 0.72222 0.88167 0.0
H4047 H 0.1695 0.68487 0.87892 0.0
H4048 H 0.43195 0.01105 0.19434 0.0
H4049 H 0.46237 0.00253 0.17245 0.0
H4050 H 0.43787 0.93997 0.16263 0.0
H4051 H 0.40724 0.94853 0.18402 0.0
H4052 H 0.48903 0.97243 0.18512 0.0
H4053 H 0.46116 0.9531 0.10501 0.0
H4054 H 0.44532 0.96763 0.12358 0.0
H4055 H 0.44655 0.93936 0.1248 0.0
C4056 C 0.4328 0.99567 0.18705 0.0
C4057 C 0.41739 0.98036 0.19102 0.0
C4058 C 0.45013 0.99086 0.1745 0.0
C4059 C 0.45226 0.9707 0.16575 0.0
C4060 C 0.43629 0.95578 0.16878 0.0
H4061 H 0.54913 0.88572 0.13325 0.0
H4062 H 0.51607 0.90472 0.13811 0.0
C4063 C 0.4189 0.96062 0.18121 0.0
C4064 C 0.47258 0.96409 0.15667 0.0
H4065 H 0.49473 0.93823 0.1152 0.0
C4066 C 0.49039 0.96539 0.16963 0.0
C4067 C 0.47421 0.95474 0.13656 0.0
C4068 C 0.4558 0.95381 0.12162 0.0
C4069 C 0.50958 0.95662 0.1635 0.0
C4070 C 0.51105 0.94662 0.1437 0.0
C4071 C 0.49346 0.94593 0.13038 0.0
C4072 C 0.53041 0.93557 0.13741 0.0
C4073 C 0.52782 0.95717 0.17874 0.0
C4074 C 0.5492 0.94674 0.13476 0.0
C4075 C 0.56812 0.93597 0.13222 0.0
C4076 C 0.56849 0.91384 0.13211 0.0
C4077 C 0.5494 0.90275 0.13343 0.0
C4078 C 0.5305 0.91356 0.1361 0.0
H4079 H 0.52285 0.96181 0.19483 0.0
H4080 H 0.53561 0.94156 0.1796 0.0
H4081 H 0.53961 0.96878 0.17322 0.0
H4082 H 0.54933 0.96377 0.13543 0.0
H4083 H 0.5825 0.94501 0.13087 0.0
H4084 H 0.11603 0.05177 0.69029 0.0
H4085 H 0.09447 0.06699 0.66218 0.0
H4086 H 0.04658 0.0203 0.67354 0.0
H4087 H 0.06812 0.0048 0.70123 0.0
H4088 H 0.05209 0.03039 0.6303 0.0
H4089 H 0.04332 0.10144 0.68116 0.0
H4090 H 0.06951 0.09404 0.67362 0.0
H4091 H 0.05468 0.07738 0.69091 0.0
C4092 C 0.10107 0.04454 0.6865 0.0
C4093 C 0.09357 0.02732 0.69814 0.0
C4094 C 0.08879 0.05326 0.67049 0.0
C4095 C 0.06882 0.04496 0.66608 0.0
C4096 C 0.06196 0.02693 0.67674 0.0
H4097 H 0.94704 0.06193 0.62818 0.0
H4098 H 0.98284 0.04967 0.63352 0.0
C4099 C 0.07423 0.01816 0.69263 0.0
C4100 C 0.05386 0.05615 0.65227 0.0
H4101 H 0.02085 0.09835 0.65241 0.0
C4102 C 0.04554 0.04548 0.63481 0.0
C4103 C 0.04547 0.0759 0.65815 0.0
C4104 C 0.05355 0.08789 0.67703 0.0
C4105 C 0.02814 0.05346 0.62385 0.0
C4106 C 0.01872 0.07235 0.6308 0.0
C4107 C 0.0281 0.08383 0.64716 0.0
C4108 C -0.00249 0.07884 0.62384 0.0
C4109 C 0.01953 0.04119 0.60545 0.0
C4110 C 0.99381 0.09937 0.61669 0.0
C4111 C 0.97325 0.10656 0.61384 0.0
C4112 C 0.95603 0.09339 0.61834 0.0
C4113 C 0.95988 0.07255 0.62465 0.0
C4114 C 0.9804 0.0654 0.62745 0.0
H4115 H 0.03221 0.03229 0.59737 0.0
H4116 H 0.00783 0.02961 0.61122 0.0
H4117 H 0.01171 0.05166 0.59387 0.0
H4118 H 0.00682 0.11004 0.61404 0.0
H4119 H 0.97087 0.12268 0.60888 0.0
loop_
_geom_bond_atom_site_label_1
_geom_bond_atom_site_label_2
_geom_bond_distance
_geom_bond_site_symmetry_2
_ccdc_geom_bond_type
In0 O1 2.307 . S
In0 O2 2.325 1_455 S
In0 O6 2.279 . S
In0 O7 2.324 1_455 S
In0 O8 2.254 1_455 S
In0 O9 2.328 . S
In0 O11 2.281 1_455 S
In0 O12 2.328 . S
O1 In0 2.307 . S
O1 C10 1.240 . S
O2 In0 2.325 1_655 S
O2 C10 1.252 1_655 S
C3 O6 1.252 . S
C3 O7 1.260 1_455 S
C4 O11 1.240 . S
C4 O12 1.252 1_655 S
C5 O8 1.252 . S
C5 O9 1.260 1_655 S
O6 In0 2.279 . S
O6 C3 1.252 . S
O7 In0 2.324 1_655 S
O7 C3 1.260 1_655 S
O8 In0 2.254 1_655 S
O8 C5 1.252 . S
O9 In0 2.328 . S
O9 C5 1.260 1_455 S
C10 O1 1.240 . S
C10 O2 1.252 1_455 S
O11 In0 2.281 1_655 S
O11 C4 1.240 . S
O12 In0 2.328 . S
O12 C4 1.252 1_455 S
In13 O14 2.284 1_455 S
In13 O15 2.308 1_455 S
In13 O19 2.277 . S
In13 O20 2.344 . S
In13 O21 2.256 1_455 S
In13 O22 2.307 1_455 S
In13 O24 2.305 . S
In13 O25 2.345 . S
O14 In13 2.284 1_655 S
O14 C23 1.240 . S
O15 In13 2.308 1_655 S
O15 C23 1.252 . S
C16 O19 1.252 . S
C16 O20 1.260 . S
C17 O24 1.240 . S
C17 O25 1.252 . S
C18 O21 1.252 . S
C18 O22 1.260 . S
O19 In13 2.277 . S
O19 C16 1.252 . S
O20 In13 2.344 . S
O20 C16 1.260 . S
O21 In13 2.256 1_655 S
O21 C18 1.252 . S
O22 In13 2.307 1_655 S
O22 C18 1.260 . S
C23 O14 1.240 . S
C23 O15 1.252 . S
O24 In13 2.305 . S
O24 C17 1.240 . S
O25 In13 2.345 . S
O25 C17 1.252 . S
In26 O27 2.294 . S
In26 O28 2.326 . S
In26 O32 2.266 . S
In26 O33 2.326 . S
In26 O34 2.266 . S
In26 O35 2.326 . S
In26 O37 2.294 . S
In26 O38 2.326 . S
O27 In26 2.294 . S
O27 C36 1.240 . S
O28 In26 2.326 . S
O28 C36 1.252 . S
C29 O32 1.252 . S
C29 O33 1.260 . S
C30 O37 1.240 . S
C30 O38 1.252 . S
C31 O34 1.252 . S
C31 O35 1.260 . S
O32 In26 2.266 . S
O32 C29 1.252 . S
O33 In26 2.326 . S
O33 C29 1.260 . S
O34 In26 2.266 . S
O34 C31 1.252 . S
O35 In26 2.326 . S
O35 C31 1.260 . S
C36 O27 1.240 . S
C36 O28 1.252 . S
O37 In26 2.294 . S
O37 C30 1.240 . S
O38 In26 2.326 . S
O38 C30 1.252 . S
In39 O40 2.294 . S
In39 O41 2.326 . S
In39 O45 2.266 . S
In39 O46 2.326 . S
In39 O47 2.266 . S
In39 O48 2.326 . S
In39 O50 2.294 . S
In39 O51 2.326 . S
O40 In39 2.294 . S
O40 C49 1.240 . S
O41 In39 2.326 . S
O41 C49 1.252 . S
C42 O45 1.252 . S
C42 O46 1.260 . S
C43 O50 1.240 . S
C43 O51 1.252 . S
C44 O47 1.252 . S
C44 O48 1.260 . S
O45 In39 2.266 . S
O45 C42 1.252 . S
O46 In39 2.326 . S
O46 C42 1.260 . S
O47 In39 2.266 . S
O47 C44 1.252 . S
O48 In39 2.326 . S
O48 C44 1.260 . S
C49 O40 1.240 . S
C49 O41 1.252 . S
O50 In39 2.294 . S
O50 C43 1.240 . S
O51 In39 2.326 . S
O51 C43 1.252 . S
In52 O53 2.267 1_455 S
In52 O54 2.330 . S
In52 O58 2.240 1_455 S
In52 O59 2.330 . S
In52 O60 2.293 . S
In52 O61 2.321 1_455 S
In52 O63 2.321 . S
In52 O64 2.323 1_455 S
O53 In52 2.267 1_655 S
O53 C62 1.240 . S
O54 In52 2.330 . S
O54 C62 1.252 1_455 S
C55 O58 1.252 . S
C55 O59 1.260 1_655 S
C56 O63 1.240 . S
C56 O64 1.252 1_455 S
C57 O60 1.252 . S
C57 O61 1.260 1_455 S
O58 In52 2.240 1_655 S
O58 C55 1.252 . S
O59 In52 2.330 . S
O59 C55 1.260 1_455 S
O60 In52 2.293 . S
O60 C57 1.252 . S
O61 In52 2.321 1_655 S
O61 C57 1.260 1_655 S
C62 O53 1.240 . S
C62 O54 1.252 1_655 S
O63 In52 2.321 . S
O63 C56 1.240 . S
O64 In52 2.323 1_655 S
O64 C56 1.252 1_655 S
In65 O66 2.294 . S
In65 O67 2.326 . S
In65 O71 2.266 . S
In65 O72 2.326 . S
In65 O73 2.266 . S
In65 O74 2.326 . S
In65 O76 2.294 . S
In65 O77 2.326 . S
O66 In65 2.294 . S
O66 C75 1.240 . S
O67 In65 2.326 . S
O67 C75 1.252 . S
C68 O71 1.252 . S
C68 O72 1.260 . S
C69 O76 1.240 . S
C69 O77 1.252 . S
C70 O73 1.252 . S
C70 O74 1.260 . S
O71 In65 2.266 . S
O71 C68 1.252 . S
O72 In65 2.326 . S
O72 C68 1.260 . S
O73 In65 2.266 . S
O73 C70 1.252 . S
O74 In65 2.326 . S
O74 C70 1.260 . S
C75 O66 1.240 . S
C75 O67 1.252 . S
O76 In65 2.294 . S
O76 C69 1.240 . S
O77 In65 2.326 . S
O77 C69 1.252 . S
In78 O79 2.294 . S
In78 O80 2.326 . S
In78 O84 2.266 . S
In78 O85 2.326 . S
In78 O86 2.266 . S
In78 O87 2.326 . S
In78 O89 2.294 . S
In78 O90 2.326 . S
O79 In78 2.294 . S
O79 C88 1.240 . S
O80 In78 2.326 . S
O80 C88 1.252 . S
C81 O84 1.252 . S
C81 O85 1.260 . S
C82 O89 1.240 . S
C82 O90 1.252 . S
C83 O86 1.252 . S
C83 O87 1.260 . S
O84 In78 2.266 . S
O84 C81 1.252 . S
O85 In78 2.326 . S
O85 C81 1.260 . S
O86 In78 2.266 . S
O86 C83 1.252 . S
O87 In78 2.326 . S
O87 C83 1.260 . S
C88 O79 1.240 . S
C88 O80 1.252 . S
O89 In78 2.294 . S
O89 C82 1.240 . S
O90 In78 2.326 . S
O90 C82 1.252 . S
In91 O92 2.297 . S
In91 O93 2.331 . S
In91 O97 2.263 1_455 S
In91 O98 2.320 1_455 S
In91 O99 2.269 . S
In91 O100 2.331 . S
In91 O102 2.291 1_455 S
In91 O103 2.321 1_455 S
O92 In91 2.297 . S
O92 C101 1.240 . S
O93 In91 2.331 . S
O93 C101 1.252 . S
C94 O97 1.252 . S
C94 O98 1.260 . S
C95 O102 1.240 . S
C95 O103 1.252 . S
C96 O99 1.252 . S
C96 O100 1.260 . S
O97 In91 2.263 1_655 S
O97 C94 1.252 . S
O98 In91 2.320 1_655 S
O98 C94 1.260 . S
O99 In91 2.269 . S
O99 C96 1.252 . S
O100 In91 2.331 . S
O100 C96 1.260 . S
C101 O92 1.240 . S
C101 O93 1.252 . S
O102 In91 2.291 1_655 S
O102 C95 1.240 . S
O103 In91 2.321 1_655 S
O103 C95 1.252 . S
In104 O105 2.281 1_545 S
In104 O106 2.328 . S
In104 O110 2.254 1_545 S
In104 O111 2.328 . S
In104 O112 2.279 . S
In104 O113 2.324 1_545 S
In104 O115 2.307 . S
In104 O116 2.325 1_545 S
O105 In104 2.281 1_565 S
O105 C114 1.240 . S
O106 In104 2.328 . S
O106 C114 1.252 1_545 S
C107 O110 1.252 . S
C107 O111 1.260 1_565 S
C108 O115 1.240 . S
C108 O116 1.252 1_545 S
C109 O112 1.252 . S
C109 O113 1.260 1_545 S
O110 In104 2.254 1_565 S
O110 C107 1.252 . S
O111 In104 2.328 . S
O111 C107 1.260 1_545 S
O112 In104 2.279 . S
O112 C109 1.252 . S
O113 In104 2.324 1_565 S
O113 C109 1.260 1_565 S
C114 O105 1.240 . S
C114 O106 1.252 1_565 S
O115 In104 2.307 . S
O115 C108 1.240 . S
O116 In104 2.325 1_565 S
O116 C108 1.252 1_565 S
In117 O118 2.294 . S
In117 O119 2.326 . S
In117 O123 2.266 . S
In117 O124 2.326 . S
In117 O125 2.266 . S
In117 O126 2.326 . S
In117 O128 2.294 . S
In117 O129 2.326 . S
O118 In117 2.294 . S
O118 C127 1.240 . S
O119 In117 2.326 . S
O119 C127 1.252 . S
C120 O123 1.252 . S
C120 O124 1.260 . S
C121 O128 1.240 . S
C121 O129 1.252 . S
C122 O125 1.252 . S
C122 O126 1.260 . S
O123 In117 2.266 . S
O123 C120 1.252 . S
O124 In117 2.326 . S
O124 C120 1.260 . S
O125 In117 2.266 . S
O125 C122 1.252 . S
O126 In117 2.326 . S
O126 C122 1.260 . S
C127 O118 1.240 . S
C127 O119 1.252 . S
O128 In117 2.294 . S
O128 C121 1.240 . S
O129 In117 2.326 . S
O129 C121 1.252 . S
In130 O131 2.267 1_545 S
In130 O132 2.330 . S
In130 O136 2.240 1_545 S
In130 O137 2.330 . S
In130 O138 2.293 . S
In130 O139 2.321 1_545 S
In130 O141 2.321 . S
In130 O142 2.323 1_545 S
O131 In130 2.267 1_565 S
O131 C140 1.240 . S
O132 In130 2.330 . S
O132 C140 1.252 1_545 S
C133 O136 1.252 . S
C133 O137 1.260 1_565 S
C134 O141 1.240 . S
C134 O142 1.252 1_545 S
C135 O138 1.252 . S
C135 O139 1.260 1_545 S
O136 In130 2.240 1_565 S
O136 C133 1.252 . S
O137 In130 2.330 . S
O137 C133 1.260 1_545 S
O138 In130 2.293 . S
O138 C135 1.252 . S
O139 In130 2.321 1_565 S
O139 C135 1.260 1_565 S
C140 O131 1.240 . S
C140 O132 1.252 1_565 S
O141 In130 2.321 . S
O141 C134 1.240 . S
O142 In130 2.323 1_565 S
O142 C134 1.252 1_565 S
In143 O144 2.297 . S
In143 O145 2.331 . S
In143 O149 2.263 1_554 S
In143 O150 2.320 1_554 S
In143 O151 2.269 . S
In143 O152 2.331 . S
In143 O154 2.291 1_554 S
In143 O155 2.321 1_554 S
O144 In143 2.297 . S
O144 C153 1.240 . S
O145 In143 2.331 . S
O145 C153 1.252 . S
C146 O149 1.252 . S
C146 O150 1.260 . S
C147 O154 1.240 . S
C147 O155 1.252 . S
C148 O151 1.252 . S
C148 O152 1.260 . S
O149 In143 2.263 1_556 S
O149 C146 1.252 . S
O150 In143 2.320 1_556 S
O150 C146 1.260 . S
O151 In143 2.269 . S
O151 C148 1.252 . S
O152 In143 2.331 . S
O152 C148 1.260 . S
C153 O144 1.240 . S
C153 O145 1.252 . S
O154 In143 2.291 1_556 S
O154 C147 1.240 . S
O155 In143 2.321 1_556 S
O155 C147 1.252 . S
In156 O157 2.281 1_554 S
In156 O158 2.328 . S
In156 O162 2.254 1_554 S
In156 O163 2.328 . S
In156 O164 2.279 . S
In156 O165 2.324 1_554 S
In156 O167 2.307 . S
In156 O168 2.325 1_554 S
O157 In156 2.281 1_556 S
O157 C166 1.240 . S
O158 In156 2.328 . S
O158 C166 1.252 1_554 S
C159 O162 1.252 . S
C159 O163 1.260 1_556 S
C160 O167 1.240 . S
C160 O168 1.252 1_554 S
C161 O164 1.252 . S
C161 O165 1.260 1_554 S
O162 In156 2.254 1_556 S
O162 C159 1.252 . S
O163 In156 2.328 . S
O163 C159 1.260 1_554 S
O164 In156 2.279 . S
O164 C161 1.252 . S
O165 In156 2.324 1_556 S
O165 C161 1.260 1_556 S
C166 O157 1.240 . S
C166 O158 1.252 1_556 S
O167 In156 2.307 . S
O167 C160 1.240 . S
O168 In156 2.325 1_556 S
O168 C160 1.252 1_556 S
In169 O170 2.321 . S
In169 O171 2.323 1_554 S
In169 O175 2.293 . S
In169 O176 2.321 1_554 S
In169 O177 2.240 1_554 S
In169 O178 2.330 . S
In169 O180 2.267 1_554 S
In169 O181 2.330 . S
O170 In169 2.321 . S
O170 C179 1.240 . S
O171 In169 2.323 1_556 S
O171 C179 1.252 1_556 S
C172 O175 1.252 . S
C172 O176 1.260 1_554 S
C173 O180 1.240 . S
C173 O181 1.252 1_556 S
C174 O177 1.252 . S
C174 O178 1.260 1_556 S
O175 In169 2.293 . S
O175 C172 1.252 . S
O176 In169 2.321 1_556 S
O176 C172 1.260 1_556 S
O177 In169 2.240 1_556 S
O177 C174 1.252 . S
O178 In169 2.330 . S
O178 C174 1.260 1_554 S
C179 O170 1.240 . S
C179 O171 1.252 1_554 S
O180 In169 2.267 1_556 S
O180 C173 1.240 . S
O181 In169 2.330 . S
O181 C173 1.252 1_554 S
In182 O183 2.294 . S
In182 O184 2.326 . S
In182 O188 2.266 . S
In182 O189 2.326 . S
In182 O190 2.266 . S
In182 O191 2.326 . S
In182 O193 2.294 . S
In182 O194 2.326 . S
O183 In182 2.294 . S
O183 C192 1.240 . S
O184 In182 2.326 . S
O184 C192 1.252 . S
C185 O188 1.252 . S
C185 O189 1.260 . S
C186 O193 1.240 . S
C186 O194 1.252 . S
C187 O190 1.252 . S
C187 O191 1.260 . S
O188 In182 2.266 . S
O188 C185 1.252 . S
O189 In182 2.326 . S
O189 C185 1.260 . S
O190 In182 2.266 . S
O190 C187 1.252 . S
O191 In182 2.326 . S
O191 C187 1.260 . S
C192 O183 1.240 . S
C192 O184 1.252 . S
O193 In182 2.294 . S
O193 C186 1.240 . S
O194 In182 2.326 . S
O194 C186 1.252 . S
In195 O196 2.294 . S
In195 O197 2.326 . S
In195 O201 2.266 . S
In195 O202 2.326 . S
In195 O203 2.266 . S
In195 O204 2.326 . S
In195 O206 2.294 . S
In195 O207 2.326 . S
O196 In195 2.294 . S
O196 C205 1.240 . S
O197 In195 2.326 . S
O197 C205 1.252 . S
C198 O201 1.252 . S
C198 O202 1.260 . S
C199 O206 1.240 . S
C199 O207 1.252 . S
C200 O203 1.252 . S
C200 O204 1.260 . S
O201 In195 2.266 . S
O201 C198 1.252 . S
O202 In195 2.326 . S
O202 C198 1.260 . S
O203 In195 2.266 . S
O203 C200 1.252 . S
O204 In195 2.326 . S
O204 C200 1.260 . S
C205 O196 1.240 . S
C205 O197 1.252 . S
O206 In195 2.294 . S
O206 C199 1.240 . S
O207 In195 2.326 . S
O207 C199 1.252 . S
In208 O209 2.291 1_545 S
In208 O210 2.321 1_545 S
In208 O214 2.269 . S
In208 O215 2.331 . S
In208 O216 2.263 1_545 S
In208 O217 2.320 1_545 S
In208 O219 2.297 . S
In208 O220 2.331 . S
O209 In208 2.291 1_565 S
O209 C218 1.240 . S
O210 In208 2.321 1_565 S
O210 C218 1.252 . S
C211 O214 1.252 . S
C211 O215 1.260 . S
C212 O219 1.240 . S
C212 O220 1.252 . S
C213 O216 1.252 . S
C213 O217 1.260 . S
O214 In208 2.269 . S
O214 C211 1.252 . S
O215 In208 2.331 . S
O215 C211 1.260 . S
O216 In208 2.263 1_565 S
O216 C213 1.252 . S
O217 In208 2.320 1_565 S
O217 C213 1.260 . S
C218 O209 1.240 . S
C218 O210 1.252 . S
O219 In208 2.297 . S
O219 C212 1.240 . S
O220 In208 2.331 . S
O220 C212 1.252 . S
In221 O222 2.294 . S
In221 O223 2.326 . S
In221 O227 2.266 . S
In221 O228 2.326 . S
In221 O229 2.266 . S
In221 O230 2.326 . S
In221 O232 2.294 . S
In221 O233 2.326 . S
O222 In221 2.294 . S
O222 C231 1.240 . S
O223 In221 2.326 . S
O223 C231 1.252 . S
C224 O227 1.252 . S
C224 O228 1.260 . S
C225 O232 1.240 . S
C225 O233 1.252 . S
C226 O229 1.252 . S
C226 O230 1.260 . S
O227 In221 2.266 . S
O227 C224 1.252 . S
O228 In221 2.326 . S
O228 C224 1.260 . S
O229 In221 2.266 . S
O229 C226 1.252 . S
O230 In221 2.326 . S
O230 C226 1.260 . S
C231 O222 1.240 . S
C231 O223 1.252 . S
O232 In221 2.294 . S
O232 C225 1.240 . S
O233 In221 2.326 . S
O233 C225 1.252 . S
In234 O235 2.294 . S
In234 O236 2.326 . S
In234 O240 2.266 . S
In234 O241 2.326 . S
In234 O242 2.266 . S
In234 O243 2.326 . S
In234 O245 2.294 . S
In234 O246 2.326 . S
O235 In234 2.294 . S
O235 C244 1.240 . S
O236 In234 2.326 . S
O236 C244 1.252 . S
C237 O240 1.252 . S
C237 O241 1.260 . S
C238 O245 1.240 . S
C238 O246 1.252 . S
C239 O242 1.252 . S
C239 O243 1.260 . S
O240 In234 2.266 . S
O240 C237 1.252 . S
O241 In234 2.326 . S
O241 C237 1.260 . S
O242 In234 2.266 . S
O242 C239 1.252 . S
O243 In234 2.326 . S
O243 C239 1.260 . S
C244 O235 1.240 . S
C244 O236 1.252 . S
O245 In234 2.294 . S
O245 C238 1.240 . S
O246 In234 2.326 . S
O246 C238 1.252 . S
In247 O248 2.284 1_545 S
In247 O249 2.308 1_545 S
In247 O253 2.277 . S
In247 O254 2.344 . S
In247 O255 2.256 1_545 S
In247 O256 2.307 1_545 S
In247 O258 2.305 . S
In247 O259 2.345 . S
O248 In247 2.284 1_565 S
O248 C257 1.240 . S
O249 In247 2.308 1_565 S
O249 C257 1.252 . S
C250 O253 1.252 . S
C250 O254 1.260 . S
C251 O258 1.240 . S
C251 O259 1.252 . S
C252 O255 1.252 . S
C252 O256 1.260 . S
O253 In247 2.277 . S
O253 C250 1.252 . S
O254 In247 2.344 . S
O254 C250 1.260 . S
O255 In247 2.256 1_565 S
O255 C252 1.252 . S
O256 In247 2.307 1_565 S
O256 C252 1.260 . S
C257 O248 1.240 . S
C257 O249 1.252 . S
O258 In247 2.305 . S
O258 C251 1.240 . S
O259 In247 2.345 . S
O259 C251 1.252 . S
In260 O261 2.305 . S
In260 O262 2.345 . S
In260 O266 2.256 1_554 S
In260 O267 2.307 1_554 S
In260 O268 2.277 . S
In260 O269 2.344 . S
In260 O271 2.284 1_554 S
In260 O272 2.308 1_554 S
O261 In260 2.305 . S
O261 C270 1.240 . S
O262 In260 2.345 . S
O262 C270 1.252 . S
C263 O266 1.252 . S
C263 O267 1.260 . S
C264 O271 1.240 . S
C264 O272 1.252 . S
C265 O268 1.252 . S
C265 O269 1.260 . S
O266 In260 2.256 1_556 S
O266 C263 1.252 . S
O267 In260 2.307 1_556 S
O267 C263 1.260 . S
O268 In260 2.277 . S
O268 C265 1.252 . S
O269 In260 2.344 . S
O269 C265 1.260 . S
C270 O261 1.240 . S
C270 O262 1.252 . S
O271 In260 2.284 1_556 S
O271 C264 1.240 . S
O272 In260 2.308 1_556 S
O272 C264 1.252 . S
In273 O274 2.294 . S
In273 O275 2.326 . S
In273 O279 2.266 . S
In273 O280 2.326 . S
In273 O281 2.266 . S
In273 O282 2.326 . S
In273 O284 2.294 . S
In273 O285 2.326 . S
O274 In273 2.294 . S
O274 C283 1.240 . S
O275 In273 2.326 . S
O275 C283 1.252 . S
C276 O279 1.252 . S
C276 O280 1.260 . S
C277 O284 1.240 . S
C277 O285 1.252 . S
C278 O281 1.252 . S
C278 O282 1.260 . S
O279 In273 2.266 . S
O279 C276 1.252 . S
O280 In273 2.326 . S
O280 C276 1.260 . S
O281 In273 2.266 . S
O281 C278 1.252 . S
O282 In273 2.326 . S
O282 C278 1.260 . S
C283 O274 1.240 . S
C283 O275 1.252 . S
O284 In273 2.294 . S
O284 C277 1.240 . S
O285 In273 2.326 . S
O285 C277 1.252 . S
In286 O287 2.294 . S
In286 O288 2.326 . S
In286 O292 2.266 . S
In286 O293 2.326 . S
In286 O294 2.266 . S
In286 O295 2.326 . S
In286 O297 2.294 . S
In286 O298 2.326 . S
O287 In286 2.294 . S
O287 C296 1.240 . S
O288 In286 2.326 . S
O288 C296 1.252 . S
C289 O292 1.252 . S
C289 O293 1.260 . S
C290 O297 1.240 . S
C290 O298 1.252 . S
C291 O294 1.252 . S
C291 O295 1.260 . S
O292 In286 2.266 . S
O292 C289 1.252 . S
O293 In286 2.326 . S
O293 C289 1.260 . S
O294 In286 2.266 . S
O294 C291 1.252 . S
O295 In286 2.326 . S
O295 C291 1.260 . S
C296 O287 1.240 . S
C296 O288 1.252 . S
O297 In286 2.294 . S
O297 C290 1.240 . S
O298 In286 2.326 . S
O298 C290 1.252 . S
In299 O300 2.294 . S
In299 O301 2.326 . S
In299 O305 2.266 . S
In299 O306 2.326 . S
In299 O307 2.266 . S
In299 O308 2.326 . S
In299 O310 2.294 . S
In299 O311 2.326 . S
O300 In299 2.294 . S
O300 C309 1.240 . S
O301 In299 2.326 . S
O301 C309 1.252 . S
C302 O305 1.252 . S
C302 O306 1.260 . S
C303 O310 1.240 . S
C303 O311 1.252 . S
C304 O307 1.252 . S
C304 O308 1.260 . S
O305 In299 2.266 . S
O305 C302 1.252 . S
O306 In299 2.326 . S
O306 C302 1.260 . S
O307 In299 2.266 . S
O307 C304 1.252 . S
O308 In299 2.326 . S
O308 C304 1.260 . S
C309 O300 1.240 . S
C309 O301 1.252 . S
O310 In299 2.294 . S
O310 C303 1.240 . S
O311 In299 2.326 . S
O311 C303 1.252 . S
Sc312 O315 2.025 . S
Sc312 O322 2.105 . S
Sc312 O325 2.105 . S
Sc312 O328 2.105 . S
Sc312 O331 2.105 . S
Sc313 O315 2.025 . S
Sc313 O323 2.105 . S
Sc313 O327 2.105 . S
Sc313 O329 2.105 . S
Sc313 O333 2.105 . S
Sc314 O315 2.025 . S
Sc314 O324 2.105 . S
Sc314 O326 2.105 . S
Sc314 O330 2.105 . S
Sc314 O332 2.105 . S
O315 Sc312 2.025 . S
O315 Sc313 2.025 . S
O315 Sc314 2.025 . S
C316 O322 1.268 . S
C316 O332 1.268 . S
C317 O323 1.268 . S
C317 O331 1.268 . S
C318 O324 1.268 . S
C318 O333 1.268 . S
C319 O325 1.268 . S
C319 O329 1.268 . S
C320 O326 1.268 . S
C320 O328 1.268 . S
C321 O327 1.268 . S
C321 O330 1.268 . S
O322 Sc312 2.105 . S
O322 C316 1.268 . S
O323 Sc313 2.105 . S
O323 C317 1.268 . S
O324 Sc314 2.105 . S
O324 C318 1.268 . S
O325 Sc312 2.105 . S
O325 C319 1.268 . S
O326 Sc314 2.105 . S
O326 C320 1.268 . S
O327 Sc313 2.105 . S
O327 C321 1.268 . S
O328 Sc312 2.105 . S
O328 C320 1.268 . S
O329 Sc313 2.105 . S
O329 C319 1.268 . S
O330 Sc314 2.105 . S
O330 C321 1.268 . S
O331 Sc312 2.105 . S
O331 C317 1.268 . S
O332 Sc314 2.105 . S
O332 C316 1.268 . S
O333 Sc313 2.105 . S
O333 C318 1.268 . S
Sc334 O337 2.025 . S
Sc334 O344 2.105 . S
Sc334 O347 2.105 . S
Sc334 O350 2.105 . S
Sc334 O353 2.105 . S
Sc335 O337 2.025 . S
Sc335 O345 2.105 . S
Sc335 O349 2.105 . S
Sc335 O351 2.105 . S
Sc335 O355 2.105 . S
Sc336 O337 2.025 . S
Sc336 O346 2.105 . S
Sc336 O348 2.105 . S
Sc336 O352 2.105 . S
Sc336 O354 2.105 . S
O337 Sc334 2.025 . S
O337 Sc335 2.025 . S
O337 Sc336 2.025 . S
C338 O344 1.268 . S
C338 O354 1.268 . S
C339 O345 1.268 . S
C339 O353 1.268 . S
C340 O346 1.268 . S
C340 O355 1.268 . S
C341 O347 1.268 . S
C341 O351 1.268 . S
C342 O348 1.268 . S
C342 O350 1.268 . S
C343 O349 1.268 . S
C343 O352 1.268 . S
O344 Sc334 2.105 . S
O344 C338 1.268 . S
O345 Sc335 2.105 . S
O345 C339 1.268 . S
O346 Sc336 2.105 . S
O346 C340 1.268 . S
O347 Sc334 2.105 . S
O347 C341 1.268 . S
O348 Sc336 2.105 . S
O348 C342 1.268 . S
O349 Sc335 2.105 . S
O349 C343 1.268 . S
O350 Sc334 2.105 . S
O350 C342 1.268 . S
O351 Sc335 2.105 . S
O351 C341 1.268 . S
O352 Sc336 2.105 . S
O352 C343 1.268 . S
O353 Sc334 2.105 . S
O353 C339 1.268 . S
O354 Sc336 2.105 . S
O354 C338 1.268 . S
O355 Sc335 2.105 . S
O355 C340 1.268 . S
Sc356 O359 2.025 . S
Sc356 O366 2.105 . S
Sc356 O369 2.105 . S
Sc356 O372 2.105 . S
Sc356 O375 2.105 . S
Sc357 O359 2.025 . S
Sc357 O367 2.105 . S
Sc357 O371 2.105 . S
Sc357 O373 2.105 . S
Sc357 O377 2.105 . S
Sc358 O359 2.025 . S
Sc358 O368 2.105 . S
Sc358 O370 2.105 . S
Sc358 O374 2.105 . S
Sc358 O376 2.105 . S
O359 Sc356 2.025 . S
O359 Sc357 2.025 . S
O359 Sc358 2.025 . S
C360 O366 1.268 . S
C360 O376 1.268 . S
C361 O367 1.268 . S
C361 O375 1.268 . S
C362 O368 1.268 . S
C362 O377 1.268 . S
C363 O369 1.268 . S
C363 O373 1.268 . S
C364 O370 1.268 . S
C364 O372 1.268 . S
C365 O371 1.268 . S
C365 O374 1.268 . S
O366 Sc356 2.105 . S
O366 C360 1.268 . S
O367 Sc357 2.105 . S
O367 C361 1.268 . S
O368 Sc358 2.105 . S
O368 C362 1.268 . S
O369 Sc356 2.105 . S
O369 C363 1.268 . S
O370 Sc358 2.105 . S
O370 C364 1.268 . S
O371 Sc357 2.105 . S
O371 C365 1.268 . S
O372 Sc356 2.105 . S
O372 C364 1.268 . S
O373 Sc357 2.105 . S
O373 C363 1.268 . S
O374 Sc358 2.105 . S
O374 C365 1.268 . S
O375 Sc356 2.105 . S
O375 C361 1.268 . S
O376 Sc358 2.105 . S
O376 C360 1.268 . S
O377 Sc357 2.105 . S
O377 C362 1.268 . S
Sc378 O381 2.025 . S
Sc378 O388 2.105 . S
Sc378 O391 2.105 . S
Sc378 O394 2.105 . S
Sc378 O397 2.105 . S
Sc379 O381 2.025 . S
Sc379 O389 2.105 . S
Sc379 O393 2.105 . S
Sc379 O395 2.105 . S
Sc379 O399 2.105 . S
Sc380 O381 2.025 . S
Sc380 O390 2.105 . S
Sc380 O392 2.105 . S
Sc380 O396 2.105 . S
Sc380 O398 2.105 . S
O381 Sc378 2.025 . S
O381 Sc379 2.025 . S
O381 Sc380 2.025 . S
C382 O388 1.268 . S
C382 O398 1.268 . S
C383 O389 1.268 . S
C383 O397 1.268 . S
C384 O390 1.268 . S
C384 O399 1.268 . S
C385 O391 1.268 . S
C385 O395 1.268 . S
C386 O392 1.268 . S
C386 O394 1.268 . S
C387 O393 1.268 . S
C387 O396 1.268 . S
O388 Sc378 2.105 . S
O388 C382 1.268 . S
O389 Sc379 2.105 . S
O389 C383 1.268 . S
O390 Sc380 2.105 . S
O390 C384 1.268 . S
O391 Sc378 2.105 . S
O391 C385 1.268 . S
O392 Sc380 2.105 . S
O392 C386 1.268 . S
O393 Sc379 2.105 . S
O393 C387 1.268 . S
O394 Sc378 2.105 . S
O394 C386 1.268 . S
O395 Sc379 2.105 . S
O395 C385 1.268 . S
O396 Sc380 2.105 . S
O396 C387 1.268 . S
O397 Sc378 2.105 . S
O397 C383 1.268 . S
O398 Sc380 2.105 . S
O398 C382 1.268 . S
O399 Sc379 2.105 . S
O399 C384 1.268 . S
Sc400 O403 2.025 . S
Sc400 O410 2.105 . S
Sc400 O413 2.105 . S
Sc400 O416 2.105 . S
Sc400 O419 2.105 . S
Sc401 O403 2.025 . S
Sc401 O411 2.105 . S
Sc401 O415 2.105 . S
Sc401 O417 2.105 . S
Sc401 O421 2.105 . S
Sc402 O403 2.025 . S
Sc402 O412 2.105 . S
Sc402 O414 2.105 . S
Sc402 O418 2.105 . S
Sc402 O420 2.105 . S
O403 Sc400 2.025 . S
O403 Sc401 2.025 . S
O403 Sc402 2.025 . S
C404 O410 1.268 . S
C404 O420 1.268 . S
C405 O411 1.268 . S
C405 O419 1.268 . S
C406 O412 1.268 . S
C406 O421 1.268 . S
C407 O413 1.268 . S
C407 O417 1.268 . S
C408 O414 1.268 . S
C408 O416 1.268 . S
C409 O415 1.268 . S
C409 O418 1.268 . S
O410 Sc400 2.105 . S
O410 C404 1.268 . S
O411 Sc401 2.105 . S
O411 C405 1.268 . S
O412 Sc402 2.105 . S
O412 C406 1.268 . S
O413 Sc400 2.105 . S
O413 C407 1.268 . S
O414 Sc402 2.105 . S
O414 C408 1.268 . S
O415 Sc401 2.105 . S
O415 C409 1.268 . S
O416 Sc400 2.105 . S
O416 C408 1.268 . S
O417 Sc401 2.105 . S
O417 C407 1.268 . S
O418 Sc402 2.105 . S
O418 C409 1.268 . S
O419 Sc400 2.105 . S
O419 C405 1.268 . S
O420 Sc402 2.105 . S
O420 C404 1.268 . S
O421 Sc401 2.105 . S
O421 C406 1.268 . S
Sc422 O425 2.025 . S
Sc422 O432 2.105 . S
Sc422 O435 2.105 . S
Sc422 O438 2.105 . S
Sc422 O441 2.105 . S
Sc423 O425 2.025 . S
Sc423 O433 2.105 . S
Sc423 O437 2.105 . S
Sc423 O439 2.105 . S
Sc423 O443 2.105 . S
Sc424 O425 2.025 . S
Sc424 O434 2.105 . S
Sc424 O436 2.105 . S
Sc424 O440 2.105 . S
Sc424 O442 2.105 . S
O425 Sc422 2.025 . S
O425 Sc423 2.025 . S
O425 Sc424 2.025 . S
C426 O432 1.268 . S
C426 O442 1.268 . S
C427 O433 1.268 . S
C427 O441 1.268 . S
C428 O434 1.268 . S
C428 O443 1.268 . S
C429 O435 1.268 . S
C429 O439 1.268 . S
C430 O436 1.268 . S
C430 O438 1.268 . S
C431 O437 1.268 . S
C431 O440 1.268 . S
O432 Sc422 2.105 . S
O432 C426 1.268 . S
O433 Sc423 2.105 . S
O433 C427 1.268 . S
O434 Sc424 2.105 . S
O434 C428 1.268 . S
O435 Sc422 2.105 . S
O435 C429 1.268 . S
O436 Sc424 2.105 . S
O436 C430 1.268 . S
O437 Sc423 2.105 . S
O437 C431 1.268 . S
O438 Sc422 2.105 . S
O438 C430 1.268 . S
O439 Sc423 2.105 . S
O439 C429 1.268 . S
O440 Sc424 2.105 . S
O440 C431 1.268 . S
O441 Sc422 2.105 . S
O441 C427 1.268 . S
O442 Sc424 2.105 . S
O442 C426 1.268 . S
O443 Sc423 2.105 . S
O443 C428 1.268 . S
Sc444 O447 2.025 . S
Sc444 O454 2.105 . S
Sc444 O457 2.105 . S
Sc444 O460 2.105 . S
Sc444 O463 2.105 . S
Sc445 O447 2.025 . S
Sc445 O455 2.105 . S
Sc445 O459 2.105 . S
Sc445 O461 2.105 . S
Sc445 O465 2.105 . S
Sc446 O447 2.025 . S
Sc446 O456 2.105 . S
Sc446 O458 2.105 . S
Sc446 O462 2.105 . S
Sc446 O464 2.105 . S
O447 Sc444 2.025 . S
O447 Sc445 2.025 . S
O447 Sc446 2.025 . S
C448 O454 1.268 . S
C448 O464 1.268 . S
C449 O455 1.268 . S
C449 O463 1.268 . S
C450 O456 1.268 . S
C450 O465 1.268 . S
C451 O457 1.268 . S
C451 O461 1.268 . S
C452 O458 1.268 . S
C452 O460 1.268 . S
C453 O459 1.268 . S
C453 O462 1.268 . S
O454 Sc444 2.105 . S
O454 C448 1.268 . S
O455 Sc445 2.105 . S
O455 C449 1.268 . S
O456 Sc446 2.105 . S
O456 C450 1.268 . S
O457 Sc444 2.105 . S
O457 C451 1.268 . S
O458 Sc446 2.105 . S
O458 C452 1.268 . S
O459 Sc445 2.105 . S
O459 C453 1.268 . S
O460 Sc444 2.105 . S
O460 C452 1.268 . S
O461 Sc445 2.105 . S
O461 C451 1.268 . S
O462 Sc446 2.105 . S
O462 C453 1.268 . S
O463 Sc444 2.105 . S
O463 C449 1.268 . S
O464 Sc446 2.105 . S
O464 C448 1.268 . S
O465 Sc445 2.105 . S
O465 C450 1.268 . S
Sc466 O469 2.025 . S
Sc466 O476 2.105 . S
Sc466 O479 2.105 . S
Sc466 O482 2.105 . S
Sc466 O485 2.105 . S
Sc467 O469 2.025 . S
Sc467 O477 2.105 . S
Sc467 O481 2.105 . S
Sc467 O483 2.105 . S
Sc467 O487 2.105 . S
Sc468 O469 2.025 . S
Sc468 O478 2.105 . S
Sc468 O480 2.105 . S
Sc468 O484 2.105 . S
Sc468 O486 2.105 . S
O469 Sc466 2.025 . S
O469 Sc467 2.025 . S
O469 Sc468 2.025 . S
C470 O476 1.268 . S
C470 O486 1.268 . S
C471 O477 1.268 . S
C471 O485 1.268 . S
C472 O478 1.268 . S
C472 O487 1.268 . S
C473 O479 1.268 . S
C473 O483 1.268 . S
C474 O480 1.268 . S
C474 O482 1.268 . S
C475 O481 1.268 . S
C475 O484 1.268 . S
O476 Sc466 2.105 . S
O476 C470 1.268 . S
O477 Sc467 2.105 . S
O477 C471 1.268 . S
O478 Sc468 2.105 . S
O478 C472 1.268 . S
O479 Sc466 2.105 . S
O479 C473 1.268 . S
O480 Sc468 2.105 . S
O480 C474 1.268 . S
O481 Sc467 2.105 . S
O481 C475 1.268 . S
O482 Sc466 2.105 . S
O482 C474 1.268 . S
O483 Sc467 2.105 . S
O483 C473 1.268 . S
O484 Sc468 2.105 . S
O484 C475 1.268 . S
O485 Sc466 2.105 . S
O485 C471 1.268 . S
O486 Sc468 2.105 . S
O486 C470 1.268 . S
O487 Sc467 2.105 . S
O487 C472 1.268 . S
Sc488 O491 2.025 . S
Sc488 O498 2.105 . S
Sc488 O501 2.105 . S
Sc488 O504 2.105 . S
Sc488 O507 2.105 . S
Sc489 O491 2.025 . S
Sc489 O499 2.105 . S
Sc489 O503 2.105 . S
Sc489 O505 2.105 . S
Sc489 O509 2.105 . S
Sc490 O491 2.025 . S
Sc490 O500 2.105 . S
Sc490 O502 2.105 . S
Sc490 O506 2.105 . S
Sc490 O508 2.105 . S
O491 Sc488 2.025 . S
O491 Sc489 2.025 . S
O491 Sc490 2.025 . S
C492 O498 1.268 . S
C492 O508 1.268 . S
C493 O499 1.268 . S
C493 O507 1.268 . S
C494 O500 1.268 . S
C494 O509 1.268 . S
C495 O501 1.268 . S
C495 O505 1.268 . S
C496 O502 1.268 . S
C496 O504 1.268 . S
C497 O503 1.268 . S
C497 O506 1.268 . S
O498 Sc488 2.105 . S
O498 C492 1.268 . S
O499 Sc489 2.105 . S
O499 C493 1.268 . S
O500 Sc490 2.105 . S
O500 C494 1.268 . S
O501 Sc488 2.105 . S
O501 C495 1.268 . S
O502 Sc490 2.105 . S
O502 C496 1.268 . S
O503 Sc489 2.105 . S
O503 C497 1.268 . S
O504 Sc488 2.105 . S
O504 C496 1.268 . S
O505 Sc489 2.105 . S
O505 C495 1.268 . S
O506 Sc490 2.105 . S
O506 C497 1.268 . S
O507 Sc488 2.105 . S
O507 C493 1.268 . S
O508 Sc490 2.105 . S
O508 C492 1.268 . S
O509 Sc489 2.105 . S
O509 C494 1.268 . S
Sc510 O513 2.025 . S
Sc510 O520 2.105 . S
Sc510 O523 2.105 . S
Sc510 O526 2.105 . S
Sc510 O529 2.105 . S
Sc511 O513 2.025 . S
Sc511 O521 2.105 . S
Sc511 O525 2.105 . S
Sc511 O527 2.105 . S
Sc511 O531 2.105 . S
Sc512 O513 2.025 . S
Sc512 O522 2.105 . S
Sc512 O524 2.105 . S
Sc512 O528 2.105 . S
Sc512 O530 2.105 . S
O513 Sc510 2.025 . S
O513 Sc511 2.025 . S
O513 Sc512 2.025 . S
C514 O520 1.268 . S
C514 O530 1.268 . S
C515 O521 1.268 . S
C515 O529 1.268 . S
C516 O522 1.268 . S
C516 O531 1.268 . S
C517 O523 1.268 . S
C517 O527 1.268 . S
C518 O524 1.268 . S
C518 O526 1.268 . S
C519 O525 1.268 . S
C519 O528 1.268 . S
O520 Sc510 2.105 . S
O520 C514 1.268 . S
O521 Sc511 2.105 . S
O521 C515 1.268 . S
O522 Sc512 2.105 . S
O522 C516 1.268 . S
O523 Sc510 2.105 . S
O523 C517 1.268 . S
O524 Sc512 2.105 . S
O524 C518 1.268 . S
O525 Sc511 2.105 . S
O525 C519 1.268 . S
O526 Sc510 2.105 . S
O526 C518 1.268 . S
O527 Sc511 2.105 . S
O527 C517 1.268 . S
O528 Sc512 2.105 . S
O528 C519 1.268 . S
O529 Sc510 2.105 . S
O529 C515 1.268 . S
O530 Sc512 2.105 . S
O530 C514 1.268 . S
O531 Sc511 2.105 . S
O531 C516 1.268 . S
Sc532 O535 2.025 . S
Sc532 O542 2.105 . S
Sc532 O545 2.105 . S
Sc532 O548 2.105 . S
Sc532 O551 2.105 . S
Sc533 O535 2.025 . S
Sc533 O543 2.105 . S
Sc533 O547 2.105 . S
Sc533 O549 2.105 . S
Sc533 O553 2.105 . S
Sc534 O535 2.025 . S
Sc534 O544 2.105 . S
Sc534 O546 2.105 . S
Sc534 O550 2.105 . S
Sc534 O552 2.105 . S
O535 Sc532 2.025 . S
O535 Sc533 2.025 . S
O535 Sc534 2.025 . S
C536 O542 1.268 . S
C536 O552 1.268 . S
C537 O543 1.268 . S
C537 O551 1.268 . S
C538 O544 1.268 . S
C538 O553 1.268 . S
C539 O545 1.268 . S
C539 O549 1.268 . S
C540 O546 1.268 . S
C540 O548 1.268 . S
C541 O547 1.268 . S
C541 O550 1.268 . S
O542 Sc532 2.105 . S
O542 C536 1.268 . S
O543 Sc533 2.105 . S
O543 C537 1.268 . S
O544 Sc534 2.105 . S
O544 C538 1.268 . S
O545 Sc532 2.105 . S
O545 C539 1.268 . S
O546 Sc534 2.105 . S
O546 C540 1.268 . S
O547 Sc533 2.105 . S
O547 C541 1.268 . S
O548 Sc532 2.105 . S
O548 C540 1.268 . S
O549 Sc533 2.105 . S
O549 C539 1.268 . S
O550 Sc534 2.105 . S
O550 C541 1.268 . S
O551 Sc532 2.105 . S
O551 C537 1.268 . S
O552 Sc534 2.105 . S
O552 C536 1.268 . S
O553 Sc533 2.105 . S
O553 C538 1.268 . S
Sc554 O557 2.025 . S
Sc554 O564 2.105 . S
Sc554 O567 2.105 . S
Sc554 O570 2.105 . S
Sc554 O573 2.105 . S
Sc555 O557 2.025 . S
Sc555 O565 2.105 . S
Sc555 O569 2.105 . S
Sc555 O571 2.105 . S
Sc555 O575 2.105 . S
Sc556 O557 2.025 . S
Sc556 O566 2.105 . S
Sc556 O568 2.105 . S
Sc556 O572 2.105 . S
Sc556 O574 2.105 . S
O557 Sc554 2.025 . S
O557 Sc555 2.025 . S
O557 Sc556 2.025 . S
C558 O564 1.268 . S
C558 O574 1.268 . S
C559 O565 1.268 . S
C559 O573 1.268 . S
C560 O566 1.268 . S
C560 O575 1.268 . S
C561 O567 1.268 . S
C561 O571 1.268 . S
C562 O568 1.268 . S
C562 O570 1.268 . S
C563 O569 1.268 . S
C563 O572 1.268 . S
O564 Sc554 2.105 . S
O564 C558 1.268 . S
O565 Sc555 2.105 . S
O565 C559 1.268 . S
O566 Sc556 2.105 . S
O566 C560 1.268 . S
O567 Sc554 2.105 . S
O567 C561 1.268 . S
O568 Sc556 2.105 . S
O568 C562 1.268 . S
O569 Sc555 2.105 . S
O569 C563 1.268 . S
O570 Sc554 2.105 . S
O570 C562 1.268 . S
O571 Sc555 2.105 . S
O571 C561 1.268 . S
O572 Sc556 2.105 . S
O572 C563 1.268 . S
O573 Sc554 2.105 . S
O573 C559 1.268 . S
O574 Sc556 2.105 . S
O574 C558 1.268 . S
O575 Sc555 2.105 . S
O575 C560 1.268 . S
Sc576 O579 2.025 . S
Sc576 O586 2.105 . S
Sc576 O589 2.105 . S
Sc576 O592 2.105 . S
Sc576 O595 2.105 . S
Sc577 O579 2.025 . S
Sc577 O587 2.105 . S
Sc577 O591 2.105 . S
Sc577 O593 2.105 . S
Sc577 O597 2.105 . S
Sc578 O579 2.025 . S
Sc578 O588 2.105 . S
Sc578 O590 2.105 . S
Sc578 O594 2.105 . S
Sc578 O596 2.105 . S
O579 Sc576 2.025 . S
O579 Sc577 2.025 . S
O579 Sc578 2.025 . S
C580 O586 1.268 . S
C580 O596 1.268 . S
C581 O587 1.268 . S
C581 O595 1.268 . S
C582 O588 1.268 . S
C582 O597 1.268 . S
C583 O589 1.268 . S
C583 O593 1.268 . S
C584 O590 1.268 . S
C584 O592 1.268 . S
C585 O591 1.268 . S
C585 O594 1.268 . S
O586 Sc576 2.105 . S
O586 C580 1.268 . S
O587 Sc577 2.105 . S
O587 C581 1.268 . S
O588 Sc578 2.105 . S
O588 C582 1.268 . S
O589 Sc576 2.105 . S
O589 C583 1.268 . S
O590 Sc578 2.105 . S
O590 C584 1.268 . S
O591 Sc577 2.105 . S
O591 C585 1.268 . S
O592 Sc576 2.105 . S
O592 C584 1.268 . S
O593 Sc577 2.105 . S
O593 C583 1.268 . S
O594 Sc578 2.105 . S
O594 C585 1.268 . S
O595 Sc576 2.105 . S
O595 C581 1.268 . S
O596 Sc578 2.105 . S
O596 C580 1.268 . S
O597 Sc577 2.105 . S
O597 C582 1.268 . S
Sc598 O601 2.025 . S
Sc598 O608 2.105 . S
Sc598 O611 2.105 . S
Sc598 O614 2.105 . S
Sc598 O617 2.105 . S
Sc599 O601 2.025 . S
Sc599 O609 2.105 . S
Sc599 O613 2.105 . S
Sc599 O615 2.105 . S
Sc599 O619 2.105 . S
Sc600 O601 2.025 . S
Sc600 O610 2.105 . S
Sc600 O612 2.105 . S
Sc600 O616 2.105 . S
Sc600 O618 2.105 . S
O601 Sc598 2.025 . S
O601 Sc599 2.025 . S
O601 Sc600 2.025 . S
C602 O608 1.268 . S
C602 O618 1.268 . S
C603 O609 1.268 . S
C603 O617 1.268 . S
C604 O610 1.268 . S
C604 O619 1.268 . S
C605 O611 1.268 . S
C605 O615 1.268 . S
C606 O612 1.268 . S
C606 O614 1.268 . S
C607 O613 1.268 . S
C607 O616 1.268 . S
O608 Sc598 2.105 . S
O608 C602 1.268 . S
O609 Sc599 2.105 . S
O609 C603 1.268 . S
O610 Sc600 2.105 . S
O610 C604 1.268 . S
O611 Sc598 2.105 . S
O611 C605 1.268 . S
O612 Sc600 2.105 . S
O612 C606 1.268 . S
O613 Sc599 2.105 . S
O613 C607 1.268 . S
O614 Sc598 2.105 . S
O614 C606 1.268 . S
O615 Sc599 2.105 . S
O615 C605 1.268 . S
O616 Sc600 2.105 . S
O616 C607 1.268 . S
O617 Sc598 2.105 . S
O617 C603 1.268 . S
O618 Sc600 2.105 . S
O618 C602 1.268 . S
O619 Sc599 2.105 . S
O619 C604 1.268 . S
Sc620 O623 2.025 . S
Sc620 O630 2.105 . S
Sc620 O633 2.105 . S
Sc620 O636 2.105 . S
Sc620 O639 2.105 . S
Sc621 O623 2.025 . S
Sc621 O631 2.105 . S
Sc621 O635 2.105 . S
Sc621 O637 2.105 . S
Sc621 O641 2.105 . S
Sc622 O623 2.025 . S
Sc622 O632 2.105 . S
Sc622 O634 2.105 . S
Sc622 O638 2.105 . S
Sc622 O640 2.105 . S
O623 Sc620 2.025 . S
O623 Sc621 2.025 . S
O623 Sc622 2.025 . S
C624 O630 1.268 . S
C624 O640 1.268 . S
C625 O631 1.268 . S
C625 O639 1.268 . S
C626 O632 1.268 . S
C626 O641 1.268 . S
C627 O633 1.268 . S
C627 O637 1.268 . S
C628 O634 1.268 . S
C628 O636 1.268 . S
C629 O635 1.268 . S
C629 O638 1.268 . S
O630 Sc620 2.105 . S
O630 C624 1.268 . S
O631 Sc621 2.105 . S
O631 C625 1.268 . S
O632 Sc622 2.105 . S
O632 C626 1.268 . S
O633 Sc620 2.105 . S
O633 C627 1.268 . S
O634 Sc622 2.105 . S
O634 C628 1.268 . S
O635 Sc621 2.105 . S
O635 C629 1.268 . S
O636 Sc620 2.105 . S
O636 C628 1.268 . S
O637 Sc621 2.105 . S
O637 C627 1.268 . S
O638 Sc622 2.105 . S
O638 C629 1.268 . S
O639 Sc620 2.105 . S
O639 C625 1.268 . S
O640 Sc622 2.105 . S
O640 C624 1.268 . S
O641 Sc621 2.105 . S
O641 C626 1.268 . S
Sc642 O645 2.025 . S
Sc642 O652 2.105 . S
Sc642 O655 2.105 . S
Sc642 O658 2.105 . S
Sc642 O661 2.105 . S
Sc643 O645 2.025 . S
Sc643 O653 2.105 . S
Sc643 O657 2.105 . S
Sc643 O659 2.105 . S
Sc643 O663 2.105 . S
Sc644 O645 2.025 . S
Sc644 O654 2.105 . S
Sc644 O656 2.105 . S
Sc644 O660 2.105 . S
Sc644 O662 2.105 . S
O645 Sc642 2.025 . S
O645 Sc643 2.025 . S
O645 Sc644 2.025 . S
C646 O652 1.268 . S
C646 O662 1.268 . S
C647 O653 1.268 . S
C647 O661 1.268 . S
C648 O654 1.268 . S
C648 O663 1.268 . S
C649 O655 1.268 . S
C649 O659 1.268 . S
C650 O656 1.268 . S
C650 O658 1.268 . S
C651 O657 1.268 . S
C651 O660 1.268 . S
O652 Sc642 2.105 . S
O652 C646 1.268 . S
O653 Sc643 2.105 . S
O653 C647 1.268 . S
O654 Sc644 2.105 . S
O654 C648 1.268 . S
O655 Sc642 2.105 . S
O655 C649 1.268 . S
O656 Sc644 2.105 . S
O656 C650 1.268 . S
O657 Sc643 2.105 . S
O657 C651 1.268 . S
O658 Sc642 2.105 . S
O658 C650 1.268 . S
O659 Sc643 2.105 . S
O659 C649 1.268 . S
O660 Sc644 2.105 . S
O660 C651 1.268 . S
O661 Sc642 2.105 . S
O661 C647 1.268 . S
O662 Sc644 2.105 . S
O662 C646 1.268 . S
O663 Sc643 2.105 . S
O663 C648 1.268 . S
H664 C672 0.929 . S
H665 C674 0.930 . S
H666 C676 0.930 . S
H667 C679 0.929 . S
H668 C682 0.930 . S
H669 C684 0.960 . S
H670 C684 0.960 . S
H671 C684 0.960 . S
C672 H664 0.929 . S
C672 C673 1.377 . S
C672 C674 1.384 . S
C673 C672 1.377 . S
C673 C679 1.390 . S
C674 H665 0.930 . S
C674 C672 1.384 . S
C674 C675 1.372 . S
C675 C674 1.372 . S
C675 C676 1.400 . S
C675 C680 1.490 . S
C676 H666 0.930 . S
C676 C675 1.400 . S
C676 C679 1.386 . S
H677 C693 0.930 . S
H678 C694 0.931 . S
C679 H667 0.929 . S
C679 C673 1.390 . S
C679 C676 1.386 . S
C680 C675 1.490 . S
C680 C682 1.395 . S
C680 C683 1.403 . S
H681 C687 0.930 . S
C682 H668 0.930 . S
C682 C680 1.395 . S
C682 C685 1.403 . S
C683 C680 1.403 . S
C683 C684 1.524 . S
C683 C687 1.400 . S
C684 H669 0.960 . S
C684 H670 0.960 . S
C684 H671 0.960 . S
C684 C683 1.524 . S
C685 C682 1.403 . S
C685 C686 1.392 . S
C685 C689 1.495 . S
C686 C685 1.392 . S
C686 C687 1.385 . S
C686 C688 1.478 . S
C687 H681 0.930 . S
C687 C683 1.400 . S
C687 C686 1.385 . S
C688 C686 1.478 . S
C688 C690 1.381 . S
C688 C694 1.383 . S
C689 C685 1.495 . S
C689 H695 0.959 . S
C689 H696 0.961 . S
C689 H697 0.960 . S
C690 C688 1.381 . S
C690 C691 1.394 . S
C690 H698 0.930 . S
C691 C690 1.394 . S
C691 C692 1.383 . S
C691 H699 0.929 . S
C692 C691 1.383 . S
C692 C693 1.377 . S
C693 H677 0.930 . S
C693 C692 1.377 . S
C693 C694 1.379 . S
C694 H678 0.931 . S
C694 C688 1.383 . S
C694 C693 1.379 . S
H695 C689 0.959 . S
H696 C689 0.961 . S
H697 C689 0.960 . S
H698 C690 0.930 . S
H699 C691 0.929 . S
H700 C708 0.929 . S
H701 C710 0.930 . S
H702 C712 0.930 . S
H703 C715 0.929 . S
H704 C718 0.930 . S
H705 C720 0.960 . S
H706 C720 0.960 . S
H707 C720 0.960 . S
C708 H700 0.929 . S
C708 C709 1.377 . S
C708 C710 1.384 . S
C709 C708 1.377 . S
C709 C715 1.390 . S
C710 H701 0.930 . S
C710 C708 1.384 . S
C710 C711 1.372 . S
C711 C710 1.372 . S
C711 C712 1.400 . S
C711 C716 1.490 . S
C712 H702 0.930 . S
C712 C711 1.400 . S
C712 C715 1.386 . S
H713 C729 0.930 . S
H714 C730 0.931 . S
C715 H703 0.929 . S
C715 C709 1.390 . S
C715 C712 1.386 . S
C716 C711 1.490 . S
C716 C718 1.395 . S
C716 C719 1.403 . S
H717 C723 0.930 . S
C718 H704 0.930 . S
C718 C716 1.395 . S
C718 C721 1.403 . S
C719 C716 1.403 . S
C719 C720 1.524 . S
C719 C723 1.400 . S
C720 H705 0.960 . S
C720 H706 0.960 . S
C720 H707 0.960 . S
C720 C719 1.524 . S
C721 C718 1.403 . S
C721 C722 1.392 . S
C721 C725 1.495 . S
C722 C721 1.392 . S
C722 C723 1.385 . S
C722 C724 1.478 . S
C723 H717 0.930 . S
C723 C719 1.400 . S
C723 C722 1.385 . S
C724 C722 1.478 . S
C724 C726 1.381 . S
C724 C730 1.383 . S
C725 C721 1.495 . S
C725 H731 0.959 . S
C725 H732 0.961 . S
C725 H733 0.960 . S
C726 C724 1.381 . S
C726 C727 1.394 . S
C726 H734 0.930 . S
C727 C726 1.394 . S
C727 C728 1.383 . S
C727 H735 0.929 . S
C728 C727 1.383 . S
C728 C729 1.377 . S
C729 H713 0.930 . S
C729 C728 1.377 . S
C729 C730 1.379 . S
C730 H714 0.931 . S
C730 C724 1.383 . S
C730 C729 1.379 . S
H731 C725 0.959 . S
H732 C725 0.961 . S
H733 C725 0.960 . S
H734 C726 0.930 . S
H735 C727 0.929 . S
H736 C744 0.929 . S
H737 C746 0.930 . S
H738 C748 0.930 . S
H739 C751 0.929 . S
H740 C754 0.930 . S
H741 C756 0.960 . S
H742 C756 0.960 . S
H743 C756 0.960 . S
C744 H736 0.929 . S
C744 C745 1.377 . S
C744 C746 1.384 . S
C745 C744 1.377 . S
C745 C751 1.390 . S
C746 H737 0.930 . S
C746 C744 1.384 . S
C746 C747 1.372 . S
C747 C746 1.372 . S
C747 C748 1.400 . S
C747 C752 1.490 . S
C748 H738 0.930 . S
C748 C747 1.400 . S
C748 C751 1.386 . S
H749 C765 0.930 . S
H750 C766 0.931 . S
C751 H739 0.929 . S
C751 C745 1.390 . S
C751 C748 1.386 . S
C752 C747 1.490 . S
C752 C754 1.395 . S
C752 C755 1.403 . S
H753 C759 0.930 . S
C754 H740 0.930 . S
C754 C752 1.395 . S
C754 C757 1.403 . S
C755 C752 1.403 . S
C755 C756 1.524 . S
C755 C759 1.400 . S
C756 H741 0.960 . S
C756 H742 0.960 . S
C756 H743 0.960 . S
C756 C755 1.524 . S
C757 C754 1.403 . S
C757 C758 1.392 . S
C757 C761 1.495 . S
C758 C757 1.392 . S
C758 C759 1.385 . S
C758 C760 1.478 . S
C759 H753 0.930 . S
C759 C755 1.400 . S
C759 C758 1.385 . S
C760 C758 1.478 . S
C760 C762 1.381 . S
C760 C766 1.383 . S
C761 C757 1.495 . S
C761 H767 0.959 . S
C761 H768 0.961 . S
C761 H769 0.960 . S
C762 C760 1.381 . S
C762 C763 1.394 . S
C762 H770 0.930 . S
C763 C762 1.394 . S
C763 C764 1.383 . S
C763 H771 0.929 . S
C764 C763 1.383 . S
C764 C765 1.377 . S
C765 H749 0.930 . S
C765 C764 1.377 . S
C765 C766 1.379 . S
C766 H750 0.931 . S
C766 C760 1.383 . S
C766 C765 1.379 . S
H767 C761 0.959 . S
H768 C761 0.961 . S
H769 C761 0.960 . S
H770 C762 0.930 . S
H771 C763 0.929 . S
H772 C780 0.929 . S
H773 C782 0.930 . S
H774 C784 0.930 . S
H775 C787 0.929 . S
H776 C790 0.930 . S
H777 C792 0.960 . S
H778 C792 0.960 . S
H779 C792 0.960 . S
C780 H772 0.929 . S
C780 C781 1.377 . S
C780 C782 1.384 . S
C781 C780 1.377 . S
C781 C787 1.390 . S
C782 H773 0.930 . S
C782 C780 1.384 . S
C782 C783 1.372 . S
C783 C782 1.372 . S
C783 C784 1.400 . S
C783 C788 1.490 . S
C784 H774 0.930 . S
C784 C783 1.400 . S
C784 C787 1.386 . S
H785 C801 0.930 . S
H786 C802 0.931 . S
C787 H775 0.929 . S
C787 C781 1.390 . S
C787 C784 1.386 . S
C788 C783 1.490 . S
C788 C790 1.395 . S
C788 C791 1.403 . S
H789 C795 0.940 . S
C790 H776 0.930 . S
C790 C788 1.395 . S
C790 C793 1.403 . S
C791 C788 1.403 . S
C791 C792 1.524 . S
C791 C795 1.384 1_554 S
C792 H777 0.960 . S
C792 H778 0.960 . S
C792 H779 0.960 . S
C792 C791 1.524 . S
C793 C790 1.403 . S
C793 C794 1.392 1_554 S
C793 C797 1.495 1_554 S
C794 C793 1.392 1_556 S
C794 C795 1.391 . S
C794 C796 1.478 . S
C795 H789 0.940 . S
C795 C791 1.384 1_556 S
C795 C794 1.391 . S
C796 C794 1.478 . S
C796 C798 1.381 . S
C796 C802 1.383 . S
C797 C793 1.495 1_556 S
C797 H803 0.959 1_556 S
C797 H804 0.961 . S
C797 H805 0.960 . S
C798 C796 1.381 . S
C798 C799 1.394 . S
C798 H806 0.930 . S
C799 C798 1.394 . S
C799 C800 1.383 . S
C799 H807 0.929 . S
C800 C799 1.383 . S
C800 C801 1.377 . S
C801 H785 0.930 . S
C801 C800 1.377 . S
C801 C802 1.379 . S
C802 H786 0.931 . S
C802 C796 1.383 . S
C802 C801 1.379 . S
H803 C797 0.959 1_554 S
H804 C797 0.961 . S
H805 C797 0.960 . S
H806 C798 0.930 . S
H807 C799 0.929 . S
H808 C816 0.929 . S
H809 C818 0.930 . S
H810 C820 0.930 . S
H811 C823 0.929 . S
H812 C826 0.930 . S
H813 C828 0.960 . S
H814 C828 0.960 . S
H815 C828 0.960 . S
C816 H808 0.929 . S
C816 C817 1.377 . S
C816 C818 1.384 . S
C817 C816 1.377 . S
C817 C823 1.390 . S
C818 H809 0.930 . S
C818 C816 1.384 . S
C818 C819 1.372 . S
C819 C818 1.372 . S
C819 C820 1.400 . S
C819 C824 1.490 . S
C820 H810 0.930 . S
C820 C819 1.400 . S
C820 C823 1.386 . S
H821 C837 0.930 . S
H822 C838 0.931 . S
C823 H811 0.929 . S
C823 C817 1.390 . S
C823 C820 1.386 . S
C824 C819 1.490 . S
C824 C826 1.395 . S
C824 C827 1.403 . S
H825 C831 0.930 . S
C826 H812 0.930 . S
C826 C824 1.395 . S
C826 C829 1.403 . S
C827 C824 1.403 . S
C827 C828 1.524 . S
C827 C831 1.400 . S
C828 H813 0.960 . S
C828 H814 0.960 . S
C828 H815 0.960 . S
C828 C827 1.524 . S
C829 C826 1.403 . S
C829 C830 1.392 . S
C829 C833 1.495 . S
C830 C829 1.392 . S
C830 C831 1.385 . S
C830 C832 1.478 . S
C831 H825 0.930 . S
C831 C827 1.400 . S
C831 C830 1.385 . S
C832 C830 1.478 . S
C832 C834 1.381 . S
C832 C838 1.383 . S
C833 C829 1.495 . S
C833 H839 0.959 . S
C833 H840 0.961 . S
C833 H841 0.960 . S
C834 C832 1.381 . S
C834 C835 1.394 . S
C834 H842 0.930 . S
C835 C834 1.394 . S
C835 C836 1.383 . S
C835 H843 0.929 . S
C836 C835 1.383 . S
C836 C837 1.377 . S
C837 H821 0.930 . S
C837 C836 1.377 . S
C837 C838 1.379 . S
C838 H822 0.931 . S
C838 C832 1.383 . S
C838 C837 1.379 . S
H839 C833 0.959 . S
H840 C833 0.961 . S
H841 C833 0.960 . S
H842 C834 0.930 . S
H843 C835 0.929 . S
H844 C852 0.929 . S
H845 C854 0.930 . S
H846 C856 0.930 . S
H847 C859 0.929 . S
H848 C862 0.930 . S
H849 C864 0.960 . S
H850 C864 0.960 . S
H851 C864 0.960 . S
C852 H844 0.929 . S
C852 C853 1.377 . S
C852 C854 1.384 . S
C853 C852 1.377 . S
C853 C859 1.390 . S
C854 H845 0.930 . S
C854 C852 1.384 . S
C854 C855 1.372 . S
C855 C854 1.372 . S
C855 C856 1.400 . S
C855 C860 1.490 . S
C856 H846 0.930 . S
C856 C855 1.400 . S
C856 C859 1.386 . S
H857 C873 0.930 . S
H858 C874 0.931 . S
C859 H847 0.929 . S
C859 C853 1.390 . S
C859 C856 1.386 . S
C860 C855 1.490 . S
C860 C862 1.395 . S
C860 C863 1.403 . S
H861 C867 0.930 . S
C862 H848 0.930 . S
C862 C860 1.395 . S
C862 C865 1.403 . S
C863 C860 1.403 . S
C863 C864 1.524 . S
C863 C867 1.400 . S
C864 H849 0.960 . S
C864 H850 0.960 . S
C864 H851 0.960 . S
C864 C863 1.524 . S
C865 C862 1.403 . S
C865 C866 1.392 . S
C865 C869 1.495 . S
C866 C865 1.392 . S
C866 C867 1.385 . S
C866 C868 1.478 . S
C867 H861 0.930 . S
C867 C863 1.400 . S
C867 C866 1.385 . S
C868 C866 1.478 . S
C868 C870 1.381 . S
C868 C874 1.383 . S
C869 C865 1.495 . S
C869 H875 0.959 . S
C869 H876 0.961 . S
C869 H877 0.960 . S
C870 C868 1.381 . S
C870 C871 1.394 . S
C870 H878 0.930 . S
C871 C870 1.394 . S
C871 C872 1.383 . S
C871 H879 0.929 . S
C872 C871 1.383 . S
C872 C873 1.377 . S
C873 H857 0.930 . S
C873 C872 1.377 . S
C873 C874 1.379 . S
C874 H858 0.931 . S
C874 C868 1.383 . S
C874 C873 1.379 . S
H875 C869 0.959 . S
H876 C869 0.961 . S
H877 C869 0.960 . S
H878 C870 0.930 . S
H879 C871 0.929 . S
H880 C888 0.929 . S
H881 C890 0.930 . S
H882 C892 0.930 . S
H883 C895 0.929 . S
H884 C898 0.930 . S
H885 C900 0.960 . S
H886 C900 0.960 . S
H887 C900 0.960 . S
C888 H880 0.929 . S
C888 C889 1.377 . S
C888 C890 1.384 . S
C889 C888 1.377 . S
C889 C895 1.390 . S
C890 H881 0.930 . S
C890 C888 1.384 . S
C890 C891 1.372 . S
C891 C890 1.372 . S
C891 C892 1.400 . S
C891 C896 1.490 . S
C892 H882 0.930 . S
C892 C891 1.400 . S
C892 C895 1.386 . S
H893 C909 0.930 . S
H894 C910 0.931 . S
C895 H883 0.929 . S
C895 C889 1.390 . S
C895 C892 1.386 . S
C896 C891 1.490 . S
C896 C898 1.395 . S
C896 C899 1.403 . S
H897 C903 0.930 . S
C898 H884 0.930 . S
C898 C896 1.395 . S
C898 C901 1.403 . S
C899 C896 1.403 . S
C899 C900 1.524 . S
C899 C903 1.400 . S
C900 H885 0.960 . S
C900 H886 0.960 . S
C900 H887 0.960 . S
C900 C899 1.524 . S
C901 C898 1.403 . S
C901 C902 1.392 . S
C901 C905 1.495 . S
C902 C901 1.392 . S
C902 C903 1.385 . S
C902 C904 1.478 . S
C903 H897 0.930 . S
C903 C899 1.400 . S
C903 C902 1.385 . S
C904 C902 1.478 . S
C904 C906 1.381 . S
C904 C910 1.383 . S
C905 C901 1.495 . S
C905 H911 0.959 . S
C905 H912 0.961 . S
C905 H913 0.960 . S
C906 C904 1.381 . S
C906 C907 1.394 . S
C906 H914 0.930 . S
C907 C906 1.394 . S
C907 C908 1.383 . S
C907 H915 0.929 . S
C908 C907 1.383 . S
C908 C909 1.377 . S
C909 H893 0.930 . S
C909 C908 1.377 . S
C909 C910 1.379 . S
C910 H894 0.931 . S
C910 C904 1.383 . S
C910 C909 1.379 . S
H911 C905 0.959 . S
H912 C905 0.961 . S
H913 C905 0.960 . S
H914 C906 0.930 . S
H915 C907 0.929 . S
H916 C924 0.929 . S
H917 C926 0.930 . S
H918 C928 0.930 . S
H919 C931 0.929 . S
H920 C934 0.930 . S
H921 C936 0.960 . S
H922 C936 0.960 . S
H923 C936 0.960 . S
C924 H916 0.929 . S
C924 C925 1.377 . S
C924 C926 1.384 . S
C925 C924 1.377 . S
C925 C931 1.390 . S
C926 H917 0.930 . S
C926 C924 1.384 . S
C926 C927 1.372 . S
C927 C926 1.372 . S
C927 C928 1.400 . S
C927 C932 1.490 . S
C928 H918 0.930 . S
C928 C927 1.400 . S
C928 C931 1.386 . S
H929 C945 0.930 . S
H930 C946 0.931 . S
C931 H919 0.929 . S
C931 C925 1.390 . S
C931 C928 1.386 . S
C932 C927 1.490 . S
C932 C934 1.395 . S
C932 C935 1.403 . S
H933 C939 0.930 . S
C934 H920 0.930 . S
C934 C932 1.395 . S
C934 C937 1.403 1_556 S
C935 C932 1.403 . S
C935 C936 1.524 . S
C935 C939 1.400 . S
C936 H921 0.960 . S
C936 H922 0.960 . S
C936 H923 0.960 . S
C936 C935 1.524 . S
C937 C934 1.403 1_554 S
C937 C938 1.392 . S
C937 C941 1.495 . S
C938 C937 1.392 . S
C938 C939 1.385 1_554 S
C938 C940 1.478 . S
C939 H933 0.930 . S
C939 C935 1.400 . S
C939 C938 1.385 1_556 S
C940 C938 1.478 . S
C940 C942 1.381 . S
C940 C946 1.383 . S
C941 C937 1.495 . S
C941 H947 0.959 . S
C941 H948 0.961 . S
C941 H949 0.960 . S
C942 C940 1.381 . S
C942 C943 1.394 . S
C942 H950 0.930 . S
C943 C942 1.394 . S
C943 C944 1.383 . S
C943 H951 0.929 . S
C944 C943 1.383 . S
C944 C945 1.377 . S
C945 H929 0.930 . S
C945 C944 1.377 . S
C945 C946 1.379 . S
C946 H930 0.931 . S
C946 C940 1.383 . S
C946 C945 1.379 . S
H947 C941 0.959 . S
H948 C941 0.961 . S
H949 C941 0.960 . S
H950 C942 0.930 . S
H951 C943 0.929 . S
H952 C960 0.929 . S
H953 C962 0.930 . S
H954 C964 0.930 . S
H955 C967 0.929 . S
H956 C970 0.930 . S
H957 C972 0.960 . S
H958 C972 0.960 . S
H959 C972 0.960 . S
C960 H952 0.929 . S
C960 C961 1.377 . S
C960 C962 1.384 . S
C961 C960 1.377 . S
C961 C967 1.390 . S
C962 H953 0.930 . S
C962 C960 1.384 . S
C962 C963 1.372 . S
C963 C962 1.372 . S
C963 C964 1.400 . S
C963 C968 1.490 . S
C964 H954 0.930 . S
C964 C963 1.400 . S
C964 C967 1.386 . S
H965 C981 0.930 . S
H966 C982 0.931 . S
C967 H955 0.929 . S
C967 C961 1.390 . S
C967 C964 1.386 . S
C968 C963 1.490 . S
C968 C970 1.395 . S
C968 C971 1.403 . S
H969 C975 0.930 . S
C970 H956 0.930 . S
C970 C968 1.395 . S
C970 C973 1.403 . S
C971 C968 1.403 . S
C971 C972 1.524 . S
C971 C975 1.400 . S
C972 H957 0.960 . S
C972 H958 0.960 . S
C972 H959 0.960 . S
C972 C971 1.524 . S
C973 C970 1.403 . S
C973 C974 1.392 . S
C973 C977 1.495 . S
C974 C973 1.392 . S
C974 C975 1.385 . S
C974 C976 1.478 . S
C975 H969 0.930 . S
C975 C971 1.400 . S
C975 C974 1.385 . S
C976 C974 1.478 . S
C976 C978 1.381 . S
C976 C982 1.383 . S
C977 C973 1.495 . S
C977 H983 0.959 . S
C977 H984 0.961 . S
C977 H985 0.960 . S
C978 C976 1.381 . S
C978 C979 1.394 . S
C978 H986 0.930 . S
C979 C978 1.394 . S
C979 C980 1.383 . S
C979 H987 0.929 . S
C980 C979 1.383 . S
C980 C981 1.377 . S
C981 H965 0.930 . S
C981 C980 1.377 . S
C981 C982 1.379 . S
C982 H966 0.931 . S
C982 C976 1.383 . S
C982 C981 1.379 . S
H983 C977 0.959 . S
H984 C977 0.961 . S
H985 C977 0.960 . S
H986 C978 0.930 . S
H987 C979 0.929 . S
H988 C996 0.929 . S
H989 C998 0.930 . S
H990 C1000 0.930 . S
H991 C1003 0.929 . S
H992 C1006 0.930 . S
H993 C1008 0.960 . S
H994 C1008 0.960 . S
H995 C1008 0.960 . S
C996 H988 0.929 . S
C996 C997 1.377 . S
C996 C998 1.384 . S
C997 C996 1.377 . S
C997 C1003 1.390 . S
C998 H989 0.930 . S
C998 C996 1.384 . S
C998 C999 1.372 . S
C999 C998 1.372 . S
C999 C1000 1.400 . S
C999 C1004 1.490 . S
C1000 H990 0.930 . S
C1000 C999 1.400 . S
C1000 C1003 1.386 . S
H1001 C1017 0.930 . S
H1002 C1018 0.931 . S
C1003 H991 0.929 . S
C1003 C997 1.390 . S
C1003 C1000 1.386 . S
C1004 C999 1.490 . S
C1004 C1006 1.395 . S
C1004 C1007 1.403 . S
H1005 C1011 0.930 . S
C1006 H992 0.930 . S
C1006 C1004 1.395 . S
C1006 C1009 1.403 1_545 S
C1007 C1004 1.403 . S
C1007 C1008 1.524 . S
C1007 C1011 1.400 . S
C1008 H993 0.960 . S
C1008 H994 0.960 . S
C1008 H995 0.960 . S
C1008 C1007 1.524 . S
C1009 C1006 1.403 1_565 S
C1009 C1010 1.392 . S
C1009 C1013 1.495 . S
C1010 C1009 1.392 . S
C1010 C1011 1.385 1_565 S
C1010 C1012 1.478 . S
C1011 H1005 0.930 . S
C1011 C1007 1.400 . S
C1011 C1010 1.385 1_545 S
C1012 C1010 1.478 . S
C1012 C1014 1.381 . S
C1012 C1018 1.383 . S
C1013 C1009 1.495 . S
C1013 H1019 0.959 . S
C1013 H1020 0.961 . S
C1013 H1021 0.960 . S
C1014 C1012 1.381 . S
C1014 C1015 1.394 . S
C1014 H1022 0.930 . S
C1015 C1014 1.394 . S
C1015 C1016 1.383 . S
C1015 H1023 0.929 . S
C1016 C1015 1.383 . S
C1016 C1017 1.377 . S
C1017 H1001 0.930 . S
C1017 C1016 1.377 . S
C1017 C1018 1.379 . S
C1018 H1002 0.931 . S
C1018 C1012 1.383 . S
C1018 C1017 1.379 . S
H1019 C1013 0.959 . S
H1020 C1013 0.961 . S
H1021 C1013 0.960 . S
H1022 C1014 0.930 . S
H1023 C1015 0.929 . S
H1024 C1032 0.929 . S
H1025 C1034 0.930 . S
H1026 C1036 0.930 . S
H1027 C1039 0.929 . S
H1028 C1042 0.930 . S
H1029 C1044 0.960 . S
H1030 C1044 0.960 . S
H1031 C1044 0.960 . S
C1032 H1024 0.929 . S
C1032 C1033 1.377 . S
C1032 C1034 1.384 . S
C1033 C1032 1.377 . S
C1033 C1039 1.390 . S
C1034 H1025 0.930 . S
C1034 C1032 1.384 . S
C1034 C1035 1.372 . S
C1035 C1034 1.372 . S
C1035 C1036 1.400 . S
C1035 C1040 1.490 . S
C1036 H1026 0.930 . S
C1036 C1035 1.400 . S
C1036 C1039 1.386 . S
H1037 C1053 0.930 . S
H1038 C1054 0.931 . S
C1039 H1027 0.929 . S
C1039 C1033 1.390 . S
C1039 C1036 1.386 . S
C1040 C1035 1.490 . S
C1040 C1042 1.395 . S
C1040 C1043 1.403 . S
H1041 C1047 0.930 . S
C1042 H1028 0.930 . S
C1042 C1040 1.395 . S
C1042 C1045 1.403 . S
C1043 C1040 1.403 . S
C1043 C1044 1.524 . S
C1043 C1047 1.400 . S
C1044 H1029 0.960 . S
C1044 H1030 0.960 . S
C1044 H1031 0.960 . S
C1044 C1043 1.524 . S
C1045 C1042 1.403 . S
C1045 C1046 1.392 . S
C1045 C1049 1.495 . S
C1046 C1045 1.392 . S
C1046 C1047 1.385 . S
C1046 C1048 1.478 . S
C1047 H1041 0.930 . S
C1047 C1043 1.400 . S
C1047 C1046 1.385 . S
C1048 C1046 1.478 . S
C1048 C1050 1.381 . S
C1048 C1054 1.383 . S
C1049 C1045 1.495 . S
C1049 H1055 0.959 . S
C1049 H1056 0.961 . S
C1049 H1057 0.960 . S
C1050 C1048 1.381 . S
C1050 C1051 1.394 . S
C1050 H1058 0.930 . S
C1051 C1050 1.394 . S
C1051 C1052 1.383 . S
C1051 H1059 0.929 . S
C1052 C1051 1.383 . S
C1052 C1053 1.377 . S
C1053 H1037 0.930 . S
C1053 C1052 1.377 . S
C1053 C1054 1.379 . S
C1054 H1038 0.931 . S
C1054 C1048 1.383 . S
C1054 C1053 1.379 . S
H1055 C1049 0.959 . S
H1056 C1049 0.961 . S
H1057 C1049 0.960 . S
H1058 C1050 0.930 . S
H1059 C1051 0.929 . S
H1060 C1068 0.929 . S
H1061 C1070 0.930 . S
H1062 C1072 0.930 . S
H1063 C1075 0.929 . S
H1064 C1078 0.930 . S
H1065 C1080 0.960 . S
H1066 C1080 0.960 . S
H1067 C1080 0.960 . S
C1068 H1060 0.929 . S
C1068 C1069 1.377 . S
C1068 C1070 1.384 . S
C1069 C1068 1.377 . S
C1069 C1075 1.390 . S
C1070 H1061 0.930 . S
C1070 C1068 1.384 . S
C1070 C1071 1.372 . S
C1071 C1070 1.372 . S
C1071 C1072 1.400 . S
C1071 C1076 1.490 . S
C1072 H1062 0.930 . S
C1072 C1071 1.400 . S
C1072 C1075 1.386 . S
H1073 C1089 0.930 . S
H1074 C1090 0.931 . S
C1075 H1063 0.929 . S
C1075 C1069 1.390 . S
C1075 C1072 1.386 . S
C1076 C1071 1.490 . S
C1076 C1078 1.395 . S
C1076 C1079 1.403 . S
H1077 C1083 0.931 . S
C1078 H1064 0.930 . S
C1078 C1076 1.395 . S
C1078 C1081 1.403 1_565 S
C1079 C1076 1.403 . S
C1079 C1080 1.524 . S
C1079 C1083 1.400 . S
C1080 H1065 0.960 . S
C1080 H1066 0.960 . S
C1080 H1067 0.960 . S
C1080 C1079 1.524 . S
C1081 C1078 1.403 1_545 S
C1081 C1082 1.392 . S
C1081 C1085 1.495 . S
C1082 C1081 1.392 . S
C1082 C1083 1.385 1_545 S
C1082 C1084 1.478 . S
C1083 H1077 0.931 . S
C1083 C1079 1.400 . S
C1083 C1082 1.385 1_565 S
C1084 C1082 1.478 . S
C1084 C1086 1.381 . S
C1084 C1090 1.383 . S
C1085 C1081 1.495 . S
C1085 H1091 0.959 . S
C1085 H1092 0.961 . S
C1085 H1093 0.960 . S
C1086 C1084 1.381 . S
C1086 C1087 1.394 . S
C1086 H1094 0.930 . S
C1087 C1086 1.394 . S
C1087 C1088 1.383 . S
C1087 H1095 0.929 . S
C1088 C1087 1.383 . S
C1088 C1089 1.377 . S
C1089 H1073 0.930 . S
C1089 C1088 1.377 . S
C1089 C1090 1.379 . S
C1090 H1074 0.931 . S
C1090 C1084 1.383 . S
C1090 C1089 1.379 . S
H1091 C1085 0.959 . S
H1092 C1085 0.961 . S
H1093 C1085 0.960 . S
H1094 C1086 0.930 . S
H1095 C1087 0.929 . S
H1096 C1104 0.899 1_545 S
H1097 C1106 0.930 . S
H1098 C1108 0.930 . S
H1099 C1111 0.929 . S
H1100 C1114 0.930 . S
H1101 C1116 0.960 . S
H1102 C1116 0.960 . S
H1103 C1116 0.960 . S
C1104 H1096 0.899 1_565 S
C1104 C1105 1.377 . S
C1104 C1106 1.384 . S
C1105 C1104 1.377 . S
C1105 C1111 1.390 . S
C1106 H1097 0.930 . S
C1106 C1104 1.384 . S
C1106 C1107 1.372 . S
C1107 C1106 1.372 . S
C1107 C1108 1.400 . S
C1107 C1112 1.490 . S
C1108 H1098 0.930 . S
C1108 C1107 1.400 . S
C1108 C1111 1.386 . S
H1109 C1125 0.930 . S
H1110 C1126 0.931 . S
C1111 H1099 0.929 . S
C1111 C1105 1.390 . S
C1111 C1108 1.386 . S
C1112 C1107 1.490 . S
C1112 C1114 1.395 . S
C1112 C1115 1.403 . S
H1113 C1119 0.930 . S
C1114 H1100 0.930 . S
C1114 C1112 1.395 . S
C1114 C1117 1.403 . S
C1115 C1112 1.403 . S
C1115 C1116 1.524 . S
C1115 C1119 1.400 . S
C1116 H1101 0.960 . S
C1116 H1102 0.960 . S
C1116 H1103 0.960 . S
C1116 C1115 1.524 . S
C1117 C1114 1.403 . S
C1117 C1118 1.392 . S
C1117 C1121 1.495 . S
C1118 C1117 1.392 . S
C1118 C1119 1.385 . S
C1118 C1120 1.478 . S
C1119 H1113 0.930 . S
C1119 C1115 1.400 . S
C1119 C1118 1.385 . S
C1120 C1118 1.478 . S
C1120 C1122 1.381 . S
C1120 C1126 1.383 . S
C1121 C1117 1.495 . S
C1121 H1127 0.959 . S
C1121 H1128 0.961 . S
C1121 H1129 0.960 . S
C1122 C1120 1.381 . S
C1122 C1123 1.394 . S
C1122 H1130 0.930 . S
C1123 C1122 1.394 . S
C1123 C1124 1.383 . S
C1123 H1131 0.929 . S
C1124 C1123 1.383 . S
C1124 C1125 1.377 . S
C1125 H1109 0.930 . S
C1125 C1124 1.377 . S
C1125 C1126 1.379 . S
C1126 H1110 0.931 . S
C1126 C1120 1.383 . S
C1126 C1125 1.379 . S
H1127 C1121 0.959 . S
H1128 C1121 0.961 . S
H1129 C1121 0.960 . S
H1130 C1122 0.930 . S
H1131 C1123 0.929 . S
H1132 C1140 0.929 . S
H1133 C1142 0.930 . S
H1134 C1144 0.930 . S
H1135 C1147 0.929 . S
H1136 C1150 0.930 . S
H1137 C1152 0.960 . S
H1138 C1152 0.960 . S
H1139 C1152 0.960 . S
C1140 H1132 0.929 . S
C1140 C1141 1.377 . S
C1140 C1142 1.384 . S
C1141 C1140 1.377 . S
C1141 C1147 1.390 . S
C1142 H1133 0.930 . S
C1142 C1140 1.384 . S
C1142 C1143 1.372 . S
C1143 C1142 1.372 . S
C1143 C1144 1.400 . S
C1143 C1148 1.490 . S
C1144 H1134 0.930 . S
C1144 C1143 1.400 . S
C1144 C1147 1.386 . S
H1145 C1161 0.930 . S
H1146 C1162 0.931 . S
C1147 H1135 0.929 . S
C1147 C1141 1.390 . S
C1147 C1144 1.386 . S
C1148 C1143 1.490 . S
C1148 C1150 1.395 . S
C1148 C1151 1.403 . S
H1149 C1155 0.930 . S
C1150 H1136 0.930 . S
C1150 C1148 1.395 . S
C1150 C1153 1.403 1_545 S
C1151 C1148 1.403 . S
C1151 C1152 1.524 . S
C1151 C1155 1.400 . S
C1152 H1137 0.960 . S
C1152 H1138 0.960 . S
C1152 H1139 0.960 . S
C1152 C1151 1.524 . S
C1153 C1150 1.403 1_565 S
C1153 C1154 1.392 . S
C1153 C1157 1.495 . S
C1154 C1153 1.392 . S
C1154 C1155 1.385 1_565 S
C1154 C1156 1.478 . S
C1155 H1149 0.930 . S
C1155 C1151 1.400 . S
C1155 C1154 1.385 1_545 S
C1156 C1154 1.478 . S
C1156 C1158 1.381 . S
C1156 C1162 1.383 . S
C1157 C1153 1.495 . S
C1157 H1163 0.959 . S
C1157 H1164 0.961 . S
C1157 H1165 0.960 . S
C1158 C1156 1.381 . S
C1158 C1159 1.394 . S
C1158 H1166 0.930 . S
C1159 C1158 1.394 . S
C1159 C1160 1.383 . S
C1159 H1167 0.929 . S
C1160 C1159 1.383 . S
C1160 C1161 1.377 . S
C1161 H1145 0.930 . S
C1161 C1160 1.377 . S
C1161 C1162 1.379 . S
C1162 H1146 0.931 . S
C1162 C1156 1.383 . S
C1162 C1161 1.379 . S
H1163 C1157 0.959 . S
H1164 C1157 0.961 . S
H1165 C1157 0.960 . S
H1166 C1158 0.930 . S
H1167 C1159 0.929 . S
H1168 C1176 0.929 . S
H1169 C1178 0.930 . S
H1170 C1180 0.930 . S
H1171 C1183 0.929 . S
H1172 C1186 0.930 . S
H1173 C1188 0.960 . S
H1174 C1188 0.960 . S
H1175 C1188 0.960 . S
C1176 H1168 0.929 . S
C1176 C1177 1.377 . S
C1176 C1178 1.384 . S
C1177 C1176 1.377 . S
C1177 C1183 1.390 . S
C1178 H1169 0.930 . S
C1178 C1176 1.384 . S
C1178 C1179 1.372 . S
C1179 C1178 1.372 . S
C1179 C1180 1.400 . S
C1179 C1184 1.490 . S
C1180 H1170 0.930 . S
C1180 C1179 1.400 . S
C1180 C1183 1.386 . S
H1181 C1197 0.930 . S
H1182 C1198 0.931 . S
C1183 H1171 0.929 . S
C1183 C1177 1.390 . S
C1183 C1180 1.386 . S
C1184 C1179 1.490 . S
C1184 C1186 1.395 . S
C1184 C1187 1.403 . S
H1185 C1191 0.930 . S
C1186 H1172 0.930 . S
C1186 C1184 1.395 . S
C1186 C1189 1.403 . S
C1187 C1184 1.403 . S
C1187 C1188 1.524 . S
C1187 C1191 1.400 . S
C1188 H1173 0.960 . S
C1188 H1174 0.960 . S
C1188 H1175 0.960 . S
C1188 C1187 1.524 . S
C1189 C1186 1.403 . S
C1189 C1190 1.392 . S
C1189 C1193 1.495 . S
C1190 C1189 1.392 . S
C1190 C1191 1.385 . S
C1190 C1192 1.478 . S
C1191 H1185 0.930 . S
C1191 C1187 1.400 . S
C1191 C1190 1.385 . S
C1192 C1190 1.478 . S
C1192 C1194 1.381 . S
C1192 C1198 1.383 . S
C1193 C1189 1.495 . S
C1193 H1199 0.959 . S
C1193 H1200 0.961 . S
C1193 H1201 0.960 . S
C1194 C1192 1.381 . S
C1194 C1195 1.394 . S
C1194 H1202 0.930 . S
C1195 C1194 1.394 . S
C1195 C1196 1.383 . S
C1195 H1203 0.929 . S
C1196 C1195 1.383 . S
C1196 C1197 1.377 . S
C1197 H1181 0.930 . S
C1197 C1196 1.377 . S
C1197 C1198 1.379 . S
C1198 H1182 0.931 . S
C1198 C1192 1.383 . S
C1198 C1197 1.379 . S
H1199 C1193 0.959 . S
H1200 C1193 0.961 . S
H1201 C1193 0.960 . S
H1202 C1194 0.930 . S
H1203 C1195 0.929 . S
H1204 C1212 0.929 . S
H1205 C1214 0.930 . S
H1206 C1216 0.930 . S
H1207 C1219 0.929 . S
H1208 C1222 0.930 . S
H1209 C1224 0.960 . S
H1210 C1224 0.960 . S
H1211 C1224 0.960 . S
C1212 H1204 0.929 . S
C1212 C1213 1.377 . S
C1212 C1214 1.384 . S
C1213 C1212 1.377 . S
C1213 C1219 1.390 . S
C1214 H1205 0.930 . S
C1214 C1212 1.384 . S
C1214 C1215 1.372 . S
C1215 C1214 1.372 . S
C1215 C1216 1.400 . S
C1215 C1220 1.490 . S
C1216 H1206 0.930 . S
C1216 C1215 1.400 . S
C1216 C1219 1.386 . S
H1217 C1233 0.930 . S
H1218 C1234 0.931 . S
C1219 H1207 0.929 . S
C1219 C1213 1.390 . S
C1219 C1216 1.386 . S
C1220 C1215 1.490 . S
C1220 C1222 1.395 . S
C1220 C1223 1.403 . S
H1221 C1227 0.930 . S
C1222 H1208 0.930 . S
C1222 C1220 1.395 . S
C1222 C1225 1.403 1_565 S
C1223 C1220 1.403 . S
C1223 C1224 1.524 . S
C1223 C1227 1.400 . S
C1224 H1209 0.960 . S
C1224 H1210 0.960 . S
C1224 H1211 0.960 . S
C1224 C1223 1.524 . S
C1225 C1222 1.403 1_545 S
C1225 C1226 1.392 . S
C1225 C1229 1.495 . S
C1226 C1225 1.392 . S
C1226 C1227 1.385 1_545 S
C1226 C1228 1.478 . S
C1227 H1221 0.930 . S
C1227 C1223 1.400 . S
C1227 C1226 1.385 1_565 S
C1228 C1226 1.478 . S
C1228 C1230 1.381 . S
C1228 C1234 1.383 . S
C1229 C1225 1.495 . S
C1229 H1235 0.959 . S
C1229 H1236 0.961 . S
C1229 H1237 0.960 . S
C1230 C1228 1.381 . S
C1230 C1231 1.394 . S
C1230 H1238 0.930 . S
C1231 C1230 1.394 . S
C1231 C1232 1.383 . S
C1231 H1239 0.929 . S
C1232 C1231 1.383 . S
C1232 C1233 1.377 . S
C1233 H1217 0.930 . S
C1233 C1232 1.377 . S
C1233 C1234 1.379 . S
C1234 H1218 0.931 . S
C1234 C1228 1.383 . S
C1234 C1233 1.379 . S
H1235 C1229 0.959 . S
H1236 C1229 0.961 . S
H1237 C1229 0.960 . S
H1238 C1230 0.930 . S
H1239 C1231 0.929 . S
H1240 C1248 0.929 . S
H1241 C1250 0.930 . S
H1242 C1252 0.930 . S
H1243 C1255 0.929 . S
H1244 C1258 0.930 . S
H1245 C1260 0.960 . S
H1246 C1260 0.960 . S
H1247 C1260 0.960 . S
C1248 H1240 0.929 . S
C1248 C1249 1.377 . S
C1248 C1250 1.384 . S
C1249 C1248 1.377 . S
C1249 C1255 1.390 . S
C1250 H1241 0.930 . S
C1250 C1248 1.384 . S
C1250 C1251 1.372 . S
C1251 C1250 1.372 . S
C1251 C1252 1.400 . S
C1251 C1256 1.490 . S
C1252 H1242 0.930 . S
C1252 C1251 1.400 . S
C1252 C1255 1.386 . S
H1253 C1269 0.930 . S
H1254 C1270 0.931 . S
C1255 H1243 0.929 . S
C1255 C1249 1.390 . S
C1255 C1252 1.386 . S
C1256 C1251 1.490 . S
C1256 C1258 1.395 . S
C1256 C1259 1.403 . S
H1257 C1263 0.930 . S
C1258 H1244 0.930 . S
C1258 C1256 1.395 . S
C1258 C1261 1.403 . S
C1259 C1256 1.403 . S
C1259 C1260 1.524 . S
C1259 C1263 1.400 . S
C1260 H1245 0.960 . S
C1260 H1246 0.960 . S
C1260 H1247 0.960 . S
C1260 C1259 1.524 . S
C1261 C1258 1.403 . S
C1261 C1262 1.392 . S
C1261 C1265 1.495 . S
C1262 C1261 1.392 . S
C1262 C1263 1.385 . S
C1262 C1264 1.478 . S
C1263 H1257 0.930 . S
C1263 C1259 1.400 . S
C1263 C1262 1.385 . S
C1264 C1262 1.478 . S
C1264 C1266 1.381 . S
C1264 C1270 1.383 . S
C1265 C1261 1.495 . S
C1265 H1271 0.959 . S
C1265 H1272 0.961 . S
C1265 H1273 0.960 . S
C1266 C1264 1.381 . S
C1266 C1267 1.394 . S
C1266 H1274 0.930 . S
C1267 C1266 1.394 . S
C1267 C1268 1.383 . S
C1267 H1275 0.929 . S
C1268 C1267 1.383 . S
C1268 C1269 1.377 . S
C1269 H1253 0.930 . S
C1269 C1268 1.377 . S
C1269 C1270 1.379 . S
C1270 H1254 0.931 . S
C1270 C1264 1.383 . S
C1270 C1269 1.379 . S
H1271 C1265 0.959 . S
H1272 C1265 0.961 . S
H1273 C1265 0.960 . S
H1274 C1266 0.930 . S
H1275 C1267 0.929 . S
H1276 C1284 0.929 1_554 S
H1277 C1286 0.930 . S
H1278 C1288 0.930 . S
H1279 C1291 0.929 . S
H1280 C1294 0.930 . S
H1281 C1296 0.960 . S
H1282 C1296 0.960 . S
H1283 C1296 0.960 . S
C1284 H1276 0.929 1_556 S
C1284 C1285 1.377 . S
C1284 C1286 1.384 . S
C1285 C1284 1.377 . S
C1285 C1291 1.390 . S
C1286 H1277 0.930 . S
C1286 C1284 1.384 . S
C1286 C1287 1.372 . S
C1287 C1286 1.372 . S
C1287 C1288 1.400 . S
C1287 C1292 1.490 . S
C1288 H1278 0.930 . S
C1288 C1287 1.400 . S
C1288 C1291 1.386 . S
H1289 C1305 0.930 . S
H1290 C1306 0.931 . S
C1291 H1279 0.929 . S
C1291 C1285 1.390 . S
C1291 C1288 1.386 . S
C1292 C1287 1.490 . S
C1292 C1294 1.395 . S
C1292 C1295 1.403 . S
H1293 C1299 0.930 . S
C1294 H1280 0.930 . S
C1294 C1292 1.395 . S
C1294 C1297 1.403 . S
C1295 C1292 1.403 . S
C1295 C1296 1.524 . S
C1295 C1299 1.400 . S
C1296 H1281 0.960 . S
C1296 H1282 0.960 . S
C1296 H1283 0.960 . S
C1296 C1295 1.524 . S
C1297 C1294 1.403 . S
C1297 C1298 1.392 . S
C1297 C1301 1.495 . S
C1298 C1297 1.392 . S
C1298 C1299 1.385 . S
C1298 C1300 1.478 . S
C1299 H1293 0.930 . S
C1299 C1295 1.400 . S
C1299 C1298 1.385 . S
C1300 C1298 1.478 . S
C1300 C1302 1.381 . S
C1300 C1306 1.383 . S
C1301 C1297 1.495 . S
C1301 H1307 0.959 . S
C1301 H1308 0.961 . S
C1301 H1309 0.960 . S
C1302 C1300 1.381 . S
C1302 C1303 1.394 . S
C1302 H1310 0.930 . S
C1303 C1302 1.394 . S
C1303 C1304 1.383 . S
C1303 H1311 0.929 . S
C1304 C1303 1.383 . S
C1304 C1305 1.377 . S
C1305 H1289 0.930 . S
C1305 C1304 1.377 . S
C1305 C1306 1.379 . S
C1306 H1290 0.931 . S
C1306 C1300 1.383 . S
C1306 C1305 1.379 . S
H1307 C1301 0.959 . S
H1308 C1301 0.961 . S
H1309 C1301 0.960 . S
H1310 C1302 0.930 . S
H1311 C1303 0.929 . S
H1312 C1320 0.929 . S
H1313 C1322 0.930 . S
H1314 C1324 0.930 . S
H1315 C1327 0.929 . S
H1316 C1330 0.930 . S
H1317 C1332 0.960 . S
H1318 C1332 0.960 . S
H1319 C1332 0.960 . S
C1320 H1312 0.929 . S
C1320 C1321 1.377 . S
C1320 C1322 1.384 . S
C1321 C1320 1.377 . S
C1321 C1327 1.390 . S
C1322 H1313 0.930 . S
C1322 C1320 1.384 . S
C1322 C1323 1.372 . S
C1323 C1322 1.372 . S
C1323 C1324 1.400 . S
C1323 C1328 1.490 . S
C1324 H1314 0.930 . S
C1324 C1323 1.400 . S
C1324 C1327 1.386 . S
H1325 C1341 0.930 . S
H1326 C1342 0.931 . S
C1327 H1315 0.929 . S
C1327 C1321 1.390 . S
C1327 C1324 1.386 . S
C1328 C1323 1.490 . S
C1328 C1330 1.395 . S
C1328 C1331 1.403 . S
H1329 C1335 0.930 . S
C1330 H1316 0.930 . S
C1330 C1328 1.395 . S
C1330 C1333 1.403 1_455 S
C1331 C1328 1.403 . S
C1331 C1332 1.524 . S
C1331 C1335 1.400 . S
C1332 H1317 0.960 . S
C1332 H1318 0.960 . S
C1332 H1319 0.960 . S
C1332 C1331 1.524 . S
C1333 C1330 1.403 1_655 S
C1333 C1334 1.392 . S
C1333 C1337 1.495 . S
C1334 C1333 1.392 . S
C1334 C1335 1.385 1_655 S
C1334 C1336 1.478 . S
C1335 H1329 0.930 . S
C1335 C1331 1.400 . S
C1335 C1334 1.385 1_455 S
C1336 C1334 1.478 . S
C1336 C1338 1.381 . S
C1336 C1342 1.383 . S
C1337 C1333 1.495 . S
C1337 H1343 0.959 . S
C1337 H1344 0.961 . S
C1337 H1345 0.960 . S
C1338 C1336 1.381 . S
C1338 C1339 1.394 . S
C1338 H1346 0.930 . S
C1339 C1338 1.394 . S
C1339 C1340 1.383 . S
C1339 H1347 0.929 . S
C1340 C1339 1.383 . S
C1340 C1341 1.377 . S
C1341 H1325 0.930 . S
C1341 C1340 1.377 . S
C1341 C1342 1.379 . S
C1342 H1326 0.931 . S
C1342 C1336 1.383 . S
C1342 C1341 1.379 . S
H1343 C1337 0.959 . S
H1344 C1337 0.961 . S
H1345 C1337 0.960 . S
H1346 C1338 0.930 . S
H1347 C1339 0.929 . S
H1348 C1356 0.929 . S
H1349 C1358 0.930 . S
H1350 C1360 0.930 . S
H1351 C1363 0.929 . S
H1352 C1366 0.930 . S
H1353 C1368 0.960 . S
H1354 C1368 0.960 . S
H1355 C1368 0.960 . S
C1356 H1348 0.929 . S
C1356 C1357 1.377 . S
C1356 C1358 1.384 . S
C1357 C1356 1.377 . S
C1357 C1363 1.390 . S
C1358 H1349 0.930 . S
C1358 C1356 1.384 . S
C1358 C1359 1.372 . S
C1359 C1358 1.372 . S
C1359 C1360 1.400 . S
C1359 C1364 1.490 . S
C1360 H1350 0.930 . S
C1360 C1359 1.400 . S
C1360 C1363 1.386 . S
H1361 C1377 0.930 . S
H1362 C1378 0.931 . S
C1363 H1351 0.929 . S
C1363 C1357 1.390 . S
C1363 C1360 1.386 . S
C1364 C1359 1.490 . S
C1364 C1366 1.395 . S
C1364 C1367 1.403 . S
H1365 C1371 0.930 . S
C1366 H1352 0.930 . S
C1366 C1364 1.395 . S
C1366 C1369 1.403 . S
C1367 C1364 1.403 . S
C1367 C1368 1.524 . S
C1367 C1371 1.400 . S
C1368 H1353 0.960 . S
C1368 H1354 0.960 . S
C1368 H1355 0.960 . S
C1368 C1367 1.524 . S
C1369 C1366 1.403 . S
C1369 C1370 1.392 . S
C1369 C1373 1.495 . S
C1370 C1369 1.392 . S
C1370 C1371 1.385 . S
C1370 C1372 1.478 . S
C1371 H1365 0.930 . S
C1371 C1367 1.400 . S
C1371 C1370 1.385 . S
C1372 C1370 1.478 . S
C1372 C1374 1.381 . S
C1372 C1378 1.383 . S
C1373 C1369 1.495 . S
C1373 H1379 0.959 . S
C1373 H1380 0.961 . S
C1373 H1381 0.960 . S
C1374 C1372 1.381 . S
C1374 C1375 1.394 . S
C1374 H1382 0.930 . S
C1375 C1374 1.394 . S
C1375 C1376 1.383 . S
C1375 H1383 0.929 . S
C1376 C1375 1.383 . S
C1376 C1377 1.377 . S
C1377 H1361 0.930 . S
C1377 C1376 1.377 . S
C1377 C1378 1.379 . S
C1378 H1362 0.931 . S
C1378 C1372 1.383 . S
C1378 C1377 1.379 . S
H1379 C1373 0.959 . S
H1380 C1373 0.961 . S
H1381 C1373 0.960 . S
H1382 C1374 0.930 . S
H1383 C1375 0.929 . S
H1384 C1392 0.929 . S
H1385 C1394 0.930 . S
H1386 C1396 0.930 . S
H1387 C1399 0.929 . S
H1388 C1402 0.930 . S
H1389 C1404 0.960 . S
H1390 C1404 0.960 . S
H1391 C1404 0.960 . S
C1392 H1384 0.929 . S
C1392 C1393 1.377 . S
C1392 C1394 1.384 . S
C1393 C1392 1.377 . S
C1393 C1399 1.390 . S
C1394 H1385 0.930 . S
C1394 C1392 1.384 . S
C1394 C1395 1.372 . S
C1395 C1394 1.372 . S
C1395 C1396 1.400 . S
C1395 C1400 1.490 . S
C1396 H1386 0.930 . S
C1396 C1395 1.400 . S
C1396 C1399 1.386 . S
H1397 C1413 0.930 . S
H1398 C1414 0.931 . S
C1399 H1387 0.929 . S
C1399 C1393 1.390 . S
C1399 C1396 1.386 . S
C1400 C1395 1.490 . S
C1400 C1402 1.395 . S
C1400 C1403 1.403 . S
H1401 C1407 0.930 . S
C1402 H1388 0.930 . S
C1402 C1400 1.395 . S
C1402 C1405 1.403 1_655 S
C1403 C1400 1.403 . S
C1403 C1404 1.524 . S
C1403 C1407 1.400 . S
C1404 H1389 0.960 . S
C1404 H1390 0.960 . S
C1404 H1391 0.960 . S
C1404 C1403 1.524 . S
C1405 C1402 1.403 1_455 S
C1405 C1406 1.392 . S
C1405 C1409 1.495 . S
C1406 C1405 1.392 . S
C1406 C1407 1.385 1_455 S
C1406 C1408 1.478 . S
C1407 H1401 0.930 . S
C1407 C1403 1.400 . S
C1407 C1406 1.385 1_655 S
C1408 C1406 1.478 . S
C1408 C1410 1.381 . S
C1408 C1414 1.383 . S
C1409 C1405 1.495 . S
C1409 H1415 0.959 . S
C1409 H1416 0.961 . S
C1409 H1417 0.960 . S
C1410 C1408 1.381 . S
C1410 C1411 1.394 . S
C1410 H1418 0.930 . S
C1411 C1410 1.394 . S
C1411 C1412 1.383 . S
C1411 H1419 0.929 . S
C1412 C1411 1.383 . S
C1412 C1413 1.377 . S
C1413 H1397 0.930 . S
C1413 C1412 1.377 . S
C1413 C1414 1.379 . S
C1414 H1398 0.931 . S
C1414 C1408 1.383 . S
C1414 C1413 1.379 . S
H1415 C1409 0.959 . S
H1416 C1409 0.961 . S
H1417 C1409 0.960 . S
H1418 C1410 0.930 . S
H1419 C1411 0.929 . S
H1420 C1428 0.929 . S
H1421 C1430 0.930 . S
H1422 C1432 0.930 . S
H1423 C1435 0.929 . S
H1424 C1438 0.930 . S
H1425 C1440 0.960 . S
H1426 C1440 0.960 . S
H1427 C1440 0.960 . S
C1428 H1420 0.929 . S
C1428 C1429 1.377 . S
C1428 C1430 1.384 . S
C1429 C1428 1.377 . S
C1429 C1435 1.390 . S
C1430 H1421 0.930 . S
C1430 C1428 1.384 . S
C1430 C1431 1.372 . S
C1431 C1430 1.372 . S
C1431 C1432 1.400 . S
C1431 C1436 1.490 . S
C1432 H1422 0.930 . S
C1432 C1431 1.400 . S
C1432 C1435 1.386 . S
H1433 C1449 0.930 . S
H1434 C1450 0.931 . S
C1435 H1423 0.929 . S
C1435 C1429 1.390 . S
C1435 C1432 1.386 . S
C1436 C1431 1.490 . S
C1436 C1438 1.395 . S
C1436 C1439 1.403 . S
H1437 C1443 0.930 . S
C1438 H1424 0.930 . S
C1438 C1436 1.395 . S
C1438 C1441 1.403 . S
C1439 C1436 1.403 . S
C1439 C1440 1.524 . S
C1439 C1443 1.400 . S
C1440 H1425 0.960 . S
C1440 H1426 0.960 . S
C1440 H1427 0.960 . S
C1440 C1439 1.524 . S
C1441 C1438 1.403 . S
C1441 C1442 1.392 . S
C1441 C1445 1.495 . S
C1442 C1441 1.392 . S
C1442 C1443 1.385 . S
C1442 C1444 1.478 . S
C1443 H1437 0.930 . S
C1443 C1439 1.400 . S
C1443 C1442 1.385 . S
C1444 C1442 1.478 . S
C1444 C1446 1.381 . S
C1444 C1450 1.383 . S
C1445 C1441 1.495 . S
C1445 H1451 0.959 . S
C1445 H1452 0.961 . S
C1445 H1453 0.960 . S
C1446 C1444 1.381 . S
C1446 C1447 1.394 . S
C1446 H1454 0.930 . S
C1447 C1446 1.394 . S
C1447 C1448 1.383 . S
C1447 H1455 0.929 . S
C1448 C1447 1.383 . S
C1448 C1449 1.377 . S
C1449 H1433 0.930 . S
C1449 C1448 1.377 . S
C1449 C1450 1.379 . S
C1450 H1434 0.931 . S
C1450 C1444 1.383 . S
C1450 C1449 1.379 . S
H1451 C1445 0.959 . S
H1452 C1445 0.961 . S
H1453 C1445 0.960 . S
H1454 C1446 0.930 . S
H1455 C1447 0.929 . S
H1456 C1464 0.929 . S
H1457 C1466 0.930 . S
H1458 C1468 0.930 . S
H1459 C1471 0.929 . S
H1460 C1474 0.930 . S
H1461 C1476 0.960 1_655 S
H1462 C1476 0.960 . S
H1463 C1476 0.960 . S
C1464 H1456 0.929 . S
C1464 C1465 1.377 . S
C1464 C1466 1.384 . S
C1465 C1464 1.377 . S
C1465 C1471 1.390 . S
C1466 H1457 0.930 . S
C1466 C1464 1.384 . S
C1466 C1467 1.372 . S
C1467 C1466 1.372 . S
C1467 C1468 1.400 . S
C1467 C1472 1.490 . S
C1468 H1458 0.930 . S
C1468 C1467 1.400 . S
C1468 C1471 1.386 . S
H1469 C1485 0.930 . S
H1470 C1486 0.931 . S
C1471 H1459 0.929 . S
C1471 C1465 1.390 . S
C1471 C1468 1.386 . S
C1472 C1467 1.490 . S
C1472 C1474 1.395 . S
C1472 C1475 1.403 . S
H1473 C1479 0.930 . S
C1474 H1460 0.930 . S
C1474 C1472 1.395 . S
C1474 C1477 1.403 . S
C1475 C1472 1.403 . S
C1475 C1476 1.524 . S
C1475 C1479 1.400 1_455 S
C1476 H1461 0.960 1_455 S
C1476 H1462 0.960 . S
C1476 H1463 0.960 . S
C1476 C1475 1.524 . S
C1477 C1474 1.403 . S
C1477 C1478 1.392 1_455 S
C1477 C1481 1.495 . S
C1478 C1477 1.392 1_655 S
C1478 C1479 1.385 . S
C1478 C1480 1.478 . S
C1479 H1473 0.930 . S
C1479 C1475 1.400 1_655 S
C1479 C1478 1.385 . S
C1480 C1478 1.478 . S
C1480 C1482 1.381 . S
C1480 C1486 1.383 . S
C1481 C1477 1.495 . S
C1481 H1487 0.959 . S
C1481 H1488 0.948 1_455 S
C1481 H1489 0.960 . S
C1482 C1480 1.381 . S
C1482 C1483 1.394 . S
C1482 H1490 0.930 . S
C1483 C1482 1.394 . S
C1483 C1484 1.383 . S
C1483 H1491 0.929 . S
C1484 C1483 1.383 . S
C1484 C1485 1.377 . S
C1485 H1469 0.930 . S
C1485 C1484 1.377 . S
C1485 C1486 1.379 . S
C1486 H1470 0.931 . S
C1486 C1480 1.383 . S
C1486 C1485 1.379 . S
H1487 C1481 0.959 . S
H1488 C1481 0.948 1_655 S
H1489 C1481 0.960 . S
H1490 C1482 0.930 . S
H1491 C1483 0.929 . S
H1492 C1500 0.929 . S
H1493 C1502 0.930 . S
H1494 C1504 0.930 . S
H1495 C1507 0.929 . S
H1496 C1510 0.930 . S
H1497 C1512 0.960 . S
H1498 C1512 0.960 . S
H1499 C1512 0.960 . S
C1500 H1492 0.929 . S
C1500 C1501 1.377 . S
C1500 C1502 1.384 . S
C1501 C1500 1.377 . S
C1501 C1507 1.390 . S
C1502 H1493 0.930 . S
C1502 C1500 1.384 . S
C1502 C1503 1.372 . S
C1503 C1502 1.372 . S
C1503 C1504 1.400 . S
C1503 C1508 1.490 . S
C1504 H1494 0.930 . S
C1504 C1503 1.400 . S
C1504 C1507 1.386 . S
H1505 C1521 0.930 . S
H1506 C1522 0.931 . S
C1507 H1495 0.929 . S
C1507 C1501 1.390 . S
C1507 C1504 1.386 . S
C1508 C1503 1.490 . S
C1508 C1510 1.395 . S
C1508 C1511 1.403 . S
H1509 C1515 0.930 . S
C1510 H1496 0.930 . S
C1510 C1508 1.395 . S
C1510 C1513 1.403 . S
C1511 C1508 1.403 . S
C1511 C1512 1.524 . S
C1511 C1515 1.400 . S
C1512 H1497 0.960 . S
C1512 H1498 0.960 . S
C1512 H1499 0.960 . S
C1512 C1511 1.524 . S
C1513 C1510 1.403 . S
C1513 C1514 1.392 . S
C1513 C1517 1.495 . S
C1514 C1513 1.392 . S
C1514 C1515 1.385 . S
C1514 C1516 1.478 . S
C1515 H1509 0.930 . S
C1515 C1511 1.400 . S
C1515 C1514 1.385 . S
C1516 C1514 1.478 . S
C1516 C1518 1.381 . S
C1516 C1522 1.383 . S
C1517 C1513 1.495 . S
C1517 H1523 0.959 . S
C1517 H1524 0.961 . S
C1517 H1525 0.960 . S
C1518 C1516 1.381 . S
C1518 C1519 1.394 . S
C1518 H1526 0.930 . S
C1519 C1518 1.394 . S
C1519 C1520 1.383 . S
C1519 H1527 0.929 . S
C1520 C1519 1.383 . S
C1520 C1521 1.377 . S
C1521 H1505 0.930 . S
C1521 C1520 1.377 . S
C1521 C1522 1.379 . S
C1522 H1506 0.931 . S
C1522 C1516 1.383 . S
C1522 C1521 1.379 . S
H1523 C1517 0.959 . S
H1524 C1517 0.961 . S
H1525 C1517 0.960 . S
H1526 C1518 0.930 . S
H1527 C1519 0.929 . S
H1528 C1536 0.929 . S
H1529 C1538 0.930 . S
H1530 C1540 0.930 . S
H1531 C1543 0.929 . S
H1532 C1546 0.930 . S
H1533 C1548 0.960 . S
H1534 C1548 0.960 . S
H1535 C1548 0.960 . S
C1536 H1528 0.929 . S
C1536 C1537 1.377 . S
C1536 C1538 1.384 . S
C1537 C1536 1.377 . S
C1537 C1543 1.390 . S
C1538 H1529 0.930 . S
C1538 C1536 1.384 . S
C1538 C1539 1.372 . S
C1539 C1538 1.372 . S
C1539 C1540 1.400 . S
C1539 C1544 1.490 . S
C1540 H1530 0.930 . S
C1540 C1539 1.400 . S
C1540 C1543 1.386 . S
H1541 C1557 0.930 . S
H1542 C1558 0.931 . S
C1543 H1531 0.929 . S
C1543 C1537 1.390 . S
C1543 C1540 1.386 . S
C1544 C1539 1.490 . S
C1544 C1546 1.395 . S
C1544 C1547 1.403 . S
H1545 C1551 0.930 . S
C1546 H1532 0.930 . S
C1546 C1544 1.395 . S
C1546 C1549 1.403 . S
C1547 C1544 1.403 . S
C1547 C1548 1.524 . S
C1547 C1551 1.400 . S
C1548 H1533 0.960 . S
C1548 H1534 0.960 . S
C1548 H1535 0.960 . S
C1548 C1547 1.524 . S
C1549 C1546 1.403 . S
C1549 C1550 1.392 . S
C1549 C1553 1.495 . S
C1550 C1549 1.392 . S
C1550 C1551 1.385 . S
C1550 C1552 1.478 . S
C1551 H1545 0.930 . S
C1551 C1547 1.400 . S
C1551 C1550 1.385 . S
C1552 C1550 1.478 . S
C1552 C1554 1.381 . S
C1552 C1558 1.383 . S
C1553 C1549 1.495 . S
C1553 H1559 0.959 . S
C1553 H1560 0.961 . S
C1553 H1561 0.960 . S
C1554 C1552 1.381 . S
C1554 C1555 1.394 . S
C1554 H1562 0.930 . S
C1555 C1554 1.394 . S
C1555 C1556 1.383 . S
C1555 H1563 0.929 . S
C1556 C1555 1.383 . S
C1556 C1557 1.377 . S
C1557 H1541 0.930 . S
C1557 C1556 1.377 . S
C1557 C1558 1.379 . S
C1558 H1542 0.931 . S
C1558 C1552 1.383 . S
C1558 C1557 1.379 . S
H1559 C1553 0.959 . S
H1560 C1553 0.961 . S
H1561 C1553 0.960 . S
H1562 C1554 0.930 . S
H1563 C1555 0.929 . S
H1564 C1572 0.929 1_455 S
H1565 C1574 0.930 . S
H1566 C1576 0.930 . S
H1567 C1579 0.929 . S
H1568 C1582 0.930 . S
H1569 C1584 0.960 . S
H1570 C1584 0.960 . S
H1571 C1584 0.960 . S
C1572 H1564 0.929 1_655 S
C1572 C1573 1.377 . S
C1572 C1574 1.384 . S
C1573 C1572 1.377 . S
C1573 C1579 1.390 . S
C1574 H1565 0.930 . S
C1574 C1572 1.384 . S
C1574 C1575 1.372 . S
C1575 C1574 1.372 . S
C1575 C1576 1.400 . S
C1575 C1580 1.490 . S
C1576 H1566 0.930 . S
C1576 C1575 1.400 . S
C1576 C1579 1.386 . S
H1577 C1593 0.930 . S
H1578 C1594 0.931 . S
C1579 H1567 0.929 . S
C1579 C1573 1.390 . S
C1579 C1576 1.386 . S
C1580 C1575 1.490 . S
C1580 C1582 1.395 . S
C1580 C1583 1.403 . S
H1581 C1587 0.930 . S
C1582 H1568 0.930 . S
C1582 C1580 1.395 . S
C1582 C1585 1.403 . S
C1583 C1580 1.403 . S
C1583 C1584 1.524 . S
C1583 C1587 1.400 . S
C1584 H1569 0.960 . S
C1584 H1570 0.960 . S
C1584 H1571 0.960 . S
C1584 C1583 1.524 . S
C1585 C1582 1.403 . S
C1585 C1586 1.392 . S
C1585 C1589 1.495 . S
C1586 C1585 1.392 . S
C1586 C1587 1.385 . S
C1586 C1588 1.478 . S
C1587 H1581 0.930 . S
C1587 C1583 1.400 . S
C1587 C1586 1.385 . S
C1588 C1586 1.478 . S
C1588 C1590 1.381 . S
C1588 C1594 1.383 . S
C1589 C1585 1.495 . S
C1589 H1595 0.959 . S
C1589 H1596 0.961 . S
C1589 H1597 0.960 . S
C1590 C1588 1.381 . S
C1590 C1591 1.394 . S
C1590 H1598 0.930 . S
C1591 C1590 1.394 . S
C1591 C1592 1.383 . S
C1591 H1599 0.929 . S
C1592 C1591 1.383 . S
C1592 C1593 1.377 . S
C1593 H1577 0.930 . S
C1593 C1592 1.377 . S
C1593 C1594 1.379 . S
C1594 H1578 0.931 . S
C1594 C1588 1.383 . S
C1594 C1593 1.379 . S
H1595 C1589 0.959 . S
H1596 C1589 0.961 . S
H1597 C1589 0.960 . S
H1598 C1590 0.930 . S
H1599 C1591 0.929 . S
H1600 C1608 0.929 . S
H1601 C1610 0.930 . S
H1602 C1612 0.930 . S
H1603 C1615 0.929 . S
H1604 C1618 0.930 . S
H1605 C1620 0.960 . S
H1606 C1620 0.960 . S
H1607 C1620 0.960 . S
C1608 H1600 0.929 . S
C1608 C1609 1.377 . S
C1608 C1610 1.384 . S
C1609 C1608 1.377 . S
C1609 C1615 1.390 . S
C1610 H1601 0.930 . S
C1610 C1608 1.384 . S
C1610 C1611 1.372 . S
C1611 C1610 1.372 . S
C1611 C1612 1.400 . S
C1611 C1616 1.490 . S
C1612 H1602 0.930 . S
C1612 C1611 1.400 . S
C1612 C1615 1.386 . S
H1613 C1629 0.930 . S
H1614 C1630 0.931 . S
C1615 H1603 0.929 . S
C1615 C1609 1.390 . S
C1615 C1612 1.386 . S
C1616 C1611 1.490 . S
C1616 C1618 1.395 . S
C1616 C1619 1.403 . S
H1617 C1623 0.930 . S
C1618 H1604 0.930 . S
C1618 C1616 1.395 . S
C1618 C1621 1.403 . S
C1619 C1616 1.403 . S
C1619 C1620 1.524 . S
C1619 C1623 1.400 . S
C1620 H1605 0.960 . S
C1620 H1606 0.960 . S
C1620 H1607 0.960 . S
C1620 C1619 1.524 . S
C1621 C1618 1.403 . S
C1621 C1622 1.392 . S
C1621 C1625 1.495 . S
C1622 C1621 1.392 . S
C1622 C1623 1.385 . S
C1622 C1624 1.478 . S
C1623 H1617 0.930 . S
C1623 C1619 1.400 . S
C1623 C1622 1.385 . S
C1624 C1622 1.478 . S
C1624 C1626 1.381 . S
C1624 C1630 1.383 . S
C1625 C1621 1.495 . S
C1625 H1631 0.959 . S
C1625 H1632 0.961 . S
C1625 H1633 0.960 . S
C1626 C1624 1.381 . S
C1626 C1627 1.394 . S
C1626 H1634 0.930 . S
C1627 C1626 1.394 . S
C1627 C1628 1.383 . S
C1627 H1635 0.929 . S
C1628 C1627 1.383 . S
C1628 C1629 1.377 . S
C1629 H1613 0.930 . S
C1629 C1628 1.377 . S
C1629 C1630 1.379 . S
C1630 H1614 0.931 . S
C1630 C1624 1.383 . S
C1630 C1629 1.379 . S
H1631 C1625 0.959 . S
H1632 C1625 0.961 . S
H1633 C1625 0.960 . S
H1634 C1626 0.930 . S
H1635 C1627 0.929 . S
H1636 C1644 0.929 . S
H1637 C1646 0.930 . S
H1638 C1648 0.930 . S
H1639 C1651 0.929 . S
H1640 C1654 0.930 . S
H1641 C1656 0.960 1_554 S
H1642 C1656 0.960 . S
H1643 C1656 0.960 . S
C1644 H1636 0.929 . S
C1644 C1645 1.377 . S
C1644 C1646 1.384 . S
C1645 C1644 1.377 . S
C1645 C1651 1.390 . S
C1646 H1637 0.930 . S
C1646 C1644 1.384 . S
C1646 C1647 1.372 . S
C1647 C1646 1.372 . S
C1647 C1648 1.400 . S
C1647 C1652 1.490 . S
C1648 H1638 0.930 . S
C1648 C1647 1.400 . S
C1648 C1651 1.386 . S
H1649 C1665 0.930 . S
H1650 C1666 0.931 . S
C1651 H1639 0.929 . S
C1651 C1645 1.390 . S
C1651 C1648 1.386 . S
C1652 C1647 1.490 . S
C1652 C1654 1.395 . S
C1652 C1655 1.403 . S
H1653 C1659 0.930 . S
C1654 H1640 0.930 . S
C1654 C1652 1.395 . S
C1654 C1657 1.403 . S
C1655 C1652 1.403 . S
C1655 C1656 1.524 . S
C1655 C1659 1.400 1_556 S
C1656 H1641 0.960 1_556 S
C1656 H1642 0.960 . S
C1656 H1643 0.960 . S
C1656 C1655 1.524 . S
C1657 C1654 1.403 . S
C1657 C1658 1.392 1_556 S
C1657 C1661 1.495 . S
C1658 C1657 1.392 1_554 S
C1658 C1659 1.385 . S
C1658 C1660 1.478 . S
C1659 H1653 0.930 . S
C1659 C1655 1.400 1_554 S
C1659 C1658 1.385 . S
C1660 C1658 1.478 . S
C1660 C1662 1.381 . S
C1660 C1666 1.383 . S
C1661 C1657 1.495 . S
C1661 H1667 0.959 . S
C1661 H1668 0.961 . S
C1661 H1669 0.960 1_556 S
C1662 C1660 1.381 . S
C1662 C1663 1.394 . S
C1662 H1670 0.930 . S
C1663 C1662 1.394 . S
C1663 C1664 1.383 . S
C1663 H1671 0.929 . S
C1664 C1663 1.383 . S
C1664 C1665 1.377 . S
C1665 H1649 0.930 . S
C1665 C1664 1.377 . S
C1665 C1666 1.379 . S
C1666 H1650 0.931 . S
C1666 C1660 1.383 . S
C1666 C1665 1.379 . S
H1667 C1661 0.959 . S
H1668 C1661 0.961 . S
H1669 C1661 0.960 1_554 S
H1670 C1662 0.930 . S
H1671 C1663 0.929 . S
H1672 C1680 0.929 . S
H1673 C1682 0.930 . S
H1674 C1684 0.930 . S
H1675 C1687 0.929 . S
H1676 C1690 0.930 . S
H1677 C1692 0.960 . S
H1678 C1692 0.960 . S
H1679 C1692 0.960 . S
C1680 H1672 0.929 . S
C1680 C1681 1.377 . S
C1680 C1682 1.384 . S
C1681 C1680 1.377 . S
C1681 C1687 1.390 . S
C1682 H1673 0.930 . S
C1682 C1680 1.384 . S
C1682 C1683 1.372 . S
C1683 C1682 1.372 . S
C1683 C1684 1.400 . S
C1683 C1688 1.490 . S
C1684 H1674 0.930 . S
C1684 C1683 1.400 . S
C1684 C1687 1.386 . S
H1685 C1701 0.930 . S
H1686 C1702 0.931 . S
C1687 H1675 0.929 . S
C1687 C1681 1.390 . S
C1687 C1684 1.386 . S
C1688 C1683 1.490 . S
C1688 C1690 1.395 . S
C1688 C1691 1.403 . S
H1689 C1695 0.930 . S
C1690 H1676 0.930 . S
C1690 C1688 1.395 . S
C1690 C1693 1.403 . S
C1691 C1688 1.403 . S
C1691 C1692 1.524 . S
C1691 C1695 1.400 . S
C1692 H1677 0.960 . S
C1692 H1678 0.960 . S
C1692 H1679 0.960 . S
C1692 C1691 1.524 . S
C1693 C1690 1.403 . S
C1693 C1694 1.392 . S
C1693 C1697 1.495 . S
C1694 C1693 1.392 . S
C1694 C1695 1.385 . S
C1694 C1696 1.478 . S
C1695 H1689 0.930 . S
C1695 C1691 1.400 . S
C1695 C1694 1.385 . S
C1696 C1694 1.478 . S
C1696 C1698 1.381 . S
C1696 C1702 1.383 . S
C1697 C1693 1.495 . S
C1697 H1703 0.959 . S
C1697 H1704 0.961 . S
C1697 H1705 0.960 . S
C1698 C1696 1.381 . S
C1698 C1699 1.394 . S
C1698 H1706 0.930 . S
C1699 C1698 1.394 . S
C1699 C1700 1.383 . S
C1699 H1707 0.929 . S
C1700 C1699 1.383 . S
C1700 C1701 1.377 . S
C1701 H1685 0.930 . S
C1701 C1700 1.377 . S
C1701 C1702 1.379 . S
C1702 H1686 0.931 . S
C1702 C1696 1.383 . S
C1702 C1701 1.379 . S
H1703 C1697 0.959 . S
H1704 C1697 0.961 . S
H1705 C1697 0.960 . S
H1706 C1698 0.930 . S
H1707 C1699 0.929 . S
H1708 C1716 0.929 . S
H1709 C1718 0.930 . S
H1710 C1720 0.930 . S
H1711 C1723 0.929 . S
H1712 C1726 0.930 . S
H1713 C1728 0.960 . S
H1714 C1728 0.960 . S
H1715 C1728 0.960 . S
C1716 H1708 0.929 . S
C1716 C1717 1.377 . S
C1716 C1718 1.384 . S
C1717 C1716 1.377 . S
C1717 C1723 1.390 . S
C1718 H1709 0.930 . S
C1718 C1716 1.384 . S
C1718 C1719 1.372 . S
C1719 C1718 1.372 . S
C1719 C1720 1.400 . S
C1719 C1724 1.490 . S
C1720 H1710 0.930 . S
C1720 C1719 1.400 . S
C1720 C1723 1.386 . S
H1721 C1737 0.930 . S
H1722 C1738 0.931 . S
C1723 H1711 0.929 . S
C1723 C1717 1.390 . S
C1723 C1720 1.386 . S
C1724 C1719 1.490 . S
C1724 C1726 1.395 . S
C1724 C1727 1.403 . S
H1725 C1731 0.930 . S
C1726 H1712 0.930 . S
C1726 C1724 1.395 . S
C1726 C1729 1.403 . S
C1727 C1724 1.403 . S
C1727 C1728 1.524 . S
C1727 C1731 1.400 . S
C1728 H1713 0.960 . S
C1728 H1714 0.960 . S
C1728 H1715 0.960 . S
C1728 C1727 1.524 . S
C1729 C1726 1.403 . S
C1729 C1730 1.392 . S
C1729 C1733 1.495 . S
C1730 C1729 1.392 . S
C1730 C1731 1.385 . S
C1730 C1732 1.478 . S
C1731 H1725 0.930 . S
C1731 C1727 1.400 . S
C1731 C1730 1.385 . S
C1732 C1730 1.478 . S
C1732 C1734 1.381 . S
C1732 C1738 1.383 . S
C1733 C1729 1.495 . S
C1733 H1739 0.959 . S
C1733 H1740 0.961 . S
C1733 H1741 0.960 . S
C1734 C1732 1.381 . S
C1734 C1735 1.394 . S
C1734 H1742 0.930 . S
C1735 C1734 1.394 . S
C1735 C1736 1.383 . S
C1735 H1743 0.929 . S
C1736 C1735 1.383 . S
C1736 C1737 1.377 . S
C1737 H1721 0.930 . S
C1737 C1736 1.377 . S
C1737 C1738 1.379 . S
C1738 H1722 0.931 . S
C1738 C1732 1.383 . S
C1738 C1737 1.379 . S
H1739 C1733 0.959 . S
H1740 C1733 0.961 . S
H1741 C1733 0.960 . S
H1742 C1734 0.930 . S
H1743 C1735 0.929 . S
H1744 C1752 0.929 . S
H1745 C1754 0.930 . S
H1746 C1756 0.930 . S
H1747 C1759 0.929 . S
H1748 C1762 0.930 . S
H1749 C1764 0.960 . S
H1750 C1764 0.960 . S
H1751 C1764 0.960 . S
C1752 H1744 0.929 . S
C1752 C1753 1.377 . S
C1752 C1754 1.384 . S
C1753 C1752 1.377 . S
C1753 C1759 1.390 . S
C1754 H1745 0.930 . S
C1754 C1752 1.384 . S
C1754 C1755 1.372 . S
C1755 C1754 1.372 . S
C1755 C1756 1.400 . S
C1755 C1760 1.490 . S
C1756 H1746 0.930 . S
C1756 C1755 1.400 . S
C1756 C1759 1.386 . S
H1757 C1773 0.930 . S
H1758 C1774 0.931 . S
C1759 H1747 0.929 . S
C1759 C1753 1.390 . S
C1759 C1756 1.386 . S
C1760 C1755 1.490 . S
C1760 C1762 1.395 . S
C1760 C1763 1.403 . S
H1761 C1767 0.930 . S
C1762 H1748 0.930 . S
C1762 C1760 1.395 . S
C1762 C1765 1.403 . S
C1763 C1760 1.403 . S
C1763 C1764 1.524 . S
C1763 C1767 1.400 . S
C1764 H1749 0.960 . S
C1764 H1750 0.960 . S
C1764 H1751 0.960 . S
C1764 C1763 1.524 . S
C1765 C1762 1.403 . S
C1765 C1766 1.392 . S
C1765 C1769 1.495 . S
C1766 C1765 1.392 . S
C1766 C1767 1.385 . S
C1766 C1768 1.478 . S
C1767 H1761 0.930 . S
C1767 C1763 1.400 . S
C1767 C1766 1.385 . S
C1768 C1766 1.478 . S
C1768 C1770 1.381 . S
C1768 C1774 1.383 . S
C1769 C1765 1.495 . S
C1769 H1775 0.959 . S
C1769 H1776 0.961 . S
C1769 H1777 0.960 . S
C1770 C1768 1.381 . S
C1770 C1771 1.394 . S
C1770 H1778 0.930 . S
C1771 C1770 1.394 . S
C1771 C1772 1.383 . S
C1771 H1779 0.929 . S
C1772 C1771 1.383 . S
C1772 C1773 1.377 . S
C1773 H1757 0.930 . S
C1773 C1772 1.377 . S
C1773 C1774 1.379 . S
C1774 H1758 0.931 . S
C1774 C1768 1.383 . S
C1774 C1773 1.379 . S
H1775 C1769 0.959 . S
H1776 C1769 0.961 . S
H1777 C1769 0.960 . S
H1778 C1770 0.930 . S
H1779 C1771 0.929 . S
H1780 C1788 0.929 . S
H1781 C1790 0.930 . S
H1782 C1792 0.930 . S
H1783 C1795 0.929 1_455 S
H1784 C1798 0.930 . S
H1785 C1800 0.960 1_556 S
H1786 C1800 0.960 . S
H1787 C1800 0.960 . S
C1788 H1780 0.929 . S
C1788 C1789 1.377 . S
C1788 C1790 1.384 . S
C1789 C1788 1.377 . S
C1789 C1795 1.390 . S
C1790 H1781 0.930 . S
C1790 C1788 1.384 . S
C1790 C1791 1.372 . S
C1791 C1790 1.372 . S
C1791 C1792 1.400 . S
C1791 C1796 1.490 . S
C1792 H1782 0.930 . S
C1792 C1791 1.400 . S
C1792 C1795 1.386 . S
H1793 C1809 0.930 . S
H1794 C1810 0.931 . S
C1795 H1783 0.929 1_655 S
C1795 C1789 1.390 . S
C1795 C1792 1.386 . S
C1796 C1791 1.490 . S
C1796 C1798 1.395 . S
C1796 C1799 1.403 . S
H1797 C1803 0.930 . S
C1798 H1784 0.930 . S
C1798 C1796 1.395 . S
C1798 C1801 1.403 . S
C1799 C1796 1.403 . S
C1799 C1800 1.524 . S
C1799 C1803 1.400 1_554 S
C1800 H1785 0.960 1_554 S
C1800 H1786 0.960 . S
C1800 H1787 0.960 . S
C1800 C1799 1.524 . S
C1801 C1798 1.403 . S
C1801 C1802 1.392 1_554 S
C1801 C1805 1.495 . S
C1802 C1801 1.392 1_556 S
C1802 C1803 1.385 . S
C1802 C1804 1.478 . S
C1803 H1797 0.930 . S
C1803 C1799 1.400 1_556 S
C1803 C1802 1.385 . S
C1804 C1802 1.478 . S
C1804 C1806 1.381 . S
C1804 C1810 1.383 . S
C1805 C1801 1.495 . S
C1805 H1811 0.959 . S
C1805 H1812 0.961 . S
C1805 H1813 0.960 . S
C1806 C1804 1.381 . S
C1806 C1807 1.394 . S
C1806 H1814 0.930 . S
C1807 C1806 1.394 . S
C1807 C1808 1.383 . S
C1807 H1815 0.929 . S
C1808 C1807 1.383 . S
C1808 C1809 1.377 . S
C1809 H1793 0.930 . S
C1809 C1808 1.377 . S
C1809 C1810 1.379 . S
C1810 H1794 0.931 . S
C1810 C1804 1.383 . S
C1810 C1809 1.379 . S
H1811 C1805 0.959 . S
H1812 C1805 0.961 . S
H1813 C1805 0.960 . S
H1814 C1806 0.930 . S
H1815 C1807 0.929 . S
H1816 C1824 0.929 . S
H1817 C1826 0.930 . S
H1818 C1828 0.930 . S
H1819 C1831 0.929 . S
H1820 C1834 0.930 . S
H1821 C1836 0.960 . S
H1822 C1836 0.960 . S
H1823 C1836 0.960 . S
C1824 H1816 0.929 . S
C1824 C1825 1.377 . S
C1824 C1826 1.384 . S
C1825 C1824 1.377 . S
C1825 C1831 1.390 . S
C1826 H1817 0.930 . S
C1826 C1824 1.384 . S
C1826 C1827 1.372 . S
C1827 C1826 1.372 . S
C1827 C1828 1.400 . S
C1827 C1832 1.490 . S
C1828 H1818 0.930 . S
C1828 C1827 1.400 . S
C1828 C1831 1.386 . S
H1829 C1845 0.930 . S
H1830 C1846 0.931 . S
C1831 H1819 0.929 . S
C1831 C1825 1.390 . S
C1831 C1828 1.386 . S
C1832 C1827 1.490 . S
C1832 C1834 1.395 . S
C1832 C1835 1.403 . S
H1833 C1839 0.930 . S
C1834 H1820 0.930 . S
C1834 C1832 1.395 . S
C1834 C1837 1.403 . S
C1835 C1832 1.403 . S
C1835 C1836 1.524 . S
C1835 C1839 1.400 . S
C1836 H1821 0.960 . S
C1836 H1822 0.960 . S
C1836 H1823 0.960 . S
C1836 C1835 1.524 . S
C1837 C1834 1.403 . S
C1837 C1838 1.392 . S
C1837 C1841 1.495 . S
C1838 C1837 1.392 . S
C1838 C1839 1.385 . S
C1838 C1840 1.478 . S
C1839 H1833 0.930 . S
C1839 C1835 1.400 . S
C1839 C1838 1.385 . S
C1840 C1838 1.478 . S
C1840 C1842 1.381 . S
C1840 C1846 1.383 . S
C1841 C1837 1.495 . S
C1841 H1847 0.959 . S
C1841 H1848 0.961 . S
C1841 H1849 0.960 . S
C1842 C1840 1.381 . S
C1842 C1843 1.394 . S
C1842 H1850 0.930 . S
C1843 C1842 1.394 . S
C1843 C1844 1.383 . S
C1843 H1851 0.929 . S
C1844 C1843 1.383 . S
C1844 C1845 1.377 . S
C1845 H1829 0.930 . S
C1845 C1844 1.377 . S
C1845 C1846 1.379 . S
C1846 H1830 0.931 . S
C1846 C1840 1.383 . S
C1846 C1845 1.379 . S
H1847 C1841 0.959 . S
H1848 C1841 0.961 . S
H1849 C1841 0.960 . S
H1850 C1842 0.930 . S
H1851 C1843 0.929 . S
H1852 C1860 0.929 . S
H1853 C1862 0.930 . S
H1854 C1864 0.930 . S
H1855 C1867 0.929 . S
H1856 C1870 0.930 . S
H1857 C1872 0.960 1_545 S
H1858 C1872 0.960 . S
H1859 C1872 0.960 . S
C1860 H1852 0.929 . S
C1860 C1861 1.377 . S
C1860 C1862 1.384 . S
C1861 C1860 1.377 . S
C1861 C1867 1.390 . S
C1862 H1853 0.930 . S
C1862 C1860 1.384 . S
C1862 C1863 1.372 . S
C1863 C1862 1.372 . S
C1863 C1864 1.400 . S
C1863 C1868 1.490 . S
C1864 H1854 0.930 . S
C1864 C1863 1.400 . S
C1864 C1867 1.386 . S
H1865 C1881 0.930 . S
H1866 C1882 0.931 . S
C1867 H1855 0.929 . S
C1867 C1861 1.390 . S
C1867 C1864 1.386 . S
C1868 C1863 1.490 . S
C1868 C1870 1.395 . S
C1868 C1871 1.403 . S
H1869 C1875 0.930 . S
C1870 H1856 0.930 . S
C1870 C1868 1.395 . S
C1870 C1873 1.403 . S
C1871 C1868 1.403 . S
C1871 C1872 1.524 . S
C1871 C1875 1.400 1_565 S
C1872 H1857 0.960 1_565 S
C1872 H1858 0.960 . S
C1872 H1859 0.960 . S
C1872 C1871 1.524 . S
C1873 C1870 1.403 . S
C1873 C1874 1.392 1_565 S
C1873 C1877 1.495 . S
C1874 C1873 1.392 1_545 S
C1874 C1875 1.385 . S
C1874 C1876 1.478 . S
C1875 H1869 0.930 . S
C1875 C1871 1.400 1_545 S
C1875 C1874 1.385 . S
C1876 C1874 1.478 . S
C1876 C1878 1.381 . S
C1876 C1882 1.383 . S
C1877 C1873 1.495 . S
C1877 H1883 0.959 . S
C1877 H1884 0.961 . S
C1877 H1885 0.960 . S
C1878 C1876 1.381 . S
C1878 C1879 1.394 . S
C1878 H1886 0.930 . S
C1879 C1878 1.394 . S
C1879 C1880 1.383 . S
C1879 H1887 0.929 . S
C1880 C1879 1.383 . S
C1880 C1881 1.377 . S
C1881 H1865 0.930 . S
C1881 C1880 1.377 . S
C1881 C1882 1.379 . S
C1882 H1866 0.931 . S
C1882 C1876 1.383 . S
C1882 C1881 1.379 . S
H1883 C1877 0.959 . S
H1884 C1877 0.961 . S
H1885 C1877 0.960 . S
H1886 C1878 0.930 . S
H1887 C1879 0.929 . S
H1888 C1896 0.929 . S
H1889 C1898 0.930 . S
H1890 C1900 0.930 . S
H1891 C1903 0.929 . S
H1892 C1906 0.930 . S
H1893 C1908 0.960 . S
H1894 C1908 0.960 . S
H1895 C1908 0.960 . S
C1896 H1888 0.929 . S
C1896 C1897 1.377 . S
C1896 C1898 1.384 . S
C1897 C1896 1.377 . S
C1897 C1903 1.390 . S
C1898 H1889 0.930 . S
C1898 C1896 1.384 . S
C1898 C1899 1.372 . S
C1899 C1898 1.372 . S
C1899 C1900 1.400 . S
C1899 C1904 1.490 . S
C1900 H1890 0.930 . S
C1900 C1899 1.400 . S
C1900 C1903 1.386 . S
H1901 C1917 0.930 . S
H1902 C1918 0.931 . S
C1903 H1891 0.929 . S
C1903 C1897 1.390 . S
C1903 C1900 1.386 . S
C1904 C1899 1.490 . S
C1904 C1906 1.395 . S
C1904 C1907 1.403 . S
H1905 C1911 0.930 . S
C1906 H1892 0.930 . S
C1906 C1904 1.395 . S
C1906 C1909 1.403 . S
C1907 C1904 1.403 . S
C1907 C1908 1.524 . S
C1907 C1911 1.400 . S
C1908 H1893 0.960 . S
C1908 H1894 0.960 . S
C1908 H1895 0.960 . S
C1908 C1907 1.524 . S
C1909 C1906 1.403 . S
C1909 C1910 1.392 . S
C1909 C1913 1.495 . S
C1910 C1909 1.392 . S
C1910 C1911 1.385 . S
C1910 C1912 1.478 . S
C1911 H1905 0.930 . S
C1911 C1907 1.400 . S
C1911 C1910 1.385 . S
C1912 C1910 1.478 . S
C1912 C1914 1.381 . S
C1912 C1918 1.383 . S
C1913 C1909 1.495 . S
C1913 H1919 0.959 . S
C1913 H1920 0.961 . S
C1913 H1921 0.960 . S
C1914 C1912 1.381 . S
C1914 C1915 1.394 . S
C1914 H1922 0.930 . S
C1915 C1914 1.394 . S
C1915 C1916 1.383 . S
C1915 H1923 0.929 . S
C1916 C1915 1.383 . S
C1916 C1917 1.377 . S
C1917 H1901 0.930 . S
C1917 C1916 1.377 . S
C1917 C1918 1.379 . S
C1918 H1902 0.931 . S
C1918 C1912 1.383 . S
C1918 C1917 1.379 . S
H1919 C1913 0.959 . S
H1920 C1913 0.961 . S
H1921 C1913 0.960 . S
H1922 C1914 0.930 . S
H1923 C1915 0.929 . S
H1924 C1932 0.929 . S
H1925 C1934 0.930 . S
H1926 C1936 0.930 . S
H1927 C1939 0.929 . S
H1928 C1942 0.930 . S
H1929 C1944 0.960 . S
H1930 C1944 0.960 . S
H1931 C1944 0.960 . S
C1932 H1924 0.929 . S
C1932 C1933 1.377 . S
C1932 C1934 1.384 . S
C1933 C1932 1.377 . S
C1933 C1939 1.390 . S
C1934 H1925 0.930 . S
C1934 C1932 1.384 . S
C1934 C1935 1.372 . S
C1935 C1934 1.372 . S
C1935 C1936 1.400 . S
C1935 C1940 1.490 . S
C1936 H1926 0.930 . S
C1936 C1935 1.400 . S
C1936 C1939 1.386 . S
H1937 C1953 0.930 . S
H1938 C1954 0.931 . S
C1939 H1927 0.929 . S
C1939 C1933 1.390 . S
C1939 C1936 1.386 . S
C1940 C1935 1.490 . S
C1940 C1942 1.395 . S
C1940 C1943 1.403 . S
H1941 C1947 0.930 . S
C1942 H1928 0.930 . S
C1942 C1940 1.395 . S
C1942 C1945 1.403 1_545 S
C1943 C1940 1.403 . S
C1943 C1944 1.524 . S
C1943 C1947 1.400 . S
C1944 H1929 0.960 . S
C1944 H1930 0.960 . S
C1944 H1931 0.960 . S
C1944 C1943 1.524 . S
C1945 C1942 1.403 1_565 S
C1945 C1946 1.392 . S
C1945 C1949 1.495 . S
C1946 C1945 1.392 . S
C1946 C1947 1.385 1_565 S
C1946 C1948 1.478 . S
C1947 H1941 0.930 . S
C1947 C1943 1.400 . S
C1947 C1946 1.385 1_545 S
C1948 C1946 1.478 . S
C1948 C1950 1.381 . S
C1948 C1954 1.383 . S
C1949 C1945 1.495 . S
C1949 H1955 0.959 . S
C1949 H1956 0.961 . S
C1949 H1957 0.960 . S
C1950 C1948 1.381 . S
C1950 C1951 1.394 . S
C1950 H1958 0.930 . S
C1951 C1950 1.394 . S
C1951 C1952 1.383 . S
C1951 H1959 0.929 . S
C1952 C1951 1.383 . S
C1952 C1953 1.377 . S
C1953 H1937 0.930 . S
C1953 C1952 1.377 . S
C1953 C1954 1.379 . S
C1954 H1938 0.931 . S
C1954 C1948 1.383 . S
C1954 C1953 1.379 . S
H1955 C1949 0.959 . S
H1956 C1949 0.961 . S
H1957 C1949 0.960 . S
H1958 C1950 0.930 . S
H1959 C1951 0.929 . S
H1960 C1968 0.929 . S
H1961 C1970 0.930 . S
H1962 C1972 0.930 . S
H1963 C1975 0.929 . S
H1964 C1978 0.930 . S
H1965 C1980 0.960 . S
H1966 C1980 0.960 . S
H1967 C1980 0.960 . S
C1968 H1960 0.929 . S
C1968 C1969 1.377 . S
C1968 C1970 1.384 . S
C1969 C1968 1.377 . S
C1969 C1975 1.390 . S
C1970 H1961 0.930 . S
C1970 C1968 1.384 . S
C1970 C1971 1.372 . S
C1971 C1970 1.372 . S
C1971 C1972 1.400 . S
C1971 C1976 1.490 . S
C1972 H1962 0.930 . S
C1972 C1971 1.400 . S
C1972 C1975 1.386 . S
H1973 C1989 0.930 . S
H1974 C1990 0.931 . S
C1975 H1963 0.929 . S
C1975 C1969 1.390 . S
C1975 C1972 1.386 . S
C1976 C1971 1.490 . S
C1976 C1978 1.395 . S
C1976 C1979 1.403 . S
H1977 C1983 0.930 . S
C1978 H1964 0.930 . S
C1978 C1976 1.395 . S
C1978 C1981 1.403 . S
C1979 C1976 1.403 . S
C1979 C1980 1.524 . S
C1979 C1983 1.400 . S
C1980 H1965 0.960 . S
C1980 H1966 0.960 . S
C1980 H1967 0.960 . S
C1980 C1979 1.524 . S
C1981 C1978 1.403 . S
C1981 C1982 1.392 . S
C1981 C1985 1.495 . S
C1982 C1981 1.392 . S
C1982 C1983 1.385 . S
C1982 C1984 1.478 . S
C1983 H1977 0.930 . S
C1983 C1979 1.400 . S
C1983 C1982 1.385 . S
C1984 C1982 1.478 . S
C1984 C1986 1.381 . S
C1984 C1990 1.383 . S
C1985 C1981 1.495 . S
C1985 H1991 0.959 . S
C1985 H1992 0.961 . S
C1985 H1993 0.960 . S
C1986 C1984 1.381 . S
C1986 C1987 1.394 . S
C1986 H1994 0.930 . S
C1987 C1986 1.394 . S
C1987 C1988 1.383 . S
C1987 H1995 0.929 . S
C1988 C1987 1.383 . S
C1988 C1989 1.377 . S
C1989 H1973 0.930 . S
C1989 C1988 1.377 . S
C1989 C1990 1.379 . S
C1990 H1974 0.931 . S
C1990 C1984 1.383 . S
C1990 C1989 1.379 . S
H1991 C1985 0.959 . S
H1992 C1985 0.961 . S
H1993 C1985 0.960 . S
H1994 C1986 0.930 . S
H1995 C1987 0.929 . S
H1996 C2004 0.929 . S
H1997 C2006 0.930 . S
H1998 C2008 0.930 . S
H1999 C2011 0.929 . S
H2000 C2014 0.930 . S
H2001 C2016 0.960 . S
H2002 C2016 0.960 . S
H2003 C2016 0.960 . S
C2004 H1996 0.929 . S
C2004 C2005 1.377 . S
C2004 C2006 1.384 . S
C2005 C2004 1.377 . S
C2005 C2011 1.390 . S
C2006 H1997 0.930 . S
C2006 C2004 1.384 . S
C2006 C2007 1.372 . S
C2007 C2006 1.372 . S
C2007 C2008 1.400 . S
C2007 C2012 1.490 . S
C2008 H1998 0.930 . S
C2008 C2007 1.400 . S
C2008 C2011 1.386 . S
H2009 C2025 0.930 . S
H2010 C2026 0.931 . S
C2011 H1999 0.929 . S
C2011 C2005 1.390 . S
C2011 C2008 1.386 . S
C2012 C2007 1.490 . S
C2012 C2014 1.395 . S
C2012 C2015 1.403 . S
H2013 C2019 0.930 . S
C2014 H2000 0.930 . S
C2014 C2012 1.395 . S
C2014 C2017 1.403 . S
C2015 C2012 1.403 . S
C2015 C2016 1.524 . S
C2015 C2019 1.400 1_565 S
C2016 H2001 0.960 . S
C2016 H2002 0.960 . S
C2016 H2003 0.960 . S
C2016 C2015 1.524 . S
C2017 C2014 1.403 . S
C2017 C2018 1.392 1_565 S
C2017 C2021 1.495 . S
C2018 C2017 1.392 1_545 S
C2018 C2019 1.385 . S
C2018 C2020 1.478 . S
C2019 H2013 0.930 . S
C2019 C2015 1.400 1_545 S
C2019 C2018 1.385 . S
C2020 C2018 1.478 . S
C2020 C2022 1.381 . S
C2020 C2026 1.383 . S
C2021 C2017 1.495 . S
C2021 H2027 0.959 . S
C2021 H2028 0.961 1_565 S
C2021 H2029 0.960 . S
C2022 C2020 1.381 . S
C2022 C2023 1.394 . S
C2022 H2030 0.930 . S
C2023 C2022 1.394 . S
C2023 C2024 1.383 . S
C2023 H2031 0.929 . S
C2024 C2023 1.383 . S
C2024 C2025 1.377 . S
C2025 H2009 0.930 . S
C2025 C2024 1.377 . S
C2025 C2026 1.379 . S
C2026 H2010 0.931 . S
C2026 C2020 1.383 . S
C2026 C2025 1.379 . S
H2027 C2021 0.959 . S
H2028 C2021 0.961 1_545 S
H2029 C2021 0.960 . S
H2030 C2022 0.930 . S
H2031 C2023 0.929 . S
H2032 C2040 0.929 . S
H2033 C2042 0.930 . S
H2034 C2044 0.930 . S
H2035 C2047 0.929 . S
H2036 C2050 0.930 . S
H2037 C2052 0.960 . S
H2038 C2052 0.960 . S
H2039 C2052 0.960 . S
C2040 H2032 0.929 . S
C2040 C2041 1.377 . S
C2040 C2042 1.384 . S
C2041 C2040 1.377 . S
C2041 C2047 1.390 . S
C2042 H2033 0.930 . S
C2042 C2040 1.384 . S
C2042 C2043 1.372 . S
C2043 C2042 1.372 . S
C2043 C2044 1.400 . S
C2043 C2048 1.490 . S
C2044 H2034 0.930 . S
C2044 C2043 1.400 . S
C2044 C2047 1.386 . S
H2045 C2061 0.930 . S
H2046 C2062 0.931 . S
C2047 H2035 0.929 . S
C2047 C2041 1.390 . S
C2047 C2044 1.386 . S
C2048 C2043 1.490 . S
C2048 C2050 1.395 . S
C2048 C2051 1.403 . S
H2049 C2055 0.930 . S
C2050 H2036 0.930 . S
C2050 C2048 1.395 . S
C2050 C2053 1.403 . S
C2051 C2048 1.403 . S
C2051 C2052 1.524 . S
C2051 C2055 1.400 . S
C2052 H2037 0.960 . S
C2052 H2038 0.960 . S
C2052 H2039 0.960 . S
C2052 C2051 1.524 . S
C2053 C2050 1.403 . S
C2053 C2054 1.392 . S
C2053 C2057 1.495 . S
C2054 C2053 1.392 . S
C2054 C2055 1.385 . S
C2054 C2056 1.478 . S
C2055 H2049 0.930 . S
C2055 C2051 1.400 . S
C2055 C2054 1.385 . S
C2056 C2054 1.478 . S
C2056 C2058 1.381 . S
C2056 C2062 1.383 . S
C2057 C2053 1.495 . S
C2057 H2063 0.959 . S
C2057 H2064 0.961 . S
C2057 H2065 0.960 . S
C2058 C2056 1.381 . S
C2058 C2059 1.394 . S
C2058 H2066 0.930 . S
C2059 C2058 1.394 . S
C2059 C2060 1.383 . S
C2059 H2067 0.929 . S
C2060 C2059 1.383 . S
C2060 C2061 1.377 . S
C2061 H2045 0.930 . S
C2061 C2060 1.377 . S
C2061 C2062 1.379 . S
C2062 H2046 0.931 . S
C2062 C2056 1.383 . S
C2062 C2061 1.379 . S
H2063 C2057 0.959 . S
H2064 C2057 0.961 . S
H2065 C2057 0.960 . S
H2066 C2058 0.930 . S
H2067 C2059 0.929 . S
H2068 C2076 0.929 . S
H2069 C2078 0.930 . S
H2070 C2080 0.930 . S
H2071 C2083 0.929 . S
H2072 C2086 0.930 . S
H2073 C2088 0.960 . S
H2074 C2088 0.960 . S
H2075 C2088 0.960 . S
C2076 H2068 0.929 . S
C2076 C2077 1.377 . S
C2076 C2078 1.384 . S
C2077 C2076 1.377 . S
C2077 C2083 1.390 . S
C2078 H2069 0.930 . S
C2078 C2076 1.384 . S
C2078 C2079 1.372 . S
C2079 C2078 1.372 . S
C2079 C2080 1.400 . S
C2079 C2084 1.490 . S
C2080 H2070 0.930 . S
C2080 C2079 1.400 . S
C2080 C2083 1.386 . S
H2081 C2097 0.930 . S
H2082 C2098 0.931 . S
C2083 H2071 0.929 . S
C2083 C2077 1.390 . S
C2083 C2080 1.386 . S
C2084 C2079 1.490 . S
C2084 C2086 1.395 . S
C2084 C2087 1.403 . S
H2085 C2091 0.930 . S
C2086 H2072 0.930 . S
C2086 C2084 1.395 . S
C2086 C2089 1.403 1_545 S
C2087 C2084 1.403 . S
C2087 C2088 1.524 . S
C2087 C2091 1.400 . S
C2088 H2073 0.960 . S
C2088 H2074 0.960 . S
C2088 H2075 0.960 . S
C2088 C2087 1.524 . S
C2089 C2086 1.403 1_565 S
C2089 C2090 1.392 . S
C2089 C2093 1.495 . S
C2090 C2089 1.392 . S
C2090 C2091 1.385 1_565 S
C2090 C2092 1.478 . S
C2091 H2085 0.930 . S
C2091 C2087 1.400 . S
C2091 C2090 1.385 1_545 S
C2092 C2090 1.478 . S
C2092 C2094 1.381 . S
C2092 C2098 1.383 . S
C2093 C2089 1.495 . S
C2093 H2099 0.959 . S
C2093 H2100 0.961 . S
C2093 H2101 0.960 . S
C2094 C2092 1.381 . S
C2094 C2095 1.394 . S
C2094 H2102 0.930 . S
C2095 C2094 1.394 . S
C2095 C2096 1.383 . S
C2095 H2103 0.929 . S
C2096 C2095 1.383 . S
C2096 C2097 1.377 . S
C2097 H2081 0.930 . S
C2097 C2096 1.377 . S
C2097 C2098 1.379 . S
C2098 H2082 0.931 . S
C2098 C2092 1.383 . S
C2098 C2097 1.379 . S
H2099 C2093 0.959 . S
H2100 C2093 0.961 . S
H2101 C2093 0.960 . S
H2102 C2094 0.930 . S
H2103 C2095 0.929 . S
H2104 C2112 0.929 . S
H2105 C2114 0.930 . S
H2106 C2116 0.930 . S
H2107 C2119 0.929 . S
H2108 C2122 0.930 . S
H2109 C2124 0.960 . S
H2110 C2124 0.960 . S
H2111 C2124 0.960 . S
C2112 H2104 0.929 . S
C2112 C2113 1.377 . S
C2112 C2114 1.384 . S
C2113 C2112 1.377 . S
C2113 C2119 1.390 . S
C2114 H2105 0.930 . S
C2114 C2112 1.384 . S
C2114 C2115 1.372 . S
C2115 C2114 1.372 . S
C2115 C2116 1.400 . S
C2115 C2120 1.490 . S
C2116 H2106 0.930 . S
C2116 C2115 1.400 . S
C2116 C2119 1.386 . S
H2117 C2133 0.930 . S
H2118 C2134 0.931 . S
C2119 H2107 0.929 . S
C2119 C2113 1.390 . S
C2119 C2116 1.386 . S
C2120 C2115 1.490 . S
C2120 C2122 1.395 . S
C2120 C2123 1.403 . S
H2121 C2127 0.930 . S
C2122 H2108 0.930 . S
C2122 C2120 1.395 . S
C2122 C2125 1.403 . S
C2123 C2120 1.403 . S
C2123 C2124 1.524 . S
C2123 C2127 1.400 . S
C2124 H2109 0.960 . S
C2124 H2110 0.960 . S
C2124 H2111 0.960 . S
C2124 C2123 1.524 . S
C2125 C2122 1.403 . S
C2125 C2126 1.392 . S
C2125 C2129 1.495 . S
C2126 C2125 1.392 . S
C2126 C2127 1.385 . S
C2126 C2128 1.478 . S
C2127 H2121 0.930 . S
C2127 C2123 1.400 . S
C2127 C2126 1.385 . S
C2128 C2126 1.478 . S
C2128 C2130 1.381 . S
C2128 C2134 1.383 . S
C2129 C2125 1.495 . S
C2129 H2135 0.959 . S
C2129 H2136 0.961 . S
C2129 H2137 0.960 . S
C2130 C2128 1.381 . S
C2130 C2131 1.394 . S
C2130 H2138 0.930 . S
C2131 C2130 1.394 . S
C2131 C2132 1.383 . S
C2131 H2139 0.929 . S
C2132 C2131 1.383 . S
C2132 C2133 1.377 . S
C2133 H2117 0.930 . S
C2133 C2132 1.377 . S
C2133 C2134 1.379 . S
C2134 H2118 0.931 . S
C2134 C2128 1.383 . S
C2134 C2133 1.379 . S
H2135 C2129 0.959 . S
H2136 C2129 0.961 . S
H2137 C2129 0.960 . S
H2138 C2130 0.930 . S
H2139 C2131 0.929 . S
H2140 C2148 0.929 . S
H2141 C2150 0.930 . S
H2142 C2152 0.930 . S
H2143 C2155 0.929 . S
H2144 C2158 0.930 . S
H2145 C2160 0.960 . S
H2146 C2160 0.960 . S
H2147 C2160 0.960 . S
C2148 H2140 0.929 . S
C2148 C2149 1.377 . S
C2148 C2150 1.384 . S
C2149 C2148 1.377 . S
C2149 C2155 1.390 . S
C2150 H2141 0.930 . S
C2150 C2148 1.384 . S
C2150 C2151 1.372 . S
C2151 C2150 1.372 . S
C2151 C2152 1.400 . S
C2151 C2156 1.490 . S
C2152 H2142 0.930 . S
C2152 C2151 1.400 . S
C2152 C2155 1.386 . S
H2153 C2169 0.930 . S
H2154 C2170 0.931 . S
C2155 H2143 0.929 . S
C2155 C2149 1.390 . S
C2155 C2152 1.386 . S
C2156 C2151 1.490 . S
C2156 C2158 1.395 . S
C2156 C2159 1.403 . S
H2157 C2163 0.930 . S
C2158 H2144 0.930 . S
C2158 C2156 1.395 . S
C2158 C2161 1.403 . S
C2159 C2156 1.403 . S
C2159 C2160 1.524 . S
C2159 C2163 1.400 . S
C2160 H2145 0.960 . S
C2160 H2146 0.960 . S
C2160 H2147 0.960 . S
C2160 C2159 1.524 . S
C2161 C2158 1.403 . S
C2161 C2162 1.392 . S
C2161 C2165 1.495 . S
C2162 C2161 1.392 . S
C2162 C2163 1.385 . S
C2162 C2164 1.478 . S
C2163 H2157 0.930 . S
C2163 C2159 1.400 . S
C2163 C2162 1.385 . S
C2164 C2162 1.478 . S
C2164 C2166 1.381 . S
C2164 C2170 1.383 . S
C2165 C2161 1.495 . S
C2165 H2171 0.959 . S
C2165 H2172 0.961 . S
C2165 H2173 0.960 . S
C2166 C2164 1.381 . S
C2166 C2167 1.394 . S
C2166 H2174 0.930 . S
C2167 C2166 1.394 . S
C2167 C2168 1.383 . S
C2167 H2175 0.929 . S
C2168 C2167 1.383 . S
C2168 C2169 1.377 . S
C2169 H2153 0.930 . S
C2169 C2168 1.377 . S
C2169 C2170 1.379 . S
C2170 H2154 0.931 . S
C2170 C2164 1.383 . S
C2170 C2169 1.379 . S
H2171 C2165 0.959 . S
H2172 C2165 0.961 . S
H2173 C2165 0.960 . S
H2174 C2166 0.930 . S
H2175 C2167 0.929 . S
H2176 C2184 0.929 . S
H2177 C2186 0.930 . S
H2178 C2188 0.930 . S
H2179 C2191 0.929 . S
H2180 C2194 0.930 . S
H2181 C2196 0.960 1_455 S
H2182 C2196 0.960 . S
H2183 C2196 0.960 . S
C2184 H2176 0.929 . S
C2184 C2185 1.377 . S
C2184 C2186 1.384 . S
C2185 C2184 1.377 . S
C2185 C2191 1.390 . S
C2186 H2177 0.930 . S
C2186 C2184 1.384 . S
C2186 C2187 1.372 . S
C2187 C2186 1.372 . S
C2187 C2188 1.400 . S
C2187 C2192 1.490 . S
C2188 H2178 0.930 . S
C2188 C2187 1.400 . S
C2188 C2191 1.386 . S
H2189 C2205 0.930 . S
H2190 C2206 0.931 . S
C2191 H2179 0.929 . S
C2191 C2185 1.390 . S
C2191 C2188 1.386 . S
C2192 C2187 1.490 . S
C2192 C2194 1.395 . S
C2192 C2195 1.403 . S
H2193 C2199 0.930 . S
C2194 H2180 0.930 . S
C2194 C2192 1.395 . S
C2194 C2197 1.403 . S
C2195 C2192 1.403 . S
C2195 C2196 1.524 . S
C2195 C2199 1.400 1_655 S
C2196 H2181 0.960 1_655 S
C2196 H2182 0.960 . S
C2196 H2183 0.960 . S
C2196 C2195 1.524 . S
C2197 C2194 1.403 . S
C2197 C2198 1.392 1_655 S
C2197 C2201 1.495 . S
C2198 C2197 1.392 1_455 S
C2198 C2199 1.385 . S
C2198 C2200 1.478 . S
C2199 H2193 0.930 . S
C2199 C2195 1.400 1_455 S
C2199 C2198 1.385 . S
C2200 C2198 1.478 . S
C2200 C2202 1.381 . S
C2200 C2206 1.383 . S
C2201 C2197 1.495 . S
C2201 H2207 0.959 . S
C2201 H2208 0.961 . S
C2201 H2209 0.960 . S
C2202 C2200 1.381 . S
C2202 C2203 1.394 . S
C2202 H2210 0.930 . S
C2203 C2202 1.394 . S
C2203 C2204 1.383 . S
C2203 H2211 0.929 . S
C2204 C2203 1.383 . S
C2204 C2205 1.377 . S
C2205 H2189 0.930 . S
C2205 C2204 1.377 . S
C2205 C2206 1.379 . S
C2206 H2190 0.931 . S
C2206 C2200 1.383 . S
C2206 C2205 1.379 . S
H2207 C2201 0.959 . S
H2208 C2201 0.961 . S
H2209 C2201 0.960 . S
H2210 C2202 0.930 . S
H2211 C2203 0.929 . S
H2212 C2220 0.929 . S
H2213 C2222 0.930 . S
H2214 C2224 0.930 . S
H2215 C2227 0.929 . S
H2216 C2230 0.930 . S
H2217 C2232 0.960 . S
H2218 C2232 0.960 . S
H2219 C2232 0.960 . S
C2220 H2212 0.929 . S
C2220 C2221 1.377 . S
C2220 C2222 1.384 . S
C2221 C2220 1.377 . S
C2221 C2227 1.390 . S
C2222 H2213 0.930 . S
C2222 C2220 1.384 . S
C2222 C2223 1.372 . S
C2223 C2222 1.372 . S
C2223 C2224 1.400 . S
C2223 C2228 1.490 . S
C2224 H2214 0.930 . S
C2224 C2223 1.400 . S
C2224 C2227 1.386 . S
H2225 C2241 0.930 . S
H2226 C2242 0.931 . S
C2227 H2215 0.929 . S
C2227 C2221 1.390 . S
C2227 C2224 1.386 . S
C2228 C2223 1.490 . S
C2228 C2230 1.395 . S
C2228 C2231 1.403 . S
H2229 C2235 0.930 . S
C2230 H2216 0.930 . S
C2230 C2228 1.395 . S
C2230 C2233 1.403 . S
C2231 C2228 1.403 . S
C2231 C2232 1.524 . S
C2231 C2235 1.400 . S
C2232 H2217 0.960 . S
C2232 H2218 0.960 . S
C2232 H2219 0.960 . S
C2232 C2231 1.524 . S
C2233 C2230 1.403 . S
C2233 C2234 1.392 . S
C2233 C2237 1.495 . S
C2234 C2233 1.392 . S
C2234 C2235 1.385 . S
C2234 C2236 1.478 . S
C2235 H2229 0.930 . S
C2235 C2231 1.400 . S
C2235 C2234 1.385 . S
C2236 C2234 1.478 . S
C2236 C2238 1.381 . S
C2236 C2242 1.383 . S
C2237 C2233 1.495 . S
C2237 H2243 0.959 . S
C2237 H2244 0.961 . S
C2237 H2245 0.960 . S
C2238 C2236 1.381 . S
C2238 C2239 1.394 . S
C2238 H2246 0.930 . S
C2239 C2238 1.394 . S
C2239 C2240 1.383 . S
C2239 H2247 0.929 . S
C2240 C2239 1.383 . S
C2240 C2241 1.377 . S
C2241 H2225 0.930 . S
C2241 C2240 1.377 . S
C2241 C2242 1.379 . S
C2242 H2226 0.931 . S
C2242 C2236 1.383 . S
C2242 C2241 1.379 . S
H2243 C2237 0.959 . S
H2244 C2237 0.961 . S
H2245 C2237 0.960 . S
H2246 C2238 0.930 . S
H2247 C2239 0.929 . S
H2248 C2256 0.929 1_545 S
H2249 C2258 0.930 . S
H2250 C2260 0.930 . S
H2251 C2263 0.929 . S
H2252 C2266 0.930 . S
H2253 C2268 0.960 . S
H2254 C2268 0.960 . S
H2255 C2268 0.960 . S
C2256 H2248 0.929 1_565 S
C2256 C2257 1.377 . S
C2256 C2258 1.384 . S
C2257 C2256 1.377 . S
C2257 C2263 1.390 . S
C2258 H2249 0.930 . S
C2258 C2256 1.384 . S
C2258 C2259 1.372 . S
C2259 C2258 1.372 . S
C2259 C2260 1.400 . S
C2259 C2264 1.490 . S
C2260 H2250 0.930 . S
C2260 C2259 1.400 . S
C2260 C2263 1.386 . S
H2261 C2277 0.930 . S
H2262 C2278 0.931 . S
C2263 H2251 0.929 . S
C2263 C2257 1.390 . S
C2263 C2260 1.386 . S
C2264 C2259 1.490 . S
C2264 C2266 1.395 . S
C2264 C2267 1.403 . S
H2265 C2271 0.930 . S
C2266 H2252 0.930 . S
C2266 C2264 1.395 . S
C2266 C2269 1.403 1_455 S
C2267 C2264 1.403 . S
C2267 C2268 1.524 . S
C2267 C2271 1.400 . S
C2268 H2253 0.960 . S
C2268 H2254 0.960 . S
C2268 H2255 0.960 . S
C2268 C2267 1.524 . S
C2269 C2266 1.403 1_655 S
C2269 C2270 1.392 . S
C2269 C2273 1.495 . S
C2270 C2269 1.392 . S
C2270 C2271 1.385 1_655 S
C2270 C2272 1.478 . S
C2271 H2265 0.930 . S
C2271 C2267 1.400 . S
C2271 C2270 1.385 1_455 S
C2272 C2270 1.478 . S
C2272 C2274 1.381 . S
C2272 C2278 1.383 . S
C2273 C2269 1.495 . S
C2273 H2279 0.959 . S
C2273 H2280 0.961 . S
C2273 H2281 0.960 . S
C2274 C2272 1.381 . S
C2274 C2275 1.394 . S
C2274 H2282 0.930 . S
C2275 C2274 1.394 . S
C2275 C2276 1.383 . S
C2275 H2283 0.929 . S
C2276 C2275 1.383 . S
C2276 C2277 1.377 . S
C2277 H2261 0.930 . S
C2277 C2276 1.377 . S
C2277 C2278 1.379 . S
C2278 H2262 0.931 . S
C2278 C2272 1.383 . S
C2278 C2277 1.379 . S
H2279 C2273 0.959 . S
H2280 C2273 0.961 . S
H2281 C2273 0.960 . S
H2282 C2274 0.930 . S
H2283 C2275 0.929 . S
H2284 C2292 0.929 . S
H2285 C2294 0.930 . S
H2286 C2296 0.930 . S
H2287 C2299 0.929 . S
H2288 C2302 0.930 . S
H2289 C2304 0.960 . S
H2290 C2304 0.960 . S
H2291 C2304 0.960 . S
C2292 H2284 0.929 . S
C2292 C2293 1.377 . S
C2292 C2294 1.384 . S
C2293 C2292 1.377 . S
C2293 C2299 1.390 . S
C2294 H2285 0.930 . S
C2294 C2292 1.384 . S
C2294 C2295 1.372 . S
C2295 C2294 1.372 . S
C2295 C2296 1.400 . S
C2295 C2300 1.490 . S
C2296 H2286 0.930 . S
C2296 C2295 1.400 . S
C2296 C2299 1.386 . S
H2297 C2313 0.930 . S
H2298 C2314 0.931 . S
C2299 H2287 0.929 . S
C2299 C2293 1.390 . S
C2299 C2296 1.386 . S
C2300 C2295 1.490 . S
C2300 C2302 1.395 . S
C2300 C2303 1.403 . S
H2301 C2307 0.930 . S
C2302 H2288 0.930 . S
C2302 C2300 1.395 . S
C2302 C2305 1.403 . S
C2303 C2300 1.403 . S
C2303 C2304 1.524 . S
C2303 C2307 1.400 . S
C2304 H2289 0.960 . S
C2304 H2290 0.960 . S
C2304 H2291 0.960 . S
C2304 C2303 1.524 . S
C2305 C2302 1.403 . S
C2305 C2306 1.392 . S
C2305 C2309 1.495 . S
C2306 C2305 1.392 . S
C2306 C2307 1.385 . S
C2306 C2308 1.478 . S
C2307 H2301 0.930 . S
C2307 C2303 1.400 . S
C2307 C2306 1.385 . S
C2308 C2306 1.478 . S
C2308 C2310 1.381 . S
C2308 C2314 1.383 . S
C2309 C2305 1.495 . S
C2309 H2315 0.959 . S
C2309 H2316 0.961 . S
C2309 H2317 0.960 . S
C2310 C2308 1.381 . S
C2310 C2311 1.394 . S
C2310 H2318 0.930 . S
C2311 C2310 1.394 . S
C2311 C2312 1.383 . S
C2311 H2319 0.929 . S
C2312 C2311 1.383 . S
C2312 C2313 1.377 . S
C2313 H2297 0.930 . S
C2313 C2312 1.377 . S
C2313 C2314 1.379 . S
C2314 H2298 0.931 . S
C2314 C2308 1.383 . S
C2314 C2313 1.379 . S
H2315 C2309 0.959 . S
H2316 C2309 0.961 . S
H2317 C2309 0.960 . S
H2318 C2310 0.930 . S
H2319 C2311 0.929 . S
H2320 C2328 0.929 . S
H2321 C2330 0.930 . S
H2322 C2332 0.930 . S
H2323 C2335 0.929 . S
H2324 C2338 0.930 . S
H2325 C2340 0.960 1_455 S
H2326 C2340 0.960 . S
H2327 C2340 0.960 . S
C2328 H2320 0.929 . S
C2328 C2329 1.377 . S
C2328 C2330 1.384 . S
C2329 C2328 1.377 . S
C2329 C2335 1.390 . S
C2330 H2321 0.930 . S
C2330 C2328 1.384 . S
C2330 C2331 1.372 . S
C2331 C2330 1.372 . S
C2331 C2332 1.400 . S
C2331 C2336 1.490 . S
C2332 H2322 0.930 . S
C2332 C2331 1.400 . S
C2332 C2335 1.386 . S
H2333 C2349 0.930 . S
H2334 C2350 0.931 . S
C2335 H2323 0.929 . S
C2335 C2329 1.390 . S
C2335 C2332 1.386 . S
C2336 C2331 1.490 . S
C2336 C2338 1.395 . S
C2336 C2339 1.403 . S
H2337 C2343 0.930 . S
C2338 H2324 0.930 . S
C2338 C2336 1.395 . S
C2338 C2341 1.403 . S
C2339 C2336 1.403 . S
C2339 C2340 1.524 . S
C2339 C2343 1.400 1_655 S
C2340 H2325 0.960 1_655 S
C2340 H2326 0.960 . S
C2340 H2327 0.960 . S
C2340 C2339 1.524 . S
C2341 C2338 1.403 . S
C2341 C2342 1.392 1_655 S
C2341 C2345 1.495 . S
C2342 C2341 1.392 1_455 S
C2342 C2343 1.385 . S
C2342 C2344 1.478 . S
C2343 H2337 0.930 . S
C2343 C2339 1.400 1_455 S
C2343 C2342 1.385 . S
C2344 C2342 1.478 . S
C2344 C2346 1.381 . S
C2344 C2350 1.383 . S
C2345 C2341 1.495 . S
C2345 H2351 0.959 . S
C2345 H2352 0.961 . S
C2345 H2353 0.960 . S
C2346 C2344 1.381 . S
C2346 C2347 1.394 . S
C2346 H2354 0.930 . S
C2347 C2346 1.394 . S
C2347 C2348 1.383 . S
C2347 H2355 0.929 . S
C2348 C2347 1.383 . S
C2348 C2349 1.377 . S
C2349 H2333 0.930 . S
C2349 C2348 1.377 . S
C2349 C2350 1.379 . S
C2350 H2334 0.931 . S
C2350 C2344 1.383 . S
C2350 C2349 1.379 . S
H2351 C2345 0.959 . S
H2352 C2345 0.961 . S
H2353 C2345 0.960 . S
H2354 C2346 0.930 . S
H2355 C2347 0.929 . S
H2356 C2364 0.929 . S
H2357 C2366 0.930 . S
H2358 C2368 0.930 . S
H2359 C2371 0.929 . S
H2360 C2374 0.930 . S
H2361 C2376 0.960 . S
H2362 C2376 0.960 . S
H2363 C2376 0.960 . S
C2364 H2356 0.929 . S
C2364 C2365 1.377 . S
C2364 C2366 1.384 . S
C2365 C2364 1.377 . S
C2365 C2371 1.390 . S
C2366 H2357 0.930 . S
C2366 C2364 1.384 . S
C2366 C2367 1.372 . S
C2367 C2366 1.372 . S
C2367 C2368 1.400 . S
C2367 C2372 1.490 . S
C2368 H2358 0.930 . S
C2368 C2367 1.400 . S
C2368 C2371 1.386 . S
H2369 C2385 0.930 . S
H2370 C2386 0.931 . S
C2371 H2359 0.929 . S
C2371 C2365 1.390 . S
C2371 C2368 1.386 . S
C2372 C2367 1.490 . S
C2372 C2374 1.395 . S
C2372 C2375 1.403 . S
H2373 C2379 0.930 . S
C2374 H2360 0.930 . S
C2374 C2372 1.395 . S
C2374 C2377 1.403 . S
C2375 C2372 1.403 . S
C2375 C2376 1.524 . S
C2375 C2379 1.400 . S
C2376 H2361 0.960 . S
C2376 H2362 0.960 . S
C2376 H2363 0.960 . S
C2376 C2375 1.524 . S
C2377 C2374 1.403 . S
C2377 C2378 1.392 . S
C2377 C2381 1.495 . S
C2378 C2377 1.392 . S
C2378 C2379 1.385 . S
C2378 C2380 1.478 . S
C2379 H2373 0.930 . S
C2379 C2375 1.400 . S
C2379 C2378 1.385 . S
C2380 C2378 1.478 . S
C2380 C2382 1.381 . S
C2380 C2386 1.383 . S
C2381 C2377 1.495 . S
C2381 H2387 0.959 . S
C2381 H2388 0.961 . S
C2381 H2389 0.960 . S
C2382 C2380 1.381 . S
C2382 C2383 1.394 . S
C2382 H2390 0.930 . S
C2383 C2382 1.394 . S
C2383 C2384 1.383 . S
C2383 H2391 0.929 . S
C2384 C2383 1.383 . S
C2384 C2385 1.377 . S
C2385 H2369 0.930 . S
C2385 C2384 1.377 . S
C2385 C2386 1.379 . S
C2386 H2370 0.931 . S
C2386 C2380 1.383 . S
C2386 C2385 1.379 . S
H2387 C2381 0.959 . S
H2388 C2381 0.961 . S
H2389 C2381 0.960 . S
H2390 C2382 0.930 . S
H2391 C2383 0.929 . S
H2392 C2400 0.929 . S
H2393 C2402 0.930 . S
H2394 C2404 0.930 . S
H2395 C2407 0.929 . S
H2396 C2410 0.930 . S
H2397 C2412 0.960 . S
H2398 C2412 0.960 . S
H2399 C2412 0.960 . S
C2400 H2392 0.929 . S
C2400 C2401 1.377 . S
C2400 C2402 1.384 . S
C2401 C2400 1.377 . S
C2401 C2407 1.390 . S
C2402 H2393 0.930 . S
C2402 C2400 1.384 . S
C2402 C2403 1.372 . S
C2403 C2402 1.372 . S
C2403 C2404 1.400 . S
C2403 C2408 1.490 . S
C2404 H2394 0.930 . S
C2404 C2403 1.400 . S
C2404 C2407 1.386 . S
H2405 C2421 0.930 . S
H2406 C2422 0.931 . S
C2407 H2395 0.929 . S
C2407 C2401 1.390 . S
C2407 C2404 1.386 . S
C2408 C2403 1.490 . S
C2408 C2410 1.395 . S
C2408 C2411 1.403 . S
H2409 C2415 0.930 . S
C2410 H2396 0.930 . S
C2410 C2408 1.395 . S
C2410 C2413 1.403 . S
C2411 C2408 1.403 . S
C2411 C2412 1.524 . S
C2411 C2415 1.400 . S
C2412 H2397 0.960 . S
C2412 H2398 0.960 . S
C2412 H2399 0.960 . S
C2412 C2411 1.524 . S
C2413 C2410 1.403 . S
C2413 C2414 1.392 . S
C2413 C2417 1.495 . S
C2414 C2413 1.392 . S
C2414 C2415 1.385 . S
C2414 C2416 1.478 . S
C2415 H2409 0.930 . S
C2415 C2411 1.400 . S
C2415 C2414 1.385 . S
C2416 C2414 1.478 . S
C2416 C2418 1.381 . S
C2416 C2422 1.383 . S
C2417 C2413 1.495 . S
C2417 H2423 0.959 . S
C2417 H2424 0.961 . S
C2417 H2425 0.960 . S
C2418 C2416 1.381 . S
C2418 C2419 1.394 . S
C2418 H2426 0.930 . S
C2419 C2418 1.394 . S
C2419 C2420 1.383 . S
C2419 H2427 0.929 . S
C2420 C2419 1.383 . S
C2420 C2421 1.377 . S
C2421 H2405 0.930 . S
C2421 C2420 1.377 . S
C2421 C2422 1.379 . S
C2422 H2406 0.931 . S
C2422 C2416 1.383 . S
C2422 C2421 1.379 . S
H2423 C2417 0.959 . S
H2424 C2417 0.961 . S
H2425 C2417 0.960 . S
H2426 C2418 0.930 . S
H2427 C2419 0.929 . S
H2428 C2436 0.929 . S
H2429 C2438 0.930 . S
H2430 C2440 0.930 . S
H2431 C2443 0.929 . S
H2432 C2446 0.930 . S
H2433 C2448 0.960 1_556 S
H2434 C2448 0.960 . S
H2435 C2448 0.960 . S
C2436 H2428 0.929 . S
C2436 C2437 1.377 . S
C2436 C2438 1.384 . S
C2437 C2436 1.377 . S
C2437 C2443 1.390 . S
C2438 H2429 0.930 . S
C2438 C2436 1.384 . S
C2438 C2439 1.372 . S
C2439 C2438 1.372 . S
C2439 C2440 1.400 . S
C2439 C2444 1.490 . S
C2440 H2430 0.930 . S
C2440 C2439 1.400 . S
C2440 C2443 1.386 . S
H2441 C2457 0.930 . S
H2442 C2458 0.931 . S
C2443 H2431 0.929 . S
C2443 C2437 1.390 . S
C2443 C2440 1.386 . S
C2444 C2439 1.490 . S
C2444 C2446 1.395 . S
C2444 C2447 1.403 . S
H2445 C2451 0.930 . S
C2446 H2432 0.930 . S
C2446 C2444 1.395 . S
C2446 C2449 1.403 . S
C2447 C2444 1.403 . S
C2447 C2448 1.524 . S
C2447 C2451 1.400 1_554 S
C2448 H2433 0.960 1_554 S
C2448 H2434 0.960 . S
C2448 H2435 0.960 . S
C2448 C2447 1.524 . S
C2449 C2446 1.403 . S
C2449 C2450 1.392 1_554 S
C2449 C2453 1.495 . S
C2450 C2449 1.392 1_556 S
C2450 C2451 1.385 . S
C2450 C2452 1.478 . S
C2451 H2445 0.930 . S
C2451 C2447 1.400 1_556 S
C2451 C2450 1.385 . S
C2452 C2450 1.478 . S
C2452 C2454 1.381 . S
C2452 C2458 1.383 . S
C2453 C2449 1.495 . S
C2453 H2459 0.959 . S
C2453 H2460 0.961 . S
C2453 H2461 0.960 . S
C2454 C2452 1.381 . S
C2454 C2455 1.394 . S
C2454 H2462 0.930 . S
C2455 C2454 1.394 . S
C2455 C2456 1.383 . S
C2455 H2463 0.929 . S
C2456 C2455 1.383 . S
C2456 C2457 1.377 . S
C2457 H2441 0.930 . S
C2457 C2456 1.377 . S
C2457 C2458 1.379 . S
C2458 H2442 0.931 . S
C2458 C2452 1.383 . S
C2458 C2457 1.379 . S
H2459 C2453 0.959 . S
H2460 C2453 0.961 . S
H2461 C2453 0.960 . S
H2462 C2454 0.930 . S
H2463 C2455 0.929 . S
H2464 C2472 0.929 . S
H2465 C2474 0.930 . S
H2466 C2476 0.930 . S
H2467 C2479 0.929 . S
H2468 C2482 0.930 . S
H2469 C2484 0.960 . S
H2470 C2484 0.960 . S
H2471 C2484 0.960 . S
C2472 H2464 0.929 . S
C2472 C2473 1.377 . S
C2472 C2474 1.384 . S
C2473 C2472 1.377 . S
C2473 C2479 1.390 . S
C2474 H2465 0.930 . S
C2474 C2472 1.384 . S
C2474 C2475 1.372 . S
C2475 C2474 1.372 . S
C2475 C2476 1.400 . S
C2475 C2480 1.490 . S
C2476 H2466 0.930 . S
C2476 C2475 1.400 . S
C2476 C2479 1.386 . S
H2477 C2493 0.930 . S
H2478 C2494 0.931 . S
C2479 H2467 0.929 . S
C2479 C2473 1.390 . S
C2479 C2476 1.386 . S
C2480 C2475 1.490 . S
C2480 C2482 1.395 . S
C2480 C2483 1.403 . S
H2481 C2487 0.930 . S
C2482 H2468 0.930 . S
C2482 C2480 1.395 . S
C2482 C2485 1.403 . S
C2483 C2480 1.403 . S
C2483 C2484 1.524 . S
C2483 C2487 1.400 . S
C2484 H2469 0.960 . S
C2484 H2470 0.960 . S
C2484 H2471 0.960 . S
C2484 C2483 1.524 . S
C2485 C2482 1.403 . S
C2485 C2486 1.392 . S
C2485 C2489 1.495 . S
C2486 C2485 1.392 . S
C2486 C2487 1.385 . S
C2486 C2488 1.478 . S
C2487 H2481 0.930 . S
C2487 C2483 1.400 . S
C2487 C2486 1.385 . S
C2488 C2486 1.478 . S
C2488 C2490 1.381 . S
C2488 C2494 1.383 . S
C2489 C2485 1.495 . S
C2489 H2495 0.959 . S
C2489 H2496 0.961 . S
C2489 H2497 0.960 . S
C2490 C2488 1.381 . S
C2490 C2491 1.394 . S
C2490 H2498 0.930 . S
C2491 C2490 1.394 . S
C2491 C2492 1.383 . S
C2491 H2499 0.929 . S
C2492 C2491 1.383 . S
C2492 C2493 1.377 . S
C2493 H2477 0.930 . S
C2493 C2492 1.377 . S
C2493 C2494 1.379 . S
C2494 H2478 0.931 . S
C2494 C2488 1.383 . S
C2494 C2493 1.379 . S
H2495 C2489 0.959 . S
H2496 C2489 0.961 . S
H2497 C2489 0.960 . S
H2498 C2490 0.930 . S
H2499 C2491 0.929 . S
H2500 C2508 0.929 . S
H2501 C2510 0.930 . S
H2502 C2512 0.930 . S
H2503 C2515 0.929 . S
H2504 C2518 0.930 . S
H2505 C2520 0.960 . S
H2506 C2520 0.960 . S
H2507 C2520 0.960 . S
C2508 H2500 0.929 . S
C2508 C2509 1.377 . S
C2508 C2510 1.384 . S
C2509 C2508 1.377 . S
C2509 C2515 1.390 . S
C2510 H2501 0.930 . S
C2510 C2508 1.384 . S
C2510 C2511 1.372 . S
C2511 C2510 1.372 . S
C2511 C2512 1.400 . S
C2511 C2516 1.490 . S
C2512 H2502 0.930 . S
C2512 C2511 1.400 . S
C2512 C2515 1.386 . S
H2513 C2529 0.930 . S
H2514 C2530 0.931 . S
C2515 H2503 0.929 . S
C2515 C2509 1.390 . S
C2515 C2512 1.386 . S
C2516 C2511 1.490 . S
C2516 C2518 1.395 . S
C2516 C2519 1.403 . S
H2517 C2523 0.930 . S
C2518 H2504 0.930 . S
C2518 C2516 1.395 . S
C2518 C2521 1.403 . S
C2519 C2516 1.403 . S
C2519 C2520 1.524 . S
C2519 C2523 1.400 . S
C2520 H2505 0.960 . S
C2520 H2506 0.960 . S
C2520 H2507 0.960 . S
C2520 C2519 1.524 . S
C2521 C2518 1.403 . S
C2521 C2522 1.392 . S
C2521 C2525 1.495 . S
C2522 C2521 1.392 . S
C2522 C2523 1.385 . S
C2522 C2524 1.478 . S
C2523 H2517 0.930 . S
C2523 C2519 1.400 . S
C2523 C2522 1.385 . S
C2524 C2522 1.478 . S
C2524 C2526 1.381 . S
C2524 C2530 1.383 . S
C2525 C2521 1.495 . S
C2525 H2531 0.959 . S
C2525 H2532 0.961 . S
C2525 H2533 0.960 . S
C2526 C2524 1.381 . S
C2526 C2527 1.394 . S
C2526 H2534 0.930 . S
C2527 C2526 1.394 . S
C2527 C2528 1.383 . S
C2527 H2535 0.929 . S
C2528 C2527 1.383 . S
C2528 C2529 1.377 . S
C2529 H2513 0.930 . S
C2529 C2528 1.377 . S
C2529 C2530 1.379 . S
C2530 H2514 0.931 . S
C2530 C2524 1.383 . S
C2530 C2529 1.379 . S
H2531 C2525 0.959 . S
H2532 C2525 0.961 . S
H2533 C2525 0.960 . S
H2534 C2526 0.930 . S
H2535 C2527 0.929 . S
H2536 C2544 0.929 . S
H2537 C2546 0.930 . S
H2538 C2548 0.930 . S
H2539 C2551 0.929 . S
H2540 C2554 0.930 . S
H2541 C2556 0.960 . S
H2542 C2556 0.960 . S
H2543 C2556 0.960 . S
C2544 H2536 0.929 . S
C2544 C2545 1.377 . S
C2544 C2546 1.384 . S
C2545 C2544 1.377 . S
C2545 C2551 1.390 . S
C2546 H2537 0.930 . S
C2546 C2544 1.384 . S
C2546 C2547 1.372 . S
C2547 C2546 1.372 . S
C2547 C2548 1.400 . S
C2547 C2552 1.490 . S
C2548 H2538 0.930 . S
C2548 C2547 1.400 . S
C2548 C2551 1.386 . S
H2549 C2565 0.930 . S
H2550 C2566 0.931 . S
C2551 H2539 0.929 . S
C2551 C2545 1.390 . S
C2551 C2548 1.386 . S
C2552 C2547 1.490 . S
C2552 C2554 1.395 . S
C2552 C2555 1.403 . S
H2553 C2559 0.930 . S
C2554 H2540 0.930 . S
C2554 C2552 1.395 . S
C2554 C2557 1.403 . S
C2555 C2552 1.403 . S
C2555 C2556 1.524 . S
C2555 C2559 1.400 . S
C2556 H2541 0.960 . S
C2556 H2542 0.960 . S
C2556 H2543 0.960 . S
C2556 C2555 1.524 . S
C2557 C2554 1.403 . S
C2557 C2558 1.392 . S
C2557 C2561 1.495 . S
C2558 C2557 1.392 . S
C2558 C2559 1.385 . S
C2558 C2560 1.478 . S
C2559 H2553 0.930 . S
C2559 C2555 1.400 . S
C2559 C2558 1.385 . S
C2560 C2558 1.478 . S
C2560 C2562 1.381 . S
C2560 C2566 1.383 . S
C2561 C2557 1.495 . S
C2561 H2567 0.959 . S
C2561 H2568 0.961 . S
C2561 H2569 0.960 . S
C2562 C2560 1.381 . S
C2562 C2563 1.394 . S
C2562 H2570 0.930 . S
C2563 C2562 1.394 . S
C2563 C2564 1.383 . S
C2563 H2571 0.929 . S
C2564 C2563 1.383 . S
C2564 C2565 1.377 . S
C2565 H2549 0.930 . S
C2565 C2564 1.377 . S
C2565 C2566 1.379 . S
C2566 H2550 0.931 . S
C2566 C2560 1.383 . S
C2566 C2565 1.379 . S
H2567 C2561 0.959 . S
H2568 C2561 0.961 . S
H2569 C2561 0.960 . S
H2570 C2562 0.930 . S
H2571 C2563 0.929 . S
H2572 C2580 0.929 . S
H2573 C2582 0.930 . S
H2574 C2584 0.930 . S
H2575 C2587 0.929 . S
H2576 C2590 0.930 . S
H2577 C2592 0.960 . S
H2578 C2592 0.960 . S
H2579 C2592 0.960 . S
C2580 H2572 0.929 . S
C2580 C2581 1.377 . S
C2580 C2582 1.384 . S
C2581 C2580 1.377 . S
C2581 C2587 1.390 . S
C2582 H2573 0.930 . S
C2582 C2580 1.384 . S
C2582 C2583 1.372 . S
C2583 C2582 1.372 . S
C2583 C2584 1.400 . S
C2583 C2588 1.490 . S
C2584 H2574 0.930 . S
C2584 C2583 1.400 . S
C2584 C2587 1.386 . S
H2585 C2601 0.930 . S
H2586 C2602 0.931 . S
C2587 H2575 0.929 . S
C2587 C2581 1.390 . S
C2587 C2584 1.386 . S
C2588 C2583 1.490 . S
C2588 C2590 1.395 . S
C2588 C2591 1.403 . S
H2589 C2595 0.930 . S
C2590 H2576 0.930 . S
C2590 C2588 1.395 . S
C2590 C2593 1.403 1_556 S
C2591 C2588 1.403 . S
C2591 C2592 1.524 . S
C2591 C2595 1.400 . S
C2592 H2577 0.960 . S
C2592 H2578 0.960 . S
C2592 H2579 0.960 . S
C2592 C2591 1.524 . S
C2593 C2590 1.403 1_554 S
C2593 C2594 1.392 . S
C2593 C2597 1.495 . S
C2594 C2593 1.392 . S
C2594 C2595 1.385 1_554 S
C2594 C2596 1.478 . S
C2595 H2589 0.930 . S
C2595 C2591 1.400 . S
C2595 C2594 1.385 1_556 S
C2596 C2594 1.478 . S
C2596 C2598 1.381 . S
C2596 C2602 1.383 . S
C2597 C2593 1.495 . S
C2597 H2603 0.959 . S
C2597 H2604 0.961 . S
C2597 H2605 0.960 . S
C2598 C2596 1.381 . S
C2598 C2599 1.394 . S
C2598 H2606 0.930 . S
C2599 C2598 1.394 . S
C2599 C2600 1.383 . S
C2599 H2607 0.929 . S
C2600 C2599 1.383 . S
C2600 C2601 1.377 . S
C2601 H2585 0.930 . S
C2601 C2600 1.377 . S
C2601 C2602 1.379 . S
C2602 H2586 0.931 . S
C2602 C2596 1.383 . S
C2602 C2601 1.379 . S
H2603 C2597 0.959 . S
H2604 C2597 0.961 . S
H2605 C2597 0.960 . S
H2606 C2598 0.930 . S
H2607 C2599 0.929 . S
H2608 C2616 0.929 . S
H2609 C2618 0.930 . S
H2610 C2620 0.930 . S
H2611 C2623 0.929 . S
H2612 C2626 0.930 . S
H2613 C2628 0.960 . S
H2614 C2628 0.960 . S
H2615 C2628 0.960 . S
C2616 H2608 0.929 . S
C2616 C2617 1.377 . S
C2616 C2618 1.384 . S
C2617 C2616 1.377 . S
C2617 C2623 1.390 . S
C2618 H2609 0.930 . S
C2618 C2616 1.384 . S
C2618 C2619 1.372 . S
C2619 C2618 1.372 . S
C2619 C2620 1.400 . S
C2619 C2624 1.490 . S
C2620 H2610 0.930 . S
C2620 C2619 1.400 . S
C2620 C2623 1.386 . S
H2621 C2637 0.930 . S
H2622 C2638 0.931 . S
C2623 H2611 0.929 . S
C2623 C2617 1.390 . S
C2623 C2620 1.386 . S
C2624 C2619 1.490 . S
C2624 C2626 1.395 . S
C2624 C2627 1.403 . S
H2625 C2631 0.930 . S
C2626 H2612 0.930 . S
C2626 C2624 1.395 . S
C2626 C2629 1.403 . S
C2627 C2624 1.403 . S
C2627 C2628 1.524 . S
C2627 C2631 1.400 . S
C2628 H2613 0.960 . S
C2628 H2614 0.960 . S
C2628 H2615 0.960 . S
C2628 C2627 1.524 . S
C2629 C2626 1.403 . S
C2629 C2630 1.392 . S
C2629 C2633 1.495 . S
C2630 C2629 1.392 . S
C2630 C2631 1.385 . S
C2630 C2632 1.478 . S
C2631 H2625 0.930 . S
C2631 C2627 1.400 . S
C2631 C2630 1.385 . S
C2632 C2630 1.478 . S
C2632 C2634 1.381 . S
C2632 C2638 1.383 . S
C2633 C2629 1.495 . S
C2633 H2639 0.959 . S
C2633 H2640 0.961 . S
C2633 H2641 0.960 . S
C2634 C2632 1.381 . S
C2634 C2635 1.394 . S
C2634 H2642 0.930 . S
C2635 C2634 1.394 . S
C2635 C2636 1.383 . S
C2635 H2643 0.929 . S
C2636 C2635 1.383 . S
C2636 C2637 1.377 . S
C2637 H2621 0.930 . S
C2637 C2636 1.377 . S
C2637 C2638 1.379 . S
C2638 H2622 0.931 . S
C2638 C2632 1.383 . S
C2638 C2637 1.379 . S
H2639 C2633 0.959 . S
H2640 C2633 0.961 . S
H2641 C2633 0.960 . S
H2642 C2634 0.930 . S
H2643 C2635 0.929 . S
H2644 C2652 0.929 . S
H2645 C2654 0.930 . S
H2646 C2656 0.930 . S
H2647 C2659 0.929 . S
H2648 C2662 0.930 . S
H2649 C2664 0.960 . S
H2650 C2664 0.960 . S
H2651 C2664 0.960 . S
C2652 H2644 0.929 . S
C2652 C2653 1.377 . S
C2652 C2654 1.384 . S
C2653 C2652 1.377 . S
C2653 C2659 1.390 . S
C2654 H2645 0.930 . S
C2654 C2652 1.384 . S
C2654 C2655 1.372 . S
C2655 C2654 1.372 . S
C2655 C2656 1.400 . S
C2655 C2660 1.490 . S
C2656 H2646 0.930 . S
C2656 C2655 1.400 . S
C2656 C2659 1.386 . S
H2657 C2673 0.930 . S
H2658 C2674 0.931 . S
C2659 H2647 0.929 . S
C2659 C2653 1.390 . S
C2659 C2656 1.386 . S
C2660 C2655 1.490 . S
C2660 C2662 1.395 . S
C2660 C2663 1.403 . S
H2661 C2667 0.930 . S
C2662 H2648 0.930 . S
C2662 C2660 1.395 . S
C2662 C2665 1.403 . S
C2663 C2660 1.403 . S
C2663 C2664 1.524 . S
C2663 C2667 1.400 . S
C2664 H2649 0.960 . S
C2664 H2650 0.960 . S
C2664 H2651 0.960 . S
C2664 C2663 1.524 . S
C2665 C2662 1.403 . S
C2665 C2666 1.392 . S
C2665 C2669 1.495 . S
C2666 C2665 1.392 . S
C2666 C2667 1.385 . S
C2666 C2668 1.478 . S
C2667 H2661 0.930 . S
C2667 C2663 1.400 . S
C2667 C2666 1.385 . S
C2668 C2666 1.478 . S
C2668 C2670 1.381 . S
C2668 C2674 1.383 . S
C2669 C2665 1.495 . S
C2669 H2675 0.959 . S
C2669 H2676 0.961 . S
C2669 H2677 0.960 . S
C2670 C2668 1.381 . S
C2670 C2671 1.394 . S
C2670 H2678 0.930 . S
C2671 C2670 1.394 . S
C2671 C2672 1.383 . S
C2671 H2679 0.929 . S
C2672 C2671 1.383 . S
C2672 C2673 1.377 . S
C2673 H2657 0.930 . S
C2673 C2672 1.377 . S
C2673 C2674 1.379 . S
C2674 H2658 0.931 . S
C2674 C2668 1.383 . S
C2674 C2673 1.379 . S
H2675 C2669 0.959 . S
H2676 C2669 0.961 . S
H2677 C2669 0.960 . S
H2678 C2670 0.930 . S
H2679 C2671 0.929 . S
H2680 C2688 0.929 . S
H2681 C2690 0.930 . S
H2682 C2692 0.930 . S
H2683 C2695 0.929 . S
H2684 C2698 0.930 . S
H2685 C2700 0.960 . S
H2686 C2700 0.960 . S
H2687 C2700 0.960 . S
C2688 H2680 0.929 . S
C2688 C2689 1.377 . S
C2688 C2690 1.384 . S
C2689 C2688 1.377 . S
C2689 C2695 1.390 . S
C2690 H2681 0.930 . S
C2690 C2688 1.384 . S
C2690 C2691 1.372 . S
C2691 C2690 1.372 . S
C2691 C2692 1.400 . S
C2691 C2696 1.490 . S
C2692 H2682 0.930 . S
C2692 C2691 1.400 . S
C2692 C2695 1.386 . S
H2693 C2709 0.930 . S
H2694 C2710 0.931 . S
C2695 H2683 0.929 . S
C2695 C2689 1.390 . S
C2695 C2692 1.386 . S
C2696 C2691 1.490 . S
C2696 C2698 1.395 . S
C2696 C2699 1.403 . S
H2697 C2703 0.930 . S
C2698 H2684 0.930 . S
C2698 C2696 1.395 . S
C2698 C2701 1.403 . S
C2699 C2696 1.403 . S
C2699 C2700 1.524 . S
C2699 C2703 1.400 . S
C2700 H2685 0.960 . S
C2700 H2686 0.960 . S
C2700 H2687 0.960 . S
C2700 C2699 1.524 . S
C2701 C2698 1.403 . S
C2701 C2702 1.392 . S
C2701 C2705 1.495 . S
C2702 C2701 1.392 . S
C2702 C2703 1.385 . S
C2702 C2704 1.478 . S
C2703 H2697 0.930 . S
C2703 C2699 1.400 . S
C2703 C2702 1.385 . S
C2704 C2702 1.478 . S
C2704 C2706 1.381 . S
C2704 C2710 1.383 . S
C2705 C2701 1.495 . S
C2705 H2711 0.959 . S
C2705 H2712 0.961 . S
C2705 H2713 0.960 . S
C2706 C2704 1.381 . S
C2706 C2707 1.394 . S
C2706 H2714 0.930 . S
C2707 C2706 1.394 . S
C2707 C2708 1.383 . S
C2707 H2715 0.929 . S
C2708 C2707 1.383 . S
C2708 C2709 1.377 . S
C2709 H2693 0.930 . S
C2709 C2708 1.377 . S
C2709 C2710 1.379 . S
C2710 H2694 0.931 . S
C2710 C2704 1.383 . S
C2710 C2709 1.379 . S
H2711 C2705 0.959 . S
H2712 C2705 0.961 . S
H2713 C2705 0.960 . S
H2714 C2706 0.930 . S
H2715 C2707 0.929 . S
H2716 C2724 0.929 . S
H2717 C2726 0.930 . S
H2718 C2728 0.930 . S
H2719 C2731 0.929 . S
H2720 C2734 0.930 . S
H2721 C2736 0.960 . S
H2722 C2736 0.960 . S
H2723 C2736 0.960 . S
C2724 H2716 0.929 . S
C2724 C2725 1.377 . S
C2724 C2726 1.384 . S
C2725 C2724 1.377 . S
C2725 C2731 1.390 . S
C2726 H2717 0.930 . S
C2726 C2724 1.384 . S
C2726 C2727 1.372 . S
C2727 C2726 1.372 . S
C2727 C2728 1.400 . S
C2727 C2732 1.490 . S
C2728 H2718 0.930 . S
C2728 C2727 1.400 . S
C2728 C2731 1.386 . S
H2729 C2745 0.930 . S
H2730 C2746 0.931 . S
C2731 H2719 0.929 . S
C2731 C2725 1.390 . S
C2731 C2728 1.386 . S
C2732 C2727 1.490 . S
C2732 C2734 1.395 . S
C2732 C2735 1.403 . S
H2733 C2739 0.930 . S
C2734 H2720 0.930 . S
C2734 C2732 1.395 . S
C2734 C2737 1.403 . S
C2735 C2732 1.403 . S
C2735 C2736 1.524 . S
C2735 C2739 1.400 . S
C2736 H2721 0.960 . S
C2736 H2722 0.960 . S
C2736 H2723 0.960 . S
C2736 C2735 1.524 . S
C2737 C2734 1.403 . S
C2737 C2738 1.392 . S
C2737 C2741 1.495 . S
C2738 C2737 1.392 . S
C2738 C2739 1.385 . S
C2738 C2740 1.478 . S
C2739 H2733 0.930 . S
C2739 C2735 1.400 . S
C2739 C2738 1.385 . S
C2740 C2738 1.478 . S
C2740 C2742 1.381 . S
C2740 C2746 1.383 . S
C2741 C2737 1.495 . S
C2741 H2747 0.959 . S
C2741 H2748 0.961 . S
C2741 H2749 0.960 . S
C2742 C2740 1.381 . S
C2742 C2743 1.394 . S
C2742 H2750 0.930 . S
C2743 C2742 1.394 . S
C2743 C2744 1.383 . S
C2743 H2751 0.929 . S
C2744 C2743 1.383 . S
C2744 C2745 1.377 . S
C2745 H2729 0.930 . S
C2745 C2744 1.377 . S
C2745 C2746 1.379 . S
C2746 H2730 0.931 . S
C2746 C2740 1.383 . S
C2746 C2745 1.379 . S
H2747 C2741 0.959 . S
H2748 C2741 0.961 . S
H2749 C2741 0.960 . S
H2750 C2742 0.930 . S
H2751 C2743 0.929 . S
H2752 C2760 0.929 . S
H2753 C2762 0.930 . S
H2754 C2764 0.930 . S
H2755 C2767 0.929 . S
H2756 C2770 0.930 . S
H2757 C2772 0.960 . S
H2758 C2772 0.960 . S
H2759 C2772 0.960 . S
C2760 H2752 0.929 . S
C2760 C2761 1.377 . S
C2760 C2762 1.384 . S
C2761 C2760 1.377 . S
C2761 C2767 1.390 . S
C2762 H2753 0.930 . S
C2762 C2760 1.384 . S
C2762 C2763 1.372 . S
C2763 C2762 1.372 . S
C2763 C2764 1.400 . S
C2763 C2768 1.490 . S
C2764 H2754 0.930 . S
C2764 C2763 1.400 . S
C2764 C2767 1.386 . S
H2765 C2781 0.930 . S
H2766 C2782 0.931 . S
C2767 H2755 0.929 . S
C2767 C2761 1.390 . S
C2767 C2764 1.386 . S
C2768 C2763 1.490 . S
C2768 C2770 1.395 . S
C2768 C2771 1.403 . S
H2769 C2775 0.930 . S
C2770 H2756 0.930 . S
C2770 C2768 1.395 . S
C2770 C2773 1.403 . S
C2771 C2768 1.403 . S
C2771 C2772 1.524 . S
C2771 C2775 1.400 . S
C2772 H2757 0.960 . S
C2772 H2758 0.960 . S
C2772 H2759 0.960 . S
C2772 C2771 1.524 . S
C2773 C2770 1.403 . S
C2773 C2774 1.392 . S
C2773 C2777 1.495 . S
C2774 C2773 1.392 . S
C2774 C2775 1.385 . S
C2774 C2776 1.478 . S
C2775 H2769 0.930 . S
C2775 C2771 1.400 . S
C2775 C2774 1.385 . S
C2776 C2774 1.478 . S
C2776 C2778 1.381 . S
C2776 C2782 1.383 . S
C2777 C2773 1.495 . S
C2777 H2783 0.959 . S
C2777 H2784 0.961 . S
C2777 H2785 0.960 . S
C2778 C2776 1.381 . S
C2778 C2779 1.394 . S
C2778 H2786 0.930 . S
C2779 C2778 1.394 . S
C2779 C2780 1.383 . S
C2779 H2787 0.929 . S
C2780 C2779 1.383 . S
C2780 C2781 1.377 . S
C2781 H2765 0.930 . S
C2781 C2780 1.377 . S
C2781 C2782 1.379 . S
C2782 H2766 0.931 . S
C2782 C2776 1.383 . S
C2782 C2781 1.379 . S
H2783 C2777 0.959 . S
H2784 C2777 0.961 . S
H2785 C2777 0.960 . S
H2786 C2778 0.930 . S
H2787 C2779 0.929 . S
H2788 C2796 0.929 . S
H2789 C2798 0.930 . S
H2790 C2800 0.930 . S
H2791 C2803 0.929 . S
H2792 C2806 0.930 . S
H2793 C2808 0.960 . S
H2794 C2808 0.960 . S
H2795 C2808 0.960 . S
C2796 H2788 0.929 . S
C2796 C2797 1.377 . S
C2796 C2798 1.384 . S
C2797 C2796 1.377 . S
C2797 C2803 1.390 . S
C2798 H2789 0.930 . S
C2798 C2796 1.384 . S
C2798 C2799 1.372 . S
C2799 C2798 1.372 . S
C2799 C2800 1.400 . S
C2799 C2804 1.490 . S
C2800 H2790 0.930 . S
C2800 C2799 1.400 . S
C2800 C2803 1.386 . S
H2801 C2817 0.930 . S
H2802 C2818 0.931 . S
C2803 H2791 0.929 . S
C2803 C2797 1.390 . S
C2803 C2800 1.386 . S
C2804 C2799 1.490 . S
C2804 C2806 1.395 . S
C2804 C2807 1.403 . S
H2805 C2811 0.930 . S
C2806 H2792 0.930 . S
C2806 C2804 1.395 . S
C2806 C2809 1.403 . S
C2807 C2804 1.403 . S
C2807 C2808 1.524 . S
C2807 C2811 1.400 . S
C2808 H2793 0.960 . S
C2808 H2794 0.960 . S
C2808 H2795 0.960 . S
C2808 C2807 1.524 . S
C2809 C2806 1.403 . S
C2809 C2810 1.392 . S
C2809 C2813 1.495 . S
C2810 C2809 1.392 . S
C2810 C2811 1.385 . S
C2810 C2812 1.478 . S
C2811 H2805 0.930 . S
C2811 C2807 1.400 . S
C2811 C2810 1.385 . S
C2812 C2810 1.478 . S
C2812 C2814 1.381 . S
C2812 C2818 1.383 . S
C2813 C2809 1.495 . S
C2813 H2819 0.959 . S
C2813 H2820 0.961 . S
C2813 H2821 0.960 . S
C2814 C2812 1.381 . S
C2814 C2815 1.394 . S
C2814 H2822 0.930 . S
C2815 C2814 1.394 . S
C2815 C2816 1.383 . S
C2815 H2823 0.929 . S
C2816 C2815 1.383 . S
C2816 C2817 1.377 . S
C2817 H2801 0.930 . S
C2817 C2816 1.377 . S
C2817 C2818 1.379 . S
C2818 H2802 0.931 . S
C2818 C2812 1.383 . S
C2818 C2817 1.379 . S
H2819 C2813 0.959 . S
H2820 C2813 0.961 . S
H2821 C2813 0.960 . S
H2822 C2814 0.930 . S
H2823 C2815 0.929 . S
H2824 C2832 0.929 . S
H2825 C2834 0.930 . S
H2826 C2836 0.930 . S
H2827 C2839 0.929 . S
H2828 C2842 0.930 . S
H2829 C2844 0.960 . S
H2830 C2844 0.960 . S
H2831 C2844 0.960 . S
C2832 H2824 0.929 . S
C2832 C2833 1.377 . S
C2832 C2834 1.384 . S
C2833 C2832 1.377 . S
C2833 C2839 1.390 . S
C2834 H2825 0.930 . S
C2834 C2832 1.384 . S
C2834 C2835 1.372 . S
C2835 C2834 1.372 . S
C2835 C2836 1.400 . S
C2835 C2840 1.490 . S
C2836 H2826 0.930 . S
C2836 C2835 1.400 . S
C2836 C2839 1.386 . S
H2837 C2853 0.930 . S
H2838 C2854 0.931 . S
C2839 H2827 0.929 . S
C2839 C2833 1.390 . S
C2839 C2836 1.386 . S
C2840 C2835 1.490 . S
C2840 C2842 1.395 . S
C2840 C2843 1.403 . S
H2841 C2847 0.930 . S
C2842 H2828 0.930 . S
C2842 C2840 1.395 . S
C2842 C2845 1.403 . S
C2843 C2840 1.403 . S
C2843 C2844 1.524 . S
C2843 C2847 1.400 . S
C2844 H2829 0.960 . S
C2844 H2830 0.960 . S
C2844 H2831 0.960 . S
C2844 C2843 1.524 . S
C2845 C2842 1.403 . S
C2845 C2846 1.392 . S
C2845 C2849 1.495 . S
C2846 C2845 1.392 . S
C2846 C2847 1.385 . S
C2846 C2848 1.478 . S
C2847 H2841 0.930 . S
C2847 C2843 1.400 . S
C2847 C2846 1.385 . S
C2848 C2846 1.478 . S
C2848 C2850 1.381 . S
C2848 C2854 1.383 . S
C2849 C2845 1.495 . S
C2849 H2855 0.959 . S
C2849 H2856 0.961 . S
C2849 H2857 0.960 . S
C2850 C2848 1.381 . S
C2850 C2851 1.394 . S
C2850 H2858 0.930 . S
C2851 C2850 1.394 . S
C2851 C2852 1.383 . S
C2851 H2859 0.929 . S
C2852 C2851 1.383 . S
C2852 C2853 1.377 . S
C2853 H2837 0.930 . S
C2853 C2852 1.377 . S
C2853 C2854 1.379 . S
C2854 H2838 0.931 . S
C2854 C2848 1.383 . S
C2854 C2853 1.379 . S
H2855 C2849 0.959 . S
H2856 C2849 0.961 . S
H2857 C2849 0.960 . S
H2858 C2850 0.930 . S
H2859 C2851 0.929 . S
H2860 C2868 0.929 . S
H2861 C2870 0.930 . S
H2862 C2872 0.930 . S
H2863 C2875 0.929 . S
H2864 C2878 0.930 . S
H2865 C2880 0.960 . S
H2866 C2880 0.960 . S
H2867 C2880 0.960 . S
C2868 H2860 0.929 . S
C2868 C2869 1.377 . S
C2868 C2870 1.384 . S
C2869 C2868 1.377 . S
C2869 C2875 1.390 . S
C2870 H2861 0.930 . S
C2870 C2868 1.384 . S
C2870 C2871 1.372 . S
C2871 C2870 1.372 . S
C2871 C2872 1.400 . S
C2871 C2876 1.490 . S
C2872 H2862 0.930 . S
C2872 C2871 1.400 . S
C2872 C2875 1.386 . S
H2873 C2889 0.930 . S
H2874 C2890 0.931 . S
C2875 H2863 0.929 . S
C2875 C2869 1.390 . S
C2875 C2872 1.386 . S
C2876 C2871 1.490 . S
C2876 C2878 1.395 . S
C2876 C2879 1.403 . S
H2877 C2883 0.930 . S
C2878 H2864 0.930 . S
C2878 C2876 1.395 . S
C2878 C2881 1.403 . S
C2879 C2876 1.403 . S
C2879 C2880 1.524 . S
C2879 C2883 1.400 . S
C2880 H2865 0.960 . S
C2880 H2866 0.960 . S
C2880 H2867 0.960 . S
C2880 C2879 1.524 . S
C2881 C2878 1.403 . S
C2881 C2882 1.392 . S
C2881 C2885 1.495 . S
C2882 C2881 1.392 . S
C2882 C2883 1.385 . S
C2882 C2884 1.478 . S
C2883 H2877 0.930 . S
C2883 C2879 1.400 . S
C2883 C2882 1.385 . S
C2884 C2882 1.478 . S
C2884 C2886 1.381 . S
C2884 C2890 1.383 . S
C2885 C2881 1.495 . S
C2885 H2891 0.959 . S
C2885 H2892 0.961 . S
C2885 H2893 0.960 . S
C2886 C2884 1.381 . S
C2886 C2887 1.394 . S
C2886 H2894 0.930 . S
C2887 C2886 1.394 . S
C2887 C2888 1.383 . S
C2887 H2895 0.929 . S
C2888 C2887 1.383 . S
C2888 C2889 1.377 . S
C2889 H2873 0.930 . S
C2889 C2888 1.377 . S
C2889 C2890 1.379 . S
C2890 H2874 0.931 . S
C2890 C2884 1.383 . S
C2890 C2889 1.379 . S
H2891 C2885 0.959 . S
H2892 C2885 0.961 . S
H2893 C2885 0.960 . S
H2894 C2886 0.930 . S
H2895 C2887 0.929 . S
H2896 C2904 0.929 . S
H2897 C2906 0.930 . S
H2898 C2908 0.930 . S
H2899 C2911 0.929 . S
H2900 C2914 0.930 . S
H2901 C2916 0.960 . S
H2902 C2916 0.960 . S
H2903 C2916 0.960 . S
C2904 H2896 0.929 . S
C2904 C2905 1.377 . S
C2904 C2906 1.384 . S
C2905 C2904 1.377 . S
C2905 C2911 1.390 . S
C2906 H2897 0.930 . S
C2906 C2904 1.384 . S
C2906 C2907 1.372 . S
C2907 C2906 1.372 . S
C2907 C2908 1.400 . S
C2907 C2912 1.490 . S
C2908 H2898 0.930 . S
C2908 C2907 1.400 . S
C2908 C2911 1.386 . S
H2909 C2925 0.930 . S
H2910 C2926 0.931 . S
C2911 H2899 0.929 . S
C2911 C2905 1.390 . S
C2911 C2908 1.386 . S
C2912 C2907 1.490 . S
C2912 C2914 1.395 . S
C2912 C2915 1.403 . S
H2913 C2919 0.930 . S
C2914 H2900 0.930 . S
C2914 C2912 1.395 . S
C2914 C2917 1.403 . S
C2915 C2912 1.403 . S
C2915 C2916 1.524 . S
C2915 C2919 1.400 . S
C2916 H2901 0.960 . S
C2916 H2902 0.960 . S
C2916 H2903 0.960 . S
C2916 C2915 1.524 . S
C2917 C2914 1.403 . S
C2917 C2918 1.392 . S
C2917 C2921 1.495 . S
C2918 C2917 1.392 . S
C2918 C2919 1.385 . S
C2918 C2920 1.478 . S
C2919 H2913 0.930 . S
C2919 C2915 1.400 . S
C2919 C2918 1.385 . S
C2920 C2918 1.478 . S
C2920 C2922 1.381 . S
C2920 C2926 1.383 . S
C2921 C2917 1.495 . S
C2921 H2927 0.959 . S
C2921 H2928 0.961 . S
C2921 H2929 0.960 . S
C2922 C2920 1.381 . S
C2922 C2923 1.394 . S
C2922 H2930 0.930 . S
C2923 C2922 1.394 . S
C2923 C2924 1.383 . S
C2923 H2931 0.929 . S
C2924 C2923 1.383 . S
C2924 C2925 1.377 . S
C2925 H2909 0.930 . S
C2925 C2924 1.377 . S
C2925 C2926 1.379 . S
C2926 H2910 0.931 . S
C2926 C2920 1.383 . S
C2926 C2925 1.379 . S
H2927 C2921 0.959 . S
H2928 C2921 0.961 . S
H2929 C2921 0.960 . S
H2930 C2922 0.930 . S
H2931 C2923 0.929 . S
H2932 C2940 0.929 . S
H2933 C2942 0.930 . S
H2934 C2944 0.930 . S
H2935 C2947 0.929 . S
H2936 C2950 0.930 . S
H2937 C2952 0.960 . S
H2938 C2952 0.960 . S
H2939 C2952 0.960 . S
C2940 H2932 0.929 . S
C2940 C2941 1.377 . S
C2940 C2942 1.384 . S
C2941 C2940 1.377 . S
C2941 C2947 1.390 . S
C2942 H2933 0.930 . S
C2942 C2940 1.384 . S
C2942 C2943 1.372 . S
C2943 C2942 1.372 . S
C2943 C2944 1.400 . S
C2943 C2948 1.490 . S
C2944 H2934 0.930 . S
C2944 C2943 1.400 . S
C2944 C2947 1.386 . S
H2945 C2961 0.930 . S
H2946 C2962 0.931 . S
C2947 H2935 0.929 . S
C2947 C2941 1.390 . S
C2947 C2944 1.386 . S
C2948 C2943 1.490 . S
C2948 C2950 1.395 . S
C2948 C2951 1.403 . S
H2949 C2955 0.930 . S
C2950 H2936 0.930 . S
C2950 C2948 1.395 . S
C2950 C2953 1.403 . S
C2951 C2948 1.403 . S
C2951 C2952 1.524 . S
C2951 C2955 1.400 . S
C2952 H2937 0.960 . S
C2952 H2938 0.960 . S
C2952 H2939 0.960 . S
C2952 C2951 1.524 . S
C2953 C2950 1.403 . S
C2953 C2954 1.392 . S
C2953 C2957 1.495 . S
C2954 C2953 1.392 . S
C2954 C2955 1.385 . S
C2954 C2956 1.478 . S
C2955 H2949 0.930 . S
C2955 C2951 1.400 . S
C2955 C2954 1.385 . S
C2956 C2954 1.478 . S
C2956 C2958 1.381 . S
C2956 C2962 1.383 . S
C2957 C2953 1.495 . S
C2957 H2963 0.959 . S
C2957 H2964 0.961 . S
C2957 H2965 0.960 . S
C2958 C2956 1.381 . S
C2958 C2959 1.394 . S
C2958 H2966 0.930 . S
C2959 C2958 1.394 . S
C2959 C2960 1.383 . S
C2959 H2967 0.929 . S
C2960 C2959 1.383 . S
C2960 C2961 1.377 . S
C2961 H2945 0.930 . S
C2961 C2960 1.377 . S
C2961 C2962 1.379 . S
C2962 H2946 0.931 . S
C2962 C2956 1.383 . S
C2962 C2961 1.379 . S
H2963 C2957 0.959 . S
H2964 C2957 0.961 . S
H2965 C2957 0.960 . S
H2966 C2958 0.930 . S
H2967 C2959 0.929 . S
H2968 C2976 0.929 . S
H2969 C2978 0.930 . S
H2970 C2980 0.930 . S
H2971 C2983 0.929 . S
H2972 C2986 0.930 . S
H2973 C2988 0.960 . S
H2974 C2988 0.960 . S
H2975 C2988 0.960 . S
C2976 H2968 0.929 . S
C2976 C2977 1.377 . S
C2976 C2978 1.384 . S
C2977 C2976 1.377 . S
C2977 C2983 1.390 . S
C2978 H2969 0.930 . S
C2978 C2976 1.384 . S
C2978 C2979 1.372 . S
C2979 C2978 1.372 . S
C2979 C2980 1.400 . S
C2979 C2984 1.490 . S
C2980 H2970 0.930 . S
C2980 C2979 1.400 . S
C2980 C2983 1.386 . S
H2981 C2997 0.930 . S
H2982 C2998 0.931 . S
C2983 H2971 0.929 . S
C2983 C2977 1.390 . S
C2983 C2980 1.386 . S
C2984 C2979 1.490 . S
C2984 C2986 1.395 . S
C2984 C2987 1.403 . S
H2985 C2991 0.930 . S
C2986 H2972 0.930 . S
C2986 C2984 1.395 . S
C2986 C2989 1.403 . S
C2987 C2984 1.403 . S
C2987 C2988 1.524 . S
C2987 C2991 1.400 . S
C2988 H2973 0.960 . S
C2988 H2974 0.960 . S
C2988 H2975 0.960 . S
C2988 C2987 1.524 . S
C2989 C2986 1.403 . S
C2989 C2990 1.392 . S
C2989 C2993 1.495 . S
C2990 C2989 1.392 . S
C2990 C2991 1.385 . S
C2990 C2992 1.478 . S
C2991 H2985 0.930 . S
C2991 C2987 1.400 . S
C2991 C2990 1.385 . S
C2992 C2990 1.478 . S
C2992 C2994 1.381 . S
C2992 C2998 1.383 . S
C2993 C2989 1.495 . S
C2993 H2999 0.959 . S
C2993 H3000 0.961 . S
C2993 H3001 0.960 . S
C2994 C2992 1.381 . S
C2994 C2995 1.394 . S
C2994 H3002 0.930 . S
C2995 C2994 1.394 . S
C2995 C2996 1.383 . S
C2995 H3003 0.929 . S
C2996 C2995 1.383 . S
C2996 C2997 1.377 . S
C2997 H2981 0.930 . S
C2997 C2996 1.377 . S
C2997 C2998 1.379 . S
C2998 H2982 0.931 . S
C2998 C2992 1.383 . S
C2998 C2997 1.379 . S
H2999 C2993 0.959 . S
H3000 C2993 0.961 . S
H3001 C2993 0.960 . S
H3002 C2994 0.930 . S
H3003 C2995 0.929 . S
H3004 C3012 0.929 . S
H3005 C3014 0.930 . S
H3006 C3016 0.930 . S
H3007 C3019 0.929 . S
H3008 C3022 0.930 . S
H3009 C3024 0.960 . S
H3010 C3024 0.960 . S
H3011 C3024 0.960 . S
C3012 H3004 0.929 . S
C3012 C3013 1.377 . S
C3012 C3014 1.384 . S
C3013 C3012 1.377 . S
C3013 C3019 1.390 . S
C3014 H3005 0.930 . S
C3014 C3012 1.384 . S
C3014 C3015 1.372 . S
C3015 C3014 1.372 . S
C3015 C3016 1.400 . S
C3015 C3020 1.490 . S
C3016 H3006 0.930 . S
C3016 C3015 1.400 . S
C3016 C3019 1.386 . S
H3017 C3033 0.930 . S
H3018 C3034 0.931 . S
C3019 H3007 0.929 . S
C3019 C3013 1.390 . S
C3019 C3016 1.386 . S
C3020 C3015 1.490 . S
C3020 C3022 1.395 . S
C3020 C3023 1.403 . S
H3021 C3027 0.930 . S
C3022 H3008 0.930 . S
C3022 C3020 1.395 . S
C3022 C3025 1.403 . S
C3023 C3020 1.403 . S
C3023 C3024 1.524 . S
C3023 C3027 1.400 . S
C3024 H3009 0.960 . S
C3024 H3010 0.960 . S
C3024 H3011 0.960 . S
C3024 C3023 1.524 . S
C3025 C3022 1.403 . S
C3025 C3026 1.392 . S
C3025 C3029 1.495 . S
C3026 C3025 1.392 . S
C3026 C3027 1.385 . S
C3026 C3028 1.478 . S
C3027 H3021 0.930 . S
C3027 C3023 1.400 . S
C3027 C3026 1.385 . S
C3028 C3026 1.478 . S
C3028 C3030 1.381 . S
C3028 C3034 1.383 . S
C3029 C3025 1.495 . S
C3029 H3035 0.959 . S
C3029 H3036 0.961 . S
C3029 H3037 0.960 . S
C3030 C3028 1.381 . S
C3030 C3031 1.394 . S
C3030 H3038 0.930 . S
C3031 C3030 1.394 . S
C3031 C3032 1.383 . S
C3031 H3039 0.929 . S
C3032 C3031 1.383 . S
C3032 C3033 1.377 . S
C3033 H3017 0.930 . S
C3033 C3032 1.377 . S
C3033 C3034 1.379 . S
C3034 H3018 0.931 . S
C3034 C3028 1.383 . S
C3034 C3033 1.379 . S
H3035 C3029 0.959 . S
H3036 C3029 0.961 . S
H3037 C3029 0.960 . S
H3038 C3030 0.930 . S
H3039 C3031 0.929 . S
H3040 C3048 0.929 . S
H3041 C3050 0.930 . S
H3042 C3052 0.930 . S
H3043 C3055 0.929 . S
H3044 C3058 0.930 . S
H3045 C3060 0.960 . S
H3046 C3060 0.960 . S
H3047 C3060 0.960 . S
C3048 H3040 0.929 . S
C3048 C3049 1.377 . S
C3048 C3050 1.384 . S
C3049 C3048 1.377 . S
C3049 C3055 1.390 . S
C3050 H3041 0.930 . S
C3050 C3048 1.384 . S
C3050 C3051 1.372 . S
C3051 C3050 1.372 . S
C3051 C3052 1.400 . S
C3051 C3056 1.490 . S
C3052 H3042 0.930 . S
C3052 C3051 1.400 . S
C3052 C3055 1.386 . S
H3053 C3069 0.930 . S
H3054 C3070 0.931 . S
C3055 H3043 0.929 . S
C3055 C3049 1.390 . S
C3055 C3052 1.386 . S
C3056 C3051 1.490 . S
C3056 C3058 1.395 . S
C3056 C3059 1.403 . S
H3057 C3063 0.930 . S
C3058 H3044 0.930 . S
C3058 C3056 1.395 . S
C3058 C3061 1.403 . S
C3059 C3056 1.403 . S
C3059 C3060 1.524 . S
C3059 C3063 1.400 . S
C3060 H3045 0.960 . S
C3060 H3046 0.960 . S
C3060 H3047 0.960 . S
C3060 C3059 1.524 . S
C3061 C3058 1.403 . S
C3061 C3062 1.392 . S
C3061 C3065 1.495 . S
C3062 C3061 1.392 . S
C3062 C3063 1.385 . S
C3062 C3064 1.478 . S
C3063 H3057 0.930 . S
C3063 C3059 1.400 . S
C3063 C3062 1.385 . S
C3064 C3062 1.478 . S
C3064 C3066 1.381 . S
C3064 C3070 1.383 . S
C3065 C3061 1.495 . S
C3065 H3071 0.959 . S
C3065 H3072 0.961 . S
C3065 H3073 0.960 . S
C3066 C3064 1.381 . S
C3066 C3067 1.394 . S
C3066 H3074 0.930 . S
C3067 C3066 1.394 . S
C3067 C3068 1.383 . S
C3067 H3075 0.929 . S
C3068 C3067 1.383 . S
C3068 C3069 1.377 . S
C3069 H3053 0.930 . S
C3069 C3068 1.377 . S
C3069 C3070 1.379 . S
C3070 H3054 0.931 . S
C3070 C3064 1.383 . S
C3070 C3069 1.379 . S
H3071 C3065 0.959 . S
H3072 C3065 0.961 . S
H3073 C3065 0.960 . S
H3074 C3066 0.930 . S
H3075 C3067 0.929 . S
H3076 C3084 0.929 . S
H3077 C3086 0.930 . S
H3078 C3088 0.930 . S
H3079 C3091 0.929 . S
H3080 C3094 0.930 . S
H3081 C3096 0.960 . S
H3082 C3096 0.960 . S
H3083 C3096 0.960 . S
C3084 H3076 0.929 . S
C3084 C3085 1.377 . S
C3084 C3086 1.384 . S
C3085 C3084 1.377 . S
C3085 C3091 1.390 . S
C3086 H3077 0.930 . S
C3086 C3084 1.384 . S
C3086 C3087 1.372 . S
C3087 C3086 1.372 . S
C3087 C3088 1.400 . S
C3087 C3092 1.490 . S
C3088 H3078 0.930 . S
C3088 C3087 1.400 . S
C3088 C3091 1.386 . S
H3089 C3105 0.930 . S
H3090 C3106 0.931 . S
C3091 H3079 0.929 . S
C3091 C3085 1.390 . S
C3091 C3088 1.386 . S
C3092 C3087 1.490 . S
C3092 C3094 1.395 . S
C3092 C3095 1.403 . S
H3093 C3099 0.930 . S
C3094 H3080 0.930 . S
C3094 C3092 1.395 . S
C3094 C3097 1.403 . S
C3095 C3092 1.403 . S
C3095 C3096 1.524 . S
C3095 C3099 1.400 . S
C3096 H3081 0.960 . S
C3096 H3082 0.960 . S
C3096 H3083 0.960 . S
C3096 C3095 1.524 . S
C3097 C3094 1.403 . S
C3097 C3098 1.392 . S
C3097 C3101 1.495 . S
C3098 C3097 1.392 . S
C3098 C3099 1.385 . S
C3098 C3100 1.478 . S
C3099 H3093 0.930 . S
C3099 C3095 1.400 . S
C3099 C3098 1.385 . S
C3100 C3098 1.478 . S
C3100 C3102 1.381 . S
C3100 C3106 1.383 . S
C3101 C3097 1.495 . S
C3101 H3107 0.959 . S
C3101 H3108 0.961 . S
C3101 H3109 0.960 . S
C3102 C3100 1.381 . S
C3102 C3103 1.394 . S
C3102 H3110 0.930 . S
C3103 C3102 1.394 . S
C3103 C3104 1.383 . S
C3103 H3111 0.929 . S
C3104 C3103 1.383 . S
C3104 C3105 1.377 . S
C3105 H3089 0.930 . S
C3105 C3104 1.377 . S
C3105 C3106 1.379 . S
C3106 H3090 0.931 . S
C3106 C3100 1.383 . S
C3106 C3105 1.379 . S
H3107 C3101 0.959 . S
H3108 C3101 0.961 . S
H3109 C3101 0.960 . S
H3110 C3102 0.930 . S
H3111 C3103 0.929 . S
H3112 C3120 0.929 . S
H3113 C3122 0.930 . S
H3114 C3124 0.930 . S
H3115 C3127 0.929 . S
H3116 C3130 0.930 . S
H3117 C3132 0.960 . S
H3118 C3132 0.960 . S
H3119 C3132 0.960 . S
C3120 H3112 0.929 . S
C3120 C3121 1.377 . S
C3120 C3122 1.384 . S
C3121 C3120 1.377 . S
C3121 C3127 1.390 . S
C3122 H3113 0.930 . S
C3122 C3120 1.384 . S
C3122 C3123 1.372 . S
C3123 C3122 1.372 . S
C3123 C3124 1.400 . S
C3123 C3128 1.490 . S
C3124 H3114 0.930 . S
C3124 C3123 1.400 . S
C3124 C3127 1.386 . S
H3125 C3141 0.930 . S
H3126 C3142 0.931 . S
C3127 H3115 0.929 . S
C3127 C3121 1.390 . S
C3127 C3124 1.386 . S
C3128 C3123 1.490 . S
C3128 C3130 1.395 . S
C3128 C3131 1.403 . S
H3129 C3135 0.930 . S
C3130 H3116 0.930 . S
C3130 C3128 1.395 . S
C3130 C3133 1.403 . S
C3131 C3128 1.403 . S
C3131 C3132 1.524 . S
C3131 C3135 1.400 . S
C3132 H3117 0.960 . S
C3132 H3118 0.960 . S
C3132 H3119 0.960 . S
C3132 C3131 1.524 . S
C3133 C3130 1.403 . S
C3133 C3134 1.392 . S
C3133 C3137 1.495 . S
C3134 C3133 1.392 . S
C3134 C3135 1.385 . S
C3134 C3136 1.478 . S
C3135 H3129 0.930 . S
C3135 C3131 1.400 . S
C3135 C3134 1.385 . S
C3136 C3134 1.478 . S
C3136 C3138 1.381 . S
C3136 C3142 1.383 . S
C3137 C3133 1.495 . S
C3137 H3143 0.959 . S
C3137 H3144 0.961 . S
C3137 H3145 0.960 . S
C3138 C3136 1.381 . S
C3138 C3139 1.394 . S
C3138 H3146 0.930 . S
C3139 C3138 1.394 . S
C3139 C3140 1.383 . S
C3139 H3147 0.929 . S
C3140 C3139 1.383 . S
C3140 C3141 1.377 . S
C3141 H3125 0.930 . S
C3141 C3140 1.377 . S
C3141 C3142 1.379 . S
C3142 H3126 0.931 . S
C3142 C3136 1.383 . S
C3142 C3141 1.379 . S
H3143 C3137 0.959 . S
H3144 C3137 0.961 . S
H3145 C3137 0.960 . S
H3146 C3138 0.930 . S
H3147 C3139 0.929 . S
H3148 C3156 0.929 . S
H3149 C3158 0.930 . S
H3150 C3160 0.930 . S
H3151 C3163 0.929 . S
H3152 C3166 0.930 . S
H3153 C3168 0.960 . S
H3154 C3168 0.960 . S
H3155 C3168 0.960 . S
C3156 H3148 0.929 . S
C3156 C3157 1.377 . S
C3156 C3158 1.384 . S
C3157 C3156 1.377 . S
C3157 C3163 1.390 . S
C3158 H3149 0.930 . S
C3158 C3156 1.384 . S
C3158 C3159 1.372 . S
C3159 C3158 1.372 . S
C3159 C3160 1.400 . S
C3159 C3164 1.490 . S
C3160 H3150 0.930 . S
C3160 C3159 1.400 . S
C3160 C3163 1.386 . S
H3161 C3177 0.930 . S
H3162 C3178 0.931 . S
C3163 H3151 0.929 . S
C3163 C3157 1.390 . S
C3163 C3160 1.386 . S
C3164 C3159 1.490 . S
C3164 C3166 1.395 . S
C3164 C3167 1.403 . S
H3165 C3171 0.930 . S
C3166 H3152 0.930 . S
C3166 C3164 1.395 . S
C3166 C3169 1.403 . S
C3167 C3164 1.403 . S
C3167 C3168 1.524 . S
C3167 C3171 1.400 . S
C3168 H3153 0.960 . S
C3168 H3154 0.960 . S
C3168 H3155 0.960 . S
C3168 C3167 1.524 . S
C3169 C3166 1.403 . S
C3169 C3170 1.392 . S
C3169 C3173 1.495 . S
C3170 C3169 1.392 . S
C3170 C3171 1.385 . S
C3170 C3172 1.478 . S
C3171 H3165 0.930 . S
C3171 C3167 1.400 . S
C3171 C3170 1.385 . S
C3172 C3170 1.478 . S
C3172 C3174 1.381 . S
C3172 C3178 1.383 . S
C3173 C3169 1.495 . S
C3173 H3179 0.959 . S
C3173 H3180 0.961 . S
C3173 H3181 0.960 . S
C3174 C3172 1.381 . S
C3174 C3175 1.394 . S
C3174 H3182 0.930 . S
C3175 C3174 1.394 . S
C3175 C3176 1.383 . S
C3175 H3183 0.929 . S
C3176 C3175 1.383 . S
C3176 C3177 1.377 . S
C3177 H3161 0.930 . S
C3177 C3176 1.377 . S
C3177 C3178 1.379 . S
C3178 H3162 0.931 . S
C3178 C3172 1.383 . S
C3178 C3177 1.379 . S
H3179 C3173 0.959 . S
H3180 C3173 0.961 . S
H3181 C3173 0.960 . S
H3182 C3174 0.930 . S
H3183 C3175 0.929 . S
H3184 C3192 0.929 . S
H3185 C3194 0.930 . S
H3186 C3196 0.930 . S
H3187 C3199 0.929 . S
H3188 C3202 0.930 . S
H3189 C3204 0.960 . S
H3190 C3204 0.960 . S
H3191 C3204 0.960 . S
C3192 H3184 0.929 . S
C3192 C3193 1.377 . S
C3192 C3194 1.384 . S
C3193 C3192 1.377 . S
C3193 C3199 1.390 . S
C3194 H3185 0.930 . S
C3194 C3192 1.384 . S
C3194 C3195 1.372 . S
C3195 C3194 1.372 . S
C3195 C3196 1.400 . S
C3195 C3200 1.490 . S
C3196 H3186 0.930 . S
C3196 C3195 1.400 . S
C3196 C3199 1.386 . S
H3197 C3213 0.930 . S
H3198 C3214 0.931 . S
C3199 H3187 0.929 . S
C3199 C3193 1.390 . S
C3199 C3196 1.386 . S
C3200 C3195 1.490 . S
C3200 C3202 1.395 . S
C3200 C3203 1.403 . S
H3201 C3207 0.930 . S
C3202 H3188 0.930 . S
C3202 C3200 1.395 . S
C3202 C3205 1.403 . S
C3203 C3200 1.403 . S
C3203 C3204 1.524 . S
C3203 C3207 1.400 . S
C3204 H3189 0.960 . S
C3204 H3190 0.960 . S
C3204 H3191 0.960 . S
C3204 C3203 1.524 . S
C3205 C3202 1.403 . S
C3205 C3206 1.392 . S
C3205 C3209 1.495 . S
C3206 C3205 1.392 . S
C3206 C3207 1.385 . S
C3206 C3208 1.478 . S
C3207 H3201 0.930 . S
C3207 C3203 1.400 . S
C3207 C3206 1.385 . S
C3208 C3206 1.478 . S
C3208 C3210 1.381 . S
C3208 C3214 1.383 . S
C3209 C3205 1.495 . S
C3209 H3215 0.959 . S
C3209 H3216 0.961 . S
C3209 H3217 0.960 . S
C3210 C3208 1.381 . S
C3210 C3211 1.394 . S
C3210 H3218 0.930 . S
C3211 C3210 1.394 . S
C3211 C3212 1.383 . S
C3211 H3219 0.929 . S
C3212 C3211 1.383 . S
C3212 C3213 1.377 . S
C3213 H3197 0.930 . S
C3213 C3212 1.377 . S
C3213 C3214 1.379 . S
C3214 H3198 0.931 . S
C3214 C3208 1.383 . S
C3214 C3213 1.379 . S
H3215 C3209 0.959 . S
H3216 C3209 0.961 . S
H3217 C3209 0.960 . S
H3218 C3210 0.930 . S
H3219 C3211 0.929 . S
H3220 C3228 0.929 . S
H3221 C3230 0.930 . S
H3222 C3232 0.930 . S
H3223 C3235 0.929 . S
H3224 C3238 0.930 . S
H3225 C3240 0.960 . S
H3226 C3240 0.960 . S
H3227 C3240 0.960 . S
C3228 H3220 0.929 . S
C3228 C3229 1.377 . S
C3228 C3230 1.384 . S
C3229 C3228 1.377 . S
C3229 C3235 1.390 . S
C3230 H3221 0.930 . S
C3230 C3228 1.384 . S
C3230 C3231 1.372 . S
C3231 C3230 1.372 . S
C3231 C3232 1.400 . S
C3231 C3236 1.490 . S
C3232 H3222 0.930 . S
C3232 C3231 1.400 . S
C3232 C3235 1.386 . S
H3233 C3249 0.930 . S
H3234 C3250 0.931 . S
C3235 H3223 0.929 . S
C3235 C3229 1.390 . S
C3235 C3232 1.386 . S
C3236 C3231 1.490 . S
C3236 C3238 1.395 . S
C3236 C3239 1.403 . S
H3237 C3243 0.930 . S
C3238 H3224 0.930 . S
C3238 C3236 1.395 . S
C3238 C3241 1.403 1_655 S
C3239 C3236 1.403 . S
C3239 C3240 1.524 . S
C3239 C3243 1.400 . S
C3240 H3225 0.960 . S
C3240 H3226 0.960 . S
C3240 H3227 0.960 . S
C3240 C3239 1.524 . S
C3241 C3238 1.403 1_455 S
C3241 C3242 1.392 . S
C3241 C3245 1.495 . S
C3242 C3241 1.392 . S
C3242 C3243 1.385 1_455 S
C3242 C3244 1.478 . S
C3243 H3237 0.930 . S
C3243 C3239 1.400 . S
C3243 C3242 1.385 1_655 S
C3244 C3242 1.478 . S
C3244 C3246 1.381 . S
C3244 C3250 1.383 . S
C3245 C3241 1.495 . S
C3245 H3251 0.959 . S
C3245 H3252 0.961 . S
C3245 H3253 0.960 . S
C3246 C3244 1.381 . S
C3246 C3247 1.394 . S
C3246 H3254 0.930 . S
C3247 C3246 1.394 . S
C3247 C3248 1.383 . S
C3247 H3255 0.929 . S
C3248 C3247 1.383 . S
C3248 C3249 1.377 . S
C3249 H3233 0.930 . S
C3249 C3248 1.377 . S
C3249 C3250 1.379 . S
C3250 H3234 0.931 . S
C3250 C3244 1.383 . S
C3250 C3249 1.379 . S
H3251 C3245 0.959 . S
H3252 C3245 0.961 . S
H3253 C3245 0.960 . S
H3254 C3246 0.930 . S
H3255 C3247 0.929 . S
H3256 C3264 0.929 . S
H3257 C3266 0.930 . S
H3258 C3268 0.930 . S
H3259 C3271 0.929 . S
H3260 C3274 0.930 . S
H3261 C3276 0.960 . S
H3262 C3276 0.960 . S
H3263 C3276 0.960 . S
C3264 H3256 0.929 . S
C3264 C3265 1.377 . S
C3264 C3266 1.384 . S
C3265 C3264 1.377 . S
C3265 C3271 1.390 . S
C3266 H3257 0.930 . S
C3266 C3264 1.384 . S
C3266 C3267 1.372 . S
C3267 C3266 1.372 . S
C3267 C3268 1.400 . S
C3267 C3272 1.490 . S
C3268 H3258 0.930 . S
C3268 C3267 1.400 . S
C3268 C3271 1.386 . S
H3269 C3285 0.930 . S
H3270 C3286 0.931 . S
C3271 H3259 0.929 . S
C3271 C3265 1.390 . S
C3271 C3268 1.386 . S
C3272 C3267 1.490 . S
C3272 C3274 1.395 . S
C3272 C3275 1.403 . S
H3273 C3279 0.930 . S
C3274 H3260 0.930 . S
C3274 C3272 1.395 . S
C3274 C3277 1.403 . S
C3275 C3272 1.403 . S
C3275 C3276 1.524 . S
C3275 C3279 1.400 . S
C3276 H3261 0.960 . S
C3276 H3262 0.960 . S
C3276 H3263 0.960 . S
C3276 C3275 1.524 . S
C3277 C3274 1.403 . S
C3277 C3278 1.392 . S
C3277 C3281 1.495 . S
C3278 C3277 1.392 . S
C3278 C3279 1.385 . S
C3278 C3280 1.478 . S
C3279 H3273 0.930 . S
C3279 C3275 1.400 . S
C3279 C3278 1.385 . S
C3280 C3278 1.478 . S
C3280 C3282 1.381 . S
C3280 C3286 1.383 . S
C3281 C3277 1.495 . S
C3281 H3287 0.959 . S
C3281 H3288 0.961 . S
C3281 H3289 0.960 . S
C3282 C3280 1.381 . S
C3282 C3283 1.394 . S
C3282 H3290 0.930 . S
C3283 C3282 1.394 . S
C3283 C3284 1.383 . S
C3283 H3291 0.929 . S
C3284 C3283 1.383 . S
C3284 C3285 1.377 . S
C3285 H3269 0.930 . S
C3285 C3284 1.377 . S
C3285 C3286 1.379 . S
C3286 H3270 0.931 . S
C3286 C3280 1.383 . S
C3286 C3285 1.379 . S
H3287 C3281 0.959 . S
H3288 C3281 0.961 . S
H3289 C3281 0.960 . S
H3290 C3282 0.930 . S
H3291 C3283 0.929 . S
H3292 C3300 0.929 . S
H3293 C3302 0.930 . S
H3294 C3304 0.930 . S
H3295 C3307 0.929 . S
H3296 C3310 0.930 . S
H3297 C3312 0.960 . S
H3298 C3312 0.960 . S
H3299 C3312 0.960 . S
C3300 H3292 0.929 . S
C3300 C3301 1.377 . S
C3300 C3302 1.384 . S
C3301 C3300 1.377 . S
C3301 C3307 1.390 . S
C3302 H3293 0.930 . S
C3302 C3300 1.384 . S
C3302 C3303 1.372 . S
C3303 C3302 1.372 . S
C3303 C3304 1.400 . S
C3303 C3308 1.490 . S
C3304 H3294 0.930 . S
C3304 C3303 1.400 . S
C3304 C3307 1.386 . S
H3305 C3321 0.930 . S
H3306 C3322 0.931 . S
C3307 H3295 0.929 . S
C3307 C3301 1.390 . S
C3307 C3304 1.386 . S
C3308 C3303 1.490 . S
C3308 C3310 1.395 . S
C3308 C3311 1.403 . S
H3309 C3315 0.930 . S
C3310 H3296 0.930 . S
C3310 C3308 1.395 . S
C3310 C3313 1.403 1_556 S
C3311 C3308 1.403 . S
C3311 C3312 1.524 . S
C3311 C3315 1.400 . S
C3312 H3297 0.960 . S
C3312 H3298 0.960 . S
C3312 H3299 0.960 . S
C3312 C3311 1.524 . S
C3313 C3310 1.403 1_554 S
C3313 C3314 1.392 . S
C3313 C3317 1.495 . S
C3314 C3313 1.392 . S
C3314 C3315 1.385 1_554 S
C3314 C3316 1.478 . S
C3315 H3309 0.930 . S
C3315 C3311 1.400 . S
C3315 C3314 1.385 1_556 S
C3316 C3314 1.478 . S
C3316 C3318 1.381 . S
C3316 C3322 1.383 . S
C3317 C3313 1.495 . S
C3317 H3323 0.959 . S
C3317 H3324 0.961 . S
C3317 H3325 0.960 . S
C3318 C3316 1.381 . S
C3318 C3319 1.394 . S
C3318 H3326 0.930 . S
C3319 C3318 1.394 . S
C3319 C3320 1.383 . S
C3319 H3327 0.929 . S
C3320 C3319 1.383 . S
C3320 C3321 1.377 . S
C3321 H3305 0.930 . S
C3321 C3320 1.377 . S
C3321 C3322 1.379 . S
C3322 H3306 0.931 . S
C3322 C3316 1.383 . S
C3322 C3321 1.379 . S
H3323 C3317 0.959 . S
H3324 C3317 0.961 . S
H3325 C3317 0.960 . S
H3326 C3318 0.930 . S
H3327 C3319 0.929 . S
H3328 C3336 0.929 . S
H3329 C3338 0.930 . S
H3330 C3340 0.930 . S
H3331 C3343 0.929 . S
H3332 C3346 0.930 . S
H3333 C3348 0.960 . S
H3334 C3348 0.960 . S
H3335 C3348 0.960 . S
C3336 H3328 0.929 . S
C3336 C3337 1.377 . S
C3336 C3338 1.384 . S
C3337 C3336 1.377 . S
C3337 C3343 1.390 . S
C3338 H3329 0.930 . S
C3338 C3336 1.384 . S
C3338 C3339 1.372 . S
C3339 C3338 1.372 . S
C3339 C3340 1.400 . S
C3339 C3344 1.490 . S
C3340 H3330 0.930 . S
C3340 C3339 1.400 . S
C3340 C3343 1.386 . S
H3341 C3357 0.930 . S
H3342 C3358 0.931 . S
C3343 H3331 0.929 . S
C3343 C3337 1.390 . S
C3343 C3340 1.386 . S
C3344 C3339 1.490 . S
C3344 C3346 1.395 . S
C3344 C3347 1.403 . S
H3345 C3351 0.930 . S
C3346 H3332 0.930 . S
C3346 C3344 1.395 . S
C3346 C3349 1.403 . S
C3347 C3344 1.403 . S
C3347 C3348 1.524 . S
C3347 C3351 1.400 . S
C3348 H3333 0.960 . S
C3348 H3334 0.960 . S
C3348 H3335 0.960 . S
C3348 C3347 1.524 . S
C3349 C3346 1.403 . S
C3349 C3350 1.392 . S
C3349 C3353 1.495 . S
C3350 C3349 1.392 . S
C3350 C3351 1.385 . S
C3350 C3352 1.478 . S
C3351 H3345 0.930 . S
C3351 C3347 1.400 . S
C3351 C3350 1.385 . S
C3352 C3350 1.478 . S
C3352 C3354 1.381 . S
C3352 C3358 1.383 . S
C3353 C3349 1.495 . S
C3353 H3359 0.959 . S
C3353 H3360 0.961 . S
C3353 H3361 0.960 . S
C3354 C3352 1.381 . S
C3354 C3355 1.394 . S
C3354 H3362 0.930 . S
C3355 C3354 1.394 . S
C3355 C3356 1.383 . S
C3355 H3363 0.929 . S
C3356 C3355 1.383 . S
C3356 C3357 1.377 . S
C3357 H3341 0.930 . S
C3357 C3356 1.377 . S
C3357 C3358 1.379 . S
C3358 H3342 0.931 . S
C3358 C3352 1.383 . S
C3358 C3357 1.379 . S
H3359 C3353 0.959 . S
H3360 C3353 0.961 . S
H3361 C3353 0.960 . S
H3362 C3354 0.930 . S
H3363 C3355 0.929 . S
H3364 C3372 0.929 . S
H3365 C3374 0.930 . S
H3366 C3376 0.930 . S
H3367 C3379 0.968 . S
H3368 C3382 0.930 . S
H3369 C3384 0.960 . S
H3370 C3384 0.960 . S
H3371 C3384 0.960 . S
C3372 H3364 0.929 . S
C3372 C3373 1.377 . S
C3372 C3374 1.384 . S
C3373 C3372 1.377 . S
C3373 C3379 1.390 . S
C3374 H3365 0.930 . S
C3374 C3372 1.384 . S
C3374 C3375 1.372 . S
C3375 C3374 1.372 . S
C3375 C3376 1.400 . S
C3375 C3380 1.490 . S
C3376 H3366 0.930 . S
C3376 C3375 1.400 . S
C3376 C3379 1.386 . S
H3377 C3393 0.930 . S
H3378 C3394 0.931 . S
C3379 H3367 0.968 . S
C3379 C3373 1.390 . S
C3379 C3376 1.386 . S
C3380 C3375 1.490 . S
C3380 C3382 1.395 . S
C3380 C3383 1.403 . S
H3381 C3387 0.930 . S
C3382 H3368 0.930 . S
C3382 C3380 1.395 . S
C3382 C3385 1.403 . S
C3383 C3380 1.403 . S
C3383 C3384 1.524 . S
C3383 C3387 1.400 . S
C3384 H3369 0.960 . S
C3384 H3370 0.960 . S
C3384 H3371 0.960 . S
C3384 C3383 1.524 . S
C3385 C3382 1.403 . S
C3385 C3386 1.392 . S
C3385 C3389 1.495 . S
C3386 C3385 1.392 . S
C3386 C3387 1.385 . S
C3386 C3388 1.478 . S
C3387 H3381 0.930 . S
C3387 C3383 1.400 . S
C3387 C3386 1.385 . S
C3388 C3386 1.478 . S
C3388 C3390 1.381 . S
C3388 C3394 1.383 . S
C3389 C3385 1.495 . S
C3389 H3395 0.959 . S
C3389 H3396 0.961 . S
C3389 H3397 0.960 . S
C3390 C3388 1.381 . S
C3390 C3391 1.394 . S
C3390 H3398 0.930 . S
C3391 C3390 1.394 . S
C3391 C3392 1.383 . S
C3391 H3399 0.929 . S
C3392 C3391 1.383 . S
C3392 C3393 1.377 . S
C3393 H3377 0.930 . S
C3393 C3392 1.377 . S
C3393 C3394 1.379 . S
C3394 H3378 0.931 . S
C3394 C3388 1.383 . S
C3394 C3393 1.379 . S
H3395 C3389 0.959 . S
H3396 C3389 0.961 . S
H3397 C3389 0.960 . S
H3398 C3390 0.930 . S
H3399 C3391 0.929 . S
H3400 C3408 0.929 . S
H3401 C3410 0.930 . S
H3402 C3412 0.930 . S
H3403 C3415 0.929 . S
H3404 C3418 0.930 . S
H3405 C3420 0.960 . S
H3406 C3420 0.960 . S
H3407 C3420 0.960 . S
C3408 H3400 0.929 . S
C3408 C3409 1.377 . S
C3408 C3410 1.384 . S
C3409 C3408 1.377 . S
C3409 C3415 1.390 . S
C3410 H3401 0.930 . S
C3410 C3408 1.384 . S
C3410 C3411 1.372 . S
C3411 C3410 1.372 . S
C3411 C3412 1.400 . S
C3411 C3416 1.490 . S
C3412 H3402 0.930 . S
C3412 C3411 1.400 . S
C3412 C3415 1.386 . S
H3413 C3429 0.930 . S
H3414 C3430 0.931 . S
C3415 H3403 0.929 . S
C3415 C3409 1.390 . S
C3415 C3412 1.386 . S
C3416 C3411 1.490 . S
C3416 C3418 1.395 . S
C3416 C3419 1.403 . S
H3417 C3423 0.930 . S
C3418 H3404 0.930 . S
C3418 C3416 1.395 . S
C3418 C3421 1.403 . S
C3419 C3416 1.403 . S
C3419 C3420 1.524 . S
C3419 C3423 1.400 . S
C3420 H3405 0.960 . S
C3420 H3406 0.960 . S
C3420 H3407 0.960 . S
C3420 C3419 1.524 . S
C3421 C3418 1.403 . S
C3421 C3422 1.392 . S
C3421 C3425 1.495 . S
C3422 C3421 1.392 . S
C3422 C3423 1.385 . S
C3422 C3424 1.478 . S
C3423 H3417 0.930 . S
C3423 C3419 1.400 . S
C3423 C3422 1.385 . S
C3424 C3422 1.478 . S
C3424 C3426 1.381 . S
C3424 C3430 1.383 . S
C3425 C3421 1.495 . S
C3425 H3431 0.959 . S
C3425 H3432 0.961 . S
C3425 H3433 0.960 . S
C3426 C3424 1.381 . S
C3426 C3427 1.394 . S
C3426 H3434 0.930 . S
C3427 C3426 1.394 . S
C3427 C3428 1.383 . S
C3427 H3435 0.929 . S
C3428 C3427 1.383 . S
C3428 C3429 1.377 . S
C3429 H3413 0.930 . S
C3429 C3428 1.377 . S
C3429 C3430 1.379 . S
C3430 H3414 0.931 . S
C3430 C3424 1.383 . S
C3430 C3429 1.379 . S
H3431 C3425 0.959 . S
H3432 C3425 0.961 . S
H3433 C3425 0.960 . S
H3434 C3426 0.930 . S
H3435 C3427 0.929 . S
H3436 C3444 0.929 1_655 S
H3437 C3446 0.930 . S
H3438 C3448 0.930 . S
H3439 C3451 0.929 . S
H3440 C3454 0.930 . S
H3441 C3456 0.960 . S
H3442 C3456 0.960 . S
H3443 C3456 0.960 . S
C3444 H3436 0.929 1_455 S
C3444 C3445 1.377 . S
C3444 C3446 1.384 . S
C3445 C3444 1.377 . S
C3445 C3451 1.390 . S
C3446 H3437 0.930 . S
C3446 C3444 1.384 . S
C3446 C3447 1.372 . S
C3447 C3446 1.372 . S
C3447 C3448 1.400 . S
C3447 C3452 1.490 . S
C3448 H3438 0.930 . S
C3448 C3447 1.400 . S
C3448 C3451 1.386 . S
H3449 C3465 0.930 . S
H3450 C3466 0.931 . S
C3451 H3439 0.929 . S
C3451 C3445 1.390 . S
C3451 C3448 1.386 . S
C3452 C3447 1.490 . S
C3452 C3454 1.395 . S
C3452 C3455 1.403 . S
H3453 C3459 0.930 . S
C3454 H3440 0.930 . S
C3454 C3452 1.395 . S
C3454 C3457 1.403 1_554 S
C3455 C3452 1.403 . S
C3455 C3456 1.524 . S
C3455 C3459 1.400 . S
C3456 H3441 0.960 . S
C3456 H3442 0.960 . S
C3456 H3443 0.960 . S
C3456 C3455 1.524 . S
C3457 C3454 1.403 1_556 S
C3457 C3458 1.392 . S
C3457 C3461 1.495 . S
C3458 C3457 1.392 . S
C3458 C3459 1.385 1_556 S
C3458 C3460 1.478 . S
C3459 H3453 0.930 . S
C3459 C3455 1.400 . S
C3459 C3458 1.385 1_554 S
C3460 C3458 1.478 . S
C3460 C3462 1.381 . S
C3460 C3466 1.383 . S
C3461 C3457 1.495 . S
C3461 H3467 0.959 . S
C3461 H3468 0.961 . S
C3461 H3469 0.960 . S
C3462 C3460 1.381 . S
C3462 C3463 1.394 . S
C3462 H3470 0.930 . S
C3463 C3462 1.394 . S
C3463 C3464 1.383 . S
C3463 H3471 0.929 . S
C3464 C3463 1.383 . S
C3464 C3465 1.377 . S
C3465 H3449 0.930 . S
C3465 C3464 1.377 . S
C3465 C3466 1.379 . S
C3466 H3450 0.931 . S
C3466 C3460 1.383 . S
C3466 C3465 1.379 . S
H3467 C3461 0.959 . S
H3468 C3461 0.961 . S
H3469 C3461 0.960 . S
H3470 C3462 0.930 . S
H3471 C3463 0.929 . S
H3472 C3480 0.929 . S
H3473 C3482 0.930 . S
H3474 C3484 0.930 . S
H3475 C3487 0.929 . S
H3476 C3490 0.930 . S
H3477 C3492 0.960 . S
H3478 C3492 0.960 . S
H3479 C3492 0.960 . S
C3480 H3472 0.929 . S
C3480 C3481 1.377 . S
C3480 C3482 1.384 . S
C3481 C3480 1.377 . S
C3481 C3487 1.390 . S
C3482 H3473 0.930 . S
C3482 C3480 1.384 . S
C3482 C3483 1.372 . S
C3483 C3482 1.372 . S
C3483 C3484 1.400 . S
C3483 C3488 1.490 . S
C3484 H3474 0.930 . S
C3484 C3483 1.400 . S
C3484 C3487 1.386 . S
H3485 C3501 0.930 . S
H3486 C3502 0.931 . S
C3487 H3475 0.929 . S
C3487 C3481 1.390 . S
C3487 C3484 1.386 . S
C3488 C3483 1.490 . S
C3488 C3490 1.395 . S
C3488 C3491 1.403 . S
H3489 C3495 0.930 . S
C3490 H3476 0.930 . S
C3490 C3488 1.395 . S
C3490 C3493 1.403 . S
C3491 C3488 1.403 . S
C3491 C3492 1.524 . S
C3491 C3495 1.400 . S
C3492 H3477 0.960 . S
C3492 H3478 0.960 . S
C3492 H3479 0.960 . S
C3492 C3491 1.524 . S
C3493 C3490 1.403 . S
C3493 C3494 1.392 . S
C3493 C3497 1.495 . S
C3494 C3493 1.392 . S
C3494 C3495 1.385 . S
C3494 C3496 1.478 . S
C3495 H3489 0.930 . S
C3495 C3491 1.400 . S
C3495 C3494 1.385 . S
C3496 C3494 1.478 . S
C3496 C3498 1.381 . S
C3496 C3502 1.383 . S
C3497 C3493 1.495 . S
C3497 H3503 0.959 . S
C3497 H3504 0.961 . S
C3497 H3505 0.960 . S
C3498 C3496 1.381 . S
C3498 C3499 1.394 . S
C3498 H3506 0.930 . S
C3499 C3498 1.394 . S
C3499 C3500 1.383 . S
C3499 H3507 0.929 . S
C3500 C3499 1.383 . S
C3500 C3501 1.377 . S
C3501 H3485 0.930 . S
C3501 C3500 1.377 . S
C3501 C3502 1.379 . S
C3502 H3486 0.931 . S
C3502 C3496 1.383 . S
C3502 C3501 1.379 . S
H3503 C3497 0.959 . S
H3504 C3497 0.961 . S
H3505 C3497 0.960 . S
H3506 C3498 0.930 . S
H3507 C3499 0.929 . S
H3508 C3516 0.929 . S
H3509 C3518 0.930 . S
H3510 C3520 0.930 . S
H3511 C3523 0.929 . S
H3512 C3526 0.930 . S
H3513 C3528 0.960 . S
H3514 C3528 0.960 . S
H3515 C3528 0.960 . S
C3516 H3508 0.929 . S
C3516 C3517 1.377 . S
C3516 C3518 1.384 . S
C3517 C3516 1.377 . S
C3517 C3523 1.390 . S
C3518 H3509 0.930 . S
C3518 C3516 1.384 . S
C3518 C3519 1.372 . S
C3519 C3518 1.372 . S
C3519 C3520 1.400 . S
C3519 C3524 1.490 . S
C3520 H3510 0.930 . S
C3520 C3519 1.400 . S
C3520 C3523 1.386 . S
H3521 C3537 0.930 . S
H3522 C3538 0.931 . S
C3523 H3511 0.929 . S
C3523 C3517 1.390 . S
C3523 C3520 1.386 . S
C3524 C3519 1.490 . S
C3524 C3526 1.395 . S
C3524 C3527 1.403 . S
H3525 C3531 0.930 . S
C3526 H3512 0.930 . S
C3526 C3524 1.395 . S
C3526 C3529 1.403 . S
C3527 C3524 1.403 . S
C3527 C3528 1.524 . S
C3527 C3531 1.400 . S
C3528 H3513 0.960 . S
C3528 H3514 0.960 . S
C3528 H3515 0.960 . S
C3528 C3527 1.524 . S
C3529 C3526 1.403 . S
C3529 C3530 1.392 . S
C3529 C3533 1.495 . S
C3530 C3529 1.392 . S
C3530 C3531 1.385 . S
C3530 C3532 1.478 . S
C3531 H3525 0.930 . S
C3531 C3527 1.400 . S
C3531 C3530 1.385 . S
C3532 C3530 1.478 . S
C3532 C3534 1.381 . S
C3532 C3538 1.383 . S
C3533 C3529 1.495 . S
C3533 H3539 0.959 . S
C3533 H3540 0.961 . S
C3533 H3541 0.960 . S
C3534 C3532 1.381 . S
C3534 C3535 1.394 . S
C3534 H3542 0.930 . S
C3535 C3534 1.394 . S
C3535 C3536 1.383 . S
C3535 H3543 0.929 . S
C3536 C3535 1.383 . S
C3536 C3537 1.377 . S
C3537 H3521 0.930 . S
C3537 C3536 1.377 . S
C3537 C3538 1.379 . S
C3538 H3522 0.931 . S
C3538 C3532 1.383 . S
C3538 C3537 1.379 . S
H3539 C3533 0.959 . S
H3540 C3533 0.961 . S
H3541 C3533 0.960 . S
H3542 C3534 0.930 . S
H3543 C3535 0.929 . S
H3544 C3552 0.929 . S
H3545 C3554 0.930 . S
H3546 C3556 0.930 . S
H3547 C3559 0.929 . S
H3548 C3562 0.930 . S
H3549 C3564 0.960 . S
H3550 C3564 0.960 . S
H3551 C3564 0.960 . S
C3552 H3544 0.929 . S
C3552 C3553 1.377 . S
C3552 C3554 1.384 . S
C3553 C3552 1.377 . S
C3553 C3559 1.390 . S
C3554 H3545 0.930 . S
C3554 C3552 1.384 . S
C3554 C3555 1.372 . S
C3555 C3554 1.372 . S
C3555 C3556 1.400 . S
C3555 C3560 1.490 . S
C3556 H3546 0.930 . S
C3556 C3555 1.400 . S
C3556 C3559 1.386 . S
H3557 C3573 0.930 . S
H3558 C3574 0.931 . S
C3559 H3547 0.929 . S
C3559 C3553 1.390 . S
C3559 C3556 1.386 . S
C3560 C3555 1.490 . S
C3560 C3562 1.395 . S
C3560 C3563 1.403 . S
H3561 C3567 0.930 . S
C3562 H3548 0.930 . S
C3562 C3560 1.395 . S
C3562 C3565 1.403 . S
C3563 C3560 1.403 . S
C3563 C3564 1.524 . S
C3563 C3567 1.400 . S
C3564 H3549 0.960 . S
C3564 H3550 0.960 . S
C3564 H3551 0.960 . S
C3564 C3563 1.524 . S
C3565 C3562 1.403 . S
C3565 C3566 1.392 . S
C3565 C3569 1.495 . S
C3566 C3565 1.392 . S
C3566 C3567 1.385 . S
C3566 C3568 1.478 . S
C3567 H3561 0.930 . S
C3567 C3563 1.400 . S
C3567 C3566 1.385 . S
C3568 C3566 1.478 . S
C3568 C3570 1.381 . S
C3568 C3574 1.383 . S
C3569 C3565 1.495 . S
C3569 H3575 0.959 . S
C3569 H3576 0.961 . S
C3569 H3577 0.960 . S
C3570 C3568 1.381 . S
C3570 C3571 1.394 . S
C3570 H3578 0.930 . S
C3571 C3570 1.394 . S
C3571 C3572 1.383 . S
C3571 H3579 0.929 . S
C3572 C3571 1.383 . S
C3572 C3573 1.377 . S
C3573 H3557 0.930 . S
C3573 C3572 1.377 . S
C3573 C3574 1.379 . S
C3574 H3558 0.931 . S
C3574 C3568 1.383 . S
C3574 C3573 1.379 . S
H3575 C3569 0.959 . S
H3576 C3569 0.961 . S
H3577 C3569 0.960 . S
H3578 C3570 0.930 . S
H3579 C3571 0.929 . S
H3580 C3588 0.929 . S
H3581 C3590 0.930 . S
H3582 C3592 0.930 . S
H3583 C3595 0.929 . S
H3584 C3598 0.930 . S
H3585 C3600 0.960 . S
H3586 C3600 0.960 . S
H3587 C3600 0.960 . S
C3588 H3580 0.929 . S
C3588 C3589 1.377 . S
C3588 C3590 1.384 . S
C3589 C3588 1.377 . S
C3589 C3595 1.390 . S
C3590 H3581 0.930 . S
C3590 C3588 1.384 . S
C3590 C3591 1.372 . S
C3591 C3590 1.372 . S
C3591 C3592 1.400 . S
C3591 C3596 1.490 . S
C3592 H3582 0.930 . S
C3592 C3591 1.400 . S
C3592 C3595 1.386 . S
H3593 C3609 0.930 . S
H3594 C3610 0.931 . S
C3595 H3583 0.929 . S
C3595 C3589 1.390 . S
C3595 C3592 1.386 . S
C3596 C3591 1.490 . S
C3596 C3598 1.395 . S
C3596 C3599 1.403 . S
H3597 C3603 0.930 . S
C3598 H3584 0.930 . S
C3598 C3596 1.395 . S
C3598 C3601 1.403 . S
C3599 C3596 1.403 . S
C3599 C3600 1.524 . S
C3599 C3603 1.400 . S
C3600 H3585 0.960 . S
C3600 H3586 0.960 . S
C3600 H3587 0.960 . S
C3600 C3599 1.524 . S
C3601 C3598 1.403 . S
C3601 C3602 1.392 . S
C3601 C3605 1.495 . S
C3602 C3601 1.392 . S
C3602 C3603 1.385 . S
C3602 C3604 1.478 . S
C3603 H3597 0.930 . S
C3603 C3599 1.400 . S
C3603 C3602 1.385 . S
C3604 C3602 1.478 . S
C3604 C3606 1.381 . S
C3604 C3610 1.383 . S
C3605 C3601 1.495 . S
C3605 H3611 0.959 . S
C3605 H3612 0.961 . S
C3605 H3613 0.960 . S
C3606 C3604 1.381 . S
C3606 C3607 1.394 . S
C3606 H3614 0.930 . S
C3607 C3606 1.394 . S
C3607 C3608 1.383 . S
C3607 H3615 0.929 . S
C3608 C3607 1.383 . S
C3608 C3609 1.377 . S
C3609 H3593 0.930 . S
C3609 C3608 1.377 . S
C3609 C3610 1.379 . S
C3610 H3594 0.931 . S
C3610 C3604 1.383 . S
C3610 C3609 1.379 . S
H3611 C3605 0.959 . S
H3612 C3605 0.961 . S
H3613 C3605 0.960 . S
H3614 C3606 0.930 . S
H3615 C3607 0.929 . S
H3616 C3624 0.929 . S
H3617 C3626 0.930 . S
H3618 C3628 0.930 . S
H3619 C3631 0.929 . S
H3620 C3634 0.930 . S
H3621 C3636 0.960 . S
H3622 C3636 0.960 . S
H3623 C3636 0.960 . S
C3624 H3616 0.929 . S
C3624 C3625 1.377 . S
C3624 C3626 1.384 . S
C3625 C3624 1.377 . S
C3625 C3631 1.390 . S
C3626 H3617 0.930 . S
C3626 C3624 1.384 . S
C3626 C3627 1.372 . S
C3627 C3626 1.372 . S
C3627 C3628 1.400 . S
C3627 C3632 1.490 . S
C3628 H3618 0.930 . S
C3628 C3627 1.400 . S
C3628 C3631 1.386 . S
H3629 C3645 0.930 . S
H3630 C3646 0.931 . S
C3631 H3619 0.929 . S
C3631 C3625 1.390 . S
C3631 C3628 1.386 . S
C3632 C3627 1.490 . S
C3632 C3634 1.395 . S
C3632 C3635 1.403 . S
H3633 C3639 0.930 . S
C3634 H3620 0.930 . S
C3634 C3632 1.395 . S
C3634 C3637 1.403 . S
C3635 C3632 1.403 . S
C3635 C3636 1.524 . S
C3635 C3639 1.400 . S
C3636 H3621 0.960 . S
C3636 H3622 0.960 . S
C3636 H3623 0.960 . S
C3636 C3635 1.524 . S
C3637 C3634 1.403 . S
C3637 C3638 1.392 . S
C3637 C3641 1.495 . S
C3638 C3637 1.392 . S
C3638 C3639 1.385 . S
C3638 C3640 1.478 . S
C3639 H3633 0.930 . S
C3639 C3635 1.400 . S
C3639 C3638 1.385 . S
C3640 C3638 1.478 . S
C3640 C3642 1.381 . S
C3640 C3646 1.383 . S
C3641 C3637 1.495 . S
C3641 H3647 0.959 . S
C3641 H3648 0.961 . S
C3641 H3649 0.960 . S
C3642 C3640 1.381 . S
C3642 C3643 1.394 . S
C3642 H3650 0.930 . S
C3643 C3642 1.394 . S
C3643 C3644 1.383 . S
C3643 H3651 0.929 . S
C3644 C3643 1.383 . S
C3644 C3645 1.377 . S
C3645 H3629 0.930 . S
C3645 C3644 1.377 . S
C3645 C3646 1.379 . S
C3646 H3630 0.931 . S
C3646 C3640 1.383 . S
C3646 C3645 1.379 . S
H3647 C3641 0.959 . S
H3648 C3641 0.961 . S
H3649 C3641 0.960 . S
H3650 C3642 0.930 . S
H3651 C3643 0.929 . S
H3652 C3660 0.929 . S
H3653 C3662 0.930 . S
H3654 C3664 0.930 . S
H3655 C3667 0.929 . S
H3656 C3670 0.930 . S
H3657 C3672 0.960 . S
H3658 C3672 0.960 . S
H3659 C3672 0.960 . S
C3660 H3652 0.929 . S
C3660 C3661 1.377 . S
C3660 C3662 1.384 . S
C3661 C3660 1.377 . S
C3661 C3667 1.390 . S
C3662 H3653 0.930 . S
C3662 C3660 1.384 . S
C3662 C3663 1.372 . S
C3663 C3662 1.372 . S
C3663 C3664 1.400 . S
C3663 C3668 1.490 . S
C3664 H3654 0.930 . S
C3664 C3663 1.400 . S
C3664 C3667 1.386 . S
H3665 C3681 0.930 . S
H3666 C3682 0.931 . S
C3667 H3655 0.929 . S
C3667 C3661 1.390 . S
C3667 C3664 1.386 . S
C3668 C3663 1.490 . S
C3668 C3670 1.395 . S
C3668 C3671 1.403 . S
H3669 C3675 0.930 . S
C3670 H3656 0.930 . S
C3670 C3668 1.395 . S
C3670 C3673 1.403 . S
C3671 C3668 1.403 . S
C3671 C3672 1.524 . S
C3671 C3675 1.400 . S
C3672 H3657 0.960 . S
C3672 H3658 0.960 . S
C3672 H3659 0.960 . S
C3672 C3671 1.524 . S
C3673 C3670 1.403 . S
C3673 C3674 1.392 . S
C3673 C3677 1.495 . S
C3674 C3673 1.392 . S
C3674 C3675 1.385 . S
C3674 C3676 1.478 . S
C3675 H3669 0.930 . S
C3675 C3671 1.400 . S
C3675 C3674 1.385 . S
C3676 C3674 1.478 . S
C3676 C3678 1.381 . S
C3676 C3682 1.383 . S
C3677 C3673 1.495 . S
C3677 H3683 0.959 . S
C3677 H3684 0.961 . S
C3677 H3685 0.960 . S
C3678 C3676 1.381 . S
C3678 C3679 1.394 . S
C3678 H3686 0.930 . S
C3679 C3678 1.394 . S
C3679 C3680 1.383 . S
C3679 H3687 0.929 . S
C3680 C3679 1.383 . S
C3680 C3681 1.377 . S
C3681 H3665 0.930 . S
C3681 C3680 1.377 . S
C3681 C3682 1.379 . S
C3682 H3666 0.931 . S
C3682 C3676 1.383 . S
C3682 C3681 1.379 . S
H3683 C3677 0.959 . S
H3684 C3677 0.961 . S
H3685 C3677 0.960 . S
H3686 C3678 0.930 . S
H3687 C3679 0.929 . S
H3688 C3696 0.929 . S
H3689 C3698 0.930 . S
H3690 C3700 0.930 . S
H3691 C3703 0.929 . S
H3692 C3706 0.930 . S
H3693 C3708 0.960 . S
H3694 C3708 0.960 . S
H3695 C3708 0.960 . S
C3696 H3688 0.929 . S
C3696 C3697 1.377 . S
C3696 C3698 1.384 . S
C3697 C3696 1.377 . S
C3697 C3703 1.390 . S
C3698 H3689 0.930 . S
C3698 C3696 1.384 . S
C3698 C3699 1.372 . S
C3699 C3698 1.372 . S
C3699 C3700 1.400 . S
C3699 C3704 1.490 . S
C3700 H3690 0.930 . S
C3700 C3699 1.400 . S
C3700 C3703 1.386 . S
H3701 C3717 0.930 . S
H3702 C3718 0.931 . S
C3703 H3691 0.929 . S
C3703 C3697 1.390 . S
C3703 C3700 1.386 . S
C3704 C3699 1.490 . S
C3704 C3706 1.395 . S
C3704 C3707 1.403 . S
H3705 C3711 0.930 . S
C3706 H3692 0.930 . S
C3706 C3704 1.395 . S
C3706 C3709 1.403 . S
C3707 C3704 1.403 . S
C3707 C3708 1.524 . S
C3707 C3711 1.400 . S
C3708 H3693 0.960 . S
C3708 H3694 0.960 . S
C3708 H3695 0.960 . S
C3708 C3707 1.524 . S
C3709 C3706 1.403 . S
C3709 C3710 1.392 . S
C3709 C3713 1.495 . S
C3710 C3709 1.392 . S
C3710 C3711 1.385 . S
C3710 C3712 1.478 . S
C3711 H3705 0.930 . S
C3711 C3707 1.400 . S
C3711 C3710 1.385 . S
C3712 C3710 1.478 . S
C3712 C3714 1.381 . S
C3712 C3718 1.383 . S
C3713 C3709 1.495 . S
C3713 H3719 0.959 . S
C3713 H3720 0.961 . S
C3713 H3721 0.960 . S
C3714 C3712 1.381 . S
C3714 C3715 1.394 . S
C3714 H3722 0.930 . S
C3715 C3714 1.394 . S
C3715 C3716 1.383 . S
C3715 H3723 0.929 . S
C3716 C3715 1.383 . S
C3716 C3717 1.377 . S
C3717 H3701 0.930 . S
C3717 C3716 1.377 . S
C3717 C3718 1.379 . S
C3718 H3702 0.931 . S
C3718 C3712 1.383 . S
C3718 C3717 1.379 . S
H3719 C3713 0.959 . S
H3720 C3713 0.961 . S
H3721 C3713 0.960 . S
H3722 C3714 0.930 . S
H3723 C3715 0.929 . S
H3724 C3732 0.929 . S
H3725 C3734 0.930 . S
H3726 C3736 0.930 . S
H3727 C3739 0.929 1_554 S
H3728 C3742 0.930 . S
H3729 C3744 0.960 . S
H3730 C3744 0.960 . S
H3731 C3744 0.960 . S
C3732 H3724 0.929 . S
C3732 C3733 1.377 . S
C3732 C3734 1.384 . S
C3733 C3732 1.377 . S
C3733 C3739 1.390 . S
C3734 H3725 0.930 . S
C3734 C3732 1.384 . S
C3734 C3735 1.372 . S
C3735 C3734 1.372 . S
C3735 C3736 1.400 . S
C3735 C3740 1.490 . S
C3736 H3726 0.930 . S
C3736 C3735 1.400 . S
C3736 C3739 1.386 . S
H3737 C3753 0.930 . S
H3738 C3754 0.931 . S
C3739 H3727 0.929 1_556 S
C3739 C3733 1.390 . S
C3739 C3736 1.386 . S
C3740 C3735 1.490 . S
C3740 C3742 1.395 . S
C3740 C3743 1.403 . S
H3741 C3747 0.930 . S
C3742 H3728 0.930 . S
C3742 C3740 1.395 . S
C3742 C3745 1.403 . S
C3743 C3740 1.403 . S
C3743 C3744 1.524 . S
C3743 C3747 1.400 . S
C3744 H3729 0.960 . S
C3744 H3730 0.960 . S
C3744 H3731 0.960 . S
C3744 C3743 1.524 . S
C3745 C3742 1.403 . S
C3745 C3746 1.392 . S
C3745 C3749 1.495 . S
C3746 C3745 1.392 . S
C3746 C3747 1.385 . S
C3746 C3748 1.478 . S
C3747 H3741 0.930 . S
C3747 C3743 1.400 . S
C3747 C3746 1.385 . S
C3748 C3746 1.478 . S
C3748 C3750 1.381 . S
C3748 C3754 1.383 . S
C3749 C3745 1.495 . S
C3749 H3755 0.959 . S
C3749 H3756 0.961 . S
C3749 H3757 0.960 . S
C3750 C3748 1.381 . S
C3750 C3751 1.394 . S
C3750 H3758 0.930 . S
C3751 C3750 1.394 . S
C3751 C3752 1.383 . S
C3751 H3759 0.929 . S
C3752 C3751 1.383 . S
C3752 C3753 1.377 . S
C3753 H3737 0.930 . S
C3753 C3752 1.377 . S
C3753 C3754 1.379 . S
C3754 H3738 0.931 . S
C3754 C3748 1.383 . S
C3754 C3753 1.379 . S
H3755 C3749 0.959 . S
H3756 C3749 0.961 . S
H3757 C3749 0.960 . S
H3758 C3750 0.930 . S
H3759 C3751 0.929 . S
H3760 C3768 0.929 . S
H3761 C3770 0.930 . S
H3762 C3772 0.930 . S
H3763 C3775 0.929 . S
H3764 C3778 0.930 . S
H3765 C3780 0.960 . S
H3766 C3780 0.960 . S
H3767 C3780 0.960 . S
C3768 H3760 0.929 . S
C3768 C3769 1.377 . S
C3768 C3770 1.384 . S
C3769 C3768 1.377 . S
C3769 C3775 1.390 . S
C3770 H3761 0.930 . S
C3770 C3768 1.384 . S
C3770 C3771 1.372 . S
C3771 C3770 1.372 . S
C3771 C3772 1.400 . S
C3771 C3776 1.490 . S
C3772 H3762 0.930 . S
C3772 C3771 1.400 . S
C3772 C3775 1.386 . S
H3773 C3789 0.930 . S
H3774 C3790 0.931 . S
C3775 H3763 0.929 . S
C3775 C3769 1.390 . S
C3775 C3772 1.386 . S
C3776 C3771 1.490 . S
C3776 C3778 1.395 . S
C3776 C3779 1.403 . S
H3777 C3783 0.930 . S
C3778 H3764 0.930 . S
C3778 C3776 1.395 . S
C3778 C3781 1.403 . S
C3779 C3776 1.403 . S
C3779 C3780 1.524 . S
C3779 C3783 1.400 . S
C3780 H3765 0.960 . S
C3780 H3766 0.960 . S
C3780 H3767 0.960 . S
C3780 C3779 1.524 . S
C3781 C3778 1.403 . S
C3781 C3782 1.392 . S
C3781 C3785 1.495 . S
C3782 C3781 1.392 . S
C3782 C3783 1.385 . S
C3782 C3784 1.478 . S
C3783 H3777 0.930 . S
C3783 C3779 1.400 . S
C3783 C3782 1.385 . S
C3784 C3782 1.478 . S
C3784 C3786 1.381 . S
C3784 C3790 1.383 . S
C3785 C3781 1.495 . S
C3785 H3791 0.959 . S
C3785 H3792 0.961 . S
C3785 H3793 0.960 . S
C3786 C3784 1.381 . S
C3786 C3787 1.394 . S
C3786 H3794 0.930 . S
C3787 C3786 1.394 . S
C3787 C3788 1.383 . S
C3787 H3795 0.929 . S
C3788 C3787 1.383 . S
C3788 C3789 1.377 . S
C3789 H3773 0.930 . S
C3789 C3788 1.377 . S
C3789 C3790 1.379 . S
C3790 H3774 0.931 . S
C3790 C3784 1.383 . S
C3790 C3789 1.379 . S
H3791 C3785 0.959 . S
H3792 C3785 0.961 . S
H3793 C3785 0.960 . S
H3794 C3786 0.930 . S
H3795 C3787 0.929 . S
H3796 C3804 0.929 . S
H3797 C3806 0.930 . S
H3798 C3808 0.930 . S
H3799 C3811 0.929 . S
H3800 C3814 0.930 . S
H3801 C3816 0.960 . S
H3802 C3816 0.960 . S
H3803 C3816 0.960 . S
C3804 H3796 0.929 . S
C3804 C3805 1.377 . S
C3804 C3806 1.384 . S
C3805 C3804 1.377 . S
C3805 C3811 1.390 . S
C3806 H3797 0.930 . S
C3806 C3804 1.384 . S
C3806 C3807 1.372 . S
C3807 C3806 1.372 . S
C3807 C3808 1.400 . S
C3807 C3812 1.490 . S
C3808 H3798 0.930 . S
C3808 C3807 1.400 . S
C3808 C3811 1.386 . S
H3809 C3825 0.930 . S
H3810 C3826 0.931 . S
C3811 H3799 0.929 . S
C3811 C3805 1.390 . S
C3811 C3808 1.386 . S
C3812 C3807 1.490 . S
C3812 C3814 1.395 . S
C3812 C3815 1.403 . S
H3813 C3819 0.930 . S
C3814 H3800 0.930 . S
C3814 C3812 1.395 . S
C3814 C3817 1.403 . S
C3815 C3812 1.403 . S
C3815 C3816 1.524 . S
C3815 C3819 1.400 . S
C3816 H3801 0.960 . S
C3816 H3802 0.960 . S
C3816 H3803 0.960 . S
C3816 C3815 1.524 . S
C3817 C3814 1.403 . S
C3817 C3818 1.392 . S
C3817 C3821 1.495 . S
C3818 C3817 1.392 . S
C3818 C3819 1.385 . S
C3818 C3820 1.478 . S
C3819 H3813 0.930 . S
C3819 C3815 1.400 . S
C3819 C3818 1.385 . S
C3820 C3818 1.478 . S
C3820 C3822 1.381 . S
C3820 C3826 1.383 . S
C3821 C3817 1.495 . S
C3821 H3827 0.959 . S
C3821 H3828 0.961 . S
C3821 H3829 0.960 . S
C3822 C3820 1.381 . S
C3822 C3823 1.394 . S
C3822 H3830 0.930 . S
C3823 C3822 1.394 . S
C3823 C3824 1.383 . S
C3823 H3831 0.929 . S
C3824 C3823 1.383 . S
C3824 C3825 1.377 . S
C3825 H3809 0.930 . S
C3825 C3824 1.377 . S
C3825 C3826 1.379 . S
C3826 H3810 0.931 . S
C3826 C3820 1.383 . S
C3826 C3825 1.379 . S
H3827 C3821 0.959 . S
H3828 C3821 0.961 . S
H3829 C3821 0.960 . S
H3830 C3822 0.930 . S
H3831 C3823 0.929 . S
H3832 C3840 0.929 . S
H3833 C3842 0.930 . S
H3834 C3844 0.930 . S
H3835 C3847 0.929 . S
H3836 C3850 0.930 . S
H3837 C3852 0.960 . S
H3838 C3852 0.960 . S
H3839 C3852 0.960 . S
C3840 H3832 0.929 . S
C3840 C3841 1.377 . S
C3840 C3842 1.384 . S
C3841 C3840 1.377 . S
C3841 C3847 1.390 . S
C3842 H3833 0.930 . S
C3842 C3840 1.384 . S
C3842 C3843 1.372 . S
C3843 C3842 1.372 . S
C3843 C3844 1.400 . S
C3843 C3848 1.490 . S
C3844 H3834 0.930 . S
C3844 C3843 1.400 . S
C3844 C3847 1.386 . S
H3845 C3861 0.930 . S
H3846 C3862 0.931 . S
C3847 H3835 0.929 . S
C3847 C3841 1.390 . S
C3847 C3844 1.386 . S
C3848 C3843 1.490 . S
C3848 C3850 1.395 . S
C3848 C3851 1.403 . S
H3849 C3855 0.930 . S
C3850 H3836 0.930 . S
C3850 C3848 1.395 . S
C3850 C3853 1.403 . S
C3851 C3848 1.403 . S
C3851 C3852 1.524 . S
C3851 C3855 1.400 . S
C3852 H3837 0.960 . S
C3852 H3838 0.960 . S
C3852 H3839 0.960 . S
C3852 C3851 1.524 . S
C3853 C3850 1.403 . S
C3853 C3854 1.392 . S
C3853 C3857 1.495 . S
C3854 C3853 1.392 . S
C3854 C3855 1.385 . S
C3854 C3856 1.478 . S
C3855 H3849 0.930 . S
C3855 C3851 1.400 . S
C3855 C3854 1.385 . S
C3856 C3854 1.478 . S
C3856 C3858 1.381 . S
C3856 C3862 1.383 . S
C3857 C3853 1.495 . S
C3857 H3863 0.959 . S
C3857 H3864 0.961 . S
C3857 H3865 0.960 . S
C3858 C3856 1.381 . S
C3858 C3859 1.394 . S
C3858 H3866 0.930 . S
C3859 C3858 1.394 . S
C3859 C3860 1.383 . S
C3859 H3867 0.929 . S
C3860 C3859 1.383 . S
C3860 C3861 1.377 . S
C3861 H3845 0.930 . S
C3861 C3860 1.377 . S
C3861 C3862 1.379 . S
C3862 H3846 0.931 . S
C3862 C3856 1.383 . S
C3862 C3861 1.379 . S
H3863 C3857 0.959 . S
H3864 C3857 0.961 . S
H3865 C3857 0.960 . S
H3866 C3858 0.930 . S
H3867 C3859 0.929 . S
H3868 C3876 0.929 . S
H3869 C3878 0.930 . S
H3870 C3880 0.930 . S
H3871 C3883 0.929 . S
H3872 C3886 0.930 . S
H3873 C3888 0.960 . S
H3874 C3888 0.960 . S
H3875 C3888 0.960 . S
C3876 H3868 0.929 . S
C3876 C3877 1.377 . S
C3876 C3878 1.384 . S
C3877 C3876 1.377 . S
C3877 C3883 1.390 . S
C3878 H3869 0.930 . S
C3878 C3876 1.384 . S
C3878 C3879 1.372 . S
C3879 C3878 1.372 . S
C3879 C3880 1.400 . S
C3879 C3884 1.490 . S
C3880 H3870 0.930 . S
C3880 C3879 1.400 . S
C3880 C3883 1.386 . S
H3881 C3897 0.930 . S
H3882 C3898 0.931 . S
C3883 H3871 0.929 . S
C3883 C3877 1.390 . S
C3883 C3880 1.386 . S
C3884 C3879 1.490 . S
C3884 C3886 1.395 . S
C3884 C3887 1.403 . S
H3885 C3891 0.930 . S
C3886 H3872 0.930 . S
C3886 C3884 1.395 . S
C3886 C3889 1.403 . S
C3887 C3884 1.403 . S
C3887 C3888 1.524 . S
C3887 C3891 1.400 . S
C3888 H3873 0.960 . S
C3888 H3874 0.960 . S
C3888 H3875 0.960 . S
C3888 C3887 1.524 . S
C3889 C3886 1.403 . S
C3889 C3890 1.392 . S
C3889 C3893 1.495 . S
C3890 C3889 1.392 . S
C3890 C3891 1.385 . S
C3890 C3892 1.478 . S
C3891 H3885 0.930 . S
C3891 C3887 1.400 . S
C3891 C3890 1.385 . S
C3892 C3890 1.478 . S
C3892 C3894 1.381 . S
C3892 C3898 1.383 . S
C3893 C3889 1.495 . S
C3893 H3899 0.959 . S
C3893 H3900 0.961 . S
C3893 H3901 0.960 . S
C3894 C3892 1.381 . S
C3894 C3895 1.394 . S
C3894 H3902 0.930 . S
C3895 C3894 1.394 . S
C3895 C3896 1.383 . S
C3895 H3903 0.929 . S
C3896 C3895 1.383 . S
C3896 C3897 1.377 . S
C3897 H3881 0.930 . S
C3897 C3896 1.377 . S
C3897 C3898 1.379 . S
C3898 H3882 0.931 . S
C3898 C3892 1.383 . S
C3898 C3897 1.379 . S
H3899 C3893 0.959 . S
H3900 C3893 0.961 . S
H3901 C3893 0.960 . S
H3902 C3894 0.930 . S
H3903 C3895 0.929 . S
H3904 C3912 0.929 . S
H3905 C3914 0.930 . S
H3906 C3916 0.930 . S
H3907 C3919 0.929 . S
H3908 C3922 0.930 . S
H3909 C3924 0.960 . S
H3910 C3924 0.960 . S
H3911 C3924 0.960 . S
C3912 H3904 0.929 . S
C3912 C3913 1.377 . S
C3912 C3914 1.384 . S
C3913 C3912 1.377 . S
C3913 C3919 1.390 . S
C3914 H3905 0.930 . S
C3914 C3912 1.384 . S
C3914 C3915 1.372 . S
C3915 C3914 1.372 . S
C3915 C3916 1.400 . S
C3915 C3920 1.490 . S
C3916 H3906 0.930 . S
C3916 C3915 1.400 . S
C3916 C3919 1.386 . S
H3917 C3933 0.930 . S
H3918 C3934 0.931 . S
C3919 H3907 0.929 . S
C3919 C3913 1.390 . S
C3919 C3916 1.386 . S
C3920 C3915 1.490 . S
C3920 C3922 1.395 . S
C3920 C3923 1.403 . S
H3921 C3927 0.930 . S
C3922 H3908 0.930 . S
C3922 C3920 1.395 . S
C3922 C3925 1.403 . S
C3923 C3920 1.403 . S
C3923 C3924 1.524 . S
C3923 C3927 1.400 . S
C3924 H3909 0.960 . S
C3924 H3910 0.960 . S
C3924 H3911 0.960 . S
C3924 C3923 1.524 . S
C3925 C3922 1.403 . S
C3925 C3926 1.392 . S
C3925 C3929 1.495 . S
C3926 C3925 1.392 . S
C3926 C3927 1.385 . S
C3926 C3928 1.478 . S
C3927 H3921 0.930 . S
C3927 C3923 1.400 . S
C3927 C3926 1.385 . S
C3928 C3926 1.478 . S
C3928 C3930 1.381 . S
C3928 C3934 1.383 . S
C3929 C3925 1.495 . S
C3929 H3935 0.959 . S
C3929 H3936 0.961 . S
C3929 H3937 0.960 . S
C3930 C3928 1.381 . S
C3930 C3931 1.394 . S
C3930 H3938 0.930 . S
C3931 C3930 1.394 . S
C3931 C3932 1.383 . S
C3931 H3939 0.929 . S
C3932 C3931 1.383 . S
C3932 C3933 1.377 . S
C3933 H3917 0.930 . S
C3933 C3932 1.377 . S
C3933 C3934 1.379 . S
C3934 H3918 0.931 . S
C3934 C3928 1.383 . S
C3934 C3933 1.379 . S
H3935 C3929 0.959 . S
H3936 C3929 0.961 . S
H3937 C3929 0.960 . S
H3938 C3930 0.930 . S
H3939 C3931 0.929 . S
H3940 C3948 0.929 . S
H3941 C3950 0.930 . S
H3942 C3952 0.930 . S
H3943 C3955 0.929 . S
H3944 C3958 0.930 . S
H3945 C3960 0.960 . S
H3946 C3960 0.960 . S
H3947 C3960 0.960 . S
C3948 H3940 0.929 . S
C3948 C3949 1.377 . S
C3948 C3950 1.384 . S
C3949 C3948 1.377 . S
C3949 C3955 1.390 . S
C3950 H3941 0.930 . S
C3950 C3948 1.384 . S
C3950 C3951 1.372 . S
C3951 C3950 1.372 . S
C3951 C3952 1.400 . S
C3951 C3956 1.490 . S
C3952 H3942 0.930 . S
C3952 C3951 1.400 . S
C3952 C3955 1.386 . S
H3953 C3969 0.930 . S
H3954 C3970 0.931 . S
C3955 H3943 0.929 . S
C3955 C3949 1.390 . S
C3955 C3952 1.386 . S
C3956 C3951 1.490 . S
C3956 C3958 1.395 . S
C3956 C3959 1.403 . S
H3957 C3963 0.930 . S
C3958 H3944 0.930 . S
C3958 C3956 1.395 . S
C3958 C3961 1.403 . S
C3959 C3956 1.403 . S
C3959 C3960 1.524 . S
C3959 C3963 1.400 . S
C3960 H3945 0.960 . S
C3960 H3946 0.960 . S
C3960 H3947 0.960 . S
C3960 C3959 1.524 . S
C3961 C3958 1.403 . S
C3961 C3962 1.392 . S
C3961 C3965 1.495 . S
C3962 C3961 1.392 . S
C3962 C3963 1.385 . S
C3962 C3964 1.478 . S
C3963 H3957 0.930 . S
C3963 C3959 1.400 . S
C3963 C3962 1.385 . S
C3964 C3962 1.478 . S
C3964 C3966 1.381 . S
C3964 C3970 1.383 . S
C3965 C3961 1.495 . S
C3965 H3971 0.959 . S
C3965 H3972 0.961 . S
C3965 H3973 0.960 . S
C3966 C3964 1.381 . S
C3966 C3967 1.394 . S
C3966 H3974 0.930 . S
C3967 C3966 1.394 . S
C3967 C3968 1.383 . S
C3967 H3975 0.929 . S
C3968 C3967 1.383 . S
C3968 C3969 1.377 . S
C3969 H3953 0.930 . S
C3969 C3968 1.377 . S
C3969 C3970 1.379 . S
C3970 H3954 0.931 . S
C3970 C3964 1.383 . S
C3970 C3969 1.379 . S
H3971 C3965 0.959 . S
H3972 C3965 0.961 . S
H3973 C3965 0.960 . S
H3974 C3966 0.930 . S
H3975 C3967 0.929 . S
H3976 C3984 0.929 . S
H3977 C3986 0.930 . S
H3978 C3988 0.930 . S
H3979 C3991 0.929 . S
H3980 C3994 0.930 . S
H3981 C3996 0.960 . S
H3982 C3996 0.960 . S
H3983 C3996 0.960 . S
C3984 H3976 0.929 . S
C3984 C3985 1.377 . S
C3984 C3986 1.384 . S
C3985 C3984 1.377 . S
C3985 C3991 1.390 . S
C3986 H3977 0.930 . S
C3986 C3984 1.384 . S
C3986 C3987 1.372 . S
C3987 C3986 1.372 . S
C3987 C3988 1.400 . S
C3987 C3992 1.490 . S
C3988 H3978 0.930 . S
C3988 C3987 1.400 . S
C3988 C3991 1.386 . S
H3989 C4005 0.930 . S
H3990 C4006 0.931 . S
C3991 H3979 0.929 . S
C3991 C3985 1.390 . S
C3991 C3988 1.386 . S
C3992 C3987 1.490 . S
C3992 C3994 1.395 . S
C3992 C3995 1.403 . S
H3993 C3999 0.930 . S
C3994 H3980 0.930 . S
C3994 C3992 1.395 . S
C3994 C3997 1.403 . S
C3995 C3992 1.403 . S
C3995 C3996 1.524 . S
C3995 C3999 1.400 . S
C3996 H3981 0.960 . S
C3996 H3982 0.960 . S
C3996 H3983 0.960 . S
C3996 C3995 1.524 . S
C3997 C3994 1.403 . S
C3997 C3998 1.392 . S
C3997 C4001 1.495 . S
C3998 C3997 1.392 . S
C3998 C3999 1.385 . S
C3998 C4000 1.478 . S
C3999 H3993 0.930 . S
C3999 C3995 1.400 . S
C3999 C3998 1.385 . S
C4000 C3998 1.478 . S
C4000 C4002 1.381 . S
C4000 C4006 1.383 . S
C4001 C3997 1.495 . S
C4001 H4007 0.959 . S
C4001 H4008 0.961 . S
C4001 H4009 0.960 . S
C4002 C4000 1.381 . S
C4002 C4003 1.394 . S
C4002 H4010 0.930 . S
C4003 C4002 1.394 . S
C4003 C4004 1.383 . S
C4003 H4011 0.929 . S
C4004 C4003 1.383 . S
C4004 C4005 1.377 . S
C4005 H3989 0.930 . S
C4005 C4004 1.377 . S
C4005 C4006 1.379 . S
C4006 H3990 0.931 . S
C4006 C4000 1.383 . S
C4006 C4005 1.379 . S
H4007 C4001 0.959 . S
H4008 C4001 0.961 . S
H4009 C4001 0.960 . S
H4010 C4002 0.930 . S
H4011 C4003 0.929 . S
H4012 C4020 0.929 . S
H4013 C4022 0.930 . S
H4014 C4024 0.930 . S
H4015 C4027 0.929 . S
H4016 C4030 0.930 . S
H4017 C4032 0.960 . S
H4018 C4032 0.960 . S
H4019 C4032 0.960 . S
C4020 H4012 0.929 . S
C4020 C4021 1.377 . S
C4020 C4022 1.384 . S
C4021 C4020 1.377 . S
C4021 C4027 1.390 . S
C4022 H4013 0.930 . S
C4022 C4020 1.384 . S
C4022 C4023 1.372 . S
C4023 C4022 1.372 . S
C4023 C4024 1.400 . S
C4023 C4028 1.490 . S
C4024 H4014 0.930 . S
C4024 C4023 1.400 . S
C4024 C4027 1.386 . S
H4025 C4041 0.930 . S
H4026 C4042 0.931 . S
C4027 H4015 0.929 . S
C4027 C4021 1.390 . S
C4027 C4024 1.386 . S
C4028 C4023 1.490 . S
C4028 C4030 1.395 . S
C4028 C4031 1.403 . S
H4029 C4035 0.930 . S
C4030 H4016 0.930 . S
C4030 C4028 1.395 . S
C4030 C4033 1.403 . S
C4031 C4028 1.403 . S
C4031 C4032 1.524 . S
C4031 C4035 1.400 . S
C4032 H4017 0.960 . S
C4032 H4018 0.960 . S
C4032 H4019 0.960 . S
C4032 C4031 1.524 . S
C4033 C4030 1.403 . S
C4033 C4034 1.392 . S
C4033 C4037 1.495 . S
C4034 C4033 1.392 . S
C4034 C4035 1.385 . S
C4034 C4036 1.478 . S
C4035 H4029 0.930 . S
C4035 C4031 1.400 . S
C4035 C4034 1.385 . S
C4036 C4034 1.478 . S
C4036 C4038 1.381 . S
C4036 C4042 1.383 . S
C4037 C4033 1.495 . S
C4037 H4043 0.959 . S
C4037 H4044 0.961 . S
C4037 H4045 0.960 . S
C4038 C4036 1.381 . S
C4038 C4039 1.394 . S
C4038 H4046 0.930 . S
C4039 C4038 1.394 . S
C4039 C4040 1.383 . S
C4039 H4047 0.929 . S
C4040 C4039 1.383 . S
C4040 C4041 1.377 . S
C4041 H4025 0.930 . S
C4041 C4040 1.377 . S
C4041 C4042 1.379 . S
C4042 H4026 0.931 . S
C4042 C4036 1.383 . S
C4042 C4041 1.379 . S
H4043 C4037 0.959 . S
H4044 C4037 0.961 . S
H4045 C4037 0.960 . S
H4046 C4038 0.930 . S
H4047 C4039 0.929 . S
H4048 C4056 0.929 1_545 S
H4049 C4058 0.930 . S
H4050 C4060 0.930 . S
H4051 C4063 0.929 . S
H4052 C4066 0.930 . S
H4053 C4068 0.960 . S
H4054 C4068 0.960 . S
H4055 C4068 0.960 . S
C4056 H4048 0.929 1_565 S
C4056 C4057 1.377 . S
C4056 C4058 1.384 . S
C4057 C4056 1.377 . S
C4057 C4063 1.390 . S
C4058 H4049 0.930 . S
C4058 C4056 1.384 . S
C4058 C4059 1.372 . S
C4059 C4058 1.372 . S
C4059 C4060 1.400 . S
C4059 C4064 1.490 . S
C4060 H4050 0.930 . S
C4060 C4059 1.400 . S
C4060 C4063 1.386 . S
H4061 C4077 0.930 . S
H4062 C4078 0.931 . S
C4063 H4051 0.929 . S
C4063 C4057 1.390 . S
C4063 C4060 1.386 . S
C4064 C4059 1.490 . S
C4064 C4066 1.395 . S
C4064 C4067 1.403 . S
H4065 C4071 0.930 . S
C4066 H4052 0.930 . S
C4066 C4064 1.395 . S
C4066 C4069 1.403 . S
C4067 C4064 1.403 . S
C4067 C4068 1.524 . S
C4067 C4071 1.400 . S
C4068 H4053 0.960 . S
C4068 H4054 0.960 . S
C4068 H4055 0.960 . S
C4068 C4067 1.524 . S
C4069 C4066 1.403 . S
C4069 C4070 1.392 . S
C4069 C4073 1.495 . S
C4070 C4069 1.392 . S
C4070 C4071 1.385 . S
C4070 C4072 1.478 . S
C4071 H4065 0.930 . S
C4071 C4067 1.400 . S
C4071 C4070 1.385 . S
C4072 C4070 1.478 . S
C4072 C4074 1.381 . S
C4072 C4078 1.383 . S
C4073 C4069 1.495 . S
C4073 H4079 0.959 . S
C4073 H4080 0.961 . S
C4073 H4081 0.960 . S
C4074 C4072 1.381 . S
C4074 C4075 1.394 . S
C4074 H4082 0.930 . S
C4075 C4074 1.394 . S
C4075 C4076 1.383 . S
C4075 H4083 0.929 . S
C4076 C4075 1.383 . S
C4076 C4077 1.377 . S
C4077 H4061 0.930 . S
C4077 C4076 1.377 . S
C4077 C4078 1.379 . S
C4078 H4062 0.931 . S
C4078 C4072 1.383 . S
C4078 C4077 1.379 . S
H4079 C4073 0.959 . S
H4080 C4073 0.961 . S
H4081 C4073 0.960 . S
H4082 C4074 0.930 . S
H4083 C4075 0.929 . S
H4084 C4092 0.929 . S
H4085 C4094 0.930 . S
H4086 C4096 0.930 . S
H4087 C4099 0.929 . S
H4088 C4102 0.930 . S
H4089 C4104 0.960 . S
H4090 C4104 0.960 . S
H4091 C4104 0.960 . S
C4092 H4084 0.929 . S
C4092 C4093 1.377 . S
C4092 C4094 1.384 . S
C4093 C4092 1.377 . S
C4093 C4099 1.390 . S
C4094 H4085 0.930 . S
C4094 C4092 1.384 . S
C4094 C4095 1.372 . S
C4095 C4094 1.372 . S
C4095 C4096 1.400 . S
C4095 C4100 1.490 . S
C4096 H4086 0.930 . S
C4096 C4095 1.400 . S
C4096 C4099 1.386 . S
H4097 C4113 0.930 . S
H4098 C4114 0.931 . S
C4099 H4087 0.929 . S
C4099 C4093 1.390 . S
C4099 C4096 1.386 . S
C4100 C4095 1.490 . S
C4100 C4102 1.395 . S
C4100 C4103 1.403 . S
H4101 C4107 0.930 . S
C4102 H4088 0.930 . S
C4102 C4100 1.395 . S
C4102 C4105 1.403 . S
C4103 C4100 1.403 . S
C4103 C4104 1.524 . S
C4103 C4107 1.400 1_455 S
C4104 H4089 0.960 . S
C4104 H4090 0.960 . S
C4104 H4091 0.960 . S
C4104 C4103 1.524 . S
C4105 C4102 1.403 . S
C4105 C4106 1.392 1_455 S
C4105 C4109 1.495 . S
C4106 C4105 1.392 1_655 S
C4106 C4107 1.385 . S
C4106 C4108 1.478 . S
C4107 H4101 0.930 . S
C4107 C4103 1.400 1_655 S
C4107 C4106 1.385 . S
C4108 C4106 1.478 . S
C4108 C4110 1.381 . S
C4108 C4114 1.383 . S
C4109 C4105 1.495 . S
C4109 H4115 0.959 . S
C4109 H4116 0.961 1_455 S
C4109 H4117 0.960 . S
C4110 C4108 1.381 . S
C4110 C4111 1.394 . S
C4110 H4118 0.930 . S
C4111 C4110 1.394 . S
C4111 C4112 1.383 . S
C4111 H4119 0.929 . S
C4112 C4111 1.383 . S
C4112 C4113 1.377 . S
C4113 H4097 0.930 . S
C4113 C4112 1.377 . S
C4113 C4114 1.379 . S
C4114 H4098 0.931 . S
C4114 C4108 1.383 . S
C4114 C4113 1.379 . S
H4115 C4109 0.959 . S
H4116 C4109 0.961 1_655 S
H4117 C4109 0.960 . S
H4118 C4110 0.930 . S
H4119 C4111 0.929 . S
C692 C319 1.075 . S
C673 C10 1.155 . S
C709 C16 1.162 . S
C728 C339 1.134 . S
C764 C360 1.119 . S
C745 C30 1.153 . S
C800 C387 1.077 . S
C781 C42 1.163 . S
C836 C343 1.099 . S
C817 C57 1.161 . S
C853 C69 1.158 . S
C872 C363 1.128 . S
C908 C383 1.064 . S
C889 C83 1.163 . S
C925 C101 1.160 . S
C944 C316 1.073 . S
C961 C108 1.159 . S
C980 C321 1.064 . S
C1016 C338 1.097 . S
C997 C120 1.167 . S
C1052 C362 1.140 . S
C1033 C133 1.157 . S
C1088 C386 1.128 . S
C1069 C147 1.158 . S
C1124 C342 1.114 . S
C1105 C114 1.160 . S
C1160 C365 1.124 . S
C1141 C122 1.163 . S
C1177 C135 1.165 . S
C1196 C382 1.135 . S
C1232 C318 1.071 . S
C1213 C153 1.160 . S
C1249 C160 1.157 . S
C1268 C320 1.065 . S
C1285 C174 1.164 . S
C1304 C407 1.084 . S
C1340 C427 1.121 . S
C1321 C187 1.166 . S
C1376 C450 1.064 . S
C1357 C205 1.159 . S
C1393 C212 1.160 . S
C1412 C317 1.077 . S
C1429 C226 1.164 . S
C1448 C361 1.141 . S
C1484 C451 1.094 . S
C1465 C185 1.159 . S
C1520 C406 1.124 . S
C1501 C244 1.158 . S
C1556 C474 1.107 . S
C1537 C23 1.137 . S
C1592 C495 1.074 . S
C1573 C5 1.140 . S
C1609 C49 1.136 . S
C1628 C514 1.120 . S
C1645 C29 1.138 . S
C1664 C539 1.087 . S
C1681 C94 1.138 . S
C1700 C494 1.088 . S
C1717 C88 1.138 . S
C1736 C519 1.094 . S
C1772 C538 1.132 . S
C1753 C70 1.138 . S
C1789 C62 1.131 . S
C1808 C471 1.117 . S
C1825 C257 1.132 . S
C1844 C475 1.127 . S
C1880 C496 1.129 . S
C1861 C200 1.139 . S
C1916 C515 1.100 . S
C1897 C211 1.135 . S
C1952 C540 1.104 . S
C1933 C179 1.137 . S
C1988 C492 1.062 . S
C1969 C251 1.137 . S
C2024 C517 1.130 . S
C2005 C198 1.138 . S
C2060 C536 1.057 . S
C2041 C213 1.141 . S
C2077 C173 1.137 . S
C2096 C472 1.095 . S
C2132 C473 1.116 . S
C2113 C264 1.132 . S
C2149 C148 1.139 . S
C2168 C559 1.125 . S
C2204 C584 1.105 . S
C2185 C278 1.138 . S
C2221 C127 1.134 . S
C2240 C603 1.060 . S
C2276 C470 1.064 . S
C2257 C140 1.137 . S
C2312 C516 1.063 . S
C2293 C289 1.140 . S
C2348 C607 1.128 . S
C2329 C276 1.136 . S
C2365 C303 1.133 . S
C2384 C563 1.070 . S
C2401 C36 1.160 . S
C2420 C627 1.095 . S
C2437 C44 1.157 . S
C2456 C405 1.140 . S
C2492 C429 1.065 . S
C2473 C4 1.160 . S
C2509 C18 1.163 . S
C2528 C453 1.146 . S
C2545 C81 1.160 . S
C2564 C409 1.117 . S
C2581 C95 1.160 . S
C2600 C426 1.097 . S
C2636 C449 1.081 . S
C2617 C55 1.160 . S
C2672 C624 1.076 . S
C2653 C75 1.160 . S
C2708 C629 1.101 . S
C2689 C277 1.160 . S
C2744 C404 1.068 . S
C2725 C263 1.164 . S
C2780 C431 1.122 . S
C2761 C302 1.163 . S
C2797 C290 1.160 . S
C2816 C452 1.087 . S
C2852 C408 1.126 . S
C2833 C283 1.158 . S
C2869 C265 1.163 . S
C2888 C428 1.066 . S
C2924 C448 1.139 . S
C2905 C304 1.160 . S
C2941 C296 1.157 . S
C2960 C626 1.064 . S
C2996 C628 1.092 . S
C2977 C199 1.154 . S
C3013 C224 1.157 . S
C3032 C341 1.128 . S
C3068 C364 1.067 . S
C3049 C252 1.166 . S
C3085 C166 1.158 . S
C3104 C384 1.133 . S
C3140 C625 1.133 . S
C3121 C238 1.152 . S
C3176 C430 1.075 . S
C3157 C172 1.163 . S
C3212 C385 1.144 . S
C3193 C250 1.158 . S
C3248 C340 1.077 . S
C3229 C218 1.160 . S
C3265 C43 1.135 . S
C3284 C651 1.125 . S
C3301 C31 1.140 . S
C3320 C561 1.101 . S
C3337 C17 1.132 . S
C3356 C580 1.120 . S
C3392 C605 1.106 . S
C3373 C3 1.138 . S
C3428 C560 1.060 . S
C3409 C68 1.142 . S
C3445 C56 1.137 . S
C3464 C585 1.059 . S
C3500 C604 1.061 . S
C3481 C96 1.137 . S
C3517 C82 1.132 . S
C3536 C646 1.120 . S
C3572 C649 1.112 . S
C3553 C192 1.137 . S
C3589 C161 1.140 . S
C3608 C562 1.058 . S
C3625 C237 1.140 . S
C3644 C581 1.060 . S
C3680 C606 1.131 . S
C3661 C225 1.133 . S
C3716 C558 1.117 . S
C3697 C186 1.132 . S
C3733 C159 1.136 . S
C3752 C583 1.129 . S
C3788 C602 1.119 . S
C3769 C239 1.138 . S
C3824 C647 1.131 . S
C3805 C231 1.134 . S
C3860 C650 1.058 . S
C3841 C121 1.134 . S
C3896 C493 1.097 . S
C3877 C291 1.136 . S
C3913 C109 1.140 . S
C3932 C518 1.060 . S
C3949 C270 1.131 . S
C3968 C537 1.101 . S
C4004 C648 1.119 . S
C3985 C309 1.132 . S
C4040 C582 1.059 . S
C4021 C146 1.140 . S
C4076 C541 1.062 . S
C4057 C107 1.140 . S
C4112 C497 1.128 . S
C4093 C134 1.135 . S
