# Generated by pormake.
# Topology anh, (6,3)-cn, num edge types: 1
# Building blocks:
#     Node 0, Type 0, BuildingBlock: BETDEL_clean_sbu_0, # of connection points: 6
#     Node 1, Type 0, BuildingBlock: BETDEL_clean_sbu_0, # of connection points: 6
#     Node 2, Type 0, BuildingBlock: BETDEL_clean_sbu_0, # of connection points: 6
#     Node 3, Type 1, BuildingBlock: WUSLED_clean_sbu_0, # of connection points: 3
#     Node 4, Type 1, BuildingBlock: WUSLED_clean_sbu_0, # of connection points: 3
#     Node 5, Type 1, BuildingBlock: WUSLED_clean_sbu_0, # of connection points: 3
#     Node 6, Type 1, BuildingBlock: WUSLED_clean_sbu_0, # of connection points: 3
#     Node 7, Type 1, BuildingBlock: WUSLED_clean_sbu_0, # of connection points: 3
#     Node 8, Type 1, BuildingBlock: WUSLED_clean_sbu_0, # of connection points: 3
#     Edge 9, Type (0, 1), BuildingBlock: XUDNAN_clean_linker_2, # of connection points: 2
#     Edge 10, Type (0, 1), BuildingBlock: XUDNAN_clean_linker_2, # of connection points: 2
#     Edge 11, Type (0, 1), BuildingBlock: XUDNAN_clean_linker_2, # of connection points: 2
#     Edge 12, Type (0, 1), BuildingBlock: XUDNAN_clean_linker_2, # of connection points: 2
#     Edge 13, Type (0, 1), BuildingBlock: XUDNAN_clean_linker_2, # of connection points: 2
#     Edge 14, Type (0, 1), BuildingBlock: XUDNAN_clean_linker_2, # of connection points: 2
#     Edge 15, Type (0, 1), BuildingBlock: XUDNAN_clean_linker_2, # of connection points: 2
#     Edge 16, Type (0, 1), BuildingBlock: XUDNAN_clean_linker_2, # of connection points: 2
#     Edge 17, Type (0, 1), BuildingBlock: XUDNAN_clean_linker_2, # of connection points: 2
#     Edge 18, Type (0, 1), BuildingBlock: XUDNAN_clean_linker_2, # of connection points: 2
#     Edge 19, Type (0, 1), BuildingBlock: XUDNAN_clean_linker_2, # of connection points: 2
#     Edge 20, Type (0, 1), BuildingBlock: XUDNAN_clean_linker_2, # of connection points: 2
#     Edge 21, Type (0, 1), BuildingBlock: XUDNAN_clean_linker_2, # of connection points: 2
#     Edge 22, Type (0, 1), BuildingBlock: XUDNAN_clean_linker_2, # of connection points: 2
#     Edge 23, Type (0, 1), BuildingBlock: XUDNAN_clean_linker_2, # of connection points: 2
#     Edge 24, Type (0, 1), BuildingBlock: XUDNAN_clean_linker_2, # of connection points: 2
#     Edge 25, Type (0, 1), BuildingBlock: XUDNAN_clean_linker_2, # of connection points: 2
#     Edge 26, Type (0, 1), BuildingBlock: XUDNAN_clean_linker_2, # of connection points: 2
# Relax obj value: 0.132
# Max RMSD: 0.161
# Mean RMSD: 0.127
data_MOF--net-anh--node1-BETDEL_clean_sbu_0--node2-WUSLED_clean_sbu_0--edge1-XUDNAN_clean_linker_2
_symmetry_space_group_name_H-M    P1
_symmetry_Int_Tables_number       1
_symmetry_cell_setting            triclinic
loop_
_symmetry_equiv_pos_as_xyz
'x, y, z'
_cell_length_a     38.185388
_cell_length_b     38.237563
_cell_length_c     67.299833
_cell_angle_alpha  89.284229
_cell_angle_beta   90.18384
_cell_angle_gamma 119.85402
loop_
_atom_site_label
_atom_site_type_symbol
_atom_site_fract_x
_atom_site_fract_y
_atom_site_fract_z
_atom_type_partial_charge
Dy0 Dy 0.07611 0.50195 0.17869 0.0
C1 C 0.96717 0.56572 0.18581 0.0
C2 C 0.13374 0.48174 0.17391 0.0
Dy3 Dy 0.02274 0.54329 0.17754 0.0
O4 O 0.13459 0.50701 0.18676 0.0
O5 O 0.10086 0.46687 0.16327 0.0
O6 O 0.07396 0.49163 0.2122 0.0
O7 O 0.04612 0.51993 0.19907 0.0
C8 C 0.05365 0.50983 0.21548 0.0
C9 C 0.03753 0.5207 0.14173 0.0
O10 O 0.08338 0.5986 0.18289 0.0
O11 O 0.12118 0.56807 0.17459 0.0
O12 O 0.98882 0.5753 0.16963 0.0
O13 O 0.97965 0.54775 0.19804 0.0
O14 O 1.00447 0.52022 0.14666 0.0
O15 O 0.0617 0.53514 0.15615 0.0
O16 O 1.01485 0.44719 0.17383 0.0
O17 O 0.97718 0.47766 0.18227 0.0
C18 C 0.11849 0.60037 0.17925 0.0
C19 C 0.97998 0.4453 0.17817 0.0
Dy20 Dy 0.48759 0.02121 0.51045 0.0
C21 C 0.66312 0.13416 0.51643 0.0
C22 C 0.41068 0.96265 0.50491 0.0
Dy23 Dy 0.58479 0.08091 0.50907 0.0
O24 O 0.43582 0.96088 0.51725 0.0
O25 O 0.4276 0.99682 0.49503 0.0
O26 O 0.48133 0.01977 0.54395 0.0
O27 O 0.53706 0.05182 0.53039 0.0
C28 C 0.51977 0.0425 0.54695 0.0
C29 C 0.55232 0.06275 0.47214 0.0
O30 O 0.5786 0.02161 0.51822 0.0
O31 O 0.51355 0.97988 0.50623 0.0
O32 O 0.65045 0.10145 0.50618 0.0
O33 O 0.63274 0.13664 0.52339 0.0
O34 O 0.59007 0.08789 0.47552 0.0
O35 O 0.53523 0.0501 0.48866 0.0
O36 O 0.49099 0.08211 0.50979 0.0
O37 O 0.56103 0.12305 0.51462 0.0
C38 C 0.54843 0.98538 0.51345 0.0
C39 C 0.52391 0.1177 0.5132 0.0
Dy40 Dy 0.59761 0.61744 0.844 0.0
C41 C 0.54325 0.45017 0.85526 0.0
C42 C 0.62618 0.69805 0.8407 0.0
Dy43 Dy 0.56105 0.52567 0.8436 0.0
O44 O 0.6332 0.68017 0.85542 0.0
O45 O 0.60607 0.67202 0.82697 0.0
O46 O 0.56915 0.61089 0.87365 0.0
O47 O 0.58981 0.57187 0.86624 0.0
C48 C 0.57207 0.58014 0.8796 0.0
C49 C 0.56864 0.55195 0.80551 0.0
O50 O 0.50577 0.52983 0.85018 0.0
O51 O 0.53139 0.59638 0.8398 0.0
O52 O 0.52668 0.45854 0.84044 0.0
O53 O 0.56813 0.48305 0.86427 0.0
O54 O 0.55456 0.51452 0.81071 0.0
O55 O 0.57832 0.57304 0.82099 0.0
O56 O 0.6557 0.61431 0.84139 0.0
O57 O 0.62599 0.5443 0.84121 0.0
C58 C 0.50079 0.56085 0.84542 0.0
C59 C 0.65822 0.58072 0.84084 0.0
C60 C 0.64537 0.1223 0.20948 0.0
C61 C 0.67042 0.14906 0.22411 0.0
C62 C 0.71819 0.19376 0.19861 0.0
C63 C 0.70653 0.18437 0.21874 0.0
C64 C 0.69308 0.16625 0.18414 0.0
C65 C 0.65726 0.13117 0.18951 0.0
U66 U 0.54011 0.02336 0.22832 0.0
O67 O 0.48744 1.00308 0.20848 0.0
O68 O 0.51782 0.96745 0.21116 0.0
C69 C 0.48769 0.97019 0.20333 0.0
C70 C 0.60649 0.08539 0.21437 0.0
C71 C 0.44801 0.93251 0.20167 0.0
C72 C 0.3934 0.88735 0.17993 0.0
C73 C 0.42917 0.92361 0.18307 0.0
C74 C 0.39319 0.86797 0.21427 0.0
C75 C 0.3752 0.85846 0.19529 0.0
C76 C 0.42944 0.90465 0.21743 0.0
C77 C 0.52929 0.02121 0.28749 0.0
C78 C 0.50805 0.99915 0.32158 0.0
C79 C 0.55827 0.06868 0.31462 0.0
C80 C 0.55595 0.06024 0.29422 0.0
C81 C 0.53384 0.03827 0.32852 0.0
C82 C 0.50591 0.99081 0.30135 0.0
C83 C 0.52178 1.0109 0.26629 0.0
O84 O 0.60472 0.05137 0.21977 0.0
O85 O 0.57317 0.08671 0.21742 0.0
O86 O 0.51208 0.03273 0.25473 0.0
O87 O 0.54301 0.99723 0.25732 0.0
H88 H 0.66188 0.14288 0.23963 0.0
H89 H 0.72476 0.20478 0.23032 0.0
H90 H 0.70112 0.17172 0.16854 0.0
H91 H 0.63859 0.11097 0.17794 0.0
H92 H 0.3802 0.88173 0.16523 0.0
H93 H 0.44268 0.94456 0.17071 0.0
H94 H 0.38011 0.84653 0.22646 0.0
H95 H 0.44332 0.91084 0.23198 0.0
H96 H 0.4883 0.97515 0.33168 0.0
H97 H 0.57885 0.09905 0.31948 0.0
H98 H 0.57424 0.08418 0.28374 0.0
H99 H 0.48483 0.96059 0.29642 0.0
C100 C 0.52648 0.64438 0.54074 0.0
C101 C 0.53422 0.66805 0.55768 0.0
C102 C 0.53407 0.722 0.53754 0.0
C103 C 0.53791 0.70647 0.55609 0.0
C104 C 0.52514 0.69749 0.52077 0.0
C105 C 0.5215 0.65924 0.52237 0.0
U106 U 0.52856 0.54493 0.55891 0.0
O107 O 0.55706 0.51903 0.54009 0.0
O108 O 0.49158 0.48614 0.54452 0.0
C109 C 0.52283 0.48608 0.53642 0.0
C110 C 0.52522 0.60503 0.54109 0.0
C111 C 0.52341 0.44756 0.53686 0.0
C112 C 0.53329 0.39789 0.51896 0.0
C113 C 0.53329 0.43457 0.5194 0.0
C114 C 0.51297 0.38615 0.5535 0.0
C115 C 0.5232 0.37298 0.53602 0.0
C116 C 0.51328 0.42303 0.55394 0.0
C117 C 0.54501 0.55314 0.61832 0.0
C118 C 0.56462 0.54311 0.65142 0.0
C119 C 0.53845 0.58868 0.64669 0.0
C120 C 0.53418 0.58034 0.62618 0.0
C121 C 0.55324 0.56966 0.65965 0.0
C122 C 0.56047 0.53498 0.63112 0.0
C123 C 0.53896 0.54049 0.5973 0.0
O124 O 0.5591 0.60484 0.5443 0.0
O125 O 0.4933 0.57329 0.54858 0.0
O126 O 0.56921 0.55837 0.58468 0.0
O127 O 0.5032 0.52691 0.58916 0.0
H128 H 0.53805 0.65719 0.572 0.0
H129 H 0.54424 0.72426 0.56939 0.0
H130 H 0.52244 0.70842 0.50624 0.0
H131 H 0.51567 0.6415 0.50907 0.0
H132 H 0.5419 0.38951 0.50529 0.0
H133 H 0.54109 0.45295 0.50599 0.0
H134 H 0.50415 0.36776 0.5669 0.0
H135 H 0.5053 0.43221 0.56757 0.0
H136 H 0.57694 0.5285 0.66067 0.0
H137 H 0.52923 0.60918 0.65245 0.0
H138 H 0.52201 0.59461 0.61658 0.0
H139 H 0.56894 0.51384 0.62541 0.0
C140 C 0.98114 0.57153 0.87819 0.0
C141 C 0.95898 0.5805 0.89183 0.0
C142 C 0.91064 0.57356 0.86599 0.0
C143 C 0.92407 0.58145 0.88582 0.0
C144 C 0.93376 0.56571 0.85231 0.0
C145 C 0.96834 0.56447 0.85836 0.0
U146 U 0.07963 0.56291 0.89621 0.0
O147 O 0.10136 0.53567 0.87421 0.0
O148 O 0.13677 0.60048 0.87987 0.0
C149 C 0.1348 0.56965 0.87044 0.0
C150 C 1.01676 0.5684 0.88468 0.0
C151 C 0.17241 0.56724 0.86854 0.0
C152 C 0.21393 0.55046 0.84769 0.0
C153 C 0.17922 0.55338 0.85057 0.0
C154 C 0.23687 0.57609 0.88068 0.0
C155 C 0.24313 0.56134 0.86271 0.0
C156 C 0.2017 0.57885 0.88362 0.0
C157 C 0.07459 0.54303 0.95449 0.0
C158 C 0.0793 0.52012 0.98782 0.0
C159 C 0.04877 0.56191 0.983 0.0
C160 C 0.05518 0.56277 0.96241 0.0
C161 C 0.06185 0.54151 0.99603 0.0
C162 C 0.08559 0.52093 0.96732 0.0
C163 C 0.08914 0.5491 0.93371 0.0
O164 O 0.05036 0.59976 0.89076 0.0
O165 O 1.01687 0.53406 0.88479 0.0
O166 O 0.06909 0.52007 0.92095 0.0
O167 O 0.10383 0.58543 0.9259 0.0
H168 H 0.96814 0.58584 0.90725 0.0
H169 H 0.90696 0.58716 0.89683 0.0
H170 H 0.92496 0.56022 0.83685 0.0
H171 H 0.98504 0.55782 0.8475 0.0
H172 H 0.21788 0.53949 0.83358 0.0
H173 H 0.15742 0.5446 0.83864 0.0
H174 H 0.25859 0.58446 0.89261 0.0
H175 H 0.19729 0.58974 0.89764 0.0
H176 H 0.09018 0.50451 0.99732 0.0
H177 H 0.03462 0.57819 0.98879 0.0
H178 H 0.04641 0.58005 0.95282 0.0
H179 H 0.101 0.50584 0.96156 0.0
C180 C 0.94349 0.48654 0.48963 0.0
C181 C 0.91709 0.46876 0.47362 0.0
C182 C 0.87613 0.4095 0.49396 0.0
C183 C 0.8835 0.43047 0.4758 0.0
C184 C 0.90073 0.4287 0.5104 0.0
C185 C 0.93447 0.46706 0.50819 0.0
U186 U 0.02414 0.54768 0.45269 0.0
O187 O 0.06665 0.61202 0.44864 0.0
O188 O 0.08956 0.57017 0.45448 0.0
C189 C 0.09793 0.60788 0.45321 0.0
C190 C 0.98365 0.52088 0.48591 0.0
C191 C 0.1239 0.63464 0.46882 0.0
C192 C 0.13405 0.68273 0.49441 0.0
C193 C 0.10808 0.64934 0.48323 0.0
C194 C 0.19159 0.68278 0.47921 0.0
C195 C 0.17583 0.70096 0.49154 0.0
C196 C 0.16561 0.64979 0.46775 0.0
C197 C 1.00118 0.52081 0.39817 0.0
C198 C 0.04013 0.56518 0.37082 0.0
C199 C 0.98944 0.49571 0.36458 0.0
C200 C 0.98052 0.48939 0.38481 0.0
C201 C 1.01917 0.53367 0.35736 0.0
C202 C 0.03132 0.55873 0.39114 0.0
C203 C 0.98973 0.51377 0.41921 0.0
O204 O 1.00954 0.51025 0.47966 0.0
O205 O 0.98485 0.5509 0.47559 0.0
O206 O 0.98509 0.54205 0.42759 0.0
O207 O 1.00948 0.50085 0.43032 0.0
H208 H 0.92394 0.48326 0.4591 0.0
H209 H 0.86469 0.41624 0.46298 0.0
H210 H 0.89573 0.41287 0.52449 0.0
H211 H 0.95495 0.48027 0.52057 0.0
H212 H 0.12154 0.69664 0.50381 0.0
H213 H 0.07582 0.63738 0.48459 0.0
H214 H 0.22386 0.69681 0.47675 0.0
H215 H 0.17818 0.63832 0.45691 0.0
H216 H 0.06339 0.59461 0.36564 0.0
H217 H 0.97244 0.47103 0.35452 0.0
H218 H 0.95708 0.46005 0.39001 0.0
H219 H 0.04767 0.58334 0.40133 0.0
C220 C 0.56915 0.99299 0.82433 0.0
C221 C 0.55203 0.95997 0.81149 0.0
C222 C 0.5723 0.92269 0.83384 0.0
C223 C 0.55333 0.92494 0.81628 0.0
C224 C 0.58916 0.95599 0.84662 0.0
C225 C 0.58739 0.99066 0.84194 0.0
U226 U 0.57032 0.06569 0.7853 0.0
O227 O 0.54441 0.10561 0.78494 0.0
O228 O 0.61024 0.13131 0.78265 0.0
C229 C 0.58014 0.13841 0.7846 0.0
C230 C 0.57109 0.03116 0.81896 0.0
C231 C 0.58641 0.16963 0.79888 0.0
C232 C 0.57091 0.19056 0.83002 0.0
C233 C 0.56866 0.16004 0.81789 0.0
C234 C 0.61089 0.24033 0.80477 0.0
C235 C 0.59083 0.23071 0.82318 0.0
C236 C 0.60867 0.20998 0.79272 0.0
C237 C 0.56215 0.038 0.73077 0.0
C238 C 0.56203 0.08177 0.7043 0.0
C239 C 0.56422 0.02116 0.69645 0.0
C240 C 0.5636 1.01234 0.71662 0.0
C241 C 0.56321 0.05581 0.69003 0.0
C242 C 0.56149 0.0729 0.72458 0.0
C243 C 0.5624 0.02827 0.75186 0.0
O244 O 0.6041 0.05683 0.80939 0.0
O245 O 0.53803 0.02845 0.8114 0.0
O246 O 0.53144 0.02385 0.76236 0.0
O247 O 0.59724 0.04957 0.76081 0.0
H248 H 0.53821 0.9615 0.79766 0.0
H249 H 0.5397 0.89982 0.80617 0.0
H250 H 0.60496 0.95594 0.86 0.0
H251 H 0.60126 0.01614 0.85185 0.0
H252 H 0.55498 0.18256 0.84411 0.0
H253 H 0.55166 0.12896 0.82297 0.0
H254 H 0.62651 0.27118 0.79927 0.0
H255 H 0.62284 0.21788 0.77818 0.0
H256 H 0.56093 0.1085 0.69978 0.0
H257 H 0.56587 1.00094 0.68585 0.0
H258 H 0.56448 0.98551 0.7212 0.0
H259 H 0.56055 0.09314 0.73542 0.0
C260 C 0.61933 0.50701 0.15578 0.0
C261 C 0.63986 0.50065 0.14023 0.0
C262 C 0.6909 0.50635 0.16337 0.0
C263 C 0.67543 0.50007 0.14405 0.0
C264 C 0.67028 0.51238 0.17894 0.0
C265 C 0.63445 0.51257 0.17516 0.0
U266 U 0.55452 0.51916 0.11777 0.0
O267 O 0.48945 0.49412 0.11458 0.0
O268 O 0.52887 0.55963 0.1181 0.0
C269 C 0.49175 0.529 0.118 0.0
C270 C 0.58421 0.51129 0.15146 0.0
C271 C 0.4648 0.52822 0.13369 0.0
C272 C 0.41641 0.49039 0.15971 0.0
C273 C 0.44994 0.49774 0.14841 0.0
C274 C 0.41641 0.54778 0.14396 0.0
C275 C 0.39815 0.51393 0.15664 0.0
C276 C 0.44958 0.55476 0.1324 0.0
C277 C 0.58341 0.51972 0.06321 0.0
C278 C 0.54638 0.52495 0.03496 0.0
C279 C 0.6125 0.53181 0.03026 0.0
C280 C 0.61475 0.52542 0.05051 0.0
C281 C 0.57872 0.53237 0.0224 0.0
C282 C 0.54878 0.51879 0.05538 0.0
C283 C 0.58874 0.51665 0.08459 0.0
O284 O 0.59333 0.54646 0.14364 0.0
O285 O 0.55449 0.48065 0.14231 0.0
O286 O 0.56033 0.48429 0.09361 0.0
O287 O 0.60062 0.54999 0.0946 0.0
H288 H 0.62875 0.49693 0.12512 0.0
H289 H 0.69134 0.49562 0.13191 0.0
H290 H 0.68209 0.51721 0.19393 0.0
H291 H 0.61902 0.51789 0.18722 0.0
H292 H 0.40241 0.46401 0.16937 0.0
H293 H 0.46189 0.47742 0.14999 0.0
H294 H 0.40234 0.566 0.14134 0.0
H295 H 0.46111 0.57876 0.12133 0.0
H296 H 0.52031 0.52578 0.02914 0.0
H297 H 0.63778 0.53769 0.02078 0.0
H298 H 0.64157 0.52612 0.05635 0.0
H299 H 0.52431 0.51445 0.06509 0.0
H300 H 0.20467 0.51837 0.19346 0.0
H301 H 0.13885 0.42949 0.14824 0.0
H302 H 0.19863 0.42155 0.14276 0.0
H303 H 0.29462 0.56854 0.16847 0.0
H304 H 0.32657 0.5788 0.18991 0.0
H305 H 0.27687 0.57224 0.19272 0.0
H306 H 0.25924 0.51535 0.21879 0.0
H307 H 0.30909 0.52182 0.21605 0.0
H308 H 0.26522 0.47295 0.21247 0.0
H309 H 0.26559 0.42725 0.14038 0.0
H310 H 0.33846 0.45081 0.13843 0.0
H311 H 0.36214 0.53967 0.18359 0.0
C312 C 0.20252 0.49653 0.18271 0.0
C313 C 0.16728 0.47408 0.17137 0.0
C314 C 0.16563 0.4465 0.15716 0.0
C315 C 0.19925 0.44172 0.15407 0.0
C316 C 0.23378 0.46471 0.16538 0.0
C317 C 0.23576 0.49174 0.17935 0.0
C318 C 0.27773 0.516 0.18795 0.0
C319 C 0.29494 0.56157 0.18453 0.0
C320 C 0.27781 0.50592 0.21013 0.0
C321 C 0.2997 0.49998 0.17576 0.0
C322 C 0.27336 0.46938 0.16339 0.0
C323 C 0.28643 0.45067 0.15017 0.0
C324 C 0.32767 0.46411 0.14921 0.0
C325 C 0.3552 0.49641 0.1611 0.0
C326 C 0.34124 0.51438 0.1747 0.0
H327 H 0.69478 0.20433 0.53689 0.0
H328 H 0.72032 0.14375 0.48974 0.0
H329 H 0.77899 0.20836 0.47937 0.0
H330 H 0.71561 0.29008 0.51098 0.0
H331 H 0.74016 0.32533 0.53078 0.0
H332 H 0.70328 0.2738 0.53653 0.0
H333 H 0.75518 0.26607 0.55833 0.0
H334 H 0.79202 0.31798 0.55307 0.0
H335 H 0.80358 0.27865 0.54795 0.0
H336 H 0.82683 0.27947 0.47083 0.0
H337 H 0.87087 0.35319 0.46824 0.0
H338 H 0.817 0.36803 0.52187 0.0
C339 C 0.71375 0.20452 0.5249 0.0
C340 C 0.70345 0.16928 0.51417 0.0
C341 C 0.72823 0.17046 0.49831 0.0
C342 C 0.76134 0.20702 0.4922 0.0
C343 C 0.76954 0.24166 0.50244 0.0
C344 C 0.74731 0.24067 0.51882 0.0
C345 C 0.76189 0.28256 0.52674 0.0
C346 C 0.72822 0.29356 0.52621 0.0
C347 C 0.77921 0.28655 0.54777 0.0
C348 C 0.79477 0.30728 0.51179 0.0
C349 C 0.79842 0.28302 0.49786 0.0
C350 C 0.82493 0.29883 0.48185 0.0
C351 C 0.84938 0.34064 0.48038 0.0
C352 C 0.84715 0.36599 0.49487 0.0
C353 C 0.81938 0.34912 0.51072 0.0
H354 H 0.61924 0.74494 0.8116 0.0
H355 H 0.62766 0.73373 0.87545 0.0
H356 H 0.61042 0.78708 0.88051 0.0
H357 H 0.66465 0.85523 0.81127 0.0
H358 H 0.63271 0.85479 0.79138 0.0
H359 H 0.64626 0.81596 0.793 0.0
H360 H 0.57024 0.76176 0.79281 0.0
H361 H 0.55649 0.80049 0.79171 0.0
H362 H 0.53712 0.76317 0.81141 0.0
H363 H 0.58587 0.83626 0.87882 0.0
H364 H 0.56943 0.88928 0.87056 0.0
H365 H 0.5842 0.87429 0.80776 0.0
C366 C 0.61844 0.75453 0.82659 0.0
C367 C 0.62505 0.73557 0.84312 0.0
C368 C 0.62331 0.74838 0.86256 0.0
C369 C 0.61302 0.77826 0.86561 0.0
C370 C 0.60541 0.79551 0.84904 0.0
C371 C 0.60916 0.78506 0.82991 0.0
C372 C 0.60076 0.8095 0.81473 0.0
C373 C 0.63834 0.83542 0.80184 0.0
C374 C 0.56396 0.78208 0.80191 0.0
C375 C 0.59166 0.8352 0.82837 0.0
C376 C 0.59364 0.82593 0.84808 0.0
C377 C 0.58517 0.84456 0.86345 0.0
C378 C 0.5761 0.87483 0.85859 0.0
C379 C 0.57647 0.88684 0.83853 0.0
C380 C 0.5835 0.86596 0.82324 0.0
H381 H 0.92752 0.60929 0.18272 0.0
H382 H 0.91014 0.4882 0.18478 0.0
H383 H 0.83735 0.45975 0.17914 0.0
H384 H 0.83328 0.5826 0.20905 0.0
H385 H 0.82379 0.61696 0.19455 0.0
H386 H 0.87492 0.6281 0.19884 0.0
H387 H 0.88787 0.63423 0.16081 0.0
H388 H 0.83673 0.62281 0.15639 0.0
H389 H 0.85535 0.5927 0.1451 0.0
H390 H 0.76809 0.44433 0.17129 0.0
H391 H 0.70339 0.44269 0.16473 0.0
H392 H 0.76359 0.57267 0.17005 0.0
C393 C 0.90809 0.57688 0.18225 0.0
C394 C 0.9239 0.5508 0.18442 0.0
C395 C 0.89811 0.5085 0.1835 0.0
C396 C 0.85687 0.49205 0.18018 0.0
C397 C 0.84194 0.51837 0.17808 0.0
C398 C 0.86643 0.55978 0.17938 0.0
C399 C 0.8421 0.58091 0.17696 0.0
C400 C 0.84361 0.60347 0.19599 0.0
C401 C 0.85637 0.60933 0.15873 0.0
C402 C 0.80047 0.54496 0.17378 0.0
C403 C 0.80121 0.50921 0.17434 0.0
C404 C 0.76685 0.472 0.17108 0.0
C405 C 0.73047 0.47128 0.16736 0.0
C406 C 0.72908 0.50746 0.16719 0.0
C407 C 0.7643 0.54469 0.17041 0.0
H408 H 0.37655 0.89212 0.52528 0.0
H409 H 0.35233 0.95839 0.47965 0.0
H410 H 0.28367 0.89975 0.47541 0.0
H411 H 0.33342 0.80146 0.50204 0.0
H412 H 0.31252 0.77056 0.52405 0.0
H413 H 0.35644 0.81969 0.52593 0.0
H414 H 0.3197 0.83976 0.55186 0.0
H415 H 0.27551 0.79047 0.55004 0.0
H416 H 0.2715 0.83497 0.5458 0.0
H417 H 0.22152 0.83345 0.47417 0.0
H418 H 0.17161 0.76089 0.47312 0.0
H419 H 0.23827 0.7365 0.51814 0.0
C420 C 0.3565 0.89459 0.51466 0.0
C421 C 0.36923 0.9296 0.50282 0.0
C422 C 0.34267 0.93175 0.4889 0.0
C423 C 0.30373 0.89881 0.48653 0.0
C424 C 0.2922 0.86449 0.49834 0.0
C425 C 0.31784 0.8621 0.51208 0.0
C426 C 0.29986 0.82042 0.52138 0.0
C427 C 0.32718 0.80196 0.51813 0.0
C428 C 0.29112 0.82148 0.54358 0.0
C429 C 0.26113 0.7989 0.50969 0.0
C430 C 0.25666 0.82535 0.49709 0.0
C431 C 0.22425 0.81256 0.48417 0.0
C432 C 0.19609 0.77149 0.48373 0.0
C433 C 0.20115 0.74382 0.4958 0.0
C434 C 0.23364 0.75753 0.50914 0.0
H435 H 0.52464 0.39551 0.8265 0.0
H436 H 0.57019 0.42368 0.88666 0.0
H437 H 0.58515 0.36747 0.88616 0.0
H438 H 0.48156 0.28697 0.82816 0.0
H439 H 0.49906 0.28591 0.80344 0.0
H440 H 0.48722 0.32441 0.80992 0.0
H441 H 0.55913 0.37953 0.7989 0.0
H442 H 0.57136 0.34126 0.79259 0.0
H443 H 0.60249 0.38003 0.8099 0.0
H444 H 0.59752 0.30884 0.8778 0.0
H445 H 0.60822 0.25629 0.862 0.0
H446 H 0.55942 0.2733 0.80686 0.0
C447 C 0.53638 0.38896 0.83984 0.0
C448 C 0.54517 0.4129 0.85683 0.0
C449 C 0.56237 0.40478 0.87368 0.0
C450 C 0.57115 0.37317 0.87347 0.0
C451 C 0.56312 0.35074 0.85616 0.0
C452 C 0.54631 0.35858 0.83965 0.0
C453 C 0.54431 0.33346 0.82217 0.0
C454 C 0.50042 0.30605 0.81554 0.0
C455 C 0.5709 0.36017 0.80488 0.0
C456 C 0.56178 0.30951 0.83143 0.0
C457 C 0.57242 0.31952 0.85105 0.0
C458 C 0.58929 0.30085 0.86243 0.0
C459 C 0.59526 0.27118 0.85342 0.0
C460 C 0.58502 0.26141 0.83324 0.0
C461 C 0.56802 0.28075 0.82226 0.0
H462 H 0.5015 0.90604 0.50057 0.0
H463 H 0.60661 0.98342 0.53613 0.0
H464 H 0.61424 0.9252 0.5452 0.0
H465 H 0.46053 0.81936 0.5323 0.0
H466 H 0.4453 0.78305 0.51266 0.0
H467 H 0.44823 0.83095 0.50811 0.0
H468 H 0.4969 0.8447 0.4786 0.0
H469 H 0.49405 0.79676 0.48306 0.0
H470 H 0.54243 0.84239 0.48255 0.0
H471 H 0.60919 0.85922 0.55225 0.0
H472 H 0.59398 0.78886 0.55534 0.0
H473 H 0.49329 0.75191 0.51474 0.0
C474 C 0.52628 0.91076 0.51014 0.0
C475 C 0.55347 0.94966 0.5176 0.0
C476 C 0.58548 0.95429 0.53007 0.0
C477 C 0.59007 0.92127 0.53539 0.0
C478 C 0.56276 0.88351 0.52799 0.0
C479 C 0.53175 0.87795 0.51543 0.0
C480 C 0.50694 0.8338 0.50958 0.0
C481 C 0.46263 0.81574 0.51606 0.0
C482 C 0.51028 0.82915 0.48711 0.0
C483 C 0.52811 0.81546 0.52141 0.0
C484 C 0.56031 0.84493 0.53181 0.0
C485 C 0.58412 0.83584 0.54414 0.0
C486 C 0.57496 0.7956 0.54595 0.0
C487 C 0.54221 0.7645 0.5355 0.0
C488 C 0.51865 0.77485 0.52291 0.0
H489 H 0.73215 0.63066 0.86 0.0
H490 H 0.67244 0.52986 0.81979 0.0
H491 H 0.7301 0.51843 0.82182 0.0
H492 H 0.83688 0.66505 0.8404 0.0
H493 H 0.8597 0.67918 0.8646 0.0
H494 H 0.81517 0.68234 0.85892 0.0
H495 H 0.77905 0.63683 0.88946 0.0
H496 H 0.8232 0.63302 0.89506 0.0
H497 H 0.77515 0.58795 0.8916 0.0
H498 H 0.79017 0.51312 0.82986 0.0
H499 H 0.85344 0.51791 0.84151 0.0
H500 H 0.87855 0.62278 0.87628 0.0
C501 C 0.73191 0.60709 0.85116 0.0
C502 C 0.69761 0.58134 0.83957 0.0
C503 C 0.69819 0.5501 0.82869 0.0
C504 C 0.73085 0.54321 0.82978 0.0
C505 C 0.76343 0.56796 0.84173 0.0
C506 C 0.76482 0.59972 0.85202 0.0
C507 C 0.80378 0.62088 0.86405 0.0
C508 C 0.83046 0.66446 0.85655 0.0
C509 C 0.79473 0.61957 0.88637 0.0
C510 C 0.82302 0.59518 0.85934 0.0
C511 C 0.79909 0.56505 0.8463 0.0
C512 C 0.80956 0.53701 0.83982 0.0
C513 C 0.84581 0.54013 0.84648 0.0
C514 C 0.87167 0.57108 0.8596 0.0
C515 C 0.85966 0.59876 0.86626 0.0
H516 H 0.1512 0.66229 0.20697 0.0
H517 H 0.17282 0.62637 0.1495 0.0
H518 H 0.23998 0.6874 0.14794 0.0
H519 H 0.20436 0.77142 0.19756 0.0
H520 H 0.22608 0.78409 0.22205 0.0
H521 H 0.17852 0.73859 0.21841 0.0
H522 H 0.20787 0.69694 0.23458 0.0
H523 H 0.25567 0.74229 0.23806 0.0
H524 H 0.25342 0.70079 0.22459 0.0
H525 H 0.30506 0.74981 0.15265 0.0
H526 H 0.36463 0.81305 0.16259 0.0
H527 H 0.30437 0.81157 0.21748 0.0
C528 C 0.16988 0.6679 0.19392 0.0
C529 C 0.15657 0.63985 0.17816 0.0
C530 C 0.18228 0.64754 0.16162 0.0
C531 C 0.22055 0.68209 0.16063 0.0
C532 C 0.23322 0.70874 0.17645 0.0
C533 C 0.20886 0.70232 0.19281 0.0
C534 C 0.23116 0.73548 0.208 0.0
C535 C 0.20868 0.75878 0.21172 0.0
C536 C 0.23738 0.71782 0.22747 0.0
C537 C 0.27131 0.76183 0.19737 0.0
C538 C 0.27163 0.74535 0.17927 0.0
C539 C 0.30502 0.76328 0.16669 0.0
C540 C 0.33876 0.79946 0.17247 0.0
C541 C 0.33928 0.81808 0.19067 0.0
C542 C 0.30511 0.79838 0.20346 0.0
H543 H 0.50462 0.16824 0.49113 0.0
H544 H 0.53619 0.14625 0.55007 0.0
H545 H 0.53933 0.20842 0.56198 0.0
H546 H 0.56993 0.27587 0.49161 0.0
H547 H 0.53582 0.28771 0.4785 0.0
H548 H 0.53392 0.24032 0.47438 0.0
H549 H 0.45807 0.20174 0.48373 0.0
H550 H 0.45961 0.24902 0.48766 0.0
H551 H 0.44203 0.21135 0.5072 0.0
H552 H 0.54362 0.27429 0.5673 0.0
H553 H 0.5439 0.33854 0.56663 0.0
H554 H 0.50624 0.31901 0.50478 0.0
C555 C 0.5112 0.1762 0.50662 0.0
C556 C 0.51951 0.15212 0.51985 0.0
C557 C 0.52926 0.16405 0.53983 0.0
C558 C 0.53129 0.1994 0.54671 0.0
C559 C 0.52361 0.2229 0.53339 0.0
C560 C 0.51343 0.21185 0.51381 0.0
C561 C 0.5076 0.24358 0.50272 0.0
C562 C 0.53867 0.26301 0.4858 0.0
C563 C 0.46424 0.22533 0.49487 0.0
C564 C 0.5157 0.27368 0.5192 0.0
C565 C 0.52528 0.26114 0.53666 0.0
C566 C 0.53539 0.28411 0.55381 0.0
C567 C 0.53507 0.32062 0.5533 0.0
C568 C 0.52419 0.33407 0.53583 0.0
C569 C 0.51472 0.31007 0.51847 0.0
H570 H 0.47653 0.61441 0.8579 0.0
H571 H 0.43125 0.49379 0.83522 0.0
H572 H 0.36157 0.48182 0.83706 0.0
H573 H 0.39513 0.58567 0.89332 0.0
H574 H 0.39299 0.63148 0.89035 0.0
H575 H 0.43987 0.63198 0.8863 0.0
H576 H 0.44517 0.66182 0.851 0.0
H577 H 0.39842 0.66163 0.85495 0.0
H578 H 0.40393 0.63612 0.83387 0.0
H579 H 0.29723 0.48245 0.84101 0.0
H580 H 0.2408 0.49428 0.84806 0.0
H581 H 0.32514 0.61328 0.87017 0.0
C582 C 0.45187 0.58567 0.85316 0.0
C583 C 0.4593 0.55504 0.84625 0.0
C584 C 0.42627 0.51758 0.84056 0.0
C585 C 0.38658 0.51055 0.84152 0.0
C586 C 0.38013 0.54102 0.84856 0.0
C587 C 0.4117 0.57775 0.85447 0.0
C588 C 0.39579 0.60445 0.86234 0.0
C589 C 0.40659 0.61395 0.88439 0.0
C590 C 0.41178 0.64331 0.84978 0.0
C591 C 0.35045 0.57714 0.85965 0.0
C592 C 0.34238 0.54082 0.85158 0.0
C593 C 0.30315 0.51073 0.84737 0.0
C594 C 0.27124 0.51782 0.85139 0.0
C595 C 0.27828 0.5547 0.85964 0.0
C596 C 0.31862 0.58464 0.86402 0.0
H597 H 0.94872 0.37911 0.20385 0.0
H598 H 0.92279 0.42594 0.15028 0.0
H599 H 0.85412 0.36651 0.1494 0.0
H600 H 0.88961 0.27101 0.19129 0.0
H601 H 0.87164 0.25534 0.21636 0.0
H602 H 0.91991 0.29985 0.21198 0.0
H603 H 0.89705 0.34168 0.23264 0.0
H604 H 0.84857 0.29742 0.23691 0.0
H605 H 0.85149 0.34198 0.22587 0.0
H606 H 0.78737 0.30414 0.15506 0.0
H607 H 0.72693 0.24213 0.16639 0.0
H608 H 0.79389 0.234 0.21682 0.0
C609 C 0.92882 0.37613 0.19168 0.0
C610 C 0.94133 0.40658 0.17678 0.0
C611 C 0.91402 0.40253 0.16155 0.0
C612 C 0.8749 0.36896 0.161 0.0
C613 C 0.86314 0.33967 0.17596 0.0
C614 C 0.88921 0.34273 0.19103 0.0
C615 C 0.86792 0.30774 0.20576 0.0
C616 C 0.8885 0.28196 0.20638 0.0
C617 C 0.86616 0.32313 0.22653 0.0
C618 C 0.82599 0.28466 0.19663 0.0
C619 C 0.82409 0.30372 0.17942 0.0
C620 C 0.78867 0.28874 0.1684 0.0
C621 C 0.75441 0.25318 0.17495 0.0
C622 C 0.75532 0.23242 0.19241 0.0
C623 C 0.79182 0.24889 0.20345 0.0
H624 H 0.03147 0.47075 0.11101 0.0
H625 H 0.07204 0.59515 0.12566 0.0
H626 H 0.08344 0.61403 0.09005 0.0
H627 H 0.10572 0.49683 0.06887 0.0
H628 H 0.07042 0.45442 0.05442 0.0
H629 H 0.06856 0.45122 0.08118 0.0
H630 H 0.99327 0.43197 0.08023 0.0
H631 H 0.99505 0.43576 0.05352 0.0
H632 H 0.97905 0.46502 0.06773 0.0
H633 H 0.0828 0.61811 0.05307 0.0
H634 H 0.07973 0.60943 0.01678 0.0
H635 H 0.04272 0.48292 0.02531 0.0
C636 C 0.04386 0.50208 0.10665 0.0
C637 C 0.05137 0.53172 0.12098 0.0
C638 C 0.06677 0.57228 0.11485 0.0
C639 C 0.07308 0.5832 0.09468 0.0
C640 C 0.06447 0.55327 0.0808 0.0
C641 C 0.05122 0.51371 0.08648 0.0
C642 C 0.04426 0.48767 0.06837 0.0
C643 C 0.07401 0.47158 0.0682 0.0
C644 C 1.00028 0.45307 0.06742 0.0
C645 C 0.0537 0.51835 0.05171 0.0
C646 C 0.06538 0.55597 0.05928 0.0
C647 C 0.0742 0.5889 0.04695 0.0
C648 C 0.07187 0.58353 0.02631 0.0
C649 C 0.06087 0.5455 0.01806 0.0
C650 C 0.05156 0.51248 0.03107 0.0
H651 H 0.53137 1.00137 0.44609 0.0
H652 H 0.53808 0.11682 0.45336 0.0
H653 H 0.52982 0.12135 0.41714 0.0
H654 H 0.58885 0.02498 0.40456 0.0
H655 H 0.56061 0.97779 0.39182 0.0
H656 H 0.55867 0.97892 0.41849 0.0
H657 H 0.48075 0.94525 0.41767 0.0
H658 H 0.48225 0.94296 0.39096 0.0
H659 H 0.45748 0.96717 0.40249 0.0
H660 H 0.53259 0.11885 0.3801 0.0
H661 H 0.53707 0.10539 0.3447 0.0
H662 H 0.52892 0.99138 0.36113 0.0
C663 C 0.52879 0.02641 0.44009 0.0
C664 C 0.5339 0.05816 0.45246 0.0
C665 C 0.53278 0.09167 0.4441 0.0
C666 C 0.52849 0.09462 0.42355 0.0
C667 C 0.52526 0.06369 0.41156 0.0
C668 C 0.52435 0.0297 0.41952 0.0
C669 C 0.52365 1.00233 0.40318 0.0
C670 C 0.56013 0.99565 0.40461 0.0
C671 C 0.48365 0.96204 0.4036 0.0
C672 C 0.52638 0.02722 0.3849 0.0
C673 C 0.52693 0.06232 0.39007 0.0
C674 C 0.53146 0.09111 0.37584 0.0
C675 C 0.53454 0.08343 0.35576 0.0
C676 C 0.53325 0.04728 0.35001 0.0
C677 C 0.52933 0.01901 0.36492 0.0
H678 H 0.55001 0.50526 0.77304 0.0
H679 H 0.59108 0.62839 0.79046 0.0
H680 H 0.59085 0.64736 0.75493 0.0
H681 H 0.60814 0.52866 0.72805 0.0
H682 H 0.569 0.48618 0.71504 0.0
H683 H 0.57328 0.48371 0.74161 0.0
H684 H 0.49876 0.46632 0.74558 0.0
H685 H 0.49434 0.469 0.71904 0.0
H686 H 0.48285 0.49962 0.73491 0.0
H687 H 0.58492 0.65128 0.71634 0.0
H688 H 0.5764 0.64057 0.67997 0.0
H689 H 0.53743 0.51395 0.68948 0.0
C690 C 0.55911 0.53634 0.76946 0.0
C691 C 0.57059 0.56539 0.78452 0.0
C692 C 0.58228 0.60568 0.77914 0.0
C693 C 0.58212 0.61662 0.759 0.0
C694 C 0.57023 0.58689 0.7445 0.0
C695 C 0.55911 0.5476 0.74962 0.0
C696 C 0.54756 0.52092 0.73159 0.0
C697 C 0.5762 0.50388 0.72892 0.0
C698 C 0.50325 0.48698 0.73286 0.0
C699 C 0.55361 0.55107 0.71534 0.0
C700 C 0.56675 0.58904 0.72291 0.0
C701 C 0.5746 0.62158 0.71037 0.0
C702 C 0.56939 0.61514 0.68969 0.0
C703 C 0.55649 0.57645 0.68166 0.0
C704 C 0.54806 0.54412 0.6949 0.0
H705 H 0.49847 0.99327 0.57847 0.0
H706 H 0.58032 0.11636 0.55975 0.0
H707 H 0.60078 0.13493 0.59497 0.0
H708 H 0.46348 1.01213 0.62203 0.0
H709 H 0.46235 0.9711 0.63606 0.0
H710 H 0.45659 0.96773 0.6095 0.0
H711 H 0.5171 0.95513 0.60628 0.0
H712 H 0.52252 0.95751 0.6329 0.0
H713 H 0.56487 0.9901 0.61725 0.0
H714 H 0.60709 0.13951 0.63327 0.0
H715 H 0.60536 0.12835 0.66975 0.0
H716 H 0.51967 1.0014 0.66159 0.0
C717 C 0.52124 0.024 0.58178 0.0
C718 C 0.5379 0.05352 0.56668 0.0
C719 C 0.56761 0.09341 0.57131 0.0
C720 C 0.5791 0.10414 0.59121 0.0
C721 C 0.56111 0.07427 0.60596 0.0
C722 C 0.5335 0.03482 0.60129 0.0
C723 C 0.51857 1.00795 0.61949 0.0
C724 C 0.47253 0.98862 0.6219 0.0
C725 C 0.53155 0.97578 0.61894 0.0
C726 C 0.54087 0.03853 0.63536 0.0
C727 C 0.56538 0.07666 0.62743 0.0
C728 C 0.58833 0.10966 0.63956 0.0
C729 C 0.5869 0.10312 0.66024 0.0
C730 C 0.56276 0.0639 0.66845 0.0
C731 C 0.53907 0.03157 0.65576 0.0
H732 H 0.53064 0.51599 0.90555 0.0
H733 H 0.63032 0.63881 0.90098 0.0
H734 H 0.64111 0.63958 0.93712 0.0
H735 H 0.49115 0.5276 0.95148 0.0
H736 H 0.47811 0.4787 0.96159 0.0
H737 H 0.47881 0.48615 0.93507 0.0
H738 H 0.5293 0.46011 0.93086 0.0
H739 H 0.52816 0.45188 0.95733 0.0
H740 H 0.57565 0.483 0.94483 0.0
H741 H 0.64034 0.62911 0.97294 0.0
H742 H 0.63097 0.60574 1.00783 0.0
H743 H 0.5313 0.48961 0.99067 0.0
C744 C 0.55501 0.54265 0.91226 0.0
C745 C 0.57983 0.57737 0.90071 0.0
C746 C 0.61119 0.61202 0.90976 0.0
C747 C 0.61745 0.61277 0.93021 0.0
C748 C 0.59205 0.57858 0.94136 0.0
C749 C 0.5617 0.54395 0.93284 0.0
C750 C 0.53873 0.51174 0.94859 0.0
C751 C 0.49405 0.50039 0.94921 0.0
C752 C 0.54324 0.47448 0.9452 0.0
C753 C 0.56083 0.53398 0.96719 0.0
C754 C 0.59143 0.57249 0.96251 0.0
C755 C 0.6166 0.59902 0.97686 0.0
C756 C 0.61103 0.5856 0.99657 0.0
C757 C 0.58049 0.54614 1.00174 0.0
C758 C 0.55461 0.52008 0.98697 0.0
H759 H 0.04451 0.4681 0.24944 0.0
H760 H 0.04457 0.57396 0.22569 0.0
H761 H 0.03835 0.59396 0.25991 0.0
H762 H 0.97022 0.44714 0.28824 0.0
H763 H 0.99419 0.42911 0.3054 0.0
H764 H 0.99789 0.42383 0.27905 0.0
H765 H 0.07603 0.46176 0.2819 0.0
H766 H 0.07261 0.46791 0.30817 0.0
H767 H 0.10171 0.51147 0.29245 0.0
H768 H 0.03579 0.6034 0.29731 0.0
H769 H 0.02834 0.59714 0.33397 0.0
H770 H 0.02864 0.48395 0.33211 0.0
C771 C 0.04273 0.49524 0.25147 0.0
C772 C 0.04482 0.51951 0.23515 0.0
C773 C 0.04241 0.5548 0.23816 0.0
C774 C 0.03928 0.5665 0.25749 0.0
C775 C 0.03805 0.54216 0.27341 0.0
C776 C 0.03893 0.50687 0.2705 0.0
C777 C 0.0361 0.4853 0.28986 0.0
C778 C 0.99729 0.4439 0.29068 0.0
C779 C 0.07387 0.48141 0.29329 0.0
C780 C 0.0342 0.51424 0.30424 0.0
C781 C 0.0356 0.54702 0.29458 0.0
C782 C 0.03439 0.57771 0.305 0.0
C783 C 0.03048 0.57407 0.32578 0.0
C784 C 0.02758 0.53989 0.33578 0.0
C785 C 0.03023 0.51013 0.32482 0.0
loop_
_geom_bond_atom_site_label_1
_geom_bond_atom_site_label_2
_geom_bond_distance
_geom_bond_site_symmetry_2
_ccdc_geom_bond_type
Dy0 O4 2.398 . S
Dy0 O5 2.491 . S
Dy0 O6 2.403 . S
Dy0 O7 2.664 . S
Dy0 O11 2.326 . S
Dy0 O15 2.310 . S
Dy0 O16 2.351 1_455 S
C1 O12 1.185 . S
C1 O13 1.355 . S
C2 O4 1.185 . S
C2 O5 1.355 . S
Dy3 O7 2.310 1_655 S
Dy3 O10 2.351 1_655 S
Dy3 O12 2.398 . S
Dy3 O13 2.491 . S
Dy3 O14 2.403 1_655 S
Dy3 O15 2.664 1_655 S
Dy3 O17 2.326 . S
O4 Dy0 2.398 . S
O4 C2 1.185 . S
O5 Dy0 2.491 . S
O5 C2 1.355 . S
O6 Dy0 2.403 . S
O6 C8 1.254 . S
O7 Dy0 2.664 . S
O7 Dy3 2.310 1_455 S
O7 C8 1.268 . S
C8 O6 1.254 . S
C8 O7 1.268 . S
C9 O14 1.254 . S
C9 O15 1.268 . S
O10 Dy3 2.351 1_455 S
O10 C18 1.249 . S
O11 Dy0 2.326 . S
O11 C18 1.267 . S
O12 C1 1.185 . S
O12 Dy3 2.398 . S
O13 C1 1.355 . S
O13 Dy3 2.491 . S
O14 Dy3 2.403 1_455 S
O14 C9 1.254 . S
O15 Dy0 2.310 . S
O15 Dy3 2.664 1_455 S
O15 C9 1.268 . S
O16 Dy0 2.351 1_655 S
O16 C19 1.249 . S
O17 Dy3 2.326 . S
O17 C19 1.267 . S
C18 O10 1.249 . S
C18 O11 1.267 . S
C19 O16 1.249 . S
C19 O17 1.267 . S
Dy20 O24 2.398 1_545 S
Dy20 O25 2.491 1_545 S
Dy20 O26 2.403 . S
Dy20 O27 2.664 . S
Dy20 O31 2.326 1_545 S
Dy20 O35 2.310 . S
Dy20 O36 2.351 . S
C21 O32 1.185 . S
C21 O33 1.355 . S
C22 O24 1.185 . S
C22 O25 1.355 . S
Dy23 O27 2.310 . S
Dy23 O30 2.351 1_545 S
Dy23 O32 2.398 . S
Dy23 O33 2.491 . S
Dy23 O34 2.403 . S
Dy23 O35 2.664 . S
Dy23 O37 2.326 . S
O24 Dy20 2.398 1_565 S
O24 C22 1.185 . S
O25 Dy20 2.491 1_565 S
O25 C22 1.355 . S
O26 Dy20 2.403 . S
O26 C28 1.254 . S
O27 Dy20 2.664 . S
O27 Dy23 2.310 . S
O27 C28 1.268 . S
C28 O26 1.254 . S
C28 O27 1.268 . S
C29 O34 1.254 . S
C29 O35 1.268 . S
O30 Dy23 2.351 1_565 S
O30 C38 1.249 . S
O31 Dy20 2.326 1_565 S
O31 C38 1.267 . S
O32 C21 1.185 . S
O32 Dy23 2.398 . S
O33 C21 1.355 . S
O33 Dy23 2.491 . S
O34 Dy23 2.403 . S
O34 C29 1.254 . S
O35 Dy20 2.310 . S
O35 Dy23 2.664 . S
O35 C29 1.268 . S
O36 Dy20 2.351 . S
O36 C39 1.249 . S
O37 Dy23 2.326 . S
O37 C39 1.267 . S
C38 O30 1.249 . S
C38 O31 1.267 . S
C39 O36 1.249 . S
C39 O37 1.267 . S
Dy40 O44 2.398 . S
Dy40 O45 2.491 . S
Dy40 O46 2.403 . S
Dy40 O47 2.664 . S
Dy40 O51 2.326 . S
Dy40 O55 2.310 . S
Dy40 O56 2.351 . S
C41 O52 1.185 . S
C41 O53 1.355 . S
C42 O44 1.185 . S
C42 O45 1.355 . S
Dy43 O47 2.310 . S
Dy43 O50 2.351 . S
Dy43 O52 2.398 . S
Dy43 O53 2.491 . S
Dy43 O54 2.403 . S
Dy43 O55 2.664 . S
Dy43 O57 2.326 . S
O44 Dy40 2.398 . S
O44 C42 1.185 . S
O45 Dy40 2.491 . S
O45 C42 1.355 . S
O46 Dy40 2.403 . S
O46 C48 1.254 . S
O47 Dy40 2.664 . S
O47 Dy43 2.310 . S
O47 C48 1.268 . S
C48 O46 1.254 . S
C48 O47 1.268 . S
C49 O54 1.254 . S
C49 O55 1.268 . S
O50 Dy43 2.351 . S
O50 C58 1.249 . S
O51 Dy40 2.326 . S
O51 C58 1.267 . S
O52 C41 1.185 . S
O52 Dy43 2.398 . S
O53 C41 1.355 . S
O53 Dy43 2.491 . S
O54 Dy43 2.403 . S
O54 C49 1.254 . S
O55 Dy40 2.310 . S
O55 Dy43 2.664 . S
O55 C49 1.268 . S
O56 Dy40 2.351 . S
O56 C59 1.249 . S
O57 Dy43 2.326 . S
O57 C59 1.267 . S
C58 O50 1.249 . S
C58 O51 1.267 . S
C59 O56 1.249 . S
C59 O57 1.267 . S
C60 C61 1.264 . S
C60 C65 1.479 . S
C60 C70 1.465 . S
C61 C60 1.264 . S
C61 C63 1.339 . S
C61 H88 0.931 . S
C62 C63 1.395 . S
C62 C64 1.320 . S
C63 C61 1.339 . S
C63 C62 1.395 . S
C63 H89 0.929 . S
C64 C62 1.320 . S
C64 C65 1.405 . S
C64 H90 0.930 . S
C65 C60 1.479 . S
C65 C64 1.405 . S
C65 H91 0.931 . S
U66 O67 2.454 1_545 S
U66 O68 2.458 1_545 S
U66 C69 2.984 1_545 S
U66 C70 2.847 . S
U66 C83 2.882 . S
U66 O84 2.441 . S
U66 O85 2.420 . S
U66 O86 2.455 1_545 S
U66 O87 2.449 . S
O67 U66 2.454 1_565 S
O67 C69 1.353 . S
O68 U66 2.458 1_565 S
O68 C69 1.286 . S
C69 U66 2.984 1_565 S
C69 O67 1.353 . S
C69 O68 1.286 . S
C69 C71 1.363 . S
C70 C60 1.465 . S
C70 U66 2.847 . S
C70 O84 1.249 . S
C70 O85 1.202 . S
C71 C69 1.363 . S
C71 C73 1.408 . S
C71 C76 1.342 . S
C72 C73 1.310 . S
C72 C75 1.461 . S
C72 H92 0.932 . S
C73 C71 1.408 . S
C73 C72 1.310 . S
C73 H93 0.930 . S
C74 C75 1.474 . S
C74 C76 1.285 . S
C74 H94 0.929 . S
C75 C72 1.461 . S
C75 C74 1.474 . S
C76 C71 1.342 . S
C76 C74 1.285 . S
C76 H95 0.930 . S
C77 C80 1.424 . S
C77 C82 1.245 1_545 S
C77 C83 1.428 . S
C78 C81 1.259 . S
C78 C82 1.477 1_545 S
C78 H96 0.933 1_545 S
C79 C80 1.384 . S
C79 C81 1.479 . S
C79 H97 0.929 . S
C80 C77 1.424 . S
C80 C79 1.384 . S
C80 H98 0.928 . S
C81 C78 1.259 . S
C81 C79 1.479 . S
C82 C77 1.245 1_565 S
C82 C78 1.477 1_565 S
C82 H99 0.932 . S
C83 U66 2.882 . S
C83 C77 1.428 . S
C83 O86 1.301 1_545 S
C83 O87 1.282 . S
O84 U66 2.441 . S
O84 C70 1.249 . S
O85 U66 2.420 . S
O85 C70 1.202 . S
O86 U66 2.455 1_565 S
O86 C83 1.301 1_565 S
O87 U66 2.449 . S
O87 C83 1.282 . S
H88 C61 0.931 . S
H89 C63 0.929 . S
H90 C64 0.930 . S
H91 C65 0.931 . S
H92 C72 0.932 . S
H93 C73 0.930 . S
H94 C74 0.929 . S
H95 C76 0.930 . S
H96 C78 0.933 1_565 S
H97 C79 0.929 . S
H98 C80 0.928 . S
H99 C82 0.932 . S
C100 C101 1.264 . S
C100 C105 1.479 . S
C100 C110 1.465 . S
C101 C100 1.264 . S
C101 C103 1.339 . S
C101 H128 0.931 . S
C102 C103 1.395 . S
C102 C104 1.320 . S
C103 C101 1.339 . S
C103 C102 1.395 . S
C103 H129 0.929 . S
C104 C102 1.320 . S
C104 C105 1.405 . S
C104 H130 0.930 . S
C105 C100 1.479 . S
C105 C104 1.405 . S
C105 H131 0.931 . S
U106 O107 2.454 . S
U106 O108 2.458 . S
U106 C109 2.984 . S
U106 C110 2.847 . S
U106 C123 2.882 . S
U106 O124 2.441 . S
U106 O125 2.420 . S
U106 O126 2.455 . S
U106 O127 2.449 . S
O107 U106 2.454 . S
O107 C109 1.353 . S
O108 U106 2.458 . S
O108 C109 1.286 . S
C109 U106 2.984 . S
C109 O107 1.353 . S
C109 O108 1.286 . S
C109 C111 1.363 . S
C110 C100 1.465 . S
C110 U106 2.847 . S
C110 O124 1.249 . S
C110 O125 1.202 . S
C111 C109 1.363 . S
C111 C113 1.408 . S
C111 C116 1.342 . S
C112 C113 1.310 . S
C112 C115 1.461 . S
C112 H132 0.932 . S
C113 C111 1.408 . S
C113 C112 1.310 . S
C113 H133 0.930 . S
C114 C115 1.474 . S
C114 C116 1.285 . S
C114 H134 0.929 . S
C115 C112 1.461 . S
C115 C114 1.474 . S
C116 C111 1.342 . S
C116 C114 1.285 . S
C116 H135 0.930 . S
C117 C120 1.424 . S
C117 C122 1.245 . S
C117 C123 1.428 . S
C118 C121 1.260 . S
C118 C122 1.477 . S
C118 H136 0.932 . S
C119 C120 1.384 . S
C119 C121 1.479 . S
C119 H137 0.929 . S
C120 C117 1.424 . S
C120 C119 1.384 . S
C120 H138 0.928 . S
C121 C118 1.260 . S
C121 C119 1.479 . S
C122 C117 1.245 . S
C122 C118 1.477 . S
C122 H139 0.932 . S
C123 U106 2.882 . S
C123 C117 1.428 . S
C123 O126 1.301 . S
C123 O127 1.282 . S
O124 U106 2.441 . S
O124 C110 1.249 . S
O125 U106 2.420 . S
O125 C110 1.202 . S
O126 U106 2.455 . S
O126 C123 1.301 . S
O127 U106 2.449 . S
O127 C123 1.282 . S
H128 C101 0.931 . S
H129 C103 0.929 . S
H130 C104 0.930 . S
H131 C105 0.931 . S
H132 C112 0.932 . S
H133 C113 0.930 . S
H134 C114 0.929 . S
H135 C116 0.930 . S
H136 C118 0.932 . S
H137 C119 0.929 . S
H138 C120 0.928 . S
H139 C122 0.932 . S
C140 C141 1.264 . S
C140 C145 1.479 . S
C140 C150 1.465 . S
C141 C140 1.264 . S
C141 C143 1.339 . S
C141 H168 0.931 . S
C142 C143 1.395 . S
C142 C144 1.320 . S
C143 C141 1.339 . S
C143 C142 1.395 . S
C143 H169 0.929 . S
C144 C142 1.320 . S
C144 C145 1.405 . S
C144 H170 0.930 . S
C145 C140 1.479 . S
C145 C144 1.405 . S
C145 H171 0.931 . S
U146 O147 2.454 . S
U146 O148 2.458 . S
U146 C149 2.984 . S
U146 C150 2.847 1_455 S
U146 C163 2.882 . S
U146 O164 2.441 . S
U146 O165 2.420 1_455 S
U146 O166 2.455 . S
U146 O167 2.449 . S
O147 U146 2.454 . S
O147 C149 1.353 . S
O148 U146 2.458 . S
O148 C149 1.286 . S
C149 U146 2.984 . S
C149 O147 1.353 . S
C149 O148 1.286 . S
C149 C151 1.363 . S
C150 C140 1.465 . S
C150 U146 2.847 1_655 S
C150 O164 1.249 1_655 S
C150 O165 1.202 . S
C151 C149 1.363 . S
C151 C153 1.408 . S
C151 C156 1.342 . S
C152 C153 1.310 . S
C152 C155 1.461 . S
C152 H172 0.932 . S
C153 C151 1.408 . S
C153 C152 1.310 . S
C153 H173 0.930 . S
C154 C155 1.474 . S
C154 C156 1.285 . S
C154 H174 0.929 . S
C155 C152 1.461 . S
C155 C154 1.474 . S
C156 C151 1.342 . S
C156 C154 1.285 . S
C156 H175 0.930 . S
C157 C160 1.424 . S
C157 C162 1.245 . S
C157 C163 1.428 . S
C158 C161 1.260 . S
C158 C162 1.477 . S
C158 H176 0.932 . S
C159 C160 1.384 . S
C159 C161 1.479 . S
C159 H177 0.929 1_455 S
C160 C157 1.424 . S
C160 C159 1.384 . S
C160 H178 0.928 1_455 S
C161 C158 1.260 . S
C161 C159 1.479 . S
C162 C157 1.245 . S
C162 C158 1.477 . S
C162 H179 0.932 . S
C163 U146 2.882 . S
C163 C157 1.428 . S
C163 O166 1.301 . S
C163 O167 1.282 . S
O164 U146 2.441 . S
O164 C150 1.249 1_455 S
O165 U146 2.420 1_655 S
O165 C150 1.202 . S
O166 U146 2.455 . S
O166 C163 1.301 . S
O167 U146 2.449 . S
O167 C163 1.282 . S
H168 C141 0.931 . S
H169 C143 0.929 . S
H170 C144 0.930 . S
H171 C145 0.931 . S
H172 C152 0.932 . S
H173 C153 0.930 . S
H174 C154 0.929 . S
H175 C156 0.930 . S
H176 C158 0.932 . S
H177 C159 0.929 1_655 S
H178 C160 0.928 1_655 S
H179 C162 0.932 . S
C180 C181 1.264 . S
C180 C185 1.479 . S
C180 C190 1.465 . S
C181 C180 1.264 . S
C181 C183 1.339 . S
C181 H208 0.931 . S
C182 C183 1.395 . S
C182 C184 1.320 . S
C183 C181 1.339 . S
C183 C182 1.395 . S
C183 H209 0.929 . S
C184 C182 1.320 . S
C184 C185 1.405 . S
C184 H210 0.930 . S
C185 C180 1.479 . S
C185 C184 1.405 . S
C185 H211 0.931 . S
U186 O187 2.454 1_655 S
U186 O188 2.458 1_655 S
U186 C189 2.984 1_655 S
U186 C190 2.847 . S
U186 C203 2.882 . S
U186 O204 2.441 . S
U186 O205 2.420 . S
U186 O206 2.455 1_655 S
U186 O207 2.449 . S
O187 U186 2.454 1_455 S
O187 C189 1.353 . S
O188 U186 2.458 1_455 S
O188 C189 1.286 . S
C189 U186 2.984 1_455 S
C189 O187 1.353 . S
C189 O188 1.286 . S
C189 C191 1.363 . S
C190 C180 1.465 . S
C190 U186 2.847 . S
C190 O204 1.249 . S
C190 O205 1.202 . S
C191 C189 1.363 . S
C191 C193 1.408 . S
C191 C196 1.342 . S
C192 C193 1.310 . S
C192 C195 1.461 . S
C192 H212 0.932 . S
C193 C191 1.408 . S
C193 C192 1.310 . S
C193 H213 0.930 . S
C194 C195 1.474 . S
C194 C196 1.285 . S
C194 H214 0.929 . S
C195 C192 1.461 . S
C195 C194 1.474 . S
C196 C191 1.342 . S
C196 C194 1.285 . S
C196 H215 0.930 . S
C197 C200 1.424 1_455 S
C197 C202 1.245 . S
C197 C203 1.428 1_455 S
C198 C201 1.260 . S
C198 C202 1.477 . S
C198 H216 0.932 . S
C199 C200 1.384 . S
C199 C201 1.479 1_655 S
C199 H217 0.929 . S
C200 C197 1.424 1_655 S
C200 C199 1.384 . S
C200 H218 0.928 . S
C201 C198 1.260 . S
C201 C199 1.479 1_455 S
C202 C197 1.245 . S
C202 C198 1.477 . S
C202 H219 0.932 . S
C203 U186 2.882 . S
C203 C197 1.428 1_655 S
C203 O206 1.301 1_655 S
C203 O207 1.282 . S
O204 U186 2.441 . S
O204 C190 1.249 . S
O205 U186 2.420 . S
O205 C190 1.202 . S
O206 U186 2.455 1_455 S
O206 C203 1.301 1_455 S
O207 U186 2.449 . S
O207 C203 1.282 . S
H208 C181 0.931 . S
H209 C183 0.929 . S
H210 C184 0.930 . S
H211 C185 0.931 . S
H212 C192 0.932 . S
H213 C193 0.930 . S
H214 C194 0.929 . S
H215 C196 0.930 . S
H216 C198 0.932 . S
H217 C199 0.929 . S
H218 C200 0.928 . S
H219 C202 0.932 . S
C220 C221 1.264 . S
C220 C225 1.479 . S
C220 C230 1.465 . S
C221 C220 1.264 . S
C221 C223 1.339 . S
C221 H248 0.931 . S
C222 C223 1.395 . S
C222 C224 1.320 . S
C223 C221 1.339 . S
C223 C222 1.395 . S
C223 H249 0.929 . S
C224 C222 1.320 . S
C224 C225 1.405 . S
C224 H250 0.930 . S
C225 C220 1.479 . S
C225 C224 1.405 . S
C225 H251 0.931 . S
U226 O227 2.454 . S
U226 O228 2.458 . S
U226 C229 2.984 . S
U226 C230 2.847 1_545 S
U226 C243 2.882 . S
U226 O244 2.441 . S
U226 O245 2.420 1_545 S
U226 O246 2.455 . S
U226 O247 2.449 . S
O227 U226 2.454 . S
O227 C229 1.353 . S
O228 U226 2.458 . S
O228 C229 1.286 . S
C229 U226 2.984 . S
C229 O227 1.353 . S
C229 O228 1.286 . S
C229 C231 1.363 . S
C230 C220 1.465 . S
C230 U226 2.847 1_565 S
C230 O244 1.249 1_565 S
C230 O245 1.202 . S
C231 C229 1.363 . S
C231 C233 1.408 . S
C231 C236 1.342 . S
C232 C233 1.310 . S
C232 C235 1.461 . S
C232 H252 0.932 . S
C233 C231 1.408 . S
C233 C232 1.310 . S
C233 H253 0.930 . S
C234 C235 1.474 . S
C234 C236 1.285 . S
C234 H254 0.929 . S
C235 C232 1.461 . S
C235 C234 1.474 . S
C236 C231 1.342 . S
C236 C234 1.285 . S
C236 H255 0.930 . S
C237 C240 1.424 . S
C237 C242 1.245 . S
C237 C243 1.428 . S
C238 C241 1.260 . S
C238 C242 1.477 . S
C238 H256 0.932 . S
C239 C240 1.384 . S
C239 C241 1.479 . S
C239 H257 0.929 1_545 S
C240 C237 1.424 . S
C240 C239 1.384 . S
C240 H258 0.940 . S
C241 C238 1.260 . S
C241 C239 1.479 . S
C242 C237 1.245 . S
C242 C238 1.477 . S
C242 H259 0.932 . S
C243 U226 2.882 . S
C243 C237 1.428 . S
C243 O246 1.301 . S
C243 O247 1.282 . S
O244 U226 2.441 . S
O244 C230 1.249 1_545 S
O245 U226 2.420 1_565 S
O245 C230 1.202 . S
O246 U226 2.455 . S
O246 C243 1.301 . S
O247 U226 2.449 . S
O247 C243 1.282 . S
H248 C221 0.931 . S
H249 C223 0.929 . S
H250 C224 0.930 . S
H251 C225 0.931 . S
H252 C232 0.932 . S
H253 C233 0.930 . S
H254 C234 0.929 . S
H255 C236 0.930 . S
H256 C238 0.932 . S
H257 C239 0.929 1_565 S
H258 C240 0.940 . S
H259 C242 0.932 . S
C260 C261 1.264 . S
C260 C265 1.479 . S
C260 C270 1.465 . S
C261 C260 1.264 . S
C261 C263 1.339 . S
C261 H288 0.931 . S
C262 C263 1.395 . S
C262 C264 1.320 . S
C263 C261 1.339 . S
C263 C262 1.395 . S
C263 H289 0.929 . S
C264 C262 1.320 . S
C264 C265 1.405 . S
C264 H290 0.930 . S
C265 C260 1.479 . S
C265 C264 1.405 . S
C265 H291 0.931 . S
U266 O267 2.454 . S
U266 O268 2.458 . S
U266 C269 2.984 . S
U266 C270 2.847 . S
U266 C283 2.882 . S
U266 O284 2.441 . S
U266 O285 2.420 . S
U266 O286 2.455 . S
U266 O287 2.449 . S
O267 U266 2.454 . S
O267 C269 1.353 . S
O268 U266 2.458 . S
O268 C269 1.286 . S
C269 U266 2.984 . S
C269 O267 1.353 . S
C269 O268 1.286 . S
C269 C271 1.363 . S
C270 C260 1.465 . S
C270 U266 2.847 . S
C270 O284 1.249 . S
C270 O285 1.202 . S
C271 C269 1.363 . S
C271 C273 1.408 . S
C271 C276 1.342 . S
C272 C273 1.310 . S
C272 C275 1.461 . S
C272 H292 0.932 . S
C273 C271 1.408 . S
C273 C272 1.310 . S
C273 H293 0.930 . S
C274 C275 1.474 . S
C274 C276 1.285 . S
C274 H294 0.929 . S
C275 C272 1.461 . S
C275 C274 1.474 . S
C276 C271 1.342 . S
C276 C274 1.285 . S
C276 H295 0.930 . S
C277 C280 1.424 . S
C277 C282 1.245 . S
C277 C283 1.428 . S
C278 C281 1.260 . S
C278 C282 1.477 . S
C278 H296 0.932 . S
C279 C280 1.384 . S
C279 C281 1.479 . S
C279 H297 0.929 . S
C280 C277 1.424 . S
C280 C279 1.384 . S
C280 H298 0.928 . S
C281 C278 1.260 . S
C281 C279 1.479 . S
C282 C277 1.245 . S
C282 C278 1.477 . S
C282 H299 0.932 . S
C283 U266 2.882 . S
C283 C277 1.428 . S
C283 O286 1.301 . S
C283 O287 1.282 . S
O284 U266 2.441 . S
O284 C270 1.249 . S
O285 U266 2.420 . S
O285 C270 1.202 . S
O286 U266 2.455 . S
O286 C283 1.301 . S
O287 U266 2.449 . S
O287 C283 1.282 . S
H288 C261 0.931 . S
H289 C263 0.929 . S
H290 C264 0.930 . S
H291 C265 0.931 . S
H292 C272 0.932 . S
H293 C273 0.930 . S
H294 C274 0.929 . S
H295 C276 0.930 . S
H296 C278 0.932 . S
H297 C279 0.929 . S
H298 C280 0.928 . S
H299 C282 0.932 . S
H300 C312 0.930 . S
H301 C314 0.930 . S
H302 C315 0.930 . S
H303 C319 0.959 . S
H304 C319 0.959 . S
H305 C319 0.961 . S
H306 C320 0.960 . S
H307 C320 0.961 . S
H308 C320 0.959 . S
H309 C323 0.929 . S
H310 C324 0.931 . S
H311 C326 0.930 . S
C312 H300 0.930 . S
C312 C313 1.399 . S
C312 C317 1.399 . S
C313 C312 1.399 . S
C313 C314 1.376 . S
C314 H301 0.930 . S
C314 C313 1.376 . S
C314 C315 1.388 . S
C315 H302 0.930 . S
C315 C314 1.388 . S
C315 C316 1.390 . S
C316 C315 1.390 . S
C316 C317 1.394 . S
C316 C322 1.465 . S
C317 C312 1.399 . S
C317 C316 1.394 . S
C317 C318 1.516 . S
C318 C317 1.516 . S
C318 C319 1.502 . S
C318 C320 1.561 . S
C318 C321 1.526 . S
C319 H303 0.959 . S
C319 H304 0.959 . S
C319 H305 0.961 . S
C319 C318 1.502 . S
C320 H306 0.960 . S
C320 H307 0.961 . S
C320 H308 0.959 . S
C320 C318 1.561 . S
C321 C318 1.526 . S
C321 C322 1.396 . S
C321 C326 1.390 . S
C322 C316 1.465 . S
C322 C321 1.396 . S
C322 C323 1.399 . S
C323 H309 0.929 . S
C323 C322 1.399 . S
C323 C324 1.385 . S
C324 H310 0.931 . S
C324 C323 1.385 . S
C324 C325 1.389 . S
C325 C324 1.389 . S
C325 C326 1.387 . S
C326 H311 0.930 . S
C326 C321 1.390 . S
C326 C325 1.387 . S
H327 C339 0.930 . S
H328 C341 0.930 . S
H329 C342 0.930 . S
H330 C346 0.959 . S
H331 C346 0.959 . S
H332 C346 0.961 . S
H333 C347 0.960 . S
H334 C347 0.961 . S
H335 C347 0.959 . S
H336 C350 0.929 . S
H337 C351 0.931 . S
H338 C353 0.930 . S
C339 H327 0.930 . S
C339 C340 1.399 . S
C339 C344 1.399 . S
C340 C339 1.399 . S
C340 C341 1.376 . S
C341 H328 0.930 . S
C341 C340 1.376 . S
C341 C342 1.388 . S
C342 H329 0.930 . S
C342 C341 1.388 . S
C342 C343 1.390 . S
C343 C342 1.390 . S
C343 C344 1.394 . S
C343 C349 1.465 . S
C344 C339 1.399 . S
C344 C343 1.394 . S
C344 C345 1.516 . S
C345 C344 1.516 . S
C345 C346 1.502 . S
C345 C347 1.561 . S
C345 C348 1.526 . S
C346 H330 0.959 . S
C346 H331 0.959 . S
C346 H332 0.961 . S
C346 C345 1.502 . S
C347 H333 0.960 . S
C347 H334 0.961 . S
C347 H335 0.959 . S
C347 C345 1.561 . S
C348 C345 1.526 . S
C348 C349 1.396 . S
C348 C353 1.390 . S
C349 C343 1.465 . S
C349 C348 1.396 . S
C349 C350 1.399 . S
C350 H336 0.929 . S
C350 C349 1.399 . S
C350 C351 1.385 . S
C351 H337 0.931 . S
C351 C350 1.385 . S
C351 C352 1.389 . S
C352 C351 1.389 . S
C352 C353 1.387 . S
C353 H338 0.930 . S
C353 C348 1.390 . S
C353 C352 1.387 . S
H354 C366 0.930 . S
H355 C368 0.930 . S
H356 C369 0.930 . S
H357 C373 0.959 . S
H358 C373 0.959 . S
H359 C373 0.961 . S
H360 C374 0.960 . S
H361 C374 0.961 . S
H362 C374 0.959 . S
H363 C377 0.929 . S
H364 C378 0.931 . S
H365 C380 0.930 . S
C366 H354 0.930 . S
C366 C367 1.399 . S
C366 C371 1.399 . S
C367 C366 1.399 . S
C367 C368 1.376 . S
C368 H355 0.930 . S
C368 C367 1.376 . S
C368 C369 1.388 . S
C369 H356 0.930 . S
C369 C368 1.388 . S
C369 C370 1.390 . S
C370 C369 1.390 . S
C370 C371 1.394 . S
C370 C376 1.465 . S
C371 C366 1.399 . S
C371 C370 1.394 . S
C371 C372 1.516 . S
C372 C371 1.516 . S
C372 C373 1.502 . S
C372 C374 1.561 . S
C372 C375 1.526 . S
C373 H357 0.959 . S
C373 H358 0.959 . S
C373 H359 0.961 . S
C373 C372 1.502 . S
C374 H360 0.960 . S
C374 H361 0.961 . S
C374 H362 0.959 . S
C374 C372 1.561 . S
C375 C372 1.526 . S
C375 C376 1.396 . S
C375 C380 1.390 . S
C376 C370 1.465 . S
C376 C375 1.396 . S
C376 C377 1.399 . S
C377 H363 0.929 . S
C377 C376 1.399 . S
C377 C378 1.385 . S
C378 H364 0.931 . S
C378 C377 1.385 . S
C378 C379 1.389 . S
C379 C378 1.389 . S
C379 C380 1.387 . S
C380 H365 0.930 . S
C380 C375 1.390 . S
C380 C379 1.387 . S
H381 C393 0.930 . S
H382 C395 0.930 . S
H383 C396 0.930 . S
H384 C400 0.959 . S
H385 C400 0.959 . S
H386 C400 0.961 . S
H387 C401 0.960 . S
H388 C401 0.961 . S
H389 C401 0.959 . S
H390 C404 0.929 . S
H391 C405 0.931 . S
H392 C407 0.930 . S
C393 H381 0.930 . S
C393 C394 1.399 . S
C393 C398 1.399 . S
C394 C393 1.399 . S
C394 C395 1.376 . S
C395 H382 0.930 . S
C395 C394 1.376 . S
C395 C396 1.388 . S
C396 H383 0.930 . S
C396 C395 1.388 . S
C396 C397 1.390 . S
C397 C396 1.390 . S
C397 C398 1.394 . S
C397 C403 1.465 . S
C398 C393 1.399 . S
C398 C397 1.394 . S
C398 C399 1.516 . S
C399 C398 1.516 . S
C399 C400 1.502 . S
C399 C401 1.561 . S
C399 C402 1.526 . S
C400 H384 0.959 . S
C400 H385 0.959 . S
C400 H386 0.961 . S
C400 C399 1.502 . S
C401 H387 0.960 . S
C401 H388 0.961 . S
C401 H389 0.959 . S
C401 C399 1.561 . S
C402 C399 1.526 . S
C402 C403 1.396 . S
C402 C407 1.390 . S
C403 C397 1.465 . S
C403 C402 1.396 . S
C403 C404 1.399 . S
C404 H390 0.929 . S
C404 C403 1.399 . S
C404 C405 1.385 . S
C405 H391 0.931 . S
C405 C404 1.385 . S
C405 C406 1.389 . S
C406 C405 1.389 . S
C406 C407 1.387 . S
C407 H392 0.930 . S
C407 C402 1.390 . S
C407 C406 1.387 . S
H408 C420 0.930 . S
H409 C422 0.930 . S
H410 C423 0.930 . S
H411 C427 0.959 . S
H412 C427 0.959 . S
H413 C427 0.961 . S
H414 C428 0.960 . S
H415 C428 0.961 . S
H416 C428 0.959 . S
H417 C431 0.929 . S
H418 C432 0.931 . S
H419 C434 0.930 . S
C420 H408 0.930 . S
C420 C421 1.399 . S
C420 C425 1.399 . S
C421 C420 1.399 . S
C421 C422 1.376 . S
C422 H409 0.930 . S
C422 C421 1.376 . S
C422 C423 1.388 . S
C423 H410 0.930 . S
C423 C422 1.388 . S
C423 C424 1.390 . S
C424 C423 1.390 . S
C424 C425 1.394 . S
C424 C430 1.465 . S
C425 C420 1.399 . S
C425 C424 1.394 . S
C425 C426 1.516 . S
C426 C425 1.516 . S
C426 C427 1.502 . S
C426 C428 1.561 . S
C426 C429 1.526 . S
C427 H411 0.959 . S
C427 H412 0.959 . S
C427 H413 0.961 . S
C427 C426 1.502 . S
C428 H414 0.960 . S
C428 H415 0.961 . S
C428 H416 0.959 . S
C428 C426 1.561 . S
C429 C426 1.526 . S
C429 C430 1.396 . S
C429 C434 1.390 . S
C430 C424 1.465 . S
C430 C429 1.396 . S
C430 C431 1.399 . S
C431 H417 0.929 . S
C431 C430 1.399 . S
C431 C432 1.385 . S
C432 H418 0.931 . S
C432 C431 1.385 . S
C432 C433 1.389 . S
C433 C432 1.389 . S
C433 C434 1.387 . S
C434 H419 0.930 . S
C434 C429 1.390 . S
C434 C433 1.387 . S
H435 C447 0.930 . S
H436 C449 0.930 . S
H437 C450 0.930 . S
H438 C454 0.959 . S
H439 C454 0.959 . S
H440 C454 0.961 . S
H441 C455 0.960 . S
H442 C455 0.961 . S
H443 C455 0.959 . S
H444 C458 0.929 . S
H445 C459 0.931 . S
H446 C461 0.930 . S
C447 H435 0.930 . S
C447 C448 1.399 . S
C447 C452 1.399 . S
C448 C447 1.399 . S
C448 C449 1.376 . S
C449 H436 0.930 . S
C449 C448 1.376 . S
C449 C450 1.388 . S
C450 H437 0.930 . S
C450 C449 1.388 . S
C450 C451 1.390 . S
C451 C450 1.390 . S
C451 C452 1.394 . S
C451 C457 1.465 . S
C452 C447 1.399 . S
C452 C451 1.394 . S
C452 C453 1.516 . S
C453 C452 1.516 . S
C453 C454 1.502 . S
C453 C455 1.561 . S
C453 C456 1.526 . S
C454 H438 0.959 . S
C454 H439 0.959 . S
C454 H440 0.961 . S
C454 C453 1.502 . S
C455 H441 0.960 . S
C455 H442 0.961 . S
C455 H443 0.959 . S
C455 C453 1.561 . S
C456 C453 1.526 . S
C456 C457 1.396 . S
C456 C461 1.390 . S
C457 C451 1.465 . S
C457 C456 1.396 . S
C457 C458 1.399 . S
C458 H444 0.929 . S
C458 C457 1.399 . S
C458 C459 1.385 . S
C459 H445 0.931 . S
C459 C458 1.385 . S
C459 C460 1.389 . S
C460 C459 1.389 . S
C460 C461 1.387 . S
C461 H446 0.930 . S
C461 C456 1.390 . S
C461 C460 1.387 . S
H462 C474 0.930 . S
H463 C476 0.930 . S
H464 C477 0.930 . S
H465 C481 0.959 . S
H466 C481 0.959 . S
H467 C481 0.961 . S
H468 C482 0.960 . S
H469 C482 0.961 . S
H470 C482 0.959 . S
H471 C485 0.929 . S
H472 C486 0.931 . S
H473 C488 0.930 . S
C474 H462 0.930 . S
C474 C475 1.399 . S
C474 C479 1.399 . S
C475 C474 1.399 . S
C475 C476 1.376 . S
C476 H463 0.930 . S
C476 C475 1.376 . S
C476 C477 1.388 . S
C477 H464 0.930 . S
C477 C476 1.388 . S
C477 C478 1.390 . S
C478 C477 1.390 . S
C478 C479 1.394 . S
C478 C484 1.465 . S
C479 C474 1.399 . S
C479 C478 1.394 . S
C479 C480 1.516 . S
C480 C479 1.516 . S
C480 C481 1.502 . S
C480 C482 1.561 . S
C480 C483 1.526 . S
C481 H465 0.959 . S
C481 H466 0.959 . S
C481 H467 0.961 . S
C481 C480 1.502 . S
C482 H468 0.960 . S
C482 H469 0.961 . S
C482 H470 0.959 . S
C482 C480 1.561 . S
C483 C480 1.526 . S
C483 C484 1.396 . S
C483 C488 1.390 . S
C484 C478 1.465 . S
C484 C483 1.396 . S
C484 C485 1.399 . S
C485 H471 0.929 . S
C485 C484 1.399 . S
C485 C486 1.385 . S
C486 H472 0.931 . S
C486 C485 1.385 . S
C486 C487 1.389 . S
C487 C486 1.389 . S
C487 C488 1.387 . S
C488 H473 0.930 . S
C488 C483 1.390 . S
C488 C487 1.387 . S
H489 C501 0.930 . S
H490 C503 0.930 . S
H491 C504 0.930 . S
H492 C508 0.959 . S
H493 C508 0.959 . S
H494 C508 0.961 . S
H495 C509 0.960 . S
H496 C509 0.961 . S
H497 C509 0.959 . S
H498 C512 0.929 . S
H499 C513 0.931 . S
H500 C515 0.930 . S
C501 H489 0.930 . S
C501 C502 1.399 . S
C501 C506 1.399 . S
C502 C501 1.399 . S
C502 C503 1.376 . S
C503 H490 0.930 . S
C503 C502 1.376 . S
C503 C504 1.388 . S
C504 H491 0.930 . S
C504 C503 1.388 . S
C504 C505 1.390 . S
C505 C504 1.390 . S
C505 C506 1.394 . S
C505 C511 1.465 . S
C506 C501 1.399 . S
C506 C505 1.394 . S
C506 C507 1.516 . S
C507 C506 1.516 . S
C507 C508 1.502 . S
C507 C509 1.561 . S
C507 C510 1.526 . S
C508 H492 0.959 . S
C508 H493 0.959 . S
C508 H494 0.961 . S
C508 C507 1.502 . S
C509 H495 0.960 . S
C509 H496 0.961 . S
C509 H497 0.959 . S
C509 C507 1.561 . S
C510 C507 1.526 . S
C510 C511 1.396 . S
C510 C515 1.390 . S
C511 C505 1.465 . S
C511 C510 1.396 . S
C511 C512 1.399 . S
C512 H498 0.929 . S
C512 C511 1.399 . S
C512 C513 1.385 . S
C513 H499 0.931 . S
C513 C512 1.385 . S
C513 C514 1.389 . S
C514 C513 1.389 . S
C514 C515 1.387 . S
C515 H500 0.930 . S
C515 C510 1.390 . S
C515 C514 1.387 . S
H516 C528 0.930 . S
H517 C530 0.930 . S
H518 C531 0.930 . S
H519 C535 0.959 . S
H520 C535 0.959 . S
H521 C535 0.961 . S
H522 C536 0.960 . S
H523 C536 0.961 . S
H524 C536 0.959 . S
H525 C539 0.929 . S
H526 C540 0.931 . S
H527 C542 0.930 . S
C528 H516 0.930 . S
C528 C529 1.399 . S
C528 C533 1.399 . S
C529 C528 1.399 . S
C529 C530 1.376 . S
C530 H517 0.930 . S
C530 C529 1.376 . S
C530 C531 1.388 . S
C531 H518 0.930 . S
C531 C530 1.388 . S
C531 C532 1.390 . S
C532 C531 1.390 . S
C532 C533 1.394 . S
C532 C538 1.465 . S
C533 C528 1.399 . S
C533 C532 1.394 . S
C533 C534 1.516 . S
C534 C533 1.516 . S
C534 C535 1.502 . S
C534 C536 1.561 . S
C534 C537 1.526 . S
C535 H519 0.959 . S
C535 H520 0.959 . S
C535 H521 0.961 . S
C535 C534 1.502 . S
C536 H522 0.960 . S
C536 H523 0.961 . S
C536 H524 0.959 . S
C536 C534 1.561 . S
C537 C534 1.526 . S
C537 C538 1.396 . S
C537 C542 1.390 . S
C538 C532 1.465 . S
C538 C537 1.396 . S
C538 C539 1.399 . S
C539 H525 0.929 . S
C539 C538 1.399 . S
C539 C540 1.385 . S
C540 H526 0.931 . S
C540 C539 1.385 . S
C540 C541 1.389 . S
C541 C540 1.389 . S
C541 C542 1.387 . S
C542 H527 0.930 . S
C542 C537 1.390 . S
C542 C541 1.387 . S
H543 C555 0.930 . S
H544 C557 0.930 . S
H545 C558 0.930 . S
H546 C562 0.959 . S
H547 C562 0.959 . S
H548 C562 0.961 . S
H549 C563 0.960 . S
H550 C563 0.961 . S
H551 C563 0.959 . S
H552 C566 0.929 . S
H553 C567 0.931 . S
H554 C569 0.930 . S
C555 H543 0.930 . S
C555 C556 1.399 . S
C555 C560 1.399 . S
C556 C555 1.399 . S
C556 C557 1.376 . S
C557 H544 0.930 . S
C557 C556 1.376 . S
C557 C558 1.388 . S
C558 H545 0.930 . S
C558 C557 1.388 . S
C558 C559 1.390 . S
C559 C558 1.390 . S
C559 C560 1.394 . S
C559 C565 1.465 . S
C560 C555 1.399 . S
C560 C559 1.394 . S
C560 C561 1.516 . S
C561 C560 1.516 . S
C561 C562 1.502 . S
C561 C563 1.561 . S
C561 C564 1.526 . S
C562 H546 0.959 . S
C562 H547 0.959 . S
C562 H548 0.961 . S
C562 C561 1.502 . S
C563 H549 0.960 . S
C563 H550 0.961 . S
C563 H551 0.959 . S
C563 C561 1.561 . S
C564 C561 1.526 . S
C564 C565 1.396 . S
C564 C569 1.390 . S
C565 C559 1.465 . S
C565 C564 1.396 . S
C565 C566 1.399 . S
C566 H552 0.929 . S
C566 C565 1.399 . S
C566 C567 1.385 . S
C567 H553 0.931 . S
C567 C566 1.385 . S
C567 C568 1.389 . S
C568 C567 1.389 . S
C568 C569 1.387 . S
C569 H554 0.930 . S
C569 C564 1.390 . S
C569 C568 1.387 . S
H570 C582 0.930 . S
H571 C584 0.930 . S
H572 C585 0.930 . S
H573 C589 0.959 . S
H574 C589 0.959 . S
H575 C589 0.961 . S
H576 C590 0.960 . S
H577 C590 0.961 . S
H578 C590 0.959 . S
H579 C593 0.929 . S
H580 C594 0.931 . S
H581 C596 0.930 . S
C582 H570 0.930 . S
C582 C583 1.399 . S
C582 C587 1.399 . S
C583 C582 1.399 . S
C583 C584 1.376 . S
C584 H571 0.930 . S
C584 C583 1.376 . S
C584 C585 1.388 . S
C585 H572 0.930 . S
C585 C584 1.388 . S
C585 C586 1.390 . S
C586 C585 1.390 . S
C586 C587 1.394 . S
C586 C592 1.465 . S
C587 C582 1.399 . S
C587 C586 1.394 . S
C587 C588 1.516 . S
C588 C587 1.516 . S
C588 C589 1.502 . S
C588 C590 1.561 . S
C588 C591 1.526 . S
C589 H573 0.959 . S
C589 H574 0.959 . S
C589 H575 0.961 . S
C589 C588 1.502 . S
C590 H576 0.960 . S
C590 H577 0.961 . S
C590 H578 0.959 . S
C590 C588 1.561 . S
C591 C588 1.526 . S
C591 C592 1.396 . S
C591 C596 1.390 . S
C592 C586 1.465 . S
C592 C591 1.396 . S
C592 C593 1.399 . S
C593 H579 0.929 . S
C593 C592 1.399 . S
C593 C594 1.385 . S
C594 H580 0.931 . S
C594 C593 1.385 . S
C594 C595 1.389 . S
C595 C594 1.389 . S
C595 C596 1.387 . S
C596 H581 0.930 . S
C596 C591 1.390 . S
C596 C595 1.387 . S
H597 C609 0.930 . S
H598 C611 0.930 . S
H599 C612 0.930 . S
H600 C616 0.959 . S
H601 C616 0.959 . S
H602 C616 0.961 . S
H603 C617 0.960 . S
H604 C617 0.961 . S
H605 C617 0.959 . S
H606 C620 0.929 . S
H607 C621 0.931 . S
H608 C623 0.930 . S
C609 H597 0.930 . S
C609 C610 1.399 . S
C609 C614 1.399 . S
C610 C609 1.399 . S
C610 C611 1.376 . S
C611 H598 0.930 . S
C611 C610 1.376 . S
C611 C612 1.388 . S
C612 H599 0.930 . S
C612 C611 1.388 . S
C612 C613 1.390 . S
C613 C612 1.390 . S
C613 C614 1.394 . S
C613 C619 1.465 . S
C614 C609 1.399 . S
C614 C613 1.394 . S
C614 C615 1.516 . S
C615 C614 1.516 . S
C615 C616 1.502 . S
C615 C617 1.561 . S
C615 C618 1.526 . S
C616 H600 0.959 . S
C616 H601 0.959 . S
C616 H602 0.961 . S
C616 C615 1.502 . S
C617 H603 0.960 . S
C617 H604 0.961 . S
C617 H605 0.959 . S
C617 C615 1.561 . S
C618 C615 1.526 . S
C618 C619 1.396 . S
C618 C623 1.390 . S
C619 C613 1.465 . S
C619 C618 1.396 . S
C619 C620 1.399 . S
C620 H606 0.929 . S
C620 C619 1.399 . S
C620 C621 1.385 . S
C621 H607 0.931 . S
C621 C620 1.385 . S
C621 C622 1.389 . S
C622 C621 1.389 . S
C622 C623 1.387 . S
C623 H608 0.930 . S
C623 C618 1.390 . S
C623 C622 1.387 . S
H624 C636 0.930 . S
H625 C638 0.930 . S
H626 C639 0.930 . S
H627 C643 0.959 . S
H628 C643 0.959 . S
H629 C643 0.961 . S
H630 C644 0.960 . S
H631 C644 0.961 . S
H632 C644 0.959 . S
H633 C647 0.929 . S
H634 C648 0.931 . S
H635 C650 0.930 . S
C636 H624 0.930 . S
C636 C637 1.399 . S
C636 C641 1.399 . S
C637 C636 1.399 . S
C637 C638 1.376 . S
C638 H625 0.930 . S
C638 C637 1.376 . S
C638 C639 1.388 . S
C639 H626 0.930 . S
C639 C638 1.388 . S
C639 C640 1.390 . S
C640 C639 1.390 . S
C640 C641 1.394 . S
C640 C646 1.465 . S
C641 C636 1.399 . S
C641 C640 1.394 . S
C641 C642 1.516 . S
C642 C641 1.516 . S
C642 C643 1.502 . S
C642 C644 1.561 1_455 S
C642 C645 1.526 . S
C643 H627 0.959 . S
C643 H628 0.959 . S
C643 H629 0.961 . S
C643 C642 1.502 . S
C644 H630 0.960 . S
C644 H631 0.961 . S
C644 H632 0.959 . S
C644 C642 1.561 1_655 S
C645 C642 1.526 . S
C645 C646 1.396 . S
C645 C650 1.390 . S
C646 C640 1.465 . S
C646 C645 1.396 . S
C646 C647 1.399 . S
C647 H633 0.929 . S
C647 C646 1.399 . S
C647 C648 1.385 . S
C648 H634 0.931 . S
C648 C647 1.385 . S
C648 C649 1.389 . S
C649 C648 1.389 . S
C649 C650 1.387 . S
C650 H635 0.930 . S
C650 C645 1.390 . S
C650 C649 1.387 . S
H651 C663 0.930 1_565 S
H652 C665 0.930 . S
H653 C666 0.930 . S
H654 C670 0.959 . S
H655 C670 0.959 . S
H656 C670 0.961 . S
H657 C671 0.960 . S
H658 C671 0.961 . S
H659 C671 0.959 . S
H660 C674 0.929 . S
H661 C675 0.931 . S
H662 C677 0.930 . S
C663 H651 0.930 1_545 S
C663 C664 1.399 . S
C663 C668 1.399 . S
C664 C663 1.399 . S
C664 C665 1.376 . S
C665 H652 0.930 . S
C665 C664 1.376 . S
C665 C666 1.388 . S
C666 H653 0.930 . S
C666 C665 1.388 . S
C666 C667 1.390 . S
C667 C666 1.390 . S
C667 C668 1.394 . S
C667 C673 1.465 . S
C668 C663 1.399 . S
C668 C667 1.394 . S
C668 C669 1.516 1_545 S
C669 C668 1.516 1_565 S
C669 C670 1.502 . S
C669 C671 1.561 . S
C669 C672 1.526 1_565 S
C670 H654 0.959 . S
C670 H655 0.959 . S
C670 H656 0.961 . S
C670 C669 1.502 . S
C671 H657 0.960 . S
C671 H658 0.961 . S
C671 H659 0.959 . S
C671 C669 1.561 . S
C672 C669 1.526 1_545 S
C672 C673 1.396 . S
C672 C677 1.390 1_545 S
C673 C667 1.465 . S
C673 C672 1.396 . S
C673 C674 1.399 . S
C674 H660 0.929 . S
C674 C673 1.399 . S
C674 C675 1.385 . S
C675 H661 0.931 . S
C675 C674 1.385 . S
C675 C676 1.389 . S
C676 C675 1.389 . S
C676 C677 1.387 1_545 S
C677 H662 0.930 . S
C677 C672 1.390 1_565 S
C677 C676 1.387 1_565 S
H678 C690 0.930 . S
H679 C692 0.930 . S
H680 C693 0.930 . S
H681 C697 0.959 . S
H682 C697 0.959 . S
H683 C697 0.961 . S
H684 C698 0.960 . S
H685 C698 0.961 . S
H686 C698 0.959 . S
H687 C701 0.929 . S
H688 C702 0.931 . S
H689 C704 0.930 . S
C690 H678 0.930 . S
C690 C691 1.399 . S
C690 C695 1.399 . S
C691 C690 1.399 . S
C691 C692 1.376 . S
C692 H679 0.930 . S
C692 C691 1.376 . S
C692 C693 1.388 . S
C693 H680 0.930 . S
C693 C692 1.388 . S
C693 C694 1.390 . S
C694 C693 1.390 . S
C694 C695 1.394 . S
C694 C700 1.465 . S
C695 C690 1.399 . S
C695 C694 1.394 . S
C695 C696 1.516 . S
C696 C695 1.516 . S
C696 C697 1.502 . S
C696 C698 1.561 . S
C696 C699 1.526 . S
C697 H681 0.959 . S
C697 H682 0.959 . S
C697 H683 0.961 . S
C697 C696 1.502 . S
C698 H684 0.960 . S
C698 H685 0.961 . S
C698 H686 0.959 . S
C698 C696 1.561 . S
C699 C696 1.526 . S
C699 C700 1.396 . S
C699 C704 1.390 . S
C700 C694 1.465 . S
C700 C699 1.396 . S
C700 C701 1.399 . S
C701 H687 0.929 . S
C701 C700 1.399 . S
C701 C702 1.385 . S
C702 H688 0.931 . S
C702 C701 1.385 . S
C702 C703 1.389 . S
C703 C702 1.389 . S
C703 C704 1.387 . S
C704 H689 0.930 . S
C704 C699 1.390 . S
C704 C703 1.387 . S
H705 C717 0.930 1_565 S
H706 C719 0.930 . S
H707 C720 0.930 . S
H708 C724 0.959 . S
H709 C724 0.959 . S
H710 C724 0.961 . S
H711 C725 0.960 . S
H712 C725 0.961 . S
H713 C725 0.959 . S
H714 C728 0.929 . S
H715 C729 0.931 . S
H716 C731 0.930 1_565 S
C717 H705 0.930 1_545 S
C717 C718 1.399 . S
C717 C722 1.399 . S
C718 C717 1.399 . S
C718 C719 1.376 . S
C719 H706 0.930 . S
C719 C718 1.376 . S
C719 C720 1.388 . S
C720 H707 0.930 . S
C720 C719 1.388 . S
C720 C721 1.390 . S
C721 C720 1.390 . S
C721 C722 1.394 . S
C721 C727 1.465 . S
C722 C717 1.399 . S
C722 C721 1.394 . S
C722 C723 1.516 1_545 S
C723 C722 1.516 1_565 S
C723 C724 1.502 . S
C723 C725 1.561 . S
C723 C726 1.526 1_565 S
C724 H708 0.959 . S
C724 H709 0.959 . S
C724 H710 0.961 . S
C724 C723 1.502 . S
C725 H711 0.960 . S
C725 H712 0.961 . S
C725 H713 0.959 . S
C725 C723 1.561 . S
C726 C723 1.526 1_545 S
C726 C727 1.396 . S
C726 C731 1.390 . S
C727 C721 1.465 . S
C727 C726 1.396 . S
C727 C728 1.399 . S
C728 H714 0.929 . S
C728 C727 1.399 . S
C728 C729 1.385 . S
C729 H715 0.931 . S
C729 C728 1.385 . S
C729 C730 1.389 . S
C730 C729 1.389 . S
C730 C731 1.387 . S
C731 H716 0.930 1_545 S
C731 C726 1.390 . S
C731 C730 1.387 . S
H732 C744 0.930 . S
H733 C746 0.930 . S
H734 C747 0.930 . S
H735 C751 0.959 . S
H736 C751 0.959 . S
H737 C751 0.961 . S
H738 C752 0.960 . S
H739 C752 0.961 . S
H740 C752 0.959 . S
H741 C755 0.929 . S
H742 C756 0.931 . S
H743 C758 0.930 . S
C744 H732 0.930 . S
C744 C745 1.399 . S
C744 C749 1.399 . S
C745 C744 1.399 . S
C745 C746 1.376 . S
C746 H733 0.930 . S
C746 C745 1.376 . S
C746 C747 1.388 . S
C747 H734 0.930 . S
C747 C746 1.388 . S
C747 C748 1.390 . S
C748 C747 1.390 . S
C748 C749 1.394 . S
C748 C754 1.465 . S
C749 C744 1.399 . S
C749 C748 1.394 . S
C749 C750 1.516 . S
C750 C749 1.516 . S
C750 C751 1.502 . S
C750 C752 1.561 . S
C750 C753 1.526 . S
C751 H735 0.959 . S
C751 H736 0.959 . S
C751 H737 0.961 . S
C751 C750 1.502 . S
C752 H738 0.960 . S
C752 H739 0.961 . S
C752 H740 0.959 . S
C752 C750 1.561 . S
C753 C750 1.526 . S
C753 C754 1.396 . S
C753 C758 1.390 . S
C754 C748 1.465 . S
C754 C753 1.396 . S
C754 C755 1.399 . S
C755 H741 0.929 . S
C755 C754 1.399 . S
C755 C756 1.385 . S
C756 H742 0.931 . S
C756 C755 1.385 . S
C756 C757 1.389 . S
C757 C756 1.389 . S
C757 C758 1.387 . S
C758 H743 0.930 . S
C758 C753 1.390 . S
C758 C757 1.387 . S
H759 C771 0.930 . S
H760 C773 0.930 . S
H761 C774 0.930 . S
H762 C778 0.959 . S
H763 C778 0.959 . S
H764 C778 0.961 . S
H765 C779 0.960 . S
H766 C779 0.961 . S
H767 C779 0.959 . S
H768 C782 0.929 . S
H769 C783 0.931 . S
H770 C785 0.930 . S
C771 H759 0.930 . S
C771 C772 1.399 . S
C771 C776 1.399 . S
C772 C771 1.399 . S
C772 C773 1.376 . S
C773 H760 0.930 . S
C773 C772 1.376 . S
C773 C774 1.388 . S
C774 H761 0.930 . S
C774 C773 1.388 . S
C774 C775 1.390 . S
C775 C774 1.390 . S
C775 C776 1.394 . S
C775 C781 1.465 . S
C776 C771 1.399 . S
C776 C775 1.394 . S
C776 C777 1.516 . S
C777 C776 1.516 . S
C777 C778 1.502 1_455 S
C777 C779 1.561 . S
C777 C780 1.526 . S
C778 H762 0.959 . S
C778 H763 0.959 . S
C778 H764 0.961 . S
C778 C777 1.502 1_655 S
C779 H765 0.960 . S
C779 H766 0.961 . S
C779 H767 0.959 . S
C779 C777 1.561 . S
C780 C777 1.526 . S
C780 C781 1.396 . S
C780 C785 1.390 . S
C781 C775 1.465 . S
C781 C780 1.396 . S
C781 C782 1.399 . S
C782 H768 0.929 . S
C782 C781 1.399 . S
C782 C783 1.385 . S
C783 H769 0.931 . S
C783 C782 1.385 . S
C783 C784 1.389 . S
C784 C783 1.389 . S
C784 C785 1.387 . S
C785 H770 0.930 . S
C785 C780 1.390 . S
C785 C784 1.387 . S
C313 C2 1.127 . S
C325 C275 1.099 . S
C340 C21 1.027 . S
C352 C182 1.033 . S
C367 C42 1.136 . S
C379 C222 1.137 . S
C394 C1 1.073 . S
C406 C262 1.026 . S
C433 C195 1.101 . S
C421 C22 1.130 . S
C460 C235 1.108 . S
C448 C41 1.112 . S
C475 C38 1.939 . S
C487 C102 1.912 . S
C502 C59 2.013 . S
C514 C142 1.970 . S
C529 C18 1.978 . S
C541 C75 1.941 . S
C568 C115 1.954 . S
C556 C39 2.042 . S
C595 C155 1.934 . S
C583 C58 1.976 . S
C610 C19 2.010 . S
C622 C62 1.983 . S
C649 C161 1.564 1_554 S
C637 C9 1.459 . S
C664 C29 1.513 . S
C676 C81 1.531 . S
C691 C49 1.525 . S
C703 C121 1.553 . S
C730 C241 1.385 . S
C718 C28 1.383 . S
C757 C281 1.392 1_556 S
C745 C48 1.339 . S
C772 C8 1.368 . S
C784 C201 1.369 . S
