# Generated by pormake.
# Topology pyr, (3,6)-cn, num edge types: 1
# Building blocks:
#     Node 0, Type 0, BuildingBlock: WUSLED_clean_sbu_0, # of connection points: 3
#     Node 1, Type 0, BuildingBlock: WUSLED_clean_sbu_0, # of connection points: 3
#     Node 2, Type 0, BuildingBlock: WUSLED_clean_sbu_0, # of connection points: 3
#     Node 3, Type 0, BuildingBlock: WUSLED_clean_sbu_0, # of connection points: 3
#     Node 4, Type 0, BuildingBlock: WUSLED_clean_sbu_0, # of connection points: 3
#     Node 5, Type 0, BuildingBlock: WUSLED_clean_sbu_0, # of connection points: 3
#     Node 6, Type 0, BuildingBlock: WUSLED_clean_sbu_0, # of connection points: 3
#     Node 7, Type 0, BuildingBlock: WUSLED_clean_sbu_0, # of connection points: 3
#     Node 8, Type 1, BuildingBlock: VOLQOD_clean_sbu_1, # of connection points: 6
#     Node 9, Type 1, BuildingBlock: VOLQOD_clean_sbu_1, # of connection points: 6
#     Node 10, Type 1, BuildingBlock: VOLQOD_clean_sbu_1, # of connection points: 6
#     Node 11, Type 1, BuildingBlock: VOLQOD_clean_sbu_1, # of connection points: 6
#     Edge 12, Type (0, 1), BuildingBlock: KIFKEQ_clean_linker_1, # of connection points: 2
#     Edge 13, Type (0, 1), BuildingBlock: KIFKEQ_clean_linker_1, # of connection points: 2
#     Edge 14, Type (0, 1), BuildingBlock: KIFKEQ_clean_linker_1, # of connection points: 2
#     Edge 15, Type (0, 1), BuildingBlock: KIFKEQ_clean_linker_1, # of connection points: 2
#     Edge 16, Type (0, 1), BuildingBlock: KIFKEQ_clean_linker_1, # of connection points: 2
#     Edge 17, Type (0, 1), BuildingBlock: KIFKEQ_clean_linker_1, # of connection points: 2
#     Edge 18, Type (0, 1), BuildingBlock: KIFKEQ_clean_linker_1, # of connection points: 2
#     Edge 19, Type (0, 1), BuildingBlock: KIFKEQ_clean_linker_1, # of connection points: 2
#     Edge 20, Type (0, 1), BuildingBlock: KIFKEQ_clean_linker_1, # of connection points: 2
#     Edge 21, Type (0, 1), BuildingBlock: KIFKEQ_clean_linker_1, # of connection points: 2
#     Edge 22, Type (0, 1), BuildingBlock: KIFKEQ_clean_linker_1, # of connection points: 2
#     Edge 23, Type (0, 1), BuildingBlock: KIFKEQ_clean_linker_1, # of connection points: 2
#     Edge 24, Type (0, 1), BuildingBlock: KIFKEQ_clean_linker_1, # of connection points: 2
#     Edge 25, Type (0, 1), BuildingBlock: KIFKEQ_clean_linker_1, # of connection points: 2
#     Edge 26, Type (0, 1), BuildingBlock: KIFKEQ_clean_linker_1, # of connection points: 2
#     Edge 27, Type (0, 1), BuildingBlock: KIFKEQ_clean_linker_1, # of connection points: 2
#     Edge 28, Type (0, 1), BuildingBlock: KIFKEQ_clean_linker_1, # of connection points: 2
#     Edge 29, Type (0, 1), BuildingBlock: KIFKEQ_clean_linker_1, # of connection points: 2
#     Edge 30, Type (0, 1), BuildingBlock: KIFKEQ_clean_linker_1, # of connection points: 2
#     Edge 31, Type (0, 1), BuildingBlock: KIFKEQ_clean_linker_1, # of connection points: 2
#     Edge 32, Type (0, 1), BuildingBlock: KIFKEQ_clean_linker_1, # of connection points: 2
#     Edge 33, Type (0, 1), BuildingBlock: KIFKEQ_clean_linker_1, # of connection points: 2
#     Edge 34, Type (0, 1), BuildingBlock: KIFKEQ_clean_linker_1, # of connection points: 2
#     Edge 35, Type (0, 1), BuildingBlock: KIFKEQ_clean_linker_1, # of connection points: 2
# Relax obj value: 0.035
# Max RMSD: 0.120
# Mean RMSD: 0.046
data_MOF--net-pry--node1-WUSLED_clean_sbu_0--node2-VOLQOD_clean_sbu_1--edge1-KIFKEQ_clean_linker_1
_symmetry_space_group_name_H-M    P1
_symmetry_Int_Tables_number       1
_symmetry_cell_setting            triclinic
loop_
_symmetry_equiv_pos_as_xyz
'x, y, z'
_cell_length_a     48.963329
_cell_length_b     49.102147
_cell_length_c     49.229159
_cell_angle_alpha  89.905079
_cell_angle_beta   90.287483
_cell_angle_gamma 90.628438
loop_
_atom_site_label
_atom_site_type_symbol
_atom_site_fract_x
_atom_site_fract_y
_atom_site_fract_z
_atom_type_partial_charge
C0 C 0.14318 0.22772 0.11859 0.0
C1 C 0.11828 0.23366 0.13118 0.0
C2 C 0.11474 0.27542 0.10461 0.0
C3 C 0.10408 0.2573 0.12415 0.0
C4 C 0.13958 0.26911 0.09194 0.0
C5 C 0.15364 0.2455 0.09889 0.0
U6 U 0.15753 0.16731 0.16537 0.0
O7 O 0.17051 0.12574 0.15544 0.0
O8 O 0.19668 0.15203 0.18078 0.0
C9 C 0.19423 0.12879 0.16776 0.0
C10 C 0.15892 0.20353 0.12614 0.0
C11 C 0.21834 0.12066 0.15222 0.0
C12 C 0.24924 0.12617 0.11401 0.0
C13 C 0.22544 0.13359 0.12775 0.0
C14 C 0.25878 0.0928 0.14902 0.0
C15 C 0.26634 0.10589 0.1247 0.0
C16 C 0.23503 0.10014 0.16262 0.0
C17 C 0.11394 0.1542 0.22792 0.0
C18 C 0.11931 0.11373 0.25585 0.0
C19 C 0.09156 0.15099 0.27171 0.0
C20 C 0.09719 0.16544 0.24786 0.0
C21 C 0.10258 0.12498 0.27601 0.0
C22 C 0.12504 0.12828 0.23205 0.0
C23 C 0.1202 0.17 0.2033 0.0
O24 O 0.1734 0.20584 0.14858 0.0
O25 O 0.14594 0.18004 0.12407 0.0
O26 O 0.11632 0.15719 0.18014 0.0
O27 O 0.14323 0.18396 0.20418 0.0
H28 H 0.10998 0.22016 0.14657 0.0
H29 H 0.0851 0.26169 0.13438 0.0
H30 H 0.14813 0.28239 0.07651 0.0
H31 H 0.17282 0.24119 0.08895 0.0
H32 H 0.25459 0.13672 0.09542 0.0
H33 H 0.21278 0.1496 0.11951 0.0
H34 H 0.27125 0.0768 0.15756 0.0
H35 H 0.22982 0.08993 0.18146 0.0
H36 H 0.12833 0.09388 0.25869 0.0
H37 H 0.07834 0.16008 0.28667 0.0
H38 H 0.08851 0.18546 0.24501 0.0
H39 H 0.13825 0.11938 0.21694 0.0
C40 C 0.30988 0.86958 0.61742 0.0
C41 C 0.29714 0.88929 0.63346 0.0
C42 C 0.26236 0.89575 0.59843 0.0
C43 C 0.27357 0.90227 0.62405 0.0
C44 C 0.27559 0.87631 0.58231 0.0
C45 C 0.29909 0.86335 0.59175 0.0
U46 U 0.36868 0.85988 0.66795 0.0
O47 O 0.38452 0.82225 0.68611 0.0
O48 O 0.41113 0.84761 0.66052 0.0
C49 C 0.40812 0.82444 0.67363 0.0
C50 C 0.33406 0.85498 0.62726 0.0
C51 C 0.41685 0.79999 0.6589 0.0
C52 C 0.40854 0.76453 0.62536 0.0
C53 C 0.40021 0.78814 0.63876 0.0
C54 C 0.45041 0.76464 0.65179 0.0
C55 C 0.43371 0.75243 0.63177 0.0
C56 C 0.44201 0.78818 0.66523 0.0
C57 C 0.37724 0.90981 0.72745 0.0
C58 C 0.40942 0.90355 0.76464 0.0
C59 C 0.38269 0.94471 0.76203 0.0
C60 C 0.37027 0.93519 0.73819 0.0
C61 C 0.40234 0.92897 0.77565 0.0
C62 C 0.397 0.89407 0.74071 0.0
C63 C 0.36335 0.90001 0.7027 0.0
O64 O 0.35741 0.86829 0.62541 0.0
O65 O 0.3311 0.84214 0.65053 0.0
O66 O 0.35034 0.87656 0.70495 0.0
O67 O 0.37735 0.90226 0.68009 0.0
H68 H 0.30524 0.89437 0.65336 0.0
H69 H 0.26379 0.91692 0.63711 0.0
H70 H 0.26782 0.87112 0.56232 0.0
H71 H 0.30876 0.84829 0.57904 0.0
H72 H 0.39535 0.75587 0.60982 0.0
H73 H 0.38075 0.79708 0.6335 0.0
H74 H 0.46974 0.75571 0.65746 0.0
H75 H 0.4551 0.79705 0.68075 0.0
H76 H 0.4247 0.89106 0.77441 0.0
H77 H 0.37648 0.96418 0.7701 0.0
H78 H 0.355 0.94757 0.72824 0.0
H79 H 0.40271 0.87444 0.73262 0.0
C80 C 0.60511 0.38155 0.81195 0.0
C81 C 0.62026 0.40454 0.80377 0.0
C82 C 0.59004 0.41048 0.76475 0.0
C83 C 0.61279 0.4189 0.78033 0.0
C84 C 0.57501 0.38738 0.77316 0.0
C85 C 0.58249 0.37309 0.79655 0.0
U86 U 0.65292 0.36819 0.87176 0.0
O87 O 0.64365 0.35611 0.9138 0.0
O88 O 0.6681 0.32944 0.88799 0.0
C89 C 0.65528 0.33226 0.91119 0.0
C90 C 0.61285 0.36595 0.83622 0.0
C91 C 0.63867 0.30869 0.91969 0.0
C92 C 0.60013 0.27774 0.91308 0.0
C93 C 0.61543 0.30054 0.90488 0.0
C94 C 0.63114 0.27121 0.951 0.0
C95 C 0.60782 0.2628 0.93627 0.0
C96 C 0.64639 0.29395 0.94278 0.0
C97 C 0.71605 0.41355 0.88206 0.0
C98 C 0.74725 0.40842 0.92027 0.0
C99 C 0.75828 0.43978 0.88377 0.0
C100 C 0.73385 0.43284 0.87062 0.0
C101 C 0.76537 0.42754 0.90866 0.0
C102 C 0.72279 0.40139 0.907 0.0
C103 C 0.69093 0.40602 0.86734 0.0
O104 O 0.6353 0.35173 0.83396 0.0
O105 O 0.6112 0.37906 0.8594 0.0
O106 O 0.66799 0.40963 0.88055 0.0
O107 O 0.69171 0.3827 0.85433 0.0
H108 H 0.63785 0.41131 0.81549 0.0
H109 H 0.62466 0.4367 0.77456 0.0
H110 H 0.5577 0.38002 0.76141 0.0
H111 H 0.57069 0.35528 0.80252 0.0
H112 H 0.58218 0.27195 0.90142 0.0
H113 H 0.6092 0.31178 0.88697 0.0
H114 H 0.63794 0.25993 0.96866 0.0
H115 H 0.66435 0.29991 0.95436 0.0
H116 H 0.75223 0.3985 0.9393 0.0
H117 H 0.77156 0.45489 0.8745 0.0
H118 H 0.72892 0.44244 0.85141 0.0
H119 H 0.70927 0.38634 0.91604 0.0
C120 C 0.80198 0.60805 0.3819 0.0
C121 C 0.79501 0.62283 0.40519 0.0
C122 C 0.75619 0.59232 0.41307 0.0
C123 C 0.77227 0.61504 0.42066 0.0
C124 C 0.76335 0.57771 0.38961 0.0
C125 C 0.78603 0.5855 0.37422 0.0
U126 U 0.86218 0.65543 0.3661 0.0
O127 O 0.90375 0.64583 0.3526 0.0
O128 O 0.87713 0.67073 0.32683 0.0
C129 C 0.90045 0.65788 0.32897 0.0
C130 C 0.82566 0.6159 0.36529 0.0
C131 C 0.90844 0.64194 0.30509 0.0
C132 C 0.90129 0.60429 0.27371 0.0
C133 C 0.89332 0.61898 0.29669 0.0
C134 C 0.93951 0.6354 0.26749 0.0
C135 C 0.92455 0.61231 0.25885 0.0
C136 C 0.93153 0.65002 0.29037 0.0
C137 C 0.87615 0.71727 0.41142 0.0
C138 C 0.91525 0.74752 0.40513 0.0
C139 C 0.88164 0.75751 0.43956 0.0
C140 C 0.86686 0.73412 0.43225 0.0
C141 C 0.90607 0.76449 0.42617 0.0
C142 C 0.9004 0.7241 0.39781 0.0
C143 C 0.86026 0.69277 0.40415 0.0
O144 O 0.82304 0.63857 0.35134 0.0
O145 O 0.84958 0.61378 0.37729 0.0
O146 O 0.87299 0.66952 0.40719 0.0
O147 O 0.84636 0.69427 0.38131 0.0
H148 H 0.80717 0.64033 0.41139 0.0
H149 H 0.76747 0.62661 0.43869 0.0
H150 H 0.75117 0.56045 0.38286 0.0
H151 H 0.79104 0.57396 0.35621 0.0
H152 H 0.88944 0.58651 0.26775 0.0
H153 H 0.87541 0.61245 0.30789 0.0
H154 H 0.95721 0.64248 0.25629 0.0
H155 H 0.94334 0.66778 0.29651 0.0
H156 H 0.9341 0.75214 0.39457 0.0
H157 H 0.8737 0.77031 0.45551 0.0
H158 H 0.8481 0.72921 0.44286 0.0
H159 H 0.90785 0.71127 0.38163 0.0
C160 C 0.88627 0.81771 0.92256 0.0
C161 C 0.89054 0.79737 0.90301 0.0
C162 C 0.91513 0.76997 0.93622 0.0
C163 C 0.90471 0.77374 0.9098 0.0
C164 C 0.91136 0.79069 0.95554 0.0
C165 C 0.89699 0.81423 0.94879 0.0
U166 U 0.87108 0.88064 0.87927 0.0
O167 O 0.83221 0.89619 0.86364 0.0
O168 O 0.8569 0.92127 0.89157 0.0
C169 C 0.83339 0.91816 0.87886 0.0
C170 C 0.87009 0.84219 0.9163 0.0
C171 C 0.80879 0.92396 0.89495 0.0
C172 C 0.76612 0.90936 0.91576 0.0
C173 C 0.79009 0.90319 0.90186 0.0
C174 C 0.77969 0.95694 0.91707 0.0
C175 C 0.76056 0.93633 0.9233 0.0
C176 C 0.80353 0.9508 0.9029 0.0
C177 C 0.91641 0.89679 0.81778 0.0
C178 C 0.90475 0.91607 0.77372 0.0
C179 C 0.95147 0.91826 0.79002 0.0
C180 C 0.94364 0.90495 0.81391 0.0
C181 C 0.93224 0.92347 0.76935 0.0
C182 C 0.8969 0.90296 0.79773 0.0
C183 C 0.90922 0.88062 0.84207 0.0
O184 O 0.88259 0.86575 0.92 0.0
O185 O 0.85529 0.84132 0.89395 0.0
O186 O 0.88672 0.86584 0.84039 0.0
O187 O 0.91228 0.8929 0.86562 0.0
H188 H 0.88259 0.79947 0.88255 0.0
H189 H 0.90686 0.75812 0.89448 0.0
H190 H 0.9195 0.78875 0.97594 0.0
H191 H 0.89404 0.82966 0.96418 0.0
H192 H 0.75189 0.89303 0.92059 0.0
H193 H 0.79378 0.88224 0.89625 0.0
H194 H 0.77584 0.97792 0.92247 0.0
H195 H 0.8177 0.96711 0.8978 0.0
H196 H 0.88942 0.91949 0.7582 0.0
H197 H 0.9727 0.92414 0.78761 0.0
H198 H 0.959 0.90054 0.82917 0.0
H199 H 0.87568 0.89703 0.80023 0.0
C200 C 0.60548 0.13467 0.32281 0.0
C201 C 0.62068 0.11213 0.31452 0.0
C202 C 0.59086 0.10618 0.27507 0.0
C203 C 0.61342 0.09798 0.29084 0.0
C204 C 0.57557 0.12862 0.28378 0.0
C205 C 0.58283 0.1427 0.30742 0.0
U206 U 0.65343 0.14986 0.38259 0.0
O207 O 0.67002 0.18928 0.39649 0.0
O208 O 0.64429 0.16466 0.42366 0.0
C209 C 0.65692 0.1881 0.41968 0.0
C210 C 0.61361 0.15077 0.3467 0.0
C211 C 0.6414 0.21257 0.42657 0.0
C212 C 0.60081 0.24041 0.42265 0.0
C213 C 0.61487 0.21654 0.41647 0.0
C214 C 0.63968 0.25649 0.44899 0.0
C215 C 0.61317 0.26075 0.43881 0.0
C216 C 0.65363 0.2326 0.44293 0.0
C217 C 0.71593 0.10582 0.39626 0.0
C218 C 0.7595 0.11996 0.41593 0.0
C219 C 0.74593 0.07238 0.41686 0.0
C220 C 0.72148 0.07882 0.4036 0.0
C221 C 0.76538 0.09283 0.42278 0.0
C222 C 0.73494 0.12643 0.40294 0.0
C223 C 0.69071 0.11195 0.38095 0.0
O224 O 0.61155 0.13838 0.37031 0.0
O225 O 0.63645 0.16477 0.34403 0.0
O226 O 0.69148 0.13399 0.36575 0.0
O227 O 0.6677 0.10901 0.39435 0.0
H228 H 0.63829 0.1057 0.32619 0.0
H229 H 0.62546 0.08062 0.28489 0.0
H230 H 0.55837 0.13579 0.27196 0.0
H231 H 0.571 0.16019 0.31346 0.0
H232 H 0.58052 0.24321 0.41431 0.0
H233 H 0.60518 0.20132 0.40362 0.0
H234 H 0.64962 0.2716 0.46176 0.0
H235 H 0.6741 0.22986 0.45088 0.0
H236 H 0.77396 0.13618 0.42054 0.0
H237 H 0.74999 0.05128 0.42171 0.0
H238 H 0.70709 0.06263 0.39867 0.0
H239 H 0.73105 0.14749 0.39779 0.0
C240 C 0.31308 0.60433 0.14318 0.0
C241 C 0.29536 0.62529 0.13532 0.0
C242 C 0.26438 0.59221 0.11467 0.0
C243 C 0.27115 0.61925 0.12138 0.0
C244 C 0.28244 0.57133 0.12193 0.0
C245 C 0.30654 0.57735 0.13621 0.0
U246 U 0.37533 0.64915 0.15549 0.0
O247 O 0.39243 0.66611 0.19324 0.0
O248 O 0.41737 0.63942 0.16791 0.0
C249 C 0.41525 0.65248 0.1911 0.0
C250 C 0.3383 0.6104 0.15861 0.0
C251 C 0.42296 0.6372 0.21556 0.0
C252 C 0.41632 0.59901 0.24635 0.0
C253 C 0.41018 0.6123 0.22194 0.0
C254 C 0.44819 0.63532 0.25803 0.0
C255 C 0.43513 0.61059 0.26483 0.0
C256 C 0.44214 0.64849 0.23359 0.0
C257 C 0.38546 0.71099 0.10946 0.0
C258 C 0.42442 0.74175 0.11381 0.0
C259 C 0.38605 0.75397 0.08514 0.0
C260 C 0.37303 0.7294 0.09166 0.0
C261 C 0.41177 0.76053 0.09632 0.0
C262 C 0.41129 0.71719 0.12044 0.0
C263 C 0.37067 0.68605 0.11721 0.0
O264 O 0.36123 0.6076 0.14516 0.0
O265 O 0.33781 0.63255 0.17355 0.0
O266 O 0.35777 0.68736 0.14049 0.0
O267 O 0.38388 0.66314 0.11389 0.0
H268 H 0.30012 0.64635 0.14009 0.0
H269 H 0.25776 0.63576 0.11572 0.0
H270 H 0.27762 0.55029 0.11712 0.0
H271 H 0.32 0.56092 0.14197 0.0
H272 H 0.40575 0.58013 0.25114 0.0
H273 H 0.3951 0.60344 0.2083 0.0
H274 H 0.46303 0.64455 0.27167 0.0
H275 H 0.45212 0.66774 0.22898 0.0
H276 H 0.44411 0.74637 0.12292 0.0
H277 H 0.37596 0.76786 0.07134 0.0
H278 H 0.35308 0.7249 0.08305 0.0
H279 H 0.42107 0.70323 0.13441 0.0
C280 C 0.09956 0.30956 0.64898 0.0
C281 C 0.10054 0.30633 0.62066 0.0
C282 C 0.08439 0.25933 0.62494 0.0
C283 C 0.0929 0.28151 0.60875 0.0
C284 C 0.08364 0.26271 0.65332 0.0
C285 C 0.09106 0.28758 0.66517 0.0
U286 U 0.14587 0.37248 0.6542 0.0
O287 O 0.13619 0.4149 0.66459 0.0
O288 O 0.16461 0.39175 0.69008 0.0
C289 C 0.15053 0.41422 0.68722 0.0
C290 C 0.10778 0.33536 0.66212 0.0
C291 C 0.13627 0.42337 0.71172 0.0
C292 C 0.1053 0.41467 0.74922 0.0
C293 C 0.11785 0.40608 0.72529 0.0
C294 C 0.12897 0.45814 0.74585 0.0
C295 C 0.11088 0.44074 0.7599 0.0
C296 C 0.14158 0.44949 0.72199 0.0
C297 C 0.20416 0.38182 0.60351 0.0
C298 C 0.24137 0.41434 0.61004 0.0
C299 C 0.23887 0.38743 0.56887 0.0
C300 C 0.21487 0.37495 0.57815 0.0
C301 C 0.25266 0.40698 0.58488 0.0
C302 C 0.21731 0.40186 0.61927 0.0
C303 C 0.1801 0.36697 0.61375 0.0
O304 O 0.13157 0.33505 0.67458 0.0
O305 O 0.10373 0.35775 0.64802 0.0
O306 O 0.15661 0.37947 0.6113 0.0
O307 O 0.18337 0.35521 0.63752 0.0
H308 H 0.1072 0.32296 0.60773 0.0
H309 H 0.09344 0.27981 0.58684 0.0
H310 H 0.07772 0.24601 0.6665 0.0
H311 H 0.09038 0.2896 0.68707 0.0
H312 H 0.09121 0.40092 0.75936 0.0
H313 H 0.11341 0.38587 0.71752 0.0
H314 H 0.13396 0.4782 0.75368 0.0
H315 H 0.15577 0.46307 0.71176 0.0
H316 H 0.25158 0.42911 0.62299 0.0
H317 H 0.24672 0.38161 0.54921 0.0
H318 H 0.2049 0.35958 0.56568 0.0
H319 H 0.20929 0.4074 0.63896 0.0
O320 O 0.01079 0.06564 0.54763 0.0
Zn321 Zn 0.99265 0.02977 0.53778 0.0
O322 O 0.01712 0.00773 0.51528 0.0
Zn323 Zn 1.00055 1.00203 0.47942 0.0
Zn324 Zn 0.05263 0.02633 0.51138 0.0
Zn325 Zn 0.02264 0.97233 0.53245 0.0
O326 O 0.99313 0.96209 0.47196 0.0
O327 O 0.00744 0.94164 0.50956 0.0
O328 O 0.95722 0.038 0.51793 0.0
O329 O 0.96426 0.02068 0.47695 0.0
O330 O 0.02428 0.01775 0.44979 0.0
O331 O 0.0599 0.0354 0.47193 0.0
O332 O 0.08375 0.00317 0.52563 0.0
O333 O 0.9835 0.01045 0.57308 0.0
O334 O 0.06254 0.96542 0.53924 0.0
O335 O 0.00405 0.97064 0.56868 0.0
C336 C 0.03485 0.07528 0.54451 0.0
C337 C 0.99655 0.94057 0.48602 0.0
C338 C 0.04698 0.0307 0.44985 0.0
C339 C 0.94934 0.03354 0.4936 0.0
C340 C 0.08438 0.97934 0.53594 0.0
C341 C 0.9895 0.98698 0.58232 0.0
O342 O 0.05301 0.06202 0.5318 0.0
O343 O 0.50585 0.07281 0.99031 0.0
Zn344 Zn 0.48637 0.03703 0.99957 0.0
O345 O 0.51004 0.01366 0.02231 0.0
Zn346 Zn 0.51772 0.97956 0.00341 0.0
Zn347 Zn 0.54454 0.03247 0.03039 0.0
Zn348 Zn 0.49201 0.00508 0.05658 0.0
O349 O 0.50408 0.94679 0.02434 0.0
O350 O 0.48525 0.96486 0.06091 0.0
O351 O 0.4762 0.01769 0.96422 0.0
O352 O 0.49871 0.97874 0.96712 0.0
O353 O 0.55806 0.97513 0.99692 0.0
O354 O 0.5767 0.01225 0.01522 0.0
O355 O 0.55044 0.03774 0.07073 0.0
O356 O 0.45117 0.04623 0.01958 0.0
O357 O 0.51387 0.01812 0.08895 0.0
O358 O 0.45579 0.02336 0.05826 0.0
C359 C 0.52885 0.08275 0.99787 0.0
C360 C 0.4913 0.94418 0.04668 0.0
C361 C 0.57895 0.98979 1.00255 0.0
C362 C 0.4829 0.99473 0.95426 0.0
C363 C 0.5365 0.03092 0.09148 0.0
C364 C 0.4421 0.03896 0.04278 0.0
O365 O 0.54484 0.06943 0.0133 0.0
O366 O 0.5415 0.50987 0.57349 0.0
Zn367 Zn 0.53264 0.53011 0.53837 0.0
O368 O 0.50794 0.50794 0.51513 0.0
Zn369 Zn 0.52551 0.50034 0.48052 0.0
Zn370 Zn 0.49955 0.47313 0.53268 0.0
Zn371 Zn 0.4738 0.52743 0.50835 0.0
O372 O 0.50396 0.51511 0.44898 0.0
O373 O 0.46894 0.53567 0.46835 0.0
O374 O 0.56834 0.53924 0.51877 0.0
O375 O 0.56244 0.51803 0.47934 0.0
O376 O 0.53154 0.46027 0.47479 0.0
O377 O 0.51422 0.44108 0.51175 0.0
O378 O 0.45905 0.46765 0.53726 0.0
O379 O 0.51433 0.56554 0.54894 0.0
O380 O 0.44086 0.50548 0.52081 0.0
O381 O 0.47381 0.56313 0.52853 0.0
C382 C 0.53292 0.48721 0.58312 0.0
C383 C 0.48229 0.52912 0.44723 0.0
C384 C 0.52636 0.43918 0.48902 0.0
C385 C 0.57696 0.53261 0.49528 0.0
C386 C 0.43827 0.4821 0.53186 0.0
C387 C 0.491 0.57566 0.54363 0.0
O388 O 0.51659 0.47196 0.56968 0.0
O389 O 0.9789 0.51364 0.06924 0.0
Zn390 Zn 0.98854 0.49456 0.03369 0.0
O391 O 0.0125 0.51821 0.01106 0.0
Zn392 Zn 0.99486 0.52701 0.97644 0.0
Zn393 Zn 0.02102 0.55212 0.03017 0.0
Zn394 Zn 0.04655 0.49966 0.00336 0.0
O395 O 0.01654 0.51391 0.94413 0.0
O396 O 0.05222 0.49407 0.96332 0.0
O397 O 0.95324 0.48546 0.01319 0.0
O398 O 0.9583 0.50849 0.97459 0.0
O399 O 0.98873 0.56745 0.97233 0.0
O400 O 0.00685 0.5848 0.00997 0.0
O401 O 0.06154 0.55722 0.03638 0.0
O402 O 0.00763 0.45885 0.04336 0.0
O403 O 0.07911 0.51998 0.01836 0.0
O404 O 0.04667 0.46314 0.02095 0.0
C405 C 0.98693 0.53626 0.07947 0.0
C406 C 0.03878 0.50086 0.94222 0.0
C407 C 0.99447 0.58782 0.98738 0.0
C408 C 0.94432 0.49279 0.9899 0.0
C409 C 0.08203 0.54251 0.03085 0.0
C410 C 0.03075 0.44949 0.03625 0.0
O411 O 0.00315 0.55206 0.06665 0.0
H412 H 0.10209 0.14463 0.32793 0.0
H413 H 0.08953 0.07087 0.28163 0.0
H414 H 0.09042 0.1202 0.36951 0.0
H415 H 0.07853 0.04621 0.3234 0.0
H416 H 0.02597 0.02365 0.39863 0.0
H417 H 0.04121 0.04517 0.35666 0.0
H418 H 0.10744 0.0846 0.40012 0.0
H419 H 0.09205 0.06339 0.44225 0.0
C420 C 0.09689 0.12317 0.32665 0.0
C421 C 0.09659 0.10973 0.30145 0.0
C422 C 0.0905 0.1091 0.35052 0.0
C423 C 0.08356 0.08125 0.34978 0.0
C424 C 0.08358 0.06771 0.32462 0.0
C425 C 0.09011 0.08177 0.30074 0.0
C426 C 0.04393 0.03672 0.39925 0.0
C427 C 0.05767 0.04189 0.42391 0.0
C428 C 0.05274 0.04895 0.37512 0.0
C429 C 0.07545 0.06671 0.37506 0.0
C430 C 0.08964 0.07131 0.39956 0.0
C431 C 0.0809 0.059 0.42369 0.0
H432 H 0.41323 0.89971 0.82179 0.0
H433 H 0.41988 0.98075 0.78806 0.0
H434 H 0.43287 0.91607 0.86438 0.0
H435 H 0.43962 0.99714 0.83069 0.0
H436 H 0.44666 0.02147 0.921 0.0
H437 H 0.42755 0.00582 0.87777 0.0
H438 H 0.47539 0.93262 0.88342 0.0
H439 H 0.49403 0.94788 0.92669 0.0
C440 C 0.41917 0.92096 0.82334 0.0
C441 C 0.41498 0.93889 0.80146 0.0
C442 C 0.43043 0.93037 0.8478 0.0
C443 C 0.43785 0.95795 0.85101 0.0
C444 C 0.43376 0.97587 0.82909 0.0
C445 C 0.42247 0.96646 0.80462 0.0
C446 C 0.45315 1.00207 0.91299 0.0
C447 C 0.47183 0.98593 0.92746 0.0
C448 C 0.44228 0.99315 0.88812 0.0
C449 C 0.44983 0.96788 0.87713 0.0
C450 C 0.46875 0.95196 0.89146 0.0
C451 C 0.47958 0.96084 0.91626 0.0
H452 H 0.62348 0.43181 0.72525 0.0
H453 H 0.53854 0.42281 0.74725 0.0
H454 H 0.60995 0.45289 0.68229 0.0
H455 H 0.52511 0.44355 0.70432 0.0
H456 H 0.51301 0.4441 0.61208 0.0
H457 H 0.5272 0.42832 0.65663 0.0
H458 H 0.58682 0.4936 0.66142 0.0
H459 H 0.5727 0.50954 0.61632 0.0
C460 C 0.60196 0.43469 0.72113 0.0
C461 C 0.58208 0.42531 0.73957 0.0
C462 C 0.59422 0.44676 0.69651 0.0
C463 C 0.56646 0.44961 0.6898 0.0
C464 C 0.54666 0.44115 0.70868 0.0
C465 C 0.55437 0.4292 0.73326 0.0
C466 C 0.52914 0.45522 0.62253 0.0
C467 C 0.54171 0.47813 0.61055 0.0
C468 C 0.53713 0.44624 0.64822 0.0
C469 C 0.558 0.45981 0.66263 0.0
C470 C 0.57074 0.48267 0.65072 0.0
C471 C 0.56257 0.49184 0.62497 0.0
H472 H 0.89225 0.59079 0.2182 0.0
H473 H 0.97645 0.5993 0.24374 0.0
H474 H 0.90707 0.56954 0.17593 0.0
H475 H 0.99116 0.57836 0.20154 0.0
H476 H 0.00633 0.57858 0.10988 0.0
H477 H 0.99084 0.59385 0.15395 0.0
H478 H 0.93066 0.52894 0.15562 0.0
H479 H 0.94614 0.51351 0.11095 0.0
C480 C 0.91388 0.58775 0.21502 0.0
C481 C 0.93318 0.59711 0.23422 0.0
C482 C 0.92235 0.57557 0.19079 0.0
C483 C 0.9503 0.57257 0.18525 0.0
C484 C 0.9695 0.58088 0.20496 0.0
C485 C 0.96106 0.59295 0.22913 0.0
C486 C 0.98982 0.56741 0.11954 0.0
C487 C 0.97749 0.54478 0.10677 0.0
C488 C 0.98107 0.5761 0.14498 0.0
C489 C 0.95964 0.56252 0.15839 0.0
C490 C 0.94717 0.53989 0.14572 0.0
C491 C 0.95612 0.53099 0.12022 0.0
H492 H 0.31596 0.09769 0.14839 0.0
H493 H 0.27551 0.09781 0.07024 0.0
H494 H 0.35788 0.08268 0.12712 0.0
H495 H 0.31771 0.08253 0.0488 0.0
H496 H 0.40842 0.07731 0.01952 0.0
H497 H 0.36584 0.09519 0.03806 0.0
H498 H 0.37296 0.04072 0.10664 0.0
H499 H 0.41526 0.02333 0.08863 0.0
C500 C 0.316 0.09438 0.12664 0.0
C501 C 0.29228 0.09855 0.11107 0.0
C502 C 0.34004 0.08576 0.11443 0.0
C503 C 0.34105 0.08098 0.0863 0.0
C504 C 0.31764 0.08612 0.0705 0.0
C505 C 0.29348 0.09484 0.08277 0.0
C506 C 0.4008 0.06913 0.0385 0.0
C507 C 0.41546 0.04906 0.05268 0.0
C508 C 0.37638 0.07931 0.04907 0.0
C509 C 0.36621 0.06965 0.07402 0.0
C510 C 0.38052 0.04909 0.08771 0.0
C511 C 0.40478 0.03899 0.07724 0.0
H512 H 0.21962 0.87147 0.57147 0.0
H513 H 0.24668 0.94908 0.60359 0.0
H514 H 0.17756 0.89215 0.55552 0.0
H515 H 0.20396 0.96958 0.58854 0.0
H516 H 0.13571 1.00242 0.53289 0.0
H517 H 0.17895 0.98267 0.54751 0.0
H518 H 0.13603 0.91014 0.57407 0.0
H519 H 0.09306 0.9295 0.55906 0.0
C520 C 0.21667 0.89299 0.57505 0.0
C521 C 0.23663 0.9086 0.58877 0.0
C522 C 0.19236 0.90479 0.56618 0.0
C523 C 0.18728 0.93252 0.57083 0.0
C524 C 0.20729 0.94822 0.5844 0.0
C525 C 0.23166 0.93639 0.59331 0.0
C526 C 0.1355 0.98223 0.54178 0.0
C527 C 0.11085 0.96755 0.54468 0.0
C528 C 0.16029 0.97098 0.55033 0.0
C529 C 0.161 0.94477 0.5619 0.0
C530 C 0.13633 0.93018 0.56485 0.0
C531 C 0.11161 0.94139 0.55635 0.0
H532 H 0.81525 0.43334 0.88487 0.0
H533 H 0.77529 0.43754 0.96274 0.0
H534 H 0.85808 0.44783 0.90581 0.0
H535 H 0.81838 0.45225 0.98382 0.0
H536 H 0.90901 0.45583 0.01381 0.0
H537 H 0.86573 0.4383 0.99531 0.0
H538 H 0.87556 0.49003 0.92492 0.0
H539 H 0.91857 0.50708 0.94291 0.0
C540 C 0.81559 0.43748 0.90648 0.0
C541 C 0.79178 0.43464 0.92207 0.0
C542 C 0.84016 0.44579 0.9185 0.0
C543 C 0.84157 0.45157 0.94644 0.0
C544 C 0.818 0.44782 0.96228 0.0
C545 C 0.79333 0.43942 0.95021 0.0
C546 C 0.90187 0.46347 0.99442 0.0
C547 C 0.91744 0.48271 0.97978 0.0
C548 C 0.87704 0.45349 0.98388 0.0
C549 C 0.86736 0.46252 0.95848 0.0
C550 C 0.88269 0.48217 0.94423 0.0
C551 C 0.90735 0.49208 0.95469 0.0
H552 H 0.71764 0.62494 0.43658 0.0
H553 H 0.73954 0.54062 0.42612 0.0
H554 H 0.67563 0.61064 0.45947 0.0
H555 H 0.69754 0.52645 0.44863 0.0
H556 H 0.60471 0.51403 0.45144 0.0
H557 H 0.64899 0.52874 0.43477 0.0
H558 H 0.65629 0.5862 0.50077 0.0
H559 H 0.61141 0.57145 0.51768 0.0
C560 C 0.71374 0.60339 0.43952 0.0
C561 C 0.73181 0.58392 0.42915 0.0
C562 C 0.68967 0.59522 0.45265 0.0
C563 C 0.68313 0.56742 0.45557 0.0
C564 C 0.70175 0.54802 0.44622 0.0
C565 C 0.72578 0.55615 0.43323 0.0
C566 C 0.61566 0.52977 0.46255 0.0
C567 C 0.60442 0.54157 0.48593 0.0
C568 C 0.6412 0.53806 0.45305 0.0
C569 C 0.65623 0.55851 0.46653 0.0
C570 C 0.6451 0.57045 0.48991 0.0
C571 C 0.6195 0.56192 0.49964 0.0
H572 H 0.05985 0.28301 0.09556 0.0
H573 H 0.13731 0.32591 0.09789 0.0
H574 H 0.03744 0.32474 0.08017 0.0
H575 H 0.11507 0.36729 0.08264 0.0
H576 H 0.0765 0.42273 0.02103 0.0
H577 H 0.09471 0.38084 0.03919 0.0
H578 H 0.0257 0.37316 0.09303 0.0
H579 H 0.00696 0.41553 0.07448 0.0
C580 C 0.07201 0.3014 0.09314 0.0
C581 C 0.10044 0.30105 0.0975 0.0
C582 C 0.05917 0.32527 0.08435 0.0
C583 C 0.07456 0.34918 0.07977 0.0
C584 C 0.10274 0.34903 0.08533 0.0
C585 C 0.1155 0.3253 0.09405 0.0
C586 C 0.06501 0.41222 0.0367 0.0
C587 C 0.04033 0.42274 0.04646 0.0
C588 C 0.07561 0.3882 0.04723 0.0
C589 C 0.06191 0.37391 0.06788 0.0
C590 C 0.03673 0.38377 0.07712 0.0
C591 C 0.02604 0.40803 0.06653 0.0
H592 H 0.58566 0.22236 0.90428 0.0
H593 H 0.59426 0.24756 0.98797 0.0
H594 H 0.56348 0.18007 0.91912 0.0
H595 H 0.57239 0.2053 1.0027 0.0
H596 H 0.57155 0.11301 0.01729 0.0
H597 H 0.58736 0.15745 1.00216 0.0
H598 H 0.52223 0.15995 0.94277 0.0
H599 H 0.50625 0.11492 0.9579 0.0
C600 C 0.58243 0.21911 0.92579 0.0
C601 C 0.59207 0.23821 0.94496 0.0
C602 C 0.56972 0.19488 0.93427 0.0
C603 C 0.56647 0.18923 0.96208 0.0
C604 C 0.57508 0.20884 0.98114 0.0
C605 C 0.58767 0.23302 0.9727 0.0
C606 C 0.56045 0.12295 1.00104 0.0
C607 C 0.53761 0.11031 0.98879 0.0
C608 C 0.56944 0.14858 0.99251 0.0
C609 C 0.55596 0.1623 0.97138 0.0
C610 C 0.53309 0.14979 0.95904 0.0
C611 C 0.52388 0.1241 0.96779 0.0
H612 H 0.9157 0.78385 0.47746 0.0
H613 H 0.93197 0.80158 0.39306 0.0
H614 H 0.93913 0.82574 0.49064 0.0
H615 H 0.95656 0.84301 0.40636 0.0
H616 H 0.96698 0.93072 0.43954 0.0
H617 H 0.94704 0.88762 0.42447 0.0
H618 H 0.98347 0.84694 0.49336 0.0
H619 H 1.00285 0.89011 0.50881 0.0
C620 C 0.92435 0.79666 0.4617 0.0
C621 C 0.92175 0.7894 0.43418 0.0
C622 C 0.93814 0.82054 0.46929 0.0
C623 C 0.9498 0.8378 0.44958 0.0
C624 C 0.94759 0.83035 0.42206 0.0
C625 C 0.93375 0.80643 0.41445 0.0
C626 C 0.97094 0.91256 0.45138 0.0
C627 C 0.98638 0.91398 0.47552 0.0
C628 C 0.95959 0.88778 0.44264 0.0
C629 C 0.96347 0.86379 0.45779 0.0
C630 C 0.97963 0.86509 0.48146 0.0
C631 C 0.9909 0.88985 0.49024 0.0
H632 H 0.40241 0.70754 0.61941 0.0
H633 H 0.48464 0.73954 0.61307 0.0
H634 H 0.41664 0.66549 0.59774 0.0
H635 H 0.49889 0.69751 0.59119 0.0
H636 H 0.52015 0.60713 0.57991 0.0
H637 H 0.50651 0.64989 0.60072 0.0
H638 H 0.43108 0.64755 0.55483 0.0
H639 H 0.44436 0.60459 0.53455 0.0
C640 C 0.42347 0.70574 0.6131 0.0
C641 C 0.44237 0.72695 0.61799 0.0
C642 C 0.43165 0.68159 0.60064 0.0
C643 C 0.45894 0.67805 0.59266 0.0
C644 C 0.47782 0.69933 0.59744 0.0
C645 C 0.46964 0.72346 0.60996 0.0
C646 C 0.50068 0.61576 0.5742 0.0
C647 C 0.48334 0.60228 0.55561 0.0
C648 C 0.49291 0.64039 0.58604 0.0
C649 C 0.46762 0.65219 0.57956 0.0
C650 C 0.45048 0.63887 0.56068 0.0
C651 C 0.4582 0.61425 0.5489 0.0
H652 H 0.90546 0.96033 0.73683 0.0
H653 H 0.97893 0.9125 0.74134 0.0
H654 H 0.91853 0.97612 0.69165 0.0
H655 H 0.99264 0.92941 0.69706 0.0
H656 H 0.9933 0.93673 0.60566 0.0
H657 H 0.97924 0.92282 0.65084 0.0
H658 H 0.95081 0.00422 0.66674 0.0
H659 H 0.96427 0.01806 0.62099 0.0
C660 C 0.92447 0.95331 0.7283 0.0
C661 C 0.94106 0.93502 0.74275 0.0
C662 C 0.93211 0.96262 0.70251 0.0
C663 C 0.95654 0.95388 0.69059 0.0
C664 C 0.97344 0.9362 0.70538 0.0
C665 C 0.96577 0.92681 0.73103 0.0
C666 C 0.98401 0.95171 0.61871 0.0
C667 C 0.98003 0.97856 0.60968 0.0
C668 C 0.9761 0.94376 0.64475 0.0
C669 C 0.96416 0.96246 0.66259 0.0
C670 C 0.95977 0.98924 0.65347 0.0
C671 C 0.96758 0.99719 0.62727 0.0
H672 H 0.62553 0.08708 0.23604 0.0
H673 H 0.53987 0.09335 0.25544 0.0
H674 H 0.61359 0.06604 0.19269 0.0
H675 H 0.52793 0.07353 0.21165 0.0
H676 H 0.51421 0.017 0.14057 0.0
H677 H 0.5284 0.03236 0.18553 0.0
H678 H 0.59419 0.07925 0.14969 0.0
H679 H 0.58046 0.06333 0.10478 0.0
C680 C 0.60415 0.08378 0.23118 0.0
C681 C 0.58366 0.09202 0.24923 0.0
C682 C 0.5973 0.07202 0.20615 0.0
C683 C 0.56979 0.06821 0.19855 0.0
C684 C 0.54933 0.07589 0.21688 0.0
C685 C 0.55618 0.08759 0.2419 0.0
C686 C 0.53184 0.03043 0.14226 0.0
C687 C 0.54611 0.03901 0.11899 0.0
C688 C 0.53988 0.03937 0.16807 0.0
C689 C 0.56234 0.0572 0.17128 0.0
C690 C 0.577 0.06527 0.14805 0.0
C691 C 0.56902 0.05625 0.12224 0.0
H692 H 0.44358 0.5565 0.2754 0.0
H693 H 0.43879 0.63498 0.31448 0.0
H694 H 0.45287 0.53519 0.3194 0.0
H695 H 0.44866 0.61385 0.35821 0.0
H696 H 0.44061 0.56413 0.43565 0.0
H697 H 0.4276 0.58241 0.39141 0.0
H698 H 0.49049 0.53496 0.35335 0.0
H699 H 0.50339 0.51642 0.39748 0.0
C700 C 0.44441 0.56916 0.29339 0.0
C701 C 0.44058 0.59743 0.29147 0.0
C702 C 0.44993 0.557 0.31853 0.0
C703 C 0.45148 0.57284 0.34227 0.0
C704 C 0.44731 0.60105 0.34034 0.0
C705 C 0.44198 0.6132 0.31524 0.0
C706 C 0.45154 0.5574 0.41785 0.0
C707 C 0.47316 0.53891 0.42018 0.0
C708 C 0.44417 0.568 0.39251 0.0
C709 C 0.45812 0.56025 0.36892 0.0
C710 C 0.4792 0.54117 0.37112 0.0
C711 C 0.48668 0.53068 0.39647 0.0
H712 H 0.10474 0.41074 0.80634 0.0
H713 H 0.08954 0.49048 0.7727 0.0
H714 H 0.08632 0.42536 0.84978 0.0
H715 H 0.07181 0.50537 0.81647 0.0
H716 H 0.01688 0.51264 0.89214 0.0
H717 H 0.03315 0.49795 0.84774 0.0
H718 H 0.1001 0.45623 0.88649 0.0
H719 H 0.08378 0.47053 0.93076 0.0
C720 C 0.09728 0.43134 0.80815 0.0
C721 C 0.09864 0.44945 0.78605 0.0
C722 C 0.08701 0.43982 0.83315 0.0
C723 C 0.07776 0.46659 0.83665 0.0
C724 C 0.07862 0.48457 0.8144 0.0
C725 C 0.08902 0.47612 0.7894 0.0
C726 C 0.03509 0.50037 0.89119 0.0
C727 C 0.04897 0.49274 0.91508 0.0
C728 C 0.04447 0.49205 0.86573 0.0
C729 C 0.06784 0.47581 0.86359 0.0
C730 C 0.08179 0.46837 0.88744 0.0
C731 C 0.07251 0.47675 0.91284 0.0
H732 H 0.70939 0.91943 0.90876 0.0
H733 H 0.75273 0.96861 0.96778 0.0
H734 H 0.66615 0.93173 0.92928 0.0
H735 H 0.70948 0.98034 0.98905 0.0
H736 H 0.62595 0.02027 0.99968 0.0
H737 H 0.66996 0.00671 0.98173 0.0
H738 H 0.63801 0.92551 0.96753 0.0
H739 H 0.5937 0.93944 0.98445 0.0
C740 C 0.70965 0.93255 0.92643 0.0
C741 C 0.73441 0.94306 0.93668 0.0
C742 C 0.68485 0.93955 0.9383 0.0
C743 C 0.68421 0.95701 0.96092 0.0
C744 C 0.7091 0.96721 0.97139 0.0
C745 C 0.73391 0.96044 0.9593 0.0
C746 C 0.62836 0.99948 0.99286 0.0
C747 C 0.60624 0.981 0.99334 0.0
C748 C 0.65369 0.99163 0.98268 0.0
C749 C 0.65762 0.96501 0.97302 0.0
C750 C 0.63564 0.94634 0.97424 0.0
C751 C 0.61024 0.95428 0.98411 0.0
H752 H 0.81577 0.1104 0.40673 0.0
H753 H 0.77562 0.05906 0.46595 0.0
H754 H 0.86018 0.09729 0.42502 0.0
H755 H 0.8202 0.04579 0.4842 0.0
H756 H 0.90656 0.05134 0.52454 0.0
H757 H 0.86184 0.06675 0.50859 0.0
H758 H 0.88646 0.05331 0.42566 0.0
H759 H 0.93091 0.03788 0.4414 0.0
C760 C 0.81645 0.09653 0.42385 0.0
C761 C 0.79223 0.08574 0.4349 0.0
C762 C 0.84186 0.08886 0.43417 0.0
C763 C 0.84364 0.07045 0.45597 0.0
C764 C 0.81942 0.06014 0.46749 0.0
C765 C 0.79396 0.06756 0.45693 0.0
C766 C 0.90244 0.05175 0.50291 0.0
C767 C 0.92233 0.04337 0.48426 0.0
C768 C 0.87681 0.06043 0.49381 0.0
C769 C 0.87072 0.0613 0.46589 0.0
C770 C 0.89067 0.05314 0.44728 0.0
C771 C 0.91609 0.04414 0.45635 0.0
H772 H 0.25596 0.55975 0.0703 0.0
H773 H 0.21378 0.61026 0.12778 0.0
H774 H 0.21268 0.54921 0.04761 0.0
H775 H 0.17041 0.59906 0.10592 0.0
H776 H 0.0986 0.59274 0.04896 0.0
H777 H 0.14326 0.60582 0.06695 0.0
H778 H 0.17196 0.52398 0.05356 0.0
H779 H 0.12774 0.51132 0.03451 0.0
C780 C 0.23736 0.56842 0.07816 0.0
C781 C 0.23819 0.58583 0.10074 0.0
C782 C 0.21253 0.56234 0.06525 0.0
C783 C 0.18793 0.57326 0.07488 0.0
C784 C 0.18891 0.59071 0.09752 0.0
C785 C 0.21376 0.59704 0.11018 0.0
C786 C 0.11453 0.57762 0.04966 0.0
C787 C 0.10957 0.55098 0.04037 0.0
C788 C 0.14012 0.58505 0.06016 0.0
C789 C 0.16127 0.56592 0.06196 0.0
C790 C 0.15638 0.53941 0.05216 0.0
C791 C 0.13091 0.53208 0.04135 0.0
H792 H 0.27108 0.45987 0.58926 0.0
H793 H 0.2947 0.38056 0.56029 0.0
H794 H 0.31566 0.47832 0.57616 0.0
H795 H 0.33867 0.39919 0.54628 0.0
H796 H 0.42517 0.43323 0.55538 0.0
H797 H 0.38019 0.4159 0.56761 0.0
H798 H 0.34357 0.48927 0.53633 0.0
H799 H 0.38877 0.50696 0.52447 0.0
C800 C 0.28573 0.44639 0.58003 0.0
C801 C 0.27929 0.41872 0.57586 0.0
C802 C 0.31116 0.45704 0.57226 0.0
C803 C 0.33077 0.44022 0.56023 0.0
C804 C 0.32418 0.41265 0.55579 0.0
C805 C 0.2988 0.40203 0.56352 0.0
C806 C 0.40758 0.44572 0.55105 0.0
C807 C 0.41066 0.47151 0.53889 0.0
C808 C 0.38172 0.43569 0.55794 0.0
C809 C 0.35824 0.45114 0.55286 0.0
C810 C 0.36127 0.47696 0.54076 0.0
C811 C 0.38718 0.48702 0.53382 0.0
H812 H 0.91154 0.74172 0.98417 0.0
H813 H 0.95012 0.73953 0.9054 0.0
H814 H 0.93296 0.69879 0.99607 0.0
H815 H 0.97099 0.69614 0.91722 0.0
H816 H 0.9722 0.60345 0.93866 0.0
H817 H 0.95494 0.64823 0.9262 0.0
H818 H 0.97914 0.67941 0.00477 0.0
H819 H 0.99632 0.63469 0.01737 0.0
C820 C 0.92487 0.73232 0.96949 0.0
C821 C 0.92906 0.74419 0.94379 0.0
C822 C 0.93708 0.70764 0.97632 0.0
C823 C 0.95363 0.69409 0.95757 0.0
C824 C 0.95806 0.70597 0.93197 0.0
C825 C 0.94603 0.7308 0.9252 0.0
C826 C 0.97402 0.61987 0.95323 0.0
C827 C 0.98554 0.6154 0.97907 0.0
C828 C 0.96425 0.64557 0.94602 0.0
C829 C 0.96559 0.66729 0.96456 0.0
C830 C 0.97756 0.66297 0.99018 0.0
C831 C 0.98753 0.63736 0.99731 0.0
H832 H 0.38787 0.81038 0.09562 0.0
H833 H 0.46528 0.77098 0.08346 0.0
H834 H 0.40881 0.85426 0.08471 0.0
H835 H 0.48646 0.81515 0.07305 0.0
H836 H 0.50185 0.89488 0.02303 0.0
H837 H 0.48403 0.85021 0.03629 0.0
H838 H 0.4425 0.88666 0.10409 0.0
H839 H 0.46 0.9313 0.09082 0.0
C840 C 0.40938 0.81111 0.09058 0.0
C841 C 0.4249 0.78722 0.09026 0.0
C842 C 0.42144 0.83628 0.08463 0.0
C843 C 0.4493 0.83816 0.0781 0.0
C844 C 0.4649 0.8143 0.07784 0.0
C845 C 0.45285 0.78908 0.084 0.0
C846 C 0.48907 0.89336 0.04089 0.0
C847 C 0.48221 0.91674 0.05574 0.0
C848 C 0.47899 0.86773 0.04855 0.0
C849 C 0.46172 0.86496 0.07112 0.0
C850 C 0.45545 0.88821 0.08637 0.0
C851 C 0.46561 0.91379 0.07881 0.0
H852 H 0.04337 0.22407 0.64026 0.0
H853 H 0.10764 0.23412 0.58111 0.0
H854 H 0.03184 0.17983 0.62106 0.0
H855 H 0.09494 0.19064 0.5608 0.0
H856 H 0.08554 0.09881 0.54987 0.0
H857 H 0.09714 0.14313 0.569 0.0
H858 H 0.01154 0.15821 0.58296 0.0
H859 H 1.00005 0.11344 0.56474 0.0
C860 C 0.05505 0.2169 0.62313 0.0
C861 C 0.07657 0.23272 0.61238 0.0
C862 C 0.04814 0.19163 0.61183 0.0
C863 C 0.06242 0.18154 0.58932 0.0
C864 C 0.08372 0.19751 0.57835 0.0
C865 C 0.09076 0.2227 0.58978 0.0
C866 C 0.06918 0.11157 0.55702 0.0
C867 C 0.04187 0.10248 0.55583 0.0
C868 C 0.07582 0.13712 0.56785 0.0
C869 C 0.0553 0.15438 0.57754 0.0
C870 C 0.02795 0.14534 0.57614 0.0
C871 C 0.02134 0.11968 0.56554 0.0
H872 H 0.63416 0.31243 0.43728 0.0
H873 H 0.55972 0.26746 0.45359 0.0
H874 H 0.6113 0.35482 0.44821 0.0
H875 H 0.53657 0.31011 0.46398 0.0
H876 H 0.51872 0.38929 0.51321 0.0
H877 H 0.53816 0.34582 0.49973 0.0
H878 H 0.57544 0.38458 0.43017 0.0
H879 H 0.55633 0.42805 0.44368 0.0
C880 C 0.61289 0.31161 0.44321 0.0
C881 C 0.59879 0.28657 0.4447 0.0
C882 C 0.5997 0.33594 0.44918 0.0
C883 C 0.57209 0.33584 0.45689 0.0
C884 C 0.5579 0.31082 0.45827 0.0
C885 C 0.57108 0.28644 0.4521 0.0
C886 C 0.53086 0.38852 0.49491 0.0
C887 C 0.5361 0.41226 0.47966 0.0
C888 C 0.5419 0.36356 0.48712 0.0
C889 C 0.55852 0.3618 0.464 0.0
C890 C 0.56307 0.38535 0.44832 0.0
C891 C 0.55196 0.41025 0.45602 0.0
loop_
_geom_bond_atom_site_label_1
_geom_bond_atom_site_label_2
_geom_bond_distance
_geom_bond_site_symmetry_2
_ccdc_geom_bond_type
C0 C1 1.264 . S
C0 C5 1.479 . S
C0 C10 1.465 . S
C1 C0 1.264 . S
C1 C3 1.339 . S
C1 H28 0.931 . S
C2 C3 1.395 . S
C2 C4 1.320 . S
C3 C1 1.339 . S
C3 C2 1.395 . S
C3 H29 0.929 . S
C4 C2 1.320 . S
C4 C5 1.405 . S
C4 H30 0.930 . S
C5 C0 1.479 . S
C5 C4 1.405 . S
C5 H31 0.931 . S
U6 O7 2.454 . S
U6 O8 2.458 . S
U6 C9 2.984 . S
U6 C10 2.847 . S
U6 C23 2.882 . S
U6 O24 2.441 . S
U6 O25 2.420 . S
U6 O26 2.455 . S
U6 O27 2.449 . S
O7 U6 2.454 . S
O7 C9 1.353 . S
O8 U6 2.458 . S
O8 C9 1.286 . S
C9 U6 2.984 . S
C9 O7 1.353 . S
C9 O8 1.286 . S
C9 C11 1.363 . S
C10 C0 1.465 . S
C10 U6 2.847 . S
C10 O24 1.249 . S
C10 O25 1.202 . S
C11 C9 1.363 . S
C11 C13 1.408 . S
C11 C16 1.342 . S
C12 C13 1.310 . S
C12 C15 1.461 . S
C12 H32 0.932 . S
C13 C11 1.408 . S
C13 C12 1.310 . S
C13 H33 0.930 . S
C14 C15 1.474 . S
C14 C16 1.285 . S
C14 H34 0.929 . S
C15 C12 1.461 . S
C15 C14 1.474 . S
C16 C11 1.342 . S
C16 C14 1.285 . S
C16 H35 0.930 . S
C17 C20 1.424 . S
C17 C22 1.245 . S
C17 C23 1.428 . S
C18 C21 1.260 . S
C18 C22 1.477 . S
C18 H36 0.932 . S
C19 C20 1.384 . S
C19 C21 1.479 . S
C19 H37 0.929 . S
C20 C17 1.424 . S
C20 C19 1.384 . S
C20 H38 0.928 . S
C21 C18 1.260 . S
C21 C19 1.479 . S
C22 C17 1.245 . S
C22 C18 1.477 . S
C22 H39 0.932 . S
C23 U6 2.882 . S
C23 C17 1.428 . S
C23 O26 1.301 . S
C23 O27 1.282 . S
O24 U6 2.441 . S
O24 C10 1.249 . S
O25 U6 2.420 . S
O25 C10 1.202 . S
O26 U6 2.455 . S
O26 C23 1.301 . S
O27 U6 2.449 . S
O27 C23 1.282 . S
H28 C1 0.931 . S
H29 C3 0.929 . S
H30 C4 0.930 . S
H31 C5 0.931 . S
H32 C12 0.932 . S
H33 C13 0.930 . S
H34 C14 0.929 . S
H35 C16 0.930 . S
H36 C18 0.932 . S
H37 C19 0.929 . S
H38 C20 0.928 . S
H39 C22 0.932 . S
C40 C41 1.264 . S
C40 C45 1.479 . S
C40 C50 1.465 . S
C41 C40 1.264 . S
C41 C43 1.339 . S
C41 H68 0.931 . S
C42 C43 1.395 . S
C42 C44 1.320 . S
C43 C41 1.339 . S
C43 C42 1.395 . S
C43 H69 0.929 . S
C44 C42 1.320 . S
C44 C45 1.405 . S
C44 H70 0.930 . S
C45 C40 1.479 . S
C45 C44 1.405 . S
C45 H71 0.931 . S
U46 O47 2.454 . S
U46 O48 2.458 . S
U46 C49 2.984 . S
U46 C50 2.847 . S
U46 C63 2.882 . S
U46 O64 2.441 . S
U46 O65 2.420 . S
U46 O66 2.455 . S
U46 O67 2.449 . S
O47 U46 2.454 . S
O47 C49 1.353 . S
O48 U46 2.458 . S
O48 C49 1.286 . S
C49 U46 2.984 . S
C49 O47 1.353 . S
C49 O48 1.286 . S
C49 C51 1.363 . S
C50 C40 1.465 . S
C50 U46 2.847 . S
C50 O64 1.249 . S
C50 O65 1.202 . S
C51 C49 1.363 . S
C51 C53 1.408 . S
C51 C56 1.342 . S
C52 C53 1.310 . S
C52 C55 1.461 . S
C52 H72 0.932 . S
C53 C51 1.408 . S
C53 C52 1.310 . S
C53 H73 0.930 . S
C54 C55 1.474 . S
C54 C56 1.285 . S
C54 H74 0.929 . S
C55 C52 1.461 . S
C55 C54 1.474 . S
C56 C51 1.342 . S
C56 C54 1.285 . S
C56 H75 0.930 . S
C57 C60 1.424 . S
C57 C62 1.245 . S
C57 C63 1.428 . S
C58 C61 1.260 . S
C58 C62 1.477 . S
C58 H76 0.932 . S
C59 C60 1.384 . S
C59 C61 1.479 . S
C59 H77 0.929 . S
C60 C57 1.424 . S
C60 C59 1.384 . S
C60 H78 0.928 . S
C61 C58 1.260 . S
C61 C59 1.479 . S
C62 C57 1.245 . S
C62 C58 1.477 . S
C62 H79 0.932 . S
C63 U46 2.882 . S
C63 C57 1.428 . S
C63 O66 1.301 . S
C63 O67 1.282 . S
O64 U46 2.441 . S
O64 C50 1.249 . S
O65 U46 2.420 . S
O65 C50 1.202 . S
O66 U46 2.455 . S
O66 C63 1.301 . S
O67 U46 2.449 . S
O67 C63 1.282 . S
H68 C41 0.931 . S
H69 C43 0.929 . S
H70 C44 0.930 . S
H71 C45 0.931 . S
H72 C52 0.932 . S
H73 C53 0.930 . S
H74 C54 0.929 . S
H75 C56 0.930 . S
H76 C58 0.932 . S
H77 C59 0.929 . S
H78 C60 0.928 . S
H79 C62 0.932 . S
C80 C81 1.264 . S
C80 C85 1.479 . S
C80 C90 1.465 . S
C81 C80 1.264 . S
C81 C83 1.339 . S
C81 H108 0.931 . S
C82 C83 1.395 . S
C82 C84 1.320 . S
C83 C81 1.339 . S
C83 C82 1.395 . S
C83 H109 0.929 . S
C84 C82 1.320 . S
C84 C85 1.405 . S
C84 H110 0.930 . S
C85 C80 1.479 . S
C85 C84 1.405 . S
C85 H111 0.931 . S
U86 O87 2.454 . S
U86 O88 2.458 . S
U86 C89 2.984 . S
U86 C90 2.847 . S
U86 C103 2.882 . S
U86 O104 2.441 . S
U86 O105 2.420 . S
U86 O106 2.455 . S
U86 O107 2.449 . S
O87 U86 2.454 . S
O87 C89 1.353 . S
O88 U86 2.458 . S
O88 C89 1.286 . S
C89 U86 2.984 . S
C89 O87 1.353 . S
C89 O88 1.286 . S
C89 C91 1.363 . S
C90 C80 1.465 . S
C90 U86 2.847 . S
C90 O104 1.249 . S
C90 O105 1.202 . S
C91 C89 1.363 . S
C91 C93 1.408 . S
C91 C96 1.342 . S
C92 C93 1.310 . S
C92 C95 1.461 . S
C92 H112 0.932 . S
C93 C91 1.408 . S
C93 C92 1.310 . S
C93 H113 0.930 . S
C94 C95 1.474 . S
C94 C96 1.285 . S
C94 H114 0.929 . S
C95 C92 1.461 . S
C95 C94 1.474 . S
C96 C91 1.342 . S
C96 C94 1.285 . S
C96 H115 0.930 . S
C97 C100 1.424 . S
C97 C102 1.245 . S
C97 C103 1.428 . S
C98 C101 1.260 . S
C98 C102 1.477 . S
C98 H116 0.932 . S
C99 C100 1.384 . S
C99 C101 1.479 . S
C99 H117 0.929 . S
C100 C97 1.424 . S
C100 C99 1.384 . S
C100 H118 0.928 . S
C101 C98 1.260 . S
C101 C99 1.479 . S
C102 C97 1.245 . S
C102 C98 1.477 . S
C102 H119 0.932 . S
C103 U86 2.882 . S
C103 C97 1.428 . S
C103 O106 1.301 . S
C103 O107 1.282 . S
O104 U86 2.441 . S
O104 C90 1.249 . S
O105 U86 2.420 . S
O105 C90 1.202 . S
O106 U86 2.455 . S
O106 C103 1.301 . S
O107 U86 2.449 . S
O107 C103 1.282 . S
H108 C81 0.931 . S
H109 C83 0.929 . S
H110 C84 0.930 . S
H111 C85 0.931 . S
H112 C92 0.932 . S
H113 C93 0.930 . S
H114 C94 0.929 . S
H115 C96 0.930 . S
H116 C98 0.932 . S
H117 C99 0.929 . S
H118 C100 0.928 . S
H119 C102 0.932 . S
C120 C121 1.264 . S
C120 C125 1.479 . S
C120 C130 1.465 . S
C121 C120 1.264 . S
C121 C123 1.339 . S
C121 H148 0.931 . S
C122 C123 1.395 . S
C122 C124 1.320 . S
C123 C121 1.339 . S
C123 C122 1.395 . S
C123 H149 0.929 . S
C124 C122 1.320 . S
C124 C125 1.405 . S
C124 H150 0.930 . S
C125 C120 1.479 . S
C125 C124 1.405 . S
C125 H151 0.931 . S
U126 O127 2.454 . S
U126 O128 2.458 . S
U126 C129 2.984 . S
U126 C130 2.847 . S
U126 C143 2.882 . S
U126 O144 2.441 . S
U126 O145 2.420 . S
U126 O146 2.455 . S
U126 O147 2.449 . S
O127 U126 2.454 . S
O127 C129 1.353 . S
O128 U126 2.458 . S
O128 C129 1.286 . S
C129 U126 2.984 . S
C129 O127 1.353 . S
C129 O128 1.286 . S
C129 C131 1.363 . S
C130 C120 1.465 . S
C130 U126 2.847 . S
C130 O144 1.249 . S
C130 O145 1.202 . S
C131 C129 1.363 . S
C131 C133 1.408 . S
C131 C136 1.342 . S
C132 C133 1.310 . S
C132 C135 1.461 . S
C132 H152 0.932 . S
C133 C131 1.408 . S
C133 C132 1.310 . S
C133 H153 0.930 . S
C134 C135 1.474 . S
C134 C136 1.285 . S
C134 H154 0.929 . S
C135 C132 1.461 . S
C135 C134 1.474 . S
C136 C131 1.342 . S
C136 C134 1.285 . S
C136 H155 0.930 . S
C137 C140 1.424 . S
C137 C142 1.245 . S
C137 C143 1.428 . S
C138 C141 1.260 . S
C138 C142 1.477 . S
C138 H156 0.932 . S
C139 C140 1.384 . S
C139 C141 1.479 . S
C139 H157 0.929 . S
C140 C137 1.424 . S
C140 C139 1.384 . S
C140 H158 0.928 . S
C141 C138 1.260 . S
C141 C139 1.479 . S
C142 C137 1.245 . S
C142 C138 1.477 . S
C142 H159 0.932 . S
C143 U126 2.882 . S
C143 C137 1.428 . S
C143 O146 1.301 . S
C143 O147 1.282 . S
O144 U126 2.441 . S
O144 C130 1.249 . S
O145 U126 2.420 . S
O145 C130 1.202 . S
O146 U126 2.455 . S
O146 C143 1.301 . S
O147 U126 2.449 . S
O147 C143 1.282 . S
H148 C121 0.931 . S
H149 C123 0.929 . S
H150 C124 0.930 . S
H151 C125 0.931 . S
H152 C132 0.932 . S
H153 C133 0.930 . S
H154 C134 0.929 . S
H155 C136 0.930 . S
H156 C138 0.932 . S
H157 C139 0.929 . S
H158 C140 0.928 . S
H159 C142 0.932 . S
C160 C161 1.264 . S
C160 C165 1.479 . S
C160 C170 1.465 . S
C161 C160 1.264 . S
C161 C163 1.339 . S
C161 H188 0.931 . S
C162 C163 1.395 . S
C162 C164 1.320 . S
C163 C161 1.339 . S
C163 C162 1.395 . S
C163 H189 0.929 . S
C164 C162 1.320 . S
C164 C165 1.405 . S
C164 H190 0.930 . S
C165 C160 1.479 . S
C165 C164 1.405 . S
C165 H191 0.931 . S
U166 O167 2.454 . S
U166 O168 2.458 . S
U166 C169 2.984 . S
U166 C170 2.847 . S
U166 C183 2.882 . S
U166 O184 2.441 . S
U166 O185 2.420 . S
U166 O186 2.455 . S
U166 O187 2.449 . S
O167 U166 2.454 . S
O167 C169 1.353 . S
O168 U166 2.458 . S
O168 C169 1.286 . S
C169 U166 2.984 . S
C169 O167 1.353 . S
C169 O168 1.286 . S
C169 C171 1.363 . S
C170 C160 1.465 . S
C170 U166 2.847 . S
C170 O184 1.249 . S
C170 O185 1.202 . S
C171 C169 1.363 . S
C171 C173 1.408 . S
C171 C176 1.342 . S
C172 C173 1.310 . S
C172 C175 1.461 . S
C172 H192 0.932 . S
C173 C171 1.408 . S
C173 C172 1.310 . S
C173 H193 0.930 . S
C174 C175 1.474 . S
C174 C176 1.285 . S
C174 H194 0.929 1_565 S
C175 C172 1.461 . S
C175 C174 1.474 . S
C176 C171 1.342 . S
C176 C174 1.285 . S
C176 H195 0.930 . S
C177 C180 1.424 . S
C177 C182 1.245 . S
C177 C183 1.428 . S
C178 C181 1.260 . S
C178 C182 1.477 . S
C178 H196 0.932 1_565 S
C179 C180 1.384 . S
C179 C181 1.479 . S
C179 H197 0.929 . S
C180 C177 1.424 . S
C180 C179 1.384 . S
C180 H198 0.928 . S
C181 C178 1.260 . S
C181 C179 1.479 . S
C182 C177 1.245 . S
C182 C178 1.477 . S
C182 H199 0.932 . S
C183 U166 2.882 . S
C183 C177 1.428 . S
C183 O186 1.301 . S
C183 O187 1.282 . S
O184 U166 2.441 . S
O184 C170 1.249 . S
O185 U166 2.420 . S
O185 C170 1.202 . S
O186 U166 2.455 . S
O186 C183 1.301 . S
O187 U166 2.449 . S
O187 C183 1.282 . S
H188 C161 0.931 . S
H189 C163 0.929 . S
H190 C164 0.930 . S
H191 C165 0.931 . S
H192 C172 0.932 . S
H193 C173 0.930 . S
H194 C174 0.929 1_545 S
H195 C176 0.930 . S
H196 C178 0.932 1_545 S
H197 C179 0.929 . S
H198 C180 0.928 . S
H199 C182 0.932 . S
C200 C201 1.264 . S
C200 C205 1.479 . S
C200 C210 1.465 . S
C201 C200 1.264 . S
C201 C203 1.339 . S
C201 H228 0.931 . S
C202 C203 1.395 . S
C202 C204 1.320 . S
C203 C201 1.339 . S
C203 C202 1.395 . S
C203 H229 0.929 . S
C204 C202 1.320 . S
C204 C205 1.405 . S
C204 H230 0.930 . S
C205 C200 1.479 . S
C205 C204 1.405 . S
C205 H231 0.931 . S
U206 O207 2.454 . S
U206 O208 2.458 . S
U206 C209 2.984 . S
U206 C210 2.847 . S
U206 C223 2.882 . S
U206 O224 2.441 . S
U206 O225 2.420 . S
U206 O226 2.455 . S
U206 O227 2.449 . S
O207 U206 2.454 . S
O207 C209 1.353 . S
O208 U206 2.458 . S
O208 C209 1.286 . S
C209 U206 2.984 . S
C209 O207 1.353 . S
C209 O208 1.286 . S
C209 C211 1.363 . S
C210 C200 1.465 . S
C210 U206 2.847 . S
C210 O224 1.249 . S
C210 O225 1.202 . S
C211 C209 1.363 . S
C211 C213 1.408 . S
C211 C216 1.342 . S
C212 C213 1.310 . S
C212 C215 1.461 . S
C212 H232 0.932 . S
C213 C211 1.408 . S
C213 C212 1.310 . S
C213 H233 0.930 . S
C214 C215 1.474 . S
C214 C216 1.285 . S
C214 H234 0.929 . S
C215 C212 1.461 . S
C215 C214 1.474 . S
C216 C211 1.342 . S
C216 C214 1.285 . S
C216 H235 0.930 . S
C217 C220 1.424 . S
C217 C222 1.245 . S
C217 C223 1.428 . S
C218 C221 1.260 . S
C218 C222 1.477 . S
C218 H236 0.932 . S
C219 C220 1.384 . S
C219 C221 1.479 . S
C219 H237 0.929 . S
C220 C217 1.424 . S
C220 C219 1.384 . S
C220 H238 0.928 . S
C221 C218 1.260 . S
C221 C219 1.479 . S
C222 C217 1.245 . S
C222 C218 1.477 . S
C222 H239 0.932 . S
C223 U206 2.882 . S
C223 C217 1.428 . S
C223 O226 1.301 . S
C223 O227 1.282 . S
O224 U206 2.441 . S
O224 C210 1.249 . S
O225 U206 2.420 . S
O225 C210 1.202 . S
O226 U206 2.455 . S
O226 C223 1.301 . S
O227 U206 2.449 . S
O227 C223 1.282 . S
H228 C201 0.931 . S
H229 C203 0.929 . S
H230 C204 0.930 . S
H231 C205 0.931 . S
H232 C212 0.932 . S
H233 C213 0.930 . S
H234 C214 0.929 . S
H235 C216 0.930 . S
H236 C218 0.932 . S
H237 C219 0.929 . S
H238 C220 0.928 . S
H239 C222 0.932 . S
C240 C241 1.264 . S
C240 C245 1.479 . S
C240 C250 1.465 . S
C241 C240 1.264 . S
C241 C243 1.339 . S
C241 H268 0.931 . S
C242 C243 1.395 . S
C242 C244 1.320 . S
C243 C241 1.339 . S
C243 C242 1.395 . S
C243 H269 0.929 . S
C244 C242 1.320 . S
C244 C245 1.405 . S
C244 H270 0.930 . S
C245 C240 1.479 . S
C245 C244 1.405 . S
C245 H271 0.931 . S
U246 O247 2.454 . S
U246 O248 2.458 . S
U246 C249 2.984 . S
U246 C250 2.847 . S
U246 C263 2.882 . S
U246 O264 2.441 . S
U246 O265 2.420 . S
U246 O266 2.455 . S
U246 O267 2.449 . S
O247 U246 2.454 . S
O247 C249 1.353 . S
O248 U246 2.458 . S
O248 C249 1.286 . S
C249 U246 2.984 . S
C249 O247 1.353 . S
C249 O248 1.286 . S
C249 C251 1.363 . S
C250 C240 1.465 . S
C250 U246 2.847 . S
C250 O264 1.249 . S
C250 O265 1.202 . S
C251 C249 1.363 . S
C251 C253 1.408 . S
C251 C256 1.342 . S
C252 C253 1.310 . S
C252 C255 1.461 . S
C252 H272 0.932 . S
C253 C251 1.408 . S
C253 C252 1.310 . S
C253 H273 0.930 . S
C254 C255 1.474 . S
C254 C256 1.285 . S
C254 H274 0.929 . S
C255 C252 1.461 . S
C255 C254 1.474 . S
C256 C251 1.342 . S
C256 C254 1.285 . S
C256 H275 0.930 . S
C257 C260 1.424 . S
C257 C262 1.245 . S
C257 C263 1.428 . S
C258 C261 1.260 . S
C258 C262 1.477 . S
C258 H276 0.932 . S
C259 C260 1.384 . S
C259 C261 1.479 . S
C259 H277 0.929 . S
C260 C257 1.424 . S
C260 C259 1.384 . S
C260 H278 0.928 . S
C261 C258 1.260 . S
C261 C259 1.479 . S
C262 C257 1.245 . S
C262 C258 1.477 . S
C262 H279 0.932 . S
C263 U246 2.882 . S
C263 C257 1.428 . S
C263 O266 1.301 . S
C263 O267 1.282 . S
O264 U246 2.441 . S
O264 C250 1.249 . S
O265 U246 2.420 . S
O265 C250 1.202 . S
O266 U246 2.455 . S
O266 C263 1.301 . S
O267 U246 2.449 . S
O267 C263 1.282 . S
H268 C241 0.931 . S
H269 C243 0.929 . S
H270 C244 0.930 . S
H271 C245 0.931 . S
H272 C252 0.932 . S
H273 C253 0.930 . S
H274 C254 0.929 . S
H275 C256 0.930 . S
H276 C258 0.932 . S
H277 C259 0.929 . S
H278 C260 0.928 . S
H279 C262 0.932 . S
C280 C281 1.264 . S
C280 C285 1.479 . S
C280 C290 1.465 . S
C281 C280 1.264 . S
C281 C283 1.339 . S
C281 H308 0.931 . S
C282 C283 1.395 . S
C282 C284 1.320 . S
C283 C281 1.339 . S
C283 C282 1.395 . S
C283 H309 0.929 . S
C284 C282 1.320 . S
C284 C285 1.405 . S
C284 H310 0.930 . S
C285 C280 1.479 . S
C285 C284 1.405 . S
C285 H311 0.931 . S
U286 O287 2.454 . S
U286 O288 2.458 . S
U286 C289 2.984 . S
U286 C290 2.847 . S
U286 C303 2.882 . S
U286 O304 2.441 . S
U286 O305 2.420 . S
U286 O306 2.455 . S
U286 O307 2.449 . S
O287 U286 2.454 . S
O287 C289 1.353 . S
O288 U286 2.458 . S
O288 C289 1.286 . S
C289 U286 2.984 . S
C289 O287 1.353 . S
C289 O288 1.286 . S
C289 C291 1.363 . S
C290 C280 1.465 . S
C290 U286 2.847 . S
C290 O304 1.249 . S
C290 O305 1.202 . S
C291 C289 1.363 . S
C291 C293 1.408 . S
C291 C296 1.342 . S
C292 C293 1.310 . S
C292 C295 1.461 . S
C292 H312 0.932 . S
C293 C291 1.408 . S
C293 C292 1.310 . S
C293 H313 0.930 . S
C294 C295 1.474 . S
C294 C296 1.285 . S
C294 H314 0.929 . S
C295 C292 1.461 . S
C295 C294 1.474 . S
C296 C291 1.342 . S
C296 C294 1.285 . S
C296 H315 0.930 . S
C297 C300 1.424 . S
C297 C302 1.245 . S
C297 C303 1.428 . S
C298 C301 1.260 . S
C298 C302 1.477 . S
C298 H316 0.932 . S
C299 C300 1.384 . S
C299 C301 1.479 . S
C299 H317 0.929 . S
C300 C297 1.424 . S
C300 C299 1.384 . S
C300 H318 0.928 . S
C301 C298 1.260 . S
C301 C299 1.479 . S
C302 C297 1.245 . S
C302 C298 1.477 . S
C302 H319 0.932 . S
C303 U286 2.882 . S
C303 C297 1.428 . S
C303 O306 1.301 . S
C303 O307 1.282 . S
O304 U286 2.441 . S
O304 C290 1.249 . S
O305 U286 2.420 . S
O305 C290 1.202 . S
O306 U286 2.455 . S
O306 C303 1.301 . S
O307 U286 2.449 . S
O307 C303 1.282 . S
H308 C281 0.931 . S
H309 C283 0.929 . S
H310 C284 0.930 . S
H311 C285 0.931 . S
H312 C292 0.932 . S
H313 C293 0.930 . S
H314 C294 0.929 . S
H315 C296 0.930 . S
H316 C298 0.932 . S
H317 C299 0.929 . S
H318 C300 0.928 . S
H319 C302 0.932 . S
O320 Zn321 1.955 . S
O320 C336 1.220 1_655 S
Zn321 O320 1.955 . S
Zn321 O322 1.949 1_655 S
Zn321 O328 1.919 . S
Zn321 O333 1.924 . S
O322 Zn321 1.949 1_455 S
O322 Zn323 1.923 1_445 S
O322 Zn324 1.950 . S
O322 Zn325 1.945 1_545 S
Zn323 O322 1.923 1_665 S
Zn323 O326 1.933 . S
Zn323 O329 1.941 1_565 S
Zn323 O330 1.965 1_665 S
Zn324 O322 1.950 . S
Zn324 O331 1.938 . S
Zn324 O332 1.906 . S
Zn324 O342 1.953 . S
Zn325 O322 1.945 1_565 S
Zn325 O327 1.932 1_455 S
Zn325 O334 1.977 . S
Zn325 O335 1.910 1_455 S
O326 Zn323 1.933 . S
O326 C337 1.226 . S
O327 Zn325 1.932 1_655 S
O327 C337 1.307 . S
O328 Zn321 1.919 . S
O328 C339 1.253 . S
O329 Zn323 1.941 1_545 S
O329 C339 1.283 . S
O330 Zn323 1.965 1_445 S
O330 C338 1.303 . S
O331 Zn324 1.938 . S
O331 C338 1.247 . S
O332 Zn324 1.906 . S
O332 C340 1.304 1_545 S
O333 Zn321 1.924 . S
O333 C341 1.311 . S
O334 Zn325 1.977 . S
O334 C340 1.272 . S
O335 Zn325 1.910 1_655 S
O335 C341 1.231 1_565 S
C336 O320 1.220 1_455 S
C336 O342 1.298 . S
C337 O326 1.226 . S
C337 O327 1.307 . S
C338 O330 1.303 . S
C338 O331 1.247 . S
C339 O328 1.253 . S
C339 O329 1.283 . S
C340 O332 1.304 1_565 S
C340 O334 1.272 . S
C341 O333 1.311 . S
C341 O335 1.231 1_545 S
O342 Zn324 1.953 . S
O342 C336 1.298 . S
O343 Zn344 1.953 . S
O343 C359 1.225 . S
Zn344 O343 1.953 . S
Zn344 O345 1.949 1_556 S
Zn344 O351 1.919 . S
Zn344 O356 1.924 1_556 S
O345 Zn344 1.949 1_554 S
O345 Zn346 1.923 1_545 S
O345 Zn347 1.950 . S
O345 Zn348 1.945 1_545 S
Zn346 O345 1.923 1_565 S
Zn346 O349 1.933 . S
Zn346 O352 1.941 1_554 S
Zn346 O353 1.965 . S
Zn347 O345 1.950 . S
Zn347 O354 1.938 . S
Zn347 O355 1.906 . S
Zn347 O365 1.953 . S
Zn348 O345 1.945 1_565 S
Zn348 O350 1.932 . S
Zn348 O357 1.977 1_565 S
Zn348 O358 1.910 1_565 S
O349 Zn346 1.933 . S
O349 C360 1.226 . S
O350 Zn348 1.932 . S
O350 C360 1.307 . S
O351 Zn344 1.919 . S
O351 C362 1.253 1_545 S
O352 Zn346 1.941 1_556 S
O352 C362 1.283 . S
O353 Zn346 1.965 . S
O353 C361 1.303 . S
O354 Zn347 1.938 . S
O354 C361 1.247 1_545 S
O355 Zn347 1.906 . S
O355 C363 1.304 . S
O356 Zn344 1.924 1_554 S
O356 C364 1.311 . S
O357 Zn348 1.977 1_545 S
O357 C363 1.272 . S
O358 Zn348 1.910 1_545 S
O358 C364 1.231 . S
C359 O343 1.225 . S
C359 O365 1.298 1_556 S
C360 O349 1.226 . S
C360 O350 1.307 . S
C361 O353 1.303 . S
C361 O354 1.247 1_565 S
C362 O351 1.253 1_565 S
C362 O352 1.283 . S
C363 O355 1.304 . S
C363 O357 1.272 . S
C364 O356 1.311 . S
C364 O358 1.231 . S
O365 Zn347 1.953 . S
O365 C359 1.298 1_554 S
O366 Zn367 1.953 . S
O366 C382 1.225 . S
Zn367 O366 1.953 . S
Zn367 O368 1.949 . S
Zn367 O374 1.919 . S
Zn367 O379 1.924 . S
O368 Zn367 1.949 . S
O368 Zn369 1.923 . S
O368 Zn370 1.950 . S
O368 Zn371 1.945 . S
Zn369 O368 1.923 . S
Zn369 O372 1.933 . S
Zn369 O375 1.941 . S
Zn369 O376 1.965 . S
Zn370 O368 1.950 . S
Zn370 O377 1.938 . S
Zn370 O378 1.906 . S
Zn370 O388 1.953 . S
Zn371 O368 1.945 . S
Zn371 O373 1.932 . S
Zn371 O380 1.977 . S
Zn371 O381 1.910 . S
O372 Zn369 1.933 . S
O372 C383 1.226 . S
O373 Zn371 1.932 . S
O373 C383 1.307 . S
O374 Zn367 1.919 . S
O374 C385 1.253 . S
O375 Zn369 1.941 . S
O375 C385 1.283 . S
O376 Zn369 1.965 . S
O376 C384 1.303 . S
O377 Zn370 1.938 . S
O377 C384 1.247 . S
O378 Zn370 1.906 . S
O378 C386 1.304 . S
O379 Zn367 1.924 . S
O379 C387 1.311 . S
O380 Zn371 1.977 . S
O380 C386 1.272 . S
O381 Zn371 1.910 . S
O381 C387 1.231 . S
C382 O366 1.225 . S
C382 O388 1.298 . S
C383 O372 1.226 . S
C383 O373 1.307 . S
C384 O376 1.303 . S
C384 O377 1.247 . S
C385 O374 1.253 . S
C385 O375 1.283 . S
C386 O378 1.304 . S
C386 O380 1.272 . S
C387 O379 1.311 . S
C387 O381 1.231 . S
O388 Zn370 1.953 . S
O388 C382 1.298 . S
O389 Zn390 1.953 . S
O389 C405 1.225 . S
Zn390 O389 1.953 . S
Zn390 O391 1.949 1_655 S
Zn390 O397 1.919 . S
Zn390 O402 1.924 . S
O391 Zn390 1.949 1_455 S
O391 Zn392 1.923 1_454 S
O391 Zn393 1.950 . S
O391 Zn394 1.945 1_554 S
Zn392 O391 1.923 1_656 S
Zn392 O395 1.933 1_655 S
Zn392 O398 1.941 . S
Zn392 O399 1.965 . S
Zn393 O391 1.950 . S
Zn393 O400 1.938 . S
Zn393 O401 1.906 . S
Zn393 O411 1.953 . S
Zn394 O391 1.945 1_556 S
Zn394 O396 1.932 . S
Zn394 O403 1.977 1_556 S
Zn394 O404 1.910 1_556 S
O395 Zn392 1.933 1_455 S
O395 C406 1.226 . S
O396 Zn394 1.932 . S
O396 C406 1.307 . S
O397 Zn390 1.919 . S
O397 C408 1.253 1_554 S
O398 Zn392 1.941 . S
O398 C408 1.283 . S
O399 Zn392 1.965 . S
O399 C407 1.303 . S
O400 Zn393 1.938 . S
O400 C407 1.247 1_454 S
O401 Zn393 1.906 . S
O401 C409 1.304 . S
O402 Zn390 1.924 . S
O402 C410 1.311 1_655 S
O403 Zn394 1.977 1_554 S
O403 C409 1.272 . S
O404 Zn394 1.910 1_554 S
O404 C410 1.231 . S
C405 O389 1.225 . S
C405 O411 1.298 1_655 S
C406 O395 1.226 . S
C406 O396 1.307 . S
C407 O399 1.303 . S
C407 O400 1.247 1_656 S
C408 O397 1.253 1_556 S
C408 O398 1.283 . S
C409 O401 1.304 . S
C409 O403 1.272 . S
C410 O402 1.311 1_455 S
C410 O404 1.231 . S
O411 Zn393 1.953 . S
O411 C405 1.298 1_455 S
H412 C420 0.950 . S
H413 C425 0.950 . S
H414 C422 0.950 . S
H415 C424 0.950 . S
H416 C426 0.950 . S
H417 C428 0.950 . S
H418 C430 0.950 . S
H419 C431 0.950 . S
C420 H412 0.950 . S
C420 C421 1.386 . S
C420 C422 1.391 . S
C421 C420 1.386 . S
C421 C425 1.393 . S
C422 H414 0.950 . S
C422 C420 1.391 . S
C422 C423 1.400 . S
C423 C422 1.400 . S
C423 C424 1.398 . S
C423 C429 1.491 . S
C424 H415 0.950 . S
C424 C423 1.398 . S
C424 C425 1.391 . S
C425 H413 0.950 . S
C425 C421 1.393 . S
C425 C424 1.391 . S
C426 H416 0.950 . S
C426 C427 1.386 . S
C426 C428 1.391 . S
C427 C426 1.386 . S
C427 C431 1.393 . S
C428 H417 0.950 . S
C428 C426 1.391 . S
C428 C429 1.400 . S
C429 C423 1.491 . S
C429 C428 1.400 . S
C429 C430 1.398 . S
C430 H418 0.950 . S
C430 C429 1.398 . S
C430 C431 1.391 . S
C431 H419 0.950 . S
C431 C427 1.393 . S
C431 C430 1.391 . S
H432 C440 0.950 . S
H433 C445 0.950 . S
H434 C442 0.950 . S
H435 C444 0.950 . S
H436 C446 0.950 . S
H437 C448 0.950 . S
H438 C450 0.950 . S
H439 C451 0.950 . S
C440 H432 0.950 . S
C440 C441 1.386 . S
C440 C442 1.391 . S
C441 C440 1.386 . S
C441 C445 1.393 . S
C442 H434 0.950 . S
C442 C440 1.391 . S
C442 C443 1.400 . S
C443 C442 1.400 . S
C443 C444 1.398 . S
C443 C449 1.491 . S
C444 H435 0.950 . S
C444 C443 1.398 . S
C444 C445 1.391 . S
C445 H433 0.950 . S
C445 C441 1.393 . S
C445 C444 1.391 . S
C446 H436 0.950 . S
C446 C447 1.386 . S
C446 C448 1.391 . S
C447 C446 1.386 . S
C447 C451 1.393 . S
C448 H437 0.950 . S
C448 C446 1.391 . S
C448 C449 1.400 . S
C449 C443 1.491 . S
C449 C448 1.400 . S
C449 C450 1.398 . S
C450 H438 0.950 . S
C450 C449 1.398 . S
C450 C451 1.391 . S
C451 H439 0.950 . S
C451 C447 1.393 . S
C451 C450 1.391 . S
H452 C460 0.950 . S
H453 C465 0.950 . S
H454 C462 0.950 . S
H455 C464 0.950 . S
H456 C466 0.950 . S
H457 C468 0.950 . S
H458 C470 0.950 . S
H459 C471 0.950 . S
C460 H452 0.950 . S
C460 C461 1.386 . S
C460 C462 1.391 . S
C461 C460 1.386 . S
C461 C465 1.393 . S
C462 H454 0.950 . S
C462 C460 1.391 . S
C462 C463 1.400 . S
C463 C462 1.400 . S
C463 C464 1.398 . S
C463 C469 1.491 . S
C464 H455 0.950 . S
C464 C463 1.398 . S
C464 C465 1.391 . S
C465 H453 0.950 . S
C465 C461 1.393 . S
C465 C464 1.391 . S
C466 H456 0.950 . S
C466 C467 1.386 . S
C466 C468 1.391 . S
C467 C466 1.386 . S
C467 C471 1.393 . S
C468 H457 0.950 . S
C468 C466 1.391 . S
C468 C469 1.400 . S
C469 C463 1.491 . S
C469 C468 1.400 . S
C469 C470 1.398 . S
C470 H458 0.950 . S
C470 C469 1.398 . S
C470 C471 1.391 . S
C471 H459 0.950 . S
C471 C467 1.393 . S
C471 C470 1.391 . S
H472 C480 0.950 . S
H473 C485 0.950 . S
H474 C482 0.950 . S
H475 C484 0.950 1_455 S
H476 C486 0.950 . S
H477 C488 0.950 1_455 S
H478 C490 0.950 . S
H479 C491 0.950 . S
C480 H472 0.950 . S
C480 C481 1.386 . S
C480 C482 1.391 . S
C481 C480 1.386 . S
C481 C485 1.393 . S
C482 H474 0.950 . S
C482 C480 1.391 . S
C482 C483 1.400 . S
C483 C482 1.400 . S
C483 C484 1.398 . S
C483 C489 1.491 . S
C484 H475 0.950 1_655 S
C484 C483 1.398 . S
C484 C485 1.391 . S
C485 H473 0.950 . S
C485 C481 1.393 . S
C485 C484 1.391 . S
C486 H476 0.950 . S
C486 C487 1.386 1_455 S
C486 C488 1.391 1_455 S
C487 C486 1.386 1_655 S
C487 C491 1.393 . S
C488 H477 0.950 1_655 S
C488 C486 1.391 1_655 S
C488 C489 1.400 . S
C489 C483 1.491 . S
C489 C488 1.400 . S
C489 C490 1.398 . S
C490 H478 0.950 . S
C490 C489 1.398 . S
C490 C491 1.391 . S
C491 H479 0.950 . S
C491 C487 1.393 . S
C491 C490 1.391 . S
H492 C500 0.950 . S
H493 C505 0.950 . S
H494 C502 0.950 . S
H495 C504 0.950 . S
H496 C506 0.950 . S
H497 C508 0.950 . S
H498 C510 0.950 . S
H499 C511 0.950 . S
C500 H492 0.950 . S
C500 C501 1.386 . S
C500 C502 1.391 . S
C501 C500 1.386 . S
C501 C505 1.393 . S
C502 H494 0.950 . S
C502 C500 1.391 . S
C502 C503 1.400 . S
C503 C502 1.400 . S
C503 C504 1.398 . S
C503 C509 1.491 . S
C504 H495 0.950 . S
C504 C503 1.398 . S
C504 C505 1.391 . S
C505 H493 0.950 . S
C505 C501 1.393 . S
C505 C504 1.391 . S
C506 H496 0.950 . S
C506 C507 1.386 . S
C506 C508 1.391 . S
C507 C506 1.386 . S
C507 C511 1.393 . S
C508 H497 0.950 . S
C508 C506 1.391 . S
C508 C509 1.400 . S
C509 C503 1.491 . S
C509 C508 1.400 . S
C509 C510 1.398 . S
C510 H498 0.950 . S
C510 C509 1.398 . S
C510 C511 1.391 . S
C511 H499 0.950 . S
C511 C507 1.393 . S
C511 C510 1.391 . S
H512 C520 0.950 . S
H513 C525 0.950 . S
H514 C522 0.950 . S
H515 C524 0.950 . S
H516 C526 0.950 . S
H517 C528 0.950 . S
H518 C530 0.950 . S
H519 C531 0.950 . S
C520 H512 0.950 . S
C520 C521 1.386 . S
C520 C522 1.391 . S
C521 C520 1.386 . S
C521 C525 1.393 . S
C522 H514 0.950 . S
C522 C520 1.391 . S
C522 C523 1.400 . S
C523 C522 1.400 . S
C523 C524 1.398 . S
C523 C529 1.491 . S
C524 H515 0.950 . S
C524 C523 1.398 . S
C524 C525 1.391 . S
C525 H513 0.950 . S
C525 C521 1.393 . S
C525 C524 1.391 . S
C526 H516 0.950 . S
C526 C527 1.386 . S
C526 C528 1.391 . S
C527 C526 1.386 . S
C527 C531 1.393 . S
C528 H517 0.950 . S
C528 C526 1.391 . S
C528 C529 1.400 . S
C529 C523 1.491 . S
C529 C528 1.400 . S
C529 C530 1.398 . S
C530 H518 0.950 . S
C530 C529 1.398 . S
C530 C531 1.391 . S
C531 H519 0.950 . S
C531 C527 1.393 . S
C531 C530 1.391 . S
H532 C540 0.950 . S
H533 C545 0.950 . S
H534 C542 0.950 . S
H535 C544 0.950 . S
H536 C546 0.950 1_554 S
H537 C548 0.950 . S
H538 C550 0.950 . S
H539 C551 0.950 . S
C540 H532 0.950 . S
C540 C541 1.386 . S
C540 C542 1.391 . S
C541 C540 1.386 . S
C541 C545 1.393 . S
C542 H534 0.950 . S
C542 C540 1.391 . S
C542 C543 1.400 . S
C543 C542 1.400 . S
C543 C544 1.398 . S
C543 C549 1.491 . S
C544 H535 0.950 . S
C544 C543 1.398 . S
C544 C545 1.391 . S
C545 H533 0.950 . S
C545 C541 1.393 . S
C545 C544 1.391 . S
C546 H536 0.950 1_556 S
C546 C547 1.386 . S
C546 C548 1.391 . S
C547 C546 1.386 . S
C547 C551 1.393 . S
C548 H537 0.950 . S
C548 C546 1.391 . S
C548 C549 1.400 . S
C549 C543 1.491 . S
C549 C548 1.400 . S
C549 C550 1.398 . S
C550 H538 0.950 . S
C550 C549 1.398 . S
C550 C551 1.391 . S
C551 H539 0.950 . S
C551 C547 1.393 . S
C551 C550 1.391 . S
H552 C560 0.950 . S
H553 C565 0.950 . S
H554 C562 0.950 . S
H555 C564 0.950 . S
H556 C566 0.950 . S
H557 C568 0.950 . S
H558 C570 0.950 . S
H559 C571 0.950 . S
C560 H552 0.950 . S
C560 C561 1.386 . S
C560 C562 1.391 . S
C561 C560 1.386 . S
C561 C565 1.393 . S
C562 H554 0.950 . S
C562 C560 1.391 . S
C562 C563 1.400 . S
C563 C562 1.400 . S
C563 C564 1.398 . S
C563 C569 1.491 . S
C564 H555 0.950 . S
C564 C563 1.398 . S
C564 C565 1.391 . S
C565 H553 0.950 . S
C565 C561 1.393 . S
C565 C564 1.391 . S
C566 H556 0.950 . S
C566 C567 1.386 . S
C566 C568 1.391 . S
C567 C566 1.386 . S
C567 C571 1.393 . S
C568 H557 0.950 . S
C568 C566 1.391 . S
C568 C569 1.400 . S
C569 C563 1.491 . S
C569 C568 1.400 . S
C569 C570 1.398 . S
C570 H558 0.950 . S
C570 C569 1.398 . S
C570 C571 1.391 . S
C571 H559 0.950 . S
C571 C567 1.393 . S
C571 C570 1.391 . S
H572 C580 0.950 . S
H573 C585 0.950 . S
H574 C582 0.950 . S
H575 C584 0.950 . S
H576 C586 0.950 . S
H577 C588 0.950 . S
H578 C590 0.950 . S
H579 C591 0.950 1_655 S
C580 H572 0.950 . S
C580 C581 1.386 . S
C580 C582 1.391 . S
C581 C580 1.386 . S
C581 C585 1.393 . S
C582 H574 0.950 . S
C582 C580 1.391 . S
C582 C583 1.400 . S
C583 C582 1.400 . S
C583 C584 1.398 . S
C583 C589 1.491 . S
C584 H575 0.950 . S
C584 C583 1.398 . S
C584 C585 1.391 . S
C585 H573 0.950 . S
C585 C581 1.393 . S
C585 C584 1.391 . S
C586 H576 0.950 . S
C586 C587 1.386 . S
C586 C588 1.391 . S
C587 C586 1.386 . S
C587 C591 1.393 . S
C588 H577 0.950 . S
C588 C586 1.391 . S
C588 C589 1.400 . S
C589 C583 1.491 . S
C589 C588 1.400 . S
C589 C590 1.398 . S
C590 H578 0.950 . S
C590 C589 1.398 . S
C590 C591 1.391 . S
C591 H579 0.950 1_455 S
C591 C587 1.393 . S
C591 C590 1.391 . S
H592 C600 0.950 . S
H593 C605 0.950 . S
H594 C602 0.950 . S
H595 C604 0.950 1_554 S
H596 C606 0.950 . S
H597 C608 0.950 . S
H598 C610 0.950 . S
H599 C611 0.950 . S
C600 H592 0.950 . S
C600 C601 1.386 . S
C600 C602 1.391 . S
C601 C600 1.386 . S
C601 C605 1.393 . S
C602 H594 0.950 . S
C602 C600 1.391 . S
C602 C603 1.400 . S
C603 C602 1.400 . S
C603 C604 1.398 . S
C603 C609 1.491 . S
C604 H595 0.950 1_556 S
C604 C603 1.398 . S
C604 C605 1.391 . S
C605 H593 0.950 . S
C605 C601 1.393 . S
C605 C604 1.391 . S
C606 H596 0.950 . S
C606 C607 1.386 1_554 S
C606 C608 1.391 . S
C607 C606 1.386 1_556 S
C607 C611 1.393 . S
C608 H597 0.950 . S
C608 C606 1.391 . S
C608 C609 1.400 1_554 S
C609 C603 1.491 . S
C609 C608 1.400 1_556 S
C609 C610 1.398 . S
C610 H598 0.950 . S
C610 C609 1.398 . S
C610 C611 1.391 . S
C611 H599 0.950 . S
C611 C607 1.393 . S
C611 C610 1.391 . S
H612 C620 0.950 . S
H613 C625 0.950 . S
H614 C622 0.950 . S
H615 C624 0.950 . S
H616 C626 0.950 . S
H617 C628 0.950 . S
H618 C630 0.950 . S
H619 C631 0.950 . S
C620 H612 0.950 . S
C620 C621 1.386 . S
C620 C622 1.391 . S
C621 C620 1.386 . S
C621 C625 1.393 . S
C622 H614 0.950 . S
C622 C620 1.391 . S
C622 C623 1.400 . S
C623 C622 1.400 . S
C623 C624 1.398 . S
C623 C629 1.491 . S
C624 H615 0.950 . S
C624 C623 1.398 . S
C624 C625 1.391 . S
C625 H613 0.950 . S
C625 C621 1.393 . S
C625 C624 1.391 . S
C626 H616 0.950 . S
C626 C627 1.386 . S
C626 C628 1.391 . S
C627 C626 1.386 . S
C627 C631 1.393 . S
C628 H617 0.950 . S
C628 C626 1.391 . S
C628 C629 1.400 . S
C629 C623 1.491 . S
C629 C628 1.400 . S
C629 C630 1.398 . S
C630 H618 0.950 . S
C630 C629 1.398 . S
C630 C631 1.391 . S
C631 H619 0.950 . S
C631 C627 1.393 . S
C631 C630 1.391 . S
H632 C640 0.950 . S
H633 C645 0.950 . S
H634 C642 0.950 . S
H635 C644 0.950 . S
H636 C646 0.950 . S
H637 C648 0.950 . S
H638 C650 0.950 . S
H639 C651 0.950 . S
C640 H632 0.950 . S
C640 C641 1.386 . S
C640 C642 1.391 . S
C641 C640 1.386 . S
C641 C645 1.393 . S
C642 H634 0.950 . S
C642 C640 1.391 . S
C642 C643 1.400 . S
C643 C642 1.400 . S
C643 C644 1.398 . S
C643 C649 1.491 . S
C644 H635 0.950 . S
C644 C643 1.398 . S
C644 C645 1.391 . S
C645 H633 0.950 . S
C645 C641 1.393 . S
C645 C644 1.391 . S
C646 H636 0.950 . S
C646 C647 1.386 . S
C646 C648 1.391 . S
C647 C646 1.386 . S
C647 C651 1.393 . S
C648 H637 0.950 . S
C648 C646 1.391 . S
C648 C649 1.400 . S
C649 C643 1.491 . S
C649 C648 1.400 . S
C649 C650 1.398 . S
C650 H638 0.950 . S
C650 C649 1.398 . S
C650 C651 1.391 . S
C651 H639 0.950 . S
C651 C647 1.393 . S
C651 C650 1.391 . S
H652 C660 0.950 . S
H653 C665 0.950 . S
H654 C662 0.950 . S
H655 C664 0.950 . S
H656 C666 0.950 . S
H657 C668 0.950 . S
H658 C670 0.950 . S
H659 C671 0.959 . S
C660 H652 0.950 . S
C660 C661 1.386 1_545 S
C660 C662 1.391 . S
C661 C660 1.386 1_565 S
C661 C665 1.393 . S
C662 H654 0.950 . S
C662 C660 1.391 . S
C662 C663 1.400 1_545 S
C663 C662 1.400 1_565 S
C663 C664 1.398 . S
C663 C669 1.492 . S
C664 H655 0.950 . S
C664 C663 1.398 . S
C664 C665 1.391 . S
C665 H653 0.950 . S
C665 C661 1.393 . S
C665 C664 1.391 . S
C666 H656 0.950 . S
C666 C667 1.386 1_565 S
C666 C668 1.391 . S
C667 C666 1.386 1_545 S
C667 C671 1.393 . S
C668 H657 0.950 . S
C668 C666 1.391 . S
C668 C669 1.415 . S
C669 C663 1.492 . S
C669 C668 1.415 . S
C669 C670 1.382 1_565 S
C670 H658 0.950 . S
C670 C669 1.382 1_545 S
C670 C671 1.391 . S
C671 H659 0.959 . S
C671 C667 1.393 . S
C671 C670 1.391 . S
H672 C680 0.950 . S
H673 C685 0.950 1_565 S
H674 C682 0.950 . S
H675 C684 0.950 1_565 S
H676 C686 0.950 . S
H677 C688 0.952 . S
H678 C690 0.950 . S
H679 C691 0.950 . S
C680 H672 0.950 . S
C680 C681 1.386 . S
C680 C682 1.391 . S
C681 C680 1.386 . S
C681 C685 1.393 . S
C682 H674 0.950 . S
C682 C680 1.391 . S
C682 C683 1.400 . S
C683 C682 1.400 . S
C683 C684 1.398 . S
C683 C689 1.491 . S
C684 H675 0.950 1_545 S
C684 C683 1.398 . S
C684 C685 1.391 . S
C685 H673 0.950 1_545 S
C685 C681 1.393 . S
C685 C684 1.391 . S
C686 H676 0.950 . S
C686 C687 1.386 1_565 S
C686 C688 1.391 . S
C687 C686 1.386 1_545 S
C687 C691 1.393 . S
C688 H677 0.952 . S
C688 C686 1.391 . S
C688 C689 1.398 1_565 S
C689 C683 1.491 . S
C689 C688 1.398 1_545 S
C689 C690 1.398 . S
C690 H678 0.950 . S
C690 C689 1.398 . S
C690 C691 1.391 . S
C691 H679 0.950 . S
C691 C687 1.393 . S
C691 C690 1.391 . S
H692 C700 0.950 . S
H693 C705 0.950 . S
H694 C702 0.950 . S
H695 C704 0.950 . S
H696 C706 0.950 . S
H697 C708 0.950 . S
H698 C710 0.950 . S
H699 C711 0.950 . S
C700 H692 0.950 . S
C700 C701 1.386 . S
C700 C702 1.391 . S
C701 C700 1.386 . S
C701 C705 1.393 . S
C702 H694 0.950 . S
C702 C700 1.391 . S
C702 C703 1.400 . S
C703 C702 1.400 . S
C703 C704 1.398 . S
C703 C709 1.491 . S
C704 H695 0.950 . S
C704 C703 1.398 . S
C704 C705 1.391 . S
C705 H693 0.950 . S
C705 C701 1.393 . S
C705 C704 1.391 . S
C706 H696 0.950 . S
C706 C707 1.386 . S
C706 C708 1.391 . S
C707 C706 1.386 . S
C707 C711 1.393 . S
C708 H697 0.950 . S
C708 C706 1.391 . S
C708 C709 1.400 . S
C709 C703 1.491 . S
C709 C708 1.400 . S
C709 C710 1.398 . S
C710 H698 0.950 . S
C710 C709 1.398 . S
C710 C711 1.391 . S
C711 H699 0.950 . S
C711 C707 1.393 . S
C711 C710 1.391 . S
H712 C720 0.950 . S
H713 C725 0.950 . S
H714 C722 0.950 . S
H715 C724 0.950 . S
H716 C726 0.950 . S
H717 C728 0.950 . S
H718 C730 0.950 . S
H719 C731 0.950 . S
C720 H712 0.950 . S
C720 C721 1.386 . S
C720 C722 1.391 . S
C721 C720 1.386 . S
C721 C725 1.393 . S
C722 H714 0.950 . S
C722 C720 1.391 . S
C722 C723 1.400 . S
C723 C722 1.400 . S
C723 C724 1.398 . S
C723 C729 1.491 . S
C724 H715 0.950 . S
C724 C723 1.398 . S
C724 C725 1.391 . S
C725 H713 0.950 . S
C725 C721 1.393 . S
C725 C724 1.391 . S
C726 H716 0.950 . S
C726 C727 1.386 . S
C726 C728 1.391 . S
C727 C726 1.386 . S
C727 C731 1.393 . S
C728 H717 0.950 . S
C728 C726 1.391 . S
C728 C729 1.400 . S
C729 C723 1.491 . S
C729 C728 1.400 . S
C729 C730 1.398 . S
C730 H718 0.950 . S
C730 C729 1.398 . S
C730 C731 1.391 . S
C731 H719 0.950 . S
C731 C727 1.393 . S
C731 C730 1.391 . S
H732 C740 0.950 . S
H733 C745 0.950 1_554 S
H734 C742 0.950 . S
H735 C744 0.950 . S
H736 C746 0.950 . S
H737 C748 0.950 . S
H738 C750 0.950 . S
H739 C751 0.950 . S
C740 H732 0.950 . S
C740 C741 1.386 . S
C740 C742 1.391 . S
C741 C740 1.386 . S
C741 C745 1.393 1_565 S
C742 H734 0.950 . S
C742 C740 1.391 . S
C742 C743 1.400 . S
C743 C742 1.400 . S
C743 C744 1.398 1_566 S
C743 C749 1.491 . S
C744 H735 0.950 . S
C744 C743 1.398 1_544 S
C744 C745 1.391 1_554 S
C745 H733 0.950 1_556 S
C745 C741 1.393 1_545 S
C745 C744 1.391 1_556 S
C746 H736 0.950 . S
C746 C747 1.386 1_544 S
C746 C748 1.391 . S
C747 C746 1.386 1_566 S
C747 C751 1.393 . S
C748 H737 0.950 . S
C748 C746 1.391 . S
C748 C749 1.400 1_544 S
C749 C743 1.491 . S
C749 C748 1.400 1_566 S
C749 C750 1.398 . S
C750 H738 0.950 . S
C750 C749 1.398 . S
C750 C751 1.391 . S
C751 H739 0.950 . S
C751 C747 1.393 . S
C751 C750 1.391 . S
H752 C760 0.950 . S
H753 C765 0.940 1_565 S
H754 C762 0.950 . S
H755 C764 0.950 1_565 S
H756 C766 0.950 1_565 S
H757 C768 0.950 1_565 S
H758 C770 0.950 . S
H759 C771 0.950 . S
C760 H752 0.950 . S
C760 C761 1.386 . S
C760 C762 1.391 . S
C761 C760 1.386 . S
C761 C765 1.393 . S
C762 H754 0.950 . S
C762 C760 1.391 . S
C762 C763 1.400 . S
C763 C762 1.400 . S
C763 C764 1.398 . S
C763 C769 1.491 . S
C764 H755 0.950 1_545 S
C764 C763 1.398 . S
C764 C765 1.391 . S
C765 H753 0.940 1_545 S
C765 C761 1.393 . S
C765 C764 1.391 . S
C766 H756 0.950 1_545 S
C766 C767 1.386 . S
C766 C768 1.391 . S
C767 C766 1.386 . S
C767 C771 1.393 . S
C768 H757 0.950 1_545 S
C768 C766 1.391 . S
C768 C769 1.400 . S
C769 C763 1.491 . S
C769 C768 1.400 . S
C769 C770 1.398 . S
C770 H758 0.950 . S
C770 C769 1.398 . S
C770 C771 1.391 . S
C771 H759 0.950 . S
C771 C767 1.393 . S
C771 C770 1.391 . S
H772 C780 0.950 . S
H773 C785 0.950 . S
H774 C782 0.950 1_556 S
H775 C784 0.950 . S
H776 C786 0.950 . S
H777 C788 0.950 . S
H778 C790 0.950 1_556 S
H779 C791 0.950 . S
C780 H772 0.950 . S
C780 C781 1.386 . S
C780 C782 1.391 . S
C781 C780 1.386 . S
C781 C785 1.393 . S
C782 H774 0.950 1_554 S
C782 C780 1.391 . S
C782 C783 1.400 . S
C783 C782 1.400 . S
C783 C784 1.398 . S
C783 C789 1.491 . S
C784 H775 0.950 . S
C784 C783 1.398 . S
C784 C785 1.391 . S
C785 H773 0.950 . S
C785 C781 1.393 . S
C785 C784 1.391 . S
C786 H776 0.950 . S
C786 C787 1.386 . S
C786 C788 1.391 . S
C787 C786 1.386 . S
C787 C791 1.393 1_554 S
C788 H777 0.950 . S
C788 C786 1.391 . S
C788 C789 1.400 . S
C789 C783 1.491 . S
C789 C788 1.400 . S
C789 C790 1.399 . S
C790 H778 0.950 1_554 S
C790 C789 1.399 . S
C790 C791 1.391 1_554 S
C791 H779 0.950 . S
C791 C787 1.393 1_556 S
C791 C790 1.391 1_556 S
H792 C800 0.950 . S
H793 C805 0.950 . S
H794 C802 0.950 . S
H795 C804 0.950 . S
H796 C806 0.950 . S
H797 C808 0.950 . S
H798 C810 0.950 . S
H799 C811 0.950 . S
C800 H792 0.950 . S
C800 C801 1.386 . S
C800 C802 1.391 . S
C801 C800 1.386 . S
C801 C805 1.393 . S
C802 H794 0.950 . S
C802 C800 1.391 . S
C802 C803 1.400 . S
C803 C802 1.400 . S
C803 C804 1.398 . S
C803 C809 1.491 . S
C804 H795 0.950 . S
C804 C803 1.398 . S
C804 C805 1.391 . S
C805 H793 0.950 . S
C805 C801 1.393 . S
C805 C804 1.391 . S
C806 H796 0.950 . S
C806 C807 1.386 . S
C806 C808 1.391 . S
C807 C806 1.386 . S
C807 C811 1.393 . S
C808 H797 0.950 . S
C808 C806 1.391 . S
C808 C809 1.400 . S
C809 C803 1.491 . S
C809 C808 1.400 . S
C809 C810 1.398 . S
C810 H798 0.950 . S
C810 C809 1.398 . S
C810 C811 1.391 . S
C811 H799 0.950 . S
C811 C807 1.393 . S
C811 C810 1.391 . S
H812 C820 0.950 1_554 S
H813 C825 0.950 . S
H814 C822 0.925 1_554 S
H815 C824 0.950 . S
H816 C826 0.950 1_455 S
H817 C828 0.950 1_455 S
H818 C830 0.950 . S
H819 C831 0.950 . S
C820 H812 0.950 1_556 S
C820 C821 1.386 . S
C820 C822 1.395 . S
C821 C820 1.386 . S
C821 C825 1.393 . S
C822 H814 0.925 1_556 S
C822 C820 1.395 . S
C822 C823 1.422 . S
C823 C822 1.422 . S
C823 C824 1.398 . S
C823 C829 1.491 . S
C824 H815 0.950 . S
C824 C823 1.398 . S
C824 C825 1.391 . S
C825 H813 0.950 . S
C825 C821 1.393 . S
C825 C824 1.391 . S
C826 H816 0.950 1_655 S
C826 C827 1.386 . S
C826 C828 1.391 . S
C827 C826 1.386 . S
C827 C831 1.393 1_556 S
C828 H817 0.950 1_655 S
C828 C826 1.391 . S
C828 C829 1.400 . S
C829 C823 1.491 . S
C829 C828 1.400 . S
C829 C830 1.398 1_556 S
C830 H818 0.950 . S
C830 C829 1.398 1_554 S
C830 C831 1.391 . S
C831 H819 0.950 . S
C831 C827 1.393 1_554 S
C831 C830 1.391 . S
H832 C840 0.950 . S
H833 C845 0.950 . S
H834 C842 0.950 . S
H835 C844 0.950 . S
H836 C846 0.950 . S
H837 C848 0.950 . S
H838 C850 0.950 . S
H839 C851 0.950 . S
C840 H832 0.950 . S
C840 C841 1.386 . S
C840 C842 1.391 . S
C841 C840 1.386 . S
C841 C845 1.393 . S
C842 H834 0.950 . S
C842 C840 1.391 . S
C842 C843 1.400 . S
C843 C842 1.400 . S
C843 C844 1.398 . S
C843 C849 1.491 . S
C844 H835 0.950 . S
C844 C843 1.398 . S
C844 C845 1.391 . S
C845 H833 0.950 . S
C845 C841 1.393 . S
C845 C844 1.391 . S
C846 H836 0.950 . S
C846 C847 1.386 . S
C846 C848 1.391 . S
C847 C846 1.386 . S
C847 C851 1.393 . S
C848 H837 0.950 . S
C848 C846 1.391 . S
C848 C849 1.400 . S
C849 C843 1.491 . S
C849 C848 1.400 . S
C849 C850 1.398 . S
C850 H838 0.950 . S
C850 C849 1.398 . S
C850 C851 1.391 . S
C851 H839 0.950 . S
C851 C847 1.393 . S
C851 C850 1.391 . S
H852 C860 0.950 . S
H853 C865 0.950 . S
H854 C862 0.950 . S
H855 C864 0.950 . S
H856 C866 0.950 . S
H857 C868 0.950 . S
H858 C870 0.950 1_655 S
H859 C871 0.950 1_655 S
C860 H852 0.950 . S
C860 C861 1.386 . S
C860 C862 1.391 . S
C861 C860 1.386 . S
C861 C865 1.393 . S
C862 H854 0.950 . S
C862 C860 1.391 . S
C862 C863 1.400 . S
C863 C862 1.400 . S
C863 C864 1.398 . S
C863 C869 1.491 . S
C864 H855 0.950 . S
C864 C863 1.398 . S
C864 C865 1.391 . S
C865 H853 0.950 . S
C865 C861 1.393 . S
C865 C864 1.391 . S
C866 H856 0.950 . S
C866 C867 1.386 . S
C866 C868 1.391 . S
C867 C866 1.386 . S
C867 C871 1.393 . S
C868 H857 0.950 . S
C868 C866 1.391 . S
C868 C869 1.400 . S
C869 C863 1.491 . S
C869 C868 1.400 . S
C869 C870 1.398 . S
C870 H858 0.950 1_455 S
C870 C869 1.398 . S
C870 C871 1.391 . S
C871 H859 0.950 1_455 S
C871 C867 1.393 . S
C871 C870 1.391 . S
H872 C880 0.950 . S
H873 C885 0.950 . S
H874 C882 0.950 . S
H875 C884 0.950 . S
H876 C886 0.950 . S
H877 C888 0.950 . S
H878 C890 0.950 . S
H879 C891 0.950 . S
C880 H872 0.950 . S
C880 C881 1.386 . S
C880 C882 1.391 . S
C881 C880 1.386 . S
C881 C885 1.393 . S
C882 H874 0.950 . S
C882 C880 1.391 . S
C882 C883 1.400 . S
C883 C882 1.400 . S
C883 C884 1.398 . S
C883 C889 1.491 . S
C884 H875 0.950 . S
C884 C883 1.398 . S
C884 C885 1.391 . S
C885 H873 0.950 . S
C885 C881 1.393 . S
C885 C884 1.391 . S
C886 H876 0.950 . S
C886 C887 1.386 . S
C886 C888 1.391 . S
C887 C886 1.386 . S
C887 C891 1.393 . S
C888 H877 0.950 . S
C888 C886 1.391 . S
C888 C889 1.400 . S
C889 C883 1.491 . S
C889 C888 1.400 . S
C889 C890 1.398 . S
C890 H878 0.950 . S
C890 C889 1.398 . S
C890 C891 1.391 . S
C891 H879 0.950 . S
C891 C887 1.393 . S
C891 C890 1.391 . S
C421 C21 1.663 . S
C427 C338 1.635 . S
C441 C61 1.607 . S
C447 C362 1.608 . S
C467 C382 1.409 . S
C461 C82 1.405 . S
C481 C135 1.466 . S
C487 C405 1.485 . S
C507 C364 1.693 . S
C501 C15 1.731 . S
C527 C340 1.702 . S
C521 C42 1.696 . S
C547 C408 1.624 . S
C541 C101 1.692 . S
C567 C385 1.562 . S
C561 C122 1.625 . S
C581 C2 1.437 . S
C587 C410 1.383 . S
C607 C359 1.645 . S
C601 C95 1.625 . S
C621 C141 1.702 . S
C627 C337 1.702 . S
C641 C55 1.379 . S
C647 C387 1.355 . S
C667 C341 1.820 . S
C661 C181 1.711 . S
C681 C202 1.652 . S
C687 C363 1.728 . S
C701 C255 1.831 . S
C707 C383 1.867 . S
C721 C295 1.843 . S
C727 C406 1.873 . S
C741 C175 1.663 . S
C747 C361 1.674 1_556 S
C767 C339 1.746 . S
C761 C221 1.626 . S
C787 C409 1.527 . S
C781 C242 1.476 . S
C807 C386 1.628 . S
C801 C301 1.659 . S
C821 C162 1.907 . S
C827 C407 1.967 . S
C847 C360 1.650 . S
C841 C261 1.558 . S
C867 C336 1.679 . S
C861 C282 1.679 . S
C881 C215 1.990 . S
C887 C384 1.991 . S
