# Generated by pormake.
# Topology gar, (4,6)-cn, num edge types: 1
# Building blocks:
#     Node 0, Type 0, BuildingBlock: QUQFOY_clean_sbu_3, # of connection points: 4
#     Node 1, Type 0, BuildingBlock: QUQFOY_clean_sbu_3, # of connection points: 4
#     Node 2, Type 0, BuildingBlock: QUQFOY_clean_sbu_3, # of connection points: 4
#     Node 3, Type 0, BuildingBlock: QUQFOY_clean_sbu_3, # of connection points: 4
#     Node 4, Type 0, BuildingBlock: QUQFOY_clean_sbu_3, # of connection points: 4
#     Node 5, Type 0, BuildingBlock: QUQFOY_clean_sbu_3, # of connection points: 4
#     Node 6, Type 0, BuildingBlock: QUQFOY_clean_sbu_3, # of connection points: 4
#     Node 7, Type 0, BuildingBlock: QUQFOY_clean_sbu_3, # of connection points: 4
#     Node 8, Type 0, BuildingBlock: QUQFOY_clean_sbu_3, # of connection points: 4
#     Node 9, Type 0, BuildingBlock: QUQFOY_clean_sbu_3, # of connection points: 4
#     Node 10, Type 0, BuildingBlock: QUQFOY_clean_sbu_3, # of connection points: 4
#     Node 11, Type 0, BuildingBlock: QUQFOY_clean_sbu_3, # of connection points: 4
#     Node 12, Type 0, BuildingBlock: QUQFOY_clean_sbu_3, # of connection points: 4
#     Node 13, Type 0, BuildingBlock: QUQFOY_clean_sbu_3, # of connection points: 4
#     Node 14, Type 0, BuildingBlock: QUQFOY_clean_sbu_3, # of connection points: 4
#     Node 15, Type 0, BuildingBlock: QUQFOY_clean_sbu_3, # of connection points: 4
#     Node 16, Type 0, BuildingBlock: QUQFOY_clean_sbu_3, # of connection points: 4
#     Node 17, Type 0, BuildingBlock: QUQFOY_clean_sbu_3, # of connection points: 4
#     Node 18, Type 0, BuildingBlock: QUQFOY_clean_sbu_3, # of connection points: 4
#     Node 19, Type 0, BuildingBlock: QUQFOY_clean_sbu_3, # of connection points: 4
#     Node 20, Type 0, BuildingBlock: QUQFOY_clean_sbu_3, # of connection points: 4
#     Node 21, Type 0, BuildingBlock: QUQFOY_clean_sbu_3, # of connection points: 4
#     Node 22, Type 0, BuildingBlock: QUQFOY_clean_sbu_3, # of connection points: 4
#     Node 23, Type 0, BuildingBlock: QUQFOY_clean_sbu_3, # of connection points: 4
#     Node 24, Type 1, BuildingBlock: KUMBOL_clean_sbu_1, # of connection points: 6
#     Node 25, Type 1, BuildingBlock: KUMBOL_clean_sbu_1, # of connection points: 6
#     Node 26, Type 1, BuildingBlock: KUMBOL_clean_sbu_1, # of connection points: 6
#     Node 27, Type 1, BuildingBlock: KUMBOL_clean_sbu_1, # of connection points: 6
#     Node 28, Type 1, BuildingBlock: KUMBOL_clean_sbu_1, # of connection points: 6
#     Node 29, Type 1, BuildingBlock: KUMBOL_clean_sbu_1, # of connection points: 6
#     Node 30, Type 1, BuildingBlock: KUMBOL_clean_sbu_1, # of connection points: 6
#     Node 31, Type 1, BuildingBlock: KUMBOL_clean_sbu_1, # of connection points: 6
#     Node 32, Type 1, BuildingBlock: KUMBOL_clean_sbu_1, # of connection points: 6
#     Node 33, Type 1, BuildingBlock: KUMBOL_clean_sbu_1, # of connection points: 6
#     Node 34, Type 1, BuildingBlock: KUMBOL_clean_sbu_1, # of connection points: 6
#     Node 35, Type 1, BuildingBlock: KUMBOL_clean_sbu_1, # of connection points: 6
#     Node 36, Type 1, BuildingBlock: KUMBOL_clean_sbu_1, # of connection points: 6
#     Node 37, Type 1, BuildingBlock: KUMBOL_clean_sbu_1, # of connection points: 6
#     Node 38, Type 1, BuildingBlock: KUMBOL_clean_sbu_1, # of connection points: 6
#     Node 39, Type 1, BuildingBlock: KUMBOL_clean_sbu_1, # of connection points: 6
#     Edge 40, Type (0, 1), BuildingBlock: KIFKEQ_clean_linker_1, # of connection points: 2
#     Edge 41, Type (0, 1), BuildingBlock: KIFKEQ_clean_linker_1, # of connection points: 2
#     Edge 42, Type (0, 1), BuildingBlock: KIFKEQ_clean_linker_1, # of connection points: 2
#     Edge 43, Type (0, 1), BuildingBlock: KIFKEQ_clean_linker_1, # of connection points: 2
#     Edge 44, Type (0, 1), BuildingBlock: KIFKEQ_clean_linker_1, # of connection points: 2
#     Edge 45, Type (0, 1), BuildingBlock: KIFKEQ_clean_linker_1, # of connection points: 2
#     Edge 46, Type (0, 1), BuildingBlock: KIFKEQ_clean_linker_1, # of connection points: 2
#     Edge 47, Type (0, 1), BuildingBlock: KIFKEQ_clean_linker_1, # of connection points: 2
#     Edge 48, Type (0, 1), BuildingBlock: KIFKEQ_clean_linker_1, # of connection points: 2
#     Edge 49, Type (0, 1), BuildingBlock: KIFKEQ_clean_linker_1, # of connection points: 2
#     Edge 50, Type (0, 1), BuildingBlock: KIFKEQ_clean_linker_1, # of connection points: 2
#     Edge 51, Type (0, 1), BuildingBlock: KIFKEQ_clean_linker_1, # of connection points: 2
#     Edge 52, Type (0, 1), BuildingBlock: KIFKEQ_clean_linker_1, # of connection points: 2
#     Edge 53, Type (0, 1), BuildingBlock: KIFKEQ_clean_linker_1, # of connection points: 2
#     Edge 54, Type (0, 1), BuildingBlock: KIFKEQ_clean_linker_1, # of connection points: 2
#     Edge 55, Type (0, 1), BuildingBlock: KIFKEQ_clean_linker_1, # of connection points: 2
#     Edge 56, Type (0, 1), BuildingBlock: KIFKEQ_clean_linker_1, # of connection points: 2
#     Edge 57, Type (0, 1), BuildingBlock: KIFKEQ_clean_linker_1, # of connection points: 2
#     Edge 58, Type (0, 1), BuildingBlock: KIFKEQ_clean_linker_1, # of connection points: 2
#     Edge 59, Type (0, 1), BuildingBlock: KIFKEQ_clean_linker_1, # of connection points: 2
#     Edge 60, Type (0, 1), BuildingBlock: KIFKEQ_clean_linker_1, # of connection points: 2
#     Edge 61, Type (0, 1), BuildingBlock: KIFKEQ_clean_linker_1, # of connection points: 2
#     Edge 62, Type (0, 1), BuildingBlock: KIFKEQ_clean_linker_1, # of connection points: 2
#     Edge 63, Type (0, 1), BuildingBlock: KIFKEQ_clean_linker_1, # of connection points: 2
#     Edge 64, Type (0, 1), BuildingBlock: KIFKEQ_clean_linker_1, # of connection points: 2
#     Edge 65, Type (0, 1), BuildingBlock: KIFKEQ_clean_linker_1, # of connection points: 2
#     Edge 66, Type (0, 1), BuildingBlock: KIFKEQ_clean_linker_1, # of connection points: 2
#     Edge 67, Type (0, 1), BuildingBlock: KIFKEQ_clean_linker_1, # of connection points: 2
#     Edge 68, Type (0, 1), BuildingBlock: KIFKEQ_clean_linker_1, # of connection points: 2
#     Edge 69, Type (0, 1), BuildingBlock: KIFKEQ_clean_linker_1, # of connection points: 2
#     Edge 70, Type (0, 1), BuildingBlock: KIFKEQ_clean_linker_1, # of connection points: 2
#     Edge 71, Type (0, 1), BuildingBlock: KIFKEQ_clean_linker_1, # of connection points: 2
#     Edge 72, Type (0, 1), BuildingBlock: KIFKEQ_clean_linker_1, # of connection points: 2
#     Edge 73, Type (0, 1), BuildingBlock: KIFKEQ_clean_linker_1, # of connection points: 2
#     Edge 74, Type (0, 1), BuildingBlock: KIFKEQ_clean_linker_1, # of connection points: 2
#     Edge 75, Type (0, 1), BuildingBlock: KIFKEQ_clean_linker_1, # of connection points: 2
#     Edge 76, Type (0, 1), BuildingBlock: KIFKEQ_clean_linker_1, # of connection points: 2
#     Edge 77, Type (0, 1), BuildingBlock: KIFKEQ_clean_linker_1, # of connection points: 2
#     Edge 78, Type (0, 1), BuildingBlock: KIFKEQ_clean_linker_1, # of connection points: 2
#     Edge 79, Type (0, 1), BuildingBlock: KIFKEQ_clean_linker_1, # of connection points: 2
#     Edge 80, Type (0, 1), BuildingBlock: KIFKEQ_clean_linker_1, # of connection points: 2
#     Edge 81, Type (0, 1), BuildingBlock: KIFKEQ_clean_linker_1, # of connection points: 2
#     Edge 82, Type (0, 1), BuildingBlock: KIFKEQ_clean_linker_1, # of connection points: 2
#     Edge 83, Type (0, 1), BuildingBlock: KIFKEQ_clean_linker_1, # of connection points: 2
#     Edge 84, Type (0, 1), BuildingBlock: KIFKEQ_clean_linker_1, # of connection points: 2
#     Edge 85, Type (0, 1), BuildingBlock: KIFKEQ_clean_linker_1, # of connection points: 2
#     Edge 86, Type (0, 1), BuildingBlock: KIFKEQ_clean_linker_1, # of connection points: 2
#     Edge 87, Type (0, 1), BuildingBlock: KIFKEQ_clean_linker_1, # of connection points: 2
#     Edge 88, Type (0, 1), BuildingBlock: KIFKEQ_clean_linker_1, # of connection points: 2
#     Edge 89, Type (0, 1), BuildingBlock: KIFKEQ_clean_linker_1, # of connection points: 2
#     Edge 90, Type (0, 1), BuildingBlock: KIFKEQ_clean_linker_1, # of connection points: 2
#     Edge 91, Type (0, 1), BuildingBlock: KIFKEQ_clean_linker_1, # of connection points: 2
#     Edge 92, Type (0, 1), BuildingBlock: KIFKEQ_clean_linker_1, # of connection points: 2
#     Edge 93, Type (0, 1), BuildingBlock: KIFKEQ_clean_linker_1, # of connection points: 2
#     Edge 94, Type (0, 1), BuildingBlock: KIFKEQ_clean_linker_1, # of connection points: 2
#     Edge 95, Type (0, 1), BuildingBlock: KIFKEQ_clean_linker_1, # of connection points: 2
#     Edge 96, Type (0, 1), BuildingBlock: KIFKEQ_clean_linker_1, # of connection points: 2
#     Edge 97, Type (0, 1), BuildingBlock: KIFKEQ_clean_linker_1, # of connection points: 2
#     Edge 98, Type (0, 1), BuildingBlock: KIFKEQ_clean_linker_1, # of connection points: 2
#     Edge 99, Type (0, 1), BuildingBlock: KIFKEQ_clean_linker_1, # of connection points: 2
#     Edge 100, Type (0, 1), BuildingBlock: KIFKEQ_clean_linker_1, # of connection points: 2
#     Edge 101, Type (0, 1), BuildingBlock: KIFKEQ_clean_linker_1, # of connection points: 2
#     Edge 102, Type (0, 1), BuildingBlock: KIFKEQ_clean_linker_1, # of connection points: 2
#     Edge 103, Type (0, 1), BuildingBlock: KIFKEQ_clean_linker_1, # of connection points: 2
#     Edge 104, Type (0, 1), BuildingBlock: KIFKEQ_clean_linker_1, # of connection points: 2
#     Edge 105, Type (0, 1), BuildingBlock: KIFKEQ_clean_linker_1, # of connection points: 2
#     Edge 106, Type (0, 1), BuildingBlock: KIFKEQ_clean_linker_1, # of connection points: 2
#     Edge 107, Type (0, 1), BuildingBlock: KIFKEQ_clean_linker_1, # of connection points: 2
#     Edge 108, Type (0, 1), BuildingBlock: KIFKEQ_clean_linker_1, # of connection points: 2
#     Edge 109, Type (0, 1), BuildingBlock: KIFKEQ_clean_linker_1, # of connection points: 2
#     Edge 110, Type (0, 1), BuildingBlock: KIFKEQ_clean_linker_1, # of connection points: 2
#     Edge 111, Type (0, 1), BuildingBlock: KIFKEQ_clean_linker_1, # of connection points: 2
#     Edge 112, Type (0, 1), BuildingBlock: KIFKEQ_clean_linker_1, # of connection points: 2
#     Edge 113, Type (0, 1), BuildingBlock: KIFKEQ_clean_linker_1, # of connection points: 2
#     Edge 114, Type (0, 1), BuildingBlock: KIFKEQ_clean_linker_1, # of connection points: 2
#     Edge 115, Type (0, 1), BuildingBlock: KIFKEQ_clean_linker_1, # of connection points: 2
#     Edge 116, Type (0, 1), BuildingBlock: KIFKEQ_clean_linker_1, # of connection points: 2
#     Edge 117, Type (0, 1), BuildingBlock: KIFKEQ_clean_linker_1, # of connection points: 2
#     Edge 118, Type (0, 1), BuildingBlock: KIFKEQ_clean_linker_1, # of connection points: 2
#     Edge 119, Type (0, 1), BuildingBlock: KIFKEQ_clean_linker_1, # of connection points: 2
#     Edge 120, Type (0, 1), BuildingBlock: KIFKEQ_clean_linker_1, # of connection points: 2
#     Edge 121, Type (0, 1), BuildingBlock: KIFKEQ_clean_linker_1, # of connection points: 2
#     Edge 122, Type (0, 1), BuildingBlock: KIFKEQ_clean_linker_1, # of connection points: 2
#     Edge 123, Type (0, 1), BuildingBlock: KIFKEQ_clean_linker_1, # of connection points: 2
#     Edge 124, Type (0, 1), BuildingBlock: KIFKEQ_clean_linker_1, # of connection points: 2
#     Edge 125, Type (0, 1), BuildingBlock: KIFKEQ_clean_linker_1, # of connection points: 2
#     Edge 126, Type (0, 1), BuildingBlock: KIFKEQ_clean_linker_1, # of connection points: 2
#     Edge 127, Type (0, 1), BuildingBlock: KIFKEQ_clean_linker_1, # of connection points: 2
#     Edge 128, Type (0, 1), BuildingBlock: KIFKEQ_clean_linker_1, # of connection points: 2
#     Edge 129, Type (0, 1), BuildingBlock: KIFKEQ_clean_linker_1, # of connection points: 2
#     Edge 130, Type (0, 1), BuildingBlock: KIFKEQ_clean_linker_1, # of connection points: 2
#     Edge 131, Type (0, 1), BuildingBlock: KIFKEQ_clean_linker_1, # of connection points: 2
#     Edge 132, Type (0, 1), BuildingBlock: KIFKEQ_clean_linker_1, # of connection points: 2
#     Edge 133, Type (0, 1), BuildingBlock: KIFKEQ_clean_linker_1, # of connection points: 2
#     Edge 134, Type (0, 1), BuildingBlock: KIFKEQ_clean_linker_1, # of connection points: 2
#     Edge 135, Type (0, 1), BuildingBlock: KIFKEQ_clean_linker_1, # of connection points: 2
# Relax obj value: 0.067
# Max RMSD: 0.183
# Mean RMSD: 0.108
data_MOF--net-gar--node1-QUQFOY_clean_sbu_3--node2-KUMBOL_clean_sbu_1--edge1-KIFKEQ_clean_linker_1
_symmetry_space_group_name_H-M    P1
_symmetry_Int_Tables_number       1
_symmetry_cell_setting            triclinic
loop_
_symmetry_equiv_pos_as_xyz
'x, y, z'
_cell_length_a     61.573193
_cell_length_b     62.602482
_cell_length_c     57.889033
_cell_angle_alpha  96.998598
_cell_angle_beta   96.165947
_cell_angle_gamma 101.56575
loop_
_atom_site_label
_atom_site_type_symbol
_atom_site_fract_x
_atom_site_fract_y
_atom_site_fract_z
_atom_type_partial_charge
C0 C 0.99855 0.31195 0.33034 0.0
O1 O 0.01071 0.32294 0.31767 0.0
Cd2 Cd 0.05 0.33455 0.33413 0.0
O3 O 0.00824 0.30578 0.3483 0.0
Cd4 Cd 0.05019 0.30873 0.36572 0.0
C5 C 0.05215 0.36274 0.38799 0.0
O6 O 0.07324 0.3067 0.33077 0.0
O7 O 0.09194 0.31644 0.36517 0.0
O8 O 0.0358 0.2693 0.36826 0.0
C9 C 0.09221 0.31019 0.34352 0.0
O10 O 0.05467 0.36529 0.36689 0.0
C11 C 0.04563 0.26969 0.38879 0.0
O12 O 0.04946 0.34331 0.39342 0.0
O13 O 0.05738 0.28818 0.39887 0.0
C14 C 0.975 0.75132 0.72366 0.0
O15 O 0.98437 0.73709 0.73195 0.0
Cd16 Cd 0.01666 0.73764 0.70984 0.0
O17 O 0.98486 0.76163 0.70858 0.0
Cd18 Cd 0.02249 0.75777 0.691 0.0
C19 C 0.01622 0.70347 0.66702 0.0
O20 O 0.0543 0.75748 0.72574 0.0
O21 O 0.06333 0.76056 0.69123 0.0
O22 O 0.03001 0.79789 0.689 0.0
C23 C 0.06987 0.76053 0.71275 0.0
O24 O 0.019 0.70237 0.6888 0.0
C25 C 0.02434 0.79611 0.66699 0.0
O26 O 0.01428 0.72199 0.66086 0.0
O27 O 0.01783 0.77661 0.65602 0.0
C28 C 0.4972 0.80974 0.83027 0.0
O29 O 0.50878 0.81936 0.81622 0.0
Cd30 Cd 0.54788 0.83201 0.83376 0.0
O31 O 0.50752 0.8052 0.84887 0.0
Cd32 Cd 0.55012 0.80831 0.86497 0.0
C33 C 0.55175 0.86238 0.88654 0.0
O34 O 0.57322 0.80614 0.82968 0.0
O35 O 0.59183 0.81542 0.86419 0.0
O36 O 0.5365 0.76877 0.86778 0.0
C37 C 0.59215 0.80938 0.84251 0.0
O38 O 0.55274 0.86422 0.865 0.0
C39 C 0.54601 0.76952 0.88853 0.0
O40 O 0.55025 0.84328 0.89265 0.0
O41 O 0.55721 0.78826 0.89859 0.0
C42 C 0.47469 0.25302 0.22191 0.0
O43 O 0.48582 0.24223 0.23389 0.0
Cd44 Cd 0.51529 0.23909 0.20881 0.0
O45 O 0.48302 0.25989 0.20413 0.0
Cd46 Cd 0.52261 0.25754 0.19018 0.0
C47 C 0.5144 0.20334 0.16682 0.0
O48 O 0.55312 0.25498 0.22596 0.0
O49 O 0.56395 0.26714 0.19501 0.0
O50 O 0.51919 0.29596 0.18653 0.0
C51 C 0.56938 0.26262 0.21524 0.0
O52 O 0.51408 0.20225 0.18852 0.0
C53 C 0.5249 0.2957 0.16607 0.0
O54 O 0.5156 0.22225 0.16031 0.0
O55 O 0.52911 0.27781 0.15668 0.0
C56 C 0.02549 0.78729 0.14435 0.0
O57 O 0.0373 0.77786 0.1574 0.0
Cd58 Cd 0.07408 0.77307 0.15334 0.0
O59 O 0.03303 0.79594 0.12707 0.0
Cd60 Cd 0.06875 0.80233 0.10742 0.0
C61 C 0.06157 0.74298 0.09681 0.0
O62 O 0.09347 0.80739 0.14498 0.0
O63 O 0.11072 0.80379 0.11509 0.0
O64 O 0.06107 0.8409 0.10927 0.0
C65 C 0.11182 0.80656 0.13733 0.0
O66 O 0.06666 0.74477 0.11897 0.0
C67 C 0.06319 0.84446 0.0884 0.0
O68 O 0.06019 0.76028 0.087 0.0
O69 O 0.06819 0.8286 0.07541 0.0
C70 C 0.45877 0.77236 0.40503 0.0
O71 O 0.47308 0.78473 0.3956 0.0
Cd72 Cd 0.51226 0.79476 0.4068 0.0
O73 O 0.46506 0.76323 0.42267 0.0
Cd74 Cd 0.50456 0.76421 0.4472 0.0
C75 C 0.51143 0.82288 0.46144 0.0
O76 O 0.52512 0.76209 0.41299 0.0
O77 O 0.54587 0.7753 0.44574 0.0
O78 O 0.49371 0.72256 0.44926 0.0
C79 C 0.54469 0.76801 0.42413 0.0
O80 O 0.51599 0.82327 0.44057 0.0
C81 C 0.50485 0.72256 0.46908 0.0
O82 O 0.50558 0.80427 0.46902 0.0
O83 O 0.51444 0.74165 0.47987 0.0
C84 C 0.52585 0.28777 0.64417 0.0
O85 O 0.53705 0.27729 0.6566 0.0
Cd86 Cd 0.5734 0.27058 0.65236 0.0
O87 O 0.53357 0.29653 0.62704 0.0
Cd88 Cd 0.56849 0.30193 0.60643 0.0
C89 C 0.56238 0.24217 0.59504 0.0
O90 O 0.59229 0.3047 0.64384 0.0
O91 O 0.61124 0.30638 0.6151 0.0
O92 O 0.56243 0.34118 0.60892 0.0
C93 C 0.61126 0.30592 0.63701 0.0
O94 O 0.56783 0.24344 0.6171 0.0
C95 C 0.56266 0.34413 0.58761 0.0
O96 O 0.55999 0.25962 0.5859 0.0
O97 O 0.56583 0.32763 0.57408 0.0
C98 C 0.95855 0.27068 0.90514 0.0
O99 O 0.97238 0.28149 0.89386 0.0
Cd100 Cd 0.01168 0.29263 0.90504 0.0
O101 O 0.96547 0.2637 0.92406 0.0
Cd102 Cd 0.00515 0.26506 0.94807 0.0
C103 C 0.01332 0.3238 0.95947 0.0
O104 O 0.0265 0.26204 0.91443 0.0
O105 O 0.0463 0.27795 0.94703 0.0
O106 O 0.99805 0.22338 0.94727 0.0
C107 C 0.04579 0.2696 0.92583 0.0
O108 O 0.01676 0.32207 0.93808 0.0
C109 C 0.005 0.22248 0.96854 0.0
O110 O 0.00727 0.30615 0.96879 0.0
O111 O 0.01068 0.24124 0.98155 0.0
C112 C 0.42706 0.01819 0.34736 0.0
O113 O 0.43844 0.0124 0.33162 0.0
Cd114 Cd 0.42576 0.00504 0.2909 0.0
O115 O 0.40797 0.02237 0.34215 0.0
Cd116 Cd 0.3843 0.02496 0.30726 0.0
C117 C 0.37476 0.97085 0.29368 0.0
O118 O 0.41205 0.03655 0.28309 0.0
O119 O 0.37892 0.02432 0.26457 0.0
O120 O 0.37958 0.06056 0.32384 0.0
C121 C 0.39922 0.03296 0.26383 0.0
O122 O 0.3946 0.97354 0.28844 0.0
C123 C 0.35843 0.05487 0.31943 0.0
O124 O 0.36669 0.98691 0.3017 0.0
O125 O 0.34979 0.03473 0.31183 0.0
C126 C 0.30177 0.15001 0.52085 0.0
O127 O 0.28985 0.13908 0.53381 0.0
Cd128 Cd 0.25332 0.14216 0.54188 0.0
O129 O 0.29532 0.16511 0.51081 0.0
Cd130 Cd 0.2624 0.18252 0.50801 0.0
C131 C 0.26507 0.19658 0.56833 0.0
O132 O 0.23686 0.14768 0.50508 0.0
O133 O 0.22084 0.17521 0.50639 0.0
O134 O 0.26341 0.18258 0.46585 0.0
C135 C 0.2189 0.15449 0.50499 0.0
O136 O 0.25817 0.17614 0.56913 0.0
C137 C 0.26792 0.20333 0.46645 0.0
O138 O 0.26948 0.2036 0.54911 0.0
O139 O 0.26994 0.21487 0.48655 0.0
C140 C 0.10353 0.05459 0.83317 0.0
O141 O 0.09372 0.06648 0.82126 0.0
Cd142 Cd 0.10216 0.07491 0.78338 0.0
O143 O 0.11884 0.04618 0.82503 0.0
Cd144 Cd 0.13674 0.04718 0.78813 0.0
C145 C 0.15697 0.10209 0.79363 0.0
O146 O 0.10431 0.04268 0.75735 0.0
O147 O 0.13711 0.05259 0.74704 0.0
O148 O 0.13688 0.00821 0.78107 0.0
C149 C 0.11614 0.04634 0.74097 0.0
O150 O 0.13658 0.10287 0.78828 0.0
C151 C 0.15755 0.0105 0.78798 0.0
O152 O 0.16229 0.08381 0.79631 0.0
O153 O 0.16876 0.02995 0.79521 0.0
C154 C 0.33786 0.9698 0.00143 0.0
O155 O 0.32939 0.98236 0.98927 0.0
Cd156 Cd 0.29158 0.97158 0.97001 0.0
O157 O 0.32644 0.95193 0.00556 0.0
Cd158 Cd 0.2898 0.93056 0.99937 0.0
C159 C 0.29695 0.92165 0.94355 0.0
O160 O 0.26762 0.95738 0.99659 0.0
O161 O 0.25158 0.92302 0.98335 0.0
O162 O 0.28913 0.92774 0.04059 0.0
C163 C 0.25008 0.94298 0.98786 0.0
O164 O 0.2925 0.94034 0.94132 0.0
C165 C 0.28948 0.9074 0.03766 0.0
O166 O 0.29861 0.91469 0.96322 0.0
O167 O 0.28949 0.89797 0.01695 0.0
C168 C 0.34249 0.42296 0.03507 0.0
O169 O 0.32936 0.43171 0.02274 0.0
Cd170 Cd 0.29032 0.42194 0.01345 0.0
O171 O 0.33512 0.40639 0.04521 0.0
Cd172 Cd 0.29657 0.38279 0.04671 0.0
C173 C 0.29161 0.36933 0.98696 0.0
O174 O 0.28088 0.41487 0.05035 0.0
O175 O 0.25638 0.38464 0.04635 0.0
O176 O 0.31065 0.37913 0.0872 0.0
C177 C 0.26069 0.40549 0.04981 0.0
O178 O 0.28874 0.38886 0.98643 0.0
C179 C 0.29776 0.36052 0.08715 0.0
O180 O 0.29502 0.36213 0.00646 0.0
O181 O 0.2858 0.35153 0.06784 0.0
C182 C 0.80322 0.09939 0.06953 0.0
O183 O 0.78893 0.08662 0.07864 0.0
Cd184 Cd 0.75136 0.09296 0.07805 0.0
O185 O 0.79766 0.11443 0.05901 0.0
Cd186 Cd 0.76911 0.13241 0.04783 0.0
C187 C 0.76743 0.14612 0.10459 0.0
O188 O 0.73821 0.10214 0.0409 0.0
O189 O 0.73095 0.13499 0.04534 0.0
O190 O 0.77471 0.1317 0.00751 0.0
C191 C 0.72393 0.11426 0.04071 0.0
O192 O 0.75668 0.12663 0.10519 0.0
C193 C 0.78021 0.15251 0.00887 0.0
O194 O 0.77532 0.15196 0.08638 0.0
O195 O 0.78181 0.16402 0.0289 0.0
C196 C 0.15164 0.54741 0.28108 0.0
O197 O 0.13665 0.55279 0.26757 0.0
Cd198 Cd 0.14353 0.56373 0.2309 0.0
O199 O 0.17012 0.54485 0.2745 0.0
Cd200 Cd 0.18867 0.54296 0.23883 0.0
C201 C 0.19697 0.59644 0.24976 0.0
O202 O 0.15539 0.53283 0.2134 0.0
O203 O 0.18468 0.54056 0.19605 0.0
O204 O 0.19048 0.51044 0.25324 0.0
C205 C 0.16359 0.53452 0.19446 0.0
O206 O 0.17593 0.59405 0.24423 0.0
C207 C 0.20954 0.50928 0.24758 0.0
O208 O 0.20651 0.58025 0.24887 0.0
O209 O 0.21971 0.52444 0.23739 0.0
C210 C 0.84326 0.92222 0.5351 0.0
O211 O 0.83001 0.92955 0.5213 0.0
Cd212 Cd 0.79053 0.92071 0.51339 0.0
O213 O 0.83596 0.90704 0.54702 0.0
Cd214 Cd 0.79743 0.88395 0.54825 0.0
C215 C 0.78772 0.86786 0.48797 0.0
O216 O 0.77996 0.91499 0.55031 0.0
O217 O 0.75663 0.88392 0.54645 0.0
O218 O 0.80615 0.88302 0.5904 0.0
C219 C 0.75998 0.90476 0.5495 0.0
O220 O 0.78309 0.88661 0.4865 0.0
C221 C 0.79943 0.86233 0.58931 0.0
O222 O 0.79508 0.86293 0.50771 0.0
O223 O 0.79314 0.85135 0.56888 0.0
C224 C 0.96564 0.01398 0.31082 0.0
O225 O 0.97687 1.00405 0.29773 0.0
Cd226 Cd 0.96372 0.99104 0.25713 0.0
O227 O 0.94798 0.01944 0.30197 0.0
Cd228 Cd 0.92833 0.01829 0.26072 0.0
C229 C 0.9096 0.96361 0.25886 0.0
O230 O 0.9607 0.02274 0.23843 0.0
O231 O 0.92822 0.01246 0.2177 0.0
O232 O 0.92668 0.05675 0.27269 0.0
C233 C 0.94914 0.01912 0.2183 0.0
O234 O 0.92962 0.96258 0.25605 0.0
C235 C 0.90639 0.05458 0.26405 0.0
O236 O 0.90408 0.98219 0.26162 0.0
O237 O 0.89606 0.03539 0.25446 0.0
C238 C 0.30495 0.60382 0.5721 0.0
O239 O 0.2916 0.59132 0.58245 0.0
Cd240 Cd 0.25479 0.59709 0.58443 0.0
O241 O 0.29895 0.61905 0.56221 0.0
Cd242 Cd 0.26942 0.63679 0.55396 0.0
C243 C 0.27239 0.65035 0.61135 0.0
O244 O 0.24122 0.60398 0.54636 0.0
O245 O 0.23038 0.63478 0.55342 0.0
O246 O 0.27864 0.63711 0.51446 0.0
C247 C 0.22542 0.61415 0.54671 0.0
O248 O 0.26246 0.63059 0.61205 0.0
C249 C 0.27714 0.65696 0.51402 0.0
O250 O 0.27811 0.65664 0.59241 0.0
O251 O 0.27318 0.66772 0.53258 0.0
C252 C 0.46642 0.51218 0.8104 0.0
O253 O 0.47541 0.49987 0.79708 0.0
Cd254 Cd 0.46334 0.48858 0.75558 0.0
O255 O 0.45028 0.52011 0.80185 0.0
Cd256 Cd 0.42983 0.51781 0.76097 0.0
C257 C 0.40945 0.46256 0.75545 0.0
O258 O 0.4616 0.52099 0.73783 0.0
O259 O 0.4288 0.51288 0.71764 0.0
O260 O 0.42749 0.55651 0.767 0.0
C261 C 0.44982 0.51837 0.71792 0.0
O262 O 0.42852 0.46048 0.75016 0.0
C263 C 0.40627 0.55278 0.76395 0.0
O264 O 0.40577 0.48155 0.76177 0.0
O265 O 0.39591 0.53274 0.76024 0.0
C266 C 0.65101 0.04586 0.78516 0.0
O267 O 0.63719 0.05398 0.77298 0.0
Cd268 Cd 0.64007 0.06399 0.73514 0.0
O269 O 0.66825 0.04104 0.77746 0.0
Cd270 Cd 0.68533 0.04195 0.74127 0.0
C271 C 0.69298 0.09641 0.75253 0.0
O272 O 0.65275 0.03482 0.71526 0.0
O273 O 0.68288 0.04565 0.69993 0.0
O274 O 0.69042 0.00547 0.73821 0.0
C275 C 0.66175 0.03942 0.69735 0.0
O276 O 0.67206 0.09456 0.7467 0.0
C277 C 0.71161 0.01116 0.74109 0.0
O278 O 0.70198 0.07985 0.75213 0.0
O279 O 0.72066 0.0316 0.74467 0.0
C280 C 0.80098 0.64994 0.02384 0.0
O281 O 0.78832 0.6377 0.03512 0.0
Cd282 Cd 0.75156 0.64003 0.04192 0.0
O283 O 0.79472 0.66541 0.0143 0.0
Cd284 Cd 0.76123 0.68203 0.00901 0.0
C285 C 0.76618 0.69486 0.06908 0.0
O286 O 0.73674 0.64653 0.0049 0.0
O287 O 0.71948 0.6729 0.00264 0.0
O288 O 0.77452 0.68461 0.97107 0.0
C289 C 0.7183 0.65246 0.00273 0.0
O290 O 0.76018 0.67418 0.06918 0.0
C291 C 0.77016 0.70326 0.96873 0.0
O292 O 0.76823 0.70277 0.04987 0.0
O293 O 0.76175 0.71245 0.98537 0.0
C294 C 0.92314 0.5203 0.84591 0.0
O295 O 0.93462 0.51471 0.8302 0.0
Cd296 Cd 0.92211 0.50572 0.78984 0.0
O297 O 0.90359 0.52353 0.84066 0.0
Cd298 Cd 0.88015 0.52499 0.80415 0.0
C299 C 0.87148 0.47109 0.7934 0.0
O300 O 0.90878 0.5369 0.78071 0.0
O301 O 0.87652 0.52197 0.76121 0.0
O302 O 0.87589 0.56048 0.8212 0.0
C303 C 0.89656 0.53188 0.76105 0.0
O304 O 0.89137 0.47414 0.78831 0.0
C305 C 0.85509 0.55676 0.81404 0.0
O306 O 0.8628 0.487 0.8006 0.0
O307 O 0.84567 0.53741 0.80404 0.0
C308 C 0.84306 0.47575 0.50404 0.0
O309 O 0.8352 0.48449 0.48728 0.0
Cd310 Cd 0.7969 0.47516 0.47028 0.0
O311 O 0.83145 0.46002 0.51207 0.0
Cd312 Cd 0.79547 0.43658 0.50541 0.0
C313 C 0.79815 0.42263 0.44822 0.0
O314 O 0.77653 0.46492 0.50113 0.0
O315 O 0.75623 0.43173 0.49199 0.0
O316 O 0.79349 0.43173 0.54614 0.0
C317 C 0.75755 0.45238 0.49404 0.0
O318 O 0.7952 0.44147 0.44419 0.0
C319 C 0.79541 0.41182 0.54247 0.0
O320 O 0.8003 0.41789 0.46892 0.0
O321 O 0.79685 0.40369 0.52166 0.0
C322 C 0.60522 0.55155 0.33353 0.0
O323 O 0.59363 0.56208 0.32165 0.0
Cd324 Cd 0.60339 0.57402 0.28538 0.0
O325 O 0.62194 0.54556 0.32565 0.0
Cd326 Cd 0.63877 0.5469 0.28801 0.0
C327 C 0.65827 0.60204 0.29547 0.0
O328 O 0.60566 0.54293 0.25777 0.0
O329 O 0.63823 0.55221 0.24676 0.0
O330 O 0.63891 0.50781 0.28131 0.0
C331 C 0.61717 0.54667 0.24115 0.0
O332 O 0.6377 0.60274 0.29152 0.0
C333 C 0.6597 0.51009 0.28759 0.0
O334 O 0.66395 0.58365 0.29637 0.0
O335 O 0.67105 0.5296 0.2941 0.0
C336 C 0.99064 0.9679 0.99051 0.0
C337 C 0.97314 0.94773 0.0194 0.0
C338 C 0.98491 0.9675 0.01316 0.0
C339 C 0.9672 0.92855 0.00276 0.0
C340 C 0.98468 0.94859 0.9738 0.0
C341 C 0.97292 0.92898 0.98004 0.0
N342 N 1.00149 0.98724 0.98462 0.0
C343 C 0.00674 0.98837 0.96243 0.0
C344 C 0.99027 0.94964 0.9511 0.0
C345 C 1.00139 0.96961 0.94542 0.0
Gd346 Gd 0.0636 0.04825 0.04614 0.0
Gd347 Gd 0.00459 0.01822 0.01285 0.0
N348 N 0.99018 0.9865 0.02879 0.0
C349 C 0.96702 0.94794 0.042 0.0
C350 C 0.98308 0.98695 0.05032 0.0
C351 C 0.97194 0.96767 0.05748 0.0
H352 H 0.98469 1.00221 0.06154 0.0
H353 H 0.96645 0.96821 0.07465 0.0
H354 H 0.08139 0.06755 0.99808 0.0
H355 H 0.01389 1.00389 0.95736 0.0
H356 H 0.10066 0.10244 0.98749 0.0
H357 H 0.95789 0.93312 0.0474 0.0
H358 H 0.95792 0.91332 0.0072 0.0
H359 H 0.05434 0.05947 0.10264 0.0
H360 H 0.98579 0.93521 0.93774 0.0
H361 H 0.00533 0.97071 0.92777 0.0
H362 H 0.1113 0.15347 0.05857 0.0
H363 H 0.96797 0.91409 0.96734 0.0
H364 H 0.08255 0.12764 0.12604 0.0
H365 H 0.06268 0.09136 0.13378 0.0
N366 N 0.06685 0.07778 0.07639 0.0
C367 C 0.07801 0.09758 0.0718 0.0
C368 C 0.06149 0.07541 0.09839 0.0
C369 C 0.07811 0.11382 0.11193 0.0
C370 C 0.06679 0.09341 0.11635 0.0
C371 C 0.08401 0.1161 0.08954 0.0
H372 H 0.10099 0.15047 0.09807 0.0
N373 N 0.07804 0.08119 0.03252 0.0
C374 C 0.08398 0.09927 0.0494 0.0
C375 C 0.1016 0.12068 0.02174 0.0
C376 C 0.09589 0.11951 0.04437 0.0
C377 C 0.08433 0.0821 0.01073 0.0
C378 C 0.0958 0.10187 0.00486 0.0
O379 O 0.02897 0.99543 0.0201 0.0
O380 O 0.05218 0.01284 0.05382 0.0
O381 O 0.09632 0.04355 0.03915 0.0
O382 O 0.09072 0.0541 0.07461 0.0
O383 O 0.0064 0.03719 0.04944 0.0
O384 O 0.03921 0.03222 0.06818 0.0
O385 O 0.04118 0.07223 0.03661 0.0
O386 O 0.01404 0.05401 0.00592 0.0
O387 O 0.97085 0.01989 0.01851 0.0
O388 O 0.97882 0.01403 0.98309 0.0
O389 O 0.0623 0.03098 0.00874 0.0
O390 O 0.02844 0.03425 0.99047 0.0
C391 C 0.04206 0.99458 0.03949 0.0
C392 C 0.01892 0.03544 0.06871 0.0
C393 C 0.12013 0.03572 0.07073 0.0
C394 C 0.14678 0.01291 0.06417 0.0
C395 C 0.14205 0.02611 0.1039 0.0
C396 C 0.12596 0.03703 0.09515 0.0
C397 C 0.15251 0.01402 0.08841 0.0
C398 C 0.13074 0.02369 0.05538 0.0
C399 C 0.10493 0.04872 0.06124 0.0
C400 C 0.10196 0.13787 0.06208 0.0
C401 C 0.09605 0.13616 0.08457 0.0
H402 H 0.1108 0.13591 0.01722 0.0
C403 C 0.02581 0.07246 0.01884 0.0
C404 C 0.04912 0.03229 0.9897 0.0
C405 C 0.95014 0.03322 0.98885 0.0
C406 C 0.92435 0.05634 0.99852 0.0
C407 C 0.9343 0.05218 0.95917 0.0
C408 C 0.94805 0.03804 0.9657 0.0
C409 C 0.92249 0.06144 0.97559 0.0
C410 C 0.93807 0.04233 0.00505 0.0
C411 C 0.96372 0.01782 0.99612 0.0
H412 H 0.14659 0.02726 0.12267 0.0
H413 H 0.11839 0.04675 0.10744 0.0
H414 H 0.16518 0.0058 0.09525 0.0
H415 H 0.12692 0.02296 0.03652 0.0
H416 H 0.9326 0.05575 0.94132 0.0
H417 H 0.95685 0.0308 0.95264 0.0
H418 H 0.91155 0.07205 0.97032 0.0
H419 H 0.93904 0.03836 0.02282 0.0
C420 C 0.31435 0.74469 0.22109 0.0
C421 C 0.28476 0.72767 0.18927 0.0
C422 C 0.29393 0.74455 0.2083 0.0
C423 C 0.2962 0.71084 0.18366 0.0
C424 C 0.32608 0.72804 0.21532 0.0
C425 C 0.31684 0.71106 0.19661 0.0
N426 N 0.32251 0.76088 0.23958 0.0
C427 C 0.34261 0.76191 0.25258 0.0
C428 C 0.34668 0.72889 0.22866 0.0
C429 C 0.35504 0.74599 0.24729 0.0
Gd430 Gd 0.26057 0.7836 0.30711 0.0
Gd431 Gd 0.30019 0.78607 0.24857 0.0
N432 N 0.28314 0.76095 0.21441 0.0
C433 C 0.26444 0.72827 0.1763 0.0
C434 C 0.26404 0.7623 0.20077 0.0
C435 C 0.25423 0.74584 0.18187 0.0
H436 H 0.25628 0.77611 0.20382 0.0
H437 H 0.23886 0.74684 0.17147 0.0
H438 H 0.30676 0.79489 0.34907 0.0
H439 H 0.3491 0.77504 0.26707 0.0
H440 H 0.32329 0.82266 0.383 0.0
H441 H 0.2568 0.71557 0.16163 0.0
H442 H 0.28931 0.69767 0.16922 0.0
H443 H 0.21052 0.79398 0.29017 0.0
H444 H 0.35624 0.71646 0.22473 0.0
H445 H 0.37098 0.74683 0.25766 0.0
H446 H 0.26888 0.86698 0.392 0.0
H447 H 0.32552 0.69804 0.19201 0.0
H448 H 0.20163 0.84889 0.33714 0.0
H449 H 0.18771 0.8205 0.30224 0.0
N450 N 0.23715 0.80725 0.31794 0.0
C451 C 0.24486 0.8223 0.3376 0.0
C452 C 0.21684 0.80634 0.30539 0.0
C453 C 0.21168 0.8372 0.33203 0.0
C454 C 0.2038 0.82126 0.31225 0.0
C455 C 0.23244 0.83792 0.34495 0.0
H456 H 0.23201 0.86616 0.37045 0.0
N457 N 0.27764 0.80787 0.3418 0.0
C458 C 0.26567 0.82265 0.34988 0.0
C459 C 0.29563 0.83892 0.38144 0.0
C460 C 0.27454 0.83878 0.36967 0.0
C461 C 0.29777 0.80735 0.354 0.0
C462 C 0.30716 0.82298 0.37371 0.0
O463 O 0.29039 0.75221 0.25818 0.0
O464 O 0.26263 0.76448 0.27264 0.0
O465 O 0.26026 0.7567 0.32725 0.0
O466 O 0.22905 0.76505 0.31468 0.0
O467 O 0.26532 0.79439 0.24184 0.0
O468 O 0.24155 0.78451 0.27051 0.0
O469 O 0.27465 0.81914 0.30498 0.0
O470 O 0.28834 0.80028 0.27949 0.0
O471 O 0.3022 0.81287 0.22818 0.0
O472 O 0.33258 0.80558 0.24458 0.0
O473 O 0.29548 0.77459 0.31172 0.0
O474 O 0.31918 0.79058 0.2859 0.0
C475 C 0.27367 0.74894 0.27016 0.0
C476 C 0.2456 0.79151 0.25006 0.0
C477 C 0.23235 0.75282 0.35176 0.0
C478 C 0.23649 0.7384 0.38855 0.0
C479 C 0.21463 0.76621 0.38446 0.0
C480 C 0.21919 0.76668 0.36137 0.0
C481 C 0.22342 0.75224 0.39815 0.0
C482 C 0.24066 0.73851 0.36537 0.0
C483 C 0.23885 0.75368 0.32823 0.0
C484 C 0.26224 0.8544 0.37694 0.0
C485 C 0.24124 0.85393 0.36466 0.0
H486 H 0.30306 0.85111 0.39663 0.0
C487 C 0.28699 0.81976 0.28856 0.0
C488 C 0.31555 0.7806 0.3047 0.0
C489 C 0.33392 0.81976 0.20847 0.0
C490 C 0.33156 0.8305 0.16948 0.0
C491 C 0.36497 0.81968 0.18596 0.0
C492 C 0.35551 0.81624 0.2064 0.0
C493 C 0.35307 0.82673 0.16753 0.0
C494 C 0.32212 0.82704 0.18998 0.0
C495 C 0.32396 0.81699 0.23016 0.0
H496 H 0.20449 0.77686 0.39185 0.0
H497 H 0.21264 0.77798 0.35122 0.0
H498 H 0.22 0.75215 0.41611 0.0
H499 H 0.25094 0.72786 0.35813 0.0
H500 H 0.38166 0.81709 0.18447 0.0
H501 H 0.36514 0.811 0.22059 0.0
H502 H 0.36087 0.82971 0.15198 0.0
H503 H 0.30555 0.83008 0.19148 0.0
C504 C 0.58677 0.07745 0.49116 0.0
C505 C 0.61397 0.1014 0.52198 0.0
C506 C 0.59746 0.08186 0.51429 0.0
C507 C 0.61894 0.1168 0.5066 0.0
C508 C 0.59282 0.09246 0.47537 0.0
C509 C 0.60843 0.11233 0.48337 0.0
N510 N 0.57187 0.05793 0.48362 0.0
C511 C 0.56477 0.05145 0.46007 0.0
C512 C 0.5838 0.08666 0.45168 0.0
C513 C 0.57012 0.06588 0.44394 0.0
Gd514 Gd 0.50031 0.02748 0.5439 0.0
Gd515 Gd 0.56478 0.03543 0.51306 0.0
N516 N 0.59241 0.06677 0.52903 0.0
C517 C 0.62529 0.10475 0.54487 0.0
C518 C 0.60455 0.06928 0.55067 0.0
C519 C 0.62076 0.08846 0.55916 0.0
H520 H 0.6023 0.05632 0.56112 0.0
H521 H 0.63002 0.09047 0.57655 0.0
H522 H 0.46085 0.00715 0.49745 0.0
H523 H 0.5553 0.03497 0.45337 0.0
H524 H 0.43256 0.97304 0.48312 0.0
H525 H 0.63799 0.11956 0.55142 0.0
H526 H 0.63136 0.13197 0.51233 0.0
H527 H 0.51501 0.0266 0.60287 0.0
H528 H 0.58814 0.09769 0.43905 0.0
H529 H 0.56404 0.06078 0.42544 0.0
H530 H 0.43533 0.93078 0.54655 0.0
H531 H 0.61302 0.12408 0.47151 0.0
H532 H 0.48325 0.96372 0.61759 0.0
H533 H 0.50844 1.00018 0.63048 0.0
N534 N 0.49592 0.00449 0.57316 0.0
C535 C 0.48062 0.98508 0.56611 0.0
C536 C 0.50502 0.01034 0.59627 0.0
C537 C 0.4866 0.97502 0.60499 0.0
C538 C 0.5009 0.99555 0.61232 0.0
C539 C 0.47584 0.96975 0.58186 0.0
H540 H 0.45619 0.93804 0.58628 0.0
N541 N 0.47247 0.99625 0.52881 0.0
C542 C 0.46848 0.98099 0.54358 0.0
C543 C 0.4392 0.95843 0.51423 0.0
C544 C 0.4518 0.96151 0.53648 0.0
C545 C 0.45919 0.99402 0.50786 0.0
C546 C 0.44274 0.9749 0.49999 0.0
O547 O 0.55732 0.06742 0.53296 0.0
O548 O 0.52077 0.06298 0.54424 0.0
O549 O 0.47231 0.04194 0.53071 0.0
O550 O 0.48265 0.04236 0.56859 0.0
O551 O 0.54881 0.02224 0.54289 0.0
O552 O 0.53069 0.0366 0.57019 0.0
O553 O 0.5065 0.99557 0.52291 0.0
O554 O 0.54266 1.00053 0.51089 0.0
O555 O 0.5942 0.02235 0.52536 0.0
O556 O 0.58079 0.01881 0.48796 0.0
O557 O 0.52063 0.03661 0.51671 0.0
O558 O 0.5355 0.03027 0.48526 0.0
C559 C 0.54054 0.07534 0.54142 0.0
C560 C 0.54941 0.03337 0.56351 0.0
C561 C 0.45136 0.05857 0.55959 0.0
C562 C 0.42396 0.08067 0.55195 0.0
C563 C 0.43119 0.07082 0.59079 0.0
C564 C 0.44686 0.05941 0.58301 0.0
C565 C 0.41983 0.0815 0.57537 0.0
C566 C 0.43965 0.0691 0.54394 0.0
C567 C 0.46902 0.04756 0.55243 0.0
C568 C 0.44792 0.9459 0.55182 0.0
C569 C 0.45986 0.95001 0.57443 0.0
H570 H 0.42632 0.94366 0.50815 0.0
C571 C 0.52307 0.98797 0.51371 0.0
C572 C 0.51753 0.03182 0.49418 0.0
C573 C 0.61274 1.00316 0.49576 0.0
C574 C 0.64331 0.9846 0.50327 0.0
C575 C 0.62906 0.98705 0.46323 0.0
C576 C 0.61362 0.9985 0.47147 0.0
C577 C 0.64388 0.98016 0.47902 0.0
C578 C 0.62765 0.99605 0.51174 0.0
C579 C 0.59573 0.0149 0.5036 0.0
H580 H 0.42793 0.07146 0.60884 0.0
H581 H 0.45559 0.05137 0.59545 0.0
H582 H 0.4077 0.09037 0.58166 0.0
H583 H 0.44294 0.06866 0.52588 0.0
H584 H 0.62953 0.98351 0.44454 0.0
H585 H 0.60231 1.00366 0.45871 0.0
H586 H 0.65582 0.97125 0.47232 0.0
H587 H 0.62716 0.99939 0.53048 0.0
C588 C 0.22782 0.30534 0.7334 0.0
C589 C 0.20418 0.27136 0.71225 0.0
C590 C 0.22002 0.28273 0.73145 0.0
C591 C 0.19666 0.28301 0.69486 0.0
C592 C 0.22022 0.31713 0.71608 0.0
C593 C 0.20472 0.30582 0.69673 0.0
N594 N 0.24288 0.3158 0.75223 0.0
C595 C 0.25044 0.33808 0.75529 0.0
C596 C 0.22843 0.33995 0.71874 0.0
C597 C 0.2435 0.35049 0.73854 0.0
Gd598 Gd 0.31308 0.27129 0.78113 0.0
Gd599 Gd 0.25491 0.29359 0.77846 0.0
N600 N 0.22825 0.27182 0.74814 0.0
C601 C 0.19642 0.24862 0.71108 0.0
C602 C 0.22005 0.24983 0.74757 0.0
C603 C 0.20422 0.23786 0.72896 0.0
H604 H 0.22531 0.24146 0.76153 0.0
H605 H 0.19794 0.22036 0.72851 0.0
H606 H 0.34066 0.32421 0.79854 0.0
H607 H 0.26152 0.34632 0.77088 0.0
H608 H 0.36634 0.34609 0.83243 0.0
H609 H 0.18422 0.23928 0.69665 0.0
H610 H 0.18461 0.27453 0.6799 0.0
H611 H 0.30209 0.21942 0.79277 0.0
H612 H 0.22307 0.3496 0.70578 0.0
H613 H 0.24968 0.36817 0.74096 0.0
H614 H 0.37777 0.29327 0.88344 0.0
H615 H 0.19876 0.31459 0.68319 0.0
H616 H 0.33898 0.21811 0.85941 0.0
H617 H 0.31252 0.19879 0.82443 0.0
N618 N 0.32187 0.25015 0.81002 0.0
C619 C 0.33667 0.26108 0.82893 0.0
C620 C 0.31328 0.22807 0.80818 0.0
C621 C 0.33436 0.22727 0.84563 0.0
C622 C 0.31935 0.21631 0.82596 0.0
C623 C 0.34321 0.24992 0.84733 0.0
H624 H 0.36337 0.25338 0.88119 0.0
N625 N 0.33738 0.29418 0.8126 0.0
C626 C 0.34474 0.28369 0.83022 0.0
C627 C 0.36728 0.31827 0.85075 0.0
C628 C 0.35964 0.29555 0.84992 0.0
C629 C 0.34537 0.31617 0.813 0.0
C630 C 0.36022 0.32859 0.83214 0.0
O631 O 0.2658 0.28358 0.74287 0.0
O632 O 0.2861 0.25751 0.75046 0.0
O633 O 0.34176 0.28052 0.76189 0.0
O634 O 0.33133 0.24686 0.76948 0.0
O635 O 0.25703 0.26222 0.79378 0.0
O636 O 0.28122 0.24508 0.77432 0.0
O637 O 0.2999 0.2795 0.81573 0.0
O638 O 0.2847 0.30745 0.80557 0.0
O639 O 0.22929 0.28334 0.80073 0.0
O640 O 0.23923 0.31759 0.79644 0.0
O641 O 0.31189 0.30197 0.76413 0.0
O642 O 0.28661 0.31997 0.78092 0.0
C643 C 0.27676 0.26846 0.73571 0.0
C644 C 0.26422 0.24447 0.78641 0.0
C645 C 0.3635 0.25338 0.74849 0.0
C646 C 0.39466 0.25955 0.72542 0.0
C647 C 0.38386 0.22453 0.73957 0.0
C648 C 0.36693 0.23202 0.75006 0.0
C649 C 0.39763 0.23817 0.72734 0.0
C650 C 0.37754 0.26725 0.73605 0.0
C651 C 0.34532 0.26057 0.76012 0.0
C652 C 0.36634 0.28442 0.86818 0.0
C653 C 0.35814 0.26169 0.86689 0.0
H654 H 0.37875 0.32796 0.86557 0.0
C655 C 0.29093 0.29629 0.82168 0.0
C656 C 0.30397 0.3198 0.76931 0.0
C657 C 0.2025 0.30581 0.80591 0.0
C658 C 0.16837 0.3021 0.82477 0.0
C659 C 0.17187 0.32187 0.79128 0.0
C660 C 0.19313 0.31766 0.78981 0.0
C661 C 0.15957 0.31416 0.8086 0.0
C662 C 0.18996 0.29799 0.82346 0.0
C663 C 0.22587 0.30317 0.80573 0.0
H664 H 0.38634 0.20808 0.74097 0.0
H665 H 0.35655 0.22102 0.75952 0.0
H666 H 0.41075 0.23203 0.71935 0.0
H667 H 0.37522 0.28378 0.73466 0.0
H668 H 0.16494 0.33126 0.77899 0.0
H669 H 0.20237 0.324 0.7763 0.0
H670 H 0.14312 0.31768 0.80945 0.0
H671 H 0.19703 0.28897 0.8361 0.0
C672 C 0.0136 0.08417 0.57943 0.0
C673 C 0.04784 0.10894 0.59922 0.0
C674 C 0.03629 0.0932 0.58009 0.0
C675 C 0.03647 0.11502 0.61791 0.0
C676 C 1.0021 0.0904 0.59805 0.0
C677 C 0.01369 0.10575 0.61734 0.0
N678 N 1.00278 0.06937 0.56053 0.0
C679 C 0.98041 0.06068 0.55879 0.0
C680 C 0.97924 0.08114 0.59664 0.0
C681 C 0.96833 0.0663 0.57686 0.0
Gd682 Gd 0.04658 0.00451 0.52526 0.0
Gd683 Gd 0.02448 0.06155 0.53109 0.0
N684 N 0.047 0.08662 0.56198 0.0
C685 C 0.0704 0.11836 0.59882 0.0
C686 C 0.06863 0.09651 0.56097 0.0
C687 C 0.08074 0.11234 0.57945 0.0
H688 H 0.07642 0.09272 0.54572 0.0
H689 H 0.098 0.11998 0.57868 0.0
H690 H 0.99382 0.97563 0.50796 0.0
H691 H 0.9717 0.04988 0.54321 0.0
H692 H 0.97235 0.95024 0.47359 0.0
H693 H 0.07984 0.13058 0.61314 0.0
H694 H 0.04511 0.12702 0.6328 0.0
H695 H 0.09967 0.01684 0.51389 0.0
H696 H 0.96981 0.08554 0.61057 0.0
H697 H 0.95058 0.05936 0.57541 0.0
H698 H 0.02687 0.94202 0.42173 0.0
H699 H 0.00514 0.11072 0.63182 0.0
H700 H 0.10241 0.98198 0.44631 0.0
H701 H 0.12123 0.00772 0.48193 0.0
N702 N 0.06877 0.99719 0.49612 0.0
C703 C 0.05815 0.98269 0.47689 0.0
C704 C 0.09115 0.00603 0.49818 0.0
C705 C 0.0928 0.98608 0.46019 0.0
C706 C 0.10348 1.00068 0.48023 0.0
C707 C 0.06989 0.97685 0.45833 0.0
H708 H 0.06719 0.95744 0.42407 0.0
N709 N 0.02427 0.98051 0.4934 0.0
C710 C 0.03531 0.97399 0.47555 0.0
C711 C 1.00082 0.95085 0.45487 0.0
C712 C 0.02378 0.95922 0.45564 0.0
C713 C 1.00212 0.97172 0.49315 0.0
C714 C 0.98999 0.957 0.47379 0.0
O715 O 0.03502 0.04925 0.56522 0.0
O716 O 0.06188 0.02964 0.55685 0.0
O717 O 0.03697 0.97608 0.54415 0.0
O718 O 0.07072 0.98549 0.53483 0.0
O719 O 0.05522 0.05937 0.51352 0.0
O720 O 0.0731 0.03604 0.53239 0.0
O721 O 0.0362 0.01759 0.49143 0.0
O722 O 0.00849 0.03565 0.5003 0.0
O723 O 0.03388 0.08931 0.51114 0.0
O724 O 1.00039 0.08048 0.52132 0.0
O725 O 0.01551 0.00568 0.5428 0.0
O726 O 0.99817 0.03003 0.52491 0.0
C727 C 0.0511 0.03936 0.57178 0.0
C728 C 0.07349 0.05308 0.52107 0.0
C729 C 0.06431 0.95358 0.55498 0.0
C730 C 0.05863 0.92218 0.57685 0.0
C731 C 0.09342 0.93284 0.5609 0.0
C732 C 0.08568 0.94991 0.5518 0.0
C733 C 0.08002 0.91906 0.5733 0.0
C734 C 0.05068 0.93957 0.56771 0.0
C735 C 0.05694 0.97193 0.54456 0.0
C736 C 0.03546 0.95334 0.43716 0.0
C737 C 0.05843 0.96212 0.4385 0.0
H738 H 0.99137 0.93945 0.43989 0.0
C739 C 0.01911 0.02626 0.4849 0.0
C740 C 0.99754 0.01301 0.53635 0.0
C741 C 0.0066 0.11204 0.5007 0.0
C742 C 0.01127 0.14223 0.47711 0.0
C743 C 0.97818 0.1338 0.49647 0.0
C744 C 0.98603 0.11679 0.50558 0.0
C745 C 0.99064 0.14638 0.4823 0.0
C746 C 0.01942 0.12502 0.48644 0.0
C747 C 0.01407 0.09377 0.51118 0.0
H748 H 0.10988 0.93021 0.55824 0.0
H749 H 0.09652 0.96022 0.5421 0.0
H750 H 0.08636 0.9058 0.58013 0.0
H751 H 0.03414 0.94202 0.57031 0.0
H752 H 0.96235 0.13727 0.50045 0.0
H753 H 0.9759 0.10739 0.51662 0.0
H754 H 0.9842 0.15958 0.47543 0.0
H755 H 0.03537 0.12175 0.48256 0.0
C756 C 0.23629 0.73054 0.81301 0.0
C757 C 0.21252 0.70297 0.78236 0.0
C758 C 0.23234 0.71918 0.79003 0.0
C759 C 0.19671 0.69833 0.79779 0.0
C760 C 0.22056 0.7253 0.82864 0.0
C761 C 0.20071 0.70944 0.82082 0.0
N762 N 0.25567 0.74597 0.82036 0.0
C763 C 0.26121 0.75469 0.84365 0.0
C764 C 0.22543 0.73572 0.85195 0.0
C765 C 0.24599 0.75016 0.85955 0.0
Gd766 Gd 0.28746 0.8155 0.76429 0.0
Gd767 Gd 0.27918 0.75118 0.79107 0.0
N768 N 0.24755 0.72425 0.77501 0.0
C769 C 0.209 0.69208 0.75922 0.0
C770 C 0.24445 0.71339 0.75262 0.0
C771 C 0.22506 0.69726 0.74433 0.0
H772 H 0.25685 0.71725 0.74117 0.0
H773 H 0.22253 0.68882 0.72647 0.0
H774 H 0.31337 0.84853 0.81418 0.0
H775 H 0.27752 0.76473 0.85055 0.0
H776 H 0.34934 0.87454 0.8281 0.0
H777 H 0.19394 0.67962 0.75269 0.0
H778 H 0.18134 0.68605 0.79212 0.0
H779 H 0.28091 0.81326 0.70469 0.0
H780 H 0.21377 0.73211 0.86443 0.0
H781 H 0.25035 0.75748 0.87782 0.0
H782 H 0.38658 0.87744 0.75964 0.0
H783 H 0.18844 0.7054 0.83259 0.0
H784 H 0.34402 0.84331 0.68584 0.0
H785 H 0.30467 0.82341 0.67428 0.0
N786 N 0.30722 0.82552 0.73316 0.0
C787 C 0.32815 0.83825 0.73995 0.0
C788 C 0.29827 0.8215 0.70993 0.0
C789 C 0.3338 0.8386 0.69926 0.0
C790 C 0.31159 0.82737 0.69266 0.0
C791 C 0.34213 0.8448 0.72312 0.0
H792 H 0.37457 0.86311 0.71782 0.0
N793 N 0.32055 0.84145 0.77941 0.0
C794 C 0.33493 0.84652 0.76366 0.0
C795 C 0.36118 0.87104 0.79444 0.0
C796 C 0.35583 0.86125 0.7709 0.0
C797 C 0.3252 0.85187 0.80209 0.0
C798 C 0.34559 0.86668 0.80999 0.0
O799 O 0.24638 0.758 0.7724 0.0
O800 O 0.25228 0.7926 0.75872 0.0
O801 O 0.27941 0.84632 0.77926 0.0
O802 O 0.26226 0.8285 0.74565 0.0
O803 O 0.28637 0.7721 0.76411 0.0
O804 O 0.28763 0.78944 0.73438 0.0
O805 O 0.31802 0.80724 0.78648 0.0
O806 O 0.31396 0.76865 0.78337 0.0
O807 O 0.29117 0.72108 0.77917 0.0
O808 O 0.29741 0.73721 0.81615 0.0
O809 O 0.2733 0.7985 0.79305 0.0
O810 O 0.28867 0.78039 0.81881 0.0
C811 C 0.23916 0.7737 0.76189 0.0
C812 C 0.28659 0.77074 0.74168 0.0
C813 C 0.26329 0.8662 0.75195 0.0
C814 C 0.24539 0.89722 0.75097 0.0
C815 C 0.26824 0.88884 0.72094 0.0
C816 C 0.27265 0.87104 0.7316 0.0
C817 C 0.25462 0.90192 0.73057 0.0
C818 C 0.24974 0.87938 0.76163 0.0
C819 C 0.26451 0.8458 0.76132 0.0
C820 C 0.37035 0.86643 0.75433 0.0
C821 C 0.36352 0.85823 0.7305 0.0
H822 H 0.37702 0.88247 0.80062 0.0
C823 C 0.32633 0.78922 0.78853 0.0
C824 C 0.28398 0.79874 0.81375 0.0
C825 C 0.31132 0.70436 0.80926 0.0
C826 C 0.33176 0.67519 0.80303 0.0
C827 C 0.3263 0.68891 0.8425 0.0
C828 C 0.31457 0.70358 0.83358 0.0
C829 C 0.33496 0.67486 0.82735 0.0
C830 C 0.31974 0.68984 0.79386 0.0
C831 C 0.2999 0.72105 0.80085 0.0
H832 H 0.27514 0.89233 0.70504 0.0
H833 H 0.28281 0.86075 0.72363 0.0
H834 H 0.25114 0.91559 0.72207 0.0
H835 H 0.24216 0.87549 0.77712 0.0
H836 H 0.32881 0.68856 0.86123 0.0
H837 H 0.30816 0.71444 0.84586 0.0
H838 H 0.3442 0.66363 0.8346 0.0
H839 H 0.31749 0.6903 0.77511 0.0
C840 C 0.57531 0.99931 0.08621 0.0
C841 C 0.59639 0.03008 0.11481 0.0
C842 C 0.57809 0.02087 0.09718 0.0
C843 C 0.61154 0.0172 0.12153 0.0
C844 C 0.59053 0.98635 0.09289 0.0
C845 C 0.60858 0.99538 0.11064 0.0
N846 N 0.55823 0.99127 0.06842 0.0
C847 C 0.555 0.97025 0.05706 0.0
C848 C 0.58737 0.96479 0.08122 0.0
C849 C 0.56947 0.95669 0.0633 0.0
Gd850 Gd 0.53384 0.0515 0.99796 0.0
Gd851 Gd 0.53566 0.0155 0.05799 0.0
N852 N 0.5637 0.03324 0.0895 0.0
C853 C 0.59923 0.05212 0.1248 0.0
C854 C 0.56624 0.05466 0.09957 0.0
C855 C 0.58403 0.06441 0.11721 0.0
H856 H 0.5549 0.06456 0.09408 0.0
H857 H 0.58608 0.08149 0.12483 0.0
H858 H 0.52371 0.00602 0.95483 0.0
H859 H 0.54118 0.96385 0.04321 0.0
H860 H 0.49381 0.98705 0.9238 0.0
H861 H 0.61315 0.05983 0.13827 0.0
H862 H 0.62573 0.02403 0.13496 0.0
H863 H 0.52289 0.10077 0.01281 0.0
H864 H 0.5987 0.95432 0.08584 0.0
H865 H 0.56688 0.94004 0.0542 0.0
H866 H 0.44276 0.03543 0.92022 0.0
H867 H 0.62051 0.98571 0.1159 0.0
H868 H 0.46219 0.10446 0.9715 0.0
H869 H 0.49381 0.12135 0.0027 0.0
N870 N 0.50797 0.07267 0.98766 0.0
C871 C 0.49114 0.06334 0.97007 0.0
C872 C 0.50918 0.09328 0.99921 0.0
C873 C 0.47498 0.09542 0.97582 0.0
C874 C 0.49277 0.105 0.99346 0.0
C875 C 0.47399 0.07435 0.96385 0.0
H876 H 0.44305 0.07216 0.94108 0.0
N877 N 0.50817 0.03281 0.96458 0.0
C878 C 0.4911 0.04271 0.95832 0.0
C879 C 0.4745 0.012 0.92789 0.0
C880 C 0.47373 0.03249 0.93999 0.0
C881 C 0.50958 0.01339 0.95174 0.0
C882 C 0.49269 1.00259 0.93356 0.0
O883 O 0.57082 0.03002 0.05282 0.0
O884 O 0.54867 0.0417 0.02902 0.0
O885 O 0.56153 0.05275 0.97805 0.0
O886 O 0.55343 0.08318 0.99291 0.0
O887 O 0.52556 0.04936 0.06277 0.0
O888 O 0.53692 0.07211 0.03438 0.0
O889 O 0.50029 0.04038 0.00879 0.0
O890 O 0.5137 0.01426 0.02434 0.0
O891 O 0.51252 0.01743 0.08333 0.0
O892 O 0.51424 0.98566 0.06476 0.0
O893 O 0.54351 0.01759 0.99161 0.0
O894 O 0.53625 0.99553 0.02176 0.0
C895 C 0.56909 0.04175 0.0364 0.0
C896 C 0.52932 0.06876 0.05473 0.0
C897 C 0.5668 0.08151 0.95599 0.0
C898 C 0.58141 0.07723 0.91895 0.0
C899 C 0.55291 0.09853 0.92362 0.0
C900 C 0.55252 0.09421 0.94671 0.0
C901 C 0.5671 0.08982 0.90962 0.0
C902 C 0.58157 0.07357 0.94221 0.0
C903 C 0.56516 0.07405 0.97881 0.0
C904 C 0.4563 0.04312 0.93411 0.0
C905 C 0.45647 0.06404 0.94596 0.0
H906 H 0.46146 1.00358 0.91378 0.0
C907 C 0.49776 0.02491 0.02201 0.0
C908 C 0.5418 0.9986 0.00044 0.0
C909 C 0.49965 0.98586 0.10118 0.0
C910 C 0.48328 0.98744 0.13756 0.0
C911 C 0.4915 0.95317 0.12011 0.0
C912 C 0.49956 0.96345 0.10173 0.0
C913 C 0.48338 0.96506 0.13796 0.0
C914 C 0.49143 0.99774 0.11916 0.0
C915 C 0.50505 0.99614 0.08047 0.0
H916 H 0.54187 0.10823 0.9164 0.0
H917 H 0.54079 0.10034 0.95702 0.0
H918 H 0.5669 0.09283 0.89157 0.0
H919 H 0.59237 0.06347 0.94921 0.0
H920 H 0.49113 0.93583 0.12028 0.0
H921 H 0.50516 0.95373 0.0877 0.0
H922 H 0.47664 0.95663 0.15175 0.0
H923 H 0.4909 0.01488 0.11859 0.0
C924 C 0.34804 0.32652 0.31686 0.0
C925 C 0.36877 0.34411 0.28822 0.0
C926 C 0.34854 0.33277 0.29447 0.0
C927 C 0.38824 0.34939 0.30464 0.0
C928 C 0.36765 0.33183 0.33331 0.0
C929 C 0.38766 0.34338 0.32712 0.0
N930 N 0.32847 0.3153 0.32254 0.0
C931 C 0.32723 0.30943 0.34438 0.0
C932 C 0.36654 0.32559 0.35564 0.0
C933 C 0.34626 0.31433 0.36118 0.0
Gd934 Gd 0.27048 0.25399 0.25997 0.0
Gd935 Gd 0.29728 0.31311 0.29496 0.0
N936 N 0.32931 0.32795 0.27895 0.0
C937 C 0.3688 0.35018 0.26575 0.0
C938 C 0.32909 0.33494 0.25755 0.0
C939 C 0.34885 0.34563 0.25038 0.0
H940 H 0.3137 0.33347 0.24641 0.0
H941 H 0.34855 0.35097 0.23328 0.0
H942 H 0.25501 0.22597 0.30295 0.0
H943 H 0.31141 0.30196 0.34936 0.0
H944 H 0.22089 0.20287 0.31298 0.0
H945 H 0.38402 0.35887 0.2603 0.0
H946 H 0.40385 0.3583 0.30019 0.0
H947 H 0.25761 0.2642 0.20452 0.0
H948 H 0.3812 0.32958 0.36882 0.0
H949 H 0.34515 0.30985 0.37856 0.0
H950 H 0.16587 0.19836 0.2462 0.0
H951 H 0.40282 0.34775 0.33962 0.0
H952 H 0.18873 0.23455 0.1818 0.0
H953 H 0.22474 0.25641 0.17433 0.0
N954 N 0.24008 0.24889 0.23005 0.0
C955 C 0.22063 0.23611 0.23417 0.0
C956 C 0.2418 0.25575 0.20867 0.0
C957 C 0.20299 0.23848 0.19547 0.0
C958 C 0.22326 0.25091 0.19123 0.0
C959 C 0.20153 0.23068 0.21702 0.0
H960 H 0.16697 0.2129 0.20866 0.0
N961 N 0.23881 0.23272 0.27129 0.0
C962 C 0.22002 0.22768 0.2553 0.0
C963 C 0.20056 0.20533 0.2811 0.0
C964 C 0.20031 0.21393 0.25987 0.0
C965 C 0.23952 0.22346 0.29139 0.0
C966 C 0.22032 0.20998 0.29684 0.0
O967 O 0.32076 0.28919 0.28769 0.0
O968 O 0.30448 0.27077 0.25179 0.0
O969 O 0.28519 0.22614 0.26629 0.0
O970 O 0.26923 0.22841 0.23096 0.0
O971 O 0.27859 0.31288 0.25866 0.0
O972 O 0.28366 0.28049 0.23939 0.0
O973 O 0.24357 0.26994 0.27537 0.0
O974 O 0.25937 0.30555 0.29419 0.0
O975 O 0.30053 0.34799 0.2942 0.0
O976 O 0.2974 0.33502 0.32697 0.0
O977 O 0.28706 0.25704 0.29757 0.0
O978 O 0.28046 0.28896 0.31661 0.0
C979 C 0.32246 0.27804 0.26733 0.0
C980 C 0.27891 0.29988 0.23911 0.0
C981 C 0.28552 0.19699 0.23463 0.0
C982 C 0.2978 0.16382 0.2414 0.0
C983 C 0.28947 0.17092 0.20155 0.0
C984 C 0.28403 0.19069 0.21026 0.0
C985 C 0.29622 0.15738 0.21708 0.0
C986 C 0.29262 0.18362 0.25008 0.0
C987 C 0.28013 0.21761 0.24413 0.0
C988 C 0.18116 0.20891 0.24301 0.0
C989 C 0.18178 0.21722 0.22164 0.0
H990 H 0.18577 0.1947 0.28526 0.0
C991 C 0.24191 0.28901 0.28699 0.0
C992 C 0.28209 0.2684 0.31613 0.0
C993 C 0.28225 0.36585 0.32206 0.0
C994 C 0.25589 0.38763 0.30998 0.0
C995 C 0.26555 0.38589 0.35136 0.0
C996 C 0.28002 0.37215 0.34565 0.0
C997 C 0.25356 0.39371 0.33362 0.0
C998 C 0.26992 0.37342 0.30429 0.0
C999 C 0.29815 0.35218 0.31629 0.0
H1000 H 0.28835 0.16606 0.1828 0.0
H1001 H 0.27878 0.20103 0.19801 0.0
H1002 H 0.30023 0.14196 0.2102 0.0
H1003 H 0.29361 0.1883 0.26891 0.0
H1004 H 0.26403 0.3909 0.36958 0.0
H1005 H 0.28963 0.3666 0.35964 0.0
H1006 H 0.24317 0.40517 0.33842 0.0
H1007 H 0.27161 0.36883 0.28599 0.0
C1008 C 0.51384 0.58482 0.07994 0.0
C1009 C 0.54885 0.60734 0.10079 0.0
C1010 C 0.5368 0.59277 0.081 0.0
C1011 C 0.53759 0.61381 0.11941 0.0
C1012 C 0.50253 0.59119 0.09866 0.0
C1013 C 0.51451 0.60575 0.11835 0.0
N1014 N 0.50271 0.57038 0.06089 0.0
C1015 C 0.48027 0.56209 0.05916 0.0
C1016 C 0.47951 0.58256 0.09713 0.0
C1017 C 0.46834 0.56799 0.07726 0.0
Gd1018 Gd 0.54638 0.5046 0.02705 0.0
Gd1019 Gd 0.52421 0.56184 0.03154 0.0
N1020 N 0.54741 0.58562 0.06303 0.0
C1021 C 0.57192 0.6149 0.10132 0.0
C1022 C 0.56968 0.59361 0.06306 0.0
C1023 C 0.58233 0.60814 0.08229 0.0
H1024 H 0.57771 0.5892 0.04819 0.0
H1025 H 0.60007 0.61426 0.08233 0.0
H1026 H 0.49403 0.47495 0.00941 0.0
H1027 H 0.47145 0.55132 0.0436 0.0
H1028 H 0.47296 0.44927 0.97502 0.0
H1029 H 0.58178 0.62613 0.1162 0.0
H1030 H 0.5466 0.62498 0.13476 0.0
H1031 H 0.59987 0.51521 0.01761 0.0
H1032 H 0.47022 0.58707 0.11115 0.0
H1033 H 0.45052 0.56139 0.07582 0.0
H1034 H 0.52846 0.44025 0.92454 0.0
H1035 H 0.5061 0.61083 0.13291 0.0
H1036 H 0.60391 0.48005 0.9505 0.0
H1037 H 0.62215 0.50584 0.98632 0.0
N1038 N 0.56934 0.49518 -0.00052 0.0
C1039 C 0.55907 0.48064 0.98018 0.0
C1040 C 0.59173 0.50403 0.00198 0.0
C1041 C 0.59406 0.48406 0.96419 0.0
C1042 C 0.60441 0.49867 0.98436 0.0
C1043 C 0.57113 0.47478 0.96191 0.0
H1044 H 0.56889 0.45557 0.92762 0.0
N1045 N 0.52494 0.47899 0.99578 0.0
C1046 C 0.53624 0.47208 0.97839 0.0
C1047 C 0.50187 0.44925 0.9571 0.0
C1048 C 0.52493 0.45733 0.95836 0.0
C1049 C 0.50265 0.47053 0.99504 0.0
C1050 C 0.49073 0.45572 0.97564 0.0
O1051 O 0.53301 0.54873 0.0658 0.0
O1052 O 0.56122 0.53285 0.05562 0.0
O1053 O 0.53631 0.47798 0.0477 0.0
O1054 O 0.57103 0.48884 0.04303 0.0
O1055 O 0.55482 0.56017 0.0133 0.0
O1056 O 0.57227 0.5364 0.03197 0.0
O1057 O 0.53571 0.51594 0.99222 0.0
O1058 O 0.50912 0.53592 0.00034 0.0
O1059 O 0.53385 0.59038 0.01284 0.0
O1060 O 0.49977 0.58027 0.02106 0.0
O1061 O 0.51474 0.50622 0.04332 0.0
O1062 O 0.49762 0.53046 0.02489 0.0
C1063 C 0.55002 0.53986 0.07173 0.0
C1064 C 0.5726 0.55227 0.01895 0.0
C1065 C 0.5607 0.4528 0.05319 0.0
C1066 C 0.55839 0.42054 0.07371 0.0
C1067 C 0.58312 0.42587 0.04391 0.0
C1068 C 0.57633 0.44524 0.04009 0.0
C1069 C 0.57439 0.41371 0.06071 0.0
C1070 C 0.55144 0.44012 0.06982 0.0
C1071 C 0.55671 0.47527 0.05225 0.0
C1072 C 0.53689 0.45143 0.94014 0.0
C1073 C 0.55992 0.46016 0.94189 0.0
H1074 H 0.49255 0.43792 0.942 0.0
C1075 C 0.51972 0.52595 0.98532 0.0
C1076 C 0.49681 0.51327 0.03612 0.0
C1077 C 0.50631 0.61236 0.00119 0.0
C1078 C 0.5114 0.64271 0.97784 0.0
C1079 C 0.47738 0.63332 0.99549 0.0
C1080 C 0.48525 0.61651 0.005 0.0
C1081 C 0.49029 0.6463 0.98198 0.0
C1082 C 0.51955 0.6257 0.98756 0.0
C1083 C 0.5137 0.59412 0.01179 0.0
H1084 H 0.59552 0.42044 0.03409 0.0
H1085 H 0.58389 0.45467 0.02739 0.0
H1086 H 0.58017 0.39888 0.06362 0.0
H1087 H 0.53968 0.44592 0.08037 0.0
H1088 H 0.46116 0.63633 0.99862 0.0
H1089 H 0.47476 0.60677 0.01548 0.0
H1090 H 0.48382 0.65932 0.97476 0.0
H1091 H 0.53585 0.62284 0.98444 0.0
C1092 C 0.73736 0.23352 0.31215 0.0
C1093 C 0.71463 0.20479 0.28206 0.0
C1094 C 0.73374 0.22191 0.28942 0.0
C1095 C 0.69906 0.19963 0.29763 0.0
C1096 C 0.72187 0.22803 0.32791 0.0
C1097 C 0.70266 0.21121 0.32047 0.0
N1098 N 0.7562 0.24968 0.31903 0.0
C1099 C 0.76112 0.25992 0.34179 0.0
C1100 C 0.72633 0.2393 0.35088 0.0
C1101 C 0.74613 0.25514 0.35789 0.0
Gd1102 Gd 0.78662 0.31317 0.26129 0.0
Gd1103 Gd 0.78031 0.25481 0.29037 0.0
N1104 N 0.74878 0.22753 0.27442 0.0
C1105 C 0.71171 0.19339 0.25918 0.0
C1106 C 0.74655 0.21588 0.25252 0.0
C1107 C 0.72782 0.19888 0.2444 0.0
H1108 H 0.75941 0.2194 0.24154 0.0
H1109 H 0.72597 0.18985 0.22688 0.0
H1110 H 0.80886 0.34637 0.3116 0.0
H1111 H 0.77684 0.27133 0.34802 0.0
H1112 H 0.84366 0.37382 0.32722 0.0
H1113 H 0.69723 0.18017 0.25286 0.0
H1114 H 0.68423 0.18661 0.29224 0.0
H1115 H 0.79022 0.29656 0.20368 0.0
H1116 H 0.71486 0.23551 0.3635 0.0
H1117 H 0.75004 0.26343 0.37584 0.0
H1118 H 0.88535 0.37718 0.26188 0.0
H1119 H 0.69059 0.20686 0.33235 0.0
H1120 H 0.85328 0.33104 0.1893 0.0
H1121 H 0.81748 0.3042 0.17622 0.0
N1122 N 0.811 0.3176 0.23298 0.0
C1123 C 0.83025 0.33316 0.24034 0.0
C1124 C 0.80611 0.30762 0.21013 0.0
C1125 C 0.84154 0.32747 0.2017 0.0
C1126 C 0.82139 0.31222 0.19427 0.0
C1127 C 0.84611 0.3383 0.22487 0.0
H1128 H 0.8783 0.35825 0.22119 0.0
N1129 N 0.81896 0.33874 0.27836 0.0
C1130 C 0.83421 0.34415 0.26346 0.0
C1131 C 0.85764 0.3706 0.29472 0.0
C1132 C 0.85413 0.36011 0.27142 0.0
C1133 C 0.82182 0.34955 0.3007 0.0
C1134 C 0.84134 0.36541 0.30936 0.0
O1135 O 0.74664 0.26137 0.27389 0.0
O1136 O 0.75082 0.29393 0.25715 0.0
O1137 O 0.7755 0.34374 0.2717 0.0
O1138 O 0.7746 0.33048 0.23447 0.0
O1139 O 0.79399 0.26352 0.25783 0.0
O1140 O 0.77469 0.28251 0.23577 0.0
O1141 O 0.81944 0.30286 0.27446 0.0
O1142 O 0.81409 0.27856 0.30194 0.0
O1143 O 0.7966 0.22764 0.27861 0.0
O1144 O 0.79145 0.23563 0.31536 0.0
O1145 O 0.77167 0.30614 0.29387 0.0
O1146 O 0.79035 0.28591 0.31551 0.0
C1147 C 0.73839 0.27604 0.26284 0.0
C1148 C 0.78141 0.26446 0.23863 0.0
C1149 C 0.76179 0.36429 0.24176 0.0
C1150 C 0.74078 0.39306 0.24755 0.0
C1151 C 0.75427 0.38526 0.21028 0.0
C1152 C 0.7637 0.36882 0.21877 0.0
C1153 C 0.74279 0.3973 0.22455 0.0
C1154 C 0.75039 0.37662 0.25628 0.0
C1155 C 0.77057 0.34584 0.24966 0.0
C1156 C 0.86994 0.365 0.25603 0.0
C1157 C 0.86594 0.35417 0.23286 0.0
H1158 H 0.87275 0.38292 0.30149 0.0
C1159 C 0.82724 0.29198 0.29073 0.0
C1160 C 0.78302 0.30381 0.31334 0.0
C1161 C 0.80982 0.20561 0.30782 0.0
C1162 C 0.82962 0.17595 0.30075 0.0
C1163 C 0.8215 0.18692 0.33994 0.0
C1164 C 0.8111 0.20281 0.33168 0.0
C1165 C 0.83073 0.17355 0.3246 0.0
C1166 C 0.81917 0.19203 0.29225 0.0
C1167 C 0.79924 0.22319 0.3001 0.0
H1168 H 0.75575 0.38859 0.19254 0.0
H1169 H 0.77238 0.35953 0.20726 0.0
H1170 H 0.73544 0.40996 0.21766 0.0
H1171 H 0.74859 0.37319 0.27397 0.0
H1172 H 0.82242 0.18498 0.35832 0.0
H1173 H 0.80415 0.213 0.34413 0.0
H1174 H 0.83875 0.16124 0.33132 0.0
H1175 H 0.8184 0.19393 0.27384 0.0
C1176 C 0.07356 0.50255 0.58471 0.0
C1177 C 0.09147 0.53345 0.61456 0.0
C1178 C 0.07386 0.52326 0.5965 0.0
C1179 C 0.10894 0.52275 0.62007 0.0
C1180 C 0.09078 0.49153 0.59047 0.0
C1181 C 0.10857 0.50182 0.60808 0.0
N1182 N 0.05652 0.49332 0.5673 0.0
C1183 C 0.05516 0.4728 0.55545 0.0
C1184 C 0.08966 0.47053 0.57823 0.0
C1185 C 0.07166 0.46106 0.56076 0.0
Gd1186 Gd 0.03102 0.55076 0.49689 0.0
Gd1187 Gd 0.03097 0.51481 0.55733 0.0
N1188 N 0.05687 0.5333 0.59043 0.0
C1189 C 0.09092 0.55402 0.62668 0.0
C1190 C 0.05563 0.55276 0.60327 0.0
C1191 C 0.07274 0.56353 0.62125 0.0
H1192 H 0.04146 0.56013 0.60024 0.0
H1193 H 0.0718 0.57914 0.63101 0.0
H1194 H 0.0185 0.50509 0.45545 0.0
H1195 H 0.04138 0.46547 0.54181 0.0
H1196 H 0.98996 0.48873 0.42175 0.0
H1197 H 0.10415 0.56243 0.64061 0.0
H1198 H 0.1227 0.53043 0.63373 0.0
H1199 H 0.0215 0.60092 0.51427 0.0
H1200 H 0.10254 0.46149 0.58215 0.0
H1201 H 0.07058 0.4448 0.55126 0.0
H1202 H 0.94463 0.54224 0.4152 0.0
H1203 H 0.12208 0.4937 0.61261 0.0
H1204 H 0.96417 0.60888 0.47026 0.0
H1205 H 0.99418 0.62314 0.50374 0.0
N1206 N 0.00681 0.57393 0.48741 0.0
C1207 C 0.99089 0.56609 0.46845 0.0
C1208 C 0.00831 0.59428 0.49982 0.0
C1209 C 0.97611 0.59898 0.47481 0.0
C1210 C 0.99297 0.60706 0.49378 0.0
C1211 C 0.97493 0.57832 0.46182 0.0
H1212 H 0.94581 0.57864 0.43735 0.0
N1213 N 0.00557 0.53391 0.46308 0.0
C1214 C 0.99031 0.54557 0.45584 0.0
C1215 C 0.97345 0.51599 0.42426 0.0
C1216 C 0.97364 0.53675 0.43645 0.0
C1217 C 0.00588 0.51398 0.4507 0.0
C1218 C 0.98977 0.50466 0.4313 0.0
O1219 O 0.06462 0.52464 0.54631 0.0
O1220 O 0.05247 0.55178 0.53102 0.0
O1221 O 0.05751 0.54997 0.47524 0.0
O1222 O 0.04949 0.58112 0.48788 0.0
O1223 O 0.02162 0.54885 0.5631 0.0
O1224 O 0.0304 0.57066 0.53307 0.0
O1225 O 0.99564 0.53431 0.49983 0.0
O1226 O 0.01737 0.52534 0.52627 0.0
O1227 O 0.00405 0.51431 0.57835 0.0
O1228 O 0.01022 0.48354 0.5619 0.0
O1229 O 0.04037 0.51646 0.4927 0.0
O1230 O 0.02722 0.49399 0.52077 0.0
C1231 C 0.06786 0.54039 0.5335 0.0
C1232 C 0.02381 0.56764 0.55393 0.0
C1233 C 0.06335 0.57795 0.45133 0.0
C1234 C 0.07908 0.57415 0.41482 0.0
C1235 C 0.05603 0.60087 0.42172 0.0
C1236 C 0.05317 0.59453 0.44368 0.0
C1237 C 0.0688 0.59063 0.40723 0.0
C1238 C 0.07655 0.56806 0.43694 0.0
C1239 C 0.06108 0.57109 0.47442 0.0
C1240 C 0.95762 0.54881 0.42996 0.0
C1241 C 0.95829 0.56954 0.44259 0.0
H1242 H 0.9609 0.50864 0.40931 0.0
C1243 C 0.99712 0.52372 0.51728 0.0
C1244 C 0.03557 0.49707 0.50068 0.0
C1245 C 0.99795 0.48471 0.59949 0.0
C1246 C 0.98443 0.4878 0.63745 0.0
C1247 C 0.0093 0.46312 0.62885 0.0
C1248 C 0.01009 0.4693 0.60651 0.0
C1249 C 0.99666 0.47241 0.64435 0.0
C1250 C 0.98499 0.49366 0.61493 0.0
C1251 C 0.99947 0.49294 0.57692 0.0
H1252 H 0.04827 0.61369 0.41588 0.0
H1253 H 0.04308 0.6026 0.45459 0.0
H1254 H 0.07079 0.59562 0.39017 0.0
H1255 H 0.08458 0.55535 0.44276 0.0
H1256 H 0.01866 0.45126 0.63425 0.0
H1257 H 0.02037 0.46227 0.59496 0.0
H1258 H 0.99629 0.46744 0.66161 0.0
H1259 H 0.97589 0.50582 0.60963 0.0
C1260 C 0.72898 0.80316 0.22893 0.0
C1261 C 0.70522 0.76865 0.20906 0.0
C1262 C 0.72098 0.78061 0.22806 0.0
C1263 C 0.69769 0.7796 0.19103 0.0
C1264 C 0.72156 0.81417 0.21076 0.0
C1265 C 0.70586 0.80228 0.19186 0.0
N1266 N 0.74432 0.81425 0.2473 0.0
C1267 C 0.75269 0.83635 0.2488 0.0
C1268 C 0.73023 0.83681 0.21207 0.0
C1269 C 0.74585 0.84794 0.2312 0.0
Gd1270 Gd 0.81246 0.77237 0.28158 0.0
Gd1271 Gd 0.75405 0.79347 0.27616 0.0
N1272 N 0.7291 0.77029 0.24542 0.0
C1273 C 0.6976 0.74598 0.20865 0.0
C1274 C 0.721 0.74839 0.24556 0.0
C1275 C 0.70542 0.73585 0.22707 0.0
H1276 H 0.72597 0.74055 0.26007 0.0
H1277 H 0.69923 0.71842 0.22719 0.0
H1278 H 0.83987 0.82491 0.30033 0.0
H1279 H 0.76424 0.84518 0.26386 0.0
H1280 H 0.86563 0.84604 0.33465 0.0
H1281 H 0.68552 0.73621 0.19436 0.0
H1282 H 0.68562 0.77066 0.17629 0.0
H1283 H 0.80117 0.71986 0.29159 0.0
H1284 H 0.72494 0.84584 0.19847 0.0
H1285 H 0.75249 0.86547 0.23248 0.0
H1286 H 0.87632 0.7918 0.38414 0.0
H1287 H 0.69995 0.81047 0.17776 0.0
H1288 H 0.83733 0.71699 0.3581 0.0
H1289 H 0.81124 0.69841 0.32257 0.0
N1290 N 0.82046 0.75041 0.30992 0.0
C1291 C 0.83503 0.76094 0.32916 0.0
C1292 C 0.81202 0.72824 0.30733 0.0
C1293 C 0.83273 0.72654 0.3447 0.0
C1294 C 0.81794 0.716 0.32471 0.0
C1295 C 0.84152 0.74926 0.34711 0.0
H1296 H 0.86168 0.75184 0.38081 0.0
N1297 N 0.83618 0.79454 0.31375 0.0
C1298 C 0.84326 0.78359 0.33106 0.0
C1299 C 0.86613 0.81772 0.35227 0.0
C1300 C 0.85822 0.79496 0.35093 0.0
C1301 C 0.84441 0.81655 0.31461 0.0
C1302 C 0.85928 0.82852 0.33397 0.0
O1303 O 0.76692 0.78423 0.24161 0.0
O1304 O 0.78615 0.75791 0.25061 0.0
O1305 O 0.84127 0.7824 0.26251 0.0
O1306 O 0.83193 0.74889 0.27086 0.0
O1307 O 0.75604 0.76295 0.29322 0.0
O1308 O 0.78069 0.74603 0.27443 0.0
O1309 O 0.79893 0.78207 0.31572 0.0
O1310 O 0.78129 0.80908 0.30582 0.0
O1311 O 0.72643 0.78418 0.29702 0.0
O1312 O 0.73498 0.81721 0.28734 0.0
O1313 O 0.81134 0.80293 0.26453 0.0
O1314 O 0.78578 0.82019 0.28147 0.0
C1315 C 0.77794 0.76899 0.23529 0.0
C1316 C 0.76382 0.74534 0.2867 0.0
C1317 C 0.8647 0.75602 0.25108 0.0
C1318 C 0.89466 0.76079 0.22629 0.0
C1319 C 0.88844 0.72939 0.24743 0.0
C1320 C 0.87081 0.73661 0.25673 0.0
C1321 C 0.90024 0.74132 0.23228 0.0
C1322 C 0.87688 0.76832 0.23585 0.0
C1323 C 0.84573 0.76282 0.26156 0.0
C1324 C 0.8648 0.78333 0.36877 0.0
C1325 C 0.85647 0.76056 0.36687 0.0
H1326 H 0.87768 0.82705 0.36722 0.0
C1327 C 0.78939 0.79855 0.32172 0.0
C1328 C 0.8034 0.8206 0.27023 0.0
C1329 C 0.70378 0.81095 0.30969 0.0
C1330 C 0.67229 0.80494 0.33251 0.0
C1331 C 0.68322 0.83978 0.31804 0.0
C1332 C 0.70027 0.83225 0.30785 0.0
C1333 C 0.66932 0.82625 0.33024 0.0
C1334 C 0.68965 0.79719 0.32222 0.0
C1335 C 0.7219 0.80372 0.29783 0.0
H1336 H 0.89297 0.71444 0.25197 0.0
H1337 H 0.86199 0.72695 0.26851 0.0
H1338 H 0.91387 0.73535 0.22519 0.0
H1339 H 0.87245 0.78332 0.23128 0.0
H1340 H 0.6807 0.85617 0.31637 0.0
H1341 H 0.71064 0.84319 0.29833 0.0
H1342 H 0.65607 0.83244 0.33791 0.0
H1343 H 0.69193 0.78068 0.32376 0.0
C1344 C 0.81525 0.24416 0.72151 0.0
C1345 C 0.78555 0.22687 0.68986 0.0
C1346 C 0.79457 0.24369 0.70901 0.0
C1347 C 0.7975 0.21063 0.68363 0.0
C1348 C 0.82738 0.22798 0.71522 0.0
C1349 C 0.81839 0.21122 0.69622 0.0
N1350 N 0.82321 0.26008 0.7403 0.0
C1351 C 0.84334 0.26114 0.75327 0.0
C1352 C 0.8481 0.22898 0.72839 0.0
C1353 C 0.85614 0.24568 0.74746 0.0
Gd1354 Gd 0.76047 0.28267 0.80712 0.0
Gd1355 Gd 0.80072 0.28503 0.74951 0.0
N1356 N 0.78324 0.2595 0.71572 0.0
C1357 C 0.76477 0.22683 0.67748 0.0
C1358 C 0.7634 0.26 0.70286 0.0
C1359 C 0.75378 0.24359 0.68388 0.0
H1360 H 0.75478 0.273 0.70658 0.0
H1361 H 0.73791 0.244 0.67406 0.0
H1362 H 0.80574 0.2931 0.85007 0.0
H1363 H 0.8496 0.274 0.76808 0.0
H1364 H 0.82214 0.32083 0.88413 0.0
H1365 H 0.75723 0.21414 0.66276 0.0
H1366 H 0.79076 0.19756 0.66905 0.0
H1367 H 0.71081 0.29346 0.7895 0.0
H1368 H 0.85797 0.2169 0.72405 0.0
H1369 H 0.87214 0.2466 0.75774 0.0
H1370 H 0.76866 0.36645 0.8915 0.0
H1371 H 0.82742 0.19859 0.6912 0.0
H1372 H 0.70218 0.3491 0.83553 0.0
H1373 H 0.68832 0.32054 0.80076 0.0
N1374 N 0.73715 0.30657 0.81755 0.0
C1375 C 0.74475 0.32164 0.8372 0.0
C1376 C 0.71707 0.30587 0.80466 0.0
C1377 C 0.71206 0.33714 0.83078 0.0
C1378 C 0.70422 0.32111 0.81108 0.0
C1379 C 0.73255 0.33759 0.84411 0.0
H1380 H 0.73226 0.36616 0.86921 0.0
N1381 N 0.77713 0.30667 0.84211 0.0
C1382 C 0.76531 0.32172 0.84985 0.0
C1383 C 0.79494 0.33768 0.88182 0.0
C1384 C 0.77412 0.33786 0.86964 0.0
C1385 C 0.79695 0.30581 0.85472 0.0
C1386 C 0.80625 0.32141 0.8745 0.0
O1387 O 0.79031 0.25091 0.75839 0.0
O1388 O 0.76316 0.2642 0.77262 0.0
O1389 O 0.75937 0.25544 0.82686 0.0
O1390 O 0.72854 0.26423 0.81386 0.0
O1391 O 0.76645 0.29472 0.74258 0.0
O1392 O 0.74207 0.2836 0.7702 0.0
O1393 O 0.77466 0.31823 0.80519 0.0
O1394 O 0.7894 0.29948 0.78065 0.0
O1395 O 0.8029 0.31202 0.72951 0.0
O1396 O 0.83327 0.30384 0.74477 0.0
O1397 O 0.79526 0.27331 0.81233 0.0
O1398 O 0.81947 0.28946 0.78701 0.0
C1399 C 0.77345 0.24812 0.77017 0.0
C1400 C 0.74637 0.29132 0.75013 0.0
C1401 C 0.731 0.25181 0.85091 0.0
C1402 C 0.7358 0.23887 0.88864 0.0
C1403 C 0.71076 0.26363 0.88213 0.0
C1404 C 0.71592 0.26408 0.85925 0.0
C1405 C 0.72073 0.25119 0.89685 0.0
C1406 C 0.74064 0.2391 0.86561 0.0
C1407 C 0.73792 0.25267 0.82751 0.0
C1408 C 0.76205 0.35383 0.87647 0.0
C1409 C 0.74132 0.35367 0.86377 0.0
H1410 H 0.80231 0.34985 0.89704 0.0
C1411 C 0.78755 0.31891 0.78926 0.0
C1412 C 0.81549 0.27937 0.80566 0.0
C1413 C 0.83331 0.31697 0.70804 0.0
C1414 C 0.82898 0.3267 0.66877 0.0
C1415 C 0.86138 0.31281 0.68241 0.0
C1416 C 0.85359 0.31107 0.70404 0.0
C1417 C 0.84908 0.32048 0.66474 0.0
C1418 C 0.82125 0.32498 0.69038 0.0
C1419 C 0.82456 0.31534 0.73051 0.0
H1420 H 0.69914 0.27307 0.88852 0.0
H1421 H 0.70831 0.27415 0.84827 0.0
H1422 H 0.71656 0.25105 0.91455 0.0
H1423 H 0.75251 0.22987 0.85929 0.0
H1424 H 0.87706 0.30838 0.67939 0.0
H1425 H 0.86342 0.30516 0.71754 0.0
H1426 H 0.85553 0.32212 0.64821 0.0
H1427 H 0.80576 0.32995 0.69338 0.0
C1428 C 0.84246 0.82548 0.81725 0.0
C1429 C 0.86194 0.84751 0.79088 0.0
C1430 C 0.84251 0.8337 0.79602 0.0
C1431 C 0.88139 0.85281 0.80732 0.0
C1432 C 0.86182 0.83136 0.83408 0.0
C1433 C 0.8813 0.84484 0.82889 0.0
N1434 N 0.8232 0.81281 0.82197 0.0
C1435 C 0.82194 0.80658 0.8437 0.0
C1436 C 0.86083 0.82413 0.85595 0.0
C1437 C 0.84075 0.81186 0.86083 0.0
Gd1438 Gd 0.76734 0.74795 0.75839 0.0
Gd1439 Gd 0.79212 0.80735 0.7927 0.0
N1440 N 0.82335 0.82869 0.78062 0.0
C1441 C 0.86107 0.85597 0.76957 0.0
C1442 C 0.82204 0.83789 0.76049 0.0
C1443 C 0.84096 0.85126 0.75439 0.0
H1444 H 0.80632 0.83532 0.7494 0.0
H1445 H 0.83991 0.85825 0.7382 0.0
H1446 H 0.75196 0.72321 0.80485 0.0
H1447 H 0.80629 0.79834 0.84842 0.0
H1448 H 0.71731 0.70438 0.81756 0.0
H1449 H 0.87564 0.86658 0.76496 0.0
H1450 H 0.89645 0.86343 0.8037 0.0
H1451 H 0.75256 0.76023 0.70471 0.0
H1452 H 0.87527 0.82847 0.8694 0.0
H1453 H 0.83961 0.80686 0.87799 0.0
H1454 H 0.66082 0.70153 0.75287 0.0
H1455 H 0.8963 0.84951 0.84162 0.0
H1456 H 0.6825 0.73407 0.68594 0.0
H1457 H 0.71855 0.75383 0.67623 0.0
N1458 N 0.73578 0.74618 0.73137 0.0
C1459 C 0.71634 0.73439 0.73674 0.0
C1460 C 0.73682 0.75272 0.70979 0.0
C1461 C 0.69733 0.73735 0.69883 0.0
C1462 C 0.71761 0.74864 0.69333 0.0
C1463 C 0.69651 0.72997 0.72067 0.0
H1464 H 0.66122 0.71452 0.71452 0.0
N1465 N 0.73571 0.73057 0.77347 0.0
C1466 C 0.71623 0.72667 0.75842 0.0
C1467 C 0.69652 0.70725 0.78622 0.0
C1468 C 0.69613 0.71485 0.76446 0.0
C1469 C 0.73635 0.72213 0.7941 0.0
C1470 C 0.71673 0.71082 0.80103 0.0
O1471 O 0.8171 0.79258 0.77254 0.0
O1472 O 0.80527 0.75493 0.77035 0.0
O1473 O 0.76222 0.71246 0.75341 0.0
O1474 O 0.77339 0.73056 0.72568 0.0
O1475 O 0.77438 0.80393 0.75557 0.0
O1476 O 0.7835 0.77307 0.73748 0.0
O1477 O 0.74248 0.77055 0.76655 0.0
O1478 O 0.75912 0.78955 0.80201 0.0
O1479 O 0.77526 0.83395 0.78644 0.0
O1480 O 0.7941 0.83372 0.821 0.0
O1481 O 0.78467 0.74751 0.79497 0.0
O1482 O 0.7809 0.7807 0.81426 0.0
C1483 C 0.82104 0.7725 0.7693 0.0
C1484 C 0.77966 0.79283 0.73701 0.0
C1485 C 0.78247 0.69583 0.72666 0.0
C1486 C 0.80577 0.67087 0.73837 0.0
C1487 C 0.7931 0.67056 0.69704 0.0
C1488 C 0.78175 0.68714 0.70305 0.0
C1489 C 0.80489 0.66229 0.71456 0.0
C1490 C 0.79491 0.68805 0.74425 0.0
C1491 C 0.76836 0.71136 0.73254 0.0
C1492 C 0.67636 0.71069 0.74854 0.0
C1493 C 0.67658 0.71811 0.72669 0.0
H1494 H 0.6814 0.69818 0.79151 0.0
C1495 C 0.74093 0.78188 0.78691 0.0
C1496 C 0.78513 0.76102 0.81438 0.0
C1497 C 0.77547 0.86355 0.81789 0.0
C1498 C 0.7638 0.89705 0.81159 0.0
C1499 C 0.76919 0.88822 0.85103 0.0
C1500 C 0.77527 0.86881 0.84217 0.0
C1501 C 0.76352 0.90245 0.83575 0.0
C1502 C 0.76956 0.87763 0.80268 0.0
C1503 C 0.78145 0.84331 0.80824 0.0
H1504 H 0.7922 0.66363 0.6788 0.0
H1505 H 0.77198 0.69283 0.68931 0.0
H1506 H 0.81256 0.64862 0.70949 0.0
H1507 H 0.79549 0.69481 0.76251 0.0
H1508 H 0.76899 0.89228 0.86971 0.0
H1509 H 0.77964 0.85789 0.85419 0.0
H1510 H 0.75906 0.91762 0.84268 0.0
H1511 H 0.7698 0.87373 0.78392 0.0
C1512 C 0.48922 0.47218 0.48942 0.0
C1513 C 0.46898 0.45295 0.51728 0.0
C1514 C 0.48217 0.47223 0.51151 0.0
C1515 C 0.46308 0.43371 0.50072 0.0
C1516 C 0.48305 0.45293 0.47267 0.0
C1517 C 0.47001 0.43372 0.47846 0.0
N1518 N 0.50171 0.49105 0.48416 0.0
C1519 C 0.50816 0.49187 0.46239 0.0
C1520 C 0.48984 0.45363 0.45041 0.0
C1521 C 0.50241 0.4732 0.44525 0.0
Gd1522 Gd 0.5662 0.54893 0.54733 0.0
Gd1523 Gd 0.5072 0.52205 0.51298 0.0
N1524 N 0.48771 0.49124 0.52708 0.0
C1525 C 0.46158 0.45373 0.53933 0.0
C1526 C 0.47918 0.49241 0.54786 0.0
C1527 C 0.46654 0.47362 0.5546 0.0
H1528 H 0.48111 0.50792 0.55882 0.0
H1529 H 0.46007 0.47465 0.57127 0.0
H1530 H 0.58516 0.56792 0.49949 0.0
H1531 H 0.51686 0.50714 0.4578 0.0
H1532 H 0.6068 0.60228 0.48991 0.0
H1533 H 0.45143 0.43928 0.54442 0.0
H1534 H 0.45286 0.41881 0.50483 0.0
H1535 H 0.55477 0.56049 0.60305 0.0
H1536 H 0.48522 0.43924 0.437 0.0
H1537 H 0.50734 0.47402 0.42793 0.0
H1538 H 0.61885 0.65257 0.56175 0.0
H1539 H 0.46503 0.41882 0.46577 0.0
H1540 H 0.5861 0.62776 0.62767 0.0
H1541 H 0.56381 0.59217 0.63445 0.0
N1542 N 0.56954 0.57837 0.57755 0.0
C1543 C 0.58209 0.59776 0.5735 0.0
C1544 C 0.56314 0.57619 0.59918 0.0
C1545 C 0.58146 0.61407 0.61344 0.0
C1546 C 0.56877 0.59404 0.6173 0.0
C1547 C 0.58841 0.6161 0.59142 0.0
H1548 H 0.60691 0.64994 0.60064 0.0
N1549 N 0.58238 0.58148 0.53419 0.0
C1550 C 0.58896 0.59925 0.55141 0.0
C1551 C 0.60841 0.62019 0.52448 0.0
C1552 C 0.60217 0.6191 0.54693 0.0
C1553 C 0.58891 0.58231 0.51249 0.0
C1554 C 0.60169 0.60173 0.50719 0.0
O1555 O 0.52758 0.4961 0.5216 0.0
O1556 O 0.55502 0.51284 0.55262 0.0
O1557 O 0.59981 0.54704 0.5418 0.0
O1558 O 0.59146 0.55131 0.57722 0.0
O1559 O 0.50964 0.5397 0.55024 0.0
O1560 O 0.54142 0.53261 0.56885 0.0
O1561 O 0.54447 0.57396 0.53852 0.0
O1562 O 0.52067 0.55671 0.50523 0.0
O1563 O 0.47618 0.53177 0.51848 0.0
O1564 O 0.48259 0.52055 0.48276 0.0
O1565 O 0.56574 0.53112 0.51032 0.0
O1566 O 0.53301 0.53646 0.49183 0.0
C1567 C 0.54256 0.49491 0.53935 0.0
C1568 C 0.52106 0.53565 0.56909 0.0
C1569 C 0.62081 0.5332 0.57077 0.0
C1570 C 0.6466 0.51049 0.55971 0.0
C1571 C 0.63986 0.51641 0.60026 0.0
C1572 C 0.62506 0.52971 0.59421 0.0
C1573 C 0.65067 0.50681 0.58308 0.0
C1574 C 0.63155 0.52344 0.5537 0.0
C1575 C 0.60676 0.54835 0.56414 0.0
C1576 C 0.60861 0.63725 0.56486 0.0
C1577 C 0.60175 0.63576 0.587 0.0
H1578 H 0.61852 0.63515 0.52037 0.0
C1579 C 0.53048 0.57479 0.51974 0.0
C1580 C 0.55299 0.53258 0.49108 0.0
C1581 C 0.44759 0.5315 0.48619 0.0
C1582 C 0.41425 0.54455 0.49294 0.0
C1583 C 0.42071 0.53362 0.45312 0.0
C1584 C 0.44089 0.52864 0.46182 0.0
C1585 C 0.40731 0.54157 0.46866 0.0
C1586 C 0.43415 0.5393 0.50155 0.0
C1587 C 0.46921 0.52807 0.49592 0.0
H1588 H 0.64321 0.51382 0.61833 0.0
H1589 H 0.61722 0.53745 0.60784 0.0
H1590 H 0.66251 0.49696 0.58809 0.0
H1591 H 0.62845 0.5261 0.53558 0.0
H1592 H 0.41559 0.53158 0.43437 0.0
H1593 H 0.45132 0.52289 0.44958 0.0
H1594 H 0.39185 0.54572 0.46182 0.0
H1595 H 0.43924 0.54162 0.52039 0.0
C1596 C 0.08823 0.57845 0.99128 0.0
C1597 C 0.11626 0.6021 0.02166 0.0
C1598 C 0.09938 0.58282 0.01431 0.0
C1599 C 0.12165 0.61704 0.0059 0.0
C1600 C 0.09439 0.59317 0.97526 0.0
C1601 C 0.11081 0.61256 0.98279 0.0
N1602 N 0.07238 0.55945 0.98419 0.0
C1603 C 0.06391 0.55333 0.96093 0.0
C1604 C 0.08443 0.58765 0.95184 0.0
C1605 C 0.06943 0.5675 0.94459 0.0
Gd1606 Gd 1.00127 0.5293 0.04347 0.0
Gd1607 Gd 0.06634 0.53707 0.01368 0.0
N1608 N 0.09393 0.56822 0.02947 0.0
C1609 C 0.12735 0.60578 0.04469 0.0
C1610 C 0.10537 0.57122 0.05153 0.0
C1611 C 0.12197 0.5902 0.05963 0.0
H1612 H 0.10189 0.55896 0.06279 0.0
H1613 H 0.13076 0.59267 0.07729 0.0
H1614 H 0.96643 0.50347 0.99468 0.0
H1615 H 0.05342 0.53727 0.95446 0.0
H1616 H 0.93966 0.46815 0.98159 0.0
H1617 H 0.1403 0.62044 0.05098 0.0
H1618 H 0.13446 0.63197 0.01132 0.0
H1619 H 0.00617 0.53704 0.1032 0.0
H1620 H 0.08884 0.59847 0.93903 0.0
H1621 H 0.06244 0.56265 0.92628 0.0
H1622 H 0.9352 0.43433 0.05133 0.0
H1623 H 0.11557 0.62405 0.97071 0.0
H1624 H 0.9729 0.47696 0.12387 0.0
H1625 H 0.99557 0.51496 0.13435 0.0
N1626 N 0.99127 0.51107 0.07524 0.0
C1627 C 0.9773 0.49086 0.06911 0.0
C1628 C 0.99677 0.52023 0.09836 0.0
C1629 C 0.9778 0.48643 0.11008 0.0
C1630 C 0.9906 0.50787 0.11607 0.0
C1631 C 0.97047 0.47788 0.08642 0.0
H1632 H 0.95069 0.44692 0.09278 0.0
N1633 N 0.97403 0.49708 0.02938 0.0
C1634 C 0.96836 0.48375 0.04563 0.0
C1635 C 0.94272 0.45764 0.01564 0.0
C1636 C 0.95268 0.46351 0.03907 0.0
C1637 C 0.96329 0.49208 0.0069 0.0
C1638 C 0.9478 0.47217 -0.00043 0.0
O1639 O 0.05966 0.56937 0.03303 0.0
O1640 O 0.02461 0.56378 0.04734 0.0
O1641 O 0.97179 0.53926 0.02747 0.0
O1642 O 0.98689 0.55264 0.06347 0.0
O1643 O 0.04551 0.52899 0.04106 0.0
O1644 O 0.02922 0.53112 0.07217 0.0
O1645 O 0.00898 0.49704 0.0244 0.0
O1646 O 0.04587 0.50203 0.01424 0.0
O1647 O 0.09493 0.52326 0.02685 0.0
O1648 O 0.08293 0.52082 0.98906 0.0
O1649 O 0.01828 0.54177 0.01409 0.0
O1650 O 0.03626 0.5281 0.98663 0.0
C1651 C 0.04368 0.57663 0.04365 0.0
C1652 C 0.04772 0.53092 0.06371 0.0
C1653 C 0.94932 0.55391 0.05377 0.0
C1654 C 0.91881 0.573 0.0522 0.0
C1655 C 0.92319 0.54982 0.08227 0.0
C1656 C 0.94201 0.54472 0.0733 0.0
C1657 C 0.91166 0.56403 0.07185 0.0
C1658 C 0.93754 0.56784 0.04313 0.0
C1659 C 0.97101 0.55236 0.04658 0.0
C1660 C 0.94698 0.45004 0.05613 0.0
C1661 C 0.95584 0.4572 0.07973 0.0
H1662 H 0.93062 0.44225 0.00994 0.0
C1663 C 0.0262 0.4894 0.0167 0.0
C1664 C 0.01742 0.53088 0.99335 0.0
C1665 C 0.11414 0.50442 0.99755 0.0
C1666 C 0.14301 0.48395 0.00537 0.0
C1667 C 0.13076 0.48815 0.96534 0.0
C1668 C 0.11578 0.50031 0.97337 0.0
C1669 C 0.14429 0.47993 0.98124 0.0
C1670 C 0.12802 0.49631 0.01365 0.0
C1671 C 0.09714 0.51627 0.0051 0.0
H1672 H 0.91779 0.5431 0.09759 0.0
H1673 H 0.95122 0.53426 0.08201 0.0
H1674 H 0.89731 0.56817 0.07918 0.0
H1675 H 0.94342 0.57534 0.02836 0.0
H1676 H 0.13178 0.48499 0.94673 0.0
H1677 H 0.10533 0.50633 0.96051 0.0
H1678 H 0.15582 0.47038 0.97474 0.0
H1679 H 0.12691 0.49919 0.0323 0.0
H1680 H 0.01983 0.21398 0.01328 0.0
H1681 H 0.99607 0.18089 0.94277 0.0
H1682 H 0.02428 0.17892 0.02569 0.0
H1683 H 1.00128 0.14617 0.95465 0.0
H1684 H 0.99676 0.08073 0.98256 0.0
H1685 H 0.9912 0.11576 0.97168 0.0
H1686 H 0.04196 0.15033 0.02862 0.0
H1687 H 0.04622 0.11522 0.04033 0.0
C1688 C 0.01549 0.19926 0.00033 0.0
C1689 C 0.00731 0.20067 0.97693 0.0
C1690 C 0.01828 0.17888 0.00743 0.0
C1691 C 0.01315 0.1589 0.99144 0.0
C1692 C 0.00506 0.16054 0.96801 0.0
C1693 C 1.00216 0.18081 0.96101 0.0
C1694 C 0.00675 0.09576 0.9929 0.0
C1695 C 0.02226 0.0946 0.0123 0.0
C1696 C 0.00371 0.11621 0.98644 0.0
C1697 C 0.0162 0.13669 0.99887 0.0
C1698 C 0.03164 0.13545 0.0184 0.0
C1699 C 0.03443 0.11497 0.02504 0.0
H1700 H 0.14462 0.78377 0.12806 0.0
H1701 H 0.12452 0.82515 0.1833 0.0
H1702 H 0.17652 0.77974 0.15527 0.0
H1703 H 0.15665 0.82163 0.2103 0.0
H1704 H 0.23076 0.82893 0.24367 0.0
H1705 H 0.19879 0.83272 0.21637 0.0
H1706 H 0.18435 0.76273 0.19215 0.0
H1707 H 0.21616 0.75905 0.21977 0.0
C1708 C 0.14716 0.79224 0.14592 0.0
C1709 C 0.13205 0.80494 0.15339 0.0
C1710 C 0.16536 0.78979 0.16161 0.0
C1711 C 0.16932 0.80041 0.18508 0.0
C1712 C 0.15434 0.81335 0.19238 0.0
C1713 C 0.13585 0.81533 0.17689 0.0
C1714 C 0.22065 0.81438 0.23256 0.0
C1715 C 0.22593 0.79372 0.23383 0.0
C1716 C 0.20229 0.81651 0.21694 0.0
C1717 C 0.1889 0.79805 0.20189 0.0
C1718 C 0.19433 0.77735 0.20321 0.0
C1719 C 0.21248 0.7752 0.21912 0.0
H1720 H 0.54572 0.85164 0.49112 0.0
H1721 H 0.47754 0.845 0.46031 0.0
H1722 H 0.54803 0.89067 0.50509 0.0
H1723 H 0.47979 0.88405 0.47334 0.0
H1724 H 0.48497 0.95443 0.50916 0.0
H1725 H 0.48146 0.91469 0.5008 0.0
H1726 H 0.55174 0.92517 0.49355 0.0
H1727 H 0.55526 0.96469 0.50307 0.0
C1728 C 0.53095 0.85836 0.48795 0.0
C1729 C 0.51118 0.84481 0.47528 0.0
C1730 C 0.53238 0.88103 0.49553 0.0
C1731 C 0.51418 0.89118 0.49033 0.0
C1732 C 0.49419 0.87729 0.47822 0.0
C1733 C 0.49278 0.85464 0.47078 0.0
C1734 C 0.49973 0.94832 0.50612 0.0
C1735 C 0.52038 0.96323 0.50714 0.0
C1736 C 0.49771 0.92527 0.50097 0.0
C1737 C 0.51631 0.91605 0.49647 0.0
C1738 C 0.53696 0.93107 0.4973 0.0
C1739 C 0.53894 0.95407 0.50252 0.0
H1740 H 0.48535 0.26051 0.6289 0.0
H1741 H 0.51774 0.3198 0.67582 0.0
H1742 H 0.45114 0.2597 0.64691 0.0
H1743 H 0.48341 0.31952 0.69369 0.0
H1744 H 0.43534 0.28541 0.74255 0.0
H1745 H 0.46548 0.29731 0.71978 0.0
H1746 H 0.4195 0.2745 0.65559 0.0
H1747 H 0.38955 0.26212 0.67869 0.0
C1748 C 0.48479 0.27383 0.64251 0.0
C1749 C 0.50398 0.29035 0.65083 0.0
C1750 C 0.46519 0.27344 0.65288 0.0
C1751 C 0.46444 0.2895 0.67194 0.0
C1752 C 0.4834 0.30674 0.67928 0.0
C1753 C 0.50299 0.30708 0.66891 0.0
C1754 C 0.43154 0.28382 0.72362 0.0
C1755 C 0.41013 0.27313 0.71235 0.0
C1756 C 0.44882 0.29057 0.71048 0.0
C1757 C 0.44508 0.28664 0.68572 0.0
C1758 C 0.42312 0.27747 0.67457 0.0
C1759 C 0.40586 0.27068 0.68776 0.0
H1760 H 0.0514 0.83703 0.68045 0.0
H1761 H 0.99994 0.79962 0.62583 0.0
H1762 H 0.05512 0.86855 0.65922 0.0
H1763 H 1.00241 0.83154 0.60521 0.0
H1764 H 0.03534 0.88095 0.55963 0.0
H1765 H 0.02428 0.85119 0.58212 0.0
H1766 H 0.04212 0.89775 0.64635 0.0
H1767 H 0.05417 0.92728 0.62345 0.0
C1768 C 0.04058 0.8357 0.66406 0.0
C1769 C 0.02554 0.81576 0.65471 0.0
C1770 C 0.04252 0.85391 0.65191 0.0
C1771 C 0.02911 0.85287 0.63027 0.0
C1772 C 0.01346 0.83303 0.62144 0.0
C1773 C 0.01192 0.81467 0.63334 0.0
C1774 C 0.03611 0.88486 0.5785 0.0
C1775 C 0.04528 0.90642 0.58978 0.0
C1776 C 0.02982 0.86776 0.59154 0.0
C1777 C 0.03252 0.87175 0.6163 0.0
C1778 C 0.04024 0.89376 0.62742 0.0
C1779 C 0.04671 0.91086 0.61431 0.0
H1780 H 0.46945 0.78297 0.79299 0.0
H1781 H 0.46782 0.82676 0.85585 0.0
H1782 H 0.42874 0.77769 0.78326 0.0
H1783 H 0.42717 0.82202 0.84596 0.0
H1784 H 0.35826 0.82674 0.80807 0.0
H1785 H 0.39861 0.83109 0.81815 0.0
H1786 H 0.39226 0.76183 0.79438 0.0
H1787 H 0.35194 0.75766 0.78397 0.0
C1788 C 0.46035 0.79135 0.80486 0.0
C1789 C 0.472 0.80506 0.8254 0.0
C1790 C 0.4369 0.78832 0.79929 0.0
C1791 C 0.42427 0.79943 0.81369 0.0
C1792 C 0.43605 0.81322 0.83424 0.0
C1793 C 0.45944 0.8158 0.8401 0.0
C1794 C 0.36538 0.81248 0.80472 0.0
C1795 C 0.35143 0.79194 0.79488 0.0
C1796 C 0.3887 0.81489 0.81081 0.0
C1797 C 0.39913 0.79683 0.80721 0.0
C1798 C 0.38518 0.77627 0.79729 0.0
C1799 C 0.36183 0.77385 0.7914 0.0
H1800 H 0.52168 0.16352 0.17695 0.0
H1801 H 0.50893 0.19776 0.11831 0.0
H1802 H 0.52506 0.13166 0.15006 0.0
H1803 H 0.51153 0.16548 0.09117 0.0
H1804 H 0.54182 0.11299 0.05063 0.0
H1805 H 0.53704 0.14478 0.07671 0.0
H1806 H 0.5058 0.10146 0.12198 0.0
H1807 H 0.51043 0.06968 0.09581 0.0
C1808 C 0.51923 0.16416 0.15825 0.0
C1809 C 0.51494 0.18333 0.14991 0.0
C1810 C 0.5211 0.14574 0.14272 0.0
C1811 C 0.51855 0.14571 0.11821 0.0
C1812 C 0.51397 0.16483 0.10985 0.0
C1813 C 0.51229 0.18337 0.12545 0.0
C1814 C 0.53356 0.11011 0.06588 0.0
C1815 C 0.52624 0.08849 0.07069 0.0
C1816 C 0.53084 0.1285 0.08099 0.0
C1817 C 0.52094 0.12596 0.10164 0.0
C1818 C 0.51372 0.10432 0.10649 0.0
C1819 C 0.51629 0.08595 0.09129 0.0
H1820 H 0.13493 0.31948 0.36728 0.0
H1821 H 0.09865 0.29269 0.29863 0.0
H1822 H 0.1696 0.31383 0.35342 0.0
H1823 H 0.13365 0.28715 0.28449 0.0
H1824 H 0.19922 0.26232 0.27243 0.0
H1825 H 0.16349 0.26682 0.28514 0.0
H1826 H 0.19735 0.32686 0.33034 0.0
H1827 H 0.23282 0.3222 0.31795 0.0
C1828 C 0.13427 0.31245 0.34911 0.0
C1829 C 0.11365 0.30673 0.3342 0.0
C1830 C 0.15441 0.30929 0.34102 0.0
C1831 C 0.15497 0.30012 0.31759 0.0
C1832 C 0.13425 0.29412 0.30267 0.0
C1833 C 0.11403 0.29746 0.31077 0.0
C1834 C 0.19914 0.27647 0.28512 0.0
C1835 C 0.21937 0.2918 0.29404 0.0
C1836 C 0.17842 0.27918 0.29236 0.0
C1837 C 0.17705 0.29722 0.30905 0.0
C1838 C 0.19732 0.31252 0.31782 0.0
C1839 C 0.2179 0.30992 0.31047 0.0
H1840 H 0.99372 0.02884 0.21391 0.0
H1841 H 0.92814 0.01665 0.17359 0.0
H1842 H 0.01085 0.03424 0.1784 0.0
H1843 H 0.94522 0.02158 0.13794 0.0
H1844 H 0.98268 0.05118 0.08139 0.0
H1845 H 0.9662 0.04833 0.11781 0.0
H1846 H 0.01647 0.01415 0.14263 0.0
H1847 H 0.03315 0.01753 0.10669 0.0
C1848 C 0.98294 0.02727 0.19744 0.0
C1849 C 0.95955 0.02227 0.19661 0.0
C1850 C 0.99277 0.03024 0.17701 0.0
C1851 C 0.97946 0.02835 0.15518 0.0
C1852 C 0.95604 0.02347 0.15442 0.0
C1853 C 0.94622 0.02044 0.17486 0.0
C1854 C 0.99026 0.04322 0.09473 0.0
C1855 C 0.00931 0.03475 0.09119 0.0
C1856 C 0.98074 0.04143 0.11556 0.0
C1857 C 0.98995 0.03098 0.13326 0.0
C1858 C 0.00911 0.02265 0.12967 0.0
C1859 C 0.01867 0.02455 0.10897 0.0
H1860 H 0.30946 0.67615 0.48952 0.0
H1861 H 0.23816 0.65592 0.48892 0.0
H1862 H 0.30296 0.69287 0.45365 0.0
H1863 H 0.23158 0.67224 0.45343 0.0
H1864 H 0.22384 0.69408 0.38437 0.0
H1865 H 0.23762 0.67017 0.41041 0.0
H1866 H 0.28497 0.72666 0.4498 0.0
H1867 H 0.27099 0.75045 0.42382 0.0
C1868 C 0.2925 0.67506 0.48142 0.0
C1869 C 0.27423 0.66515 0.49172 0.0
C1870 C 0.28878 0.68446 0.46104 0.0
C1871 C 0.26679 0.68368 0.45083 0.0
C1872 C 0.24867 0.67272 0.4607 0.0
C1873 C 0.25239 0.66362 0.48107 0.0
C1874 C 0.23739 0.70117 0.39844 0.0
C1875 C 0.24611 0.72394 0.40272 0.0
C1876 C 0.24534 0.68759 0.41314 0.0
C1877 C 0.26226 0.69668 0.43207 0.0
C1878 C 0.27205 0.71928 0.4352 0.0
C1879 C 0.26389 0.73289 0.42067 0.0
H1880 H 0.61838 0.04195 0.69364 0.0
H1881 H 0.67425 0.04293 0.65399 0.0
H1882 H 0.59479 0.04565 0.65878 0.0
H1883 H 0.65006 0.04629 0.61859 0.0
H1884 H 0.58037 0.00867 0.5677 0.0
H1885 H 0.61234 0.01531 0.59854 0.0
H1886 H 0.59409 0.07483 0.62851 0.0
H1887 H 0.56223 0.06839 0.59744 0.0
C1888 C 0.62564 0.0431 0.67748 0.0
C1889 C 0.64802 0.04202 0.6763 0.0
C1890 C 0.61223 0.0455 0.65769 0.0
C1891 C 0.62094 0.04656 0.63643 0.0
C1892 C 0.64333 0.04574 0.63511 0.0
C1893 C 0.65698 0.0437 0.65514 0.0
C1894 C 0.58361 0.02341 0.58058 0.0
C1895 C 0.56925 0.03816 0.58049 0.0
C1896 C 0.6019 0.02731 0.59791 0.0
C1897 C 0.60553 0.04569 0.61538 0.0
C1898 C 0.59152 0.06075 0.61485 0.0
C1899 C 0.57332 0.05695 0.59744 0.0
H1900 H 0.30805 0.38544 0.94989 0.0
H1901 H 0.27958 0.32408 0.97286 0.0
H1902 H 0.30886 0.36609 0.91126 0.0
H1903 H 0.27982 0.30441 0.93328 0.0
H1904 H 0.30372 0.27867 0.86117 0.0
H1905 H 0.30476 0.29444 0.90241 0.0
H1906 H 0.27887 0.34872 0.87956 0.0
H1907 H 0.27806 0.33338 0.83896 0.0
C1908 C 0.30183 0.36773 0.94662 0.0
C1909 C 0.29331 0.35634 0.96429 0.0
C1910 C 0.30228 0.35663 0.92441 0.0
C1911 C 0.29393 0.33378 0.919 0.0
C1912 C 0.28634 0.32206 0.93694 0.0
C1913 C 0.28612 0.33327 0.95951 0.0
C1914 C 0.29826 0.29397 0.86504 0.0
C1915 C 0.29104 0.30489 0.84674 0.0
C1916 C 0.29873 0.3029 0.88863 0.0
C1917 C 0.29216 0.32297 0.89427 0.0
C1918 C 0.28446 0.33346 0.87588 0.0
C1919 C 0.28391 0.32458 0.85252 0.0
H1920 H 0.00828 0.0239 0.33316 0.0
H1921 H 0.93964 0.01338 0.34646 0.0
H1922 H 0.02086 0.02776 0.37505 0.0
H1923 H 0.95203 0.01594 0.38848 0.0
H1924 H 0.9825 0.03947 0.46508 0.0
H1925 H 0.96956 0.03811 0.42365 0.0
H1926 H 0.02334 0.007 0.4055 0.0
H1927 H 0.03697 0.00956 0.44691 0.0
C1928 C 0.99586 0.02236 0.34513 0.0
C1929 C 0.97298 0.0183 0.33653 0.0
C1930 C 1.00305 0.02433 0.36919 0.0
C1931 C 0.98753 0.02179 0.38537 0.0
C1932 C 0.96457 0.01824 0.37674 0.0
C1933 C 0.9574 0.01673 0.35261 0.0
C1934 C 0.99162 0.03236 0.45227 0.0
C1935 C 0.01079 0.02454 0.45947 0.0
C1936 C 0.98405 0.03142 0.42838 0.0
C1937 C 0.99535 0.02251 0.41096 0.0
C1938 C 0.01436 0.0144 0.41824 0.0
C1939 C 0.02205 0.01556 0.44212 0.0
H1940 H 0.25826 0.64454 0.65365 0.0
H1941 H 0.29716 0.69222 0.61741 0.0
H1942 H 0.26353 0.67257 0.68828 0.0
H1943 H 0.30208 0.71996 0.65202 0.0
H1944 H 0.26091 0.76055 0.70016 0.0
H1945 H 0.25996 0.72942 0.66995 0.0
H1946 H 0.3067 0.70572 0.71607 0.0
H1947 H 0.30866 0.73774 0.74599 0.0
C1948 C 0.26821 0.66081 0.65321 0.0
C1949 C 0.27709 0.66634 0.63281 0.0
C1950 C 0.27129 0.67665 0.67298 0.0
C1951 C 0.28324 0.69799 0.67241 0.0
C1952 C 0.29291 0.70336 0.65252 0.0
C1953 C 0.28993 0.68758 0.6328 0.0
C1954 C 0.27069 0.74848 0.7039 0.0
C1955 C 0.2842 0.75077 0.72547 0.0
C1956 C 0.27017 0.73087 0.68676 0.0
C1957 C 0.28311 0.71547 0.69116 0.0
C1958 C 0.29643 0.71749 0.7128 0.0
C1959 C 0.29726 0.73542 0.72988 0.0
H1960 H 0.66083 0.0809 0.81854 0.0
H1961 H 0.63551 0.0105 0.80633 0.0
H1962 H 0.64936 0.0828 0.85755 0.0
H1963 H 0.62355 0.01232 0.84561 0.0
H1964 H 0.56765 0.0475 0.8796 0.0
H1965 H 0.59115 0.03332 0.85274 0.0
H1966 H 0.65034 0.06952 0.89887 0.0
H1967 H 0.62663 0.08341 0.92603 0.0
C1968 C 0.65353 0.06575 0.82472 0.0
C1969 C 0.64879 0.0456 0.80981 0.0
C1970 C 0.64718 0.06677 0.84704 0.0
C1971 C 0.63564 0.04767 0.85446 0.0
C1972 C 0.63255 0.02718 0.84018 0.0
C1973 C 0.63923 0.02614 0.81785 0.0
C1974 C 0.58568 0.05204 0.8841 0.0
C1975 C 0.59553 0.06697 0.90426 0.0
C1976 C 0.59909 0.04363 0.86906 0.0
C1977 C 0.62248 0.0504 0.87387 0.0
C1978 C 0.63232 0.06406 0.89497 0.0
C1979 C 0.61886 0.07216 0.91024 0.0
H1980 H 0.3289 0.36532 0.12589 0.0
H1981 H 0.26033 0.3346 0.09809 0.0
H1982 H 0.32352 0.35092 0.16295 0.0
H1983 H 0.25481 0.32094 0.13545 0.0
H1984 H 0.2553 0.32819 0.2203 0.0
H1985 H 0.25922 0.34271 0.18282 0.0
H1986 H 0.31131 0.30731 0.17117 0.0
H1987 H 0.30699 0.29236 0.20773 0.0
C1988 C 0.31273 0.35549 0.12771 0.0
C1989 C 0.29512 0.35086 0.10905 0.0
C1990 C 0.30963 0.34736 0.14888 0.0
C1991 C 0.28869 0.33505 0.15202 0.0
C1992 C 0.27103 0.33056 0.13347 0.0
C1993 C 0.2743 0.33816 0.11207 0.0
C1994 C 0.2675 0.32356 0.20964 0.0
C1995 C 0.28077 0.30916 0.21688 0.0
C1996 C 0.2697 0.33175 0.18826 0.0
C1997 C 0.28565 0.32615 0.17429 0.0
C1998 C 0.29898 0.31192 0.18168 0.0
C1999 C 0.29638 0.30331 0.20256 0.0
H2000 H 0.21858 0.92373 0.01132 0.0
H2001 H 0.2344 0.975 0.96849 0.0
H2002 H 0.18818 0.9393 0.02398 0.0
H2003 H 0.20256 0.98993 0.97959 0.0
H2004 H 0.18154 0.03029 0.043 0.0
H2005 H 0.20084 0.01052 0.01588 0.0
H2006 H 0.15384 0.94967 0.01908 0.0
H2007 H 0.13553 0.96963 0.04735 0.0
C2008 C 0.2146 0.93766 0.00363 0.0
C2009 C 0.22848 0.94835 0.9891 0.0
C2010 C 0.19713 0.94657 0.01075 0.0
C2011 C 0.19308 0.966 0.00294 0.0
C2012 C 0.20563 0.97522 0.98627 0.0
C2013 C 0.22361 0.96666 0.97974 0.0
C2014 C 0.17559 0.01267 0.03785 0.0
C2015 C 0.15785 1.00108 0.04759 0.0
C2016 C 0.18622 1.0014 0.02197 0.0
C2017 C 0.17891 0.97845 0.01544 0.0
C2018 C 0.16008 0.96725 0.02414 0.0
C2019 C 0.14972 0.97851 0.04033 0.0
H2020 H 0.71292 0.6123 0.01755 0.0
H2021 H 0.67582 0.65782 0.99086 0.0
H2022 H 0.67804 0.58701 0.0204 0.0
H2023 H 0.6408 0.6327 0.99411 0.0
H2024 H 0.58164 0.5746 0.98244 0.0
H2025 H 0.61717 0.59798 0.97745 0.0
H2026 H 0.64764 0.58316 0.04276 0.0
H2027 H 0.61245 0.55903 0.04703 0.0
C2028 C 0.69727 0.61685 0.01219 0.0
C2029 C 0.69706 0.63701 0.00391 0.0
C2030 C 0.67726 0.60244 0.01403 0.0
C2031 C 0.65657 0.60778 0.00748 0.0
C2032 C 0.65641 0.62791 0.99902 0.0
C2033 C 0.67645 0.6424 0.99732 0.0
C2034 C 0.59607 0.5762 0.99553 0.0
C2035 C 0.59441 0.56496 0.015 0.0
C2036 C 0.61635 0.58972 0.99282 0.0
C2037 C 0.63527 0.59257 0.00976 0.0
C2038 C 0.63357 0.58105 0.02914 0.0
C2039 C 0.6134 0.56723 0.03161 0.0
H2040 H 0.6473 0.47257 0.25633 0.0
H2041 H 0.69562 0.50446 0.31631 0.0
H2042 H 0.66598 0.44195 0.2521 0.0
H2043 H 0.7136 0.47298 0.31335 0.0
H2044 H 0.75781 0.43155 0.27604 0.0
H2045 H 0.73688 0.45843 0.29013 0.0
H2046 H 0.67488 0.41087 0.2649 0.0
H2047 H 0.69621 0.38457 0.24974 0.0
C2048 C 0.66168 0.47272 0.26895 0.0
C2049 C 0.6702 0.4909 0.28647 0.0
C2050 C 0.6723 0.45502 0.26674 0.0
C2051 C 0.69139 0.45482 0.28242 0.0
C2052 C 0.69926 0.4727 0.30064 0.0
C2053 C 0.68896 0.49071 0.30243 0.0
C2054 C 0.73972 0.42677 0.27421 0.0
C2055 C 0.72851 0.4062 0.26191 0.0
C2056 C 0.72764 0.44212 0.28231 0.0
C2057 C 0.70407 0.43708 0.27828 0.0
C2058 C 0.69297 0.41561 0.26775 0.0
C2059 C 0.70511 0.40039 0.25939 0.0
H2060 H 0.87529 0.47118 0.47764 0.0
H2061 H 0.86302 0.48996 0.54851 0.0
H2062 H 0.915 0.47598 0.49144 0.0
H2063 H 0.90316 0.49542 0.5625 0.0
H2064 H 0.97082 0.54321 0.54258 0.0
H2065 H 0.93345 0.52584 0.54946 0.0
H2066 H 0.94382 0.46242 0.51988 0.0
H2067 H 0.98137 0.48001 0.51315 0.0
C2068 C 0.88132 0.4766 0.49614 0.0
C2069 C 0.86674 0.48103 0.51206 0.0
C2070 C 0.90377 0.47871 0.50415 0.0
C2071 C 0.91182 0.48559 0.5281 0.0
C2072 C 0.89707 0.48969 0.54407 0.0
C2073 C 0.87445 0.48707 0.53608 0.0
C2074 C 0.9653 0.52546 0.53856 0.0
C2075 C 0.97816 0.51278 0.52694 0.0
C2076 C 0.94421 0.51547 0.54282 0.0
C2077 C 0.9359 0.49295 0.53479 0.0
C2078 C 0.95008 0.47985 0.5261 0.0
C2079 C 0.97128 0.48986 0.52201 0.0
H2080 H 0.3538 0.09246 0.34687 0.0
H2081 H 0.33779 0.05469 0.27735 0.0
H2082 H 0.33574 0.1212 0.3326 0.0
H2083 H 0.32133 0.08313 0.26306 0.0
H2084 H 0.27647 0.12227 0.24267 0.0
H2085 H 0.28747 0.09711 0.26832 0.0
H2086 H 0.34363 0.14823 0.3028 0.0
H2087 H 0.33174 0.17385 0.27774 0.0
C2088 C 0.34601 0.09022 0.3288 0.0
C2089 C 0.34602 0.07116 0.31335 0.0
C2090 C 0.33597 0.10655 0.32064 0.0
C2091 C 0.3265 0.10387 0.29698 0.0
C2092 C 0.32742 0.08507 0.28164 0.0
C2093 C 0.33681 0.06878 0.28981 0.0
C2094 C 0.29096 0.12811 0.25596 0.0
C2095 C 0.30379 0.14948 0.25792 0.0
C2096 C 0.29711 0.11392 0.27074 0.0
C2097 C 0.31661 0.12073 0.2871 0.0
C2098 C 0.32852 0.14268 0.29031 0.0
C2099 C 0.32199 0.15712 0.27581 0.0
H2100 H 0.31088 0.1225 0.48514 0.0
H2101 H 0.34047 0.16488 0.54987 0.0
H2102 H 0.34484 0.10777 0.48409 0.0
H2103 H 0.37416 0.15012 0.5493 0.0
H2104 H 0.43346 0.12388 0.54751 0.0
H2105 H 0.40676 0.14448 0.532 0.0
H2106 H 0.35847 0.08318 0.50834 0.0
H2107 H 0.38552 0.06286 0.5232 0.0
C2108 C 0.325 0.12908 0.49872 0.0
C2109 C 0.3234 0.1448 0.51752 0.0
C2110 C 0.34432 0.12061 0.49823 0.0
C2111 C 0.36219 0.12772 0.51662 0.0
C2112 C 0.36093 0.14454 0.53462 0.0
C2113 C 0.34163 0.15293 0.5351 0.0
C2114 C 0.41748 0.11492 0.53798 0.0
C2115 C 0.41135 0.09195 0.53635 0.0
C2116 C 0.40214 0.12664 0.52933 0.0
C2117 C 0.38037 0.1155 0.51931 0.0
C2118 C 0.37513 0.09229 0.51574 0.0
C2119 C 0.39055 0.0806 0.52424 0.0
H2120 H 0.65211 0.64414 0.30172 0.0
H2121 H 0.70336 0.60682 0.29325 0.0
H2122 H 0.67922 0.67804 0.30136 0.0
H2123 H 0.7308 0.64104 0.29334 0.0
H2124 H 0.76353 0.70425 0.26379 0.0
H2125 H 0.73949 0.66928 0.26814 0.0
H2126 H 0.71149 0.70275 0.3236 0.0
H2127 H 0.73512 0.73766 0.31891 0.0
C2128 C 0.66925 0.64318 0.30006 0.0
C2129 C 0.67552 0.62272 0.2975 0.0
C2130 C 0.68488 0.66269 0.30001 0.0
C2131 C 0.70725 0.66233 0.29737 0.0
C2132 C 0.71367 0.6419 0.29521 0.0
C2133 C 0.69799 0.62231 0.29538 0.0
C2134 C 0.7525 0.70406 0.27716 0.0
C2135 C 0.75119 0.72374 0.29096 0.0
C2136 C 0.73874 0.684 0.27969 0.0
C2137 C 0.72342 0.68319 0.29611 0.0
C2138 C 0.72278 0.7028 0.31048 0.0
C2139 C 0.73642 0.72282 0.30788 0.0
H2140 H 0.88453 0.43598 0.80828 0.0
H2141 H 0.82899 0.45631 0.77183 0.0
H2142 H 0.863 0.39828 0.80267 0.0
H2143 H 0.80782 0.41818 0.76431 0.0
H2144 H 0.76901 0.35377 0.78505 0.0
H2145 H 0.78889 0.39108 0.78326 0.0
H2146 H 0.84939 0.36718 0.77519 0.0
H2147 H 0.82991 0.33061 0.78002 0.0
C2148 C 0.86776 0.43215 0.79873 0.0
C2149 C 0.85826 0.4487 0.79041 0.0
C2150 C 0.85552 0.41057 0.79519 0.0
C2151 C 0.83384 0.4051 0.78255 0.0
C2152 C 0.82439 0.42185 0.77424 0.0
C2153 C 0.83644 0.4436 0.77847 0.0
C2154 C 0.78646 0.35661 0.7824 0.0
C2155 C 0.79797 0.33946 0.78206 0.0
C2156 C 0.79783 0.37789 0.78119 0.0
C2157 C 0.82084 0.38219 0.77938 0.0
C2158 C 0.8318 0.36452 0.77712 0.0
C2159 C 0.82054 0.34341 0.7791 0.0
H2160 H 0.04921 0.87881 0.11263 0.0
H2161 H 0.06928 0.85977 0.04548 0.0
H2162 H 0.04372 0.91353 0.10064 0.0
H2163 H 0.06415 0.89496 0.03345 0.0
H2164 H 0.03434 0.95377 0.0111 0.0
H2165 H 0.0392 0.91814 0.02189 0.0
H2166 H 0.06104 0.9488 0.09374 0.0
H2167 H 0.0562 0.98419 0.08289 0.0
C2168 C 0.05262 0.88199 0.09525 0.0
C2169 C 0.05983 0.86606 0.08021 0.0
C2170 C 0.04956 0.90223 0.08833 0.0
C2171 C 0.05356 0.90773 0.06595 0.0
C2172 C 0.06059 0.89168 0.05074 0.0
C2173 C 0.06368 0.87133 0.05772 0.0
C2174 C 0.0402 0.95297 0.02923 0.0
C2175 C 0.04497 0.97229 0.04598 0.0
C2176 C 0.04315 0.93236 0.03548 0.0
C2177 C 0.0506 0.93 0.05887 0.0
C2178 C 0.05509 0.94938 0.07559 0.0
C2179 C 0.05248 0.96998 0.06929 0.0
H2180 H 0.93128 0.23707 0.87389 0.0
H2181 H 0.93237 0.30007 0.91371 0.0
H2182 H 0.89574 0.23831 0.85088 0.0
H2183 H 0.89697 0.3015 0.89081 0.0
H2184 H 0.85367 0.31037 0.823 0.0
H2185 H 0.88598 0.30665 0.84965 0.0
H2186 H 0.85481 0.2387 0.85095 0.0
H2187 H 0.82216 0.24274 0.82474 0.0
C2188 C 0.92345 0.25076 0.87839 0.0
C2189 C 0.93434 0.26813 0.8962 0.0
C2190 C 0.90313 0.25161 0.86502 0.0
C2191 C 0.89339 0.27011 0.86873 0.0
C2192 C 0.90396 0.28708 0.88717 0.0
C2193 C 0.9241 0.28611 0.90063 0.0
C2194 C 0.85372 0.29464 0.82899 0.0
C2195 C 0.83532 0.27685 0.8217 0.0
C2196 C 0.8722 0.29252 0.84446 0.0
C2197 C 0.87316 0.27236 0.85268 0.0
C2198 C 0.85481 0.25446 0.84506 0.0
C2199 C 0.83602 0.25678 0.83009 0.0
H2200 H 0.52544 0.21553 0.56546 0.0
H2201 H 0.59283 0.21647 0.59507 0.0
H2202 H 0.51987 0.1759 0.55106 0.0
H2203 H 0.58742 0.17733 0.58152 0.0
H2204 H 0.57906 0.10786 0.54548 0.0
H2205 H 0.58405 0.14758 0.55347 0.0
H2206 H 0.51403 0.14 0.56105 0.0
H2207 H 0.50899 0.10006 0.55156 0.0
C2208 C 0.53932 0.20749 0.56828 0.0
C2209 C 0.55983 0.21958 0.58099 0.0
C2210 C 0.53602 0.18449 0.56042 0.0
C2211 C 0.55311 0.17274 0.56499 0.0
C2212 C 0.57378 0.18524 0.57703 0.0
C2213 C 0.57698 0.208 0.58489 0.0
C2214 C 0.56463 0.11452 0.54842 0.0
C2215 C 0.54364 0.10023 0.5475 0.0
C2216 C 0.56751 0.13764 0.55345 0.0
C2217 C 0.54953 0.14772 0.55819 0.0
C2218 C 0.52842 0.13339 0.55727 0.0
C2219 C 0.52555 0.11019 0.55205 0.0
H2220 H 0.54872 0.74453 0.38252 0.0
H2221 H 0.58609 0.79516 0.43776 0.0
H2222 H 0.58102 0.74793 0.36126 0.0
H2223 H 0.61803 0.7997 0.41597 0.0
H2224 H 0.67769 0.79988 0.37874 0.0
H2225 H 0.64792 0.7874 0.40196 0.0
H2226 H 0.60035 0.77045 0.33842 0.0
H2227 H 0.63037 0.78201 0.31557 0.0
C2228 C 0.56386 0.75649 0.39007 0.0
C2229 C 0.56479 0.76963 0.41177 0.0
C2230 C 0.58243 0.75857 0.3778 0.0
C2231 C 0.60236 0.77424 0.38661 0.0
C2232 C 0.60331 0.78713 0.40863 0.0
C2233 C 0.58487 0.78469 0.42113 0.0
C2234 C 0.661 0.79255 0.36978 0.0
C2235 C 0.65638 0.79147 0.34534 0.0
C2236 C 0.64377 0.78582 0.38309 0.0
C2237 C 0.62141 0.77817 0.3723 0.0
C2238 C 0.61721 0.77592 0.34758 0.0
C2239 C 0.63446 0.78249 0.33433 0.0
H2240 H 0.076 0.25937 0.42136 0.0
H2241 H 0.01021 0.23458 0.38234 0.0
H2242 H 0.07232 0.22621 0.44021 0.0
H2243 H 0.00569 0.2022 0.40216 0.0
H2244 H 0.00327 0.13946 0.42977 0.0
H2245 H 0.01447 0.16886 0.40665 0.0
H2246 H 0.05543 0.20852 0.46849 0.0
H2247 H 0.04491 0.17846 0.491 0.0
C2248 C 0.06064 0.24688 0.417 0.0
C2249 C 0.04339 0.24959 0.40039 0.0
C2250 C 0.05845 0.22784 0.42788 0.0
C2251 C 0.03869 0.21122 0.42285 0.0
C2252 C 0.02144 0.21413 0.40618 0.0
C2253 C 0.02388 0.23288 0.39491 0.0
C2254 C 0.01544 0.15413 0.43805 0.0
C2255 C 0.0235 0.15659 0.46204 0.0
C2256 C 0.02152 0.17126 0.42496 0.0
C2257 C 0.03546 0.19155 0.43568 0.0
C2258 C 0.04477 0.19328 0.45939 0.0
C2259 C 0.03886 0.17598 0.47239 0.0
H2260 H 0.58893 0.24028 0.24761 0.0
H2261 H 0.60545 0.29038 0.20368 0.0
H2262 H 0.62899 0.24283 0.25974 0.0
H2263 H 0.64506 0.29283 0.21534 0.0
H2264 H 0.71528 0.3078 0.25342 0.0
H2265 H 0.6754 0.30487 0.24427 0.0
H2266 H 0.6636 0.23533 0.24924 0.0
H2267 H 0.70396 0.23856 0.25896 0.0
C2268 C 0.60106 0.25207 0.24078 0.0
C2269 C 0.59374 0.26527 0.22479 0.0
C2270 C 0.62417 0.25336 0.24752 0.0
C2271 C 0.64077 0.26812 0.23873 0.0
C2272 C 0.63322 0.28148 0.22299 0.0
C2273 C 0.61027 0.28001 0.21612 0.0
C2274 C 0.70434 0.29176 0.25253 0.0
C2275 C 0.71329 0.27337 0.25703 0.0
C2276 C 0.68117 0.29004 0.2471 0.0
C2277 C 0.66573 0.26979 0.24565 0.0
C2278 C 0.67462 0.25135 0.25037 0.0
C2279 C 0.69795 0.25314 0.25597 0.0
H2280 H 0.54651 0.8648 0.93369 0.0
H2281 H 0.55562 0.90538 0.8789 0.0
H2282 H 0.54488 0.89708 0.96121 0.0
H2283 H 0.55311 0.93738 0.9059 0.0
H2284 H 0.56581 0.99666 0.96303 0.0
H2285 H 0.56915 0.96432 0.93675 0.0
H2286 H 0.52505 0.92269 0.97425 0.0
H2287 H 0.52261 0.95502 0.00102 0.0
C2288 C 0.5482 0.8806 0.92745 0.0
C2289 C 0.55135 0.88228 0.90393 0.0
C2290 C 0.54702 0.89925 0.94327 0.0
C2291 C 0.54886 0.9203 0.93615 0.0
C2292 C 0.55203 0.92184 0.91256 0.0
C2293 C 0.55331 0.90326 0.89684 0.0
C2294 C 0.55692 0.98058 0.96574 0.0
C2295 C 0.54411 0.97861 0.9844 0.0
C2296 C 0.55866 0.96186 0.95045 0.0
C2297 C 0.54737 0.94043 0.95299 0.0
C2298 C 0.53448 0.93858 0.97171 0.0
C2299 C 0.53299 0.95729 0.98717 0.0
H2300 H 0.94867 0.72967 0.75311 0.0
H2301 H 0.95031 0.78175 0.71062 0.0
H2302 H 0.91278 0.73495 0.76418 0.0
H2303 H 0.91411 0.78691 0.72143 0.0
H2304 H 0.85661 0.80398 0.76035 0.0
H2305 H 0.89304 0.79957 0.75015 0.0
H2306 H 0.87401 0.72979 0.75267 0.0
H2307 H 0.83775 0.73439 0.76345 0.0
C2308 C 0.94143 0.74231 0.74604 0.0
C2309 C 0.95281 0.75522 0.73085 0.0
C2310 C 0.92051 0.74526 0.75231 0.0
C2311 C 0.9099 0.76135 0.74379 0.0
C2312 C 0.92144 0.77446 0.72876 0.0
C2313 C 0.94237 0.77142 0.72238 0.0
C2314 C 0.86016 0.78768 0.75901 0.0
C2315 C 0.84387 0.76964 0.76314 0.0
C2316 C 0.88122 0.78507 0.75281 0.0
C2317 C 0.88708 0.76426 0.75045 0.0
C2318 C 0.87073 0.74621 0.75457 0.0
C2319 C 0.84963 0.74883 0.7607 0.0
H2320 H 0.11683 0.0264 0.86233 0.0
H2321 H 0.07566 0.07442 0.85735 0.0
H2322 H 0.10446 0.01963 0.90013 0.0
H2323 H 0.06427 0.06857 0.89512 0.0
H2324 H 0.02758 0.04024 0.94907 0.0
H2325 H 0.04104 0.04331 0.91189 0.0
H2326 H 0.10511 0.03284 0.94085 0.0
H2327 H 0.0907 0.02778 0.97816 0.0
C2328 C 0.10526 0.0356 0.86933 0.0
C2329 C 0.09701 0.05076 0.8566 0.0
C2330 C 0.09828 0.03183 0.89111 0.0
C2331 C 0.083 0.04324 0.90068 0.0
C2332 C 0.07544 0.05887 0.88815 0.0
C2333 C 0.08215 0.06241 0.86643 0.0
C2334 C 0.04443 0.03811 0.9476 0.0
C2335 C 0.05794 0.03355 0.96676 0.0
C2336 C 0.05234 0.04029 0.92618 0.0
C2337 C 0.07441 0.03885 0.92328 0.0
C2338 C 0.08798 0.03396 0.94229 0.0
C2339 C 0.07978 0.0312 0.96376 0.0
H2340 H 0.81907 0.38041 0.54573 0.0
H2341 H 0.77499 0.41403 0.582 0.0
H2342 H 0.82151 0.35791 0.57666 0.0
H2343 H 0.77637 0.39047 0.61279 0.0
H2344 H 0.81553 0.36545 0.67492 0.0
H2345 H 0.80231 0.38496 0.64422 0.0
H2346 H 0.8004 0.32846 0.59231 0.0
H2347 H 0.81477 0.3095 0.62303 0.0
C2348 C 0.80954 0.38262 0.5602 0.0
C2349 C 0.79665 0.39865 0.56151 0.0
C2350 C 0.81071 0.36958 0.5778 0.0
C2351 C 0.7986 0.37196 0.59684 0.0
C2352 C 0.78579 0.38821 0.59826 0.0
C2353 C 0.785 0.40165 0.58076 0.0
C2354 C 0.81189 0.35714 0.65695 0.0
C2355 C 0.81683 0.33639 0.65102 0.0
C2356 C 0.80416 0.36822 0.63941 0.0
C2357 C 0.80103 0.35849 0.61578 0.0
C2358 C 0.8035 0.33666 0.61031 0.0
C2359 C 0.81166 0.3258 0.62778 0.0
H2360 H 0.40378 0.01765 0.38497 0.0
H2361 H 0.47026 0.02234 0.36522 0.0
H2362 H 0.41895 0.01779 0.42603 0.0
H2363 H 0.48504 0.02248 0.40586 0.0
H2364 H 0.50147 0.99358 0.46576 0.0
H2365 H 0.47167 0.98765 0.43282 0.0
H2366 H 0.4572 0.0508 0.45635 0.0
H2367 H 0.48683 0.05655 0.4898 0.0
C2368 C 0.42157 0.01885 0.38943 0.0
C2369 C 0.43591 0.01967 0.37203 0.0
C2370 C 0.43008 0.01885 0.41274 0.0
C2371 C 0.45285 0.01961 0.41854 0.0
C2372 C 0.46725 0.02131 0.40136 0.0
C2373 C 0.45883 0.02127 0.37823 0.0
C2374 C 0.4911 0.00559 0.46449 0.0
C2375 C 0.49602 0.02541 0.47997 0.0
C2376 C 0.47406 1.00215 0.4459 0.0
C2377 C 0.46248 0.01885 0.44236 0.0
C2378 C 0.46584 0.03768 0.4592 0.0
C2379 C 0.48275 0.04101 0.47808 0.0
H2380 H 0.7841 0.68473 0.10983 0.0
H2381 H 0.7601 0.73719 0.08051 0.0
H2382 H 0.78899 0.70533 0.14885 0.0
H2383 H 0.76549 0.75848 0.12005 0.0
H2384 H 0.74984 0.77378 0.19672 0.0
H2385 H 0.74938 0.75844 0.15588 0.0
H2386 H 0.80937 0.73529 0.17556 0.0
H2387 H 0.80869 0.74914 0.21652 0.0
C2388 C 0.7801 0.70089 0.11176 0.0
C2389 C 0.77151 0.70926 0.09213 0.0
C2390 C 0.78314 0.71288 0.1342 0.0
C2391 C 0.77765 0.73367 0.13781 0.0
C2392 C 0.7697 0.74243 0.11802 0.0
C2393 C 0.7668 0.73038 0.09534 0.0
C2394 C 0.76279 0.76528 0.19236 0.0
C2395 C 0.77881 0.76201 0.21002 0.0
C2396 C 0.76275 0.75673 0.1688 0.0
C2397 C 0.77913 0.74523 0.1623 0.0
C2398 C 0.79603 0.74336 0.17989 0.0
C2399 C 0.79571 0.75139 0.20342 0.0
H2400 H 0.07251 0.02954 0.72163 0.0
H2401 H 0.13691 0.06006 0.70434 0.0
H2402 H 0.05588 0.02809 0.68098 0.0
H2403 H 0.12034 0.05853 0.66383 0.0
H2404 H 0.07919 0.07385 0.60007 0.0
H2405 H 0.0941 0.07573 0.64133 0.0
H2406 H 0.05687 0.00933 0.64086 0.0
H2407 H 0.04165 0.00789 0.5996 0.0
C2408 C 0.08311 0.03591 0.70917 0.0
C2409 C 0.10601 0.04497 0.71625 0.0
C2410 C 0.07361 0.03499 0.68586 0.0
C2411 C 0.08675 0.04331 0.66917 0.0
C2412 C 0.10967 0.05227 0.67629 0.0
C2413 C 0.1192 0.05301 0.6995 0.0
C2414 C 0.07386 0.05994 0.609 0.0
C2415 C 0.05896 0.04097 0.59697 0.0
C2416 C 0.08261 0.06083 0.6325 0.0
C2417 C 0.07669 0.04266 0.64443 0.0
C2418 C 0.06155 0.0237 0.63231 0.0
C2419 C 0.05288 0.02283 0.60874 0.0
H2420 H 0.80499 0.38134 0.45075 0.0
H2421 H 0.79013 0.42496 0.40149 0.0
H2422 H 0.80095 0.35164 0.41843 0.0
H2423 H 0.78676 0.3953 0.36913 0.0
H2424 H 0.75528 0.33155 0.32156 0.0
H2425 H 0.75983 0.36045 0.35497 0.0
H2426 H 0.8193 0.34125 0.38464 0.0
H2427 H 0.81432 0.31184 0.35154 0.0
C2428 C 0.80112 0.38467 0.43302 0.0
C2429 C 0.79773 0.40542 0.42859 0.0
C2430 C 0.79892 0.36769 0.41456 0.0
C2431 C 0.7934 0.37126 0.39146 0.0
C2432 C 0.79066 0.39214 0.38693 0.0
C2433 C 0.79278 0.40912 0.40539 0.0
C2434 C 0.76916 0.33341 0.33539 0.0
C2435 C 0.78446 0.31965 0.33423 0.0
C2436 C 0.77186 0.34999 0.35431 0.0
C2437 C 0.79004 0.35311 0.37209 0.0
C2438 C 0.80505 0.33897 0.37118 0.0
C2439 C 0.80219 0.3222 0.35237 0.0
H2440 H 0.40574 0.99404 0.24534 0.0
H2441 H 0.41518 0.06231 0.23536 0.0
H2442 H 0.42817 0.98707 0.21414 0.0
H2443 H 0.43745 0.05523 0.20339 0.0
H2444 H 0.45252 0.01293 0.13117 0.0
H2445 H 0.43184 0.02763 0.16106 0.0
H2446 H 0.4714 1.00386 0.21438 0.0
H2447 H 0.49206 0.98926 0.1847 0.0
C2448 C 0.41221 0.00738 0.23594 0.0
C2449 C 0.40881 0.02861 0.24235 0.0
C2450 C 0.42516 1.00349 0.21835 0.0
C2451 C 0.43471 0.02074 0.20679 0.0
C2452 C 0.43028 0.04178 0.21227 0.0
C2453 C 0.41756 0.04579 0.23031 0.0
C2454 C 0.45713 0.01138 0.14938 0.0
C2455 C 0.47349 0.99957 0.15571 0.0
C2456 C 0.44536 0.0198 0.16638 0.0
C2457 C 0.44988 0.01642 0.18974 0.0
C2458 C 0.46745 0.00624 0.1963 0.0
C2459 C 0.47916 0.99785 0.1794 0.0
H2460 H 0.75358 0.73718 0.95322 0.0
H2461 H 0.79565 0.69182 0.93552 0.0
H2462 H 0.75861 0.75216 0.91674 0.0
H2463 H 0.80014 0.70617 0.89873 0.0
H2464 H 0.81754 0.74684 0.84066 0.0
H2465 H 0.81572 0.73511 0.87944 0.0
H2466 H 0.74744 0.74348 0.8765 0.0
H2467 H 0.75013 0.75665 0.83886 0.0
C2468 C 0.76401 0.73049 0.94157 0.0
C2469 C 0.77414 0.71327 0.94722 0.0
C2470 C 0.76673 0.73891 0.92048 0.0
C2471 C 0.77966 0.73029 0.90449 0.0
C2472 C 0.79025 0.71343 0.91055 0.0
C2473 C 0.7875 0.70502 0.93161 0.0
C2474 C 0.80217 0.7459 0.84838 0.0
C2475 C 0.78381 0.7521 0.83671 0.0
C2476 C 0.80105 0.73921 0.87056 0.0
C2477 C 0.78137 0.7382 0.88125 0.0
C2478 C 0.76303 0.74441 0.86926 0.0
C2479 C 0.76441 0.75165 0.84749 0.0
H2480 H 0.83605 0.12512 0.05176 0.0
H2481 H 0.82271 0.06781 0.0872 0.0
H2482 H 0.87049 0.11659 0.04253 0.0
H2483 H 0.85873 0.05991 0.07921 0.0
H2484 H 0.89094 0.0318 0.01615 0.0
H2485 H 0.86722 0.04459 0.04327 0.0
H2486 H 0.90634 0.11121 0.04864 0.0
H2487 H 0.929 0.09823 0.02 0.0
C2488 C 0.84082 0.11096 0.05823 0.0
C2489 C 0.82625 0.09654 0.06935 0.0
C2490 C 0.86096 0.10628 0.05327 0.0
C2491 C 0.86724 0.08727 0.05969 0.0
C2492 C 0.85397 0.07433 0.07341 0.0
C2493 C 0.83342 0.07883 0.07805 0.0
C2494 C 0.8943 0.04916 0.02323 0.0
C2495 C 0.91101 0.06429 0.01563 0.0
C2496 C 0.8811 0.05647 0.03915 0.0
C2497 C 0.88473 0.07901 0.04802 0.0
C2498 C 0.90277 0.09383 0.0417 0.0
C2499 C 0.91562 0.08654 0.02528 0.0
H2500 H 0.36334 0.43728 -0.00026 0.0
H2501 H 0.37588 0.42953 0.07273 0.0
H2502 H 0.40132 0.45801 0.00158 0.0
H2503 H 0.4143 0.45123 0.07491 0.0
H2504 H 0.48775 0.47816 0.06038 0.0
H2505 H 0.4514 0.45404 0.06109 0.0
H2506 H 0.41959 0.49464 0.01914 0.0
H2507 H 0.4557 0.51785 0.01732 0.0
C2508 C 0.37437 0.43995 0.01621 0.0
C2509 C 0.36663 0.43212 0.03619 0.0
C2510 C 0.39609 0.45201 0.01732 0.0
C2511 C 0.41062 0.45689 0.03857 0.0
C2512 C 0.40342 0.44785 0.05831 0.0
C2513 C 0.38151 0.43543 0.0571 0.0
C2514 C 0.47296 0.482 0.05142 0.0
C2515 C 0.47467 0.49999 0.03878 0.0
C2516 C 0.45214 0.46821 0.05195 0.0
C2517 C 0.43265 0.47223 0.03992 0.0
C2518 C 0.43434 0.49076 0.02816 0.0
C2519 C 0.45507 0.50432 0.0274 0.0
H2520 H 0.42169 0.59435 0.75503 0.0
H2521 H 0.36367 0.552 0.77341 0.0
H2522 H 0.40242 0.62478 0.75661 0.0
H2523 H 0.34476 0.5827 0.77643 0.0
H2524 H 0.31026 0.63793 0.77366 0.0
H2525 H 0.3275 0.60806 0.75834 0.0
H2526 H 0.3929 0.64849 0.78611 0.0
H2527 H 0.37556 0.67819 0.80038 0.0
C2528 C 0.40482 0.59162 0.75955 0.0
C2529 C 0.39425 0.57094 0.76438 0.0
C2530 C 0.39377 0.60905 0.76049 0.0
C2531 C 0.37205 0.60633 0.76682 0.0
C2532 C 0.36129 0.58539 0.77107 0.0
C2533 C 0.37221 0.56782 0.76963 0.0
C2534 C 0.32834 0.64057 0.77549 0.0
C2535 C 0.34171 0.66021 0.788 0.0
C2536 C 0.33823 0.62341 0.76711 0.0
C2537 C 0.36161 0.62566 0.77132 0.0
C2538 C 0.37491 0.64611 0.78227 0.0
C2539 C 0.36503 0.66319 0.7905 0.0
H2540 H 0.20996 0.57285 0.52304 0.0
H2541 H 0.18913 0.62879 0.55839 0.0
H2542 H 0.17095 0.55325 0.51328 0.0
H2543 H 0.15046 0.60899 0.54962 0.0
H2544 H 0.08325 0.5798 0.51994 0.0
H2545 H 0.12167 0.59609 0.51679 0.0
H2546 H 0.14148 0.53686 0.5343 0.0
H2547 H 0.10249 0.51968 0.53504 0.0
C2548 C 0.197 0.58086 0.52874 0.0
C2549 C 0.20229 0.60227 0.54126 0.0
C2550 C 0.17481 0.5697 0.52317 0.0
C2551 C 0.15781 0.57981 0.53032 0.0
C2552 C 0.16324 0.60112 0.54319 0.0
C2553 C 0.18533 0.61236 0.54843 0.0
C2554 C 0.09559 0.56982 0.52179 0.0
C2555 C 0.09002 0.5485 0.52755 0.0
C2556 C 0.11763 0.57929 0.52045 0.0
C2557 C 0.13446 0.56787 0.52583 0.0
C2558 C 0.12874 0.54595 0.52996 0.0
C2559 C 0.10653 0.53622 0.53061 0.0
H2560 H 0.70232 0.96992 0.71696 0.0
H2561 H 0.75 0.01527 0.7698 0.0
H2562 H 0.71952 0.93972 0.72684 0.0
H2563 H 0.76633 0.98522 0.7807 0.0
H2564 H 0.79331 0.93027 0.79983 0.0
H2565 H 0.78542 0.95634 0.77355 0.0
H2566 H 0.71566 0.92249 0.76111 0.0
H2567 H 0.72409 0.89601 0.78648 0.0
C2568 C 0.71685 0.9734 0.73029 0.0
C2569 C 0.72488 0.99461 0.74286 0.0
C2570 C 0.72659 0.95622 0.73599 0.0
C2571 C 0.74402 0.96007 0.75473 0.0
C2572 C 0.75318 0.98175 0.76589 0.0
C2573 C 0.74378 0.99898 0.7598 0.0
C2574 C 0.77641 0.9285 0.79116 0.0
C2575 C 0.75904 0.91198 0.79545 0.0
C2576 C 0.77191 0.94319 0.77611 0.0
C2577 C 0.74992 0.94161 0.76555 0.0
C2578 C 0.73283 0.92404 0.76881 0.0
C2579 C 0.73745 0.90919 0.78363 0.0
H2580 H 0.75444 0.93023 0.51609 0.0
H2581 H 0.7245 0.90507 0.57407 0.0
H2582 H 0.72584 0.95128 0.51022 0.0
H2583 H 0.69593 0.92716 0.56893 0.0
H2584 H 0.63543 0.94938 0.52672 0.0
H2585 H 0.66376 0.93012 0.54154 0.0
H2586 H 0.71581 0.98331 0.52899 0.0
H2587 H 0.68746 1.00189 0.51348 0.0
C2588 C 0.74178 0.92942 0.52774 0.0
C2589 C 0.74166 0.91623 0.5456 0.0
C2590 C 0.72549 0.94166 0.52456 0.0
C2591 C 0.70893 0.94139 0.53953 0.0
C2592 C 0.70851 0.92775 0.55717 0.0
C2593 C 0.72475 0.91513 0.5601 0.0
C2594 C 0.65298 0.95719 0.52801 0.0
C2595 C 0.65946 0.97698 0.51905 0.0
C2596 C 0.66919 0.94619 0.5364 0.0
C2597 C 0.692 0.95493 0.53585 0.0
C2598 C 0.69835 0.97587 0.52904 0.0
C2599 C 0.68221 0.98669 0.5205 0.0
H2600 H 0.37809 0.45617 0.78522 0.0
H2601 H 0.40138 0.42399 0.72552 0.0
H2602 H 0.35196 0.42214 0.78776 0.0
H2603 H 0.3739 0.39046 0.72636 0.0
H2604 H 0.34171 0.32632 0.74786 0.0
H2605 H 0.36595 0.36073 0.74419 0.0
H2606 H 0.32053 0.39631 0.7759 0.0
H2607 H 0.29788 0.36179 0.78223 0.0
C2608 C 0.37719 0.44187 0.77228 0.0
C2609 C 0.39188 0.44262 0.75532 0.0
C2610 C 0.36203 0.42227 0.77356 0.0
C2611 C 0.36068 0.4031 0.7574 0.0
C2612 C 0.37476 0.40439 0.73971 0.0
C2613 C 0.39042 0.42376 0.73897 0.0
C2614 C 0.33681 0.34147 0.75403 0.0
C2615 C 0.31747 0.34109 0.76498 0.0
C2616 C 0.3507 0.36142 0.75165 0.0
C2617 C 0.34536 0.38172 0.75946 0.0
C2618 C 0.32565 0.38126 0.76991 0.0
C2619 C 0.31217 0.36127 0.77303 0.0
H2620 H 0.23647 0.61496 0.23709 0.0
H2621 H 0.18779 0.62607 0.28298 0.0
H2622 H 0.25825 0.65215 0.25076 0.0
H2623 H 0.21033 0.66281 0.29819 0.0
H2624 H 0.23182 0.73278 0.27827 0.0
H2625 H 0.21564 0.69498 0.28094 0.0
H2626 H 0.28089 0.679 0.28073 0.0
H2627 H 0.29704 0.71729 0.27732 0.0
C2628 C 0.23079 0.62536 0.25049 0.0
C2629 C 0.21043 0.61823 0.25871 0.0
C2630 C 0.24338 0.64646 0.25865 0.0
C2631 C 0.23602 0.6604 0.27563 0.0
C2632 C 0.21622 0.65256 0.28484 0.0
C2633 C 0.2033 0.63171 0.27612 0.0
C2634 C 0.24285 0.72138 0.27967 0.0
C2635 C 0.26553 0.72767 0.27734 0.0
C2636 C 0.2336 0.69966 0.28132 0.0
C2637 C 0.24696 0.68392 0.28068 0.0
C2638 C 0.27016 0.69075 0.28074 0.0
C2639 C 0.27939 0.71255 0.27885 0.0
H2640 H 0.47372 0.68873 0.48151 0.0
H2641 H 0.54386 0.70781 0.47602 0.0
H2642 H 0.47955 0.65415 0.49453 0.0
H2643 H 0.54972 0.67295 0.48794 0.0
H2644 H 0.55842 0.61665 0.52988 0.0
H2645 H 0.5525 0.65133 0.51834 0.0
H2646 H 0.48648 0.6185 0.48404 0.0
H2647 H 0.49292 0.5836 0.49531 0.0
C2648 C 0.49042 0.68554 0.48298 0.0
C2649 C 0.50831 0.7014 0.47788 0.0
C2650 C 0.49382 0.66547 0.49033 0.0
C2651 C 0.51521 0.66019 0.49247 0.0
C2652 C 0.53305 0.67616 0.48717 0.0
C2653 C 0.52969 0.69633 0.4802 0.0
C2654 C 0.5427 0.61664 0.51988 0.0
C2655 C 0.52641 0.59684 0.51356 0.0
C2656 C 0.53921 0.6368 0.51302 0.0
C2657 C 0.51892 0.63831 0.49997 0.0
C2658 C 0.50235 0.61853 0.49411 0.0
C2659 C 0.50611 0.59826 0.50051 0.0
H2660 H 0.65476 0.30762 0.62787 0.0
H2661 H 0.6135 0.29972 0.6832 0.0
H2662 H 0.68698 0.30384 0.65447 0.0
H2663 H 0.64558 0.29663 0.70996 0.0
H2664 H 0.7018 0.27207 0.74859 0.0
H2665 H 0.67006 0.27508 0.72125 0.0
H2666 H 0.71426 0.31948 0.68656 0.0
H2667 H 0.74613 0.31582 0.71359 0.0
C2668 C 0.65255 0.3052 0.64575 0.0
C2669 C 0.63139 0.30403 0.65325 0.0
C2670 C 0.67116 0.30317 0.66119 0.0
C2671 C 0.66927 0.29988 0.6847 0.0
C2672 C 0.64799 0.29875 0.69207 0.0
C2673 C 0.62946 0.30075 0.67666 0.0
C2674 C 0.7048 0.28267 0.73529 0.0
C2675 C 0.7267 0.29386 0.73362 0.0
C2676 C 0.68643 0.28446 0.71948 0.0
C2677 C 0.68918 0.29769 0.70145 0.0
C2678 C 0.71118 0.30887 0.69981 0.0
C2679 C 0.72958 0.30692 0.71554 0.0
H2680 H 0.04064 0.36057 0.95026 0.0
H2681 H 0.99251 0.34085 0.99668 0.0
H2682 H 0.04287 0.39883 0.96458 0.0
H2683 H 0.9953 0.38003 0.01203 0.0
H2684 H 0.98951 0.45455 0.01611 0.0
H2685 H 0.98673 0.4149 0.00525 0.0
H2686 H 0.05588 0.42815 0.99342 0.0
H2687 H 0.05826 0.46723 0.00333 0.0
C2688 C 0.0307 0.36434 0.96394 0.0
C2689 C 0.0164 0.34717 0.97217 0.0
C2690 C 0.03213 0.38665 0.97242 0.0
C2691 C 0.0194 0.39319 0.98978 0.0
C2692 C 0.00533 0.37602 0.99854 0.0
C2693 C 0.00392 0.35339 0.98997 0.0
C2694 C 0.00407 0.44904 0.0111 0.0
C2695 C 0.02399 0.46463 0.01047 0.0
C2696 C 1.00256 0.42606 0.00499 0.0
C2697 C 0.02096 0.41772 0.99799 0.0
C2698 C 0.04097 0.4334 0.99795 0.0
C2699 C 0.04242 0.45619 0.00389 0.0
H2700 H 0.00779 0.82252 0.15936 0.0
H2701 H 0.99217 0.75171 0.14246 0.0
H2702 H 0.97235 0.82098 0.17585 0.0
H2703 H 0.95692 0.75003 0.15842 0.0
H2704 H 0.89078 0.74943 0.1792 0.0
H2705 H 0.91977 0.75954 0.15434 0.0
H2706 H 0.95888 0.80648 0.21206 0.0
H2707 H 0.92961 0.7964 0.23678 0.0
C2708 C 0.99641 0.80673 0.15847 0.0
C2709 C 1.00248 0.78724 0.14941 0.0
C2710 C 0.97626 0.80581 0.16808 0.0
C2711 C 0.96172 0.78539 0.16839 0.0
C2712 C 0.96745 0.76606 0.15815 0.0
C2713 C 0.98766 0.76698 0.14902 0.0
C2714 C 0.90512 0.76262 0.18619 0.0
C2715 C 0.90788 0.77232 0.20978 0.0
C2716 C 0.92186 0.76823 0.17207 0.0
C2717 C 0.94182 0.78359 0.1813 0.0
C2718 C 0.94367 0.79472 0.20433 0.0
C2719 C 0.92688 0.78904 0.21848 0.0
H2720 H 0.4972 0.32483 0.16222 0.0
H2721 H 0.55959 0.31151 0.14345 0.0
H2722 H 0.50285 0.35777 0.14229 0.0
H2723 H 0.56567 0.34465 0.12451 0.0
H2724 H 0.58183 0.41576 0.11441 0.0
H2725 H 0.57198 0.38709 0.13902 0.0
H2726 H 0.50694 0.36537 0.09751 0.0
H2727 H 0.51691 0.39425 0.07282 0.0
C2728 C 0.51215 0.32906 0.15398 0.0
C2729 C 0.52794 0.31562 0.15426 0.0
C2730 C 0.51536 0.34783 0.14257 0.0
C2731 C 0.5348 0.35389 0.13202 0.0
C2732 C 0.55063 0.34052 0.13264 0.0
C2733 C 0.54709 0.32148 0.14334 0.0
C2734 C 0.56521 0.40526 0.11099 0.0
C2735 C 0.55012 0.40719 0.09177 0.0
C2736 C 0.55962 0.38877 0.12494 0.0
C2737 C 0.53882 0.37379 0.11999 0.0
C2738 C 0.52306 0.37674 0.10181 0.0
C2739 C 0.5287 0.39328 0.08775 0.0
H2740 H 0.97352 0.31354 0.28858 0.0
H2741 H 0.96603 0.30047 0.35899 0.0
H2742 H 0.93324 0.30819 0.27922 0.0
H2743 H 0.9256 0.29635 0.35024 0.0
H2744 H 0.85055 0.27447 0.3246 0.0
H2745 H 0.89069 0.27793 0.33367 0.0
H2746 H 0.9016 0.32073 0.28087 0.0
H2747 H 0.86155 0.31558 0.27064 0.0
C2748 C 0.96326 0.30961 0.30221 0.0
C2749 C 0.97333 0.30743 0.32459 0.0
C2750 C 0.93988 0.30677 0.2969 0.0
C2751 C 0.92543 0.30203 0.31389 0.0
C2752 C 0.93561 0.29964 0.33631 0.0
C2753 C 0.95905 0.30211 0.34148 0.0
C2754 C 0.86147 0.28464 0.31487 0.0
C2755 C 0.85234 0.29506 0.29704 0.0
C2756 C 0.88482 0.28682 0.32026 0.0
C2757 C 0.90015 0.29973 0.30824 0.0
C2758 C 0.8909 0.31028 0.29052 0.0
C2759 C 0.86757 0.30775 0.28487 0.0
H2760 H 0.0402 0.67194 0.67263 0.0
H2761 H 0.99387 0.69076 0.62174 0.0
H2762 H 0.04195 0.63992 0.64479 0.0
H2763 H 0.99512 0.65814 0.59388 0.0
H2764 H 0.98617 0.58234 0.56349 0.0
H2765 H 0.98401 0.61568 0.58972 0.0
H2766 H 0.05598 0.63158 0.60609 0.0
H2767 H 0.05799 0.59851 0.57965 0.0
C2768 C 0.03024 0.66916 0.65551 0.0
C2769 C 0.01682 0.68394 0.64952 0.0
C2770 C 0.03135 0.65082 0.63945 0.0
C2771 C 0.01867 0.64631 0.61702 0.0
C2772 C 0.00504 0.66099 0.61103 0.0
C2773 C 0.00438 0.67975 0.62695 0.0
C2774 C 1.00147 0.59303 0.5727 0.0
C2775 C 0.02223 0.58778 0.56968 0.0
C2776 C 1.00028 0.61221 0.58761 0.0
C2777 C 0.01982 0.62639 0.60015 0.0
C2778 C 0.04057 0.62102 0.59695 0.0
C2779 C 0.04176 0.60211 0.58176 0.0
H2780 H 0.59948 0.79559 0.79672 0.0
H2781 H 0.63399 0.81403 0.86729 0.0
H2782 H 0.63421 0.78941 0.78271 0.0
H2783 H 0.66823 0.80713 0.8538 0.0
H2784 H 0.73371 0.80972 0.82453 0.0
H2785 H 0.69897 0.8168 0.83645 0.0
H2786 H 0.66185 0.77002 0.77748 0.0
H2787 H 0.69704 0.76421 0.76473 0.0
C2788 C 0.61443 0.79831 0.80934 0.0
C2789 C 0.61357 0.80549 0.83327 0.0
C2790 C 0.63457 0.79456 0.8013 0.0
C2791 C 0.6548 0.79775 0.81683 0.0
C2792 C 0.65368 0.80483 0.84078 0.0
C2793 C 0.63367 0.80867 0.84873 0.0
C2794 C 0.7182 0.80085 0.81398 0.0
C2795 C 0.71866 0.78602 0.79368 0.0
C2796 C 0.69789 0.8048 0.82104 0.0
C2797 C 0.67681 0.79384 0.80843 0.0
C2798 C 0.6773 0.77912 0.78791 0.0
C2799 C 0.69775 0.77547 0.78061 0.0
H2800 H 0.49347 0.5203 0.71177 0.0
H2801 H 0.42965 0.52321 0.67484 0.0
H2802 H 0.51078 0.52546 0.67638 0.0
H2803 H 0.44682 0.52796 0.63914 0.0
H2804 H 0.48855 0.55597 0.58443 0.0
H2805 H 0.47161 0.5526 0.62055 0.0
H2806 H 0.51298 0.50733 0.63885 0.0
H2807 H 0.53039 0.51149 0.60339 0.0
C2808 C 0.48311 0.52202 0.69605 0.0
C2809 C 0.46017 0.52129 0.69614 0.0
C2810 C 0.49301 0.52482 0.67563 0.0
C2811 C 0.48026 0.52708 0.6547 0.0
C2812 C 0.45728 0.52651 0.6549 0.0
C2813 C 0.44736 0.52358 0.67533 0.0
C2814 C 0.49404 0.54541 0.59629 0.0
C2815 C 0.51089 0.53411 0.59115 0.0
C2816 C 0.48424 0.54333 0.61694 0.0
C2817 C 0.49086 0.52967 0.63279 0.0
C2818 C 0.50771 0.51836 0.62745 0.0
C2819 C 0.51768 0.52067 0.60702 0.0
H2820 H 0.8065 0.19141 0.00295 0.0
H2821 H 0.75392 0.13731 0.96758 0.0
H2822 H 0.80116 0.21196 0.97022 0.0
H2823 H 0.74751 0.15811 0.9358 0.0
H2824 H 0.74127 0.19684 0.87782 0.0
H2825 H 0.75872 0.17521 0.90352 0.0
H2826 H 0.77205 0.23019 0.9599 0.0
H2827 H 0.75567 0.25207 0.93378 0.0
C2828 C 0.79413 0.18382 0.98793 0.0
C2829 C 0.78063 0.16291 0.98761 0.0
C2830 C 0.79092 0.19558 0.96934 0.0
C2831 C 0.77369 0.18681 0.95059 0.0
C2832 C 0.76118 0.16525 0.94972 0.0
C2833 C 0.76479 0.15332 0.96798 0.0
C2834 C 0.7483 0.20437 0.89561 0.0
C2835 C 0.74684 0.22598 0.90402 0.0
C2836 C 0.7582 0.19197 0.91034 0.0
C2837 C 0.76666 0.20091 0.93379 0.0
C2838 C 0.76595 0.22285 0.94186 0.0
C2839 C 0.75617 0.23527 0.92708 0.0
H2840 H 0.17571 0.54199 0.15155 0.0
H2841 H 0.11849 0.52611 0.18868 0.0
H2842 H 0.15044 0.54401 0.11638 0.0
H2843 H 0.09378 0.52849 0.15397 0.0
H2844 H 0.06175 0.56281 0.10057 0.0
H2845 H 0.09382 0.5657 0.13054 0.0
H2846 H 0.11179 0.5101 0.09134 0.0
H2847 H 0.07915 0.50671 0.06172 0.0
C2848 C 0.15784 0.53881 0.15213 0.0
C2849 C 0.14898 0.53399 0.17274 0.0
C2850 C 0.14356 0.54006 0.13219 0.0
C2851 C 0.12052 0.53675 0.133 0.0
C2852 C 0.11166 0.53144 0.15334 0.0
C2853 C 0.12578 0.52996 0.17305 0.0
C2854 C 0.07298 0.55166 0.09815 0.0
C2855 C 0.06869 0.53492 0.07886 0.0
C2856 C 0.09124 0.5534 0.11505 0.0
C2857 C 0.10513 0.53829 0.11274 0.0
C2858 C 0.10143 0.52216 0.09291 0.0
C2859 C 0.08298 0.52028 0.07608 0.0
H2860 H 0.81643 0.84168 0.47463 0.0
H2861 H 0.75543 0.86097 0.45069 0.0
H2862 H 0.81714 0.82349 0.4348 0.0
H2863 H 0.75532 0.84199 0.4115 0.0
H2864 H 0.77562 0.83505 0.33961 0.0
H2865 H 0.77491 0.84907 0.38021 0.0
H2866 H 0.8021 0.79509 0.40214 0.0
H2867 H 0.8036 0.78138 0.361 0.0
C2868 C 0.8028 0.84139 0.46102 0.0
C2869 C 0.78592 0.85279 0.46571 0.0
C2870 C 0.8032 0.83101 0.43815 0.0
C2871 C 0.78655 0.83163 0.41964 0.0
C2872 C 0.76887 0.84175 0.42496 0.0
C2873 C 0.76872 0.85241 0.44756 0.0
C2874 C 0.78153 0.82611 0.35299 0.0
C2875 C 0.7896 0.807 0.34691 0.0
C2876 C 0.7809 0.83406 0.37644 0.0
C2877 C 0.78803 0.82304 0.39467 0.0
C2878 C 0.79649 0.80408 0.38866 0.0
C2879 C 0.79728 0.79615 0.36504 0.0
H2880 H 0.44322 0.52188 0.84692 0.0
H2881 H 0.50794 0.51213 0.83192 0.0
H2882 H 0.45573 0.5252 0.88892 0.0
H2883 H 0.52104 0.51681 0.87367 0.0
H2884 H 0.53328 0.50297 0.94781 0.0
H2885 H 0.51983 0.49995 0.9064 0.0
H2886 H 0.47689 0.54494 0.92288 0.0
H2887 H 0.48907 0.5464 0.96446 0.0
C2888 C 0.46027 0.52086 0.85264 0.0
C2889 C 0.47451 0.51654 0.83605 0.0
C2890 C 0.46756 0.52285 0.87681 0.0
C2891 C 0.48945 0.52102 0.88507 0.0
C2892 C 0.50388 0.51761 0.8683 0.0
C2893 C 0.49644 0.51515 0.84422 0.0
C2894 C 0.52065 0.51185 0.9427 0.0
C2895 C 0.51198 0.5245 0.95971 0.0
C2896 C 0.51314 0.51048 0.91872 0.0
C2897 C 0.49718 0.52226 0.91087 0.0
C2898 C 0.48879 0.53521 0.92796 0.0
C2899 C 0.49595 0.53619 0.95197 0.0
H2900 H 0.80507 0.17599 0.12273 0.0
H2901 H 0.73584 0.15334 0.13164 0.0
H2902 H 0.8091 0.20593 0.15529 0.0
H2903 H 0.73975 0.18355 0.16402 0.0
H2904 H 0.75169 0.25622 0.19891 0.0
H2905 H 0.74862 0.22688 0.16588 0.0
H2906 H 0.80589 0.20717 0.19986 0.0
H2907 H 0.8092 0.23642 0.23258 0.0
C2908 C 0.79082 0.17749 0.1318 0.0
C2909 C 0.7702 0.16265 0.12505 0.0
C2910 C 0.7931 0.19445 0.15026 0.0
C2911 C 0.77464 0.19689 0.1617 0.0
C2912 C 0.75406 0.1819 0.1551 0.0
C2913 C 0.75191 0.16465 0.13693 0.0
C2914 C 0.76372 0.24574 0.19908 0.0
C2915 C 0.78057 0.24834 0.21813 0.0
C2916 C 0.76186 0.22899 0.18043 0.0
C2917 C 0.77696 0.21496 0.18073 0.0
C2918 C 0.79418 0.21798 0.19943 0.0
C2919 C 0.79599 0.2346 0.21807 0.0
H2920 H 0.16962 0.5747 0.32124 0.0
H2921 H 0.12367 0.51314 0.29348 0.0
H2922 H 0.15516 0.57413 0.35887 0.0
H2923 H 0.10971 0.51189 0.3314 0.0
H2924 H 0.06392 0.55072 0.372 0.0
H2925 H 0.08595 0.53674 0.34368 0.0
H2926 H 0.1455 0.55836 0.39472 0.0
H2927 H 0.12305 0.57244 0.42322 0.0
C2928 C 0.15709 0.56061 0.32366 0.0
C2929 C 0.14738 0.54413 0.30475 0.0
C2930 C 0.14894 0.56013 0.34519 0.0
C2931 C 0.13106 0.5431 0.3479 0.0
C2932 C 0.12324 0.52536 0.32962 0.0
C2933 C 0.13115 0.52604 0.30801 0.0
C2934 C 0.08164 0.55207 0.37722 0.0
C2935 C 0.09201 0.56299 0.39935 0.0
C2936 C 0.09423 0.5438 0.36119 0.0
C2937 C 0.1175 0.54655 0.36699 0.0
C2938 C 0.12762 0.55614 0.38982 0.0
C2939 C 0.11487 0.5642 0.40601 0.0
H2940 H 0.80363 0.88271 0.63457 0.0
H2941 H 0.79013 0.81826 0.59287 0.0
H2942 H 0.79813 0.8657 0.66982 0.0
H2943 H 0.78444 0.80121 0.62816 0.0
H2944 H 0.80029 0.77951 0.70015 0.0
H2945 H 0.80511 0.79599 0.66457 0.0
H2946 H 0.76845 0.84469 0.68813 0.0
H2947 H 0.76384 0.82827 0.72403 0.0
C2948 C 0.79965 0.86489 0.63294 0.0
C2949 C 0.79747 0.85184 0.61089 0.0
C2950 C 0.79625 0.85514 0.65314 0.0
C2951 C 0.79074 0.83208 0.65187 0.0
C2952 C 0.78884 0.81902 0.62984 0.0
C2953 C 0.79206 0.82878 0.60959 0.0
C2954 C 0.79312 0.79366 0.69772 0.0
C2955 C 0.78175 0.80264 0.71502 0.0
C2956 C 0.79583 0.80307 0.67723 0.0
C2957 C 0.78724 0.82172 0.67346 0.0
C2958 C 0.77559 0.83054 0.69062 0.0
C2959 C 0.77284 0.82108 0.71115 0.0
H2960 H 0.71477 0.43009 0.47826 0.0
H2961 H 0.75607 0.49552 0.50001 0.0
H2962 H 0.68142 0.4448 0.48255 0.0
H2963 H 0.72321 0.50993 0.50528 0.0
H2964 H 0.66649 0.53218 0.52698 0.0
H2965 H 0.68708 0.51774 0.49733 0.0
H2966 H 0.67415 0.45455 0.52224 0.0
H2967 H 0.65252 0.46868 0.55087 0.0
C2968 C 0.71664 0.44767 0.48329 0.0
C2969 C 0.73783 0.46159 0.48985 0.0
C2970 C 0.69762 0.45608 0.48565 0.0
C2971 C 0.69982 0.47829 0.49503 0.0
C2972 C 0.72091 0.4927 0.49811 0.0
C2973 C 0.73983 0.48437 0.49544 0.0
C2974 C 0.66758 0.51502 0.52561 0.0
C2975 C 0.65831 0.50151 0.54135 0.0
C2976 C 0.67926 0.50679 0.50863 0.0
C2977 C 0.6822 0.48507 0.50746 0.0
C2978 C 0.67184 0.47126 0.52239 0.0
C2979 C 0.65996 0.47944 0.5392 0.0
H2980 H 0.17707 0.16345 0.50327 0.0
H2981 H 0.21263 0.1113 0.511 0.0
H2982 H 0.14216 0.13837 0.50707 0.0
H2983 H 0.17779 0.08619 0.51437 0.0
H2984 H 0.11494 0.0549 0.54471 0.0
H2985 H 0.15014 0.0795 0.54092 0.0
H2986 H 0.11613 0.10612 0.4856 0.0
H2987 H 0.08098 0.08193 0.48973 0.0
C2988 C 0.17741 0.14663 0.50568 0.0
C2989 C 0.19757 0.13936 0.50677 0.0
C2990 C 0.15741 0.13221 0.50773 0.0
C2991 C 0.15718 0.11024 0.51098 0.0
C2992 C 0.1774 0.10304 0.51213 0.0
C2993 C 0.19735 0.11741 0.51 0.0
C2994 C 0.11507 0.06582 0.53156 0.0
C2995 C 0.09521 0.06646 0.5175 0.0
C2996 C 0.13522 0.07993 0.52938 0.0
C2997 C 0.13592 0.09488 0.51303 0.0
C2998 C 0.11611 0.09512 0.49867 0.0
C2999 C 0.09599 0.08113 0.50091 0.0
H3000 H 0.14696 0.97455 0.75457 0.0
H3001 H 0.19202 1.00384 0.81784 0.0
H3002 H 0.16682 0.94483 0.74928 0.0
H3003 H 0.21106 0.97319 0.8137 0.0
H3004 H 0.25922 0.93711 0.77729 0.0
H3005 H 0.23621 0.96249 0.79002 0.0
H3006 H 0.17654 0.91311 0.76068 0.0
H3007 H 0.20004 0.88814 0.74722 0.0
C3008 C 0.16082 0.97425 0.76767 0.0
C3009 C 0.16821 0.9915 0.78643 0.0
C3010 C 0.17211 0.9571 0.7648 0.0
C3011 C 0.19069 0.95659 0.781 0.0
C3012 C 0.1972 0.97332 0.80055 0.0
C3013 C 0.18629 0.99081 0.80303 0.0
C3014 C 0.24117 0.93178 0.77383 0.0
C3015 C 0.23124 0.91106 0.7611 0.0
C3016 C 0.22791 0.94615 0.78132 0.0
C3017 C 0.20443 0.93999 0.7762 0.0
C3018 C 0.19454 0.91859 0.76451 0.0
C3019 C 0.20789 0.90424 0.75695 0.0
H3020 H 0.36325 1.00168 0.03453 0.0
H3021 H 0.36507 0.94581 0.98373 0.0
H3022 H 0.40389 0.00883 0.04424 0.0
H3023 H 0.40572 0.95259 0.99347 0.0
H3024 H 0.47005 1.00339 0.98419 0.0
H3025 H 0.4317 0.98348 0.98298 0.0
H3026 H 0.43789 0.99758 0.05883 0.0
H3027 H 0.47584 0.01912 0.05954 0.0
C3028 C 0.37253 0.99097 0.02564 0.0
C3029 C 0.36171 0.97381 0.00799 0.0
C3030 C 0.39557 0.99466 0.03146 0.0
C3031 C 0.4078 0.98129 0.01942 0.0
C3032 C 0.39658 0.96317 0.00282 0.0
C3033 C 0.37356 0.95944 0.99713 0.0
C3034 C 0.46308 1.00209 0.00051 0.0
C3035 C 0.47537 0.01265 0.02196 0.0
C3036 C 0.44143 0.99033 -6e-05 0.0
C3037 C 0.43199 0.98894 0.02088 0.0
C3038 C 0.4449 0.99852 0.0425 0.0
C3039 C 0.4665 0.01065 0.04298 0.0
H3040 H 0.81964 0.55746 0.78259 0.0
H3041 H 0.86696 0.59793 0.83951 0.0
H3042 H 0.80954 0.59039 0.77031 0.0
H3043 H 0.85646 0.63104 0.82707 0.0
H3044 H 0.78929 0.66145 0.77883 0.0
H3045 H 0.80123 0.63693 0.80489 0.0
H3046 H 0.85578 0.63056 0.76558 0.0
H3047 H 0.8444 0.65559 0.73969 0.0
C3048 C 0.82709 0.57326 0.79316 0.0
C3049 C 0.84407 0.57522 0.812 0.0
C3050 C 0.82143 0.59205 0.786 0.0
C3051 C 0.8324 0.61291 0.79781 0.0
C3052 C 0.84794 0.61493 0.81785 0.0
C3053 C 0.85378 0.59608 0.82496 0.0
C3054 C 0.80439 0.65561 0.77627 0.0
C3055 C 0.81575 0.66017 0.75697 0.0
C3056 C 0.81112 0.64161 0.79119 0.0
C3057 C 0.82931 0.63216 0.78705 0.0
C3058 C 0.8418 0.63802 0.76906 0.0
C3059 C 0.83513 0.65206 0.75416 0.0
H3060 H 0.83402 0.65786 0.05989 0.0
H3061 H 0.81782 0.63282 0.98598 0.0
H3062 H 0.86802 0.64364 0.06139 0.0
H3063 H 0.85215 0.61841 0.98723 0.0
H3064 H 0.8831 0.56249 0.01846 0.0
H3065 H 0.85924 0.58692 0.00598 0.0
H3066 H 0.9046 0.64232 0.04978 0.0
H3067 H 0.92814 0.61751 0.06254 0.0
C3068 C 0.83829 0.64996 0.04379 0.0
C3069 C 0.82358 0.64636 0.02286 0.0
C3070 C 0.8578 0.64192 0.04456 0.0
C3071 C 0.86272 0.62981 0.02443 0.0
C3072 C 0.8487 0.6276 0.00302 0.0
C3073 C 0.82921 0.63591 0.00223 0.0
C3074 C 0.88809 0.57999 0.02491 0.0
C3075 C 0.90699 0.58827 0.04164 0.0
C3076 C 0.87465 0.59403 0.01762 0.0
C3077 C 0.87995 0.61653 0.02709 0.0
C3078 C 0.89999 0.62502 0.04243 0.0
C3079 C 0.9134 0.61093 0.04973 0.0
H3080 H 0.1507 0.144 0.79548 0.0
H3081 H 0.20261 0.10663 0.79566 0.0
H3082 H 0.17834 0.17756 0.79551 0.0
H3083 H 0.23057 0.14066 0.79606 0.0
H3084 H 0.26534 0.2031 0.76506 0.0
H3085 H 0.24098 0.16815 0.76913 0.0
H3086 H 0.2095 0.20235 0.82085 0.0
H3087 H 0.23355 0.23713 0.8167 0.0
C3088 C 0.16807 0.14295 0.79577 0.0
C3089 C 0.17441 0.12259 0.79557 0.0
C3090 C 0.18397 0.16227 0.79594 0.0
C3091 C 0.20668 0.16181 0.7959 0.0
C3092 C 0.21317 0.14151 0.79596 0.0
C3093 C 0.19719 0.12207 0.79592 0.0
C3094 C 0.25347 0.20308 0.77758 0.0
C3095 C 0.25132 0.22292 0.79047 0.0
C3096 C 0.23955 0.18305 0.77994 0.0
C3097 C 0.22318 0.18251 0.79517 0.0
C3098 C 0.22168 0.20225 0.80868 0.0
C3099 C 0.23555 0.22219 0.80635 0.0
H3100 H 0.3322 0.95714 0.27183 0.0
H3101 H 0.38647 0.93526 0.30868 0.0
H3102 H 0.30989 0.91942 0.26458 0.0
H3103 H 0.36385 0.89805 0.30337 0.0
H3104 H 0.3297 0.831 0.28035 0.0
H3105 H 0.3499 0.86725 0.27577 0.0
H3106 H 0.29002 0.89243 0.28323 0.0
H3107 H 0.26932 0.85524 0.28454 0.0
C3108 C 0.33915 0.94417 0.27854 0.0
C3109 C 0.36097 0.94869 0.29045 0.0
C3110 C 0.32644 0.92267 0.2745 0.0
C3111 C 0.33523 0.90561 0.28299 0.0
C3112 C 0.35687 0.91054 0.29569 0.0
C3113 C 0.36977 0.93185 0.29903 0.0
C3114 C 0.32059 0.84395 0.27926 0.0
C3115 C 0.29793 0.84035 0.2818 0.0
C3116 C 0.33228 0.86494 0.2775 0.0
C3117 C 0.32173 0.88289 0.27971 0.0
C3118 C 0.29867 0.87901 0.28124 0.0
C3119 C 0.28683 0.8578 0.28217 0.0
H3120 H 0.55782 0.38201 0.61442 0.0
H3121 H 0.55958 0.35609 0.54239 0.0
H3122 H 0.55242 0.41684 0.60261 0.0
H3123 H 0.55431 0.39128 0.53041 0.0
H3124 H 0.5256 0.45273 0.51396 0.0
H3125 H 0.52994 0.4169 0.52462 0.0
H3126 H 0.56967 0.44976 0.58991 0.0
H3127 H 0.56524 0.48528 0.57933 0.0
C3128 C 0.55716 0.38366 0.59597 0.0
C3129 C 0.55933 0.36581 0.57954 0.0
C3130 C 0.55415 0.40395 0.58911 0.0
C3131 C 0.55301 0.40752 0.56539 0.0
C3132 C 0.55489 0.38955 0.54883 0.0
C3133 C 0.55808 0.3692 0.55576 0.0
C3134 C 0.53527 0.45239 0.53062 0.0
C3135 C 0.54507 0.47238 0.54561 0.0
C3136 C 0.53791 0.43164 0.53675 0.0
C3137 C 0.55022 0.42985 0.55832 0.0
C3138 C 0.55983 0.4499 0.57329 0.0
C3139 C 0.55741 0.47058 0.56707 0.0
H3140 H 0.42602 0.73602 0.38342 0.0
H3141 H 0.43808 0.80631 0.40393 0.0
H3142 H 0.39051 0.73695 0.35976 0.0
H3143 H 0.40295 0.80733 0.38072 0.0
H3144 H 0.35796 0.80655 0.31212 0.0
H3145 H 0.39043 0.80309 0.33842 0.0
H3146 H 0.35155 0.74497 0.35922 0.0
H3147 H 0.3188 0.74866 0.33297 0.0
C3148 C 0.42072 0.75152 0.3836 0.0
C3149 C 0.43477 0.77105 0.39591 0.0
C3150 C 0.40044 0.75213 0.36984 0.0
C3151 C 0.39389 0.77231 0.36789 0.0
C3152 C 0.4075 0.79154 0.38127 0.0
C3153 C 0.42756 0.79092 0.39491 0.0
C3154 C 0.35628 0.79297 0.32221 0.0
C3155 C 0.33563 0.77795 0.32039 0.0
C3156 C 0.37493 0.79105 0.33751 0.0
C3157 C 0.37376 0.77381 0.35124 0.0
C3158 C 0.35321 0.75844 0.349 0.0
C3159 C 0.33437 0.76064 0.33401 0.0
H3160 H 0.03249 0.70837 0.10749 0.0
H3161 H 0.07891 0.7241 0.05838 0.0
H3162 H 0.0283 0.66936 0.09422 0.0
H3163 H 0.07437 0.68449 0.04427 0.0
H3164 H 0.08014 0.61112 0.04322 0.0
H3165 H 0.08303 0.65076 0.05268 0.0
H3166 H 0.01474 0.63833 0.06746 0.0
H3167 H 0.01226 0.599 0.05871 0.0
C3168 C 0.04136 0.70348 0.09324 0.0
C3169 C 0.05574 0.71968 0.08383 0.0
C3170 C 0.03895 0.68083 0.08551 0.0
C3171 C 0.05095 0.67312 0.06799 0.0
C3172 C 0.06492 0.68939 0.05795 0.0
C3173 C 0.06726 0.71229 0.06572 0.0
C3174 C 0.06577 0.61677 0.04855 0.0
C3175 C 0.04608 0.60134 0.05028 0.0
C3176 C 0.06733 0.63977 0.05385 0.0
C3177 C 0.04919 0.64838 0.06109 0.0
C3178 C 0.02942 0.63287 0.06255 0.0
C3179 C 0.02794 0.60997 0.05739 0.0
H3180 H 0.07544 0.30812 0.92532 0.0
H3181 H 0.06115 0.2388 0.89857 0.0
H3182 H 0.1068 0.31437 0.90275 0.0
H3183 H 0.09354 0.24445 0.87732 0.0
H3184 H 0.13422 0.26624 0.81888 0.0
H3185 H 0.10609 0.2574 0.84478 0.0
H3186 H 0.14263 0.31174 0.89697 0.0
H3187 H 0.17018 0.3209 0.87026 0.0
C3188 C 0.07942 0.29413 0.91499 0.0
C3189 C 0.06592 0.27299 0.91366 0.0
C3190 C 0.09755 0.29763 0.90212 0.0
C3191 C 0.10304 0.27996 0.88801 0.0
C3192 C 0.08976 0.25865 0.88741 0.0
C3193 C 0.07125 0.2553 0.89976 0.0
C3194 C 0.1364 0.27594 0.83613 0.0
C3195 C 0.15444 0.29409 0.84268 0.0
C3196 C 0.12027 0.27089 0.85111 0.0
C3197 C 0.12169 0.28393 0.87314 0.0
C3198 C 0.1405 0.30152 0.88006 0.0
C3199 C 0.15658 0.30661 0.86495 0.0
H3200 H 0.51276 0.7323 0.87954 0.0
H3201 H 0.57486 0.76153 0.92429 0.0
H3202 H 0.50849 0.70024 0.89987 0.0
H3203 H 0.5715 0.72883 0.94382 0.0
H3204 H 0.54204 0.68084 0.99326 0.0
H3205 H 0.55281 0.71072 0.97065 0.0
H3206 H 0.51889 0.66814 0.90712 0.0
H3207 H 0.50733 0.6388 0.93027 0.0
C3208 C 0.52571 0.73169 0.89352 0.0
C3209 C 0.54404 0.74955 0.90041 0.0
C3210 C 0.52342 0.71312 0.90511 0.0
C3211 C 0.53968 0.71161 0.92363 0.0
C3212 C 0.55836 0.72936 0.93004 0.0
C3213 C 0.56037 0.74815 0.91876 0.0
C3214 C 0.53763 0.67773 0.97434 0.0
C3215 C 0.52413 0.65746 0.96346 0.0
C3216 C 0.5437 0.69491 0.96127 0.0
C3217 C 0.5364 0.69224 0.93692 0.0
C3218 C 0.52435 0.67123 0.92586 0.0
C3219 C 0.5181 0.65416 0.93901 0.0
H3220 H 0.10557 0.77594 0.69043 0.0
H3221 H 0.09062 0.75109 0.75447 0.0
H3222 H 0.14526 0.77862 0.70213 0.0
H3223 H 0.13076 0.75392 0.76647 0.0
H3224 H 0.20328 0.74193 0.77031 0.0
H3225 H 0.16323 0.73901 0.75956 0.0
H3226 H 0.1777 0.79789 0.7272 0.0
H3227 H 0.21753 0.80029 0.73727 0.0
C3228 C 0.11072 0.77115 0.70718 0.0
C3229 C 0.09455 0.76332 0.72143 0.0
C3230 C 0.13374 0.77282 0.71402 0.0
C3231 C 0.14174 0.76654 0.73539 0.0
C3232 C 0.12556 0.75876 0.74978 0.0
C3233 C 0.1024 0.75731 0.74299 0.0
C3234 C 0.19806 0.75405 0.76059 0.0
C3235 C 0.21419 0.77111 0.75448 0.0
C3236 C 0.17483 0.75258 0.75465 0.0
C3237 C 0.16671 0.76815 0.74231 0.0
C3238 C 0.18288 0.78524 0.73628 0.0
C3239 C 0.20602 0.78668 0.74222 0.0
H3240 H 0.05906 0.40632 0.38212 0.0
H3241 H 0.04253 0.36371 0.43374 0.0
H3242 H 0.05497 0.4377 0.40886 0.0
H3243 H 0.03951 0.39538 0.46129 0.0
H3244 H 0.01631 0.45313 0.50028 0.0
H3245 H 0.02053 0.42119 0.47399 0.0
H3246 H 0.06741 0.46387 0.44013 0.0
H3247 H 0.06208 0.49564 0.46553 0.0
C3248 C 0.05481 0.40363 0.39936 0.0
C3249 C 0.05116 0.38226 0.40557 0.0
C3250 C 0.05263 0.42187 0.41502 0.0
C3251 C 0.04692 0.41962 0.43773 0.0
C3252 C 0.04356 0.39817 0.44403 0.0
C3253 C 0.04557 0.37984 0.42823 0.0
C3254 C 0.02754 0.45568 0.48721 0.0
C3255 C 0.03876 0.47715 0.48512 0.0
C3256 C 0.03013 0.4372 0.47206 0.0
C3257 C 0.04433 0.43943 0.45444 0.0
C3258 C 0.05584 0.46102 0.45278 0.0
C3259 C 0.05295 0.47947 0.46765 0.0
H3260 H 0.46085 0.2569 0.26568 0.0
H3261 H 0.43796 0.25887 0.19317 0.0
H3262 H 0.42508 0.2631 0.27655 0.0
H3263 H 0.40196 0.26487 0.20389 0.0
H3264 H 0.33155 0.25465 0.22722 0.0
H3265 H 0.36744 0.24893 0.21648 0.0
H3266 H 0.40099 0.28812 0.2818 0.0
H3267 H 0.36496 0.29289 0.29296 0.0
C3268 C 0.44817 0.25865 0.25198 0.0
C3269 C 0.45258 0.25738 0.22848 0.0
C3270 C 0.42752 0.26238 0.25826 0.0
C3271 C 0.41013 0.26456 0.24125 0.0
C3272 C 0.41456 0.26315 0.21768 0.0
C3273 C 0.43542 0.25987 0.21147 0.0
C3274 C 0.34654 0.26213 0.23938 0.0
C3275 C 0.34497 0.27456 0.26097 0.0
C3276 C 0.36736 0.25894 0.23308 0.0
C3277 C 0.38763 0.2681 0.24804 0.0
C3278 C 0.38603 0.28048 0.2697 0.0
C3279 C 0.36516 0.28351 0.27608 0.0
H3280 H 0.56323 0.53832 0.34377 0.0
H3281 H 0.63242 0.55153 0.37442 0.0
H3282 H 0.55158 0.53071 0.38125 0.0
H3283 H 0.62082 0.54537 0.41276 0.0
H3284 H 0.5906 0.51941 0.4769 0.0
H3285 H 0.60399 0.52143 0.43851 0.0
H3286 H 0.54945 0.55156 0.41634 0.0
H3287 H 0.53598 0.54887 0.45353 0.0
C3288 C 0.57596 0.53975 0.35868 0.0
C3289 C 0.59869 0.54579 0.35627 0.0
C3290 C 0.56931 0.53553 0.38029 0.0
C3291 C 0.5852 0.53793 0.40039 0.0
C3292 C 0.60807 0.54324 0.39776 0.0
C3293 C 0.61475 0.54691 0.37583 0.0
C3294 C 0.58149 0.52629 0.46367 0.0
C3295 C 0.56203 0.53364 0.46826 0.0
C3296 C 0.58919 0.52757 0.4417 0.0
C3297 C 0.57762 0.53632 0.42399 0.0
C3298 C 0.55848 0.54403 0.42902 0.0
C3299 C 0.55079 0.54262 0.45064 0.0
H3300 H 0.26389 0.90283 0.07319 0.0
H3301 H 0.32246 0.88664 0.04693 0.0
H3302 H 0.26916 0.88151 0.10565 0.0
H3303 H 0.32848 0.86654 0.07952 0.0
H3304 H 0.32515 0.81486 0.12293 0.0
H3305 H 0.31037 0.8321 0.09101 0.0
H3306 H 0.29601 0.88252 0.1414 0.0
H3307 H 0.31032 0.86485 0.17342 0.0
C3308 C 0.27789 0.89477 0.07456 0.0
C3309 C 0.29256 0.89576 0.0576 0.0
C3310 C 0.28093 0.88269 0.093 0.0
C3311 C 0.29887 0.8719 0.09468 0.0
C3312 C 0.31397 0.87389 0.07812 0.0
C3313 C 0.31067 0.88548 0.0596 0.0
C3314 C 0.31855 0.82945 0.12713 0.0
C3315 C 0.31941 0.83892 0.15049 0.0
C3316 C 0.31009 0.8393 0.10894 0.0
C3317 C 0.3027 0.85899 0.11381 0.0
C3318 C 0.30173 0.86742 0.13719 0.0
C3319 C 0.31 0.85738 0.15546 0.0
H3320 H 0.90122 0.51537 0.88436 0.0
H3321 H 0.96695 0.53091 0.8626 0.0
H3322 H 0.91872 0.51543 0.92475 0.0
H3323 H 0.984 0.53096 0.90241 0.0
H3324 H 0.00454 0.49619 0.95907 0.0
H3325 H 0.97494 0.49181 0.92606 0.0
H3326 H 0.95647 0.55103 0.95626 0.0
H3327 H 0.98608 0.55547 0.98941 0.0
C3328 C 0.9193 0.51909 0.8883 0.0
C3329 C 0.93284 0.52278 0.87048 0.0
C3330 C 0.92916 0.51903 0.91119 0.0
C3331 C 0.95247 0.52273 0.91609 0.0
C3332 C 0.9659 0.52762 0.8986 0.0
C3333 C 0.95617 0.52759 0.87595 0.0
C3334 C 0.99369 0.50785 0.95891 0.0
C3335 C 0.99741 0.52618 0.97639 0.0
C3336 C 0.97667 0.50519 0.94037 0.0
C3337 C 0.96364 0.52107 0.93902 0.0
C3338 C 0.96618 0.53846 0.95741 0.0
C3339 C 0.98314 0.54106 0.97612 0.0
H3340 H 0.30322 0.22304 0.59344 0.0
H3341 H 0.23205 0.20334 0.59357 0.0
H3342 H 0.30713 0.2431 0.63348 0.0
H3343 H 0.23574 0.22363 0.63317 0.0
H3344 H 0.24907 0.27646 0.69842 0.0
H3345 H 0.24684 0.2621 0.65682 0.0
H3346 H 0.30162 0.23052 0.67313 0.0
H3347 H 0.30345 0.2443 0.71472 0.0
C3348 C 0.28838 0.22358 0.60179 0.0
C3349 C 0.26729 0.21197 0.59037 0.0
C3350 C 0.2906 0.23484 0.62475 0.0
C3351 C 0.27172 0.235 0.63651 0.0
C3352 C 0.25056 0.22408 0.62456 0.0
C3353 C 0.24843 0.21248 0.60189 0.0
C3354 C 0.26055 0.26638 0.69321 0.0
C3355 C 0.27606 0.26114 0.7101 0.0
C3356 C 0.25933 0.25821 0.66932 0.0
C3357 C 0.27402 0.24512 0.66163 0.0
C3358 C 0.29014 0.24065 0.6784 0.0
C3359 C 0.29103 0.24841 0.7023 0.0
H3360 H 0.57242 0.53752 0.22388 0.0
H3361 H 0.63818 0.55339 0.20264 0.0
H3362 H 0.5555 0.53581 0.18326 0.0
H3363 H 0.62138 0.55208 0.16235 0.0
H3364 H 0.58576 0.52433 0.0891 0.0
H3365 H 0.60103 0.52565 0.12979 0.0
H3366 H 0.55 0.55857 0.15242 0.0
H3367 H 0.53421 0.55671 0.11139 0.0
C3368 C 0.58326 0.54068 0.21057 0.0
C3369 C 0.60666 0.54552 0.21653 0.0
C3370 C 0.57356 0.53986 0.18731 0.0
C3371 C 0.58704 0.54375 0.16944 0.0
C3372 C 0.61044 0.54866 0.17551 0.0
C3373 C 0.6201 0.54953 0.1987 0.0
C3374 C 0.57771 0.53189 0.10268 0.0
C3375 C 0.55883 0.54063 0.09685 0.0
C3376 C 0.5866 0.53275 0.1261 0.0
C3377 C 0.57693 0.54241 0.14449 0.0
C3378 C 0.55782 0.55088 0.13873 0.0
C3379 C 0.54885 0.54998 0.11518 0.0
H3380 H 0.26235 0.90519 0.91015 0.0
H3381 H 0.33111 0.90331 0.93163 0.0
H3382 H 0.25961 0.87525 0.87854 0.0
H3383 H 0.32945 0.87469 0.89839 0.0
H3384 H 0.31129 0.80681 0.8552 0.0
H3385 H 0.31524 0.83779 0.88617 0.0
H3386 H 0.26854 0.86466 0.84284 0.0
H3387 H 0.26231 0.83217 0.81378 0.0
C3388 C 0.2771 0.89875 0.90738 0.0
C3389 C 0.29697 0.90639 0.92276 0.0
C3390 C 0.27566 0.88171 0.88924 0.0
C3391 C 0.29438 0.8726 0.88573 0.0
C3392 C 0.3146 0.88101 0.90082 0.0
C3393 C 0.31573 0.89754 0.91957 0.0
C3394 C 0.3018 0.81935 0.85256 0.0
C3395 C 0.287 0.8176 0.83197 0.0
C3396 C 0.3043 0.83726 0.87008 0.0
C3397 C 0.2924 0.85391 0.86695 0.0
C3398 C 0.27771 0.85204 0.84612 0.0
C3399 C 0.27451 0.83369 0.82914 0.0
H3400 H 0.93572 0.55705 0.75375 0.0
H3401 H 0.88123 0.50386 0.7202 0.0
H3402 H 0.95676 0.55056 0.72114 0.0
H3403 H 0.90246 0.49685 0.68807 0.0
H3404 H 0.94189 0.49371 0.62785 0.0
H3405 H 0.91969 0.5096 0.655 0.0
H3406 H 0.9751 0.52051 0.71079 0.0
H3407 H 0.99747 0.50532 0.68344 0.0
C3408 C 0.92812 0.54426 0.73916 0.0
C3409 C 0.90697 0.53088 0.73945 0.0
C3410 C 0.94018 0.54046 0.72061 0.0
C3411 C 0.93137 0.52303 0.70224 0.0
C3412 C 0.90959 0.51058 0.70184 0.0
C3413 C 0.89743 0.51455 0.72026 0.0
C3414 C 0.94938 0.4998 0.64585 0.0
C3415 C 0.97125 0.49801 0.6537 0.0
C3416 C 0.93666 0.5088 0.66138 0.0
C3417 C 0.94562 0.5162 0.68501 0.0
C3418 C 0.9678 0.51514 0.69262 0.0
C3419 C 0.98049 0.50612 0.6771 0.0
H3420 H 0.25012 0.18465 0.42168 0.0
H3421 H 0.29153 0.24434 0.46178 0.0
H3422 H 0.25391 0.20079 0.38546 0.0
H3423 H 0.29592 0.26015 0.42524 0.0
H3424 H 0.31559 0.25815 0.34456 0.0
H3425 H 0.31283 0.24337 0.38194 0.0
H3426 H 0.24198 0.24151 0.37372 0.0
H3427 H 0.24502 0.2575 0.33716 0.0
C3428 C 0.26013 0.20117 0.42275 0.0
C3429 C 0.27044 0.21328 0.44461 0.0
C3430 C 0.26225 0.21037 0.40203 0.0
C3431 C 0.27521 0.23165 0.40264 0.0
C3432 C 0.28587 0.24368 0.42438 0.0
C3433 C 0.28327 0.23468 0.44523 0.0
C3434 C 0.29948 0.25458 0.35085 0.0
C3435 C 0.28047 0.25875 0.33805 0.0
C3436 C 0.29793 0.24626 0.37219 0.0
C3437 C 0.27719 0.2413 0.38059 0.0
C3438 C 0.25814 0.24523 0.36758 0.0
C3439 C 0.25986 0.2543 0.34674 0.0
H3440 H 0.3257 0.61261 0.5349 0.0
H3441 H 0.33137 0.5829 0.59844 0.0
H3442 H 0.35689 0.59836 0.52245 0.0
H3443 H 0.3632 0.56844 0.58548 0.0
H3444 H 0.42872 0.58013 0.52652 0.0
H3445 H 0.40662 0.59561 0.55438 0.0
H3446 H 0.34925 0.54369 0.52567 0.0
H3447 H 0.37115 0.52833 0.49755 0.0
C3448 C 0.33414 0.6037 0.54663 0.0
C3449 C 0.32616 0.5986 0.56755 0.0
C3450 C 0.35195 0.59564 0.53947 0.0
C3451 C 0.36206 0.58255 0.55319 0.0
C3452 C 0.35533 0.57863 0.57489 0.0
C3453 C 0.33725 0.5867 0.58212 0.0
C3454 C 0.41146 0.57192 0.5265 0.0
C3455 C 0.40123 0.55343 0.50979 0.0
C3456 C 0.39913 0.58047 0.54261 0.0
C3457 C 0.37672 0.57032 0.54224 0.0
C3458 C 0.36681 0.55123 0.52639 0.0
C3459 C 0.37904 0.54284 0.51008 0.0
H3460 H 0.86478 0.93525 0.49954 0.0
H3461 H 0.87598 0.93089 0.57356 0.0
H3462 H 0.90279 0.95605 0.50151 0.0
H3463 H 0.91437 0.95265 0.5758 0.0
H3464 H 0.9884 0.97893 0.56206 0.0
H3465 H 0.952 0.95477 0.56288 0.0
H3466 H 0.92053 0.99326 0.51786 0.0
H3467 H 0.9566 0.01651 0.5161 0.0
C3468 C 0.8755 0.93869 0.51627 0.0
C3469 C 0.86738 0.93173 0.53647 0.0
C3470 C 0.89724 0.95076 0.51744 0.0
C3471 C 0.9114 0.95656 0.53894 0.0
C3472 C 0.90379 0.9485 0.55899 0.0
C3473 C 0.8819 0.93606 0.55774 0.0
C3474 C 0.97365 0.98227 0.55246 0.0
C3475 C 0.97543 0.99971 0.53905 0.0
C3476 C 0.95281 0.96849 0.55304 0.0
C3477 C 0.93343 0.9719 0.54019 0.0
C3478 C 0.9352 0.98985 0.52756 0.0
C3479 C 0.95591 1.00344 0.52684 0.0
H3480 H 0.86716 0.05727 0.23876 0.0
H3481 H 0.92096 0.09485 0.29102 0.0
H3482 H 0.8489 0.08848 0.24051 0.0
H3483 H 0.90231 0.12564 0.29364 0.0
H3484 H 0.87198 0.183 0.28994 0.0
H3485 H 0.89132 0.15444 0.2759 0.0
H3486 H 0.82887 0.1061 0.26637 0.0
H3487 H 0.80974 0.1349 0.2795 0.0
C3488 C 0.87503 0.07219 0.2507 0.0
C3489 C 0.8954 0.07356 0.2649 0.0
C3490 C 0.86455 0.09008 0.25173 0.0
C3491 C 0.87406 0.10966 0.26721 0.0
C3492 C 0.89466 0.11107 0.28112 0.0
C3493 C 0.90527 0.0933 0.27985 0.0
C3494 C 0.86236 0.16642 0.28377 0.0
C3495 C 0.83943 0.16104 0.28546 0.0
C3496 C 0.87343 0.14997 0.27614 0.0
C3497 C 0.86178 0.12782 0.27044 0.0
C3498 C 0.83843 0.12292 0.2704 0.0
C3499 C 0.82738 0.1394 0.27786 0.0
H3500 H 0.69117 0.13192 0.02065 0.0
H3501 H 0.70358 0.07521 0.05133 0.0
H3502 H 0.65132 0.11452 0.0115 0.0
H3503 H 0.66396 0.05832 0.04329 0.0
H3504 H 0.59855 0.02289 0.01523 0.0
H3505 H 0.63595 0.04186 0.00982 0.0
H3506 H 0.61999 0.10449 0.03346 0.0
H3507 H 0.58237 0.0854 0.03776 0.0
C3508 C 0.68526 0.11578 0.02546 0.0
C3509 C 0.70016 0.10457 0.03625 0.0
C3510 C 0.66262 0.10587 0.02021 0.0
C3511 C 0.65479 0.08485 0.02604 0.0
C3512 C 0.66974 0.07412 0.03763 0.0
C3513 C 0.69231 0.08381 0.04247 0.0
C3514 C 0.60293 0.04076 0.01826 0.0
C3515 C 0.58814 0.05292 0.02694 0.0
C3516 C 0.62419 0.05157 0.01534 0.0
C3517 C 0.6309 0.07451 0.02188 0.0
C3518 C 0.61519 0.0868 0.02829 0.0
C3519 C 0.59377 0.07595 0.03081 0.0
H3520 H 0.22883 0.48329 0.21854 0.0
H3521 H 0.2097 0.49329 0.28801 0.0
H3522 H 0.23667 0.4474 0.22578 0.0
H3523 H 0.21779 0.45825 0.29541 0.0
H3524 H 0.21289 0.39223 0.30208 0.0
H3525 H 0.19985 0.41869 0.27938 0.0
H3526 H 0.26409 0.43402 0.25455 0.0
H3527 H 0.27694 0.40726 0.27675 0.0
C3528 C 0.22686 0.47795 0.23546 0.0
C3529 C 0.21876 0.49065 0.25281 0.0
C3530 C 0.23097 0.45748 0.23943 0.0
C3531 C 0.22694 0.44986 0.26075 0.0
C3532 C 0.22007 0.46335 0.27844 0.0
C3533 C 0.21587 0.48352 0.27443 0.0
C3534 C 0.22386 0.40071 0.29109 0.0
C3535 C 0.24602 0.39834 0.29161 0.0
C3536 C 0.21644 0.41568 0.27806 0.0
C3537 C 0.2313 0.4287 0.26593 0.0
C3538 C 0.25243 0.42419 0.26389 0.0
C3539 C 0.25978 0.40899 0.27671 0.0
H3540 H 0.26244 0.44399 0.0326 0.0
H3541 H 0.2192 0.39529 0.06333 0.0
H3542 H 0.23294 0.46415 0.02776 0.0
H3543 H 0.18979 0.41632 0.05995 0.0
H3544 H 0.13588 0.44227 0.01494 0.0
H3545 H 0.1644 0.42391 0.03041 0.0
H3546 H 0.21182 0.48666 0.04607 0.0
H3547 H 0.18325 0.50462 0.02955 0.0
C3548 C 0.2467 0.43786 0.03878 0.0
C3549 C 0.24299 0.41807 0.04825 0.0
C3550 C 0.22982 0.44957 0.03627 0.0
C3551 C 0.20899 0.44205 0.04373 0.0
C3552 C 0.20552 0.42247 0.05379 0.0
C3553 C 0.22231 0.41045 0.05578 0.0
C3554 C 0.15222 0.45211 0.02249 0.0
C3555 C 0.15754 0.47472 0.02128 0.0
C3556 C 0.1686 0.44166 0.03136 0.0
C3557 C 0.19058 0.45373 0.03912 0.0
C3558 C 0.19522 0.47678 0.03975 0.0
C3559 C 0.17884 0.48717 0.0307 0.0
H3560 H 0.91776 0.92289 0.26272 0.0
H3561 H 0.86392 0.95769 0.25727 0.0
H3562 H 0.89111 0.88912 0.26485 0.0
H3563 H 0.837 0.9235 0.25874 0.0
H3564 H 0.80029 0.86235 0.28869 0.0
H3565 H 0.82503 0.89723 0.28523 0.0
H3566 H 0.86205 0.86216 0.24029 0.0
H3567 H 0.83758 0.82749 0.24384 0.0
C3568 C 0.90018 0.9233 0.26171 0.0
C3569 C 0.893 0.94302 0.25968 0.0
C3570 C 0.88485 0.90386 0.26283 0.0
C3571 C 0.86185 0.90349 0.26174 0.0
C3572 C 0.85461 0.92323 0.25982 0.0
C3573 C 0.87003 0.9428 0.25885 0.0
C3574 C 0.81348 0.86213 0.27776 0.0
C3575 C 0.81689 0.84208 0.26653 0.0
C3576 C 0.82769 0.88214 0.27579 0.0
C3577 C 0.84568 0.88252 0.26265 0.0
C3578 C 0.84864 0.86249 0.25092 0.0
C3579 C 0.83447 0.84257 0.25284 0.0
H3580 H 0.73464 0.11261 0.74308 0.0
H3581 H 0.68265 0.12822 0.78231 0.0
H3582 H 0.75687 0.14977 0.75575 0.0
H3583 H 0.70551 0.16487 0.79671 0.0
H3584 H 0.73062 0.23281 0.77504 0.0
H3585 H 0.71316 0.19547 0.778 0.0
H3586 H 0.77809 0.17829 0.78428 0.0
H3587 H 0.79552 0.21608 0.78007 0.0
C3588 C 0.72829 0.12398 0.75485 0.0
C3589 C 0.70689 0.11809 0.76132 0.0
C3590 C 0.74111 0.1451 0.76246 0.0
C3591 C 0.73289 0.16034 0.77718 0.0
C3592 C 0.71207 0.15369 0.78495 0.0
C3593 C 0.69897 0.13283 0.7767 0.0
C3594 C 0.74123 0.22122 0.77776 0.0
C3595 C 0.76427 0.22701 0.77709 0.0
C3596 C 0.73124 0.19977 0.77965 0.0
C3597 C 0.74422 0.18379 0.78113 0.0
C3598 C 0.76764 0.19017 0.78263 0.0
C3599 C 0.77761 0.21168 0.78032 0.0
loop_
_geom_bond_atom_site_label_1
_geom_bond_atom_site_label_2
_geom_bond_distance
_geom_bond_site_symmetry_2
_ccdc_geom_bond_type
C0 O1 1.309 1_655 S
C0 O3 1.161 1_655 S
O1 C0 1.309 1_455 S
O1 Cd2 2.228 . S
Cd2 O1 2.228 . S
Cd2 O6 2.273 . S
Cd2 O10 2.277 . S
O3 C0 1.161 1_455 S
O3 Cd4 2.203 . S
Cd4 O3 2.203 . S
Cd4 O6 2.411 . S
Cd4 O7 2.333 . S
Cd4 O8 2.352 . S
Cd4 O12 2.277 . S
Cd4 O13 2.356 . S
C5 O10 1.209 . S
C5 O12 1.226 . S
O6 Cd2 2.273 . S
O6 Cd4 2.411 . S
O6 C9 1.320 . S
O7 Cd4 2.333 . S
O7 C9 1.214 . S
O8 Cd4 2.352 . S
O8 C11 1.258 . S
C9 O6 1.320 . S
C9 O7 1.214 . S
O10 Cd2 2.277 . S
O10 C5 1.209 . S
C11 O8 1.258 . S
C11 O13 1.282 . S
O12 Cd4 2.277 . S
O12 C5 1.226 . S
O13 Cd4 2.356 . S
O13 C11 1.282 . S
C14 O15 1.306 . S
C14 O17 1.160 . S
O15 C14 1.306 . S
O15 Cd16 2.228 1_655 S
Cd16 O15 2.228 1_455 S
Cd16 O20 2.273 . S
Cd16 O24 2.277 . S
O17 C14 1.160 . S
O17 Cd18 2.203 1_655 S
Cd18 O17 2.203 1_455 S
Cd18 O20 2.411 . S
Cd18 O21 2.333 . S
Cd18 O22 2.352 . S
Cd18 O26 2.277 . S
Cd18 O27 2.356 . S
C19 O24 1.209 . S
C19 O26 1.226 . S
O20 Cd16 2.273 . S
O20 Cd18 2.411 . S
O20 C23 1.320 . S
O21 Cd18 2.333 . S
O21 C23 1.214 . S
O22 Cd18 2.352 . S
O22 C25 1.258 . S
C23 O20 1.320 . S
C23 O21 1.214 . S
O24 Cd16 2.277 . S
O24 C19 1.209 . S
C25 O22 1.258 . S
C25 O27 1.282 . S
O26 Cd18 2.277 . S
O26 C19 1.226 . S
O27 Cd18 2.356 . S
O27 C25 1.282 . S
C28 O29 1.306 . S
C28 O31 1.160 . S
O29 C28 1.306 . S
O29 Cd30 2.228 . S
Cd30 O29 2.228 . S
Cd30 O34 2.273 . S
Cd30 O38 2.277 . S
O31 C28 1.160 . S
O31 Cd32 2.203 . S
Cd32 O31 2.203 . S
Cd32 O34 2.411 . S
Cd32 O35 2.333 . S
Cd32 O36 2.352 . S
Cd32 O40 2.277 . S
Cd32 O41 2.356 . S
C33 O38 1.209 . S
C33 O40 1.226 . S
O34 Cd30 2.273 . S
O34 Cd32 2.411 . S
O34 C37 1.320 . S
O35 Cd32 2.333 . S
O35 C37 1.214 . S
O36 Cd32 2.352 . S
O36 C39 1.258 . S
C37 O34 1.320 . S
C37 O35 1.214 . S
O38 Cd30 2.277 . S
O38 C33 1.209 . S
C39 O36 1.258 . S
C39 O41 1.282 . S
O40 Cd32 2.277 . S
O40 C33 1.226 . S
O41 Cd32 2.356 . S
O41 C39 1.282 . S
C42 O43 1.306 . S
C42 O45 1.160 . S
O43 C42 1.306 . S
O43 Cd44 2.228 . S
Cd44 O43 2.228 . S
Cd44 O48 2.273 . S
Cd44 O52 2.277 . S
O45 C42 1.160 . S
O45 Cd46 2.203 . S
Cd46 O45 2.203 . S
Cd46 O48 2.411 . S
Cd46 O49 2.333 . S
Cd46 O50 2.352 . S
Cd46 O54 2.277 . S
Cd46 O55 2.356 . S
C47 O52 1.209 . S
C47 O54 1.226 . S
O48 Cd44 2.273 . S
O48 Cd46 2.411 . S
O48 C51 1.320 . S
O49 Cd46 2.333 . S
O49 C51 1.214 . S
O50 Cd46 2.352 . S
O50 C53 1.258 . S
C51 O48 1.320 . S
C51 O49 1.214 . S
O52 Cd44 2.277 . S
O52 C47 1.209 . S
C53 O50 1.258 . S
C53 O55 1.282 . S
O54 Cd46 2.277 . S
O54 C47 1.226 . S
O55 Cd46 2.356 . S
O55 C53 1.282 . S
C56 O57 1.306 . S
C56 O59 1.160 . S
O57 C56 1.306 . S
O57 Cd58 2.228 . S
Cd58 O57 2.228 . S
Cd58 O62 2.273 . S
Cd58 O66 2.277 . S
O59 C56 1.160 . S
O59 Cd60 2.203 . S
Cd60 O59 2.203 . S
Cd60 O62 2.411 . S
Cd60 O63 2.333 . S
Cd60 O64 2.352 . S
Cd60 O68 2.277 . S
Cd60 O69 2.356 . S
C61 O66 1.209 . S
C61 O68 1.226 . S
O62 Cd58 2.273 . S
O62 Cd60 2.411 . S
O62 C65 1.320 . S
O63 Cd60 2.333 . S
O63 C65 1.214 . S
O64 Cd60 2.352 . S
O64 C67 1.258 . S
C65 O62 1.320 . S
C65 O63 1.214 . S
O66 Cd58 2.277 . S
O66 C61 1.209 . S
C67 O64 1.258 . S
C67 O69 1.282 . S
O68 Cd60 2.277 . S
O68 C61 1.226 . S
O69 Cd60 2.356 . S
O69 C67 1.282 . S
C70 O71 1.306 . S
C70 O73 1.160 . S
O71 C70 1.306 . S
O71 Cd72 2.228 . S
Cd72 O71 2.228 . S
Cd72 O76 2.273 . S
Cd72 O80 2.277 . S
O73 C70 1.160 . S
O73 Cd74 2.203 . S
Cd74 O73 2.203 . S
Cd74 O76 2.411 . S
Cd74 O77 2.333 . S
Cd74 O78 2.352 . S
Cd74 O82 2.277 . S
Cd74 O83 2.356 . S
C75 O80 1.209 . S
C75 O82 1.226 . S
O76 Cd72 2.273 . S
O76 Cd74 2.411 . S
O76 C79 1.320 . S
O77 Cd74 2.333 . S
O77 C79 1.214 . S
O78 Cd74 2.352 . S
O78 C81 1.258 . S
C79 O76 1.320 . S
C79 O77 1.214 . S
O80 Cd72 2.277 . S
O80 C75 1.209 . S
C81 O78 1.258 . S
C81 O83 1.282 . S
O82 Cd74 2.277 . S
O82 C75 1.226 . S
O83 Cd74 2.356 . S
O83 C81 1.282 . S
C84 O85 1.306 . S
C84 O87 1.160 . S
O85 C84 1.306 . S
O85 Cd86 2.228 . S
Cd86 O85 2.228 . S
Cd86 O90 2.273 . S
Cd86 O94 2.277 . S
O87 C84 1.160 . S
O87 Cd88 2.203 . S
Cd88 O87 2.203 . S
Cd88 O90 2.411 . S
Cd88 O91 2.333 . S
Cd88 O92 2.352 . S
Cd88 O96 2.277 . S
Cd88 O97 2.356 . S
C89 O94 1.209 . S
C89 O96 1.226 . S
O90 Cd86 2.273 . S
O90 Cd88 2.411 . S
O90 C93 1.320 . S
O91 Cd88 2.333 . S
O91 C93 1.214 . S
O92 Cd88 2.352 . S
O92 C95 1.258 . S
C93 O90 1.320 . S
C93 O91 1.214 . S
O94 Cd86 2.277 . S
O94 C89 1.209 . S
C95 O92 1.258 . S
C95 O97 1.282 . S
O96 Cd88 2.277 . S
O96 C89 1.226 . S
O97 Cd88 2.356 . S
O97 C95 1.282 . S
C98 O99 1.306 . S
C98 O101 1.160 . S
O99 C98 1.306 . S
O99 Cd100 2.228 1_655 S
Cd100 O99 2.228 1_455 S
Cd100 O104 2.273 . S
Cd100 O108 2.277 . S
O101 C98 1.160 . S
O101 Cd102 2.203 1_655 S
Cd102 O101 2.203 1_455 S
Cd102 O104 2.411 . S
Cd102 O105 2.333 . S
Cd102 O106 2.352 1_455 S
Cd102 O110 2.277 . S
Cd102 O111 2.356 . S
C103 O108 1.209 . S
C103 O110 1.226 . S
O104 Cd100 2.273 . S
O104 Cd102 2.411 . S
O104 C107 1.320 . S
O105 Cd102 2.333 . S
O105 C107 1.214 . S
O106 Cd102 2.352 1_655 S
O106 C109 1.262 . S
C107 O104 1.320 . S
C107 O105 1.214 . S
O108 Cd100 2.277 . S
O108 C103 1.209 . S
C109 O106 1.262 . S
C109 O111 1.281 1_655 S
O110 Cd102 2.277 . S
O110 C103 1.226 . S
O111 Cd102 2.356 . S
O111 C109 1.281 1_455 S
C112 O113 1.324 . S
C112 O115 1.160 . S
O113 C112 1.324 . S
O113 Cd114 2.209 1_545 S
Cd114 O113 2.209 1_565 S
Cd114 O118 2.273 1_565 S
Cd114 O122 2.277 . S
O115 C112 1.160 . S
O115 Cd116 2.203 . S
Cd116 O115 2.203 . S
Cd116 O118 2.411 . S
Cd116 O119 2.333 . S
Cd116 O120 2.352 . S
Cd116 O124 2.277 1_545 S
Cd116 O125 2.356 . S
C117 O122 1.209 . S
C117 O124 1.226 . S
O118 Cd114 2.273 1_545 S
O118 Cd116 2.411 . S
O118 C121 1.320 . S
O119 Cd116 2.333 . S
O119 C121 1.214 . S
O120 Cd116 2.352 . S
O120 C123 1.258 . S
C121 O118 1.320 . S
C121 O119 1.214 . S
O122 Cd114 2.277 . S
O122 C117 1.209 . S
C123 O120 1.258 . S
C123 O125 1.282 . S
O124 Cd116 2.277 1_565 S
O124 C117 1.226 . S
O125 Cd116 2.356 . S
O125 C123 1.282 . S
C126 O127 1.306 . S
C126 O129 1.160 . S
O127 C126 1.306 . S
O127 Cd128 2.228 . S
Cd128 O127 2.228 . S
Cd128 O132 2.273 . S
Cd128 O136 2.277 . S
O129 C126 1.160 . S
O129 Cd130 2.203 . S
Cd130 O129 2.203 . S
Cd130 O132 2.411 . S
Cd130 O133 2.333 . S
Cd130 O134 2.352 . S
Cd130 O138 2.277 . S
Cd130 O139 2.356 . S
C131 O136 1.209 . S
C131 O138 1.226 . S
O132 Cd128 2.273 . S
O132 Cd130 2.411 . S
O132 C135 1.320 . S
O133 Cd130 2.333 . S
O133 C135 1.214 . S
O134 Cd130 2.352 . S
O134 C137 1.258 . S
C135 O132 1.320 . S
C135 O133 1.214 . S
O136 Cd128 2.277 . S
O136 C131 1.209 . S
C137 O134 1.258 . S
C137 O139 1.282 . S
O138 Cd130 2.277 . S
O138 C131 1.226 . S
O139 Cd130 2.356 . S
O139 C137 1.282 . S
C140 O141 1.306 . S
C140 O143 1.160 . S
O141 C140 1.306 . S
O141 Cd142 2.228 . S
Cd142 O141 2.228 . S
Cd142 O146 2.273 . S
Cd142 O150 2.277 . S
O143 C140 1.160 . S
O143 Cd144 2.203 . S
Cd144 O143 2.203 . S
Cd144 O146 2.411 . S
Cd144 O147 2.333 . S
Cd144 O148 2.352 . S
Cd144 O152 2.277 . S
Cd144 O153 2.356 . S
C145 O150 1.209 . S
C145 O152 1.226 . S
O146 Cd142 2.273 . S
O146 Cd144 2.411 . S
O146 C149 1.320 . S
O147 Cd144 2.333 . S
O147 C149 1.214 . S
O148 Cd144 2.352 . S
O148 C151 1.258 . S
C149 O146 1.320 . S
C149 O147 1.214 . S
O150 Cd142 2.277 . S
O150 C145 1.209 . S
C151 O148 1.258 . S
C151 O153 1.282 . S
O152 Cd144 2.277 . S
O152 C145 1.226 . S
O153 Cd144 2.356 . S
O153 C151 1.282 . S
C154 O155 1.286 1_554 S
C154 O157 1.178 . S
O155 C154 1.286 1_556 S
O155 Cd156 2.228 . S
Cd156 O155 2.228 . S
Cd156 O160 2.278 . S
Cd156 O164 2.277 . S
O157 C154 1.178 . S
O157 Cd158 2.203 . S
Cd158 O157 2.203 . S
Cd158 O160 2.410 1_554 S
Cd158 O161 2.331 . S
Cd158 O162 2.352 . S
Cd158 O166 2.277 1_554 S
Cd158 O167 2.356 . S
C159 O164 1.209 . S
C159 O166 1.226 . S
O160 Cd156 2.278 . S
O160 Cd158 2.410 1_556 S
O160 C163 1.323 . S
O161 Cd158 2.331 . S
O161 C163 1.203 1_554 S
O162 Cd158 2.352 . S
O162 C165 1.258 . S
C163 O160 1.323 . S
C163 O161 1.203 1_556 S
O164 Cd156 2.277 . S
O164 C159 1.209 . S
C165 O162 1.258 . S
C165 O167 1.282 . S
O166 Cd158 2.277 1_556 S
O166 C159 1.226 . S
O167 Cd158 2.356 . S
O167 C165 1.282 . S
C168 O169 1.306 . S
C168 O171 1.160 . S
O169 C168 1.306 . S
O169 Cd170 2.228 . S
Cd170 O169 2.228 . S
Cd170 O174 2.273 . S
Cd170 O178 2.280 . S
O171 C168 1.160 . S
O171 Cd172 2.203 . S
Cd172 O171 2.203 . S
Cd172 O174 2.411 . S
Cd172 O175 2.333 . S
Cd172 O176 2.352 . S
Cd172 O180 2.277 . S
Cd172 O181 2.356 . S
C173 O178 1.209 1_556 S
C173 O180 1.226 1_556 S
O174 Cd170 2.273 . S
O174 Cd172 2.411 . S
O174 C177 1.320 . S
O175 Cd172 2.333 . S
O175 C177 1.214 . S
O176 Cd172 2.352 . S
O176 C179 1.258 . S
C177 O174 1.320 . S
C177 O175 1.214 . S
O178 Cd170 2.280 . S
O178 C173 1.209 1_554 S
C179 O176 1.258 . S
C179 O181 1.282 . S
O180 Cd172 2.277 . S
O180 C173 1.226 1_554 S
O181 Cd172 2.356 . S
O181 C179 1.282 . S
C182 O183 1.306 . S
C182 O185 1.160 . S
O183 C182 1.306 . S
O183 Cd184 2.228 . S
Cd184 O183 2.228 . S
Cd184 O188 2.273 . S
Cd184 O192 2.277 . S
O185 C182 1.160 . S
O185 Cd186 2.203 . S
Cd186 O185 2.203 . S
Cd186 O188 2.411 . S
Cd186 O189 2.333 . S
Cd186 O190 2.352 . S
Cd186 O194 2.277 . S
Cd186 O195 2.356 . S
C187 O192 1.209 . S
C187 O194 1.226 . S
O188 Cd184 2.273 . S
O188 Cd186 2.411 . S
O188 C191 1.320 . S
O189 Cd186 2.333 . S
O189 C191 1.214 . S
O190 Cd186 2.352 . S
O190 C193 1.258 . S
C191 O188 1.320 . S
C191 O189 1.214 . S
O192 Cd184 2.277 . S
O192 C187 1.209 . S
C193 O190 1.258 . S
C193 O195 1.282 . S
O194 Cd186 2.277 . S
O194 C187 1.226 . S
O195 Cd186 2.356 . S
O195 C193 1.282 . S
C196 O197 1.306 . S
C196 O199 1.160 . S
O197 C196 1.306 . S
O197 Cd198 2.228 . S
Cd198 O197 2.228 . S
Cd198 O202 2.273 . S
Cd198 O206 2.277 . S
O199 C196 1.160 . S
O199 Cd200 2.203 . S
Cd200 O199 2.203 . S
Cd200 O202 2.411 . S
Cd200 O203 2.333 . S
Cd200 O204 2.352 . S
Cd200 O208 2.277 . S
Cd200 O209 2.356 . S
C201 O206 1.209 . S
C201 O208 1.226 . S
O202 Cd198 2.273 . S
O202 Cd200 2.411 . S
O202 C205 1.320 . S
O203 Cd200 2.333 . S
O203 C205 1.214 . S
O204 Cd200 2.352 . S
O204 C207 1.258 . S
C205 O202 1.320 . S
C205 O203 1.214 . S
O206 Cd198 2.277 . S
O206 C201 1.209 . S
C207 O204 1.258 . S
C207 O209 1.282 . S
O208 Cd200 2.277 . S
O208 C201 1.226 . S
O209 Cd200 2.356 . S
O209 C207 1.282 . S
C210 O211 1.306 . S
C210 O213 1.160 . S
O211 C210 1.306 . S
O211 Cd212 2.228 . S
Cd212 O211 2.228 . S
Cd212 O216 2.273 . S
Cd212 O220 2.277 . S
O213 C210 1.160 . S
O213 Cd214 2.203 . S
Cd214 O213 2.203 . S
Cd214 O216 2.411 . S
Cd214 O217 2.333 . S
Cd214 O218 2.352 . S
Cd214 O222 2.277 . S
Cd214 O223 2.356 . S
C215 O220 1.209 . S
C215 O222 1.226 . S
O216 Cd212 2.273 . S
O216 Cd214 2.411 . S
O216 C219 1.320 . S
O217 Cd214 2.333 . S
O217 C219 1.214 . S
O218 Cd214 2.352 . S
O218 C221 1.258 . S
C219 O216 1.320 . S
C219 O217 1.214 . S
O220 Cd212 2.277 . S
O220 C215 1.209 . S
C221 O218 1.258 . S
C221 O223 1.282 . S
O222 Cd214 2.277 . S
O222 C215 1.226 . S
O223 Cd214 2.356 . S
O223 C221 1.282 . S
C224 O225 1.306 . S
C224 O227 1.160 . S
O225 C224 1.306 . S
O225 Cd226 2.228 1_545 S
Cd226 O225 2.228 1_565 S
Cd226 O230 2.273 1_565 S
Cd226 O234 2.277 . S
O227 C224 1.160 . S
O227 Cd228 2.203 . S
Cd228 O227 2.203 . S
Cd228 O230 2.411 . S
Cd228 O231 2.333 . S
Cd228 O232 2.352 . S
Cd228 O236 2.277 1_545 S
Cd228 O237 2.356 . S
C229 O234 1.209 . S
C229 O236 1.226 . S
O230 Cd226 2.273 1_545 S
O230 Cd228 2.411 . S
O230 C233 1.320 . S
O231 Cd228 2.333 . S
O231 C233 1.214 . S
O232 Cd228 2.352 . S
O232 C235 1.258 . S
C233 O230 1.320 . S
C233 O231 1.214 . S
O234 Cd226 2.277 . S
O234 C229 1.209 . S
C235 O232 1.258 . S
C235 O237 1.282 . S
O236 Cd228 2.277 1_565 S
O236 C229 1.226 . S
O237 Cd228 2.356 . S
O237 C235 1.282 . S
C238 O239 1.306 . S
C238 O241 1.160 . S
O239 C238 1.306 . S
O239 Cd240 2.228 . S
Cd240 O239 2.228 . S
Cd240 O244 2.273 . S
Cd240 O248 2.277 . S
O241 C238 1.160 . S
O241 Cd242 2.203 . S
Cd242 O241 2.203 . S
Cd242 O244 2.411 . S
Cd242 O245 2.333 . S
Cd242 O246 2.352 . S
Cd242 O250 2.277 . S
Cd242 O251 2.356 . S
C243 O248 1.209 . S
C243 O250 1.226 . S
O244 Cd240 2.273 . S
O244 Cd242 2.411 . S
O244 C247 1.320 . S
O245 Cd242 2.333 . S
O245 C247 1.214 . S
O246 Cd242 2.352 . S
O246 C249 1.258 . S
C247 O244 1.320 . S
C247 O245 1.214 . S
O248 Cd240 2.277 . S
O248 C243 1.209 . S
C249 O246 1.258 . S
C249 O251 1.282 . S
O250 Cd242 2.277 . S
O250 C243 1.226 . S
O251 Cd242 2.356 . S
O251 C249 1.282 . S
C252 O253 1.306 . S
C252 O255 1.160 . S
O253 C252 1.306 . S
O253 Cd254 2.228 . S
Cd254 O253 2.228 . S
Cd254 O258 2.273 . S
Cd254 O262 2.277 . S
O255 C252 1.160 . S
O255 Cd256 2.203 . S
Cd256 O255 2.203 . S
Cd256 O258 2.411 . S
Cd256 O259 2.333 . S
Cd256 O260 2.352 . S
Cd256 O264 2.277 . S
Cd256 O265 2.356 . S
C257 O262 1.209 . S
C257 O264 1.226 . S
O258 Cd254 2.273 . S
O258 Cd256 2.411 . S
O258 C261 1.320 . S
O259 Cd256 2.333 . S
O259 C261 1.214 . S
O260 Cd256 2.352 . S
O260 C263 1.258 . S
C261 O258 1.320 . S
C261 O259 1.214 . S
O262 Cd254 2.277 . S
O262 C257 1.209 . S
C263 O260 1.258 . S
C263 O265 1.282 . S
O264 Cd256 2.277 . S
O264 C257 1.226 . S
O265 Cd256 2.356 . S
O265 C263 1.282 . S
C266 O267 1.306 . S
C266 O269 1.160 . S
O267 C266 1.306 . S
O267 Cd268 2.228 . S
Cd268 O267 2.228 . S
Cd268 O272 2.273 . S
Cd268 O276 2.277 . S
O269 C266 1.160 . S
O269 Cd270 2.203 . S
Cd270 O269 2.203 . S
Cd270 O272 2.411 . S
Cd270 O273 2.333 . S
Cd270 O274 2.352 . S
Cd270 O278 2.277 . S
Cd270 O279 2.356 . S
C271 O276 1.209 . S
C271 O278 1.226 . S
O272 Cd268 2.273 . S
O272 Cd270 2.411 . S
O272 C275 1.320 . S
O273 Cd270 2.333 . S
O273 C275 1.214 . S
O274 Cd270 2.352 . S
O274 C277 1.258 . S
C275 O272 1.320 . S
C275 O273 1.214 . S
O276 Cd268 2.277 . S
O276 C271 1.209 . S
C277 O274 1.258 . S
C277 O279 1.282 . S
O278 Cd270 2.277 . S
O278 C271 1.226 . S
O279 Cd270 2.356 . S
O279 C277 1.282 . S
C280 O281 1.306 . S
C280 O283 1.160 . S
O281 C280 1.306 . S
O281 Cd282 2.228 . S
Cd282 O281 2.228 . S
Cd282 O286 2.273 . S
Cd282 O290 2.277 . S
O283 C280 1.160 . S
O283 Cd284 2.203 . S
Cd284 O283 2.203 . S
Cd284 O286 2.411 . S
Cd284 O287 2.333 . S
Cd284 O288 2.352 1_554 S
Cd284 O292 2.277 . S
Cd284 O293 2.356 1_554 S
C285 O290 1.209 . S
C285 O292 1.226 . S
O286 Cd282 2.273 . S
O286 Cd284 2.411 . S
O286 C289 1.320 . S
O287 Cd284 2.333 . S
O287 C289 1.214 . S
O288 Cd284 2.352 1_556 S
O288 C291 1.258 . S
C289 O286 1.320 . S
C289 O287 1.214 . S
O290 Cd282 2.277 . S
O290 C285 1.209 . S
C291 O288 1.258 . S
C291 O293 1.282 . S
O292 Cd284 2.277 . S
O292 C285 1.226 . S
O293 Cd284 2.356 1_556 S
O293 C291 1.282 . S
C294 O295 1.306 . S
C294 O297 1.160 . S
O295 C294 1.306 . S
O295 Cd296 2.228 . S
Cd296 O295 2.228 . S
Cd296 O300 2.273 . S
Cd296 O304 2.277 . S
O297 C294 1.160 . S
O297 Cd298 2.203 . S
Cd298 O297 2.203 . S
Cd298 O300 2.411 . S
Cd298 O301 2.333 . S
Cd298 O302 2.352 . S
Cd298 O306 2.277 . S
Cd298 O307 2.356 . S
C299 O304 1.209 . S
C299 O306 1.226 . S
O300 Cd296 2.273 . S
O300 Cd298 2.411 . S
O300 C303 1.320 . S
O301 Cd298 2.333 . S
O301 C303 1.214 . S
O302 Cd298 2.352 . S
O302 C305 1.258 . S
C303 O300 1.320 . S
C303 O301 1.214 . S
O304 Cd296 2.277 . S
O304 C299 1.209 . S
C305 O302 1.258 . S
C305 O307 1.282 . S
O306 Cd298 2.277 . S
O306 C299 1.226 . S
O307 Cd298 2.356 . S
O307 C305 1.282 . S
C308 O309 1.306 . S
C308 O311 1.160 . S
O309 C308 1.306 . S
O309 Cd310 2.228 . S
Cd310 O309 2.228 . S
Cd310 O314 2.273 . S
Cd310 O318 2.277 . S
O311 C308 1.160 . S
O311 Cd312 2.203 . S
Cd312 O311 2.203 . S
Cd312 O314 2.411 . S
Cd312 O315 2.333 . S
Cd312 O316 2.352 . S
Cd312 O320 2.277 . S
Cd312 O321 2.356 . S
C313 O318 1.209 . S
C313 O320 1.226 . S
O314 Cd310 2.273 . S
O314 Cd312 2.411 . S
O314 C317 1.320 . S
O315 Cd312 2.333 . S
O315 C317 1.214 . S
O316 Cd312 2.352 . S
O316 C319 1.258 . S
C317 O314 1.320 . S
C317 O315 1.214 . S
O318 Cd310 2.277 . S
O318 C313 1.209 . S
C319 O316 1.258 . S
C319 O321 1.282 . S
O320 Cd312 2.277 . S
O320 C313 1.226 . S
O321 Cd312 2.356 . S
O321 C319 1.282 . S
C322 O323 1.306 . S
C322 O325 1.160 . S
O323 C322 1.306 . S
O323 Cd324 2.228 . S
Cd324 O323 2.228 . S
Cd324 O328 2.273 . S
Cd324 O332 2.277 . S
O325 C322 1.160 . S
O325 Cd326 2.203 . S
Cd326 O325 2.203 . S
Cd326 O328 2.411 . S
Cd326 O329 2.333 . S
Cd326 O330 2.352 . S
Cd326 O334 2.277 . S
Cd326 O335 2.356 . S
C327 O332 1.209 . S
C327 O334 1.226 . S
O328 Cd324 2.273 . S
O328 Cd326 2.411 . S
O328 C331 1.320 . S
O329 Cd326 2.333 . S
O329 C331 1.214 . S
O330 Cd326 2.352 . S
O330 C333 1.258 . S
C331 O328 1.320 . S
C331 O329 1.214 . S
O332 Cd324 2.277 . S
O332 C327 1.209 . S
C333 O330 1.258 . S
C333 O335 1.282 . S
O334 Cd326 2.277 . S
O334 C327 1.226 . S
O335 Cd326 2.356 . S
O335 C333 1.282 . S
C336 C338 1.422 1_556 S
C336 C340 1.415 . S
C336 N342 1.369 . S
C337 C338 1.421 . S
C337 C339 1.417 1_554 S
C337 C349 1.422 . S
C338 C336 1.422 1_554 S
C338 C337 1.421 . S
C338 N348 1.359 . S
C339 C337 1.417 1_556 S
C339 C341 1.329 . S
C339 H358 0.930 . S
C340 C336 1.415 . S
C340 C341 1.437 . S
C340 C344 1.413 . S
C341 C339 1.329 . S
C341 C340 1.437 . S
C341 H363 0.929 . S
N342 C336 1.369 . S
N342 C343 1.338 . S
N342 Gd347 2.622 1_566 S
C343 N342 1.338 . S
C343 C345 1.378 . S
C343 H355 0.929 . S
C344 C340 1.413 . S
C344 C345 1.348 . S
C344 H360 0.931 . S
C345 C343 1.378 . S
C345 C344 1.348 . S
C345 H361 0.930 . S
Gd346 N366 2.622 . S
Gd346 N373 2.570 . S
Gd346 O380 2.353 . S
Gd346 O381 2.468 . S
Gd346 O382 2.427 . S
Gd346 O384 2.388 . S
Gd346 O385 2.386 . S
Gd346 O389 2.307 . S
Gd346 C399 2.805 . S
Gd347 N342 2.622 1_544 S
Gd347 N348 2.570 1_545 S
Gd347 O379 2.386 1_645 S
Gd347 O383 2.307 1_655 S
Gd347 O386 2.353 1_655 S
Gd347 O387 2.468 . S
Gd347 O388 2.427 1_554 S
Gd347 O390 2.388 1_654 S
Gd347 C411 2.805 . S
N348 C338 1.359 . S
N348 Gd347 2.570 1_565 S
N348 C350 1.343 . S
C349 C337 1.422 . S
C349 C351 1.321 . S
C349 H357 0.931 . S
C350 N348 1.343 . S
C350 C351 1.390 . S
C350 H352 0.931 . S
C351 C349 1.321 . S
C351 C350 1.390 . S
C351 H353 0.930 . S
H352 C350 0.931 . S
H353 C351 0.930 . S
H354 C377 0.931 . S
H355 C343 0.929 . S
H356 C378 0.930 1_556 S
H357 C349 0.931 . S
H358 C339 0.930 . S
H359 C368 0.929 . S
H360 C344 0.931 . S
H361 C345 0.930 . S
H362 C400 0.930 . S
H363 C341 0.929 . S
H364 C369 0.931 . S
H365 C370 0.930 . S
N366 Gd346 2.622 . S
N366 C367 1.369 . S
N366 C368 1.338 . S
C367 N366 1.369 . S
C367 C371 1.415 . S
C367 C374 1.422 . S
C368 H359 0.929 . S
C368 N366 1.338 . S
C368 C370 1.378 . S
C369 H364 0.931 . S
C369 C370 1.348 . S
C369 C371 1.413 . S
C370 H365 0.930 . S
C370 C368 1.378 . S
C370 C369 1.348 . S
C371 C367 1.415 . S
C371 C369 1.413 . S
C371 C401 1.437 . S
H372 C401 0.929 . S
N373 Gd346 2.570 . S
N373 C374 1.359 . S
N373 C377 1.343 . S
C374 C367 1.422 . S
C374 N373 1.359 . S
C374 C376 1.421 . S
C375 C376 1.422 . S
C375 C378 1.321 . S
C375 H402 0.931 . S
C376 C374 1.421 . S
C376 C375 1.422 . S
C376 C400 1.417 . S
C377 H354 0.931 . S
C377 N373 1.343 . S
C377 C378 1.390 . S
C378 H356 0.930 1_554 S
C378 C375 1.321 . S
C378 C377 1.390 . S
O379 Gd347 2.386 1_465 S
O379 C391 1.265 . S
O380 Gd346 2.353 . S
O380 C391 1.242 1_545 S
O381 Gd346 2.468 . S
O381 C399 1.263 . S
O382 Gd346 2.427 . S
O382 C399 1.252 . S
O383 Gd347 2.307 1_455 S
O383 C392 1.261 . S
O384 Gd346 2.388 . S
O384 C392 1.252 . S
O385 Gd346 2.386 . S
O385 C403 1.265 . S
O386 Gd347 2.353 1_455 S
O386 C403 1.242 . S
O387 Gd347 2.468 . S
O387 C411 1.263 . S
O388 Gd347 2.427 1_556 S
O388 C411 1.252 1_556 S
O389 Gd346 2.307 . S
O389 C404 1.261 1_554 S
O390 Gd347 2.388 1_456 S
O390 C404 1.252 . S
C391 O379 1.265 . S
C391 O380 1.242 1_565 S
C392 O383 1.261 . S
C392 O384 1.252 . S
C393 C396 1.394 . S
C393 C398 1.370 . S
C393 C399 1.500 . S
C394 C397 1.383 . S
C394 C398 1.395 . S
C395 C396 1.396 . S
C395 C397 1.365 . S
C395 H412 0.929 . S
C396 C393 1.394 . S
C396 C395 1.396 . S
C396 H413 0.930 . S
C397 C394 1.383 . S
C397 C395 1.365 . S
C397 H414 0.931 . S
C398 C393 1.370 . S
C398 C394 1.395 . S
C398 H415 0.930 . S
C399 Gd346 2.805 . S
C399 O381 1.263 . S
C399 O382 1.252 . S
C399 C393 1.500 . S
C400 H362 0.930 . S
C400 C376 1.417 . S
C400 C401 1.329 . S
C401 C371 1.437 . S
C401 H372 0.929 . S
C401 C400 1.329 . S
H402 C375 0.931 . S
C403 O385 1.265 . S
C403 O386 1.242 . S
C404 O389 1.261 1_556 S
C404 O390 1.252 . S
C405 C408 1.394 1_554 S
C405 C410 1.370 . S
C405 C411 1.500 . S
C406 C409 1.383 1_554 S
C406 C410 1.395 . S
C407 C408 1.396 . S
C407 C409 1.365 . S
C407 H416 0.929 . S
C408 C405 1.394 1_556 S
C408 C407 1.396 . S
C408 H417 0.930 . S
C409 C406 1.383 1_556 S
C409 C407 1.365 . S
C409 H418 0.931 . S
C410 C405 1.370 . S
C410 C406 1.395 . S
C410 H419 0.930 . S
C411 Gd347 2.805 . S
C411 O387 1.263 . S
C411 O388 1.252 1_554 S
C411 C405 1.500 . S
H412 C395 0.929 . S
H413 C396 0.930 . S
H414 C397 0.931 . S
H415 C398 0.930 . S
H416 C407 0.929 . S
H417 C408 0.930 . S
H418 C409 0.931 . S
H419 C410 0.930 . S
C420 C422 1.422 . S
C420 C424 1.415 . S
C420 N426 1.369 . S
C421 C422 1.421 . S
C421 C423 1.417 . S
C421 C433 1.422 . S
C422 C420 1.422 . S
C422 C421 1.421 . S
C422 N432 1.359 . S
C423 C421 1.417 . S
C423 C425 1.329 . S
C423 H442 0.930 . S
C424 C420 1.415 . S
C424 C425 1.437 . S
C424 C428 1.413 . S
C425 C423 1.329 . S
C425 C424 1.437 . S
C425 H447 0.929 . S
N426 C420 1.369 . S
N426 C427 1.338 . S
N426 Gd431 2.622 . S
C427 N426 1.338 . S
C427 C429 1.378 . S
C427 H439 0.929 . S
C428 C424 1.413 . S
C428 C429 1.348 . S
C428 H444 0.931 . S
C429 C427 1.378 . S
C429 C428 1.348 . S
C429 H445 0.930 . S
Gd430 N450 2.622 . S
Gd430 N457 2.570 . S
Gd430 O464 2.353 . S
Gd430 O465 2.468 . S
Gd430 O466 2.427 . S
Gd430 O468 2.388 . S
Gd430 O469 2.386 . S
Gd430 O473 2.307 . S
Gd430 C483 2.805 . S
Gd431 N426 2.622 . S
Gd431 N432 2.570 . S
Gd431 O463 2.386 . S
Gd431 O467 2.307 . S
Gd431 O470 2.353 . S
Gd431 O471 2.468 . S
Gd431 O472 2.427 . S
Gd431 O474 2.388 . S
Gd431 C495 2.805 . S
N432 C422 1.359 . S
N432 Gd431 2.570 . S
N432 C434 1.343 . S
C433 C421 1.422 . S
C433 C435 1.321 . S
C433 H441 0.931 . S
C434 N432 1.343 . S
C434 C435 1.390 . S
C434 H436 0.931 . S
C435 C433 1.321 . S
C435 C434 1.390 . S
C435 H437 0.930 . S
H436 C434 0.931 . S
H437 C435 0.930 . S
H438 C461 0.931 . S
H439 C427 0.929 . S
H440 C462 0.930 . S
H441 C433 0.931 . S
H442 C423 0.930 . S
H443 C452 0.929 . S
H444 C428 0.931 . S
H445 C429 0.930 . S
H446 C484 0.930 . S
H447 C425 0.929 . S
H448 C453 0.931 . S
H449 C454 0.930 . S
N450 Gd430 2.622 . S
N450 C451 1.369 . S
N450 C452 1.338 . S
C451 N450 1.369 . S
C451 C455 1.415 . S
C451 C458 1.422 . S
C452 H443 0.929 . S
C452 N450 1.338 . S
C452 C454 1.378 . S
C453 H448 0.931 . S
C453 C454 1.348 . S
C453 C455 1.413 . S
C454 H449 0.930 . S
C454 C452 1.378 . S
C454 C453 1.348 . S
C455 C451 1.415 . S
C455 C453 1.413 . S
C455 C485 1.437 . S
H456 C485 0.929 . S
N457 Gd430 2.570 . S
N457 C458 1.359 . S
N457 C461 1.343 . S
C458 C451 1.422 . S
C458 N457 1.359 . S
C458 C460 1.421 . S
C459 C460 1.422 . S
C459 C462 1.321 . S
C459 H486 0.931 . S
C460 C458 1.421 . S
C460 C459 1.422 . S
C460 C484 1.417 . S
C461 H438 0.931 . S
C461 N457 1.343 . S
C461 C462 1.390 . S
C462 H440 0.930 . S
C462 C459 1.321 . S
C462 C461 1.390 . S
O463 Gd431 2.386 . S
O463 C475 1.265 . S
O464 Gd430 2.353 . S
O464 C475 1.242 . S
O465 Gd430 2.468 . S
O465 C483 1.263 . S
O466 Gd430 2.427 . S
O466 C483 1.252 . S
O467 Gd431 2.307 . S
O467 C476 1.261 . S
O468 Gd430 2.388 . S
O468 C476 1.252 . S
O469 Gd430 2.386 . S
O469 C487 1.265 . S
O470 Gd431 2.353 . S
O470 C487 1.242 . S
O471 Gd431 2.468 . S
O471 C495 1.263 . S
O472 Gd431 2.427 . S
O472 C495 1.252 . S
O473 Gd430 2.307 . S
O473 C488 1.261 . S
O474 Gd431 2.388 . S
O474 C488 1.252 . S
C475 O463 1.265 . S
C475 O464 1.242 . S
C476 O467 1.261 . S
C476 O468 1.252 . S
C477 C480 1.394 . S
C477 C482 1.370 . S
C477 C483 1.500 . S
C478 C481 1.383 . S
C478 C482 1.395 . S
C479 C480 1.396 . S
C479 C481 1.365 . S
C479 H496 0.929 . S
C480 C477 1.394 . S
C480 C479 1.396 . S
C480 H497 0.930 . S
C481 C478 1.383 . S
C481 C479 1.365 . S
C481 H498 0.931 . S
C482 C477 1.370 . S
C482 C478 1.395 . S
C482 H499 0.930 . S
C483 Gd430 2.805 . S
C483 O465 1.263 . S
C483 O466 1.252 . S
C483 C477 1.500 . S
C484 H446 0.930 . S
C484 C460 1.417 . S
C484 C485 1.329 . S
C485 C455 1.437 . S
C485 H456 0.929 . S
C485 C484 1.329 . S
H486 C459 0.931 . S
C487 O469 1.265 . S
C487 O470 1.242 . S
C488 O473 1.261 . S
C488 O474 1.252 . S
C489 C492 1.394 . S
C489 C494 1.370 . S
C489 C495 1.500 . S
C490 C493 1.383 . S
C490 C494 1.395 . S
C491 C492 1.396 . S
C491 C493 1.365 . S
C491 H500 0.929 . S
C492 C489 1.394 . S
C492 C491 1.396 . S
C492 H501 0.930 . S
C493 C490 1.383 . S
C493 C491 1.365 . S
C493 H502 0.931 . S
C494 C489 1.370 . S
C494 C490 1.395 . S
C494 H503 0.930 . S
C495 Gd431 2.805 . S
C495 O471 1.263 . S
C495 O472 1.252 . S
C495 C489 1.500 . S
H496 C479 0.929 . S
H497 C480 0.930 . S
H498 C481 0.931 . S
H499 C482 0.930 . S
H500 C491 0.929 . S
H501 C492 0.930 . S
H502 C493 0.931 . S
H503 C494 0.930 . S
C504 C506 1.422 . S
C504 C508 1.415 . S
C504 N510 1.369 . S
C505 C506 1.421 . S
C505 C507 1.417 . S
C505 C517 1.422 . S
C506 C504 1.422 . S
C506 C505 1.421 . S
C506 N516 1.359 . S
C507 C505 1.417 . S
C507 C509 1.329 . S
C507 H526 0.930 . S
C508 C504 1.415 . S
C508 C509 1.437 . S
C508 C512 1.413 . S
C509 C507 1.329 . S
C509 C508 1.437 . S
C509 H531 0.929 . S
N510 C504 1.369 . S
N510 C511 1.338 . S
N510 Gd515 2.622 . S
C511 N510 1.338 . S
C511 C513 1.378 . S
C511 H523 0.929 . S
C512 C508 1.413 . S
C512 C513 1.348 . S
C512 H528 0.931 . S
C513 C511 1.378 . S
C513 C512 1.348 . S
C513 H529 0.930 . S
Gd514 N534 2.621 . S
Gd514 N541 2.570 1_545 S
Gd514 O548 2.353 . S
Gd514 O549 2.468 . S
Gd514 O550 2.427 . S
Gd514 O552 2.388 . S
Gd514 O553 2.386 1_545 S
Gd514 O557 2.307 . S
Gd514 C567 2.805 . S
Gd515 N510 2.622 . S
Gd515 N516 2.570 . S
Gd515 O547 2.386 . S
Gd515 O551 2.307 . S
Gd515 O554 2.353 1_545 S
Gd515 O555 2.468 . S
Gd515 O556 2.427 . S
Gd515 O558 2.388 . S
Gd515 C579 2.805 . S
N516 C506 1.359 . S
N516 Gd515 2.570 . S
N516 C518 1.343 . S
C517 C505 1.422 . S
C517 C519 1.321 . S
C517 H525 0.931 . S
C518 N516 1.343 . S
C518 C519 1.390 . S
C518 H520 0.931 . S
C519 C517 1.321 . S
C519 C518 1.390 . S
C519 H521 0.930 . S
H520 C518 0.931 . S
H521 C519 0.930 . S
H522 C545 0.931 . S
H523 C511 0.929 . S
H524 C546 0.930 . S
H525 C517 0.931 . S
H526 C507 0.930 . S
H527 C536 0.929 . S
H528 C512 0.931 . S
H529 C513 0.930 . S
H530 C568 0.930 . S
H531 C509 0.929 . S
H532 C537 0.931 . S
H533 C538 0.930 . S
N534 Gd514 2.621 . S
N534 C535 1.370 1_545 S
N534 C536 1.338 . S
C535 N534 1.370 1_565 S
C535 C539 1.415 . S
C535 C542 1.422 . S
C536 H527 0.929 . S
C536 N534 1.338 . S
C536 C538 1.378 1_545 S
C537 H532 0.931 . S
C537 C538 1.348 . S
C537 C539 1.413 . S
C538 H533 0.930 . S
C538 C536 1.378 1_565 S
C538 C537 1.348 . S
C539 C535 1.415 . S
C539 C537 1.413 . S
C539 C569 1.437 . S
H540 C569 0.929 . S
N541 Gd514 2.570 1_565 S
N541 C542 1.359 . S
N541 C545 1.343 . S
C542 C535 1.422 . S
C542 N541 1.359 . S
C542 C544 1.421 . S
C543 C544 1.422 . S
C543 C546 1.321 . S
C543 H570 0.931 . S
C544 C542 1.421 . S
C544 C543 1.422 . S
C544 C568 1.417 . S
C545 H522 0.931 . S
C545 N541 1.343 . S
C545 C546 1.390 . S
C546 H524 0.930 . S
C546 C543 1.321 . S
C546 C545 1.390 . S
O547 Gd515 2.386 . S
O547 C559 1.265 . S
O548 Gd514 2.353 . S
O548 C559 1.242 . S
O549 Gd514 2.468 . S
O549 C567 1.263 . S
O550 Gd514 2.427 . S
O550 C567 1.252 . S
O551 Gd515 2.307 . S
O551 C560 1.261 . S
O552 Gd514 2.388 . S
O552 C560 1.252 . S
O553 Gd514 2.386 1_565 S
O553 C571 1.265 . S
O554 Gd515 2.353 1_565 S
O554 C571 1.242 . S
O555 Gd515 2.468 . S
O555 C579 1.263 . S
O556 Gd515 2.427 . S
O556 C579 1.252 . S
O557 Gd514 2.307 . S
O557 C572 1.261 . S
O558 Gd515 2.388 . S
O558 C572 1.252 . S
C559 O547 1.265 . S
C559 O548 1.242 . S
C560 O551 1.261 . S
C560 O552 1.252 . S
C561 C564 1.394 . S
C561 C566 1.370 . S
C561 C567 1.500 . S
C562 C565 1.383 . S
C562 C566 1.395 . S
C563 C564 1.396 . S
C563 C565 1.365 . S
C563 H580 0.929 . S
C564 C561 1.394 . S
C564 C563 1.396 . S
C564 H581 0.930 . S
C565 C562 1.383 . S
C565 C563 1.365 . S
C565 H582 0.931 . S
C566 C561 1.370 . S
C566 C562 1.395 . S
C566 H583 0.930 . S
C567 Gd514 2.805 . S
C567 O549 1.263 . S
C567 O550 1.252 . S
C567 C561 1.500 . S
C568 H530 0.930 . S
C568 C544 1.417 . S
C568 C569 1.329 . S
C569 C539 1.437 . S
C569 H540 0.929 . S
C569 C568 1.329 . S
H570 C543 0.931 . S
C571 O553 1.265 . S
C571 O554 1.242 . S
C572 O557 1.261 . S
C572 O558 1.252 . S
C573 C576 1.394 . S
C573 C578 1.370 . S
C573 C579 1.500 1_565 S
C574 C577 1.383 . S
C574 C578 1.395 . S
C575 C576 1.396 . S
C575 C577 1.365 . S
C575 H584 0.929 . S
C576 C573 1.394 . S
C576 C575 1.396 . S
C576 H585 0.930 . S
C577 C574 1.383 . S
C577 C575 1.365 . S
C577 H586 0.931 . S
C578 C573 1.370 . S
C578 C574 1.395 . S
C578 H587 0.930 . S
C579 Gd515 2.805 . S
C579 O555 1.263 . S
C579 O556 1.252 . S
C579 C573 1.500 1_545 S
H580 C563 0.929 . S
H581 C564 0.930 . S
H582 C565 0.931 . S
H583 C566 0.930 . S
H584 C575 0.929 . S
H585 C576 0.930 . S
H586 C577 0.931 . S
H587 C578 0.930 . S
C588 C590 1.422 . S
C588 C592 1.415 . S
C588 N594 1.369 . S
C589 C590 1.421 . S
C589 C591 1.417 . S
C589 C601 1.422 . S
C590 C588 1.422 . S
C590 C589 1.421 . S
C590 N600 1.359 . S
C591 C589 1.417 . S
C591 C593 1.329 . S
C591 H610 0.930 . S
C592 C588 1.415 . S
C592 C593 1.437 . S
C592 C596 1.413 . S
C593 C591 1.329 . S
C593 C592 1.437 . S
C593 H615 0.929 . S
N594 C588 1.369 . S
N594 C595 1.338 . S
N594 Gd599 2.622 . S
C595 N594 1.338 . S
C595 C597 1.378 . S
C595 H607 0.929 . S
C596 C592 1.413 . S
C596 C597 1.348 . S
C596 H612 0.931 . S
C597 C595 1.378 . S
C597 C596 1.348 . S
C597 H613 0.930 . S
Gd598 N618 2.622 . S
Gd598 N625 2.570 . S
Gd598 O632 2.353 . S
Gd598 O633 2.468 . S
Gd598 O634 2.427 . S
Gd598 O636 2.388 . S
Gd598 O637 2.386 . S
Gd598 O641 2.307 . S
Gd598 C651 2.805 . S
Gd599 N594 2.622 . S
Gd599 N600 2.570 . S
Gd599 O631 2.386 . S
Gd599 O635 2.307 . S
Gd599 O638 2.353 . S
Gd599 O639 2.468 . S
Gd599 O640 2.427 . S
Gd599 O642 2.388 . S
Gd599 C663 2.805 . S
N600 C590 1.359 . S
N600 Gd599 2.570 . S
N600 C602 1.343 . S
C601 C589 1.422 . S
C601 C603 1.321 . S
C601 H609 0.931 . S
C602 N600 1.343 . S
C602 C603 1.390 . S
C602 H604 0.931 . S
C603 C601 1.321 . S
C603 C602 1.390 . S
C603 H605 0.930 . S
H604 C602 0.931 . S
H605 C603 0.930 . S
H606 C629 0.931 . S
H607 C595 0.929 . S
H608 C630 0.930 . S
H609 C601 0.931 . S
H610 C591 0.930 . S
H611 C620 0.929 . S
H612 C596 0.931 . S
H613 C597 0.930 . S
H614 C652 0.930 . S
H615 C593 0.929 . S
H616 C621 0.931 . S
H617 C622 0.930 . S
N618 Gd598 2.622 . S
N618 C619 1.369 . S
N618 C620 1.338 . S
C619 N618 1.369 . S
C619 C623 1.415 . S
C619 C626 1.422 . S
C620 H611 0.929 . S
C620 N618 1.338 . S
C620 C622 1.378 . S
C621 H616 0.931 . S
C621 C622 1.348 . S
C621 C623 1.413 . S
C622 H617 0.930 . S
C622 C620 1.378 . S
C622 C621 1.348 . S
C623 C619 1.415 . S
C623 C621 1.413 . S
C623 C653 1.437 . S
H624 C653 0.929 . S
N625 Gd598 2.570 . S
N625 C626 1.359 . S
N625 C629 1.343 . S
C626 C619 1.422 . S
C626 N625 1.359 . S
C626 C628 1.421 . S
C627 C628 1.422 . S
C627 C630 1.321 . S
C627 H654 0.931 . S
C628 C626 1.421 . S
C628 C627 1.422 . S
C628 C652 1.417 . S
C629 H606 0.931 . S
C629 N625 1.343 . S
C629 C630 1.390 . S
C630 H608 0.930 . S
C630 C627 1.321 . S
C630 C629 1.390 . S
O631 Gd599 2.386 . S
O631 C643 1.265 . S
O632 Gd598 2.353 . S
O632 C643 1.242 . S
O633 Gd598 2.468 . S
O633 C651 1.263 . S
O634 Gd598 2.427 . S
O634 C651 1.252 . S
O635 Gd599 2.307 . S
O635 C644 1.261 . S
O636 Gd598 2.388 . S
O636 C644 1.252 . S
O637 Gd598 2.386 . S
O637 C655 1.265 . S
O638 Gd599 2.353 . S
O638 C655 1.242 . S
O639 Gd599 2.468 . S
O639 C663 1.263 . S
O640 Gd599 2.427 . S
O640 C663 1.252 . S
O641 Gd598 2.307 . S
O641 C656 1.261 . S
O642 Gd599 2.388 . S
O642 C656 1.252 . S
C643 O631 1.265 . S
C643 O632 1.242 . S
C644 O635 1.261 . S
C644 O636 1.252 . S
C645 C648 1.394 . S
C645 C650 1.370 . S
C645 C651 1.500 . S
C646 C649 1.383 . S
C646 C650 1.395 . S
C647 C648 1.396 . S
C647 C649 1.365 . S
C647 H664 0.929 . S
C648 C645 1.394 . S
C648 C647 1.396 . S
C648 H665 0.930 . S
C649 C646 1.383 . S
C649 C647 1.365 . S
C649 H666 0.931 . S
C650 C645 1.370 . S
C650 C646 1.395 . S
C650 H667 0.930 . S
C651 Gd598 2.805 . S
C651 O633 1.263 . S
C651 O634 1.252 . S
C651 C645 1.500 . S
C652 H614 0.930 . S
C652 C628 1.417 . S
C652 C653 1.329 . S
C653 C623 1.437 . S
C653 H624 0.929 . S
C653 C652 1.329 . S
H654 C627 0.931 . S
C655 O637 1.265 . S
C655 O638 1.242 . S
C656 O641 1.261 . S
C656 O642 1.252 . S
C657 C660 1.394 . S
C657 C662 1.370 . S
C657 C663 1.500 . S
C658 C661 1.383 . S
C658 C662 1.395 . S
C659 C660 1.396 . S
C659 C661 1.365 . S
C659 H668 0.929 . S
C660 C657 1.394 . S
C660 C659 1.396 . S
C660 H669 0.930 . S
C661 C658 1.383 . S
C661 C659 1.365 . S
C661 H670 0.931 . S
C662 C657 1.370 . S
C662 C658 1.395 . S
C662 H671 0.930 . S
C663 Gd599 2.805 . S
C663 O639 1.263 . S
C663 O640 1.252 . S
C663 C657 1.500 . S
H664 C647 0.929 . S
H665 C648 0.930 . S
H666 C649 0.931 . S
H667 C650 0.930 . S
H668 C659 0.929 . S
H669 C660 0.930 . S
H670 C661 0.931 . S
H671 C662 0.930 . S
C672 C674 1.422 . S
C672 C676 1.415 1_455 S
C672 N678 1.369 1_455 S
C673 C674 1.421 . S
C673 C675 1.417 . S
C673 C685 1.422 . S
C674 C672 1.422 . S
C674 C673 1.421 . S
C674 N684 1.359 . S
C675 C673 1.417 . S
C675 C677 1.329 . S
C675 H694 0.930 . S
C676 C672 1.415 1_655 S
C676 C677 1.437 1_655 S
C676 C680 1.413 . S
C677 C675 1.329 . S
C677 C676 1.437 1_455 S
C677 H699 0.918 1_455 S
N678 C672 1.369 1_655 S
N678 C679 1.338 . S
N678 Gd683 2.622 1_655 S
C679 N678 1.338 . S
C679 C681 1.378 . S
C679 H691 0.929 . S
C680 C676 1.413 . S
C680 C681 1.348 . S
C680 H696 0.931 . S
C681 C679 1.378 . S
C681 C680 1.348 . S
C681 H697 0.930 . S
Gd682 N702 2.622 . S
Gd682 N709 2.570 . S
Gd682 O716 2.353 1_565 S
Gd682 O717 2.468 . S
Gd682 O718 2.427 . S
Gd682 O720 2.388 1_565 S
Gd682 O721 2.386 1_565 S
Gd682 O725 2.307 1_565 S
Gd682 C735 2.805 . S
Gd683 N678 2.622 1_455 S
Gd683 N684 2.570 . S
Gd683 O715 2.386 . S
Gd683 O719 2.307 . S
Gd683 O722 2.353 . S
Gd683 O723 2.468 . S
Gd683 O724 2.427 1_455 S
Gd683 O726 2.388 1_455 S
Gd683 C747 2.805 . S
N684 C674 1.359 . S
N684 Gd683 2.570 . S
N684 C686 1.343 . S
C685 C673 1.422 . S
C685 C687 1.321 . S
C685 H693 0.931 . S
C686 N684 1.343 . S
C686 C687 1.390 . S
C686 H688 0.931 . S
C687 C685 1.321 . S
C687 C686 1.390 . S
C687 H689 0.930 . S
H688 C686 0.931 . S
H689 C687 0.930 . S
H690 C713 0.931 1_655 S
H691 C679 0.929 . S
H692 C714 0.930 . S
H693 C685 0.931 . S
H694 C675 0.930 . S
H695 C704 0.929 1_545 S
H696 C680 0.931 . S
H697 C681 0.930 . S
H698 C736 0.930 . S
H699 C677 0.918 1_655 S
H700 C705 0.931 . S
H701 C706 0.930 . S
N702 Gd682 2.622 . S
N702 C703 1.369 . S
N702 C704 1.338 . S
C703 N702 1.369 . S
C703 C707 1.415 . S
C703 C710 1.422 . S
C704 H695 0.929 1_565 S
C704 N702 1.338 . S
C704 C706 1.378 . S
C705 H700 0.931 . S
C705 C706 1.348 . S
C705 C707 1.413 . S
C706 H701 0.930 . S
C706 C704 1.378 . S
C706 C705 1.348 . S
C707 C703 1.415 . S
C707 C705 1.413 . S
C707 C737 1.437 . S
H708 C737 0.929 . S
N709 Gd682 2.570 . S
N709 C710 1.359 . S
N709 C713 1.343 . S
C710 C703 1.422 . S
C710 N709 1.359 . S
C710 C712 1.421 . S
C711 C712 1.469 . S
C711 C714 1.291 1_455 S
C711 H738 0.916 1_455 S
C712 C710 1.421 . S
C712 C711 1.469 . S
C712 C736 1.417 . S
C713 H690 0.931 1_455 S
C713 N709 1.343 . S
C713 C714 1.390 1_455 S
C714 H692 0.930 . S
C714 C711 1.291 1_655 S
C714 C713 1.390 1_655 S
O715 Gd683 2.386 . S
O715 C727 1.265 . S
O716 Gd682 2.353 1_545 S
O716 C727 1.242 . S
O717 Gd682 2.468 . S
O717 C735 1.263 . S
O718 Gd682 2.427 . S
O718 C735 1.252 . S
O719 Gd683 2.307 . S
O719 C728 1.261 . S
O720 Gd682 2.388 1_545 S
O720 C728 1.252 . S
O721 Gd682 2.386 1_545 S
O721 C739 1.265 . S
O722 Gd683 2.353 . S
O722 C739 1.242 . S
O723 Gd683 2.468 . S
O723 C747 1.263 . S
O724 Gd683 2.427 1_655 S
O724 C747 1.252 1_655 S
O725 Gd682 2.307 1_545 S
O725 C740 1.261 1_455 S
O726 Gd683 2.388 1_655 S
O726 C740 1.252 . S
C727 O715 1.265 . S
C727 O716 1.242 . S
C728 O719 1.261 . S
C728 O720 1.252 . S
C729 C732 1.394 . S
C729 C734 1.370 . S
C729 C735 1.500 . S
C730 C733 1.383 . S
C730 C734 1.395 . S
C731 C732 1.396 . S
C731 C733 1.365 . S
C731 H748 0.929 . S
C732 C729 1.394 . S
C732 C731 1.396 . S
C732 H749 0.930 . S
C733 C730 1.383 . S
C733 C731 1.365 . S
C733 H750 0.931 . S
C734 C729 1.370 . S
C734 C730 1.395 . S
C734 H751 0.930 . S
C735 Gd682 2.805 . S
C735 O717 1.263 . S
C735 O718 1.252 . S
C735 C729 1.500 . S
C736 H698 0.930 . S
C736 C712 1.417 . S
C736 C737 1.329 . S
C737 C707 1.437 . S
C737 H708 0.929 . S
C737 C736 1.329 . S
H738 C711 0.916 1_655 S
C739 O721 1.265 . S
C739 O722 1.242 . S
C740 O725 1.261 1_655 S
C740 O726 1.252 . S
C741 C744 1.394 1_455 S
C741 C746 1.370 . S
C741 C747 1.500 . S
C742 C745 1.389 . S
C742 C746 1.395 . S
C743 C744 1.396 . S
C743 C745 1.362 1_655 S
C743 H752 0.929 . S
C744 C741 1.394 1_655 S
C744 C743 1.396 . S
C744 H753 0.930 . S
C745 C742 1.389 . S
C745 C743 1.362 1_455 S
C745 H754 0.929 1_455 S
C746 C741 1.370 . S
C746 C742 1.395 . S
C746 H755 0.930 . S
C747 Gd683 2.805 . S
C747 O723 1.263 . S
C747 O724 1.252 1_455 S
C747 C741 1.500 . S
H748 C731 0.929 . S
H749 C732 0.930 . S
H750 C733 0.931 . S
H751 C734 0.930 . S
H752 C743 0.929 . S
H753 C744 0.930 . S
H754 C745 0.929 1_655 S
H755 C746 0.930 . S
C756 C758 1.422 . S
C756 C760 1.415 . S
C756 N762 1.369 . S
C757 C758 1.421 . S
C757 C759 1.417 . S
C757 C769 1.422 . S
C758 C756 1.422 . S
C758 C757 1.421 . S
C758 N768 1.359 . S
C759 C757 1.417 . S
C759 C761 1.329 . S
C759 H778 0.930 . S
C760 C756 1.415 . S
C760 C761 1.437 . S
C760 C764 1.413 . S
C761 C759 1.329 . S
C761 C760 1.437 . S
C761 H783 0.929 . S
N762 C756 1.369 . S
N762 C763 1.338 . S
N762 Gd767 2.622 . S
C763 N762 1.338 . S
C763 C765 1.378 . S
C763 H775 0.929 . S
C764 C760 1.413 . S
C764 C765 1.348 . S
C764 H780 0.931 . S
C765 C763 1.378 . S
C765 C764 1.348 . S
C765 H781 0.930 . S
Gd766 N786 2.622 . S
Gd766 N793 2.570 . S
Gd766 O800 2.353 . S
Gd766 O801 2.468 . S
Gd766 O802 2.427 . S
Gd766 O804 2.388 . S
Gd766 O805 2.386 . S
Gd766 O809 2.307 . S
Gd766 C819 2.805 . S
Gd767 N762 2.622 . S
Gd767 N768 2.570 . S
Gd767 O799 2.386 . S
Gd767 O803 2.307 . S
Gd767 O806 2.353 . S
Gd767 O807 2.468 . S
Gd767 O808 2.427 . S
Gd767 O810 2.388 . S
Gd767 C831 2.805 . S
N768 C758 1.359 . S
N768 Gd767 2.570 . S
N768 C770 1.343 . S
C769 C757 1.422 . S
C769 C771 1.321 . S
C769 H777 0.931 . S
C770 N768 1.343 . S
C770 C771 1.390 . S
C770 H772 0.931 . S
C771 C769 1.321 . S
C771 C770 1.390 . S
C771 H773 0.930 . S
H772 C770 0.931 . S
H773 C771 0.930 . S
H774 C797 0.931 . S
H775 C763 0.929 . S
H776 C798 0.930 . S
H777 C769 0.931 . S
H778 C759 0.930 . S
H779 C788 0.929 . S
H780 C764 0.931 . S
H781 C765 0.930 . S
H782 C820 0.930 . S
H783 C761 0.929 . S
H784 C789 0.931 . S
H785 C790 0.930 . S
N786 Gd766 2.622 . S
N786 C787 1.369 . S
N786 C788 1.338 . S
C787 N786 1.369 . S
C787 C791 1.415 . S
C787 C794 1.422 . S
C788 H779 0.929 . S
C788 N786 1.338 . S
C788 C790 1.378 . S
C789 H784 0.931 . S
C789 C790 1.348 . S
C789 C791 1.413 . S
C790 H785 0.930 . S
C790 C788 1.378 . S
C790 C789 1.348 . S
C791 C787 1.415 . S
C791 C789 1.413 . S
C791 C821 1.437 . S
H792 C821 0.929 . S
N793 Gd766 2.570 . S
N793 C794 1.359 . S
N793 C797 1.343 . S
C794 C787 1.422 . S
C794 N793 1.359 . S
C794 C796 1.421 . S
C795 C796 1.422 . S
C795 C798 1.321 . S
C795 H822 0.931 . S
C796 C794 1.421 . S
C796 C795 1.422 . S
C796 C820 1.417 . S
C797 H774 0.931 . S
C797 N793 1.343 . S
C797 C798 1.390 . S
C798 H776 0.930 . S
C798 C795 1.321 . S
C798 C797 1.390 . S
O799 Gd767 2.386 . S
O799 C811 1.265 . S
O800 Gd766 2.353 . S
O800 C811 1.242 . S
O801 Gd766 2.468 . S
O801 C819 1.263 . S
O802 Gd766 2.427 . S
O802 C819 1.252 . S
O803 Gd767 2.307 . S
O803 C812 1.261 . S
O804 Gd766 2.388 . S
O804 C812 1.252 . S
O805 Gd766 2.386 . S
O805 C823 1.265 . S
O806 Gd767 2.353 . S
O806 C823 1.242 . S
O807 Gd767 2.468 . S
O807 C831 1.263 . S
O808 Gd767 2.427 . S
O808 C831 1.252 . S
O809 Gd766 2.307 . S
O809 C824 1.261 . S
O810 Gd767 2.388 . S
O810 C824 1.252 . S
C811 O799 1.265 . S
C811 O800 1.242 . S
C812 O803 1.261 . S
C812 O804 1.252 . S
C813 C816 1.394 . S
C813 C818 1.370 . S
C813 C819 1.500 . S
C814 C817 1.383 . S
C814 C818 1.395 . S
C815 C816 1.396 . S
C815 C817 1.365 . S
C815 H832 0.929 . S
C816 C813 1.394 . S
C816 C815 1.396 . S
C816 H833 0.930 . S
C817 C814 1.383 . S
C817 C815 1.365 . S
C817 H834 0.931 . S
C818 C813 1.370 . S
C818 C814 1.395 . S
C818 H835 0.930 . S
C819 Gd766 2.805 . S
C819 O801 1.263 . S
C819 O802 1.252 . S
C819 C813 1.500 . S
C820 H782 0.930 . S
C820 C796 1.417 . S
C820 C821 1.329 . S
C821 C791 1.437 . S
C821 H792 0.929 . S
C821 C820 1.329 . S
H822 C795 0.931 . S
C823 O805 1.265 . S
C823 O806 1.242 . S
C824 O809 1.261 . S
C824 O810 1.252 . S
C825 C828 1.394 . S
C825 C830 1.370 . S
C825 C831 1.500 . S
C826 C829 1.383 . S
C826 C830 1.395 . S
C827 C828 1.396 . S
C827 C829 1.365 . S
C827 H836 0.929 . S
C828 C825 1.394 . S
C828 C827 1.396 . S
C828 H837 0.930 . S
C829 C826 1.383 . S
C829 C827 1.365 . S
C829 H838 0.931 . S
C830 C825 1.370 . S
C830 C826 1.395 . S
C830 H839 0.930 . S
C831 Gd767 2.805 . S
C831 O807 1.263 . S
C831 O808 1.252 . S
C831 C825 1.500 . S
H832 C815 0.929 . S
H833 C816 0.930 . S
H834 C817 0.931 . S
H835 C818 0.930 . S
H836 C827 0.929 . S
H837 C828 0.930 . S
H838 C829 0.931 . S
H839 C830 0.930 . S
C840 C842 1.422 . S
C840 C844 1.415 1_545 S
C840 N846 1.369 1_545 S
C841 C842 1.421 . S
C841 C843 1.417 . S
C841 C853 1.422 . S
C842 C840 1.422 . S
C842 C841 1.421 . S
C842 N852 1.359 . S
C843 C841 1.417 . S
C843 C845 1.329 . S
C843 H862 0.930 . S
C844 C840 1.415 1_565 S
C844 C845 1.437 1_565 S
C844 C848 1.413 . S
C845 C843 1.329 . S
C845 C844 1.437 1_545 S
C845 H867 0.929 1_545 S
N846 C840 1.369 1_565 S
N846 C847 1.338 . S
N846 Gd851 2.622 1_565 S
C847 N846 1.338 . S
C847 C849 1.378 . S
C847 H859 0.929 . S
C848 C844 1.413 . S
C848 C849 1.348 . S
C848 H864 0.931 . S
C849 C847 1.378 . S
C849 C848 1.348 . S
C849 H865 0.930 . S
Gd850 N870 2.622 . S
Gd850 N877 2.570 . S
Gd850 O884 2.353 1_556 S
Gd850 O885 2.468 . S
Gd850 O886 2.427 . S
Gd850 O888 2.388 1_556 S
Gd850 O889 2.386 1_556 S
Gd850 O893 2.313 . S
Gd850 C903 2.805 . S
Gd851 N846 2.622 1_545 S
Gd851 N852 2.570 . S
Gd851 O883 2.386 . S
Gd851 O887 2.307 . S
Gd851 O890 2.353 . S
Gd851 O891 2.468 . S
Gd851 O892 2.427 1_545 S
Gd851 O894 2.388 1_545 S
Gd851 C915 2.805 . S
N852 C842 1.359 . S
N852 Gd851 2.570 . S
N852 C854 1.343 . S
C853 C841 1.422 . S
C853 C855 1.321 . S
C853 H861 0.931 . S
C854 N852 1.343 . S
C854 C855 1.390 . S
C854 H856 0.931 . S
C855 C853 1.321 . S
C855 C854 1.390 . S
C855 H857 0.930 . S
H856 C854 0.931 . S
H857 C855 0.930 . S
H858 C881 0.924 1_565 S
H859 C847 0.929 . S
H860 C882 0.930 . S
H861 C853 0.931 . S
H862 C843 0.930 . S
H863 C872 0.929 1_554 S
H864 C848 0.931 . S
H865 C849 0.930 . S
H866 C904 0.930 . S
H867 C845 0.929 1_565 S
H868 C873 0.931 . S
H869 C874 0.930 . S
N870 Gd850 2.622 . S
N870 C871 1.369 . S
N870 C872 1.338 . S
C871 N870 1.369 . S
C871 C875 1.415 . S
C871 C878 1.422 . S
C872 H863 0.929 1_556 S
C872 N870 1.338 . S
C872 C874 1.378 . S
C873 H868 0.931 . S
C873 C874 1.348 . S
C873 C875 1.413 . S
C874 H869 0.930 . S
C874 C872 1.378 . S
C874 C873 1.348 . S
C875 C871 1.415 . S
C875 C873 1.413 . S
C875 C905 1.437 . S
H876 C905 0.929 . S
N877 Gd850 2.570 . S
N877 C878 1.359 . S
N877 C881 1.343 . S
C878 C871 1.422 . S
C878 N877 1.359 . S
C878 C880 1.421 . S
C879 C880 1.422 . S
C879 C882 1.321 1_545 S
C879 H906 0.931 1_545 S
C880 C878 1.421 . S
C880 C879 1.422 . S
C880 C904 1.417 . S
C881 H858 0.924 1_545 S
C881 N877 1.343 . S
C881 C882 1.390 1_545 S
C882 H860 0.930 . S
C882 C879 1.321 1_565 S
C882 C881 1.390 1_565 S
O883 Gd851 2.386 . S
O883 C895 1.265 . S
O884 Gd850 2.353 1_554 S
O884 C895 1.242 . S
O885 Gd850 2.468 . S
O885 C903 1.263 . S
O886 Gd850 2.427 . S
O886 C903 1.252 . S
O887 Gd851 2.307 . S
O887 C896 1.261 . S
O888 Gd850 2.388 1_554 S
O888 C896 1.252 . S
O889 Gd850 2.386 1_554 S
O889 C907 1.265 . S
O890 Gd851 2.353 . S
O890 C907 1.242 . S
O891 Gd851 2.468 . S
O891 C915 1.263 . S
O892 Gd851 2.427 1_565 S
O892 C915 1.252 1_565 S
O893 Gd850 2.313 . S
O893 C908 1.250 1_546 S
O894 Gd851 2.388 1_565 S
O894 C908 1.252 . S
C895 O883 1.265 . S
C895 O884 1.242 . S
C896 O887 1.261 . S
C896 O888 1.252 . S
C897 C900 1.394 . S
C897 C902 1.370 . S
C897 C903 1.500 . S
C898 C901 1.383 . S
C898 C902 1.395 . S
C899 C900 1.396 . S
C899 C901 1.365 . S
C899 H916 0.929 . S
C900 C897 1.394 . S
C900 C899 1.396 . S
C900 H917 0.930 . S
C901 C898 1.383 . S
C901 C899 1.365 . S
C901 H918 0.931 . S
C902 C897 1.370 . S
C902 C898 1.395 . S
C902 H919 0.930 . S
C903 Gd850 2.805 . S
C903 O885 1.263 . S
C903 O886 1.252 . S
C903 C897 1.500 . S
C904 H866 0.930 . S
C904 C880 1.417 . S
C904 C905 1.329 . S
C905 C875 1.437 . S
C905 H876 0.929 . S
C905 C904 1.329 . S
H906 C879 0.931 1_565 S
C907 O889 1.265 . S
C907 O890 1.242 . S
C908 O893 1.250 1_564 S
C908 O894 1.252 . S
C909 C912 1.394 . S
C909 C914 1.370 1_565 S
C909 C915 1.500 1_565 S
C910 C913 1.383 1_545 S
C910 C914 1.395 . S
C911 C912 1.396 . S
C911 C913 1.365 . S
C911 H920 0.929 . S
C912 C909 1.394 . S
C912 C911 1.396 . S
C912 H921 0.930 . S
C913 C910 1.383 1_565 S
C913 C911 1.365 . S
C913 H922 0.931 . S
C914 C909 1.370 1_545 S
C914 C910 1.395 . S
C914 H923 0.930 . S
C915 Gd851 2.805 . S
C915 O891 1.263 . S
C915 O892 1.252 1_545 S
C915 C909 1.500 1_545 S
H916 C899 0.929 . S
H917 C900 0.930 . S
H918 C901 0.931 . S
H919 C902 0.930 . S
H920 C911 0.929 . S
H921 C912 0.930 . S
H922 C913 0.931 . S
H923 C914 0.930 . S
C924 C926 1.422 . S
C924 C928 1.415 . S
C924 N930 1.369 . S
C925 C926 1.421 . S
C925 C927 1.417 . S
C925 C937 1.422 . S
C926 C924 1.422 . S
C926 C925 1.421 . S
C926 N936 1.359 . S
C927 C925 1.417 . S
C927 C929 1.329 . S
C927 H946 0.930 . S
C928 C924 1.415 . S
C928 C929 1.437 . S
C928 C932 1.413 . S
C929 C927 1.329 . S
C929 C928 1.437 . S
C929 H951 0.929 . S
N930 C924 1.369 . S
N930 C931 1.338 . S
N930 Gd935 2.622 . S
C931 N930 1.338 . S
C931 C933 1.378 . S
C931 H943 0.929 . S
C932 C928 1.413 . S
C932 C933 1.348 . S
C932 H948 0.931 . S
C933 C931 1.378 . S
C933 C932 1.348 . S
C933 H949 0.930 . S
Gd934 N954 2.622 . S
Gd934 N961 2.570 . S
Gd934 O968 2.353 . S
Gd934 O969 2.468 . S
Gd934 O970 2.427 . S
Gd934 O972 2.388 . S
Gd934 O973 2.386 . S
Gd934 O977 2.307 . S
Gd934 C987 2.805 . S
Gd935 N930 2.622 . S
Gd935 N936 2.570 . S
Gd935 O967 2.386 . S
Gd935 O971 2.307 . S
Gd935 O974 2.353 . S
Gd935 O975 2.468 . S
Gd935 O976 2.427 . S
Gd935 O978 2.388 . S
Gd935 C999 2.805 . S
N936 C926 1.359 . S
N936 Gd935 2.570 . S
N936 C938 1.343 . S
C937 C925 1.422 . S
C937 C939 1.321 . S
C937 H945 0.931 . S
C938 N936 1.343 . S
C938 C939 1.390 . S
C938 H940 0.931 . S
C939 C937 1.321 . S
C939 C938 1.390 . S
C939 H941 0.930 . S
H940 C938 0.931 . S
H941 C939 0.930 . S
H942 C965 0.931 . S
H943 C931 0.929 . S
H944 C966 0.930 . S
H945 C937 0.931 . S
H946 C927 0.930 . S
H947 C956 0.929 . S
H948 C932 0.931 . S
H949 C933 0.930 . S
H950 C988 0.930 . S
H951 C929 0.929 . S
H952 C957 0.931 . S
H953 C958 0.930 . S
N954 Gd934 2.622 . S
N954 C955 1.369 . S
N954 C956 1.338 . S
C955 N954 1.369 . S
C955 C959 1.415 . S
C955 C962 1.422 . S
C956 H947 0.929 . S
C956 N954 1.338 . S
C956 C958 1.378 . S
C957 H952 0.931 . S
C957 C958 1.348 . S
C957 C959 1.413 . S
C958 H953 0.930 . S
C958 C956 1.378 . S
C958 C957 1.348 . S
C959 C955 1.415 . S
C959 C957 1.413 . S
C959 C989 1.437 . S
H960 C989 0.929 . S
N961 Gd934 2.570 . S
N961 C962 1.359 . S
N961 C965 1.343 . S
C962 C955 1.422 . S
C962 N961 1.359 . S
C962 C964 1.421 . S
C963 C964 1.422 . S
C963 C966 1.321 . S
C963 H990 0.931 . S
C964 C962 1.421 . S
C964 C963 1.422 . S
C964 C988 1.417 . S
C965 H942 0.931 . S
C965 N961 1.343 . S
C965 C966 1.390 . S
C966 H944 0.930 . S
C966 C963 1.321 . S
C966 C965 1.390 . S
O967 Gd935 2.386 . S
O967 C979 1.265 . S
O968 Gd934 2.353 . S
O968 C979 1.242 . S
O969 Gd934 2.468 . S
O969 C987 1.263 . S
O970 Gd934 2.427 . S
O970 C987 1.252 . S
O971 Gd935 2.307 . S
O971 C980 1.261 . S
O972 Gd934 2.388 . S
O972 C980 1.252 . S
O973 Gd934 2.386 . S
O973 C991 1.265 . S
O974 Gd935 2.353 . S
O974 C991 1.242 . S
O975 Gd935 2.468 . S
O975 C999 1.263 . S
O976 Gd935 2.427 . S
O976 C999 1.252 . S
O977 Gd934 2.307 . S
O977 C992 1.261 . S
O978 Gd935 2.388 . S
O978 C992 1.252 . S
C979 O967 1.265 . S
C979 O968 1.242 . S
C980 O971 1.261 . S
C980 O972 1.252 . S
C981 C984 1.394 . S
C981 C986 1.370 . S
C981 C987 1.500 . S
C982 C985 1.383 . S
C982 C986 1.395 . S
C983 C984 1.396 . S
C983 C985 1.365 . S
C983 H1000 0.929 . S
C984 C981 1.394 . S
C984 C983 1.396 . S
C984 H1001 0.930 . S
C985 C982 1.383 . S
C985 C983 1.365 . S
C985 H1002 0.931 . S
C986 C981 1.370 . S
C986 C982 1.395 . S
C986 H1003 0.930 . S
C987 Gd934 2.805 . S
C987 O969 1.263 . S
C987 O970 1.252 . S
C987 C981 1.500 . S
C988 H950 0.930 . S
C988 C964 1.417 . S
C988 C989 1.329 . S
C989 C959 1.437 . S
C989 H960 0.929 . S
C989 C988 1.329 . S
H990 C963 0.931 . S
C991 O973 1.265 . S
C991 O974 1.242 . S
C992 O977 1.261 . S
C992 O978 1.252 . S
C993 C996 1.394 . S
C993 C998 1.370 . S
C993 C999 1.500 . S
C994 C997 1.383 . S
C994 C998 1.395 . S
C995 C996 1.396 . S
C995 C997 1.365 . S
C995 H1004 0.929 . S
C996 C993 1.394 . S
C996 C995 1.396 . S
C996 H1005 0.930 . S
C997 C994 1.383 . S
C997 C995 1.365 . S
C997 H1006 0.931 . S
C998 C993 1.370 . S
C998 C994 1.395 . S
C998 H1007 0.930 . S
C999 Gd935 2.805 . S
C999 O975 1.263 . S
C999 O976 1.252 . S
C999 C993 1.500 . S
H1000 C983 0.929 . S
H1001 C984 0.930 . S
H1002 C985 0.931 . S
H1003 C986 0.930 . S
H1004 C995 0.929 . S
H1005 C996 0.930 . S
H1006 C997 0.931 . S
H1007 C998 0.930 . S
C1008 C1010 1.422 . S
C1008 C1012 1.415 . S
C1008 N1014 1.369 . S
C1009 C1010 1.421 . S
C1009 C1011 1.417 . S
C1009 C1021 1.422 . S
C1010 C1008 1.422 . S
C1010 C1009 1.421 . S
C1010 N1020 1.359 . S
C1011 C1009 1.417 . S
C1011 C1013 1.329 . S
C1011 H1030 0.930 . S
C1012 C1008 1.415 . S
C1012 C1013 1.437 . S
C1012 C1016 1.413 . S
C1013 C1011 1.329 . S
C1013 C1012 1.437 . S
C1013 H1035 0.929 . S
N1014 C1008 1.369 . S
N1014 C1015 1.338 . S
N1014 Gd1019 2.622 . S
C1015 N1014 1.338 . S
C1015 C1017 1.378 . S
C1015 H1027 0.929 . S
C1016 C1012 1.413 . S
C1016 C1017 1.348 . S
C1016 H1032 0.931 . S
C1017 C1015 1.378 . S
C1017 C1016 1.348 . S
C1017 H1033 0.930 . S
Gd1018 N1038 2.622 1_554 S
Gd1018 N1045 2.570 1_554 S
Gd1018 O1052 2.353 . S
Gd1018 O1053 2.468 . S
Gd1018 O1054 2.427 . S
Gd1018 O1056 2.388 . S
Gd1018 O1057 2.386 1_554 S
Gd1018 O1061 2.307 . S
Gd1018 C1071 2.805 . S
Gd1019 N1014 2.622 . S
Gd1019 N1020 2.570 . S
Gd1019 O1051 2.386 . S
Gd1019 O1055 2.307 . S
Gd1019 O1058 2.353 1_554 S
Gd1019 O1059 2.468 . S
Gd1019 O1060 2.427 . S
Gd1019 O1062 2.388 . S
Gd1019 C1083 2.805 . S
N1020 C1010 1.359 . S
N1020 Gd1019 2.570 . S
N1020 C1022 1.343 . S
C1021 C1009 1.422 . S
C1021 C1023 1.321 . S
C1021 H1029 0.931 . S
C1022 N1020 1.343 . S
C1022 C1023 1.390 . S
C1022 H1024 0.931 . S
C1023 C1021 1.321 . S
C1023 C1022 1.390 . S
C1023 H1025 0.930 . S
H1024 C1022 0.931 . S
H1025 C1023 0.930 . S
H1026 C1049 0.931 1_554 S
H1027 C1015 0.929 . S
H1028 C1050 0.930 . S
H1029 C1021 0.931 . S
H1030 C1011 0.930 . S
H1031 C1040 0.929 1_554 S
H1032 C1016 0.931 . S
H1033 C1017 0.930 . S
H1034 C1072 0.930 . S
H1035 C1013 0.929 . S
H1036 C1041 0.931 . S
H1037 C1042 0.930 . S
N1038 Gd1018 2.622 1_556 S
N1038 C1039 1.369 . S
N1038 C1040 1.338 . S
C1039 N1038 1.369 . S
C1039 C1043 1.415 . S
C1039 C1046 1.422 . S
C1040 H1031 0.929 1_556 S
C1040 N1038 1.338 . S
C1040 C1042 1.378 . S
C1041 H1036 0.931 . S
C1041 C1042 1.348 . S
C1041 C1043 1.413 . S
C1042 H1037 0.930 . S
C1042 C1040 1.378 . S
C1042 C1041 1.348 . S
C1043 C1039 1.415 . S
C1043 C1041 1.413 . S
C1043 C1073 1.437 . S
H1044 C1073 0.929 . S
N1045 Gd1018 2.570 1_556 S
N1045 C1046 1.359 . S
N1045 C1049 1.343 . S
C1046 C1039 1.422 . S
C1046 N1045 1.359 . S
C1046 C1048 1.421 . S
C1047 C1048 1.422 . S
C1047 C1050 1.321 . S
C1047 H1074 0.931 . S
C1048 C1046 1.421 . S
C1048 C1047 1.422 . S
C1048 C1072 1.417 . S
C1049 H1026 0.931 1_556 S
C1049 N1045 1.343 . S
C1049 C1050 1.390 . S
C1050 H1028 0.930 . S
C1050 C1047 1.321 . S
C1050 C1049 1.390 . S
O1051 Gd1019 2.386 . S
O1051 C1063 1.265 . S
O1052 Gd1018 2.353 . S
O1052 C1063 1.242 . S
O1053 Gd1018 2.468 . S
O1053 C1071 1.263 . S
O1054 Gd1018 2.427 . S
O1054 C1071 1.252 . S
O1055 Gd1019 2.307 . S
O1055 C1064 1.261 . S
O1056 Gd1018 2.388 . S
O1056 C1064 1.252 . S
O1057 Gd1018 2.386 1_556 S
O1057 C1075 1.265 . S
O1058 Gd1019 2.353 1_556 S
O1058 C1075 1.242 . S
O1059 Gd1019 2.468 . S
O1059 C1083 1.263 . S
O1060 Gd1019 2.427 . S
O1060 C1083 1.252 . S
O1061 Gd1018 2.307 . S
O1061 C1076 1.261 . S
O1062 Gd1019 2.388 . S
O1062 C1076 1.252 . S
C1063 O1051 1.265 . S
C1063 O1052 1.242 . S
C1064 O1055 1.261 . S
C1064 O1056 1.252 . S
C1065 C1068 1.394 . S
C1065 C1070 1.370 . S
C1065 C1071 1.500 . S
C1066 C1069 1.383 . S
C1066 C1070 1.395 . S
C1067 C1068 1.396 . S
C1067 C1069 1.365 . S
C1067 H1084 0.929 . S
C1068 C1065 1.394 . S
C1068 C1067 1.396 . S
C1068 H1085 0.930 . S
C1069 C1066 1.383 . S
C1069 C1067 1.365 . S
C1069 H1086 0.931 . S
C1070 C1065 1.370 . S
C1070 C1066 1.395 . S
C1070 H1087 0.930 . S
C1071 Gd1018 2.805 . S
C1071 O1053 1.263 . S
C1071 O1054 1.252 . S
C1071 C1065 1.500 . S
C1072 H1034 0.930 . S
C1072 C1048 1.417 . S
C1072 C1073 1.329 . S
C1073 C1043 1.437 . S
C1073 H1044 0.929 . S
C1073 C1072 1.329 . S
H1074 C1047 0.931 . S
C1075 O1057 1.265 . S
C1075 O1058 1.242 . S
C1076 O1061 1.261 . S
C1076 O1062 1.252 . S
C1077 C1080 1.394 . S
C1077 C1082 1.370 . S
C1077 C1083 1.500 1_556 S
C1078 C1081 1.383 . S
C1078 C1082 1.395 . S
C1079 C1080 1.396 . S
C1079 C1081 1.365 . S
C1079 H1088 0.929 . S
C1080 C1077 1.394 . S
C1080 C1079 1.396 . S
C1080 H1089 0.935 . S
C1081 C1078 1.383 . S
C1081 C1079 1.365 . S
C1081 H1090 0.931 . S
C1082 C1077 1.370 . S
C1082 C1078 1.395 . S
C1082 H1091 0.930 . S
C1083 Gd1019 2.805 . S
C1083 O1059 1.263 . S
C1083 O1060 1.252 . S
C1083 C1077 1.500 1_554 S
H1084 C1067 0.929 . S
H1085 C1068 0.930 . S
H1086 C1069 0.931 . S
H1087 C1070 0.930 . S
H1088 C1079 0.929 . S
H1089 C1080 0.935 . S
H1090 C1081 0.931 . S
H1091 C1082 0.930 . S
C1092 C1094 1.422 . S
C1092 C1096 1.415 . S
C1092 N1098 1.369 . S
C1093 C1094 1.421 . S
C1093 C1095 1.417 . S
C1093 C1105 1.422 . S
C1094 C1092 1.422 . S
C1094 C1093 1.421 . S
C1094 N1104 1.359 . S
C1095 C1093 1.417 . S
C1095 C1097 1.329 . S
C1095 H1114 0.930 . S
C1096 C1092 1.415 . S
C1096 C1097 1.437 . S
C1096 C1100 1.413 . S
C1097 C1095 1.329 . S
C1097 C1096 1.437 . S
C1097 H1119 0.929 . S
N1098 C1092 1.369 . S
N1098 C1099 1.338 . S
N1098 Gd1103 2.622 . S
C1099 N1098 1.338 . S
C1099 C1101 1.378 . S
C1099 H1111 0.929 . S
C1100 C1096 1.413 . S
C1100 C1101 1.348 . S
C1100 H1116 0.931 . S
C1101 C1099 1.378 . S
C1101 C1100 1.348 . S
C1101 H1117 0.930 . S
Gd1102 N1122 2.622 . S
Gd1102 N1129 2.570 . S
Gd1102 O1136 2.353 . S
Gd1102 O1137 2.468 . S
Gd1102 O1138 2.427 . S
Gd1102 O1140 2.388 . S
Gd1102 O1141 2.386 . S
Gd1102 O1145 2.307 . S
Gd1102 C1155 2.805 . S
Gd1103 N1098 2.622 . S
Gd1103 N1104 2.570 . S
Gd1103 O1135 2.386 . S
Gd1103 O1139 2.307 . S
Gd1103 O1142 2.353 . S
Gd1103 O1143 2.468 . S
Gd1103 O1144 2.427 . S
Gd1103 O1146 2.388 . S
Gd1103 C1167 2.805 . S
N1104 C1094 1.359 . S
N1104 Gd1103 2.570 . S
N1104 C1106 1.343 . S
C1105 C1093 1.422 . S
C1105 C1107 1.321 . S
C1105 H1113 0.931 . S
C1106 N1104 1.343 . S
C1106 C1107 1.390 . S
C1106 H1108 0.931 . S
C1107 C1105 1.321 . S
C1107 C1106 1.390 . S
C1107 H1109 0.930 . S
H1108 C1106 0.931 . S
H1109 C1107 0.930 . S
H1110 C1133 0.931 . S
H1111 C1099 0.929 . S
H1112 C1134 0.930 . S
H1113 C1105 0.931 . S
H1114 C1095 0.930 . S
H1115 C1124 0.929 . S
H1116 C1100 0.931 . S
H1117 C1101 0.930 . S
H1118 C1156 0.930 . S
H1119 C1097 0.929 . S
H1120 C1125 0.931 . S
H1121 C1126 0.930 . S
N1122 Gd1102 2.622 . S
N1122 C1123 1.369 . S
N1122 C1124 1.338 . S
C1123 N1122 1.369 . S
C1123 C1127 1.415 . S
C1123 C1130 1.422 . S
C1124 H1115 0.929 . S
C1124 N1122 1.338 . S
C1124 C1126 1.378 . S
C1125 H1120 0.931 . S
C1125 C1126 1.348 . S
C1125 C1127 1.413 . S
C1126 H1121 0.930 . S
C1126 C1124 1.378 . S
C1126 C1125 1.348 . S
C1127 C1123 1.415 . S
C1127 C1125 1.413 . S
C1127 C1157 1.437 . S
H1128 C1157 0.929 . S
N1129 Gd1102 2.570 . S
N1129 C1130 1.359 . S
N1129 C1133 1.343 . S
C1130 C1123 1.422 . S
C1130 N1129 1.359 . S
C1130 C1132 1.421 . S
C1131 C1132 1.422 . S
C1131 C1134 1.321 . S
C1131 H1158 0.931 . S
C1132 C1130 1.421 . S
C1132 C1131 1.422 . S
C1132 C1156 1.417 . S
C1133 H1110 0.931 . S
C1133 N1129 1.343 . S
C1133 C1134 1.390 . S
C1134 H1112 0.930 . S
C1134 C1131 1.321 . S
C1134 C1133 1.390 . S
O1135 Gd1103 2.386 . S
O1135 C1147 1.265 . S
O1136 Gd1102 2.353 . S
O1136 C1147 1.242 . S
O1137 Gd1102 2.468 . S
O1137 C1155 1.263 . S
O1138 Gd1102 2.427 . S
O1138 C1155 1.252 . S
O1139 Gd1103 2.307 . S
O1139 C1148 1.261 . S
O1140 Gd1102 2.388 . S
O1140 C1148 1.252 . S
O1141 Gd1102 2.386 . S
O1141 C1159 1.265 . S
O1142 Gd1103 2.353 . S
O1142 C1159 1.242 . S
O1143 Gd1103 2.468 . S
O1143 C1167 1.263 . S
O1144 Gd1103 2.427 . S
O1144 C1167 1.252 . S
O1145 Gd1102 2.307 . S
O1145 C1160 1.261 . S
O1146 Gd1103 2.388 . S
O1146 C1160 1.252 . S
C1147 O1135 1.265 . S
C1147 O1136 1.242 . S
C1148 O1139 1.261 . S
C1148 O1140 1.252 . S
C1149 C1152 1.394 . S
C1149 C1154 1.370 . S
C1149 C1155 1.500 . S
C1150 C1153 1.383 . S
C1150 C1154 1.395 . S
C1151 C1152 1.396 . S
C1151 C1153 1.365 . S
C1151 H1168 0.929 . S
C1152 C1149 1.394 . S
C1152 C1151 1.396 . S
C1152 H1169 0.930 . S
C1153 C1150 1.383 . S
C1153 C1151 1.365 . S
C1153 H1170 0.931 . S
C1154 C1149 1.370 . S
C1154 C1150 1.395 . S
C1154 H1171 0.930 . S
C1155 Gd1102 2.805 . S
C1155 O1137 1.263 . S
C1155 O1138 1.252 . S
C1155 C1149 1.500 . S
C1156 H1118 0.930 . S
C1156 C1132 1.417 . S
C1156 C1157 1.329 . S
C1157 C1127 1.437 . S
C1157 H1128 0.929 . S
C1157 C1156 1.329 . S
H1158 C1131 0.931 . S
C1159 O1141 1.265 . S
C1159 O1142 1.242 . S
C1160 O1145 1.261 . S
C1160 O1146 1.252 . S
C1161 C1164 1.394 . S
C1161 C1166 1.370 . S
C1161 C1167 1.500 . S
C1162 C1165 1.383 . S
C1162 C1166 1.395 . S
C1163 C1164 1.396 . S
C1163 C1165 1.365 . S
C1163 H1172 0.929 . S
C1164 C1161 1.394 . S
C1164 C1163 1.396 . S
C1164 H1173 0.930 . S
C1165 C1162 1.383 . S
C1165 C1163 1.365 . S
C1165 H1174 0.931 . S
C1166 C1161 1.370 . S
C1166 C1162 1.395 . S
C1166 H1175 0.930 . S
C1167 Gd1103 2.805 . S
C1167 O1143 1.263 . S
C1167 O1144 1.252 . S
C1167 C1161 1.500 . S
H1168 C1151 0.929 . S
H1169 C1152 0.930 . S
H1170 C1153 0.931 . S
H1171 C1154 0.930 . S
H1172 C1163 0.929 . S
H1173 C1164 0.930 . S
H1174 C1165 0.931 . S
H1175 C1166 0.930 . S
C1176 C1178 1.422 . S
C1176 C1180 1.415 . S
C1176 N1182 1.369 . S
C1177 C1178 1.421 . S
C1177 C1179 1.417 . S
C1177 C1189 1.422 . S
C1178 C1176 1.422 . S
C1178 C1177 1.421 . S
C1178 N1188 1.359 . S
C1179 C1177 1.417 . S
C1179 C1181 1.329 . S
C1179 H1198 0.930 . S
C1180 C1176 1.415 . S
C1180 C1181 1.437 . S
C1180 C1184 1.413 . S
C1181 C1179 1.329 . S
C1181 C1180 1.437 . S
C1181 H1203 0.929 . S
N1182 C1176 1.369 . S
N1182 C1183 1.338 . S
N1182 Gd1187 2.622 . S
C1183 N1182 1.338 . S
C1183 C1185 1.378 . S
C1183 H1195 0.929 . S
C1184 C1180 1.413 . S
C1184 C1185 1.348 . S
C1184 H1200 0.931 . S
C1185 C1183 1.378 . S
C1185 C1184 1.348 . S
C1185 H1201 0.930 . S
Gd1186 N1206 2.622 1_455 S
Gd1186 N1213 2.570 1_455 S
Gd1186 O1220 2.353 . S
Gd1186 O1221 2.468 . S
Gd1186 O1222 2.427 . S
Gd1186 O1224 2.388 . S
Gd1186 O1225 2.386 1_455 S
Gd1186 O1229 2.307 . S
Gd1186 C1239 2.805 . S
Gd1187 N1182 2.622 . S
Gd1187 N1188 2.570 . S
Gd1187 O1219 2.386 . S
Gd1187 O1223 2.307 . S
Gd1187 O1226 2.353 1_455 S
Gd1187 O1227 2.468 . S
Gd1187 O1228 2.427 . S
Gd1187 O1230 2.388 . S
Gd1187 C1251 2.805 . S
N1188 C1178 1.359 . S
N1188 Gd1187 2.570 . S
N1188 C1190 1.343 . S
C1189 C1177 1.422 . S
C1189 C1191 1.321 . S
C1189 H1197 0.931 . S
C1190 N1188 1.343 . S
C1190 C1191 1.390 . S
C1190 H1192 0.931 . S
C1191 C1189 1.321 . S
C1191 C1190 1.390 . S
C1191 H1193 0.930 . S
H1192 C1190 0.931 . S
H1193 C1191 0.930 . S
H1194 C1217 0.931 1_455 S
H1195 C1183 0.929 . S
H1196 C1218 0.930 . S
H1197 C1189 0.931 . S
H1198 C1179 0.930 . S
H1199 C1208 0.900 1_455 S
H1200 C1184 0.931 . S
H1201 C1185 0.930 . S
H1202 C1240 0.930 . S
H1203 C1181 0.929 . S
H1204 C1209 0.931 . S
H1205 C1210 0.930 . S
N1206 Gd1186 2.622 1_655 S
N1206 C1207 1.369 . S
N1206 C1208 1.329 . S
C1207 N1206 1.369 . S
C1207 C1211 1.415 . S
C1207 C1214 1.422 . S
C1208 H1199 0.900 1_655 S
C1208 N1206 1.329 . S
C1208 C1210 1.416 . S
C1209 H1204 0.931 . S
C1209 C1210 1.348 . S
C1209 C1211 1.413 . S
C1210 H1205 0.930 . S
C1210 C1208 1.416 . S
C1210 C1209 1.348 . S
C1211 C1207 1.415 . S
C1211 C1209 1.413 . S
C1211 C1241 1.437 . S
H1212 C1241 0.929 . S
N1213 Gd1186 2.570 1_655 S
N1213 C1214 1.359 . S
N1213 C1217 1.343 . S
C1214 C1207 1.422 . S
C1214 N1213 1.359 . S
C1214 C1216 1.421 . S
C1215 C1216 1.422 . S
C1215 C1218 1.321 . S
C1215 H1242 0.931 . S
C1216 C1214 1.421 . S
C1216 C1215 1.422 . S
C1216 C1240 1.417 . S
C1217 H1194 0.931 1_655 S
C1217 N1213 1.343 . S
C1217 C1218 1.390 . S
C1218 H1196 0.930 . S
C1218 C1215 1.321 . S
C1218 C1217 1.390 . S
O1219 Gd1187 2.386 . S
O1219 C1231 1.265 . S
O1220 Gd1186 2.353 . S
O1220 C1231 1.242 . S
O1221 Gd1186 2.468 . S
O1221 C1239 1.263 . S
O1222 Gd1186 2.427 . S
O1222 C1239 1.252 . S
O1223 Gd1187 2.307 . S
O1223 C1232 1.261 . S
O1224 Gd1186 2.388 . S
O1224 C1232 1.252 . S
O1225 Gd1186 2.386 1_655 S
O1225 C1243 1.265 . S
O1226 Gd1187 2.353 1_655 S
O1226 C1243 1.242 . S
O1227 Gd1187 2.468 . S
O1227 C1251 1.263 . S
O1228 Gd1187 2.427 . S
O1228 C1251 1.252 . S
O1229 Gd1186 2.307 . S
O1229 C1244 1.261 . S
O1230 Gd1187 2.388 . S
O1230 C1244 1.252 . S
C1231 O1219 1.265 . S
C1231 O1220 1.242 . S
C1232 O1223 1.261 . S
C1232 O1224 1.252 . S
C1233 C1236 1.394 . S
C1233 C1238 1.370 . S
C1233 C1239 1.500 . S
C1234 C1237 1.383 . S
C1234 C1238 1.395 . S
C1235 C1236 1.396 . S
C1235 C1237 1.365 . S
C1235 H1252 0.929 . S
C1236 C1233 1.394 . S
C1236 C1235 1.396 . S
C1236 H1253 0.930 . S
C1237 C1234 1.383 . S
C1237 C1235 1.365 . S
C1237 H1254 0.931 . S
C1238 C1233 1.370 . S
C1238 C1234 1.395 . S
C1238 H1255 0.930 . S
C1239 Gd1186 2.805 . S
C1239 O1221 1.263 . S
C1239 O1222 1.252 . S
C1239 C1233 1.500 . S
C1240 H1202 0.930 . S
C1240 C1216 1.417 . S
C1240 C1241 1.329 . S
C1241 C1211 1.437 . S
C1241 H1212 0.929 . S
C1241 C1240 1.329 . S
H1242 C1215 0.931 . S
C1243 O1225 1.265 . S
C1243 O1226 1.242 . S
C1244 O1229 1.261 . S
C1244 O1230 1.252 . S
C1245 C1248 1.394 . S
C1245 C1250 1.370 . S
C1245 C1251 1.500 1_655 S
C1246 C1249 1.383 . S
C1246 C1250 1.395 . S
C1247 C1248 1.396 . S
C1247 C1249 1.365 . S
C1247 H1256 0.929 . S
C1248 C1245 1.394 . S
C1248 C1247 1.396 . S
C1248 H1257 0.930 . S
C1249 C1246 1.383 . S
C1249 C1247 1.365 . S
C1249 H1258 0.931 . S
C1250 C1245 1.370 . S
C1250 C1246 1.395 . S
C1250 H1259 0.930 . S
C1251 Gd1187 2.805 . S
C1251 O1227 1.263 . S
C1251 O1228 1.252 . S
C1251 C1245 1.500 1_455 S
H1252 C1235 0.929 . S
H1253 C1236 0.930 . S
H1254 C1237 0.931 . S
H1255 C1238 0.930 . S
H1256 C1247 0.929 . S
H1257 C1248 0.930 . S
H1258 C1249 0.931 . S
H1259 C1250 0.930 . S
C1260 C1262 1.422 . S
C1260 C1264 1.415 . S
C1260 N1266 1.369 . S
C1261 C1262 1.421 . S
C1261 C1263 1.417 . S
C1261 C1273 1.422 . S
C1262 C1260 1.422 . S
C1262 C1261 1.421 . S
C1262 N1272 1.359 . S
C1263 C1261 1.417 . S
C1263 C1265 1.329 . S
C1263 H1282 0.930 . S
C1264 C1260 1.415 . S
C1264 C1265 1.437 . S
C1264 C1268 1.413 . S
C1265 C1263 1.329 . S
C1265 C1264 1.437 . S
C1265 H1287 0.929 . S
N1266 C1260 1.369 . S
N1266 C1267 1.338 . S
N1266 Gd1271 2.622 . S
C1267 N1266 1.338 . S
C1267 C1269 1.378 . S
C1267 H1279 0.929 . S
C1268 C1264 1.413 . S
C1268 C1269 1.348 . S
C1268 H1284 0.931 . S
C1269 C1267 1.378 . S
C1269 C1268 1.348 . S
C1269 H1285 0.930 . S
Gd1270 N1290 2.622 . S
Gd1270 N1297 2.570 . S
Gd1270 O1304 2.353 . S
Gd1270 O1305 2.468 . S
Gd1270 O1306 2.427 . S
Gd1270 O1308 2.388 . S
Gd1270 O1309 2.386 . S
Gd1270 O1313 2.307 . S
Gd1270 C1323 2.805 . S
Gd1271 N1266 2.622 . S
Gd1271 N1272 2.570 . S
Gd1271 O1303 2.386 . S
Gd1271 O1307 2.307 . S
Gd1271 O1310 2.353 . S
Gd1271 O1311 2.468 . S
Gd1271 O1312 2.427 . S
Gd1271 O1314 2.388 . S
Gd1271 C1335 2.805 . S
N1272 C1262 1.359 . S
N1272 Gd1271 2.570 . S
N1272 C1274 1.343 . S
C1273 C1261 1.422 . S
C1273 C1275 1.321 . S
C1273 H1281 0.931 . S
C1274 N1272 1.343 . S
C1274 C1275 1.390 . S
C1274 H1276 0.931 . S
C1275 C1273 1.321 . S
C1275 C1274 1.390 . S
C1275 H1277 0.930 . S
H1276 C1274 0.931 . S
H1277 C1275 0.930 . S
H1278 C1301 0.931 . S
H1279 C1267 0.929 . S
H1280 C1302 0.930 . S
H1281 C1273 0.931 . S
H1282 C1263 0.930 . S
H1283 C1292 0.929 . S
H1284 C1268 0.931 . S
H1285 C1269 0.930 . S
H1286 C1324 0.930 . S
H1287 C1265 0.929 . S
H1288 C1293 0.931 . S
H1289 C1294 0.930 . S
N1290 Gd1270 2.622 . S
N1290 C1291 1.369 . S
N1290 C1292 1.338 . S
C1291 N1290 1.369 . S
C1291 C1295 1.415 . S
C1291 C1298 1.422 . S
C1292 H1283 0.929 . S
C1292 N1290 1.338 . S
C1292 C1294 1.378 . S
C1293 H1288 0.931 . S
C1293 C1294 1.348 . S
C1293 C1295 1.413 . S
C1294 H1289 0.930 . S
C1294 C1292 1.378 . S
C1294 C1293 1.348 . S
C1295 C1291 1.415 . S
C1295 C1293 1.413 . S
C1295 C1325 1.437 . S
H1296 C1325 0.929 . S
N1297 Gd1270 2.570 . S
N1297 C1298 1.359 . S
N1297 C1301 1.343 . S
C1298 C1291 1.422 . S
C1298 N1297 1.359 . S
C1298 C1300 1.421 . S
C1299 C1300 1.422 . S
C1299 C1302 1.321 . S
C1299 H1326 0.931 . S
C1300 C1298 1.421 . S
C1300 C1299 1.422 . S
C1300 C1324 1.417 . S
C1301 H1278 0.931 . S
C1301 N1297 1.343 . S
C1301 C1302 1.390 . S
C1302 H1280 0.930 . S
C1302 C1299 1.321 . S
C1302 C1301 1.390 . S
O1303 Gd1271 2.386 . S
O1303 C1315 1.265 . S
O1304 Gd1270 2.353 . S
O1304 C1315 1.242 . S
O1305 Gd1270 2.468 . S
O1305 C1323 1.263 . S
O1306 Gd1270 2.427 . S
O1306 C1323 1.252 . S
O1307 Gd1271 2.307 . S
O1307 C1316 1.261 . S
O1308 Gd1270 2.388 . S
O1308 C1316 1.252 . S
O1309 Gd1270 2.386 . S
O1309 C1327 1.265 . S
O1310 Gd1271 2.353 . S
O1310 C1327 1.242 . S
O1311 Gd1271 2.468 . S
O1311 C1335 1.263 . S
O1312 Gd1271 2.427 . S
O1312 C1335 1.252 . S
O1313 Gd1270 2.307 . S
O1313 C1328 1.261 . S
O1314 Gd1271 2.388 . S
O1314 C1328 1.252 . S
C1315 O1303 1.265 . S
C1315 O1304 1.242 . S
C1316 O1307 1.261 . S
C1316 O1308 1.252 . S
C1317 C1320 1.394 . S
C1317 C1322 1.370 . S
C1317 C1323 1.500 . S
C1318 C1321 1.383 . S
C1318 C1322 1.395 . S
C1319 C1320 1.396 . S
C1319 C1321 1.365 . S
C1319 H1336 0.929 . S
C1320 C1317 1.394 . S
C1320 C1319 1.396 . S
C1320 H1337 0.930 . S
C1321 C1318 1.383 . S
C1321 C1319 1.365 . S
C1321 H1338 0.931 . S
C1322 C1317 1.370 . S
C1322 C1318 1.395 . S
C1322 H1339 0.930 . S
C1323 Gd1270 2.805 . S
C1323 O1305 1.263 . S
C1323 O1306 1.252 . S
C1323 C1317 1.500 . S
C1324 H1286 0.930 . S
C1324 C1300 1.417 . S
C1324 C1325 1.329 . S
C1325 C1295 1.437 . S
C1325 H1296 0.929 . S
C1325 C1324 1.329 . S
H1326 C1299 0.931 . S
C1327 O1309 1.265 . S
C1327 O1310 1.242 . S
C1328 O1313 1.261 . S
C1328 O1314 1.252 . S
C1329 C1332 1.394 . S
C1329 C1334 1.370 . S
C1329 C1335 1.500 . S
C1330 C1333 1.383 . S
C1330 C1334 1.395 . S
C1331 C1332 1.396 . S
C1331 C1333 1.365 . S
C1331 H1340 0.929 . S
C1332 C1329 1.394 . S
C1332 C1331 1.396 . S
C1332 H1341 0.930 . S
C1333 C1330 1.383 . S
C1333 C1331 1.365 . S
C1333 H1342 0.931 . S
C1334 C1329 1.370 . S
C1334 C1330 1.395 . S
C1334 H1343 0.930 . S
C1335 Gd1271 2.805 . S
C1335 O1311 1.263 . S
C1335 O1312 1.252 . S
C1335 C1329 1.500 . S
H1336 C1319 0.929 . S
H1337 C1320 0.930 . S
H1338 C1321 0.931 . S
H1339 C1322 0.930 . S
H1340 C1331 0.929 . S
H1341 C1332 0.930 . S
H1342 C1333 0.931 . S
H1343 C1334 0.930 . S
C1344 C1346 1.422 . S
C1344 C1348 1.415 . S
C1344 N1350 1.369 . S
C1345 C1346 1.421 . S
C1345 C1347 1.417 . S
C1345 C1357 1.422 . S
C1346 C1344 1.422 . S
C1346 C1345 1.421 . S
C1346 N1356 1.359 . S
C1347 C1345 1.417 . S
C1347 C1349 1.329 . S
C1347 H1366 0.930 . S
C1348 C1344 1.415 . S
C1348 C1349 1.437 . S
C1348 C1352 1.413 . S
C1349 C1347 1.329 . S
C1349 C1348 1.437 . S
C1349 H1371 0.929 . S
N1350 C1344 1.369 . S
N1350 C1351 1.338 . S
N1350 Gd1355 2.622 . S
C1351 N1350 1.338 . S
C1351 C1353 1.378 . S
C1351 H1363 0.929 . S
C1352 C1348 1.413 . S
C1352 C1353 1.348 . S
C1352 H1368 0.931 . S
C1353 C1351 1.378 . S
C1353 C1352 1.348 . S
C1353 H1369 0.930 . S
Gd1354 N1374 2.622 . S
Gd1354 N1381 2.570 . S
Gd1354 O1388 2.353 . S
Gd1354 O1389 2.468 . S
Gd1354 O1390 2.427 . S
Gd1354 O1392 2.388 . S
Gd1354 O1393 2.386 . S
Gd1354 O1397 2.307 . S
Gd1354 C1407 2.805 . S
Gd1355 N1350 2.622 . S
Gd1355 N1356 2.570 . S
Gd1355 O1387 2.386 . S
Gd1355 O1391 2.307 . S
Gd1355 O1394 2.353 . S
Gd1355 O1395 2.468 . S
Gd1355 O1396 2.427 . S
Gd1355 O1398 2.388 . S
Gd1355 C1419 2.805 . S
N1356 C1346 1.359 . S
N1356 Gd1355 2.570 . S
N1356 C1358 1.343 . S
C1357 C1345 1.422 . S
C1357 C1359 1.321 . S
C1357 H1365 0.931 . S
C1358 N1356 1.343 . S
C1358 C1359 1.390 . S
C1358 H1360 0.931 . S
C1359 C1357 1.321 . S
C1359 C1358 1.390 . S
C1359 H1361 0.930 . S
H1360 C1358 0.931 . S
H1361 C1359 0.930 . S
H1362 C1385 0.931 . S
H1363 C1351 0.929 . S
H1364 C1386 0.930 . S
H1365 C1357 0.931 . S
H1366 C1347 0.930 . S
H1367 C1376 0.929 . S
H1368 C1352 0.931 . S
H1369 C1353 0.930 . S
H1370 C1408 0.930 . S
H1371 C1349 0.929 . S
H1372 C1377 0.931 . S
H1373 C1378 0.930 . S
N1374 Gd1354 2.622 . S
N1374 C1375 1.369 . S
N1374 C1376 1.338 . S
C1375 N1374 1.369 . S
C1375 C1379 1.415 . S
C1375 C1382 1.422 . S
C1376 H1367 0.929 . S
C1376 N1374 1.338 . S
C1376 C1378 1.378 . S
C1377 H1372 0.931 . S
C1377 C1378 1.348 . S
C1377 C1379 1.413 . S
C1378 H1373 0.930 . S
C1378 C1376 1.378 . S
C1378 C1377 1.348 . S
C1379 C1375 1.415 . S
C1379 C1377 1.413 . S
C1379 C1409 1.437 . S
H1380 C1409 0.929 . S
N1381 Gd1354 2.570 . S
N1381 C1382 1.359 . S
N1381 C1385 1.343 . S
C1382 C1375 1.422 . S
C1382 N1381 1.359 . S
C1382 C1384 1.421 . S
C1383 C1384 1.422 . S
C1383 C1386 1.321 . S
C1383 H1410 0.931 . S
C1384 C1382 1.421 . S
C1384 C1383 1.422 . S
C1384 C1408 1.417 . S
C1385 H1362 0.931 . S
C1385 N1381 1.343 . S
C1385 C1386 1.390 . S
C1386 H1364 0.930 . S
C1386 C1383 1.321 . S
C1386 C1385 1.390 . S
O1387 Gd1355 2.386 . S
O1387 C1399 1.265 . S
O1388 Gd1354 2.353 . S
O1388 C1399 1.242 . S
O1389 Gd1354 2.468 . S
O1389 C1407 1.263 . S
O1390 Gd1354 2.427 . S
O1390 C1407 1.252 . S
O1391 Gd1355 2.307 . S
O1391 C1400 1.261 . S
O1392 Gd1354 2.388 . S
O1392 C1400 1.252 . S
O1393 Gd1354 2.386 . S
O1393 C1411 1.265 . S
O1394 Gd1355 2.353 . S
O1394 C1411 1.242 . S
O1395 Gd1355 2.468 . S
O1395 C1419 1.263 . S
O1396 Gd1355 2.427 . S
O1396 C1419 1.252 . S
O1397 Gd1354 2.307 . S
O1397 C1412 1.261 . S
O1398 Gd1355 2.388 . S
O1398 C1412 1.252 . S
C1399 O1387 1.265 . S
C1399 O1388 1.242 . S
C1400 O1391 1.261 . S
C1400 O1392 1.252 . S
C1401 C1404 1.394 . S
C1401 C1406 1.370 . S
C1401 C1407 1.500 . S
C1402 C1405 1.383 . S
C1402 C1406 1.395 . S
C1403 C1404 1.396 . S
C1403 C1405 1.365 . S
C1403 H1420 0.929 . S
C1404 C1401 1.394 . S
C1404 C1403 1.396 . S
C1404 H1421 0.930 . S
C1405 C1402 1.383 . S
C1405 C1403 1.365 . S
C1405 H1422 0.931 . S
C1406 C1401 1.370 . S
C1406 C1402 1.395 . S
C1406 H1423 0.930 . S
C1407 Gd1354 2.805 . S
C1407 O1389 1.263 . S
C1407 O1390 1.252 . S
C1407 C1401 1.500 . S
C1408 H1370 0.930 . S
C1408 C1384 1.417 . S
C1408 C1409 1.329 . S
C1409 C1379 1.437 . S
C1409 H1380 0.929 . S
C1409 C1408 1.329 . S
H1410 C1383 0.931 . S
C1411 O1393 1.265 . S
C1411 O1394 1.242 . S
C1412 O1397 1.261 . S
C1412 O1398 1.252 . S
C1413 C1416 1.394 . S
C1413 C1418 1.370 . S
C1413 C1419 1.500 . S
C1414 C1417 1.383 . S
C1414 C1418 1.395 . S
C1415 C1416 1.396 . S
C1415 C1417 1.365 . S
C1415 H1424 0.929 . S
C1416 C1413 1.394 . S
C1416 C1415 1.396 . S
C1416 H1425 0.930 . S
C1417 C1414 1.383 . S
C1417 C1415 1.365 . S
C1417 H1426 0.931 . S
C1418 C1413 1.370 . S
C1418 C1414 1.395 . S
C1418 H1427 0.930 . S
C1419 Gd1355 2.805 . S
C1419 O1395 1.263 . S
C1419 O1396 1.252 . S
C1419 C1413 1.500 . S
H1420 C1403 0.929 . S
H1421 C1404 0.930 . S
H1422 C1405 0.931 . S
H1423 C1406 0.930 . S
H1424 C1415 0.929 . S
H1425 C1416 0.930 . S
H1426 C1417 0.931 . S
H1427 C1418 0.930 . S
C1428 C1430 1.422 . S
C1428 C1432 1.415 . S
C1428 N1434 1.369 . S
C1429 C1430 1.421 . S
C1429 C1431 1.417 . S
C1429 C1441 1.422 . S
C1430 C1428 1.422 . S
C1430 C1429 1.421 . S
C1430 N1440 1.359 . S
C1431 C1429 1.417 . S
C1431 C1433 1.329 . S
C1431 H1450 0.930 . S
C1432 C1428 1.415 . S
C1432 C1433 1.437 . S
C1432 C1436 1.413 . S
C1433 C1431 1.329 . S
C1433 C1432 1.437 . S
C1433 H1455 0.929 . S
N1434 C1428 1.369 . S
N1434 C1435 1.338 . S
N1434 Gd1439 2.622 . S
C1435 N1434 1.338 . S
C1435 C1437 1.378 . S
C1435 H1447 0.929 . S
C1436 C1432 1.413 . S
C1436 C1437 1.348 . S
C1436 H1452 0.931 . S
C1437 C1435 1.378 . S
C1437 C1436 1.348 . S
C1437 H1453 0.930 . S
Gd1438 N1458 2.622 . S
Gd1438 N1465 2.570 . S
Gd1438 O1472 2.353 . S
Gd1438 O1473 2.468 . S
Gd1438 O1474 2.427 . S
Gd1438 O1476 2.388 . S
Gd1438 O1477 2.386 . S
Gd1438 O1481 2.307 . S
Gd1438 C1491 2.805 . S
Gd1439 N1434 2.622 . S
Gd1439 N1440 2.570 . S
Gd1439 O1471 2.386 . S
Gd1439 O1475 2.307 . S
Gd1439 O1478 2.353 . S
Gd1439 O1479 2.468 . S
Gd1439 O1480 2.427 . S
Gd1439 O1482 2.388 . S
Gd1439 C1503 2.805 . S
N1440 C1430 1.359 . S
N1440 Gd1439 2.570 . S
N1440 C1442 1.343 . S
C1441 C1429 1.422 . S
C1441 C1443 1.321 . S
C1441 H1449 0.931 . S
C1442 N1440 1.343 . S
C1442 C1443 1.390 . S
C1442 H1444 0.931 . S
C1443 C1441 1.321 . S
C1443 C1442 1.390 . S
C1443 H1445 0.930 . S
H1444 C1442 0.931 . S
H1445 C1443 0.930 . S
H1446 C1469 0.931 . S
H1447 C1435 0.929 . S
H1448 C1470 0.930 . S
H1449 C1441 0.931 . S
H1450 C1431 0.930 . S
H1451 C1460 0.929 . S
H1452 C1436 0.931 . S
H1453 C1437 0.930 . S
H1454 C1492 0.930 . S
H1455 C1433 0.929 . S
H1456 C1461 0.931 . S
H1457 C1462 0.930 . S
N1458 Gd1438 2.622 . S
N1458 C1459 1.369 . S
N1458 C1460 1.338 . S
C1459 N1458 1.369 . S
C1459 C1463 1.415 . S
C1459 C1466 1.422 . S
C1460 H1451 0.929 . S
C1460 N1458 1.338 . S
C1460 C1462 1.378 . S
C1461 H1456 0.931 . S
C1461 C1462 1.348 . S
C1461 C1463 1.413 . S
C1462 H1457 0.930 . S
C1462 C1460 1.378 . S
C1462 C1461 1.348 . S
C1463 C1459 1.415 . S
C1463 C1461 1.413 . S
C1463 C1493 1.437 . S
H1464 C1493 0.929 . S
N1465 Gd1438 2.570 . S
N1465 C1466 1.359 . S
N1465 C1469 1.343 . S
C1466 C1459 1.422 . S
C1466 N1465 1.359 . S
C1466 C1468 1.421 . S
C1467 C1468 1.422 . S
C1467 C1470 1.321 . S
C1467 H1494 0.931 . S
C1468 C1466 1.421 . S
C1468 C1467 1.422 . S
C1468 C1492 1.417 . S
C1469 H1446 0.931 . S
C1469 N1465 1.343 . S
C1469 C1470 1.390 . S
C1470 H1448 0.930 . S
C1470 C1467 1.321 . S
C1470 C1469 1.390 . S
O1471 Gd1439 2.386 . S
O1471 C1483 1.265 . S
O1472 Gd1438 2.353 . S
O1472 C1483 1.242 . S
O1473 Gd1438 2.468 . S
O1473 C1491 1.263 . S
O1474 Gd1438 2.427 . S
O1474 C1491 1.252 . S
O1475 Gd1439 2.307 . S
O1475 C1484 1.261 . S
O1476 Gd1438 2.388 . S
O1476 C1484 1.252 . S
O1477 Gd1438 2.386 . S
O1477 C1495 1.265 . S
O1478 Gd1439 2.353 . S
O1478 C1495 1.242 . S
O1479 Gd1439 2.468 . S
O1479 C1503 1.263 . S
O1480 Gd1439 2.427 . S
O1480 C1503 1.252 . S
O1481 Gd1438 2.307 . S
O1481 C1496 1.261 . S
O1482 Gd1439 2.388 . S
O1482 C1496 1.252 . S
C1483 O1471 1.265 . S
C1483 O1472 1.242 . S
C1484 O1475 1.261 . S
C1484 O1476 1.252 . S
C1485 C1488 1.394 . S
C1485 C1490 1.370 . S
C1485 C1491 1.500 . S
C1486 C1489 1.383 . S
C1486 C1490 1.395 . S
C1487 C1488 1.396 . S
C1487 C1489 1.365 . S
C1487 H1504 0.929 . S
C1488 C1485 1.394 . S
C1488 C1487 1.396 . S
C1488 H1505 0.930 . S
C1489 C1486 1.383 . S
C1489 C1487 1.365 . S
C1489 H1506 0.931 . S
C1490 C1485 1.370 . S
C1490 C1486 1.395 . S
C1490 H1507 0.930 . S
C1491 Gd1438 2.805 . S
C1491 O1473 1.263 . S
C1491 O1474 1.252 . S
C1491 C1485 1.500 . S
C1492 H1454 0.930 . S
C1492 C1468 1.417 . S
C1492 C1493 1.329 . S
C1493 C1463 1.437 . S
C1493 H1464 0.929 . S
C1493 C1492 1.329 . S
H1494 C1467 0.931 . S
C1495 O1477 1.265 . S
C1495 O1478 1.242 . S
C1496 O1481 1.261 . S
C1496 O1482 1.252 . S
C1497 C1500 1.394 . S
C1497 C1502 1.370 . S
C1497 C1503 1.500 . S
C1498 C1501 1.383 . S
C1498 C1502 1.395 . S
C1499 C1500 1.396 . S
C1499 C1501 1.365 . S
C1499 H1508 0.929 . S
C1500 C1497 1.394 . S
C1500 C1499 1.396 . S
C1500 H1509 0.930 . S
C1501 C1498 1.383 . S
C1501 C1499 1.365 . S
C1501 H1510 0.931 . S
C1502 C1497 1.370 . S
C1502 C1498 1.395 . S
C1502 H1511 0.930 . S
C1503 Gd1439 2.805 . S
C1503 O1479 1.263 . S
C1503 O1480 1.252 . S
C1503 C1497 1.500 . S
H1504 C1487 0.929 . S
H1505 C1488 0.930 . S
H1506 C1489 0.931 . S
H1507 C1490 0.930 . S
H1508 C1499 0.929 . S
H1509 C1500 0.930 . S
H1510 C1501 0.931 . S
H1511 C1502 0.930 . S
C1512 C1514 1.422 . S
C1512 C1516 1.415 . S
C1512 N1518 1.369 . S
C1513 C1514 1.421 . S
C1513 C1515 1.417 . S
C1513 C1525 1.422 . S
C1514 C1512 1.422 . S
C1514 C1513 1.421 . S
C1514 N1524 1.359 . S
C1515 C1513 1.417 . S
C1515 C1517 1.329 . S
C1515 H1534 0.930 . S
C1516 C1512 1.415 . S
C1516 C1517 1.437 . S
C1516 C1520 1.413 . S
C1517 C1515 1.329 . S
C1517 C1516 1.437 . S
C1517 H1539 0.929 . S
N1518 C1512 1.369 . S
N1518 C1519 1.338 . S
N1518 Gd1523 2.622 . S
C1519 N1518 1.338 . S
C1519 C1521 1.378 . S
C1519 H1531 0.929 . S
C1520 C1516 1.413 . S
C1520 C1521 1.348 . S
C1520 H1536 0.931 . S
C1521 C1519 1.378 . S
C1521 C1520 1.348 . S
C1521 H1537 0.930 . S
Gd1522 N1542 2.622 . S
Gd1522 N1549 2.570 . S
Gd1522 O1556 2.353 . S
Gd1522 O1557 2.468 . S
Gd1522 O1558 2.427 . S
Gd1522 O1560 2.388 . S
Gd1522 O1561 2.386 . S
Gd1522 O1565 2.307 . S
Gd1522 C1575 2.805 . S
Gd1523 N1518 2.622 . S
Gd1523 N1524 2.570 . S
Gd1523 O1555 2.386 . S
Gd1523 O1559 2.307 . S
Gd1523 O1562 2.353 . S
Gd1523 O1563 2.468 . S
Gd1523 O1564 2.427 . S
Gd1523 O1566 2.388 . S
Gd1523 C1587 2.805 . S
N1524 C1514 1.359 . S
N1524 Gd1523 2.570 . S
N1524 C1526 1.343 . S
C1525 C1513 1.422 . S
C1525 C1527 1.321 . S
C1525 H1533 0.931 . S
C1526 N1524 1.343 . S
C1526 C1527 1.390 . S
C1526 H1528 0.931 . S
C1527 C1525 1.321 . S
C1527 C1526 1.390 . S
C1527 H1529 0.930 . S
H1528 C1526 0.931 . S
H1529 C1527 0.930 . S
H1530 C1553 0.931 . S
H1531 C1519 0.929 . S
H1532 C1554 0.930 . S
H1533 C1525 0.931 . S
H1534 C1515 0.930 . S
H1535 C1544 0.929 . S
H1536 C1520 0.931 . S
H1537 C1521 0.930 . S
H1538 C1576 0.930 . S
H1539 C1517 0.929 . S
H1540 C1545 0.931 . S
H1541 C1546 0.930 . S
N1542 Gd1522 2.622 . S
N1542 C1543 1.369 . S
N1542 C1544 1.338 . S
C1543 N1542 1.369 . S
C1543 C1547 1.415 . S
C1543 C1550 1.422 . S
C1544 H1535 0.929 . S
C1544 N1542 1.338 . S
C1544 C1546 1.378 . S
C1545 H1540 0.931 . S
C1545 C1546 1.348 . S
C1545 C1547 1.413 . S
C1546 H1541 0.930 . S
C1546 C1544 1.378 . S
C1546 C1545 1.348 . S
C1547 C1543 1.415 . S
C1547 C1545 1.413 . S
C1547 C1577 1.437 . S
H1548 C1577 0.929 . S
N1549 Gd1522 2.570 . S
N1549 C1550 1.359 . S
N1549 C1553 1.343 . S
C1550 C1543 1.422 . S
C1550 N1549 1.359 . S
C1550 C1552 1.421 . S
C1551 C1552 1.422 . S
C1551 C1554 1.321 . S
C1551 H1578 0.931 . S
C1552 C1550 1.421 . S
C1552 C1551 1.422 . S
C1552 C1576 1.417 . S
C1553 H1530 0.931 . S
C1553 N1549 1.343 . S
C1553 C1554 1.390 . S
C1554 H1532 0.930 . S
C1554 C1551 1.321 . S
C1554 C1553 1.390 . S
O1555 Gd1523 2.386 . S
O1555 C1567 1.265 . S
O1556 Gd1522 2.353 . S
O1556 C1567 1.242 . S
O1557 Gd1522 2.468 . S
O1557 C1575 1.263 . S
O1558 Gd1522 2.427 . S
O1558 C1575 1.252 . S
O1559 Gd1523 2.307 . S
O1559 C1568 1.261 . S
O1560 Gd1522 2.388 . S
O1560 C1568 1.252 . S
O1561 Gd1522 2.386 . S
O1561 C1579 1.265 . S
O1562 Gd1523 2.353 . S
O1562 C1579 1.242 . S
O1563 Gd1523 2.468 . S
O1563 C1587 1.263 . S
O1564 Gd1523 2.427 . S
O1564 C1587 1.252 . S
O1565 Gd1522 2.307 . S
O1565 C1580 1.261 . S
O1566 Gd1523 2.388 . S
O1566 C1580 1.252 . S
C1567 O1555 1.265 . S
C1567 O1556 1.242 . S
C1568 O1559 1.261 . S
C1568 O1560 1.252 . S
C1569 C1572 1.394 . S
C1569 C1574 1.370 . S
C1569 C1575 1.500 . S
C1570 C1573 1.383 . S
C1570 C1574 1.395 . S
C1571 C1572 1.396 . S
C1571 C1573 1.365 . S
C1571 H1588 0.929 . S
C1572 C1569 1.394 . S
C1572 C1571 1.396 . S
C1572 H1589 0.930 . S
C1573 C1570 1.383 . S
C1573 C1571 1.365 . S
C1573 H1590 0.931 . S
C1574 C1569 1.370 . S
C1574 C1570 1.395 . S
C1574 H1591 0.930 . S
C1575 Gd1522 2.805 . S
C1575 O1557 1.263 . S
C1575 O1558 1.252 . S
C1575 C1569 1.500 . S
C1576 H1538 0.930 . S
C1576 C1552 1.417 . S
C1576 C1577 1.329 . S
C1577 C1547 1.437 . S
C1577 H1548 0.929 . S
C1577 C1576 1.329 . S
H1578 C1551 0.931 . S
C1579 O1561 1.265 . S
C1579 O1562 1.242 . S
C1580 O1565 1.261 . S
C1580 O1566 1.252 . S
C1581 C1584 1.394 . S
C1581 C1586 1.370 . S
C1581 C1587 1.500 . S
C1582 C1585 1.383 . S
C1582 C1586 1.395 . S
C1583 C1584 1.396 . S
C1583 C1585 1.365 . S
C1583 H1592 0.929 . S
C1584 C1581 1.394 . S
C1584 C1583 1.396 . S
C1584 H1593 0.930 . S
C1585 C1582 1.383 . S
C1585 C1583 1.365 . S
C1585 H1594 0.931 . S
C1586 C1581 1.370 . S
C1586 C1582 1.395 . S
C1586 H1595 0.930 . S
C1587 Gd1523 2.805 . S
C1587 O1563 1.263 . S
C1587 O1564 1.252 . S
C1587 C1581 1.500 . S
H1588 C1571 0.929 . S
H1589 C1572 0.930 . S
H1590 C1573 0.931 . S
H1591 C1574 0.930 . S
H1592 C1583 0.929 . S
H1593 C1584 0.930 . S
H1594 C1585 0.931 . S
H1595 C1586 0.930 . S
C1596 C1598 1.422 1_556 S
C1596 C1600 1.415 . S
C1596 N1602 1.369 . S
C1597 C1598 1.421 . S
C1597 C1599 1.417 . S
C1597 C1609 1.422 . S
C1598 C1596 1.422 1_554 S
C1598 C1597 1.421 . S
C1598 N1608 1.359 . S
C1599 C1597 1.417 . S
C1599 C1601 1.329 1_554 S
C1599 H1618 0.930 . S
C1600 C1596 1.415 . S
C1600 C1601 1.437 . S
C1600 C1604 1.413 . S
C1601 C1599 1.329 1_556 S
C1601 C1600 1.437 . S
C1601 H1623 0.929 . S
N1602 C1596 1.369 . S
N1602 C1603 1.338 . S
N1602 Gd1607 2.622 1_556 S
C1603 N1602 1.338 . S
C1603 C1605 1.378 . S
C1603 H1615 0.929 . S
C1604 C1600 1.413 . S
C1604 C1605 1.348 . S
C1604 H1620 0.931 . S
C1605 C1603 1.378 . S
C1605 C1604 1.348 . S
C1605 H1621 0.930 . S
Gd1606 N1626 2.609 1_455 S
Gd1606 N1633 2.539 1_455 S
Gd1606 O1640 2.368 . S
Gd1606 O1641 2.426 1_455 S
Gd1606 O1642 2.393 1_455 S
Gd1606 O1644 2.422 . S
Gd1606 O1645 2.413 . S
Gd1606 O1649 2.317 . S
Gd1606 C1659 2.763 1_455 S
Gd1607 N1602 2.622 1_554 S
Gd1607 N1608 2.570 . S
Gd1607 O1639 2.386 . S
Gd1607 O1643 2.307 . S
Gd1607 O1646 2.353 . S
Gd1607 O1647 2.468 . S
Gd1607 O1648 2.427 1_554 S
Gd1607 O1650 2.388 1_554 S
Gd1607 C1671 2.805 . S
N1608 C1598 1.359 . S
N1608 Gd1607 2.570 . S
N1608 C1610 1.343 . S
C1609 C1597 1.422 . S
C1609 C1611 1.321 . S
C1609 H1617 0.931 . S
C1610 N1608 1.343 . S
C1610 C1611 1.390 . S
C1610 H1612 0.931 . S
C1611 C1609 1.321 . S
C1611 C1610 1.390 . S
C1611 H1613 0.930 . S
H1612 C1610 0.931 . S
H1613 C1611 0.930 . S
H1614 C1637 0.963 . S
H1615 C1603 0.929 . S
H1616 C1638 0.930 1_556 S
H1617 C1609 0.931 . S
H1618 C1599 0.930 . S
H1619 C1628 0.929 1_455 S
H1620 C1604 0.931 . S
H1621 C1605 0.930 . S
H1622 C1660 0.930 . S
H1623 C1601 0.929 . S
H1624 C1629 0.931 . S
H1625 C1630 0.930 1_455 S
N1626 Gd1606 2.609 1_655 S
N1626 C1627 1.369 . S
N1626 C1628 1.338 . S
C1627 N1626 1.369 . S
C1627 C1631 1.415 . S
C1627 C1634 1.422 . S
C1628 H1619 0.929 1_655 S
C1628 N1626 1.338 . S
C1628 C1630 1.378 . S
C1629 H1624 0.931 . S
C1629 C1630 1.348 . S
C1629 C1631 1.413 . S
C1630 H1625 0.930 1_655 S
C1630 C1628 1.378 . S
C1630 C1629 1.348 . S
C1631 C1627 1.415 . S
C1631 C1629 1.413 . S
C1631 C1661 1.437 . S
H1632 C1661 0.929 . S
N1633 Gd1606 2.539 1_655 S
N1633 C1634 1.359 . S
N1633 C1637 1.343 . S
C1634 C1627 1.422 . S
C1634 N1633 1.359 . S
C1634 C1636 1.421 . S
C1635 C1636 1.422 . S
C1635 C1638 1.321 . S
C1635 H1662 0.931 . S
C1636 C1634 1.421 . S
C1636 C1635 1.422 . S
C1636 C1660 1.417 . S
C1637 H1614 0.963 . S
C1637 N1633 1.343 . S
C1637 C1638 1.390 . S
C1638 H1616 0.930 1_554 S
C1638 C1635 1.321 . S
C1638 C1637 1.390 . S
O1639 Gd1607 2.386 . S
O1639 C1651 1.265 . S
O1640 Gd1606 2.368 . S
O1640 C1651 1.242 . S
O1641 Gd1606 2.426 1_655 S
O1641 C1659 1.263 . S
O1642 Gd1606 2.393 1_655 S
O1642 C1659 1.252 . S
O1643 Gd1607 2.307 . S
O1643 C1652 1.261 . S
O1644 Gd1606 2.422 . S
O1644 C1652 1.252 . S
O1645 Gd1606 2.413 . S
O1645 C1663 1.265 . S
O1646 Gd1607 2.353 . S
O1646 C1663 1.242 . S
O1647 Gd1607 2.468 . S
O1647 C1671 1.263 . S
O1648 Gd1607 2.427 1_556 S
O1648 C1671 1.252 1_556 S
O1649 Gd1606 2.317 . S
O1649 C1664 1.261 1_554 S
O1650 Gd1607 2.388 1_556 S
O1650 C1664 1.252 . S
C1651 O1639 1.265 . S
C1651 O1640 1.242 . S
C1652 O1643 1.261 . S
C1652 O1644 1.252 . S
C1653 C1656 1.394 . S
C1653 C1658 1.370 . S
C1653 C1659 1.500 . S
C1654 C1657 1.383 . S
C1654 C1658 1.395 . S
C1655 C1656 1.396 . S
C1655 C1657 1.365 . S
C1655 H1672 0.929 . S
C1656 C1653 1.394 . S
C1656 C1655 1.396 . S
C1656 H1673 0.930 . S
C1657 C1654 1.383 . S
C1657 C1655 1.365 . S
C1657 H1674 0.931 . S
C1658 C1653 1.370 . S
C1658 C1654 1.395 . S
C1658 H1675 0.930 . S
C1659 Gd1606 2.763 1_655 S
C1659 O1641 1.263 . S
C1659 O1642 1.252 . S
C1659 C1653 1.500 . S
C1660 H1622 0.930 . S
C1660 C1636 1.417 . S
C1660 C1661 1.329 . S
C1661 C1631 1.437 . S
C1661 H1632 0.929 . S
C1661 C1660 1.329 . S
H1662 C1635 0.931 . S
C1663 O1645 1.265 . S
C1663 O1646 1.242 . S
C1664 O1649 1.261 1_556 S
C1664 O1650 1.252 . S
C1665 C1668 1.398 . S
C1665 C1670 1.367 1_556 S
C1665 C1671 1.499 1_556 S
C1666 C1669 1.383 1_554 S
C1666 C1670 1.395 . S
C1667 C1668 1.396 . S
C1667 C1669 1.365 . S
C1667 H1676 0.929 . S
C1668 C1665 1.398 . S
C1668 C1667 1.396 . S
C1668 H1677 0.930 . S
C1669 C1666 1.383 1_556 S
C1669 C1667 1.365 . S
C1669 H1678 0.931 . S
C1670 C1665 1.367 1_554 S
C1670 C1666 1.395 . S
C1670 H1679 0.930 . S
C1671 Gd1607 2.805 . S
C1671 O1647 1.263 . S
C1671 O1648 1.252 1_554 S
C1671 C1665 1.499 1_554 S
H1672 C1655 0.929 . S
H1673 C1656 0.930 . S
H1674 C1657 0.931 . S
H1675 C1658 0.930 . S
H1676 C1667 0.929 . S
H1677 C1668 0.930 . S
H1678 C1669 0.931 . S
H1679 C1670 0.930 . S
H1680 C1688 0.935 1_554 S
H1681 C1693 0.950 . S
H1682 C1690 0.950 . S
H1683 C1692 0.950 . S
H1684 C1694 0.950 . S
H1685 C1696 0.950 . S
H1686 C1698 0.950 . S
H1687 C1699 0.950 . S
C1688 H1680 0.935 1_556 S
C1688 C1689 1.414 . S
C1688 C1690 1.378 1_556 S
C1689 C1688 1.414 . S
C1689 C1693 1.393 1_455 S
C1690 H1682 0.950 . S
C1690 C1688 1.378 1_554 S
C1690 C1691 1.400 1_554 S
C1691 C1690 1.400 1_556 S
C1691 C1692 1.398 1_455 S
C1691 C1697 1.472 1_556 S
C1692 H1683 0.950 . S
C1692 C1691 1.398 1_655 S
C1692 C1693 1.391 . S
C1693 H1681 0.950 . S
C1693 C1689 1.393 1_655 S
C1693 C1692 1.391 . S
C1694 H1684 0.950 . S
C1694 C1695 1.386 1_556 S
C1694 C1696 1.391 . S
C1695 C1694 1.386 1_554 S
C1695 C1699 1.393 . S
C1696 H1685 0.950 . S
C1696 C1694 1.391 . S
C1696 C1697 1.379 1_556 S
C1697 C1691 1.472 1_554 S
C1697 C1696 1.379 1_554 S
C1697 C1698 1.440 . S
C1698 H1686 0.950 . S
C1698 C1697 1.440 . S
C1698 C1699 1.391 . S
C1699 H1687 0.950 . S
C1699 C1695 1.393 . S
C1699 C1698 1.391 . S
H1700 C1708 0.950 . S
H1701 C1713 0.950 . S
H1702 C1710 0.950 . S
H1703 C1712 0.950 . S
H1704 C1714 0.950 . S
H1705 C1716 0.950 . S
H1706 C1718 0.950 . S
H1707 C1719 0.950 . S
C1708 H1700 0.950 . S
C1708 C1709 1.386 . S
C1708 C1710 1.391 . S
C1709 C1708 1.386 . S
C1709 C1713 1.393 . S
C1710 H1702 0.950 . S
C1710 C1708 1.391 . S
C1710 C1711 1.400 . S
C1711 C1710 1.400 . S
C1711 C1712 1.398 . S
C1711 C1717 1.491 . S
C1712 H1703 0.950 . S
C1712 C1711 1.398 . S
C1712 C1713 1.391 . S
C1713 H1701 0.950 . S
C1713 C1709 1.393 . S
C1713 C1712 1.391 . S
C1714 H1704 0.950 . S
C1714 C1715 1.386 . S
C1714 C1716 1.391 . S
C1715 C1714 1.386 . S
C1715 C1719 1.393 . S
C1716 H1705 0.950 . S
C1716 C1714 1.391 . S
C1716 C1717 1.400 . S
C1717 C1711 1.491 . S
C1717 C1716 1.400 . S
C1717 C1718 1.398 . S
C1718 H1706 0.950 . S
C1718 C1717 1.398 . S
C1718 C1719 1.391 . S
C1719 H1707 0.950 . S
C1719 C1715 1.393 . S
C1719 C1718 1.391 . S
H1720 C1728 0.950 . S
H1721 C1733 0.950 . S
H1722 C1730 0.950 . S
H1723 C1732 0.950 . S
H1724 C1734 0.950 . S
H1725 C1736 0.950 . S
H1726 C1738 0.950 . S
H1727 C1739 0.950 . S
C1728 H1720 0.950 . S
C1728 C1729 1.386 . S
C1728 C1730 1.391 . S
C1729 C1728 1.386 . S
C1729 C1733 1.393 . S
C1730 H1722 0.950 . S
C1730 C1728 1.391 . S
C1730 C1731 1.400 . S
C1731 C1730 1.400 . S
C1731 C1732 1.398 . S
C1731 C1737 1.491 . S
C1732 H1723 0.950 . S
C1732 C1731 1.398 . S
C1732 C1733 1.391 . S
C1733 H1721 0.950 . S
C1733 C1729 1.393 . S
C1733 C1732 1.391 . S
C1734 H1724 0.950 . S
C1734 C1735 1.386 . S
C1734 C1736 1.391 . S
C1735 C1734 1.386 . S
C1735 C1739 1.393 . S
C1736 H1725 0.950 . S
C1736 C1734 1.391 . S
C1736 C1737 1.400 . S
C1737 C1731 1.491 . S
C1737 C1736 1.400 . S
C1737 C1738 1.398 . S
C1738 H1726 0.950 . S
C1738 C1737 1.398 . S
C1738 C1739 1.391 . S
C1739 H1727 0.950 . S
C1739 C1735 1.393 . S
C1739 C1738 1.391 . S
H1740 C1748 0.950 . S
H1741 C1753 0.950 . S
H1742 C1750 0.950 . S
H1743 C1752 0.950 . S
H1744 C1754 0.950 . S
H1745 C1756 0.950 . S
H1746 C1758 0.950 . S
H1747 C1759 0.950 . S
C1748 H1740 0.950 . S
C1748 C1749 1.386 . S
C1748 C1750 1.391 . S
C1749 C1748 1.386 . S
C1749 C1753 1.393 . S
C1750 H1742 0.950 . S
C1750 C1748 1.391 . S
C1750 C1751 1.400 . S
C1751 C1750 1.400 . S
C1751 C1752 1.398 . S
C1751 C1757 1.491 . S
C1752 H1743 0.950 . S
C1752 C1751 1.398 . S
C1752 C1753 1.391 . S
C1753 H1741 0.950 . S
C1753 C1749 1.393 . S
C1753 C1752 1.391 . S
C1754 H1744 0.950 . S
C1754 C1755 1.386 . S
C1754 C1756 1.391 . S
C1755 C1754 1.386 . S
C1755 C1759 1.393 . S
C1756 H1745 0.950 . S
C1756 C1754 1.391 . S
C1756 C1757 1.400 . S
C1757 C1751 1.491 . S
C1757 C1756 1.400 . S
C1757 C1758 1.398 . S
C1758 H1746 0.950 . S
C1758 C1757 1.398 . S
C1758 C1759 1.391 . S
C1759 H1747 0.950 . S
C1759 C1755 1.393 . S
C1759 C1758 1.391 . S
H1760 C1768 0.950 . S
H1761 C1773 0.940 1_655 S
H1762 C1770 0.950 . S
H1763 C1772 0.950 . S
H1764 C1774 0.950 . S
H1765 C1776 0.950 . S
H1766 C1778 0.950 . S
H1767 C1779 0.950 . S
C1768 H1760 0.950 . S
C1768 C1769 1.386 . S
C1768 C1770 1.391 . S
C1769 C1768 1.386 . S
C1769 C1773 1.393 . S
C1770 H1762 0.950 . S
C1770 C1768 1.391 . S
C1770 C1771 1.400 . S
C1771 C1770 1.400 . S
C1771 C1772 1.398 . S
C1771 C1777 1.491 . S
C1772 H1763 0.950 . S
C1772 C1771 1.398 . S
C1772 C1773 1.391 . S
C1773 H1761 0.940 1_455 S
C1773 C1769 1.393 . S
C1773 C1772 1.391 . S
C1774 H1764 0.950 . S
C1774 C1775 1.386 . S
C1774 C1776 1.391 . S
C1775 C1774 1.386 . S
C1775 C1779 1.393 . S
C1776 H1765 0.950 . S
C1776 C1774 1.391 . S
C1776 C1777 1.400 . S
C1777 C1771 1.491 . S
C1777 C1776 1.400 . S
C1777 C1778 1.398 . S
C1778 H1766 0.950 . S
C1778 C1777 1.398 . S
C1778 C1779 1.391 . S
C1779 H1767 0.950 . S
C1779 C1775 1.393 . S
C1779 C1778 1.391 . S
H1780 C1788 0.950 . S
H1781 C1793 0.950 . S
H1782 C1790 0.950 . S
H1783 C1792 0.950 . S
H1784 C1794 0.950 . S
H1785 C1796 0.950 . S
H1786 C1798 0.950 . S
H1787 C1799 0.950 . S
C1788 H1780 0.950 . S
C1788 C1789 1.386 . S
C1788 C1790 1.391 . S
C1789 C1788 1.386 . S
C1789 C1793 1.393 . S
C1790 H1782 0.950 . S
C1790 C1788 1.391 . S
C1790 C1791 1.400 . S
C1791 C1790 1.400 . S
C1791 C1792 1.398 . S
C1791 C1797 1.491 . S
C1792 H1783 0.950 . S
C1792 C1791 1.398 . S
C1792 C1793 1.391 . S
C1793 H1781 0.950 . S
C1793 C1789 1.393 . S
C1793 C1792 1.391 . S
C1794 H1784 0.950 . S
C1794 C1795 1.386 . S
C1794 C1796 1.391 . S
C1795 C1794 1.386 . S
C1795 C1799 1.393 . S
C1796 H1785 0.950 . S
C1796 C1794 1.391 . S
C1796 C1797 1.400 . S
C1797 C1791 1.491 . S
C1797 C1796 1.400 . S
C1797 C1798 1.398 . S
C1798 H1786 0.950 . S
C1798 C1797 1.398 . S
C1798 C1799 1.391 . S
C1799 H1787 0.950 . S
C1799 C1795 1.393 . S
C1799 C1798 1.391 . S
H1800 C1808 0.950 . S
H1801 C1813 0.950 . S
H1802 C1810 0.950 . S
H1803 C1812 0.950 . S
H1804 C1814 0.950 . S
H1805 C1816 0.950 . S
H1806 C1818 0.950 . S
H1807 C1819 0.950 . S
C1808 H1800 0.950 . S
C1808 C1809 1.386 . S
C1808 C1810 1.391 . S
C1809 C1808 1.386 . S
C1809 C1813 1.393 . S
C1810 H1802 0.950 . S
C1810 C1808 1.391 . S
C1810 C1811 1.400 . S
C1811 C1810 1.400 . S
C1811 C1812 1.398 . S
C1811 C1817 1.491 . S
C1812 H1803 0.950 . S
C1812 C1811 1.398 . S
C1812 C1813 1.391 . S
C1813 H1801 0.950 . S
C1813 C1809 1.393 . S
C1813 C1812 1.391 . S
C1814 H1804 0.950 . S
C1814 C1815 1.386 . S
C1814 C1816 1.391 . S
C1815 C1814 1.386 . S
C1815 C1819 1.393 . S
C1816 H1805 0.950 . S
C1816 C1814 1.391 . S
C1816 C1817 1.400 . S
C1817 C1811 1.491 . S
C1817 C1816 1.400 . S
C1817 C1818 1.398 . S
C1818 H1806 0.950 . S
C1818 C1817 1.398 . S
C1818 C1819 1.391 . S
C1819 H1807 0.950 . S
C1819 C1815 1.393 . S
C1819 C1818 1.391 . S
H1820 C1828 0.950 . S
H1821 C1833 0.950 . S
H1822 C1830 0.950 . S
H1823 C1832 0.950 . S
H1824 C1834 0.950 . S
H1825 C1836 0.950 . S
H1826 C1838 0.950 . S
H1827 C1839 0.950 . S
C1828 H1820 0.950 . S
C1828 C1829 1.386 . S
C1828 C1830 1.391 . S
C1829 C1828 1.386 . S
C1829 C1833 1.393 . S
C1830 H1822 0.950 . S
C1830 C1828 1.391 . S
C1830 C1831 1.400 . S
C1831 C1830 1.400 . S
C1831 C1832 1.398 . S
C1831 C1837 1.491 . S
C1832 H1823 0.950 . S
C1832 C1831 1.398 . S
C1832 C1833 1.391 . S
C1833 H1821 0.950 . S
C1833 C1829 1.393 . S
C1833 C1832 1.391 . S
C1834 H1824 0.950 . S
C1834 C1835 1.386 . S
C1834 C1836 1.391 . S
C1835 C1834 1.386 . S
C1835 C1839 1.393 . S
C1836 H1825 0.950 . S
C1836 C1834 1.391 . S
C1836 C1837 1.400 . S
C1837 C1831 1.491 . S
C1837 C1836 1.400 . S
C1837 C1838 1.398 . S
C1838 H1826 0.950 . S
C1838 C1837 1.398 . S
C1838 C1839 1.391 . S
C1839 H1827 0.950 . S
C1839 C1835 1.393 . S
C1839 C1838 1.391 . S
H1840 C1848 0.950 . S
H1841 C1853 0.950 . S
H1842 C1850 0.950 . S
H1843 C1852 0.950 . S
H1844 C1854 0.950 . S
H1845 C1856 0.950 . S
H1846 C1858 0.950 . S
H1847 C1859 0.950 . S
C1848 H1840 0.950 . S
C1848 C1849 1.386 . S
C1848 C1850 1.391 . S
C1849 C1848 1.386 . S
C1849 C1853 1.393 . S
C1850 H1842 0.950 . S
C1850 C1848 1.391 . S
C1850 C1851 1.400 . S
C1851 C1850 1.400 . S
C1851 C1852 1.398 . S
C1851 C1857 1.491 . S
C1852 H1843 0.950 . S
C1852 C1851 1.398 . S
C1852 C1853 1.391 . S
C1853 H1841 0.950 . S
C1853 C1849 1.393 . S
C1853 C1852 1.391 . S
C1854 H1844 0.950 . S
C1854 C1855 1.386 1_655 S
C1854 C1856 1.391 . S
C1855 C1854 1.386 1_455 S
C1855 C1859 1.393 . S
C1856 H1845 0.950 . S
C1856 C1854 1.391 . S
C1856 C1857 1.400 . S
C1857 C1851 1.491 . S
C1857 C1856 1.400 . S
C1857 C1858 1.398 1_655 S
C1858 H1846 0.950 . S
C1858 C1857 1.398 1_455 S
C1858 C1859 1.391 . S
C1859 H1847 0.950 . S
C1859 C1855 1.393 . S
C1859 C1858 1.391 . S
H1860 C1868 0.950 . S
H1861 C1873 0.950 . S
H1862 C1870 0.950 . S
H1863 C1872 0.950 . S
H1864 C1874 0.950 . S
H1865 C1876 0.950 . S
H1866 C1878 0.950 . S
H1867 C1879 0.950 . S
C1868 H1860 0.950 . S
C1868 C1869 1.386 . S
C1868 C1870 1.391 . S
C1869 C1868 1.386 . S
C1869 C1873 1.393 . S
C1870 H1862 0.950 . S
C1870 C1868 1.391 . S
C1870 C1871 1.400 . S
C1871 C1870 1.400 . S
C1871 C1872 1.398 . S
C1871 C1877 1.491 . S
C1872 H1863 0.950 . S
C1872 C1871 1.398 . S
C1872 C1873 1.391 . S
C1873 H1861 0.950 . S
C1873 C1869 1.393 . S
C1873 C1872 1.391 . S
C1874 H1864 0.950 . S
C1874 C1875 1.386 . S
C1874 C1876 1.391 . S
C1875 C1874 1.386 . S
C1875 C1879 1.393 . S
C1876 H1865 0.950 . S
C1876 C1874 1.391 . S
C1876 C1877 1.400 . S
C1877 C1871 1.491 . S
C1877 C1876 1.400 . S
C1877 C1878 1.398 . S
C1878 H1866 0.950 . S
C1878 C1877 1.398 . S
C1878 C1879 1.391 . S
C1879 H1867 0.950 . S
C1879 C1875 1.393 . S
C1879 C1878 1.391 . S
H1880 C1888 0.950 . S
H1881 C1893 0.950 . S
H1882 C1890 0.950 . S
H1883 C1892 0.950 . S
H1884 C1894 0.950 . S
H1885 C1896 0.950 . S
H1886 C1898 0.950 . S
H1887 C1899 0.950 . S
C1888 H1880 0.950 . S
C1888 C1889 1.386 . S
C1888 C1890 1.391 . S
C1889 C1888 1.386 . S
C1889 C1893 1.393 . S
C1890 H1882 0.950 . S
C1890 C1888 1.391 . S
C1890 C1891 1.400 . S
C1891 C1890 1.400 . S
C1891 C1892 1.398 . S
C1891 C1897 1.491 . S
C1892 H1883 0.950 . S
C1892 C1891 1.398 . S
C1892 C1893 1.391 . S
C1893 H1881 0.950 . S
C1893 C1889 1.393 . S
C1893 C1892 1.391 . S
C1894 H1884 0.950 . S
C1894 C1895 1.386 . S
C1894 C1896 1.391 . S
C1895 C1894 1.386 . S
C1895 C1899 1.393 . S
C1896 H1885 0.950 . S
C1896 C1894 1.391 . S
C1896 C1897 1.400 . S
C1897 C1891 1.491 . S
C1897 C1896 1.400 . S
C1897 C1898 1.398 . S
C1898 H1886 0.950 . S
C1898 C1897 1.398 . S
C1898 C1899 1.391 . S
C1899 H1887 0.950 . S
C1899 C1895 1.393 . S
C1899 C1898 1.391 . S
H1900 C1908 0.950 . S
H1901 C1913 0.950 . S
H1902 C1910 0.950 . S
H1903 C1912 0.950 . S
H1904 C1914 0.950 . S
H1905 C1916 0.950 . S
H1906 C1918 0.950 . S
H1907 C1919 0.950 . S
C1908 H1900 0.950 . S
C1908 C1909 1.386 . S
C1908 C1910 1.391 . S
C1909 C1908 1.386 . S
C1909 C1913 1.393 . S
C1910 H1902 0.950 . S
C1910 C1908 1.391 . S
C1910 C1911 1.400 . S
C1911 C1910 1.400 . S
C1911 C1912 1.398 . S
C1911 C1917 1.491 . S
C1912 H1903 0.950 . S
C1912 C1911 1.398 . S
C1912 C1913 1.391 . S
C1913 H1901 0.950 . S
C1913 C1909 1.393 . S
C1913 C1912 1.391 . S
C1914 H1904 0.950 . S
C1914 C1915 1.386 . S
C1914 C1916 1.391 . S
C1915 C1914 1.386 . S
C1915 C1919 1.393 . S
C1916 H1905 0.950 . S
C1916 C1914 1.391 . S
C1916 C1917 1.400 . S
C1917 C1911 1.491 . S
C1917 C1916 1.400 . S
C1917 C1918 1.398 . S
C1918 H1906 0.950 . S
C1918 C1917 1.398 . S
C1918 C1919 1.391 . S
C1919 H1907 0.950 . S
C1919 C1915 1.393 . S
C1919 C1918 1.391 . S
H1920 C1928 0.950 . S
H1921 C1933 0.950 . S
H1922 C1930 0.950 1_455 S
H1923 C1932 0.950 . S
H1924 C1934 0.950 . S
H1925 C1936 0.950 . S
H1926 C1938 0.950 . S
H1927 C1939 0.950 . S
C1928 H1920 0.950 . S
C1928 C1929 1.386 . S
C1928 C1930 1.391 . S
C1929 C1928 1.386 . S
C1929 C1933 1.393 . S
C1930 H1922 0.950 1_655 S
C1930 C1928 1.391 . S
C1930 C1931 1.400 . S
C1931 C1930 1.400 . S
C1931 C1932 1.398 . S
C1931 C1937 1.491 . S
C1932 H1923 0.950 . S
C1932 C1931 1.398 . S
C1932 C1933 1.391 . S
C1933 H1921 0.950 . S
C1933 C1929 1.393 . S
C1933 C1932 1.391 . S
C1934 H1924 0.950 . S
C1934 C1935 1.386 1_655 S
C1934 C1936 1.391 . S
C1935 C1934 1.386 1_455 S
C1935 C1939 1.393 . S
C1936 H1925 0.950 . S
C1936 C1934 1.391 . S
C1936 C1937 1.400 . S
C1937 C1931 1.491 . S
C1937 C1936 1.400 . S
C1937 C1938 1.398 1_655 S
C1938 H1926 0.950 . S
C1938 C1937 1.398 1_455 S
C1938 C1939 1.391 . S
C1939 H1927 0.950 . S
C1939 C1935 1.393 . S
C1939 C1938 1.391 . S
H1940 C1948 0.950 . S
H1941 C1953 0.950 . S
H1942 C1950 0.950 . S
H1943 C1952 0.950 . S
H1944 C1954 0.950 . S
H1945 C1956 0.950 . S
H1946 C1958 0.950 . S
H1947 C1959 0.950 . S
C1948 H1940 0.950 . S
C1948 C1949 1.386 . S
C1948 C1950 1.391 . S
C1949 C1948 1.386 . S
C1949 C1953 1.393 . S
C1950 H1942 0.950 . S
C1950 C1948 1.391 . S
C1950 C1951 1.400 . S
C1951 C1950 1.400 . S
C1951 C1952 1.398 . S
C1951 C1957 1.491 . S
C1952 H1943 0.950 . S
C1952 C1951 1.398 . S
C1952 C1953 1.391 . S
C1953 H1941 0.950 . S
C1953 C1949 1.393 . S
C1953 C1952 1.391 . S
C1954 H1944 0.950 . S
C1954 C1955 1.386 . S
C1954 C1956 1.391 . S
C1955 C1954 1.386 . S
C1955 C1959 1.393 . S
C1956 H1945 0.950 . S
C1956 C1954 1.391 . S
C1956 C1957 1.400 . S
C1957 C1951 1.491 . S
C1957 C1956 1.400 . S
C1957 C1958 1.398 . S
C1958 H1946 0.950 . S
C1958 C1957 1.398 . S
C1958 C1959 1.391 . S
C1959 H1947 0.950 . S
C1959 C1955 1.393 . S
C1959 C1958 1.391 . S
H1960 C1968 0.950 . S
H1961 C1973 0.950 . S
H1962 C1970 0.950 . S
H1963 C1972 0.950 . S
H1964 C1974 0.950 . S
H1965 C1976 0.950 . S
H1966 C1978 0.950 . S
H1967 C1979 0.950 . S
C1968 H1960 0.950 . S
C1968 C1969 1.386 . S
C1968 C1970 1.391 . S
C1969 C1968 1.386 . S
C1969 C1973 1.393 . S
C1970 H1962 0.950 . S
C1970 C1968 1.391 . S
C1970 C1971 1.400 . S
C1971 C1970 1.400 . S
C1971 C1972 1.398 . S
C1971 C1977 1.491 . S
C1972 H1963 0.950 . S
C1972 C1971 1.398 . S
C1972 C1973 1.391 . S
C1973 H1961 0.950 . S
C1973 C1969 1.393 . S
C1973 C1972 1.391 . S
C1974 H1964 0.950 . S
C1974 C1975 1.386 . S
C1974 C1976 1.391 . S
C1975 C1974 1.386 . S
C1975 C1979 1.393 . S
C1976 H1965 0.950 . S
C1976 C1974 1.391 . S
C1976 C1977 1.400 . S
C1977 C1971 1.491 . S
C1977 C1976 1.400 . S
C1977 C1978 1.398 . S
C1978 H1966 0.950 . S
C1978 C1977 1.398 . S
C1978 C1979 1.391 . S
C1979 H1967 0.950 . S
C1979 C1975 1.393 . S
C1979 C1978 1.391 . S
H1980 C1988 0.950 . S
H1981 C1993 0.950 . S
H1982 C1990 0.950 . S
H1983 C1992 0.950 . S
H1984 C1994 0.950 . S
H1985 C1996 0.950 . S
H1986 C1998 0.950 . S
H1987 C1999 0.950 . S
C1988 H1980 0.950 . S
C1988 C1989 1.386 . S
C1988 C1990 1.391 . S
C1989 C1988 1.386 . S
C1989 C1993 1.393 . S
C1990 H1982 0.950 . S
C1990 C1988 1.391 . S
C1990 C1991 1.400 . S
C1991 C1990 1.400 . S
C1991 C1992 1.398 . S
C1991 C1997 1.491 . S
C1992 H1983 0.950 . S
C1992 C1991 1.398 . S
C1992 C1993 1.391 . S
C1993 H1981 0.950 . S
C1993 C1989 1.393 . S
C1993 C1992 1.391 . S
C1994 H1984 0.950 . S
C1994 C1995 1.386 . S
C1994 C1996 1.391 . S
C1995 C1994 1.386 . S
C1995 C1999 1.393 . S
C1996 H1985 0.950 . S
C1996 C1994 1.391 . S
C1996 C1997 1.400 . S
C1997 C1991 1.491 . S
C1997 C1996 1.400 . S
C1997 C1998 1.398 . S
C1998 H1986 0.950 . S
C1998 C1997 1.398 . S
C1998 C1999 1.391 . S
C1999 H1987 0.950 . S
C1999 C1995 1.393 . S
C1999 C1998 1.391 . S
H2000 C2008 0.950 . S
H2001 C2013 0.950 . S
H2002 C2010 0.950 . S
H2003 C2012 0.950 . S
H2004 C2014 0.950 . S
H2005 C2016 0.955 1_556 S
H2006 C2018 0.950 . S
H2007 C2019 0.950 . S
C2008 H2000 0.950 . S
C2008 C2009 1.383 1_554 S
C2008 C2010 1.391 . S
C2009 C2008 1.383 1_556 S
C2009 C2013 1.394 . S
C2010 H2002 0.950 . S
C2010 C2008 1.391 . S
C2010 C2011 1.400 . S
C2011 C2010 1.400 . S
C2011 C2012 1.398 1_554 S
C2011 C2017 1.491 . S
C2012 H2003 0.950 . S
C2012 C2011 1.398 1_556 S
C2012 C2013 1.391 . S
C2013 H2001 0.950 . S
C2013 C2009 1.394 . S
C2013 C2012 1.391 . S
C2014 H2004 0.950 . S
C2014 C2015 1.386 1_545 S
C2014 C2016 1.391 1_545 S
C2015 C2014 1.386 1_565 S
C2015 C2019 1.393 . S
C2016 H2005 0.955 1_554 S
C2016 C2014 1.391 1_565 S
C2016 C2017 1.400 . S
C2017 C2011 1.491 . S
C2017 C2016 1.400 . S
C2017 C2018 1.398 . S
C2018 H2006 0.950 . S
C2018 C2017 1.398 . S
C2018 C2019 1.391 . S
C2019 H2007 0.950 . S
C2019 C2015 1.393 . S
C2019 C2018 1.391 . S
H2020 C2028 0.950 . S
H2021 C2033 0.950 . S
H2022 C2030 0.950 . S
H2023 C2032 0.950 . S
H2024 C2034 0.950 . S
H2025 C2036 0.950 . S
H2026 C2038 0.950 . S
H2027 C2039 0.950 . S
C2028 H2020 0.950 . S
C2028 C2029 1.386 . S
C2028 C2030 1.391 . S
C2029 C2028 1.386 . S
C2029 C2033 1.393 1_554 S
C2030 H2022 0.950 . S
C2030 C2028 1.391 . S
C2030 C2031 1.400 . S
C2031 C2030 1.400 . S
C2031 C2032 1.398 1_554 S
C2031 C2037 1.491 . S
C2032 H2023 0.950 . S
C2032 C2031 1.398 1_556 S
C2032 C2033 1.391 . S
C2033 H2021 0.950 . S
C2033 C2029 1.393 1_556 S
C2033 C2032 1.391 . S
C2034 H2024 0.950 . S
C2034 C2035 1.386 1_556 S
C2034 C2036 1.391 . S
C2035 C2034 1.386 1_554 S
C2035 C2039 1.393 . S
C2036 H2025 0.950 . S
C2036 C2034 1.391 . S
C2036 C2037 1.400 1_556 S
C2037 C2031 1.491 . S
C2037 C2036 1.400 1_554 S
C2037 C2038 1.398 . S
C2038 H2026 0.950 . S
C2038 C2037 1.398 . S
C2038 C2039 1.391 . S
C2039 H2027 0.950 . S
C2039 C2035 1.393 . S
C2039 C2038 1.391 . S
H2040 C2048 0.950 . S
H2041 C2053 0.950 . S
H2042 C2050 0.950 . S
H2043 C2052 0.950 . S
H2044 C2054 0.950 . S
H2045 C2056 0.950 . S
H2046 C2058 0.950 . S
H2047 C2059 0.950 . S
C2048 H2040 0.950 . S
C2048 C2049 1.386 . S
C2048 C2050 1.391 . S
C2049 C2048 1.386 . S
C2049 C2053 1.393 . S
C2050 H2042 0.950 . S
C2050 C2048 1.391 . S
C2050 C2051 1.400 . S
C2051 C2050 1.400 . S
C2051 C2052 1.398 . S
C2051 C2057 1.491 . S
C2052 H2043 0.950 . S
C2052 C2051 1.398 . S
C2052 C2053 1.391 . S
C2053 H2041 0.950 . S
C2053 C2049 1.393 . S
C2053 C2052 1.391 . S
C2054 H2044 0.950 . S
C2054 C2055 1.386 . S
C2054 C2056 1.391 . S
C2055 C2054 1.386 . S
C2055 C2059 1.393 . S
C2056 H2045 0.950 . S
C2056 C2054 1.391 . S
C2056 C2057 1.400 . S
C2057 C2051 1.491 . S
C2057 C2056 1.400 . S
C2057 C2058 1.398 . S
C2058 H2046 0.950 . S
C2058 C2057 1.398 . S
C2058 C2059 1.391 . S
C2059 H2047 0.950 . S
C2059 C2055 1.393 . S
C2059 C2058 1.391 . S
H2060 C2068 0.950 . S
H2061 C2073 0.950 . S
H2062 C2070 0.950 . S
H2063 C2072 0.950 . S
H2064 C2074 0.950 . S
H2065 C2076 0.950 . S
H2066 C2078 0.950 . S
H2067 C2079 0.950 . S
C2068 H2060 0.950 . S
C2068 C2069 1.386 . S
C2068 C2070 1.391 . S
C2069 C2068 1.386 . S
C2069 C2073 1.393 . S
C2070 H2062 0.950 . S
C2070 C2068 1.391 . S
C2070 C2071 1.400 . S
C2071 C2070 1.400 . S
C2071 C2072 1.398 . S
C2071 C2077 1.491 . S
C2072 H2063 0.950 . S
C2072 C2071 1.398 . S
C2072 C2073 1.391 . S
C2073 H2061 0.950 . S
C2073 C2069 1.393 . S
C2073 C2072 1.391 . S
C2074 H2064 0.950 . S
C2074 C2075 1.386 . S
C2074 C2076 1.391 . S
C2075 C2074 1.386 . S
C2075 C2079 1.393 . S
C2076 H2065 0.950 . S
C2076 C2074 1.391 . S
C2076 C2077 1.400 . S
C2077 C2071 1.491 . S
C2077 C2076 1.400 . S
C2077 C2078 1.398 . S
C2078 H2066 0.950 . S
C2078 C2077 1.398 . S
C2078 C2079 1.391 . S
C2079 H2067 0.950 . S
C2079 C2075 1.393 . S
C2079 C2078 1.391 . S
H2080 C2088 0.950 . S
H2081 C2093 0.950 . S
H2082 C2090 0.950 . S
H2083 C2092 0.950 . S
H2084 C2094 0.950 . S
H2085 C2096 0.950 . S
H2086 C2098 0.950 . S
H2087 C2099 0.950 . S
C2088 H2080 0.950 . S
C2088 C2089 1.386 . S
C2088 C2090 1.391 . S
C2089 C2088 1.386 . S
C2089 C2093 1.393 . S
C2090 H2082 0.950 . S
C2090 C2088 1.391 . S
C2090 C2091 1.400 . S
C2091 C2090 1.400 . S
C2091 C2092 1.398 . S
C2091 C2097 1.491 . S
C2092 H2083 0.950 . S
C2092 C2091 1.398 . S
C2092 C2093 1.391 . S
C2093 H2081 0.950 . S
C2093 C2089 1.393 . S
C2093 C2092 1.391 . S
C2094 H2084 0.950 . S
C2094 C2095 1.386 . S
C2094 C2096 1.391 . S
C2095 C2094 1.386 . S
C2095 C2099 1.393 . S
C2096 H2085 0.950 . S
C2096 C2094 1.391 . S
C2096 C2097 1.400 . S
C2097 C2091 1.491 . S
C2097 C2096 1.400 . S
C2097 C2098 1.398 . S
C2098 H2086 0.950 . S
C2098 C2097 1.398 . S
C2098 C2099 1.391 . S
C2099 H2087 0.950 . S
C2099 C2095 1.393 . S
C2099 C2098 1.391 . S
H2100 C2108 0.950 . S
H2101 C2113 0.950 . S
H2102 C2110 0.950 . S
H2103 C2112 0.950 . S
H2104 C2114 0.950 . S
H2105 C2116 0.950 . S
H2106 C2118 0.950 . S
H2107 C2119 0.950 . S
C2108 H2100 0.950 . S
C2108 C2109 1.386 . S
C2108 C2110 1.391 . S
C2109 C2108 1.386 . S
C2109 C2113 1.393 . S
C2110 H2102 0.950 . S
C2110 C2108 1.391 . S
C2110 C2111 1.400 . S
C2111 C2110 1.400 . S
C2111 C2112 1.398 . S
C2111 C2117 1.491 . S
C2112 H2103 0.950 . S
C2112 C2111 1.398 . S
C2112 C2113 1.391 . S
C2113 H2101 0.950 . S
C2113 C2109 1.393 . S
C2113 C2112 1.391 . S
C2114 H2104 0.950 . S
C2114 C2115 1.386 . S
C2114 C2116 1.391 . S
C2115 C2114 1.386 . S
C2115 C2119 1.393 . S
C2116 H2105 0.950 . S
C2116 C2114 1.391 . S
C2116 C2117 1.400 . S
C2117 C2111 1.491 . S
C2117 C2116 1.400 . S
C2117 C2118 1.398 . S
C2118 H2106 0.950 . S
C2118 C2117 1.398 . S
C2118 C2119 1.391 . S
C2119 H2107 0.950 . S
C2119 C2115 1.393 . S
C2119 C2118 1.391 . S
H2120 C2128 0.950 . S
H2121 C2133 0.950 . S
H2122 C2130 0.950 . S
H2123 C2132 0.950 . S
H2124 C2134 0.950 . S
H2125 C2136 0.950 . S
H2126 C2138 0.950 . S
H2127 C2139 0.950 . S
C2128 H2120 0.950 . S
C2128 C2129 1.386 . S
C2128 C2130 1.391 . S
C2129 C2128 1.386 . S
C2129 C2133 1.393 . S
C2130 H2122 0.950 . S
C2130 C2128 1.391 . S
C2130 C2131 1.400 . S
C2131 C2130 1.400 . S
C2131 C2132 1.398 . S
C2131 C2137 1.491 . S
C2132 H2123 0.950 . S
C2132 C2131 1.398 . S
C2132 C2133 1.391 . S
C2133 H2121 0.950 . S
C2133 C2129 1.393 . S
C2133 C2132 1.391 . S
C2134 H2124 0.950 . S
C2134 C2135 1.386 . S
C2134 C2136 1.391 . S
C2135 C2134 1.386 . S
C2135 C2139 1.393 . S
C2136 H2125 0.950 . S
C2136 C2134 1.391 . S
C2136 C2137 1.400 . S
C2137 C2131 1.491 . S
C2137 C2136 1.400 . S
C2137 C2138 1.398 . S
C2138 H2126 0.950 . S
C2138 C2137 1.398 . S
C2138 C2139 1.391 . S
C2139 H2127 0.950 . S
C2139 C2135 1.393 . S
C2139 C2138 1.391 . S
H2140 C2148 0.950 . S
H2141 C2153 0.950 . S
H2142 C2150 0.950 . S
H2143 C2152 0.950 . S
H2144 C2154 0.950 . S
H2145 C2156 0.950 . S
H2146 C2158 0.950 . S
H2147 C2159 0.950 . S
C2148 H2140 0.950 . S
C2148 C2149 1.386 . S
C2148 C2150 1.391 . S
C2149 C2148 1.386 . S
C2149 C2153 1.393 . S
C2150 H2142 0.950 . S
C2150 C2148 1.391 . S
C2150 C2151 1.400 . S
C2151 C2150 1.400 . S
C2151 C2152 1.398 . S
C2151 C2157 1.491 . S
C2152 H2143 0.950 . S
C2152 C2151 1.398 . S
C2152 C2153 1.391 . S
C2153 H2141 0.950 . S
C2153 C2149 1.393 . S
C2153 C2152 1.391 . S
C2154 H2144 0.950 . S
C2154 C2155 1.386 . S
C2154 C2156 1.391 . S
C2155 C2154 1.386 . S
C2155 C2159 1.393 . S
C2156 H2145 0.950 . S
C2156 C2154 1.391 . S
C2156 C2157 1.400 . S
C2157 C2151 1.491 . S
C2157 C2156 1.400 . S
C2157 C2158 1.398 . S
C2158 H2146 0.950 . S
C2158 C2157 1.398 . S
C2158 C2159 1.391 . S
C2159 H2147 0.950 . S
C2159 C2155 1.393 . S
C2159 C2158 1.391 . S
H2160 C2168 0.950 . S
H2161 C2173 0.950 . S
H2162 C2170 0.950 . S
H2163 C2172 0.950 . S
H2164 C2174 0.950 . S
H2165 C2176 0.950 . S
H2166 C2178 0.950 . S
H2167 C2179 0.950 . S
C2168 H2160 0.950 . S
C2168 C2169 1.386 . S
C2168 C2170 1.391 . S
C2169 C2168 1.386 . S
C2169 C2173 1.393 . S
C2170 H2162 0.950 . S
C2170 C2168 1.391 . S
C2170 C2171 1.400 . S
C2171 C2170 1.400 . S
C2171 C2172 1.398 . S
C2171 C2177 1.491 . S
C2172 H2163 0.950 . S
C2172 C2171 1.398 . S
C2172 C2173 1.391 . S
C2173 H2161 0.950 . S
C2173 C2169 1.393 . S
C2173 C2172 1.391 . S
C2174 H2164 0.950 . S
C2174 C2175 1.386 . S
C2174 C2176 1.391 . S
C2175 C2174 1.386 . S
C2175 C2179 1.393 . S
C2176 H2165 0.950 . S
C2176 C2174 1.391 . S
C2176 C2177 1.400 . S
C2177 C2171 1.491 . S
C2177 C2176 1.400 . S
C2177 C2178 1.398 . S
C2178 H2166 0.950 . S
C2178 C2177 1.398 . S
C2178 C2179 1.391 . S
C2179 H2167 0.950 . S
C2179 C2175 1.393 . S
C2179 C2178 1.391 . S
H2180 C2188 0.950 . S
H2181 C2193 0.950 . S
H2182 C2190 0.950 . S
H2183 C2192 0.950 . S
H2184 C2194 0.950 . S
H2185 C2196 0.950 . S
H2186 C2198 0.950 . S
H2187 C2199 0.950 . S
C2188 H2180 0.950 . S
C2188 C2189 1.386 . S
C2188 C2190 1.391 . S
C2189 C2188 1.386 . S
C2189 C2193 1.393 . S
C2190 H2182 0.950 . S
C2190 C2188 1.391 . S
C2190 C2191 1.400 . S
C2191 C2190 1.400 . S
C2191 C2192 1.398 . S
C2191 C2197 1.491 . S
C2192 H2183 0.950 . S
C2192 C2191 1.398 . S
C2192 C2193 1.391 . S
C2193 H2181 0.950 . S
C2193 C2189 1.393 . S
C2193 C2192 1.391 . S
C2194 H2184 0.950 . S
C2194 C2195 1.386 . S
C2194 C2196 1.391 . S
C2195 C2194 1.386 . S
C2195 C2199 1.393 . S
C2196 H2185 0.950 . S
C2196 C2194 1.391 . S
C2196 C2197 1.400 . S
C2197 C2191 1.491 . S
C2197 C2196 1.400 . S
C2197 C2198 1.398 . S
C2198 H2186 0.950 . S
C2198 C2197 1.398 . S
C2198 C2199 1.391 . S
C2199 H2187 0.950 . S
C2199 C2195 1.393 . S
C2199 C2198 1.391 . S
H2200 C2208 0.950 . S
H2201 C2213 0.950 . S
H2202 C2210 0.950 . S
H2203 C2212 0.950 . S
H2204 C2214 0.950 . S
H2205 C2216 0.950 . S
H2206 C2218 0.950 . S
H2207 C2219 0.950 . S
C2208 H2200 0.950 . S
C2208 C2209 1.386 . S
C2208 C2210 1.391 . S
C2209 C2208 1.386 . S
C2209 C2213 1.393 . S
C2210 H2202 0.950 . S
C2210 C2208 1.391 . S
C2210 C2211 1.400 . S
C2211 C2210 1.400 . S
C2211 C2212 1.398 . S
C2211 C2217 1.491 . S
C2212 H2203 0.950 . S
C2212 C2211 1.398 . S
C2212 C2213 1.391 . S
C2213 H2201 0.950 . S
C2213 C2209 1.393 . S
C2213 C2212 1.391 . S
C2214 H2204 0.950 . S
C2214 C2215 1.386 . S
C2214 C2216 1.391 . S
C2215 C2214 1.386 . S
C2215 C2219 1.393 . S
C2216 H2205 0.950 . S
C2216 C2214 1.391 . S
C2216 C2217 1.400 . S
C2217 C2211 1.491 . S
C2217 C2216 1.400 . S
C2217 C2218 1.398 . S
C2218 H2206 0.950 . S
C2218 C2217 1.398 . S
C2218 C2219 1.391 . S
C2219 H2207 0.950 . S
C2219 C2215 1.393 . S
C2219 C2218 1.391 . S
H2220 C2228 0.950 . S
H2221 C2233 0.950 . S
H2222 C2230 0.950 . S
H2223 C2232 0.950 . S
H2224 C2234 0.950 . S
H2225 C2236 0.950 . S
H2226 C2238 0.950 . S
H2227 C2239 0.950 . S
C2228 H2220 0.950 . S
C2228 C2229 1.386 . S
C2228 C2230 1.391 . S
C2229 C2228 1.386 . S
C2229 C2233 1.393 . S
C2230 H2222 0.950 . S
C2230 C2228 1.391 . S
C2230 C2231 1.400 . S
C2231 C2230 1.400 . S
C2231 C2232 1.398 . S
C2231 C2237 1.491 . S
C2232 H2223 0.950 . S
C2232 C2231 1.398 . S
C2232 C2233 1.391 . S
C2233 H2221 0.950 . S
C2233 C2229 1.393 . S
C2233 C2232 1.391 . S
C2234 H2224 0.950 . S
C2234 C2235 1.386 . S
C2234 C2236 1.391 . S
C2235 C2234 1.386 . S
C2235 C2239 1.393 . S
C2236 H2225 0.950 . S
C2236 C2234 1.391 . S
C2236 C2237 1.400 . S
C2237 C2231 1.491 . S
C2237 C2236 1.400 . S
C2237 C2238 1.398 . S
C2238 H2226 0.950 . S
C2238 C2237 1.398 . S
C2238 C2239 1.391 . S
C2239 H2227 0.950 . S
C2239 C2235 1.393 . S
C2239 C2238 1.391 . S
H2240 C2248 0.950 . S
H2241 C2253 0.950 . S
H2242 C2250 0.950 . S
H2243 C2252 0.950 . S
H2244 C2254 0.950 1_655 S
H2245 C2256 0.946 . S
H2246 C2258 0.950 . S
H2247 C2259 0.950 . S
C2248 H2240 0.950 . S
C2248 C2249 1.386 . S
C2248 C2250 1.391 . S
C2249 C2248 1.386 . S
C2249 C2253 1.393 . S
C2250 H2242 0.950 . S
C2250 C2248 1.391 . S
C2250 C2251 1.400 . S
C2251 C2250 1.400 . S
C2251 C2252 1.398 . S
C2251 C2257 1.491 . S
C2252 H2243 0.950 . S
C2252 C2251 1.398 . S
C2252 C2253 1.391 . S
C2253 H2241 0.950 . S
C2253 C2249 1.393 . S
C2253 C2252 1.391 . S
C2254 H2244 0.950 1_455 S
C2254 C2255 1.386 . S
C2254 C2256 1.391 . S
C2255 C2254 1.386 . S
C2255 C2259 1.393 . S
C2256 H2245 0.946 . S
C2256 C2254 1.391 . S
C2256 C2257 1.400 . S
C2257 C2251 1.491 . S
C2257 C2256 1.400 . S
C2257 C2258 1.398 . S
C2258 H2246 0.950 . S
C2258 C2257 1.398 . S
C2258 C2259 1.391 . S
C2259 H2247 0.950 . S
C2259 C2255 1.393 . S
C2259 C2258 1.391 . S
H2260 C2268 0.950 . S
H2261 C2273 0.950 . S
H2262 C2270 0.950 . S
H2263 C2272 0.950 . S
H2264 C2274 0.950 . S
H2265 C2276 0.950 . S
H2266 C2278 0.950 . S
H2267 C2279 0.950 . S
C2268 H2260 0.950 . S
C2268 C2269 1.386 . S
C2268 C2270 1.391 . S
C2269 C2268 1.386 . S
C2269 C2273 1.393 . S
C2270 H2262 0.950 . S
C2270 C2268 1.391 . S
C2270 C2271 1.400 . S
C2271 C2270 1.400 . S
C2271 C2272 1.398 . S
C2271 C2277 1.491 . S
C2272 H2263 0.950 . S
C2272 C2271 1.398 . S
C2272 C2273 1.391 . S
C2273 H2261 0.950 . S
C2273 C2269 1.393 . S
C2273 C2272 1.391 . S
C2274 H2264 0.950 . S
C2274 C2275 1.386 . S
C2274 C2276 1.391 . S
C2275 C2274 1.386 . S
C2275 C2279 1.393 . S
C2276 H2265 0.950 . S
C2276 C2274 1.391 . S
C2276 C2277 1.400 . S
C2277 C2271 1.491 . S
C2277 C2276 1.400 . S
C2277 C2278 1.398 . S
C2278 H2266 0.950 . S
C2278 C2277 1.398 . S
C2278 C2279 1.391 . S
C2279 H2267 0.950 . S
C2279 C2275 1.393 . S
C2279 C2278 1.391 . S
H2280 C2288 0.950 . S
H2281 C2293 0.950 . S
H2282 C2290 0.950 . S
H2283 C2292 0.950 . S
H2284 C2294 0.950 . S
H2285 C2296 0.950 . S
H2286 C2298 0.950 . S
H2287 C2299 0.990 . S
C2288 H2280 0.950 . S
C2288 C2289 1.386 . S
C2288 C2290 1.391 . S
C2289 C2288 1.386 . S
C2289 C2293 1.393 . S
C2290 H2282 0.950 . S
C2290 C2288 1.391 . S
C2290 C2291 1.400 . S
C2291 C2290 1.400 . S
C2291 C2292 1.398 . S
C2291 C2297 1.491 . S
C2292 H2283 0.950 . S
C2292 C2291 1.398 . S
C2292 C2293 1.391 . S
C2293 H2281 0.950 . S
C2293 C2289 1.393 . S
C2293 C2292 1.391 . S
C2294 H2284 0.950 . S
C2294 C2295 1.386 . S
C2294 C2296 1.391 . S
C2295 C2294 1.386 . S
C2295 C2299 1.393 . S
C2296 H2285 0.950 . S
C2296 C2294 1.391 . S
C2296 C2297 1.400 . S
C2297 C2291 1.491 . S
C2297 C2296 1.400 . S
C2297 C2298 1.398 . S
C2298 H2286 0.950 . S
C2298 C2297 1.398 . S
C2298 C2299 1.391 . S
C2299 H2287 0.990 . S
C2299 C2295 1.393 . S
C2299 C2298 1.391 . S
H2300 C2308 0.950 . S
H2301 C2313 0.950 . S
H2302 C2310 0.950 . S
H2303 C2312 0.950 . S
H2304 C2314 0.950 . S
H2305 C2316 0.950 . S
H2306 C2318 0.950 . S
H2307 C2319 0.950 . S
C2308 H2300 0.950 . S
C2308 C2309 1.386 . S
C2308 C2310 1.391 . S
C2309 C2308 1.386 . S
C2309 C2313 1.393 . S
C2310 H2302 0.950 . S
C2310 C2308 1.391 . S
C2310 C2311 1.400 . S
C2311 C2310 1.400 . S
C2311 C2312 1.398 . S
C2311 C2317 1.491 . S
C2312 H2303 0.950 . S
C2312 C2311 1.398 . S
C2312 C2313 1.391 . S
C2313 H2301 0.950 . S
C2313 C2309 1.393 . S
C2313 C2312 1.391 . S
C2314 H2304 0.950 . S
C2314 C2315 1.386 . S
C2314 C2316 1.391 . S
C2315 C2314 1.386 . S
C2315 C2319 1.393 . S
C2316 H2305 0.950 . S
C2316 C2314 1.391 . S
C2316 C2317 1.400 . S
C2317 C2311 1.491 . S
C2317 C2316 1.400 . S
C2317 C2318 1.398 . S
C2318 H2306 0.950 . S
C2318 C2317 1.398 . S
C2318 C2319 1.391 . S
C2319 H2307 0.950 . S
C2319 C2315 1.393 . S
C2319 C2318 1.391 . S
H2320 C2328 0.950 . S
H2321 C2333 0.950 . S
H2322 C2330 0.950 . S
H2323 C2332 0.950 . S
H2324 C2334 0.950 . S
H2325 C2336 0.950 . S
H2326 C2338 0.950 . S
H2327 C2339 0.950 . S
C2328 H2320 0.950 . S
C2328 C2329 1.386 . S
C2328 C2330 1.391 . S
C2329 C2328 1.386 . S
C2329 C2333 1.393 . S
C2330 H2322 0.950 . S
C2330 C2328 1.391 . S
C2330 C2331 1.400 . S
C2331 C2330 1.400 . S
C2331 C2332 1.398 . S
C2331 C2337 1.491 . S
C2332 H2323 0.950 . S
C2332 C2331 1.398 . S
C2332 C2333 1.391 . S
C2333 H2321 0.950 . S
C2333 C2329 1.393 . S
C2333 C2332 1.391 . S
C2334 H2324 0.950 . S
C2334 C2335 1.386 . S
C2334 C2336 1.391 . S
C2335 C2334 1.386 . S
C2335 C2339 1.393 . S
C2336 H2325 0.950 . S
C2336 C2334 1.391 . S
C2336 C2337 1.400 . S
C2337 C2331 1.491 . S
C2337 C2336 1.400 . S
C2337 C2338 1.398 . S
C2338 H2326 0.950 . S
C2338 C2337 1.398 . S
C2338 C2339 1.391 . S
C2339 H2327 0.950 . S
C2339 C2335 1.393 . S
C2339 C2338 1.391 . S
H2340 C2348 0.950 . S
H2341 C2353 0.950 . S
H2342 C2350 0.950 . S
H2343 C2352 0.950 . S
H2344 C2354 0.950 . S
H2345 C2356 0.950 . S
H2346 C2358 0.950 . S
H2347 C2359 0.950 . S
C2348 H2340 0.950 . S
C2348 C2349 1.386 . S
C2348 C2350 1.391 . S
C2349 C2348 1.386 . S
C2349 C2353 1.393 . S
C2350 H2342 0.950 . S
C2350 C2348 1.391 . S
C2350 C2351 1.400 . S
C2351 C2350 1.400 . S
C2351 C2352 1.398 . S
C2351 C2357 1.491 . S
C2352 H2343 0.950 . S
C2352 C2351 1.398 . S
C2352 C2353 1.391 . S
C2353 H2341 0.950 . S
C2353 C2349 1.393 . S
C2353 C2352 1.391 . S
C2354 H2344 0.950 . S
C2354 C2355 1.386 . S
C2354 C2356 1.391 . S
C2355 C2354 1.386 . S
C2355 C2359 1.393 . S
C2356 H2345 0.950 . S
C2356 C2354 1.391 . S
C2356 C2357 1.400 . S
C2357 C2351 1.491 . S
C2357 C2356 1.400 . S
C2357 C2358 1.398 . S
C2358 H2346 0.950 . S
C2358 C2357 1.398 . S
C2358 C2359 1.391 . S
C2359 H2347 0.950 . S
C2359 C2355 1.393 . S
C2359 C2358 1.391 . S
H2360 C2368 0.950 . S
H2361 C2373 0.950 . S
H2362 C2370 0.950 . S
H2363 C2372 0.950 . S
H2364 C2374 0.950 . S
H2365 C2376 0.950 . S
H2366 C2378 0.950 . S
H2367 C2379 0.950 . S
C2368 H2360 0.950 . S
C2368 C2369 1.386 . S
C2368 C2370 1.391 . S
C2369 C2368 1.386 . S
C2369 C2373 1.393 . S
C2370 H2362 0.950 . S
C2370 C2368 1.391 . S
C2370 C2371 1.400 . S
C2371 C2370 1.400 . S
C2371 C2372 1.398 . S
C2371 C2377 1.491 . S
C2372 H2363 0.950 . S
C2372 C2371 1.398 . S
C2372 C2373 1.391 . S
C2373 H2361 0.950 . S
C2373 C2369 1.393 . S
C2373 C2372 1.391 . S
C2374 H2364 0.950 . S
C2374 C2375 1.386 . S
C2374 C2376 1.391 . S
C2375 C2374 1.386 . S
C2375 C2379 1.393 . S
C2376 H2365 0.950 . S
C2376 C2374 1.391 . S
C2376 C2377 1.400 . S
C2377 C2371 1.491 . S
C2377 C2376 1.400 . S
C2377 C2378 1.398 . S
C2378 H2366 0.950 . S
C2378 C2377 1.398 . S
C2378 C2379 1.391 . S
C2379 H2367 0.950 . S
C2379 C2375 1.393 . S
C2379 C2378 1.391 . S
H2380 C2388 0.950 . S
H2381 C2393 0.950 . S
H2382 C2390 0.950 . S
H2383 C2392 0.950 . S
H2384 C2394 0.950 . S
H2385 C2396 0.950 . S
H2386 C2398 0.950 . S
H2387 C2399 0.950 . S
C2388 H2380 0.950 . S
C2388 C2389 1.386 . S
C2388 C2390 1.391 . S
C2389 C2388 1.386 . S
C2389 C2393 1.393 . S
C2390 H2382 0.950 . S
C2390 C2388 1.391 . S
C2390 C2391 1.400 . S
C2391 C2390 1.400 . S
C2391 C2392 1.398 . S
C2391 C2397 1.491 . S
C2392 H2383 0.950 . S
C2392 C2391 1.398 . S
C2392 C2393 1.391 . S
C2393 H2381 0.950 . S
C2393 C2389 1.393 . S
C2393 C2392 1.391 . S
C2394 H2384 0.950 . S
C2394 C2395 1.386 . S
C2394 C2396 1.391 . S
C2395 C2394 1.386 . S
C2395 C2399 1.393 . S
C2396 H2385 0.950 . S
C2396 C2394 1.391 . S
C2396 C2397 1.400 . S
C2397 C2391 1.491 . S
C2397 C2396 1.400 . S
C2397 C2398 1.398 . S
C2398 H2386 0.950 . S
C2398 C2397 1.398 . S
C2398 C2399 1.391 . S
C2399 H2387 0.950 . S
C2399 C2395 1.393 . S
C2399 C2398 1.391 . S
H2400 C2408 0.950 . S
H2401 C2413 0.950 . S
H2402 C2410 0.950 . S
H2403 C2412 0.950 . S
H2404 C2414 0.950 . S
H2405 C2416 0.950 . S
H2406 C2418 0.950 . S
H2407 C2419 0.950 . S
C2408 H2400 0.950 . S
C2408 C2409 1.386 . S
C2408 C2410 1.391 . S
C2409 C2408 1.386 . S
C2409 C2413 1.393 . S
C2410 H2402 0.950 . S
C2410 C2408 1.391 . S
C2410 C2411 1.400 . S
C2411 C2410 1.400 . S
C2411 C2412 1.398 . S
C2411 C2417 1.491 . S
C2412 H2403 0.950 . S
C2412 C2411 1.398 . S
C2412 C2413 1.391 . S
C2413 H2401 0.950 . S
C2413 C2409 1.393 . S
C2413 C2412 1.391 . S
C2414 H2404 0.950 . S
C2414 C2415 1.386 . S
C2414 C2416 1.391 . S
C2415 C2414 1.386 . S
C2415 C2419 1.393 . S
C2416 H2405 0.950 . S
C2416 C2414 1.391 . S
C2416 C2417 1.400 . S
C2417 C2411 1.491 . S
C2417 C2416 1.400 . S
C2417 C2418 1.398 . S
C2418 H2406 0.950 . S
C2418 C2417 1.398 . S
C2418 C2419 1.391 . S
C2419 H2407 0.950 . S
C2419 C2415 1.393 . S
C2419 C2418 1.391 . S
H2420 C2428 0.950 . S
H2421 C2433 0.950 . S
H2422 C2430 0.950 . S
H2423 C2432 0.950 . S
H2424 C2434 0.950 . S
H2425 C2436 0.950 . S
H2426 C2438 0.950 . S
H2427 C2439 0.950 . S
C2428 H2420 0.950 . S
C2428 C2429 1.386 . S
C2428 C2430 1.391 . S
C2429 C2428 1.386 . S
C2429 C2433 1.393 . S
C2430 H2422 0.950 . S
C2430 C2428 1.391 . S
C2430 C2431 1.400 . S
C2431 C2430 1.400 . S
C2431 C2432 1.398 . S
C2431 C2437 1.491 . S
C2432 H2423 0.950 . S
C2432 C2431 1.398 . S
C2432 C2433 1.391 . S
C2433 H2421 0.950 . S
C2433 C2429 1.393 . S
C2433 C2432 1.391 . S
C2434 H2424 0.950 . S
C2434 C2435 1.386 . S
C2434 C2436 1.391 . S
C2435 C2434 1.386 . S
C2435 C2439 1.393 . S
C2436 H2425 0.950 . S
C2436 C2434 1.391 . S
C2436 C2437 1.400 . S
C2437 C2431 1.491 . S
C2437 C2436 1.400 . S
C2437 C2438 1.398 . S
C2438 H2426 0.950 . S
C2438 C2437 1.398 . S
C2438 C2439 1.391 . S
C2439 H2427 0.950 . S
C2439 C2435 1.393 . S
C2439 C2438 1.391 . S
H2440 C2448 0.950 . S
H2441 C2453 0.950 . S
H2442 C2450 0.950 . S
H2443 C2452 0.950 . S
H2444 C2454 0.950 . S
H2445 C2456 0.950 . S
H2446 C2458 0.950 . S
H2447 C2459 0.950 . S
C2448 H2440 0.950 . S
C2448 C2449 1.386 1_565 S
C2448 C2450 1.391 . S
C2449 C2448 1.386 1_545 S
C2449 C2453 1.393 . S
C2450 H2442 0.950 . S
C2450 C2448 1.391 . S
C2450 C2451 1.400 1_565 S
C2451 C2450 1.400 1_545 S
C2451 C2452 1.398 . S
C2451 C2457 1.491 . S
C2452 H2443 0.950 . S
C2452 C2451 1.398 . S
C2452 C2453 1.391 . S
C2453 H2441 0.950 . S
C2453 C2449 1.393 . S
C2453 C2452 1.391 . S
C2454 H2444 0.950 . S
C2454 C2455 1.386 . S
C2454 C2456 1.391 . S
C2455 C2454 1.386 . S
C2455 C2459 1.393 1_545 S
C2456 H2445 0.950 . S
C2456 C2454 1.391 . S
C2456 C2457 1.400 . S
C2457 C2451 1.491 . S
C2457 C2456 1.400 . S
C2457 C2458 1.398 1_545 S
C2458 H2446 0.950 . S
C2458 C2457 1.398 1_565 S
C2458 C2459 1.391 . S
C2459 H2447 0.950 . S
C2459 C2455 1.393 1_565 S
C2459 C2458 1.391 . S
H2460 C2468 0.950 . S
H2461 C2473 0.950 . S
H2462 C2470 0.950 . S
H2463 C2472 0.950 . S
H2464 C2474 0.950 . S
H2465 C2476 0.950 . S
H2466 C2478 0.950 . S
H2467 C2479 0.950 . S
C2468 H2460 0.950 . S
C2468 C2469 1.386 . S
C2468 C2470 1.391 . S
C2469 C2468 1.386 . S
C2469 C2473 1.393 . S
C2470 H2462 0.950 . S
C2470 C2468 1.391 . S
C2470 C2471 1.400 . S
C2471 C2470 1.400 . S
C2471 C2472 1.398 . S
C2471 C2477 1.491 . S
C2472 H2463 0.950 . S
C2472 C2471 1.398 . S
C2472 C2473 1.391 . S
C2473 H2461 0.950 . S
C2473 C2469 1.393 . S
C2473 C2472 1.391 . S
C2474 H2464 0.950 . S
C2474 C2475 1.386 . S
C2474 C2476 1.391 . S
C2475 C2474 1.386 . S
C2475 C2479 1.393 . S
C2476 H2465 0.950 . S
C2476 C2474 1.391 . S
C2476 C2477 1.400 . S
C2477 C2471 1.491 . S
C2477 C2476 1.400 . S
C2477 C2478 1.398 . S
C2478 H2466 0.950 . S
C2478 C2477 1.398 . S
C2478 C2479 1.391 . S
C2479 H2467 0.950 . S
C2479 C2475 1.393 . S
C2479 C2478 1.391 . S
H2480 C2488 0.950 . S
H2481 C2493 0.950 . S
H2482 C2490 0.950 . S
H2483 C2492 0.950 . S
H2484 C2494 0.950 . S
H2485 C2496 0.950 . S
H2486 C2498 0.950 . S
H2487 C2499 0.950 . S
C2488 H2480 0.950 . S
C2488 C2489 1.386 . S
C2488 C2490 1.391 . S
C2489 C2488 1.386 . S
C2489 C2493 1.393 . S
C2490 H2482 0.950 . S
C2490 C2488 1.391 . S
C2490 C2491 1.400 . S
C2491 C2490 1.400 . S
C2491 C2492 1.398 . S
C2491 C2497 1.491 . S
C2492 H2483 0.950 . S
C2492 C2491 1.398 . S
C2492 C2493 1.391 . S
C2493 H2481 0.950 . S
C2493 C2489 1.393 . S
C2493 C2492 1.391 . S
C2494 H2484 0.950 . S
C2494 C2495 1.386 . S
C2494 C2496 1.391 . S
C2495 C2494 1.386 . S
C2495 C2499 1.393 . S
C2496 H2485 0.950 . S
C2496 C2494 1.391 . S
C2496 C2497 1.400 . S
C2497 C2491 1.491 . S
C2497 C2496 1.400 . S
C2497 C2498 1.398 . S
C2498 H2486 0.950 . S
C2498 C2497 1.398 . S
C2498 C2499 1.391 . S
C2499 H2487 0.950 . S
C2499 C2495 1.393 . S
C2499 C2498 1.391 . S
H2500 C2508 0.950 . S
H2501 C2513 0.950 . S
H2502 C2510 0.950 . S
H2503 C2512 0.950 . S
H2504 C2514 0.950 . S
H2505 C2516 0.950 . S
H2506 C2518 0.950 . S
H2507 C2519 0.950 . S
C2508 H2500 0.950 . S
C2508 C2509 1.386 . S
C2508 C2510 1.391 . S
C2509 C2508 1.386 . S
C2509 C2513 1.393 . S
C2510 H2502 0.950 . S
C2510 C2508 1.391 . S
C2510 C2511 1.400 . S
C2511 C2510 1.400 . S
C2511 C2512 1.398 . S
C2511 C2517 1.491 . S
C2512 H2503 0.950 . S
C2512 C2511 1.398 . S
C2512 C2513 1.391 . S
C2513 H2501 0.950 . S
C2513 C2509 1.393 . S
C2513 C2512 1.391 . S
C2514 H2504 0.950 . S
C2514 C2515 1.386 . S
C2514 C2516 1.391 . S
C2515 C2514 1.386 . S
C2515 C2519 1.393 . S
C2516 H2505 0.950 . S
C2516 C2514 1.391 . S
C2516 C2517 1.400 . S
C2517 C2511 1.491 . S
C2517 C2516 1.400 . S
C2517 C2518 1.398 . S
C2518 H2506 0.950 . S
C2518 C2517 1.398 . S
C2518 C2519 1.391 . S
C2519 H2507 0.950 . S
C2519 C2515 1.393 . S
C2519 C2518 1.391 . S
H2520 C2528 0.950 . S
H2521 C2533 0.950 . S
H2522 C2530 0.950 . S
H2523 C2532 0.950 . S
H2524 C2534 0.950 . S
H2525 C2536 0.950 . S
H2526 C2538 0.950 . S
H2527 C2539 0.950 . S
C2528 H2520 0.950 . S
C2528 C2529 1.386 . S
C2528 C2530 1.391 . S
C2529 C2528 1.386 . S
C2529 C2533 1.393 . S
C2530 H2522 0.950 . S
C2530 C2528 1.391 . S
C2530 C2531 1.400 . S
C2531 C2530 1.400 . S
C2531 C2532 1.398 . S
C2531 C2537 1.491 . S
C2532 H2523 0.950 . S
C2532 C2531 1.398 . S
C2532 C2533 1.391 . S
C2533 H2521 0.950 . S
C2533 C2529 1.393 . S
C2533 C2532 1.391 . S
C2534 H2524 0.950 . S
C2534 C2535 1.386 . S
C2534 C2536 1.391 . S
C2535 C2534 1.386 . S
C2535 C2539 1.393 . S
C2536 H2525 0.950 . S
C2536 C2534 1.391 . S
C2536 C2537 1.400 . S
C2537 C2531 1.491 . S
C2537 C2536 1.400 . S
C2537 C2538 1.398 . S
C2538 H2526 0.950 . S
C2538 C2537 1.398 . S
C2538 C2539 1.391 . S
C2539 H2527 0.950 . S
C2539 C2535 1.393 . S
C2539 C2538 1.391 . S
H2540 C2548 0.950 . S
H2541 C2553 0.950 . S
H2542 C2550 0.950 . S
H2543 C2552 0.950 . S
H2544 C2554 0.950 . S
H2545 C2556 0.950 . S
H2546 C2558 0.950 . S
H2547 C2559 0.950 . S
C2548 H2540 0.950 . S
C2548 C2549 1.386 . S
C2548 C2550 1.391 . S
C2549 C2548 1.386 . S
C2549 C2553 1.393 . S
C2550 H2542 0.950 . S
C2550 C2548 1.391 . S
C2550 C2551 1.400 . S
C2551 C2550 1.400 . S
C2551 C2552 1.398 . S
C2551 C2557 1.491 . S
C2552 H2543 0.950 . S
C2552 C2551 1.398 . S
C2552 C2553 1.391 . S
C2553 H2541 0.950 . S
C2553 C2549 1.393 . S
C2553 C2552 1.391 . S
C2554 H2544 0.950 . S
C2554 C2555 1.386 . S
C2554 C2556 1.391 . S
C2555 C2554 1.386 . S
C2555 C2559 1.393 . S
C2556 H2545 0.950 . S
C2556 C2554 1.391 . S
C2556 C2557 1.400 . S
C2557 C2551 1.491 . S
C2557 C2556 1.400 . S
C2557 C2558 1.398 . S
C2558 H2546 0.950 . S
C2558 C2557 1.398 . S
C2558 C2559 1.391 . S
C2559 H2547 0.950 . S
C2559 C2555 1.393 . S
C2559 C2558 1.391 . S
H2560 C2568 0.950 . S
H2561 C2573 0.945 1_545 S
H2562 C2570 0.950 . S
H2563 C2572 0.950 . S
H2564 C2574 0.950 . S
H2565 C2576 0.950 . S
H2566 C2578 0.950 . S
H2567 C2579 0.950 . S
C2568 H2560 0.950 . S
C2568 C2569 1.386 . S
C2568 C2570 1.391 . S
C2569 C2568 1.386 . S
C2569 C2573 1.392 . S
C2570 H2562 0.950 . S
C2570 C2568 1.391 . S
C2570 C2571 1.400 . S
C2571 C2570 1.400 . S
C2571 C2572 1.398 . S
C2571 C2577 1.491 . S
C2572 H2563 0.950 . S
C2572 C2571 1.398 . S
C2572 C2573 1.396 . S
C2573 H2561 0.945 1_565 S
C2573 C2569 1.392 . S
C2573 C2572 1.396 . S
C2574 H2564 0.950 . S
C2574 C2575 1.386 . S
C2574 C2576 1.391 . S
C2575 C2574 1.386 . S
C2575 C2579 1.393 . S
C2576 H2565 0.950 . S
C2576 C2574 1.391 . S
C2576 C2577 1.400 . S
C2577 C2571 1.491 . S
C2577 C2576 1.400 . S
C2577 C2578 1.398 . S
C2578 H2566 0.950 . S
C2578 C2577 1.398 . S
C2578 C2579 1.391 . S
C2579 H2567 0.950 . S
C2579 C2575 1.393 . S
C2579 C2578 1.391 . S
H2580 C2588 0.950 . S
H2581 C2593 0.950 . S
H2582 C2590 0.950 . S
H2583 C2592 0.950 . S
H2584 C2594 0.950 . S
H2585 C2596 0.950 . S
H2586 C2598 0.950 . S
H2587 C2599 0.950 . S
C2588 H2580 0.950 . S
C2588 C2589 1.386 . S
C2588 C2590 1.391 . S
C2589 C2588 1.386 . S
C2589 C2593 1.393 . S
C2590 H2582 0.950 . S
C2590 C2588 1.391 . S
C2590 C2591 1.400 . S
C2591 C2590 1.400 . S
C2591 C2592 1.398 . S
C2591 C2597 1.491 . S
C2592 H2583 0.950 . S
C2592 C2591 1.398 . S
C2592 C2593 1.391 . S
C2593 H2581 0.950 . S
C2593 C2589 1.393 . S
C2593 C2592 1.391 . S
C2594 H2584 0.950 . S
C2594 C2595 1.386 . S
C2594 C2596 1.391 . S
C2595 C2594 1.386 . S
C2595 C2599 1.393 . S
C2596 H2585 0.950 . S
C2596 C2594 1.391 . S
C2596 C2597 1.400 . S
C2597 C2591 1.491 . S
C2597 C2596 1.400 . S
C2597 C2598 1.398 . S
C2598 H2586 0.950 . S
C2598 C2597 1.398 . S
C2598 C2599 1.391 . S
C2599 H2587 0.950 . S
C2599 C2595 1.393 . S
C2599 C2598 1.391 . S
H2600 C2608 0.950 . S
H2601 C2613 0.950 . S
H2602 C2610 0.950 . S
H2603 C2612 0.950 . S
H2604 C2614 0.950 . S
H2605 C2616 0.950 . S
H2606 C2618 0.950 . S
H2607 C2619 0.950 . S
C2608 H2600 0.950 . S
C2608 C2609 1.386 . S
C2608 C2610 1.391 . S
C2609 C2608 1.386 . S
C2609 C2613 1.393 . S
C2610 H2602 0.950 . S
C2610 C2608 1.391 . S
C2610 C2611 1.400 . S
C2611 C2610 1.400 . S
C2611 C2612 1.398 . S
C2611 C2617 1.491 . S
C2612 H2603 0.950 . S
C2612 C2611 1.398 . S
C2612 C2613 1.391 . S
C2613 H2601 0.950 . S
C2613 C2609 1.393 . S
C2613 C2612 1.391 . S
C2614 H2604 0.950 . S
C2614 C2615 1.386 . S
C2614 C2616 1.391 . S
C2615 C2614 1.386 . S
C2615 C2619 1.393 . S
C2616 H2605 0.950 . S
C2616 C2614 1.391 . S
C2616 C2617 1.400 . S
C2617 C2611 1.491 . S
C2617 C2616 1.400 . S
C2617 C2618 1.398 . S
C2618 H2606 0.950 . S
C2618 C2617 1.398 . S
C2618 C2619 1.391 . S
C2619 H2607 0.950 . S
C2619 C2615 1.393 . S
C2619 C2618 1.391 . S
H2620 C2628 0.950 . S
H2621 C2633 0.950 . S
H2622 C2630 0.950 . S
H2623 C2632 0.950 . S
H2624 C2634 0.950 . S
H2625 C2636 0.950 . S
H2626 C2638 0.950 . S
H2627 C2639 0.950 . S
C2628 H2620 0.950 . S
C2628 C2629 1.386 . S
C2628 C2630 1.391 . S
C2629 C2628 1.386 . S
C2629 C2633 1.393 . S
C2630 H2622 0.950 . S
C2630 C2628 1.391 . S
C2630 C2631 1.400 . S
C2631 C2630 1.400 . S
C2631 C2632 1.398 . S
C2631 C2637 1.491 . S
C2632 H2623 0.950 . S
C2632 C2631 1.398 . S
C2632 C2633 1.391 . S
C2633 H2621 0.950 . S
C2633 C2629 1.393 . S
C2633 C2632 1.391 . S
C2634 H2624 0.950 . S
C2634 C2635 1.386 . S
C2634 C2636 1.391 . S
C2635 C2634 1.386 . S
C2635 C2639 1.393 . S
C2636 H2625 0.950 . S
C2636 C2634 1.391 . S
C2636 C2637 1.400 . S
C2637 C2631 1.491 . S
C2637 C2636 1.400 . S
C2637 C2638 1.398 . S
C2638 H2626 0.950 . S
C2638 C2637 1.398 . S
C2638 C2639 1.391 . S
C2639 H2627 0.950 . S
C2639 C2635 1.393 . S
C2639 C2638 1.391 . S
H2640 C2648 0.950 . S
H2641 C2653 0.950 . S
H2642 C2650 0.950 . S
H2643 C2652 0.950 . S
H2644 C2654 0.950 . S
H2645 C2656 0.950 . S
H2646 C2658 0.950 . S
H2647 C2659 0.950 . S
C2648 H2640 0.950 . S
C2648 C2649 1.386 . S
C2648 C2650 1.391 . S
C2649 C2648 1.386 . S
C2649 C2653 1.393 . S
C2650 H2642 0.950 . S
C2650 C2648 1.391 . S
C2650 C2651 1.400 . S
C2651 C2650 1.400 . S
C2651 C2652 1.398 . S
C2651 C2657 1.491 . S
C2652 H2643 0.950 . S
C2652 C2651 1.398 . S
C2652 C2653 1.391 . S
C2653 H2641 0.950 . S
C2653 C2649 1.393 . S
C2653 C2652 1.391 . S
C2654 H2644 0.950 . S
C2654 C2655 1.386 . S
C2654 C2656 1.391 . S
C2655 C2654 1.386 . S
C2655 C2659 1.393 . S
C2656 H2645 0.950 . S
C2656 C2654 1.391 . S
C2656 C2657 1.400 . S
C2657 C2651 1.491 . S
C2657 C2656 1.400 . S
C2657 C2658 1.398 . S
C2658 H2646 0.950 . S
C2658 C2657 1.398 . S
C2658 C2659 1.391 . S
C2659 H2647 0.950 . S
C2659 C2655 1.393 . S
C2659 C2658 1.391 . S
H2660 C2668 0.950 . S
H2661 C2673 0.950 . S
H2662 C2670 0.950 . S
H2663 C2672 0.950 . S
H2664 C2674 0.950 . S
H2665 C2676 0.950 . S
H2666 C2678 0.950 . S
H2667 C2679 0.950 . S
C2668 H2660 0.950 . S
C2668 C2669 1.386 . S
C2668 C2670 1.391 . S
C2669 C2668 1.386 . S
C2669 C2673 1.393 . S
C2670 H2662 0.950 . S
C2670 C2668 1.391 . S
C2670 C2671 1.400 . S
C2671 C2670 1.400 . S
C2671 C2672 1.398 . S
C2671 C2677 1.491 . S
C2672 H2663 0.950 . S
C2672 C2671 1.398 . S
C2672 C2673 1.391 . S
C2673 H2661 0.950 . S
C2673 C2669 1.393 . S
C2673 C2672 1.391 . S
C2674 H2664 0.950 . S
C2674 C2675 1.386 . S
C2674 C2676 1.391 . S
C2675 C2674 1.386 . S
C2675 C2679 1.393 . S
C2676 H2665 0.950 . S
C2676 C2674 1.391 . S
C2676 C2677 1.400 . S
C2677 C2671 1.491 . S
C2677 C2676 1.400 . S
C2677 C2678 1.398 . S
C2678 H2666 0.950 . S
C2678 C2677 1.398 . S
C2678 C2679 1.391 . S
C2679 H2667 0.950 . S
C2679 C2675 1.393 . S
C2679 C2678 1.391 . S
H2680 C2688 0.950 . S
H2681 C2693 0.950 . S
H2682 C2690 0.950 . S
H2683 C2692 0.950 1_554 S
H2684 C2694 0.950 1_655 S
H2685 C2696 0.950 1_655 S
H2686 C2698 0.950 . S
H2687 C2699 0.941 1_556 S
C2688 H2680 0.950 . S
C2688 C2689 1.386 . S
C2688 C2690 1.391 . S
C2689 C2688 1.386 . S
C2689 C2693 1.393 1_455 S
C2690 H2682 0.950 . S
C2690 C2688 1.391 . S
C2690 C2691 1.400 . S
C2691 C2690 1.400 . S
C2691 C2692 1.398 1_455 S
C2691 C2697 1.495 . S
C2692 H2683 0.950 1_556 S
C2692 C2691 1.398 1_655 S
C2692 C2693 1.391 . S
C2693 H2681 0.950 . S
C2693 C2689 1.393 1_655 S
C2693 C2692 1.391 . S
C2694 H2684 0.950 1_455 S
C2694 C2695 1.386 . S
C2694 C2696 1.391 . S
C2695 C2694 1.386 . S
C2695 C2699 1.404 . S
C2696 H2685 0.950 1_455 S
C2696 C2694 1.391 . S
C2696 C2697 1.387 1_554 S
C2697 C2691 1.495 . S
C2697 C2696 1.387 1_556 S
C2697 C2698 1.407 . S
C2698 H2686 0.950 . S
C2698 C2697 1.407 . S
C2698 C2699 1.388 1_556 S
C2699 H2687 0.941 1_554 S
C2699 C2695 1.404 . S
C2699 C2698 1.388 1_554 S
H2700 C2708 0.950 1_455 S
H2701 C2713 0.950 . S
H2702 C2710 0.950 . S
H2703 C2712 0.950 . S
H2704 C2714 0.950 . S
H2705 C2716 0.950 . S
H2706 C2718 0.950 . S
H2707 C2719 0.950 . S
C2708 H2700 0.950 1_655 S
C2708 C2709 1.379 1_655 S
C2708 C2710 1.391 . S
C2709 C2708 1.379 1_455 S
C2709 C2713 1.383 1_455 S
C2710 H2702 0.950 . S
C2710 C2708 1.391 . S
C2710 C2711 1.400 . S
C2711 C2710 1.400 . S
C2711 C2712 1.398 . S
C2711 C2717 1.491 . S
C2712 H2703 0.950 . S
C2712 C2711 1.398 . S
C2712 C2713 1.391 . S
C2713 H2701 0.950 . S
C2713 C2709 1.383 1_655 S
C2713 C2712 1.391 . S
C2714 H2704 0.950 . S
C2714 C2715 1.386 . S
C2714 C2716 1.391 . S
C2715 C2714 1.386 . S
C2715 C2719 1.393 . S
C2716 H2705 0.950 . S
C2716 C2714 1.391 . S
C2716 C2717 1.400 . S
C2717 C2711 1.491 . S
C2717 C2716 1.400 . S
C2717 C2718 1.398 . S
C2718 H2706 0.950 . S
C2718 C2717 1.398 . S
C2718 C2719 1.391 . S
C2719 H2707 0.950 . S
C2719 C2715 1.393 . S
C2719 C2718 1.391 . S
H2720 C2728 0.950 . S
H2721 C2733 0.950 . S
H2722 C2730 0.950 . S
H2723 C2732 0.950 . S
H2724 C2734 0.950 . S
H2725 C2736 0.950 . S
H2726 C2738 0.950 . S
H2727 C2739 0.950 . S
C2728 H2720 0.950 . S
C2728 C2729 1.386 . S
C2728 C2730 1.391 . S
C2729 C2728 1.386 . S
C2729 C2733 1.393 . S
C2730 H2722 0.950 . S
C2730 C2728 1.391 . S
C2730 C2731 1.400 . S
C2731 C2730 1.400 . S
C2731 C2732 1.398 . S
C2731 C2737 1.491 . S
C2732 H2723 0.950 . S
C2732 C2731 1.398 . S
C2732 C2733 1.391 . S
C2733 H2721 0.950 . S
C2733 C2729 1.393 . S
C2733 C2732 1.391 . S
C2734 H2724 0.950 . S
C2734 C2735 1.386 . S
C2734 C2736 1.391 . S
C2735 C2734 1.386 . S
C2735 C2739 1.393 . S
C2736 H2725 0.950 . S
C2736 C2734 1.391 . S
C2736 C2737 1.400 . S
C2737 C2731 1.491 . S
C2737 C2736 1.400 . S
C2737 C2738 1.398 . S
C2738 H2726 0.950 . S
C2738 C2737 1.398 . S
C2738 C2739 1.391 . S
C2739 H2727 0.950 . S
C2739 C2735 1.393 . S
C2739 C2738 1.391 . S
H2740 C2748 0.950 . S
H2741 C2753 0.950 . S
H2742 C2750 0.950 . S
H2743 C2752 0.950 . S
H2744 C2754 0.950 . S
H2745 C2756 0.950 . S
H2746 C2758 0.950 . S
H2747 C2759 0.950 . S
C2748 H2740 0.950 . S
C2748 C2749 1.386 . S
C2748 C2750 1.391 . S
C2749 C2748 1.386 . S
C2749 C2753 1.393 . S
C2750 H2742 0.950 . S
C2750 C2748 1.391 . S
C2750 C2751 1.400 . S
C2751 C2750 1.400 . S
C2751 C2752 1.398 . S
C2751 C2757 1.491 . S
C2752 H2743 0.950 . S
C2752 C2751 1.398 . S
C2752 C2753 1.391 . S
C2753 H2741 0.950 . S
C2753 C2749 1.393 . S
C2753 C2752 1.391 . S
C2754 H2744 0.950 . S
C2754 C2755 1.386 . S
C2754 C2756 1.391 . S
C2755 C2754 1.386 . S
C2755 C2759 1.393 . S
C2756 H2745 0.950 . S
C2756 C2754 1.391 . S
C2756 C2757 1.400 . S
C2757 C2751 1.491 . S
C2757 C2756 1.400 . S
C2757 C2758 1.398 . S
C2758 H2746 0.950 . S
C2758 C2757 1.398 . S
C2758 C2759 1.391 . S
C2759 H2747 0.950 . S
C2759 C2755 1.393 . S
C2759 C2758 1.391 . S
H2760 C2768 0.950 . S
H2761 C2773 0.950 . S
H2762 C2770 0.950 . S
H2763 C2772 0.950 . S
H2764 C2774 0.950 1_655 S
H2765 C2776 0.971 . S
H2766 C2778 0.950 . S
H2767 C2779 0.950 . S
C2768 H2760 0.950 . S
C2768 C2769 1.386 . S
C2768 C2770 1.391 . S
C2769 C2768 1.386 . S
C2769 C2773 1.393 1_455 S
C2770 H2762 0.950 . S
C2770 C2768 1.391 . S
C2770 C2771 1.400 . S
C2771 C2770 1.400 . S
C2771 C2772 1.398 1_455 S
C2771 C2777 1.491 . S
C2772 H2763 0.950 . S
C2772 C2771 1.398 1_655 S
C2772 C2773 1.391 . S
C2773 H2761 0.950 . S
C2773 C2769 1.393 1_655 S
C2773 C2772 1.391 . S
C2774 H2764 0.950 1_455 S
C2774 C2775 1.386 . S
C2774 C2776 1.385 1_455 S
C2775 C2774 1.386 . S
C2775 C2779 1.393 . S
C2776 H2765 0.971 . S
C2776 C2774 1.385 1_655 S
C2776 C2777 1.387 1_655 S
C2777 C2771 1.491 . S
C2777 C2776 1.387 1_455 S
C2777 C2778 1.398 . S
C2778 H2766 0.950 . S
C2778 C2777 1.398 . S
C2778 C2779 1.391 . S
C2779 H2767 0.950 . S
C2779 C2775 1.393 . S
C2779 C2778 1.391 . S
H2780 C2788 0.950 . S
H2781 C2793 0.950 . S
H2782 C2790 0.950 . S
H2783 C2792 0.950 . S
H2784 C2794 0.950 . S
H2785 C2796 0.950 . S
H2786 C2798 0.950 . S
H2787 C2799 0.950 . S
C2788 H2780 0.950 . S
C2788 C2789 1.386 . S
C2788 C2790 1.391 . S
C2789 C2788 1.386 . S
C2789 C2793 1.393 . S
C2790 H2782 0.950 . S
C2790 C2788 1.391 . S
C2790 C2791 1.400 . S
C2791 C2790 1.400 . S
C2791 C2792 1.398 . S
C2791 C2797 1.491 . S
C2792 H2783 0.950 . S
C2792 C2791 1.398 . S
C2792 C2793 1.391 . S
C2793 H2781 0.950 . S
C2793 C2789 1.393 . S
C2793 C2792 1.391 . S
C2794 H2784 0.950 . S
C2794 C2795 1.386 . S
C2794 C2796 1.391 . S
C2795 C2794 1.386 . S
C2795 C2799 1.393 . S
C2796 H2785 0.950 . S
C2796 C2794 1.391 . S
C2796 C2797 1.400 . S
C2797 C2791 1.491 . S
C2797 C2796 1.400 . S
C2797 C2798 1.398 . S
C2798 H2786 0.950 . S
C2798 C2797 1.398 . S
C2798 C2799 1.391 . S
C2799 H2787 0.950 . S
C2799 C2795 1.393 . S
C2799 C2798 1.391 . S
H2800 C2808 0.950 . S
H2801 C2813 0.950 . S
H2802 C2810 0.950 . S
H2803 C2812 0.950 . S
H2804 C2814 0.950 . S
H2805 C2816 0.950 . S
H2806 C2818 0.950 . S
H2807 C2819 0.950 . S
C2808 H2800 0.950 . S
C2808 C2809 1.386 . S
C2808 C2810 1.391 . S
C2809 C2808 1.386 . S
C2809 C2813 1.393 . S
C2810 H2802 0.950 . S
C2810 C2808 1.391 . S
C2810 C2811 1.400 . S
C2811 C2810 1.400 . S
C2811 C2812 1.398 . S
C2811 C2817 1.491 . S
C2812 H2803 0.950 . S
C2812 C2811 1.398 . S
C2812 C2813 1.391 . S
C2813 H2801 0.950 . S
C2813 C2809 1.393 . S
C2813 C2812 1.391 . S
C2814 H2804 0.950 . S
C2814 C2815 1.386 . S
C2814 C2816 1.391 . S
C2815 C2814 1.386 . S
C2815 C2819 1.393 . S
C2816 H2805 0.950 . S
C2816 C2814 1.391 . S
C2816 C2817 1.400 . S
C2817 C2811 1.491 . S
C2817 C2816 1.400 . S
C2817 C2818 1.398 . S
C2818 H2806 0.950 . S
C2818 C2817 1.398 . S
C2818 C2819 1.391 . S
C2819 H2807 0.950 . S
C2819 C2815 1.393 . S
C2819 C2818 1.391 . S
H2820 C2828 0.950 1_554 S
H2821 C2833 0.950 . S
H2822 C2830 0.950 . S
H2823 C2832 0.950 . S
H2824 C2834 0.950 . S
H2825 C2836 0.950 . S
H2826 C2838 0.950 . S
H2827 C2839 0.950 . S
C2828 H2820 0.950 1_556 S
C2828 C2829 1.386 . S
C2828 C2830 1.391 . S
C2829 C2828 1.386 . S
C2829 C2833 1.393 . S
C2830 H2822 0.950 . S
C2830 C2828 1.391 . S
C2830 C2831 1.400 . S
C2831 C2830 1.400 . S
C2831 C2832 1.398 . S
C2831 C2837 1.491 . S
C2832 H2823 0.950 . S
C2832 C2831 1.398 . S
C2832 C2833 1.391 . S
C2833 H2821 0.950 . S
C2833 C2829 1.393 . S
C2833 C2832 1.391 . S
C2834 H2824 0.950 . S
C2834 C2835 1.386 . S
C2834 C2836 1.391 . S
C2835 C2834 1.386 . S
C2835 C2839 1.393 . S
C2836 H2825 0.950 . S
C2836 C2834 1.391 . S
C2836 C2837 1.400 . S
C2837 C2831 1.491 . S
C2837 C2836 1.400 . S
C2837 C2838 1.398 . S
C2838 H2826 0.950 . S
C2838 C2837 1.398 . S
C2838 C2839 1.391 . S
C2839 H2827 0.950 . S
C2839 C2835 1.393 . S
C2839 C2838 1.391 . S
H2840 C2848 0.950 . S
H2841 C2853 0.950 . S
H2842 C2850 0.950 . S
H2843 C2852 0.950 . S
H2844 C2854 0.950 . S
H2845 C2856 0.950 . S
H2846 C2858 0.950 . S
H2847 C2859 0.950 . S
C2848 H2840 0.950 . S
C2848 C2849 1.386 . S
C2848 C2850 1.391 . S
C2849 C2848 1.386 . S
C2849 C2853 1.393 . S
C2850 H2842 0.950 . S
C2850 C2848 1.391 . S
C2850 C2851 1.400 . S
C2851 C2850 1.400 . S
C2851 C2852 1.398 . S
C2851 C2857 1.491 . S
C2852 H2843 0.950 . S
C2852 C2851 1.398 . S
C2852 C2853 1.391 . S
C2853 H2841 0.950 . S
C2853 C2849 1.393 . S
C2853 C2852 1.391 . S
C2854 H2844 0.950 . S
C2854 C2855 1.386 . S
C2854 C2856 1.391 . S
C2855 C2854 1.386 . S
C2855 C2859 1.393 . S
C2856 H2845 0.950 . S
C2856 C2854 1.391 . S
C2856 C2857 1.400 . S
C2857 C2851 1.491 . S
C2857 C2856 1.400 . S
C2857 C2858 1.398 . S
C2858 H2846 0.950 . S
C2858 C2857 1.398 . S
C2858 C2859 1.391 . S
C2859 H2847 0.950 . S
C2859 C2855 1.393 . S
C2859 C2858 1.391 . S
H2860 C2868 0.950 . S
H2861 C2873 0.950 . S
H2862 C2870 0.950 . S
H2863 C2872 0.950 . S
H2864 C2874 0.950 . S
H2865 C2876 0.950 . S
H2866 C2878 0.950 . S
H2867 C2879 0.950 . S
C2868 H2860 0.950 . S
C2868 C2869 1.386 . S
C2868 C2870 1.391 . S
C2869 C2868 1.386 . S
C2869 C2873 1.393 . S
C2870 H2862 0.950 . S
C2870 C2868 1.391 . S
C2870 C2871 1.400 . S
C2871 C2870 1.400 . S
C2871 C2872 1.398 . S
C2871 C2877 1.491 . S
C2872 H2863 0.950 . S
C2872 C2871 1.398 . S
C2872 C2873 1.391 . S
C2873 H2861 0.950 . S
C2873 C2869 1.393 . S
C2873 C2872 1.391 . S
C2874 H2864 0.950 . S
C2874 C2875 1.386 . S
C2874 C2876 1.391 . S
C2875 C2874 1.386 . S
C2875 C2879 1.393 . S
C2876 H2865 0.950 . S
C2876 C2874 1.391 . S
C2876 C2877 1.400 . S
C2877 C2871 1.491 . S
C2877 C2876 1.400 . S
C2877 C2878 1.398 . S
C2878 H2866 0.950 . S
C2878 C2877 1.398 . S
C2878 C2879 1.391 . S
C2879 H2867 0.950 . S
C2879 C2875 1.393 . S
C2879 C2878 1.391 . S
H2880 C2888 0.950 . S
H2881 C2893 0.950 . S
H2882 C2890 0.950 . S
H2883 C2892 0.950 . S
H2884 C2894 0.950 . S
H2885 C2896 0.950 . S
H2886 C2898 0.950 . S
H2887 C2899 0.950 . S
C2888 H2880 0.950 . S
C2888 C2889 1.386 . S
C2888 C2890 1.391 . S
C2889 C2888 1.386 . S
C2889 C2893 1.393 . S
C2890 H2882 0.950 . S
C2890 C2888 1.391 . S
C2890 C2891 1.400 . S
C2891 C2890 1.400 . S
C2891 C2892 1.398 . S
C2891 C2897 1.491 . S
C2892 H2883 0.950 . S
C2892 C2891 1.398 . S
C2892 C2893 1.391 . S
C2893 H2881 0.950 . S
C2893 C2889 1.393 . S
C2893 C2892 1.391 . S
C2894 H2884 0.950 . S
C2894 C2895 1.386 . S
C2894 C2896 1.391 . S
C2895 C2894 1.386 . S
C2895 C2899 1.393 . S
C2896 H2885 0.950 . S
C2896 C2894 1.391 . S
C2896 C2897 1.400 . S
C2897 C2891 1.491 . S
C2897 C2896 1.400 . S
C2897 C2898 1.398 . S
C2898 H2886 0.950 . S
C2898 C2897 1.398 . S
C2898 C2899 1.391 . S
C2899 H2887 0.950 . S
C2899 C2895 1.393 . S
C2899 C2898 1.391 . S
H2900 C2908 0.950 . S
H2901 C2913 0.950 . S
H2902 C2910 0.950 . S
H2903 C2912 0.950 . S
H2904 C2914 0.950 . S
H2905 C2916 0.950 . S
H2906 C2918 0.950 . S
H2907 C2919 0.950 . S
C2908 H2900 0.950 . S
C2908 C2909 1.386 . S
C2908 C2910 1.391 . S
C2909 C2908 1.386 . S
C2909 C2913 1.393 . S
C2910 H2902 0.950 . S
C2910 C2908 1.391 . S
C2910 C2911 1.400 . S
C2911 C2910 1.400 . S
C2911 C2912 1.398 . S
C2911 C2917 1.491 . S
C2912 H2903 0.950 . S
C2912 C2911 1.398 . S
C2912 C2913 1.391 . S
C2913 H2901 0.950 . S
C2913 C2909 1.393 . S
C2913 C2912 1.391 . S
C2914 H2904 0.950 . S
C2914 C2915 1.386 . S
C2914 C2916 1.391 . S
C2915 C2914 1.386 . S
C2915 C2919 1.393 . S
C2916 H2905 0.950 . S
C2916 C2914 1.391 . S
C2916 C2917 1.400 . S
C2917 C2911 1.491 . S
C2917 C2916 1.400 . S
C2917 C2918 1.398 . S
C2918 H2906 0.950 . S
C2918 C2917 1.398 . S
C2918 C2919 1.391 . S
C2919 H2907 0.950 . S
C2919 C2915 1.393 . S
C2919 C2918 1.391 . S
H2920 C2928 0.950 . S
H2921 C2933 0.950 . S
H2922 C2930 0.950 . S
H2923 C2932 0.950 . S
H2924 C2934 0.950 . S
H2925 C2936 0.950 . S
H2926 C2938 0.950 . S
H2927 C2939 0.950 . S
C2928 H2920 0.950 . S
C2928 C2929 1.386 . S
C2928 C2930 1.391 . S
C2929 C2928 1.386 . S
C2929 C2933 1.393 . S
C2930 H2922 0.950 . S
C2930 C2928 1.391 . S
C2930 C2931 1.400 . S
C2931 C2930 1.400 . S
C2931 C2932 1.398 . S
C2931 C2937 1.491 . S
C2932 H2923 0.950 . S
C2932 C2931 1.398 . S
C2932 C2933 1.391 . S
C2933 H2921 0.950 . S
C2933 C2929 1.393 . S
C2933 C2932 1.391 . S
C2934 H2924 0.950 . S
C2934 C2935 1.386 . S
C2934 C2936 1.391 . S
C2935 C2934 1.386 . S
C2935 C2939 1.393 . S
C2936 H2925 0.950 . S
C2936 C2934 1.391 . S
C2936 C2937 1.400 . S
C2937 C2931 1.491 . S
C2937 C2936 1.400 . S
C2937 C2938 1.398 . S
C2938 H2926 0.950 . S
C2938 C2937 1.398 . S
C2938 C2939 1.391 . S
C2939 H2927 0.950 . S
C2939 C2935 1.393 . S
C2939 C2938 1.391 . S
H2940 C2948 0.950 . S
H2941 C2953 0.950 . S
H2942 C2950 0.950 . S
H2943 C2952 0.950 . S
H2944 C2954 0.950 . S
H2945 C2956 0.950 . S
H2946 C2958 0.950 . S
H2947 C2959 0.950 . S
C2948 H2940 0.950 . S
C2948 C2949 1.386 . S
C2948 C2950 1.391 . S
C2949 C2948 1.386 . S
C2949 C2953 1.393 . S
C2950 H2942 0.950 . S
C2950 C2948 1.391 . S
C2950 C2951 1.400 . S
C2951 C2950 1.400 . S
C2951 C2952 1.398 . S
C2951 C2957 1.491 . S
C2952 H2943 0.950 . S
C2952 C2951 1.398 . S
C2952 C2953 1.391 . S
C2953 H2941 0.950 . S
C2953 C2949 1.393 . S
C2953 C2952 1.391 . S
C2954 H2944 0.950 . S
C2954 C2955 1.386 . S
C2954 C2956 1.391 . S
C2955 C2954 1.386 . S
C2955 C2959 1.393 . S
C2956 H2945 0.950 . S
C2956 C2954 1.391 . S
C2956 C2957 1.400 . S
C2957 C2951 1.491 . S
C2957 C2956 1.400 . S
C2957 C2958 1.398 . S
C2958 H2946 0.950 . S
C2958 C2957 1.398 . S
C2958 C2959 1.391 . S
C2959 H2947 0.950 . S
C2959 C2955 1.393 . S
C2959 C2958 1.391 . S
H2960 C2968 0.950 . S
H2961 C2973 0.950 . S
H2962 C2970 0.950 . S
H2963 C2972 0.950 . S
H2964 C2974 0.950 . S
H2965 C2976 0.950 . S
H2966 C2978 0.950 . S
H2967 C2979 0.950 . S
C2968 H2960 0.950 . S
C2968 C2969 1.386 . S
C2968 C2970 1.391 . S
C2969 C2968 1.386 . S
C2969 C2973 1.393 . S
C2970 H2962 0.950 . S
C2970 C2968 1.391 . S
C2970 C2971 1.400 . S
C2971 C2970 1.400 . S
C2971 C2972 1.398 . S
C2971 C2977 1.491 . S
C2972 H2963 0.950 . S
C2972 C2971 1.398 . S
C2972 C2973 1.391 . S
C2973 H2961 0.950 . S
C2973 C2969 1.393 . S
C2973 C2972 1.391 . S
C2974 H2964 0.950 . S
C2974 C2975 1.386 . S
C2974 C2976 1.391 . S
C2975 C2974 1.386 . S
C2975 C2979 1.393 . S
C2976 H2965 0.950 . S
C2976 C2974 1.391 . S
C2976 C2977 1.400 . S
C2977 C2971 1.491 . S
C2977 C2976 1.400 . S
C2977 C2978 1.398 . S
C2978 H2966 0.950 . S
C2978 C2977 1.398 . S
C2978 C2979 1.391 . S
C2979 H2967 0.950 . S
C2979 C2975 1.393 . S
C2979 C2978 1.391 . S
H2980 C2988 0.950 . S
H2981 C2993 0.950 . S
H2982 C2990 0.950 . S
H2983 C2992 0.950 . S
H2984 C2994 0.950 . S
H2985 C2996 0.950 . S
H2986 C2998 0.950 . S
H2987 C2999 0.950 . S
C2988 H2980 0.950 . S
C2988 C2989 1.386 . S
C2988 C2990 1.391 . S
C2989 C2988 1.386 . S
C2989 C2993 1.393 . S
C2990 H2982 0.950 . S
C2990 C2988 1.391 . S
C2990 C2991 1.400 . S
C2991 C2990 1.400 . S
C2991 C2992 1.398 . S
C2991 C2997 1.491 . S
C2992 H2983 0.950 . S
C2992 C2991 1.398 . S
C2992 C2993 1.391 . S
C2993 H2981 0.950 . S
C2993 C2989 1.393 . S
C2993 C2992 1.391 . S
C2994 H2984 0.950 . S
C2994 C2995 1.386 . S
C2994 C2996 1.391 . S
C2995 C2994 1.386 . S
C2995 C2999 1.393 . S
C2996 H2985 0.950 . S
C2996 C2994 1.391 . S
C2996 C2997 1.400 . S
C2997 C2991 1.491 . S
C2997 C2996 1.400 . S
C2997 C2998 1.398 . S
C2998 H2986 0.950 . S
C2998 C2997 1.398 . S
C2998 C2999 1.391 . S
C2999 H2987 0.950 . S
C2999 C2995 1.393 . S
C2999 C2998 1.391 . S
H3000 C3008 0.950 . S
H3001 C3013 0.950 . S
H3002 C3010 0.950 . S
H3003 C3012 0.950 . S
H3004 C3014 0.950 . S
H3005 C3016 0.950 . S
H3006 C3018 0.950 . S
H3007 C3019 0.950 . S
C3008 H3000 0.950 . S
C3008 C3009 1.386 . S
C3008 C3010 1.391 . S
C3009 C3008 1.386 . S
C3009 C3013 1.393 . S
C3010 H3002 0.950 . S
C3010 C3008 1.391 . S
C3010 C3011 1.400 . S
C3011 C3010 1.400 . S
C3011 C3012 1.398 . S
C3011 C3017 1.491 . S
C3012 H3003 0.950 . S
C3012 C3011 1.398 . S
C3012 C3013 1.391 . S
C3013 H3001 0.950 . S
C3013 C3009 1.393 . S
C3013 C3012 1.391 . S
C3014 H3004 0.950 . S
C3014 C3015 1.386 . S
C3014 C3016 1.391 . S
C3015 C3014 1.386 . S
C3015 C3019 1.393 . S
C3016 H3005 0.950 . S
C3016 C3014 1.391 . S
C3016 C3017 1.400 . S
C3017 C3011 1.491 . S
C3017 C3016 1.400 . S
C3017 C3018 1.398 . S
C3018 H3006 0.950 . S
C3018 C3017 1.398 . S
C3018 C3019 1.391 . S
C3019 H3007 0.950 . S
C3019 C3015 1.393 . S
C3019 C3018 1.391 . S
H3020 C3028 0.950 . S
H3021 C3033 0.950 . S
H3022 C3030 0.950 . S
H3023 C3032 0.950 . S
H3024 C3034 0.950 . S
H3025 C3036 0.950 . S
H3026 C3038 0.950 . S
H3027 C3039 0.950 . S
C3028 H3020 0.950 . S
C3028 C3029 1.386 . S
C3028 C3030 1.391 . S
C3029 C3028 1.386 . S
C3029 C3033 1.393 1_554 S
C3030 H3022 0.950 . S
C3030 C3028 1.391 . S
C3030 C3031 1.400 . S
C3031 C3030 1.400 . S
C3031 C3032 1.398 1_554 S
C3031 C3037 1.491 . S
C3032 H3023 0.950 . S
C3032 C3031 1.398 1_556 S
C3032 C3033 1.391 . S
C3033 H3021 0.950 . S
C3033 C3029 1.393 1_556 S
C3033 C3032 1.391 . S
C3034 H3024 0.950 . S
C3034 C3035 1.386 1_556 S
C3034 C3036 1.391 1_545 S
C3035 C3034 1.386 1_554 S
C3035 C3039 1.393 . S
C3036 H3025 0.950 . S
C3036 C3034 1.391 1_565 S
C3036 C3037 1.400 1_556 S
C3037 C3031 1.491 . S
C3037 C3036 1.400 1_554 S
C3037 C3038 1.398 . S
C3038 H3026 0.950 . S
C3038 C3037 1.398 . S
C3038 C3039 1.391 1_565 S
C3039 H3027 0.950 . S
C3039 C3035 1.393 . S
C3039 C3038 1.391 1_545 S
H3040 C3048 0.950 . S
H3041 C3053 0.950 . S
H3042 C3050 0.950 . S
H3043 C3052 0.950 . S
H3044 C3054 0.950 . S
H3045 C3056 0.950 . S
H3046 C3058 0.950 . S
H3047 C3059 0.950 . S
C3048 H3040 0.950 . S
C3048 C3049 1.386 . S
C3048 C3050 1.391 . S
C3049 C3048 1.386 . S
C3049 C3053 1.393 . S
C3050 H3042 0.950 . S
C3050 C3048 1.391 . S
C3050 C3051 1.400 . S
C3051 C3050 1.400 . S
C3051 C3052 1.398 . S
C3051 C3057 1.491 . S
C3052 H3043 0.950 . S
C3052 C3051 1.398 . S
C3052 C3053 1.391 . S
C3053 H3041 0.950 . S
C3053 C3049 1.393 . S
C3053 C3052 1.391 . S
C3054 H3044 0.950 . S
C3054 C3055 1.386 . S
C3054 C3056 1.391 . S
C3055 C3054 1.386 . S
C3055 C3059 1.393 . S
C3056 H3045 0.950 . S
C3056 C3054 1.391 . S
C3056 C3057 1.400 . S
C3057 C3051 1.491 . S
C3057 C3056 1.400 . S
C3057 C3058 1.398 . S
C3058 H3046 0.950 . S
C3058 C3057 1.398 . S
C3058 C3059 1.391 . S
C3059 H3047 0.950 . S
C3059 C3055 1.393 . S
C3059 C3058 1.391 . S
H3060 C3068 0.950 . S
H3061 C3073 0.950 1_556 S
H3062 C3070 0.950 . S
H3063 C3072 0.950 1_556 S
H3064 C3074 0.950 . S
H3065 C3076 0.950 1_556 S
H3066 C3078 0.950 . S
H3067 C3079 0.950 . S
C3068 H3060 0.950 . S
C3068 C3069 1.386 . S
C3068 C3070 1.391 . S
C3069 C3068 1.386 . S
C3069 C3073 1.393 . S
C3070 H3062 0.950 . S
C3070 C3068 1.391 . S
C3070 C3071 1.400 . S
C3071 C3070 1.400 . S
C3071 C3072 1.398 . S
C3071 C3077 1.491 . S
C3072 H3063 0.950 1_554 S
C3072 C3071 1.398 . S
C3072 C3073 1.391 . S
C3073 H3061 0.950 1_554 S
C3073 C3069 1.393 . S
C3073 C3072 1.391 . S
C3074 H3064 0.950 . S
C3074 C3075 1.386 . S
C3074 C3076 1.391 . S
C3075 C3074 1.386 . S
C3075 C3079 1.393 . S
C3076 H3065 0.950 1_554 S
C3076 C3074 1.391 . S
C3076 C3077 1.400 . S
C3077 C3071 1.491 . S
C3077 C3076 1.400 . S
C3077 C3078 1.398 . S
C3078 H3066 0.950 . S
C3078 C3077 1.398 . S
C3078 C3079 1.391 . S
C3079 H3067 0.950 . S
C3079 C3075 1.393 . S
C3079 C3078 1.391 . S
H3080 C3088 0.950 . S
H3081 C3093 0.950 . S
H3082 C3090 0.950 . S
H3083 C3092 0.950 . S
H3084 C3094 0.950 . S
H3085 C3096 0.950 . S
H3086 C3098 0.950 . S
H3087 C3099 0.950 . S
C3088 H3080 0.950 . S
C3088 C3089 1.386 . S
C3088 C3090 1.391 . S
C3089 C3088 1.386 . S
C3089 C3093 1.393 . S
C3090 H3082 0.950 . S
C3090 C3088 1.391 . S
C3090 C3091 1.400 . S
C3091 C3090 1.400 . S
C3091 C3092 1.398 . S
C3091 C3097 1.491 . S
C3092 H3083 0.950 . S
C3092 C3091 1.398 . S
C3092 C3093 1.391 . S
C3093 H3081 0.950 . S
C3093 C3089 1.393 . S
C3093 C3092 1.391 . S
C3094 H3084 0.950 . S
C3094 C3095 1.386 . S
C3094 C3096 1.391 . S
C3095 C3094 1.386 . S
C3095 C3099 1.393 . S
C3096 H3085 0.950 . S
C3096 C3094 1.391 . S
C3096 C3097 1.400 . S
C3097 C3091 1.491 . S
C3097 C3096 1.400 . S
C3097 C3098 1.398 . S
C3098 H3086 0.950 . S
C3098 C3097 1.398 . S
C3098 C3099 1.391 . S
C3099 H3087 0.950 . S
C3099 C3095 1.393 . S
C3099 C3098 1.391 . S
H3100 C3108 0.950 . S
H3101 C3113 0.950 . S
H3102 C3110 0.950 . S
H3103 C3112 0.950 . S
H3104 C3114 0.950 . S
H3105 C3116 0.950 . S
H3106 C3118 0.950 . S
H3107 C3119 0.950 . S
C3108 H3100 0.950 . S
C3108 C3109 1.386 . S
C3108 C3110 1.391 . S
C3109 C3108 1.386 . S
C3109 C3113 1.393 . S
C3110 H3102 0.950 . S
C3110 C3108 1.391 . S
C3110 C3111 1.400 . S
C3111 C3110 1.400 . S
C3111 C3112 1.398 . S
C3111 C3117 1.491 . S
C3112 H3103 0.950 . S
C3112 C3111 1.398 . S
C3112 C3113 1.391 . S
C3113 H3101 0.950 . S
C3113 C3109 1.393 . S
C3113 C3112 1.391 . S
C3114 H3104 0.950 . S
C3114 C3115 1.386 . S
C3114 C3116 1.391 . S
C3115 C3114 1.386 . S
C3115 C3119 1.393 . S
C3116 H3105 0.950 . S
C3116 C3114 1.391 . S
C3116 C3117 1.400 . S
C3117 C3111 1.491 . S
C3117 C3116 1.400 . S
C3117 C3118 1.398 . S
C3118 H3106 0.950 . S
C3118 C3117 1.398 . S
C3118 C3119 1.391 . S
C3119 H3107 0.950 . S
C3119 C3115 1.393 . S
C3119 C3118 1.391 . S
H3120 C3128 0.950 . S
H3121 C3133 0.950 . S
H3122 C3130 0.950 . S
H3123 C3132 0.950 . S
H3124 C3134 0.950 . S
H3125 C3136 0.950 . S
H3126 C3138 0.950 . S
H3127 C3139 0.950 . S
C3128 H3120 0.950 . S
C3128 C3129 1.386 . S
C3128 C3130 1.391 . S
C3129 C3128 1.386 . S
C3129 C3133 1.393 . S
C3130 H3122 0.950 . S
C3130 C3128 1.391 . S
C3130 C3131 1.400 . S
C3131 C3130 1.400 . S
C3131 C3132 1.398 . S
C3131 C3137 1.491 . S
C3132 H3123 0.950 . S
C3132 C3131 1.398 . S
C3132 C3133 1.391 . S
C3133 H3121 0.950 . S
C3133 C3129 1.393 . S
C3133 C3132 1.391 . S
C3134 H3124 0.950 . S
C3134 C3135 1.386 . S
C3134 C3136 1.391 . S
C3135 C3134 1.386 . S
C3135 C3139 1.393 . S
C3136 H3125 0.950 . S
C3136 C3134 1.391 . S
C3136 C3137 1.400 . S
C3137 C3131 1.491 . S
C3137 C3136 1.400 . S
C3137 C3138 1.398 . S
C3138 H3126 0.950 . S
C3138 C3137 1.398 . S
C3138 C3139 1.391 . S
C3139 H3127 0.950 . S
C3139 C3135 1.393 . S
C3139 C3138 1.391 . S
H3140 C3148 0.950 . S
H3141 C3153 0.950 . S
H3142 C3150 0.950 . S
H3143 C3152 0.950 . S
H3144 C3154 0.950 . S
H3145 C3156 0.950 . S
H3146 C3158 0.950 . S
H3147 C3159 0.950 . S
C3148 H3140 0.950 . S
C3148 C3149 1.386 . S
C3148 C3150 1.391 . S
C3149 C3148 1.386 . S
C3149 C3153 1.393 . S
C3150 H3142 0.950 . S
C3150 C3148 1.391 . S
C3150 C3151 1.400 . S
C3151 C3150 1.400 . S
C3151 C3152 1.398 . S
C3151 C3157 1.491 . S
C3152 H3143 0.950 . S
C3152 C3151 1.398 . S
C3152 C3153 1.391 . S
C3153 H3141 0.950 . S
C3153 C3149 1.393 . S
C3153 C3152 1.391 . S
C3154 H3144 0.950 . S
C3154 C3155 1.386 . S
C3154 C3156 1.391 . S
C3155 C3154 1.386 . S
C3155 C3159 1.393 . S
C3156 H3145 0.950 . S
C3156 C3154 1.391 . S
C3156 C3157 1.400 . S
C3157 C3151 1.491 . S
C3157 C3156 1.400 . S
C3157 C3158 1.398 . S
C3158 H3146 0.950 . S
C3158 C3157 1.398 . S
C3158 C3159 1.391 . S
C3159 H3147 0.950 . S
C3159 C3155 1.393 . S
C3159 C3158 1.391 . S
H3160 C3168 0.950 . S
H3161 C3173 0.950 . S
H3162 C3170 0.950 . S
H3163 C3172 0.950 . S
H3164 C3174 0.950 . S
H3165 C3176 0.950 . S
H3166 C3178 0.950 . S
H3167 C3179 0.950 . S
C3168 H3160 0.950 . S
C3168 C3169 1.386 . S
C3168 C3170 1.391 . S
C3169 C3168 1.386 . S
C3169 C3173 1.393 . S
C3170 H3162 0.950 . S
C3170 C3168 1.391 . S
C3170 C3171 1.400 . S
C3171 C3170 1.400 . S
C3171 C3172 1.398 . S
C3171 C3177 1.491 . S
C3172 H3163 0.950 . S
C3172 C3171 1.398 . S
C3172 C3173 1.391 . S
C3173 H3161 0.950 . S
C3173 C3169 1.393 . S
C3173 C3172 1.391 . S
C3174 H3164 0.950 . S
C3174 C3175 1.386 . S
C3174 C3176 1.391 . S
C3175 C3174 1.386 . S
C3175 C3179 1.393 . S
C3176 H3165 0.950 . S
C3176 C3174 1.391 . S
C3176 C3177 1.400 . S
C3177 C3171 1.491 . S
C3177 C3176 1.400 . S
C3177 C3178 1.398 . S
C3178 H3166 0.950 . S
C3178 C3177 1.398 . S
C3178 C3179 1.391 . S
C3179 H3167 0.950 . S
C3179 C3175 1.393 . S
C3179 C3178 1.391 . S
H3180 C3188 0.950 . S
H3181 C3193 0.950 . S
H3182 C3190 0.950 . S
H3183 C3192 0.950 . S
H3184 C3194 0.950 . S
H3185 C3196 0.950 . S
H3186 C3198 0.950 . S
H3187 C3199 0.950 . S
C3188 H3180 0.950 . S
C3188 C3189 1.386 . S
C3188 C3190 1.391 . S
C3189 C3188 1.386 . S
C3189 C3193 1.393 . S
C3190 H3182 0.950 . S
C3190 C3188 1.391 . S
C3190 C3191 1.400 . S
C3191 C3190 1.400 . S
C3191 C3192 1.398 . S
C3191 C3197 1.491 . S
C3192 H3183 0.950 . S
C3192 C3191 1.398 . S
C3192 C3193 1.391 . S
C3193 H3181 0.950 . S
C3193 C3189 1.393 . S
C3193 C3192 1.391 . S
C3194 H3184 0.950 . S
C3194 C3195 1.386 . S
C3194 C3196 1.391 . S
C3195 C3194 1.386 . S
C3195 C3199 1.393 . S
C3196 H3185 0.950 . S
C3196 C3194 1.391 . S
C3196 C3197 1.400 . S
C3197 C3191 1.491 . S
C3197 C3196 1.400 . S
C3197 C3198 1.398 . S
C3198 H3186 0.950 . S
C3198 C3197 1.398 . S
C3198 C3199 1.391 . S
C3199 H3187 0.950 . S
C3199 C3195 1.393 . S
C3199 C3198 1.391 . S
H3200 C3208 0.950 . S
H3201 C3213 0.950 . S
H3202 C3210 0.950 . S
H3203 C3212 0.950 . S
H3204 C3214 0.950 . S
H3205 C3216 0.950 . S
H3206 C3218 0.950 . S
H3207 C3219 0.950 . S
C3208 H3200 0.950 . S
C3208 C3209 1.386 . S
C3208 C3210 1.391 . S
C3209 C3208 1.386 . S
C3209 C3213 1.393 . S
C3210 H3202 0.950 . S
C3210 C3208 1.391 . S
C3210 C3211 1.400 . S
C3211 C3210 1.400 . S
C3211 C3212 1.398 . S
C3211 C3217 1.491 . S
C3212 H3203 0.950 . S
C3212 C3211 1.398 . S
C3212 C3213 1.391 . S
C3213 H3201 0.950 . S
C3213 C3209 1.393 . S
C3213 C3212 1.391 . S
C3214 H3204 0.950 . S
C3214 C3215 1.386 . S
C3214 C3216 1.391 . S
C3215 C3214 1.386 . S
C3215 C3219 1.393 . S
C3216 H3205 0.950 . S
C3216 C3214 1.391 . S
C3216 C3217 1.400 . S
C3217 C3211 1.491 . S
C3217 C3216 1.400 . S
C3217 C3218 1.398 . S
C3218 H3206 0.950 . S
C3218 C3217 1.398 . S
C3218 C3219 1.391 . S
C3219 H3207 0.950 . S
C3219 C3215 1.393 . S
C3219 C3218 1.391 . S
H3220 C3228 0.950 . S
H3221 C3233 0.950 . S
H3222 C3230 0.950 . S
H3223 C3232 0.950 . S
H3224 C3234 0.950 . S
H3225 C3236 0.950 . S
H3226 C3238 0.950 . S
H3227 C3239 0.950 . S
C3228 H3220 0.950 . S
C3228 C3229 1.386 . S
C3228 C3230 1.391 . S
C3229 C3228 1.386 . S
C3229 C3233 1.393 . S
C3230 H3222 0.950 . S
C3230 C3228 1.391 . S
C3230 C3231 1.400 . S
C3231 C3230 1.400 . S
C3231 C3232 1.398 . S
C3231 C3237 1.491 . S
C3232 H3223 0.950 . S
C3232 C3231 1.398 . S
C3232 C3233 1.391 . S
C3233 H3221 0.950 . S
C3233 C3229 1.393 . S
C3233 C3232 1.391 . S
C3234 H3224 0.950 . S
C3234 C3235 1.386 . S
C3234 C3236 1.391 . S
C3235 C3234 1.386 . S
C3235 C3239 1.393 . S
C3236 H3225 0.950 . S
C3236 C3234 1.391 . S
C3236 C3237 1.400 . S
C3237 C3231 1.491 . S
C3237 C3236 1.400 . S
C3237 C3238 1.398 . S
C3238 H3226 0.950 . S
C3238 C3237 1.398 . S
C3238 C3239 1.391 . S
C3239 H3227 0.950 . S
C3239 C3235 1.393 . S
C3239 C3238 1.391 . S
H3240 C3248 0.950 . S
H3241 C3253 0.950 . S
H3242 C3250 0.950 . S
H3243 C3252 0.950 . S
H3244 C3254 0.950 . S
H3245 C3256 0.950 . S
H3246 C3258 0.950 . S
H3247 C3259 0.950 . S
C3248 H3240 0.950 . S
C3248 C3249 1.386 . S
C3248 C3250 1.391 . S
C3249 C3248 1.386 . S
C3249 C3253 1.393 . S
C3250 H3242 0.950 . S
C3250 C3248 1.391 . S
C3250 C3251 1.400 . S
C3251 C3250 1.400 . S
C3251 C3252 1.398 . S
C3251 C3257 1.491 . S
C3252 H3243 0.950 . S
C3252 C3251 1.398 . S
C3252 C3253 1.391 . S
C3253 H3241 0.950 . S
C3253 C3249 1.393 . S
C3253 C3252 1.391 . S
C3254 H3244 0.950 . S
C3254 C3255 1.386 . S
C3254 C3256 1.391 . S
C3255 C3254 1.386 . S
C3255 C3259 1.393 . S
C3256 H3245 0.950 . S
C3256 C3254 1.391 . S
C3256 C3257 1.400 . S
C3257 C3251 1.491 . S
C3257 C3256 1.400 . S
C3257 C3258 1.398 . S
C3258 H3246 0.950 . S
C3258 C3257 1.398 . S
C3258 C3259 1.391 . S
C3259 H3247 0.950 . S
C3259 C3255 1.393 . S
C3259 C3258 1.391 . S
H3260 C3268 0.950 . S
H3261 C3273 0.950 . S
H3262 C3270 0.950 . S
H3263 C3272 0.950 . S
H3264 C3274 0.950 . S
H3265 C3276 0.950 . S
H3266 C3278 0.950 . S
H3267 C3279 0.950 . S
C3268 H3260 0.950 . S
C3268 C3269 1.386 . S
C3268 C3270 1.391 . S
C3269 C3268 1.386 . S
C3269 C3273 1.393 . S
C3270 H3262 0.950 . S
C3270 C3268 1.391 . S
C3270 C3271 1.400 . S
C3271 C3270 1.400 . S
C3271 C3272 1.398 . S
C3271 C3277 1.491 . S
C3272 H3263 0.950 . S
C3272 C3271 1.398 . S
C3272 C3273 1.391 . S
C3273 H3261 0.950 . S
C3273 C3269 1.393 . S
C3273 C3272 1.391 . S
C3274 H3264 0.950 . S
C3274 C3275 1.386 . S
C3274 C3276 1.391 . S
C3275 C3274 1.386 . S
C3275 C3279 1.393 . S
C3276 H3265 0.950 . S
C3276 C3274 1.391 . S
C3276 C3277 1.400 . S
C3277 C3271 1.491 . S
C3277 C3276 1.400 . S
C3277 C3278 1.398 . S
C3278 H3266 0.950 . S
C3278 C3277 1.398 . S
C3278 C3279 1.391 . S
C3279 H3267 0.950 . S
C3279 C3275 1.393 . S
C3279 C3278 1.391 . S
H3280 C3288 0.950 . S
H3281 C3293 0.950 . S
H3282 C3290 0.950 . S
H3283 C3292 0.950 . S
H3284 C3294 0.950 . S
H3285 C3296 0.950 . S
H3286 C3298 0.950 . S
H3287 C3299 0.950 . S
C3288 H3280 0.950 . S
C3288 C3289 1.386 . S
C3288 C3290 1.391 . S
C3289 C3288 1.386 . S
C3289 C3293 1.393 . S
C3290 H3282 0.950 . S
C3290 C3288 1.391 . S
C3290 C3291 1.400 . S
C3291 C3290 1.400 . S
C3291 C3292 1.398 . S
C3291 C3297 1.491 . S
C3292 H3283 0.950 . S
C3292 C3291 1.398 . S
C3292 C3293 1.391 . S
C3293 H3281 0.950 . S
C3293 C3289 1.393 . S
C3293 C3292 1.391 . S
C3294 H3284 0.950 . S
C3294 C3295 1.386 . S
C3294 C3296 1.391 . S
C3295 C3294 1.386 . S
C3295 C3299 1.393 . S
C3296 H3285 0.950 . S
C3296 C3294 1.391 . S
C3296 C3297 1.400 . S
C3297 C3291 1.491 . S
C3297 C3296 1.400 . S
C3297 C3298 1.398 . S
C3298 H3286 0.950 . S
C3298 C3297 1.398 . S
C3298 C3299 1.391 . S
C3299 H3287 0.950 . S
C3299 C3295 1.393 . S
C3299 C3298 1.391 . S
H3300 C3308 0.950 . S
H3301 C3313 0.950 . S
H3302 C3310 0.950 . S
H3303 C3312 0.950 . S
H3304 C3314 0.950 . S
H3305 C3316 0.950 . S
H3306 C3318 0.950 . S
H3307 C3319 0.950 . S
C3308 H3300 0.950 . S
C3308 C3309 1.386 . S
C3308 C3310 1.391 . S
C3309 C3308 1.386 . S
C3309 C3313 1.393 . S
C3310 H3302 0.950 . S
C3310 C3308 1.391 . S
C3310 C3311 1.400 . S
C3311 C3310 1.400 . S
C3311 C3312 1.398 . S
C3311 C3317 1.491 . S
C3312 H3303 0.950 . S
C3312 C3311 1.398 . S
C3312 C3313 1.391 . S
C3313 H3301 0.950 . S
C3313 C3309 1.393 . S
C3313 C3312 1.391 . S
C3314 H3304 0.950 . S
C3314 C3315 1.386 . S
C3314 C3316 1.391 . S
C3315 C3314 1.386 . S
C3315 C3319 1.393 . S
C3316 H3305 0.950 . S
C3316 C3314 1.391 . S
C3316 C3317 1.400 . S
C3317 C3311 1.491 . S
C3317 C3316 1.400 . S
C3317 C3318 1.398 . S
C3318 H3306 0.950 . S
C3318 C3317 1.398 . S
C3318 C3319 1.391 . S
C3319 H3307 0.950 . S
C3319 C3315 1.393 . S
C3319 C3318 1.391 . S
H3320 C3328 0.950 . S
H3321 C3333 0.950 . S
H3322 C3330 0.950 . S
H3323 C3332 0.950 . S
H3324 C3334 0.950 . S
H3325 C3336 0.950 . S
H3326 C3338 0.950 . S
H3327 C3339 0.950 . S
C3328 H3320 0.950 . S
C3328 C3329 1.386 . S
C3328 C3330 1.391 . S
C3329 C3328 1.386 . S
C3329 C3333 1.393 . S
C3330 H3322 0.950 . S
C3330 C3328 1.391 . S
C3330 C3331 1.400 . S
C3331 C3330 1.400 . S
C3331 C3332 1.398 . S
C3331 C3337 1.491 . S
C3332 H3323 0.950 . S
C3332 C3331 1.398 . S
C3332 C3333 1.391 . S
C3333 H3321 0.950 . S
C3333 C3329 1.393 . S
C3333 C3332 1.391 . S
C3334 H3324 0.950 . S
C3334 C3335 1.386 1_455 S
C3334 C3336 1.391 1_455 S
C3335 C3334 1.386 1_655 S
C3335 C3339 1.393 . S
C3336 H3325 0.950 . S
C3336 C3334 1.391 1_655 S
C3336 C3337 1.400 . S
C3337 C3331 1.491 . S
C3337 C3336 1.400 . S
C3337 C3338 1.398 . S
C3338 H3326 0.950 . S
C3338 C3337 1.398 . S
C3338 C3339 1.391 . S
C3339 H3327 0.950 . S
C3339 C3335 1.393 . S
C3339 C3338 1.391 . S
H3340 C3348 0.950 . S
H3341 C3353 0.950 . S
H3342 C3350 0.950 . S
H3343 C3352 0.950 . S
H3344 C3354 0.950 . S
H3345 C3356 0.950 . S
H3346 C3358 0.950 . S
H3347 C3359 0.950 . S
C3348 H3340 0.950 . S
C3348 C3349 1.386 . S
C3348 C3350 1.391 . S
C3349 C3348 1.386 . S
C3349 C3353 1.393 . S
C3350 H3342 0.950 . S
C3350 C3348 1.391 . S
C3350 C3351 1.400 . S
C3351 C3350 1.400 . S
C3351 C3352 1.398 . S
C3351 C3357 1.491 . S
C3352 H3343 0.950 . S
C3352 C3351 1.398 . S
C3352 C3353 1.391 . S
C3353 H3341 0.950 . S
C3353 C3349 1.393 . S
C3353 C3352 1.391 . S
C3354 H3344 0.950 . S
C3354 C3355 1.386 . S
C3354 C3356 1.391 . S
C3355 C3354 1.386 . S
C3355 C3359 1.393 . S
C3356 H3345 0.950 . S
C3356 C3354 1.391 . S
C3356 C3357 1.400 . S
C3357 C3351 1.491 . S
C3357 C3356 1.400 . S
C3357 C3358 1.398 . S
C3358 H3346 0.950 . S
C3358 C3357 1.398 . S
C3358 C3359 1.391 . S
C3359 H3347 0.950 . S
C3359 C3355 1.393 . S
C3359 C3358 1.391 . S
H3360 C3368 0.950 . S
H3361 C3373 0.950 . S
H3362 C3370 0.950 . S
H3363 C3372 0.950 . S
H3364 C3374 0.950 . S
H3365 C3376 0.950 . S
H3366 C3378 0.950 . S
H3367 C3379 0.950 . S
C3368 H3360 0.950 . S
C3368 C3369 1.386 . S
C3368 C3370 1.391 . S
C3369 C3368 1.386 . S
C3369 C3373 1.393 . S
C3370 H3362 0.950 . S
C3370 C3368 1.391 . S
C3370 C3371 1.400 . S
C3371 C3370 1.400 . S
C3371 C3372 1.398 . S
C3371 C3377 1.491 . S
C3372 H3363 0.950 . S
C3372 C3371 1.398 . S
C3372 C3373 1.391 . S
C3373 H3361 0.950 . S
C3373 C3369 1.393 . S
C3373 C3372 1.391 . S
C3374 H3364 0.950 . S
C3374 C3375 1.386 . S
C3374 C3376 1.391 . S
C3375 C3374 1.386 . S
C3375 C3379 1.393 . S
C3376 H3365 0.950 . S
C3376 C3374 1.391 . S
C3376 C3377 1.400 . S
C3377 C3371 1.491 . S
C3377 C3376 1.400 . S
C3377 C3378 1.398 . S
C3378 H3366 0.950 . S
C3378 C3377 1.398 . S
C3378 C3379 1.391 . S
C3379 H3367 0.950 . S
C3379 C3375 1.393 . S
C3379 C3378 1.391 . S
H3380 C3388 0.950 . S
H3381 C3393 0.950 . S
H3382 C3390 0.950 . S
H3383 C3392 0.950 . S
H3384 C3394 0.950 . S
H3385 C3396 0.950 . S
H3386 C3398 0.950 . S
H3387 C3399 0.950 . S
C3388 H3380 0.950 . S
C3388 C3389 1.386 . S
C3388 C3390 1.391 . S
C3389 C3388 1.386 . S
C3389 C3393 1.393 . S
C3390 H3382 0.950 . S
C3390 C3388 1.391 . S
C3390 C3391 1.400 . S
C3391 C3390 1.400 . S
C3391 C3392 1.398 . S
C3391 C3397 1.491 . S
C3392 H3383 0.950 . S
C3392 C3391 1.398 . S
C3392 C3393 1.391 . S
C3393 H3381 0.950 . S
C3393 C3389 1.393 . S
C3393 C3392 1.391 . S
C3394 H3384 0.950 . S
C3394 C3395 1.386 . S
C3394 C3396 1.391 . S
C3395 C3394 1.386 . S
C3395 C3399 1.393 . S
C3396 H3385 0.950 . S
C3396 C3394 1.391 . S
C3396 C3397 1.400 . S
C3397 C3391 1.491 . S
C3397 C3396 1.400 . S
C3397 C3398 1.398 . S
C3398 H3386 0.950 . S
C3398 C3397 1.398 . S
C3398 C3399 1.391 . S
C3399 H3387 0.950 . S
C3399 C3395 1.393 . S
C3399 C3398 1.391 . S
H3400 C3408 0.950 . S
H3401 C3413 0.950 . S
H3402 C3410 0.950 . S
H3403 C3412 0.950 . S
H3404 C3414 0.950 . S
H3405 C3416 0.950 . S
H3406 C3418 0.950 . S
H3407 C3419 0.950 . S
C3408 H3400 0.950 . S
C3408 C3409 1.386 . S
C3408 C3410 1.391 . S
C3409 C3408 1.386 . S
C3409 C3413 1.393 . S
C3410 H3402 0.950 . S
C3410 C3408 1.391 . S
C3410 C3411 1.400 . S
C3411 C3410 1.400 . S
C3411 C3412 1.398 . S
C3411 C3417 1.491 . S
C3412 H3403 0.950 . S
C3412 C3411 1.398 . S
C3412 C3413 1.391 . S
C3413 H3401 0.950 . S
C3413 C3409 1.393 . S
C3413 C3412 1.391 . S
C3414 H3404 0.950 . S
C3414 C3415 1.386 . S
C3414 C3416 1.391 . S
C3415 C3414 1.386 . S
C3415 C3419 1.393 . S
C3416 H3405 0.950 . S
C3416 C3414 1.391 . S
C3416 C3417 1.400 . S
C3417 C3411 1.491 . S
C3417 C3416 1.400 . S
C3417 C3418 1.398 . S
C3418 H3406 0.950 . S
C3418 C3417 1.398 . S
C3418 C3419 1.391 . S
C3419 H3407 0.950 . S
C3419 C3415 1.393 . S
C3419 C3418 1.391 . S
H3420 C3428 0.950 . S
H3421 C3433 0.950 . S
H3422 C3430 0.950 . S
H3423 C3432 0.950 . S
H3424 C3434 0.950 . S
H3425 C3436 0.950 . S
H3426 C3438 0.950 . S
H3427 C3439 0.950 . S
C3428 H3420 0.950 . S
C3428 C3429 1.386 . S
C3428 C3430 1.391 . S
C3429 C3428 1.386 . S
C3429 C3433 1.393 . S
C3430 H3422 0.950 . S
C3430 C3428 1.391 . S
C3430 C3431 1.400 . S
C3431 C3430 1.400 . S
C3431 C3432 1.398 . S
C3431 C3437 1.491 . S
C3432 H3423 0.950 . S
C3432 C3431 1.398 . S
C3432 C3433 1.391 . S
C3433 H3421 0.950 . S
C3433 C3429 1.393 . S
C3433 C3432 1.391 . S
C3434 H3424 0.950 . S
C3434 C3435 1.386 . S
C3434 C3436 1.391 . S
C3435 C3434 1.386 . S
C3435 C3439 1.393 . S
C3436 H3425 0.950 . S
C3436 C3434 1.391 . S
C3436 C3437 1.400 . S
C3437 C3431 1.491 . S
C3437 C3436 1.400 . S
C3437 C3438 1.398 . S
C3438 H3426 0.950 . S
C3438 C3437 1.398 . S
C3438 C3439 1.391 . S
C3439 H3427 0.950 . S
C3439 C3435 1.393 . S
C3439 C3438 1.391 . S
H3440 C3448 0.950 . S
H3441 C3453 0.950 . S
H3442 C3450 0.950 . S
H3443 C3452 0.950 . S
H3444 C3454 0.950 . S
H3445 C3456 0.950 . S
H3446 C3458 0.950 . S
H3447 C3459 0.950 . S
C3448 H3440 0.950 . S
C3448 C3449 1.386 . S
C3448 C3450 1.391 . S
C3449 C3448 1.386 . S
C3449 C3453 1.393 . S
C3450 H3442 0.950 . S
C3450 C3448 1.391 . S
C3450 C3451 1.400 . S
C3451 C3450 1.400 . S
C3451 C3452 1.398 . S
C3451 C3457 1.491 . S
C3452 H3443 0.950 . S
C3452 C3451 1.398 . S
C3452 C3453 1.391 . S
C3453 H3441 0.950 . S
C3453 C3449 1.393 . S
C3453 C3452 1.391 . S
C3454 H3444 0.950 . S
C3454 C3455 1.386 . S
C3454 C3456 1.391 . S
C3455 C3454 1.386 . S
C3455 C3459 1.393 . S
C3456 H3445 0.950 . S
C3456 C3454 1.391 . S
C3456 C3457 1.400 . S
C3457 C3451 1.491 . S
C3457 C3456 1.400 . S
C3457 C3458 1.398 . S
C3458 H3446 0.950 . S
C3458 C3457 1.398 . S
C3458 C3459 1.391 . S
C3459 H3447 0.950 . S
C3459 C3455 1.393 . S
C3459 C3458 1.391 . S
H3460 C3468 0.950 . S
H3461 C3473 0.950 . S
H3462 C3470 0.950 . S
H3463 C3472 0.950 . S
H3464 C3474 0.950 . S
H3465 C3476 0.950 . S
H3466 C3478 0.950 . S
H3467 C3479 0.950 . S
C3468 H3460 0.950 . S
C3468 C3469 1.386 . S
C3468 C3470 1.391 . S
C3469 C3468 1.386 . S
C3469 C3473 1.393 . S
C3470 H3462 0.950 . S
C3470 C3468 1.391 . S
C3470 C3471 1.400 . S
C3471 C3470 1.400 . S
C3471 C3472 1.398 . S
C3471 C3477 1.491 . S
C3472 H3463 0.950 . S
C3472 C3471 1.398 . S
C3472 C3473 1.391 . S
C3473 H3461 0.950 . S
C3473 C3469 1.393 . S
C3473 C3472 1.391 . S
C3474 H3464 0.950 . S
C3474 C3475 1.386 . S
C3474 C3476 1.391 . S
C3475 C3474 1.386 . S
C3475 C3479 1.393 . S
C3476 H3465 0.950 . S
C3476 C3474 1.391 . S
C3476 C3477 1.400 . S
C3477 C3471 1.491 . S
C3477 C3476 1.400 . S
C3477 C3478 1.398 . S
C3478 H3466 0.950 . S
C3478 C3477 1.398 . S
C3478 C3479 1.391 . S
C3479 H3467 0.950 . S
C3479 C3475 1.393 . S
C3479 C3478 1.391 . S
H3480 C3488 0.950 . S
H3481 C3493 0.950 . S
H3482 C3490 0.950 . S
H3483 C3492 0.950 . S
H3484 C3494 0.950 . S
H3485 C3496 0.950 . S
H3486 C3498 0.950 . S
H3487 C3499 0.950 . S
C3488 H3480 0.950 . S
C3488 C3489 1.386 . S
C3488 C3490 1.391 . S
C3489 C3488 1.386 . S
C3489 C3493 1.393 . S
C3490 H3482 0.950 . S
C3490 C3488 1.391 . S
C3490 C3491 1.400 . S
C3491 C3490 1.400 . S
C3491 C3492 1.398 . S
C3491 C3497 1.491 . S
C3492 H3483 0.950 . S
C3492 C3491 1.398 . S
C3492 C3493 1.391 . S
C3493 H3481 0.950 . S
C3493 C3489 1.393 . S
C3493 C3492 1.391 . S
C3494 H3484 0.950 . S
C3494 C3495 1.386 . S
C3494 C3496 1.391 . S
C3495 C3494 1.386 . S
C3495 C3499 1.393 . S
C3496 H3485 0.950 . S
C3496 C3494 1.391 . S
C3496 C3497 1.400 . S
C3497 C3491 1.491 . S
C3497 C3496 1.400 . S
C3497 C3498 1.398 . S
C3498 H3486 0.950 . S
C3498 C3497 1.398 . S
C3498 C3499 1.391 . S
C3499 H3487 0.950 . S
C3499 C3495 1.393 . S
C3499 C3498 1.391 . S
H3500 C3508 0.950 . S
H3501 C3513 0.950 . S
H3502 C3510 0.950 . S
H3503 C3512 0.950 . S
H3504 C3514 0.950 . S
H3505 C3516 0.950 . S
H3506 C3518 0.950 . S
H3507 C3519 0.950 . S
C3508 H3500 0.950 . S
C3508 C3509 1.386 . S
C3508 C3510 1.391 . S
C3509 C3508 1.386 . S
C3509 C3513 1.393 . S
C3510 H3502 0.950 . S
C3510 C3508 1.391 . S
C3510 C3511 1.400 . S
C3511 C3510 1.400 . S
C3511 C3512 1.398 . S
C3511 C3517 1.491 . S
C3512 H3503 0.950 . S
C3512 C3511 1.398 . S
C3512 C3513 1.391 . S
C3513 H3501 0.950 . S
C3513 C3509 1.393 . S
C3513 C3512 1.391 . S
C3514 H3504 0.950 . S
C3514 C3515 1.386 . S
C3514 C3516 1.391 . S
C3515 C3514 1.386 . S
C3515 C3519 1.393 . S
C3516 H3505 0.950 . S
C3516 C3514 1.391 . S
C3516 C3517 1.400 . S
C3517 C3511 1.491 . S
C3517 C3516 1.400 . S
C3517 C3518 1.398 . S
C3518 H3506 0.950 . S
C3518 C3517 1.398 . S
C3518 C3519 1.391 . S
C3519 H3507 0.950 . S
C3519 C3515 1.393 . S
C3519 C3518 1.391 . S
H3520 C3528 0.950 . S
H3521 C3533 0.950 . S
H3522 C3530 0.950 . S
H3523 C3532 0.950 . S
H3524 C3534 0.950 . S
H3525 C3536 0.950 . S
H3526 C3538 0.950 . S
H3527 C3539 0.950 . S
C3528 H3520 0.950 . S
C3528 C3529 1.386 . S
C3528 C3530 1.391 . S
C3529 C3528 1.386 . S
C3529 C3533 1.393 . S
C3530 H3522 0.950 . S
C3530 C3528 1.391 . S
C3530 C3531 1.400 . S
C3531 C3530 1.400 . S
C3531 C3532 1.398 . S
C3531 C3537 1.491 . S
C3532 H3523 0.950 . S
C3532 C3531 1.398 . S
C3532 C3533 1.391 . S
C3533 H3521 0.950 . S
C3533 C3529 1.393 . S
C3533 C3532 1.391 . S
C3534 H3524 0.950 . S
C3534 C3535 1.386 . S
C3534 C3536 1.391 . S
C3535 C3534 1.386 . S
C3535 C3539 1.393 . S
C3536 H3525 0.950 . S
C3536 C3534 1.391 . S
C3536 C3537 1.400 . S
C3537 C3531 1.491 . S
C3537 C3536 1.400 . S
C3537 C3538 1.398 . S
C3538 H3526 0.950 . S
C3538 C3537 1.398 . S
C3538 C3539 1.391 . S
C3539 H3527 0.950 . S
C3539 C3535 1.393 . S
C3539 C3538 1.391 . S
H3540 C3548 0.950 . S
H3541 C3553 0.950 . S
H3542 C3550 0.950 . S
H3543 C3552 0.950 . S
H3544 C3554 0.950 . S
H3545 C3556 0.950 . S
H3546 C3558 0.950 . S
H3547 C3559 0.950 . S
C3548 H3540 0.950 . S
C3548 C3549 1.386 . S
C3548 C3550 1.391 . S
C3549 C3548 1.386 . S
C3549 C3553 1.393 . S
C3550 H3542 0.950 . S
C3550 C3548 1.391 . S
C3550 C3551 1.400 . S
C3551 C3550 1.400 . S
C3551 C3552 1.398 . S
C3551 C3557 1.491 . S
C3552 H3543 0.950 . S
C3552 C3551 1.398 . S
C3552 C3553 1.391 . S
C3553 H3541 0.950 . S
C3553 C3549 1.393 . S
C3553 C3552 1.391 . S
C3554 H3544 0.950 . S
C3554 C3555 1.386 . S
C3554 C3556 1.391 . S
C3555 C3554 1.386 . S
C3555 C3559 1.393 . S
C3556 H3545 0.950 . S
C3556 C3554 1.391 . S
C3556 C3557 1.400 . S
C3557 C3551 1.491 . S
C3557 C3556 1.400 . S
C3557 C3558 1.398 . S
C3558 H3546 0.950 . S
C3558 C3557 1.398 . S
C3558 C3559 1.391 . S
C3559 H3547 0.950 . S
C3559 C3555 1.393 . S
C3559 C3558 1.391 . S
H3560 C3568 0.950 . S
H3561 C3573 0.950 . S
H3562 C3570 0.950 . S
H3563 C3572 0.950 . S
H3564 C3574 0.950 . S
H3565 C3576 0.950 . S
H3566 C3578 0.950 . S
H3567 C3579 0.950 . S
C3568 H3560 0.950 . S
C3568 C3569 1.386 . S
C3568 C3570 1.391 . S
C3569 C3568 1.386 . S
C3569 C3573 1.393 . S
C3570 H3562 0.950 . S
C3570 C3568 1.391 . S
C3570 C3571 1.400 . S
C3571 C3570 1.400 . S
C3571 C3572 1.398 . S
C3571 C3577 1.491 . S
C3572 H3563 0.950 . S
C3572 C3571 1.398 . S
C3572 C3573 1.391 . S
C3573 H3561 0.950 . S
C3573 C3569 1.393 . S
C3573 C3572 1.391 . S
C3574 H3564 0.950 . S
C3574 C3575 1.386 . S
C3574 C3576 1.391 . S
C3575 C3574 1.386 . S
C3575 C3579 1.393 . S
C3576 H3565 0.950 . S
C3576 C3574 1.391 . S
C3576 C3577 1.400 . S
C3577 C3571 1.491 . S
C3577 C3576 1.400 . S
C3577 C3578 1.398 . S
C3578 H3566 0.950 . S
C3578 C3577 1.398 . S
C3578 C3579 1.391 . S
C3579 H3567 0.950 . S
C3579 C3575 1.393 . S
C3579 C3578 1.391 . S
H3580 C3588 0.950 . S
H3581 C3593 0.950 . S
H3582 C3590 0.950 . S
H3583 C3592 0.950 . S
H3584 C3594 0.950 . S
H3585 C3596 0.950 . S
H3586 C3598 0.950 . S
H3587 C3599 0.950 . S
C3588 H3580 0.950 . S
C3588 C3589 1.386 . S
C3588 C3590 1.391 . S
C3589 C3588 1.386 . S
C3589 C3593 1.393 . S
C3590 H3582 0.950 . S
C3590 C3588 1.391 . S
C3590 C3591 1.400 . S
C3591 C3590 1.400 . S
C3591 C3592 1.398 . S
C3591 C3597 1.491 . S
C3592 H3583 0.950 . S
C3592 C3591 1.398 . S
C3592 C3593 1.391 . S
C3593 H3581 0.950 . S
C3593 C3589 1.393 . S
C3593 C3592 1.391 . S
C3594 H3584 0.950 . S
C3594 C3595 1.386 . S
C3594 C3596 1.391 . S
C3595 C3594 1.386 . S
C3595 C3599 1.393 . S
C3596 H3585 0.950 . S
C3596 C3594 1.391 . S
C3596 C3597 1.400 . S
C3597 C3591 1.491 . S
C3597 C3596 1.400 . S
C3597 C3598 1.398 . S
C3598 H3586 0.950 . S
C3598 C3597 1.398 . S
C3598 C3599 1.391 . S
C3599 H3587 0.950 . S
C3599 C3595 1.393 . S
C3599 C3598 1.391 . S
C1689 C109 2.076 1_455 S
C1695 C403 2.092 . S
C1709 C65 1.885 . S
C1715 C476 1.867 . S
C1729 C75 1.858 . S
C1735 C571 1.868 . S
C1755 C646 1.428 . S
C1749 C84 1.507 . S
C1769 C25 1.486 . S
C1775 C730 1.414 . S
C1795 C823 1.817 . S
C1789 C28 1.811 . S
C1815 C896 1.887 . S
C1809 C47 1.892 . S
C1829 C9 2.062 . S
C1835 C991 2.097 . S
C1855 C392 1.753 . S
C1849 C233 1.786 . S
C1869 C249 0.902 . S
C1875 C478 0.865 . S
C1895 C560 1.179 . S
C1889 C275 1.187 . S
C1915 C655 1.627 . S
C1909 C173 1.631 . S
C1929 C224 1.678 . S
C1935 C739 1.682 . S
C1955 C812 1.167 . S
C1949 C243 1.185 . S
C1975 C898 0.895 . S
C1969 C266 0.913 . S
C1995 C980 1.610 . S
C1989 C179 1.648 . S
C2015 C394 1.025 1_565 S
C2009 C163 1.034 . S
C2029 C289 1.676 . S
C2035 C1064 1.653 . S
C2055 C1150 1.289 . S
C2049 C333 1.333 . S
C2075 C1243 0.772 . S
C2069 C308 0.770 . S
C2089 C123 1.011 . S
C2095 C982 1.005 . S
C2109 C126 1.419 . S
C2115 C562 1.341 . S
C2129 C327 1.705 . S
C2135 C1316 1.691 . S
C2155 C1411 0.885 . S
C2149 C299 0.891 . S
C2175 C391 2.111 . S
C2169 C67 2.110 . S
C2195 C1412 1.904 . S
C2189 C98 1.880 . S
C2209 C89 1.897 . S
C2215 C559 1.900 . S
C2229 C79 1.568 . S
C2235 C1330 1.464 . S
C2255 C742 1.425 . S
C2249 C11 1.511 . S
C2269 C51 1.827 . S
C2275 C1147 1.856 . S
C2295 C908 1.940 1_556 S
C2289 C33 1.942 . S
C2315 C1483 2.102 . S
C2309 C14 2.107 . S
C2335 C404 1.751 . S
C2329 C140 1.794 . S
C2355 C1414 0.892 . S
C2349 C319 0.914 . S
C2369 C112 1.182 . S
C2375 C572 1.198 . S
C2389 C285 1.657 . S
C2395 C1315 1.655 . S
C2409 C149 1.718 . S
C2415 C727 1.718 . S
C2435 C1160 1.212 . S
C2429 C313 1.222 . S
C2449 C121 0.987 . S
C2455 C910 0.942 . S
C2469 C291 1.686 . S
C2475 C1496 1.656 . S
C2489 C182 1.045 . S
C2495 C406 0.984 . S
C2509 C168 1.672 . S
C2515 C1076 1.674 . S
C2529 C263 1.374 . S
C2535 C826 1.289 . S
C2549 C247 0.831 . S
C2555 C1231 0.823 . S
C2575 C1498 0.976 . S
C2569 C277 1.014 1_565 S
C2589 C219 1.453 . S
C2595 C574 1.374 . S
C2615 C656 1.732 . S
C2609 C257 1.749 . S
C2635 C475 0.897 . S
C2629 C201 0.900 . S
C2649 C81 2.079 . S
C2655 C1579 2.092 . S
C2675 C1400 1.869 . S
C2669 C93 1.882 . S
C2689 C103 1.858 . S
C2695 C1663 1.865 . S
C2709 C56 1.539 . S
C2715 C1318 1.410 . S
C2729 C53 1.499 . S
C2735 C1066 1.404 . S
C2755 C1159 1.818 . S
C2749 C0 1.811 . S
C2775 C1232 1.889 . S
C2769 C19 1.893 . S
C2795 C1495 2.101 . S
C2789 C37 2.076 . S
C2815 C1568 1.749 . S
C2809 C261 1.784 . S
C2829 C193 0.902 1_556 S
C2835 C1402 0.853 . S
C2855 C1652 1.158 . S
C2849 C205 1.180 . S
C2875 C1327 1.633 . S
C2869 C215 1.634 . S
C2895 C1075 1.677 . S
C2889 C252 1.670 . S
C2909 C187 1.173 . S
C2915 C1148 1.176 . S
C2935 C1234 0.908 . S
C2929 C196 0.914 . S
C2949 C221 1.639 . S
C2955 C1484 1.607 . S
C2975 C1570 1.037 . S
C2969 C317 1.026 . S
C2989 C135 1.676 . S
C2995 C728 1.653 . S
C3015 C814 1.288 . S
C3009 C151 1.333 1_565 S
C3035 C907 0.774 . S
C3029 C154 0.780 . S
C3055 C1486 0.989 . S
C3049 C305 1.008 . S
C3069 C280 1.401 . S
C3075 C1654 1.355 . S
C3095 C644 1.689 . S
C3089 C145 1.706 . S
C3115 C487 0.893 . S
C3109 C117 0.888 . S
C3129 C95 2.110 . S
C3135 C1567 2.111 . S
C3155 C488 1.906 . S
C3149 C70 1.879 . S
C3169 C61 1.898 . S
C3175 C1651 1.902 . S
C3189 C107 1.568 . S
C3195 C658 1.446 . S
C3209 C39 1.523 . S
C3215 C1078 1.410 . S
C3235 C811 1.858 . S
C3229 C23 1.839 . S
C3249 C5 1.940 . S
C3255 C1244 1.946 . S
C3269 C42 2.107 . S
C3275 C979 2.103 . S
C3295 C1580 1.732 . S
C3289 C322 1.793 . S
C3309 C165 0.891 . S
C3315 C490 0.862 . S
C3335 C1664 1.199 1_655 S
C3329 C294 1.182 . S
C3349 C131 1.657 . S
C3355 C643 1.654 . S
C3369 C331 1.714 . S
C3375 C1063 1.716 . S
C3395 C824 1.226 . S
C3389 C159 1.238 . S
C3409 C303 0.988 . S
C3415 C1246 0.954 . S
C3435 C992 1.661 . S
C3429 C137 1.688 . S
C3455 C1582 1.012 . S
C3449 C238 1.041 . S
C3475 C740 1.675 1_565 S
C3469 C210 1.671 . S
C3489 C235 1.371 . S
C3495 C1162 1.322 . S
C3515 C895 0.829 . S
C3509 C191 0.823 . S
C3529 C207 1.005 . S
C3535 C994 0.996 . S
C3549 C177 1.452 . S
C3555 C1666 1.378 . S
C3575 C1328 1.742 . S
C3569 C229 1.744 . S
C3595 C1399 0.897 . S
C3589 C271 0.901 . S
