# Generated by pormake.
# Topology ocu, (6,8)-cn, num edge types: 1
# Building blocks:
#     Node 0, Type 0, BuildingBlock: FUNLAD_clean_sbu_0, # of connection points: 6
#     Node 1, Type 0, BuildingBlock: FUNLAD_clean_sbu_0, # of connection points: 6
#     Node 2, Type 0, BuildingBlock: FUNLAD_clean_sbu_0, # of connection points: 6
#     Node 3, Type 0, BuildingBlock: FUNLAD_clean_sbu_0, # of connection points: 6
#     Node 4, Type 0, BuildingBlock: FUNLAD_clean_sbu_0, # of connection points: 6
#     Node 5, Type 0, BuildingBlock: FUNLAD_clean_sbu_0, # of connection points: 6
#     Node 6, Type 0, BuildingBlock: FUNLAD_clean_sbu_0, # of connection points: 6
#     Node 7, Type 0, BuildingBlock: FUNLAD_clean_sbu_0, # of connection points: 6
#     Node 8, Type 1, BuildingBlock: GIZVER_clean_sbu_0, # of connection points: 8
#     Node 9, Type 1, BuildingBlock: GIZVER_clean_sbu_0, # of connection points: 8
#     Node 10, Type 1, BuildingBlock: GIZVER_clean_sbu_0, # of connection points: 8
#     Node 11, Type 1, BuildingBlock: GIZVER_clean_sbu_0, # of connection points: 8
#     Node 12, Type 1, BuildingBlock: GIZVER_clean_sbu_0, # of connection points: 8
#     Node 13, Type 1, BuildingBlock: GIZVER_clean_sbu_0, # of connection points: 8
#     Edge 14, Type (0, 1), None
#     Edge 15, Type (0, 1), None
#     Edge 16, Type (0, 1), None
#     Edge 17, Type (0, 1), None
#     Edge 18, Type (0, 1), None
#     Edge 19, Type (0, 1), None
#     Edge 20, Type (0, 1), None
#     Edge 21, Type (0, 1), None
#     Edge 22, Type (0, 1), None
#     Edge 23, Type (0, 1), None
#     Edge 24, Type (0, 1), None
#     Edge 25, Type (0, 1), None
#     Edge 26, Type (0, 1), None
#     Edge 27, Type (0, 1), None
#     Edge 28, Type (0, 1), None
#     Edge 29, Type (0, 1), None
#     Edge 30, Type (0, 1), None
#     Edge 31, Type (0, 1), None
#     Edge 32, Type (0, 1), None
#     Edge 33, Type (0, 1), None
#     Edge 34, Type (0, 1), None
#     Edge 35, Type (0, 1), None
#     Edge 36, Type (0, 1), None
#     Edge 37, Type (0, 1), None
#     Edge 38, Type (0, 1), None
#     Edge 39, Type (0, 1), None
#     Edge 40, Type (0, 1), None
#     Edge 41, Type (0, 1), None
#     Edge 42, Type (0, 1), None
#     Edge 43, Type (0, 1), None
#     Edge 44, Type (0, 1), None
#     Edge 45, Type (0, 1), None
#     Edge 46, Type (0, 1), None
#     Edge 47, Type (0, 1), None
#     Edge 48, Type (0, 1), None
#     Edge 49, Type (0, 1), None
#     Edge 50, Type (0, 1), None
#     Edge 51, Type (0, 1), None
#     Edge 52, Type (0, 1), None
#     Edge 53, Type (0, 1), None
#     Edge 54, Type (0, 1), None
#     Edge 55, Type (0, 1), None
#     Edge 56, Type (0, 1), None
#     Edge 57, Type (0, 1), None
#     Edge 58, Type (0, 1), None
#     Edge 59, Type (0, 1), None
#     Edge 60, Type (0, 1), None
#     Edge 61, Type (0, 1), None
# Relax obj value: 0.299
# Max RMSD: 0.309
# Mean RMSD: 0.227
data_MOF--net-ocu--node1-FUNLAD_clean_sbu_0--node2-GIZVER_clean_sbu_0--edge1-none
_symmetry_space_group_name_H-M    P1
_symmetry_Int_Tables_number       1
_symmetry_cell_setting            triclinic
loop_
_symmetry_equiv_pos_as_xyz
'x, y, z'
_cell_length_a     21.27645
_cell_length_b     21.729722
_cell_length_c     17.146336
_cell_angle_alpha  78.300263
_cell_angle_beta   82.283214
_cell_angle_gamma 97.834231
loop_
_atom_site_label
_atom_site_type_symbol
_atom_site_fract_x
_atom_site_fract_y
_atom_site_fract_z
_atom_type_partial_charge
C0 C 0.22849 0.37285 0.35824 0.0
N1 N 0.18065 0.21598 0.25433 0.0
C2 C 0.12748 0.24289 0.24235 0.0
C3 C 0.07006 0.20455 0.24145 0.0
C4 C 0.06807 0.13879 0.26155 0.0
C5 C 0.12552 0.11498 0.24914 0.0
C6 C 0.18192 0.15402 0.25211 0.0
Zn7 Zn 0.25995 0.27315 0.25923 0.0
C8 C 0.25855 0.38875 0.13946 0.0
N9 N 0.41661 0.40521 0.26609 0.0
C10 C 0.46994 0.37833 0.27746 0.0
C11 C 0.41641 0.46791 0.26489 0.0
C12 C 0.47436 0.50765 0.26123 0.0
C13 C 0.531 0.48183 0.25065 0.0
C14 C 0.52756 0.41641 0.27784 0.0
Zn15 Zn 0.33691 0.34642 0.26423 0.0
O16 O 0.20474 0.32674 0.32977 0.0
C17 C 0.33228 0.23143 0.39061 0.0
O18 O 0.28877 0.3886 0.34821 0.0
H19 H 0.37264 0.48764 0.26094 0.0
H20 H 0.12847 0.29332 0.23815 0.0
H21 H 0.46928 0.32804 0.28101 0.0
O22 O 0.28043 0.21235 0.36647 0.0
O23 O 0.36438 0.28523 0.35654 0.0
H24 H 0.22537 0.13398 0.25713 0.0
O25 O 0.38921 0.30294 0.17505 0.0
O26 O 0.31105 0.22313 0.1889 0.0
O27 O 0.30357 0.41189 0.17267 0.0
O28 O 0.24079 0.32932 0.15529 0.0
C29 C 0.36739 0.25041 0.15781 0.0
H30 H 1.02614 0.22473 0.24469 0.0
H31 H 0.12542 0.06438 0.25673 0.0
H32 H 0.47588 0.55883 0.24654 0.0
H33 H 0.57089 0.39522 0.2762 0.0
C34 C 0.75254 0.39544 0.13866 0.0
N35 N 0.7427 0.22932 0.16635 0.0
C36 C 0.68932 0.25899 0.15913 0.0
C37 C 0.64069 0.23672 0.12273 0.0
C38 C 0.64507 0.183 0.09296 0.0
C39 C 0.70006 0.15397 0.09523 0.0
C40 C 0.75033 0.18008 0.12933 0.0
Zn41 Zn 0.8243 0.28129 0.19787 0.0
C42 C 0.92759 0.3925 0.19303 0.0
N43 N 0.7866 0.38903 0.38022 0.0
C44 C 0.79842 0.4531 0.34752 0.0
C45 C 0.80778 0.36554 0.45012 0.0
C46 C 0.85187 0.40458 0.4803 0.0
C47 C 0.87104 0.46873 0.44152 0.0
C48 C 0.841 0.49404 0.37739 0.0
Zn49 Zn 0.78941 0.33346 0.29514 0.0
O50 O 0.78872 0.35749 0.11782 0.0
C51 C 0.69581 0.20815 0.3308 0.0
O52 O 0.7384 0.39434 0.21409 0.0
H53 H 0.79689 0.3151 0.47737 0.0
H54 H 0.67995 0.29444 0.19239 0.0
H55 H 0.78235 0.47165 0.29164 0.0
O56 O 0.73964 0.21057 0.27153 0.0
O57 O 0.69655 0.25905 0.35824 0.0
H58 H 0.7945 0.16059 0.12843 0.0
O59 O 0.84096 0.27089 0.368 0.0
O60 O 0.85626 0.20974 0.28127 0.0
O61 O 0.88084 0.40389 0.23924 0.0
O62 O 0.91934 0.34058 0.16986 0.0
C63 C 0.858 0.22045 0.35169 0.0
H64 H 0.59795 0.25887 0.12313 0.0
H65 H 0.70421 0.11245 0.07035 0.0
H66 H 0.87342 0.38461 0.53092 0.0
H67 H 0.85305 0.54416 0.34785 0.0
C68 C 0.81637 0.7251 0.38213 0.0
N69 N 0.89523 0.89939 0.26183 0.0
C70 C 0.88288 0.89439 0.34348 0.0
C71 C 0.9261 0.92021 0.38368 0.0
C72 C 0.98582 0.9505 0.34211 0.0
C73 C 1.00077 0.95559 0.25805 0.0
C74 C 0.95352 0.92937 0.21812 0.0
Zn75 Zn 0.81849 0.842 0.2394 0.0
C76 C 0.84885 0.7429 0.15557 0.0
N77 N 0.65186 0.70717 0.26822 0.0
C78 C 0.60455 0.738 0.24028 0.0
C79 C 0.66784 0.65699 0.23954 0.0
C80 C 0.65191 0.64927 0.16595 0.0
C81 C 0.60864 0.68477 0.1289 0.0
C82 C 0.58301 0.72828 0.16895 0.0
Zn83 Zn 0.73469 0.76611 0.27229 0.0
O84 O 0.84658 0.77448 0.33255 0.0
C85 C 0.70841 0.87601 0.34628 0.0
O86 O 0.75751 0.70683 0.3784 0.0
H87 H 0.70369 0.63162 0.26413 0.0
H88 H 0.84056 0.86575 0.3821 0.0
H89 H 0.59205 0.77809 0.26381 0.0
O90 O 0.76522 0.89152 0.31102 0.0
O91 O 0.67802 0.82183 0.34337 0.0
H92 H 0.96415 0.93072 0.15427 0.0
O93 O 0.71428 0.82041 0.16817 0.0
O94 O 0.78822 0.90534 0.1466 0.0
O95 O 0.79416 0.71622 0.19694 0.0
O96 O 0.87161 0.79935 0.15954 0.0
C97 C 0.73539 0.87736 0.13255 0.0
H98 H 0.91318 0.91303 0.4487 0.0
H99 H 0.04772 0.97862 0.22451 0.0
H100 H 0.67634 0.61774 0.13637 0.0
H101 H 0.5507 0.75764 0.14319 0.0
C102 C 0.20694 0.85832 0.34886 0.0
N103 N 0.36859 0.86207 0.34925 0.0
C104 C 0.34373 0.91861 0.33829 0.0
C105 C 0.3606 0.96568 0.37836 0.0
C106 C 0.4033 0.95648 0.43174 0.0
C107 C 0.4284 0.89931 0.44485 0.0
C108 C 0.40853 0.85151 0.40502 0.0
Zn109 Zn 0.31405 0.77891 0.32071 0.0
C110 C 0.19322 0.68443 0.32239 0.0
N111 N 0.2104 0.81368 0.11878 0.0
C112 C 0.14573 0.81095 0.13988 0.0
C113 C 0.23266 0.78242 0.06197 0.0
C114 C 0.19076 0.73598 0.03938 0.0
C115 C 0.12485 0.72705 0.06758 0.0
C116 C 0.10191 0.76802 0.11422 0.0
Zn117 Zn 0.26155 0.81111 0.21523 0.0
O118 O 0.24127 0.81975 0.37948 0.0
C119 C 0.39824 0.89408 0.18105 0.0
O120 O 0.20988 0.87306 0.2721 0.0
H121 H 0.28381 0.78688 0.04214 0.0
H122 H 0.31366 0.92913 0.29334 0.0
H123 H 0.1279 0.83496 0.18553 0.0
O124 O 0.394 0.8561 0.24944 0.0
O125 O 0.34728 0.89202 0.14796 0.0
H126 H 0.42399 0.80572 0.4193 0.0
O127 O 0.31259 0.7468 0.17058 0.0
O128 O 0.38125 0.73769 0.25651 0.0
O129 O 0.18169 0.73231 0.27443 0.0
O130 O 0.24735 0.68894 0.34604 0.0
C131 C 0.36131 0.72598 0.19313 0.0
H132 H 0.34247 1.01027 0.36473 0.0
H133 H 0.46237 0.89145 0.48597 0.0
H134 H 0.20927 0.7057 1.0023 0.0
H135 H 0.05097 0.76356 0.13585 0.0
C136 C 0.23161 0.88601 0.663 0.0
N137 N 0.30302 0.71739 0.63451 0.0
C138 C 0.28182 0.74093 0.56464 0.0
C139 C 0.23773 0.70192 0.53443 0.0
C140 C 0.21857 0.63776 0.57315 0.0
C141 C 0.24864 0.61241 0.63723 0.0
C142 C 0.29123 0.65331 0.66713 0.0
Zn143 Zn 0.30021 0.77301 0.71953 0.0
C144 C 0.3938 0.89832 0.68386 0.0
N145 N 0.34694 0.87711 0.8483 0.0
C146 C 0.33927 0.92634 0.88534 0.0
C147 C 0.40035 0.84748 0.85549 0.0
C148 C 0.44897 0.86977 0.89189 0.0
C149 C 0.44455 0.92348 0.92168 0.0
C150 C 0.38953 0.95247 0.91945 0.0
Zn151 Zn 0.26532 0.82517 0.81681 0.0
O152 O 0.24864 0.83556 0.6467 0.0
C153 C 0.16202 0.71397 0.82165 0.0
O154 O 0.23337 0.89674 0.73341 0.0
H155 H 0.40972 0.81202 0.82224 0.0
H156 H 0.29273 0.79137 0.53742 0.0
H157 H 0.29508 0.9458 0.88626 0.0
O158 O 0.20878 0.70257 0.77545 0.0
O159 O 0.17027 0.76589 0.8448 0.0
H160 H 0.30731 0.63473 0.72298 0.0
O161 O 0.30091 0.74898 0.89685 0.0
O162 O 0.35122 0.71214 0.80058 0.0
O163 O 0.34997 0.89589 0.74314 0.0
O164 O 0.39306 0.84743 0.65641 0.0
C165 C 0.33709 0.71104 0.876 0.0
H166 H 0.21617 0.72192 0.48383 0.0
H167 H 0.2366 0.56226 0.66671 0.0
H168 H 0.49172 0.84765 0.89148 0.0
H169 H 0.38535 0.99397 0.94434 0.0
C170 C 0.35422 0.22913 0.88207 0.0
N171 N 0.43784 0.39924 0.74642 0.0
C172 C 0.42179 0.44938 0.77514 0.0
C173 C 0.43769 0.45711 0.84874 0.0
C174 C 0.48097 0.42163 0.88581 0.0
C175 C 0.50665 0.37815 0.84575 0.0
C176 C 0.48516 0.36846 0.77438 0.0
Zn177 Zn 0.35492 0.3404 0.74238 0.0
C178 C 0.38115 0.23048 0.66834 0.0
N179 N 0.19433 0.20723 0.75276 0.0
C180 C 0.13613 0.17703 0.79655 0.0
C181 C 0.20663 0.21228 0.6711 0.0
C182 C 0.16341 0.18643 0.63093 0.0
C183 C 0.10376 0.15599 0.67257 0.0
C184 C 0.08889 0.15077 0.75666 0.0
Zn185 Zn 0.27112 0.26454 0.77522 0.0
O186 O 0.3753 0.28611 0.84654 0.0
C187 C 0.2408 0.36364 0.8591 0.0
O188 O 0.30141 0.20115 0.86794 0.0
H189 H 0.24894 0.24095 0.63247 0.0
H190 H 0.38596 0.47476 0.75051 0.0
H191 H 0.12558 0.17556 0.86045 0.0
O192 O 0.29548 0.39034 0.8177 0.0
O193 O 0.21806 0.30717 0.85515 0.0
H194 H 0.4977 0.32838 0.75084 0.0
O195 O 0.24304 0.33212 0.68216 0.0
O196 O 0.33214 0.39969 0.63622 0.0
O197 O 0.3243 0.21501 0.70349 0.0
O198 O 0.41156 0.28462 0.67137 0.0
C199 C 0.27327 0.38146 0.63254 0.0
H200 H 0.41324 0.48864 0.87831 0.0
H201 H 0.53895 0.3488 0.87153 0.0
H202 H 0.17628 0.19366 0.5659 0.0
H203 H 1.042 0.12759 0.79026 0.0
C204 C 0.7283 0.3805 0.82153 0.0
N205 N 0.87926 0.2928 0.89583 0.0
C206 C 0.85697 0.32409 0.95259 0.0
C207 C 0.89885 0.37053 0.9752 0.0
C208 C 0.96477 0.37944 0.94708 0.0
C209 C 0.98773 0.33844 0.90051 0.0
C210 C 0.94394 0.29549 0.87483 0.0
Zn211 Zn 0.82805 0.29539 0.79943 0.0
C212 C 0.69137 0.21241 0.83364 0.0
N213 N 0.72106 0.24435 0.66548 0.0
C214 C 0.68117 0.25496 0.60966 0.0
C215 C 0.74587 0.18779 0.67646 0.0
C216 C 0.72899 0.14073 0.63637 0.0
C217 C 0.68633 0.14997 0.58295 0.0
C218 C 0.66128 0.20717 0.56981 0.0
Zn219 Zn 0.77555 0.32756 0.69395 0.0
O220 O 0.77704 0.35972 0.84406 0.0
C221 C 0.89639 0.42206 0.69226 0.0
O222 O 0.70835 0.36877 0.75817 0.0
H223 H 0.77594 0.17726 0.72142 0.0
H224 H 0.80581 0.31961 0.97241 0.0
H225 H 0.66575 0.30077 0.59536 0.0
O226 O 0.90793 0.37417 0.74021 0.0
O227 O 0.84224 0.41754 0.66864 0.0
H228 H 0.9618 0.27147 0.82922 0.0
O229 O 0.84833 0.28672 0.63517 0.0
O230 O 0.87971 0.23342 0.74257 0.0
O231 O 0.69561 0.25037 0.76523 0.0
O232 O 0.74232 0.21449 0.86674 0.0
C233 C 0.88264 0.24815 0.66581 0.0
H234 H 0.88031 0.40082 0.01225 0.0
H235 H 1.03868 0.34288 0.87895 0.0
H236 H 0.74709 0.09612 0.65002 0.0
H237 H 0.62734 0.21507 0.52866 0.0
C238 C 0.7222 0.85609 0.85685 0.0
N239 N 0.673 0.70128 0.74859 0.0
C240 C 0.6732 0.63857 0.74981 0.0
C241 C 0.61526 0.59881 0.7535 0.0
C242 C 0.55861 0.62462 0.76408 0.0
C243 C 0.56203 0.69004 0.73692 0.0
C244 C 0.61965 0.72814 0.73724 0.0
Zn245 Zn 0.75269 0.76006 0.75044 0.0
C246 C 0.75732 0.87505 0.62406 0.0
N247 N 0.90895 0.89048 0.76036 0.0
C248 C 0.90769 0.95246 0.76258 0.0
C249 C 0.96211 0.86357 0.77237 0.0
C250 C 1.01954 0.9019 0.77328 0.0
C251 C 1.02154 0.96766 0.75317 0.0
C252 C 0.96409 0.99148 0.76558 0.0
Zn253 Zn 0.82964 0.83333 0.75545 0.0
O254 O 0.70039 0.80355 0.83962 0.0
C255 C 0.83105 0.71774 0.87522 0.0
O256 O 0.77854 0.88336 0.82576 0.0
H257 H 0.96112 0.81314 0.77657 0.0
H258 H 0.71698 0.61885 0.75376 0.0
H259 H 0.86425 0.9725 0.75753 0.0
O260 O 0.78604 0.6946 0.842 0.0
O261 O 0.8488 0.77716 0.85941 0.0
H262 H 0.62031 0.77843 0.73367 0.0
O263 O 0.88485 0.77973 0.68493 0.0
O264 O 0.80083 0.71789 0.66646 0.0
O265 O 0.80918 0.89413 0.6482 0.0
O266 O 0.72522 0.82126 0.65813 0.0
C267 C 0.86111 0.73363 0.65645 0.0
H268 H 0.61375 0.54764 0.7682 0.0
H269 H 0.51866 0.71116 0.73854 0.0
H270 H 0.06345 0.88171 0.77007 0.0
H271 H 0.96415 1.04207 0.75795 0.0
Co272 Co 0.12454 0.94737 0.46904 0.0
Co273 Co 0.1676 1.00674 0.56968 0.0
Co274 Co 0.04479 0.05322 0.50736 0.0
O275 O 0.13314 1.03336 0.4772 0.0
H276 H 0.16109 0.0646 0.43376 0.0
O277 O 0.95644 0.07308 0.5375 0.0
Co278 Co 0.96506 0.15907 0.54566 0.0
Co279 Co 0.92199 0.09971 0.44502 0.0
H280 H 0.92849 1.04184 0.58095 0.0
O281 O 0.24805 0.99102 0.58002 0.0
O282 O 0.16076 0.92038 0.57164 0.0
O283 O 0.11895 1.01428 0.66811 0.0
O284 O 1.03184 0.99124 0.61353 0.0
O285 O 0.08372 0.1203 0.55702 0.0
O286 O 0.96728 0.23919 0.56412 0.0
O287 O 0.88914 0.15503 0.61196 0.0
O288 O 1.00115 0.13562 0.63867 0.0
O289 O 0.05775 0.11519 0.40118 0.0
O290 O 0.97064 0.09216 0.34659 0.0
O291 O 0.92884 0.18607 0.44305 0.0
O292 O 0.84154 0.11544 0.43467 0.0
C293 C 0.17531 0.89369 0.40205 0.0
C294 C 1.02971 0.97386 0.39137 0.0
C295 C 0.05922 0.99594 0.67473 0.0
C296 C 0.21435 0.93384 0.59889 0.0
C297 C 0.91428 0.21276 0.61264 0.0
C298 C 0.05987 0.13256 0.62336 0.0
C299 C 1.03037 0.11048 0.33998 0.0
C300 C 0.87525 0.17262 0.4158 0.0
O301 O 0.12231 0.86725 0.45057 0.0
O302 O 0.20045 0.95142 0.40273 0.0
O303 O 1.00586 0.98613 0.4577 0.0
O304 O 0.08843 0.97082 0.37604 0.0
Co305 Co 0.61829 0.93183 0.96857 0.0
Co306 Co 0.60271 0.95117 0.10897 0.0
Co307 Co 0.5448 0.05325 0.00734 0.0
O308 O 0.61726 1.00603 0.01122 0.0
H309 H 0.65911 1.03245 1.00259 0.0
O310 O 0.47233 0.10046 1.00345 0.0
Co311 Co 0.4713 0.17467 0.04608 0.0
Co312 Co 0.4869 0.15532 0.9057 0.0
H313 H 0.43049 0.07405 0.01206 0.0
O314 O 0.67484 0.95615 0.15146 0.0
O315 O 0.63903 0.88824 0.07519 0.0
O316 O 0.51373 0.91522 0.16656 0.0
O317 O 0.47122 0.9863 0.088 0.0
O318 O 0.57026 0.0955 0.09038 0.0
O319 O 0.4684 0.24419 0.08514 0.0
O320 O 0.38652 0.16589 0.0876 0.0
O321 O 0.56043 0.19082 0.01873 0.0
O322 O 0.61838 0.12019 0.92668 0.0
O323 O 0.57587 0.19128 0.84811 0.0
O324 O 0.45057 0.21825 0.93945 0.0
O325 O 0.41478 0.15032 0.86318 0.0
C326 C 0.68115 0.88743 0.90708 0.0
C327 C 0.50077 0.95115 0.94767 0.0
C328 C 0.46407 0.93521 0.14396 0.0
C329 C 0.68456 0.91281 0.11089 0.0
C330 C 0.40844 0.21907 0.10757 0.0
C331 C 0.58883 0.15535 0.067 0.0
C332 C 0.62553 0.17129 0.87072 0.0
C333 C 0.40506 0.19369 0.9037 0.0
O334 O 0.62119 0.86231 0.92951 0.0
O335 O 0.70307 0.94061 0.92704 0.0
O336 O 0.51933 1.01099 0.92429 0.0
O337 O 0.52917 0.91567 0.99594 0.0
Co338 Co 0.13436 0.43685 0.97349 0.0
Co339 Co 0.12607 0.4648 0.10785 0.0
Co340 Co 0.0448 0.55325 0.00734 0.0
O341 O 0.12621 0.51551 0.00851 0.0
H342 H 0.16493 0.54722 0.99225 0.0
O343 O 0.96339 0.59098 1.00618 0.0
Co344 Co 0.95525 0.66966 0.04118 0.0
Co345 Co 0.96353 0.64169 0.90684 0.0
H346 H 0.92467 0.55929 0.02245 0.0
O347 O 0.20333 0.47522 0.1432 0.0
O348 O 0.16599 0.40196 0.07588 0.0
O349 O 1.04217 0.42061 0.17108 0.0
O350 O 0.98825 0.49118 0.10869 0.0
O351 O 0.07926 0.61856 0.06787 0.0
O352 O 0.94616 0.73979 0.07415 0.0
O353 O 0.87114 0.65195 0.09565 0.0
O354 O 1.04123 0.69908 0.99761 0.0
O355 O 0.10136 0.61531 0.906 0.0
O356 O 0.04744 0.68587 0.84358 0.0
O357 O 0.92362 0.70454 0.93878 0.0
O358 O 0.88628 0.63126 0.87149 0.0
C359 C 0.2004 0.39707 0.90795 0.0
C360 C 1.00966 0.4276 0.97142 0.0
C361 C 0.9893 0.43955 0.1608 0.0
C362 C 0.21128 0.42722 0.11063 0.0
C363 C 0.88924 0.70946 0.10672 0.0
C364 C 0.07995 0.6789 0.04327 0.0
C365 C 0.10031 0.66693 0.85388 0.0
C366 C 0.87833 0.67927 0.90403 0.0
O367 O 0.14347 0.36672 0.9405 0.0
O368 O 0.21848 0.45457 0.91904 0.0
O369 O 1.01034 0.48793 0.94682 0.0
O370 O 0.04839 0.40742 0.01705 0.0
Co371 Co 0.63057 0.44222 0.94786 0.0
Co372 Co 0.66735 0.49967 0.05432 0.0
Co373 Co 0.54478 0.55321 0.00735 0.0
O374 O 0.6263 0.52497 0.96597 0.0
H375 H 0.6544 0.55832 0.92527 0.0
O376 O 0.46327 0.58146 0.04874 0.0
Co377 Co 0.45902 0.66423 0.06683 0.0
Co378 Co 0.42224 0.60677 0.96037 0.0
H379 H 0.43517 0.54812 0.08944 0.0
O380 O 0.75197 0.4956 0.05075 0.0
O381 O 0.66806 0.41537 0.05571 0.0
O382 O 0.62679 0.50867 0.15812 0.0
O383 O 0.53503 0.49423 0.11336 0.0
O384 O 0.59973 0.61549 0.04542 0.0
O385 O 0.45067 0.73655 0.09254 0.0
O386 O 0.38019 0.64369 0.12426 0.0
O387 O 0.54549 0.69307 0.01862 0.0
O388 O 0.55454 0.61219 0.90135 0.0
O389 O 0.46279 0.59774 0.85658 0.0
O390 O 0.42156 0.69108 0.95896 0.0
O391 O 0.33762 0.61088 0.96393 0.0
C392 C 0.68968 0.40665 0.87799 0.0
C393 C 0.5005 0.43691 0.9611 0.0
C394 C 0.56634 0.50313 0.16953 0.0
C395 C 0.72373 0.43642 0.0765 0.0
C396 C 0.39992 0.69981 0.13668 0.0
C397 C 0.58909 0.6695 0.05361 0.0
C398 C 0.52324 0.60327 0.84518 0.0
C399 C 0.36589 0.67004 0.93816 0.0
O400 O 0.63894 0.3699 0.92214 0.0
O401 O 0.7094 0.46278 0.89042 0.0
O402 O 0.48984 0.49092 0.96929 0.0
O403 O 0.54411 0.41336 0.99609 0.0
Co404 Co 0.18041 0.48133 0.52571 0.0
Co405 Co 0.13502 0.48886 0.39657 0.0
Co406 Co 0.0448 0.55325 0.50733 0.0
O407 O 0.09304 0.47983 0.50036 0.0
H408 H 0.06599 0.43849 0.51936 0.0
O409 O 0.99657 0.62668 0.51431 0.0
Co410 Co 0.90921 0.62519 0.48894 0.0
Co411 Co 0.95459 0.61763 0.61809 0.0
H412 H 1.02363 0.66801 0.49532 0.0
O413 O 0.1323 0.4158 0.3603 0.0
O414 O 0.21055 0.46181 0.41844 0.0
O415 O 0.16449 0.57434 0.33208 0.0
O416 O 0.10052 0.61895 0.40967 0.0
O417 O 0.97828 0.5203 0.44453 0.0
O418 O 0.83004 0.62655 0.46368 0.0
O419 O 0.91239 0.70831 0.44124 0.0
O420 O 0.89503 0.53765 0.52667 0.0
O421 O 0.98908 0.48754 0.60499 0.0
O422 O 0.9251 0.53215 0.68258 0.0
O423 O 0.87906 0.6447 0.59622 0.0
O424 O 0.95732 0.69069 0.65438 0.0
C425 C 0.23604 0.42064 0.58159 0.0
C426 C 0.17213 0.59655 0.5417 0.0
C427 C 0.14638 0.62348 0.3506 0.0
C428 C 0.18719 0.41594 0.38553 0.0
C429 C 0.8536 0.68592 0.43307 0.0
C430 C 0.91748 0.50997 0.47294 0.0
C431 C 0.94321 0.48302 0.66406 0.0
C432 C 0.90242 0.69054 0.62916 0.0
O433 O 0.2596 0.48 0.55096 0.0
O434 O 0.17725 0.39823 0.57343 0.0
O435 O 0.11133 0.58619 0.57013 0.0
O436 O 0.19457 0.56887 0.48796 0.0
Co437 Co 0.67612 0.98297 0.51841 0.0
Co438 Co 0.63603 1.00645 0.38497 0.0
Co439 Co 0.5448 0.05324 0.50734 0.0
O440 O 0.59355 0.98568 0.48825 0.0
H441 H 0.56737 0.94395 0.49886 0.0
O442 O 0.49605 0.1208 0.52643 0.0
Co443 Co 0.41348 0.12351 0.49625 0.0
Co444 Co 0.45355 0.10003 0.6297 0.0
H445 H 0.52223 0.16253 0.51583 0.0
O446 O 0.62641 0.93903 0.33795 0.0
O447 O 0.70655 0.9699 0.40506 0.0
O448 O 0.6666 0.09731 0.33429 0.0
O449 O 0.60486 0.13238 0.4247 0.0
O450 O 0.48923 1.03546 0.42984 0.0
O451 O 0.3368 0.1291 0.46765 0.0
O452 O 0.41964 0.20776 0.46147 0.0
O453 O 0.39871 1.03286 0.51451 0.0
O454 O 0.48475 0.9741 0.58997 0.0
O455 O 0.42298 1.00917 0.68037 0.0
O456 O 0.38302 0.13658 0.6096 0.0
O457 O 0.46316 0.16745 0.67673 0.0
C458 C 0.72676 0.91802 0.56987 0.0
C459 C 0.65893 0.09479 0.55552 0.0
C460 C 0.65089 0.14355 0.36359 0.0
C461 C 0.67687 0.92773 0.36997 0.0
C462 C 0.36284 0.18846 0.44479 0.0
C463 C 0.43068 1.01169 0.45915 0.0
C464 C 0.4387 0.96293 0.65107 0.0
C465 C 0.41268 0.17873 0.64472 0.0
O466 O 0.7528 0.97737 0.547 0.0
O467 O 0.66995 0.89872 0.5532 0.0
O468 O 0.60037 0.07103 0.58483 0.0
O469 O 0.69089 0.07362 0.50015 0.0
loop_
_geom_bond_atom_site_label_1
_geom_bond_atom_site_label_2
_geom_bond_distance
_geom_bond_site_symmetry_2
_ccdc_geom_bond_type
C0 O16 1.251 . S
C0 O18 1.254 . S
N1 C2 1.333 . S
N1 C6 1.307 . S
N1 Zn7 2.020 . S
C2 N1 1.333 . S
C2 C3 1.379 . S
C2 H20 0.952 . S
C3 C2 1.379 . S
C3 C4 1.390 . S
C3 H30 0.949 . S
C4 C3 1.390 . S
C4 C5 1.357 . S
C5 C4 1.357 . S
C5 C6 1.370 . S
C5 H31 0.950 . S
C6 N1 1.307 . S
C6 C5 1.370 . S
C6 H24 0.948 . S
Zn7 N1 2.020 . S
Zn7 O16 2.039 . S
Zn7 O22 2.034 . S
Zn7 O26 2.025 . S
Zn7 O28 2.024 . S
C8 O27 1.246 . S
C8 O28 1.249 . S
N9 C10 1.307 . S
N9 C11 1.333 . S
N9 Zn15 2.020 . S
C10 N9 1.307 . S
C10 C14 1.370 . S
C10 H21 0.948 . S
C11 N9 1.333 . S
C11 C12 1.379 . S
C11 H19 0.952 . S
C12 C11 1.379 . S
C12 C13 1.390 . S
C12 H32 0.948 1_554 S
C13 C12 1.390 . S
C13 C14 1.357 . S
C14 C10 1.370 . S
C14 C13 1.357 . S
C14 H33 0.950 . S
Zn15 N9 2.020 . S
Zn15 O18 2.025 . S
Zn15 O23 2.024 . S
Zn15 O25 2.039 . S
Zn15 O27 2.034 . S
O16 C0 1.251 . S
O16 Zn7 2.039 . S
C17 O22 1.246 . S
C17 O23 1.249 . S
O18 C0 1.254 . S
O18 Zn15 2.025 . S
H19 C11 0.952 . S
H20 C2 0.952 . S
H21 C10 0.948 . S
O22 Zn7 2.034 . S
O22 C17 1.246 . S
O23 Zn15 2.024 . S
O23 C17 1.249 . S
H24 C6 0.948 . S
O25 Zn15 2.039 . S
O25 C29 1.251 . S
O26 Zn7 2.025 . S
O26 C29 1.254 . S
O27 C8 1.246 . S
O27 Zn15 2.034 . S
O28 Zn7 2.024 . S
O28 C8 1.249 . S
C29 O25 1.251 . S
C29 O26 1.254 . S
H30 C3 0.949 . S
H31 C5 0.950 . S
H32 C12 0.948 1_556 S
H33 C14 0.950 . S
C34 O50 1.251 . S
C34 O52 1.254 . S
N35 C36 1.333 . S
N35 C40 1.307 . S
N35 Zn41 2.020 . S
C36 N35 1.333 . S
C36 C37 1.379 . S
C36 H54 0.952 . S
C37 C36 1.379 . S
C37 C38 1.390 . S
C37 H64 0.949 . S
C38 C37 1.390 . S
C38 C39 1.357 . S
C39 C38 1.357 . S
C39 C40 1.370 . S
C39 H65 0.950 . S
C40 N35 1.307 . S
C40 C39 1.370 . S
C40 H58 0.948 . S
Zn41 N35 2.020 . S
Zn41 O50 2.039 . S
Zn41 O56 2.034 . S
Zn41 O60 2.025 . S
Zn41 O62 2.024 . S
C42 O61 1.246 . S
C42 O62 1.249 . S
N43 C44 1.307 . S
N43 C45 1.333 . S
N43 Zn49 2.020 . S
C44 N43 1.307 . S
C44 C48 1.370 . S
C44 H55 0.948 . S
C45 N43 1.333 . S
C45 C46 1.379 . S
C45 H53 0.952 . S
C46 C45 1.379 . S
C46 C47 1.390 . S
C46 H66 0.949 . S
C47 C46 1.390 . S
C47 C48 1.357 . S
C48 C44 1.370 . S
C48 C47 1.357 . S
C48 H67 0.950 . S
Zn49 N43 2.020 . S
Zn49 O52 2.025 . S
Zn49 O57 2.024 . S
Zn49 O59 2.039 . S
Zn49 O61 2.034 . S
O50 C34 1.251 . S
O50 Zn41 2.039 . S
C51 O56 1.246 . S
C51 O57 1.249 . S
O52 C34 1.254 . S
O52 Zn49 2.025 . S
H53 C45 0.952 . S
H54 C36 0.952 . S
H55 C44 0.948 . S
O56 Zn41 2.034 . S
O56 C51 1.246 . S
O57 Zn49 2.024 . S
O57 C51 1.249 . S
H58 C40 0.948 . S
O59 Zn49 2.039 . S
O59 C63 1.251 . S
O60 Zn41 2.025 . S
O60 C63 1.254 . S
O61 C42 1.246 . S
O61 Zn49 2.034 . S
O62 Zn41 2.024 . S
O62 C42 1.249 . S
C63 O59 1.251 . S
C63 O60 1.254 . S
H64 C37 0.949 . S
H65 C39 0.950 . S
H66 C46 0.949 . S
H67 C48 0.950 . S
C68 O84 1.251 . S
C68 O86 1.254 . S
N69 C70 1.333 . S
N69 C74 1.307 . S
N69 Zn75 2.020 . S
C70 N69 1.333 . S
C70 C71 1.379 . S
C70 H88 0.952 . S
C71 C70 1.379 . S
C71 C72 1.390 . S
C71 H98 0.949 . S
C72 C71 1.390 . S
C72 C73 1.357 . S
C73 C72 1.357 . S
C73 C74 1.370 . S
C73 H99 0.950 . S
C74 N69 1.307 . S
C74 C73 1.370 . S
C74 H92 0.948 . S
Zn75 N69 2.020 . S
Zn75 O84 2.039 . S
Zn75 O90 2.034 . S
Zn75 O94 2.025 . S
Zn75 O96 2.024 . S
C76 O95 1.246 . S
C76 O96 1.249 . S
N77 C78 1.307 . S
N77 C79 1.333 . S
N77 Zn83 2.020 . S
C78 N77 1.307 . S
C78 C82 1.370 . S
C78 H89 0.948 . S
C79 N77 1.333 . S
C79 C80 1.379 . S
C79 H87 0.952 . S
C80 C79 1.379 . S
C80 C81 1.390 . S
C80 H100 0.949 . S
C81 C80 1.390 . S
C81 C82 1.357 . S
C82 C78 1.370 . S
C82 C81 1.357 . S
C82 H101 0.950 . S
Zn83 N77 2.020 . S
Zn83 O86 2.025 . S
Zn83 O91 2.024 . S
Zn83 O93 2.039 . S
Zn83 O95 2.034 . S
O84 C68 1.251 . S
O84 Zn75 2.039 . S
C85 O90 1.246 . S
C85 O91 1.249 . S
O86 C68 1.254 . S
O86 Zn83 2.025 . S
H87 C79 0.952 . S
H88 C70 0.952 . S
H89 C78 0.948 . S
O90 Zn75 2.034 . S
O90 C85 1.246 . S
O91 Zn83 2.024 . S
O91 C85 1.249 . S
H92 C74 0.948 . S
O93 Zn83 2.039 . S
O93 C97 1.251 . S
O94 Zn75 2.025 . S
O94 C97 1.254 . S
O95 C76 1.246 . S
O95 Zn83 2.034 . S
O96 Zn75 2.024 . S
O96 C76 1.249 . S
C97 O93 1.251 . S
C97 O94 1.254 . S
H98 C71 0.949 . S
H99 C73 0.950 . S
H100 C80 0.949 . S
H101 C82 0.950 . S
C102 O118 1.251 . S
C102 O120 1.254 . S
N103 C104 1.333 . S
N103 C108 1.307 . S
N103 Zn109 2.020 . S
C104 N103 1.333 . S
C104 C105 1.379 . S
C104 H122 0.952 . S
C105 C104 1.379 . S
C105 C106 1.390 . S
C105 H132 0.949 . S
C106 C105 1.390 . S
C106 C107 1.357 . S
C107 C106 1.357 . S
C107 C108 1.370 . S
C107 H133 0.950 . S
C108 N103 1.307 . S
C108 C107 1.370 . S
C108 H126 0.948 . S
Zn109 N103 2.020 . S
Zn109 O118 2.039 . S
Zn109 O124 2.034 . S
Zn109 O128 2.025 . S
Zn109 O130 2.024 . S
C110 O129 1.246 . S
C110 O130 1.249 . S
N111 C112 1.307 . S
N111 C113 1.333 . S
N111 Zn117 2.020 . S
C112 N111 1.307 . S
C112 C116 1.370 . S
C112 H123 0.948 . S
C113 N111 1.333 . S
C113 C114 1.379 . S
C113 H121 0.952 . S
C114 C113 1.379 . S
C114 C115 1.390 1_554 S
C114 H134 0.949 . S
C115 C114 1.390 1_556 S
C115 C116 1.357 1_556 S
C116 C112 1.370 . S
C116 C115 1.357 1_554 S
C116 H135 0.950 1_554 S
Zn117 N111 2.020 . S
Zn117 O120 2.025 . S
Zn117 O125 2.024 . S
Zn117 O127 2.039 . S
Zn117 O129 2.034 . S
O118 C102 1.251 . S
O118 Zn109 2.039 . S
C119 O124 1.246 . S
C119 O125 1.249 . S
O120 C102 1.254 . S
O120 Zn117 2.025 . S
H121 C113 0.952 . S
H122 C104 0.952 . S
H123 C112 0.948 . S
O124 Zn109 2.034 . S
O124 C119 1.246 . S
O125 Zn117 2.024 . S
O125 C119 1.249 . S
H126 C108 0.948 . S
O127 Zn117 2.039 . S
O127 C131 1.251 . S
O128 Zn109 2.025 . S
O128 C131 1.254 . S
O129 C110 1.246 . S
O129 Zn117 2.034 . S
O130 Zn109 2.024 . S
O130 C110 1.249 . S
C131 O127 1.251 . S
C131 O128 1.254 . S
H132 C105 0.949 . S
H133 C107 0.950 . S
H134 C114 0.949 . S
H135 C116 0.950 1_556 S
C136 O152 1.251 . S
C136 O154 1.254 . S
N137 C138 1.333 . S
N137 C142 1.307 . S
N137 Zn143 2.020 . S
C138 N137 1.333 . S
C138 C139 1.379 . S
C138 H156 0.952 . S
C139 C138 1.379 . S
C139 C140 1.390 . S
C139 H166 0.949 . S
C140 C139 1.390 . S
C140 C141 1.357 . S
C141 C140 1.357 . S
C141 C142 1.370 . S
C141 H167 0.950 . S
C142 N137 1.307 . S
C142 C141 1.370 . S
C142 H160 0.948 . S
Zn143 N137 2.020 . S
Zn143 O152 2.039 . S
Zn143 O158 2.034 . S
Zn143 O162 2.025 . S
Zn143 O164 2.024 . S
C144 O163 1.246 . S
C144 O164 1.249 . S
N145 C146 1.307 . S
N145 C147 1.333 . S
N145 Zn151 2.020 . S
C146 N145 1.307 . S
C146 C150 1.370 . S
C146 H157 0.948 . S
C147 N145 1.333 . S
C147 C148 1.379 . S
C147 H155 0.952 . S
C148 C147 1.379 . S
C148 C149 1.390 . S
C148 H168 0.949 . S
C149 C148 1.390 . S
C149 C150 1.357 . S
C150 C146 1.370 . S
C150 C149 1.357 . S
C150 H169 0.950 . S
Zn151 N145 2.020 . S
Zn151 O154 2.025 . S
Zn151 O159 2.024 . S
Zn151 O161 2.039 . S
Zn151 O163 2.034 . S
O152 C136 1.251 . S
O152 Zn143 2.039 . S
C153 O158 1.246 . S
C153 O159 1.249 . S
O154 C136 1.254 . S
O154 Zn151 2.025 . S
H155 C147 0.952 . S
H156 C138 0.952 . S
H157 C146 0.948 . S
O158 Zn143 2.034 . S
O158 C153 1.246 . S
O159 Zn151 2.024 . S
O159 C153 1.249 . S
H160 C142 0.948 . S
O161 Zn151 2.039 . S
O161 C165 1.251 . S
O162 Zn143 2.025 . S
O162 C165 1.254 . S
O163 C144 1.246 . S
O163 Zn151 2.034 . S
O164 Zn143 2.024 . S
O164 C144 1.249 . S
C165 O161 1.251 . S
C165 O162 1.254 . S
H166 C139 0.949 . S
H167 C141 0.950 . S
H168 C148 0.949 . S
H169 C150 0.950 . S
C170 O186 1.251 . S
C170 O188 1.254 . S
N171 C172 1.333 . S
N171 C176 1.307 . S
N171 Zn177 2.020 . S
C172 N171 1.333 . S
C172 C173 1.379 . S
C172 H190 0.952 . S
C173 C172 1.379 . S
C173 C174 1.390 . S
C173 H200 0.949 . S
C174 C173 1.390 . S
C174 C175 1.357 . S
C175 C174 1.357 . S
C175 C176 1.370 . S
C175 H201 0.950 . S
C176 N171 1.307 . S
C176 C175 1.370 . S
C176 H194 0.948 . S
Zn177 N171 2.020 . S
Zn177 O186 2.039 . S
Zn177 O192 2.034 . S
Zn177 O196 2.025 . S
Zn177 O198 2.024 . S
C178 O197 1.246 . S
C178 O198 1.249 . S
N179 C180 1.307 . S
N179 C181 1.333 . S
N179 Zn185 2.020 . S
C180 N179 1.307 . S
C180 C184 1.370 . S
C180 H191 0.948 . S
C181 N179 1.333 . S
C181 C182 1.379 . S
C181 H189 0.952 . S
C182 C181 1.379 . S
C182 C183 1.390 . S
C182 H202 0.949 . S
C183 C182 1.390 . S
C183 C184 1.357 . S
C184 C180 1.370 . S
C184 C183 1.357 . S
C184 H203 0.950 . S
Zn185 N179 2.020 . S
Zn185 O188 2.025 . S
Zn185 O193 2.024 . S
Zn185 O195 2.039 . S
Zn185 O197 2.034 . S
O186 C170 1.251 . S
O186 Zn177 2.039 . S
C187 O192 1.246 . S
C187 O193 1.249 . S
O188 C170 1.254 . S
O188 Zn185 2.025 . S
H189 C181 0.952 . S
H190 C172 0.952 . S
H191 C180 0.948 . S
O192 Zn177 2.034 . S
O192 C187 1.246 . S
O193 Zn185 2.024 . S
O193 C187 1.249 . S
H194 C176 0.948 . S
O195 Zn185 2.039 . S
O195 C199 1.251 . S
O196 Zn177 2.025 . S
O196 C199 1.254 . S
O197 C178 1.246 . S
O197 Zn185 2.034 . S
O198 Zn177 2.024 . S
O198 C178 1.249 . S
C199 O195 1.251 . S
C199 O196 1.254 . S
H200 C173 0.949 . S
H201 C175 0.950 . S
H202 C182 0.949 . S
H203 C184 0.950 . S
C204 O220 1.251 . S
C204 O222 1.254 . S
N205 C206 1.333 . S
N205 C210 1.307 . S
N205 Zn211 2.020 . S
C206 N205 1.333 . S
C206 C207 1.379 . S
C206 H224 0.952 . S
C207 C206 1.379 . S
C207 C208 1.390 1_556 S
C207 H234 0.949 . S
C208 C207 1.390 1_554 S
C208 C209 1.357 1_554 S
C209 C208 1.357 1_556 S
C209 C210 1.370 . S
C209 H235 0.950 1_556 S
C210 N205 1.307 . S
C210 C209 1.370 . S
C210 H228 0.948 . S
Zn211 N205 2.020 . S
Zn211 O220 2.039 . S
Zn211 O226 2.034 . S
Zn211 O230 2.025 . S
Zn211 O232 2.024 . S
C212 O231 1.246 . S
C212 O232 1.249 . S
N213 C214 1.307 . S
N213 C215 1.333 . S
N213 Zn219 2.020 . S
C214 N213 1.307 . S
C214 C218 1.370 . S
C214 H225 0.948 . S
C215 N213 1.333 . S
C215 C216 1.379 . S
C215 H223 0.952 . S
C216 C215 1.379 . S
C216 C217 1.390 . S
C216 H236 0.949 . S
C217 C216 1.390 . S
C217 C218 1.357 . S
C218 C214 1.370 . S
C218 C217 1.357 . S
C218 H237 0.950 . S
Zn219 N213 2.020 . S
Zn219 O222 2.025 . S
Zn219 O227 2.024 . S
Zn219 O229 2.039 . S
Zn219 O231 2.034 . S
O220 C204 1.251 . S
O220 Zn211 2.039 . S
C221 O226 1.246 . S
C221 O227 1.249 . S
O222 C204 1.254 . S
O222 Zn219 2.025 . S
H223 C215 0.952 . S
H224 C206 0.952 . S
H225 C214 0.948 . S
O226 Zn211 2.034 . S
O226 C221 1.246 . S
O227 Zn219 2.024 . S
O227 C221 1.249 . S
H228 C210 0.948 . S
O229 Zn219 2.039 . S
O229 C233 1.251 . S
O230 Zn211 2.025 . S
O230 C233 1.254 . S
O231 C212 1.246 . S
O231 Zn219 2.034 . S
O232 Zn211 2.024 . S
O232 C212 1.249 . S
C233 O229 1.251 . S
C233 O230 1.254 . S
H234 C207 0.949 . S
H235 C209 0.950 1_554 S
H236 C216 0.949 . S
H237 C218 0.950 . S
C238 O254 1.251 . S
C238 O256 1.254 . S
N239 C240 1.333 . S
N239 C244 1.307 . S
N239 Zn245 2.020 . S
C240 N239 1.333 . S
C240 C241 1.379 . S
C240 H258 0.952 . S
C241 C240 1.379 . S
C241 C242 1.390 . S
C241 H268 0.947 1_556 S
C242 C241 1.390 . S
C242 C243 1.357 . S
C243 C242 1.357 . S
C243 C244 1.370 . S
C243 H269 0.950 . S
C244 N239 1.307 . S
C244 C243 1.370 . S
C244 H262 0.948 . S
Zn245 N239 2.020 . S
Zn245 O254 2.039 . S
Zn245 O260 2.034 . S
Zn245 O264 2.025 . S
Zn245 O266 2.024 . S
C246 O265 1.246 . S
C246 O266 1.249 . S
N247 C248 1.307 . S
N247 C249 1.333 . S
N247 Zn253 2.020 . S
C248 N247 1.307 . S
C248 C252 1.370 . S
C248 H259 0.948 . S
C249 N247 1.333 . S
C249 C250 1.379 . S
C249 H257 0.952 . S
C250 C249 1.379 . S
C250 C251 1.390 . S
C250 H270 0.949 . S
C251 C250 1.390 . S
C251 C252 1.357 . S
C252 C248 1.370 . S
C252 C251 1.357 . S
C252 H271 0.950 . S
Zn253 N247 2.020 . S
Zn253 O256 2.025 . S
Zn253 O261 2.024 . S
Zn253 O263 2.039 . S
Zn253 O265 2.034 . S
O254 C238 1.251 . S
O254 Zn245 2.039 . S
C255 O260 1.246 . S
C255 O261 1.249 . S
O256 C238 1.254 . S
O256 Zn253 2.025 . S
H257 C249 0.952 . S
H258 C240 0.952 . S
H259 C248 0.948 . S
O260 Zn245 2.034 . S
O260 C255 1.246 . S
O261 Zn253 2.024 . S
O261 C255 1.249 . S
H262 C244 0.948 . S
O263 Zn253 2.039 . S
O263 C267 1.251 . S
O264 Zn245 2.025 . S
O264 C267 1.254 . S
O265 C246 1.246 . S
O265 Zn253 2.034 . S
O266 Zn245 2.024 . S
O266 C246 1.249 . S
C267 O263 1.251 . S
C267 O264 1.254 . S
H268 C241 0.947 1_554 S
H269 C243 0.950 . S
H270 C250 0.949 . S
H271 C252 0.950 . S
Co272 O275 2.042 . S
Co272 O282 2.264 . S
Co272 O301 2.286 . S
Co272 O302 2.069 . S
Co272 O304 2.015 1_455 S
Co273 O275 2.122 . S
Co273 O281 2.073 . S
Co273 O282 2.327 . S
Co273 O283 1.976 1_455 S
Co274 O275 2.086 1_545 S
Co274 O277 2.087 1_455 S
Co274 O284 2.111 1_445 S
Co274 O285 2.144 . S
Co274 O289 2.112 . S
Co274 O303 2.143 1_445 S
O275 Co272 2.042 . S
O275 Co273 2.122 . S
O275 Co274 2.086 1_565 S
O275 H276 0.980 . S
H276 O275 0.980 . S
O277 Co274 2.087 1_655 S
O277 Co278 2.042 . S
O277 Co279 2.122 . S
O277 H280 0.980 . S
Co278 O277 2.042 . S
Co278 O286 2.286 . S
Co278 O287 2.069 . S
Co278 O288 2.015 1_655 S
Co278 O291 2.264 . S
Co279 O277 2.122 . S
Co279 O290 1.976 1_655 S
Co279 O291 2.327 . S
Co279 O292 2.073 . S
H280 O277 0.980 . S
O281 Co273 2.073 . S
O281 C296 1.245 . S
O282 Co272 2.264 . S
O282 Co273 2.327 . S
O282 C296 1.257 . S
O283 Co273 1.976 1_655 S
O283 C295 1.251 . S
O284 Co274 2.111 1_665 S
O284 C295 1.274 . S
O285 Co274 2.144 . S
O285 C298 1.246 . S
O286 Co278 2.286 . S
O286 C297 1.259 . S
O287 Co278 2.069 . S
O287 C297 1.289 . S
O288 Co278 2.015 1_455 S
O288 C298 1.257 . S
O289 Co274 2.112 . S
O289 C299 1.274 . S
O290 Co279 1.976 1_455 S
O290 C299 1.251 . S
O291 Co278 2.264 . S
O291 Co279 2.327 . S
O291 C300 1.257 . S
O292 Co279 2.073 . S
O292 C300 1.245 . S
C293 O301 1.259 . S
C293 O302 1.289 . S
C294 O303 1.246 . S
C294 O304 1.257 . S
C295 O283 1.251 . S
C295 O284 1.274 . S
C296 O281 1.245 . S
C296 O282 1.257 . S
C297 O286 1.259 . S
C297 O287 1.289 . S
C298 O285 1.246 . S
C298 O288 1.257 . S
C299 O289 1.274 . S
C299 O290 1.251 . S
C300 O291 1.257 . S
C300 O292 1.245 . S
O301 Co272 2.286 . S
O301 C293 1.259 . S
O302 Co272 2.069 . S
O302 C293 1.289 . S
O303 Co274 2.143 1_665 S
O303 C294 1.246 . S
O304 Co272 2.015 1_655 S
O304 C294 1.257 . S
Co305 O308 2.042 1_556 S
Co305 O315 2.264 1_556 S
Co305 O334 2.286 . S
Co305 O335 2.069 . S
Co305 O337 2.015 . S
Co306 O308 2.122 . S
Co306 O314 2.073 . S
Co306 O315 2.327 . S
Co306 O316 1.976 . S
Co307 O308 2.086 1_545 S
Co307 O310 2.087 1_554 S
Co307 O317 2.111 1_545 S
Co307 O318 2.144 . S
Co307 O322 2.112 1_554 S
Co307 O336 2.143 1_544 S
O308 Co305 2.042 1_554 S
O308 Co306 2.122 . S
O308 Co307 2.086 1_565 S
O308 H309 0.980 . S
H309 O308 0.980 . S
O310 Co307 2.087 1_556 S
O310 Co311 2.042 1_556 S
O310 Co312 2.122 . S
O310 H313 0.980 . S
Co311 O310 2.042 1_554 S
Co311 O319 2.286 . S
Co311 O320 2.069 . S
Co311 O321 2.015 . S
Co311 O324 2.264 1_554 S
Co312 O310 2.122 . S
Co312 O323 1.976 . S
Co312 O324 2.327 . S
Co312 O325 2.073 . S
H313 O310 0.980 . S
O314 Co306 2.073 . S
O314 C329 1.245 . S
O315 Co305 2.264 1_554 S
O315 Co306 2.327 . S
O315 C329 1.257 . S
O316 Co306 1.976 . S
O316 C328 1.251 . S
O317 Co307 2.111 1_565 S
O317 C328 1.274 . S
O318 Co307 2.144 . S
O318 C331 1.246 . S
O319 Co311 2.286 . S
O319 C330 1.259 . S
O320 Co311 2.069 . S
O320 C330 1.289 . S
O321 Co311 2.015 . S
O321 C331 1.257 . S
O322 Co307 2.112 1_556 S
O322 C332 1.274 . S
O323 Co312 1.976 . S
O323 C332 1.251 . S
O324 Co311 2.264 1_556 S
O324 Co312 2.327 . S
O324 C333 1.257 . S
O325 Co312 2.073 . S
O325 C333 1.245 . S
C326 O334 1.259 . S
C326 O335 1.289 . S
C327 O336 1.246 . S
C327 O337 1.257 . S
C328 O316 1.251 . S
C328 O317 1.274 . S
C329 O314 1.245 . S
C329 O315 1.257 . S
C330 O319 1.259 . S
C330 O320 1.289 . S
C331 O318 1.246 . S
C331 O321 1.257 . S
C332 O322 1.274 . S
C332 O323 1.251 . S
C333 O324 1.257 . S
C333 O325 1.245 . S
O334 Co305 2.286 . S
O334 C326 1.259 . S
O335 Co305 2.069 . S
O335 C326 1.289 . S
O336 Co307 2.143 1_566 S
O336 C327 1.246 . S
O337 Co305 2.015 . S
O337 C327 1.257 . S
Co338 O341 2.042 1_556 S
Co338 O348 2.264 1_556 S
Co338 O367 2.286 . S
Co338 O368 2.069 . S
Co338 O370 2.015 1_455 S
Co339 O341 2.122 . S
Co339 O347 2.073 . S
Co339 O348 2.327 . S
Co339 O349 1.976 1_455 S
Co340 O341 2.087 . S
Co340 O343 2.087 1_454 S
Co340 O350 2.111 1_455 S
Co340 O351 2.143 . S
Co340 O355 2.111 1_554 S
Co340 O369 2.143 1_454 S
O341 Co338 2.042 1_554 S
O341 Co339 2.122 . S
O341 Co340 2.087 . S
O341 H342 0.980 . S
H342 O341 0.980 . S
O343 Co340 2.087 1_656 S
O343 Co344 2.042 1_556 S
O343 Co345 2.122 . S
O343 H346 0.980 . S
Co344 O343 2.042 1_554 S
Co344 O352 2.286 . S
Co344 O353 2.069 . S
Co344 O354 2.015 1_655 S
Co344 O357 2.264 1_554 S
Co345 O343 2.122 . S
Co345 O356 1.976 1_655 S
Co345 O357 2.327 . S
Co345 O358 2.073 . S
H346 O343 0.980 . S
O347 Co339 2.073 . S
O347 C362 1.245 . S
O348 Co338 2.264 1_554 S
O348 Co339 2.327 . S
O348 C362 1.257 . S
O349 Co339 1.976 1_655 S
O349 C361 1.251 . S
O350 Co340 2.111 1_655 S
O350 C361 1.274 . S
O351 Co340 2.143 . S
O351 C364 1.246 . S
O352 Co344 2.286 . S
O352 C363 1.259 . S
O353 Co344 2.069 . S
O353 C363 1.289 . S
O354 Co344 2.015 1_455 S
O354 C364 1.257 . S
O355 Co340 2.111 1_556 S
O355 C365 1.274 . S
O356 Co345 1.976 1_455 S
O356 C365 1.251 . S
O357 Co344 2.264 1_556 S
O357 Co345 2.327 . S
O357 C366 1.257 . S
O358 Co345 2.073 . S
O358 C366 1.245 . S
C359 O367 1.259 . S
C359 O368 1.289 . S
C360 O369 1.246 . S
C360 O370 1.257 . S
C361 O349 1.251 . S
C361 O350 1.274 . S
C362 O347 1.245 . S
C362 O348 1.257 . S
C363 O352 1.259 . S
C363 O353 1.289 . S
C364 O351 1.246 . S
C364 O354 1.257 . S
C365 O355 1.274 . S
C365 O356 1.251 . S
C366 O357 1.257 . S
C366 O358 1.245 . S
O367 Co338 2.286 . S
O367 C359 1.259 . S
O368 Co338 2.069 . S
O368 C359 1.289 . S
O369 Co340 2.143 1_656 S
O369 C360 1.246 . S
O370 Co338 2.015 1_655 S
O370 C360 1.257 . S
Co371 O374 2.042 1_556 S
Co371 O381 2.264 1_556 S
Co371 O400 2.286 . S
Co371 O401 2.069 . S
Co371 O403 2.015 . S
Co372 O374 2.122 . S
Co372 O380 2.073 . S
Co372 O381 2.327 . S
Co372 O382 1.976 . S
Co373 O374 2.087 . S
Co373 O376 2.087 1_554 S
Co373 O383 2.111 . S
Co373 O384 2.143 . S
Co373 O388 2.111 1_554 S
Co373 O402 2.143 1_554 S
O374 Co371 2.042 1_554 S
O374 Co372 2.122 . S
O374 Co373 2.087 . S
O374 H375 0.980 . S
H375 O374 0.980 . S
O376 Co373 2.087 1_556 S
O376 Co377 2.042 1_556 S
O376 Co378 2.122 . S
O376 H379 0.980 . S
Co377 O376 2.042 1_554 S
Co377 O385 2.286 . S
Co377 O386 2.069 . S
Co377 O387 2.015 . S
Co377 O390 2.264 1_554 S
Co378 O376 2.122 . S
Co378 O389 1.976 . S
Co378 O390 2.327 . S
Co378 O391 2.073 . S
H379 O376 0.980 . S
O380 Co372 2.073 . S
O380 C395 1.245 . S
O381 Co371 2.264 1_554 S
O381 Co372 2.327 . S
O381 C395 1.257 . S
O382 Co372 1.976 . S
O382 C394 1.251 . S
O383 Co373 2.111 . S
O383 C394 1.274 . S
O384 Co373 2.143 . S
O384 C397 1.246 . S
O385 Co377 2.286 . S
O385 C396 1.259 . S
O386 Co377 2.069 . S
O386 C396 1.289 . S
O387 Co377 2.015 . S
O387 C397 1.257 . S
O388 Co373 2.111 1_556 S
O388 C398 1.274 . S
O389 Co378 1.976 . S
O389 C398 1.251 . S
O390 Co377 2.264 1_556 S
O390 Co378 2.327 . S
O390 C399 1.257 . S
O391 Co378 2.073 . S
O391 C399 1.245 . S
C392 O400 1.259 . S
C392 O401 1.289 . S
C393 O402 1.246 . S
C393 O403 1.257 . S
C394 O382 1.251 . S
C394 O383 1.274 . S
C395 O380 1.245 . S
C395 O381 1.257 . S
C396 O385 1.259 . S
C396 O386 1.289 . S
C397 O384 1.246 . S
C397 O387 1.257 . S
C398 O388 1.274 . S
C398 O389 1.251 . S
C399 O390 1.257 . S
C399 O391 1.245 . S
O400 Co371 2.286 . S
O400 C392 1.259 . S
O401 Co371 2.069 . S
O401 C392 1.289 . S
O402 Co373 2.143 1_556 S
O402 C393 1.246 . S
O403 Co371 2.015 . S
O403 C393 1.257 . S
Co404 O407 2.042 . S
Co404 O414 2.264 . S
Co404 O433 2.286 . S
Co404 O434 2.069 . S
Co404 O436 2.015 . S
Co405 O407 2.122 . S
Co405 O413 2.073 . S
Co405 O414 2.327 . S
Co405 O415 1.976 . S
Co406 O407 2.087 . S
Co406 O409 2.087 1_455 S
Co406 O416 2.111 . S
Co406 O417 2.143 1_455 S
Co406 O421 2.111 1_455 S
Co406 O435 2.143 . S
O407 Co404 2.042 . S
O407 Co405 2.122 . S
O407 Co406 2.087 . S
O407 H408 0.980 . S
H408 O407 0.980 . S
O409 Co406 2.087 1_655 S
O409 Co410 2.042 . S
O409 Co411 2.122 . S
O409 H412 0.980 . S
Co410 O409 2.042 . S
Co410 O418 2.286 . S
Co410 O419 2.069 . S
Co410 O420 2.015 . S
Co410 O423 2.264 . S
Co411 O409 2.122 . S
Co411 O422 1.976 . S
Co411 O423 2.327 . S
Co411 O424 2.073 . S
H412 O409 0.980 . S
O413 Co405 2.073 . S
O413 C428 1.245 . S
O414 Co404 2.264 . S
O414 Co405 2.327 . S
O414 C428 1.257 . S
O415 Co405 1.976 . S
O415 C427 1.251 . S
O416 Co406 2.111 . S
O416 C427 1.274 . S
O417 Co406 2.143 1_655 S
O417 C430 1.246 . S
O418 Co410 2.286 . S
O418 C429 1.259 . S
O419 Co410 2.069 . S
O419 C429 1.289 . S
O420 Co410 2.015 . S
O420 C430 1.257 . S
O421 Co406 2.111 1_655 S
O421 C431 1.274 . S
O422 Co411 1.976 . S
O422 C431 1.251 . S
O423 Co410 2.264 . S
O423 Co411 2.327 . S
O423 C432 1.257 . S
O424 Co411 2.073 . S
O424 C432 1.245 . S
C425 O433 1.259 . S
C425 O434 1.289 . S
C426 O435 1.246 . S
C426 O436 1.257 . S
C427 O415 1.251 . S
C427 O416 1.274 . S
C428 O413 1.245 . S
C428 O414 1.257 . S
C429 O418 1.259 . S
C429 O419 1.289 . S
C430 O417 1.246 . S
C430 O420 1.257 . S
C431 O421 1.274 . S
C431 O422 1.251 . S
C432 O423 1.257 . S
C432 O424 1.245 . S
O433 Co404 2.286 . S
O433 C425 1.259 . S
O434 Co404 2.069 . S
O434 C425 1.289 . S
O435 Co406 2.143 . S
O435 C426 1.246 . S
O436 Co404 2.015 . S
O436 C426 1.257 . S
Co437 O440 2.042 . S
Co437 O447 2.264 . S
Co437 O466 2.286 . S
Co437 O467 2.069 . S
Co437 O469 2.015 1_565 S
Co438 O440 2.122 . S
Co438 O446 2.073 . S
Co438 O447 2.327 . S
Co438 O448 1.976 1_565 S
Co439 O440 2.086 1_545 S
Co439 O442 2.087 . S
Co439 O449 2.112 . S
Co439 O450 2.143 1_545 S
Co439 O454 2.111 1_545 S
Co439 O468 2.144 . S
O440 Co437 2.042 . S
O440 Co438 2.122 . S
O440 Co439 2.086 1_565 S
O440 H441 0.980 . S
H441 O440 0.980 . S
O442 Co439 2.087 . S
O442 Co443 2.042 . S
O442 Co444 2.122 . S
O442 H445 0.980 . S
Co443 O442 2.042 . S
Co443 O451 2.286 . S
Co443 O452 2.069 . S
Co443 O453 2.015 1_545 S
Co443 O456 2.264 . S
Co444 O442 2.122 . S
Co444 O455 1.976 1_545 S
Co444 O456 2.327 . S
Co444 O457 2.073 . S
H445 O442 0.980 . S
O446 Co438 2.073 . S
O446 C461 1.245 . S
O447 Co437 2.264 . S
O447 Co438 2.327 . S
O447 C461 1.257 . S
O448 Co438 1.976 1_545 S
O448 C460 1.251 . S
O449 Co439 2.112 . S
O449 C460 1.274 . S
O450 Co439 2.143 1_565 S
O450 C463 1.246 . S
O451 Co443 2.286 . S
O451 C462 1.259 . S
O452 Co443 2.069 . S
O452 C462 1.289 . S
O453 Co443 2.015 1_565 S
O453 C463 1.257 . S
O454 Co439 2.111 1_565 S
O454 C464 1.274 . S
O455 Co444 1.976 1_565 S
O455 C464 1.251 . S
O456 Co443 2.264 . S
O456 Co444 2.327 . S
O456 C465 1.257 . S
O457 Co444 2.073 . S
O457 C465 1.245 . S
C458 O466 1.259 . S
C458 O467 1.289 . S
C459 O468 1.246 . S
C459 O469 1.257 . S
C460 O448 1.251 . S
C460 O449 1.274 . S
C461 O446 1.245 . S
C461 O447 1.257 . S
C462 O451 1.259 . S
C462 O452 1.289 . S
C463 O450 1.246 . S
C463 O453 1.257 . S
C464 O454 1.274 . S
C464 O455 1.251 . S
C465 O456 1.257 . S
C465 O457 1.245 . S
O466 Co437 2.286 . S
O466 C458 1.259 . S
O467 Co437 2.069 . S
O467 C458 1.289 . S
O468 Co439 2.144 . S
O468 C459 1.246 . S
O469 Co437 2.015 1_545 S
O469 C459 1.257 . S
C299 C4 1.039 . S
C300 C63 2.493 . S
C294 C72 1.830 . S
C102 C293 1.711 . S
C136 C296 2.491 . S
C298 C183 1.829 . S
C233 C297 1.711 . S
C251 C295 1.037 . S
C330 C29 1.708 . S
C42 C361 3.115 . S
C329 C97 2.141 . S
C364 C115 2.257 1_554 S
C149 C327 2.321 . S
C359 C187 1.716 . S
C212 C332 3.143 . S
C255 C366 1.589 . S
C8 C362 1.586 . S
C153 C365 3.113 . S
C333 C170 2.142 . S
C360 C208 2.257 1_556 S
C238 C326 1.710 . S
C76 C363 1.716 . S
C328 C119 3.144 . S
C38 C331 2.321 . S
C242 C398 1.120 . S
C165 C399 2.149 . S
C393 C174 1.742 . S
C392 C204 1.946 . S
C34 C395 2.148 . S
C397 C81 1.740 . S
C131 C396 1.944 . S
C13 C394 1.120 . S
C267 C432 1.986 . S
C464 C144 3.161 . S
C199 C425 1.351 . S
C217 C459 2.591 . S
C430 C47 2.123 . S
C85 C461 2.688 . S
C427 C110 3.141 . S
C462 C17 1.593 . S
C458 C246 1.593 . S
C51 C460 3.161 . S
C68 C429 1.353 . S
C463 C106 2.591 . S
C0 C428 1.985 . S
C178 C465 2.688 . S
C431 C221 3.143 . S
C426 C140 2.121 . S
