# Generated by pormake.
# Topology gar, (4,6)-cn, num edge types: 1
# Building blocks:
#     Node 0, Type 0, BuildingBlock: KUFVIS_clean_sbu_0, # of connection points: 4
#     Node 1, Type 0, BuildingBlock: KUFVIS_clean_sbu_0, # of connection points: 4
#     Node 2, Type 0, BuildingBlock: KUFVIS_clean_sbu_0, # of connection points: 4
#     Node 3, Type 0, BuildingBlock: KUFVIS_clean_sbu_0, # of connection points: 4
#     Node 4, Type 0, BuildingBlock: KUFVIS_clean_sbu_0, # of connection points: 4
#     Node 5, Type 0, BuildingBlock: KUFVIS_clean_sbu_0, # of connection points: 4
#     Node 6, Type 0, BuildingBlock: KUFVIS_clean_sbu_0, # of connection points: 4
#     Node 7, Type 0, BuildingBlock: KUFVIS_clean_sbu_0, # of connection points: 4
#     Node 8, Type 0, BuildingBlock: KUFVIS_clean_sbu_0, # of connection points: 4
#     Node 9, Type 0, BuildingBlock: KUFVIS_clean_sbu_0, # of connection points: 4
#     Node 10, Type 0, BuildingBlock: KUFVIS_clean_sbu_0, # of connection points: 4
#     Node 11, Type 0, BuildingBlock: KUFVIS_clean_sbu_0, # of connection points: 4
#     Node 12, Type 0, BuildingBlock: KUFVIS_clean_sbu_0, # of connection points: 4
#     Node 13, Type 0, BuildingBlock: KUFVIS_clean_sbu_0, # of connection points: 4
#     Node 14, Type 0, BuildingBlock: KUFVIS_clean_sbu_0, # of connection points: 4
#     Node 15, Type 0, BuildingBlock: KUFVIS_clean_sbu_0, # of connection points: 4
#     Node 16, Type 0, BuildingBlock: KUFVIS_clean_sbu_0, # of connection points: 4
#     Node 17, Type 0, BuildingBlock: KUFVIS_clean_sbu_0, # of connection points: 4
#     Node 18, Type 0, BuildingBlock: KUFVIS_clean_sbu_0, # of connection points: 4
#     Node 19, Type 0, BuildingBlock: KUFVIS_clean_sbu_0, # of connection points: 4
#     Node 20, Type 0, BuildingBlock: KUFVIS_clean_sbu_0, # of connection points: 4
#     Node 21, Type 0, BuildingBlock: KUFVIS_clean_sbu_0, # of connection points: 4
#     Node 22, Type 0, BuildingBlock: KUFVIS_clean_sbu_0, # of connection points: 4
#     Node 23, Type 0, BuildingBlock: KUFVIS_clean_sbu_0, # of connection points: 4
#     Node 24, Type 1, BuildingBlock: PAMTUU_clean_sbu_0, # of connection points: 6
#     Node 25, Type 1, BuildingBlock: PAMTUU_clean_sbu_0, # of connection points: 6
#     Node 26, Type 1, BuildingBlock: PAMTUU_clean_sbu_0, # of connection points: 6
#     Node 27, Type 1, BuildingBlock: PAMTUU_clean_sbu_0, # of connection points: 6
#     Node 28, Type 1, BuildingBlock: PAMTUU_clean_sbu_0, # of connection points: 6
#     Node 29, Type 1, BuildingBlock: PAMTUU_clean_sbu_0, # of connection points: 6
#     Node 30, Type 1, BuildingBlock: PAMTUU_clean_sbu_0, # of connection points: 6
#     Node 31, Type 1, BuildingBlock: PAMTUU_clean_sbu_0, # of connection points: 6
#     Node 32, Type 1, BuildingBlock: PAMTUU_clean_sbu_0, # of connection points: 6
#     Node 33, Type 1, BuildingBlock: PAMTUU_clean_sbu_0, # of connection points: 6
#     Node 34, Type 1, BuildingBlock: PAMTUU_clean_sbu_0, # of connection points: 6
#     Node 35, Type 1, BuildingBlock: PAMTUU_clean_sbu_0, # of connection points: 6
#     Node 36, Type 1, BuildingBlock: PAMTUU_clean_sbu_0, # of connection points: 6
#     Node 37, Type 1, BuildingBlock: PAMTUU_clean_sbu_0, # of connection points: 6
#     Node 38, Type 1, BuildingBlock: PAMTUU_clean_sbu_0, # of connection points: 6
#     Node 39, Type 1, BuildingBlock: PAMTUU_clean_sbu_0, # of connection points: 6
#     Edge 40, Type (0, 1), BuildingBlock: KIFKEQ_clean_linker_1, # of connection points: 2
#     Edge 41, Type (0, 1), BuildingBlock: KIFKEQ_clean_linker_1, # of connection points: 2
#     Edge 42, Type (0, 1), BuildingBlock: KIFKEQ_clean_linker_1, # of connection points: 2
#     Edge 43, Type (0, 1), BuildingBlock: KIFKEQ_clean_linker_1, # of connection points: 2
#     Edge 44, Type (0, 1), BuildingBlock: KIFKEQ_clean_linker_1, # of connection points: 2
#     Edge 45, Type (0, 1), BuildingBlock: KIFKEQ_clean_linker_1, # of connection points: 2
#     Edge 46, Type (0, 1), BuildingBlock: KIFKEQ_clean_linker_1, # of connection points: 2
#     Edge 47, Type (0, 1), BuildingBlock: KIFKEQ_clean_linker_1, # of connection points: 2
#     Edge 48, Type (0, 1), BuildingBlock: KIFKEQ_clean_linker_1, # of connection points: 2
#     Edge 49, Type (0, 1), BuildingBlock: KIFKEQ_clean_linker_1, # of connection points: 2
#     Edge 50, Type (0, 1), BuildingBlock: KIFKEQ_clean_linker_1, # of connection points: 2
#     Edge 51, Type (0, 1), BuildingBlock: KIFKEQ_clean_linker_1, # of connection points: 2
#     Edge 52, Type (0, 1), BuildingBlock: KIFKEQ_clean_linker_1, # of connection points: 2
#     Edge 53, Type (0, 1), BuildingBlock: KIFKEQ_clean_linker_1, # of connection points: 2
#     Edge 54, Type (0, 1), BuildingBlock: KIFKEQ_clean_linker_1, # of connection points: 2
#     Edge 55, Type (0, 1), BuildingBlock: KIFKEQ_clean_linker_1, # of connection points: 2
#     Edge 56, Type (0, 1), BuildingBlock: KIFKEQ_clean_linker_1, # of connection points: 2
#     Edge 57, Type (0, 1), BuildingBlock: KIFKEQ_clean_linker_1, # of connection points: 2
#     Edge 58, Type (0, 1), BuildingBlock: KIFKEQ_clean_linker_1, # of connection points: 2
#     Edge 59, Type (0, 1), BuildingBlock: KIFKEQ_clean_linker_1, # of connection points: 2
#     Edge 60, Type (0, 1), BuildingBlock: KIFKEQ_clean_linker_1, # of connection points: 2
#     Edge 61, Type (0, 1), BuildingBlock: KIFKEQ_clean_linker_1, # of connection points: 2
#     Edge 62, Type (0, 1), BuildingBlock: KIFKEQ_clean_linker_1, # of connection points: 2
#     Edge 63, Type (0, 1), BuildingBlock: KIFKEQ_clean_linker_1, # of connection points: 2
#     Edge 64, Type (0, 1), BuildingBlock: KIFKEQ_clean_linker_1, # of connection points: 2
#     Edge 65, Type (0, 1), BuildingBlock: KIFKEQ_clean_linker_1, # of connection points: 2
#     Edge 66, Type (0, 1), BuildingBlock: KIFKEQ_clean_linker_1, # of connection points: 2
#     Edge 67, Type (0, 1), BuildingBlock: KIFKEQ_clean_linker_1, # of connection points: 2
#     Edge 68, Type (0, 1), BuildingBlock: KIFKEQ_clean_linker_1, # of connection points: 2
#     Edge 69, Type (0, 1), BuildingBlock: KIFKEQ_clean_linker_1, # of connection points: 2
#     Edge 70, Type (0, 1), BuildingBlock: KIFKEQ_clean_linker_1, # of connection points: 2
#     Edge 71, Type (0, 1), BuildingBlock: KIFKEQ_clean_linker_1, # of connection points: 2
#     Edge 72, Type (0, 1), BuildingBlock: KIFKEQ_clean_linker_1, # of connection points: 2
#     Edge 73, Type (0, 1), BuildingBlock: KIFKEQ_clean_linker_1, # of connection points: 2
#     Edge 74, Type (0, 1), BuildingBlock: KIFKEQ_clean_linker_1, # of connection points: 2
#     Edge 75, Type (0, 1), BuildingBlock: KIFKEQ_clean_linker_1, # of connection points: 2
#     Edge 76, Type (0, 1), BuildingBlock: KIFKEQ_clean_linker_1, # of connection points: 2
#     Edge 77, Type (0, 1), BuildingBlock: KIFKEQ_clean_linker_1, # of connection points: 2
#     Edge 78, Type (0, 1), BuildingBlock: KIFKEQ_clean_linker_1, # of connection points: 2
#     Edge 79, Type (0, 1), BuildingBlock: KIFKEQ_clean_linker_1, # of connection points: 2
#     Edge 80, Type (0, 1), BuildingBlock: KIFKEQ_clean_linker_1, # of connection points: 2
#     Edge 81, Type (0, 1), BuildingBlock: KIFKEQ_clean_linker_1, # of connection points: 2
#     Edge 82, Type (0, 1), BuildingBlock: KIFKEQ_clean_linker_1, # of connection points: 2
#     Edge 83, Type (0, 1), BuildingBlock: KIFKEQ_clean_linker_1, # of connection points: 2
#     Edge 84, Type (0, 1), BuildingBlock: KIFKEQ_clean_linker_1, # of connection points: 2
#     Edge 85, Type (0, 1), BuildingBlock: KIFKEQ_clean_linker_1, # of connection points: 2
#     Edge 86, Type (0, 1), BuildingBlock: KIFKEQ_clean_linker_1, # of connection points: 2
#     Edge 87, Type (0, 1), BuildingBlock: KIFKEQ_clean_linker_1, # of connection points: 2
#     Edge 88, Type (0, 1), BuildingBlock: KIFKEQ_clean_linker_1, # of connection points: 2
#     Edge 89, Type (0, 1), BuildingBlock: KIFKEQ_clean_linker_1, # of connection points: 2
#     Edge 90, Type (0, 1), BuildingBlock: KIFKEQ_clean_linker_1, # of connection points: 2
#     Edge 91, Type (0, 1), BuildingBlock: KIFKEQ_clean_linker_1, # of connection points: 2
#     Edge 92, Type (0, 1), BuildingBlock: KIFKEQ_clean_linker_1, # of connection points: 2
#     Edge 93, Type (0, 1), BuildingBlock: KIFKEQ_clean_linker_1, # of connection points: 2
#     Edge 94, Type (0, 1), BuildingBlock: KIFKEQ_clean_linker_1, # of connection points: 2
#     Edge 95, Type (0, 1), BuildingBlock: KIFKEQ_clean_linker_1, # of connection points: 2
#     Edge 96, Type (0, 1), BuildingBlock: KIFKEQ_clean_linker_1, # of connection points: 2
#     Edge 97, Type (0, 1), BuildingBlock: KIFKEQ_clean_linker_1, # of connection points: 2
#     Edge 98, Type (0, 1), BuildingBlock: KIFKEQ_clean_linker_1, # of connection points: 2
#     Edge 99, Type (0, 1), BuildingBlock: KIFKEQ_clean_linker_1, # of connection points: 2
#     Edge 100, Type (0, 1), BuildingBlock: KIFKEQ_clean_linker_1, # of connection points: 2
#     Edge 101, Type (0, 1), BuildingBlock: KIFKEQ_clean_linker_1, # of connection points: 2
#     Edge 102, Type (0, 1), BuildingBlock: KIFKEQ_clean_linker_1, # of connection points: 2
#     Edge 103, Type (0, 1), BuildingBlock: KIFKEQ_clean_linker_1, # of connection points: 2
#     Edge 104, Type (0, 1), BuildingBlock: KIFKEQ_clean_linker_1, # of connection points: 2
#     Edge 105, Type (0, 1), BuildingBlock: KIFKEQ_clean_linker_1, # of connection points: 2
#     Edge 106, Type (0, 1), BuildingBlock: KIFKEQ_clean_linker_1, # of connection points: 2
#     Edge 107, Type (0, 1), BuildingBlock: KIFKEQ_clean_linker_1, # of connection points: 2
#     Edge 108, Type (0, 1), BuildingBlock: KIFKEQ_clean_linker_1, # of connection points: 2
#     Edge 109, Type (0, 1), BuildingBlock: KIFKEQ_clean_linker_1, # of connection points: 2
#     Edge 110, Type (0, 1), BuildingBlock: KIFKEQ_clean_linker_1, # of connection points: 2
#     Edge 111, Type (0, 1), BuildingBlock: KIFKEQ_clean_linker_1, # of connection points: 2
#     Edge 112, Type (0, 1), BuildingBlock: KIFKEQ_clean_linker_1, # of connection points: 2
#     Edge 113, Type (0, 1), BuildingBlock: KIFKEQ_clean_linker_1, # of connection points: 2
#     Edge 114, Type (0, 1), BuildingBlock: KIFKEQ_clean_linker_1, # of connection points: 2
#     Edge 115, Type (0, 1), BuildingBlock: KIFKEQ_clean_linker_1, # of connection points: 2
#     Edge 116, Type (0, 1), BuildingBlock: KIFKEQ_clean_linker_1, # of connection points: 2
#     Edge 117, Type (0, 1), BuildingBlock: KIFKEQ_clean_linker_1, # of connection points: 2
#     Edge 118, Type (0, 1), BuildingBlock: KIFKEQ_clean_linker_1, # of connection points: 2
#     Edge 119, Type (0, 1), BuildingBlock: KIFKEQ_clean_linker_1, # of connection points: 2
#     Edge 120, Type (0, 1), BuildingBlock: KIFKEQ_clean_linker_1, # of connection points: 2
#     Edge 121, Type (0, 1), BuildingBlock: KIFKEQ_clean_linker_1, # of connection points: 2
#     Edge 122, Type (0, 1), BuildingBlock: KIFKEQ_clean_linker_1, # of connection points: 2
#     Edge 123, Type (0, 1), BuildingBlock: KIFKEQ_clean_linker_1, # of connection points: 2
#     Edge 124, Type (0, 1), BuildingBlock: KIFKEQ_clean_linker_1, # of connection points: 2
#     Edge 125, Type (0, 1), BuildingBlock: KIFKEQ_clean_linker_1, # of connection points: 2
#     Edge 126, Type (0, 1), BuildingBlock: KIFKEQ_clean_linker_1, # of connection points: 2
#     Edge 127, Type (0, 1), BuildingBlock: KIFKEQ_clean_linker_1, # of connection points: 2
#     Edge 128, Type (0, 1), BuildingBlock: KIFKEQ_clean_linker_1, # of connection points: 2
#     Edge 129, Type (0, 1), BuildingBlock: KIFKEQ_clean_linker_1, # of connection points: 2
#     Edge 130, Type (0, 1), BuildingBlock: KIFKEQ_clean_linker_1, # of connection points: 2
#     Edge 131, Type (0, 1), BuildingBlock: KIFKEQ_clean_linker_1, # of connection points: 2
#     Edge 132, Type (0, 1), BuildingBlock: KIFKEQ_clean_linker_1, # of connection points: 2
#     Edge 133, Type (0, 1), BuildingBlock: KIFKEQ_clean_linker_1, # of connection points: 2
#     Edge 134, Type (0, 1), BuildingBlock: KIFKEQ_clean_linker_1, # of connection points: 2
#     Edge 135, Type (0, 1), BuildingBlock: KIFKEQ_clean_linker_1, # of connection points: 2
# Relax obj value: 0.168
# Max RMSD: 0.329
# Mean RMSD: 0.159
data_MOF--net-gar--node1-KUFVIS_clean_sbu_0--node2-PAMTUU_clean_sbu_0--edge1-KIFKEQ_clean_linker_1
_symmetry_space_group_name_H-M    P1
_symmetry_Int_Tables_number       1
_symmetry_cell_setting            triclinic
loop_
_symmetry_equiv_pos_as_xyz
'x, y, z'
_cell_length_a     59.619281
_cell_length_b     56.381976
_cell_length_c     60.913797
_cell_angle_alpha  93.499337
_cell_angle_beta   93.766938
_cell_angle_gamma 106.91011
loop_
_atom_site_label
_atom_site_type_symbol
_atom_site_fract_x
_atom_site_fract_y
_atom_site_fract_z
_atom_type_partial_charge
Mn0 Mn 0.06612 0.2795 0.4076 0.0
Mn1 Mn 0.06889 0.31946 0.36682 0.0
C2 C 0.02907 0.28321 0.38783 0.0
C3 C 0.06612 0.23937 0.42536 0.0
C4 C 0.07486 0.33852 0.41614 0.0
O5 O 0.10163 0.28547 0.39664 0.0
O6 O 0.10022 0.31152 0.37054 0.0
C7 C 0.07257 0.28529 0.32914 0.0
N8 N 0.06179 0.30116 0.33846 0.0
C9 C 0.03562 0.29658 0.30563 0.0
C10 C 0.04663 0.28042 0.29561 0.0
C11 C 0.0651 0.27466 0.30747 0.0
C12 C 0.04382 0.30662 0.32728 0.0
H13 H 0.08675 0.28074 0.33815 0.0
C14 C 0.11139 0.29842 0.38078 0.0
O15 O 0.07298 0.26148 0.4353 0.0
O16 O 0.05955 0.2401 0.40463 0.0
N17 N 0.04116 0.32915 0.35982 0.0
C18 C 0.0312 0.34357 0.37234 0.0
C19 C 1.01195 0.35031 0.36313 0.0
C20 C 1.00331 0.34247 0.34107 0.0
C21 C 1.01395 0.32786 0.32843 0.0
C22 C 0.03312 0.32174 0.33848 0.0
H23 H 0.03773 0.34976 0.38929 0.0
O24 O 0.02997 0.27488 0.40722 0.0
O25 O 0.04998 0.28898 0.3802 0.0
O26 O 0.07259 0.31676 0.42319 0.0
O27 O 0.07551 0.34132 0.39541 0.0
C28 C 1.00581 0.31849 0.30646 0.0
C29 C 1.01658 0.30279 0.2951 0.0
H30 H 0.04088 0.27214 0.27891 0.0
H31 H 0.07358 0.26207 0.29991 0.0
H32 H 1.00378 0.36151 0.37303 0.0
H33 H 0.98831 0.3475 0.3341 0.0
H34 H 0.99098 0.32285 0.29829 0.0
H35 H 1.00989 0.29535 0.27834 0.0
Mn36 Mn 0.06476 0.79363 0.67644 0.0
Mn37 Mn 0.07936 0.8398 0.71778 0.0
C38 C 0.1054 0.80731 0.69538 0.0
C39 C 0.05527 0.74981 0.65868 0.0
C40 C 0.07163 0.85133 0.66903 0.0
O41 O 0.03037 0.79242 0.68925 0.0
O42 O 0.04373 0.82373 0.71606 0.0
C43 C 0.06746 0.81006 0.75615 0.0
N44 N 0.08361 0.82654 0.74541 0.0
C45 C 0.1142 0.82901 0.77406 0.0
C46 C 0.09785 0.81221 0.78548 0.0
C47 C 0.07438 0.80268 0.77648 0.0
C48 C 0.10624 0.83586 0.75395 0.0
H49 H 0.04943 0.80251 0.74926 0.0
C50 C 0.0263 0.80644 0.70577 0.0
O51 O 0.05198 0.76834 0.64877 0.0
O52 O 0.06162 0.75586 0.67959 0.0
N53 N 0.1125 0.85636 0.72186 0.0
C54 C 0.12645 0.87105 0.70809 0.0
C55 C 0.15061 0.88142 0.71435 0.0
C56 C 0.16019 0.87656 0.73467 0.0
C57 C 0.14551 0.86136 0.74855 0.0
C58 C 0.12152 0.85169 0.74152 0.0
H59 H 0.11927 0.87467 0.69235 0.0
O60 O 0.10067 0.79819 0.67498 0.0
O61 O 0.08632 0.81003 0.70357 0.0
O62 O 0.06706 0.82825 0.66154 0.0
O63 O 0.07614 0.85714 0.68992 0.0
C64 C 0.15384 0.85497 0.76886 0.0
C65 C 0.1382 0.83882 0.78161 0.0
H66 H 0.10315 0.80632 0.80109 0.0
H67 H 0.06168 0.7896 0.78515 0.0
H68 H 0.16185 0.89301 0.70348 0.0
H69 H 0.17887 0.8844 0.73934 0.0
H70 H 0.17231 0.86211 0.77469 0.0
H71 H 0.14486 0.83381 0.79707 0.0
Mn72 Mn 0.56494 0.7878 0.90818 0.0
Mn73 Mn 0.56779 0.82676 0.86662 0.0
C74 C 0.52771 0.79168 0.88857 0.0
C75 C 0.56463 0.7478 0.92651 0.0
C76 C 0.57482 0.84717 0.91564 0.0
O77 O 0.60033 0.79297 0.89691 0.0
O78 O 0.59891 0.81821 0.87015 0.0
C79 C 0.57022 0.79143 0.82937 0.0
N80 N 0.55991 0.8078 0.83858 0.0
C81 C 0.53318 0.80281 0.80609 0.0
C82 C 0.54369 0.78613 0.79618 0.0
C83 C 0.56222 0.78033 0.80792 0.0
C84 C 0.54192 0.81333 0.82751 0.0
H85 H 0.58443 0.78685 0.8383 0.0
C86 C 0.61005 0.80528 0.88068 0.0
O87 O 0.57186 0.77006 0.93615 0.0
O88 O 0.55785 0.74831 0.9058 0.0
N89 N 0.54029 0.83689 0.85977 0.0
C90 C 0.53081 0.85183 0.87224 0.0
C91 C 0.51154 0.85864 0.86317 0.0
C92 C 0.50237 0.85032 0.84131 0.0
C93 C 0.51252 0.83518 0.82872 0.0
C94 C 0.53173 0.829 0.83862 0.0
H95 H 0.53775 0.8584 0.88903 0.0
O96 O 0.52885 0.78375 0.90811 0.0
O97 O 0.54853 0.79694 0.8807 0.0
O98 O 0.57206 0.82553 0.92312 0.0
O99 O 0.57534 0.84939 0.89482 0.0
C100 C 0.50383 0.82531 0.80698 0.0
C101 C 0.5141 0.80908 0.7957 0.0
H102 H 0.53753 0.77747 0.77966 0.0
H103 H 0.57032 0.76734 0.80044 0.0
H104 H 0.50375 0.87026 0.87303 0.0
H105 H 0.48736 0.85541 0.83445 0.0
H106 H 0.48894 0.82968 0.79893 0.0
H107 H 0.507 0.80127 0.77912 0.0
Mn108 Mn 0.56942 0.30006 0.1789 0.0
Mn109 Mn 0.52471 0.28564 0.13785 0.0
C110 C 0.55492 0.25773 0.15962 0.0
C111 C 0.61219 0.30764 0.19449 0.0
C112 C 0.5146 0.2957 0.18662 0.0
O113 O 0.57207 0.33605 0.16521 0.0
O114 O 0.5416 0.32253 0.13887 0.0
C115 C 0.55192 0.2959 0.09867 0.0
N116 N 0.53597 0.27981 0.10992 0.0
C117 C 0.53037 0.2469 0.08111 0.0
C118 C 0.54651 0.26323 0.06913 0.0
C119 C 0.55736 0.28781 0.07798 0.0
C120 C 0.52538 0.2561 0.10153 0.0
H121 H 0.56054 0.31474 0.10545 0.0
C122 C 0.559 0.34032 0.14848 0.0
O123 O 0.59594 0.31254 0.20551 0.0
O124 O 0.60444 0.30086 0.17398 0.0
N125 N 0.50782 0.25089 0.13462 0.0
C126 C 0.49459 0.23682 0.14923 0.0
C127 C 0.48362 0.21138 0.14347 0.0
C128 C 0.48641 0.20064 0.12281 0.0
C129 C 0.50022 0.21544 0.1081 0.0
C130 C 0.51058 0.24075 0.11467 0.0
H131 H 0.49259 0.24489 0.16524 0.0
O132 O 0.56355 0.26182 0.18006 0.0
O133 O 0.55267 0.27812 0.15195 0.0
O134 O 0.53657 0.29995 0.19424 0.0
O135 O 0.50918 0.29046 0.16579 0.0
C136 C 0.50463 0.20591 0.08744 0.0
C137 C 0.51964 0.22164 0.07393 0.0
H138 H 0.55098 0.25698 0.05329 0.0
H139 H 0.57001 0.30046 0.06893 0.0
H140 H 0.47315 0.20004 0.15499 0.0
H141 H 0.47812 0.18095 0.11852 0.0
H142 H 0.4969 0.18641 0.08194 0.0
H143 H 0.52324 0.21399 0.05826 0.0
Mn144 Mn 0.11634 0.81617 0.14385 0.0
Mn145 Mn 0.07575 0.79483 0.10019 0.0
C146 C 0.10592 0.77426 0.13004 0.0
C147 C 0.15462 0.83166 0.16166 0.0
C148 C 0.0627 0.80346 0.14639 0.0
O149 O 0.11539 0.84904 0.13073 0.0
O150 O 0.0872 0.832 0.10311 0.0
C151 C 0.10768 0.81136 0.06524 0.0
N152 N 0.09181 0.79285 0.07431 0.0
C153 C 0.0939 0.76261 0.04548 0.0
C154 C 0.11017 0.78138 0.03576 0.0
C155 C 0.11712 0.80585 0.04571 0.0
C156 C 0.08505 0.76923 0.06491 0.0
H157 H 0.11311 0.83017 0.07285 0.0
C158 C 0.10155 0.85104 0.11432 0.0
O159 O 0.13635 0.83403 0.17092 0.0
O160 O 0.15097 0.82238 0.14122 0.0
N161 N 0.06299 0.75946 0.095 0.0
C162 C 0.0477 0.74338 0.10684 0.0
C163 C 0.03932 0.71806 0.09931 0.0
C164 C 0.04648 0.70959 0.07956 0.0
C165 C 0.06188 0.72657 0.06746 0.0
C166 C 0.06956 0.7516 0.07572 0.0
H167 H 0.04213 0.74977 0.12202 0.0
O168 O 0.11446 0.78118 0.15031 0.0
O169 O 0.10342 0.79203 0.11825 0.0
O170 O 0.08385 0.81226 0.1549 0.0
O171 O 0.05743 0.7956 0.12605 0.0
C172 C 0.07029 0.71955 0.04775 0.0
C173 C 0.08633 0.73755 0.0368 0.0
H174 H 0.11755 0.7772 0.02074 0.0
H175 H 0.12975 0.82041 0.03836 0.0
H176 H 0.02743 0.70508 0.10874 0.0
H177 H 0.04017 0.69001 0.07393 0.0
H178 H 0.06476 0.70031 0.04103 0.0
H179 H 0.09287 0.73187 0.0218 0.0
Mn180 Mn 0.52014 0.77807 0.44362 0.0
Mn181 Mn 0.52044 0.81502 0.40149 0.0
C182 C 0.48465 0.77666 0.42309 0.0
C183 C 0.52508 0.74117 0.45781 0.0
C184 C 0.52713 0.83459 0.4499 0.0
O185 O 0.55489 0.78891 0.43652 0.0
O186 O 0.55141 0.80928 0.40632 0.0
C187 C 0.52567 0.78116 0.36441 0.0
N188 N 0.51373 0.79591 0.37362 0.0
C189 C 0.48786 0.79048 0.3405 0.0
C190 C 0.49989 0.77525 0.33061 0.0
C191 C 0.51877 0.77042 0.34269 0.0
C192 C 0.49525 0.80025 0.36233 0.0
H193 H 0.54043 0.77776 0.37355 0.0
C194 C 0.56335 0.80038 0.42 0.0
O195 O 0.52796 0.7615 0.47025 0.0
O196 O 0.51889 0.74197 0.43706 0.0
N197 N 0.49157 0.82245 0.39469 0.0
C198 C 0.48137 0.83688 0.40689 0.0
C199 C 0.46188 0.84301 0.39741 0.0
C200 C 0.45346 0.83479 0.37534 0.0
C201 C 0.46454 0.82037 0.363 0.0
C202 C 0.48366 0.81454 0.37341 0.0
H203 H 0.48808 0.84371 0.4237 0.0
O204 O 0.48448 0.76856 0.44262 0.0
O205 O 0.50535 0.78493 0.41606 0.0
O206 O 0.52329 0.81351 0.45806 0.0
O207 O 0.52734 0.83688 0.4292 0.0
C208 C 0.4574 0.81158 0.34074 0.0
C209 C 0.46888 0.79642 0.32957 0.0
H210 H 0.49476 0.76714 0.31379 0.0
H211 H 0.52813 0.75867 0.33518 0.0
H212 H 0.4535 0.85426 0.40702 0.0
H213 H 0.43849 0.83965 0.36805 0.0
H214 H 0.44283 0.81604 0.33217 0.0
H215 H 0.4629 0.78937 0.3126 0.0
Mn216 Mn 0.61881 0.3188 0.64385 0.0
Mn217 Mn 0.57699 0.29615 0.60134 0.0
C218 C 0.60849 0.27682 0.63066 0.0
C219 C 0.65738 0.33415 0.66102 0.0
C220 C 0.56532 0.30511 0.64796 0.0
O221 O 0.61703 0.35136 0.6304 0.0
O222 O 0.58782 0.33321 0.60395 0.0
C223 C 0.60759 0.31279 0.56544 0.0
N224 N 0.59231 0.2942 0.57498 0.0
C225 C 0.59415 0.26386 0.54614 0.0
C226 C 0.6098 0.28271 0.53594 0.0
C227 C 0.61658 0.30727 0.54566 0.0
C228 C 0.58575 0.27049 0.56581 0.0
H229 H 0.61288 0.33168 0.57288 0.0
C230 C 0.60224 0.35266 0.61449 0.0
O231 O 0.63934 0.33678 0.67053 0.0
O232 O 0.6534 0.32523 0.64047 0.0
N233 N 0.56468 0.26071 0.59653 0.0
C234 C 0.54988 0.24461 0.60873 0.0
C235 C 0.54167 0.21922 0.60143 0.0
C236 C 0.54849 0.2107 0.58152 0.0
C237 C 0.56334 0.2277 0.56902 0.0
C238 C 0.57087 0.2528 0.57708 0.0
H239 H 0.54453 0.25106 0.62402 0.0
O240 O 0.61756 0.28415 0.6507 0.0
O241 O 0.60541 0.2942 0.61868 0.0
O242 O 0.58665 0.31454 0.6558 0.0
O243 O 0.55948 0.29691 0.62775 0.0
C244 C 0.57133 0.22066 0.54909 0.0
C245 C 0.58677 0.23871 0.53769 0.0
H246 H 0.61682 0.27852 0.52071 0.0
H247 H 0.62872 0.3219 0.53793 0.0
H248 H 0.53018 0.20622 0.61115 0.0
H249 H 0.54232 0.19107 0.57606 0.0
H250 H 0.56592 0.20136 0.54252 0.0
H251 H 0.59298 0.23303 0.52251 0.0
Mn252 Mn 1.0193 0.27539 0.94189 0.0
Mn253 Mn 1.0183 0.31072 0.89873 0.0
C254 C 0.98349 0.27265 0.92137 0.0
C255 C 0.02454 0.23921 0.9574 0.0
C256 C 0.025 0.33187 0.9467 0.0
O257 O 0.05393 0.28623 0.93427 0.0
O258 O 0.04981 0.30632 0.90402 0.0
C259 C 0.02466 0.27619 0.86272 0.0
N260 N 1.0121 0.29063 0.87136 0.0
C261 C 0.98581 0.28278 0.83829 0.0
C262 C 0.99847 0.26785 0.82899 0.0
C263 C 1.01788 0.26441 0.84132 0.0
C264 C 0.99315 0.29368 0.85982 0.0
H265 H 0.03977 0.2738 0.87207 0.0
C266 C 0.06212 0.29781 0.91769 0.0
O267 O 0.02779 0.26012 0.96906 0.0
O268 O 1.01803 0.23909 0.93658 0.0
N269 N 0.98887 0.31677 0.89141 0.0
C270 C 0.97814 0.33113 0.90304 0.0
C271 C 0.95813 0.336 0.89323 0.0
C272 C 0.9497 0.32657 0.8714 0.0
C273 C 0.9613 0.31224 0.85963 0.0
C274 C 0.98098 0.30775 0.87035 0.0
H275 H 0.98482 0.33885 0.91966 0.0
O276 O 0.98366 0.26554 0.94126 0.0
O277 O 1.00405 0.28096 0.91409 0.0
O278 O 1.02226 0.31118 0.95537 0.0
O279 O 0.02456 0.33348 0.92588 0.0
C280 C 0.95413 0.30223 0.83766 0.0
C281 C 0.96623 0.28731 0.82707 0.0
H282 H 0.99343 0.25891 0.81241 0.0
H283 H 0.02772 0.25289 0.83427 0.0
H284 H 0.94934 0.34718 0.9024 0.0
H285 H 0.9343 0.33042 0.86386 0.0
H286 H 0.9391 0.30558 0.82887 0.0
H287 H 0.96026 0.27933 0.81032 0.0
Mn288 Mn 0.46863 0.05784 0.32955 0.0
Mn289 Mn 0.42633 0.04279 0.36424 0.0
C290 C 0.45242 0.01679 0.33598 0.0
C291 C 0.47937 0.06663 0.29465 0.0
C292 C 0.47768 0.06928 0.37848 0.0
O293 O 0.45694 0.08816 0.3325 0.0
O294 O 0.42419 0.07273 0.34996 0.0
C295 C 0.3832 0.02925 0.33345 0.0
N296 N 0.39714 0.02286 0.34922 0.0
C297 C 0.37043 0.98147 0.34812 0.0
C298 C 0.35575 0.98765 0.33193 0.0
C299 C 0.36218 1.01163 0.32455 0.0
C300 C 0.39109 0.99986 0.35649 0.0
H301 H 0.38812 0.04762 0.32762 0.0
C302 C 0.43722 0.08915 0.33886 0.0
O303 O 0.49415 0.07516 0.31194 0.0
O304 O 0.45828 0.05315 0.29771 0.0
N305 N 0.42683 0.01331 0.37811 0.0
C306 C 0.44371 1.00975 0.39263 0.0
C307 C 0.44036 0.98644 0.40102 0.0
C308 C 0.4197 0.96703 0.39443 0.0
C309 C 0.40257 0.97112 0.37949 0.0
C310 C 0.40681 0.99479 0.37178 0.0
H311 H 0.45965 0.02454 0.39775 0.0
O312 O 0.47288 0.02379 0.3282 0.0
O313 O 0.44256 0.0341 0.33967 0.0
O314 O 0.48552 0.06615 0.36003 0.0
O315 O 0.4558 0.06295 0.38155 0.0
C316 C 0.38168 0.95247 0.3716 0.0
C317 C 0.36565 0.95763 0.35589 0.0
H318 H 0.33962 0.97405 0.32489 0.0
H319 H 0.351 0.0165 0.31197 0.0
H320 H 0.4537 0.98341 0.41249 0.0
H321 H 0.41727 0.94902 0.4008 0.0
H322 H 0.37793 0.934 0.37727 0.0
H323 H 0.34985 0.94301 0.34967 0.0
Mn324 Mn 0.31135 0.21989 0.54181 0.0
Mn325 Mn 0.29722 0.16821 0.5062 0.0
C326 C 0.272 0.19653 0.53262 0.0
C327 C 0.318 0.23562 0.58058 0.0
C328 C 0.31388 0.22053 0.49028 0.0
O329 O 0.34241 0.21053 0.54233 0.0
O330 O 0.33011 0.17534 0.51929 0.0
C331 C 0.29876 0.13125 0.53833 0.0
N332 N 0.28665 0.13948 0.52224 0.0
C333 C 0.25204 0.10492 0.52421 0.0
C334 C 0.26419 0.096 0.54072 0.0
C335 C 0.28763 0.10926 0.54784 0.0
C336 C 0.26407 0.1269 0.5153 0.0
H337 H 0.31676 0.14141 0.54392 0.0
C338 C 0.34579 0.19123 0.53243 0.0
O339 O 0.32451 0.25015 0.56488 0.0
O340 O 0.30872 0.21255 0.57383 0.0
N341 N 0.26557 0.15921 0.49287 0.0
C342 C 0.25589 0.17115 0.47785 0.0
C343 C 0.23227 0.16072 0.46955 0.0
C344 C 0.21891 0.13809 0.47668 0.0
C345 C 0.22929 0.12609 0.49209 0.0
C346 C 0.25293 0.13731 0.4997 0.0
H347 H 0.26608 0.18855 0.47232 0.0
O348 O 0.27727 0.21975 0.53986 0.0
O349 O 0.28987 0.18833 0.53015 0.0
O350 O 0.31597 0.23288 0.50941 0.0
O351 O 0.30736 0.19674 0.48812 0.0
C352 C 0.21699 0.10366 0.50046 0.0
C353 C 0.22833 0.09313 0.51657 0.0
H354 H 0.25563 0.07912 0.54817 0.0
H355 H 0.29709 0.10256 0.56065 0.0
H356 H 0.22437 0.17013 0.45771 0.0
H357 H 0.20065 0.1302 0.47037 0.0
H358 H 0.19871 0.09452 0.49485 0.0
H359 H 0.21857 0.07611 0.52315 0.0
Mn360 Mn 0.18292 0.04521 0.84107 0.0
Mn361 Mn 0.23354 0.06018 0.87394 0.0
C362 C 0.2027 0.08623 0.85239 0.0
C363 C 0.16305 0.03797 0.80615 0.0
C364 C 0.18559 0.03683 0.88989 0.0
O365 O 0.1938 0.01443 0.83689 0.0
O366 O 0.22911 0.02784 0.85689 0.0
C367 C 0.26807 0.06694 0.84029 0.0
N368 N 0.25941 0.07636 0.85786 0.0
C369 C 0.28852 0.1162 0.8577 0.0
C370 C 0.29778 0.10689 0.83966 0.0
C371 C 0.28749 0.08216 0.83092 0.0
C372 C 0.26924 0.10011 0.86647 0.0
H373 H 0.26016 0.048 0.8334 0.0
C374 C 0.21377 1.01199 0.84339 0.0
O375 O 0.15251 0.02917 0.82321 0.0
O376 O 0.18521 0.05028 0.80934 0.0
N377 N 0.23952 0.09179 0.89036 0.0
C378 C 0.22746 0.09846 0.90672 0.0
C379 C 0.23497 0.12291 0.91669 0.0
C380 C 0.25476 0.14024 0.90973 0.0
C381 C 0.26687 0.13297 0.89285 0.0
C382 C 0.25869 0.10829 0.88365 0.0
H383 H 0.21214 0.0853 0.91205 0.0
O384 O 0.18029 0.07976 0.84647 0.0
O385 O 0.21222 0.06836 0.85218 0.0
O386 O 0.17367 0.03683 0.87178 0.0
O387 O 0.20805 0.04432 0.89227 0.0
C388 C 0.28646 0.14938 0.8845 0.0
C389 C 0.29731 0.14097 0.86699 0.0
H390 H 0.31263 0.11863 0.83226 0.0
H391 H 0.29446 0.07487 0.81692 0.0
H392 H 0.22545 0.12841 0.92963 0.0
H393 H 0.26036 0.15914 0.91732 0.0
H394 H 0.29315 0.16858 0.89126 0.0
H395 H 0.3122 0.15384 0.86055 0.0
Mn396 Mn 0.30837 0.93277 0.01224 0.0
Mn397 Mn 0.32806 0.98216 0.98274 0.0
C398 C 0.34737 0.94645 1.00566 0.0
C399 C 0.30183 0.91666 0.04619 0.0
C400 C 0.30019 0.9308 0.96215 0.0
O401 O 0.28246 0.94934 0.01331 0.0
O402 O 0.29826 0.98308 0.99504 0.0
C403 C 0.33891 0.0224 0.01892 0.0
N404 N 0.34609 1.01021 1.00205 0.0
C405 C 0.38574 0.03743 1.00862 0.0
C406 C 0.37872 0.05037 0.02598 0.0
C407 C 0.3552 0.0428 0.03115 0.0
C408 C 0.36867 0.01737 0.9969 0.0
H409 H 0.32089 0.01657 0.02307 0.0
C410 C 0.28223 0.9701 1.00615 0.0
O411 O 0.29073 0.90407 0.02809 0.0
O412 O 0.31535 0.93894 0.0445 0.0
N413 N 0.35718 0.98344 0.97058 0.0
C414 C 0.36142 0.96812 0.95423 0.0
C415 C 0.38427 0.97271 0.94751 0.0
C416 C 0.40251 0.99301 0.95762 0.0
C417 C 0.3977 1.00859 0.97433 0.0
C418 C 0.37453 1.00324 0.9802 0.0
H419 H 0.34752 0.95241 0.94646 0.0
O420 O 0.33819 0.9237 1.01031 0.0
O421 O 0.33332 0.96018 1.00468 0.0
O422 O 0.29808 0.91996 0.98 0.0
O423 O 0.31041 0.95403 0.96149 0.0
C424 C 0.41508 0.02893 0.98568 0.0
C425 C 0.40911 0.04333 1.00283 0.0
H426 H 0.39128 0.06598 0.03557 0.0
H427 H 0.34968 0.0526 0.0446 0.0
H428 H 0.38786 0.96056 0.93464 0.0
H429 H 0.42016 0.99633 0.95256 0.0
H430 H 0.43317 0.03345 0.98157 0.0
H431 H 0.4227 0.0587 0.01164 0.0
Mn432 Mn 0.32479 0.37206 0.05106 0.0
Mn433 Mn 0.33449 0.41923 0.01703 0.0
C434 C 0.36323 0.39642 0.04638 0.0
C435 C 0.31773 0.35864 0.08786 0.0
C436 C 0.3214 0.36488 0.9993 0.0
O437 O 0.29243 0.37857 0.04709 0.0
O438 O 0.3022 0.41126 0.02626 0.0
C439 C 0.33223 0.45929 0.0498 0.0
N440 N 0.344 0.45041 0.03442 0.0
C441 C 0.37574 0.48864 0.03836 0.0
C442 C 0.36393 0.49826 0.05419 0.0
C443 C 0.34213 0.48347 0.06 0.0
C444 C 0.3651 0.46436 0.02891 0.0
H445 H 0.31543 0.44802 0.05423 0.0
C446 C 0.28755 0.39597 0.03694 0.0
O447 O 0.31226 0.34313 0.07028 0.0
O448 O 0.32686 0.38162 0.08402 0.0
N449 N 0.36516 0.42934 1.00663 0.0
C450 C 0.37456 0.41703 0.99153 0.0
C451 C 0.3963 0.42923 0.98387 0.0
C452 C 0.408 0.45404 0.99158 0.0
C453 C 0.39796 0.46636 1.00706 0.0
C454 C 0.37616 0.45331 0.01395 0.0
H455 H 0.36548 0.3981 0.98526 0.0
O456 O 0.35947 0.37461 0.05376 0.0
O457 O 0.3446 0.40327 0.04202 0.0
O458 O 0.32086 0.35541 0.01816 0.0
O459 O 0.32536 0.38814 0.99752 0.0
C460 C 0.40878 0.49102 0.01601 0.0
C461 C 0.39776 0.50209 0.03177 0.0
H462 H 0.37147 0.51691 0.06205 0.0
H463 H 0.33294 0.49074 0.07224 0.0
H464 H 0.40394 0.4196 0.97193 0.0
H465 H 0.42467 0.46344 0.9855 0.0
H466 H 0.42573 0.50151 1.0111 0.0
H467 H 0.40642 0.52093 0.03877 0.0
Mn468 Mn 0.82344 0.17473 0.07604 0.0
Mn469 Mn 0.79557 0.13655 0.03124 0.0
C470 C 0.78303 0.16296 0.07041 0.0
C471 C 0.83951 0.18193 0.11245 0.0
C472 C 0.82057 0.19122 0.02936 0.0
O473 O 0.84851 0.15957 0.06604 0.0
O474 O 0.82768 0.13386 0.03711 0.0
C475 C 0.79186 0.08834 0.04975 0.0
N476 N 0.78141 0.10389 0.03984 0.0
C477 C 0.74341 0.07324 0.03751 0.0
C478 C 0.75377 0.05683 0.04761 0.0
C479 C 0.77809 0.06446 0.05383 0.0
C480 C 0.75801 0.09683 0.03397 0.0
H481 H 0.81056 0.09413 0.05449 0.0
C482 C 0.84642 0.14321 0.05 0.0
O483 O 0.84621 0.1982 0.09821 0.0
O484 O 0.82421 0.16087 0.10527 0.0
N485 N 0.76412 0.13704 0.02343 0.0
C486 C 0.75673 0.15549 0.01477 0.0
C487 C 0.73283 0.15096 1.00781 0.0
C488 C 0.71683 0.12746 1.0096 0.0
C489 C 0.72484 0.10876 0.01853 0.0
C490 C 0.7489 0.11429 0.02502 0.0
H491 H 0.76901 0.17349 0.0131 0.0
O492 O 0.79414 0.18306 0.08277 0.0
O493 O 0.79582 0.15039 0.06169 0.0
O494 O 0.82697 0.19618 0.04988 0.0
O495 O 0.80909 0.16957 0.02067 0.0
C496 C 0.70987 0.08494 0.0215 0.0
C497 C 0.71913 0.06724 0.0311 0.0
H498 H 0.74321 0.0384 0.05078 0.0
H499 H 0.7862 0.05194 0.0617 0.0
H500 H 0.72676 0.16551 1.00098 0.0
H501 H 0.69843 0.12401 1.00413 0.0
H502 H 0.69116 0.08018 0.01678 0.0
H503 H 0.70739 0.04913 0.03362 0.0
Mn504 Mn 0.16893 0.53893 0.25872 0.0
Mn505 Mn 0.21084 0.57189 0.29832 0.0
C506 C 0.18814 0.58027 0.2553 0.0
C507 C 0.1548 0.51326 0.22657 0.0
C508 C 0.15901 0.56061 0.30306 0.0
O509 O 0.17691 0.51159 0.27487 0.0
O510 O 0.20396 0.53572 0.30075 0.0
C511 C 0.25019 0.55592 0.28165 0.0
N512 N 0.24114 0.57442 0.28843 0.0
C513 C 0.27771 0.60576 0.28493 0.0
C514 C 0.28748 0.58704 0.27797 0.0
C515 C 0.27361 0.56203 0.27621 0.0
C516 C 0.25419 0.59855 0.28981 0.0
H517 H 0.23962 0.53667 0.28044 0.0
C518 C 0.19141 0.51447 0.29185 0.0
O519 O 0.14145 0.51464 0.24222 0.0
O520 O 0.17694 0.52595 0.23002 0.0
N521 N 0.21996 0.60737 0.29881 0.0
C522 C 0.20773 0.62317 0.30536 0.0
C523 C 0.21922 0.64882 0.3086 0.0
C524 C 0.24323 0.65793 0.30537 0.0
C525 C 0.25543 0.64136 0.29852 0.0
C526 C 0.24312 0.61596 0.29585 0.0
H527 H 0.18942 0.61621 0.3084 0.0
O528 O 0.1675 0.56974 0.24507 0.0
O529 O 0.19719 0.56642 0.26727 0.0
O530 O 0.15244 0.54776 0.28467 0.0
O531 O 0.18054 0.57086 0.30992 0.0
C532 C 0.27927 0.64905 0.29414 0.0
C533 C 0.29034 0.63127 0.28713 0.0
H534 H 0.30558 0.59167 0.27389 0.0
H535 H 0.281 0.54749 0.2708 0.0
H536 H 0.20968 0.66153 0.31381 0.0
H537 H 0.25212 0.67769 0.30813 0.0
H538 H 0.28917 0.6686 0.29584 0.0
H539 H 0.30859 0.63742 0.28352 0.0
Mn540 Mn 0.82366 0.87145 0.55113 0.0
Mn541 Mn 0.83464 0.92043 0.51921 0.0
C542 C 0.8624 0.89511 0.547 0.0
C543 C 0.81641 0.8576 0.58783 0.0
C544 C 0.82036 0.86663 0.49926 0.0
O545 O 0.7917 0.87875 0.54765 0.0
O546 O 0.80234 0.91261 0.52837 0.0
C547 C 0.8331 0.95919 0.55364 0.0
N548 N 0.84468 0.95077 0.53781 0.0
C549 C 0.87682 0.98863 0.54278 0.0
C550 C 0.86521 0.99778 0.55909 0.0
C551 C 0.84331 0.98292 0.56462 0.0
C552 C 0.86593 0.96472 0.53263 0.0
H553 H 0.81618 0.94789 0.55779 0.0
C554 C 0.78731 0.8969 0.53835 0.0
O555 O 0.81062 0.84226 0.57013 0.0
O556 O 0.82597 0.88051 0.58413 0.0
N557 N 0.86534 0.93056 0.50887 0.0
C558 C 0.87436 0.91887 0.49297 0.0
C559 C 0.89627 0.93114 0.48565 0.0
C560 C 0.90844 0.95548 0.49437 0.0
C561 C 0.89855 0.96734 0.51034 0.0
C562 C 0.87672 0.95415 0.51708 0.0
H563 H 0.86491 0.90033 0.48591 0.0
O564 O 0.85803 0.87291 0.55362 0.0
O565 O 0.84418 0.90279 0.54312 0.0
O566 O 0.8194 0.85595 0.51759 0.0
O567 O 0.82505 0.89018 0.49877 0.0
C568 C 0.90951 0.99173 0.51985 0.0
C569 C 0.89878 1.00228 0.53623 0.0
H570 H 0.87296 0.01614 0.5675 0.0
H571 H 0.83426 0.98982 0.57722 0.0
H572 H 0.90371 0.92191 0.47322 0.0
H573 H 0.92534 0.96487 0.48871 0.0
H574 H 0.92636 1.00243 0.51489 0.0
H575 H 0.90758 0.0209 0.54368 0.0
Mn576 Mn 0.95778 0.05035 0.25188 0.0
Mn577 Mn 0.91974 0.02921 0.29017 0.0
C578 C 0.93757 1.00863 0.25055 0.0
C579 C 0.96784 0.06689 0.21868 0.0
C580 C 0.97223 0.04016 0.29887 0.0
O581 O 0.95231 0.08213 0.26452 0.0
O582 O 0.92813 0.0658 0.29014 0.0
C583 C 0.8794 0.04213 0.26852 0.0
N584 N 0.88847 0.02509 0.27768 0.0
C585 C 0.85066 0.99403 0.27324 0.0
C586 C 0.84087 1.01127 0.26385 0.0
C587 C 0.85534 0.03539 0.26138 0.0
C588 C 0.8748 1.00174 0.27979 0.0
H589 H 0.89044 0.06073 0.26674 0.0
C590 C 0.94 0.08419 0.28042 0.0
O591 O 0.98336 0.06944 0.23528 0.0
O592 O 0.94607 0.05548 0.22162 0.0
N593 N 0.90941 0.99417 0.29294 0.0
C594 C 0.92166 0.97968 0.30205 0.0
C595 C 0.90968 0.9552 0.3062 0.0
C596 C 0.88521 0.94597 0.30122 0.0
C597 C 0.87296 0.96121 0.2919 0.0
C598 C 0.88579 0.98554 0.2884 0.0
H599 H 0.9404 0.98682 0.30631 0.0
O600 O 0.9571 0.01611 0.24129 0.0
O601 O 0.93003 0.02574 0.26026 0.0
O602 O 0.97736 0.04828 0.28021 0.0
O603 O 0.95118 0.03228 0.30424 0.0
C604 C 0.84855 0.95315 0.2858 0.0
C605 C 0.83745 0.96949 0.2763 0.0
H606 H 0.8223 1.00619 0.25843 0.0
H607 H 0.84793 0.04878 0.2541 0.0
H608 H 0.91927 0.94353 0.31336 0.0
H609 H 0.87601 0.92711 0.30452 0.0
H610 H 0.83821 0.93435 0.28813 0.0
H611 H 0.81872 0.963 0.27144 0.0
Mn612 Mn 0.31665 0.6633 0.5804 0.0
Mn613 Mn 0.29892 0.61594 0.54021 0.0
C614 C 0.27725 0.64561 0.5701 0.0
C615 C 0.3282 0.67827 0.61696 0.0
C616 C 0.3154 0.66979 0.53064 0.0
O617 O 0.34617 0.65275 0.57793 0.0
O618 O 0.33249 0.62265 0.55025 0.0
C619 C 0.30355 0.5769 0.56903 0.0
N620 N 0.29027 0.5857 0.55442 0.0
C621 C 0.25737 0.54895 0.55465 0.0
C622 C 0.27072 0.53943 0.56963 0.0
C623 C 0.29388 0.55354 0.57694 0.0
C624 C 0.26782 0.57253 0.54766 0.0
H625 H 0.3214 0.58761 0.57459 0.0
C626 C 0.34882 0.6362 0.56412 0.0
O627 O 0.33447 0.69225 0.60093 0.0
O628 O 0.31554 0.65541 0.61174 0.0
N629 N 0.26685 0.60646 0.52807 0.0
C630 C 0.2568 0.61771 0.5127 0.0
C631 C 0.23382 0.60577 0.50327 0.0
C632 C 0.22166 0.58209 0.50925 0.0
C633 C 0.23268 0.57046 0.52447 0.0
C634 C 0.25558 0.5833 0.53335 0.0
H635 H 0.26624 0.63568 0.50767 0.0
O636 O 0.28475 0.66758 0.58049 0.0
O637 O 0.29281 0.63395 0.56678 0.0
O638 O 0.32069 0.67877 0.55072 0.0
O639 O 0.30694 0.64654 0.52479 0.0
C640 C 0.22195 0.54651 0.53097 0.0
C641 C 0.23418 0.53589 0.54625 0.0
H642 H 0.26339 0.52131 0.5756 0.0
H643 H 0.30429 0.54635 0.58852 0.0
H644 H 0.22555 0.61474 0.49133 0.0
H645 H 0.20394 0.57294 0.50194 0.0
H646 H 0.20429 0.53609 0.52433 0.0
H647 H 0.22567 0.51754 0.55125 0.0
Mn648 Mn 0.43617 0.54272 0.73173 0.0
Mn649 Mn 0.39059 0.51654 0.76112 0.0
C650 C 0.42392 0.50007 0.73275 0.0
C651 C 0.45002 0.55869 0.69943 0.0
C652 C 0.4401 0.54303 0.78161 0.0
O653 O 0.42157 0.5706 0.73799 0.0
O654 O 0.3885 0.5489 0.7521 0.0
C655 C 0.35149 0.50731 0.72607 0.0
N656 N 0.36318 0.49886 0.74232 0.0
C657 C 0.33405 0.45873 0.73835 0.0
C658 C 0.32157 0.46703 0.72165 0.0
C659 C 0.33042 0.49137 0.71538 0.0
C660 C 0.35508 0.47535 0.74817 0.0
H661 H 0.35819 0.52606 0.72137 0.0
C662 C 0.4014 0.56858 0.74478 0.0
O663 O 0.46241 0.56581 0.71828 0.0
O664 O 0.42928 0.54283 0.69946 0.0
N665 N 0.3897 0.48489 0.7713 0.0
C666 C 0.40446 0.47942 0.78692 0.0
C667 C 0.39809 0.45591 0.79523 0.0
C668 C 0.3765 0.43841 0.78764 0.0
C669 C 0.36175 0.44431 0.77136 0.0
C670 C 0.36891 0.46811 0.76386 0.0
H671 H 0.42078 0.493 0.79329 0.0
O672 O 0.4446 0.51117 0.72676 0.0
O673 O 0.41065 0.51409 0.73722 0.0
O674 O 0.44995 0.54668 0.76368 0.0
O675 O 0.41792 0.53367 0.78232 0.0
C676 C 0.34029 0.42746 0.76217 0.0
C677 C 0.32656 0.43459 0.74551 0.0
H678 H 0.30525 0.45484 0.71346 0.0
H679 H 0.32094 0.49787 0.70245 0.0
H680 H 0.40964 0.45142 0.8077 0.0
H681 H 0.37148 0.42045 0.79434 0.0
H682 H 0.33437 0.40886 0.76754 0.0
H683 H 0.31031 0.42133 0.73829 0.0
Mn684 Mn 0.65085 0.02547 0.76623 0.0
Mn685 Mn 0.68908 0.05699 0.80906 0.0
C686 C 0.67187 0.06666 0.76417 0.0
C687 C 0.63971 1.00001 0.73363 0.0
C688 C 0.63643 0.04655 0.80846 0.0
O689 O 0.65613 0.99769 0.78356 0.0
O690 O 0.68225 0.02063 0.81073 0.0
C691 C 0.73068 0.04212 0.7969 0.0
N692 N 0.72063 0.06027 0.80228 0.0
C693 C 0.7574 0.09225 0.80132 0.0
C694 C 0.76818 0.0739 0.79588 0.0
C695 C 0.75473 0.04873 0.79356 0.0
C696 C 0.73334 0.08454 0.80429 0.0
H697 H 0.72043 0.02275 0.79519 0.0
C698 C 0.66997 0.99971 0.80091 0.0
O699 O 0.62471 1.0019 0.74756 0.0
O700 O 0.66173 1.01211 0.73916 0.0
N701 N 0.69789 0.09252 0.80992 0.0
C702 C 0.68464 0.10798 0.81441 0.0
C703 C 0.69547 0.13378 0.8174 0.0
C704 C 0.71981 0.14339 0.81601 0.0
C705 C 0.73308 0.12716 0.81134 0.0
C706 C 0.72137 0.1016 0.80874 0.0
H707 H 0.66598 0.10069 0.8158 0.0
O708 O 0.65227 0.05679 0.75197 0.0
O709 O 0.6788 0.05223 0.77718 0.0
O710 O 0.6316 0.03473 0.78955 0.0
O711 O 0.65734 0.05538 0.81761 0.0
C712 C 0.7574 0.13533 0.80888 0.0
C713 C 0.76952 0.1179 0.80372 0.0
H714 H 0.78673 0.07892 0.79334 0.0
H715 H 0.7629 0.03447 0.78929 0.0
H716 H 0.6851 0.14622 0.82091 0.0
H717 H 0.72813 0.16329 0.81847 0.0
H718 H 0.76688 0.155 0.8106 0.0
H719 H 0.78814 0.12443 0.80156 0.0
Mn720 Mn 0.81021 0.71999 0.04125 0.0
Mn721 Mn 0.79916 0.66933 1.0046 0.0
C722 C 0.77153 0.6956 0.03013 0.0
C723 C 0.8152 0.7355 0.07998 0.0
C724 C 0.815 0.72226 0.99017 0.0
O725 O 0.84182 0.71172 0.04288 0.0
O726 O 0.8316 0.67726 0.01894 0.0
C727 C 0.8004 0.6318 0.03625 0.0
N728 N 0.78866 0.63994 0.01981 0.0
C729 C 0.75477 0.60409 0.01978 0.0
C730 C 0.76655 0.59526 0.03663 0.0
C731 C 0.78945 0.60921 0.04493 0.0
C732 C 0.7666 0.6267 0.01174 0.0
H733 H 0.81798 0.64249 0.04273 0.0
C734 C 0.84634 0.69314 0.03285 0.0
O735 O 0.82243 0.75009 0.06449 0.0
O736 O 0.80615 0.71238 0.07306 0.0
N737 N 0.76806 0.65952 0.98995 0.0
C738 C 0.7586 0.67138 0.97468 0.0
C739 C 0.7355 0.66023 0.96519 0.0
C740 C 0.72244 0.63698 0.9714 0.0
C741 C 0.73259 0.62508 0.98706 0.0
C742 C 0.75572 0.63703 0.99587 0.0
H743 H 0.76857 0.68924 0.96983 0.0
O744 O 0.77576 0.71856 0.0379 0.0
O745 O 0.79 0.68828 0.02837 0.0
O746 O 0.81595 0.73388 1.00943 0.0
O747 O 0.80932 0.69853 0.98735 0.0
C748 C 0.72053 0.60204 0.99456 0.0
C749 C 0.73158 0.59159 1.01096 0.0
H750 H 0.75812 0.5779 0.04344 0.0
H751 H 0.79861 0.60258 0.05801 0.0
H752 H 0.72777 0.66956 0.95314 0.0
H753 H 0.70456 0.62854 0.96417 0.0
H754 H 0.70263 0.59236 0.98805 0.0
H755 H 0.72198 0.57408 0.01685 0.0
Mn756 Mn 0.96135 0.542 0.82334 0.0
Mn757 Mn 0.9138 0.51717 0.85067 0.0
C758 C 0.9476 0.49959 0.82498 0.0
C759 C 0.97876 0.55679 0.79218 0.0
C760 C 0.96191 0.54473 0.87326 0.0
O761 O 0.94596 0.56954 0.82584 0.0
O762 O 0.91285 0.54993 0.84126 0.0
C763 C 0.8762 0.50912 0.8143 0.0
N764 N 0.88751 0.49988 0.83029 0.0
C765 C 0.86084 0.45868 0.82173 0.0
C766 C 0.84884 0.46777 0.80523 0.0
C767 C 0.85661 0.49309 0.80146 0.0
C768 C 0.88027 0.47553 0.83397 0.0
H769 H 0.8821 0.52856 0.81134 0.0
C770 C 0.92581 0.56852 0.83235 0.0
O771 O 0.98929 0.5642 0.81177 0.0
O772 O 0.95779 0.54103 0.79068 0.0
N773 N 0.91257 0.48506 0.86009 0.0
C774 C 0.92691 0.47897 0.87569 0.0
C775 C 0.92196 0.45419 0.881 0.0
C776 C 0.90223 0.43598 0.87036 0.0
C777 C 0.88767 0.44271 0.85442 0.0
C778 C 0.89348 0.4677 0.84982 0.0
H779 H 0.94203 0.4929 0.884 0.0
O780 O 0.96932 0.50985 0.82113 0.0
O781 O 0.93489 0.51448 0.8279 0.0
O782 O 0.97236 0.5479 0.85573 0.0
O783 O 0.93987 0.53406 0.87337 0.0
C784 C 0.86779 0.42556 0.84272 0.0
C785 C 0.85448 0.4335 0.82629 0.0
H786 H 0.83375 0.45546 0.79526 0.0
H787 H 0.84751 0.50023 0.7887 0.0
H788 H 0.9333 0.44913 0.89329 0.0
H789 H 0.89851 0.41687 0.87446 0.0
H790 H 0.86275 0.40614 0.84604 0.0
H791 H 0.83949 0.42004 0.81714 0.0
Mn792 Mn 0.80508 0.41357 0.51264 0.0
Mn793 Mn 0.82372 0.46692 0.4879 0.0
C794 C 0.84459 0.43158 0.50974 0.0
C795 C 0.79573 0.39193 0.54362 0.0
C796 C 0.80121 0.41673 0.46268 0.0
O797 O 0.77729 0.42737 0.51357 0.0
O798 O 0.7919 0.46337 0.49782 0.0
C799 C 0.82795 0.50329 0.5263 0.0
N800 N 0.83793 0.49403 0.50962 0.0
C801 C 0.87531 0.52481 0.51964 0.0
C802 C 0.86539 0.53475 0.53685 0.0
C803 C 0.84162 0.5239 0.54022 0.0
C804 C 0.8608 0.50431 0.50624 0.0
H805 H 0.8097 0.495 0.529 0.0
C806 C 0.77587 0.44816 0.50738 0.0
O807 O 0.78746 0.38174 0.52393 0.0
O808 O 0.8085 0.41504 0.54533 0.0
N809 N 0.8546 0.47259 0.47818 0.0
C810 C 0.8619 0.45972 0.46185 0.0
C811 C 0.8855 0.46757 0.45698 0.0
C812 C 0.90129 0.48861 0.46884 0.0
C813 C 0.89334 0.50162 0.48549 0.0
C814 C 0.86962 0.49297 0.48958 0.0
H815 H 0.84987 0.4435 0.45271 0.0
O816 O 0.83657 0.40793 0.51193 0.0
O817 O 0.82918 0.44377 0.50885 0.0
O818 O 0.79822 0.4042 0.47951 0.0
O819 O 0.81008 0.44032 0.464 0.0
C820 C 0.90813 0.52258 0.49842 0.0
C821 C 0.89912 0.53415 0.5155 0.0
H822 H 0.8759 0.55058 0.54769 0.0
H823 H 0.83386 0.5314 0.55353 0.0
H824 H 0.89151 0.45738 0.44415 0.0
H825 H 0.91952 0.49451 0.46513 0.0
H826 H 0.92655 0.52972 0.49561 0.0
H827 H 0.91076 0.55001 0.52557 0.0
Mn828 Mn 0.69221 0.54109 0.33587 0.0
Mn829 Mn 0.74195 0.5601 0.37023 0.0
C830 C 0.71021 0.58277 0.34552 0.0
C831 C 0.67241 0.5326 0.30084 0.0
C832 C 0.6939 0.5373 0.38568 0.0
O833 O 0.70443 0.51113 0.33368 0.0
O834 O 0.73754 0.52586 0.35687 0.0
C835 C 0.77729 0.56181 0.33789 0.0
N836 N 0.76839 0.57353 0.35385 0.0
C837 C 0.79825 0.61229 0.35107 0.0
C838 C 0.80777 0.60059 0.33467 0.0
C839 C 0.79724 0.57525 0.32807 0.0
C840 C 0.77855 0.59787 0.36051 0.0
H841 H 0.7692 0.54238 0.33264 0.0
C842 C 0.72339 0.50899 0.34324 0.0
O843 O 0.66217 0.52346 0.31793 0.0
O844 O 0.69452 0.54511 0.30396 0.0
N845 N 0.74803 0.59334 0.38335 0.0
C846 C 0.73546 0.60234 0.39789 0.0
C847 C 0.74299 0.62768 0.40536 0.0
C848 C 0.7633 0.64352 0.39777 0.0
C849 C 0.77591 0.63386 0.38275 0.0
C850 C 0.76769 0.60839 0.37605 0.0
H851 H 0.71965 0.59033 0.40354 0.0
O852 O 0.68779 0.57487 0.33963 0.0
O853 O 0.721 0.5659 0.34653 0.0
O854 O 0.68258 0.53369 0.36672 0.0
O855 O 0.71609 0.54723 0.3889 0.0
C856 C 0.79594 0.64863 0.37374 0.0
C857 C 0.80714 0.63784 0.35795 0.0
H858 H 0.82299 0.61096 0.32687 0.0
H859 H 0.80442 0.56612 0.31535 0.0
H860 H 0.73307 0.63504 0.41682 0.0
H861 H 0.7689 0.66312 0.40338 0.0
H862 H 0.80267 0.66839 0.37859 0.0
H863 H 0.82231 0.64947 0.3509 0.0
Tb864 Tb 0.0892 0.07083 0.06189 0.0
Tb865 Tb 0.04222 0.03218 0.03488 0.0
C866 C 0.0389 0.06293 0.07857 0.0
C867 C 0.15036 0.09205 0.08217 0.0
C868 C 0.18577 0.07011 0.0729 0.0
C869 C 0.17226 0.06308 0.09075 0.0
C870 C 0.15477 0.07404 0.09543 0.0
C871 C 0.16579 0.10115 0.06608 0.0
C872 C 0.1833 0.09019 0.06141 0.0
C873 C 0.12739 0.09717 0.0818 0.0
O874 O 0.09279 0.03352 0.06549 0.0
O875 O 0.05381 1.01154 0.06036 0.0
O876 O 0.07147 0.02453 0.0197 0.0
O877 O 0.0987 0.06244 0.02924 0.0
O878 O 1.01269 1.00111 0.03524 0.0
O879 O 1.02044 0.01922 1.00538 0.0
O880 O 0.04733 0.06782 0.02003 0.0
O881 O 0.07046 0.0952 0.04781 0.0
O882 O 0.0615 0.06728 0.08378 0.0
O883 O 0.02858 0.05272 0.05922 0.0
C884 C 0.07562 0.01306 0.06716 0.0
O885 O 0.1192 0.10179 0.06265 0.0
O886 O 0.11105 0.08162 0.09144 0.0
C887 C 0.0916 0.04102 0.01734 0.0
C888 C 0.98112 1.00878 0.01472 0.0
C889 C 0.9459 0.03211 0.01955 0.0
C890 C 0.9567 0.03275 0.99972 0.0
C891 C 0.97425 0.02115 0.99732 0.0
C892 C 0.9681 1.00559 0.03335 0.0
C893 C 0.95082 0.01742 0.03584 0.0
C894 C 1.00432 1.0042 0.01568 0.0
C895 C 0.05671 0.09071 0.02926 0.0
H896 H 0.17423 0.04804 0.10021 0.0
H897 H 0.14351 0.06692 0.10827 0.0
H898 H 0.16304 0.11525 0.05579 0.0
H899 H 0.19354 0.09606 0.04761 0.0
H900 H 0.95301 0.04392 0.98689 0.0
H901 H 0.98374 0.02365 0.98265 0.0
H902 H 0.97258 0.99576 0.04692 0.0
H903 H 0.94234 0.01637 0.05111 0.0
Tb904 Tb 0.30349 0.80042 0.31111 0.0
Tb905 Tb 0.33381 0.79578 0.26893 0.0
C906 C 0.28843 0.81479 0.26462 0.0
C907 C 0.28423 0.79017 0.3658 0.0
C908 C 0.29114 0.76863 0.40512 0.0
C909 C 0.28703 0.79197 0.40587 0.0
C910 C 0.28348 0.80265 0.38625 0.0
C911 C 0.28876 0.76707 0.36517 0.0
C912 C 0.29205 0.75637 0.38461 0.0
C913 C 0.28184 0.80166 0.34511 0.0
O914 O 0.28379 0.76819 0.28936 0.0
O915 O 0.31433 0.75816 0.27452 0.0
O916 O 0.35544 0.7905 0.29756 0.0
O917 O 0.32698 0.77917 0.32198 0.0
O918 O 0.33555 0.77885 0.23768 0.0
O919 O 0.36461 0.80916 0.25283 0.0
O920 O 0.33998 0.83479 0.27899 0.0
O921 O 0.33615 0.8304 0.31543 0.0
O922 O 0.28999 0.82028 0.28614 0.0
O923 O 0.30124 0.80196 0.25566 0.0
C924 C 0.29225 0.7522 0.2788 0.0
O925 O 0.30013 0.8195 0.34099 0.0
O926 O 0.2734 0.78617 0.32777 0.0
C927 C 0.34848 0.78165 0.31635 0.0
C928 C 0.35217 0.81052 0.21576 0.0
C929 C 0.34037 0.83443 0.17933 0.0
C930 C 0.35282 0.81678 0.17672 0.0
C931 C 0.35851 0.80474 0.19482 0.0
C932 C 0.34049 0.82863 0.2185 0.0
C933 C 0.33447 0.84027 0.20053 0.0
C934 C 0.35477 0.79605 0.23445 0.0
C935 C 0.34518 0.84371 0.2996 0.0
H936 H 0.28632 0.80176 0.42155 0.0
H937 H 0.28035 0.82066 0.38704 0.0
H938 H 0.28998 0.75729 0.34962 0.0
H939 H 0.29564 0.73859 0.38361 0.0
H940 H 0.35798 0.81208 0.1607 0.0
H941 H 0.36735 0.79063 0.19239 0.0
H942 H 0.33516 0.83315 0.23448 0.0
H943 H 0.32443 0.85321 0.20327 0.0
Tb944 Tb 0.54475 0.04555 0.56278 0.0
Tb945 Tb 0.59949 0.05355 0.54913 0.0
C946 C 0.58158 0.02982 0.592 0.0
C947 C 0.48952 0.06244 0.568 0.0
C948 C 0.46215 0.09579 0.56211 0.0
C949 C 0.46958 0.09111 0.58342 0.0
C950 C 0.48302 0.07457 0.58632 0.0
C951 C 0.48237 0.06743 0.54672 0.0
C952 C 0.46896 0.08386 0.54384 0.0
C953 C 0.5035 0.0446 0.57107 0.0
O954 O 0.56738 0.08039 0.57995 0.0
O955 O 0.59822 0.09128 0.55801 0.0
O956 O 0.58003 0.0606 0.52014 0.0
O957 O 0.55041 0.07074 0.53711 0.0
O958 O 0.63587 0.06438 0.55861 0.0
O959 O 0.62223 0.04749 0.52589 0.0
O960 O 0.58178 0.01375 0.54504 0.0
O961 O 0.5432 0.01339 0.53975 0.0
O962 O 0.55936 0.02322 0.58422 0.0
O963 O 0.59746 0.0474 0.58368 0.0
C964 C 0.58513 0.09727 0.57278 0.0
O965 O 0.50855 0.03407 0.55315 0.0
O966 O 0.52149 0.05126 0.58591 0.0
C967 C 0.56255 0.07036 0.52005 0.0
C968 C 0.65347 0.03526 0.54258 0.0
C969 C 0.67587 0.99736 0.54487 0.0
C970 C 0.67427 1.00885 0.5252 0.0
C971 C 0.66328 0.02762 0.5241 0.0
C972 C 0.65512 0.02391 0.56234 0.0
C973 C 0.66636 1.00529 0.56351 0.0
C974 C 0.64041 0.05386 0.54044 0.0
C975 C 0.55984 1.00249 0.53757 0.0
H976 H 0.46455 0.09978 0.59789 0.0
H977 H 0.48819 0.07111 0.60292 0.0
H978 H 0.48702 0.05858 0.53215 0.0
H979 H 0.46396 0.08726 0.52718 0.0
H980 H 0.68169 1.00344 0.51063 0.0
H981 H 0.66218 0.03597 0.50867 0.0
H982 H 0.64745 0.02914 0.57682 0.0
H983 H 0.66716 0.99671 0.57886 0.0
Tb984 Tb 0.34414 0.28649 0.79587 0.0
Tb985 Tb 0.29463 0.30176 0.78867 0.0
C986 C 0.29572 0.25043 0.80617 0.0
C987 C 0.40215 0.28111 0.78302 0.0
C988 C 0.43791 0.2873 0.75372 0.0
C989 C 0.44345 0.28893 0.77671 0.0
C990 C 0.42569 0.28578 0.79121 0.0
C991 C 0.39663 0.27988 0.76012 0.0
C992 C 0.41429 0.2828 0.74562 0.0
C993 C 0.38345 0.2777 0.79832 0.0
O994 O 0.33609 0.28285 0.75986 0.0
O995 O 0.29752 0.28375 0.75596 0.0
O996 O 0.31996 0.32739 0.7709 0.0
O997 O 0.3524 0.32604 0.79229 0.0
O998 O 0.25838 0.29165 0.77938 0.0
O999 O 0.27714 0.329 0.79312 0.0
O1000 O 0.31153 0.31768 0.82183 0.0
O1001 O 0.33427 0.29212 0.8296 0.0
O1002 O 0.31649 0.25252 0.7992 0.0
O1003 O 0.2861 0.26854 0.80614 0.0
C1004 C 0.31634 0.28014 0.74748 0.0
O1005 O 0.38018 0.29795 0.80712 0.0
O1006 O 0.36352 0.26115 0.79151 0.0
C1007 C 0.34246 0.33606 0.77712 0.0
C1008 C 0.23856 0.31155 0.80356 0.0
C1009 C 0.20347 0.30909 0.83341 0.0
C1010 C 0.20989 0.32887 0.81974 0.0
C1011 C 0.22715 0.33002 0.80496 0.0
C1012 C 0.23271 0.2921 0.81752 0.0
C1013 C 0.21531 0.29082 0.8322 0.0
C1014 C 0.25654 0.31288 0.78762 0.0
C1015 C 0.32298 0.30785 0.83629 0.0
H1016 H 0.46146 0.29224 0.78345 0.0
H1017 H 0.43034 0.28689 0.80882 0.0
H1018 H 0.37864 0.2766 0.75339 0.0
H1019 H 0.40947 0.28181 0.72806 0.0
H1020 H 0.20165 0.34363 0.82048 0.0
H1021 H 0.23156 0.34535 0.79457 0.0
H1022 H 0.24142 0.27773 0.81696 0.0
H1023 H 0.21081 0.27519 0.84224 0.0
Tb1024 Tb 0.06603 0.05698 0.56338 0.0
Tb1025 Tb 0.074 0.026 0.52038 0.0
C1026 C 0.02495 0.01504 0.53913 0.0
C1027 C 0.0707 0.07705 0.62162 0.0
C1028 C 0.08714 0.06482 0.66256 0.0
C1029 C 0.0639 0.06584 0.65902 0.0
C1030 C 0.05575 0.07191 0.63869 0.0
C1031 C 0.09417 0.07694 0.62543 0.0
C1032 C 0.10232 0.07105 0.64573 0.0
C1033 C 0.06098 0.07887 0.59917 0.0
O1034 O 0.06835 0.02142 0.57688 0.0
O1035 O 0.08136 1.00305 0.5477 0.0
O1036 O 0.10441 0.05833 0.52587 0.0
O1037 O 0.10421 0.06493 0.56295 0.0
O1038 O 0.05972 1.0046 0.49086 0.0
O1039 O 0.09658 1.01176 0.50196 0.0
O1040 O 0.0642 0.05838 0.50613 0.0
O1041 O 0.06596 0.08376 0.53758 0.0
O1042 O 0.03103 0.03842 0.54695 0.0
O1043 O 0.04058 1.00565 0.53117 0.0
C1044 C 0.07537 1.00271 0.56846 0.0
O1045 O 0.07604 0.08915 0.58543 0.0
O1046 O 0.04585 0.05848 0.59015 0.0
C1047 C 0.11493 0.06924 0.54482 0.0
C1048 C 0.08596 1.00988 0.4637 0.0
C1049 C 0.0833 0.01906 0.41896 0.0
C1050 C 0.0863 0.99646 0.42524 0.0
C1051 C 0.08733 0.99181 0.44749 0.0
C1052 C 0.08604 0.03352 0.45774 0.0
C1053 C 0.08462 0.03807 0.43553 0.0
C1054 C 0.08014 1.00275 0.48581 0.0
C1055 C 0.06452 0.08054 0.51564 0.0
H1056 H 0.05175 0.06101 0.67163 0.0
H1057 H 0.03751 0.07155 0.63596 0.0
H1058 H 0.10606 0.08056 0.6125 0.0
H1059 H 0.12047 0.07098 0.64809 0.0
H1060 H 0.08597 0.98166 0.41291 0.0
H1061 H 0.08748 0.97351 0.45188 0.0
H1062 H 0.08515 0.04776 0.47013 0.0
H1063 H 0.08227 0.05567 0.43145 0.0
Tb1064 Tb 0.32952 0.82474 0.78235 0.0
Tb1065 Tb 0.30325 0.77567 0.8044 0.0
C1066 C 0.32665 0.77237 0.75941 0.0
C1067 C 0.3321 0.8847 0.76792 0.0
C1068 C 0.30259 0.91538 0.76761 0.0
C1069 C 0.32191 0.92033 0.75471 0.0
C1070 C 0.33649 0.90472 0.75461 0.0
C1071 C 0.31319 0.88042 0.78116 0.0
C1072 C 0.29854 0.89544 0.7809 0.0
C1073 C 0.34497 0.8662 0.76706 0.0
O1074 O 0.29089 0.82028 0.77306 0.0
O1075 O 0.27286 0.78148 0.78347 0.0
O1076 O 0.29202 0.80444 0.82121 0.0
O1077 O 0.32465 0.83562 0.81608 0.0
O1078 O 0.28024 0.73944 0.80218 0.0
O1079 O 0.29831 0.75716 0.83348 0.0
O1080 O 0.34108 0.78656 0.81983 0.0
O1081 O 0.3604 0.81247 0.79519 0.0
O1082 O 0.33046 0.79618 0.75771 0.0
O1083 O 0.31825 0.76151 0.77678 0.0
C1084 C 0.27132 0.8014 0.77347 0.0
O1085 O 0.35259 0.86122 0.78626 0.0
O1086 O 0.33383 0.84592 0.75484 0.0
C1087 C 0.30571 0.82701 0.82626 0.0
C1088 C 0.29802 0.71594 0.82327 0.0
C1089 C 0.32287 0.68368 0.80843 0.0
C1090 C 0.33476 0.70577 0.82136 0.0
C1091 C 0.32242 0.7218 0.82873 0.0
C1092 C 0.2858 0.69248 0.81274 0.0
C1093 C 0.29817 0.67647 0.80528 0.0
C1094 C 0.28704 0.73609 0.82224 0.0
C1095 C 0.36138 0.79888 0.81218 0.0
H1096 H 0.3255 0.93597 0.74465 0.0
H1097 H 0.3509 0.90811 0.74414 0.0
H1098 H 0.30948 0.86516 0.79159 0.0
H1099 H 0.28419 0.89169 0.79148 0.0
H1100 H 0.35378 0.71174 0.8241 0.0
H1101 H 0.33239 0.73978 0.83682 0.0
H1102 H 0.26702 0.68761 0.80831 0.0
H1103 H 0.28858 0.65921 0.79577 0.0
Tb1104 Tb 0.56768 0.0391 0.05978 0.0
Tb1105 Tb 0.56347 0.06685 0.01633 0.0
C1106 C 0.61153 0.07467 0.04298 0.0
C1107 C 0.55771 0.0206 0.11495 0.0
C1108 C 0.53786 0.03487 0.15211 0.0
C1109 C 0.56177 0.03608 0.15343 0.0
C1110 C 0.57161 0.02886 0.13497 0.0
C1111 C 0.53356 0.01848 0.1139 0.0
C1112 C 0.5237 0.02544 0.1324 0.0
C1113 C 0.56913 0.01807 0.09471 0.0
O1114 O 0.56751 0.07675 0.07417 0.0
O1115 O 0.55648 0.09258 0.04288 0.0
O1116 O 0.53212 0.03604 0.0163 0.0
O1117 O 0.53102 0.03738 0.05329 0.0
O1118 O 0.57623 0.08338 0.98803 0.0
O1119 O 0.54187 0.08323 0.99798 0.0
O1120 O 0.57169 0.0324 1.00261 0.0
O1121 O 0.5669 1.00973 0.03301 0.0
O1122 O 0.60289 0.05254 0.04968 0.0
O1123 O 0.59804 0.08554 0.03239 0.0
C1124 C 0.5612 0.09473 0.06466 0.0
O1125 O 0.5552 1.00759 0.07715 0.0
O1126 O 0.58521 0.03814 0.09055 0.0
C1127 C 0.52028 0.03114 0.03349 0.0
C1128 C 0.54627 0.08094 0.96013 0.0
C1129 C 0.534 0.07063 0.91459 0.0
C1130 C 0.53139 0.09222 0.9256 0.0
C1131 C 0.53772 0.09744 0.94824 0.0
C1132 C 0.54618 0.05805 0.94981 0.0
C1133 C 0.54015 0.05294 0.92719 0.0
C1134 C 0.55658 0.08847 0.9828 0.0
C1135 C 0.57012 1.01101 0.01167 0.0
H1136 H 0.57291 0.04299 0.16862 0.0
H1137 H 0.59028 0.0308 0.13604 0.0
H1138 H 0.52245 1.01249 0.09859 0.0
H1139 H 0.50523 0.02444 0.13102 0.0
H1140 H 0.52621 0.10595 0.91647 0.0
H1141 H 0.53718 0.11496 0.9562 0.0
H1142 H 0.55226 0.04486 0.95894 0.0
H1143 H 0.54254 0.03616 0.91942 0.0
Tb1144 Tb 0.30488 0.26969 0.28136 0.0
Tb1145 Tb 0.32879 0.32484 0.3001 0.0
C1146 C 0.30753 0.31144 0.24962 0.0
C1147 C 0.30637 0.20858 0.26529 0.0
C1148 C 0.33671 0.17883 0.26629 0.0
C1149 C 0.31395 0.16952 0.25536 0.0
C1150 C 0.29884 0.18449 0.25471 0.0
C1151 C 0.32906 0.21776 0.27601 0.0
C1152 C 0.34412 0.20316 0.27638 0.0
C1153 C 0.29132 0.22488 0.26571 0.0
O1154 O 0.34201 0.27854 0.27018 0.0
O1155 O 0.36127 0.31574 0.2894 0.0
O1156 O 0.33393 0.30582 0.32952 0.0
O1157 O 0.31644 0.26546 0.3159 0.0
O1158 O 0.34302 0.36205 0.29321 0.0
O1159 O 0.33824 0.35282 0.3265 0.0
O1160 O 0.29019 0.31848 0.30655 0.0
O1161 O 0.27405 0.27686 0.29706 0.0
O1162 O 0.29361 0.29063 0.25567 0.0
O1163 O 0.32393 0.32575 0.26406 0.0
C1164 C 0.36195 0.29704 0.27516 0.0
O1165 O 0.28756 0.2322 0.2854 0.0
O1166 O 0.29767 0.24356 0.2537 0.0
C1167 C 0.32614 0.28207 0.33267 0.0
C1168 C 0.32448 0.38516 0.3149 0.0
C1169 C 0.28827 0.4071 0.32076 0.0
C1170 C 0.30741 0.41172 0.33689 0.0
C1171 C 0.32538 0.40072 0.334 0.0
C1172 C 0.30556 0.38096 0.29867 0.0
C1173 C 0.28777 0.3919 0.30152 0.0
C1174 C 0.34094 0.3703 0.31311 0.0
C1175 C 0.27193 0.29793 0.30644 0.0
H1176 H 0.30782 0.15067 0.24767 0.0
H1177 H 0.28133 0.17719 0.24636 0.0
H1178 H 0.335 0.23611 0.28467 0.0
H1179 H 0.36122 0.2106 0.28553 0.0
H1180 H 0.30821 0.42335 0.35191 0.0
H1181 H 0.33956 0.40375 0.3469 0.0
H1182 H 0.30411 0.36865 0.28393 0.0
H1183 H 0.2736 0.38844 0.28856 0.0
Tb1184 Tb 0.56869 0.56241 0.06331 0.0
Tb1185 Tb 0.56605 0.53101 0.0169 0.0
C1186 C 0.52122 0.52526 0.04118 0.0
C1187 C 0.57531 0.57871 0.12267 0.0
C1188 C 0.58636 0.56528 0.16491 0.0
C1189 C 0.57794 0.58596 0.16262 0.0
C1190 C 0.57228 0.59254 0.14157 0.0
C1191 C 0.58355 0.55803 0.12508 0.0
C1192 C 0.58879 0.55123 0.14591 0.0
C1193 C 0.57129 0.58624 0.10041 0.0
O1194 O 0.57102 0.52617 0.07506 0.0
O1195 O 0.57124 0.50442 0.04201 0.0
O1196 O 0.60145 0.55674 0.02117 0.0
O1197 O 0.60508 0.56518 0.05848 0.0
O1198 O 0.54891 0.49883 0.99614 0.0
O1199 O 0.58033 0.52501 0.98707 0.0
O1200 O 0.56077 0.56596 1.0048 0.0
O1201 O 0.56494 0.58937 0.0379 0.0
O1202 O 0.53434 0.53454 0.05953 0.0
O1203 O 0.52993 0.52894 0.0221 0.0
C1204 C 0.57146 0.50527 0.06402 0.0
O1205 O 0.58888 0.58852 0.08834 0.0
O1206 O 0.55148 0.57392 0.0893 0.0
C1207 C 0.61416 0.56713 0.03946 0.0
C1208 C 0.54964 0.50891 0.95923 0.0
C1209 C 0.52775 0.51873 0.9199 0.0
C1210 C 0.54953 0.51373 0.91988 0.0
C1211 C 0.56036 0.50877 0.93943 0.0
C1212 C 0.52786 0.51386 0.9592 0.0
C1213 C 0.51698 0.51857 0.93972 0.0
C1214 C 0.56207 0.50632 0.98019 0.0
C1215 C 0.56239 0.58761 0.01579 0.0
H1216 H 0.57604 0.59718 0.17706 0.0
H1217 H 0.5661 0.60868 0.14005 0.0
H1218 H 0.58684 0.54762 0.11086 0.0
H1219 H 0.59582 0.53561 0.14712 0.0
H1220 H 0.55813 0.51364 0.90477 0.0
H1221 H 0.5773 0.50532 0.9392 0.0
H1222 H 0.51941 0.51463 0.97433 0.0
H1223 H 0.50039 0.52274 0.94028 0.0
Tb1224 Tb 0.8351 0.31902 0.27796 0.0
Tb1225 Tb 0.80808 0.26974 0.29855 0.0
C1226 C 0.83219 0.26744 0.25508 0.0
C1227 C 0.84643 0.38207 0.26294 0.0
C1228 C 0.82092 0.41549 0.27298 0.0
C1229 C 0.81502 0.39997 0.25326 0.0
C1230 C 0.82773 0.38343 0.24822 0.0
C1231 C 0.85414 0.39983 0.28114 0.0
C1232 C 0.8414 0.4163 0.28621 0.0
C1233 C 0.85423 0.35948 0.26213 0.0
O1234 O 0.79694 0.31779 0.27153 0.0
O1235 O 0.78001 0.27647 0.27497 0.0
O1236 O 0.79771 0.29809 0.31721 0.0
O1237 O 0.82874 0.33104 0.31087 0.0
O1238 O 0.7848 0.23361 0.29339 0.0
O1239 O 0.80062 0.24881 0.32603 0.0
O1240 O 0.84475 0.2802 0.31609 0.0
O1241 O 0.86486 0.30527 0.29143 0.0
O1242 O 0.83069 0.28966 0.25215 0.0
O1243 O 0.82825 0.25799 0.27397 0.0
C1244 C 0.77796 0.29795 0.26844 0.0
O1245 O 0.86139 0.35347 0.2811 0.0
O1246 O 0.84018 0.34008 0.25046 0.0
C1247 C 0.8107 0.32112 0.32192 0.0
C1248 C 0.80203 0.20867 0.31438 0.0
C1249 C 0.83664 0.18397 0.31273 0.0
C1250 C 0.83279 0.19481 0.33293 0.0
C1251 C 0.81558 0.20713 0.33376 0.0
C1252 C 0.80418 0.19522 0.29479 0.0
C1253 C 0.82151 0.18324 0.29393 0.0
C1254 C 0.79044 0.22852 0.31326 0.0
C1255 C 0.8653 0.29207 0.30877 0.0
H1256 H 0.79969 0.39948 0.24245 0.0
H1257 H 0.82166 0.37036 0.23376 0.0
H1258 H 0.86873 0.39953 0.2926 0.0
H1259 H 0.84648 0.42812 0.3015 0.0
H1260 H 0.84416 0.1953 0.34768 0.0
H1261 H 0.81421 0.21714 0.34912 0.0
H1262 H 0.79384 0.19563 0.27959 0.0
H1263 H 0.82389 0.17445 0.27829 0.0
Tb1264 Tb 0.06777 0.52775 0.56278 0.0
Tb1265 Tb 0.05246 0.55144 0.52015 0.0
C1266 C 0.10572 0.55954 0.53447 0.0
C1267 C 0.07059 0.52066 0.62102 0.0
C1268 C 0.05755 0.54184 0.65927 0.0
C1269 C 0.08098 0.5418 0.65781 0.0
C1270 C 0.08745 0.53128 0.63877 0.0
C1271 C 0.04706 0.52003 0.6228 0.0
C1272 C 0.0406 0.53036 0.64177 0.0
C1273 C 0.07805 0.51409 0.59958 0.0
O1274 O 0.06137 0.5635 0.57631 0.0
O1275 O 0.05539 0.58266 0.54526 0.0
O1276 O 1.02292 0.54116 0.54002 0.0
O1277 O 0.03106 0.50813 0.55376 0.0
O1278 O 0.05536 0.57841 0.49744 0.0
O1279 O 0.02553 0.54535 0.49463 0.0
O1280 O 0.05767 0.51507 0.50668 0.0
O1281 O 0.07096 0.49932 0.53724 0.0
O1282 O 0.09983 0.54104 0.54696 0.0
O1283 O 0.09021 0.56822 0.52418 0.0
C1284 C 0.05821 0.58329 0.56704 0.0
O1285 O 0.0615 0.50025 0.58525 0.0
O1286 O 0.09176 0.53279 0.59073 0.0
C1287 C 1.01578 0.51931 0.54746 0.0
C1288 C 0.0389 0.56223 0.462 0.0
C1289 C 0.04992 0.56081 0.41805 0.0
C1290 C 0.03921 0.57835 0.42606 0.0
C1291 C 0.03372 0.57903 0.44796 0.0
C1292 C 0.0485 0.54392 0.45381 0.0
C1293 C 0.0539 0.54315 0.43194 0.0
C1294 C 0.03632 0.5654 0.48554 0.0
C1295 C 0.06514 0.49733 0.51566 0.0
H1296 H 0.0944 0.55055 0.67108 0.0
H1297 H 0.10576 0.53233 0.63754 0.0
H1298 H 0.03369 0.51229 0.60925 0.0
H1299 H 1.0223 0.52951 0.64263 0.0
H1300 H 0.0359 0.59207 0.41564 0.0
H1301 H 0.02631 0.59328 0.45416 0.0
H1302 H 0.05276 0.53094 0.46455 0.0
H1303 H 0.0625 0.52969 0.42633 0.0
Tb1304 Tb 0.84236 0.78948 0.29419 0.0
Tb1305 Tb 0.79266 0.80322 0.28773 0.0
C1306 C 0.79447 0.75235 0.30229 0.0
C1307 C 0.90016 0.78318 0.28124 0.0
C1308 C 0.93511 0.78869 0.25117 0.0
C1309 C 0.93073 0.76908 0.26505 0.0
C1310 C 0.91344 0.76639 0.27996 0.0
C1311 C 0.90447 0.80283 0.26746 0.0
C1312 C 0.9219 0.80565 0.25266 0.0
C1313 C 0.88091 0.77906 0.29591 0.0
O1314 O 0.8362 0.79145 0.25847 0.0
O1315 O 0.79609 0.78379 0.25582 0.0
O1316 O 0.81802 0.83183 0.2724 0.0
O1317 O 0.85086 0.82931 0.29263 0.0
O1318 O 0.75637 0.7912 0.27833 0.0
O1319 O 0.77369 0.8292 0.29129 0.0
O1320 O 0.80787 0.81763 0.32159 0.0
O1321 O 0.83279 0.79399 0.32836 0.0
O1322 O 0.81376 0.75508 0.29241 0.0
O1323 O 0.78616 0.77097 0.30643 0.0
C1324 C 0.81579 0.78479 0.24648 0.0
O1325 O 0.878 0.79876 0.30621 0.0
O1326 O 0.86093 0.76373 0.28757 0.0
C1327 C 0.84039 0.8409 0.27925 0.0
C1328 C 0.73562 0.81047 0.30211 0.0
C1329 C 0.70134 0.8081 0.33274 0.0
C1330 C 0.70774 0.82811 0.31933 0.0
C1331 C 0.72459 0.8292 0.30416 0.0
C1332 C 0.72974 0.79072 0.31577 0.0
C1333 C 0.71272 0.78949 0.33084 0.0
C1334 C 0.75357 0.81216 0.28612 0.0
C1335 C 0.82042 0.80846 0.3356 0.0
H1336 H 0.94075 0.75586 0.26445 0.0
H1337 H 0.91025 0.75101 0.29032 0.0
H1338 H 0.89416 0.8158 0.26792 0.0
H1339 H 0.92465 0.82078 0.24203 0.0
H1340 H 0.69985 0.84312 0.32062 0.0
H1341 H 0.72907 0.84478 0.29404 0.0
H1342 H 0.73819 0.77613 0.31473 0.0
H1343 H 0.7082 0.7737 0.34069 0.0
Tb1344 Tb 0.80171 0.28815 0.80624 0.0
Tb1345 Tb 0.828 0.27508 0.76375 0.0
C1346 C 0.78647 0.29997 0.75875 0.0
C1347 C 0.79107 0.29382 0.86383 0.0
C1348 C 0.80905 0.29013 0.90696 0.0
C1349 C 0.7987 0.30901 0.90265 0.0
C1350 C 0.78993 0.31098 0.8811 0.0
C1351 C 0.80101 0.27476 0.86835 0.0
C1352 C 0.80994 0.27298 0.88961 0.0
C1353 C 0.78335 0.2963 0.84087 0.0
O1354 O 0.77843 0.25563 0.78686 0.0
O1355 O 0.80701 0.24031 0.77442 0.0
O1356 O 0.85092 0.27131 0.79205 0.0
O1357 O 0.82502 0.26752 0.81904 0.0
O1358 O 0.82514 0.25334 0.73389 0.0
O1359 O 0.85744 0.28186 0.74524 0.0
O1360 O 0.83907 0.31507 0.77101 0.0
O1361 O 0.83654 0.31452 0.80805 0.0
O1362 O 0.78948 0.30732 0.77996 0.0
O1363 O 0.79683 0.28421 0.75042 0.0
C1364 C 0.78513 0.23702 0.77865 0.0
O1365 O 0.79753 0.31384 0.8311 0.0
O1366 O 0.7761 0.27553 0.82825 0.0
C1367 C 0.84538 0.26666 0.8123 0.0
C1368 C 0.84301 0.27954 0.70785 0.0
C1369 C 0.82857 0.30063 0.6707 0.0
C1370 C 0.82784 0.27541 0.66935 0.0
C1371 C 0.83497 0.26494 0.68782 0.0
C1372 C 0.84481 0.30501 0.70887 0.0
C1373 C 0.8378 0.31544 0.69047 0.0
C1374 C 0.84507 0.26753 0.72836 0.0
C1375 C 0.84592 0.32541 0.7911 0.0
H1376 H 0.79763 0.32231 0.91585 0.0
H1377 H 0.78241 0.32589 0.8779 0.0
H1378 H 0.80198 0.26115 0.85541 0.0
H1379 H 0.81722 0.25782 0.89252 0.0
H1380 H 0.82073 0.2635 0.65436 0.0
H1381 H 0.83304 0.24519 0.68679 0.0
H1382 H 0.85062 0.3167 0.72418 0.0
H1383 H 0.83908 0.33505 0.69191 0.0
Tb1384 Tb 0.8048 0.77291 0.78363 0.0
Tb1385 Tb 0.82755 0.82874 0.80107 0.0
C1386 C 0.80668 0.81355 0.75052 0.0
C1387 C 0.80465 0.71011 0.77208 0.0
C1388 C 0.83218 0.67792 0.77832 0.0
C1389 C 0.80994 0.66926 0.76628 0.0
C1390 C 0.79622 0.68536 0.76314 0.0
C1391 C 0.82684 0.71872 0.7839 0.0
C1392 C 0.84044 0.70282 0.78703 0.0
C1393 C 0.79095 0.72758 0.76961 0.0
O1394 O 0.84226 0.7815 0.77319 0.0
O1395 O 0.86042 0.81967 0.79136 0.0
O1396 O 0.83169 0.8104 0.83122 0.0
O1397 O 0.81865 0.76964 0.81747 0.0
O1398 O 0.8435 0.8657 0.79417 0.0
O1399 O 0.83448 0.85729 0.82684 0.0
O1400 O 0.78872 0.82252 0.80615 0.0
O1401 O 0.77417 0.78036 0.79993 0.0
O1402 O 0.79358 0.79237 0.7567 0.0
O1403 O 0.82224 0.82896 0.765 0.0
C1404 C 0.86184 0.80054 0.77798 0.0
O1405 O 0.78538 0.73618 0.78808 0.0
O1406 O 0.79978 0.74544 0.75733 0.0
C1407 C 0.82635 0.78659 0.83431 0.0
C1408 C 0.82221 0.88909 0.81203 0.0
C1409 C 0.7835 0.90813 0.81301 0.0
C1410 C 0.80063 0.91335 0.83111 0.0
C1411 C 0.81986 0.90383 0.83062 0.0
C1412 C 0.80544 0.88456 0.79375 0.0
C1413 C 0.78635 0.89394 0.79425 0.0
C1414 C 0.83895 0.87441 0.81306 0.0
C1415 C 0.77115 0.80175 0.80759 0.0
H1416 H 0.8032 0.65013 0.75937 0.0
H1417 H 0.77911 0.67853 0.75393 0.0
H1418 H 0.83358 0.73777 0.791 0.0
H1419 H 0.85719 0.70994 0.79682 0.0
H1420 H 0.79899 0.92445 0.84572 0.0
H1421 H 0.83231 0.90711 0.84506 0.0
H1422 H 0.80634 0.87268 0.77937 0.0
H1423 H 0.77329 0.88919 0.7802 0.0
Tb1424 Tb 0.59295 0.56963 0.5546 0.0
Tb1425 Tb 0.54538 0.53377 0.52701 0.0
C1426 C 0.54404 0.56368 0.57211 0.0
C1427 C 0.65115 0.58099 0.57886 0.0
C1428 C 0.68302 0.55328 0.5725 0.0
C1429 C 0.6899 0.57917 0.57055 0.0
C1430 C 0.67396 0.59285 0.57345 0.0
C1431 C 0.64521 0.55584 0.58318 0.0
C1432 C 0.66081 0.5421 0.57984 0.0
C1433 C 0.63214 0.59236 0.57458 0.0
O1434 O 0.58484 0.53346 0.5689 0.0
O1435 O 0.56469 0.50871 0.53863 0.0
O1436 O 0.57223 0.54106 0.50404 0.0
O1437 O 0.60353 0.54709 0.52956 0.0
O1438 O 0.51689 0.50122 0.52546 0.0
O1439 O 0.52132 0.52515 0.49881 0.0
O1440 O 0.5429 0.57156 0.52493 0.0
O1441 O 0.58218 0.59308 0.5308 0.0
O1442 O 0.56505 0.579 0.57068 0.0
O1443 O 0.53564 0.54286 0.55944 0.0
C1444 C 0.57692 0.51141 0.55787 0.0
O1445 O 0.62701 0.59399 0.55369 0.0
O1446 O 0.61321 0.58353 0.58473 0.0
C1447 C 0.59411 0.54188 0.50917 0.0
C1448 C 0.48371 0.51219 0.51165 0.0
C1449 C 0.45243 0.5377 0.52547 0.0
C1450 C 0.45952 0.53912 0.50392 0.0
C1451 C 0.47494 0.52632 0.497 0.0
C1452 C 0.47401 0.50809 0.53205 0.0
C1453 C 0.45854 0.52084 0.53894 0.0
C1454 C 0.50654 0.50778 0.50832 0.0
C1455 C 0.56044 0.59182 0.52359 0.0
H1456 H 0.70712 0.58864 0.5656 0.0
H1457 H 0.6789 0.61221 0.56995 0.0
H1458 H 0.62775 0.54613 0.58736 0.0
H1459 H 0.65455 0.52228 0.58138 0.0
H1460 H 0.45438 0.5514 0.49294 0.0
H1461 H 0.48177 0.52947 0.48104 0.0
H1462 H 0.48007 0.49699 0.54365 0.0
H1463 H 0.45313 0.51918 0.55555 0.0
Tb1464 Tb 0.04229 0.54425 0.05903 0.0
Tb1465 Tb 0.09693 0.55129 0.04503 0.0
C1466 C 0.0778 0.52481 0.08736 0.0
C1467 C 0.98838 0.56382 0.06478 0.0
C1468 C 0.96361 0.59992 0.06161 0.0
C1469 C 0.96978 0.59253 0.08229 0.0
C1470 C 0.98197 0.57471 0.08383 0.0
C1471 C 0.98223 0.5712 0.04412 0.0
C1472 C 0.97006 0.58896 0.04257 0.0
C1473 C 1.00121 0.54479 0.06654 0.0
O1474 O 0.0655 0.57788 0.07737 0.0
O1475 O 0.09561 0.589 0.05479 0.0
O1476 O 0.07547 0.55426 0.01574 0.0
O1477 O 0.04972 0.5697 0.03356 0.0
O1478 O 0.13346 0.56267 0.05382 0.0
O1479 O 0.11935 0.54597 0.02115 0.0
O1480 O 0.0793 0.51156 0.04047 0.0
O1481 O 0.04037 0.51085 0.03719 0.0
O1482 O 0.0555 0.52161 0.08113 0.0
O1483 O 0.0952 0.53983 0.07824 0.0
C1484 C 0.08306 0.59488 0.07015 0.0
O1485 O 1.00648 0.53551 0.04811 0.0
O1486 O 1.01862 0.54937 0.0819 0.0
C1487 C 0.05898 0.56535 0.01549 0.0
C1488 C 0.1516 0.53442 0.03689 0.0
C1489 C 0.17689 0.49876 0.03854 0.0
C1490 C 0.17166 0.50792 0.01841 0.0
C1491 C 0.15931 0.52556 0.01764 0.0
C1492 C 0.15654 0.52518 0.05703 0.0
C1493 C 0.16907 0.50762 0.05785 0.0
C1494 C 0.13781 0.5525 0.03538 0.0
C1495 C 0.05705 0.50012 0.03414 0.0
H1496 H 0.96536 0.60066 0.09735 0.0
H1497 H 0.9864 0.56942 0.09998 0.0
H1498 H 0.98667 0.56316 0.02902 0.0
H1499 H 0.9653 0.59371 0.02632 0.0
H1500 H 0.17687 0.50127 1.00308 0.0
H1501 H 0.15557 0.53214 1.00186 0.0
H1502 H 0.15074 0.53148 0.0722 0.0
H1503 H 0.1729 0.50129 0.07369 0.0
H1504 H 1.02297 0.19349 0.93694 0.0
H1505 H 0.03518 0.23418 1.00102 0.0
H1506 H 0.03065 0.15794 0.95371 0.0
H1507 H 0.04211 0.19864 0.01789 0.0
H1508 H 0.07629 0.14091 0.04062 0.0
H1509 H 0.06862 0.17573 0.02307 0.0
H1510 H 1.01743 0.12442 0.97584 0.0
H1511 H 0.0257 0.08953 0.99309 0.0
C1512 C 0.02713 0.19483 0.95464 0.0
C1513 C 0.0285 0.2169 0.96753 0.0
C1514 C 0.03143 0.17429 0.96436 0.0
C1515 C 0.03719 0.17508 0.98733 0.0
C1516 C 0.03826 0.19716 1.00016 0.0
C1517 C 0.03407 0.21766 0.99044 0.0
C1518 C 0.06337 0.13695 0.02649 0.0
C1519 C 0.05168 0.11216 0.0184 0.0
C1520 C 0.0588 0.15708 0.01642 0.0
C1521 C 0.04223 0.15327 0.99791 0.0
C1522 C 0.03055 0.12842 0.9898 0.0
C1523 C 0.03521 0.10825 0.99984 0.0
H1524 H 0.16976 0.85745 0.20215 0.0
H1525 H 0.19034 0.81244 0.15211 0.0
H1526 H 0.20372 0.85728 0.22665 0.0
H1527 H 0.22343 0.81089 0.17684 0.0
H1528 H 0.28894 0.8194 0.22029 0.0
H1529 H 0.25967 0.82821 0.19517 0.0
H1530 H 0.21779 0.83301 0.2497 0.0
H1531 H 0.24814 0.82589 0.275 0.0
C1532 C 0.18171 0.84771 0.19628 0.0
C1533 C 0.17734 0.83506 0.17508 0.0
C1534 C 0.2011 0.84729 0.21049 0.0
C1535 C 0.21649 0.83378 0.20411 0.0
C1536 C 0.21246 0.82188 0.18251 0.0
C1537 C 0.19332 0.8227 0.16819 0.0
C1538 C 0.27367 0.82274 0.22699 0.0
C1539 C 0.27101 0.82196 0.24974 0.0
C1540 C 0.25659 0.82752 0.21246 0.0
C1541 C 0.23588 0.83107 0.22007 0.0
C1542 C 0.23349 0.8308 0.243 0.0
C1543 C 0.2509 0.82655 0.25763 0.0
H1544 H 0.55382 0.88076 0.44203 0.0
H1545 H 0.51116 0.84199 0.49082 0.0
H1546 H 0.56083 0.91998 0.46427 0.0
H1547 H 0.51795 0.88184 0.51313 0.0
H1548 H 0.51646 0.96695 0.52788 0.0
H1549 H 0.50826 0.92529 0.50855 0.0
H1550 H 0.58243 0.93858 0.50223 0.0
H1551 H 0.59069 0.97964 0.52162 0.0
C1552 C 0.54591 0.88057 0.45756 0.0
C1553 C 0.53196 0.85808 0.46461 0.0
C1554 C 0.55001 0.90313 0.47035 0.0
C1555 C 0.53996 0.90413 0.49049 0.0
C1556 C 0.52586 0.88172 0.49763 0.0
C1557 C 0.52214 0.85888 0.48496 0.0
C1558 C 0.53101 0.96091 0.52246 0.0
C1559 C 0.55424 0.97682 0.52631 0.0
C1560 C 0.52632 0.93698 0.51152 0.0
C1561 C 0.54469 0.9286 0.5038 0.0
C1562 C 0.56785 0.94445 0.50783 0.0
C1563 C 0.57257 0.96805 0.51904 0.0
H1564 H 0.57046 0.31347 0.69303 0.0
H1565 H 0.51749 0.29201 0.6377 0.0
H1566 H 0.53988 0.30908 0.71826 0.0
H1567 H 0.48685 0.28848 0.66296 0.0
H1568 H 0.43687 0.25891 0.71541 0.0
H1569 H 0.46738 0.26343 0.68991 0.0
H1570 H 0.51157 0.3272 0.73112 0.0
H1571 H 0.48119 0.32219 0.75686 0.0
C1572 C 0.55229 0.30806 0.68618 0.0
C1573 C 0.54651 0.30311 0.66325 0.0
C1574 C 0.53469 0.30568 0.70071 0.0
C1575 C 0.51079 0.29846 0.69274 0.0
C1576 C 0.50501 0.29369 0.66978 0.0
C1577 C 0.52263 0.29589 0.65524 0.0
C1578 C 0.45307 0.27396 0.71895 0.0
C1579 C 0.45661 0.29017 0.73818 0.0
C1580 C 0.47057 0.27663 0.70428 0.0
C1581 C 0.49203 0.29572 0.70834 0.0
C1582 C 0.49549 0.31201 0.72758 0.0
C1583 C 0.47805 0.30919 0.74235 0.0
H1584 H 0.07889 0.90226 0.67986 0.0
H1585 H 0.06574 0.85115 0.6219 0.0
H1586 H 0.08025 0.93648 0.65692 0.0
H1587 H 0.0669 0.88559 0.59861 0.0
H1588 H 0.0835 0.95624 0.55736 0.0
H1589 H 0.08257 0.92125 0.57982 0.0
H1590 H 0.06622 0.96202 0.63555 0.0
H1591 H 0.06737 0.99676 0.61317 0.0
C1592 C 0.07613 0.89796 0.66214 0.0
C1593 C 0.07208 0.87289 0.65344 0.0
C1594 C 0.07679 0.91812 0.6486 0.0
C1595 C 0.07361 0.91505 0.62508 0.0
C1596 C 0.0697 0.88991 0.6163 0.0
C1597 C 0.06888 0.86961 0.62995 0.0
C1598 C 0.07982 0.95803 0.57445 0.0
C1599 C 0.0757 0.98039 0.58286 0.0
C1600 C 0.07909 0.93741 0.58764 0.0
C1601 C 0.07434 0.93758 0.61033 0.0
C1602 C 0.07032 0.96009 0.61863 0.0
C1603 C 0.07088 0.98056 0.60544 0.0
H1604 H 0.50646 0.7763 0.84452 0.0
H1605 H 0.49121 0.80754 0.9057 0.0
H1606 H 0.46883 0.77856 0.82678 0.0
H1607 H 0.45311 0.80872 0.88838 0.0
H1608 H 0.37377 0.78605 0.85472 0.0
H1609 H 0.41179 0.78467 0.87211 0.0
H1610 H 0.44428 0.80634 0.81261 0.0
H1611 H 0.40641 0.80869 0.79553 0.0
C1612 C 0.4955 0.7842 0.85432 0.0
C1613 C 0.50356 0.79294 0.87674 0.0
C1614 C 0.47328 0.78527 0.844 0.0
C1615 C 0.45685 0.79419 0.85553 0.0
C1616 C 0.46446 0.8018 0.87823 0.0
C1617 C 0.48686 0.80119 0.88839 0.0
C1618 C 0.38887 0.7907 0.84512 0.0
C1619 C 0.38588 0.79763 0.82323 0.0
C1620 C 0.41122 0.78995 0.85534 0.0
C1621 C 0.4323 0.7953 0.84429 0.0
C1622 C 0.42921 0.80182 0.82226 0.0
C1623 C 0.40701 0.8033 0.81226 0.0
H1624 H 0.54058 0.20767 0.16941 0.0
H1625 H 0.57001 0.25174 0.11745 0.0
H1626 H 0.5416 0.16983 0.14771 0.0
H1627 H 0.57064 0.21409 0.09545 0.0
H1628 H 0.55473 0.13933 0.05113 0.0
H1629 H 0.55266 0.17658 0.07283 0.0
H1630 H 0.56178 0.14245 0.13277 0.0
H1631 H 0.56388 0.10519 0.11095 0.0
C1632 C 0.54704 0.20949 0.15321 0.0
C1633 C 0.5543 0.23349 0.14528 0.0
C1634 C 0.54779 0.18741 0.14055 0.0
C1635 C 0.55604 0.18778 0.1191 0.0
C1636 C 0.56362 0.21193 0.11139 0.0
C1637 C 0.56308 0.23399 0.12415 0.0
C1638 C 0.55631 0.1395 0.06895 0.0
C1639 C 0.55954 0.11833 0.07874 0.0
C1640 C 0.55525 0.16138 0.08168 0.0
C1641 C 0.55706 0.16364 0.10518 0.0
C1642 C 0.56003 0.1423 0.11497 0.0
C1643 C 0.56138 0.12051 0.10222 0.0
H1644 H 0.13875 0.26361 0.38353 0.0
H1645 H 0.14164 0.33287 0.35641 0.0
H1646 H 0.17521 0.26339 0.36656 0.0
H1647 H 0.1779 0.33293 0.3399 0.0
H1648 H 0.25494 0.33816 0.3214 0.0
H1649 H 0.21904 0.33819 0.33909 0.0
H1650 H 0.1982 0.25828 0.33601 0.0
H1651 H 0.23388 0.25833 0.31796 0.0
C1652 C 0.14705 0.27914 0.37431 0.0
C1653 C 0.13615 0.29843 0.37216 0.0
C1654 C 0.1684 0.27894 0.36411 0.0
C1655 C 0.18089 0.2982 0.35122 0.0
C1656 C 0.17008 0.31757 0.34947 0.0
C1657 C 0.14863 0.31751 0.35924 0.0
C1658 C 0.24282 0.32039 0.32424 0.0
C1659 C 0.24843 0.29824 0.31749 0.0
C1660 C 0.22162 0.32036 0.33464 0.0
C1661 C 0.20436 0.2982 0.33968 0.0
C1662 C 0.21017 0.27609 0.33311 0.0
C1663 C 0.23113 0.27611 0.32233 0.0
H1664 H 0.9407 0.05986 0.17922 0.0
H1665 H 1.0122 0.08942 0.20865 0.0
H1666 H 0.95486 0.06485 0.1425 0.0
H1667 H 0.02637 0.09322 0.17251 0.0
H1668 H 0.05146 0.10337 0.10804 0.0
H1669 H 0.03081 0.11131 0.13952 0.0
H1670 H 0.97441 0.04381 0.11943 0.0
H1671 H 0.99448 0.03707 0.08703 0.0
C1672 C 0.95937 0.06779 0.17786 0.0
C1673 C 0.97537 0.07397 0.19679 0.0
C1674 C 0.96752 0.07045 0.15683 0.0
C1675 C 0.99181 0.07918 0.1544 0.0
C1676 C 1.00753 0.0868 0.17352 0.0
C1677 C 0.9994 0.08439 0.1944 0.0
C1678 C 0.03441 0.09055 0.1102 0.0
C1679 C 0.02472 0.06935 0.0955 0.0
C1680 C 1.0226 0.09499 0.12828 0.0
C1681 C 1.00123 0.07783 0.13247 0.0
C1682 C 0.99076 0.05752 0.11678 0.0
C1683 C 1.00232 0.05348 0.09829 0.0
H1684 H 0.31552 0.6593 0.48645 0.0
H1685 H 0.31803 0.71923 0.53526 0.0
H1686 H 0.31099 0.68536 0.45718 0.0
H1687 H 0.31299 0.74523 0.50576 0.0
H1688 H 0.32106 0.78878 0.44198 0.0
H1689 H 0.33001 0.76671 0.47334 0.0
H1690 H 0.27762 0.6996 0.44496 0.0
H1691 H 0.26903 0.72145 0.41378 0.0
C1692 C 0.31536 0.67814 0.49094 0.0
C1693 C 0.31683 0.68708 0.51317 0.0
C1694 C 0.3126 0.69301 0.47417 0.0
C1695 C 0.31107 0.71711 0.47922 0.0
C1696 C 0.31407 0.7267 0.5014 0.0
C1697 C 0.31697 0.71181 0.51827 0.0
C1698 C 0.3113 0.76941 0.44273 0.0
C1699 C 0.29457 0.75667 0.42544 0.0
C1700 C 0.31644 0.75679 0.46058 0.0
C1701 C 0.30488 0.73131 0.46132 0.0
C1702 C 0.28733 0.71903 0.44452 0.0
C1703 C 0.28229 0.73155 0.42675 0.0
H1704 H 0.59427 0.97885 0.71722 0.0
H1705 H 0.66557 0.99687 0.69854 0.0
H1706 H 0.57969 0.97736 0.6791 0.0
H1707 H 0.65079 0.99362 0.65986 0.0
H1708 H 0.62459 0.0441 0.61467 0.0
H1709 H 0.63852 0.0255 0.64507 0.0
H1710 H 0.57172 0.96784 0.64082 0.0
H1711 H 0.55727 0.9874 0.61033 0.0
C1712 C 0.6068 0.9814 0.70482 0.0
C1713 C 0.63115 0.98915 0.71091 0.0
C1714 C 0.59836 0.98033 0.6828 0.0
C1715 C 0.61415 0.98653 0.66647 0.0
C1716 C 0.63823 0.98987 0.67222 0.0
C1717 C 0.64673 0.9915 0.69435 0.0
C1718 C 0.61278 0.02738 0.62005 0.0
C1719 C 0.58961 0.01752 0.61035 0.0
C1720 C 0.62099 0.01635 0.63734 0.0
C1721 C 0.60637 0.99494 0.64541 0.0
C1722 C 0.58341 0.98443 0.63515 0.0
C1723 C 0.57506 0.99569 0.6178 0.0
H1724 H 0.28732 0.35911 0.96577 0.0
H1725 H 0.34987 0.33844 0.98268 0.0
H1726 H 0.28704 0.34384 0.92745 0.0
H1727 H 0.35047 0.324 0.94397 0.0
H1728 H 0.33945 0.28771 0.87228 0.0
H1729 H 0.33734 0.29755 0.91162 0.0
H1730 H 0.30426 0.35374 0.89546 0.0
H1731 H 0.30562 0.3432 0.8564 0.0
C1732 C 0.30075 0.35065 0.96138 0.0
C1733 C 0.31819 0.34939 0.97764 0.0
C1734 C 0.30095 0.34232 0.93911 0.0
C1735 C 0.31901 0.33291 0.9319 0.0
C1736 C 0.33604 0.33079 0.94844 0.0
C1737 C 0.33563 0.3389 0.97087 0.0
C1738 C 0.33173 0.3022 0.8771 0.0
C1739 C 0.32272 0.31457 0.86078 0.0
C1740 C 0.33058 0.30798 0.89989 0.0
C1741 C 0.32042 0.32645 0.90735 0.0
C1742 C 0.3117 0.33897 0.8909 0.0
C1743 C 0.31271 0.33307 0.8682 0.0
H1744 H 0.96788 0.01825 0.33763 0.0
H1745 H 1.02006 0.05759 0.29602 0.0
H1746 H 0.9988 1.01251 0.36264 0.0
H1747 H 0.05125 0.05173 0.32149 0.0
H1748 H 0.09243 0.06003 0.39458 0.0
H1749 H 0.06771 0.0654 0.36271 0.0
H1750 H 0.02803 0.98777 0.35987 0.0
H1751 H 0.05172 0.98248 0.39193 0.0
C1752 C 0.98594 0.02576 0.3338 0.0
C1753 C 0.99143 0.03828 0.31471 0.0
C1754 C 1.00366 0.02225 0.34807 0.0
C1755 C 0.02735 0.03128 0.34374 0.0
C1756 C 0.03307 0.04446 0.32507 0.0
C1757 C 1.01522 0.04779 0.31055 0.0
C1758 C 0.07874 0.044 0.38686 0.0
C1759 C 0.07382 0.02095 0.39615 0.0
C1760 C 0.06473 0.04706 0.36854 0.0
C1761 C 0.04567 0.02711 0.35926 0.0
C1762 C 0.04238 1.00354 0.36704 0.0
C1763 C 0.05625 1.00048 0.38529 0.0
H1764 H 0.30573 0.65999 0.65263 0.0
H1765 H 0.36254 0.72009 0.63346 0.0
H1766 H 0.30959 0.68136 0.6893 0.0
H1767 H 0.36727 0.74094 0.67042 0.0
H1768 H 0.33926 0.78765 0.71934 0.0
H1769 H 0.34398 0.76286 0.68727 0.0
H1770 H 0.33051 0.69799 0.7245 0.0
H1771 H 0.32491 0.72293 0.7568 0.0
C1772 C 0.3195 0.67744 0.65648 0.0
C1773 C 0.33353 0.68867 0.64013 0.0
C1774 C 0.32182 0.68964 0.67756 0.0
C1775 C 0.33843 0.71313 0.68269 0.0
C1776 C 0.35383 0.72322 0.66682 0.0
C1777 C 0.35122 0.71124 0.64568 0.0
C1778 C 0.3375 0.76817 0.72087 0.0
C1779 C 0.33148 0.75726 0.74061 0.0
C1780 C 0.34047 0.75393 0.70245 0.0
C1781 C 0.33774 0.72839 0.70326 0.0
C1782 C 0.33249 0.71756 0.72324 0.0
C1783 C 0.32934 0.73186 0.74175 0.0
H1784 H 0.58922 0.02616 0.79695 0.0
H1785 H 0.63914 0.07794 0.84508 0.0
H1786 H 0.5568 0.03469 0.81519 0.0
H1787 H 0.60684 0.08625 0.86317 0.0
H1788 H 0.52061 0.02943 0.88456 0.0
H1789 H 0.5418 0.02531 0.8524 0.0
H1790 H 0.57373 0.10487 0.85738 0.0
H1791 H 0.55376 0.109 0.89001 0.0
C1792 C 0.5933 0.03944 0.81134 0.0
C1793 C 0.61679 0.05128 0.81968 0.0
C1794 C 0.57472 0.04436 0.82164 0.0
C1795 C 0.57931 0.06143 0.84029 0.0
C1796 C 0.60277 0.07348 0.84844 0.0
C1797 C 0.6213 0.06842 0.83829 0.0
C1798 C 0.5315 0.04614 0.87832 0.0
C1799 C 0.53641 0.06934 0.89051 0.0
C1800 C 0.54351 0.04379 0.85979 0.0
C1801 C 0.56013 0.06472 0.85311 0.0
C1802 C 0.56151 0.08839 0.86272 0.0
C1803 C 0.54976 0.09072 0.88134 0.0
H1804 H 0.32483 0.38872 0.12648 0.0
H1805 H 0.30298 0.31119 0.10281 0.0
H1806 H 0.32056 0.3775 0.16422 0.0
H1807 H 0.29937 0.29969 0.14091 0.0
H1808 H 0.27906 0.28536 0.21235 0.0
H1809 H 0.28017 0.29602 0.17389 0.0
H1810 H 0.33648 0.36321 0.19415 0.0
H1811 H 0.33479 0.35297 0.23221 0.0
C1812 C 0.31918 0.36916 0.12927 0.0
C1813 C 0.31436 0.35098 0.11122 0.0
C1814 C 0.31688 0.3626 0.15121 0.0
C1815 C 0.30981 0.33749 0.15629 0.0
C1816 C 0.30465 0.31924 0.13813 0.0
C1817 C 0.30685 0.32585 0.11607 0.0
C1818 C 0.29148 0.30258 0.20865 0.0
C1819 C 0.30667 0.31829 0.22584 0.0
C1820 C 0.29233 0.30865 0.18635 0.0
C1821 C 0.30841 0.3307 0.18029 0.0
C1822 C 0.32343 0.34635 0.19763 0.0
C1823 C 0.32255 0.34033 0.21978 0.0
H1824 H 0.25245 0.95615 0.0385 0.0
H1825 H 0.27188 1.01042 0.99054 0.0
H1826 H 0.22864 0.97979 0.05498 0.0
H1827 H 0.24766 0.03368 1.00675 0.0
H1828 H 0.22994 0.08533 0.05875 0.0
H1829 H 0.25118 0.05933 0.04121 0.0
H1830 H 0.19392 0.9937 0.04929 0.0
H1831 H 0.17286 0.01963 0.06697 0.0
C1832 C 0.25121 0.97277 0.03113 0.0
C1833 C 0.26427 0.98153 0.01334 0.0
C1834 C 0.23758 0.98634 0.04061 0.0
C1835 C 0.23666 1.00883 0.03241 0.0
C1836 C 0.24855 0.01675 0.01379 0.0
C1837 C 0.26223 1.00327 1.00437 0.0
C1838 C 0.22202 0.06535 0.05688 0.0
C1839 C 0.19987 0.0545 0.06436 0.0
C1840 C 0.23405 0.05047 0.04671 0.0
C1841 C 0.22409 0.02449 0.04369 0.0
C1842 C 0.20214 0.01363 0.05157 0.0
C1843 C 0.19016 0.02848 0.0618 0.0
H1844 H 0.762 0.6571 0.05555 0.0
H1845 H 0.7287 0.69374 1.0091 0.0
H1846 H 0.72447 0.62557 0.05807 0.0
H1847 H 0.69077 0.66199 0.01153 0.0
H1848 H 0.63506 0.58459 1.00255 0.0
H1849 H 0.67257 0.61638 1.00071 0.0
H1850 H 0.68537 0.62071 0.07162 0.0
H1851 H 0.64777 0.58897 0.07355 0.0
C1852 C 0.74653 0.65835 0.04587 0.0
C1853 C 0.74826 0.67743 0.03171 0.0
C1854 C 0.725 0.64041 0.04745 0.0
C1855 C 0.70461 0.64111 0.03489 0.0
C1856 C 0.70623 0.66072 0.02118 0.0
C1857 C 0.72783 0.67893 0.01984 0.0
C1858 C 0.64598 0.59204 0.01777 0.0
C1859 C 0.63836 0.58405 0.03822 0.0
C1860 C 0.66738 0.61051 0.0167 0.0
C1861 C 0.68191 0.62127 0.03601 0.0
C1862 C 0.67466 0.61275 0.05641 0.0
C1863 C 0.6531 0.5945 0.05751 0.0
H1864 H 0.75837 0.49362 0.36318 0.0
H1865 H 0.70836 0.47775 0.30551 0.0
H1866 H 0.78018 0.46855 0.3455 0.0
H1867 H 0.73037 0.45266 0.28789 0.0
H1868 H 0.77314 0.39678 0.27171 0.0
H1869 H 0.74614 0.41506 0.29002 0.0
H1870 H 0.80406 0.48007 0.31257 0.0
H1871 H 0.83104 0.46213 0.29394 0.0
C1872 C 0.75168 0.48428 0.34697 0.0
C1873 C 0.73193 0.48811 0.33555 0.0
C1874 C 0.76427 0.4701 0.33682 0.0
C1875 C 0.75728 0.45937 0.31514 0.0
C1876 C 0.73618 0.46095 0.30458 0.0
C1877 C 0.72355 0.47523 0.31473 0.0
C1878 C 0.78003 0.41525 0.28011 0.0
C1879 C 0.80424 0.42807 0.28139 0.0
C1880 C 0.76459 0.42554 0.29074 0.0
C1881 C 0.77315 0.44867 0.30301 0.0
C1882 C 0.79716 0.46188 0.30364 0.0
C1883 C 0.81255 0.4517 0.29289 0.0
H1884 H 0.88232 0.42088 0.49346 0.0
H1885 H 0.86265 0.4697 0.54072 0.0
H1886 H 0.92402 0.44176 0.50499 0.0
H1887 H 0.90402 0.49053 0.55232 0.0
H1888 H 0.97974 0.5397 0.54419 0.0
H1889 H 0.93804 0.51785 0.53626 0.0
H1890 H 0.95285 0.44739 0.53808 0.0
H1891 H 0.99471 0.4693 0.54632 0.0
C1892 C 0.88703 0.43616 0.50621 0.0
C1893 C 0.86957 0.4444 0.51569 0.0
C1894 C 0.91075 0.44795 0.51294 0.0
C1895 C 0.91721 0.46784 0.52949 0.0
C1896 C 0.89958 0.47554 0.5393 0.0
C1897 C 0.87596 0.46376 0.53259 0.0
C1898 C 0.97405 0.51956 0.54319 0.0
C1899 C 0.99043 0.50618 0.54577 0.0
C1900 C 0.95018 0.50704 0.53861 0.0
C1901 C 0.94228 0.48093 0.53615 0.0
C1902 C 0.95855 0.46754 0.53952 0.0
C1903 C 0.98244 0.48008 0.54446 0.0
H1904 H 0.44949 0.11438 0.30251 0.0
H1905 H 0.40008 0.10325 0.35258 0.0
H1906 H 0.42534 0.1342 0.28092 0.0
H1907 H 0.3763 0.12363 0.33122 0.0
H1908 H 0.32418 0.13224 0.28013 0.0
H1909 H 0.35081 0.11152 0.29688 0.0
H1910 H 0.41046 0.16987 0.2796 0.0
H1911 H 0.38376 0.18993 0.26196 0.0
C1912 C 0.43388 0.11686 0.30926 0.0
C1913 C 0.42654 0.10702 0.32916 0.0
C1914 C 0.41996 0.12804 0.29677 0.0
C1915 C 0.39859 0.12973 0.30408 0.0
C1916 C 0.39227 0.12174 0.32482 0.0
C1917 C 0.40608 0.11044 0.33722 0.0
C1918 C 0.34294 0.14006 0.27913 0.0
C1919 C 0.35198 0.16283 0.27008 0.0
C1920 C 0.3582 0.1285 0.28909 0.0
C1921 C 0.38268 0.13959 0.2902 0.0
C1922 C 0.39168 0.16103 0.27918 0.0
C1923 C 0.37641 0.1725 0.2691 0.0
H1924 H 0.37057 0.19308 0.57256 0.0
H1925 H 0.37023 0.17342 0.503 0.0
H1926 H 0.40048 0.17193 0.58053 0.0
H1927 H 0.40044 0.15319 0.51068 0.0
H1928 H 0.42438 0.08833 0.53177 0.0
H1929 H 0.39967 0.11502 0.52525 0.0
H1930 H 0.43992 0.16778 0.57816 0.0
H1931 H 0.46477 0.14065 0.58485 0.0
C1932 C 0.37753 0.18507 0.55894 0.0
C1933 C 0.36803 0.18489 0.53716 0.0
C1934 C 0.39459 0.1728 0.56348 0.0
C1935 C 0.40255 0.16023 0.5463 0.0
C1936 C 0.39428 0.1619 0.52443 0.0
C1937 C 0.37716 0.17383 0.51997 0.0
C1938 C 0.42822 0.10573 0.54191 0.0
C1939 C 0.44681 0.11236 0.55869 0.0
C1940 C 0.41402 0.12117 0.53812 0.0
C1941 C 0.41793 0.14391 0.55091 0.0
C1942 C 0.43628 0.15042 0.568 0.0
C1943 C 0.45053 0.13484 0.57185 0.0
H1944 H 0.74784 0.59654 0.32233 0.0
H1945 H 0.70046 0.62583 0.35827 0.0
H1946 H 0.76944 0.63788 0.31422 0.0
H1947 H 0.72045 0.66757 0.34795 0.0
H1948 H 0.77324 0.74277 0.34016 0.0
H1949 H 0.75359 0.70209 0.35246 0.0
H1950 H 0.76648 0.66705 0.2912 0.0
H1951 H 0.78776 0.70753 0.2801 0.0
C1952 C 0.7423 0.61207 0.32878 0.0
C1953 C 0.72328 0.60832 0.34181 0.0
C1954 C 0.75427 0.63577 0.32359 0.0
C1955 C 0.74662 0.65623 0.33017 0.0
C1956 C 0.72717 0.65238 0.34294 0.0
C1957 C 0.71558 0.62854 0.34873 0.0
C1958 C 0.77189 0.72621 0.32951 0.0
C1959 C 0.78208 0.72801 0.30933 0.0
C1960 C 0.7605 0.70294 0.33643 0.0
C1961 C 0.75854 0.68113 0.32296 0.0
C1962 C 0.76826 0.68326 0.30243 0.0
C1963 C 0.78029 0.70643 0.29589 0.0
H1964 H 0.95918 0.45987 0.84071 0.0
H1965 H 0.91169 0.48027 0.79423 0.0
H1966 H 0.93823 0.41562 0.8307 0.0
H1967 H 0.89072 0.43664 0.78438 0.0
H1968 H 0.86467 0.35691 0.76028 0.0
H1969 H 0.89373 0.39778 0.76687 0.0
H1970 H 0.89854 0.38869 0.83677 0.0
H1971 H 0.86958 0.34787 0.83025 0.0
C1972 C 0.94439 0.45477 0.82827 0.0
C1973 C 0.93645 0.47313 0.81865 0.0
C1974 C 0.93243 0.42962 0.82256 0.0
C1975 C 0.91283 0.42271 0.80677 0.0
C1976 C 0.90591 0.4413 0.79635 0.0
C1977 C 0.91767 0.46626 0.8022 0.0
C1978 C 0.87207 0.36356 0.77703 0.0
C1979 C 0.86453 0.34941 0.79479 0.0
C1980 C 0.8887 0.38694 0.78079 0.0
C1981 C 0.8982 0.39651 0.80236 0.0
C1982 C 0.89161 0.38177 0.81996 0.0
C1983 C 0.8748 0.35851 0.81624 0.0
H1984 H 0.07664 0.86095 0.07854 0.0
H1985 H 0.12425 0.89854 0.13487 0.0
H1986 H 0.0719 0.90017 0.06856 0.0
H1987 H 0.11933 0.93846 0.12463 0.0
H1988 H 0.11829 1.00775 0.08369 0.0
H1989 H 0.12631 0.97001 0.09581 0.0
H1990 H 0.05264 0.92971 0.08245 0.0
H1991 H 0.04468 0.96696 0.07034 0.0
C1992 C 0.08622 0.87758 0.0889 0.0
C1993 C 0.10072 0.87618 0.10776 0.0
C1994 C 0.08334 0.90026 0.08315 0.0
C1995 C 0.09487 0.92267 0.09591 0.0
C1996 C 0.11011 0.92163 0.11436 0.0
C1997 C 0.11292 0.89869 0.12027 0.0
C1998 C 0.10377 0.99087 0.08345 0.0
C1999 C 0.08079 0.99059 0.07584 0.0
C2000 C 0.10838 0.96919 0.09052 0.0
C2001 C 0.09021 0.94654 0.08996 0.0
C2002 C 0.06724 0.94654 0.08279 0.0
C2003 C 0.06262 0.9681 0.07592 0.0
H2004 H 0.9448 0.28806 0.92856 0.0
H2005 H 0.97165 0.24515 0.88186 0.0
H2006 H 0.91027 0.28337 0.90292 0.0
H2007 H 0.93657 0.23873 0.85667 0.0
H2008 H 0.8877 0.25877 0.80463 0.0
H2009 H 0.9186 0.25616 0.83138 0.0
H2010 H 0.87513 0.26237 0.88427 0.0
H2011 H 0.84434 0.26508 0.8573 0.0
C2012 C 0.94302 0.27718 0.91291 0.0
C2013 C 0.96122 0.26765 0.90691 0.0
C2014 C 0.92304 0.27422 0.89814 0.0
C2015 C 0.92034 0.2609 0.8772 0.0
C2016 C 0.938 0.24984 0.87209 0.0
C2017 C 0.95816 0.25333 0.88665 0.0
C2018 C 0.88464 0.25941 0.82196 0.0
C2019 C 0.86342 0.26235 0.82866 0.0
C2020 C 0.90252 0.25791 0.83752 0.0
C2021 C 0.90007 0.25977 0.86043 0.0
C2022 C 0.87836 0.26167 0.867 0.0
C2023 C 0.86039 0.26293 0.8514 0.0
H2024 H 0.58832 0.23447 0.64983 0.0
H2025 H 0.62387 0.26074 0.59276 0.0
H2026 H 0.5842 0.19161 0.6364 0.0
H2027 H 0.61905 0.21777 0.57862 0.0
H2028 H 0.62358 0.1377 0.56833 0.0
H2029 H 0.63021 0.18099 0.58241 0.0
H2030 H 0.56268 0.16036 0.60949 0.0
H2031 H 0.55655 0.11731 0.59626 0.0
C2032 C 0.59499 0.23097 0.63422 0.0
C2033 C 0.60549 0.25082 0.62187 0.0
C2034 C 0.59253 0.20637 0.62639 0.0
C2035 C 0.60085 0.20091 0.60611 0.0
C2036 C 0.6124 0.22102 0.59428 0.0
C2037 C 0.61483 0.24568 0.60217 0.0
C2038 C 0.61023 0.14241 0.57742 0.0
C2039 C 0.58966 0.12382 0.58134 0.0
C2040 C 0.61395 0.16734 0.58539 0.0
C2041 C 0.5971 0.1744 0.59735 0.0
C2042 C 0.57641 0.15576 0.60093 0.0
C2043 C 0.57282 0.13092 0.59318 0.0
H2044 H 0.58744 0.76542 0.42062 0.0
H2045 H 0.5939 0.84104 0.40642 0.0
H2046 H 0.62306 0.76717 0.4017 0.0
H2047 H 0.6292 0.84286 0.38786 0.0
H2048 H 0.66094 0.82148 0.32623 0.0
H2049 H 0.63089 0.8204 0.35146 0.0
H2050 H 0.66791 0.78902 0.39948 0.0
H2051 H 0.69873 0.79075 0.37435 0.0
C2052 C 0.59695 0.78266 0.41422 0.0
C2053 C 0.58786 0.80305 0.41486 0.0
C2054 C 0.61724 0.78363 0.40327 0.0
C2055 C 0.62859 0.80497 0.39284 0.0
C2056 C 0.62055 0.82597 0.39527 0.0
C2057 C 0.60044 0.82499 0.40608 0.0
C2058 C 0.66304 0.81472 0.34227 0.0
C2059 C 0.68258 0.80656 0.34825 0.0
C2060 C 0.64569 0.81401 0.35675 0.0
C2061 C 0.64717 0.80493 0.37762 0.0
C2062 C 0.66629 0.79611 0.38351 0.0
C2063 C 0.68389 0.79704 0.36904 0.0
H2064 H 0.07896 0.23494 0.46965 0.0
H2065 H 0.05229 0.18772 0.40994 0.0
H2066 H 0.07857 0.19874 0.4897 0.0
H2067 H 0.05147 0.15099 0.43008 0.0
H2068 H 0.0628 0.08467 0.46908 0.0
H2069 H 0.06314 0.1205 0.44791 0.0
H2070 H 0.06511 0.16485 0.50855 0.0
H2071 H 0.06513 0.12932 0.5294 0.0
C2072 C 0.07286 0.21682 0.46054 0.0
C2073 C 0.06569 0.21532 0.43762 0.0
C2074 C 0.07245 0.1954 0.47237 0.0
C2075 C 0.06481 0.17052 0.46233 0.0
C2076 C 0.05773 0.16904 0.43924 0.0
C2077 C 0.05811 0.19059 0.42737 0.0
C2078 C 0.06323 0.10198 0.47809 0.0
C2079 C 0.06385 0.10304 0.50156 0.0
C2080 C 0.06338 0.12307 0.46567 0.0
C2081 C 0.06428 0.14696 0.47574 0.0
C2082 C 0.06479 0.14779 0.49925 0.0
C2083 C 0.0646 0.12677 0.51159 0.0
H2084 H 0.64307 0.28144 0.18006 0.0
H2085 H 0.63927 0.33268 0.23383 0.0
H2086 H 0.6808 0.279 0.19719 0.0
H2087 H 0.67758 0.3311 0.25054 0.0
H2088 H 0.76028 0.33938 0.26514 0.0
H2089 H 0.72234 0.34202 0.24856 0.0
H2090 H 0.70151 0.26366 0.22876 0.0
H2091 H 0.739 0.26085 0.24616 0.0
C2092 C 0.65019 0.29255 0.19544 0.0
C2093 C 0.63712 0.30742 0.20502 0.0
C2094 C 0.67225 0.29101 0.20556 0.0
C2095 C 0.68339 0.3048 0.22574 0.0
C2096 C 0.67052 0.32007 0.23512 0.0
C2097 C 0.64807 0.321 0.22534 0.0
C2098 C 0.74774 0.3225 0.25739 0.0
C2099 C 0.75375 0.2998 0.25751 0.0
C2100 C 0.72547 0.32403 0.24773 0.0
C2101 C 0.70774 0.30314 0.23677 0.0
C2102 C 0.71395 0.28053 0.23661 0.0
C2103 C 0.7359 0.27886 0.24687 0.0
H2104 H 0.58475 0.89663 0.90543 0.0
H2105 H 0.56657 0.85358 0.96097 0.0
H2106 H 0.58426 0.93394 0.92717 0.0
H2107 H 0.56538 0.89099 0.98296 0.0
H2108 H 0.571 0.96443 0.0251 0.0
H2109 H 0.57296 0.9271 1.00392 0.0
H2110 H 0.57369 0.96452 0.94416 0.0
H2111 H 0.57238 1.00199 0.96569 0.0
C2112 C 0.58069 0.89486 0.92243 0.0
C2113 C 0.57597 0.8711 0.93091 0.0
C2114 C 0.58014 0.91685 0.93523 0.0
C2115 C 0.57459 0.91694 0.95762 0.0
C2116 C 0.57001 0.89306 0.96619 0.0
C2117 C 0.5707 0.87099 0.95332 0.0
C2118 C 0.57167 0.96496 1.00741 0.0
C2119 C 0.5716 0.98724 0.99767 0.0
C2120 C 0.57268 0.94293 0.99487 0.0
C2121 C 0.57357 0.94132 0.97151 0.0
C2122 C 0.57342 0.96376 0.96181 0.0
C2123 C 0.57254 0.98587 0.97441 0.0
H2124 H 0.97873 0.77233 0.69407 0.0
H2125 H 1.01448 0.83495 0.73992 0.0
H2126 H 0.94143 0.77059 0.71029 0.0
H2127 H 0.97808 0.83321 0.75601 0.0
H2128 H 0.90734 0.83645 0.78228 0.0
H2129 H 0.94353 0.83719 0.76534 0.0
H2130 H 0.90909 0.76524 0.7314 0.0
H2131 H 0.87274 0.76481 0.74839 0.0
C2132 C 0.97908 0.78593 0.70752 0.0
C2133 C 1.00107 0.80394 0.71496 0.0
C2134 C 0.95707 0.78491 0.71723 0.0
C2135 C 0.95504 0.80181 0.73518 0.0
C2136 C 0.97714 0.81963 0.74242 0.0
C2137 C 0.99889 0.82059 0.73285 0.0
C2138 C 0.90715 0.82052 0.77133 0.0
C2139 C 0.88583 0.80052 0.76746 0.0
C2140 C 0.92863 0.82085 0.76127 0.0
C2141 C 0.93095 0.80122 0.74625 0.0
C2142 C 0.90949 0.78119 0.74237 0.0
C2143 C 0.88799 0.78086 0.75251 0.0
H2144 H 0.20375 0.04016 0.93291 0.0
H2145 H 0.13805 0.01842 0.89156 0.0
H2146 H 0.18197 0.03583 0.96566 0.0
H2147 H 0.11649 0.01471 0.9242 0.0
H2148 H 0.08153 1.00101 0.98663 0.0
H2149 H 0.1056 0.99389 0.95749 0.0
H2150 H 0.15965 0.06185 0.98119 0.0
H2151 H 0.13599 0.06869 1.01049 0.0
C2152 C 0.18469 0.03407 0.93076 0.0
C2153 C 0.17265 0.03008 0.90959 0.0
C2154 C 0.17225 0.03171 0.94954 0.0
C2155 C 0.14755 0.02528 0.9475 0.0
C2156 C 0.1355 0.01955 0.92635 0.0
C2157 C 0.14791 0.0219 0.9076 0.0
C2158 C 0.09867 0.01427 0.98576 0.0
C2159 C 0.10668 0.03564 1.00063 0.0
C2160 C 0.11242 1.0102 0.96907 0.0
C2161 C 0.13445 0.02736 0.96699 0.0
C2162 C 0.14288 0.04811 0.98249 0.0
C2163 C 0.12915 0.0522 0.99913 0.0
H2164 H 0.80704 0.40901 0.58692 0.0
H2165 H 0.78013 0.34138 0.54381 0.0
H2166 H 0.81063 0.38458 0.6179 0.0
H2167 H 0.78374 0.31693 0.5749 0.0
H2168 H 0.83369 0.29309 0.62669 0.0
H2169 H 0.82013 0.31315 0.59627 0.0
H2170 H 0.78848 0.35273 0.64191 0.0
H2171 H 0.80166 0.3324 0.6723 0.0
C2172 C 0.80141 0.3889 0.58417 0.0
C2173 C 0.79351 0.37711 0.56293 0.0
C2174 C 0.80338 0.37491 0.60193 0.0
C2175 C 0.79768 0.34888 0.59872 0.0
C2176 C 0.78851 0.337 0.57774 0.0
C2177 C 0.7863 0.35099 0.56 0.0
C2178 C 0.82349 0.30573 0.63018 0.0
C2179 C 0.81908 0.31146 0.65194 0.0
C2180 C 0.81567 0.31716 0.61276 0.0
C2181 C 0.80335 0.33457 0.61678 0.0
C2182 C 0.79821 0.33963 0.63841 0.0
C2183 C 0.8059 0.32811 0.65579 0.0
H2184 H 0.51863 0.05871 0.38642 0.0
H2185 H 0.47529 0.10067 0.41345 0.0
H2186 H 0.54383 0.06778 0.42053 0.0
H2187 H 0.50168 0.11171 0.44726 0.0
H2188 H 0.52166 0.08121 0.51141 0.0
H2189 H 0.50554 0.08935 0.47652 0.0
H2190 H 0.57073 0.0915 0.44805 0.0
H2191 H 0.58635 0.08143 0.48315 0.0
C2192 C 0.51501 0.07062 0.39952 0.0
C2193 C 0.49483 0.07856 0.39766 0.0
C2194 C 0.52964 0.07611 0.41905 0.0
C2195 C 0.52465 0.09018 0.43694 0.0
C2196 C 0.50563 0.10013 0.43414 0.0
C2197 C 0.49056 0.09394 0.4148 0.0
C2198 C 0.53275 0.08372 0.49783 0.0
C2199 C 0.55502 0.07996 0.49983 0.0
C2200 C 0.52357 0.08879 0.47773 0.0
C2201 C 0.53664 0.09074 0.45919 0.0
C2202 C 0.55987 0.08936 0.46179 0.0
C2203 C 0.56889 0.08369 0.48189 0.0
H2204 H 0.83966 0.78107 0.10319 0.0
H2205 H 0.79171 0.70935 0.1122 0.0
H2206 H 0.83974 0.79366 0.14265 0.0
H2207 H 0.79151 0.72192 0.15118 0.0
H2208 H 0.77794 0.7603 0.21623 0.0
H2209 H 0.77794 0.74962 0.17659 0.0
H2210 H 0.85281 0.78502 0.18053 0.0
H2211 H 0.85286 0.79541 0.22013 0.0
C2212 C 0.8291 0.76797 0.11347 0.0
C2213 C 0.81575 0.74409 0.10419 0.0
C2214 C 0.82919 0.77516 0.13624 0.0
C2215 C 0.81553 0.75893 0.15047 0.0
C2216 C 0.80206 0.73519 0.14102 0.0
C2217 C 0.80232 0.72788 0.11848 0.0
C2218 C 0.79443 0.76589 0.20871 0.0
C2219 C 0.81539 0.77873 0.22177 0.0
C2220 C 0.79447 0.75963 0.18584 0.0
C2221 C 0.8154 0.76634 0.17496 0.0
C2222 C 0.83626 0.77962 0.18797 0.0
C2223 C 0.83629 0.78548 0.2109 0.0
H2224 H 0.18155 0.04667 0.7668 0.0
H2225 H 0.11546 0.02562 0.79646 0.0
H2226 H 0.16081 0.0493 0.73165 0.0
H2227 H 0.09466 0.02833 0.76113 0.0
H2228 H 0.07838 0.07682 0.7048 0.0
H2229 H 0.09453 0.06541 0.7391 0.0
H2230 H 0.13113 0.02312 0.70174 0.0
H2231 H 0.11468 0.03403 0.66746 0.0
C2232 C 0.16255 0.04223 0.76571 0.0
C2233 C 0.15011 0.03607 0.78436 0.0
C2234 C 0.15067 0.04362 0.74556 0.0
C2235 C 0.12616 0.03913 0.74374 0.0
C2236 C 0.11359 0.03208 0.76218 0.0
C2237 C 0.12547 0.03037 0.78231 0.0
C2238 C 0.08952 0.06472 0.7039 0.0
C2239 C 0.09555 0.05666 0.68343 0.0
C2240 C 0.09872 0.05816 0.72352 0.0
C2241 C 0.11417 0.04351 0.72302 0.0
C2242 C 0.11951 0.03471 0.70257 0.0
C2243 C 0.11021 0.04111 0.68298 0.0
H2244 H 0.80504 0.436 0.42234 0.0
H2245 H 0.78706 0.36631 0.45272 0.0
H2246 H 0.80318 0.41352 0.38651 0.0
H2247 H 0.78592 0.34404 0.41711 0.0
H2248 H 0.77436 0.30754 0.34827 0.0
H2249 H 0.76723 0.33137 0.38042 0.0
H2250 H 0.82826 0.39215 0.37013 0.0
H2251 H 0.83498 0.36871 0.33772 0.0
C2252 C 0.8004 0.41589 0.42138 0.0
C2253 C 0.79647 0.40301 0.44051 0.0
C2254 C 0.7995 0.40302 0.40084 0.0
C2255 C 0.79473 0.37701 0.39898 0.0
C2256 C 0.78946 0.36405 0.41788 0.0
C2257 C 0.79025 0.37688 0.43838 0.0
C2258 C 0.78613 0.32608 0.35276 0.0
C2259 C 0.80541 0.33609 0.34058 0.0
C2260 C 0.78207 0.33971 0.37122 0.0
C2261 C 0.79724 0.36361 0.37794 0.0
C2262 C 0.81604 0.37393 0.36528 0.0
C2263 C 0.82004 0.36036 0.34679 0.0
H2264 H 0.52406 0.08427 0.28301 0.0
H2265 H 0.45151 0.05657 0.25596 0.0
H2266 H 0.53693 0.08144 0.24621 0.0
H2267 H 0.46438 0.05461 0.21891 0.0
H2268 H 0.49751 1.01135 0.16977 0.0
H2269 H 0.48191 0.02535 0.20238 0.0
H2270 H 0.53955 0.09361 0.20919 0.0
H2271 H 0.55545 0.07913 0.17675 0.0
C2272 C 0.51086 0.07827 0.2691 0.0
C2273 C 0.48683 0.07006 0.2723 0.0
C2274 C 0.51823 0.07682 0.24797 0.0
C2275 C 0.50165 0.06736 0.22972 0.0
C2276 C 0.47755 0.06138 0.23277 0.0
C2277 C 0.47019 0.06258 0.25393 0.0
C2278 C 0.50664 0.02946 0.17813 0.0
C2279 C 0.52779 0.04404 0.17107 0.0
C2280 C 0.49762 0.03762 0.19666 0.0
C2281 C 0.5095 0.06063 0.20835 0.0
C2282 C 0.53019 0.07567 0.20069 0.0
C2283 C 0.53932 0.06738 0.18224 0.0
H2284 H 0.80979 0.76814 0.97797 0.0
H2285 H 0.83192 0.7059 0.9536 0.0
H2286 H 0.81355 0.78443 0.94126 0.0
H2287 H 0.83602 0.72201 0.91772 0.0
H2288 H 0.8165 0.73901 0.84814 0.0
H2289 H 0.81484 0.72591 0.88551 0.0
H2290 H 0.83653 0.80266 0.91195 0.0
H2291 H 0.83772 0.81576 0.87431 0.0
C2292 C 0.81586 0.75812 0.96505 0.0
C2293 C 0.82037 0.73547 0.96914 0.0
C2294 C 0.81798 0.76744 0.94378 0.0
C2295 C 0.82469 0.75446 0.92583 0.0
C2296 C 0.8301 0.73244 0.93044 0.0
C2297 C 0.82793 0.72321 0.95141 0.0
C2298 C 0.8212 0.75323 0.86183 0.0
C2299 C 0.82751 0.77858 0.85773 0.0
C2300 C 0.82031 0.74566 0.88356 0.0
C2301 C 0.82566 0.76305 0.90238 0.0
C2302 C 0.83204 0.78846 0.89827 0.0
C2303 C 0.83299 0.79605 0.87646 0.0
H2304 H 0.87254 0.12744 0.08088 0.0
H2305 H 0.86293 0.13463 1.01106 0.0
H2306 H 0.89787 0.10124 0.07375 0.0
H2307 H 0.88929 0.10976 1.00384 0.0
H2308 H 0.90789 0.03755 0.99528 0.0
H2309 H 0.88637 0.06741 1.00328 0.0
H2310 H 0.93332 0.09675 0.06226 0.0
H2311 H 0.95388 0.06601 0.05469 0.0
C2312 C 0.87661 0.12411 0.06411 0.0
C2313 C 0.86585 0.13283 0.04649 0.0
C2314 C 0.89107 0.10909 0.05995 0.0
C2315 C 0.89526 0.10296 0.03814 0.0
C2316 C 0.88583 0.11341 0.02075 0.0
C2317 C 0.87103 0.12793 0.02487 0.0
C2318 C 0.91338 0.05033 1.00999 0.0
C2319 C 0.93223 0.0494 0.02452 0.0
C2320 C 0.9013 0.06762 0.01449 0.0
C2321 C 0.90823 0.08468 0.03336 0.0
C2322 C 0.92726 0.08371 0.04779 0.0
C2323 C 0.93903 0.06613 0.04348 0.0
H2324 H 0.37916 0.4415 0.06933 0.0
H2325 H 0.40148 0.39046 0.02674 0.0
H2326 H 0.41738 0.4726 0.06896 0.0
H2327 H 0.44012 0.42143 0.02648 0.0
H2328 H 0.49348 0.49274 1.00805 0.0
H2329 H 0.45672 0.46036 1.01096 0.0
H2330 H 0.4585 0.48446 0.0799 0.0
H2331 H 0.49537 0.51678 0.07701 0.0
C2332 C 0.39243 0.43694 0.06001 0.0
C2333 C 0.38722 0.41399 0.04748 0.0
C2334 C 0.41444 0.45466 0.05995 0.0
C2335 C 0.43185 0.44979 0.04739 0.0
C2336 C 0.427 0.4261 0.0359 0.0
C2337 C 0.40497 0.40828 0.03615 0.0
C2338 C 0.48588 0.4914 0.02376 0.0
C2339 C 0.49736 0.50757 0.04225 0.0
C2340 C 0.46485 0.4726 0.0255 0.0
C2341 C 0.4545 0.46966 0.04567 0.0
C2342 C 0.46575 0.48622 0.06403 0.0
C2343 C 0.48694 0.50482 0.06237 0.0
H2344 H 0.35675 0.56907 0.73515 0.0
H2345 H 0.42614 0.61647 0.75872 0.0
H2346 H 0.33978 0.60145 0.74715 0.0
H2347 H 0.40906 0.64921 0.77092 0.0
H2348 H 0.31515 0.66692 0.76503 0.0
H2349 H 0.33713 0.6443 0.74417 0.0
H2350 H 0.38354 0.64806 0.80267 0.0
H2351 H 0.36151 0.67068 0.82357 0.0
C2352 C 0.36842 0.5868 0.74226 0.0
C2353 C 0.39266 0.59032 0.74621 0.0
C2354 C 0.35874 0.60537 0.74907 0.0
C2355 C 0.37311 0.62768 0.76021 0.0
C2356 C 0.39763 0.63202 0.76255 0.0
C2357 C 0.40739 0.61347 0.75541 0.0
C2358 C 0.32994 0.66272 0.77346 0.0
C2359 C 0.33631 0.66996 0.79604 0.0
C2360 C 0.34266 0.65008 0.76146 0.0
C2361 C 0.36202 0.64449 0.77181 0.0
C2362 C 0.36891 0.6525 0.7942 0.0
C2363 C 0.35617 0.66516 0.80621 0.0
H2364 H 0.24791 0.66376 0.54508 0.0
H2365 H 0.25014 0.60289 0.58377 0.0
H2366 H 0.20629 0.64351 0.53381 0.0
H2367 H 0.20823 0.58331 0.57412 0.0
H2368 H 0.14164 0.53926 0.53679 0.0
H2369 H 0.18309 0.56117 0.54496 0.0
H2370 H 0.16779 0.63151 0.54277 0.0
H2371 H 0.12629 0.60925 0.53356 0.0
C2372 C 0.23923 0.64614 0.55136 0.0
C2373 C 0.25206 0.63422 0.56449 0.0
C2374 C 0.21539 0.63462 0.54511 0.0
C2375 C 0.20388 0.61142 0.55261 0.0
C2376 C 0.21661 0.60062 0.56724 0.0
C2377 C 0.24055 0.61183 0.57294 0.0
C2378 C 0.14729 0.5594 0.53751 0.0
C2379 C 0.13089 0.57261 0.53456 0.0
C2380 C 0.17104 0.57204 0.54249 0.0
C2381 C 0.17889 0.5982 0.54501 0.0
C2382 C 0.16252 0.61139 0.54083 0.0
C2383 C 0.13873 0.59867 0.53547 0.0
H2384 H 0.69236 0.9944 0.84002 0.0
H2385 H 0.66193 0.95493 0.77695 0.0
H2386 H 0.71525 0.96557 0.84522 0.0
H2387 H 0.68463 0.92583 0.78243 0.0
H2388 H 0.76328 0.92716 0.77978 0.0
H2389 H 0.72829 0.94077 0.77985 0.0
H2390 H 0.72082 0.92306 0.8475 0.0
H2391 H 0.75591 0.90872 0.8473 0.0
C2392 C 0.68981 0.97897 0.82768 0.0
C2393 C 0.67595 0.97744 0.80773 0.0
C2394 C 0.70287 0.96236 0.83074 0.0
C2395 C 0.7022 0.94397 0.81392 0.0
C2396 C 0.6858 0.94025 0.79543 0.0
C2397 C 0.67268 0.95684 0.79237 0.0
C2398 C 0.75398 0.92569 0.79457 0.0
C2399 C 0.76238 0.91689 0.81354 0.0
C2400 C 0.7338 0.93332 0.79455 0.0
C2401 C 0.72159 0.93254 0.81357 0.0
C2402 C 0.72986 0.92369 0.83259 0.0
C2403 C 0.75006 0.9158 0.83254 0.0
H2404 H 0.76267 0.89866 0.57471 0.0
H2405 H 0.76145 0.90835 0.50503 0.0
H2406 H 0.7313 0.9186 0.57783 0.0
H2407 H 0.73081 0.92845 0.50799 0.0
H2408 H 0.67024 0.9577 0.51468 0.0
H2409 H 0.69172 0.92694 0.5143 0.0
H2410 H 0.72972 0.96104 0.57658 0.0
H2411 H 0.70774 0.99146 0.57714 0.0
C2412 C 0.75509 0.90422 0.55995 0.0
C2413 C 0.76435 0.90183 0.5396 0.0
C2414 C 0.73741 0.91601 0.56176 0.0
C2415 C 0.72859 0.92543 0.54321 0.0
C2416 C 0.73682 0.92128 0.52263 0.0
C2417 C 0.75446 0.90973 0.52089 0.0
C2418 C 0.68308 0.95853 0.52836 0.0
C2419 C 0.68751 0.97728 0.54577 0.0
C2420 C 0.69541 0.94086 0.52817 0.0
C2421 C 0.71273 0.94158 0.54528 0.0
C2422 C 0.71637 0.95965 0.56322 0.0
C2423 C 0.70385 0.97722 0.5635 0.0
H2424 H 0.44757 0.47019 0.75004 0.0
H2425 H 0.38322 0.46904 0.71296 0.0
H2426 H 0.43204 0.42579 0.75389 0.0
H2427 H 0.36652 0.42546 0.71824 0.0
H2428 H 0.33416 0.35005 0.73611 0.0
H2429 H 0.35845 0.38459 0.71829 0.0
H2430 H 0.40812 0.40356 0.77653 0.0
H2431 H 0.38461 0.36815 0.79328 0.0
C2432 C 0.43 0.46026 0.74278 0.0
C2433 C 0.41582 0.47298 0.73254 0.0
C2434 C 0.42093 0.43487 0.74513 0.0
C2435 C 0.39738 0.42197 0.73759 0.0
C2436 C 0.38453 0.43437 0.72472 0.0
C2437 C 0.39383 0.45962 0.72205 0.0
C2438 C 0.35035 0.3617 0.74497 0.0
C2439 C 0.35721 0.35693 0.76631 0.0
C2440 C 0.36437 0.38157 0.73477 0.0
C2441 C 0.38521 0.39759 0.74598 0.0
C2442 C 0.39254 0.39176 0.76694 0.0
C2443 C 0.37876 0.37161 0.77689 0.0
H2444 H 0.23329 0.59622 0.2452 0.0
H2445 H 0.17211 0.62058 0.25378 0.0
H2446 H 0.25732 0.639 0.24457 0.0
H2447 H 0.19552 0.66359 0.25146 0.0
H2448 H 0.24754 0.73178 0.2893 0.0
H2449 H 0.22069 0.6918 0.2763 0.0
H2450 H 0.2723 0.67793 0.23446 0.0
H2451 H 0.29971 0.71793 0.24848 0.0
C2452 C 0.22502 0.61093 0.24666 0.0
C2453 C 0.20141 0.60559 0.25107 0.0
C2454 C 0.23865 0.63553 0.24581 0.0
C2455 C 0.2287 0.65516 0.24898 0.0
C2456 C 0.20416 0.64919 0.25023 0.0
C2457 C 0.19065 0.62458 0.25138 0.0
C2458 C 0.25317 0.72025 0.27727 0.0
C2459 C 0.27593 0.72781 0.27027 0.0
C2460 C 0.23751 0.69732 0.2694 0.0
C2461 C 0.24414 0.68122 0.25426 0.0
C2462 C 0.26665 0.68936 0.24652 0.0
C2463 C 0.28244 0.71233 0.25457 0.0
H2464 H 0.52163 0.72749 0.50018 0.0
H2465 H 0.53868 0.70378 0.43638 0.0
H2466 H 0.52971 0.69134 0.51566 0.0
H2467 H 0.5477 0.6681 0.45217 0.0
H2468 H 0.58973 0.62889 0.50227 0.0
H2469 H 0.58064 0.66406 0.48566 0.0
H2470 H 0.51064 0.64024 0.50698 0.0
H2471 H 0.51933 0.60459 0.52283 0.0
C2472 C 0.52713 0.71459 0.48943 0.0
C2473 C 0.52937 0.71858 0.46696 0.0
C2474 C 0.53174 0.69383 0.49833 0.0
C2475 C 0.53944 0.67682 0.48521 0.0
C2476 C 0.54189 0.68087 0.46277 0.0
C2477 C 0.53659 0.70126 0.4537 0.0
C2478 C 0.57239 0.63112 0.50342 0.0
C2479 C 0.55531 0.6138 0.51395 0.0
C2480 C 0.56714 0.65122 0.49378 0.0
C2481 C 0.5449 0.65501 0.49496 0.0
C2482 C 0.52795 0.63794 0.50579 0.0
C2483 C 0.53296 0.61745 0.51485 0.0
H2484 H 0.69838 0.32759 0.64695 0.0
H2485 H 0.66696 0.3438 0.70568 0.0
H2486 H 0.73191 0.32313 0.6698 0.0
H2487 H 0.69954 0.33809 0.72847 0.0
H2488 H 0.76567 0.33683 0.7675 0.0
H2489 H 0.73807 0.34989 0.7433 0.0
H2490 H 0.74199 0.29518 0.69194 0.0
H2491 H 0.77034 0.28311 0.71574 0.0
C2492 C 0.69876 0.33056 0.66473 0.0
C2493 C 0.67988 0.33607 0.67439 0.0
C2494 C 0.71789 0.32763 0.67793 0.0
C2495 C 0.71855 0.32978 0.70121 0.0
C2496 C 0.70011 0.33651 0.71074 0.0
C2497 C 0.68121 0.33974 0.69756 0.0
C2498 C 0.76076 0.32771 0.75098 0.0
C2499 C 0.77019 0.30874 0.74374 0.0
C2500 C 0.74473 0.3351 0.73705 0.0
C2501 C 0.73737 0.32355 0.71549 0.0
C2502 C 0.74728 0.30493 0.70817 0.0
C2503 C 0.7635 0.29777 0.722 0.0
H2504 H 0.04792 0.37872 0.93681 0.0
H2505 H 1.01155 0.33922 0.98878 0.0
H2506 H 0.05449 0.41805 0.95877 0.0
H2507 H 1.01785 0.37916 1.01079 0.0
H2508 H 1.01392 0.46349 0.02678 0.0
H2509 H 1.00557 0.42188 1.00722 0.0
H2510 H 0.07885 0.43749 0.99573 0.0
H2511 H 0.08728 0.47841 0.01536 0.0
C2512 C 0.04125 0.37838 0.95294 0.0
C2513 C 0.02926 0.35563 0.96098 0.0
C2514 C 0.04508 0.40102 0.96557 0.0
C2515 C 0.0367 0.40184 0.98655 0.0
C2516 C 1.02443 0.37919 0.99463 0.0
C2517 C 1.02099 0.35631 0.9821 0.0
C2518 C 0.02824 0.45797 0.02018 0.0
C2519 C 0.05128 0.47448 0.02271 0.0
C2520 C 1.02348 0.43407 1.00909 0.0
C2521 C 0.04155 0.42635 0.99986 0.0
C2522 C 0.0645 0.44283 1.00251 0.0
C2523 C 0.06932 0.46636 0.01388 0.0
H2524 H 1.01574 0.77787 0.13792 0.0
H2525 H 0.06591 0.8257 0.18818 0.0
H2526 H 0.98446 0.77476 0.16258 0.0
H2527 H 0.03469 0.82246 0.21271 0.0
H2528 H 0.96833 0.83113 0.2421 0.0
H2529 H 0.99842 0.83524 0.21601 0.0
H2530 H 0.97319 0.75614 0.19793 0.0
H2531 H 0.94289 0.75209 0.22378 0.0
C2532 C 1.02012 0.7878 0.15416 0.0
C2533 C 0.04341 0.80201 0.16103 0.0
C2534 C 1.0022 0.78589 0.16834 0.0
C2535 C 1.00709 0.79836 0.18961 0.0
C2536 C 0.03029 0.81282 0.19636 0.0
C2537 C 0.04822 0.81454 0.1823 0.0
C2538 C 0.96909 0.81466 0.23242 0.0
C2539 C 0.95326 0.79128 0.23507 0.0
C2540 C 0.98644 0.81698 0.21761 0.0
C2541 C 0.98822 0.79601 0.20492 0.0
C2542 C 0.97217 0.77268 0.20733 0.0
C2543 C 0.95497 0.77033 0.2223 0.0
H2544 H 0.54027 0.34932 0.10802 0.0
H2545 H 0.58695 0.39135 0.1629 0.0
H2546 H 0.54408 0.3868 0.08943 0.0
H2547 H 0.59067 0.42979 0.14393 0.0
H2548 H 0.57762 0.50028 0.10997 0.0
H2549 H 0.57639 0.46351 0.13014 0.0
H2550 H 0.56371 0.41844 0.0684 0.0
H2551 H 0.56513 0.45517 0.04839 0.0
C2552 C 0.55159 0.3665 0.11645 0.0
C2553 C 0.56323 0.36597 0.1376 0.0
C2554 C 0.55391 0.38864 0.10533 0.0
C2555 C 0.56787 0.41258 0.1144 0.0
C2556 C 0.57954 0.41239 0.13573 0.0
C2557 C 0.57748 0.38986 0.14685 0.0
C2558 C 0.57469 0.48265 0.10044 0.0
C2559 C 0.57159 0.48177 0.07694 0.0
C2560 C 0.57403 0.46107 0.11229 0.0
C2561 C 0.56977 0.43676 0.10159 0.0
C2562 C 0.56673 0.436 0.07806 0.0
C2563 C 0.56773 0.45761 0.06623 0.0
H2564 H 1.00881 0.26813 0.34365 0.0
H2565 H 0.99233 0.29885 0.40454 0.0
H2566 H 0.97153 0.27055 0.32529 0.0
H2567 H 0.95465 0.30037 0.38655 0.0
H2568 H 0.87634 0.27908 0.3515 0.0
H2569 H 0.91382 0.27711 0.36962 0.0
H2570 H 0.94784 0.29837 0.31075 0.0
H2571 H 0.91051 0.30123 0.29292 0.0
C2572 C 0.99761 0.27589 0.35326 0.0
C2573 C 1.00514 0.28443 0.37577 0.0
C2574 C 0.97565 0.27709 0.34258 0.0
C2575 C 0.9591 0.28605 0.35383 0.0
C2576 C 0.96617 0.29344 0.37664 0.0
C2577 C 0.98829 0.29263 0.38718 0.0
C2578 C 0.89169 0.2835 0.34221 0.0
C2579 C 0.88936 0.29047 0.32027 0.0
C2580 C 0.91368 0.28242 0.35285 0.0
C2581 C 0.93497 0.28748 0.34217 0.0
C2582 C 0.93254 0.29406 0.32009 0.0
C2583 C 0.91068 0.29583 0.30967 0.0
H2584 H 0.0675 0.70826 0.67363 0.0
H2585 H 0.0412 0.73251 0.61439 0.0
H2586 H 0.0683 0.6698 0.65307 0.0
H2587 H 0.04124 0.69408 0.59387 0.0
H2588 H 0.05513 0.62888 0.55358 0.0
H2589 H 0.05428 0.66648 0.57479 0.0
H2590 H 0.05798 0.6309 0.63506 0.0
H2591 H 0.05953 0.59331 0.61349 0.0
C2592 C 0.06155 0.70545 0.65623 0.0
C2593 C 0.05417 0.72433 0.64617 0.0
C2594 C 0.06197 0.68288 0.64411 0.0
C2595 C 0.055 0.67754 0.62103 0.0
C2596 C 0.04732 0.69647 0.61119 0.0
C2597 C 0.04703 0.719 0.62327 0.0
C2598 C 0.05577 0.62879 0.57138 0.0
C2599 C 0.05741 0.60711 0.58126 0.0
C2600 C 0.05509 0.65087 0.58392 0.0
C2601 C 0.05586 0.65304 0.60741 0.0
C2602 C 0.05753 0.63122 0.61731 0.0
C2603 C 0.05832 0.60908 0.6047 0.0
H2604 H 0.63992 0.83806 0.85461 0.0
H2605 H 0.63786 0.77091 0.88518 0.0
H2606 H 0.67615 0.83737 0.83839 0.0
H2607 H 0.6743 0.76993 0.86852 0.0
H2608 H 0.73377 0.76274 0.82141 0.0
H2609 H 0.698 0.76337 0.83905 0.0
H2610 H 0.7171 0.84279 0.83702 0.0
H2611 H 0.75304 0.8421 0.81972 0.0
C2612 C 0.64706 0.823 0.85826 0.0
C2613 C 0.63477 0.80476 0.87205 0.0
C2614 C 0.66852 0.82262 0.84865 0.0
C2615 C 0.67963 0.8036 0.85145 0.0
C2616 C 0.66732 0.78517 0.86521 0.0
C2617 C 0.64594 0.78582 0.87523 0.0
C2618 C 0.73062 0.78055 0.82455 0.0
C2619 C 0.74748 0.80231 0.81838 0.0
C2620 C 0.70957 0.78095 0.83509 0.0
C2621 C 0.70319 0.80313 0.84013 0.0
C2622 C 0.72004 0.8249 0.83378 0.0
C2623 C 0.7413 0.82454 0.8236 0.0
H2624 H 0.48721 0.59874 0.69349 0.0
H2625 H 0.43611 0.53472 0.65863 0.0
H2626 H 0.50821 0.6064 0.66039 0.0
H2627 H 0.45769 0.54118 0.62612 0.0
H2628 H 0.49697 0.55634 0.56753 0.0
H2629 H 0.47183 0.56198 0.59617 0.0
H2630 H 0.53332 0.58843 0.64313 0.0
H2631 H 0.55826 0.58431 0.614 0.0
C2632 C 0.48036 0.58648 0.67864 0.0
C2633 C 0.46024 0.56598 0.67864 0.0
C2634 C 0.49248 0.5907 0.65972 0.0
C2635 C 0.48503 0.57412 0.64062 0.0
C2636 C 0.46395 0.55457 0.64031 0.0
C2637 C 0.45158 0.55071 0.65906 0.0
C2638 C 0.50497 0.56367 0.58397 0.0
C2639 C 0.52938 0.56953 0.5888 0.0
C2640 C 0.49063 0.56684 0.60042 0.0
C2641 C 0.5004 0.57526 0.62218 0.0
C2642 C 0.52506 0.58224 0.62659 0.0
C2643 C 0.53942 0.57968 0.60997 0.0
H2644 H 0.82188 0.2396 0.0391 0.0
H2645 H 0.83016 0.18857 0.98662 0.0
H2646 H 0.82491 0.2717 0.013 0.0
H2647 H 0.83361 0.22054 0.96086 0.0
H2648 H 0.85076 0.28246 0.91985 0.0
H2649 H 0.85962 0.26432 0.95352 0.0
H2650 H 0.7955 0.2713 0.97844 0.0
H2651 H 0.78647 0.28923 0.94461 0.0
C2652 C 0.82493 0.23549 0.02215 0.0
C2653 C 0.82568 0.21164 0.01476 0.0
C2654 C 0.82659 0.25378 1.00728 0.0
C2655 C 0.82964 0.2486 0.98502 0.0
C2656 C 0.83162 0.22514 0.97801 0.0
C2657 C 0.82945 0.20678 0.99268 0.0
C2658 C 0.83893 0.28081 0.93283 0.0
C2659 C 0.81768 0.2867 0.92951 0.0
C2660 C 0.84402 0.27049 0.95205 0.0
C2661 C 0.82804 0.26608 0.96832 0.0
C2662 C 0.80814 0.27461 0.96613 0.0
C2663 C 0.80297 0.28486 0.9468 0.0
H2664 H 0.17418 0.51983 0.18728 0.0
H2665 H 0.11073 0.4815 0.21616 0.0
H2666 H 0.15246 0.51271 0.15122 0.0
H2667 H 0.08898 0.47371 0.17986 0.0
H2668 H 0.05867 0.51674 0.1268 0.0
H2669 H 0.07644 0.50321 0.15916 0.0
H2670 H 0.12951 0.48825 0.11997 0.0
H2671 H 0.11223 0.50276 0.08806 0.0
C2672 C 0.1558 0.50894 0.18577 0.0
C2673 C 0.14403 0.50174 0.20456 0.0
C2674 C 0.14327 0.50477 0.16503 0.0
C2675 C 0.11878 0.49313 0.16273 0.0
C2676 C 0.10767 0.4833 0.18119 0.0
C2677 C 0.12018 0.48762 0.20195 0.0
C2678 C 0.07373 0.5099 0.12509 0.0
C2679 C 0.08446 0.51127 0.10527 0.0
C2680 C 0.08389 0.502 0.14354 0.0
C2681 C 0.10471 0.49507 0.14225 0.0
C2682 C 0.11386 0.49405 0.12168 0.0
C2683 C 0.10396 0.5023 0.10342 0.0
H2684 H 0.80044 0.8785 0.46191 0.0
H2685 H 0.83285 0.82421 0.48428 0.0
H2686 H 0.80068 0.86358 0.42408 0.0
H2687 H 0.83216 0.80801 0.44559 0.0
H2688 H 0.85005 0.80331 0.37135 0.0
H2689 H 0.84834 0.81392 0.4108 0.0
H2690 H 0.78556 0.83522 0.39508 0.0
H2691 H 0.78806 0.82588 0.35614 0.0
C2692 C 0.80713 0.86279 0.45881 0.0
C2693 C 0.81645 0.8526 0.47659 0.0
C2694 C 0.80715 0.85398 0.43674 0.0
C2695 C 0.81632 0.83424 0.43107 0.0
C2696 C 0.82508 0.82336 0.44888 0.0
C2697 C 0.82511 0.83237 0.47127 0.0
C2698 C 0.83595 0.81038 0.37634 0.0
C2699 C 0.81947 0.81409 0.36017 0.0
C2700 C 0.83482 0.81633 0.39917 0.0
C2701 C 0.817 0.82597 0.40674 0.0
C2702 C 0.80012 0.82875 0.39044 0.0
C2703 C 0.80146 0.82319 0.36778 0.0
H2704 H 0.48703 0.54727 0.787 0.0
H2705 H 0.42704 0.54611 0.82357 0.0
H2706 H 0.5094 0.54389 0.82093 0.0
H2707 H 0.44966 0.54351 0.85759 0.0
H2708 H 0.48185 0.49968 0.90417 0.0
H2709 H 0.46218 0.51009 0.87153 0.0
H2710 H 0.52785 0.56168 0.85714 0.0
H2711 H 0.54765 0.55079 0.8898 0.0
C2712 C 0.47883 0.54703 0.80236 0.0
C2713 C 0.45514 0.5466 0.80254 0.0
C2714 C 0.49168 0.54511 0.82184 0.0
C2715 C 0.48115 0.54292 0.84189 0.0
C2716 C 0.45806 0.54447 0.8423 0.0
C2717 C 0.44516 0.54617 0.82283 0.0
C2718 C 0.49205 0.51331 0.89407 0.0
C2719 C 0.51623 0.52446 0.8995 0.0
C2720 C 0.48077 0.51944 0.87546 0.0
C2721 C 0.49338 0.537 0.86189 0.0
C2722 C 0.51767 0.54799 0.86719 0.0
C2723 C 0.52901 0.54173 0.88582 0.0
H2724 H 0.87603 0.22028 0.13165 0.0
H2725 H 0.81713 0.15984 0.14687 0.0
H2726 H 0.87994 0.23876 0.16945 0.0
H2727 H 0.82051 0.17874 0.18447 0.0
H2728 H 0.83297 0.21882 0.25291 0.0
H2729 H 0.84113 0.19482 0.22114 0.0
H2730 H 0.85335 0.25967 0.18404 0.0
H2731 H 0.84565 0.28349 0.21549 0.0
C2732 C 0.8643 0.21063 0.14324 0.0
C2733 C 0.84597 0.18893 0.13624 0.0
C2734 C 0.86645 0.22126 0.16485 0.0
C2735 C 0.85011 0.21059 0.17975 0.0
C2736 C 0.83337 0.18746 0.1734 0.0
C2737 C 0.83139 0.17665 0.15181 0.0
C2738 C 0.83766 0.22795 0.23801 0.0
C2739 C 0.83842 0.25299 0.23663 0.0
C2740 C 0.84233 0.21421 0.21985 0.0
C2741 C 0.84803 0.22536 0.20011 0.0
C2742 C 0.8495 0.2506 0.19911 0.0
C2743 C 0.84477 0.26422 0.21711 0.0
H2744 H 0.11151 0.53921 0.29534 0.0
H2745 H 0.1647 0.58858 0.34247 0.0
H2746 H 0.08125 0.54194 0.31944 0.0
H2747 H 0.13436 0.59093 0.36663 0.0
H2748 H 0.0478 0.52328 0.38674 0.0
H2749 H 0.07208 0.52578 0.35578 0.0
H2750 H 0.0991 0.6055 0.36993 0.0
H2751 H 0.07536 0.60292 0.40127 0.0
C2752 C 0.11677 0.55077 0.31076 0.0
C2753 C 0.14059 0.56346 0.31712 0.0
C2754 C 0.0994 0.5523 0.32452 0.0
C2755 C 0.10548 0.56661 0.34485 0.0
C2756 C 0.12915 0.58001 0.35088 0.0
C2757 C 0.14656 0.57844 0.33715 0.0
C2758 C 0.05858 0.54137 0.38292 0.0
C2759 C 0.05993 0.56285 0.3965 0.0
C2760 C 0.07233 0.54284 0.36514 0.0
C2761 C 0.08767 0.56582 0.36071 0.0
C2762 C 0.08764 0.58753 0.37323 0.0
C2763 C 0.07385 0.58607 0.39098 0.0
H2764 H 0.80223 0.81022 0.60331 0.0
H2765 H 0.82272 0.88799 0.62603 0.0
H2766 H 0.79877 0.79933 0.64164 0.0
H2767 H 0.81851 0.8774 0.66386 0.0
H2768 H 0.83304 0.85509 0.73246 0.0
H2769 H 0.83465 0.86438 0.69417 0.0
H2770 H 0.77989 0.79568 0.67474 0.0
H2771 H 0.77895 0.78597 0.71346 0.0
C2772 C 0.80582 0.82505 0.6164 0.0
C2773 C 0.81294 0.85008 0.61123 0.0
C2774 C 0.80371 0.8188 0.63859 0.0
C2775 C 0.80856 0.83733 0.65652 0.0
C2776 C 0.81516 0.8623 0.65108 0.0
C2777 C 0.8174 0.86849 0.62905 0.0
C2778 C 0.82112 0.84192 0.72016 0.0
C2779 C 0.80573 0.81975 0.72654 0.0
C2780 C 0.82194 0.84738 0.69786 0.0
C2781 C 0.8073 0.83104 0.68067 0.0
C2782 C 0.79173 0.80885 0.68706 0.0
C2783 C 0.79098 0.80332 0.70951 0.0
H2784 H 0.76014 0.44528 0.54795 0.0
H2785 H 0.75082 0.47382 0.485 0.0
H2786 H 0.73783 0.47036 0.56445 0.0
H2787 H 0.72657 0.49741 0.50083 0.0
H2788 H 0.71142 0.56066 0.53831 0.0
H2789 H 0.73154 0.53311 0.52266 0.0
H2790 H 0.70441 0.48033 0.57022 0.0
H2791 H 0.68681 0.50936 0.58765 0.0
C2792 C 0.75235 0.45613 0.53743 0.0
C2793 C 0.7571 0.45765 0.51523 0.0
C2794 C 0.73953 0.47063 0.54688 0.0
C2795 C 0.73064 0.48646 0.53417 0.0
C2796 C 0.73383 0.48625 0.51143 0.0
C2797 C 0.74732 0.47237 0.50217 0.0
C2798 C 0.71034 0.54359 0.54598 0.0
C2799 C 0.69735 0.53741 0.56435 0.0
C2800 C 0.7214 0.52732 0.53653 0.0
C2801 C 0.71928 0.50404 0.54474 0.0
C2802 C 0.70668 0.49806 0.56339 0.0
C2803 C 0.69621 0.51468 0.57326 0.0
H2804 H 0.26237 0.15862 0.55889 0.0
H2805 H 0.22894 0.19669 0.51392 0.0
H2806 H 0.2242 0.12912 0.56369 0.0
H2807 H 0.19049 0.16709 0.51861 0.0
H2808 H 0.13505 0.08982 0.50903 0.0
H2809 H 0.17196 0.12201 0.50762 0.0
H2810 H 0.18485 0.1252 0.57845 0.0
H2811 H 0.14723 0.09273 0.58001 0.0
C2812 C 0.24675 0.16061 0.55003 0.0
C2813 C 0.24857 0.17939 0.53551 0.0
C2814 C 0.22487 0.14392 0.55298 0.0
C2815 C 0.20429 0.14562 0.54146 0.0
C2816 C 0.20606 0.16508 0.52754 0.0
C2817 C 0.22799 0.18202 0.52483 0.0
C2818 C 0.14566 0.09721 0.52442 0.0
C2819 C 0.13814 0.08845 0.54468 0.0
C2820 C 0.1668 0.11594 0.52356 0.0
C2821 C 0.18133 0.12631 0.54289 0.0
C2822 C 0.17405 0.1175 0.56323 0.0
C2823 C 0.15253 0.09892 0.56415 0.0
H2824 H 0.19535 0.98546 0.80378 0.0
H2825 H 0.2513 0.9961 0.85574 0.0
H2826 H 0.21559 0.96352 0.77992 0.0
H2827 H 0.27132 0.97438 0.83189 0.0
H2828 H 0.31642 0.96465 0.78041 0.0
H2829 H 0.29157 0.98723 0.797 0.0
H2830 H 0.2301 0.92477 0.77745 0.0
H2831 H 0.25497 0.90236 0.76064 0.0
C2832 C 0.21157 0.98252 0.81035 0.0
C2833 C 0.22189 0.99281 0.83158 0.0
C2834 C 0.22325 0.97023 0.79658 0.0
C2835 C 0.24537 0.96817 0.80384 0.0
C2836 C 0.25466 0.97657 0.82565 0.0
C2837 C 0.24301 0.98867 0.83941 0.0
C2838 C 0.2975 0.95629 0.77876 0.0
C2839 C 0.28754 0.93181 0.7695 0.0
C2840 C 0.28334 0.96898 0.78853 0.0
C2841 C 0.25909 0.95734 0.78903 0.0
C2842 C 0.24876 0.93403 0.77741 0.0
C2843 C 0.26295 0.9213 0.76772 0.0
H2844 H 0.36948 0.98478 0.0351 0.0
H2845 H 0.38186 0.93215 0.9865 0.0
H2846 H 0.41176 1.00406 0.04282 0.0
H2847 H 0.4245 0.95129 0.99433 0.0
H2848 H 0.49409 0.01482 0.99433 0.0
H2849 H 0.45238 0.99269 0.98828 0.0
H2850 H 0.44742 0.99448 0.05877 0.0
H2851 H 0.48937 0.017 0.06497 0.0
C2852 C 0.3814 0.97749 0.02602 0.0
C2853 C 0.37275 0.95768 1.0097 0.0
C2854 C 0.40552 0.98824 0.03065 0.0
C2855 C 0.42132 0.97918 0.01912 0.0
C2856 C 0.4126 0.95877 1.00324 0.0
C2857 C 0.38838 0.94786 0.99875 0.0
C2858 C 0.48418 1.01048 1.00859 0.0
C2859 C 0.49499 0.0177 0.03016 0.0
C2860 C 0.46033 0.99761 1.00508 0.0
C2861 C 0.44679 0.99177 0.02305 0.0
C2862 C 0.45753 0.99891 0.04464 0.0
C2863 C 0.48149 1.01174 0.04818 0.0
H2864 H 0.93797 0.60057 0.80041 0.0
H2865 H 0.88912 0.57985 0.8503 0.0
H2866 H 0.91542 0.62649 0.78554 0.0
H2867 H 0.86706 0.60652 0.83593 0.0
H2868 H 0.81696 0.6305 0.79057 0.0
H2869 H 0.84116 0.60526 0.80376 0.0
H2870 H 0.9039 0.66312 0.79189 0.0
H2871 H 0.87965 0.68759 0.77744 0.0
C2872 C 0.9228 0.60211 0.8086 0.0
C2873 C 0.91522 0.58807 0.82644 0.0
C2874 C 0.90983 0.61691 0.80002 0.0
C2875 C 0.8892 0.61818 0.8093 0.0
C2876 C 0.88248 0.60534 0.828 0.0
C2877 C 0.89528 0.59033 0.83642 0.0
C2878 C 0.83588 0.6375 0.79024 0.0
C2879 C 0.84644 0.66109 0.78319 0.0
C2880 C 0.84977 0.62327 0.79817 0.0
C2881 C 0.87446 0.63245 0.79933 0.0
C2882 C 0.88494 0.65551 0.79124 0.0
C2883 C 0.87106 0.66961 0.78312 0.0
H2884 H 0.87025 0.69582 0.07356 0.0
H2885 H 0.87231 0.67628 1.00432 0.0
H2886 H 0.90175 0.67698 0.08246 0.0
H2887 H 0.90348 0.65763 0.01303 0.0
H2888 H 0.96857 0.63666 0.03297 0.0
H2889 H 0.94421 0.66422 0.02758 0.0
H2890 H 0.90361 0.63326 0.08067 0.0
H2891 H 0.92775 0.60541 0.08592 0.0
C2892 C 0.87795 0.68826 0.06022 0.0
C2893 C 0.8689 0.68767 0.03823 0.0
C2894 C 0.89576 0.67715 0.06531 0.0
C2895 C 0.90509 0.6656 0.04847 0.0
C2896 C 0.89696 0.6665 0.02643 0.0
C2897 C 0.87904 0.67721 0.02141 0.0
C2898 C 0.95444 0.63564 0.04351 0.0
C2899 C 0.95003 0.61844 0.05971 0.0
C2900 C 0.94051 0.65157 0.04047 0.0
C2901 C 0.92181 0.65093 0.0536 0.0
C2902 C 0.91801 0.63453 0.07042 0.0
C2903 C 0.93189 0.61848 0.07341 0.0
H2904 H 0.20205 0.13104 0.8723 0.0
H2905 H 0.2348 0.09721 0.82326 0.0
H2906 H 0.22635 0.17248 0.86413 0.0
H2907 H 0.25849 0.13785 0.81486 0.0
H2908 H 0.31203 0.21132 0.81556 0.0
H2909 H 0.29071 0.17293 0.83048 0.0
H2910 H 0.22936 0.1988 0.83285 0.0
H2911 H 0.25075 0.23739 0.81833 0.0
C2912 C 0.21453 0.13258 0.85993 0.0
C2913 C 0.21716 0.11122 0.84879 0.0
C2914 C 0.22834 0.1561 0.85522 0.0
C2915 C 0.24456 0.15833 0.83908 0.0
C2916 C 0.24668 0.13678 0.82779 0.0
C2917 C 0.23307 0.11351 0.83254 0.0
C2918 C 0.29403 0.20887 0.81931 0.0
C2919 C 0.28299 0.22726 0.81547 0.0
C2920 C 0.28185 0.18692 0.82794 0.0
C2921 C 0.25835 0.18286 0.83277 0.0
C2922 C 0.24754 0.20154 0.82956 0.0
C2923 C 0.25975 0.22354 0.821 0.0
H2924 H 0.41321 1.0006 0.30878 0.0
H2925 H 0.45978 0.97523 0.35237 0.0
H2926 H 0.38834 0.95802 0.30004 0.0
H2927 H 0.43472 0.93201 0.34353 0.0
H2928 H 0.36497 0.86522 0.34043 0.0
H2929 H 0.39283 0.90653 0.34944 0.0
H2930 H 0.39162 0.91943 0.28028 0.0
H2931 H 0.36379 0.87825 0.27117 0.0
C2932 C 0.41799 0.98575 0.31654 0.0
C2933 C 0.43794 0.99094 0.33158 0.0
C2934 C 0.40394 0.96142 0.31136 0.0
C2935 C 0.40968 0.94178 0.32106 0.0
C2936 C 0.42989 0.94693 0.33597 0.0
C2937 C 0.44418 0.97145 0.34098 0.0
C2938 C 0.37064 0.87688 0.32715 0.0
C2939 C 0.36201 0.86861 0.3051 0.0
C2940 C 0.38672 0.90041 0.33232 0.0
C2941 C 0.39424 0.91613 0.31557 0.0
C2942 C 0.38588 0.90772 0.29352 0.0
C2943 C 0.36997 0.88416 0.28832 0.0
H2944 H 0.56773 0.36035 0.58678 0.0
H2945 H 0.63172 0.40118 0.62628 0.0
H2946 H 0.56306 0.39849 0.57448 0.0
H2947 H 0.6273 0.44019 0.61313 0.0
H2948 H 0.5974 0.50722 0.59914 0.0
H2949 H 0.60514 0.47038 0.61346 0.0
H2950 H 0.57767 0.42885 0.55067 0.0
H2951 H 0.56935 0.4651 0.53679 0.0
C2952 C 0.58111 0.37748 0.59276 0.0
C2953 C 0.60033 0.37728 0.6075 0.0
C2954 C 0.57844 0.39963 0.58546 0.0
C2955 C 0.59496 0.42277 0.59233 0.0
C2956 C 0.6141 0.42285 0.60741 0.0
C2957 C 0.61674 0.40041 0.61491 0.0
C2958 C 0.59299 0.4902 0.58841 0.0
C2959 C 0.5824 0.48924 0.56683 0.0
C2960 C 0.5976 0.46902 0.59661 0.0
C2961 C 0.59179 0.44622 0.58346 0.0
C2962 C 0.58186 0.44565 0.56168 0.0
C2963 C 0.57714 0.46665 0.55359 0.0
H2964 H 0.44699 0.79334 0.43163 0.0
H2965 H 0.47195 0.75131 0.38262 0.0
H2966 H 0.41263 0.79111 0.4065 0.0
H2967 H 0.43705 0.74743 0.35785 0.0
H2968 H 0.39031 0.77341 0.30796 0.0
H2969 H 0.42041 0.7678 0.334 0.0
H2970 H 0.37689 0.77149 0.38738 0.0
H2971 H 0.3465 0.77675 0.36097 0.0
C2972 C 0.44484 0.78321 0.41556 0.0
C2973 C 0.46249 0.77321 0.4088 0.0
C2974 C 0.42496 0.78168 0.40109 0.0
C2975 C 0.42182 0.76938 0.37967 0.0
C2976 C 0.43888 0.75782 0.37373 0.0
C2977 C 0.45894 0.75985 0.38802 0.0
C2978 C 0.38706 0.77288 0.32523 0.0
C2979 C 0.36597 0.7758 0.33226 0.0
C2980 C 0.40449 0.76966 0.34038 0.0
C2981 C 0.40181 0.76993 0.36325 0.0
C2982 C 0.38022 0.77192 0.37014 0.0
C2983 C 0.36255 0.77468 0.35488 0.0
H2984 H 0.12213 0.75864 0.09234 0.0
H2985 H 0.08497 0.73138 0.14827 0.0
H2986 H 0.11739 0.71587 0.07769 0.0
H2987 H 0.081 0.68871 0.13441 0.0
H2988 H 0.05453 0.61457 0.09406 0.0
H2989 H 0.06042 0.65744 0.10764 0.0
H2990 H 0.12786 0.67884 0.08042 0.0
H2991 H 0.12138 0.63569 0.06591 0.0
C2992 C 0.11274 0.74342 0.10138 0.0
C2993 C 0.10294 0.7483 0.12091 0.0
C2994 C 0.11035 0.71883 0.09321 0.0
C2995 C 0.09842 0.69844 0.10456 0.0
C2996 C 0.08963 0.70362 0.12469 0.0
C2997 C 0.09201 0.72816 0.13279 0.0
C2998 C 0.07074 0.62831 0.09102 0.0
C2999 C 0.08758 0.62141 0.07899 0.0
C3000 C 0.0742 0.65308 0.09899 0.0
C3001 C 0.0948 0.67194 0.09551 0.0
C3002 C 0.11165 0.66508 0.08336 0.0
C3003 C 0.10804 0.64021 0.07514 0.0
H3004 H 0.09145 0.33859 0.90296 0.0
H3005 H 0.08786 0.26431 0.91944 0.0
H3006 H 0.12727 0.34143 0.88502 0.0
H3007 H 0.12403 0.26706 0.9011 0.0
H3008 H 0.19999 0.29222 0.87518 0.0
H3009 H 0.16818 0.28975 0.89927 0.0
H3010 H 0.13153 0.31955 0.84965 0.0
H3011 H 0.16266 0.32143 0.82549 0.0
C3012 C 0.09868 0.32304 0.90319 0.0
C3013 C 0.08676 0.30117 0.9125 0.0
C3014 C 0.11911 0.32459 0.89272 0.0
C3015 C 0.1282 0.30426 0.89113 0.0
C3016 C 0.11742 0.28303 0.902 0.0
C3017 C 0.09681 0.28149 0.91262 0.0
C3018 C 0.18505 0.29803 0.8693 0.0
C3019 C 0.18416 0.30731 0.84837 0.0
C3020 C 0.16685 0.29666 0.88318 0.0
C3021 C 0.14748 0.30478 0.87654 0.0
C3022 C 0.14647 0.31369 0.85554 0.0
C3023 C 0.16444 0.31486 0.84166 0.0
H3024 H 0.57837 0.74358 0.97079 0.0
H3025 H 0.54951 0.69602 0.91169 0.0
H3026 H 0.57775 0.70738 0.99101 0.0
H3027 H 0.54844 0.65941 0.93193 0.0
H3028 H 0.55757 0.59228 0.96979 0.0
H3029 H 0.55808 0.62831 0.94919 0.0
H3030 H 0.56653 0.6736 1.01049 0.0
H3031 H 0.56638 0.63752 0.03091 0.0
C3032 C 0.57175 0.72539 0.96184 0.0
C3033 C 0.56406 0.72382 0.93901 0.0
C3034 C 0.57123 0.70397 0.97378 0.0
C3035 C 0.56294 0.679 0.96395 0.0
C3036 C 0.55527 0.67747 0.94098 0.0
C3037 C 0.55579 0.69899 0.92901 0.0
C3038 C 0.55948 0.60983 0.97913 0.0
C3039 C 0.56185 0.61088 1.00264 0.0
C3040 C 0.55972 0.6311 0.967 0.0
C3041 C 0.56241 0.65533 0.97734 0.0
C3042 C 0.56469 0.65624 1.00094 0.0
C3043 C 0.56443 0.63494 0.01305 0.0
H3044 H 0.15184 0.82663 0.68387 0.0
H3045 H 0.1157 0.78934 0.73643 0.0
H3046 H 0.18961 0.82587 0.70201 0.0
H3047 H 0.15346 0.78827 0.75466 0.0
H3048 H 0.22462 0.76996 0.77539 0.0
H3049 H 0.18679 0.77228 0.75853 0.0
H3050 H 0.22285 0.8386 0.72899 0.0
H3051 H 0.26058 0.8364 0.74611 0.0
C3052 C 0.1517 0.81846 0.69951 0.0
C3053 C 0.12971 0.80873 0.70847 0.0
C3054 C 0.17389 0.81799 0.7102 0.0
C3055 C 0.17593 0.80696 0.73043 0.0
C3056 C 0.1538 0.79693 0.73927 0.0
C3057 C 0.13162 0.79784 0.72875 0.0
C3058 C 0.2248 0.7852 0.76535 0.0
C3059 C 0.24683 0.80287 0.76257 0.0
C3060 C 0.20254 0.78665 0.75551 0.0
C3061 C 0.20044 0.80566 0.74174 0.0
C3062 C 0.22255 0.82328 0.73894 0.0
C3063 C 0.24476 0.82206 0.74908 0.0
H3064 H 0.07898 0.38717 0.40604 0.0
H3065 H 0.07038 0.34408 0.46244 0.0
H3066 H 0.07699 0.42337 0.42875 0.0
H3067 H 0.06805 0.38052 0.48544 0.0
H3068 H 0.07812 0.45556 0.52808 0.0
H3069 H 0.08098 0.41909 0.50587 0.0
H3070 H 0.05881 0.44825 0.44724 0.0
H3071 H 0.05631 0.48485 0.46956 0.0
C3072 C 0.07677 0.38516 0.42339 0.0
C3073 C 0.07511 0.36177 0.43183 0.0
C3074 C 0.07533 0.4064 0.43671 0.0
C3075 C 0.07213 0.40604 0.45962 0.0
C3076 C 0.07073 0.38266 0.4682 0.0
C3077 C 0.07208 0.36126 0.45476 0.0
C3078 C 0.07385 0.45445 0.51043 0.0
C3079 C 0.06699 0.47411 0.50116 0.0
C3080 C 0.07537 0.43296 0.49739 0.0
C3081 C 0.07026 0.42955 0.47405 0.0
C3082 C 0.0634 0.44932 0.46482 0.0
C3083 C 0.06178 0.47077 0.47789 0.0
H3084 H 0.46581 0.27703 0.17597 0.0
H3085 H 0.51298 0.31528 0.2318 0.0
H3086 H 0.4321 0.27735 0.19638 0.0
H3087 H 0.47878 0.31587 0.25251 0.0
H3088 H 0.40969 0.32897 0.28218 0.0
H3089 H 0.44492 0.3287 0.26323 0.0
H3090 H 0.40388 0.26441 0.22151 0.0
H3091 H 0.36902 0.26461 0.24055 0.0
C3092 C 0.46941 0.28561 0.19272 0.0
C3093 C 0.4934 0.29603 0.20146 0.0
C3094 C 0.4494 0.28569 0.20485 0.0
C3095 C 0.45128 0.29657 0.22694 0.0
C3096 C 0.47533 0.30722 0.2358 0.0
C3097 C 0.49552 0.30677 0.22367 0.0
C3098 C 0.40789 0.31454 0.26906 0.0
C3099 C 0.38527 0.29678 0.2636 0.0
C3100 C 0.42867 0.31433 0.25789 0.0
C3101 C 0.42863 0.29661 0.23998 0.0
C3102 C 0.40594 0.2789 0.23462 0.0
C3103 C 0.38532 0.27889 0.24596 0.0
H3104 H 0.70829 0.55416 0.42878 0.0
H3105 H 0.64874 0.50764 0.38639 0.0
H3106 H 0.68385 0.5508 0.45945 0.0
H3107 H 0.6245 0.50344 0.41738 0.0
H3108 H 0.58336 0.53793 0.46473 0.0
H3109 H 0.60783 0.53176 0.43594 0.0
H3110 H 0.66116 0.52632 0.48543 0.0
H3111 H 0.63692 0.53342 0.51436 0.0
C3112 C 0.69012 0.54272 0.42613 0.0
C3113 C 0.6803 0.53161 0.40505 0.0
C3114 C 0.67613 0.54065 0.44379 0.0
C3115 C 0.65212 0.52718 0.44076 0.0
C3116 C 0.64279 0.51449 0.42008 0.0
C3117 C 0.6567 0.51681 0.40236 0.0
C3118 C 0.60021 0.53521 0.46948 0.0
C3119 C 0.60832 0.5364 0.49178 0.0
C3120 C 0.61418 0.53143 0.45296 0.0
C3121 C 0.63645 0.5285 0.45838 0.0
C3122 C 0.64422 0.52884 0.48072 0.0
C3123 C 0.63032 0.53286 0.49728 0.0
H3124 H 0.27791 0.86933 0.05557 0.0
H3125 H 0.32774 0.93799 0.08429 0.0
H3126 H 0.28455 0.84908 0.08875 0.0
H3127 H 0.33537 0.91775 0.11646 0.0
H3128 H 0.3373 0.88196 0.17856 0.0
H3129 H 0.32272 0.90072 0.14834 0.0
H3130 H 0.31385 0.83394 0.10558 0.0
H3131 H 0.32617 0.81411 0.13661 0.0
C3132 C 0.29002 0.88016 0.06906 0.0
C3133 C 0.30234 0.90521 0.06729 0.0
C3134 C 0.29408 0.8685 0.08795 0.0
C3135 C 0.31071 0.88165 0.10527 0.0
C3136 C 0.32217 0.90701 0.10374 0.0
C3137 C 0.31786 0.91866 0.08512 0.0
C3138 C 0.33178 0.87097 0.16288 0.0
C3139 C 0.33289 0.84639 0.16017 0.0
C3140 C 0.32372 0.88194 0.14536 0.0
C3141 C 0.3172 0.86898 0.12437 0.0
C3142 C 0.31837 0.84441 0.12156 0.0
C3143 C 0.32596 0.8332 0.13929 0.0
H3144 H 1.00853 0.57069 0.87907 0.0
H3145 H 0.94851 0.53815 0.91526 0.0
H3146 H 0.03369 0.58153 0.9134 0.0
H3147 H 0.97397 0.54904 0.94967 0.0
H3148 H 0.07009 0.55484 0.97394 0.0
H3149 H 0.04704 0.55468 0.93939 0.0
H3150 H 0.99998 0.58543 0.97467 0.0
H3151 H 1.023 0.58571 1.00926 0.0
C3152 C 1.00062 0.56599 0.89434 0.0
C3153 C 0.97651 0.55323 0.89439 0.0
C3154 C 1.0151 0.57224 0.91398 0.0
C3155 C 1.00579 0.566 0.93409 0.0
C3156 C 0.98153 0.55426 0.93434 0.0
C3157 C 0.967 0.54789 0.91465 0.0
C3158 C 0.05516 0.56209 0.97429 0.0
C3159 C 0.04815 0.56989 0.99435 0.0
C3160 C 0.04199 0.56205 0.95451 0.0
C3161 C 1.02158 0.56974 0.95449 0.0
C3162 C 1.01544 0.57904 0.97434 0.0
C3163 C 0.0287 0.57927 0.9941 0.0
H3164 H 0.31905 0.28173 0.6011 0.0
H3165 H 0.31995 0.20819 0.61572 0.0
H3166 H 0.31803 0.29281 0.64078 0.0
H3167 H 0.31951 0.21931 0.65501 0.0
H3168 H 0.34373 0.25604 0.72611 0.0
H3169 H 0.34503 0.2469 0.68658 0.0
H3170 H 0.29052 0.28136 0.67259 0.0
H3171 H 0.28892 0.29019 0.71246 0.0
C3172 C 0.31939 0.26803 0.61272 0.0
C3173 C 0.31976 0.24405 0.60494 0.0
C3174 C 0.31857 0.2743 0.63554 0.0
C3175 C 0.31867 0.25702 0.65144 0.0
C3176 C 0.31957 0.2333 0.64357 0.0
C3177 C 0.31982 0.22688 0.62086 0.0
C3178 C 0.3319 0.26167 0.71472 0.0
C3179 C 0.31611 0.2738 0.72284 0.0
C3180 C 0.33262 0.25633 0.69187 0.0
C3181 C 0.31793 0.26335 0.67602 0.0
C3182 C 0.30227 0.27575 0.68408 0.0
C3183 C 0.30119 0.28063 0.70707 0.0
H3184 H 0.62532 0.51037 0.28953 0.0
H3185 H 0.68867 0.55557 0.26461 0.0
H3186 H 0.60203 0.51733 0.25723 0.0
H3187 H 0.66543 0.56255 0.23265 0.0
H3188 H 0.61566 0.59745 0.19681 0.0
H3189 H 0.63537 0.58698 0.22963 0.0
H3190 H 0.59698 0.50937 0.21451 0.0
H3191 H 0.5771 0.51986 0.18166 0.0
C3192 C 0.63431 0.52136 0.27699 0.0
C3193 C 0.6588 0.53256 0.27968 0.0
C3194 C 0.62098 0.5254 0.25859 0.0
C3195 C 0.63193 0.5409 0.24276 0.0
C3196 C 0.65652 0.55096 0.24489 0.0
C3197 C 0.66983 0.54674 0.26308 0.0
C3198 C 0.611 0.57825 0.20079 0.0
C3199 C 0.59493 0.55946 0.1867 0.0
C3200 C 0.62248 0.57222 0.21939 0.0
C3201 C 0.61793 0.54732 0.22434 0.0
C3202 C 0.60082 0.52868 0.21101 0.0
C3203 C 0.58951 0.53468 0.19225 0.0
H3204 H 0.28566 0.87997 0.9555 0.0
H3205 H 0.29934 0.94655 0.92055 0.0
H3206 H 0.28266 0.85512 0.92082 0.0
H3207 H 0.29576 0.92151 0.88579 0.0
H3208 H 0.32924 0.87535 0.83987 0.0
H3209 H 0.32227 0.90033 0.87112 0.0
H3210 H 0.26264 0.83951 0.88442 0.0
H3211 H 0.26995 0.81418 0.85332 0.0
C3212 C 0.28739 0.88926 0.94038 0.0
C3213 C 0.29319 0.91533 0.94089 0.0
C3214 C 0.28557 0.87496 0.92045 0.0
C3215 C 0.28939 0.88641 0.90061 0.0
C3216 C 0.29327 0.91223 0.90089 0.0
C3217 C 0.29518 0.92655 0.92082 0.0
C3218 C 0.31457 0.8673 0.84937 0.0
C3219 C 0.30037 0.84265 0.84432 0.0
C3220 C 0.31039 0.88174 0.86715 0.0
C3221 C 0.29189 0.87189 0.88026 0.0
C3222 C 0.27718 0.84751 0.87476 0.0
C3223 C 0.28136 0.83304 0.85693 0.0
H3224 H 0.02486 0.58277 0.79076 0.0
H3225 H 0.96081 0.54697 0.74916 0.0
H3226 H 0.04713 0.58758 0.75828 0.0
H3227 H 0.98313 0.55192 0.71675 0.0
H3228 H 0.02757 0.57035 0.66074 0.0
H3229 H 1.01002 0.58229 0.69314 0.0
H3230 H 0.05411 0.55157 0.73478 0.0
H3231 H 0.07119 0.53902 0.70245 0.0
C3232 C 1.01545 0.57648 0.77464 0.0
C3233 C 0.99118 0.56408 0.77245 0.0
C3234 C 0.02822 0.57924 0.75612 0.0
C3235 C 1.01684 0.56994 0.73514 0.0
C3236 C 0.99228 0.55941 0.73277 0.0
C3237 C 0.97954 0.55641 0.75131 0.0
C3238 C 0.03365 0.56636 0.67686 0.0
C3239 C 0.05034 0.55323 0.67907 0.0
C3240 C 1.02374 0.57336 0.69534 0.0
C3241 C 0.03062 0.56766 0.71633 0.0
C3242 C 0.04868 0.55639 0.71875 0.0
C3243 C 0.05843 0.54916 0.70025 0.0
H3244 H 0.32538 0.20034 0.45235 0.0
H3245 H 0.31349 0.26825 0.47791 0.0
H3246 H 0.32943 0.21549 0.41619 0.0
H3247 H 0.31729 0.28364 0.44082 0.0
H3248 H 0.3417 0.31113 0.37248 0.0
H3249 H 0.34001 0.29853 0.41027 0.0
H3250 H 0.309 0.22208 0.3846 0.0
H3251 H 0.31111 0.23464 0.34703 0.0
C3252 C 0.32357 0.21867 0.45039 0.0
C3253 C 0.31888 0.23278 0.46862 0.0
C3254 C 0.32574 0.22739 0.4292 0.0
C3255 C 0.32326 0.25079 0.42478 0.0
C3256 C 0.31939 0.26551 0.44314 0.0
C3257 C 0.31722 0.25668 0.46464 0.0
C3258 C 0.33477 0.29154 0.3748 0.0
C3259 C 0.32686 0.27401 0.35618 0.0
C3260 C 0.33355 0.28427 0.39674 0.0
C3261 C 0.32444 0.25909 0.40115 0.0
C3262 C 0.31662 0.24161 0.38245 0.0
C3263 C 0.31777 0.24887 0.36057 0.0
H3264 H 0.37113 0.61831 0.59651 0.0
H3265 H 0.37595 0.64133 0.53033 0.0
H3266 H 0.40171 0.59781 0.59104 0.0
H3267 H 0.40633 0.62115 0.52477 0.0
H3268 H 0.4647 0.58742 0.52114 0.0
H3269 H 0.44592 0.61745 0.53554 0.0
H3270 H 0.39683 0.55911 0.56595 0.0
H3271 H 0.41558 0.529 0.55145 0.0
C3272 C 0.37954 0.6199 0.58121 0.0
C3273 C 0.37153 0.63137 0.56384 0.0
C3274 C 0.39676 0.60799 0.57797 0.0
C3275 C 0.40617 0.60771 0.55742 0.0
C3276 C 0.39957 0.62124 0.54084 0.0
C3277 C 0.38223 0.6328 0.54399 0.0
C3278 C 0.4498 0.58099 0.53079 0.0
C3279 C 0.44116 0.55576 0.5347 0.0
C3280 C 0.43928 0.59823 0.53925 0.0
C3281 C 0.41996 0.5906 0.55184 0.0
C3282 C 0.41195 0.56558 0.55657 0.0
C3283 C 0.42248 0.5483 0.54809 0.0
H3284 H 0.89816 0.88813 0.52443 0.0
H3285 H 0.88142 0.93892 0.57172 0.0
H3286 H 0.93711 0.91723 0.52304 0.0
H3287 H 0.92101 0.96754 0.57193 0.0
H3288 H 0.98462 0.02614 0.55007 0.0
H3289 H 0.94614 0.99689 0.55379 0.0
H3290 H 0.97387 0.93553 0.53832 0.0
H3291 H 1.01154 0.96457 0.53382 0.0
C3292 C 0.90312 0.90542 0.53487 0.0
C3293 C 0.88672 0.91169 0.54766 0.0
C3294 C 0.9256 0.92214 0.53432 0.0
C3295 C 0.93258 0.94517 0.54729 0.0
C3296 C 0.91637 0.95053 0.56118 0.0
C3297 C 0.89368 0.93404 0.56125 0.0
C3298 C 0.98231 1.0064 0.54724 0.0
C3299 C 1.00111 0.99783 0.54123 0.0
C3300 C 0.9602 0.98946 0.5495 0.0
C3301 C 0.95636 0.96351 0.54588 0.0
C3302 C 0.97551 0.95517 0.54045 0.0
C3303 C 0.99738 0.972 0.53798 0.0
H3304 H 0.92802 0.11512 0.25273 0.0
H3305 H 0.94172 0.10589 0.32158 0.0
H3306 H 0.90767 0.14531 0.26275 0.0
H3307 H 0.92261 0.13723 0.33191 0.0
H3308 H 0.87028 0.19865 0.28447 0.0
H3309 H 0.90343 0.18246 0.27888 0.0
H3310 H 0.88217 0.13289 0.33026 0.0
H3311 H 0.84984 0.15009 0.3364 0.0
C3312 C 0.92774 0.12061 0.27005 0.0
C3313 C 0.93615 0.10816 0.28641 0.0
C3314 C 0.91603 0.13789 0.27587 0.0
C3315 C 0.91292 0.14323 0.29818 0.0
C3316 C 0.924 0.13294 0.31457 0.0
C3317 C 0.93523 0.11529 0.30872 0.0
C3318 C 0.87299 0.18446 0.29468 0.0
C3319 C 0.85746 0.17525 0.31063 0.0
C3320 C 0.89192 0.17519 0.29149 0.0
C3321 C 0.89546 0.15623 0.30398 0.0
C3322 C 0.88034 0.14779 0.32058 0.0
C3323 C 0.86163 0.15739 0.32399 0.0
H3324 H 0.76027 0.11687 0.08036 0.0
H3325 H 0.74911 0.18573 0.06287 0.0
H3326 H 0.71817 0.09677 0.07672 0.0
H3327 H 0.7065 0.1662 0.06036 0.0
H3328 H 0.63817 0.11502 0.0245 0.0
H3329 H 0.67881 0.13864 0.03532 0.0
H3330 H 0.68099 0.0902 0.08738 0.0
H3331 H 0.64063 0.06601 0.07581 0.0
C3332 C 0.74857 0.12771 0.07595 0.0
C3333 C 0.75761 0.15232 0.07075 0.0
C3334 C 0.72439 0.11637 0.07424 0.0
C3335 C 0.70877 0.12965 0.06771 0.0
C3336 C 0.71799 0.15513 0.06462 0.0
C3337 C 0.7423 0.16641 0.06619 0.0
C3338 C 0.64743 0.10938 0.03817 0.0
C3339 C 0.6364 0.08846 0.04907 0.0
C3340 C 0.67069 0.1231 0.0446 0.0
C3341 C 0.68338 0.11636 0.06222 0.0
C3342 C 0.67204 0.09568 0.07342 0.0
C3343 C 0.64888 0.08175 0.06678 0.0
H3344 H 0.18768 0.46956 0.26986 0.0
H3345 H 0.20667 0.51048 0.33399 0.0
H3346 H 0.20641 0.43899 0.28231 0.0
H3347 H 0.22505 0.4798 0.3465 0.0
H3348 H 0.24093 0.38579 0.31079 0.0
H3349 H 0.21074 0.40722 0.30813 0.0
H3350 H 0.26254 0.47601 0.33369 0.0
H3351 H 0.29265 0.45485 0.33594 0.0
C3352 C 0.19503 0.47148 0.28685 0.0
C3353 C 0.19624 0.49262 0.30081 0.0
C3354 C 0.20572 0.45397 0.29401 0.0
C3355 C 0.2176 0.45737 0.31524 0.0
C3356 C 0.21644 0.47704 0.32992 0.0
C3357 C 0.2059 0.49455 0.32276 0.0
C3358 C 0.24576 0.40545 0.31606 0.0
C3359 C 0.26924 0.41879 0.32321 0.0
C3360 C 0.22847 0.41762 0.31463 0.0
C3361 C 0.23432 0.44325 0.32059 0.0
C3362 C 0.25742 0.45615 0.32925 0.0
C3363 C 0.27472 0.44404 0.33053 0.0
H3364 H 0.25854 0.40021 1.00259 0.0
H3365 H 0.26622 0.40516 0.07371 0.0
H3366 H 0.22887 0.42213 1.00357 0.0
H3367 H 0.23656 0.42762 0.07483 0.0
H3368 H 0.17207 0.45926 0.06458 0.0
H3369 H 0.19478 0.42934 0.06502 0.0
H3370 H 0.23556 0.46665 0.01447 0.0
H3371 H 0.21357 0.49669 0.01435 0.0
C3372 C 0.25319 0.4052 0.01846 0.0
C3373 C 0.26454 0.4008 0.03806 0.0
C3374 C 0.23644 0.41809 0.01905 0.0
C3375 C 0.23074 0.42719 0.03928 0.0
C3376 C 0.24054 0.42087 0.05897 0.0
C3377 C 0.25736 0.4078 0.05836 0.0
C3378 C 0.18602 0.46123 0.05368 0.0
C3379 C 0.19072 0.4804 0.03925 0.0
C3380 C 0.19896 0.44397 0.0539 0.0
C3381 C 0.21673 0.4453 0.03953 0.0
C3382 C 0.22158 0.46461 0.02535 0.0
C3383 C 0.20887 0.4819 0.02526 0.0
H3384 H 0.95438 0.96935 0.25497 0.0
H3385 H 0.89094 0.98866 0.2383 0.0
H3386 H 0.93157 0.92579 0.25491 0.0
H3387 H 0.86763 0.94558 0.23976 0.0
H3388 H 0.82847 0.86605 0.24536 0.0
H3389 H 0.8531 0.90353 0.23127 0.0
H3390 H 0.9093 0.90501 0.28061 0.0
H3391 H 0.88522 0.86745 0.29385 0.0
C3392 C 0.93546 0.96412 0.25132 0.0
C3393 C 0.92406 0.98225 0.24806 0.0
C3394 C 0.92233 0.93924 0.25141 0.0
C3395 C 0.89755 0.93217 0.24845 0.0
C3396 C 0.88658 0.95012 0.24243 0.0
C3397 C 0.89982 0.97495 0.24206 0.0
C3398 C 0.84613 0.87447 0.25312 0.0
C3399 C 0.85479 0.86397 0.2709 0.0
C3400 C 0.8603 0.89596 0.24502 0.0
C3401 C 0.88333 0.9075 0.25469 0.0
C3402 C 0.89198 0.89652 0.2722 0.0
C3403 C 0.87794 0.87508 0.28015 0.0
H3404 H 0.65916 0.10904 0.76144 0.0
H3405 H 0.71794 0.07962 0.7572 0.0
H3406 H 0.68527 0.15108 0.75932 0.0
H3407 H 0.74441 0.12133 0.75637 0.0
H3408 H 0.7894 0.1984 0.75162 0.0
H3409 H 0.76037 0.15818 0.74189 0.0
H3410 H 0.71227 0.18018 0.78324 0.0
H3411 H 0.74093 0.22061 0.79205 0.0
C3412 C 0.67773 0.1117 0.76 0.0
C3413 C 0.68693 0.09154 0.76061 0.0
C3414 C 0.69276 0.13574 0.75896 0.0
C3415 C 0.71721 0.13992 0.75843 0.0
C3416 C 0.72582 0.11916 0.7568 0.0
C3417 C 0.71075 0.0952 0.7577 0.0
C3418 C 0.77258 0.19458 0.75858 0.0
C3419 C 0.76755 0.21255 0.77282 0.0
C3420 C 0.75589 0.17146 0.75304 0.0
C3421 C 0.73389 0.16559 0.76189 0.0
C3422 C 0.72876 0.18393 0.77572 0.0
C3423 C 0.74535 0.20713 0.78106 0.0
loop_
_geom_bond_atom_site_label_1
_geom_bond_atom_site_label_2
_geom_bond_distance
_geom_bond_site_symmetry_2
_ccdc_geom_bond_type
Mn0 O5 2.095 . S
Mn0 O15 2.162 . S
Mn0 O16 2.297 . S
Mn0 O24 2.385 1_455 S
Mn0 O25 2.209 . S
Mn0 O26 2.094 . S
Mn1 O6 2.121 . S
Mn1 N8 2.257 . S
Mn1 N17 2.282 . S
Mn1 O25 2.215 . S
Mn1 O27 2.117 . S
C2 O24 1.236 . S
C2 O25 1.270 1_655 S
C3 O15 1.281 . S
C3 O16 1.236 . S
C4 O26 1.240 . S
C4 O27 1.264 . S
O5 Mn0 2.095 . S
O5 C14 1.250 . S
O6 Mn1 2.121 . S
O6 C14 1.258 . S
C7 N8 1.326 . S
C7 C11 1.460 . S
C7 H13 0.929 . S
N8 Mn1 2.257 . S
N8 C7 1.326 . S
N8 C12 1.362 . S
C9 C10 1.260 1_655 S
C9 C12 1.432 1_655 S
C9 C29 1.446 . S
C10 C9 1.260 1_455 S
C10 C11 1.477 . S
C10 H30 0.931 . S
C11 C7 1.460 . S
C11 C10 1.477 . S
C11 H31 0.930 . S
C12 N8 1.362 . S
C12 C9 1.432 1_455 S
C12 C22 1.476 1_455 S
H13 C7 0.929 . S
C14 O5 1.250 . S
C14 O6 1.258 . S
O15 Mn0 2.162 . S
O15 C3 1.281 . S
O16 Mn0 2.297 . S
O16 C3 1.236 . S
N17 Mn1 2.282 . S
N17 C18 1.328 1_455 S
N17 C22 1.318 1_455 S
C18 N17 1.328 1_655 S
C18 C19 1.457 . S
C18 H23 0.929 1_655 S
C19 C18 1.457 . S
C19 C20 1.291 . S
C19 H32 0.931 . S
C20 C19 1.291 . S
C20 C21 1.373 . S
C20 H33 0.929 . S
C21 C20 1.373 . S
C21 C22 1.396 . S
C21 C28 1.403 . S
C22 C12 1.476 1_655 S
C22 N17 1.318 1_655 S
C22 C21 1.396 . S
H23 C18 0.929 1_455 S
O24 Mn0 2.385 1_655 S
O24 C2 1.236 . S
O25 Mn0 2.209 . S
O25 Mn1 2.215 . S
O25 C2 1.270 1_455 S
O26 Mn0 2.094 . S
O26 C4 1.240 . S
O27 Mn1 2.117 . S
O27 C4 1.264 . S
C28 C21 1.403 . S
C28 C29 1.399 . S
C28 H34 0.929 . S
C29 C9 1.446 . S
C29 C28 1.399 . S
C29 H35 0.930 . S
H30 C10 0.931 . S
H31 C11 0.930 . S
H32 C19 0.931 . S
H33 C20 0.929 . S
H34 C28 0.929 . S
H35 C29 0.930 . S
Mn36 O41 2.095 . S
Mn36 O51 2.162 . S
Mn36 O52 2.297 . S
Mn36 O60 2.385 . S
Mn36 O61 2.209 . S
Mn36 O62 2.094 . S
Mn37 O42 2.121 . S
Mn37 N44 2.257 . S
Mn37 N53 2.282 . S
Mn37 O61 2.215 . S
Mn37 O63 2.117 . S
C38 O60 1.234 . S
C38 O61 1.283 . S
C39 O51 1.281 . S
C39 O52 1.236 . S
C40 O62 1.240 . S
C40 O63 1.264 . S
O41 Mn36 2.095 . S
O41 C50 1.250 . S
O42 Mn37 2.121 . S
O42 C50 1.258 . S
C43 N44 1.326 . S
C43 C47 1.460 . S
C43 H49 0.929 . S
N44 Mn37 2.257 . S
N44 C43 1.326 . S
N44 C48 1.362 . S
C45 C46 1.258 . S
C45 C48 1.431 . S
C45 C65 1.449 . S
C46 C45 1.258 . S
C46 C47 1.477 . S
C46 H66 0.931 . S
C47 C43 1.460 . S
C47 C46 1.477 . S
C47 H67 0.930 . S
C48 N44 1.362 . S
C48 C45 1.431 . S
C48 C58 1.476 . S
H49 C43 0.929 . S
C50 O41 1.250 . S
C50 O42 1.258 . S
O51 Mn36 2.162 . S
O51 C39 1.281 . S
O52 Mn36 2.297 . S
O52 C39 1.236 . S
N53 Mn37 2.282 . S
N53 C54 1.328 . S
N53 C58 1.318 . S
C54 N53 1.328 . S
C54 C55 1.457 . S
C54 H59 0.929 . S
C55 C54 1.457 . S
C55 C56 1.291 . S
C55 H68 0.931 . S
C56 C55 1.291 . S
C56 C57 1.373 . S
C56 H69 0.929 . S
C57 C56 1.373 . S
C57 C58 1.396 . S
C57 C64 1.403 . S
C58 C48 1.476 . S
C58 N53 1.318 . S
C58 C57 1.396 . S
H59 C54 0.929 . S
O60 Mn36 2.385 . S
O60 C38 1.234 . S
O61 Mn36 2.209 . S
O61 Mn37 2.215 . S
O61 C38 1.283 . S
O62 Mn36 2.094 . S
O62 C40 1.240 . S
O63 Mn37 2.117 . S
O63 C40 1.264 . S
C64 C57 1.403 . S
C64 C65 1.399 . S
C64 H70 0.929 . S
C65 C45 1.449 . S
C65 C64 1.399 . S
C65 H71 0.930 . S
H66 C46 0.931 . S
H67 C47 0.930 . S
H68 C55 0.931 . S
H69 C56 0.929 . S
H70 C64 0.929 . S
H71 C65 0.930 . S
Mn72 O77 2.095 . S
Mn72 O87 2.162 . S
Mn72 O88 2.297 . S
Mn72 O96 2.385 . S
Mn72 O97 2.209 . S
Mn72 O98 2.094 . S
Mn73 O78 2.121 . S
Mn73 N80 2.257 . S
Mn73 N89 2.282 . S
Mn73 O97 2.215 . S
Mn73 O99 2.117 . S
C74 O96 1.234 . S
C74 O97 1.283 . S
C75 O87 1.281 . S
C75 O88 1.236 . S
C76 O98 1.240 . S
C76 O99 1.264 . S
O77 Mn72 2.095 . S
O77 C86 1.250 . S
O78 Mn73 2.121 . S
O78 C86 1.258 . S
C79 N80 1.326 . S
C79 C83 1.460 . S
C79 H85 0.929 . S
N80 Mn73 2.257 . S
N80 C79 1.326 . S
N80 C84 1.362 . S
C81 C82 1.258 . S
C81 C84 1.431 . S
C81 C101 1.449 . S
C82 C81 1.258 . S
C82 C83 1.477 . S
C82 H102 0.931 . S
C83 C79 1.460 . S
C83 C82 1.477 . S
C83 H103 0.930 . S
C84 N80 1.362 . S
C84 C81 1.431 . S
C84 C94 1.476 . S
H85 C79 0.929 . S
C86 O77 1.250 . S
C86 O78 1.258 . S
O87 Mn72 2.162 . S
O87 C75 1.281 . S
O88 Mn72 2.297 . S
O88 C75 1.236 . S
N89 Mn73 2.282 . S
N89 C90 1.328 . S
N89 C94 1.318 . S
C90 N89 1.328 . S
C90 C91 1.457 . S
C90 H95 0.929 . S
C91 C90 1.457 . S
C91 C92 1.291 . S
C91 H104 0.931 . S
C92 C91 1.291 . S
C92 C93 1.373 . S
C92 H105 0.929 . S
C93 C92 1.373 . S
C93 C94 1.396 . S
C93 C100 1.403 . S
C94 C84 1.476 . S
C94 N89 1.318 . S
C94 C93 1.396 . S
H95 C90 0.929 . S
O96 Mn72 2.385 . S
O96 C74 1.234 . S
O97 Mn72 2.209 . S
O97 Mn73 2.215 . S
O97 C74 1.283 . S
O98 Mn72 2.094 . S
O98 C76 1.240 . S
O99 Mn73 2.117 . S
O99 C76 1.264 . S
C100 C93 1.403 . S
C100 C101 1.399 . S
C100 H106 0.929 . S
C101 C81 1.449 . S
C101 C100 1.399 . S
C101 H107 0.930 . S
H102 C82 0.931 . S
H103 C83 0.930 . S
H104 C91 0.931 . S
H105 C92 0.929 . S
H106 C100 0.929 . S
H107 C101 0.930 . S
Mn108 O113 2.095 . S
Mn108 O123 2.162 . S
Mn108 O124 2.297 . S
Mn108 O132 2.385 . S
Mn108 O133 2.209 . S
Mn108 O134 2.094 . S
Mn109 O114 2.121 . S
Mn109 N116 2.257 . S
Mn109 N125 2.282 . S
Mn109 O133 2.215 . S
Mn109 O135 2.117 . S
C110 O132 1.234 . S
C110 O133 1.283 . S
C111 O123 1.281 . S
C111 O124 1.236 . S
C112 O134 1.240 . S
C112 O135 1.264 . S
O113 Mn108 2.095 . S
O113 C122 1.250 . S
O114 Mn109 2.121 . S
O114 C122 1.258 . S
C115 N116 1.326 . S
C115 C119 1.460 . S
C115 H121 0.929 . S
N116 Mn109 2.257 . S
N116 C115 1.326 . S
N116 C120 1.362 . S
C117 C118 1.258 . S
C117 C120 1.431 . S
C117 C137 1.449 . S
C118 C117 1.258 . S
C118 C119 1.477 . S
C118 H138 0.931 . S
C119 C115 1.460 . S
C119 C118 1.477 . S
C119 H139 0.930 . S
C120 N116 1.362 . S
C120 C117 1.431 . S
C120 C130 1.476 . S
H121 C115 0.929 . S
C122 O113 1.250 . S
C122 O114 1.258 . S
O123 Mn108 2.162 . S
O123 C111 1.281 . S
O124 Mn108 2.297 . S
O124 C111 1.236 . S
N125 Mn109 2.282 . S
N125 C126 1.328 . S
N125 C130 1.318 . S
C126 N125 1.328 . S
C126 C127 1.457 . S
C126 H131 0.929 . S
C127 C126 1.457 . S
C127 C128 1.291 . S
C127 H140 0.931 . S
C128 C127 1.291 . S
C128 C129 1.373 . S
C128 H141 0.929 . S
C129 C128 1.373 . S
C129 C130 1.396 . S
C129 C136 1.403 . S
C130 C120 1.476 . S
C130 N125 1.318 . S
C130 C129 1.396 . S
H131 C126 0.929 . S
O132 Mn108 2.385 . S
O132 C110 1.234 . S
O133 Mn108 2.209 . S
O133 Mn109 2.215 . S
O133 C110 1.283 . S
O134 Mn108 2.094 . S
O134 C112 1.240 . S
O135 Mn109 2.117 . S
O135 C112 1.264 . S
C136 C129 1.403 . S
C136 C137 1.399 . S
C136 H142 0.929 . S
C137 C117 1.449 . S
C137 C136 1.399 . S
C137 H143 0.930 . S
H138 C118 0.931 . S
H139 C119 0.930 . S
H140 C127 0.931 . S
H141 C128 0.929 . S
H142 C136 0.929 . S
H143 C137 0.930 . S
Mn144 O149 2.095 . S
Mn144 O159 2.162 . S
Mn144 O160 2.297 . S
Mn144 O168 2.385 . S
Mn144 O169 2.209 . S
Mn144 O170 2.094 . S
Mn145 O150 2.121 . S
Mn145 N152 2.257 . S
Mn145 N161 2.282 . S
Mn145 O169 2.215 . S
Mn145 O171 2.117 . S
C146 O168 1.234 . S
C146 O169 1.283 . S
C147 O159 1.281 . S
C147 O160 1.236 . S
C148 O170 1.240 . S
C148 O171 1.264 . S
O149 Mn144 2.095 . S
O149 C158 1.250 . S
O150 Mn145 2.121 . S
O150 C158 1.258 . S
C151 N152 1.326 . S
C151 C155 1.460 . S
C151 H157 0.929 . S
N152 Mn145 2.257 . S
N152 C151 1.326 . S
N152 C156 1.362 . S
C153 C154 1.258 . S
C153 C156 1.431 . S
C153 C173 1.449 . S
C154 C153 1.258 . S
C154 C155 1.477 . S
C154 H174 0.931 . S
C155 C151 1.460 . S
C155 C154 1.477 . S
C155 H175 0.930 . S
C156 N152 1.362 . S
C156 C153 1.431 . S
C156 C166 1.476 . S
H157 C151 0.929 . S
C158 O149 1.250 . S
C158 O150 1.258 . S
O159 Mn144 2.162 . S
O159 C147 1.281 . S
O160 Mn144 2.297 . S
O160 C147 1.236 . S
N161 Mn145 2.282 . S
N161 C162 1.328 . S
N161 C166 1.318 . S
C162 N161 1.328 . S
C162 C163 1.457 . S
C162 H167 0.929 . S
C163 C162 1.457 . S
C163 C164 1.291 . S
C163 H176 0.931 1_455 S
C164 C163 1.291 . S
C164 C165 1.373 . S
C164 H177 0.929 1_455 S
C165 C164 1.373 . S
C165 C166 1.396 . S
C165 C172 1.403 . S
C166 C156 1.476 . S
C166 N161 1.318 . S
C166 C165 1.396 . S
H167 C162 0.929 . S
O168 Mn144 2.385 . S
O168 C146 1.234 . S
O169 Mn144 2.209 . S
O169 Mn145 2.215 . S
O169 C146 1.283 . S
O170 Mn144 2.094 . S
O170 C148 1.240 . S
O171 Mn145 2.117 . S
O171 C148 1.264 . S
C172 C165 1.403 . S
C172 C173 1.399 . S
C172 H178 0.929 . S
C173 C153 1.449 . S
C173 C172 1.399 . S
C173 H179 0.930 . S
H174 C154 0.931 . S
H175 C155 0.930 . S
H176 C163 0.931 1_655 S
H177 C164 0.929 1_655 S
H178 C172 0.929 . S
H179 C173 0.930 . S
Mn180 O185 2.095 . S
Mn180 O195 2.162 . S
Mn180 O196 2.297 . S
Mn180 O204 2.385 . S
Mn180 O205 2.209 . S
Mn180 O206 2.094 . S
Mn181 O186 2.121 . S
Mn181 N188 2.257 . S
Mn181 N197 2.282 . S
Mn181 O205 2.215 . S
Mn181 O207 2.117 . S
C182 O204 1.234 . S
C182 O205 1.283 . S
C183 O195 1.281 . S
C183 O196 1.236 . S
C184 O206 1.240 . S
C184 O207 1.264 . S
O185 Mn180 2.095 . S
O185 C194 1.250 . S
O186 Mn181 2.121 . S
O186 C194 1.258 . S
C187 N188 1.326 . S
C187 C191 1.460 . S
C187 H193 0.929 . S
N188 Mn181 2.257 . S
N188 C187 1.326 . S
N188 C192 1.362 . S
C189 C190 1.258 . S
C189 C192 1.431 . S
C189 C209 1.449 . S
C190 C189 1.258 . S
C190 C191 1.477 . S
C190 H210 0.931 . S
C191 C187 1.460 . S
C191 C190 1.477 . S
C191 H211 0.930 . S
C192 N188 1.362 . S
C192 C189 1.431 . S
C192 C202 1.476 . S
H193 C187 0.929 . S
C194 O185 1.250 . S
C194 O186 1.258 . S
O195 Mn180 2.162 . S
O195 C183 1.281 . S
O196 Mn180 2.297 . S
O196 C183 1.236 . S
N197 Mn181 2.282 . S
N197 C198 1.328 . S
N197 C202 1.318 . S
C198 N197 1.328 . S
C198 C199 1.457 . S
C198 H203 0.929 . S
C199 C198 1.457 . S
C199 C200 1.291 . S
C199 H212 0.931 . S
C200 C199 1.291 . S
C200 C201 1.373 . S
C200 H213 0.929 . S
C201 C200 1.373 . S
C201 C202 1.396 . S
C201 C208 1.403 . S
C202 C192 1.476 . S
C202 N197 1.318 . S
C202 C201 1.396 . S
H203 C198 0.929 . S
O204 Mn180 2.385 . S
O204 C182 1.234 . S
O205 Mn180 2.209 . S
O205 Mn181 2.215 . S
O205 C182 1.283 . S
O206 Mn180 2.094 . S
O206 C184 1.240 . S
O207 Mn181 2.117 . S
O207 C184 1.264 . S
C208 C201 1.403 . S
C208 C209 1.399 . S
C208 H214 0.929 . S
C209 C189 1.449 . S
C209 C208 1.399 . S
C209 H215 0.930 . S
H210 C190 0.931 . S
H211 C191 0.930 . S
H212 C199 0.931 . S
H213 C200 0.929 . S
H214 C208 0.929 . S
H215 C209 0.930 . S
Mn216 O221 2.095 . S
Mn216 O231 2.162 . S
Mn216 O232 2.297 . S
Mn216 O240 2.385 . S
Mn216 O241 2.209 . S
Mn216 O242 2.094 . S
Mn217 O222 2.121 . S
Mn217 N224 2.257 . S
Mn217 N233 2.282 . S
Mn217 O241 2.215 . S
Mn217 O243 2.117 . S
C218 O240 1.234 . S
C218 O241 1.283 . S
C219 O231 1.281 . S
C219 O232 1.236 . S
C220 O242 1.240 . S
C220 O243 1.264 . S
O221 Mn216 2.095 . S
O221 C230 1.250 . S
O222 Mn217 2.121 . S
O222 C230 1.258 . S
C223 N224 1.326 . S
C223 C227 1.460 . S
C223 H229 0.929 . S
N224 Mn217 2.257 . S
N224 C223 1.326 . S
N224 C228 1.362 . S
C225 C226 1.258 . S
C225 C228 1.431 . S
C225 C245 1.449 . S
C226 C225 1.258 . S
C226 C227 1.477 . S
C226 H246 0.931 . S
C227 C223 1.460 . S
C227 C226 1.477 . S
C227 H247 0.930 . S
C228 N224 1.362 . S
C228 C225 1.431 . S
C228 C238 1.476 . S
H229 C223 0.929 . S
C230 O221 1.250 . S
C230 O222 1.258 . S
O231 Mn216 2.162 . S
O231 C219 1.281 . S
O232 Mn216 2.297 . S
O232 C219 1.236 . S
N233 Mn217 2.282 . S
N233 C234 1.328 . S
N233 C238 1.318 . S
C234 N233 1.328 . S
C234 C235 1.457 . S
C234 H239 0.929 . S
C235 C234 1.457 . S
C235 C236 1.291 . S
C235 H248 0.931 . S
C236 C235 1.291 . S
C236 C237 1.373 . S
C236 H249 0.929 . S
C237 C236 1.373 . S
C237 C238 1.396 . S
C237 C244 1.403 . S
C238 C228 1.476 . S
C238 N233 1.318 . S
C238 C237 1.396 . S
H239 C234 0.929 . S
O240 Mn216 2.385 . S
O240 C218 1.234 . S
O241 Mn216 2.209 . S
O241 Mn217 2.215 . S
O241 C218 1.283 . S
O242 Mn216 2.094 . S
O242 C220 1.240 . S
O243 Mn217 2.117 . S
O243 C220 1.264 . S
C244 C237 1.403 . S
C244 C245 1.399 . S
C244 H250 0.929 . S
C245 C225 1.449 . S
C245 C244 1.399 . S
C245 H251 0.930 . S
H246 C226 0.931 . S
H247 C227 0.930 . S
H248 C235 0.931 . S
H249 C236 0.929 . S
H250 C244 0.929 . S
H251 C245 0.930 . S
Mn252 O257 2.095 1_655 S
Mn252 O267 2.162 . S
Mn252 O268 2.297 . S
Mn252 O276 2.385 . S
Mn252 O277 2.209 . S
Mn252 O278 2.094 1_655 S
Mn253 O258 2.121 . S
Mn253 N260 2.257 1_455 S
Mn253 N269 2.282 1_455 S
Mn253 O277 2.215 1_455 S
Mn253 O279 2.117 . S
C254 O276 1.234 . S
C254 O277 1.283 . S
C255 O267 1.281 . S
C255 O268 1.236 . S
C256 O278 1.240 . S
C256 O279 1.264 . S
O257 Mn252 2.095 1_455 S
O257 C266 1.250 . S
O258 Mn253 2.121 . S
O258 C266 1.258 . S
C259 N260 1.324 1_455 S
C259 C263 1.459 1_455 S
C259 H265 0.933 . S
N260 Mn253 2.257 1_655 S
N260 C259 1.324 1_655 S
N260 C264 1.362 . S
C261 C262 1.258 . S
C261 C264 1.431 . S
C261 C281 1.449 . S
C262 C261 1.258 . S
C262 C263 1.477 . S
C262 H282 0.931 . S
C263 C259 1.459 1_655 S
C263 C262 1.477 . S
C263 H283 0.930 . S
C264 N260 1.362 . S
C264 C261 1.431 . S
C264 C274 1.476 . S
H265 C259 0.933 . S
C266 O257 1.250 . S
C266 O258 1.258 . S
O267 Mn252 2.162 . S
O267 C255 1.281 . S
O268 Mn252 2.297 . S
O268 C255 1.236 . S
N269 Mn253 2.282 1_655 S
N269 C270 1.328 . S
N269 C274 1.318 . S
C270 N269 1.328 . S
C270 C271 1.457 . S
C270 H275 0.929 . S
C271 C270 1.457 . S
C271 C272 1.291 . S
C271 H284 0.931 . S
C272 C271 1.291 . S
C272 C273 1.373 . S
C272 H285 0.929 . S
C273 C272 1.373 . S
C273 C274 1.396 . S
C273 C280 1.403 . S
C274 C264 1.476 . S
C274 N269 1.318 . S
C274 C273 1.396 . S
H275 C270 0.929 . S
O276 Mn252 2.385 . S
O276 C254 1.234 . S
O277 Mn252 2.209 . S
O277 Mn253 2.215 1_655 S
O277 C254 1.283 . S
O278 Mn252 2.094 1_455 S
O278 C256 1.240 . S
O279 Mn253 2.117 . S
O279 C256 1.264 . S
C280 C273 1.403 . S
C280 C281 1.399 . S
C280 H286 0.929 . S
C281 C261 1.449 . S
C281 C280 1.399 . S
C281 H287 0.930 . S
H282 C262 0.931 . S
H283 C263 0.930 . S
H284 C271 0.931 . S
H285 C272 0.929 . S
H286 C280 0.929 . S
H287 C281 0.930 . S
Mn288 O293 2.095 . S
Mn288 O303 2.162 . S
Mn288 O304 2.297 . S
Mn288 O312 2.385 1_545 S
Mn288 O313 2.209 . S
Mn288 O314 2.094 . S
Mn289 O294 2.121 . S
Mn289 N296 2.260 . S
Mn289 N305 2.282 1_545 S
Mn289 O313 2.215 . S
Mn289 O315 2.117 . S
C290 O312 1.234 . S
C290 O313 1.283 1_565 S
C291 O303 1.281 . S
C291 O304 1.236 . S
C292 O314 1.240 . S
C292 O315 1.264 . S
O293 Mn288 2.095 . S
O293 C302 1.250 . S
O294 Mn289 2.121 . S
O294 C302 1.258 . S
C295 N296 1.341 . S
C295 C299 1.460 1_545 S
C295 H301 0.929 . S
N296 Mn289 2.260 . S
N296 C295 1.341 . S
N296 C300 1.344 1_545 S
C297 C298 1.258 . S
C297 C300 1.431 . S
C297 C317 1.449 . S
C298 C297 1.258 . S
C298 C299 1.477 . S
C298 H318 0.931 . S
C299 C295 1.460 1_565 S
C299 C298 1.477 . S
C299 H319 0.930 1_565 S
C300 N296 1.344 1_565 S
C300 C297 1.431 . S
C300 C310 1.476 . S
H301 C295 0.929 . S
C302 O293 1.250 . S
C302 O294 1.258 . S
O303 Mn288 2.162 . S
O303 C291 1.281 . S
O304 Mn288 2.297 . S
O304 C291 1.236 . S
N305 Mn289 2.282 1_565 S
N305 C306 1.328 . S
N305 C310 1.318 . S
C306 N305 1.328 . S
C306 C307 1.457 . S
C306 H311 0.929 . S
C307 C306 1.457 . S
C307 C308 1.291 . S
C307 H320 0.931 . S
C308 C307 1.291 . S
C308 C309 1.373 . S
C308 H321 0.929 . S
C309 C308 1.373 . S
C309 C310 1.396 . S
C309 C316 1.403 . S
C310 C300 1.476 . S
C310 N305 1.318 . S
C310 C309 1.396 . S
H311 C306 0.929 . S
O312 Mn288 2.385 1_565 S
O312 C290 1.234 . S
O313 Mn288 2.209 . S
O313 Mn289 2.215 . S
O313 C290 1.283 1_545 S
O314 Mn288 2.094 . S
O314 C292 1.240 . S
O315 Mn289 2.117 . S
O315 C292 1.264 . S
C316 C309 1.403 . S
C316 C317 1.399 . S
C316 H322 0.929 . S
C317 C297 1.449 . S
C317 C316 1.399 . S
C317 H323 0.930 . S
H318 C298 0.931 . S
H319 C299 0.930 1_545 S
H320 C307 0.931 . S
H321 C308 0.929 . S
H322 C316 0.929 . S
H323 C317 0.930 . S
Mn324 O329 2.095 . S
Mn324 O339 2.162 . S
Mn324 O340 2.297 . S
Mn324 O348 2.385 . S
Mn324 O349 2.209 . S
Mn324 O350 2.094 . S
Mn325 O330 2.121 . S
Mn325 N332 2.257 . S
Mn325 N341 2.282 . S
Mn325 O349 2.215 . S
Mn325 O351 2.117 . S
C326 O348 1.234 . S
C326 O349 1.283 . S
C327 O339 1.281 . S
C327 O340 1.236 . S
C328 O350 1.240 . S
C328 O351 1.264 . S
O329 Mn324 2.095 . S
O329 C338 1.250 . S
O330 Mn325 2.121 . S
O330 C338 1.258 . S
C331 N332 1.326 . S
C331 C335 1.460 . S
C331 H337 0.929 . S
N332 Mn325 2.257 . S
N332 C331 1.326 . S
N332 C336 1.362 . S
C333 C334 1.258 . S
C333 C336 1.431 . S
C333 C353 1.449 . S
C334 C333 1.258 . S
C334 C335 1.477 . S
C334 H354 0.931 . S
C335 C331 1.460 . S
C335 C334 1.477 . S
C335 H355 0.930 . S
C336 N332 1.362 . S
C336 C333 1.431 . S
C336 C346 1.476 . S
H337 C331 0.929 . S
C338 O329 1.250 . S
C338 O330 1.258 . S
O339 Mn324 2.162 . S
O339 C327 1.281 . S
O340 Mn324 2.297 . S
O340 C327 1.236 . S
N341 Mn325 2.282 . S
N341 C342 1.328 . S
N341 C346 1.318 . S
C342 N341 1.328 . S
C342 C343 1.457 . S
C342 H347 0.929 . S
C343 C342 1.457 . S
C343 C344 1.291 . S
C343 H356 0.931 . S
C344 C343 1.291 . S
C344 C345 1.373 . S
C344 H357 0.929 . S
C345 C344 1.373 . S
C345 C346 1.396 . S
C345 C352 1.403 . S
C346 C336 1.476 . S
C346 N341 1.318 . S
C346 C345 1.396 . S
H347 C342 0.929 . S
O348 Mn324 2.385 . S
O348 C326 1.234 . S
O349 Mn324 2.209 . S
O349 Mn325 2.215 . S
O349 C326 1.283 . S
O350 Mn324 2.094 . S
O350 C328 1.240 . S
O351 Mn325 2.117 . S
O351 C328 1.264 . S
C352 C345 1.403 . S
C352 C353 1.399 . S
C352 H358 0.929 . S
C353 C333 1.449 . S
C353 C352 1.399 . S
C353 H359 0.930 . S
H354 C334 0.931 . S
H355 C335 0.930 . S
H356 C343 0.931 . S
H357 C344 0.929 . S
H358 C352 0.929 . S
H359 C353 0.930 . S
Mn360 O365 2.095 . S
Mn360 O375 2.162 . S
Mn360 O376 2.297 . S
Mn360 O384 2.385 . S
Mn360 O385 2.209 . S
Mn360 O386 2.094 . S
Mn361 O366 2.121 . S
Mn361 N368 2.257 . S
Mn361 N377 2.282 . S
Mn361 O385 2.215 . S
Mn361 O387 2.117 . S
C362 O384 1.234 . S
C362 O385 1.283 . S
C363 O375 1.281 . S
C363 O376 1.236 . S
C364 O386 1.240 . S
C364 O387 1.264 . S
O365 Mn360 2.095 . S
O365 C374 1.250 . S
O366 Mn361 2.121 . S
O366 C374 1.258 . S
C367 N368 1.326 . S
C367 C371 1.460 . S
C367 H373 0.929 . S
N368 Mn361 2.257 . S
N368 C367 1.326 . S
N368 C372 1.362 . S
C369 C370 1.258 . S
C369 C372 1.431 . S
C369 C389 1.449 . S
C370 C369 1.258 . S
C370 C371 1.477 . S
C370 H390 0.931 . S
C371 C367 1.460 . S
C371 C370 1.477 . S
C371 H391 0.930 . S
C372 N368 1.362 . S
C372 C369 1.431 . S
C372 C382 1.476 . S
H373 C367 0.929 . S
C374 O365 1.250 . S
C374 O366 1.258 . S
O375 Mn360 2.162 . S
O375 C363 1.281 . S
O376 Mn360 2.297 . S
O376 C363 1.236 . S
N377 Mn361 2.282 . S
N377 C378 1.328 . S
N377 C382 1.318 . S
C378 N377 1.328 . S
C378 C379 1.457 . S
C378 H383 0.929 . S
C379 C378 1.457 . S
C379 C380 1.291 . S
C379 H392 0.931 . S
C380 C379 1.291 . S
C380 C381 1.373 . S
C380 H393 0.929 . S
C381 C380 1.373 . S
C381 C382 1.396 . S
C381 C388 1.403 . S
C382 C372 1.476 . S
C382 N377 1.318 . S
C382 C381 1.396 . S
H383 C378 0.929 . S
O384 Mn360 2.385 . S
O384 C362 1.234 . S
O385 Mn360 2.209 . S
O385 Mn361 2.215 . S
O385 C362 1.283 . S
O386 Mn360 2.094 . S
O386 C364 1.240 . S
O387 Mn361 2.117 . S
O387 C364 1.264 . S
C388 C381 1.403 . S
C388 C389 1.399 . S
C388 H394 0.929 . S
C389 C369 1.449 . S
C389 C388 1.399 . S
C389 H395 0.930 . S
H390 C370 0.931 . S
H391 C371 0.930 . S
H392 C379 0.931 . S
H393 C380 0.929 . S
H394 C388 0.929 . S
H395 C389 0.930 . S
Mn396 O401 2.095 1_554 S
Mn396 O411 2.162 . S
Mn396 O412 2.297 . S
Mn396 O420 2.385 . S
Mn396 O421 2.201 1_554 S
Mn396 O422 2.094 1_554 S
Mn397 O402 2.121 . S
Mn397 N404 2.257 1_565 S
Mn397 N413 2.282 . S
Mn397 O421 2.248 . S
Mn397 O423 2.117 . S
C398 O420 1.234 . S
C398 O421 1.278 1_554 S
C399 O411 1.281 . S
C399 O412 1.236 . S
C400 O422 1.240 . S
C400 O423 1.264 . S
O401 Mn396 2.095 1_556 S
O401 C410 1.250 . S
O402 Mn397 2.121 . S
O402 C410 1.258 . S
C403 N404 1.326 . S
C403 C407 1.460 . S
C403 H409 0.929 . S
N404 Mn397 2.257 1_545 S
N404 C403 1.326 . S
N404 C408 1.362 . S
C405 C406 1.258 . S
C405 C408 1.431 . S
C405 C425 1.449 . S
C406 C405 1.258 . S
C406 C407 1.477 . S
C406 H426 0.931 . S
C407 C403 1.460 . S
C407 C406 1.477 . S
C407 H427 0.930 . S
C408 N404 1.362 . S
C408 C405 1.431 . S
C408 C418 1.442 1_545 S
H409 C403 0.929 . S
C410 O401 1.250 . S
C410 O402 1.258 . S
O411 Mn396 2.162 . S
O411 C399 1.281 . S
O412 Mn396 2.297 . S
O412 C399 1.236 . S
N413 Mn397 2.282 . S
N413 C414 1.328 . S
N413 C418 1.353 . S
C414 N413 1.328 . S
C414 C415 1.457 . S
C414 H419 0.929 . S
C415 C414 1.457 . S
C415 C416 1.291 . S
C415 H428 0.931 . S
C416 C415 1.291 . S
C416 C417 1.373 1_565 S
C416 H429 0.929 . S
C417 C416 1.373 1_545 S
C417 C418 1.393 1_545 S
C417 C424 1.403 . S
C418 C408 1.442 1_565 S
C418 N413 1.353 . S
C418 C417 1.393 1_565 S
H419 C414 0.929 . S
O420 Mn396 2.385 . S
O420 C398 1.234 . S
O421 Mn396 2.201 1_556 S
O421 Mn397 2.248 . S
O421 C398 1.278 1_556 S
O422 Mn396 2.094 1_556 S
O422 C400 1.240 . S
O423 Mn397 2.117 . S
O423 C400 1.264 . S
C424 C417 1.403 . S
C424 C425 1.399 . S
C424 H430 0.929 . S
C425 C405 1.449 . S
C425 C424 1.399 . S
C425 H431 0.930 . S
H426 C406 0.931 . S
H427 C407 0.930 . S
H428 C415 0.931 . S
H429 C416 0.929 . S
H430 C424 0.929 . S
H431 C425 0.930 . S
Mn432 O437 2.095 . S
Mn432 O447 2.162 . S
Mn432 O448 2.297 . S
Mn432 O456 2.385 . S
Mn432 O457 2.209 . S
Mn432 O458 2.094 . S
Mn433 O438 2.137 . S
Mn433 N440 2.260 . S
Mn433 N449 2.269 1_554 S
Mn433 O457 2.239 . S
Mn433 O459 2.108 1_554 S
C434 O456 1.234 . S
C434 O457 1.283 . S
C435 O447 1.281 . S
C435 O448 1.236 . S
C436 O458 1.240 1_556 S
C436 O459 1.264 . S
O437 Mn432 2.095 . S
O437 C446 1.250 . S
O438 Mn433 2.137 . S
O438 C446 1.258 . S
C439 N440 1.326 . S
C439 C443 1.460 . S
C439 H445 0.929 . S
N440 Mn433 2.260 . S
N440 C439 1.326 . S
N440 C444 1.370 . S
C441 C442 1.258 . S
C441 C444 1.431 . S
C441 C461 1.449 1_554 S
C442 C441 1.258 . S
C442 C443 1.477 . S
C442 H462 0.931 . S
C443 C439 1.460 . S
C443 C442 1.477 . S
C443 H463 0.930 . S
C444 N440 1.370 . S
C444 C441 1.431 . S
C444 C454 1.469 1_554 S
H445 C439 0.929 . S
C446 O437 1.250 . S
C446 O438 1.258 . S
O447 Mn432 2.162 . S
O447 C435 1.281 . S
O448 Mn432 2.297 . S
O448 C435 1.236 . S
N449 Mn433 2.269 1_556 S
N449 C450 1.328 . S
N449 C454 1.318 . S
C450 N449 1.328 . S
C450 C451 1.457 . S
C450 H455 0.929 . S
C451 C450 1.457 . S
C451 C452 1.291 . S
C451 H464 0.931 . S
C452 C451 1.291 . S
C452 C453 1.373 . S
C452 H465 0.929 . S
C453 C452 1.373 . S
C453 C454 1.396 . S
C453 C460 1.403 . S
C454 C444 1.469 1_556 S
C454 N449 1.318 . S
C454 C453 1.396 . S
H455 C450 0.929 . S
O456 Mn432 2.385 . S
O456 C434 1.234 . S
O457 Mn432 2.209 . S
O457 Mn433 2.239 . S
O457 C434 1.283 . S
O458 Mn432 2.094 . S
O458 C436 1.240 1_554 S
O459 Mn433 2.108 1_556 S
O459 C436 1.264 . S
C460 C453 1.403 . S
C460 C461 1.399 . S
C460 H466 0.929 . S
C461 C441 1.449 1_556 S
C461 C460 1.399 . S
C461 H467 0.930 . S
H462 C442 0.931 . S
H463 C443 0.930 . S
H464 C451 0.931 . S
H465 C452 0.929 . S
H466 C460 0.929 . S
H467 C461 0.930 . S
Mn468 O473 2.095 . S
Mn468 O483 2.162 . S
Mn468 O484 2.297 . S
Mn468 O492 2.385 . S
Mn468 O493 2.209 . S
Mn468 O494 2.094 . S
Mn469 O474 2.121 . S
Mn469 N476 2.257 . S
Mn469 N485 2.282 . S
Mn469 O493 2.215 . S
Mn469 O495 2.117 . S
C470 O492 1.234 . S
C470 O493 1.283 . S
C471 O483 1.281 . S
C471 O484 1.236 . S
C472 O494 1.240 . S
C472 O495 1.264 . S
O473 Mn468 2.095 . S
O473 C482 1.250 . S
O474 Mn469 2.121 . S
O474 C482 1.258 . S
C475 N476 1.326 . S
C475 C479 1.460 . S
C475 H481 0.929 . S
N476 Mn469 2.257 . S
N476 C475 1.326 . S
N476 C480 1.362 . S
C477 C478 1.258 . S
C477 C480 1.431 . S
C477 C497 1.449 . S
C478 C477 1.258 . S
C478 C479 1.477 . S
C478 H498 0.931 1_545 S
C479 C475 1.460 . S
C479 C478 1.477 . S
C479 H499 0.930 . S
C480 N476 1.362 . S
C480 C477 1.431 . S
C480 C490 1.476 . S
H481 C475 0.929 . S
C482 O473 1.250 . S
C482 O474 1.258 . S
O483 Mn468 2.162 . S
O483 C471 1.281 . S
O484 Mn468 2.297 . S
O484 C471 1.236 . S
N485 Mn469 2.282 . S
N485 C486 1.328 . S
N485 C490 1.318 . S
C486 N485 1.328 . S
C486 C487 1.457 1_554 S
C486 H491 0.929 . S
C487 C486 1.457 1_556 S
C487 C488 1.291 . S
C487 H500 0.931 . S
C488 C487 1.291 . S
C488 C489 1.387 . S
C488 H501 0.929 . S
C489 C488 1.387 . S
C489 C490 1.384 1_556 S
C489 C496 1.400 . S
C490 C480 1.476 . S
C490 N485 1.318 . S
C490 C489 1.384 1_554 S
H491 C486 0.929 . S
O492 Mn468 2.385 . S
O492 C470 1.234 . S
O493 Mn468 2.209 . S
O493 Mn469 2.215 . S
O493 C470 1.283 . S
O494 Mn468 2.094 . S
O494 C472 1.240 . S
O495 Mn469 2.117 . S
O495 C472 1.264 . S
C496 C489 1.400 . S
C496 C497 1.399 1_556 S
C496 H502 0.929 . S
C497 C477 1.449 . S
C497 C496 1.399 1_554 S
C497 H503 0.910 1_545 S
H498 C478 0.931 1_565 S
H499 C479 0.930 . S
H500 C487 0.931 . S
H501 C488 0.929 . S
H502 C496 0.929 . S
H503 C497 0.910 1_565 S
Mn504 O509 2.095 . S
Mn504 O519 2.162 . S
Mn504 O520 2.297 . S
Mn504 O528 2.385 . S
Mn504 O529 2.209 . S
Mn504 O530 2.094 . S
Mn505 O510 2.121 . S
Mn505 N512 2.257 . S
Mn505 N521 2.282 . S
Mn505 O529 2.215 . S
Mn505 O531 2.117 . S
C506 O528 1.234 . S
C506 O529 1.283 . S
C507 O519 1.281 . S
C507 O520 1.236 . S
C508 O530 1.240 . S
C508 O531 1.264 . S
O509 Mn504 2.095 . S
O509 C518 1.250 . S
O510 Mn505 2.121 . S
O510 C518 1.258 . S
C511 N512 1.326 . S
C511 C515 1.460 . S
C511 H517 0.929 . S
N512 Mn505 2.257 . S
N512 C511 1.326 . S
N512 C516 1.362 . S
C513 C514 1.258 . S
C513 C516 1.431 . S
C513 C533 1.449 . S
C514 C513 1.258 . S
C514 C515 1.477 . S
C514 H534 0.931 . S
C515 C511 1.460 . S
C515 C514 1.477 . S
C515 H535 0.930 . S
C516 N512 1.362 . S
C516 C513 1.431 . S
C516 C526 1.476 . S
H517 C511 0.929 . S
C518 O509 1.250 . S
C518 O510 1.258 . S
O519 Mn504 2.162 . S
O519 C507 1.281 . S
O520 Mn504 2.297 . S
O520 C507 1.236 . S
N521 Mn505 2.282 . S
N521 C522 1.328 . S
N521 C526 1.318 . S
C522 N521 1.328 . S
C522 C523 1.457 . S
C522 H527 0.929 . S
C523 C522 1.457 . S
C523 C524 1.291 . S
C523 H536 0.931 . S
C524 C523 1.291 . S
C524 C525 1.373 . S
C524 H537 0.929 . S
C525 C524 1.373 . S
C525 C526 1.396 . S
C525 C532 1.403 . S
C526 C516 1.476 . S
C526 N521 1.318 . S
C526 C525 1.396 . S
H527 C522 0.929 . S
O528 Mn504 2.385 . S
O528 C506 1.234 . S
O529 Mn504 2.209 . S
O529 Mn505 2.215 . S
O529 C506 1.283 . S
O530 Mn504 2.094 . S
O530 C508 1.240 . S
O531 Mn505 2.117 . S
O531 C508 1.264 . S
C532 C525 1.403 . S
C532 C533 1.399 . S
C532 H538 0.929 . S
C533 C513 1.449 . S
C533 C532 1.399 . S
C533 H539 0.930 . S
H534 C514 0.931 . S
H535 C515 0.930 . S
H536 C523 0.931 . S
H537 C524 0.929 . S
H538 C532 0.929 . S
H539 C533 0.930 . S
Mn540 O545 2.095 . S
Mn540 O555 2.162 . S
Mn540 O556 2.297 . S
Mn540 O564 2.385 . S
Mn540 O565 2.209 . S
Mn540 O566 2.094 . S
Mn541 O546 2.121 . S
Mn541 N548 2.257 . S
Mn541 N557 2.282 . S
Mn541 O565 2.215 . S
Mn541 O567 2.117 . S
C542 O564 1.234 . S
C542 O565 1.283 . S
C543 O555 1.281 . S
C543 O556 1.236 . S
C544 O566 1.240 . S
C544 O567 1.264 . S
O545 Mn540 2.095 . S
O545 C554 1.250 . S
O546 Mn541 2.121 . S
O546 C554 1.258 . S
C547 N548 1.326 . S
C547 C551 1.460 . S
C547 H553 0.929 . S
N548 Mn541 2.257 . S
N548 C547 1.326 . S
N548 C552 1.362 . S
C549 C550 1.258 . S
C549 C552 1.431 . S
C549 C569 1.449 . S
C550 C549 1.258 . S
C550 C551 1.477 . S
C550 H570 0.931 1_565 S
C551 C547 1.460 . S
C551 C550 1.477 . S
C551 H571 0.928 1_565 S
C552 N548 1.362 . S
C552 C549 1.431 . S
C552 C562 1.476 . S
H553 C547 0.929 . S
C554 O545 1.250 . S
C554 O546 1.258 . S
O555 Mn540 2.162 . S
O555 C543 1.281 . S
O556 Mn540 2.297 . S
O556 C543 1.236 . S
N557 Mn541 2.282 . S
N557 C558 1.328 . S
N557 C562 1.318 . S
C558 N557 1.328 . S
C558 C559 1.457 . S
C558 H563 0.929 . S
C559 C558 1.457 . S
C559 C560 1.291 . S
C559 H572 0.931 . S
C560 C559 1.291 . S
C560 C561 1.373 . S
C560 H573 0.929 . S
C561 C560 1.373 . S
C561 C562 1.396 . S
C561 C568 1.403 . S
C562 C552 1.476 . S
C562 N557 1.318 . S
C562 C561 1.396 . S
H563 C558 0.929 . S
O564 Mn540 2.385 . S
O564 C542 1.234 . S
O565 Mn540 2.209 . S
O565 Mn541 2.215 . S
O565 C542 1.283 . S
O566 Mn540 2.094 . S
O566 C544 1.240 . S
O567 Mn541 2.117 . S
O567 C544 1.264 . S
C568 C561 1.403 . S
C568 C569 1.399 . S
C568 H574 0.929 . S
C569 C549 1.449 . S
C569 C568 1.399 . S
C569 H575 0.930 1_565 S
H570 C550 0.931 1_545 S
H571 C551 0.928 1_545 S
H572 C559 0.931 . S
H573 C560 0.929 . S
H574 C568 0.929 . S
H575 C569 0.930 1_545 S
Mn576 O581 2.095 . S
Mn576 O591 2.162 . S
Mn576 O592 2.297 . S
Mn576 O600 2.385 1_545 S
Mn576 O601 2.209 1_545 S
Mn576 O602 2.094 . S
Mn577 O582 2.121 1_565 S
Mn577 N584 2.257 . S
Mn577 N593 2.282 . S
Mn577 O601 2.215 . S
Mn577 O603 2.117 1_565 S
C578 O600 1.234 . S
C578 O601 1.283 . S
C579 O591 1.281 . S
C579 O592 1.236 . S
C580 O602 1.240 . S
C580 O603 1.264 . S
O581 Mn576 2.095 . S
O581 C590 1.250 . S
O582 Mn577 2.121 1_545 S
O582 C590 1.258 . S
C583 N584 1.326 . S
C583 C587 1.460 . S
C583 H589 0.929 1_565 S
N584 Mn577 2.257 . S
N584 C583 1.326 . S
N584 C588 1.362 . S
C585 C586 1.258 . S
C585 C588 1.431 . S
C585 C605 1.449 . S
C586 C585 1.258 . S
C586 C587 1.477 . S
C586 H606 0.931 . S
C587 C583 1.460 . S
C587 C586 1.477 . S
C587 H607 0.930 . S
C588 N584 1.362 . S
C588 C585 1.431 . S
C588 C598 1.476 . S
H589 C583 0.929 1_545 S
C590 O581 1.250 . S
C590 O582 1.258 . S
O591 Mn576 2.162 . S
O591 C579 1.281 . S
O592 Mn576 2.297 . S
O592 C579 1.236 . S
N593 Mn577 2.282 . S
N593 C594 1.328 . S
N593 C598 1.318 . S
C594 N593 1.328 . S
C594 C595 1.457 . S
C594 H599 0.929 . S
C595 C594 1.457 . S
C595 C596 1.291 . S
C595 H608 0.931 . S
C596 C595 1.291 . S
C596 C597 1.373 . S
C596 H609 0.929 . S
C597 C596 1.373 . S
C597 C598 1.396 . S
C597 C604 1.403 . S
C598 C588 1.476 . S
C598 N593 1.318 . S
C598 C597 1.396 . S
H599 C594 0.929 . S
O600 Mn576 2.385 1_565 S
O600 C578 1.234 . S
O601 Mn576 2.209 1_565 S
O601 Mn577 2.215 . S
O601 C578 1.283 . S
O602 Mn576 2.094 . S
O602 C580 1.240 . S
O603 Mn577 2.117 1_545 S
O603 C580 1.264 . S
C604 C597 1.403 . S
C604 C605 1.399 . S
C604 H610 0.929 . S
C605 C585 1.449 . S
C605 C604 1.399 . S
C605 H611 0.930 . S
H606 C586 0.931 . S
H607 C587 0.930 . S
H608 C595 0.931 . S
H609 C596 0.929 . S
H610 C604 0.929 . S
H611 C605 0.930 . S
Mn612 O617 2.095 . S
Mn612 O627 2.162 . S
Mn612 O628 2.297 . S
Mn612 O636 2.385 . S
Mn612 O637 2.209 . S
Mn612 O638 2.094 . S
Mn613 O618 2.121 . S
Mn613 N620 2.257 . S
Mn613 N629 2.282 . S
Mn613 O637 2.215 . S
Mn613 O639 2.117 . S
C614 O636 1.234 . S
C614 O637 1.283 . S
C615 O627 1.281 . S
C615 O628 1.236 . S
C616 O638 1.240 . S
C616 O639 1.264 . S
O617 Mn612 2.095 . S
O617 C626 1.250 . S
O618 Mn613 2.121 . S
O618 C626 1.258 . S
C619 N620 1.326 . S
C619 C623 1.460 . S
C619 H625 0.929 . S
N620 Mn613 2.257 . S
N620 C619 1.326 . S
N620 C624 1.362 . S
C621 C622 1.258 . S
C621 C624 1.431 . S
C621 C641 1.449 . S
C622 C621 1.258 . S
C622 C623 1.477 . S
C622 H642 0.931 . S
C623 C619 1.460 . S
C623 C622 1.477 . S
C623 H643 0.930 . S
C624 N620 1.362 . S
C624 C621 1.431 . S
C624 C634 1.476 . S
H625 C619 0.929 . S
C626 O617 1.250 . S
C626 O618 1.258 . S
O627 Mn612 2.162 . S
O627 C615 1.281 . S
O628 Mn612 2.297 . S
O628 C615 1.236 . S
N629 Mn613 2.282 . S
N629 C630 1.328 . S
N629 C634 1.318 . S
C630 N629 1.328 . S
C630 C631 1.457 . S
C630 H635 0.929 . S
C631 C630 1.457 . S
C631 C632 1.291 . S
C631 H644 0.931 . S
C632 C631 1.291 . S
C632 C633 1.373 . S
C632 H645 0.929 . S
C633 C632 1.373 . S
C633 C634 1.396 . S
C633 C640 1.403 . S
C634 C624 1.476 . S
C634 N629 1.318 . S
C634 C633 1.396 . S
H635 C630 0.929 . S
O636 Mn612 2.385 . S
O636 C614 1.234 . S
O637 Mn612 2.209 . S
O637 Mn613 2.215 . S
O637 C614 1.283 . S
O638 Mn612 2.094 . S
O638 C616 1.240 . S
O639 Mn613 2.117 . S
O639 C616 1.264 . S
C640 C633 1.403 . S
C640 C641 1.399 . S
C640 H646 0.929 . S
C641 C621 1.449 . S
C641 C640 1.399 . S
C641 H647 0.930 . S
H642 C622 0.931 . S
H643 C623 0.930 . S
H644 C631 0.931 . S
H645 C632 0.929 . S
H646 C640 0.929 . S
H647 C641 0.930 . S
Mn648 O653 2.095 . S
Mn648 O663 2.162 . S
Mn648 O664 2.297 . S
Mn648 O672 2.385 . S
Mn648 O673 2.209 . S
Mn648 O674 2.094 . S
Mn649 O654 2.121 . S
Mn649 N656 2.257 . S
Mn649 N665 2.282 . S
Mn649 O673 2.215 . S
Mn649 O675 2.117 . S
C650 O672 1.234 . S
C650 O673 1.283 . S
C651 O663 1.281 . S
C651 O664 1.236 . S
C652 O674 1.240 . S
C652 O675 1.264 . S
O653 Mn648 2.095 . S
O653 C662 1.250 . S
O654 Mn649 2.121 . S
O654 C662 1.258 . S
C655 N656 1.326 . S
C655 C659 1.460 . S
C655 H661 0.929 . S
N656 Mn649 2.257 . S
N656 C655 1.326 . S
N656 C660 1.362 . S
C657 C658 1.258 . S
C657 C660 1.431 . S
C657 C677 1.449 . S
C658 C657 1.258 . S
C658 C659 1.477 . S
C658 H678 0.931 . S
C659 C655 1.460 . S
C659 C658 1.477 . S
C659 H679 0.930 . S
C660 N656 1.362 . S
C660 C657 1.431 . S
C660 C670 1.476 . S
H661 C655 0.929 . S
C662 O653 1.250 . S
C662 O654 1.258 . S
O663 Mn648 2.162 . S
O663 C651 1.281 . S
O664 Mn648 2.297 . S
O664 C651 1.236 . S
N665 Mn649 2.282 . S
N665 C666 1.328 . S
N665 C670 1.318 . S
C666 N665 1.328 . S
C666 C667 1.457 . S
C666 H671 0.929 . S
C667 C666 1.457 . S
C667 C668 1.291 . S
C667 H680 0.931 . S
C668 C667 1.291 . S
C668 C669 1.373 . S
C668 H681 0.929 . S
C669 C668 1.373 . S
C669 C670 1.396 . S
C669 C676 1.403 . S
C670 C660 1.476 . S
C670 N665 1.318 . S
C670 C669 1.396 . S
H671 C666 0.929 . S
O672 Mn648 2.385 . S
O672 C650 1.234 . S
O673 Mn648 2.209 . S
O673 Mn649 2.215 . S
O673 C650 1.283 . S
O674 Mn648 2.094 . S
O674 C652 1.240 . S
O675 Mn649 2.117 . S
O675 C652 1.264 . S
C676 C669 1.403 . S
C676 C677 1.399 . S
C676 H682 0.929 . S
C677 C657 1.449 . S
C677 C676 1.399 . S
C677 H683 0.930 . S
H678 C658 0.931 . S
H679 C659 0.930 . S
H680 C667 0.931 . S
H681 C668 0.929 . S
H682 C676 0.929 . S
H683 C677 0.930 . S
Mn684 O689 2.095 . S
Mn684 O699 2.162 . S
Mn684 O700 2.297 . S
Mn684 O708 2.385 . S
Mn684 O709 2.209 . S
Mn684 O710 2.094 . S
Mn685 O690 2.121 . S
Mn685 N692 2.257 . S
Mn685 N701 2.282 . S
Mn685 O709 2.215 . S
Mn685 O711 2.117 . S
C686 O708 1.234 . S
C686 O709 1.283 . S
C687 O699 1.281 . S
C687 O700 1.236 . S
C688 O710 1.240 . S
C688 O711 1.264 . S
O689 Mn684 2.095 . S
O689 C698 1.250 . S
O690 Mn685 2.121 . S
O690 C698 1.258 . S
C691 N692 1.326 . S
C691 C695 1.460 . S
C691 H697 0.929 . S
N692 Mn685 2.257 . S
N692 C691 1.326 . S
N692 C696 1.362 . S
C693 C694 1.258 . S
C693 C696 1.431 . S
C693 C713 1.449 . S
C694 C693 1.258 . S
C694 C695 1.477 . S
C694 H714 0.931 . S
C695 C691 1.460 . S
C695 C694 1.477 . S
C695 H715 0.930 . S
C696 N692 1.362 . S
C696 C693 1.431 . S
C696 C706 1.476 . S
H697 C691 0.929 . S
C698 O689 1.250 . S
C698 O690 1.258 . S
O699 Mn684 2.162 . S
O699 C687 1.281 . S
O700 Mn684 2.297 . S
O700 C687 1.236 . S
N701 Mn685 2.282 . S
N701 C702 1.328 . S
N701 C706 1.318 . S
C702 N701 1.328 . S
C702 C703 1.457 . S
C702 H707 0.929 . S
C703 C702 1.457 . S
C703 C704 1.291 . S
C703 H716 0.931 . S
C704 C703 1.291 . S
C704 C705 1.373 . S
C704 H717 0.929 . S
C705 C704 1.373 . S
C705 C706 1.396 . S
C705 C712 1.403 . S
C706 C696 1.476 . S
C706 N701 1.318 . S
C706 C705 1.396 . S
H707 C702 0.929 . S
O708 Mn684 2.385 . S
O708 C686 1.234 . S
O709 Mn684 2.209 . S
O709 Mn685 2.215 . S
O709 C686 1.283 . S
O710 Mn684 2.094 . S
O710 C688 1.240 . S
O711 Mn685 2.117 . S
O711 C688 1.264 . S
C712 C705 1.403 . S
C712 C713 1.399 . S
C712 H718 0.929 . S
C713 C693 1.449 . S
C713 C712 1.399 . S
C713 H719 0.930 . S
H714 C694 0.931 . S
H715 C695 0.930 . S
H716 C703 0.931 . S
H717 C704 0.929 . S
H718 C712 0.929 . S
H719 C713 0.930 . S
Mn720 O725 2.095 . S
Mn720 O735 2.162 . S
Mn720 O736 2.297 . S
Mn720 O744 2.385 . S
Mn720 O745 2.209 . S
Mn720 O746 2.094 . S
Mn721 O726 2.121 1_556 S
Mn721 N728 2.257 . S
Mn721 N737 2.282 . S
Mn721 O745 2.215 1_556 S
Mn721 O747 2.117 . S
C722 O744 1.234 . S
C722 O745 1.283 . S
C723 O735 1.281 . S
C723 O736 1.236 . S
C724 O746 1.240 1_556 S
C724 O747 1.264 . S
O725 Mn720 2.095 . S
O725 C734 1.250 . S
O726 Mn721 2.121 1_554 S
O726 C734 1.258 . S
C727 N728 1.326 1_554 S
C727 C731 1.460 . S
C727 H733 0.929 . S
N728 Mn721 2.257 . S
N728 C727 1.326 1_556 S
N728 C732 1.362 . S
C729 C730 1.258 . S
C729 C732 1.431 . S
C729 C749 1.449 . S
C730 C729 1.258 . S
C730 C731 1.477 1_556 S
C730 H750 0.931 . S
C731 C727 1.460 . S
C731 C730 1.477 1_554 S
C731 H751 0.930 . S
C732 N728 1.362 . S
C732 C729 1.431 . S
C732 C742 1.476 . S
H733 C727 0.929 . S
C734 O725 1.250 . S
C734 O726 1.258 . S
O735 Mn720 2.162 . S
O735 C723 1.281 . S
O736 Mn720 2.297 . S
O736 C723 1.236 . S
N737 Mn721 2.282 . S
N737 C738 1.328 . S
N737 C742 1.318 . S
C738 N737 1.328 . S
C738 C739 1.457 . S
C738 H743 0.929 . S
C739 C738 1.457 . S
C739 C740 1.291 . S
C739 H752 0.931 . S
C740 C739 1.291 . S
C740 C741 1.373 . S
C740 H753 0.929 . S
C741 C740 1.373 . S
C741 C742 1.396 . S
C741 C748 1.403 . S
C742 C732 1.476 . S
C742 N737 1.318 . S
C742 C741 1.396 . S
H743 C738 0.929 . S
O744 Mn720 2.385 . S
O744 C722 1.234 . S
O745 Mn720 2.209 . S
O745 Mn721 2.215 1_554 S
O745 C722 1.283 . S
O746 Mn720 2.094 . S
O746 C724 1.240 1_554 S
O747 Mn721 2.117 . S
O747 C724 1.264 . S
C748 C741 1.403 . S
C748 C749 1.399 . S
C748 H754 0.929 . S
C749 C729 1.449 . S
C749 C748 1.399 . S
C749 H755 0.930 . S
H750 C730 0.931 . S
H751 C731 0.930 . S
H752 C739 0.931 . S
H753 C740 0.929 . S
H754 C748 0.929 . S
H755 C749 0.930 . S
Mn756 O761 2.095 . S
Mn756 O771 2.162 . S
Mn756 O772 2.297 . S
Mn756 O780 2.385 . S
Mn756 O781 2.209 . S
Mn756 O782 2.094 . S
Mn757 O762 2.121 . S
Mn757 N764 2.257 . S
Mn757 N773 2.282 . S
Mn757 O781 2.215 . S
Mn757 O783 2.117 . S
C758 O780 1.234 . S
C758 O781 1.283 . S
C759 O771 1.281 . S
C759 O772 1.236 . S
C760 O782 1.240 . S
C760 O783 1.264 . S
O761 Mn756 2.095 . S
O761 C770 1.250 . S
O762 Mn757 2.121 . S
O762 C770 1.258 . S
C763 N764 1.326 . S
C763 C767 1.460 . S
C763 H769 0.929 . S
N764 Mn757 2.257 . S
N764 C763 1.326 . S
N764 C768 1.362 . S
C765 C766 1.258 . S
C765 C768 1.431 . S
C765 C785 1.449 . S
C766 C765 1.258 . S
C766 C767 1.477 . S
C766 H786 0.931 . S
C767 C763 1.460 . S
C767 C766 1.477 . S
C767 H787 0.930 . S
C768 N764 1.362 . S
C768 C765 1.431 . S
C768 C778 1.476 . S
H769 C763 0.929 . S
C770 O761 1.250 . S
C770 O762 1.258 . S
O771 Mn756 2.162 . S
O771 C759 1.281 . S
O772 Mn756 2.297 . S
O772 C759 1.236 . S
N773 Mn757 2.282 . S
N773 C774 1.328 . S
N773 C778 1.318 . S
C774 N773 1.328 . S
C774 C775 1.457 . S
C774 H779 0.929 . S
C775 C774 1.457 . S
C775 C776 1.291 . S
C775 H788 0.931 . S
C776 C775 1.291 . S
C776 C777 1.373 . S
C776 H789 0.929 . S
C777 C776 1.373 . S
C777 C778 1.396 . S
C777 C784 1.403 . S
C778 C768 1.476 . S
C778 N773 1.318 . S
C778 C777 1.396 . S
H779 C774 0.929 . S
O780 Mn756 2.385 . S
O780 C758 1.234 . S
O781 Mn756 2.209 . S
O781 Mn757 2.215 . S
O781 C758 1.283 . S
O782 Mn756 2.094 . S
O782 C760 1.240 . S
O783 Mn757 2.117 . S
O783 C760 1.264 . S
C784 C777 1.403 . S
C784 C785 1.399 . S
C784 H790 0.929 . S
C785 C765 1.449 . S
C785 C784 1.399 . S
C785 H791 0.930 . S
H786 C766 0.931 . S
H787 C767 0.930 . S
H788 C775 0.931 . S
H789 C776 0.929 . S
H790 C784 0.929 . S
H791 C785 0.930 . S
Mn792 O797 2.095 . S
Mn792 O807 2.162 . S
Mn792 O808 2.297 . S
Mn792 O816 2.385 . S
Mn792 O817 2.209 . S
Mn792 O818 2.094 . S
Mn793 O798 2.121 . S
Mn793 N800 2.257 . S
Mn793 N809 2.282 . S
Mn793 O817 2.215 . S
Mn793 O819 2.117 . S
C794 O816 1.234 . S
C794 O817 1.283 . S
C795 O807 1.281 . S
C795 O808 1.236 . S
C796 O818 1.240 . S
C796 O819 1.264 . S
O797 Mn792 2.095 . S
O797 C806 1.250 . S
O798 Mn793 2.121 . S
O798 C806 1.258 . S
C799 N800 1.326 . S
C799 C803 1.460 . S
C799 H805 0.929 . S
N800 Mn793 2.257 . S
N800 C799 1.326 . S
N800 C804 1.362 . S
C801 C802 1.258 . S
C801 C804 1.431 . S
C801 C821 1.449 . S
C802 C801 1.258 . S
C802 C803 1.477 . S
C802 H822 0.931 . S
C803 C799 1.460 . S
C803 C802 1.477 . S
C803 H823 0.930 . S
C804 N800 1.362 . S
C804 C801 1.431 . S
C804 C814 1.476 . S
H805 C799 0.929 . S
C806 O797 1.250 . S
C806 O798 1.258 . S
O807 Mn792 2.162 . S
O807 C795 1.281 . S
O808 Mn792 2.297 . S
O808 C795 1.236 . S
N809 Mn793 2.282 . S
N809 C810 1.328 . S
N809 C814 1.318 . S
C810 N809 1.328 . S
C810 C811 1.457 . S
C810 H815 0.929 . S
C811 C810 1.457 . S
C811 C812 1.291 . S
C811 H824 0.931 . S
C812 C811 1.291 . S
C812 C813 1.373 . S
C812 H825 0.929 . S
C813 C812 1.373 . S
C813 C814 1.396 . S
C813 C820 1.403 . S
C814 C804 1.476 . S
C814 N809 1.318 . S
C814 C813 1.396 . S
H815 C810 0.929 . S
O816 Mn792 2.385 . S
O816 C794 1.234 . S
O817 Mn792 2.209 . S
O817 Mn793 2.215 . S
O817 C794 1.283 . S
O818 Mn792 2.094 . S
O818 C796 1.240 . S
O819 Mn793 2.117 . S
O819 C796 1.264 . S
C820 C813 1.403 . S
C820 C821 1.399 . S
C820 H826 0.929 . S
C821 C801 1.449 . S
C821 C820 1.399 . S
C821 H827 0.930 . S
H822 C802 0.931 . S
H823 C803 0.930 . S
H824 C811 0.931 . S
H825 C812 0.929 . S
H826 C820 0.929 . S
H827 C821 0.930 . S
Mn828 O833 2.095 . S
Mn828 O843 2.162 . S
Mn828 O844 2.297 . S
Mn828 O852 2.385 . S
Mn828 O853 2.209 . S
Mn828 O854 2.094 . S
Mn829 O834 2.121 . S
Mn829 N836 2.257 . S
Mn829 N845 2.282 . S
Mn829 O853 2.215 . S
Mn829 O855 2.117 . S
C830 O852 1.234 . S
C830 O853 1.283 . S
C831 O843 1.281 . S
C831 O844 1.236 . S
C832 O854 1.240 . S
C832 O855 1.264 . S
O833 Mn828 2.095 . S
O833 C842 1.250 . S
O834 Mn829 2.121 . S
O834 C842 1.258 . S
C835 N836 1.326 . S
C835 C839 1.460 . S
C835 H841 0.929 . S
N836 Mn829 2.257 . S
N836 C835 1.326 . S
N836 C840 1.362 . S
C837 C838 1.258 . S
C837 C840 1.431 . S
C837 C857 1.449 . S
C838 C837 1.258 . S
C838 C839 1.477 . S
C838 H858 0.931 . S
C839 C835 1.460 . S
C839 C838 1.477 . S
C839 H859 0.930 . S
C840 N836 1.362 . S
C840 C837 1.431 . S
C840 C850 1.476 . S
H841 C835 0.929 . S
C842 O833 1.250 . S
C842 O834 1.258 . S
O843 Mn828 2.162 . S
O843 C831 1.281 . S
O844 Mn828 2.297 . S
O844 C831 1.236 . S
N845 Mn829 2.282 . S
N845 C846 1.328 . S
N845 C850 1.318 . S
C846 N845 1.328 . S
C846 C847 1.457 . S
C846 H851 0.929 . S
C847 C846 1.457 . S
C847 C848 1.291 . S
C847 H860 0.931 . S
C848 C847 1.291 . S
C848 C849 1.373 . S
C848 H861 0.929 . S
C849 C848 1.373 . S
C849 C850 1.396 . S
C849 C856 1.403 . S
C850 C840 1.476 . S
C850 N845 1.318 . S
C850 C849 1.396 . S
H851 C846 0.929 . S
O852 Mn828 2.385 . S
O852 C830 1.234 . S
O853 Mn828 2.209 . S
O853 Mn829 2.215 . S
O853 C830 1.283 . S
O854 Mn828 2.094 . S
O854 C832 1.240 . S
O855 Mn829 2.117 . S
O855 C832 1.264 . S
C856 C849 1.403 . S
C856 C857 1.399 . S
C856 H862 0.929 . S
C857 C837 1.449 . S
C857 C856 1.399 . S
C857 H863 0.930 . S
H858 C838 0.931 . S
H859 C839 0.930 . S
H860 C847 0.931 . S
H861 C848 0.929 . S
H862 C856 0.929 . S
H863 C857 0.930 . S
Tb864 C873 2.764 . S
Tb864 O874 2.283 1_545 S
Tb864 O877 2.303 . S
Tb864 O881 2.322 . S
Tb864 O882 2.349 . S
Tb864 O885 2.415 . S
Tb864 O886 2.399 . S
Tb865 O875 2.322 1_545 S
Tb865 O876 2.349 1_554 S
Tb865 O878 2.415 1_455 S
Tb865 O879 2.399 1_454 S
Tb865 O880 2.325 . S
Tb865 O883 2.303 . S
Tb865 C894 2.764 1_455 S
C866 O882 1.261 . S
C866 O883 1.257 . S
C867 C870 1.358 . S
C867 C871 1.332 . S
C867 C873 1.504 . S
C868 C869 1.373 . S
C868 C872 1.308 . S
C869 C868 1.373 . S
C869 C870 1.429 . S
C869 H896 0.932 . S
C870 C867 1.358 . S
C870 C869 1.429 . S
C870 H897 0.930 . S
C871 C867 1.332 . S
C871 C872 1.394 . S
C871 H898 0.932 . S
C872 C868 1.308 . S
C872 C871 1.394 . S
C872 H899 0.929 1_545 S
C873 Tb864 2.764 . S
C873 C867 1.504 . S
C873 O885 1.239 . S
C873 O886 1.263 . S
O874 Tb864 2.283 1_565 S
O874 C884 1.261 . S
O875 Tb865 2.322 1_565 S
O875 C884 1.257 . S
O876 Tb865 2.349 1_556 S
O876 C887 1.261 . S
O877 Tb864 2.303 . S
O877 C887 1.257 1_554 S
O878 Tb865 2.415 1_655 S
O878 C894 1.239 . S
O879 Tb865 2.399 1_656 S
O879 C894 1.263 1_556 S
O880 Tb865 2.325 . S
O880 C895 1.236 . S
O881 Tb864 2.322 . S
O881 C895 1.257 . S
O882 Tb864 2.349 . S
O882 C866 1.261 . S
O883 Tb865 2.303 . S
O883 C866 1.257 . S
C884 O874 1.261 . S
C884 O875 1.257 . S
O885 Tb864 2.415 . S
O885 C873 1.239 . S
O886 Tb864 2.399 . S
O886 C873 1.263 . S
C887 O876 1.261 . S
C887 O877 1.257 1_556 S
C888 C891 1.358 1_554 S
C888 C892 1.332 . S
C888 C894 1.504 . S
C889 C890 1.373 . S
C889 C893 1.308 1_556 S
C890 C889 1.373 . S
C890 C891 1.429 . S
C890 H900 0.932 . S
C891 C888 1.358 1_556 S
C891 C890 1.429 . S
C891 H901 0.930 . S
C892 C888 1.332 . S
C892 C893 1.394 . S
C892 H902 0.932 . S
C893 C889 1.308 1_554 S
C893 C892 1.394 . S
C893 H903 0.929 . S
C894 Tb865 2.764 1_655 S
C894 O878 1.239 . S
C894 O879 1.263 1_554 S
C894 C888 1.504 . S
C895 O880 1.236 . S
C895 O881 1.257 . S
H896 C869 0.932 . S
H897 C870 0.930 . S
H898 C871 0.932 . S
H899 C872 0.929 1_565 S
H900 C890 0.932 . S
H901 C891 0.930 . S
H902 C892 0.932 . S
H903 C893 0.929 . S
Tb904 C913 2.764 . S
Tb904 O914 2.325 . S
Tb904 O917 2.303 . S
Tb904 O921 2.322 . S
Tb904 O922 2.349 . S
Tb904 O925 2.415 . S
Tb904 O926 2.399 . S
Tb905 O915 2.322 . S
Tb905 O916 2.349 . S
Tb905 O918 2.415 . S
Tb905 O919 2.399 . S
Tb905 O920 2.325 . S
Tb905 O923 2.303 . S
Tb905 C934 2.764 . S
C906 O922 1.261 . S
C906 O923 1.257 . S
C907 C910 1.358 . S
C907 C911 1.332 . S
C907 C913 1.504 . S
C908 C909 1.373 . S
C908 C912 1.308 . S
C909 C908 1.373 . S
C909 C910 1.429 . S
C909 H936 0.932 . S
C910 C907 1.358 . S
C910 C909 1.429 . S
C910 H937 0.930 . S
C911 C907 1.332 . S
C911 C912 1.394 . S
C911 H938 0.932 . S
C912 C908 1.308 . S
C912 C911 1.394 . S
C912 H939 0.929 . S
C913 Tb904 2.764 . S
C913 C907 1.504 . S
C913 O925 1.239 . S
C913 O926 1.263 . S
O914 Tb904 2.325 . S
O914 C924 1.236 . S
O915 Tb905 2.322 . S
O915 C924 1.257 . S
O916 Tb905 2.349 . S
O916 C927 1.261 . S
O917 Tb904 2.303 . S
O917 C927 1.257 . S
O918 Tb905 2.415 . S
O918 C934 1.239 . S
O919 Tb905 2.399 . S
O919 C934 1.263 . S
O920 Tb905 2.325 . S
O920 C935 1.236 . S
O921 Tb904 2.322 . S
O921 C935 1.257 . S
O922 Tb904 2.349 . S
O922 C906 1.261 . S
O923 Tb905 2.303 . S
O923 C906 1.257 . S
C924 O914 1.236 . S
C924 O915 1.257 . S
O925 Tb904 2.415 . S
O925 C913 1.239 . S
O926 Tb904 2.399 . S
O926 C913 1.263 . S
C927 O916 1.261 . S
C927 O917 1.257 . S
C928 C931 1.358 . S
C928 C932 1.332 . S
C928 C934 1.504 . S
C929 C930 1.373 . S
C929 C933 1.308 . S
C930 C929 1.373 . S
C930 C931 1.429 . S
C930 H940 0.932 . S
C931 C928 1.358 . S
C931 C930 1.429 . S
C931 H941 0.930 . S
C932 C928 1.332 . S
C932 C933 1.394 . S
C932 H942 0.932 . S
C933 C929 1.308 . S
C933 C932 1.394 . S
C933 H943 0.929 . S
C934 Tb905 2.764 . S
C934 O918 1.239 . S
C934 O919 1.263 . S
C934 C928 1.504 . S
C935 O920 1.236 . S
C935 O921 1.257 . S
H936 C909 0.932 . S
H937 C910 0.930 . S
H938 C911 0.932 . S
H939 C912 0.929 . S
H940 C930 0.932 . S
H941 C931 0.930 . S
H942 C932 0.932 . S
H943 C933 0.929 . S
Tb944 C953 2.764 . S
Tb944 O954 2.325 . S
Tb944 O957 2.303 . S
Tb944 O961 2.322 1_545 S
Tb944 O962 2.349 . S
Tb944 O965 2.415 . S
Tb944 O966 2.399 . S
Tb945 O955 2.322 . S
Tb945 O956 2.349 . S
Tb945 O958 2.415 . S
Tb945 O959 2.399 . S
Tb945 O960 2.325 . S
Tb945 O963 2.303 . S
Tb945 C974 2.764 . S
C946 O962 1.261 . S
C946 O963 1.257 . S
C947 C950 1.358 . S
C947 C951 1.332 . S
C947 C953 1.504 . S
C948 C949 1.373 . S
C948 C952 1.308 . S
C949 C948 1.373 . S
C949 C950 1.429 . S
C949 H976 0.932 . S
C950 C947 1.358 . S
C950 C949 1.429 . S
C950 H977 0.930 . S
C951 C947 1.332 . S
C951 C952 1.394 . S
C951 H978 0.932 . S
C952 C948 1.308 . S
C952 C951 1.394 . S
C952 H979 0.929 . S
C953 Tb944 2.764 . S
C953 C947 1.504 . S
C953 O965 1.239 . S
C953 O966 1.263 . S
O954 Tb944 2.325 . S
O954 C964 1.236 . S
O955 Tb945 2.322 . S
O955 C964 1.257 . S
O956 Tb945 2.349 . S
O956 C967 1.261 . S
O957 Tb944 2.303 . S
O957 C967 1.257 . S
O958 Tb945 2.415 . S
O958 C974 1.239 . S
O959 Tb945 2.399 . S
O959 C974 1.263 . S
O960 Tb945 2.325 . S
O960 C975 1.236 1_545 S
O961 Tb944 2.322 1_565 S
O961 C975 1.257 . S
O962 Tb944 2.349 . S
O962 C946 1.261 . S
O963 Tb945 2.303 . S
O963 C946 1.257 . S
C964 O954 1.236 . S
C964 O955 1.257 . S
O965 Tb944 2.415 . S
O965 C953 1.239 . S
O966 Tb944 2.399 . S
O966 C953 1.263 . S
C967 O956 1.261 . S
C967 O957 1.257 . S
C968 C971 1.358 . S
C968 C972 1.332 1_545 S
C968 C974 1.504 . S
C969 C970 1.373 . S
C969 C973 1.308 . S
C970 C969 1.373 . S
C970 C971 1.429 1_565 S
C970 H980 0.931 1_565 S
C971 C968 1.358 . S
C971 C970 1.429 1_545 S
C971 H981 0.930 . S
C972 C968 1.332 1_565 S
C972 C973 1.394 . S
C972 H982 0.932 . S
C973 C969 1.308 . S
C973 C972 1.394 . S
C973 H983 0.929 . S
C974 Tb945 2.764 . S
C974 O958 1.239 . S
C974 O959 1.263 . S
C974 C968 1.504 . S
C975 O960 1.236 1_565 S
C975 O961 1.257 . S
H976 C949 0.932 . S
H977 C950 0.930 . S
H978 C951 0.932 . S
H979 C952 0.929 . S
H980 C970 0.931 1_545 S
H981 C971 0.930 . S
H982 C972 0.932 . S
H983 C973 0.929 . S
Tb984 C993 2.764 . S
Tb984 O994 2.325 . S
Tb984 O997 2.303 . S
Tb984 O1001 2.322 . S
Tb984 O1002 2.349 . S
Tb984 O1005 2.415 . S
Tb984 O1006 2.399 . S
Tb985 O995 2.322 . S
Tb985 O996 2.349 . S
Tb985 O998 2.415 . S
Tb985 O999 2.399 . S
Tb985 O1000 2.325 . S
Tb985 O1003 2.303 . S
Tb985 C1014 2.764 . S
C986 O1002 1.261 . S
C986 O1003 1.257 . S
C987 C990 1.358 . S
C987 C991 1.332 . S
C987 C993 1.504 . S
C988 C989 1.373 . S
C988 C992 1.308 . S
C989 C988 1.373 . S
C989 C990 1.429 . S
C989 H1016 0.932 . S
C990 C987 1.358 . S
C990 C989 1.429 . S
C990 H1017 0.930 . S
C991 C987 1.332 . S
C991 C992 1.394 . S
C991 H1018 0.932 . S
C992 C988 1.308 . S
C992 C991 1.394 . S
C992 H1019 0.929 . S
C993 Tb984 2.764 . S
C993 C987 1.504 . S
C993 O1005 1.239 . S
C993 O1006 1.263 . S
O994 Tb984 2.325 . S
O994 C1004 1.236 . S
O995 Tb985 2.322 . S
O995 C1004 1.257 . S
O996 Tb985 2.349 . S
O996 C1007 1.261 . S
O997 Tb984 2.303 . S
O997 C1007 1.257 . S
O998 Tb985 2.415 . S
O998 C1014 1.239 . S
O999 Tb985 2.399 . S
O999 C1014 1.263 . S
O1000 Tb985 2.325 . S
O1000 C1015 1.236 . S
O1001 Tb984 2.322 . S
O1001 C1015 1.257 . S
O1002 Tb984 2.349 . S
O1002 C986 1.261 . S
O1003 Tb985 2.303 . S
O1003 C986 1.257 . S
C1004 O994 1.236 . S
C1004 O995 1.257 . S
O1005 Tb984 2.415 . S
O1005 C993 1.239 . S
O1006 Tb984 2.399 . S
O1006 C993 1.263 . S
C1007 O996 1.261 . S
C1007 O997 1.257 . S
C1008 C1011 1.358 . S
C1008 C1012 1.332 . S
C1008 C1014 1.504 . S
C1009 C1010 1.373 . S
C1009 C1013 1.308 . S
C1010 C1009 1.373 . S
C1010 C1011 1.429 . S
C1010 H1020 0.932 . S
C1011 C1008 1.358 . S
C1011 C1010 1.429 . S
C1011 H1021 0.930 . S
C1012 C1008 1.332 . S
C1012 C1013 1.394 . S
C1012 H1022 0.932 . S
C1013 C1009 1.308 . S
C1013 C1012 1.394 . S
C1013 H1023 0.929 . S
C1014 Tb985 2.764 . S
C1014 O998 1.239 . S
C1014 O999 1.263 . S
C1014 C1008 1.504 . S
C1015 O1000 1.236 . S
C1015 O1001 1.257 . S
H1016 C989 0.932 . S
H1017 C990 0.930 . S
H1018 C991 0.932 . S
H1019 C992 0.929 . S
H1020 C1010 0.932 . S
H1021 C1011 0.930 . S
H1022 C1012 0.932 . S
H1023 C1013 0.929 . S
Tb1024 C1033 2.764 . S
Tb1024 O1034 2.325 . S
Tb1024 O1037 2.303 . S
Tb1024 O1041 2.322 . S
Tb1024 O1042 2.349 . S
Tb1024 O1045 2.415 . S
Tb1024 O1046 2.399 . S
Tb1025 O1035 2.322 1_545 S
Tb1025 O1036 2.349 . S
Tb1025 O1038 2.415 . S
Tb1025 O1039 2.399 . S
Tb1025 O1040 2.325 . S
Tb1025 O1043 2.303 . S
Tb1025 C1054 2.764 . S
C1026 O1042 1.261 1_655 S
C1026 O1043 1.257 1_655 S
C1027 C1030 1.358 . S
C1027 C1031 1.332 . S
C1027 C1033 1.504 . S
C1028 C1029 1.373 . S
C1028 C1032 1.308 . S
C1029 C1028 1.373 . S
C1029 C1030 1.429 . S
C1029 H1056 0.932 . S
C1030 C1027 1.358 . S
C1030 C1029 1.429 . S
C1030 H1057 0.930 . S
C1031 C1027 1.332 . S
C1031 C1032 1.394 . S
C1031 H1058 0.932 . S
C1032 C1028 1.308 . S
C1032 C1031 1.394 . S
C1032 H1059 0.929 . S
C1033 Tb1024 2.764 . S
C1033 C1027 1.504 . S
C1033 O1045 1.239 . S
C1033 O1046 1.263 . S
O1034 Tb1024 2.325 . S
O1034 C1044 1.236 1_545 S
O1035 Tb1025 2.322 1_565 S
O1035 C1044 1.257 . S
O1036 Tb1025 2.349 . S
O1036 C1047 1.261 . S
O1037 Tb1024 2.303 . S
O1037 C1047 1.257 . S
O1038 Tb1025 2.415 . S
O1038 C1054 1.239 . S
O1039 Tb1025 2.399 . S
O1039 C1054 1.263 . S
O1040 Tb1025 2.325 . S
O1040 C1055 1.236 . S
O1041 Tb1024 2.322 . S
O1041 C1055 1.257 . S
O1042 Tb1024 2.349 . S
O1042 C1026 1.261 1_455 S
O1043 Tb1025 2.303 . S
O1043 C1026 1.257 1_455 S
C1044 O1034 1.236 1_565 S
C1044 O1035 1.257 . S
O1045 Tb1024 2.415 . S
O1045 C1033 1.239 . S
O1046 Tb1024 2.399 . S
O1046 C1033 1.263 . S
C1047 O1036 1.261 . S
C1047 O1037 1.257 . S
C1048 C1051 1.358 . S
C1048 C1052 1.332 1_455 S
C1048 C1054 1.504 . S
C1049 C1050 1.373 . S
C1049 C1053 1.308 1_455 S
C1050 C1049 1.373 . S
C1050 C1051 1.429 . S
C1050 H1060 0.932 . S
C1051 C1048 1.358 . S
C1051 C1050 1.429 . S
C1051 H1061 0.930 . S
C1052 C1048 1.332 1_655 S
C1052 C1053 1.394 . S
C1052 H1062 0.932 . S
C1053 C1049 1.308 1_655 S
C1053 C1052 1.394 . S
C1053 H1063 0.929 . S
C1054 Tb1025 2.764 . S
C1054 O1038 1.239 . S
C1054 O1039 1.263 . S
C1054 C1048 1.504 . S
C1055 O1040 1.236 . S
C1055 O1041 1.257 . S
H1056 C1029 0.932 . S
H1057 C1030 0.930 . S
H1058 C1031 0.932 . S
H1059 C1032 0.929 . S
H1060 C1050 0.932 . S
H1061 C1051 0.930 . S
H1062 C1052 0.932 . S
H1063 C1053 0.929 . S
Tb1064 C1073 2.764 . S
Tb1064 O1074 2.325 . S
Tb1064 O1077 2.303 . S
Tb1064 O1081 2.322 . S
Tb1064 O1082 2.349 . S
Tb1064 O1085 2.415 . S
Tb1064 O1086 2.399 . S
Tb1065 O1075 2.322 . S
Tb1065 O1076 2.349 . S
Tb1065 O1078 2.415 . S
Tb1065 O1079 2.399 . S
Tb1065 O1080 2.325 . S
Tb1065 O1083 2.303 . S
Tb1065 C1094 2.764 . S
C1066 O1082 1.261 . S
C1066 O1083 1.257 . S
C1067 C1070 1.358 . S
C1067 C1071 1.332 . S
C1067 C1073 1.504 . S
C1068 C1069 1.373 . S
C1068 C1072 1.308 . S
C1069 C1068 1.373 . S
C1069 C1070 1.429 . S
C1069 H1096 0.932 . S
C1070 C1067 1.358 . S
C1070 C1069 1.429 . S
C1070 H1097 0.930 . S
C1071 C1067 1.332 . S
C1071 C1072 1.394 . S
C1071 H1098 0.932 . S
C1072 C1068 1.308 . S
C1072 C1071 1.394 . S
C1072 H1099 0.929 . S
C1073 Tb1064 2.764 . S
C1073 C1067 1.504 . S
C1073 O1085 1.239 . S
C1073 O1086 1.263 . S
O1074 Tb1064 2.325 . S
O1074 C1084 1.236 . S
O1075 Tb1065 2.322 . S
O1075 C1084 1.257 . S
O1076 Tb1065 2.349 . S
O1076 C1087 1.261 . S
O1077 Tb1064 2.303 . S
O1077 C1087 1.257 . S
O1078 Tb1065 2.415 . S
O1078 C1094 1.239 . S
O1079 Tb1065 2.399 . S
O1079 C1094 1.263 . S
O1080 Tb1065 2.325 . S
O1080 C1095 1.236 . S
O1081 Tb1064 2.322 . S
O1081 C1095 1.257 . S
O1082 Tb1064 2.349 . S
O1082 C1066 1.261 . S
O1083 Tb1065 2.303 . S
O1083 C1066 1.257 . S
C1084 O1074 1.236 . S
C1084 O1075 1.257 . S
O1085 Tb1064 2.415 . S
O1085 C1073 1.239 . S
O1086 Tb1064 2.399 . S
O1086 C1073 1.263 . S
C1087 O1076 1.261 . S
C1087 O1077 1.257 . S
C1088 C1091 1.358 . S
C1088 C1092 1.332 . S
C1088 C1094 1.504 . S
C1089 C1090 1.373 . S
C1089 C1093 1.308 . S
C1090 C1089 1.373 . S
C1090 C1091 1.429 . S
C1090 H1100 0.932 . S
C1091 C1088 1.358 . S
C1091 C1090 1.429 . S
C1091 H1101 0.930 . S
C1092 C1088 1.332 . S
C1092 C1093 1.394 . S
C1092 H1102 0.932 . S
C1093 C1089 1.308 . S
C1093 C1092 1.394 . S
C1093 H1103 0.929 . S
C1094 Tb1065 2.764 . S
C1094 O1078 1.239 . S
C1094 O1079 1.263 . S
C1094 C1088 1.504 . S
C1095 O1080 1.236 . S
C1095 O1081 1.257 . S
H1096 C1069 0.932 . S
H1097 C1070 0.930 . S
H1098 C1071 0.932 . S
H1099 C1072 0.929 . S
H1100 C1090 0.932 . S
H1101 C1091 0.930 . S
H1102 C1092 0.932 . S
H1103 C1093 0.929 . S
Tb1104 C1113 2.764 . S
Tb1104 O1114 2.325 . S
Tb1104 O1117 2.303 . S
Tb1104 O1121 2.322 1_545 S
Tb1104 O1122 2.349 . S
Tb1104 O1125 2.415 . S
Tb1104 O1126 2.399 . S
Tb1105 O1115 2.322 . S
Tb1105 O1116 2.349 . S
Tb1105 O1118 2.415 1_554 S
Tb1105 O1119 2.399 1_554 S
Tb1105 O1120 2.325 1_554 S
Tb1105 O1123 2.303 . S
Tb1105 C1134 2.764 1_554 S
C1106 O1122 1.261 . S
C1106 O1123 1.257 . S
C1107 C1110 1.358 . S
C1107 C1111 1.332 . S
C1107 C1113 1.504 . S
C1108 C1109 1.373 . S
C1108 C1112 1.308 . S
C1109 C1108 1.373 . S
C1109 C1110 1.429 . S
C1109 H1136 0.932 . S
C1110 C1107 1.358 . S
C1110 C1109 1.429 . S
C1110 H1137 0.930 . S
C1111 C1107 1.332 . S
C1111 C1112 1.394 . S
C1111 H1138 0.932 . S
C1112 C1108 1.308 . S
C1112 C1111 1.394 . S
C1112 H1139 0.929 . S
C1113 Tb1104 2.764 . S
C1113 C1107 1.504 . S
C1113 O1125 1.239 . S
C1113 O1126 1.263 . S
O1114 Tb1104 2.325 . S
O1114 C1124 1.236 . S
O1115 Tb1105 2.322 . S
O1115 C1124 1.257 . S
O1116 Tb1105 2.349 . S
O1116 C1127 1.261 . S
O1117 Tb1104 2.303 . S
O1117 C1127 1.257 . S
O1118 Tb1105 2.415 1_556 S
O1118 C1134 1.239 . S
O1119 Tb1105 2.399 1_556 S
O1119 C1134 1.263 . S
O1120 Tb1105 2.325 1_556 S
O1120 C1135 1.239 1_546 S
O1121 Tb1104 2.322 1_565 S
O1121 C1135 1.257 . S
O1122 Tb1104 2.349 . S
O1122 C1106 1.261 . S
O1123 Tb1105 2.303 . S
O1123 C1106 1.257 . S
C1124 O1114 1.236 . S
C1124 O1115 1.257 . S
O1125 Tb1104 2.415 . S
O1125 C1113 1.239 . S
O1126 Tb1104 2.399 . S
O1126 C1113 1.263 . S
C1127 O1116 1.261 . S
C1127 O1117 1.257 . S
C1128 C1131 1.358 . S
C1128 C1132 1.332 . S
C1128 C1134 1.504 . S
C1129 C1130 1.373 . S
C1129 C1133 1.308 . S
C1130 C1129 1.373 . S
C1130 C1131 1.429 . S
C1130 H1140 0.932 . S
C1131 C1128 1.358 . S
C1131 C1130 1.429 . S
C1131 H1141 0.930 . S
C1132 C1128 1.332 . S
C1132 C1133 1.394 . S
C1132 H1142 0.932 . S
C1133 C1129 1.308 . S
C1133 C1132 1.394 . S
C1133 H1143 0.929 . S
C1134 Tb1105 2.764 1_556 S
C1134 O1118 1.239 . S
C1134 O1119 1.263 . S
C1134 C1128 1.504 . S
C1135 O1120 1.239 1_564 S
C1135 O1121 1.257 . S
H1136 C1109 0.932 . S
H1137 C1110 0.930 . S
H1138 C1111 0.932 . S
H1139 C1112 0.929 . S
H1140 C1130 0.932 . S
H1141 C1131 0.930 . S
H1142 C1132 0.932 . S
H1143 C1133 0.929 . S
Tb1144 C1153 2.764 . S
Tb1144 O1154 2.325 . S
Tb1144 O1157 2.303 . S
Tb1144 O1161 2.322 . S
Tb1144 O1162 2.349 . S
Tb1144 O1165 2.415 . S
Tb1144 O1166 2.399 . S
Tb1145 O1155 2.322 . S
Tb1145 O1156 2.349 . S
Tb1145 O1158 2.415 . S
Tb1145 O1159 2.399 . S
Tb1145 O1160 2.325 . S
Tb1145 O1163 2.303 . S
Tb1145 C1174 2.764 . S
C1146 O1162 1.261 . S
C1146 O1163 1.257 . S
C1147 C1150 1.358 . S
C1147 C1151 1.332 . S
C1147 C1153 1.504 . S
C1148 C1149 1.373 . S
C1148 C1152 1.308 . S
C1149 C1148 1.373 . S
C1149 C1150 1.429 . S
C1149 H1176 0.932 . S
C1150 C1147 1.358 . S
C1150 C1149 1.429 . S
C1150 H1177 0.930 . S
C1151 C1147 1.332 . S
C1151 C1152 1.394 . S
C1151 H1178 0.932 . S
C1152 C1148 1.308 . S
C1152 C1151 1.394 . S
C1152 H1179 0.929 . S
C1153 Tb1144 2.764 . S
C1153 C1147 1.504 . S
C1153 O1165 1.239 . S
C1153 O1166 1.263 . S
O1154 Tb1144 2.325 . S
O1154 C1164 1.236 . S
O1155 Tb1145 2.322 . S
O1155 C1164 1.257 . S
O1156 Tb1145 2.349 . S
O1156 C1167 1.261 . S
O1157 Tb1144 2.303 . S
O1157 C1167 1.257 . S
O1158 Tb1145 2.415 . S
O1158 C1174 1.239 . S
O1159 Tb1145 2.399 . S
O1159 C1174 1.263 . S
O1160 Tb1145 2.325 . S
O1160 C1175 1.236 . S
O1161 Tb1144 2.322 . S
O1161 C1175 1.257 . S
O1162 Tb1144 2.349 . S
O1162 C1146 1.261 . S
O1163 Tb1145 2.303 . S
O1163 C1146 1.257 . S
C1164 O1154 1.236 . S
C1164 O1155 1.257 . S
O1165 Tb1144 2.415 . S
O1165 C1153 1.239 . S
O1166 Tb1144 2.399 . S
O1166 C1153 1.263 . S
C1167 O1156 1.261 . S
C1167 O1157 1.257 . S
C1168 C1171 1.358 . S
C1168 C1172 1.332 . S
C1168 C1174 1.504 . S
C1169 C1170 1.373 . S
C1169 C1173 1.308 . S
C1170 C1169 1.373 . S
C1170 C1171 1.429 . S
C1170 H1180 0.932 . S
C1171 C1168 1.358 . S
C1171 C1170 1.429 . S
C1171 H1181 0.930 . S
C1172 C1168 1.332 . S
C1172 C1173 1.394 . S
C1172 H1182 0.932 . S
C1173 C1169 1.308 . S
C1173 C1172 1.394 . S
C1173 H1183 0.929 . S
C1174 Tb1145 2.764 . S
C1174 O1158 1.239 . S
C1174 O1159 1.263 . S
C1174 C1168 1.504 . S
C1175 O1160 1.236 . S
C1175 O1161 1.257 . S
H1176 C1149 0.932 . S
H1177 C1150 0.930 . S
H1178 C1151 0.932 . S
H1179 C1152 0.929 . S
H1180 C1170 0.932 . S
H1181 C1171 0.930 . S
H1182 C1172 0.932 . S
H1183 C1173 0.929 . S
Tb1184 C1193 2.764 . S
Tb1184 O1194 2.325 . S
Tb1184 O1197 2.303 . S
Tb1184 O1201 2.322 . S
Tb1184 O1202 2.349 . S
Tb1184 O1205 2.415 . S
Tb1184 O1206 2.399 . S
Tb1185 O1195 2.322 . S
Tb1185 O1196 2.349 . S
Tb1185 O1198 2.415 1_554 S
Tb1185 O1199 2.399 1_554 S
Tb1185 O1200 2.325 . S
Tb1185 O1203 2.303 . S
Tb1185 C1214 2.764 1_554 S
C1186 O1202 1.261 . S
C1186 O1203 1.257 . S
C1187 C1190 1.358 . S
C1187 C1191 1.332 . S
C1187 C1193 1.504 . S
C1188 C1189 1.373 . S
C1188 C1192 1.308 . S
C1189 C1188 1.373 . S
C1189 C1190 1.429 . S
C1189 H1216 0.932 . S
C1190 C1187 1.358 . S
C1190 C1189 1.429 . S
C1190 H1217 0.930 . S
C1191 C1187 1.332 . S
C1191 C1192 1.394 . S
C1191 H1218 0.932 . S
C1192 C1188 1.308 . S
C1192 C1191 1.394 . S
C1192 H1219 0.929 . S
C1193 Tb1184 2.764 . S
C1193 C1187 1.504 . S
C1193 O1205 1.239 . S
C1193 O1206 1.263 . S
O1194 Tb1184 2.325 . S
O1194 C1204 1.236 . S
O1195 Tb1185 2.322 . S
O1195 C1204 1.257 . S
O1196 Tb1185 2.349 . S
O1196 C1207 1.261 . S
O1197 Tb1184 2.303 . S
O1197 C1207 1.257 . S
O1198 Tb1185 2.415 1_556 S
O1198 C1214 1.239 . S
O1199 Tb1185 2.399 1_556 S
O1199 C1214 1.263 . S
O1200 Tb1185 2.325 . S
O1200 C1215 1.236 . S
O1201 Tb1184 2.322 . S
O1201 C1215 1.257 . S
O1202 Tb1184 2.349 . S
O1202 C1186 1.261 . S
O1203 Tb1185 2.303 . S
O1203 C1186 1.257 . S
C1204 O1194 1.236 . S
C1204 O1195 1.257 . S
O1205 Tb1184 2.415 . S
O1205 C1193 1.239 . S
O1206 Tb1184 2.399 . S
O1206 C1193 1.263 . S
C1207 O1196 1.261 . S
C1207 O1197 1.257 . S
C1208 C1211 1.358 . S
C1208 C1212 1.332 . S
C1208 C1214 1.504 . S
C1209 C1210 1.373 . S
C1209 C1213 1.308 . S
C1210 C1209 1.373 . S
C1210 C1211 1.429 . S
C1210 H1220 0.932 . S
C1211 C1208 1.358 . S
C1211 C1210 1.429 . S
C1211 H1221 0.930 . S
C1212 C1208 1.332 . S
C1212 C1213 1.394 . S
C1212 H1222 0.932 . S
C1213 C1209 1.308 . S
C1213 C1212 1.394 . S
C1213 H1223 0.929 . S
C1214 Tb1185 2.764 1_556 S
C1214 O1198 1.239 . S
C1214 O1199 1.263 . S
C1214 C1208 1.504 . S
C1215 O1200 1.236 . S
C1215 O1201 1.257 . S
H1216 C1189 0.932 . S
H1217 C1190 0.930 . S
H1218 C1191 0.932 . S
H1219 C1192 0.929 . S
H1220 C1210 0.932 . S
H1221 C1211 0.930 . S
H1222 C1212 0.932 . S
H1223 C1213 0.929 . S
Tb1224 C1233 2.764 . S
Tb1224 O1234 2.325 . S
Tb1224 O1237 2.303 . S
Tb1224 O1241 2.322 . S
Tb1224 O1242 2.349 . S
Tb1224 O1245 2.415 . S
Tb1224 O1246 2.399 . S
Tb1225 O1235 2.322 . S
Tb1225 O1236 2.349 . S
Tb1225 O1238 2.415 . S
Tb1225 O1239 2.399 . S
Tb1225 O1240 2.325 . S
Tb1225 O1243 2.303 . S
Tb1225 C1254 2.764 . S
C1226 O1242 1.261 . S
C1226 O1243 1.257 . S
C1227 C1230 1.358 . S
C1227 C1231 1.332 . S
C1227 C1233 1.504 . S
C1228 C1229 1.373 . S
C1228 C1232 1.308 . S
C1229 C1228 1.373 . S
C1229 C1230 1.429 . S
C1229 H1256 0.932 . S
C1230 C1227 1.358 . S
C1230 C1229 1.429 . S
C1230 H1257 0.930 . S
C1231 C1227 1.332 . S
C1231 C1232 1.394 . S
C1231 H1258 0.932 . S
C1232 C1228 1.308 . S
C1232 C1231 1.394 . S
C1232 H1259 0.929 . S
C1233 Tb1224 2.764 . S
C1233 C1227 1.504 . S
C1233 O1245 1.239 . S
C1233 O1246 1.263 . S
O1234 Tb1224 2.325 . S
O1234 C1244 1.236 . S
O1235 Tb1225 2.322 . S
O1235 C1244 1.257 . S
O1236 Tb1225 2.349 . S
O1236 C1247 1.261 . S
O1237 Tb1224 2.303 . S
O1237 C1247 1.257 . S
O1238 Tb1225 2.415 . S
O1238 C1254 1.239 . S
O1239 Tb1225 2.399 . S
O1239 C1254 1.263 . S
O1240 Tb1225 2.325 . S
O1240 C1255 1.236 . S
O1241 Tb1224 2.322 . S
O1241 C1255 1.257 . S
O1242 Tb1224 2.349 . S
O1242 C1226 1.261 . S
O1243 Tb1225 2.303 . S
O1243 C1226 1.257 . S
C1244 O1234 1.236 . S
C1244 O1235 1.257 . S
O1245 Tb1224 2.415 . S
O1245 C1233 1.239 . S
O1246 Tb1224 2.399 . S
O1246 C1233 1.263 . S
C1247 O1236 1.261 . S
C1247 O1237 1.257 . S
C1248 C1251 1.358 . S
C1248 C1252 1.332 . S
C1248 C1254 1.504 . S
C1249 C1250 1.373 . S
C1249 C1253 1.308 . S
C1250 C1249 1.373 . S
C1250 C1251 1.429 . S
C1250 H1260 0.932 . S
C1251 C1248 1.358 . S
C1251 C1250 1.429 . S
C1251 H1261 0.930 . S
C1252 C1248 1.332 . S
C1252 C1253 1.394 . S
C1252 H1262 0.932 . S
C1253 C1249 1.308 . S
C1253 C1252 1.394 . S
C1253 H1263 0.929 . S
C1254 Tb1225 2.764 . S
C1254 O1238 1.239 . S
C1254 O1239 1.263 . S
C1254 C1248 1.504 . S
C1255 O1240 1.236 . S
C1255 O1241 1.257 . S
H1256 C1229 0.932 . S
H1257 C1230 0.930 . S
H1258 C1231 0.932 . S
H1259 C1232 0.929 . S
H1260 C1250 0.932 . S
H1261 C1251 0.930 . S
H1262 C1252 0.932 . S
H1263 C1253 0.929 . S
Tb1264 C1273 2.764 . S
Tb1264 O1274 2.325 . S
Tb1264 O1277 2.303 . S
Tb1264 O1281 2.322 . S
Tb1264 O1282 2.349 . S
Tb1264 O1285 2.415 . S
Tb1264 O1286 2.399 . S
Tb1265 O1275 2.322 . S
Tb1265 O1276 2.349 . S
Tb1265 O1278 2.415 . S
Tb1265 O1279 2.399 . S
Tb1265 O1280 2.325 . S
Tb1265 O1283 2.303 . S
Tb1265 C1294 2.764 . S
C1266 O1282 1.261 . S
C1266 O1283 1.257 . S
C1267 C1270 1.358 . S
C1267 C1271 1.332 . S
C1267 C1273 1.504 . S
C1268 C1269 1.373 . S
C1268 C1272 1.308 1_455 S
C1269 C1268 1.373 . S
C1269 C1270 1.429 . S
C1269 H1296 0.932 . S
C1270 C1267 1.358 . S
C1270 C1269 1.429 . S
C1270 H1297 0.930 . S
C1271 C1267 1.332 . S
C1271 C1272 1.394 1_455 S
C1271 H1298 0.932 1_455 S
C1272 C1268 1.308 1_655 S
C1272 C1271 1.394 1_655 S
C1272 H1299 0.929 . S
C1273 Tb1264 2.764 . S
C1273 C1267 1.504 . S
C1273 O1285 1.239 . S
C1273 O1286 1.263 . S
O1274 Tb1264 2.325 . S
O1274 C1284 1.236 . S
O1275 Tb1265 2.322 . S
O1275 C1284 1.257 . S
O1276 Tb1265 2.349 . S
O1276 C1287 1.263 . S
O1277 Tb1264 2.303 . S
O1277 C1287 1.270 . S
O1278 Tb1265 2.415 . S
O1278 C1294 1.239 . S
O1279 Tb1265 2.399 . S
O1279 C1294 1.263 . S
O1280 Tb1265 2.325 . S
O1280 C1295 1.236 . S
O1281 Tb1264 2.322 . S
O1281 C1295 1.257 . S
O1282 Tb1264 2.349 . S
O1282 C1266 1.261 . S
O1283 Tb1265 2.303 . S
O1283 C1266 1.257 . S
C1284 O1274 1.236 . S
C1284 O1275 1.257 . S
O1285 Tb1264 2.415 . S
O1285 C1273 1.239 . S
O1286 Tb1264 2.399 . S
O1286 C1273 1.263 . S
C1287 O1276 1.263 . S
C1287 O1277 1.270 . S
C1288 C1291 1.358 . S
C1288 C1292 1.332 . S
C1288 C1294 1.504 . S
C1289 C1290 1.373 . S
C1289 C1293 1.308 . S
C1290 C1289 1.373 . S
C1290 C1291 1.429 . S
C1290 H1300 0.932 . S
C1291 C1288 1.358 . S
C1291 C1290 1.429 . S
C1291 H1301 0.930 . S
C1292 C1288 1.332 . S
C1292 C1293 1.394 . S
C1292 H1302 0.932 . S
C1293 C1289 1.308 . S
C1293 C1292 1.394 . S
C1293 H1303 0.929 . S
C1294 Tb1265 2.764 . S
C1294 O1278 1.239 . S
C1294 O1279 1.263 . S
C1294 C1288 1.504 . S
C1295 O1280 1.236 . S
C1295 O1281 1.257 . S
H1296 C1269 0.932 . S
H1297 C1270 0.930 . S
H1298 C1271 0.932 1_655 S
H1299 C1272 0.929 . S
H1300 C1290 0.932 . S
H1301 C1291 0.930 . S
H1302 C1292 0.932 . S
H1303 C1293 0.929 . S
Tb1304 C1313 2.764 . S
Tb1304 O1314 2.325 . S
Tb1304 O1317 2.303 . S
Tb1304 O1321 2.322 . S
Tb1304 O1322 2.349 . S
Tb1304 O1325 2.415 . S
Tb1304 O1326 2.399 . S
Tb1305 O1315 2.322 . S
Tb1305 O1316 2.349 . S
Tb1305 O1318 2.415 . S
Tb1305 O1319 2.399 . S
Tb1305 O1320 2.325 . S
Tb1305 O1323 2.303 . S
Tb1305 C1334 2.764 . S
C1306 O1322 1.261 . S
C1306 O1323 1.257 . S
C1307 C1310 1.358 . S
C1307 C1311 1.332 . S
C1307 C1313 1.504 . S
C1308 C1309 1.373 . S
C1308 C1312 1.308 . S
C1309 C1308 1.373 . S
C1309 C1310 1.429 . S
C1309 H1336 0.932 . S
C1310 C1307 1.358 . S
C1310 C1309 1.429 . S
C1310 H1337 0.930 . S
C1311 C1307 1.332 . S
C1311 C1312 1.394 . S
C1311 H1338 0.932 . S
C1312 C1308 1.308 . S
C1312 C1311 1.394 . S
C1312 H1339 0.929 . S
C1313 Tb1304 2.764 . S
C1313 C1307 1.504 . S
C1313 O1325 1.239 . S
C1313 O1326 1.263 . S
O1314 Tb1304 2.325 . S
O1314 C1324 1.236 . S
O1315 Tb1305 2.322 . S
O1315 C1324 1.257 . S
O1316 Tb1305 2.349 . S
O1316 C1327 1.261 . S
O1317 Tb1304 2.303 . S
O1317 C1327 1.257 . S
O1318 Tb1305 2.415 . S
O1318 C1334 1.239 . S
O1319 Tb1305 2.399 . S
O1319 C1334 1.263 . S
O1320 Tb1305 2.325 . S
O1320 C1335 1.236 . S
O1321 Tb1304 2.322 . S
O1321 C1335 1.257 . S
O1322 Tb1304 2.349 . S
O1322 C1306 1.261 . S
O1323 Tb1305 2.303 . S
O1323 C1306 1.257 . S
C1324 O1314 1.236 . S
C1324 O1315 1.257 . S
O1325 Tb1304 2.415 . S
O1325 C1313 1.239 . S
O1326 Tb1304 2.399 . S
O1326 C1313 1.263 . S
C1327 O1316 1.261 . S
C1327 O1317 1.257 . S
C1328 C1331 1.358 . S
C1328 C1332 1.332 . S
C1328 C1334 1.504 . S
C1329 C1330 1.373 . S
C1329 C1333 1.308 . S
C1330 C1329 1.373 . S
C1330 C1331 1.429 . S
C1330 H1340 0.932 . S
C1331 C1328 1.358 . S
C1331 C1330 1.429 . S
C1331 H1341 0.930 . S
C1332 C1328 1.332 . S
C1332 C1333 1.394 . S
C1332 H1342 0.932 . S
C1333 C1329 1.308 . S
C1333 C1332 1.394 . S
C1333 H1343 0.929 . S
C1334 Tb1305 2.764 . S
C1334 O1318 1.239 . S
C1334 O1319 1.263 . S
C1334 C1328 1.504 . S
C1335 O1320 1.236 . S
C1335 O1321 1.257 . S
H1336 C1309 0.932 . S
H1337 C1310 0.930 . S
H1338 C1311 0.932 . S
H1339 C1312 0.929 . S
H1340 C1330 0.932 . S
H1341 C1331 0.930 . S
H1342 C1332 0.932 . S
H1343 C1333 0.929 . S
Tb1344 C1353 2.764 . S
Tb1344 O1354 2.325 . S
Tb1344 O1357 2.303 . S
Tb1344 O1361 2.322 . S
Tb1344 O1362 2.349 . S
Tb1344 O1365 2.415 . S
Tb1344 O1366 2.399 . S
Tb1345 O1355 2.322 . S
Tb1345 O1356 2.349 . S
Tb1345 O1358 2.415 . S
Tb1345 O1359 2.399 . S
Tb1345 O1360 2.325 . S
Tb1345 O1363 2.303 . S
Tb1345 C1374 2.764 . S
C1346 O1362 1.261 . S
C1346 O1363 1.257 . S
C1347 C1350 1.358 . S
C1347 C1351 1.332 . S
C1347 C1353 1.504 . S
C1348 C1349 1.373 . S
C1348 C1352 1.308 . S
C1349 C1348 1.373 . S
C1349 C1350 1.429 . S
C1349 H1376 0.932 . S
C1350 C1347 1.358 . S
C1350 C1349 1.429 . S
C1350 H1377 0.930 . S
C1351 C1347 1.332 . S
C1351 C1352 1.394 . S
C1351 H1378 0.932 . S
C1352 C1348 1.308 . S
C1352 C1351 1.394 . S
C1352 H1379 0.929 . S
C1353 Tb1344 2.764 . S
C1353 C1347 1.504 . S
C1353 O1365 1.239 . S
C1353 O1366 1.263 . S
O1354 Tb1344 2.325 . S
O1354 C1364 1.236 . S
O1355 Tb1345 2.322 . S
O1355 C1364 1.257 . S
O1356 Tb1345 2.349 . S
O1356 C1367 1.261 . S
O1357 Tb1344 2.303 . S
O1357 C1367 1.257 . S
O1358 Tb1345 2.415 . S
O1358 C1374 1.239 . S
O1359 Tb1345 2.399 . S
O1359 C1374 1.263 . S
O1360 Tb1345 2.325 . S
O1360 C1375 1.236 . S
O1361 Tb1344 2.322 . S
O1361 C1375 1.257 . S
O1362 Tb1344 2.349 . S
O1362 C1346 1.261 . S
O1363 Tb1345 2.303 . S
O1363 C1346 1.257 . S
C1364 O1354 1.236 . S
C1364 O1355 1.257 . S
O1365 Tb1344 2.415 . S
O1365 C1353 1.239 . S
O1366 Tb1344 2.399 . S
O1366 C1353 1.263 . S
C1367 O1356 1.261 . S
C1367 O1357 1.257 . S
C1368 C1371 1.358 . S
C1368 C1372 1.332 . S
C1368 C1374 1.504 . S
C1369 C1370 1.373 . S
C1369 C1373 1.308 . S
C1370 C1369 1.373 . S
C1370 C1371 1.429 . S
C1370 H1380 0.932 . S
C1371 C1368 1.358 . S
C1371 C1370 1.429 . S
C1371 H1381 0.930 . S
C1372 C1368 1.332 . S
C1372 C1373 1.394 . S
C1372 H1382 0.932 . S
C1373 C1369 1.308 . S
C1373 C1372 1.394 . S
C1373 H1383 0.929 . S
C1374 Tb1345 2.764 . S
C1374 O1358 1.239 . S
C1374 O1359 1.263 . S
C1374 C1368 1.504 . S
C1375 O1360 1.236 . S
C1375 O1361 1.257 . S
H1376 C1349 0.932 . S
H1377 C1350 0.930 . S
H1378 C1351 0.932 . S
H1379 C1352 0.929 . S
H1380 C1370 0.932 . S
H1381 C1371 0.930 . S
H1382 C1372 0.932 . S
H1383 C1373 0.929 . S
Tb1384 C1393 2.764 . S
Tb1384 O1394 2.325 . S
Tb1384 O1397 2.303 . S
Tb1384 O1401 2.322 . S
Tb1384 O1402 2.349 . S
Tb1384 O1405 2.415 . S
Tb1384 O1406 2.399 . S
Tb1385 O1395 2.322 . S
Tb1385 O1396 2.349 . S
Tb1385 O1398 2.415 . S
Tb1385 O1399 2.399 . S
Tb1385 O1400 2.325 . S
Tb1385 O1403 2.303 . S
Tb1385 C1414 2.764 . S
C1386 O1402 1.261 . S
C1386 O1403 1.257 . S
C1387 C1390 1.358 . S
C1387 C1391 1.332 . S
C1387 C1393 1.504 . S
C1388 C1389 1.373 . S
C1388 C1392 1.308 . S
C1389 C1388 1.373 . S
C1389 C1390 1.429 . S
C1389 H1416 0.932 . S
C1390 C1387 1.358 . S
C1390 C1389 1.429 . S
C1390 H1417 0.930 . S
C1391 C1387 1.332 . S
C1391 C1392 1.394 . S
C1391 H1418 0.932 . S
C1392 C1388 1.308 . S
C1392 C1391 1.394 . S
C1392 H1419 0.929 . S
C1393 Tb1384 2.764 . S
C1393 C1387 1.504 . S
C1393 O1405 1.239 . S
C1393 O1406 1.263 . S
O1394 Tb1384 2.325 . S
O1394 C1404 1.236 . S
O1395 Tb1385 2.322 . S
O1395 C1404 1.257 . S
O1396 Tb1385 2.349 . S
O1396 C1407 1.261 . S
O1397 Tb1384 2.303 . S
O1397 C1407 1.257 . S
O1398 Tb1385 2.415 . S
O1398 C1414 1.239 . S
O1399 Tb1385 2.399 . S
O1399 C1414 1.263 . S
O1400 Tb1385 2.325 . S
O1400 C1415 1.236 . S
O1401 Tb1384 2.322 . S
O1401 C1415 1.257 . S
O1402 Tb1384 2.349 . S
O1402 C1386 1.261 . S
O1403 Tb1385 2.303 . S
O1403 C1386 1.257 . S
C1404 O1394 1.236 . S
C1404 O1395 1.257 . S
O1405 Tb1384 2.415 . S
O1405 C1393 1.239 . S
O1406 Tb1384 2.399 . S
O1406 C1393 1.263 . S
C1407 O1396 1.261 . S
C1407 O1397 1.257 . S
C1408 C1411 1.358 . S
C1408 C1412 1.332 . S
C1408 C1414 1.504 . S
C1409 C1410 1.373 . S
C1409 C1413 1.308 . S
C1410 C1409 1.373 . S
C1410 C1411 1.429 . S
C1410 H1420 0.932 . S
C1411 C1408 1.358 . S
C1411 C1410 1.429 . S
C1411 H1421 0.930 . S
C1412 C1408 1.332 . S
C1412 C1413 1.394 . S
C1412 H1422 0.932 . S
C1413 C1409 1.308 . S
C1413 C1412 1.394 . S
C1413 H1423 0.929 . S
C1414 Tb1385 2.764 . S
C1414 O1398 1.239 . S
C1414 O1399 1.263 . S
C1414 C1408 1.504 . S
C1415 O1400 1.236 . S
C1415 O1401 1.257 . S
H1416 C1389 0.932 . S
H1417 C1390 0.930 . S
H1418 C1391 0.932 . S
H1419 C1392 0.929 . S
H1420 C1410 0.932 . S
H1421 C1411 0.930 . S
H1422 C1412 0.932 . S
H1423 C1413 0.929 . S
Tb1424 C1433 2.764 . S
Tb1424 O1434 2.325 . S
Tb1424 O1437 2.303 . S
Tb1424 O1441 2.322 . S
Tb1424 O1442 2.349 . S
Tb1424 O1445 2.415 . S
Tb1424 O1446 2.399 . S
Tb1425 O1435 2.322 . S
Tb1425 O1436 2.349 . S
Tb1425 O1438 2.415 . S
Tb1425 O1439 2.399 . S
Tb1425 O1440 2.325 . S
Tb1425 O1443 2.303 . S
Tb1425 C1454 2.764 . S
C1426 O1442 1.261 . S
C1426 O1443 1.257 . S
C1427 C1430 1.358 . S
C1427 C1431 1.332 . S
C1427 C1433 1.504 . S
C1428 C1429 1.373 . S
C1428 C1432 1.308 . S
C1429 C1428 1.373 . S
C1429 C1430 1.429 . S
C1429 H1456 0.932 . S
C1430 C1427 1.358 . S
C1430 C1429 1.429 . S
C1430 H1457 0.930 . S
C1431 C1427 1.332 . S
C1431 C1432 1.394 . S
C1431 H1458 0.932 . S
C1432 C1428 1.308 . S
C1432 C1431 1.394 . S
C1432 H1459 0.929 . S
C1433 Tb1424 2.764 . S
C1433 C1427 1.504 . S
C1433 O1445 1.239 . S
C1433 O1446 1.263 . S
O1434 Tb1424 2.325 . S
O1434 C1444 1.236 . S
O1435 Tb1425 2.322 . S
O1435 C1444 1.257 . S
O1436 Tb1425 2.349 . S
O1436 C1447 1.261 . S
O1437 Tb1424 2.303 . S
O1437 C1447 1.257 . S
O1438 Tb1425 2.415 . S
O1438 C1454 1.239 . S
O1439 Tb1425 2.399 . S
O1439 C1454 1.263 . S
O1440 Tb1425 2.325 . S
O1440 C1455 1.236 . S
O1441 Tb1424 2.322 . S
O1441 C1455 1.257 . S
O1442 Tb1424 2.349 . S
O1442 C1426 1.261 . S
O1443 Tb1425 2.303 . S
O1443 C1426 1.257 . S
C1444 O1434 1.236 . S
C1444 O1435 1.257 . S
O1445 Tb1424 2.415 . S
O1445 C1433 1.239 . S
O1446 Tb1424 2.399 . S
O1446 C1433 1.263 . S
C1447 O1436 1.261 . S
C1447 O1437 1.257 . S
C1448 C1451 1.358 . S
C1448 C1452 1.332 . S
C1448 C1454 1.504 . S
C1449 C1450 1.373 . S
C1449 C1453 1.308 . S
C1450 C1449 1.373 . S
C1450 C1451 1.429 . S
C1450 H1460 0.932 . S
C1451 C1448 1.358 . S
C1451 C1450 1.429 . S
C1451 H1461 0.930 . S
C1452 C1448 1.332 . S
C1452 C1453 1.394 . S
C1452 H1462 0.932 . S
C1453 C1449 1.308 . S
C1453 C1452 1.394 . S
C1453 H1463 0.929 . S
C1454 Tb1425 2.764 . S
C1454 O1438 1.239 . S
C1454 O1439 1.263 . S
C1454 C1448 1.504 . S
C1455 O1440 1.236 . S
C1455 O1441 1.257 . S
H1456 C1429 0.932 . S
H1457 C1430 0.930 . S
H1458 C1431 0.932 . S
H1459 C1432 0.929 . S
H1460 C1450 0.932 . S
H1461 C1451 0.930 . S
H1462 C1452 0.932 . S
H1463 C1453 0.929 . S
Tb1464 C1473 2.764 1_455 S
Tb1464 O1474 2.325 . S
Tb1464 O1477 2.303 . S
Tb1464 O1481 2.322 . S
Tb1464 O1482 2.349 . S
Tb1464 O1485 2.415 1_455 S
Tb1464 O1486 2.399 1_455 S
Tb1465 O1475 2.322 . S
Tb1465 O1476 2.349 1_554 S
Tb1465 O1478 2.415 . S
Tb1465 O1479 2.378 1_554 S
Tb1465 O1480 2.325 . S
Tb1465 O1483 2.303 . S
Tb1465 C1494 2.764 . S
C1466 O1482 1.261 . S
C1466 O1483 1.257 . S
C1467 C1470 1.358 . S
C1467 C1471 1.332 . S
C1467 C1473 1.504 . S
C1468 C1469 1.373 . S
C1468 C1472 1.308 . S
C1469 C1468 1.373 . S
C1469 C1470 1.429 . S
C1469 H1496 0.932 . S
C1470 C1467 1.358 . S
C1470 C1469 1.429 . S
C1470 H1497 0.930 . S
C1471 C1467 1.332 . S
C1471 C1472 1.394 . S
C1471 H1498 0.932 . S
C1472 C1468 1.308 . S
C1472 C1471 1.394 . S
C1472 H1499 0.929 . S
C1473 Tb1464 2.764 1_655 S
C1473 C1467 1.504 . S
C1473 O1485 1.239 . S
C1473 O1486 1.263 . S
O1474 Tb1464 2.325 . S
O1474 C1484 1.236 . S
O1475 Tb1465 2.322 . S
O1475 C1484 1.257 . S
O1476 Tb1465 2.349 1_556 S
O1476 C1487 1.261 . S
O1477 Tb1464 2.303 . S
O1477 C1487 1.257 1_554 S
O1478 Tb1465 2.415 . S
O1478 C1494 1.239 . S
O1479 Tb1465 2.378 1_556 S
O1479 C1494 1.235 1_556 S
O1480 Tb1465 2.325 . S
O1480 C1495 1.236 . S
O1481 Tb1464 2.322 . S
O1481 C1495 1.257 . S
O1482 Tb1464 2.349 . S
O1482 C1466 1.261 . S
O1483 Tb1465 2.303 . S
O1483 C1466 1.257 . S
C1484 O1474 1.236 . S
C1484 O1475 1.257 . S
O1485 Tb1464 2.415 1_655 S
O1485 C1473 1.239 . S
O1486 Tb1464 2.399 1_655 S
O1486 C1473 1.263 . S
C1487 O1476 1.261 . S
C1487 O1477 1.257 1_556 S
C1488 C1491 1.358 1_554 S
C1488 C1492 1.332 . S
C1488 C1494 1.504 . S
C1489 C1490 1.373 1_554 S
C1489 C1493 1.308 . S
C1490 C1489 1.373 1_556 S
C1490 C1491 1.429 . S
C1490 H1500 0.932 . S
C1491 C1488 1.358 1_556 S
C1491 C1490 1.429 . S
C1491 H1501 0.930 . S
C1492 C1488 1.332 . S
C1492 C1493 1.394 . S
C1492 H1502 0.932 . S
C1493 C1489 1.308 . S
C1493 C1492 1.394 . S
C1493 H1503 0.929 . S
C1494 Tb1465 2.764 . S
C1494 O1478 1.239 . S
C1494 O1479 1.235 1_554 S
C1494 C1488 1.504 . S
C1495 O1480 1.236 . S
C1495 O1481 1.257 . S
H1496 C1469 0.932 . S
H1497 C1470 0.930 . S
H1498 C1471 0.932 . S
H1499 C1472 0.929 . S
H1500 C1490 0.932 . S
H1501 C1491 0.930 . S
H1502 C1492 0.932 . S
H1503 C1493 0.929 . S
H1504 C1512 0.950 . S
H1505 C1517 0.950 . S
H1506 C1514 0.950 . S
H1507 C1516 0.950 1_554 S
H1508 C1518 0.950 . S
H1509 C1520 0.950 . S
H1510 C1522 0.950 . S
H1511 C1523 0.950 . S
C1512 H1504 0.950 . S
C1512 C1513 1.386 . S
C1512 C1514 1.391 1_655 S
C1513 C1512 1.386 . S
C1513 C1517 1.393 1_655 S
C1514 H1506 0.950 . S
C1514 C1512 1.391 1_455 S
C1514 C1515 1.400 . S
C1515 C1514 1.400 . S
C1515 C1516 1.398 . S
C1515 C1521 1.491 . S
C1516 H1507 0.950 1_556 S
C1516 C1515 1.398 . S
C1516 C1517 1.391 . S
C1517 H1505 0.950 . S
C1517 C1513 1.393 1_455 S
C1517 C1516 1.391 . S
C1518 H1508 0.950 . S
C1518 C1519 1.386 . S
C1518 C1520 1.391 . S
C1519 C1518 1.386 . S
C1519 C1523 1.393 1_554 S
C1520 H1509 0.950 . S
C1520 C1518 1.391 . S
C1520 C1521 1.400 1_554 S
C1521 C1515 1.491 . S
C1521 C1520 1.400 1_556 S
C1521 C1522 1.398 . S
C1522 H1510 0.950 . S
C1522 C1521 1.398 . S
C1522 C1523 1.391 . S
C1523 H1511 0.950 . S
C1523 C1519 1.393 1_556 S
C1523 C1522 1.391 . S
H1524 C1532 0.950 . S
H1525 C1537 0.950 . S
H1526 C1534 0.950 . S
H1527 C1536 0.950 . S
H1528 C1538 0.950 . S
H1529 C1540 0.950 . S
H1530 C1542 0.950 . S
H1531 C1543 0.950 . S
C1532 H1524 0.950 . S
C1532 C1533 1.386 . S
C1532 C1534 1.391 . S
C1533 C1532 1.386 . S
C1533 C1537 1.393 . S
C1534 H1526 0.950 . S
C1534 C1532 1.391 . S
C1534 C1535 1.400 . S
C1535 C1534 1.400 . S
C1535 C1536 1.398 . S
C1535 C1541 1.491 . S
C1536 H1527 0.950 . S
C1536 C1535 1.398 . S
C1536 C1537 1.391 . S
C1537 H1525 0.950 . S
C1537 C1533 1.393 . S
C1537 C1536 1.391 . S
C1538 H1528 0.950 . S
C1538 C1539 1.386 . S
C1538 C1540 1.391 . S
C1539 C1538 1.386 . S
C1539 C1543 1.393 . S
C1540 H1529 0.950 . S
C1540 C1538 1.391 . S
C1540 C1541 1.400 . S
C1541 C1535 1.491 . S
C1541 C1540 1.400 . S
C1541 C1542 1.398 . S
C1542 H1530 0.950 . S
C1542 C1541 1.398 . S
C1542 C1543 1.391 . S
C1543 H1531 0.950 . S
C1543 C1539 1.393 . S
C1543 C1542 1.391 . S
H1544 C1552 0.950 . S
H1545 C1557 0.950 . S
H1546 C1554 0.950 . S
H1547 C1556 0.950 . S
H1548 C1558 0.950 . S
H1549 C1560 0.950 . S
H1550 C1562 0.950 . S
H1551 C1563 0.950 . S
C1552 H1544 0.950 . S
C1552 C1553 1.386 . S
C1552 C1554 1.391 . S
C1553 C1552 1.386 . S
C1553 C1557 1.393 . S
C1554 H1546 0.950 . S
C1554 C1552 1.391 . S
C1554 C1555 1.400 . S
C1555 C1554 1.400 . S
C1555 C1556 1.398 . S
C1555 C1561 1.491 . S
C1556 H1547 0.950 . S
C1556 C1555 1.398 . S
C1556 C1557 1.391 . S
C1557 H1545 0.950 . S
C1557 C1553 1.393 . S
C1557 C1556 1.391 . S
C1558 H1548 0.950 . S
C1558 C1559 1.386 . S
C1558 C1560 1.391 . S
C1559 C1558 1.386 . S
C1559 C1563 1.393 . S
C1560 H1549 0.950 . S
C1560 C1558 1.391 . S
C1560 C1561 1.400 . S
C1561 C1555 1.491 . S
C1561 C1560 1.400 . S
C1561 C1562 1.398 . S
C1562 H1550 0.950 . S
C1562 C1561 1.398 . S
C1562 C1563 1.391 . S
C1563 H1551 0.950 . S
C1563 C1559 1.393 . S
C1563 C1562 1.391 . S
H1564 C1572 0.950 . S
H1565 C1577 0.950 . S
H1566 C1574 0.950 . S
H1567 C1576 0.950 . S
H1568 C1578 0.950 . S
H1569 C1580 0.950 . S
H1570 C1582 0.950 . S
H1571 C1583 0.950 . S
C1572 H1564 0.950 . S
C1572 C1573 1.386 . S
C1572 C1574 1.391 . S
C1573 C1572 1.386 . S
C1573 C1577 1.393 . S
C1574 H1566 0.950 . S
C1574 C1572 1.391 . S
C1574 C1575 1.400 . S
C1575 C1574 1.400 . S
C1575 C1576 1.398 . S
C1575 C1581 1.491 . S
C1576 H1567 0.950 . S
C1576 C1575 1.398 . S
C1576 C1577 1.391 . S
C1577 H1565 0.950 . S
C1577 C1573 1.393 . S
C1577 C1576 1.391 . S
C1578 H1568 0.950 . S
C1578 C1579 1.386 . S
C1578 C1580 1.391 . S
C1579 C1578 1.386 . S
C1579 C1583 1.393 . S
C1580 H1569 0.950 . S
C1580 C1578 1.391 . S
C1580 C1581 1.400 . S
C1581 C1575 1.491 . S
C1581 C1580 1.400 . S
C1581 C1582 1.398 . S
C1582 H1570 0.950 . S
C1582 C1581 1.398 . S
C1582 C1583 1.391 . S
C1583 H1571 0.950 . S
C1583 C1579 1.393 . S
C1583 C1582 1.391 . S
H1584 C1592 0.950 . S
H1585 C1597 0.950 . S
H1586 C1594 0.950 . S
H1587 C1596 0.950 . S
H1588 C1598 0.950 . S
H1589 C1600 0.950 . S
H1590 C1602 0.950 . S
H1591 C1603 0.950 . S
C1592 H1584 0.950 . S
C1592 C1593 1.386 . S
C1592 C1594 1.391 . S
C1593 C1592 1.386 . S
C1593 C1597 1.393 . S
C1594 H1586 0.950 . S
C1594 C1592 1.391 . S
C1594 C1595 1.400 . S
C1595 C1594 1.400 . S
C1595 C1596 1.398 . S
C1595 C1601 1.491 . S
C1596 H1587 0.950 . S
C1596 C1595 1.398 . S
C1596 C1597 1.391 . S
C1597 H1585 0.950 . S
C1597 C1593 1.393 . S
C1597 C1596 1.391 . S
C1598 H1588 0.950 . S
C1598 C1599 1.386 . S
C1598 C1600 1.391 . S
C1599 C1598 1.386 . S
C1599 C1603 1.393 . S
C1600 H1589 0.950 . S
C1600 C1598 1.391 . S
C1600 C1601 1.400 . S
C1601 C1595 1.491 . S
C1601 C1600 1.400 . S
C1601 C1602 1.398 . S
C1602 H1590 0.950 . S
C1602 C1601 1.398 . S
C1602 C1603 1.391 . S
C1603 H1591 0.950 . S
C1603 C1599 1.393 . S
C1603 C1602 1.391 . S
H1604 C1612 0.950 . S
H1605 C1617 0.950 . S
H1606 C1614 0.950 . S
H1607 C1616 0.950 . S
H1608 C1618 0.950 . S
H1609 C1620 0.950 . S
H1610 C1622 0.950 . S
H1611 C1623 0.950 . S
C1612 H1604 0.950 . S
C1612 C1613 1.386 . S
C1612 C1614 1.391 . S
C1613 C1612 1.386 . S
C1613 C1617 1.393 . S
C1614 H1606 0.950 . S
C1614 C1612 1.391 . S
C1614 C1615 1.400 . S
C1615 C1614 1.400 . S
C1615 C1616 1.398 . S
C1615 C1621 1.491 . S
C1616 H1607 0.950 . S
C1616 C1615 1.398 . S
C1616 C1617 1.391 . S
C1617 H1605 0.950 . S
C1617 C1613 1.393 . S
C1617 C1616 1.391 . S
C1618 H1608 0.950 . S
C1618 C1619 1.386 . S
C1618 C1620 1.391 . S
C1619 C1618 1.386 . S
C1619 C1623 1.393 . S
C1620 H1609 0.950 . S
C1620 C1618 1.391 . S
C1620 C1621 1.400 . S
C1621 C1615 1.491 . S
C1621 C1620 1.400 . S
C1621 C1622 1.398 . S
C1622 H1610 0.950 . S
C1622 C1621 1.398 . S
C1622 C1623 1.391 . S
C1623 H1611 0.950 . S
C1623 C1619 1.393 . S
C1623 C1622 1.391 . S
H1624 C1632 0.950 . S
H1625 C1637 0.950 . S
H1626 C1634 0.950 . S
H1627 C1636 0.950 . S
H1628 C1638 0.950 . S
H1629 C1640 0.950 . S
H1630 C1642 0.950 . S
H1631 C1643 0.950 . S
C1632 H1624 0.950 . S
C1632 C1633 1.386 . S
C1632 C1634 1.391 . S
C1633 C1632 1.386 . S
C1633 C1637 1.393 . S
C1634 H1626 0.950 . S
C1634 C1632 1.391 . S
C1634 C1635 1.400 . S
C1635 C1634 1.400 . S
C1635 C1636 1.398 . S
C1635 C1641 1.491 . S
C1636 H1627 0.950 . S
C1636 C1635 1.398 . S
C1636 C1637 1.391 . S
C1637 H1625 0.950 . S
C1637 C1633 1.393 . S
C1637 C1636 1.391 . S
C1638 H1628 0.950 . S
C1638 C1639 1.386 . S
C1638 C1640 1.391 . S
C1639 C1638 1.386 . S
C1639 C1643 1.393 . S
C1640 H1629 0.950 . S
C1640 C1638 1.391 . S
C1640 C1641 1.400 . S
C1641 C1635 1.491 . S
C1641 C1640 1.400 . S
C1641 C1642 1.398 . S
C1642 H1630 0.950 . S
C1642 C1641 1.398 . S
C1642 C1643 1.391 . S
C1643 H1631 0.950 . S
C1643 C1639 1.393 . S
C1643 C1642 1.391 . S
H1644 C1652 0.950 . S
H1645 C1657 0.950 . S
H1646 C1654 0.950 . S
H1647 C1656 0.950 . S
H1648 C1658 0.950 . S
H1649 C1660 0.950 . S
H1650 C1662 0.950 . S
H1651 C1663 0.950 . S
C1652 H1644 0.950 . S
C1652 C1653 1.386 . S
C1652 C1654 1.391 . S
C1653 C1652 1.386 . S
C1653 C1657 1.393 . S
C1654 H1646 0.950 . S
C1654 C1652 1.391 . S
C1654 C1655 1.400 . S
C1655 C1654 1.400 . S
C1655 C1656 1.398 . S
C1655 C1661 1.491 . S
C1656 H1647 0.950 . S
C1656 C1655 1.398 . S
C1656 C1657 1.391 . S
C1657 H1645 0.950 . S
C1657 C1653 1.393 . S
C1657 C1656 1.391 . S
C1658 H1648 0.950 . S
C1658 C1659 1.386 . S
C1658 C1660 1.391 . S
C1659 C1658 1.386 . S
C1659 C1663 1.393 . S
C1660 H1649 0.950 . S
C1660 C1658 1.391 . S
C1660 C1661 1.400 . S
C1661 C1655 1.491 . S
C1661 C1660 1.400 . S
C1661 C1662 1.398 . S
C1662 H1650 0.950 . S
C1662 C1661 1.398 . S
C1662 C1663 1.391 . S
C1663 H1651 0.950 . S
C1663 C1659 1.393 . S
C1663 C1662 1.391 . S
H1664 C1672 0.950 . S
H1665 C1677 0.950 . S
H1666 C1674 0.950 1_565 S
H1667 C1676 0.950 . S
H1668 C1678 0.950 . S
H1669 C1680 0.950 . S
H1670 C1682 0.938 1_565 S
H1671 C1683 0.950 . S
C1672 H1664 0.950 . S
C1672 C1673 1.386 1_565 S
C1672 C1674 1.391 1_565 S
C1673 C1672 1.386 1_545 S
C1673 C1677 1.393 . S
C1674 H1666 0.950 1_545 S
C1674 C1672 1.391 1_545 S
C1674 C1675 1.400 . S
C1675 C1674 1.400 . S
C1675 C1676 1.398 . S
C1675 C1681 1.491 . S
C1676 H1667 0.950 . S
C1676 C1675 1.398 . S
C1676 C1677 1.391 . S
C1677 H1665 0.950 . S
C1677 C1673 1.393 . S
C1677 C1676 1.391 . S
C1678 H1668 0.950 . S
C1678 C1679 1.386 . S
C1678 C1680 1.391 . S
C1679 C1678 1.386 . S
C1679 C1683 1.393 1_455 S
C1680 H1669 0.950 . S
C1680 C1678 1.391 . S
C1680 C1681 1.400 1_455 S
C1681 C1675 1.491 . S
C1681 C1680 1.400 1_655 S
C1681 C1682 1.398 . S
C1682 H1670 0.938 1_545 S
C1682 C1681 1.398 . S
C1682 C1683 1.391 . S
C1683 H1671 0.950 . S
C1683 C1679 1.393 1_655 S
C1683 C1682 1.391 . S
H1684 C1692 0.950 . S
H1685 C1697 0.950 . S
H1686 C1694 0.950 . S
H1687 C1696 0.950 . S
H1688 C1698 0.950 . S
H1689 C1700 0.950 . S
H1690 C1702 0.950 . S
H1691 C1703 0.950 . S
C1692 H1684 0.950 . S
C1692 C1693 1.386 . S
C1692 C1694 1.391 . S
C1693 C1692 1.386 . S
C1693 C1697 1.393 . S
C1694 H1686 0.950 . S
C1694 C1692 1.391 . S
C1694 C1695 1.400 . S
C1695 C1694 1.400 . S
C1695 C1696 1.398 . S
C1695 C1701 1.491 . S
C1696 H1687 0.950 . S
C1696 C1695 1.398 . S
C1696 C1697 1.391 . S
C1697 H1685 0.950 . S
C1697 C1693 1.393 . S
C1697 C1696 1.391 . S
C1698 H1688 0.950 . S
C1698 C1699 1.386 . S
C1698 C1700 1.391 . S
C1699 C1698 1.386 . S
C1699 C1703 1.393 . S
C1700 H1689 0.950 . S
C1700 C1698 1.391 . S
C1700 C1701 1.400 . S
C1701 C1695 1.491 . S
C1701 C1700 1.400 . S
C1701 C1702 1.398 . S
C1702 H1690 0.950 . S
C1702 C1701 1.398 . S
C1702 C1703 1.391 . S
C1703 H1691 0.950 . S
C1703 C1699 1.393 . S
C1703 C1702 1.391 . S
H1704 C1712 0.950 . S
H1705 C1717 0.950 . S
H1706 C1714 0.950 . S
H1707 C1716 0.950 . S
H1708 C1718 0.950 . S
H1709 C1720 0.950 . S
H1710 C1722 0.950 . S
H1711 C1723 0.950 . S
C1712 H1704 0.950 . S
C1712 C1713 1.386 . S
C1712 C1714 1.391 . S
C1713 C1712 1.386 . S
C1713 C1717 1.393 . S
C1714 H1706 0.950 . S
C1714 C1712 1.391 . S
C1714 C1715 1.400 . S
C1715 C1714 1.400 . S
C1715 C1716 1.398 . S
C1715 C1721 1.491 . S
C1716 H1707 0.950 . S
C1716 C1715 1.398 . S
C1716 C1717 1.391 . S
C1717 H1705 0.950 . S
C1717 C1713 1.393 . S
C1717 C1716 1.391 . S
C1718 H1708 0.950 . S
C1718 C1719 1.386 . S
C1718 C1720 1.391 . S
C1719 C1718 1.386 . S
C1719 C1723 1.393 . S
C1720 H1709 0.950 . S
C1720 C1718 1.391 . S
C1720 C1721 1.400 . S
C1721 C1715 1.491 . S
C1721 C1720 1.400 . S
C1721 C1722 1.398 . S
C1722 H1710 0.950 . S
C1722 C1721 1.398 . S
C1722 C1723 1.391 . S
C1723 H1711 0.950 . S
C1723 C1719 1.393 . S
C1723 C1722 1.391 . S
H1724 C1732 0.950 . S
H1725 C1737 0.950 . S
H1726 C1734 0.950 . S
H1727 C1736 0.950 . S
H1728 C1738 0.950 . S
H1729 C1740 0.950 . S
H1730 C1742 0.950 . S
H1731 C1743 0.950 . S
C1732 H1724 0.950 . S
C1732 C1733 1.386 . S
C1732 C1734 1.391 . S
C1733 C1732 1.386 . S
C1733 C1737 1.393 . S
C1734 H1726 0.950 . S
C1734 C1732 1.391 . S
C1734 C1735 1.400 . S
C1735 C1734 1.400 . S
C1735 C1736 1.398 . S
C1735 C1741 1.491 . S
C1736 H1727 0.950 . S
C1736 C1735 1.398 . S
C1736 C1737 1.391 . S
C1737 H1725 0.950 . S
C1737 C1733 1.393 . S
C1737 C1736 1.391 . S
C1738 H1728 0.950 . S
C1738 C1739 1.386 . S
C1738 C1740 1.391 . S
C1739 C1738 1.386 . S
C1739 C1743 1.393 . S
C1740 H1729 0.950 . S
C1740 C1738 1.391 . S
C1740 C1741 1.400 . S
C1741 C1735 1.491 . S
C1741 C1740 1.400 . S
C1741 C1742 1.398 . S
C1742 H1730 0.950 . S
C1742 C1741 1.398 . S
C1742 C1743 1.391 . S
C1743 H1731 0.950 . S
C1743 C1739 1.393 . S
C1743 C1742 1.391 . S
H1744 C1752 0.950 . S
H1745 C1757 0.950 . S
H1746 C1754 0.950 . S
H1747 C1756 0.950 . S
H1748 C1758 0.950 . S
H1749 C1760 0.950 . S
H1750 C1762 0.950 . S
H1751 C1763 0.957 . S
C1752 H1744 0.950 . S
C1752 C1753 1.386 . S
C1752 C1754 1.391 . S
C1753 C1752 1.386 . S
C1753 C1757 1.393 . S
C1754 H1746 0.950 . S
C1754 C1752 1.391 . S
C1754 C1755 1.400 . S
C1755 C1754 1.400 . S
C1755 C1756 1.398 . S
C1755 C1761 1.491 . S
C1756 H1747 0.950 . S
C1756 C1755 1.398 . S
C1756 C1757 1.391 . S
C1757 H1745 0.950 . S
C1757 C1753 1.393 . S
C1757 C1756 1.391 . S
C1758 H1748 0.950 . S
C1758 C1759 1.386 . S
C1758 C1760 1.391 . S
C1759 C1758 1.386 . S
C1759 C1763 1.393 1_455 S
C1760 H1749 0.950 . S
C1760 C1758 1.391 . S
C1760 C1761 1.400 1_455 S
C1761 C1755 1.491 . S
C1761 C1760 1.400 1_655 S
C1761 C1762 1.398 . S
C1762 H1750 0.950 . S
C1762 C1761 1.398 . S
C1762 C1763 1.391 . S
C1763 H1751 0.957 . S
C1763 C1759 1.393 1_655 S
C1763 C1762 1.391 . S
H1764 C1772 0.950 . S
H1765 C1777 0.950 . S
H1766 C1774 0.950 . S
H1767 C1776 0.950 . S
H1768 C1778 0.950 . S
H1769 C1780 0.950 . S
H1770 C1782 0.950 . S
H1771 C1783 0.950 . S
C1772 H1764 0.950 . S
C1772 C1773 1.386 . S
C1772 C1774 1.391 . S
C1773 C1772 1.386 . S
C1773 C1777 1.393 . S
C1774 H1766 0.950 . S
C1774 C1772 1.391 . S
C1774 C1775 1.400 . S
C1775 C1774 1.400 . S
C1775 C1776 1.398 . S
C1775 C1781 1.491 . S
C1776 H1767 0.950 . S
C1776 C1775 1.398 . S
C1776 C1777 1.391 . S
C1777 H1765 0.950 . S
C1777 C1773 1.393 . S
C1777 C1776 1.391 . S
C1778 H1768 0.950 . S
C1778 C1779 1.386 . S
C1778 C1780 1.391 . S
C1779 C1778 1.386 . S
C1779 C1783 1.393 . S
C1780 H1769 0.950 . S
C1780 C1778 1.391 . S
C1780 C1781 1.400 . S
C1781 C1775 1.491 . S
C1781 C1780 1.400 . S
C1781 C1782 1.398 . S
C1782 H1770 0.950 . S
C1782 C1781 1.398 . S
C1782 C1783 1.391 . S
C1783 H1771 0.950 . S
C1783 C1779 1.393 . S
C1783 C1782 1.391 . S
H1784 C1792 0.950 . S
H1785 C1797 0.950 . S
H1786 C1794 0.950 . S
H1787 C1796 0.950 . S
H1788 C1798 0.950 . S
H1789 C1800 0.950 . S
H1790 C1802 0.950 . S
H1791 C1803 0.950 . S
C1792 H1784 0.950 . S
C1792 C1793 1.386 . S
C1792 C1794 1.391 . S
C1793 C1792 1.386 . S
C1793 C1797 1.393 . S
C1794 H1786 0.950 . S
C1794 C1792 1.391 . S
C1794 C1795 1.400 . S
C1795 C1794 1.400 . S
C1795 C1796 1.398 . S
C1795 C1801 1.491 . S
C1796 H1787 0.950 . S
C1796 C1795 1.398 . S
C1796 C1797 1.391 . S
C1797 H1785 0.950 . S
C1797 C1793 1.393 . S
C1797 C1796 1.391 . S
C1798 H1788 0.950 . S
C1798 C1799 1.386 . S
C1798 C1800 1.391 . S
C1799 C1798 1.386 . S
C1799 C1803 1.393 . S
C1800 H1789 0.950 . S
C1800 C1798 1.391 . S
C1800 C1801 1.400 . S
C1801 C1795 1.491 . S
C1801 C1800 1.400 . S
C1801 C1802 1.398 . S
C1802 H1790 0.950 . S
C1802 C1801 1.398 . S
C1802 C1803 1.391 . S
C1803 H1791 0.950 . S
C1803 C1799 1.393 . S
C1803 C1802 1.391 . S
H1804 C1812 0.950 . S
H1805 C1817 0.950 . S
H1806 C1814 0.950 . S
H1807 C1816 0.950 . S
H1808 C1818 0.950 . S
H1809 C1820 0.950 . S
H1810 C1822 0.950 . S
H1811 C1823 0.950 . S
C1812 H1804 0.950 . S
C1812 C1813 1.386 . S
C1812 C1814 1.391 . S
C1813 C1812 1.386 . S
C1813 C1817 1.393 . S
C1814 H1806 0.950 . S
C1814 C1812 1.391 . S
C1814 C1815 1.400 . S
C1815 C1814 1.400 . S
C1815 C1816 1.398 . S
C1815 C1821 1.491 . S
C1816 H1807 0.950 . S
C1816 C1815 1.398 . S
C1816 C1817 1.391 . S
C1817 H1805 0.950 . S
C1817 C1813 1.393 . S
C1817 C1816 1.391 . S
C1818 H1808 0.950 . S
C1818 C1819 1.386 . S
C1818 C1820 1.391 . S
C1819 C1818 1.386 . S
C1819 C1823 1.393 . S
C1820 H1809 0.950 . S
C1820 C1818 1.391 . S
C1820 C1821 1.400 . S
C1821 C1815 1.491 . S
C1821 C1820 1.400 . S
C1821 C1822 1.398 . S
C1822 H1810 0.950 . S
C1822 C1821 1.398 . S
C1822 C1823 1.391 . S
C1823 H1811 0.950 . S
C1823 C1819 1.393 . S
C1823 C1822 1.391 . S
H1824 C1832 0.950 . S
H1825 C1837 0.950 . S
H1826 C1834 0.950 . S
H1827 C1836 0.950 1_556 S
H1828 C1838 0.950 . S
H1829 C1840 0.950 . S
H1830 C1842 0.950 . S
H1831 C1843 0.950 . S
C1832 H1824 0.950 . S
C1832 C1833 1.386 . S
C1832 C1834 1.391 . S
C1833 C1832 1.386 . S
C1833 C1837 1.393 1_554 S
C1834 H1826 0.950 . S
C1834 C1832 1.391 . S
C1834 C1835 1.400 . S
C1835 C1834 1.400 . S
C1835 C1836 1.398 . S
C1835 C1841 1.491 . S
C1836 H1827 0.950 1_554 S
C1836 C1835 1.398 . S
C1836 C1837 1.391 1_554 S
C1837 H1825 0.950 . S
C1837 C1833 1.393 1_556 S
C1837 C1836 1.391 1_556 S
C1838 H1828 0.950 . S
C1838 C1839 1.386 1_565 S
C1838 C1840 1.391 . S
C1839 C1838 1.386 1_545 S
C1839 C1843 1.393 . S
C1840 H1829 0.950 . S
C1840 C1838 1.391 . S
C1840 C1841 1.400 . S
C1841 C1835 1.491 . S
C1841 C1840 1.400 . S
C1841 C1842 1.398 . S
C1842 H1830 0.950 . S
C1842 C1841 1.398 . S
C1842 C1843 1.391 1_565 S
C1843 H1831 0.950 . S
C1843 C1839 1.393 . S
C1843 C1842 1.391 1_545 S
H1844 C1852 0.950 . S
H1845 C1857 0.950 1_556 S
H1846 C1854 0.950 . S
H1847 C1856 0.950 1_556 S
H1848 C1858 0.907 1_556 S
H1849 C1860 0.950 1_556 S
H1850 C1862 0.950 . S
H1851 C1863 0.950 . S
C1852 H1844 0.950 . S
C1852 C1853 1.386 . S
C1852 C1854 1.391 . S
C1853 C1852 1.386 . S
C1853 C1857 1.393 . S
C1854 H1846 0.950 . S
C1854 C1852 1.391 . S
C1854 C1855 1.400 . S
C1855 C1854 1.400 . S
C1855 C1856 1.398 . S
C1855 C1861 1.491 . S
C1856 H1847 0.950 1_554 S
C1856 C1855 1.398 . S
C1856 C1857 1.391 . S
C1857 H1845 0.950 1_554 S
C1857 C1853 1.393 . S
C1857 C1856 1.391 . S
C1858 H1848 0.907 1_554 S
C1858 C1859 1.386 . S
C1858 C1860 1.391 . S
C1859 C1858 1.386 . S
C1859 C1863 1.393 . S
C1860 H1849 0.950 1_554 S
C1860 C1858 1.391 . S
C1860 C1861 1.400 . S
C1861 C1855 1.491 . S
C1861 C1860 1.400 . S
C1861 C1862 1.398 . S
C1862 H1850 0.950 . S
C1862 C1861 1.398 . S
C1862 C1863 1.391 . S
C1863 H1851 0.950 . S
C1863 C1859 1.393 . S
C1863 C1862 1.391 . S
H1864 C1872 0.950 . S
H1865 C1877 0.950 . S
H1866 C1874 0.950 . S
H1867 C1876 0.950 . S
H1868 C1878 0.950 . S
H1869 C1880 0.950 . S
H1870 C1882 0.950 . S
H1871 C1883 0.950 . S
C1872 H1864 0.950 . S
C1872 C1873 1.386 . S
C1872 C1874 1.391 . S
C1873 C1872 1.386 . S
C1873 C1877 1.393 . S
C1874 H1866 0.950 . S
C1874 C1872 1.391 . S
C1874 C1875 1.400 . S
C1875 C1874 1.400 . S
C1875 C1876 1.398 . S
C1875 C1881 1.491 . S
C1876 H1867 0.950 . S
C1876 C1875 1.398 . S
C1876 C1877 1.391 . S
C1877 H1865 0.950 . S
C1877 C1873 1.393 . S
C1877 C1876 1.391 . S
C1878 H1868 0.950 . S
C1878 C1879 1.386 . S
C1878 C1880 1.391 . S
C1879 C1878 1.386 . S
C1879 C1883 1.393 . S
C1880 H1869 0.950 . S
C1880 C1878 1.391 . S
C1880 C1881 1.400 . S
C1881 C1875 1.491 . S
C1881 C1880 1.400 . S
C1881 C1882 1.398 . S
C1882 H1870 0.950 . S
C1882 C1881 1.398 . S
C1882 C1883 1.391 . S
C1883 H1871 0.950 . S
C1883 C1879 1.393 . S
C1883 C1882 1.391 . S
H1884 C1892 0.950 . S
H1885 C1897 0.950 . S
H1886 C1894 0.950 . S
H1887 C1896 0.950 . S
H1888 C1898 0.950 . S
H1889 C1900 0.950 . S
H1890 C1902 0.950 . S
H1891 C1903 0.950 . S
C1892 H1884 0.950 . S
C1892 C1893 1.386 . S
C1892 C1894 1.391 . S
C1893 C1892 1.386 . S
C1893 C1897 1.393 . S
C1894 H1886 0.950 . S
C1894 C1892 1.391 . S
C1894 C1895 1.400 . S
C1895 C1894 1.400 . S
C1895 C1896 1.398 . S
C1895 C1901 1.491 . S
C1896 H1887 0.950 . S
C1896 C1895 1.398 . S
C1896 C1897 1.391 . S
C1897 H1885 0.950 . S
C1897 C1893 1.393 . S
C1897 C1896 1.391 . S
C1898 H1888 0.950 . S
C1898 C1899 1.386 . S
C1898 C1900 1.391 . S
C1899 C1898 1.386 . S
C1899 C1903 1.393 . S
C1900 H1889 0.950 . S
C1900 C1898 1.391 . S
C1900 C1901 1.400 . S
C1901 C1895 1.491 . S
C1901 C1900 1.400 . S
C1901 C1902 1.398 . S
C1902 H1890 0.950 . S
C1902 C1901 1.398 . S
C1902 C1903 1.391 . S
C1903 H1891 0.950 . S
C1903 C1899 1.393 . S
C1903 C1902 1.391 . S
H1904 C1912 0.950 . S
H1905 C1917 0.950 . S
H1906 C1914 0.950 . S
H1907 C1916 0.950 . S
H1908 C1918 0.950 . S
H1909 C1920 0.950 . S
H1910 C1922 0.950 . S
H1911 C1923 0.950 . S
C1912 H1904 0.950 . S
C1912 C1913 1.386 . S
C1912 C1914 1.391 . S
C1913 C1912 1.386 . S
C1913 C1917 1.393 . S
C1914 H1906 0.950 . S
C1914 C1912 1.391 . S
C1914 C1915 1.400 . S
C1915 C1914 1.400 . S
C1915 C1916 1.398 . S
C1915 C1921 1.491 . S
C1916 H1907 0.950 . S
C1916 C1915 1.398 . S
C1916 C1917 1.391 . S
C1917 H1905 0.950 . S
C1917 C1913 1.393 . S
C1917 C1916 1.391 . S
C1918 H1908 0.950 . S
C1918 C1919 1.386 . S
C1918 C1920 1.391 . S
C1919 C1918 1.386 . S
C1919 C1923 1.393 . S
C1920 H1909 0.950 . S
C1920 C1918 1.391 . S
C1920 C1921 1.400 . S
C1921 C1915 1.491 . S
C1921 C1920 1.400 . S
C1921 C1922 1.398 . S
C1922 H1910 0.950 . S
C1922 C1921 1.398 . S
C1922 C1923 1.391 . S
C1923 H1911 0.950 . S
C1923 C1919 1.393 . S
C1923 C1922 1.391 . S
H1924 C1932 0.950 . S
H1925 C1937 0.950 . S
H1926 C1934 0.950 . S
H1927 C1936 0.950 . S
H1928 C1938 0.950 . S
H1929 C1940 0.950 . S
H1930 C1942 0.950 . S
H1931 C1943 0.950 . S
C1932 H1924 0.950 . S
C1932 C1933 1.386 . S
C1932 C1934 1.391 . S
C1933 C1932 1.386 . S
C1933 C1937 1.393 . S
C1934 H1926 0.950 . S
C1934 C1932 1.391 . S
C1934 C1935 1.400 . S
C1935 C1934 1.400 . S
C1935 C1936 1.398 . S
C1935 C1941 1.491 . S
C1936 H1927 0.950 . S
C1936 C1935 1.398 . S
C1936 C1937 1.391 . S
C1937 H1925 0.950 . S
C1937 C1933 1.393 . S
C1937 C1936 1.391 . S
C1938 H1928 0.950 . S
C1938 C1939 1.386 . S
C1938 C1940 1.391 . S
C1939 C1938 1.386 . S
C1939 C1943 1.393 . S
C1940 H1929 0.950 . S
C1940 C1938 1.391 . S
C1940 C1941 1.400 . S
C1941 C1935 1.491 . S
C1941 C1940 1.400 . S
C1941 C1942 1.398 . S
C1942 H1930 0.950 . S
C1942 C1941 1.398 . S
C1942 C1943 1.391 . S
C1943 H1931 0.950 . S
C1943 C1939 1.393 . S
C1943 C1942 1.391 . S
H1944 C1952 0.950 . S
H1945 C1957 0.950 . S
H1946 C1954 0.950 . S
H1947 C1956 0.950 . S
H1948 C1958 0.950 . S
H1949 C1960 0.950 . S
H1950 C1962 0.950 . S
H1951 C1963 0.950 . S
C1952 H1944 0.950 . S
C1952 C1953 1.386 . S
C1952 C1954 1.391 . S
C1953 C1952 1.386 . S
C1953 C1957 1.393 . S
C1954 H1946 0.950 . S
C1954 C1952 1.391 . S
C1954 C1955 1.400 . S
C1955 C1954 1.400 . S
C1955 C1956 1.398 . S
C1955 C1961 1.491 . S
C1956 H1947 0.950 . S
C1956 C1955 1.398 . S
C1956 C1957 1.391 . S
C1957 H1945 0.950 . S
C1957 C1953 1.393 . S
C1957 C1956 1.391 . S
C1958 H1948 0.950 . S
C1958 C1959 1.386 . S
C1958 C1960 1.391 . S
C1959 C1958 1.386 . S
C1959 C1963 1.393 . S
C1960 H1949 0.950 . S
C1960 C1958 1.391 . S
C1960 C1961 1.400 . S
C1961 C1955 1.491 . S
C1961 C1960 1.400 . S
C1961 C1962 1.398 . S
C1962 H1950 0.950 . S
C1962 C1961 1.398 . S
C1962 C1963 1.391 . S
C1963 H1951 0.950 . S
C1963 C1959 1.393 . S
C1963 C1962 1.391 . S
H1964 C1972 0.950 . S
H1965 C1977 0.950 . S
H1966 C1974 0.950 . S
H1967 C1976 0.950 . S
H1968 C1978 0.950 . S
H1969 C1980 0.950 . S
H1970 C1982 0.950 . S
H1971 C1983 0.950 . S
C1972 H1964 0.950 . S
C1972 C1973 1.386 . S
C1972 C1974 1.391 . S
C1973 C1972 1.386 . S
C1973 C1977 1.393 . S
C1974 H1966 0.950 . S
C1974 C1972 1.391 . S
C1974 C1975 1.400 . S
C1975 C1974 1.400 . S
C1975 C1976 1.398 . S
C1975 C1981 1.491 . S
C1976 H1967 0.950 . S
C1976 C1975 1.398 . S
C1976 C1977 1.391 . S
C1977 H1965 0.950 . S
C1977 C1973 1.393 . S
C1977 C1976 1.391 . S
C1978 H1968 0.950 . S
C1978 C1979 1.386 . S
C1978 C1980 1.391 . S
C1979 C1978 1.386 . S
C1979 C1983 1.393 . S
C1980 H1969 0.950 . S
C1980 C1978 1.391 . S
C1980 C1981 1.400 . S
C1981 C1975 1.491 . S
C1981 C1980 1.400 . S
C1981 C1982 1.398 . S
C1982 H1970 0.950 . S
C1982 C1981 1.398 . S
C1982 C1983 1.391 . S
C1983 H1971 0.950 . S
C1983 C1979 1.393 . S
C1983 C1982 1.391 . S
H1984 C1992 0.950 . S
H1985 C1997 0.950 . S
H1986 C1994 0.950 . S
H1987 C1996 0.950 . S
H1988 C1998 0.950 . S
H1989 C2000 0.950 . S
H1990 C2002 0.950 . S
H1991 C2003 0.950 . S
C1992 H1984 0.950 . S
C1992 C1993 1.386 . S
C1992 C1994 1.391 . S
C1993 C1992 1.386 . S
C1993 C1997 1.393 . S
C1994 H1986 0.950 . S
C1994 C1992 1.391 . S
C1994 C1995 1.400 . S
C1995 C1994 1.400 . S
C1995 C1996 1.398 . S
C1995 C2001 1.491 . S
C1996 H1987 0.950 . S
C1996 C1995 1.398 . S
C1996 C1997 1.391 . S
C1997 H1985 0.950 . S
C1997 C1993 1.393 . S
C1997 C1996 1.391 . S
C1998 H1988 0.950 . S
C1998 C1999 1.386 . S
C1998 C2000 1.391 . S
C1999 C1998 1.386 . S
C1999 C2003 1.393 . S
C2000 H1989 0.950 . S
C2000 C1998 1.391 . S
C2000 C2001 1.400 . S
C2001 C1995 1.491 . S
C2001 C2000 1.400 . S
C2001 C2002 1.398 . S
C2002 H1990 0.950 . S
C2002 C2001 1.398 . S
C2002 C2003 1.391 . S
C2003 H1991 0.950 . S
C2003 C1999 1.393 . S
C2003 C2002 1.391 . S
H2004 C2012 0.950 . S
H2005 C2017 0.950 . S
H2006 C2014 0.950 . S
H2007 C2016 0.950 . S
H2008 C2018 0.950 . S
H2009 C2020 0.950 . S
H2010 C2022 0.950 . S
H2011 C2023 0.950 . S
C2012 H2004 0.950 . S
C2012 C2013 1.386 . S
C2012 C2014 1.391 . S
C2013 C2012 1.386 . S
C2013 C2017 1.393 . S
C2014 H2006 0.950 . S
C2014 C2012 1.391 . S
C2014 C2015 1.400 . S
C2015 C2014 1.400 . S
C2015 C2016 1.398 . S
C2015 C2021 1.491 . S
C2016 H2007 0.950 . S
C2016 C2015 1.398 . S
C2016 C2017 1.391 . S
C2017 H2005 0.950 . S
C2017 C2013 1.393 . S
C2017 C2016 1.391 . S
C2018 H2008 0.950 . S
C2018 C2019 1.386 . S
C2018 C2020 1.391 . S
C2019 C2018 1.386 . S
C2019 C2023 1.393 . S
C2020 H2009 0.950 . S
C2020 C2018 1.391 . S
C2020 C2021 1.400 . S
C2021 C2015 1.491 . S
C2021 C2020 1.400 . S
C2021 C2022 1.398 . S
C2022 H2010 0.950 . S
C2022 C2021 1.398 . S
C2022 C2023 1.391 . S
C2023 H2011 0.950 . S
C2023 C2019 1.393 . S
C2023 C2022 1.391 . S
H2024 C2032 0.950 . S
H2025 C2037 0.950 . S
H2026 C2034 0.950 . S
H2027 C2036 0.950 . S
H2028 C2038 0.950 . S
H2029 C2040 0.950 . S
H2030 C2042 0.950 . S
H2031 C2043 0.950 . S
C2032 H2024 0.950 . S
C2032 C2033 1.386 . S
C2032 C2034 1.391 . S
C2033 C2032 1.386 . S
C2033 C2037 1.393 . S
C2034 H2026 0.950 . S
C2034 C2032 1.391 . S
C2034 C2035 1.400 . S
C2035 C2034 1.400 . S
C2035 C2036 1.398 . S
C2035 C2041 1.491 . S
C2036 H2027 0.950 . S
C2036 C2035 1.398 . S
C2036 C2037 1.391 . S
C2037 H2025 0.950 . S
C2037 C2033 1.393 . S
C2037 C2036 1.391 . S
C2038 H2028 0.950 . S
C2038 C2039 1.386 . S
C2038 C2040 1.391 . S
C2039 C2038 1.386 . S
C2039 C2043 1.393 . S
C2040 H2029 0.950 . S
C2040 C2038 1.391 . S
C2040 C2041 1.400 . S
C2041 C2035 1.491 . S
C2041 C2040 1.400 . S
C2041 C2042 1.398 . S
C2042 H2030 0.950 . S
C2042 C2041 1.398 . S
C2042 C2043 1.391 . S
C2043 H2031 0.950 . S
C2043 C2039 1.393 . S
C2043 C2042 1.391 . S
H2044 C2052 0.950 . S
H2045 C2057 0.950 . S
H2046 C2054 0.950 . S
H2047 C2056 0.950 . S
H2048 C2058 0.950 . S
H2049 C2060 0.950 . S
H2050 C2062 0.950 . S
H2051 C2063 0.950 . S
C2052 H2044 0.950 . S
C2052 C2053 1.386 . S
C2052 C2054 1.391 . S
C2053 C2052 1.386 . S
C2053 C2057 1.393 . S
C2054 H2046 0.950 . S
C2054 C2052 1.391 . S
C2054 C2055 1.400 . S
C2055 C2054 1.400 . S
C2055 C2056 1.398 . S
C2055 C2061 1.491 . S
C2056 H2047 0.950 . S
C2056 C2055 1.398 . S
C2056 C2057 1.391 . S
C2057 H2045 0.950 . S
C2057 C2053 1.393 . S
C2057 C2056 1.391 . S
C2058 H2048 0.950 . S
C2058 C2059 1.386 . S
C2058 C2060 1.391 . S
C2059 C2058 1.386 . S
C2059 C2063 1.393 . S
C2060 H2049 0.950 . S
C2060 C2058 1.391 . S
C2060 C2061 1.400 . S
C2061 C2055 1.491 . S
C2061 C2060 1.400 . S
C2061 C2062 1.398 . S
C2062 H2050 0.950 . S
C2062 C2061 1.398 . S
C2062 C2063 1.391 . S
C2063 H2051 0.950 . S
C2063 C2059 1.393 . S
C2063 C2062 1.391 . S
H2064 C2072 0.950 . S
H2065 C2077 0.950 . S
H2066 C2074 0.950 . S
H2067 C2076 0.950 . S
H2068 C2078 0.950 . S
H2069 C2080 0.950 . S
H2070 C2082 0.950 . S
H2071 C2083 0.950 . S
C2072 H2064 0.950 . S
C2072 C2073 1.386 . S
C2072 C2074 1.391 . S
C2073 C2072 1.386 . S
C2073 C2077 1.393 . S
C2074 H2066 0.950 . S
C2074 C2072 1.391 . S
C2074 C2075 1.400 . S
C2075 C2074 1.400 . S
C2075 C2076 1.398 . S
C2075 C2081 1.491 . S
C2076 H2067 0.950 . S
C2076 C2075 1.398 . S
C2076 C2077 1.391 . S
C2077 H2065 0.950 . S
C2077 C2073 1.393 . S
C2077 C2076 1.391 . S
C2078 H2068 0.950 . S
C2078 C2079 1.386 . S
C2078 C2080 1.391 . S
C2079 C2078 1.386 . S
C2079 C2083 1.393 . S
C2080 H2069 0.950 . S
C2080 C2078 1.391 . S
C2080 C2081 1.400 . S
C2081 C2075 1.491 . S
C2081 C2080 1.400 . S
C2081 C2082 1.398 . S
C2082 H2070 0.950 . S
C2082 C2081 1.398 . S
C2082 C2083 1.391 . S
C2083 H2071 0.950 . S
C2083 C2079 1.393 . S
C2083 C2082 1.391 . S
H2084 C2092 0.950 . S
H2085 C2097 0.950 . S
H2086 C2094 0.950 . S
H2087 C2096 0.950 . S
H2088 C2098 0.950 . S
H2089 C2100 0.950 . S
H2090 C2102 0.950 . S
H2091 C2103 0.950 . S
C2092 H2084 0.950 . S
C2092 C2093 1.386 . S
C2092 C2094 1.391 . S
C2093 C2092 1.386 . S
C2093 C2097 1.393 . S
C2094 H2086 0.950 . S
C2094 C2092 1.391 . S
C2094 C2095 1.400 . S
C2095 C2094 1.400 . S
C2095 C2096 1.398 . S
C2095 C2101 1.491 . S
C2096 H2087 0.950 . S
C2096 C2095 1.398 . S
C2096 C2097 1.391 . S
C2097 H2085 0.950 . S
C2097 C2093 1.393 . S
C2097 C2096 1.391 . S
C2098 H2088 0.950 . S
C2098 C2099 1.386 . S
C2098 C2100 1.391 . S
C2099 C2098 1.386 . S
C2099 C2103 1.393 . S
C2100 H2089 0.950 . S
C2100 C2098 1.391 . S
C2100 C2101 1.400 . S
C2101 C2095 1.491 . S
C2101 C2100 1.400 . S
C2101 C2102 1.398 . S
C2102 H2090 0.950 . S
C2102 C2101 1.398 . S
C2102 C2103 1.391 . S
C2103 H2091 0.950 . S
C2103 C2099 1.393 . S
C2103 C2102 1.391 . S
H2104 C2112 0.950 . S
H2105 C2117 0.950 . S
H2106 C2114 0.950 . S
H2107 C2116 0.950 . S
H2108 C2118 0.950 1_554 S
H2109 C2120 0.950 . S
H2110 C2122 0.950 . S
H2111 C2123 0.950 . S
C2112 H2104 0.950 . S
C2112 C2113 1.386 . S
C2112 C2114 1.391 . S
C2113 C2112 1.386 . S
C2113 C2117 1.393 . S
C2114 H2106 0.950 . S
C2114 C2112 1.391 . S
C2114 C2115 1.400 . S
C2115 C2114 1.400 . S
C2115 C2116 1.398 . S
C2115 C2121 1.491 . S
C2116 H2107 0.950 . S
C2116 C2115 1.398 . S
C2116 C2117 1.391 . S
C2117 H2105 0.950 . S
C2117 C2113 1.393 . S
C2117 C2116 1.391 . S
C2118 H2108 0.950 1_556 S
C2118 C2119 1.386 . S
C2118 C2120 1.391 . S
C2119 C2118 1.386 . S
C2119 C2123 1.393 . S
C2120 H2109 0.950 . S
C2120 C2118 1.391 . S
C2120 C2121 1.400 . S
C2121 C2115 1.491 . S
C2121 C2120 1.400 . S
C2121 C2122 1.398 . S
C2122 H2110 0.950 . S
C2122 C2121 1.398 . S
C2122 C2123 1.391 . S
C2123 H2111 0.950 . S
C2123 C2119 1.393 . S
C2123 C2122 1.391 . S
H2124 C2132 0.950 . S
H2125 C2137 0.950 . S
H2126 C2134 0.950 . S
H2127 C2136 0.950 . S
H2128 C2138 0.950 . S
H2129 C2140 0.950 . S
H2130 C2142 0.950 . S
H2131 C2143 0.950 . S
C2132 H2124 0.950 . S
C2132 C2133 1.386 . S
C2132 C2134 1.391 . S
C2133 C2132 1.386 . S
C2133 C2137 1.393 . S
C2134 H2126 0.950 . S
C2134 C2132 1.391 . S
C2134 C2135 1.400 . S
C2135 C2134 1.400 . S
C2135 C2136 1.398 . S
C2135 C2141 1.491 . S
C2136 H2127 0.950 . S
C2136 C2135 1.398 . S
C2136 C2137 1.391 . S
C2137 H2125 0.950 . S
C2137 C2133 1.393 . S
C2137 C2136 1.391 . S
C2138 H2128 0.950 . S
C2138 C2139 1.386 . S
C2138 C2140 1.391 . S
C2139 C2138 1.386 . S
C2139 C2143 1.393 . S
C2140 H2129 0.950 . S
C2140 C2138 1.391 . S
C2140 C2141 1.400 . S
C2141 C2135 1.491 . S
C2141 C2140 1.400 . S
C2141 C2142 1.398 . S
C2142 H2130 0.950 . S
C2142 C2141 1.398 . S
C2142 C2143 1.391 . S
C2143 H2131 0.950 . S
C2143 C2139 1.393 . S
C2143 C2142 1.391 . S
H2144 C2152 0.950 . S
H2145 C2157 0.950 . S
H2146 C2154 0.950 . S
H2147 C2156 0.950 . S
H2148 C2158 0.950 1_565 S
H2149 C2160 0.950 . S
H2150 C2162 0.950 . S
H2151 C2163 0.950 . S
C2152 H2144 0.950 . S
C2152 C2153 1.386 . S
C2152 C2154 1.391 . S
C2153 C2152 1.386 . S
C2153 C2157 1.393 . S
C2154 H2146 0.950 . S
C2154 C2152 1.391 . S
C2154 C2155 1.400 . S
C2155 C2154 1.400 . S
C2155 C2156 1.398 . S
C2155 C2161 1.491 . S
C2156 H2147 0.950 . S
C2156 C2155 1.398 . S
C2156 C2157 1.391 . S
C2157 H2145 0.950 . S
C2157 C2153 1.393 . S
C2157 C2156 1.391 . S
C2158 H2148 0.950 1_545 S
C2158 C2159 1.386 . S
C2158 C2160 1.391 . S
C2159 C2158 1.386 . S
C2159 C2163 1.393 . S
C2160 H2149 0.950 . S
C2160 C2158 1.391 . S
C2160 C2161 1.400 . S
C2161 C2155 1.491 . S
C2161 C2160 1.400 . S
C2161 C2162 1.398 . S
C2162 H2150 0.950 . S
C2162 C2161 1.398 . S
C2162 C2163 1.391 . S
C2163 H2151 0.950 . S
C2163 C2159 1.393 . S
C2163 C2162 1.391 . S
H2164 C2172 0.950 . S
H2165 C2177 0.950 . S
H2166 C2174 0.950 . S
H2167 C2176 0.950 . S
H2168 C2178 0.950 . S
H2169 C2180 0.950 . S
H2170 C2182 0.950 . S
H2171 C2183 0.950 . S
C2172 H2164 0.950 . S
C2172 C2173 1.386 . S
C2172 C2174 1.391 . S
C2173 C2172 1.386 . S
C2173 C2177 1.393 . S
C2174 H2166 0.950 . S
C2174 C2172 1.391 . S
C2174 C2175 1.400 . S
C2175 C2174 1.400 . S
C2175 C2176 1.398 . S
C2175 C2181 1.491 . S
C2176 H2167 0.950 . S
C2176 C2175 1.398 . S
C2176 C2177 1.391 . S
C2177 H2165 0.950 . S
C2177 C2173 1.393 . S
C2177 C2176 1.391 . S
C2178 H2168 0.950 . S
C2178 C2179 1.386 . S
C2178 C2180 1.391 . S
C2179 C2178 1.386 . S
C2179 C2183 1.393 . S
C2180 H2169 0.950 . S
C2180 C2178 1.391 . S
C2180 C2181 1.400 . S
C2181 C2175 1.491 . S
C2181 C2180 1.400 . S
C2181 C2182 1.398 . S
C2182 H2170 0.950 . S
C2182 C2181 1.398 . S
C2182 C2183 1.391 . S
C2183 H2171 0.950 . S
C2183 C2179 1.393 . S
C2183 C2182 1.391 . S
H2184 C2192 0.950 . S
H2185 C2197 0.950 . S
H2186 C2194 0.950 . S
H2187 C2196 0.950 . S
H2188 C2198 0.950 . S
H2189 C2200 0.950 . S
H2190 C2202 0.950 . S
H2191 C2203 0.950 . S
C2192 H2184 0.950 . S
C2192 C2193 1.386 . S
C2192 C2194 1.391 . S
C2193 C2192 1.386 . S
C2193 C2197 1.393 . S
C2194 H2186 0.950 . S
C2194 C2192 1.391 . S
C2194 C2195 1.400 . S
C2195 C2194 1.400 . S
C2195 C2196 1.398 . S
C2195 C2201 1.491 . S
C2196 H2187 0.950 . S
C2196 C2195 1.398 . S
C2196 C2197 1.391 . S
C2197 H2185 0.950 . S
C2197 C2193 1.393 . S
C2197 C2196 1.391 . S
C2198 H2188 0.950 . S
C2198 C2199 1.386 . S
C2198 C2200 1.391 . S
C2199 C2198 1.386 . S
C2199 C2203 1.393 . S
C2200 H2189 0.950 . S
C2200 C2198 1.391 . S
C2200 C2201 1.400 . S
C2201 C2195 1.491 . S
C2201 C2200 1.400 . S
C2201 C2202 1.398 . S
C2202 H2190 0.950 . S
C2202 C2201 1.398 . S
C2202 C2203 1.391 . S
C2203 H2191 0.950 . S
C2203 C2199 1.393 . S
C2203 C2202 1.391 . S
H2204 C2212 0.950 . S
H2205 C2217 0.950 . S
H2206 C2214 0.950 . S
H2207 C2216 0.950 . S
H2208 C2218 0.950 . S
H2209 C2220 0.950 . S
H2210 C2222 0.950 . S
H2211 C2223 0.950 . S
C2212 H2204 0.950 . S
C2212 C2213 1.386 . S
C2212 C2214 1.391 . S
C2213 C2212 1.386 . S
C2213 C2217 1.393 . S
C2214 H2206 0.950 . S
C2214 C2212 1.391 . S
C2214 C2215 1.400 . S
C2215 C2214 1.400 . S
C2215 C2216 1.398 . S
C2215 C2221 1.491 . S
C2216 H2207 0.950 . S
C2216 C2215 1.398 . S
C2216 C2217 1.391 . S
C2217 H2205 0.950 . S
C2217 C2213 1.393 . S
C2217 C2216 1.391 . S
C2218 H2208 0.950 . S
C2218 C2219 1.386 . S
C2218 C2220 1.391 . S
C2219 C2218 1.386 . S
C2219 C2223 1.393 . S
C2220 H2209 0.950 . S
C2220 C2218 1.391 . S
C2220 C2221 1.400 . S
C2221 C2215 1.491 . S
C2221 C2220 1.400 . S
C2221 C2222 1.398 . S
C2222 H2210 0.950 . S
C2222 C2221 1.398 . S
C2222 C2223 1.391 . S
C2223 H2211 0.950 . S
C2223 C2219 1.393 . S
C2223 C2222 1.391 . S
H2224 C2232 0.950 . S
H2225 C2237 0.950 . S
H2226 C2234 0.950 . S
H2227 C2236 0.950 . S
H2228 C2238 0.950 . S
H2229 C2240 0.950 . S
H2230 C2242 0.950 . S
H2231 C2243 0.950 . S
C2232 H2224 0.950 . S
C2232 C2233 1.386 . S
C2232 C2234 1.391 . S
C2233 C2232 1.386 . S
C2233 C2237 1.393 . S
C2234 H2226 0.950 . S
C2234 C2232 1.391 . S
C2234 C2235 1.400 . S
C2235 C2234 1.400 . S
C2235 C2236 1.398 . S
C2235 C2241 1.491 . S
C2236 H2227 0.950 . S
C2236 C2235 1.398 . S
C2236 C2237 1.391 . S
C2237 H2225 0.950 . S
C2237 C2233 1.393 . S
C2237 C2236 1.391 . S
C2238 H2228 0.950 . S
C2238 C2239 1.386 . S
C2238 C2240 1.391 . S
C2239 C2238 1.386 . S
C2239 C2243 1.393 . S
C2240 H2229 0.950 . S
C2240 C2238 1.391 . S
C2240 C2241 1.400 . S
C2241 C2235 1.491 . S
C2241 C2240 1.400 . S
C2241 C2242 1.398 . S
C2242 H2230 0.950 . S
C2242 C2241 1.398 . S
C2242 C2243 1.391 . S
C2243 H2231 0.950 . S
C2243 C2239 1.393 . S
C2243 C2242 1.391 . S
H2244 C2252 0.950 . S
H2245 C2257 0.950 . S
H2246 C2254 0.950 . S
H2247 C2256 0.950 . S
H2248 C2258 0.950 . S
H2249 C2260 0.950 . S
H2250 C2262 0.950 . S
H2251 C2263 0.950 . S
C2252 H2244 0.950 . S
C2252 C2253 1.386 . S
C2252 C2254 1.391 . S
C2253 C2252 1.386 . S
C2253 C2257 1.393 . S
C2254 H2246 0.950 . S
C2254 C2252 1.391 . S
C2254 C2255 1.400 . S
C2255 C2254 1.400 . S
C2255 C2256 1.398 . S
C2255 C2261 1.491 . S
C2256 H2247 0.950 . S
C2256 C2255 1.398 . S
C2256 C2257 1.391 . S
C2257 H2245 0.950 . S
C2257 C2253 1.393 . S
C2257 C2256 1.391 . S
C2258 H2248 0.950 . S
C2258 C2259 1.386 . S
C2258 C2260 1.391 . S
C2259 C2258 1.386 . S
C2259 C2263 1.393 . S
C2260 H2249 0.950 . S
C2260 C2258 1.391 . S
C2260 C2261 1.400 . S
C2261 C2255 1.491 . S
C2261 C2260 1.400 . S
C2261 C2262 1.398 . S
C2262 H2250 0.950 . S
C2262 C2261 1.398 . S
C2262 C2263 1.391 . S
C2263 H2251 0.950 . S
C2263 C2259 1.393 . S
C2263 C2262 1.391 . S
H2264 C2272 0.950 . S
H2265 C2277 0.950 . S
H2266 C2274 0.950 . S
H2267 C2276 0.950 . S
H2268 C2278 0.950 . S
H2269 C2280 0.950 . S
H2270 C2282 0.950 . S
H2271 C2283 0.950 . S
C2272 H2264 0.950 . S
C2272 C2273 1.386 . S
C2272 C2274 1.391 . S
C2273 C2272 1.386 . S
C2273 C2277 1.393 . S
C2274 H2266 0.950 . S
C2274 C2272 1.391 . S
C2274 C2275 1.400 . S
C2275 C2274 1.400 . S
C2275 C2276 1.398 . S
C2275 C2281 1.491 . S
C2276 H2267 0.950 . S
C2276 C2275 1.398 . S
C2276 C2277 1.391 . S
C2277 H2265 0.950 . S
C2277 C2273 1.393 . S
C2277 C2276 1.391 . S
C2278 H2268 0.950 . S
C2278 C2279 1.386 . S
C2278 C2280 1.391 . S
C2279 C2278 1.386 . S
C2279 C2283 1.393 . S
C2280 H2269 0.950 . S
C2280 C2278 1.391 . S
C2280 C2281 1.400 . S
C2281 C2275 1.491 . S
C2281 C2280 1.400 . S
C2281 C2282 1.398 . S
C2282 H2270 0.950 . S
C2282 C2281 1.398 . S
C2282 C2283 1.391 . S
C2283 H2271 0.950 . S
C2283 C2279 1.393 . S
C2283 C2282 1.391 . S
H2284 C2292 0.950 . S
H2285 C2297 0.950 . S
H2286 C2294 0.950 . S
H2287 C2296 0.950 . S
H2288 C2298 0.950 . S
H2289 C2300 0.950 . S
H2290 C2302 0.950 . S
H2291 C2303 0.950 . S
C2292 H2284 0.950 . S
C2292 C2293 1.386 . S
C2292 C2294 1.391 . S
C2293 C2292 1.386 . S
C2293 C2297 1.393 . S
C2294 H2286 0.950 . S
C2294 C2292 1.391 . S
C2294 C2295 1.400 . S
C2295 C2294 1.400 . S
C2295 C2296 1.398 . S
C2295 C2301 1.491 . S
C2296 H2287 0.950 . S
C2296 C2295 1.398 . S
C2296 C2297 1.391 . S
C2297 H2285 0.950 . S
C2297 C2293 1.393 . S
C2297 C2296 1.391 . S
C2298 H2288 0.950 . S
C2298 C2299 1.386 . S
C2298 C2300 1.391 . S
C2299 C2298 1.386 . S
C2299 C2303 1.393 . S
C2300 H2289 0.950 . S
C2300 C2298 1.391 . S
C2300 C2301 1.400 . S
C2301 C2295 1.491 . S
C2301 C2300 1.400 . S
C2301 C2302 1.398 . S
C2302 H2290 0.950 . S
C2302 C2301 1.398 . S
C2302 C2303 1.391 . S
C2303 H2291 0.950 . S
C2303 C2299 1.393 . S
C2303 C2302 1.391 . S
H2304 C2312 0.950 . S
H2305 C2317 0.950 . S
H2306 C2314 0.950 . S
H2307 C2316 0.950 . S
H2308 C2318 0.950 . S
H2309 C2320 0.950 1_556 S
H2310 C2322 0.950 . S
H2311 C2323 0.950 . S
C2312 H2304 0.950 . S
C2312 C2313 1.386 . S
C2312 C2314 1.391 . S
C2313 C2312 1.386 . S
C2313 C2317 1.393 . S
C2314 H2306 0.950 . S
C2314 C2312 1.391 . S
C2314 C2315 1.400 . S
C2315 C2314 1.400 . S
C2315 C2316 1.398 . S
C2315 C2321 1.491 . S
C2316 H2307 0.950 . S
C2316 C2315 1.398 . S
C2316 C2317 1.391 . S
C2317 H2305 0.950 . S
C2317 C2313 1.393 . S
C2317 C2316 1.391 . S
C2318 H2308 0.950 . S
C2318 C2319 1.386 1_556 S
C2318 C2320 1.391 1_556 S
C2319 C2318 1.386 1_554 S
C2319 C2323 1.393 . S
C2320 H2309 0.950 1_554 S
C2320 C2318 1.391 1_554 S
C2320 C2321 1.400 . S
C2321 C2315 1.491 . S
C2321 C2320 1.400 . S
C2321 C2322 1.398 . S
C2322 H2310 0.950 . S
C2322 C2321 1.398 . S
C2322 C2323 1.391 . S
C2323 H2311 0.950 . S
C2323 C2319 1.393 . S
C2323 C2322 1.391 . S
H2324 C2332 0.950 . S
H2325 C2337 0.950 . S
H2326 C2334 0.950 . S
H2327 C2336 0.950 . S
H2328 C2338 0.947 1_556 S
H2329 C2340 0.989 . S
H2330 C2342 0.950 . S
H2331 C2343 0.950 . S
C2332 H2324 0.950 . S
C2332 C2333 1.386 . S
C2332 C2334 1.391 . S
C2333 C2332 1.386 . S
C2333 C2337 1.393 . S
C2334 H2326 0.950 . S
C2334 C2332 1.391 . S
C2334 C2335 1.400 . S
C2335 C2334 1.400 . S
C2335 C2336 1.398 . S
C2335 C2341 1.491 . S
C2336 H2327 0.950 . S
C2336 C2335 1.398 . S
C2336 C2337 1.391 . S
C2337 H2325 0.950 . S
C2337 C2333 1.393 . S
C2337 C2336 1.391 . S
C2338 H2328 0.947 1_554 S
C2338 C2339 1.386 . S
C2338 C2340 1.391 . S
C2339 C2338 1.386 . S
C2339 C2343 1.393 . S
C2340 H2329 0.989 . S
C2340 C2338 1.391 . S
C2340 C2341 1.400 . S
C2341 C2335 1.491 . S
C2341 C2340 1.400 . S
C2341 C2342 1.398 . S
C2342 H2330 0.950 . S
C2342 C2341 1.398 . S
C2342 C2343 1.391 . S
C2343 H2331 0.950 . S
C2343 C2339 1.393 . S
C2343 C2342 1.391 . S
H2344 C2352 0.950 . S
H2345 C2357 0.950 . S
H2346 C2354 0.950 . S
H2347 C2356 0.950 . S
H2348 C2358 0.950 . S
H2349 C2360 0.950 . S
H2350 C2362 0.950 . S
H2351 C2363 0.950 . S
C2352 H2344 0.950 . S
C2352 C2353 1.386 . S
C2352 C2354 1.391 . S
C2353 C2352 1.386 . S
C2353 C2357 1.393 . S
C2354 H2346 0.950 . S
C2354 C2352 1.391 . S
C2354 C2355 1.400 . S
C2355 C2354 1.400 . S
C2355 C2356 1.398 . S
C2355 C2361 1.491 . S
C2356 H2347 0.950 . S
C2356 C2355 1.398 . S
C2356 C2357 1.391 . S
C2357 H2345 0.950 . S
C2357 C2353 1.393 . S
C2357 C2356 1.391 . S
C2358 H2348 0.950 . S
C2358 C2359 1.386 . S
C2358 C2360 1.391 . S
C2359 C2358 1.386 . S
C2359 C2363 1.393 . S
C2360 H2349 0.950 . S
C2360 C2358 1.391 . S
C2360 C2361 1.400 . S
C2361 C2355 1.491 . S
C2361 C2360 1.400 . S
C2361 C2362 1.398 . S
C2362 H2350 0.950 . S
C2362 C2361 1.398 . S
C2362 C2363 1.391 . S
C2363 H2351 0.950 . S
C2363 C2359 1.393 . S
C2363 C2362 1.391 . S
H2364 C2372 0.950 . S
H2365 C2377 0.950 . S
H2366 C2374 0.950 . S
H2367 C2376 0.950 . S
H2368 C2378 0.950 . S
H2369 C2380 0.950 . S
H2370 C2382 0.950 . S
H2371 C2383 0.950 . S
C2372 H2364 0.950 . S
C2372 C2373 1.386 . S
C2372 C2374 1.391 . S
C2373 C2372 1.386 . S
C2373 C2377 1.393 . S
C2374 H2366 0.950 . S
C2374 C2372 1.391 . S
C2374 C2375 1.400 . S
C2375 C2374 1.400 . S
C2375 C2376 1.398 . S
C2375 C2381 1.491 . S
C2376 H2367 0.950 . S
C2376 C2375 1.398 . S
C2376 C2377 1.391 . S
C2377 H2365 0.950 . S
C2377 C2373 1.393 . S
C2377 C2376 1.391 . S
C2378 H2368 0.950 . S
C2378 C2379 1.386 . S
C2378 C2380 1.391 . S
C2379 C2378 1.386 . S
C2379 C2383 1.393 . S
C2380 H2369 0.950 . S
C2380 C2378 1.391 . S
C2380 C2381 1.400 . S
C2381 C2375 1.491 . S
C2381 C2380 1.400 . S
C2381 C2382 1.398 . S
C2382 H2370 0.950 . S
C2382 C2381 1.398 . S
C2382 C2383 1.391 . S
C2383 H2371 0.950 . S
C2383 C2379 1.393 . S
C2383 C2382 1.391 . S
H2384 C2392 0.950 . S
H2385 C2397 0.950 1_545 S
H2386 C2394 0.950 . S
H2387 C2396 0.950 . S
H2388 C2398 0.950 . S
H2389 C2400 0.950 . S
H2390 C2402 0.950 . S
H2391 C2403 0.950 . S
C2392 H2384 0.950 . S
C2392 C2393 1.386 . S
C2392 C2394 1.391 . S
C2393 C2392 1.386 . S
C2393 C2397 1.393 . S
C2394 H2386 0.950 . S
C2394 C2392 1.391 . S
C2394 C2395 1.400 . S
C2395 C2394 1.400 . S
C2395 C2396 1.398 . S
C2395 C2401 1.491 . S
C2396 H2387 0.950 . S
C2396 C2395 1.398 . S
C2396 C2397 1.391 . S
C2397 H2385 0.950 1_565 S
C2397 C2393 1.393 . S
C2397 C2396 1.391 . S
C2398 H2388 0.950 . S
C2398 C2399 1.386 . S
C2398 C2400 1.391 . S
C2399 C2398 1.386 . S
C2399 C2403 1.393 . S
C2400 H2389 0.950 . S
C2400 C2398 1.391 . S
C2400 C2401 1.400 . S
C2401 C2395 1.491 . S
C2401 C2400 1.400 . S
C2401 C2402 1.398 . S
C2402 H2390 0.950 . S
C2402 C2401 1.398 . S
C2402 C2403 1.391 . S
C2403 H2391 0.950 . S
C2403 C2399 1.393 . S
C2403 C2402 1.391 . S
H2404 C2412 0.950 . S
H2405 C2417 0.950 . S
H2406 C2414 0.950 . S
H2407 C2416 0.950 . S
H2408 C2418 0.950 . S
H2409 C2420 0.950 . S
H2410 C2422 0.950 . S
H2411 C2423 0.950 . S
C2412 H2404 0.950 . S
C2412 C2413 1.386 . S
C2412 C2414 1.391 . S
C2413 C2412 1.386 . S
C2413 C2417 1.393 . S
C2414 H2406 0.950 . S
C2414 C2412 1.391 . S
C2414 C2415 1.400 . S
C2415 C2414 1.400 . S
C2415 C2416 1.398 . S
C2415 C2421 1.491 . S
C2416 H2407 0.950 . S
C2416 C2415 1.398 . S
C2416 C2417 1.391 . S
C2417 H2405 0.950 . S
C2417 C2413 1.393 . S
C2417 C2416 1.391 . S
C2418 H2408 0.950 . S
C2418 C2419 1.386 . S
C2418 C2420 1.391 . S
C2419 C2418 1.386 . S
C2419 C2423 1.393 . S
C2420 H2409 0.950 . S
C2420 C2418 1.391 . S
C2420 C2421 1.400 . S
C2421 C2415 1.491 . S
C2421 C2420 1.400 . S
C2421 C2422 1.398 . S
C2422 H2410 0.950 . S
C2422 C2421 1.398 . S
C2422 C2423 1.391 . S
C2423 H2411 0.950 . S
C2423 C2419 1.393 . S
C2423 C2422 1.391 . S
H2424 C2432 0.950 . S
H2425 C2437 0.950 . S
H2426 C2434 0.950 . S
H2427 C2436 0.950 . S
H2428 C2438 0.950 . S
H2429 C2440 0.950 . S
H2430 C2442 0.950 . S
H2431 C2443 0.950 . S
C2432 H2424 0.950 . S
C2432 C2433 1.386 . S
C2432 C2434 1.391 . S
C2433 C2432 1.386 . S
C2433 C2437 1.393 . S
C2434 H2426 0.950 . S
C2434 C2432 1.391 . S
C2434 C2435 1.400 . S
C2435 C2434 1.400 . S
C2435 C2436 1.398 . S
C2435 C2441 1.491 . S
C2436 H2427 0.950 . S
C2436 C2435 1.398 . S
C2436 C2437 1.391 . S
C2437 H2425 0.950 . S
C2437 C2433 1.393 . S
C2437 C2436 1.391 . S
C2438 H2428 0.950 . S
C2438 C2439 1.386 . S
C2438 C2440 1.391 . S
C2439 C2438 1.386 . S
C2439 C2443 1.393 . S
C2440 H2429 0.950 . S
C2440 C2438 1.391 . S
C2440 C2441 1.400 . S
C2441 C2435 1.491 . S
C2441 C2440 1.400 . S
C2441 C2442 1.398 . S
C2442 H2430 0.950 . S
C2442 C2441 1.398 . S
C2442 C2443 1.391 . S
C2443 H2431 0.950 . S
C2443 C2439 1.393 . S
C2443 C2442 1.391 . S
H2444 C2452 0.950 . S
H2445 C2457 0.950 . S
H2446 C2454 0.950 . S
H2447 C2456 0.950 . S
H2448 C2458 0.950 . S
H2449 C2460 0.950 . S
H2450 C2462 0.950 . S
H2451 C2463 0.950 . S
C2452 H2444 0.950 . S
C2452 C2453 1.386 . S
C2452 C2454 1.391 . S
C2453 C2452 1.386 . S
C2453 C2457 1.393 . S
C2454 H2446 0.950 . S
C2454 C2452 1.391 . S
C2454 C2455 1.400 . S
C2455 C2454 1.400 . S
C2455 C2456 1.398 . S
C2455 C2461 1.491 . S
C2456 H2447 0.950 . S
C2456 C2455 1.398 . S
C2456 C2457 1.391 . S
C2457 H2445 0.950 . S
C2457 C2453 1.393 . S
C2457 C2456 1.391 . S
C2458 H2448 0.950 . S
C2458 C2459 1.386 . S
C2458 C2460 1.391 . S
C2459 C2458 1.386 . S
C2459 C2463 1.393 . S
C2460 H2449 0.950 . S
C2460 C2458 1.391 . S
C2460 C2461 1.400 . S
C2461 C2455 1.491 . S
C2461 C2460 1.400 . S
C2461 C2462 1.398 . S
C2462 H2450 0.950 . S
C2462 C2461 1.398 . S
C2462 C2463 1.391 . S
C2463 H2451 0.950 . S
C2463 C2459 1.393 . S
C2463 C2462 1.391 . S
H2464 C2472 0.950 . S
H2465 C2477 0.950 . S
H2466 C2474 0.950 . S
H2467 C2476 0.950 . S
H2468 C2478 0.950 . S
H2469 C2480 0.950 . S
H2470 C2482 0.950 . S
H2471 C2483 0.950 . S
C2472 H2464 0.950 . S
C2472 C2473 1.386 . S
C2472 C2474 1.391 . S
C2473 C2472 1.386 . S
C2473 C2477 1.393 . S
C2474 H2466 0.950 . S
C2474 C2472 1.391 . S
C2474 C2475 1.400 . S
C2475 C2474 1.400 . S
C2475 C2476 1.398 . S
C2475 C2481 1.491 . S
C2476 H2467 0.950 . S
C2476 C2475 1.398 . S
C2476 C2477 1.391 . S
C2477 H2465 0.950 . S
C2477 C2473 1.393 . S
C2477 C2476 1.391 . S
C2478 H2468 0.950 . S
C2478 C2479 1.386 . S
C2478 C2480 1.391 . S
C2479 C2478 1.386 . S
C2479 C2483 1.393 . S
C2480 H2469 0.950 . S
C2480 C2478 1.391 . S
C2480 C2481 1.400 . S
C2481 C2475 1.491 . S
C2481 C2480 1.400 . S
C2481 C2482 1.398 . S
C2482 H2470 0.950 . S
C2482 C2481 1.398 . S
C2482 C2483 1.391 . S
C2483 H2471 0.950 . S
C2483 C2479 1.393 . S
C2483 C2482 1.391 . S
H2484 C2492 0.950 . S
H2485 C2497 0.950 . S
H2486 C2494 0.950 . S
H2487 C2496 0.950 . S
H2488 C2498 0.950 . S
H2489 C2500 0.950 . S
H2490 C2502 0.950 . S
H2491 C2503 0.950 . S
C2492 H2484 0.950 . S
C2492 C2493 1.386 . S
C2492 C2494 1.391 . S
C2493 C2492 1.386 . S
C2493 C2497 1.393 . S
C2494 H2486 0.950 . S
C2494 C2492 1.391 . S
C2494 C2495 1.400 . S
C2495 C2494 1.400 . S
C2495 C2496 1.398 . S
C2495 C2501 1.491 . S
C2496 H2487 0.950 . S
C2496 C2495 1.398 . S
C2496 C2497 1.391 . S
C2497 H2485 0.950 . S
C2497 C2493 1.393 . S
C2497 C2496 1.391 . S
C2498 H2488 0.950 . S
C2498 C2499 1.386 . S
C2498 C2500 1.391 . S
C2499 C2498 1.386 . S
C2499 C2503 1.393 . S
C2500 H2489 0.950 . S
C2500 C2498 1.391 . S
C2500 C2501 1.400 . S
C2501 C2495 1.491 . S
C2501 C2500 1.400 . S
C2501 C2502 1.398 . S
C2502 H2490 0.950 . S
C2502 C2501 1.398 . S
C2502 C2503 1.391 . S
C2503 H2491 0.950 . S
C2503 C2499 1.393 . S
C2503 C2502 1.391 . S
H2504 C2512 0.950 . S
H2505 C2517 0.950 . S
H2506 C2514 0.950 . S
H2507 C2516 0.950 . S
H2508 C2518 0.950 1_655 S
H2509 C2520 0.950 1_655 S
H2510 C2522 0.950 . S
H2511 C2523 0.950 . S
C2512 H2504 0.950 . S
C2512 C2513 1.386 . S
C2512 C2514 1.391 . S
C2513 C2512 1.386 . S
C2513 C2517 1.393 1_455 S
C2514 H2506 0.950 . S
C2514 C2512 1.391 . S
C2514 C2515 1.400 . S
C2515 C2514 1.400 . S
C2515 C2516 1.398 1_455 S
C2515 C2521 1.491 . S
C2516 H2507 0.950 . S
C2516 C2515 1.398 1_655 S
C2516 C2517 1.391 . S
C2517 H2505 0.950 . S
C2517 C2513 1.393 1_655 S
C2517 C2516 1.391 . S
C2518 H2508 0.950 1_455 S
C2518 C2519 1.386 . S
C2518 C2520 1.391 . S
C2519 C2518 1.386 . S
C2519 C2523 1.393 . S
C2520 H2509 0.950 1_455 S
C2520 C2518 1.391 . S
C2520 C2521 1.400 1_554 S
C2521 C2515 1.491 . S
C2521 C2520 1.400 1_556 S
C2521 C2522 1.398 . S
C2522 H2510 0.950 . S
C2522 C2521 1.398 . S
C2522 C2523 1.391 1_556 S
C2523 H2511 0.950 . S
C2523 C2519 1.393 . S
C2523 C2522 1.391 1_554 S
H2524 C2532 0.950 . S
H2525 C2537 0.950 . S
H2526 C2534 0.950 . S
H2527 C2536 0.950 . S
H2528 C2538 0.950 . S
H2529 C2540 0.950 . S
H2530 C2542 0.950 . S
H2531 C2543 0.950 . S
C2532 H2524 0.950 . S
C2532 C2533 1.386 . S
C2532 C2534 1.391 1_455 S
C2533 C2532 1.386 . S
C2533 C2537 1.393 . S
C2534 H2526 0.950 . S
C2534 C2532 1.391 1_655 S
C2534 C2535 1.400 . S
C2535 C2534 1.400 . S
C2535 C2536 1.398 1_655 S
C2535 C2541 1.491 . S
C2536 H2527 0.950 . S
C2536 C2535 1.398 1_455 S
C2536 C2537 1.391 . S
C2537 H2525 0.950 . S
C2537 C2533 1.393 . S
C2537 C2536 1.391 . S
C2538 H2528 0.950 . S
C2538 C2539 1.386 . S
C2538 C2540 1.391 . S
C2539 C2538 1.386 . S
C2539 C2543 1.393 . S
C2540 H2529 0.950 . S
C2540 C2538 1.391 . S
C2540 C2541 1.400 . S
C2541 C2535 1.491 . S
C2541 C2540 1.400 . S
C2541 C2542 1.398 . S
C2542 H2530 0.950 . S
C2542 C2541 1.398 . S
C2542 C2543 1.391 . S
C2543 H2531 0.950 . S
C2543 C2539 1.393 . S
C2543 C2542 1.391 . S
H2544 C2552 0.950 . S
H2545 C2557 0.950 . S
H2546 C2554 0.950 . S
H2547 C2556 0.950 . S
H2548 C2558 0.950 . S
H2549 C2560 0.950 . S
H2550 C2562 0.950 . S
H2551 C2563 0.950 . S
C2552 H2544 0.950 . S
C2552 C2553 1.386 . S
C2552 C2554 1.391 . S
C2553 C2552 1.386 . S
C2553 C2557 1.393 . S
C2554 H2546 0.950 . S
C2554 C2552 1.391 . S
C2554 C2555 1.400 . S
C2555 C2554 1.400 . S
C2555 C2556 1.398 . S
C2555 C2561 1.491 . S
C2556 H2547 0.950 . S
C2556 C2555 1.398 . S
C2556 C2557 1.391 . S
C2557 H2545 0.950 . S
C2557 C2553 1.393 . S
C2557 C2556 1.391 . S
C2558 H2548 0.950 . S
C2558 C2559 1.386 . S
C2558 C2560 1.391 . S
C2559 C2558 1.386 . S
C2559 C2563 1.393 . S
C2560 H2549 0.950 . S
C2560 C2558 1.391 . S
C2560 C2561 1.400 . S
C2561 C2555 1.491 . S
C2561 C2560 1.400 . S
C2561 C2562 1.398 . S
C2562 H2550 0.950 . S
C2562 C2561 1.398 . S
C2562 C2563 1.391 . S
C2563 H2551 0.950 . S
C2563 C2559 1.393 . S
C2563 C2562 1.391 . S
H2564 C2572 0.950 . S
H2565 C2577 0.950 . S
H2566 C2574 0.950 . S
H2567 C2576 0.950 . S
H2568 C2578 0.950 . S
H2569 C2580 0.950 . S
H2570 C2582 0.950 . S
H2571 C2583 0.950 . S
C2572 H2564 0.950 . S
C2572 C2573 1.386 . S
C2572 C2574 1.391 . S
C2573 C2572 1.386 . S
C2573 C2577 1.393 . S
C2574 H2566 0.950 . S
C2574 C2572 1.391 . S
C2574 C2575 1.400 . S
C2575 C2574 1.400 . S
C2575 C2576 1.398 . S
C2575 C2581 1.491 . S
C2576 H2567 0.950 . S
C2576 C2575 1.398 . S
C2576 C2577 1.391 . S
C2577 H2565 0.950 . S
C2577 C2573 1.393 . S
C2577 C2576 1.391 . S
C2578 H2568 0.950 . S
C2578 C2579 1.386 . S
C2578 C2580 1.391 . S
C2579 C2578 1.386 . S
C2579 C2583 1.393 . S
C2580 H2569 0.950 . S
C2580 C2578 1.391 . S
C2580 C2581 1.400 . S
C2581 C2575 1.491 . S
C2581 C2580 1.400 . S
C2581 C2582 1.398 . S
C2582 H2570 0.950 . S
C2582 C2581 1.398 . S
C2582 C2583 1.391 . S
C2583 H2571 0.950 . S
C2583 C2579 1.393 . S
C2583 C2582 1.391 . S
H2584 C2592 0.950 . S
H2585 C2597 0.950 . S
H2586 C2594 0.950 . S
H2587 C2596 0.950 . S
H2588 C2598 0.950 . S
H2589 C2600 0.950 . S
H2590 C2602 0.950 . S
H2591 C2603 0.950 . S
C2592 H2584 0.950 . S
C2592 C2593 1.386 . S
C2592 C2594 1.391 . S
C2593 C2592 1.386 . S
C2593 C2597 1.393 . S
C2594 H2586 0.950 . S
C2594 C2592 1.391 . S
C2594 C2595 1.400 . S
C2595 C2594 1.400 . S
C2595 C2596 1.398 . S
C2595 C2601 1.491 . S
C2596 H2587 0.950 . S
C2596 C2595 1.398 . S
C2596 C2597 1.391 . S
C2597 H2585 0.950 . S
C2597 C2593 1.393 . S
C2597 C2596 1.391 . S
C2598 H2588 0.950 . S
C2598 C2599 1.386 . S
C2598 C2600 1.391 . S
C2599 C2598 1.386 . S
C2599 C2603 1.393 . S
C2600 H2589 0.950 . S
C2600 C2598 1.391 . S
C2600 C2601 1.400 . S
C2601 C2595 1.491 . S
C2601 C2600 1.400 . S
C2601 C2602 1.398 . S
C2602 H2590 0.950 . S
C2602 C2601 1.398 . S
C2602 C2603 1.391 . S
C2603 H2591 0.950 . S
C2603 C2599 1.393 . S
C2603 C2602 1.391 . S
H2604 C2612 0.950 . S
H2605 C2617 0.950 . S
H2606 C2614 0.950 . S
H2607 C2616 0.950 . S
H2608 C2618 0.950 . S
H2609 C2620 0.950 . S
H2610 C2622 0.950 . S
H2611 C2623 0.950 . S
C2612 H2604 0.950 . S
C2612 C2613 1.386 . S
C2612 C2614 1.391 . S
C2613 C2612 1.386 . S
C2613 C2617 1.393 . S
C2614 H2606 0.950 . S
C2614 C2612 1.391 . S
C2614 C2615 1.400 . S
C2615 C2614 1.400 . S
C2615 C2616 1.398 . S
C2615 C2621 1.491 . S
C2616 H2607 0.950 . S
C2616 C2615 1.398 . S
C2616 C2617 1.391 . S
C2617 H2605 0.950 . S
C2617 C2613 1.393 . S
C2617 C2616 1.391 . S
C2618 H2608 0.950 . S
C2618 C2619 1.386 . S
C2618 C2620 1.391 . S
C2619 C2618 1.386 . S
C2619 C2623 1.393 . S
C2620 H2609 0.950 . S
C2620 C2618 1.391 . S
C2620 C2621 1.400 . S
C2621 C2615 1.491 . S
C2621 C2620 1.400 . S
C2621 C2622 1.398 . S
C2622 H2610 0.950 . S
C2622 C2621 1.398 . S
C2622 C2623 1.391 . S
C2623 H2611 0.950 . S
C2623 C2619 1.393 . S
C2623 C2622 1.391 . S
H2624 C2632 0.950 . S
H2625 C2637 0.950 . S
H2626 C2634 0.950 . S
H2627 C2636 0.950 . S
H2628 C2638 0.950 . S
H2629 C2640 0.950 . S
H2630 C2642 0.950 . S
H2631 C2643 0.950 . S
C2632 H2624 0.950 . S
C2632 C2633 1.386 . S
C2632 C2634 1.391 . S
C2633 C2632 1.386 . S
C2633 C2637 1.393 . S
C2634 H2626 0.950 . S
C2634 C2632 1.391 . S
C2634 C2635 1.400 . S
C2635 C2634 1.400 . S
C2635 C2636 1.398 . S
C2635 C2641 1.491 . S
C2636 H2627 0.950 . S
C2636 C2635 1.398 . S
C2636 C2637 1.391 . S
C2637 H2625 0.950 . S
C2637 C2633 1.393 . S
C2637 C2636 1.391 . S
C2638 H2628 0.950 . S
C2638 C2639 1.386 . S
C2638 C2640 1.391 . S
C2639 C2638 1.386 . S
C2639 C2643 1.393 . S
C2640 H2629 0.950 . S
C2640 C2638 1.391 . S
C2640 C2641 1.400 . S
C2641 C2635 1.491 . S
C2641 C2640 1.400 . S
C2641 C2642 1.398 . S
C2642 H2630 0.950 . S
C2642 C2641 1.398 . S
C2642 C2643 1.391 . S
C2643 H2631 0.950 . S
C2643 C2639 1.393 . S
C2643 C2642 1.391 . S
H2644 C2652 0.950 . S
H2645 C2657 0.938 1_554 S
H2646 C2654 0.950 . S
H2647 C2656 0.950 . S
H2648 C2658 0.950 . S
H2649 C2660 0.950 . S
H2650 C2662 0.950 . S
H2651 C2663 0.950 . S
C2652 H2644 0.950 . S
C2652 C2653 1.386 . S
C2652 C2654 1.391 1_554 S
C2653 C2652 1.386 . S
C2653 C2657 1.393 1_554 S
C2654 H2646 0.950 . S
C2654 C2652 1.391 1_556 S
C2654 C2655 1.400 . S
C2655 C2654 1.400 . S
C2655 C2656 1.398 . S
C2655 C2661 1.491 . S
C2656 H2647 0.950 . S
C2656 C2655 1.398 . S
C2656 C2657 1.391 . S
C2657 H2645 0.938 1_556 S
C2657 C2653 1.393 1_556 S
C2657 C2656 1.391 . S
C2658 H2648 0.950 . S
C2658 C2659 1.386 . S
C2658 C2660 1.391 . S
C2659 C2658 1.386 . S
C2659 C2663 1.393 . S
C2660 H2649 0.950 . S
C2660 C2658 1.391 . S
C2660 C2661 1.400 . S
C2661 C2655 1.491 . S
C2661 C2660 1.400 . S
C2661 C2662 1.398 . S
C2662 H2650 0.950 . S
C2662 C2661 1.398 . S
C2662 C2663 1.391 . S
C2663 H2651 0.950 . S
C2663 C2659 1.393 . S
C2663 C2662 1.391 . S
H2664 C2672 0.950 . S
H2665 C2677 0.950 . S
H2666 C2674 0.950 . S
H2667 C2676 0.950 . S
H2668 C2678 0.950 . S
H2669 C2680 0.950 . S
H2670 C2682 0.950 . S
H2671 C2683 0.950 . S
C2672 H2664 0.950 . S
C2672 C2673 1.386 . S
C2672 C2674 1.391 . S
C2673 C2672 1.386 . S
C2673 C2677 1.393 . S
C2674 H2666 0.950 . S
C2674 C2672 1.391 . S
C2674 C2675 1.400 . S
C2675 C2674 1.400 . S
C2675 C2676 1.398 . S
C2675 C2681 1.491 . S
C2676 H2667 0.950 . S
C2676 C2675 1.398 . S
C2676 C2677 1.391 . S
C2677 H2665 0.950 . S
C2677 C2673 1.393 . S
C2677 C2676 1.391 . S
C2678 H2668 0.950 . S
C2678 C2679 1.386 . S
C2678 C2680 1.391 . S
C2679 C2678 1.386 . S
C2679 C2683 1.393 . S
C2680 H2669 0.950 . S
C2680 C2678 1.391 . S
C2680 C2681 1.400 . S
C2681 C2675 1.491 . S
C2681 C2680 1.400 . S
C2681 C2682 1.398 . S
C2682 H2670 0.950 . S
C2682 C2681 1.398 . S
C2682 C2683 1.391 . S
C2683 H2671 0.950 . S
C2683 C2679 1.393 . S
C2683 C2682 1.391 . S
H2684 C2692 0.950 . S
H2685 C2697 0.950 . S
H2686 C2694 0.950 . S
H2687 C2696 0.950 . S
H2688 C2698 0.950 . S
H2689 C2700 0.950 . S
H2690 C2702 0.950 . S
H2691 C2703 0.950 . S
C2692 H2684 0.950 . S
C2692 C2693 1.386 . S
C2692 C2694 1.391 . S
C2693 C2692 1.386 . S
C2693 C2697 1.393 . S
C2694 H2686 0.950 . S
C2694 C2692 1.391 . S
C2694 C2695 1.400 . S
C2695 C2694 1.400 . S
C2695 C2696 1.398 . S
C2695 C2701 1.491 . S
C2696 H2687 0.950 . S
C2696 C2695 1.398 . S
C2696 C2697 1.391 . S
C2697 H2685 0.950 . S
C2697 C2693 1.393 . S
C2697 C2696 1.391 . S
C2698 H2688 0.950 . S
C2698 C2699 1.386 . S
C2698 C2700 1.391 . S
C2699 C2698 1.386 . S
C2699 C2703 1.393 . S
C2700 H2689 0.950 . S
C2700 C2698 1.391 . S
C2700 C2701 1.400 . S
C2701 C2695 1.491 . S
C2701 C2700 1.400 . S
C2701 C2702 1.398 . S
C2702 H2690 0.950 . S
C2702 C2701 1.398 . S
C2702 C2703 1.391 . S
C2703 H2691 0.950 . S
C2703 C2699 1.393 . S
C2703 C2702 1.391 . S
H2704 C2712 0.950 . S
H2705 C2717 0.950 . S
H2706 C2714 0.950 . S
H2707 C2716 0.950 . S
H2708 C2718 0.950 . S
H2709 C2720 0.950 . S
H2710 C2722 0.950 . S
H2711 C2723 0.950 . S
C2712 H2704 0.950 . S
C2712 C2713 1.386 . S
C2712 C2714 1.391 . S
C2713 C2712 1.386 . S
C2713 C2717 1.393 . S
C2714 H2706 0.950 . S
C2714 C2712 1.391 . S
C2714 C2715 1.400 . S
C2715 C2714 1.400 . S
C2715 C2716 1.398 . S
C2715 C2721 1.491 . S
C2716 H2707 0.950 . S
C2716 C2715 1.398 . S
C2716 C2717 1.391 . S
C2717 H2705 0.950 . S
C2717 C2713 1.393 . S
C2717 C2716 1.391 . S
C2718 H2708 0.950 . S
C2718 C2719 1.386 . S
C2718 C2720 1.391 . S
C2719 C2718 1.386 . S
C2719 C2723 1.393 . S
C2720 H2709 0.950 . S
C2720 C2718 1.391 . S
C2720 C2721 1.400 . S
C2721 C2715 1.491 . S
C2721 C2720 1.400 . S
C2721 C2722 1.398 . S
C2722 H2710 0.950 . S
C2722 C2721 1.398 . S
C2722 C2723 1.391 . S
C2723 H2711 0.950 . S
C2723 C2719 1.393 . S
C2723 C2722 1.391 . S
H2724 C2732 0.950 . S
H2725 C2737 0.950 . S
H2726 C2734 0.950 . S
H2727 C2736 0.950 . S
H2728 C2738 0.950 . S
H2729 C2740 0.950 . S
H2730 C2742 0.950 . S
H2731 C2743 0.950 . S
C2732 H2724 0.950 . S
C2732 C2733 1.386 . S
C2732 C2734 1.391 . S
C2733 C2732 1.386 . S
C2733 C2737 1.393 . S
C2734 H2726 0.950 . S
C2734 C2732 1.391 . S
C2734 C2735 1.400 . S
C2735 C2734 1.400 . S
C2735 C2736 1.398 . S
C2735 C2741 1.491 . S
C2736 H2727 0.950 . S
C2736 C2735 1.398 . S
C2736 C2737 1.391 . S
C2737 H2725 0.950 . S
C2737 C2733 1.393 . S
C2737 C2736 1.391 . S
C2738 H2728 0.950 . S
C2738 C2739 1.386 . S
C2738 C2740 1.391 . S
C2739 C2738 1.386 . S
C2739 C2743 1.393 . S
C2740 H2729 0.950 . S
C2740 C2738 1.391 . S
C2740 C2741 1.400 . S
C2741 C2735 1.491 . S
C2741 C2740 1.400 . S
C2741 C2742 1.398 . S
C2742 H2730 0.950 . S
C2742 C2741 1.398 . S
C2742 C2743 1.391 . S
C2743 H2731 0.950 . S
C2743 C2739 1.393 . S
C2743 C2742 1.391 . S
H2744 C2752 0.950 . S
H2745 C2757 0.950 . S
H2746 C2754 0.950 . S
H2747 C2756 0.950 . S
H2748 C2758 0.950 . S
H2749 C2760 0.950 . S
H2750 C2762 0.950 . S
H2751 C2763 0.950 . S
C2752 H2744 0.950 . S
C2752 C2753 1.386 . S
C2752 C2754 1.391 . S
C2753 C2752 1.386 . S
C2753 C2757 1.393 . S
C2754 H2746 0.950 . S
C2754 C2752 1.391 . S
C2754 C2755 1.400 . S
C2755 C2754 1.400 . S
C2755 C2756 1.398 . S
C2755 C2761 1.491 . S
C2756 H2747 0.950 . S
C2756 C2755 1.398 . S
C2756 C2757 1.391 . S
C2757 H2745 0.950 . S
C2757 C2753 1.393 . S
C2757 C2756 1.391 . S
C2758 H2748 0.950 . S
C2758 C2759 1.386 . S
C2758 C2760 1.391 . S
C2759 C2758 1.386 . S
C2759 C2763 1.393 . S
C2760 H2749 0.950 . S
C2760 C2758 1.391 . S
C2760 C2761 1.400 . S
C2761 C2755 1.491 . S
C2761 C2760 1.400 . S
C2761 C2762 1.398 . S
C2762 H2750 0.950 . S
C2762 C2761 1.398 . S
C2762 C2763 1.391 . S
C2763 H2751 0.950 . S
C2763 C2759 1.393 . S
C2763 C2762 1.391 . S
H2764 C2772 0.950 . S
H2765 C2777 0.950 . S
H2766 C2774 0.950 . S
H2767 C2776 0.950 . S
H2768 C2778 0.950 . S
H2769 C2780 0.950 . S
H2770 C2782 0.950 . S
H2771 C2783 0.950 . S
C2772 H2764 0.950 . S
C2772 C2773 1.386 . S
C2772 C2774 1.391 . S
C2773 C2772 1.386 . S
C2773 C2777 1.393 . S
C2774 H2766 0.950 . S
C2774 C2772 1.391 . S
C2774 C2775 1.400 . S
C2775 C2774 1.400 . S
C2775 C2776 1.398 . S
C2775 C2781 1.491 . S
C2776 H2767 0.950 . S
C2776 C2775 1.398 . S
C2776 C2777 1.391 . S
C2777 H2765 0.950 . S
C2777 C2773 1.393 . S
C2777 C2776 1.391 . S
C2778 H2768 0.950 . S
C2778 C2779 1.386 . S
C2778 C2780 1.391 . S
C2779 C2778 1.386 . S
C2779 C2783 1.393 . S
C2780 H2769 0.950 . S
C2780 C2778 1.391 . S
C2780 C2781 1.400 . S
C2781 C2775 1.491 . S
C2781 C2780 1.400 . S
C2781 C2782 1.398 . S
C2782 H2770 0.950 . S
C2782 C2781 1.398 . S
C2782 C2783 1.391 . S
C2783 H2771 0.950 . S
C2783 C2779 1.393 . S
C2783 C2782 1.391 . S
H2784 C2792 0.950 . S
H2785 C2797 0.950 . S
H2786 C2794 0.950 . S
H2787 C2796 0.950 . S
H2788 C2798 0.950 . S
H2789 C2800 0.950 . S
H2790 C2802 0.950 . S
H2791 C2803 0.950 . S
C2792 H2784 0.950 . S
C2792 C2793 1.386 . S
C2792 C2794 1.391 . S
C2793 C2792 1.386 . S
C2793 C2797 1.393 . S
C2794 H2786 0.950 . S
C2794 C2792 1.391 . S
C2794 C2795 1.400 . S
C2795 C2794 1.400 . S
C2795 C2796 1.398 . S
C2795 C2801 1.491 . S
C2796 H2787 0.950 . S
C2796 C2795 1.398 . S
C2796 C2797 1.391 . S
C2797 H2785 0.950 . S
C2797 C2793 1.393 . S
C2797 C2796 1.391 . S
C2798 H2788 0.950 . S
C2798 C2799 1.386 . S
C2798 C2800 1.391 . S
C2799 C2798 1.386 . S
C2799 C2803 1.393 . S
C2800 H2789 0.950 . S
C2800 C2798 1.391 . S
C2800 C2801 1.400 . S
C2801 C2795 1.491 . S
C2801 C2800 1.400 . S
C2801 C2802 1.398 . S
C2802 H2790 0.950 . S
C2802 C2801 1.398 . S
C2802 C2803 1.391 . S
C2803 H2791 0.950 . S
C2803 C2799 1.393 . S
C2803 C2802 1.391 . S
H2804 C2812 0.950 . S
H2805 C2817 0.950 . S
H2806 C2814 0.950 . S
H2807 C2816 0.950 . S
H2808 C2818 0.950 . S
H2809 C2820 0.950 . S
H2810 C2822 0.950 . S
H2811 C2823 0.950 . S
C2812 H2804 0.950 . S
C2812 C2813 1.386 . S
C2812 C2814 1.391 . S
C2813 C2812 1.386 . S
C2813 C2817 1.393 . S
C2814 H2806 0.950 . S
C2814 C2812 1.391 . S
C2814 C2815 1.400 . S
C2815 C2814 1.400 . S
C2815 C2816 1.398 . S
C2815 C2821 1.491 . S
C2816 H2807 0.950 . S
C2816 C2815 1.398 . S
C2816 C2817 1.391 . S
C2817 H2805 0.950 . S
C2817 C2813 1.393 . S
C2817 C2816 1.391 . S
C2818 H2808 0.950 . S
C2818 C2819 1.386 . S
C2818 C2820 1.391 . S
C2819 C2818 1.386 . S
C2819 C2823 1.393 . S
C2820 H2809 0.950 . S
C2820 C2818 1.391 . S
C2820 C2821 1.400 . S
C2821 C2815 1.491 . S
C2821 C2820 1.400 . S
C2821 C2822 1.398 . S
C2822 H2810 0.950 . S
C2822 C2821 1.398 . S
C2822 C2823 1.391 . S
C2823 H2811 0.950 . S
C2823 C2819 1.393 . S
C2823 C2822 1.391 . S
H2824 C2832 0.950 . S
H2825 C2837 0.950 . S
H2826 C2834 0.950 . S
H2827 C2836 0.950 . S
H2828 C2838 0.950 . S
H2829 C2840 0.950 . S
H2830 C2842 0.950 . S
H2831 C2843 0.950 . S
C2832 H2824 0.950 . S
C2832 C2833 1.386 1_565 S
C2832 C2834 1.391 . S
C2833 C2832 1.386 1_545 S
C2833 C2837 1.393 . S
C2834 H2826 0.950 . S
C2834 C2832 1.391 . S
C2834 C2835 1.400 . S
C2835 C2834 1.400 . S
C2835 C2836 1.398 . S
C2835 C2841 1.491 . S
C2836 H2827 0.950 . S
C2836 C2835 1.398 . S
C2836 C2837 1.391 1_565 S
C2837 H2825 0.950 . S
C2837 C2833 1.393 . S
C2837 C2836 1.391 1_545 S
C2838 H2828 0.950 . S
C2838 C2839 1.386 . S
C2838 C2840 1.391 . S
C2839 C2838 1.386 . S
C2839 C2843 1.393 . S
C2840 H2829 0.950 . S
C2840 C2838 1.391 . S
C2840 C2841 1.400 . S
C2841 C2835 1.491 . S
C2841 C2840 1.400 . S
C2841 C2842 1.398 . S
C2842 H2830 0.950 . S
C2842 C2841 1.398 . S
C2842 C2843 1.391 . S
C2843 H2831 0.950 . S
C2843 C2839 1.393 . S
C2843 C2842 1.391 . S
H2844 C2852 0.950 . S
H2845 C2857 0.950 . S
H2846 C2854 0.950 . S
H2847 C2856 0.950 . S
H2848 C2858 0.950 1_556 S
H2849 C2860 0.943 1_556 S
H2850 C2862 0.950 . S
H2851 C2863 0.950 . S
C2852 H2844 0.950 . S
C2852 C2853 1.386 . S
C2852 C2854 1.391 . S
C2853 C2852 1.386 . S
C2853 C2857 1.393 1_554 S
C2854 H2846 0.950 . S
C2854 C2852 1.391 . S
C2854 C2855 1.400 . S
C2855 C2854 1.400 . S
C2855 C2856 1.398 1_554 S
C2855 C2861 1.491 . S
C2856 H2847 0.950 . S
C2856 C2855 1.398 1_556 S
C2856 C2857 1.391 . S
C2857 H2845 0.950 . S
C2857 C2853 1.393 1_556 S
C2857 C2856 1.391 . S
C2858 H2848 0.950 1_554 S
C2858 C2859 1.386 . S
C2858 C2860 1.392 1_545 S
C2859 C2858 1.386 . S
C2859 C2863 1.393 . S
C2860 H2849 0.943 1_554 S
C2860 C2858 1.392 1_565 S
C2860 C2861 1.406 . S
C2861 C2855 1.491 . S
C2861 C2860 1.406 . S
C2861 C2862 1.398 1_565 S
C2862 H2850 0.950 . S
C2862 C2861 1.398 1_545 S
C2862 C2863 1.391 . S
C2863 H2851 0.950 . S
C2863 C2859 1.393 . S
C2863 C2862 1.391 . S
H2864 C2872 0.950 . S
H2865 C2877 0.950 . S
H2866 C2874 0.950 . S
H2867 C2876 0.950 . S
H2868 C2878 0.950 . S
H2869 C2880 0.950 . S
H2870 C2882 0.950 . S
H2871 C2883 0.950 . S
C2872 H2864 0.950 . S
C2872 C2873 1.386 . S
C2872 C2874 1.391 . S
C2873 C2872 1.386 . S
C2873 C2877 1.393 . S
C2874 H2866 0.950 . S
C2874 C2872 1.391 . S
C2874 C2875 1.400 . S
C2875 C2874 1.400 . S
C2875 C2876 1.398 . S
C2875 C2881 1.491 . S
C2876 H2867 0.950 . S
C2876 C2875 1.398 . S
C2876 C2877 1.391 . S
C2877 H2865 0.950 . S
C2877 C2873 1.393 . S
C2877 C2876 1.391 . S
C2878 H2868 0.950 . S
C2878 C2879 1.386 . S
C2878 C2880 1.391 . S
C2879 C2878 1.386 . S
C2879 C2883 1.393 . S
C2880 H2869 0.950 . S
C2880 C2878 1.391 . S
C2880 C2881 1.400 . S
C2881 C2875 1.491 . S
C2881 C2880 1.400 . S
C2881 C2882 1.398 . S
C2882 H2870 0.950 . S
C2882 C2881 1.398 . S
C2882 C2883 1.391 . S
C2883 H2871 0.950 . S
C2883 C2879 1.393 . S
C2883 C2882 1.391 . S
H2884 C2892 0.950 . S
H2885 C2897 0.950 . S
H2886 C2894 0.950 . S
H2887 C2896 0.950 . S
H2888 C2898 0.950 . S
H2889 C2900 0.950 . S
H2890 C2902 0.950 . S
H2891 C2903 0.950 . S
C2892 H2884 0.950 . S
C2892 C2893 1.386 . S
C2892 C2894 1.391 . S
C2893 C2892 1.386 . S
C2893 C2897 1.393 . S
C2894 H2886 0.950 . S
C2894 C2892 1.391 . S
C2894 C2895 1.400 . S
C2895 C2894 1.400 . S
C2895 C2896 1.398 . S
C2895 C2901 1.491 . S
C2896 H2887 0.950 . S
C2896 C2895 1.398 . S
C2896 C2897 1.391 . S
C2897 H2885 0.950 . S
C2897 C2893 1.393 . S
C2897 C2896 1.391 . S
C2898 H2888 0.950 . S
C2898 C2899 1.386 . S
C2898 C2900 1.391 . S
C2899 C2898 1.386 . S
C2899 C2903 1.393 . S
C2900 H2889 0.950 . S
C2900 C2898 1.391 . S
C2900 C2901 1.400 . S
C2901 C2895 1.491 . S
C2901 C2900 1.400 . S
C2901 C2902 1.398 . S
C2902 H2890 0.950 . S
C2902 C2901 1.398 . S
C2902 C2903 1.391 . S
C2903 H2891 0.950 . S
C2903 C2899 1.393 . S
C2903 C2902 1.391 . S
H2904 C2912 0.950 . S
H2905 C2917 0.950 . S
H2906 C2914 0.950 . S
H2907 C2916 0.950 . S
H2908 C2918 0.950 . S
H2909 C2920 0.950 . S
H2910 C2922 0.950 . S
H2911 C2923 0.950 . S
C2912 H2904 0.950 . S
C2912 C2913 1.386 . S
C2912 C2914 1.391 . S
C2913 C2912 1.386 . S
C2913 C2917 1.393 . S
C2914 H2906 0.950 . S
C2914 C2912 1.391 . S
C2914 C2915 1.400 . S
C2915 C2914 1.400 . S
C2915 C2916 1.398 . S
C2915 C2921 1.491 . S
C2916 H2907 0.950 . S
C2916 C2915 1.398 . S
C2916 C2917 1.391 . S
C2917 H2905 0.950 . S
C2917 C2913 1.393 . S
C2917 C2916 1.391 . S
C2918 H2908 0.950 . S
C2918 C2919 1.386 . S
C2918 C2920 1.391 . S
C2919 C2918 1.386 . S
C2919 C2923 1.393 . S
C2920 H2909 0.950 . S
C2920 C2918 1.391 . S
C2920 C2921 1.400 . S
C2921 C2915 1.491 . S
C2921 C2920 1.400 . S
C2921 C2922 1.398 . S
C2922 H2910 0.950 . S
C2922 C2921 1.398 . S
C2922 C2923 1.391 . S
C2923 H2911 0.950 . S
C2923 C2919 1.393 . S
C2923 C2922 1.391 . S
H2924 C2932 0.950 . S
H2925 C2937 0.950 . S
H2926 C2934 0.950 . S
H2927 C2936 0.950 . S
H2928 C2938 0.950 . S
H2929 C2940 0.950 . S
H2930 C2942 0.950 . S
H2931 C2943 0.950 . S
C2932 H2924 0.950 . S
C2932 C2933 1.386 . S
C2932 C2934 1.391 . S
C2933 C2932 1.386 . S
C2933 C2937 1.393 . S
C2934 H2926 0.950 . S
C2934 C2932 1.391 . S
C2934 C2935 1.400 . S
C2935 C2934 1.400 . S
C2935 C2936 1.398 . S
C2935 C2941 1.491 . S
C2936 H2927 0.950 . S
C2936 C2935 1.398 . S
C2936 C2937 1.391 . S
C2937 H2925 0.950 . S
C2937 C2933 1.393 . S
C2937 C2936 1.391 . S
C2938 H2928 0.950 . S
C2938 C2939 1.386 . S
C2938 C2940 1.391 . S
C2939 C2938 1.386 . S
C2939 C2943 1.393 . S
C2940 H2929 0.950 . S
C2940 C2938 1.391 . S
C2940 C2941 1.400 . S
C2941 C2935 1.491 . S
C2941 C2940 1.400 . S
C2941 C2942 1.398 . S
C2942 H2930 0.950 . S
C2942 C2941 1.398 . S
C2942 C2943 1.391 . S
C2943 H2931 0.950 . S
C2943 C2939 1.393 . S
C2943 C2942 1.391 . S
H2944 C2952 0.950 . S
H2945 C2957 0.950 . S
H2946 C2954 0.950 . S
H2947 C2956 0.950 . S
H2948 C2958 0.950 . S
H2949 C2960 0.950 . S
H2950 C2962 0.950 . S
H2951 C2963 0.950 . S
C2952 H2944 0.950 . S
C2952 C2953 1.386 . S
C2952 C2954 1.391 . S
C2953 C2952 1.386 . S
C2953 C2957 1.393 . S
C2954 H2946 0.950 . S
C2954 C2952 1.391 . S
C2954 C2955 1.400 . S
C2955 C2954 1.400 . S
C2955 C2956 1.398 . S
C2955 C2961 1.491 . S
C2956 H2947 0.950 . S
C2956 C2955 1.398 . S
C2956 C2957 1.391 . S
C2957 H2945 0.950 . S
C2957 C2953 1.393 . S
C2957 C2956 1.391 . S
C2958 H2948 0.950 . S
C2958 C2959 1.386 . S
C2958 C2960 1.391 . S
C2959 C2958 1.386 . S
C2959 C2963 1.393 . S
C2960 H2949 0.950 . S
C2960 C2958 1.391 . S
C2960 C2961 1.400 . S
C2961 C2955 1.491 . S
C2961 C2960 1.400 . S
C2961 C2962 1.398 . S
C2962 H2950 0.950 . S
C2962 C2961 1.398 . S
C2962 C2963 1.391 . S
C2963 H2951 0.950 . S
C2963 C2959 1.393 . S
C2963 C2962 1.391 . S
H2964 C2972 0.950 . S
H2965 C2977 0.950 . S
H2966 C2974 0.950 . S
H2967 C2976 0.950 . S
H2968 C2978 0.950 . S
H2969 C2980 0.950 . S
H2970 C2982 0.950 . S
H2971 C2983 0.950 . S
C2972 H2964 0.950 . S
C2972 C2973 1.386 . S
C2972 C2974 1.391 . S
C2973 C2972 1.386 . S
C2973 C2977 1.393 . S
C2974 H2966 0.950 . S
C2974 C2972 1.391 . S
C2974 C2975 1.400 . S
C2975 C2974 1.400 . S
C2975 C2976 1.398 . S
C2975 C2981 1.491 . S
C2976 H2967 0.950 . S
C2976 C2975 1.398 . S
C2976 C2977 1.391 . S
C2977 H2965 0.950 . S
C2977 C2973 1.393 . S
C2977 C2976 1.391 . S
C2978 H2968 0.950 . S
C2978 C2979 1.386 . S
C2978 C2980 1.391 . S
C2979 C2978 1.386 . S
C2979 C2983 1.393 . S
C2980 H2969 0.950 . S
C2980 C2978 1.391 . S
C2980 C2981 1.400 . S
C2981 C2975 1.491 . S
C2981 C2980 1.400 . S
C2981 C2982 1.398 . S
C2982 H2970 0.950 . S
C2982 C2981 1.398 . S
C2982 C2983 1.391 . S
C2983 H2971 0.950 . S
C2983 C2979 1.393 . S
C2983 C2982 1.391 . S
H2984 C2992 0.950 . S
H2985 C2997 0.950 . S
H2986 C2994 0.950 . S
H2987 C2996 0.950 . S
H2988 C2998 0.950 . S
H2989 C3000 0.950 . S
H2990 C3002 0.950 . S
H2991 C3003 0.950 . S
C2992 H2984 0.950 . S
C2992 C2993 1.386 . S
C2992 C2994 1.391 . S
C2993 C2992 1.386 . S
C2993 C2997 1.393 . S
C2994 H2986 0.950 . S
C2994 C2992 1.391 . S
C2994 C2995 1.400 . S
C2995 C2994 1.400 . S
C2995 C2996 1.398 . S
C2995 C3001 1.491 . S
C2996 H2987 0.950 . S
C2996 C2995 1.398 . S
C2996 C2997 1.391 . S
C2997 H2985 0.950 . S
C2997 C2993 1.393 . S
C2997 C2996 1.391 . S
C2998 H2988 0.950 . S
C2998 C2999 1.386 . S
C2998 C3000 1.391 . S
C2999 C2998 1.386 . S
C2999 C3003 1.393 . S
C3000 H2989 0.950 . S
C3000 C2998 1.391 . S
C3000 C3001 1.400 . S
C3001 C2995 1.491 . S
C3001 C3000 1.400 . S
C3001 C3002 1.398 . S
C3002 H2990 0.950 . S
C3002 C3001 1.398 . S
C3002 C3003 1.391 . S
C3003 H2991 0.950 . S
C3003 C2999 1.393 . S
C3003 C3002 1.391 . S
H3004 C3012 0.950 . S
H3005 C3017 0.950 . S
H3006 C3014 0.950 . S
H3007 C3016 0.950 . S
H3008 C3018 0.950 . S
H3009 C3020 0.950 . S
H3010 C3022 0.950 . S
H3011 C3023 0.950 . S
C3012 H3004 0.950 . S
C3012 C3013 1.386 . S
C3012 C3014 1.391 . S
C3013 C3012 1.386 . S
C3013 C3017 1.393 . S
C3014 H3006 0.950 . S
C3014 C3012 1.391 . S
C3014 C3015 1.400 . S
C3015 C3014 1.400 . S
C3015 C3016 1.398 . S
C3015 C3021 1.491 . S
C3016 H3007 0.950 . S
C3016 C3015 1.398 . S
C3016 C3017 1.391 . S
C3017 H3005 0.950 . S
C3017 C3013 1.393 . S
C3017 C3016 1.391 . S
C3018 H3008 0.950 . S
C3018 C3019 1.386 . S
C3018 C3020 1.391 . S
C3019 C3018 1.386 . S
C3019 C3023 1.393 . S
C3020 H3009 0.950 . S
C3020 C3018 1.391 . S
C3020 C3021 1.400 . S
C3021 C3015 1.491 . S
C3021 C3020 1.400 . S
C3021 C3022 1.398 . S
C3022 H3010 0.950 . S
C3022 C3021 1.398 . S
C3022 C3023 1.391 . S
C3023 H3011 0.950 . S
C3023 C3019 1.393 . S
C3023 C3022 1.391 . S
H3024 C3032 0.950 . S
H3025 C3037 0.950 . S
H3026 C3034 0.950 . S
H3027 C3036 0.950 . S
H3028 C3038 0.950 . S
H3029 C3040 0.950 . S
H3030 C3042 0.950 . S
H3031 C3043 0.923 1_554 S
C3032 H3024 0.950 . S
C3032 C3033 1.386 . S
C3032 C3034 1.391 . S
C3033 C3032 1.386 . S
C3033 C3037 1.393 . S
C3034 H3026 0.950 . S
C3034 C3032 1.391 . S
C3034 C3035 1.400 . S
C3035 C3034 1.400 . S
C3035 C3036 1.398 . S
C3035 C3041 1.491 . S
C3036 H3027 0.950 . S
C3036 C3035 1.398 . S
C3036 C3037 1.391 . S
C3037 H3025 0.950 . S
C3037 C3033 1.393 . S
C3037 C3036 1.391 . S
C3038 H3028 0.950 . S
C3038 C3039 1.386 . S
C3038 C3040 1.391 . S
C3039 C3038 1.386 . S
C3039 C3043 1.393 . S
C3040 H3029 0.950 . S
C3040 C3038 1.391 . S
C3040 C3041 1.400 . S
C3041 C3035 1.491 . S
C3041 C3040 1.400 . S
C3041 C3042 1.398 . S
C3042 H3030 0.950 . S
C3042 C3041 1.398 . S
C3042 C3043 1.391 . S
C3043 H3031 0.923 1_556 S
C3043 C3039 1.393 . S
C3043 C3042 1.391 . S
H3044 C3052 0.950 . S
H3045 C3057 0.950 . S
H3046 C3054 0.950 . S
H3047 C3056 0.950 . S
H3048 C3058 0.950 . S
H3049 C3060 0.950 . S
H3050 C3062 0.950 . S
H3051 C3063 0.950 . S
C3052 H3044 0.950 . S
C3052 C3053 1.386 . S
C3052 C3054 1.391 . S
C3053 C3052 1.386 . S
C3053 C3057 1.393 . S
C3054 H3046 0.950 . S
C3054 C3052 1.391 . S
C3054 C3055 1.400 . S
C3055 C3054 1.400 . S
C3055 C3056 1.398 . S
C3055 C3061 1.491 . S
C3056 H3047 0.950 . S
C3056 C3055 1.398 . S
C3056 C3057 1.391 . S
C3057 H3045 0.950 . S
C3057 C3053 1.393 . S
C3057 C3056 1.391 . S
C3058 H3048 0.950 . S
C3058 C3059 1.386 . S
C3058 C3060 1.391 . S
C3059 C3058 1.386 . S
C3059 C3063 1.393 . S
C3060 H3049 0.950 . S
C3060 C3058 1.391 . S
C3060 C3061 1.400 . S
C3061 C3055 1.491 . S
C3061 C3060 1.400 . S
C3061 C3062 1.398 . S
C3062 H3050 0.950 . S
C3062 C3061 1.398 . S
C3062 C3063 1.391 . S
C3063 H3051 0.950 . S
C3063 C3059 1.393 . S
C3063 C3062 1.391 . S
H3064 C3072 0.950 . S
H3065 C3077 0.950 . S
H3066 C3074 0.950 . S
H3067 C3076 0.950 . S
H3068 C3078 0.950 . S
H3069 C3080 0.950 . S
H3070 C3082 0.950 . S
H3071 C3083 0.950 . S
C3072 H3064 0.950 . S
C3072 C3073 1.386 . S
C3072 C3074 1.391 . S
C3073 C3072 1.386 . S
C3073 C3077 1.393 . S
C3074 H3066 0.950 . S
C3074 C3072 1.391 . S
C3074 C3075 1.400 . S
C3075 C3074 1.400 . S
C3075 C3076 1.398 . S
C3075 C3081 1.491 . S
C3076 H3067 0.950 . S
C3076 C3075 1.398 . S
C3076 C3077 1.391 . S
C3077 H3065 0.950 . S
C3077 C3073 1.393 . S
C3077 C3076 1.391 . S
C3078 H3068 0.950 . S
C3078 C3079 1.386 . S
C3078 C3080 1.391 . S
C3079 C3078 1.386 . S
C3079 C3083 1.393 . S
C3080 H3069 0.950 . S
C3080 C3078 1.391 . S
C3080 C3081 1.400 . S
C3081 C3075 1.491 . S
C3081 C3080 1.400 . S
C3081 C3082 1.398 . S
C3082 H3070 0.950 . S
C3082 C3081 1.398 . S
C3082 C3083 1.391 . S
C3083 H3071 0.950 . S
C3083 C3079 1.393 . S
C3083 C3082 1.391 . S
H3084 C3092 0.950 . S
H3085 C3097 0.950 . S
H3086 C3094 0.950 . S
H3087 C3096 0.950 . S
H3088 C3098 0.950 . S
H3089 C3100 0.950 . S
H3090 C3102 0.950 . S
H3091 C3103 0.950 . S
C3092 H3084 0.950 . S
C3092 C3093 1.386 . S
C3092 C3094 1.391 . S
C3093 C3092 1.386 . S
C3093 C3097 1.393 . S
C3094 H3086 0.950 . S
C3094 C3092 1.391 . S
C3094 C3095 1.400 . S
C3095 C3094 1.400 . S
C3095 C3096 1.398 . S
C3095 C3101 1.491 . S
C3096 H3087 0.950 . S
C3096 C3095 1.398 . S
C3096 C3097 1.391 . S
C3097 H3085 0.950 . S
C3097 C3093 1.393 . S
C3097 C3096 1.391 . S
C3098 H3088 0.950 . S
C3098 C3099 1.386 . S
C3098 C3100 1.391 . S
C3099 C3098 1.386 . S
C3099 C3103 1.393 . S
C3100 H3089 0.950 . S
C3100 C3098 1.391 . S
C3100 C3101 1.400 . S
C3101 C3095 1.491 . S
C3101 C3100 1.400 . S
C3101 C3102 1.398 . S
C3102 H3090 0.950 . S
C3102 C3101 1.398 . S
C3102 C3103 1.391 . S
C3103 H3091 0.950 . S
C3103 C3099 1.393 . S
C3103 C3102 1.391 . S
H3104 C3112 0.950 . S
H3105 C3117 0.950 . S
H3106 C3114 0.950 . S
H3107 C3116 0.950 . S
H3108 C3118 0.950 . S
H3109 C3120 0.950 . S
H3110 C3122 0.950 . S
H3111 C3123 0.950 . S
C3112 H3104 0.950 . S
C3112 C3113 1.386 . S
C3112 C3114 1.391 . S
C3113 C3112 1.386 . S
C3113 C3117 1.393 . S
C3114 H3106 0.950 . S
C3114 C3112 1.391 . S
C3114 C3115 1.400 . S
C3115 C3114 1.400 . S
C3115 C3116 1.398 . S
C3115 C3121 1.491 . S
C3116 H3107 0.950 . S
C3116 C3115 1.398 . S
C3116 C3117 1.391 . S
C3117 H3105 0.950 . S
C3117 C3113 1.393 . S
C3117 C3116 1.391 . S
C3118 H3108 0.950 . S
C3118 C3119 1.386 . S
C3118 C3120 1.391 . S
C3119 C3118 1.386 . S
C3119 C3123 1.393 . S
C3120 H3109 0.950 . S
C3120 C3118 1.391 . S
C3120 C3121 1.400 . S
C3121 C3115 1.491 . S
C3121 C3120 1.400 . S
C3121 C3122 1.398 . S
C3122 H3110 0.950 . S
C3122 C3121 1.398 . S
C3122 C3123 1.391 . S
C3123 H3111 0.950 . S
C3123 C3119 1.393 . S
C3123 C3122 1.391 . S
H3124 C3132 0.950 . S
H3125 C3137 0.950 . S
H3126 C3134 0.950 . S
H3127 C3136 0.950 . S
H3128 C3138 0.950 . S
H3129 C3140 0.950 . S
H3130 C3142 0.950 . S
H3131 C3143 0.950 . S
C3132 H3124 0.950 . S
C3132 C3133 1.386 . S
C3132 C3134 1.391 . S
C3133 C3132 1.386 . S
C3133 C3137 1.393 . S
C3134 H3126 0.950 . S
C3134 C3132 1.391 . S
C3134 C3135 1.400 . S
C3135 C3134 1.400 . S
C3135 C3136 1.398 . S
C3135 C3141 1.491 . S
C3136 H3127 0.950 . S
C3136 C3135 1.398 . S
C3136 C3137 1.391 . S
C3137 H3125 0.950 . S
C3137 C3133 1.393 . S
C3137 C3136 1.391 . S
C3138 H3128 0.950 . S
C3138 C3139 1.386 . S
C3138 C3140 1.391 . S
C3139 C3138 1.386 . S
C3139 C3143 1.393 . S
C3140 H3129 0.950 . S
C3140 C3138 1.391 . S
C3140 C3141 1.400 . S
C3141 C3135 1.491 . S
C3141 C3140 1.400 . S
C3141 C3142 1.398 . S
C3142 H3130 0.950 . S
C3142 C3141 1.398 . S
C3142 C3143 1.391 . S
C3143 H3131 0.950 . S
C3143 C3139 1.393 . S
C3143 C3142 1.391 . S
H3144 C3152 0.950 . S
H3145 C3157 0.950 . S
H3146 C3154 0.950 1_455 S
H3147 C3156 0.950 . S
H3148 C3158 0.950 . S
H3149 C3160 0.950 . S
H3150 C3162 0.950 . S
H3151 C3163 0.950 . S
C3152 H3144 0.950 . S
C3152 C3153 1.386 . S
C3152 C3154 1.391 . S
C3153 C3152 1.386 . S
C3153 C3157 1.393 . S
C3154 H3146 0.950 1_655 S
C3154 C3152 1.391 . S
C3154 C3155 1.400 . S
C3155 C3154 1.400 . S
C3155 C3156 1.398 . S
C3155 C3161 1.491 1_655 S
C3156 H3147 0.950 . S
C3156 C3155 1.398 . S
C3156 C3157 1.391 . S
C3157 H3145 0.950 . S
C3157 C3153 1.393 . S
C3157 C3156 1.391 . S
C3158 H3148 0.950 . S
C3158 C3159 1.386 . S
C3158 C3160 1.391 1_455 S
C3159 C3158 1.386 . S
C3159 C3163 1.393 . S
C3160 H3149 0.950 . S
C3160 C3158 1.391 1_655 S
C3160 C3161 1.400 1_655 S
C3161 C3155 1.491 1_455 S
C3161 C3160 1.400 1_455 S
C3161 C3162 1.398 . S
C3162 H3150 0.950 . S
C3162 C3161 1.398 . S
C3162 C3163 1.391 . S
C3163 H3151 0.950 . S
C3163 C3159 1.393 . S
C3163 C3162 1.391 . S
H3164 C3172 0.950 . S
H3165 C3177 0.950 . S
H3166 C3174 0.950 . S
H3167 C3176 0.950 . S
H3168 C3178 0.950 . S
H3169 C3180 0.950 . S
H3170 C3182 0.950 . S
H3171 C3183 0.950 . S
C3172 H3164 0.950 . S
C3172 C3173 1.386 . S
C3172 C3174 1.391 . S
C3173 C3172 1.386 . S
C3173 C3177 1.393 . S
C3174 H3166 0.950 . S
C3174 C3172 1.391 . S
C3174 C3175 1.400 . S
C3175 C3174 1.400 . S
C3175 C3176 1.398 . S
C3175 C3181 1.491 . S
C3176 H3167 0.950 . S
C3176 C3175 1.398 . S
C3176 C3177 1.391 . S
C3177 H3165 0.950 . S
C3177 C3173 1.393 . S
C3177 C3176 1.391 . S
C3178 H3168 0.950 . S
C3178 C3179 1.386 . S
C3178 C3180 1.391 . S
C3179 C3178 1.386 . S
C3179 C3183 1.393 . S
C3180 H3169 0.950 . S
C3180 C3178 1.391 . S
C3180 C3181 1.400 . S
C3181 C3175 1.491 . S
C3181 C3180 1.400 . S
C3181 C3182 1.398 . S
C3182 H3170 0.950 . S
C3182 C3181 1.398 . S
C3182 C3183 1.391 . S
C3183 H3171 0.950 . S
C3183 C3179 1.393 . S
C3183 C3182 1.391 . S
H3184 C3192 0.950 . S
H3185 C3197 0.950 . S
H3186 C3194 0.950 . S
H3187 C3196 0.950 . S
H3188 C3198 0.950 . S
H3189 C3200 0.950 . S
H3190 C3202 0.950 . S
H3191 C3203 0.950 . S
C3192 H3184 0.950 . S
C3192 C3193 1.386 . S
C3192 C3194 1.391 . S
C3193 C3192 1.386 . S
C3193 C3197 1.393 . S
C3194 H3186 0.950 . S
C3194 C3192 1.391 . S
C3194 C3195 1.400 . S
C3195 C3194 1.400 . S
C3195 C3196 1.398 . S
C3195 C3201 1.491 . S
C3196 H3187 0.950 . S
C3196 C3195 1.398 . S
C3196 C3197 1.391 . S
C3197 H3185 0.950 . S
C3197 C3193 1.393 . S
C3197 C3196 1.391 . S
C3198 H3188 0.950 . S
C3198 C3199 1.386 . S
C3198 C3200 1.391 . S
C3199 C3198 1.386 . S
C3199 C3203 1.393 . S
C3200 H3189 0.950 . S
C3200 C3198 1.391 . S
C3200 C3201 1.400 . S
C3201 C3195 1.491 . S
C3201 C3200 1.400 . S
C3201 C3202 1.398 . S
C3202 H3190 0.950 . S
C3202 C3201 1.398 . S
C3202 C3203 1.391 . S
C3203 H3191 0.950 . S
C3203 C3199 1.393 . S
C3203 C3202 1.391 . S
H3204 C3212 0.950 . S
H3205 C3217 0.950 . S
H3206 C3214 0.950 . S
H3207 C3216 0.950 . S
H3208 C3218 0.950 . S
H3209 C3220 0.950 . S
H3210 C3222 0.950 . S
H3211 C3223 0.950 . S
C3212 H3204 0.950 . S
C3212 C3213 1.386 . S
C3212 C3214 1.391 . S
C3213 C3212 1.386 . S
C3213 C3217 1.393 . S
C3214 H3206 0.950 . S
C3214 C3212 1.391 . S
C3214 C3215 1.400 . S
C3215 C3214 1.400 . S
C3215 C3216 1.398 . S
C3215 C3221 1.491 . S
C3216 H3207 0.950 . S
C3216 C3215 1.398 . S
C3216 C3217 1.391 . S
C3217 H3205 0.950 . S
C3217 C3213 1.393 . S
C3217 C3216 1.391 . S
C3218 H3208 0.950 . S
C3218 C3219 1.386 . S
C3218 C3220 1.391 . S
C3219 C3218 1.386 . S
C3219 C3223 1.393 . S
C3220 H3209 0.950 . S
C3220 C3218 1.391 . S
C3220 C3221 1.400 . S
C3221 C3215 1.491 . S
C3221 C3220 1.400 . S
C3221 C3222 1.398 . S
C3222 H3210 0.950 . S
C3222 C3221 1.398 . S
C3222 C3223 1.391 . S
C3223 H3211 0.950 . S
C3223 C3219 1.393 . S
C3223 C3222 1.391 . S
H3224 C3232 0.950 . S
H3225 C3237 0.950 . S
H3226 C3234 0.950 . S
H3227 C3236 0.950 . S
H3228 C3238 0.950 . S
H3229 C3240 0.950 . S
H3230 C3242 0.950 . S
H3231 C3243 0.950 . S
C3232 H3224 0.950 . S
C3232 C3233 1.386 . S
C3232 C3234 1.391 . S
C3233 C3232 1.386 . S
C3233 C3237 1.393 . S
C3234 H3226 0.950 . S
C3234 C3232 1.391 . S
C3234 C3235 1.400 . S
C3235 C3234 1.400 . S
C3235 C3236 1.398 . S
C3235 C3241 1.491 . S
C3236 H3227 0.950 . S
C3236 C3235 1.398 . S
C3236 C3237 1.391 . S
C3237 H3225 0.950 . S
C3237 C3233 1.393 . S
C3237 C3236 1.391 . S
C3238 H3228 0.950 . S
C3238 C3239 1.386 . S
C3238 C3240 1.391 1_455 S
C3239 C3238 1.386 . S
C3239 C3243 1.393 . S
C3240 H3229 0.950 . S
C3240 C3238 1.391 1_655 S
C3240 C3241 1.400 . S
C3241 C3235 1.491 . S
C3241 C3240 1.400 . S
C3241 C3242 1.398 . S
C3242 H3230 0.950 . S
C3242 C3241 1.398 . S
C3242 C3243 1.391 1_655 S
C3243 H3231 0.950 . S
C3243 C3239 1.393 . S
C3243 C3242 1.391 1_455 S
H3244 C3252 0.950 . S
H3245 C3257 0.950 . S
H3246 C3254 0.950 . S
H3247 C3256 0.950 . S
H3248 C3258 0.950 . S
H3249 C3260 0.950 . S
H3250 C3262 0.950 . S
H3251 C3263 0.950 . S
C3252 H3244 0.950 . S
C3252 C3253 1.386 . S
C3252 C3254 1.391 . S
C3253 C3252 1.386 . S
C3253 C3257 1.393 . S
C3254 H3246 0.950 . S
C3254 C3252 1.391 . S
C3254 C3255 1.400 . S
C3255 C3254 1.400 . S
C3255 C3256 1.398 . S
C3255 C3261 1.491 . S
C3256 H3247 0.950 . S
C3256 C3255 1.398 . S
C3256 C3257 1.391 . S
C3257 H3245 0.950 . S
C3257 C3253 1.393 . S
C3257 C3256 1.391 . S
C3258 H3248 0.950 . S
C3258 C3259 1.386 . S
C3258 C3260 1.391 . S
C3259 C3258 1.386 . S
C3259 C3263 1.393 . S
C3260 H3249 0.950 . S
C3260 C3258 1.391 . S
C3260 C3261 1.400 . S
C3261 C3255 1.491 . S
C3261 C3260 1.400 . S
C3261 C3262 1.398 . S
C3262 H3250 0.950 . S
C3262 C3261 1.398 . S
C3262 C3263 1.391 . S
C3263 H3251 0.950 . S
C3263 C3259 1.393 . S
C3263 C3262 1.391 . S
H3264 C3272 0.950 . S
H3265 C3277 0.950 . S
H3266 C3274 0.950 . S
H3267 C3276 0.950 . S
H3268 C3278 0.950 . S
H3269 C3280 0.950 . S
H3270 C3282 0.950 . S
H3271 C3283 0.950 . S
C3272 H3264 0.950 . S
C3272 C3273 1.386 . S
C3272 C3274 1.391 . S
C3273 C3272 1.386 . S
C3273 C3277 1.393 . S
C3274 H3266 0.950 . S
C3274 C3272 1.391 . S
C3274 C3275 1.400 . S
C3275 C3274 1.400 . S
C3275 C3276 1.398 . S
C3275 C3281 1.491 . S
C3276 H3267 0.950 . S
C3276 C3275 1.398 . S
C3276 C3277 1.391 . S
C3277 H3265 0.950 . S
C3277 C3273 1.393 . S
C3277 C3276 1.391 . S
C3278 H3268 0.950 . S
C3278 C3279 1.386 . S
C3278 C3280 1.391 . S
C3279 C3278 1.386 . S
C3279 C3283 1.393 . S
C3280 H3269 0.950 . S
C3280 C3278 1.391 . S
C3280 C3281 1.400 . S
C3281 C3275 1.491 . S
C3281 C3280 1.400 . S
C3281 C3282 1.398 . S
C3282 H3270 0.950 . S
C3282 C3281 1.398 . S
C3282 C3283 1.391 . S
C3283 H3271 0.950 . S
C3283 C3279 1.393 . S
C3283 C3282 1.391 . S
H3284 C3292 0.950 . S
H3285 C3297 0.950 . S
H3286 C3294 0.950 . S
H3287 C3296 0.950 . S
H3288 C3298 0.950 . S
H3289 C3300 0.950 . S
H3290 C3302 0.950 . S
H3291 C3303 0.950 . S
C3292 H3284 0.950 . S
C3292 C3293 1.386 . S
C3292 C3294 1.391 . S
C3293 C3292 1.386 . S
C3293 C3297 1.393 . S
C3294 H3286 0.950 . S
C3294 C3292 1.391 . S
C3294 C3295 1.400 . S
C3295 C3294 1.400 . S
C3295 C3296 1.398 . S
C3295 C3301 1.491 . S
C3296 H3287 0.950 . S
C3296 C3295 1.398 . S
C3296 C3297 1.391 . S
C3297 H3285 0.950 . S
C3297 C3293 1.393 . S
C3297 C3296 1.391 . S
C3298 H3288 0.950 . S
C3298 C3299 1.364 1_545 S
C3298 C3300 1.391 1_545 S
C3299 C3298 1.364 1_565 S
C3299 C3303 1.431 . S
C3300 H3289 0.950 . S
C3300 C3298 1.391 1_565 S
C3300 C3301 1.400 . S
C3301 C3295 1.491 . S
C3301 C3300 1.400 . S
C3301 C3302 1.398 . S
C3302 H3290 0.950 . S
C3302 C3301 1.398 . S
C3302 C3303 1.391 . S
C3303 H3291 0.950 . S
C3303 C3299 1.431 . S
C3303 C3302 1.391 . S
H3304 C3312 0.950 . S
H3305 C3317 0.950 . S
H3306 C3314 0.950 . S
H3307 C3316 0.950 . S
H3308 C3318 0.950 . S
H3309 C3320 0.950 . S
H3310 C3322 0.950 . S
H3311 C3323 0.950 . S
C3312 H3304 0.950 . S
C3312 C3313 1.386 . S
C3312 C3314 1.391 . S
C3313 C3312 1.386 . S
C3313 C3317 1.393 . S
C3314 H3306 0.950 . S
C3314 C3312 1.391 . S
C3314 C3315 1.400 . S
C3315 C3314 1.400 . S
C3315 C3316 1.398 . S
C3315 C3321 1.491 . S
C3316 H3307 0.950 . S
C3316 C3315 1.398 . S
C3316 C3317 1.391 . S
C3317 H3305 0.950 . S
C3317 C3313 1.393 . S
C3317 C3316 1.391 . S
C3318 H3308 0.950 . S
C3318 C3319 1.386 . S
C3318 C3320 1.391 . S
C3319 C3318 1.386 . S
C3319 C3323 1.393 . S
C3320 H3309 0.950 . S
C3320 C3318 1.391 . S
C3320 C3321 1.400 . S
C3321 C3315 1.491 . S
C3321 C3320 1.400 . S
C3321 C3322 1.398 . S
C3322 H3310 0.950 . S
C3322 C3321 1.398 . S
C3322 C3323 1.391 . S
C3323 H3311 0.950 . S
C3323 C3319 1.393 . S
C3323 C3322 1.391 . S
H3324 C3332 0.950 . S
H3325 C3337 0.950 . S
H3326 C3334 0.950 . S
H3327 C3336 0.950 . S
H3328 C3338 0.950 . S
H3329 C3340 0.950 . S
H3330 C3342 0.950 . S
H3331 C3343 0.950 . S
C3332 H3324 0.950 . S
C3332 C3333 1.386 . S
C3332 C3334 1.391 . S
C3333 C3332 1.386 . S
C3333 C3337 1.393 . S
C3334 H3326 0.950 . S
C3334 C3332 1.391 . S
C3334 C3335 1.400 . S
C3335 C3334 1.400 . S
C3335 C3336 1.398 . S
C3335 C3341 1.491 . S
C3336 H3327 0.950 . S
C3336 C3335 1.398 . S
C3336 C3337 1.391 . S
C3337 H3325 0.950 . S
C3337 C3333 1.393 . S
C3337 C3336 1.391 . S
C3338 H3328 0.950 . S
C3338 C3339 1.386 . S
C3338 C3340 1.391 . S
C3339 C3338 1.386 . S
C3339 C3343 1.393 . S
C3340 H3329 0.950 . S
C3340 C3338 1.391 . S
C3340 C3341 1.400 . S
C3341 C3335 1.491 . S
C3341 C3340 1.400 . S
C3341 C3342 1.398 . S
C3342 H3330 0.950 . S
C3342 C3341 1.398 . S
C3342 C3343 1.391 . S
C3343 H3331 0.950 . S
C3343 C3339 1.393 . S
C3343 C3342 1.391 . S
H3344 C3352 0.950 . S
H3345 C3357 0.950 . S
H3346 C3354 0.950 . S
H3347 C3356 0.950 . S
H3348 C3358 0.950 . S
H3349 C3360 0.950 . S
H3350 C3362 0.950 . S
H3351 C3363 0.950 . S
C3352 H3344 0.950 . S
C3352 C3353 1.386 . S
C3352 C3354 1.391 . S
C3353 C3352 1.386 . S
C3353 C3357 1.393 . S
C3354 H3346 0.950 . S
C3354 C3352 1.391 . S
C3354 C3355 1.400 . S
C3355 C3354 1.400 . S
C3355 C3356 1.398 . S
C3355 C3361 1.491 . S
C3356 H3347 0.950 . S
C3356 C3355 1.398 . S
C3356 C3357 1.391 . S
C3357 H3345 0.950 . S
C3357 C3353 1.393 . S
C3357 C3356 1.391 . S
C3358 H3348 0.950 . S
C3358 C3359 1.386 . S
C3358 C3360 1.391 . S
C3359 C3358 1.386 . S
C3359 C3363 1.393 . S
C3360 H3349 0.950 . S
C3360 C3358 1.391 . S
C3360 C3361 1.400 . S
C3361 C3355 1.491 . S
C3361 C3360 1.400 . S
C3361 C3362 1.398 . S
C3362 H3350 0.950 . S
C3362 C3361 1.398 . S
C3362 C3363 1.391 . S
C3363 H3351 0.950 . S
C3363 C3359 1.393 . S
C3363 C3362 1.391 . S
H3364 C3372 0.950 . S
H3365 C3377 0.950 . S
H3366 C3374 0.950 1_556 S
H3367 C3376 0.950 . S
H3368 C3378 0.950 . S
H3369 C3380 0.950 . S
H3370 C3382 0.959 . S
H3371 C3383 0.950 . S
C3372 H3364 0.950 . S
C3372 C3373 1.386 . S
C3372 C3374 1.391 . S
C3373 C3372 1.386 . S
C3373 C3377 1.393 . S
C3374 H3366 0.950 1_554 S
C3374 C3372 1.391 . S
C3374 C3375 1.400 . S
C3375 C3374 1.400 . S
C3375 C3376 1.398 . S
C3375 C3381 1.491 . S
C3376 H3367 0.950 . S
C3376 C3375 1.398 . S
C3376 C3377 1.391 . S
C3377 H3365 0.950 . S
C3377 C3373 1.393 . S
C3377 C3376 1.391 . S
C3378 H3368 0.950 . S
C3378 C3379 1.386 . S
C3378 C3380 1.391 . S
C3379 C3378 1.386 . S
C3379 C3383 1.393 1_554 S
C3380 H3369 0.950 . S
C3380 C3378 1.391 . S
C3380 C3381 1.400 . S
C3381 C3375 1.491 . S
C3381 C3380 1.400 . S
C3381 C3382 1.387 1_554 S
C3382 H3370 0.959 . S
C3382 C3381 1.387 1_556 S
C3382 C3383 1.394 . S
C3383 H3371 0.950 . S
C3383 C3379 1.393 1_556 S
C3383 C3382 1.394 . S
H3384 C3392 0.950 . S
H3385 C3397 0.950 . S
H3386 C3394 0.950 . S
H3387 C3396 0.950 . S
H3388 C3398 0.950 . S
H3389 C3400 0.950 . S
H3390 C3402 0.950 . S
H3391 C3403 0.950 . S
C3392 H3384 0.950 . S
C3392 C3393 1.386 . S
C3392 C3394 1.391 . S
C3393 C3392 1.386 . S
C3393 C3397 1.393 . S
C3394 H3386 0.950 . S
C3394 C3392 1.391 . S
C3394 C3395 1.400 . S
C3395 C3394 1.400 . S
C3395 C3396 1.398 . S
C3395 C3401 1.491 . S
C3396 H3387 0.950 . S
C3396 C3395 1.398 . S
C3396 C3397 1.391 . S
C3397 H3385 0.950 . S
C3397 C3393 1.393 . S
C3397 C3396 1.391 . S
C3398 H3388 0.950 . S
C3398 C3399 1.386 . S
C3398 C3400 1.391 . S
C3399 C3398 1.386 . S
C3399 C3403 1.393 . S
C3400 H3389 0.950 . S
C3400 C3398 1.391 . S
C3400 C3401 1.400 . S
C3401 C3395 1.491 . S
C3401 C3400 1.400 . S
C3401 C3402 1.398 . S
C3402 H3390 0.950 . S
C3402 C3401 1.398 . S
C3402 C3403 1.391 . S
C3403 H3391 0.950 . S
C3403 C3399 1.393 . S
C3403 C3402 1.391 . S
H3404 C3412 0.950 . S
H3405 C3417 0.950 . S
H3406 C3414 0.950 . S
H3407 C3416 0.950 . S
H3408 C3418 0.950 . S
H3409 C3420 0.950 . S
H3410 C3422 0.950 . S
H3411 C3423 0.950 . S
C3412 H3404 0.950 . S
C3412 C3413 1.386 . S
C3412 C3414 1.391 . S
C3413 C3412 1.386 . S
C3413 C3417 1.393 . S
C3414 H3406 0.950 . S
C3414 C3412 1.391 . S
C3414 C3415 1.400 . S
C3415 C3414 1.400 . S
C3415 C3416 1.398 . S
C3415 C3421 1.491 . S
C3416 H3407 0.950 . S
C3416 C3415 1.398 . S
C3416 C3417 1.391 . S
C3417 H3405 0.950 . S
C3417 C3413 1.393 . S
C3417 C3416 1.391 . S
C3418 H3408 0.950 . S
C3418 C3419 1.386 . S
C3418 C3420 1.391 . S
C3419 C3418 1.386 . S
C3419 C3423 1.393 . S
C3420 H3409 0.950 . S
C3420 C3418 1.391 . S
C3420 C3421 1.400 . S
C3421 C3415 1.491 . S
C3421 C3420 1.400 . S
C3421 C3422 1.398 . S
C3422 H3410 0.950 . S
C3422 C3421 1.398 . S
C3422 C3423 1.391 . S
C3423 H3411 0.950 . S
C3423 C3419 1.393 . S
C3423 C3422 1.391 . S
C1513 C255 2.095 . S
C1519 C895 2.093 . S
C1533 C147 1.787 . S
C1539 C906 1.813 . S
C1553 C184 1.611 . S
C1559 C975 1.594 . S
C1579 C988 1.195 . S
C1573 C220 1.213 . S
C1593 C40 2.505 . S
C1599 C1044 2.462 . S
C1619 C1095 2.138 . S
C1613 C74 2.147 . S
C1639 C1124 2.428 . S
C1633 C110 2.445 . S
C1653 C14 2.404 . S
C1659 C1175 2.368 . S
C1679 C866 1.274 . S
C1673 C579 1.278 . S
C1693 C616 0.945 . S
C1699 C908 0.917 . S
C1719 C946 1.104 . S
C1713 C687 1.102 . S
C1739 C1015 1.753 . S
C1733 C436 1.710 . S
C1753 C580 0.600 . S
C1759 C1049 0.598 . S
C1779 C1066 1.454 . S
C1773 C615 1.451 . S
C1799 C1129 0.408 . S
C1793 C688 0.424 . S
C1819 C1146 2.125 . S
C1813 C435 2.162 . S
C1839 C868 1.590 . S
C1833 C410 1.693 1_554 S
C1853 C722 1.674 . S
C1859 C1207 1.634 . S
C1879 C1228 1.459 . S
C1873 C842 1.568 . S
C1899 C1287 0.457 1_655 S
C1893 C794 0.424 . S
C1913 C302 1.056 . S
C1919 C1148 1.014 . S
C1933 C338 1.379 . S
C1939 C948 1.366 . S
C1953 C830 0.976 . S
C1959 C1306 0.992 . S
C1979 C1375 1.008 . S
C1973 C758 1.043 . S
C1999 C884 2.073 . S
C1993 C158 1.942 . S
C2019 C1367 1.799 . S
C2013 C254 1.786 . S
C2033 C218 1.638 . S
C2039 C964 1.597 . S
C2053 C194 1.145 . S
C2059 C1329 1.173 . S
C2079 C1055 2.424 . S
C2073 C3 2.449 . S
C2093 C111 2.046 . S
C2099 C1244 2.009 . S
C2119 C1135 2.355 1_556 S
C2113 C76 2.363 . S
C2139 C1404 2.434 . S
C2133 C50 2.406 1_655 S
C2159 C887 1.268 . S
C2153 C364 1.276 . S
C2179 C1369 0.952 . S
C2173 C795 0.980 . S
C2193 C292 1.048 . S
C2199 C967 1.026 . S
C2213 C723 1.665 . S
C2219 C1324 1.661 . S
C2233 C363 0.597 . S
C2239 C1028 0.609 . S
C2259 C1247 1.448 . S
C2253 C796 1.455 . S
C2273 C291 0.363 . S
C2279 C1108 0.383 . S
C2293 C724 2.129 . S
C2299 C1407 2.101 . S
C2313 C482 1.582 . S
C2319 C889 1.632 1_554 S
C2333 C434 1.657 . S
C2339 C1186 1.616 . S
C2353 C662 1.330 . S
C2359 C1089 1.424 . S
C2373 C614 0.402 . S
C2379 C1266 0.390 . S
C2399 C1409 1.039 . S
C2393 C698 0.991 1_565 S
C2413 C554 1.328 . S
C2419 C969 1.391 . S
C2439 C1007 0.943 . S
C2433 C650 0.934 . S
C2459 C924 1.012 . S
C2453 C506 1.021 . S
C2473 C183 2.107 . S
C2479 C1455 2.105 . S
C2499 C1346 1.809 . S
C2493 C219 1.794 . S
C2513 C256 1.608 . S
C2519 C1495 1.599 . S
C2533 C148 1.208 . S
C2539 C1308 1.182 . S
C2553 C122 2.436 . S
C2559 C1204 2.514 . S
C2579 C1255 2.069 . S
C2573 C2 2.104 . S
C2599 C1284 2.314 . S
C2593 C39 2.325 . S
C2619 C1415 2.433 . S
C2613 C86 2.455 . S
C2639 C1426 1.301 . S
C2633 C651 1.304 . S
C2653 C472 0.968 . S
C2659 C1348 0.944 . S
C2679 C1466 1.082 . S
C2673 C507 1.088 . S
C2699 C1335 1.759 . S
C2693 C544 1.714 . S
C2719 C1209 0.645 . S
C2713 C652 0.617 . S
C2733 C471 1.452 . S
C2739 C1226 1.449 . S
C2759 C1289 0.401 . S
C2753 C508 0.416 . S
C2773 C543 2.179 . S
C2779 C1386 2.145 . S
C2799 C1428 1.607 . S
C2793 C806 1.712 . S
C2813 C326 1.654 . S
C2819 C1047 1.606 . S
C2839 C1068 1.413 . S
C2833 C374 1.523 . S
C2859 C1127 0.442 . S
C2853 C398 0.393 . S
C2879 C1388 0.998 . S
C2873 C770 1.035 . S
C2893 C734 1.370 . S
C2899 C1468 1.381 . S
C2919 C986 0.993 . S
C2913 C362 0.992 . S
C2939 C935 1.047 . S
C2933 C290 1.049 . S
C2953 C230 1.954 . S
C2959 C1444 2.080 . S
C2979 C927 1.804 . S
C2973 C182 1.787 . S
C2993 C146 1.626 . S
C2999 C1484 1.615 . S
C3013 C266 1.143 . S
C3019 C1009 1.168 . S
C3033 C75 2.502 . S
C3039 C1215 2.477 1_556 S
C3059 C1084 2.130 . S
C3053 C38 2.159 . S
C3073 C4 2.307 . S
C3079 C1295 2.302 . S
C3093 C112 2.407 . S
C3099 C1164 2.341 . S
C3119 C1447 1.267 . S
C3113 C832 1.279 . S
C3133 C399 0.985 . S
C3139 C929 0.949 . S
C3159 C1487 1.017 . S
C3153 C760 1.036 . S
C3173 C327 1.658 . S
C3179 C1004 1.664 . S
C3193 C831 0.594 . S
C3199 C1188 0.593 . S
C3219 C1087 1.439 . S
C3213 C400 1.460 . S
C3233 C759 0.383 . S
C3239 C1268 0.428 . S
C3259 C1167 2.113 . S
C3253 C328 2.129 . S
C3279 C1449 1.624 . S
C3273 C626 1.568 . S
C3299 C1026 1.593 1_565 S
C3293 C542 1.656 . S
C3313 C590 1.306 . S
C3319 C1249 1.400 . S
C3339 C1106 0.439 . S
C3333 C470 0.392 . S
C3353 C518 0.908 . S
C3359 C1169 0.972 . S
C3373 C446 1.330 . S
C3379 C1489 1.390 . S
C3399 C1327 0.945 . S
C3393 C578 0.922 . S
C3419 C1364 0.951 . S
C3413 C686 0.989 . S
