# Generated by pormake.
# Topology gar, (4,6)-cn, num edge types: 1
# Building blocks:
#     Node 0, Type 0, BuildingBlock: GALJAG_clean_sbu_0, # of connection points: 4
#     Node 1, Type 0, BuildingBlock: GALJAG_clean_sbu_0, # of connection points: 4
#     Node 2, Type 0, BuildingBlock: GALJAG_clean_sbu_0, # of connection points: 4
#     Node 3, Type 0, BuildingBlock: GALJAG_clean_sbu_0, # of connection points: 4
#     Node 4, Type 0, BuildingBlock: GALJAG_clean_sbu_0, # of connection points: 4
#     Node 5, Type 0, BuildingBlock: GALJAG_clean_sbu_0, # of connection points: 4
#     Node 6, Type 0, BuildingBlock: GALJAG_clean_sbu_0, # of connection points: 4
#     Node 7, Type 0, BuildingBlock: GALJAG_clean_sbu_0, # of connection points: 4
#     Node 8, Type 0, BuildingBlock: GALJAG_clean_sbu_0, # of connection points: 4
#     Node 9, Type 0, BuildingBlock: GALJAG_clean_sbu_0, # of connection points: 4
#     Node 10, Type 0, BuildingBlock: GALJAG_clean_sbu_0, # of connection points: 4
#     Node 11, Type 0, BuildingBlock: GALJAG_clean_sbu_0, # of connection points: 4
#     Node 12, Type 0, BuildingBlock: GALJAG_clean_sbu_0, # of connection points: 4
#     Node 13, Type 0, BuildingBlock: GALJAG_clean_sbu_0, # of connection points: 4
#     Node 14, Type 0, BuildingBlock: GALJAG_clean_sbu_0, # of connection points: 4
#     Node 15, Type 0, BuildingBlock: GALJAG_clean_sbu_0, # of connection points: 4
#     Node 16, Type 0, BuildingBlock: GALJAG_clean_sbu_0, # of connection points: 4
#     Node 17, Type 0, BuildingBlock: GALJAG_clean_sbu_0, # of connection points: 4
#     Node 18, Type 0, BuildingBlock: GALJAG_clean_sbu_0, # of connection points: 4
#     Node 19, Type 0, BuildingBlock: GALJAG_clean_sbu_0, # of connection points: 4
#     Node 20, Type 0, BuildingBlock: GALJAG_clean_sbu_0, # of connection points: 4
#     Node 21, Type 0, BuildingBlock: GALJAG_clean_sbu_0, # of connection points: 4
#     Node 22, Type 0, BuildingBlock: GALJAG_clean_sbu_0, # of connection points: 4
#     Node 23, Type 0, BuildingBlock: GALJAG_clean_sbu_0, # of connection points: 4
#     Node 24, Type 1, BuildingBlock: NUHQIS_clean_sbu_0, # of connection points: 6
#     Node 25, Type 1, BuildingBlock: NUHQIS_clean_sbu_0, # of connection points: 6
#     Node 26, Type 1, BuildingBlock: NUHQIS_clean_sbu_0, # of connection points: 6
#     Node 27, Type 1, BuildingBlock: NUHQIS_clean_sbu_0, # of connection points: 6
#     Node 28, Type 1, BuildingBlock: NUHQIS_clean_sbu_0, # of connection points: 6
#     Node 29, Type 1, BuildingBlock: NUHQIS_clean_sbu_0, # of connection points: 6
#     Node 30, Type 1, BuildingBlock: NUHQIS_clean_sbu_0, # of connection points: 6
#     Node 31, Type 1, BuildingBlock: NUHQIS_clean_sbu_0, # of connection points: 6
#     Node 32, Type 1, BuildingBlock: NUHQIS_clean_sbu_0, # of connection points: 6
#     Node 33, Type 1, BuildingBlock: NUHQIS_clean_sbu_0, # of connection points: 6
#     Node 34, Type 1, BuildingBlock: NUHQIS_clean_sbu_0, # of connection points: 6
#     Node 35, Type 1, BuildingBlock: NUHQIS_clean_sbu_0, # of connection points: 6
#     Node 36, Type 1, BuildingBlock: NUHQIS_clean_sbu_0, # of connection points: 6
#     Node 37, Type 1, BuildingBlock: NUHQIS_clean_sbu_0, # of connection points: 6
#     Node 38, Type 1, BuildingBlock: NUHQIS_clean_sbu_0, # of connection points: 6
#     Node 39, Type 1, BuildingBlock: NUHQIS_clean_sbu_0, # of connection points: 6
#     Edge 40, Type (0, 1), BuildingBlock: MIFKUJ_clean_linker_0, # of connection points: 2
#     Edge 41, Type (0, 1), BuildingBlock: MIFKUJ_clean_linker_0, # of connection points: 2
#     Edge 42, Type (0, 1), BuildingBlock: MIFKUJ_clean_linker_0, # of connection points: 2
#     Edge 43, Type (0, 1), BuildingBlock: MIFKUJ_clean_linker_0, # of connection points: 2
#     Edge 44, Type (0, 1), BuildingBlock: MIFKUJ_clean_linker_0, # of connection points: 2
#     Edge 45, Type (0, 1), BuildingBlock: MIFKUJ_clean_linker_0, # of connection points: 2
#     Edge 46, Type (0, 1), BuildingBlock: MIFKUJ_clean_linker_0, # of connection points: 2
#     Edge 47, Type (0, 1), BuildingBlock: MIFKUJ_clean_linker_0, # of connection points: 2
#     Edge 48, Type (0, 1), BuildingBlock: MIFKUJ_clean_linker_0, # of connection points: 2
#     Edge 49, Type (0, 1), BuildingBlock: MIFKUJ_clean_linker_0, # of connection points: 2
#     Edge 50, Type (0, 1), BuildingBlock: MIFKUJ_clean_linker_0, # of connection points: 2
#     Edge 51, Type (0, 1), BuildingBlock: MIFKUJ_clean_linker_0, # of connection points: 2
#     Edge 52, Type (0, 1), BuildingBlock: MIFKUJ_clean_linker_0, # of connection points: 2
#     Edge 53, Type (0, 1), BuildingBlock: MIFKUJ_clean_linker_0, # of connection points: 2
#     Edge 54, Type (0, 1), BuildingBlock: MIFKUJ_clean_linker_0, # of connection points: 2
#     Edge 55, Type (0, 1), BuildingBlock: MIFKUJ_clean_linker_0, # of connection points: 2
#     Edge 56, Type (0, 1), BuildingBlock: MIFKUJ_clean_linker_0, # of connection points: 2
#     Edge 57, Type (0, 1), BuildingBlock: MIFKUJ_clean_linker_0, # of connection points: 2
#     Edge 58, Type (0, 1), BuildingBlock: MIFKUJ_clean_linker_0, # of connection points: 2
#     Edge 59, Type (0, 1), BuildingBlock: MIFKUJ_clean_linker_0, # of connection points: 2
#     Edge 60, Type (0, 1), BuildingBlock: MIFKUJ_clean_linker_0, # of connection points: 2
#     Edge 61, Type (0, 1), BuildingBlock: MIFKUJ_clean_linker_0, # of connection points: 2
#     Edge 62, Type (0, 1), BuildingBlock: MIFKUJ_clean_linker_0, # of connection points: 2
#     Edge 63, Type (0, 1), BuildingBlock: MIFKUJ_clean_linker_0, # of connection points: 2
#     Edge 64, Type (0, 1), BuildingBlock: MIFKUJ_clean_linker_0, # of connection points: 2
#     Edge 65, Type (0, 1), BuildingBlock: MIFKUJ_clean_linker_0, # of connection points: 2
#     Edge 66, Type (0, 1), BuildingBlock: MIFKUJ_clean_linker_0, # of connection points: 2
#     Edge 67, Type (0, 1), BuildingBlock: MIFKUJ_clean_linker_0, # of connection points: 2
#     Edge 68, Type (0, 1), BuildingBlock: MIFKUJ_clean_linker_0, # of connection points: 2
#     Edge 69, Type (0, 1), BuildingBlock: MIFKUJ_clean_linker_0, # of connection points: 2
#     Edge 70, Type (0, 1), BuildingBlock: MIFKUJ_clean_linker_0, # of connection points: 2
#     Edge 71, Type (0, 1), BuildingBlock: MIFKUJ_clean_linker_0, # of connection points: 2
#     Edge 72, Type (0, 1), BuildingBlock: MIFKUJ_clean_linker_0, # of connection points: 2
#     Edge 73, Type (0, 1), BuildingBlock: MIFKUJ_clean_linker_0, # of connection points: 2
#     Edge 74, Type (0, 1), BuildingBlock: MIFKUJ_clean_linker_0, # of connection points: 2
#     Edge 75, Type (0, 1), BuildingBlock: MIFKUJ_clean_linker_0, # of connection points: 2
#     Edge 76, Type (0, 1), BuildingBlock: MIFKUJ_clean_linker_0, # of connection points: 2
#     Edge 77, Type (0, 1), BuildingBlock: MIFKUJ_clean_linker_0, # of connection points: 2
#     Edge 78, Type (0, 1), BuildingBlock: MIFKUJ_clean_linker_0, # of connection points: 2
#     Edge 79, Type (0, 1), BuildingBlock: MIFKUJ_clean_linker_0, # of connection points: 2
#     Edge 80, Type (0, 1), BuildingBlock: MIFKUJ_clean_linker_0, # of connection points: 2
#     Edge 81, Type (0, 1), BuildingBlock: MIFKUJ_clean_linker_0, # of connection points: 2
#     Edge 82, Type (0, 1), BuildingBlock: MIFKUJ_clean_linker_0, # of connection points: 2
#     Edge 83, Type (0, 1), BuildingBlock: MIFKUJ_clean_linker_0, # of connection points: 2
#     Edge 84, Type (0, 1), BuildingBlock: MIFKUJ_clean_linker_0, # of connection points: 2
#     Edge 85, Type (0, 1), BuildingBlock: MIFKUJ_clean_linker_0, # of connection points: 2
#     Edge 86, Type (0, 1), BuildingBlock: MIFKUJ_clean_linker_0, # of connection points: 2
#     Edge 87, Type (0, 1), BuildingBlock: MIFKUJ_clean_linker_0, # of connection points: 2
#     Edge 88, Type (0, 1), BuildingBlock: MIFKUJ_clean_linker_0, # of connection points: 2
#     Edge 89, Type (0, 1), BuildingBlock: MIFKUJ_clean_linker_0, # of connection points: 2
#     Edge 90, Type (0, 1), BuildingBlock: MIFKUJ_clean_linker_0, # of connection points: 2
#     Edge 91, Type (0, 1), BuildingBlock: MIFKUJ_clean_linker_0, # of connection points: 2
#     Edge 92, Type (0, 1), BuildingBlock: MIFKUJ_clean_linker_0, # of connection points: 2
#     Edge 93, Type (0, 1), BuildingBlock: MIFKUJ_clean_linker_0, # of connection points: 2
#     Edge 94, Type (0, 1), BuildingBlock: MIFKUJ_clean_linker_0, # of connection points: 2
#     Edge 95, Type (0, 1), BuildingBlock: MIFKUJ_clean_linker_0, # of connection points: 2
#     Edge 96, Type (0, 1), BuildingBlock: MIFKUJ_clean_linker_0, # of connection points: 2
#     Edge 97, Type (0, 1), BuildingBlock: MIFKUJ_clean_linker_0, # of connection points: 2
#     Edge 98, Type (0, 1), BuildingBlock: MIFKUJ_clean_linker_0, # of connection points: 2
#     Edge 99, Type (0, 1), BuildingBlock: MIFKUJ_clean_linker_0, # of connection points: 2
#     Edge 100, Type (0, 1), BuildingBlock: MIFKUJ_clean_linker_0, # of connection points: 2
#     Edge 101, Type (0, 1), BuildingBlock: MIFKUJ_clean_linker_0, # of connection points: 2
#     Edge 102, Type (0, 1), BuildingBlock: MIFKUJ_clean_linker_0, # of connection points: 2
#     Edge 103, Type (0, 1), BuildingBlock: MIFKUJ_clean_linker_0, # of connection points: 2
#     Edge 104, Type (0, 1), BuildingBlock: MIFKUJ_clean_linker_0, # of connection points: 2
#     Edge 105, Type (0, 1), BuildingBlock: MIFKUJ_clean_linker_0, # of connection points: 2
#     Edge 106, Type (0, 1), BuildingBlock: MIFKUJ_clean_linker_0, # of connection points: 2
#     Edge 107, Type (0, 1), BuildingBlock: MIFKUJ_clean_linker_0, # of connection points: 2
#     Edge 108, Type (0, 1), BuildingBlock: MIFKUJ_clean_linker_0, # of connection points: 2
#     Edge 109, Type (0, 1), BuildingBlock: MIFKUJ_clean_linker_0, # of connection points: 2
#     Edge 110, Type (0, 1), BuildingBlock: MIFKUJ_clean_linker_0, # of connection points: 2
#     Edge 111, Type (0, 1), BuildingBlock: MIFKUJ_clean_linker_0, # of connection points: 2
#     Edge 112, Type (0, 1), BuildingBlock: MIFKUJ_clean_linker_0, # of connection points: 2
#     Edge 113, Type (0, 1), BuildingBlock: MIFKUJ_clean_linker_0, # of connection points: 2
#     Edge 114, Type (0, 1), BuildingBlock: MIFKUJ_clean_linker_0, # of connection points: 2
#     Edge 115, Type (0, 1), BuildingBlock: MIFKUJ_clean_linker_0, # of connection points: 2
#     Edge 116, Type (0, 1), BuildingBlock: MIFKUJ_clean_linker_0, # of connection points: 2
#     Edge 117, Type (0, 1), BuildingBlock: MIFKUJ_clean_linker_0, # of connection points: 2
#     Edge 118, Type (0, 1), BuildingBlock: MIFKUJ_clean_linker_0, # of connection points: 2
#     Edge 119, Type (0, 1), BuildingBlock: MIFKUJ_clean_linker_0, # of connection points: 2
#     Edge 120, Type (0, 1), BuildingBlock: MIFKUJ_clean_linker_0, # of connection points: 2
#     Edge 121, Type (0, 1), BuildingBlock: MIFKUJ_clean_linker_0, # of connection points: 2
#     Edge 122, Type (0, 1), BuildingBlock: MIFKUJ_clean_linker_0, # of connection points: 2
#     Edge 123, Type (0, 1), BuildingBlock: MIFKUJ_clean_linker_0, # of connection points: 2
#     Edge 124, Type (0, 1), BuildingBlock: MIFKUJ_clean_linker_0, # of connection points: 2
#     Edge 125, Type (0, 1), BuildingBlock: MIFKUJ_clean_linker_0, # of connection points: 2
#     Edge 126, Type (0, 1), BuildingBlock: MIFKUJ_clean_linker_0, # of connection points: 2
#     Edge 127, Type (0, 1), BuildingBlock: MIFKUJ_clean_linker_0, # of connection points: 2
#     Edge 128, Type (0, 1), BuildingBlock: MIFKUJ_clean_linker_0, # of connection points: 2
#     Edge 129, Type (0, 1), BuildingBlock: MIFKUJ_clean_linker_0, # of connection points: 2
#     Edge 130, Type (0, 1), BuildingBlock: MIFKUJ_clean_linker_0, # of connection points: 2
#     Edge 131, Type (0, 1), BuildingBlock: MIFKUJ_clean_linker_0, # of connection points: 2
#     Edge 132, Type (0, 1), BuildingBlock: MIFKUJ_clean_linker_0, # of connection points: 2
#     Edge 133, Type (0, 1), BuildingBlock: MIFKUJ_clean_linker_0, # of connection points: 2
#     Edge 134, Type (0, 1), BuildingBlock: MIFKUJ_clean_linker_0, # of connection points: 2
#     Edge 135, Type (0, 1), BuildingBlock: MIFKUJ_clean_linker_0, # of connection points: 2
# Relax obj value: 0.190
# Max RMSD: 0.278
# Mean RMSD: 0.153
data_MOF--net-gar--node1-GALJAG_clean_sbu_0--node2-NUHQIS_clean_sbu_0--edge1-MIFKUJ_clean_linker_0
_symmetry_space_group_name_H-M    P1
_symmetry_Int_Tables_number       1
_symmetry_cell_setting            triclinic
loop_
_symmetry_equiv_pos_as_xyz
'x, y, z'
_cell_length_a     73.692488
_cell_length_b     76.573749
_cell_length_c     72.867547
_cell_angle_alpha  92.854559
_cell_angle_beta   95.996742
_cell_angle_gamma 99.584034
loop_
_atom_site_label
_atom_site_type_symbol
_atom_site_fract_x
_atom_site_fract_y
_atom_site_fract_z
_atom_type_partial_charge
In0 In 0.06187 0.27892 0.41185 0.0
O1 O 0.07886 0.27418 0.386 0.0
O2 O 0.09489 0.28585 0.41006 0.0
C3 C 0.02589 0.27681 0.39203 0.0
C4 C 0.06008 0.24529 0.42972 0.0
C5 C 0.06297 0.31424 0.42924 0.0
O6 O 0.04091 0.28063 0.38494 0.0
O7 O 0.02885 0.27346 0.4088 0.0
O8 O 0.06462 0.30062 0.43816 0.0
O9 O 0.06137 0.31022 0.41203 0.0
C10 C 0.09514 0.28032 0.39341 0.0
O11 O 0.06313 0.26054 0.43834 0.0
O12 O 0.05799 0.24693 0.41246 0.0
In13 In 0.04067 0.78555 0.64875 0.0
O14 O 0.03596 0.80437 0.62303 0.0
O15 O 0.04759 0.81753 0.64817 0.0
C16 C 0.03965 0.75076 0.62972 0.0
C17 C 0.0762 0.78694 0.66947 0.0
C18 C 1.00757 0.78457 0.66754 0.0
O19 O 0.04437 0.76551 0.62279 0.0
O20 O 0.03478 0.75343 0.64562 0.0
O21 O 0.02403 0.78983 0.67503 0.0
O22 O 1.00757 0.77978 0.65061 0.0
C23 C 0.04227 0.81947 0.63142 0.0
O24 O 0.06094 0.78295 0.67608 0.0
O25 O 0.07368 0.79056 0.65277 0.0
In26 In 0.56211 0.77848 0.91268 0.0
O27 O 0.57866 0.77496 0.88626 0.0
O28 O 0.59515 0.78438 0.91085 0.0
C29 C 0.52592 0.77576 0.89311 0.0
C30 C 0.56052 0.74473 0.93015 0.0
C31 C 0.56359 0.81371 0.93062 0.0
O32 O 0.54081 0.78121 0.88636 0.0
O33 O 0.52911 0.77113 0.90939 0.0
O34 O 0.5664 0.80018 0.93924 0.0
O35 O 0.56057 0.80963 0.91343 0.0
C36 C 0.5951 0.77998 0.89384 0.0
O37 O 0.56158 0.75974 0.93887 0.0
O38 O 0.56036 0.74667 0.91297 0.0
In39 In 0.5407 0.28525 0.14805 0.0
O40 O 0.53299 0.2625 0.12233 0.0
O41 O 0.54724 0.25545 0.14619 0.0
C42 C 0.54281 0.31899 0.13034 0.0
C43 C 0.50778 0.28292 0.16741 0.0
C44 C 0.57668 0.28822 0.1679 0.0
O45 O 0.54059 0.30385 0.12163 0.0
O46 O 0.54389 0.31716 0.14754 0.0
O47 O 0.56173 0.28514 0.17527 0.0
O48 O 0.57362 0.29024 0.15077 0.0
C49 C 0.54024 0.25026 0.12985 0.0
O50 O 0.52411 0.28933 0.17448 0.0
O51 O 0.50784 0.27737 0.15074 0.0
In52 In 0.08596 0.82937 0.13688 0.0
O53 O 0.093 0.81317 0.11231 0.0
O54 O 0.06612 0.80656 0.12093 0.0
C55 C 0.08548 0.86134 0.12323 0.0
C56 C 0.06038 0.82608 0.16093 0.0
C57 C 0.11845 0.82467 0.15474 0.0
O58 O 0.08423 0.84737 0.11298 0.0
O59 O 0.0876 0.85927 0.14031 0.0
O60 O 0.11606 0.83937 0.14865 0.0
O61 O 0.10465 0.81235 0.15136 0.0
C62 C 0.0773 0.80327 0.1098 0.0
O63 O 0.07738 0.82676 0.16595 0.0
O64 O 0.05631 0.82709 0.14383 0.0
In65 In 0.52066 0.72732 0.4057 0.0
O66 O 0.53411 0.73243 0.37947 0.0
O67 O 0.54229 0.71209 0.39564 0.0
C68 C 0.48625 0.71644 0.38857 0.0
C69 C 0.52633 0.71171 0.43765 0.0
C70 C 0.5253 0.76282 0.413 0.0
O71 O 0.50053 0.71386 0.3814 0.0
O72 O 0.48936 0.72386 0.40473 0.0
O73 O 0.50957 0.75319 0.40955 0.0
O74 O 0.53871 0.75457 0.41285 0.0
C75 C 0.54425 0.72077 0.38148 0.0
O76 O 0.53519 0.72662 0.43466 0.0
O77 O 0.51457 0.70454 0.42448 0.0
In78 In 0.57817 0.32861 0.6416 0.0
O79 O 0.57431 0.3159 0.61224 0.0
O80 O 0.57476 0.29899 0.63456 0.0
C81 C 0.58109 0.35797 0.6225 0.0
C82 C 0.54885 0.32466 0.66116 0.0
C83 C 0.6087 0.32798 0.66535 0.0
O84 O 0.595 0.35174 0.62901 0.0
O85 O 0.56574 0.34969 0.62606 0.0
O86 O 0.59575 0.33577 0.66944 0.0
O87 O 0.60643 0.32078 0.64915 0.0
C88 C 0.57329 0.30027 0.61727 0.0
O89 O 0.56251 0.33706 0.665 0.0
O90 O 0.54976 0.31462 0.64717 0.0
In91 In 0.01965 0.23254 0.90769 0.0
O92 O 1.01076 0.22499 0.93567 0.0
O93 O 1.01566 0.20442 0.91723 0.0
C94 C 0.03728 0.26526 0.92031 0.0
C95 C 0.04605 0.22414 0.88768 0.0
C96 C 0.98665 0.23581 0.88984 0.0
O97 O 0.03489 0.25249 0.93061 0.0
O98 O 0.0309 0.26147 0.90357 0.0
O99 O 0.99484 0.24639 0.90305 0.0
O100 O 0.99483 0.22314 0.88592 0.0
C101 C 1.01133 0.20874 0.9329 0.0
O102 O 0.03019 0.22581 0.88039 0.0
O103 O 0.04839 0.22624 0.9051 0.0
In104 In 0.46165 0.09714 0.29213 0.0
O105 O 0.48734 0.1097 0.27935 0.0
O106 O 0.47322 0.08407 0.26869 0.0
C107 C 0.48152 0.0987 0.32554 0.0
C108 C 0.44119 0.1199 0.27681 0.0
C109 C 0.43814 0.06682 0.29503 0.0
O110 O 0.48537 0.09094 0.31121 0.0
O111 O 0.46762 0.10638 0.32311 0.0
O112 O 0.43781 0.08082 0.30484 0.0
O113 O 0.45028 0.06822 0.28395 0.0
C114 C 0.48671 0.09647 0.26807 0.0
O115 O 0.4374 0.10333 0.27375 0.0
O116 O 0.45539 0.12538 0.2882 0.0
In117 In 0.32227 0.1568 0.52941 0.0
O118 O 0.32346 0.18249 0.54994 0.0
O119 O 0.3238 0.15854 0.56239 0.0
C120 C 0.32162 0.17421 0.49511 0.0
C121 C 0.35501 0.1403 0.53119 0.0
C122 C 0.28554 0.1373 0.52814 0.0
O123 O 0.32396 0.18222 0.51102 0.0
O124 O 0.31986 0.15762 0.49634 0.0
O125 O 0.29952 0.1302 0.52574 0.0
O126 O 0.28993 0.15394 0.53081 0.0
C127 C 0.32353 0.17496 0.56503 0.0
O128 O 0.33849 0.13205 0.52814 0.0
O129 O 0.35527 0.15687 0.53354 0.0
In130 In 0.18146 0.04483 0.83517 0.0
O131 O 0.15326 0.03128 0.82113 0.0
O132 O 0.17228 0.0446 0.80429 0.0
C133 C 0.16774 0.03851 0.86746 0.0
C134 C 0.20589 0.02361 0.82784 0.0
C135 C 0.19397 0.0802 0.83869 0.0
O136 O 0.15837 0.04307 0.85362 0.0
O137 O 0.18431 0.03756 0.86525 0.0
O138 O 0.20246 0.06927 0.8468 0.0
O139 O 0.17899 0.07334 0.82918 0.0
C140 C 0.15638 0.03572 0.80518 0.0
O141 O 0.20909 0.0401 0.82617 0.0
O142 O 0.1904 0.01786 0.83314 0.0
In143 In 0.31307 0.89309 0.0401 0.0
O144 O 0.30815 0.86861 0.05756 0.0
O145 O 0.31842 0.8939 0.07136 0.0
C146 C 0.30868 0.87761 1.00502 0.0
C147 C 0.28418 0.91057 0.04111 0.0
C148 C 0.34781 0.91193 0.04539 0.0
O149 O 0.30983 0.86875 0.01915 0.0
O150 O 0.30976 0.89403 1.00864 0.0
O151 O 0.33353 0.91854 0.04725 0.0
O152 O 0.34471 0.8956 0.04022 0.0
C153 C 0.31349 0.87754 0.07281 0.0
O154 O 0.29989 0.91761 0.03727 0.0
O155 O 0.28262 0.89424 0.0438 0.0
In156 In 0.28508 0.4063 0.03698 0.0
O157 O 0.2823 0.38093 0.05533 0.0
O158 O 0.29063 0.40553 0.06995 0.0
C159 C 0.28373 0.38808 1.00128 0.0
C160 C 0.25271 0.42343 0.036 0.0
C161 C 0.32185 0.42535 0.0385 0.0
O162 O 0.27789 0.38072 0.01525 0.0
O163 O 0.28949 0.40448 1.00501 0.0
O164 O 0.30788 0.43266 0.04044 0.0
O165 O 0.31745 0.40863 0.03633 0.0
C166 C 0.2869 0.38893 0.07118 0.0
O167 O 0.26918 0.43147 0.03607 0.0
O168 O 0.25234 0.40686 0.03611 0.0
In169 In 0.79495 0.18666 0.02644 0.0
O170 O 0.8114 0.16488 0.02025 0.0
O171 O 0.82669 0.19058 0.02843 0.0
C172 C 0.76166 0.1651 0.02442 0.0
C173 C 0.79863 0.19909 0.06243 0.0
C174 C 0.79253 0.20445 0.9951 0.0
O175 O 0.77667 0.15943 0.0235 0.0
O176 O 0.76335 0.1818 0.02638 0.0
O177 O 0.79581 0.21243 0.011 0.0
O178 O 0.79028 0.18779 0.99517 0.0
C179 C 0.82709 0.17462 0.02353 0.0
O180 O 0.79667 0.20899 0.04925 0.0
O181 O 0.79875 0.18312 0.05742 0.0
In182 In 0.13115 0.48995 0.27689 0.0
O183 O 0.1574 0.48331 0.29161 0.0
O184 O 0.13348 0.46331 0.28962 0.0
C185 C 0.1495 0.51601 0.25896 0.0
C186 C 0.10776 0.47428 0.24752 0.0
C187 C 0.11861 0.50784 0.30433 0.0
O188 O 0.15641 0.50266 0.26364 0.0
O189 O 0.13319 0.51584 0.26278 0.0
O190 O 0.10917 0.49388 0.296 0.0
O191 O 0.1345 0.51216 0.29938 0.0
C192 C 0.1505 0.46789 0.29524 0.0
O193 O 0.10264 0.48303 0.26055 0.0
O194 O 0.12459 0.47263 0.24972 0.0
In195 In 0.78447 0.90698 0.53474 0.0
O196 O 0.77843 0.8817 0.55317 0.0
O197 O 0.79218 0.90524 0.56732 0.0
C198 C 0.78288 0.8873 0.5 0.0
C199 C 0.75233 0.92428 0.53314 0.0
C200 C 0.82047 0.9275 0.53408 0.0
O201 O 0.79044 0.88313 0.5152 0.0
O202 O 0.77531 0.90082 0.50228 0.0
O203 O 0.80834 0.93237 0.54334 0.0
O204 O 0.8145 0.91275 0.52525 0.0
C205 C 0.78563 0.88911 0.56878 0.0
O206 O 0.76878 0.93217 0.53244 0.0
O207 O 0.75193 0.90779 0.53447 0.0
In208 In 0.90038 0.01907 0.21832 0.0
O209 O 0.92866 0.02895 0.20963 0.0
O210 O 0.9053 0.03 0.19025 0.0
C211 C 0.91651 0.01348 0.252 0.0
C212 C 0.88264 0.04636 0.22371 0.0
C213 C 0.88049 0.98646 0.20838 0.0
O214 O 0.92229 1.00861 0.23722 0.0
O215 O 0.9025 0.02091 0.24978 0.0
O216 O 0.87418 0.99842 0.21691 0.0
O217 O 0.89664 0.99116 0.20414 0.0
C218 C 0.92268 0.03335 0.19402 0.0
O219 O 0.87499 0.03244 0.21396 0.0
O220 O 0.8992 0.04649 0.23033 0.0
In221 In 0.29239 0.68619 0.52738 0.0
O222 O 0.30757 0.66268 0.52711 0.0
O223 O 0.32404 0.68837 0.53091 0.0
C224 C 0.25858 0.66541 0.52179 0.0
C225 C 0.29426 0.70132 0.5623 0.0
C226 C 0.29283 0.70204 0.49485 0.0
O227 O 0.27345 0.65934 0.52449 0.0
O228 O 0.26065 0.68215 0.522 0.0
O229 O 0.29048 0.71017 0.5097 0.0
O230 O 0.29493 0.68618 0.49651 0.0
C231 C 0.32361 0.67181 0.52944 0.0
O232 O 0.29947 0.71012 0.54902 0.0
O233 O 0.28796 0.68518 0.55788 0.0
In234 In 0.40993 0.52453 0.74317 0.0
O235 O 0.38253 0.53395 0.73531 0.0
O236 O 0.39867 0.54458 0.76057 0.0
C237 C 0.39708 0.48948 0.74475 0.0
C238 C 0.42085 0.53554 0.71095 0.0
C239 C 0.4397 0.53099 0.76892 0.0
O240 O 0.38735 0.50123 0.74733 0.0
O241 O 0.41327 0.49537 0.74136 0.0
O242 O 0.44094 0.52787 0.75199 0.0
O243 O 0.4234 0.5306 0.77294 0.0
C244 C 0.38409 0.54422 0.74972 0.0
O245 O 0.42324 0.5456 0.72553 0.0
O246 O 0.4122 0.5201 0.71244 0.0
In247 In 0.61666 0.99393 0.78487 0.0
O248 O 0.64387 0.98402 0.78796 0.0
O249 O 0.62046 0.96648 0.79485 0.0
C250 C 0.64 0.02459 0.78277 0.0
C251 C 0.59639 0.98746 0.75162 0.0
C252 C 0.59355 1.00158 0.80925 0.0
O253 O 0.63582 0.01298 0.7694 0.0
O254 O 0.63251 0.02065 0.79713 0.0
O255 O 0.58789 0.99561 0.79288 0.0
O256 O 0.61062 1.00208 0.81379 0.0
C257 C 0.63767 0.9692 0.79363 0.0
O258 O 0.60021 1.00253 0.76022 0.0
O259 O 0.60296 0.97529 0.75974 0.0
In260 In 0.82248 0.65701 0.02768 0.0
O261 O 0.83822 0.63197 0.02364 0.0
O262 O 0.85493 0.65533 0.03495 0.0
C263 C 0.78579 0.63791 0.02754 0.0
C264 C 0.82317 0.67556 0.06291 0.0
C265 C 0.82143 0.67496 0.99356 0.0
O266 O 0.79936 0.63076 0.02361 0.0
O267 O 0.79056 0.65445 0.03121 0.0
O268 O 0.82951 0.68199 1.009 0.0
O269 O 0.81402 0.65908 0.99515 0.0
C270 C 0.85457 0.63924 0.02979 0.0
O271 O 0.82612 0.68315 0.04816 0.0
O272 O 0.8205 0.65884 0.06011 0.0
In273 In 0.97454 0.59647 0.79946 0.0
O274 O 0.95638 0.61639 0.80764 0.0
O275 O 0.97023 0.62057 0.78377 0.0
C276 C 0.94455 0.57049 0.79645 0.0
C277 C 0.99873 0.59467 0.7749 0.0
C278 C 0.99677 0.5912 0.82957 0.0
O279 O 0.95195 0.57836 0.81167 0.0
O280 O 0.95216 0.57584 0.78254 0.0
O281 O 0.99133 0.57972 0.81632 0.0
O282 O 0.99089 0.6057 0.82784 0.0
C283 C 0.9591 0.62558 0.794 0.0
O284 O 1.00122 0.6069 0.78768 0.0
O285 O 0.98389 0.58357 0.77442 0.0
In286 In 0.81384 0.39045 0.53717 0.0
O287 O 0.81643 0.36681 0.5553 0.0
O288 O 0.80487 0.38824 0.56589 0.0
C289 C 0.80827 0.37379 0.50272 0.0
C290 C 0.78841 0.41198 0.53303 0.0
C291 C 0.84916 0.40733 0.54641 0.0
O292 O 0.80198 0.36646 0.51646 0.0
O293 O 0.81745 0.38921 0.50648 0.0
O294 O 0.83529 0.41326 0.55115 0.0
O295 O 0.84534 0.39275 0.53677 0.0
C296 C 0.80989 0.37361 0.56877 0.0
O297 O 0.80546 0.41725 0.5323 0.0
O298 O 0.78403 0.39562 0.53523 0.0
In299 In 0.70398 0.551 0.34877 0.0
O300 O 0.72856 0.5394 0.36161 0.0
O301 O 0.70662 0.52185 0.34564 0.0
C302 C 0.7259 0.58307 0.35233 0.0
C303 C 0.68794 0.54735 0.31343 0.0
C304 C 0.67889 0.55266 0.37272 0.0
O305 O 0.72934 0.57013 0.3427 0.0
O306 O 0.7116 0.57972 0.36053 0.0
O307 O 0.67728 0.55848 0.35686 0.0
O308 O 0.69327 0.54599 0.37659 0.0
C309 C 0.72227 0.52379 0.35502 0.0
O310 O 0.68055 0.53941 0.32623 0.0
O311 O 0.70353 0.55682 0.31838 0.0
Tb312 Tb 0.05655 0.05909 0.04038 0.0
Eu313 Eu 0.09525 0.06616 0.07011 0.0
C314 C 0.08947 0.04055 0.03202 0.0
C315 C 0.06393 0.03067 0.06888 0.0
C316 C 1.0159 0.07198 0.01436 0.0
C317 C 0.98947 0.08111 0.99718 0.0
C318 C 1.00312 0.07039 0.9985 0.0
C319 C 1.01536 0.08484 0.02856 0.0
C320 C 1.0016 0.09536 0.02742 0.0
C321 C 0.98827 0.09347 0.01182 0.0
C322 C 0.02924 0.05977 0.01651 0.0
O323 O 0.05199 0.07754 0.06244 0.0
O324 O 0.07266 0.07202 0.08658 0.0
O325 O 0.08979 0.09252 0.06061 0.0
O326 O 0.08014 0.07743 0.03372 0.0
C327 C 0.05758 0.07788 0.08023 0.0
O328 O 0.11139 0.06347 0.09635 0.0
O329 O 0.12494 0.07645 0.07442 0.0
O330 O 0.10058 0.05256 0.04341 0.0
O331 O 0.07135 0.03895 0.03087 0.0
O332 O 0.05166 0.03736 0.05822 0.0
O333 O 0.08137 0.03826 0.07283 0.0
C334 C 0.08423 0.09275 0.04307 0.0
O335 O 0.04628 0.06639 0.01436 0.0
O336 O 0.0284 0.0506 0.03108 0.0
C337 C 0.13933 0.05535 0.08961 0.0
C338 C 0.16247 0.02971 0.08689 0.0
C339 C 0.16891 0.04594 0.09738 0.0
C340 C 0.15739 0.0587 0.09873 0.0
C341 C 0.13288 0.03913 0.07927 0.0
C342 C 0.1443 0.02647 0.07792 0.0
C343 C 0.12713 0.06867 0.08986 0.0
H344 H 0.97974 0.07954 0.98477 0.0
H345 H 1.00348 0.06065 0.9873 0.0
H346 H 0.02529 0.0864 0.04078 0.0
H347 H 1.00112 0.10456 0.03906 0.0
H348 H 0.18282 0.04878 0.10453 0.0
H349 H 0.1626 0.07117 0.1067 0.0
H350 H 0.11902 0.03636 0.07198 0.0
H351 H 0.13903 0.01432 0.06942 0.0
Tb352 Tb 0.31453 0.80815 0.29493 0.0
Eu353 Eu 0.30145 0.7688 0.27215 0.0
C354 C 0.27405 0.7958 0.27604 0.0
C355 C 0.29994 0.77412 0.31606 0.0
C356 C 0.32755 0.85664 0.30946 0.0
C357 C 0.33493 0.88728 0.3218 0.0
C358 C 0.33084 0.86922 0.32456 0.0
C359 C 0.32777 0.86228 0.29145 0.0
C360 C 0.33192 0.88038 0.28866 0.0
C361 C 0.33584 0.89305 0.30384 0.0
C362 C 0.32503 0.83777 0.31289 0.0
O363 O 0.33498 0.79155 0.30219 0.0
O364 O 0.33229 0.77612 0.27437 0.0
O365 O 0.30505 0.78825 0.25044 0.0
O366 O 0.32213 0.81307 0.26709 0.0
C367 C 0.34176 0.78174 0.29032 0.0
O368 O 0.30629 0.74184 0.26634 0.0
O369 O 0.28368 0.75141 0.2506 0.0
O370 O 0.2759 0.77927 0.27836 0.0
O371 O 0.28844 0.80867 0.27837 0.0
O372 O 0.30073 0.79129 0.31446 0.0
O373 O 0.30215 0.7633 0.30221 0.0
C374 C 0.31506 0.80418 0.25126 0.0
O375 O 0.30801 0.82923 0.31113 0.0
O376 O 0.33614 0.82866 0.30539 0.0
C377 C 0.28058 0.72055 0.25376 0.0
C378 C 0.25859 0.68675 0.25287 0.0
C379 C 0.27441 0.68936 0.24344 0.0
C380 C 0.28529 0.70613 0.24389 0.0
C381 C 0.26488 0.71808 0.26331 0.0
C382 C 0.2539 0.70126 0.26282 0.0
C383 C 0.29218 0.73799 0.25358 0.0
H384 H 0.33812 0.89667 0.33378 0.0
H385 H 0.33076 0.86503 0.33855 0.0
H386 H 0.32517 0.85269 0.27963 0.0
H387 H 0.33232 0.88445 0.27466 0.0
H388 H 0.27823 0.67849 0.23547 0.0
H389 H 0.29736 0.70788 0.23641 0.0
H390 H 0.26112 0.72912 0.27107 0.0
H391 H 0.24189 0.69957 0.27036 0.0
Tb392 Tb 0.54058 0.01471 0.5264 0.0
Eu393 Eu 0.5682 0.05106 0.54092 0.0
C394 C 0.55313 0.0229 0.56833 0.0
C395 C 0.52253 0.05004 0.53601 0.0
C396 C 0.52219 0.97039 0.5029 0.0
C397 C 0.5109 0.94001 0.49103 0.0
C398 C 0.50855 0.95517 0.50131 0.0
C399 C 0.5382 0.97043 0.49403 0.0
C400 C 0.54055 0.95527 0.48369 0.0
C401 C 0.52695 0.93987 0.48214 0.0
C402 C 0.5199 0.98588 0.51442 0.0
O403 O 0.55137 0.0265 0.50223 0.0
O404 O 0.55404 0.05503 0.51339 0.0
O405 O 0.58777 0.03241 0.53194 0.0
O406 O 0.56812 1.00572 0.53031 0.0
C407 C 0.55116 0.04323 0.49947 0.0
O408 O 0.59125 0.07115 0.53555 0.0
O409 O 0.57914 0.07289 0.56146 0.0
O410 O 0.56787 0.03338 0.56435 0.0
O411 O 0.53876 0.01805 0.55591 0.0
O412 O 0.5206 0.0337 0.52808 0.0
O413 O 0.53918 0.05839 0.54338 0.0
C414 C 0.58518 0.01484 0.53077 0.0
O415 O 0.52987 0.98824 0.53047 0.0
O416 O 0.5203 1.00065 0.50621 0.0
C417 C 0.58923 0.09947 0.54775 0.0
C418 C 0.5871 0.13513 0.54201 0.0
C419 C 0.60439 0.12951 0.54427 0.0
C420 C 0.60542 0.1118 0.54715 0.0
C421 C 0.57192 0.10485 0.54489 0.0
C422 C 0.57087 0.12256 0.54214 0.0
C423 C 0.59043 0.08089 0.55057 0.0
H424 H 0.50033 0.92827 0.49041 0.0
H425 H 0.4962 0.95492 0.50824 0.0
H426 H 0.5489 0.98213 0.49523 0.0
H427 H 0.55298 0.95563 0.47689 0.0
H428 H 0.61712 0.13883 0.54399 0.0
H429 H 0.61886 0.10774 0.549 0.0
H430 H 0.55924 0.0954 0.54501 0.0
H431 H 0.55736 0.12648 0.54074 0.0
Tb432 Tb 0.28387 0.28338 0.77618 0.0
Eu433 Eu 0.32371 0.27569 0.79245 0.0
C434 C 0.31976 0.30979 0.77035 0.0
C435 C 0.30698 0.26352 0.74928 0.0
C436 C 0.23437 0.28165 0.77348 0.0
C437 C 0.20118 0.27908 0.77383 0.0
C438 C 0.21725 0.28506 0.76565 0.0
C439 C 0.23533 0.27216 0.78941 0.0
C440 C 0.21937 0.26617 0.79752 0.0
C441 C 0.20213 0.26966 0.78991 0.0
C442 C 0.2514 0.2877 0.76525 0.0
O443 O 0.27933 0.25626 0.78414 0.0
O444 O 0.30335 0.25764 0.80683 0.0
O445 O 0.3162 0.29536 0.81417 0.0
O446 O 0.28482 0.28936 0.8067 0.0
C447 C 0.28696 0.25014 0.79895 0.0
O448 O 0.34288 0.25726 0.79817 0.0
O449 O 0.35158 0.28529 0.80609 0.0
O450 O 0.32945 0.29706 0.77278 0.0
O451 O 0.30259 0.30798 0.77414 0.0
O452 O 0.29598 0.27545 0.75082 0.0
O453 O 0.31661 0.25941 0.76433 0.0
C454 C 0.29945 0.29653 0.81848 0.0
O455 O 0.26347 0.2996 0.77541 0.0
O456 O 0.25913 0.27503 0.75865 0.0
C457 C 0.37328 0.27026 0.79428 0.0
C458 C 0.40515 0.27472 0.77571 0.0
C459 C 0.40668 0.27384 0.79504 0.0
C460 C 0.39082 0.27163 0.80427 0.0
C461 C 0.37167 0.27076 0.77498 0.0
C462 C 0.38745 0.27293 0.76577 0.0
C463 C 0.35678 0.26993 0.80391 0.0
H464 H 0.18809 0.28207 0.76775 0.0
H465 H 0.21632 0.29237 0.75333 0.0
H466 H 0.24847 0.26936 0.79558 0.0
H467 H 0.22053 0.25868 0.80969 0.0
H468 H 0.42013 0.27509 0.80303 0.0
H469 H 0.39225 0.27141 0.81921 0.0
H470 H 0.35822 0.26999 0.76709 0.0
H471 H 0.38581 0.2739 0.75093 0.0
Tb472 Tb 0.05342 0.02387 0.51266 0.0
Eu473 Eu 0.05266 0.04303 0.55214 0.0
C474 C 0.09114 0.04624 0.53313 0.0
C475 C 0.05508 0.99968 0.5487 0.0
C476 C 0.04255 1.00889 0.46294 0.0
C477 C 0.03983 1.00737 0.42943 0.0
C478 C 0.05057 1.00767 0.44645 0.0
C479 C 0.02363 1.00982 0.46229 0.0
C480 C 1.01285 1.00939 0.4453 0.0
C481 C 0.02084 1.00822 0.42866 0.0
C482 C 0.05411 1.00959 0.4807 0.0
O483 O 0.02307 0.02006 0.51471 0.0
O484 O 0.02311 0.02789 0.54544 0.0
O485 O 0.0491 0.0659 0.53317 0.0
O486 O 0.05076 0.05173 0.50512 0.0
C487 C 1.01423 0.02049 0.52961 0.0
O488 O 0.03923 0.0569 0.57236 0.0
O489 O 0.06727 0.05201 0.57924 0.0
O490 O 0.081 0.05418 0.54353 0.0
O491 O 0.08337 0.03145 0.52321 0.0
O492 O 0.05394 1.00078 0.53049 0.0
O493 O 0.05639 0.01444 0.5595 0.0
C494 C 0.04976 0.06654 0.5151 0.0
O495 O 0.06345 0.0251 0.48666 0.0
O496 O 0.04632 1.0015 0.49385 0.0
C497 C 0.04852 0.05129 0.60319 0.0
C498 C 0.04659 0.03912 0.63879 0.0
C499 C 0.04965 0.05743 0.63623 0.0
C500 C 0.05066 0.06346 0.61854 0.0
C501 C 0.0442 0.03304 0.60548 0.0
C502 C 0.04325 0.02699 0.62318 0.0
C503 C 0.05305 0.0576 0.58531 0.0
H504 H 0.04648 1.00677 0.4169 0.0
H505 H 0.06519 1.0071 0.44673 0.0
H506 H 1.01719 1.01086 0.47491 0.0
H507 H 0.99823 1.00983 0.44521 0.0
H508 H 0.05253 0.06712 0.64797 0.0
H509 H 0.05409 0.07758 0.61696 0.0
H510 H 0.04249 0.02348 0.59369 0.0
H511 H 0.04072 0.01282 0.62473 0.0
Tb512 Tb 0.29236 0.76596 0.79133 0.0
Eu513 Eu 0.30859 0.80464 0.77784 0.0
C514 C 0.2942 0.80053 0.81773 0.0
C515 C 0.26464 0.78737 0.76869 0.0
C516 C 0.2831 0.71776 0.7984 0.0
C517 C 0.27285 0.68588 0.7948 0.0
C518 C 0.26894 0.70297 0.79769 0.0
C519 C 0.30122 0.71535 0.79624 0.0
C520 C 0.30516 0.69829 0.79351 0.0
C521 C 0.291 0.6834 0.79271 0.0
C522 C 0.27867 0.73562 0.80068 0.0
O523 O 0.29765 0.76055 0.76283 0.0
O524 O 0.31689 0.78597 0.75693 0.0
O525 O 0.33362 0.79627 0.79431 0.0
O526 O 0.32283 0.76672 0.79736 0.0
C527 C 0.30864 0.76961 0.75223 0.0
O528 O 0.30779 0.82535 0.75832 0.0
O529 O 0.32824 0.82948 0.78228 0.0
O530 O 0.29528 0.81038 0.80353 0.0
O531 O 0.29514 0.78361 0.81608 0.0
O532 O 0.26725 0.77769 0.78299 0.0
O533 O 0.27915 0.7969 0.76265 0.0
C534 C 0.33652 0.78061 0.7996 0.0
O535 O 0.29068 0.74714 0.81133 0.0
O536 O 0.27307 0.74233 0.78551 0.0
C537 C 0.31506 0.85388 0.77318 0.0
C538 C 0.30349 0.88619 0.78178 0.0
C539 C 0.31378 0.88447 0.76678 0.0
C540 C 0.31951 0.86836 0.76249 0.0
C541 C 0.30503 0.85565 0.78828 0.0
C542 C 0.29939 0.87166 0.79261 0.0
C543 C 0.32038 0.83675 0.7685 0.0
H544 H 0.26172 0.6746 0.79429 0.0
H545 H 0.25486 0.70466 0.79923 0.0
H546 H 0.31229 0.72666 0.79649 0.0
H547 H 0.31921 0.69675 0.79163 0.0
H548 H 0.31701 0.89541 0.75813 0.0
H549 H 0.3272 0.86715 0.75074 0.0
H550 H 0.30149 0.84461 0.79668 0.0
H551 H 0.2918 0.87266 0.80446 0.0
Tb552 Tb 0.56582 0.02954 0.04576 0.0
Eu553 Eu 0.54295 0.03802 1.00844 0.0
C554 C 0.55763 0.9991 0.01134 0.0
C555 C 0.58591 0.04984 0.01634 0.0
C556 C 0.58376 0.0301 0.09475 0.0
C557 C 0.59921 0.04053 0.12535 0.0
C558 C 0.60003 0.0345 0.10707 0.0
C559 C 0.56668 0.03186 0.10083 0.0
C560 C 0.56583 0.03769 0.11905 0.0
C561 C 0.58206 0.04206 0.13149 0.0
C562 C 0.58469 0.02465 0.07536 0.0
O563 O 0.56226 0.05786 0.05219 0.0
O564 O 0.54034 0.06159 0.02866 0.0
O565 O 0.52473 0.01734 0.02161 0.0
O566 O 0.53695 0.02478 0.05144 0.0
C567 C 0.55067 0.06772 0.0444 0.0
O568 O 0.51786 0.04535 0.99451 0.0
O569 O 0.53979 0.03933 0.97866 0.0
O570 O 0.55224 0.01124 1.00055 0.0
O571 O 0.56194 1.00327 0.0294 0.0
O572 O 0.58508 0.0354 0.02529 0.0
O573 O 0.5707 0.05565 0.01093 0.0
C574 C 0.52331 0.0169 0.03927 0.0
O575 O 0.57063 0.01321 0.06736 0.0
O576 O 0.58949 0.03756 0.06491 0.0
C577 C 0.52161 0.05938 0.9666 0.0
C578 C 0.52338 0.08256 0.93794 0.0
C579 C 0.50905 0.06774 0.93699 0.0
C580 C 0.50824 0.05623 0.95121 0.0
C581 C 0.53441 0.07528 0.96883 0.0
C582 C 0.53517 0.08693 0.95463 0.0
C583 C 0.52384 0.04472 0.97828 0.0
H584 H 0.61189 0.04388 0.1347 0.0
H585 H 0.61335 0.03342 0.10249 0.0
H586 H 0.55399 0.02889 0.09144 0.0
H587 H 0.55248 0.03911 0.12334 0.0
H588 H 0.4997 0.06378 0.92446 0.0
H589 H 0.49817 0.04404 0.94939 0.0
H590 H 0.54472 0.07798 0.98082 0.0
H591 H 0.54609 0.09845 0.95601 0.0
Tb592 Tb 0.31091 0.29711 0.29313 0.0
Eu593 Eu 0.29221 0.26103 0.27053 0.0
C594 C 0.30848 0.26146 0.31441 0.0
C595 C 0.33688 0.27862 0.26744 0.0
C596 C 0.30781 0.33776 0.31786 0.0
C597 C 0.29863 0.35845 0.34003 0.0
C598 C 0.31193 0.34895 0.33412 0.0
C599 C 0.29032 0.33617 0.30763 0.0
C600 C 0.27707 0.34544 0.31358 0.0
C601 C 0.28099 0.35658 0.32989 0.0
C602 C 0.32057 0.32614 0.31234 0.0
O603 O 0.30127 0.3067 0.26573 0.0
O604 O 0.29218 0.28067 0.24793 0.0
O605 O 0.26679 0.2689 0.28254 0.0
O606 O 0.28201 0.29271 0.30142 0.0
C607 C 0.29593 0.29814 0.24925 0.0
O608 O 0.27235 0.24518 0.2492 0.0
O609 O 0.29183 0.23267 0.26609 0.0
O610 O 0.29554 0.25417 0.30106 0.0
O611 O 0.31909 0.27663 0.31163 0.0
O612 O 0.33558 0.29165 0.27972 0.0
O613 O 0.32248 0.26566 0.26297 0.0
C614 C 0.26659 0.28128 0.29578 0.0
O615 O 0.31831 0.31078 0.31935 0.0
O616 O 0.32182 0.32444 0.29469 0.0
C617 C 0.28671 0.22391 0.23473 0.0
C618 C 0.30701 0.2075 0.21033 0.0
C619 C 0.2899 0.1985 0.21495 0.0
C620 C 0.28008 0.20652 0.22746 0.0
C621 C 0.30201 0.23379 0.22798 0.0
C622 C 0.31219 0.22568 0.21612 0.0
C623 C 0.27993 0.23105 0.25124 0.0
H624 H 0.30201 0.36703 0.35262 0.0
H625 H 0.32525 0.35013 0.34234 0.0
H626 H 0.28677 0.32754 0.29509 0.0
H627 H 0.26379 0.34405 0.30522 0.0
H628 H 0.28464 0.18486 0.21004 0.0
H629 H 0.26799 0.19882 0.23225 0.0
H630 H 0.30702 0.24743 0.23309 0.0
H631 H 0.32499 0.23349 0.21308 0.0
Tb632 Tb 0.55355 0.52311 0.01252 0.0
Eu633 Eu 0.55212 0.54235 0.05194 0.0
C634 C 0.59185 0.54551 0.03395 0.0
C635 C 0.55566 0.49894 0.04815 0.0
C636 C 0.5574 0.51671 0.96259 0.0
C637 C 0.55577 0.51218 0.9293 0.0
C638 C 0.55498 0.50526 0.94662 0.0
C639 C 0.56194 0.53511 0.96123 0.0
C640 C 0.56247 0.54205 0.9439 0.0
C641 C 0.55876 0.53065 0.92775 0.0
C642 C 0.55261 0.50963 0.9801 0.0
O643 O 0.52572 0.51211 0.02042 0.0
O644 O 0.52153 0.53408 0.04087 0.0
O645 O 0.54896 0.56528 0.03304 0.0
O646 O 0.55164 0.55119 1.00528 0.0
C647 C 0.51471 0.51944 0.03046 0.0
O648 O 0.54209 0.54141 0.07912 0.0
O649 O 0.55978 0.56498 0.07224 0.0
O650 O 0.58313 0.54813 0.04852 0.0
O651 O 0.58293 0.53611 0.01903 0.0
O652 O 0.55662 0.50038 0.03016 0.0
O653 O 0.5546 0.51329 0.05876 0.0
C654 C 0.55026 0.56595 0.01511 0.0
O655 O 0.56628 0.50958 0.993 0.0
O656 O 0.53873 0.5155 0.98654 0.0
C657 C 0.56341 0.55697 0.1029 0.0
C658 C 0.58511 0.55643 0.13693 0.0
C659 C 0.56717 0.56057 0.1364 0.0
C660 C 0.55642 0.56086 0.11948 0.0
C661 C 0.5813 0.55285 0.10334 0.0
C662 C 0.5921 0.55266 0.12022 0.0
C663 C 0.55183 0.55673 0.08525 0.0
H664 H 0.55266 0.5031 0.91706 0.0
H665 H 0.55142 0.49104 0.94746 0.0
H666 H 0.56401 0.54411 0.97347 0.0
H667 H 0.56487 0.55633 0.94306 0.0
H668 H 0.5615 0.56367 0.14905 0.0
H669 H 0.54261 0.56402 0.11935 0.0
H670 H 0.58684 0.54964 0.09063 0.0
H671 H 0.60577 0.54919 0.12023 0.0
Tb672 Tb 0.79354 0.26786 0.28893 0.0
Eu673 Eu 0.8093 0.3064 0.27569 0.0
C674 C 0.79331 0.30176 0.31466 0.0
C675 C 0.76522 0.28927 0.26639 0.0
C676 C 0.78923 0.22088 0.299 0.0
C677 C 0.78388 0.1888 0.29879 0.0
C678 C 0.77772 0.20492 0.30153 0.0
C679 C 0.80717 0.22072 0.29431 0.0
C680 C 0.81335 0.20466 0.2916 0.0
C681 C 0.80163 0.18852 0.29346 0.0
C682 C 0.78195 0.23748 0.29942 0.0
O683 O 0.80742 0.26185 0.26481 0.0
O684 O 0.80764 0.28794 0.25066 0.0
O685 O 0.83547 0.29462 0.28394 0.0
O686 O 0.82267 0.27381 0.30245 0.0
C687 C 0.80881 0.27105 0.25007 0.0
O688 O 0.8076 0.3279 0.25734 0.0
O689 O 0.82988 0.33069 0.27955 0.0
O690 O 0.80598 0.3105 0.30571 0.0
O691 O 0.78383 0.28634 0.30787 0.0
O692 O 0.76985 0.27383 0.27038 0.0
O693 O 0.7775 0.30401 0.27051 0.0
C694 C 0.83752 0.28353 0.29703 0.0
O695 O 0.79162 0.25046 0.31033 0.0
O696 O 0.77707 0.24271 0.28322 0.0
C697 C 0.81542 0.35509 0.27473 0.0
C698 C 0.80578 0.38569 0.29117 0.0
C699 C 0.82026 0.38714 0.27988 0.0
C700 C 0.82506 0.37186 0.27167 0.0
C701 C 0.80103 0.35365 0.286 0.0
C702 C 0.79626 0.36879 0.29415 0.0
C703 C 0.82079 0.33882 0.26737 0.0
H704 H 0.77464 0.17657 0.30047 0.0
H705 H 0.76379 0.20489 0.30506 0.0
H706 H 0.81614 0.23299 0.2921 0.0
H707 H 0.82698 0.20486 0.28722 0.0
H708 H 0.82778 0.40003 0.27734 0.0
H709 H 0.83633 0.37312 0.26313 0.0
H710 H 0.79364 0.34075 0.28872 0.0
H711 H 0.78533 0.36722 0.30309 0.0
Tb712 Tb 0.06359 0.52992 0.54268 0.0
Eu713 Eu 0.03982 0.53852 0.50579 0.0
C714 C 0.0541 0.49928 0.5087 0.0
C715 C 0.08294 0.55033 0.51248 0.0
C716 C 0.0834 0.53031 0.59111 0.0
C717 C 0.10019 0.54089 0.62111 0.0
C718 C 0.10014 0.53469 0.60272 0.0
C719 C 0.0667 0.53218 0.598 0.0
C720 C 0.06673 0.53816 0.61634 0.0
C721 C 0.08344 0.54258 0.62804 0.0
C722 C 0.08346 0.52487 0.57158 0.0
O723 O 0.05976 0.55796 0.54994 0.0
O724 O 0.03862 0.56258 0.52603 0.0
O725 O 0.02031 0.52011 0.52013 0.0
O726 O 0.03508 0.52535 0.54957 0.0
C727 C 0.04865 0.56822 0.54208 0.0
O728 O 1.01694 0.54958 0.49173 0.0
O729 O 0.03482 0.53657 0.47587 0.0
O730 O 0.04858 0.5114 0.49796 0.0
O731 O 0.0588 0.50353 0.52666 0.0
O732 O 0.08258 0.53621 0.52195 0.0
O733 O 0.06755 0.55581 0.50717 0.0
C734 C 0.02025 0.51917 0.53797 0.0
O735 O 0.06909 0.51354 0.56404 0.0
O736 O 0.08786 0.53779 0.56104 0.0
C737 C 0.02391 0.56071 0.46309 0.0
C738 C 0.03132 0.58111 0.43288 0.0
C739 C 1.01311 0.57269 0.43461 0.0
C740 C 1.0095 0.56231 0.4495 0.0
C741 C 0.04137 0.57122 0.4629 0.0
C742 C 0.04509 0.58127 0.44788 0.0
C743 C 0.02168 0.54611 0.47537 0.0
H744 H 0.11322 0.54426 0.62991 0.0
H745 H 0.11315 0.53352 0.5975 0.0
H746 H 0.05366 0.52922 0.58915 0.0
H747 H 0.05367 0.53969 0.62128 0.0
H748 H 1.002 0.57278 0.42367 0.0
H749 H 0.99584 0.5545 0.44964 0.0
H750 H 0.05261 0.57033 0.47346 0.0
H751 H 0.05929 0.58753 0.44727 0.0
Tb752 Tb 0.78458 0.78574 0.27351 0.0
Eu753 Eu 0.82716 0.78373 0.28806 0.0
C754 C 0.81664 0.81497 0.26367 0.0
C755 C 0.80908 0.76808 0.24595 0.0
C756 C 0.73375 0.77745 0.27079 0.0
C757 C 0.70342 0.77957 0.27991 0.0
C758 C 0.71922 0.78697 0.27209 0.0
C759 C 0.73225 0.76036 0.27728 0.0
C760 C 0.71642 0.7529 0.28493 0.0
C761 C 0.70187 0.76246 0.28649 0.0
C762 C 0.75074 0.78577 0.26354 0.0
O763 O 0.78425 0.75921 0.28276 0.0
O764 O 0.80994 0.76434 0.30395 0.0
O765 O 0.81809 0.80114 0.31076 0.0
O766 O 0.7866 0.79369 0.30372 0.0
C767 C 0.7941 0.75471 0.29719 0.0
O768 O 0.84947 0.76838 0.29281 0.0
O769 O 0.8544 0.79659 0.30082 0.0
O770 O 0.8287 0.8045 0.26734 0.0
O771 O 0.79973 0.81137 0.26817 0.0
O772 O 0.79588 0.77768 0.24777 0.0
O773 O 0.82096 0.76655 0.26048 0.0
C774 C 0.80122 0.80133 0.31529 0.0
O775 O 0.7613 0.79827 0.27436 0.0
O776 O 0.76032 0.77501 0.25621 0.0
C777 C 0.87843 0.78493 0.28889 0.0
C778 C 0.91045 0.79056 0.27059 0.0
C779 C 0.9105 0.78206 0.28728 0.0
C780 C 0.89458 0.77929 0.29638 0.0
C781 C 0.87823 0.79321 0.27216 0.0
C782 C 0.89412 0.7961 0.26316 0.0
C783 C 0.86181 0.78241 0.29849 0.0
H784 H 0.69263 0.78743 0.28118 0.0
H785 H 0.72023 0.80024 0.26733 0.0
H786 H 0.74337 0.75279 0.27658 0.0
H787 H 0.71559 0.73961 0.2896 0.0
H788 H 0.92279 0.77744 0.29324 0.0
H789 H 0.89487 0.77279 0.30926 0.0
H790 H 0.86584 0.79763 0.26618 0.0
H791 H 0.89366 0.80297 0.25052 0.0
Tb792 Tb 0.80791 0.31582 0.7951 0.0
Eu793 Eu 0.79556 0.27528 0.7747 0.0
C794 C 0.76657 0.3003 0.78121 0.0
C795 C 0.79866 0.28251 0.81908 0.0
C796 C 0.82033 0.36521 0.80583 0.0
C797 C 0.82094 0.39608 0.81562 0.0
C798 C 0.81629 0.37805 0.81842 0.0
C799 C 0.82812 0.37059 0.7898 0.0
C800 C 0.83293 0.38864 0.78707 0.0
C801 C 0.82992 0.40161 0.80025 0.0
C802 C 0.81806 0.3466 0.81063 0.0
O803 O 0.83064 0.30133 0.7999 0.0
O804 O 0.8258 0.28409 0.77294 0.0
O805 O 0.79606 0.29347 0.75164 0.0
O806 O 0.81243 0.31973 0.76622 0.0
C807 C 0.83688 0.292 0.78717 0.0
O808 O 0.80125 0.24844 0.77026 0.0
O809 O 0.77722 0.25621 0.7551 0.0
O810 O 0.76994 0.28418 0.78323 0.0
O811 O 0.78008 0.31385 0.78131 0.0
O812 O 0.79828 0.29948 0.81713 0.0
O813 O 0.80013 0.27151 0.80512 0.0
C814 C 0.80501 0.30972 0.75117 0.0
O815 O 0.8012 0.33784 0.80982 0.0
O816 O 0.82925 0.33703 0.804 0.0
C817 C 0.77519 0.22621 0.76187 0.0
C818 C 0.75394 0.19307 0.76683 0.0
C819 C 0.76903 0.19421 0.75635 0.0
C820 C 0.77953 0.21065 0.75387 0.0
C821 C 0.76037 0.22521 0.77261 0.0
C822 C 0.74978 0.20875 0.77503 0.0
C823 C 0.78628 0.24329 0.75879 0.0
H824 H 0.81805 0.4057 0.82584 0.0
H825 H 0.81017 0.37415 0.8308 0.0
H826 H 0.83126 0.3609 0.77979 0.0
H827 H 0.83992 0.39239 0.77514 0.0
H828 H 0.7728 0.18237 0.75013 0.0
H829 H 0.79103 0.21123 0.74567 0.0
H830 H 0.7569 0.23714 0.77896 0.0
H831 H 0.73815 0.20833 0.78303 0.0
Tb832 Tb 0.80966 0.79879 0.79135 0.0
Eu833 Eu 0.79134 0.76221 0.7695 0.0
C834 C 0.80841 0.76362 0.81372 0.0
C835 C 0.83577 0.77963 0.76618 0.0
C836 C 0.80719 0.84256 0.8107 0.0
C837 C 0.78382 0.85318 0.82755 0.0
C838 C 0.79832 0.84355 0.82683 0.0
C839 C 0.80221 0.85255 0.79589 0.0
C840 C 0.78772 0.86211 0.7966 0.0
C841 C 0.77795 0.862 0.81216 0.0
C842 C 0.81916 0.82904 0.80823 0.0
O843 O 0.79842 0.80745 0.76401 0.0
O844 O 0.79198 0.78128 0.7463 0.0
O845 O 0.76582 0.77056 0.78093 0.0
O846 O 0.78119 0.79379 0.8005 0.0
C847 C 0.7944 0.79874 0.74747 0.0
O848 O 0.77285 0.74595 0.7473 0.0
O849 O 0.78928 0.73358 0.76754 0.0
O850 O 0.7964 0.75548 0.79997 0.0
O851 O 0.81781 0.77956 0.81143 0.0
O852 O 0.83445 0.79255 0.77859 0.0
O853 O 0.82137 0.76672 0.76151 0.0
C854 C 0.76574 0.78249 0.79465 0.0
O855 O 0.81486 0.81451 0.81649 0.0
O856 O 0.82259 0.82548 0.79142 0.0
C857 C 0.78624 0.72168 0.73737 0.0
C858 C 0.80921 0.70047 0.7221 0.0
C859 C 0.79131 0.6929 0.72588 0.0
C860 C 0.78004 0.70343 0.73384 0.0
C861 C 0.80258 0.72963 0.73073 0.0
C862 C 0.81409 0.71912 0.72329 0.0
C863 C 0.77876 0.73141 0.75177 0.0
H864 H 0.77655 0.85289 0.83974 0.0
H865 H 0.80188 0.83606 0.83851 0.0
H866 H 0.80882 0.85226 0.7833 0.0
H867 H 0.78374 0.86914 0.7847 0.0
H868 H 0.78675 0.67866 0.72443 0.0
H869 H 0.76734 0.69711 0.73875 0.0
H870 H 0.80745 0.74377 0.73317 0.0
H871 H 0.82763 0.72562 0.72052 0.0
Tb872 Tb 0.55011 0.54937 0.55039 0.0
Eu873 Eu 0.5937 0.56191 0.56951 0.0
C874 C 0.58172 0.56176 0.52612 0.0
C875 C 0.57708 0.52175 0.55163 0.0
C876 C 0.50184 0.55389 0.53686 0.0
C877 C 0.47486 0.5616 0.51914 0.0
C878 C 0.48803 0.55046 0.52175 0.0
C879 C 0.50237 0.56866 0.54926 0.0
C880 C 0.48934 0.57985 0.54659 0.0
C881 C 0.4754 0.57642 0.53154 0.0
C882 C 0.51592 0.54238 0.53943 0.0
O883 O 0.55567 0.53878 0.57696 0.0
O884 O 0.5743 0.56295 0.59125 0.0
O885 O 0.5835 0.5871 0.56295 0.0
O886 O 0.55236 0.57635 0.56236 0.0
C887 C 0.56075 0.54963 0.59167 0.0
O888 O 0.61497 0.55891 0.59173 0.0
O889 O 0.62184 0.57661 0.57024 0.0
O890 O 0.59408 0.55796 0.53891 0.0
O891 O 0.56467 0.56265 0.52924 0.0
O892 O 0.56232 0.52652 0.54295 0.0
O893 O 0.5887 0.53226 0.56399 0.0
C894 C 0.56626 0.58959 0.56242 0.0
O895 O 0.5287 0.5443 0.52825 0.0
O896 O 0.52291 0.54138 0.55644 0.0
C897 C 0.64242 0.55739 0.57887 0.0
C898 C 0.66749 0.53476 0.57101 0.0
C899 C 0.67203 0.5478 0.58585 0.0
C900 C 0.65948 0.55899 0.58984 0.0
C901 C 0.63814 0.54472 0.56378 0.0
C902 C 0.65051 0.53351 0.55991 0.0
C903 C 0.62823 0.56771 0.58357 0.0
H904 H 0.46432 0.55869 0.50736 0.0
H905 H 0.48745 0.53919 0.51199 0.0
H906 H 0.51284 0.57156 0.56109 0.0
H907 H 0.48994 0.59097 0.55655 0.0
H908 H 0.68501 0.54899 0.59467 0.0
H909 H 0.66293 0.56861 0.60162 0.0
H910 H 0.62501 0.54328 0.55516 0.0
H911 H 0.64675 0.52378 0.54823 0.0
Tb912 Tb 0.04125 0.51303 0.03147 0.0
Eu913 Eu 0.06723 0.54943 0.04801 0.0
C914 C 0.05163 0.51995 0.07385 0.0
C915 C 0.02174 0.54768 0.03938 0.0
C916 C 0.02799 0.46838 1.00846 0.0
C917 C 0.02452 0.43642 1.00368 0.0
C918 C 1.01834 0.4514 0.01064 0.0
C919 C 0.04378 0.47026 0.99894 0.0
C920 C 0.04987 0.45525 0.99179 0.0
C921 C 0.04043 0.4382 0.99436 0.0
C922 C 0.02265 0.4838 0.01786 0.0
O923 O 0.05599 0.52427 1.00923 0.0
O924 O 0.05682 0.5529 0.01888 0.0
O925 O 0.08818 0.53143 0.04073 0.0
O926 O 0.06879 0.50448 0.0374 0.0
C927 C 0.05693 0.54093 1.0056 0.0
O928 O 0.09036 0.57043 0.04515 0.0
O929 O 0.07525 0.57129 0.06915 0.0
O930 O 0.0663 0.53114 0.07093 0.0
O931 O 0.03786 0.51512 0.06075 0.0
O932 O 0.02088 0.5319 0.03045 0.0
O933 O 0.03761 0.55563 0.04878 0.0
C934 C 0.08582 0.51385 0.03894 0.0
O935 O 0.02939 0.48679 0.03518 0.0
O936 O 0.02409 0.49837 1.00917 0.0
C937 C 0.08421 0.59793 0.05556 0.0
C938 C 0.07742 0.63217 0.04868 0.0
C939 C 0.06599 0.61719 0.03929 0.0
C940 C 0.06935 0.6002 0.04273 0.0
C941 C 0.09581 0.61276 0.06478 0.0
C942 C 0.09244 0.62979 0.06138 0.0
C943 C 0.08722 0.58002 0.05942 0.0
H944 H 1.01692 0.4234 1.00565 0.0
H945 H 1.00628 0.44972 0.01812 0.0
H946 H 0.05162 0.48329 0.99743 0.0
H947 H 0.06223 0.45692 0.98476 0.0
H948 H 0.05441 0.6186 0.02935 0.0
H949 H 0.06026 0.58881 0.03548 0.0
H950 H 0.10728 0.61117 0.07478 0.0
H951 H 0.10129 0.64106 0.06909 0.0
H952 H 1.01263 0.17346 0.93013 0.0
H953 H 1.0167 0.15448 0.95551 0.0
H954 H 1.01072 0.19687 0.99453 0.0
H955 H 1.00688 0.2161 0.96906 0.0
H956 H 0.04193 0.18577 1.0033 0.0
H957 H 0.9804 0.15769 0.9905 0.0
H958 H 0.95078 0.14338 0.97308 0.0
H959 H 0.97605 0.10005 0.95466 0.0
H960 H 1.00596 0.11424 0.97156 0.0
H961 H 0.07364 0.12026 0.0627 0.0
H962 H 0.05417 0.14105 0.05026 0.0
H963 H 0.05468 0.11802 0.9951 0.0
H964 H 0.07415 0.09754 1.00728 0.0
H965 H 0.01909 0.12117 1.00373 0.0
H966 H 0.08177 0.15642 1.0089 0.0
H967 H 0.1112 0.17094 0.0267 0.0
H968 H 0.08152 0.20077 0.06088 0.0
H969 H 0.05188 0.18625 0.04338 0.0
C970 C 1.01167 0.17859 0.94406 0.0
C971 C 1.00969 0.1963 0.94766 0.0
C972 C 1.01385 0.16768 0.95858 0.0
C973 C 1.01395 0.17424 0.97695 0.0
C974 C 1.01066 0.19155 0.98046 0.0
C975 C 1.00846 0.2025 0.9659 0.0
C976 C 0.0205 0.16394 0.9922 0.0
C977 C 0.0365 0.17176 1.00385 0.0
C978 C 1.01346 0.14567 0.99293 0.0
C979 C 0.99555 0.13714 0.9823 0.0
C980 C 0.97976 0.14524 0.98253 0.0
C981 C 0.96288 0.13711 0.97277 0.0
C982 C 0.96154 0.12083 0.96277 0.0
C983 C 0.97711 0.11267 0.96242 0.0
C984 C 0.99405 0.12075 0.97212 0.0
C985 C 0.06992 0.11994 0.04789 0.0
C986 C 0.07544 0.10734 0.03592 0.0
C987 C 0.05865 0.13165 0.04086 0.0
C988 C 0.05284 0.13086 0.02182 0.0
C989 C 0.05882 0.11865 0.00987 0.0
C990 C 0.07009 0.10709 0.01683 0.0
C991 C 0.04084 0.14287 0.01386 0.0
C992 C 0.02388 0.13533 1.00368 0.0
C993 C 0.04685 0.1614 0.01457 0.0
C994 C 0.06464 0.1701 0.02503 0.0
C995 C 0.08153 0.16597 0.02032 0.0
C996 C 0.09824 0.17421 0.03032 0.0
C997 C 0.09823 0.18672 0.04496 0.0
C998 C 0.0815 0.19105 0.04957 0.0
C999 C 0.06475 0.18282 0.03962 0.0
H1000 H 0.11118 0.19309 0.05268 0.0
H1001 H 0.94843 0.11451 0.95532 0.0
H1002 H 0.1273 0.79384 0.16698 0.0
H1003 H 0.15366 0.79028 0.18884 0.0
H1004 H 0.1738 0.84668 0.19119 0.0
H1005 H 0.1476 0.85029 0.16893 0.0
H1006 H 0.20177 0.8286 0.19076 0.0
H1007 H 0.15014 0.82855 0.22518 0.0
H1008 H 0.1182 0.81933 0.23257 0.0
H1009 H 0.1283 0.76621 0.23887 0.0
H1010 H 0.16024 0.77504 0.23124 0.0
H1011 H 0.26479 0.82831 0.27031 0.0
H1012 H 0.23752 0.83455 0.2515 0.0
H1013 H 0.21588 0.77847 0.24332 0.0
H1014 H 0.24299 0.77206 0.26233 0.0
H1015 H 0.18868 0.79835 0.24785 0.0
H1016 H 0.24082 0.79941 0.21198 0.0
H1017 H 0.27296 0.81006 0.20589 0.0
H1018 H 0.26181 0.86322 0.20354 0.0
H1019 H 0.22967 0.85294 0.20991 0.0
C1020 C 0.13745 0.80546 0.172 0.0
C1021 C 0.13536 0.82236 0.16637 0.0
C1022 C 0.15244 0.80342 0.18457 0.0
C1023 C 0.16545 0.81827 0.19194 0.0
C1024 C 0.16383 0.83507 0.18575 0.0
C1025 C 0.14889 0.83711 0.17304 0.0
C1026 C 0.18048 0.81625 0.20641 0.0
C1027 C 0.1989 0.82222 0.20336 0.0
C1028 C 0.17672 0.80779 0.22279 0.0
C1029 C 0.15754 0.80243 0.22747 0.0
C1030 C 0.14551 0.81487 0.228 0.0
C1031 C 0.12741 0.80972 0.23225 0.0
C1032 C 0.12121 0.79219 0.23615 0.0
C1033 C 0.13312 0.77978 0.23584 0.0
C1034 C 0.15123 0.78485 0.23156 0.0
C1035 C 0.25409 0.8173 0.26479 0.0
C1036 C 0.25617 0.79966 0.2676 0.0
C1037 C 0.23855 0.82091 0.254 0.0
C1038 C 0.22494 0.80695 0.2457 0.0
C1039 C 0.22633 0.78941 0.24952 0.0
C1040 C 0.24184 0.78578 0.26039 0.0
C1041 C 0.20991 0.81049 0.23206 0.0
C1042 C 0.19151 0.80481 0.23528 0.0
C1043 C 0.21369 0.81937 0.21593 0.0
C1044 C 0.23289 0.82543 0.21162 0.0
C1045 C 0.24525 0.81339 0.21027 0.0
C1046 C 0.26347 0.81936 0.20677 0.0
C1047 C 0.26944 0.83732 0.20442 0.0
C1048 C 0.25717 0.84932 0.20542 0.0
C1049 C 0.23895 0.84343 0.20896 0.0
H1050 H 0.28355 0.84197 0.20182 0.0
H1051 H 0.10719 0.78822 0.23944 0.0
H1052 H 0.55759 0.78568 0.42402 0.0
H1053 H 0.56135 0.8175 0.4327 0.0
H1054 H 0.50242 0.81527 0.42043 0.0
H1055 H 0.49856 0.78351 0.41166 0.0
H1056 H 0.52296 0.84494 0.40758 0.0
H1057 H 0.52054 0.81393 0.46391 0.0
H1058 H 0.5308 0.79361 0.48648 0.0
H1059 H 0.5851 0.82552 0.49473 0.0
H1060 H 0.57522 0.8459 0.47199 0.0
H1061 H 0.50102 0.91675 0.45932 0.0
H1062 H 0.50454 0.88841 0.44468 0.0
H1063 H 0.56244 0.8978 0.4661 0.0
H1064 H 0.55876 0.92583 0.48165 0.0
H1065 H 0.54689 0.86575 0.47253 0.0
H1066 H 0.54818 0.89915 0.41926 0.0
H1067 H 0.53786 0.91962 0.39692 0.0
H1068 H 0.48633 0.88383 0.38266 0.0
H1069 H 0.49621 0.86325 0.40511 0.0
C1070 C 0.54547 0.79201 0.42306 0.0
C1071 C 0.52776 0.78213 0.41732 0.0
C1072 C 0.54764 0.81015 0.42803 0.0
C1073 C 0.53214 0.81865 0.42733 0.0
C1074 C 0.51454 0.80893 0.42104 0.0
C1075 C 0.51235 0.79079 0.41614 0.0
C1076 C 0.53405 0.8375 0.43399 0.0
C1077 C 0.52811 0.84953 0.42179 0.0
C1078 C 0.5413 0.84351 0.45238 0.0
C1079 C 0.54721 0.8313 0.46609 0.0
C1080 C 0.53472 0.81652 0.47042 0.0
C1081 C 0.54045 0.80502 0.48326 0.0
C1082 C 0.55861 0.80824 0.49199 0.0
C1083 C 0.57106 0.82302 0.48793 0.0
C1084 C 0.56539 0.83455 0.47507 0.0
C1085 C 0.51451 0.9128 0.46093 0.0
C1086 C 0.52958 0.9235 0.47174 0.0
C1087 C 0.51657 0.89669 0.45233 0.0
C1088 C 0.53382 0.89108 0.45408 0.0
C1089 C 0.54903 0.90193 0.46448 0.0
C1090 C 0.54694 0.91801 0.47323 0.0
C1091 C 0.53549 0.87327 0.44621 0.0
C1092 C 0.54207 0.86135 0.45821 0.0
C1093 C 0.52888 0.86741 0.4276 0.0
C1094 C 0.52291 0.87969 0.41397 0.0
C1095 C 0.53459 0.89569 0.41145 0.0
C1096 C 0.52883 0.90731 0.39875 0.0
C1097 C 0.51144 0.90304 0.3884 0.0
C1098 C 0.49979 0.88712 0.39069 0.0
C1099 C 0.50549 0.87546 0.40338 0.0
H1100 H 0.507 0.91206 0.37858 0.0
H1101 H 0.56302 0.79932 0.50193 0.0
H1102 H 0.54644 0.34126 0.69463 0.0
H1103 H 0.52262 0.33353 0.71532 0.0
H1104 H 0.49359 0.29244 0.67505 0.0
H1105 H 0.51729 0.30009 0.65431 0.0
H1106 H 0.47027 0.31226 0.69061 0.0
H1107 H 0.52057 0.28178 0.71067 0.0
H1108 H 0.55307 0.28011 0.72143 0.0
H1109 H 0.55115 0.31465 0.76919 0.0
H1110 H 0.51872 0.31674 0.75857 0.0
H1111 H 0.41118 0.25948 0.74271 0.0
H1112 H 0.4367 0.26877 0.72453 0.0
H1113 H 0.46233 0.30798 0.76819 0.0
H1114 H 0.43668 0.29891 0.7864 0.0
H1115 H 0.48785 0.29094 0.75213 0.0
H1116 H 0.4385 0.32157 0.73333 0.0
H1117 H 0.40637 0.32485 0.72306 0.0
H1118 H 0.40676 0.29189 0.67372 0.0
H1119 H 0.43887 0.28823 0.68383 0.0
C1120 C 0.53487 0.33071 0.69012 0.0
C1121 C 0.53372 0.32123 0.6729 0.0
C1122 C 0.52136 0.32626 0.70197 0.0
C1123 C 0.50651 0.31228 0.69676 0.0
C1124 C 0.50499 0.30324 0.67931 0.0
C1125 C 0.51853 0.30761 0.6675 0.0
C1126 C 0.49271 0.30676 0.7096 0.0
C1127 C 0.47407 0.30741 0.70397 0.0
C1128 C 0.49783 0.30096 0.72725 0.0
C1129 C 0.51728 0.29957 0.73372 0.0
C1130 C 0.52713 0.28913 0.72339 0.0
C1131 C 0.54553 0.28809 0.72948 0.0
C1132 C 0.55419 0.29732 0.74595 0.0
C1133 C 0.54444 0.30754 0.75641 0.0
C1134 C 0.52604 0.30865 0.75037 0.0
C1135 C 0.4223 0.27001 0.74849 0.0
C1136 C 0.42183 0.2786 0.76589 0.0
C1137 C 0.43687 0.27527 0.73812 0.0
C1138 C 0.4512 0.28924 0.74493 0.0
C1139 C 0.45135 0.29719 0.76271 0.0
C1140 C 0.43673 0.29195 0.77311 0.0
C1141 C 0.46539 0.29616 0.73298 0.0
C1142 C 0.48407 0.29582 0.73878 0.0
C1143 C 0.46036 0.30242 0.71555 0.0
C1144 C 0.44104 0.3045 0.70942 0.0
C1145 C 0.43169 0.31489 0.72037 0.0
C1146 C 0.4135 0.31685 0.71456 0.0
C1147 C 0.40454 0.30858 0.69775 0.0
C1148 C 0.41374 0.2983 0.68673 0.0
C1149 C 0.43194 0.29629 0.69248 0.0
H1150 H 0.39051 0.31022 0.69325 0.0
H1151 H 0.56843 0.29651 0.75064 0.0
H1152 H 0.055 0.85382 0.64791 0.0
H1153 H 0.05737 0.88282 0.63469 0.0
H1154 H 0.03478 0.85722 0.5814 0.0
H1155 H 0.03269 0.82805 0.59467 0.0
H1156 H 0.05876 0.88385 0.5739 0.0
H1157 H 1.01089 0.88474 0.61407 0.0
H1158 H 0.99734 0.88269 0.64362 0.0
H1159 H 0.04007 0.92471 0.66869 0.0
H1160 H 0.05393 0.92692 0.63934 0.0
H1161 H 0.04621 0.96523 0.53131 0.0
H1162 H 0.04357 0.93622 0.54433 0.0
H1163 H 0.05979 0.96178 0.5989 0.0
H1164 H 0.06145 0.99093 0.58585 0.0
H1165 H 0.03914 0.93496 0.60586 0.0
H1166 H 0.08778 0.9343 0.56744 0.0
H1167 H 0.103 0.93662 0.53885 0.0
H1168 H 0.06144 0.89467 0.5117 0.0
H1169 H 0.04586 0.89222 0.54008 0.0
C1170 C 0.0504 0.85416 0.63335 0.0
C1171 C 0.0435 0.8379 0.6227 0.0
C1172 C 0.05165 0.87115 0.62564 0.0
C1173 C 0.04597 0.87317 0.60669 0.0
C1174 C 0.03932 0.85686 0.59597 0.0
C1175 C 0.03803 0.83983 0.60372 0.0
C1176 C 0.04716 0.89186 0.59818 0.0
C1177 C 0.05414 0.89482 0.58096 0.0
C1178 C 0.04189 0.90714 0.60696 0.0
C1179 C 0.03354 0.90587 0.62457 0.0
C1180 C 1.01744 0.89347 0.62592 0.0
C1181 C 1.00969 0.8923 0.64263 0.0
C1182 C 1.01785 0.90355 0.65804 0.0
C1183 C 0.03375 0.91602 0.65675 0.0
C1184 C 0.04155 0.91724 0.64008 0.0
C1185 C 0.04941 0.96488 0.54611 0.0
C1186 C 0.05433 0.98115 0.55716 0.0
C1187 C 0.04805 0.94786 0.55376 0.0
C1188 C 0.05195 0.94577 0.57302 0.0
C1189 C 0.05669 0.9621 0.58409 0.0
C1190 C 0.05778 0.97916 0.57645 0.0
C1191 C 0.05077 0.92703 0.58152 0.0
C1192 C 0.04378 0.92403 0.59876 0.0
C1193 C 0.05628 0.91177 0.57288 0.0
C1194 C 0.06556 0.91321 0.55581 0.0
C1195 C 0.08183 0.92564 0.55533 0.0
C1196 C 0.09053 0.92697 0.53918 0.0
C1197 C 0.08316 0.91584 0.52346 0.0
C1198 C 0.06711 0.90331 0.52388 0.0
C1199 C 0.05835 0.90194 0.54 0.0
H1200 H 0.08991 0.91689 0.51096 0.0
H1201 H 1.01183 0.90261 0.67096 0.0
H1202 H 0.51521 0.79244 0.86168 0.0
H1203 H 0.48393 0.79276 0.84628 0.0
H1204 H 0.46053 0.75844 0.88593 0.0
H1205 H 0.49179 0.75846 0.90164 0.0
H1206 H 0.44285 0.74788 0.84968 0.0
H1207 H 0.45749 0.80225 0.88841 0.0
H1208 H 0.47635 0.83106 0.90025 0.0
H1209 H 0.47128 0.85008 0.84582 0.0
H1210 H 0.45259 0.82128 0.8336 0.0
H1211 H 0.34749 0.75516 0.82262 0.0
H1212 H 0.37821 0.75387 0.83844 0.0
H1213 H 0.40112 0.80063 0.81248 0.0
H1214 H 0.37022 0.80254 0.79773 0.0
H1215 H 0.41958 0.80449 0.84227 0.0
H1216 H 0.40694 0.75143 0.80227 0.0
H1217 H 0.38949 0.72267 0.78842 0.0
H1218 H 0.39243 0.70109 0.84171 0.0
H1219 H 0.40972 0.72979 0.85592 0.0
C1220 C 0.50347 0.78491 0.86719 0.0
C1221 C 0.50643 0.77542 0.88311 0.0
C1222 C 0.48537 0.78514 0.85832 0.0
C1223 C 0.46933 0.77568 0.86472 0.0
C1224 C 0.47231 0.7659 0.88041 0.0
C1225 C 0.49039 0.76596 0.88951 0.0
C1226 C 0.44966 0.77616 0.85532 0.0
C1227 C 0.43775 0.7603 0.84829 0.0
C1228 C 0.44266 0.79221 0.85272 0.0
C1229 C 0.4538 0.80955 0.86006 0.0
C1230 C 0.46052 0.81253 0.87893 0.0
C1231 C 0.47116 0.82886 0.88572 0.0
C1232 C 0.47505 0.84237 0.87378 0.0
C1233 C 0.46827 0.83959 0.85504 0.0
C1234 C 0.45764 0.82327 0.84818 0.0
C1235 C 0.35905 0.76514 0.82013 0.0
C1236 C 0.35594 0.7789 0.80858 0.0
C1237 C 0.37697 0.76432 0.82918 0.0
C1238 C 0.39287 0.7769 0.82669 0.0
C1239 C 0.38965 0.7906 0.81505 0.0
C1240 C 0.37169 0.79165 0.80637 0.0
C1241 C 0.41254 0.77615 0.83631 0.0
C1242 C 0.42453 0.792 0.84347 0.0
C1243 C 0.41977 0.76008 0.83865 0.0
C1244 C 0.40944 0.74281 0.83018 0.0
C1245 C 0.40377 0.74057 0.81105 0.0
C1246 C 0.39392 0.72429 0.80313 0.0
C1247 C 0.3898 0.71008 0.81419 0.0
C1248 C 0.39559 0.71212 0.83317 0.0
C1249 C 0.40543 0.72839 0.84116 0.0
H1250 H 0.38216 0.69748 0.80804 0.0
H1251 H 0.48329 0.85501 0.87906 0.0
H1252 H 0.52042 0.23204 0.09717 0.0
H1253 H 0.52169 0.20234 0.08315 0.0
H1254 H 0.56338 0.19564 0.12686 0.0
H1255 H 0.56181 0.22508 0.14106 0.0
H1256 H 0.57302 0.18211 0.09453 0.0
H1257 H 0.51639 0.17277 0.12285 0.0
H1258 H 0.48529 0.17804 0.1286 0.0
H1259 H 0.46577 0.16567 0.07106 0.0
H1260 H 0.49683 0.16054 0.06492 0.0
H1261 H 0.57276 0.08819 0.07447 0.0
H1262 H 0.57104 0.11783 0.08803 0.0
H1263 H 0.52405 0.12049 0.0486 0.0
H1264 H 0.52578 0.09087 0.03502 0.0
H1265 H 0.51686 0.1364 0.07827 0.0
H1266 H 0.57083 0.1461 0.04844 0.0
H1267 H 0.60163 0.14348 0.03944 0.0
H1268 H 0.62591 0.15728 0.09552 0.0
H1269 H 0.59517 0.15969 0.10496 0.0
C1270 C 0.52987 0.22433 0.10395 0.0
C1271 C 0.54094 0.23157 0.12058 0.0
C1272 C 0.53057 0.20699 0.09583 0.0
C1273 C 0.5426 0.19589 0.10366 0.0
C1274 C 0.55386 0.2033 0.1201 0.0
C1275 C 0.5529 0.22045 0.1284 0.0
C1276 C 0.54352 0.17691 0.09494 0.0
C1277 C 0.56066 0.17213 0.09134 0.0
C1278 C 0.52764 0.1634 0.08975 0.0
C1279 C 0.50898 0.16645 0.0934 0.0
C1280 C 0.5055 0.17131 0.1114 0.0
C1281 C 0.48788 0.17424 0.11473 0.0
C1282 C 0.47358 0.17224 0.1002 0.0
C1283 C 0.47687 0.16725 0.0823 0.0
C1284 C 0.49448 0.16431 0.07889 0.0
C1285 C 0.56198 0.09495 0.06855 0.0
C1286 C 0.54945 0.08645 0.05333 0.0
C1287 C 0.56105 0.11232 0.07638 0.0
C1288 C 0.54748 0.12236 0.06959 0.0
C1289 C 0.53479 0.11372 0.05456 0.0
C1290 C 0.53584 0.09644 0.04661 0.0
C1291 C 0.54645 0.14146 0.07802 0.0
C1292 C 0.52928 0.1463 0.08154 0.0
C1293 C 0.56227 0.15516 0.08278 0.0
C1294 C 0.58065 0.15288 0.07745 0.0
C1295 C 0.58269 0.14833 0.05892 0.0
C1296 C 0.60014 0.14694 0.05372 0.0
C1297 C 0.61571 0.15025 0.06689 0.0
C1298 C 0.61383 0.15475 0.08533 0.0
C1299 C 0.59639 0.15611 0.09062 0.0
H1300 H 0.62923 0.1494 0.06277 0.0
H1301 H 0.45994 0.17452 0.10281 0.0
H1302 H 0.13188 0.29663 0.40506 0.0
H1303 H 0.15986 0.29741 0.3892 0.0
H1304 H 0.12748 0.26587 0.34287 0.0
H1305 H 0.09949 0.26518 0.35869 0.0
H1306 H 0.15932 0.25406 0.34779 0.0
H1307 H 0.14681 0.31384 0.34412 0.0
H1308 H 0.14207 0.34318 0.35634 0.0
H1309 H 0.19579 0.35143 0.38771 0.0
H1310 H 0.20076 0.32206 0.3759 0.0
H1311 H 0.23058 0.26211 0.28658 0.0
H1312 H 0.20266 0.26255 0.30194 0.0
H1313 H 0.23341 0.30184 0.34297 0.0
H1314 H 0.26115 0.30202 0.32699 0.0
H1315 H 0.20238 0.3098 0.34126 0.0
H1316 H 0.21557 0.2516 0.34812 0.0
H1317 H 0.22197 0.22206 0.33862 0.0
H1318 H 0.16936 0.21025 0.30512 0.0
H1319 H 0.16275 0.23982 0.31424 0.0
C1320 C 0.13055 0.28987 0.39146 0.0
C1321 C 0.11288 0.28088 0.38343 0.0
C1322 C 0.14682 0.2904 0.38217 0.0
C1323 C 0.14645 0.28189 0.36432 0.0
C1324 C 0.1288 0.2727 0.35644 0.0
C1325 C 0.11251 0.27234 0.36563 0.0
C1326 C 0.16413 0.28229 0.35406 0.0
C1327 C 0.16848 0.2664 0.34622 0.0
C1328 C 0.17712 0.29803 0.35215 0.0
C1329 C 0.17405 0.31564 0.35931 0.0
C1330 C 0.15754 0.32184 0.35375 0.0
C1331 C 0.15483 0.33849 0.36058 0.0
C1332 C 0.16858 0.34911 0.37287 0.0
C1333 C 0.18513 0.34316 0.37825 0.0
C1334 C 0.1879 0.32652 0.37149 0.0
C1335 C 0.23155 0.27094 0.29885 0.0
C1336 C 0.24871 0.28196 0.30525 0.0
C1337 C 0.21531 0.27103 0.30799 0.0
C1338 C 0.21523 0.28184 0.32442 0.0
C1339 C 0.23235 0.29313 0.33059 0.0
C1340 C 0.24855 0.29321 0.32131 0.0
C1341 C 0.19763 0.28154 0.33491 0.0
C1342 C 0.19326 0.29743 0.34278 0.0
C1343 C 0.18485 0.26574 0.33727 0.0
C1344 C 0.18876 0.24799 0.3317 0.0
C1345 C 0.20542 0.24275 0.33862 0.0
C1346 C 0.20908 0.226 0.33332 0.0
C1347 C 0.1961 0.21431 0.32123 0.0
C1348 C 0.17942 0.21933 0.31445 0.0
C1349 C 0.1757 0.23608 0.31969 0.0
H1350 H 0.19896 0.20134 0.31715 0.0
H1351 H 0.16645 0.36195 0.37823 0.0
H1352 H 0.91352 0.05164 0.16411 0.0
H1353 H 0.93482 0.06836 0.14498 0.0
H1354 H 0.98112 0.05244 0.17723 0.0
H1355 H 0.96004 0.03633 0.19667 0.0
H1356 H 0.9893 0.08632 0.17067 0.0
H1357 H 0.96143 0.03116 0.13357 0.0
H1358 H 0.93474 1.01009 0.11768 0.0
H1359 H 0.91828 0.05156 0.08564 0.0
H1360 H 0.94491 0.07285 0.1013 0.0
H1361 H 0.05905 0.07276 0.11708 0.0
H1362 H 0.03481 0.07528 0.13676 0.0
H1363 H 1.00408 0.09791 0.09304 0.0
H1364 H 0.02832 0.09533 0.07315 0.0
H1365 H 0.98402 0.06928 0.10353 0.0
H1366 H 1.01849 0.12163 0.13491 0.0
H1367 H 0.0459 0.14184 0.15052 0.0
H1368 H 0.05064 0.10595 0.19351 0.0
H1369 H 0.02343 0.08538 0.17803 0.0
C1370 C 0.92824 0.05169 0.16702 0.0
C1371 C 0.93516 0.04261 0.18175 0.0
C1372 C 0.94039 0.06127 0.15614 0.0
C1373 C 0.95956 0.06158 0.15963 0.0
C1374 C 0.9664 0.05251 0.17437 0.0
C1375 C 0.95433 0.04318 0.18537 0.0
C1376 C 0.97267 0.07064 0.14764 0.0
C1377 C 0.9882 0.08264 0.15598 0.0
C1378 C 0.97079 0.06644 0.12834 0.0
C1379 C 0.955 0.0536 0.11872 0.0
C1380 C 0.95208 0.03577 0.12316 0.0
C1381 C 0.937 0.02379 0.11417 0.0
C1382 C 0.92482 0.02949 0.10066 0.0
C1383 C 0.92775 0.04716 0.09605 0.0
C1384 C 0.94285 0.05918 0.10496 0.0
C1385 C 0.04744 0.0788 0.11181 0.0
C1386 C 0.04541 0.08347 0.09341 0.0
C1387 C 0.03359 0.08033 0.12314 0.0
C1388 C 1.0176 0.08676 0.11636 0.0
C1389 C 1.01628 0.09285 0.09851 0.0
C1390 C 0.03012 0.09128 0.08714 0.0
C1391 C 1.00124 0.08423 0.12674 0.0
C1392 C 0.98498 0.07348 0.1181 0.0
C1393 C 1.00255 0.08954 0.14576 0.0
C1394 C 0.01889 0.10192 0.15525 0.0
C1395 C 0.02543 0.11798 0.14764 0.0
C1396 C 0.04093 0.12952 0.15647 0.0
C1397 C 0.05001 0.12518 0.17299 0.0
C1398 C 0.04358 0.10931 0.18072 0.0
C1399 C 0.02808 0.09772 0.17194 0.0
H1400 H 0.06202 0.13413 0.17981 0.0
H1401 H 0.91312 0.02021 0.09375 0.0
H1402 H 0.29507 0.68577 0.4613 0.0
H1403 H 0.29581 0.69883 0.43148 0.0
H1404 H 0.29238 0.74981 0.45758 0.0
H1405 H 0.2912 0.73663 0.48756 0.0
H1406 H 0.27026 0.74391 0.42592 0.0
H1407 H 0.33345 0.73998 0.44441 0.0
H1408 H 0.35974 0.72558 0.4553 0.0
H1409 H 0.34847 0.6896 0.40678 0.0
H1410 H 0.3219 0.70359 0.39573 0.0
H1411 H 0.29691 0.79234 0.34867 0.0
H1412 H 0.29498 0.78069 0.37915 0.0
H1413 H 0.29518 0.72797 0.35555 0.0
H1414 H 0.29741 0.7395 0.32504 0.0
H1415 H 0.31964 0.73601 0.38647 0.0
H1416 H 0.25573 0.73963 0.36873 0.0
H1417 H 0.2297 0.75444 0.35796 0.0
H1418 H 0.24319 0.79187 0.40527 0.0
H1419 H 0.26947 0.77742 0.4162 0.0
C1420 C 0.29449 0.69977 0.46073 0.0
C1421 C 0.29317 0.71019 0.47682 0.0
C1422 C 0.295 0.70725 0.44365 0.0
C1423 C 0.29448 0.72539 0.44227 0.0
C1424 C 0.29289 0.7358 0.45829 0.0
C1425 C 0.29226 0.72828 0.47542 0.0
C1426 C 0.29538 0.73334 0.42406 0.0
C1427 C 0.28124 0.74243 0.41744 0.0
C1428 C 0.3095 0.73113 0.41277 0.0
C1429 C 0.32554 0.72272 0.41934 0.0
C1430 C 0.33647 0.7289 0.43613 0.0
C1431 C 0.35144 0.72082 0.44233 0.0
C1432 C 0.35574 0.70664 0.43177 0.0
C1433 C 0.3451 0.70056 0.41496 0.0
C1434 C 0.33009 0.70857 0.40872 0.0
C1435 C 0.29638 0.77823 0.34988 0.0
C1436 C 0.2973 0.76688 0.33433 0.0
C1437 C 0.29524 0.77158 0.36735 0.0
C1438 C 0.29487 0.75343 0.36965 0.0
C1439 C 0.29549 0.74203 0.35412 0.0
C1440 C 0.29668 0.74865 0.33665 0.0
C1441 C 0.29444 0.7464 0.3883 0.0
C1442 C 0.30871 0.73753 0.395 0.0
C1443 C 0.28051 0.74889 0.39969 0.0
C1444 C 0.26468 0.75755 0.39318 0.0
C1445 C 0.25324 0.75111 0.37676 0.0
C1446 C 0.23842 0.75942 0.37064 0.0
C1447 C 0.23482 0.77412 0.38089 0.0
C1448 C 0.24601 0.7805 0.39732 0.0
C1449 C 0.26086 0.77224 0.40349 0.0
H1450 H 0.22334 0.78053 0.37614 0.0
H1451 H 0.36733 0.7004 0.4366 0.0
H1452 H 0.59159 0.95853 0.72667 0.0
H1453 H 0.57757 0.95666 0.69436 0.0
H1454 H 0.56367 1.00882 0.70282 0.0
H1455 H 0.5773 1.01064 0.73485 0.0
H1456 H 0.53726 0.98812 0.67937 0.0
H1457 H 0.60499 1.00375 0.68815 0.0
H1458 H 0.6363 0.99783 0.69815 0.0
H1459 H 0.62575 0.95028 0.66208 0.0
H1460 H 0.59427 0.95584 0.65205 0.0
H1461 H 0.57846 0.03359 0.59829 0.0
H1462 H 0.58034 0.02073 0.62813 0.0
H1463 H 0.53055 0.98298 0.61014 0.0
H1464 H 0.52839 0.99603 0.58008 0.0
H1465 H 0.58491 0.98806 0.63605 0.0
H1466 H 0.50914 0.97333 0.65023 0.0
H1467 H 0.47937 0.98323 0.64157 0.0
H1468 H 0.50836 0.03515 0.63308 0.0
H1469 H 0.53825 0.0256 0.6419 0.0
C1470 C 0.58516 0.96939 0.72168 0.0
C1471 C 0.58579 0.98485 0.73312 0.0
C1472 C 0.57716 0.9683 0.70328 0.0
C1473 C 0.56975 0.98268 0.69617 0.0
C1474 C 0.56924 0.99755 0.70801 0.0
C1475 C 0.57722 0.99864 0.72628 0.0
C1476 C 0.5649 0.98369 0.67608 0.0
C1477 C 0.54751 0.98773 0.66976 0.0
C1478 C 0.57834 0.98336 0.66362 0.0
C1479 C 0.59725 0.98007 0.66955 0.0
C1480 C 0.60933 0.99197 0.68246 0.0
C1481 C 0.62709 0.98869 0.68811 0.0
C1482 C 0.63299 0.97365 0.6808 0.0
C1483 C 0.62114 0.96189 0.66777 0.0
C1484 C 0.60334 0.9651 0.6621 0.0
C1485 C 0.56781 0.02262 0.60065 0.0
C1486 C 0.55328 0.01582 0.58681 0.0
C1487 C 0.56897 0.01521 0.6177 0.0
C1488 C 0.55566 1.00083 0.6213 0.0
C1489 C 0.54093 0.99412 0.60765 0.0
C1490 C 0.5397 1.00162 0.59052 0.0
C1491 C 0.55752 0.99316 0.6395 0.0
C1492 C 0.57435 0.98777 0.64541 0.0
C1493 C 0.54374 0.99272 0.65168 0.0
C1494 C 0.52589 0.99867 0.64646 0.0
C1495 C 0.50913 0.98686 0.64652 0.0
C1496 C 0.49225 0.99241 0.6416 0.0
C1497 C 0.49198 1.00979 0.6367 0.0
C1498 C 0.50859 0.02167 0.63679 0.0
C1499 C 0.5255 0.01619 0.64173 0.0
H1500 H 0.4789 0.01406 0.63288 0.0
H1501 H 0.64675 0.97113 0.68519 0.0
H1502 H 0.2656 0.35451 0.98654 0.0
H1503 H 0.26693 0.33938 0.95639 0.0
H1504 H 0.30609 0.3839 0.94284 0.0
H1505 H 0.3037 0.39943 0.97248 0.0
H1506 H 0.28947 0.37374 0.91273 0.0
H1507 H 0.3147 0.33668 0.95594 0.0
H1508 H 0.31585 0.31805 0.98256 0.0
H1509 H 0.2673 0.28263 0.95728 0.0
H1510 H 0.26575 0.30117 0.9306 0.0
H1511 H 0.32415 0.32268 0.84045 0.0
H1512 H 0.32069 0.33772 0.87019 0.0
H1513 H 0.26642 0.30646 0.86967 0.0
H1514 H 0.26951 0.29187 0.83948 0.0
H1515 H 0.29041 0.3092 0.9062 0.0
H1516 H 0.26752 0.34699 0.8619 0.0
H1517 H 0.26883 0.36567 0.83532 0.0
H1518 H 0.31699 0.39979 0.86324 0.0
H1519 H 0.31613 0.38114 0.88992 0.0
C1520 C 0.2745 0.36115 0.97718 0.0
C1521 C 0.28454 0.3784 0.98241 0.0
C1522 C 0.2755 0.35228 0.95972 0.0
C1523 C 0.28708 0.35989 0.94673 0.0
C1524 C 0.29697 0.37724 0.95201 0.0
C1525 C 0.29566 0.38626 0.96928 0.0
C1526 C 0.28874 0.35016 0.92784 0.0
C1527 C 0.28994 0.35966 0.91166 0.0
C1528 C 0.28914 0.33156 0.92538 0.0
C1529 C 0.28999 0.32042 0.94139 0.0
C1530 C 0.3042 0.32498 0.95613 0.0
C1531 C 0.30494 0.31443 0.97121 0.0
C1532 C 0.29163 0.29919 0.97164 0.0
C1533 C 0.27758 0.29445 0.95695 0.0
C1534 C 0.27677 0.30497 0.94184 0.0
C1535 C 0.31139 0.31895 0.84654 0.0
C1536 C 0.29715 0.30585 0.83712 0.0
C1537 C 0.3094 0.32767 0.86375 0.0
C1538 C 0.29327 0.32344 0.87272 0.0
C1539 C 0.2791 0.31019 0.86347 0.0
C1540 C 0.28088 0.3018 0.84597 0.0
C1541 C 0.29121 0.33285 0.89147 0.0
C1542 C 0.28997 0.32328 0.9075 0.0
C1543 C 0.29119 0.35142 0.89388 0.0
C1544 C 0.29186 0.36257 0.87783 0.0
C1545 C 0.27851 0.35837 0.8623 0.0
C1546 C 0.27914 0.36897 0.84724 0.0
C1547 C 0.29299 0.3839 0.84759 0.0
C1548 C 0.30626 0.38823 0.863 0.0
C1549 C 0.30571 0.37765 0.8781 0.0
H1550 H 0.29338 0.39214 0.83595 0.0
H1551 H 0.29222 0.29104 0.98333 0.0
H1552 H 0.94445 0.99489 0.26047 0.0
H1553 H 0.96108 0.993 0.29102 0.0
H1554 H 0.92671 0.02597 0.31552 0.0
H1555 H 0.90993 0.02784 0.28507 0.0
H1556 H 0.96473 0.03708 0.32604 0.0
H1557 H 0.9193 0.98374 0.32215 0.0
H1558 H 0.90204 0.95516 0.30771 0.0
H1559 H 0.9526 0.9341 0.30899 0.0
H1560 H 0.97022 0.96266 0.3232 0.0
H1561 H 0.99359 0.02769 0.4198 0.0
H1562 H 0.97487 0.02744 0.39011 0.0
H1563 H 1.00411 0.98896 0.36669 0.0
H1564 H 0.02223 0.9884 0.39665 0.0
H1565 H 0.96831 0.98053 0.35553 0.0
H1566 H 1.01404 0.03329 0.35833 0.0
H1567 H 0.03213 0.06182 0.37204 0.0
H1568 H 0.98227 0.08393 0.37195 0.0
H1569 H 0.96384 0.05545 0.35842 0.0
C1570 C 0.94036 1.00161 0.2724 0.0
C1571 C 0.92591 0.0115 0.27044 0.0
C1572 C 0.94983 1.00049 0.28981 0.0
C1573 C 0.94504 1.0093 0.30547 0.0
C1574 C 0.93056 0.01909 0.30356 0.0
C1575 C 0.92098 0.02008 0.2862 0.0
C1576 C 0.95554 1.00877 0.32379 0.0
C1577 C 0.96532 0.02476 0.33265 0.0
C1578 C 0.95668 0.99261 0.33205 0.0
C1579 C 0.9461 0.9754 0.32357 0.0
C1580 C 0.92677 0.97307 0.31921 0.0
C1581 C 0.91691 0.95686 0.31109 0.0
C1582 C 0.92623 0.94284 0.30739 0.0
C1583 C 0.94541 0.94498 0.31184 0.0
C1584 C 0.95534 0.96117 0.31994 0.0
C1585 C 0.99588 0.01898 0.40842 0.0
C1586 C 1.00945 1.00809 0.4106 0.0
C1587 C 0.98531 0.01901 0.39139 0.0
C1588 C 0.9883 1.00839 0.37611 0.0
C1589 C 1.00164 0.99732 0.37828 0.0
C1590 C 1.01212 0.99717 0.39536 0.0
C1591 C 0.97754 1.00886 0.35786 0.0
C1592 C 0.96773 0.99287 0.34897 0.0
C1593 C 0.97651 0.02501 0.34947 0.0
C1594 C 0.98755 0.04219 0.35751 0.0
C1595 C 1.00692 0.0442 0.36135 0.0
C1596 C 1.01723 0.06037 0.36906 0.0
C1597 C 1.00835 0.07467 0.37289 0.0
C1598 C 0.98913 0.07284 0.36899 0.0
C1599 C 0.97874 0.0567 0.36127 0.0
H1600 H 1.01637 0.08718 0.37882 0.0
H1601 H 0.91857 0.9303 0.30111 0.0
H1602 H 0.28192 0.6849 0.5921 0.0
H1603 H 0.2853 0.69689 0.6242 0.0
H1604 H 0.31366 0.74692 0.6086 0.0
H1605 H 0.3104 0.73491 0.57631 0.0
H1606 H 0.3314 0.7362 0.63981 0.0
H1607 H 0.26942 0.74283 0.61829 0.0
H1608 H 0.23734 0.7333 0.60367 0.0
H1609 H 0.22739 0.69536 0.6445 0.0
H1610 H 0.25951 0.70448 0.65922 0.0
H1611 H 0.32596 0.78558 0.72432 0.0
H1612 H 0.32473 0.77395 0.69233 0.0
H1613 H 0.2933 0.72431 0.70536 0.0
H1614 H 0.29415 0.73594 0.73733 0.0
H1615 H 0.27729 0.73551 0.67511 0.0
H1616 H 0.33924 0.72841 0.69644 0.0
H1617 H 0.37128 0.73785 0.71123 0.0
H1618 H 0.38128 0.77643 0.67104 0.0
H1619 H 0.34921 0.76738 0.65615 0.0
C1620 C 0.28881 0.69849 0.59545 0.0
C1621 C 0.29584 0.70898 0.58163 0.0
C1622 C 0.29068 0.70535 0.61383 0.0
C1623 C 0.29959 0.72287 0.61882 0.0
C1624 C 0.30671 0.73337 0.60507 0.0
C1625 C 0.30476 0.72653 0.58662 0.0
C1626 C 0.30168 0.73004 0.63846 0.0
C1627 C 0.31955 0.7363 0.64746 0.0
C1628 C 0.28626 0.72977 0.64861 0.0
C1629 C 0.26695 0.72422 0.63974 0.0
C1630 C 0.26045 0.73234 0.62406 0.0
C1631 C 0.24224 0.72703 0.61577 0.0
C1632 C 0.23035 0.7137 0.62311 0.0
C1633 C 0.23663 0.70567 0.6388 0.0
C1634 C 0.25483 0.71091 0.64713 0.0
C1635 C 0.31903 0.77208 0.7205 0.0
C1636 C 0.31013 0.76173 0.73348 0.0
C1637 C 0.31837 0.76542 0.70215 0.0
C1638 C 0.30898 0.7482 0.69638 0.0
C1639 C 0.30057 0.73765 0.70943 0.0
C1640 C 0.30116 0.74432 0.72777 0.0
C1641 C 0.30704 0.74154 0.67656 0.0
C1642 C 0.28917 0.73541 0.66749 0.0
C1643 C 0.32246 0.74189 0.66639 0.0
C1644 C 0.34176 0.74733 0.67529 0.0
C1645 C 0.34823 0.739 0.69084 0.0
C1646 C 0.3664 0.74426 0.69923 0.0
C1647 C 0.37829 0.75776 0.69211 0.0
C1648 C 0.37205 0.76599 0.67655 0.0
C1649 C 0.35388 0.76079 0.66813 0.0
H1650 H 0.39236 0.76182 0.69862 0.0
H1651 H 0.21626 0.70961 0.61668 0.0
H1652 H 0.60433 0.01945 0.84287 0.0
H1653 H 0.58838 0.04067 0.85797 0.0
H1654 H 0.54199 0.02765 0.81549 0.0
H1655 H 0.55784 1.00627 0.8003 0.0
H1656 H 0.57772 0.07054 0.84251 0.0
H1657 H 0.50307 0.03425 0.83676 0.0
H1658 H 0.48517 1.00378 0.83397 0.0
H1659 H 0.53089 0.98514 0.86362 0.0
H1660 H 0.54894 0.01551 0.86675 0.0
H1661 H 0.5011 0.08909 0.90697 0.0
H1662 H 0.50942 0.08532 0.8756 0.0
H1663 H 0.56654 0.08806 0.89772 0.0
H1664 H 0.55846 0.09154 0.92858 0.0
H1665 H 0.51918 0.05468 0.8704 0.0
H1666 H 0.59602 0.09052 0.86789 0.0
H1667 H 0.61366 0.121 0.87186 0.0
H1668 H 0.5634 0.14186 0.86031 0.0
H1669 H 0.54544 0.11151 0.85597 0.0
C1670 C 0.59056 0.02079 0.83696 0.0
C1671 C 0.58232 0.01119 0.82042 0.0
C1672 C 0.58157 0.03309 0.84546 0.0
C1673 C 0.56416 0.0359 0.83767 0.0
C1674 C 0.55546 0.0257 0.82167 0.0
C1675 C 0.56447 0.01339 0.81311 0.0
C1676 C 0.55533 0.04964 0.84643 0.0
C1677 C 0.56492 0.0672 0.84866 0.0
C1678 C 0.53811 0.04539 0.85344 0.0
C1679 C 0.52742 0.02708 0.85172 0.0
C1680 C 0.50928 0.02363 0.84267 0.0
C1681 C 0.49911 1.00639 0.84104 0.0
C1682 C 0.50692 0.99252 0.84853 0.0
C1683 C 0.52489 0.99587 0.85773 0.0
C1684 C 0.5351 0.01309 0.85941 0.0
C1685 C 0.51557 0.08971 0.90506 0.0
C1686 C 0.52893 0.08973 0.92036 0.0
C1687 C 0.52031 0.08763 0.88709 0.0
C1688 C 0.53851 0.08589 0.88428 0.0
C1689 C 0.55238 0.08935 0.89938 0.0
C1690 C 0.54765 0.09135 0.91727 0.0
C1691 C 0.54218 0.07558 0.8677 0.0
C1692 C 0.53162 0.05847 0.86377 0.0
C1693 C 0.55852 0.08031 0.85917 0.0
C1694 C 0.56934 0.09865 0.86159 0.0
C1695 C 0.58871 0.10157 0.86602 0.0
C1696 C 0.59877 0.11885 0.86839 0.0
C1697 C 0.58966 0.13336 0.86635 0.0
C1698 C 0.57045 0.13061 0.86192 0.0
C1699 C 0.56031 0.11336 0.85953 0.0
H1700 H 0.59748 0.14672 0.8682 0.0
H1701 H 0.49903 0.97918 0.84726 0.0
H1702 H 0.27901 0.35288 0.07745 0.0
H1703 H 0.28049 0.33829 0.10667 0.0
H1704 H 0.29819 0.38919 0.13667 0.0
H1705 H 0.29701 0.40375 0.10736 0.0
H1706 H 0.31651 0.36788 0.15404 0.0
H1707 H 0.25147 0.36116 0.1346 0.0
H1708 H 0.2226 0.35239 0.11348 0.0
H1709 H 0.23065 0.29809 0.11182 0.0
H1710 H 0.25971 0.30658 0.13276 0.0
H1711 H 0.30354 0.33475 0.24418 0.0
H1712 H 0.3019 0.3501 0.21537 0.0
H1713 H 0.28365 0.29989 0.18417 0.0
H1714 H 0.28498 0.28461 0.21287 0.0
H1715 H 0.26546 0.32127 0.16764 0.0
H1716 H 0.33052 0.32784 0.18674 0.0
H1717 H 0.35945 0.33643 0.20781 0.0
H1718 H 0.35145 0.39074 0.21007 0.0
H1719 H 0.32234 0.38243 0.18918 0.0
C1720 C 0.2832 0.36108 0.09021 0.0
C1721 C 0.28779 0.37973 0.08957 0.0
C1722 C 0.28393 0.35262 0.10722 0.0
C1723 C 0.28917 0.36233 0.12461 0.0
C1724 C 0.29402 0.38098 0.12391 0.0
C1725 C 0.29328 0.38944 0.1069 0.0
C1726 C 0.2897 0.35322 0.14324 0.0
C1727 C 0.30512 0.35788 0.15695 0.0
C1728 C 0.2753 0.33968 0.14766 0.0
C1729 C 0.25786 0.33454 0.13509 0.0
C1730 C 0.24715 0.34737 0.12963 0.0
C1731 C 0.23074 0.34244 0.11771 0.0
C1732 C 0.22482 0.3247 0.11128 0.0
C1733 C 0.23527 0.31184 0.11679 0.0
C1734 C 0.2517 0.31669 0.12869 0.0
C1735 C 0.29911 0.32687 0.23125 0.0
C1736 C 0.2944 0.30817 0.23138 0.0
C1737 C 0.29831 0.33577 0.21447 0.0
C1738 C 0.29289 0.32647 0.19687 0.0
C1739 C 0.28791 0.30781 0.1971 0.0
C1740 C 0.28872 0.29893 0.21381 0.0
C1741 C 0.29228 0.33589 0.17842 0.0
C1742 C 0.27685 0.33128 0.16474 0.0
C1743 C 0.30668 0.34944 0.17403 0.0
C1744 C 0.32416 0.35448 0.18656 0.0
C1745 C 0.33487 0.34159 0.19183 0.0
C1746 C 0.3513 0.34641 0.20373 0.0
C1747 C 0.35725 0.36411 0.21032 0.0
C1748 C 0.3468 0.37703 0.20498 0.0
C1749 C 0.33034 0.37228 0.1931 0.0
H1750 H 0.36998 0.36782 0.21952 0.0
H1751 H 0.21211 0.32092 0.10205 0.0
H1752 H 0.24888 0.89915 0.0496 0.0
H1753 H 0.22641 0.9178 0.05779 0.0
H1754 H 0.26465 0.96464 0.04814 0.0
H1755 H 0.28693 0.94625 0.0398 0.0
H1756 H 0.25109 0.96607 0.0827 0.0
H1757 H 0.22849 0.95194 0.01813 0.0
H1758 H 0.21648 0.93193 0.99041 0.0
H1759 H 0.1699 0.90909 0.01734 0.0
H1760 H 0.18179 0.92883 0.04534 0.0
H1761 H 0.199 0.03564 0.081 0.0
H1762 H 0.21831 0.01355 0.07454 0.0
H1763 H 0.17288 0.9715 0.08045 0.0
H1764 H 0.15351 0.99353 0.08707 0.0
H1765 H 0.18856 0.96528 0.04967 0.0
H1766 H 0.20954 0.98039 0.11337 0.0
H1767 H 0.22122 1.00005 0.14142 0.0
H1768 H 0.27047 0.02018 0.11711 0.0
H1769 H 0.25896 1.00083 0.08879 0.0
C1770 C 0.25234 0.91341 0.04897 0.0
C1771 C 0.26966 0.92124 0.0441 0.0
C1772 C 0.23953 0.92402 0.05366 0.0
C1773 C 0.24395 0.94259 0.05364 0.0
C1774 C 0.26103 0.95035 0.04833 0.0
C1775 C 0.27371 0.93979 0.04349 0.0
C1776 C 0.23124 0.95414 0.05988 0.0
C1777 C 0.23747 0.96602 0.07541 0.0
C1778 C 0.21327 0.95361 0.05069 0.0
C1779 C 0.20616 0.9417 0.03391 0.0
C1780 C 0.21579 0.94253 0.01822 0.0
C1781 C 0.20898 0.93126 1.00244 0.0
C1782 C 0.19247 0.9192 1.00214 0.0
C1783 C 0.18271 0.91841 0.0176 0.0
C1784 C 0.18947 0.92964 0.03343 0.0
C1785 C 0.19322 0.02171 0.08129 0.0
C1786 C 0.17472 0.01636 0.08455 0.0
C1787 C 0.20425 1.00909 0.07753 0.0
C1788 C 0.19705 0.99087 0.0771 0.0
C1789 C 0.17869 0.98548 0.08064 0.0
C1790 C 0.16765 0.99809 0.0844 0.0
C1791 C 0.20855 0.9775 0.07232 0.0
C1792 C 0.2021 0.96524 0.0571 0.0
C1793 C 0.2263 0.97758 0.08188 0.0
C1794 C 0.2333 0.98926 0.09889 0.0
C1795 C 0.22279 0.98911 0.11394 0.0
C1796 C 0.2294 1.00018 0.1299 0.0
C1797 C 0.24656 0.01139 0.13103 0.0
C1798 C 0.25717 0.01151 0.11621 0.0
C1799 C 0.25062 1.00048 0.10021 0.0
H1800 H 0.25165 0.01994 0.1434 0.0
H1801 H 0.18721 0.9105 0.9899 0.0
H1802 H 0.76938 0.60383 0.01303 0.0
H1803 H 0.73749 0.58816 0.01402 0.0
H1804 H 0.72519 0.63323 0.04499 0.0
H1805 H 0.75684 0.64906 0.04361 0.0
H1806 H 0.71069 0.60134 0.05988 0.0
H1807 H 0.70851 0.62441 0.99954 0.0
H1808 H 0.71828 0.62868 0.96849 0.0
H1809 H 0.70586 0.57238 0.95531 0.0
H1810 H 0.69625 0.56775 0.9864 0.0
H1811 H 0.61245 0.57381 0.05645 0.0
H1812 H 0.64415 0.58901 0.05526 0.0
H1813 H 0.65014 0.55202 0.01065 0.0
H1814 H 0.61788 0.53757 0.01105 0.0
H1815 H 0.6687 0.5795 1.00283 0.0
H1816 H 0.67192 0.55498 0.06177 0.0
H1817 H 0.66334 0.54882 0.09293 0.0
H1818 H 0.67545 0.60457 0.10925 0.0
H1819 H 0.68389 0.61108 0.07811 0.0
C1820 C 0.75992 0.61049 0.02003 0.0
C1821 C 0.76604 0.62792 0.02817 0.0
C1822 C 0.74149 0.60145 0.02057 0.0
C1823 C 0.7284 0.6093 0.02956 0.0
C1824 C 0.73463 0.6266 0.03794 0.0
C1825 C 0.75292 0.63576 0.03708 0.0
C1826 C 0.70841 0.59966 0.03019 0.0
C1827 C 0.70149 0.59677 0.04734 0.0
C1828 C 0.69613 0.59296 0.01405 0.0
C1829 C 0.70185 0.59572 0.99536 0.0
C1830 C 0.70801 0.61293 0.99008 0.0
C1831 C 0.71349 0.61541 0.97246 0.0
C1832 C 0.71274 0.60081 0.95996 0.0
C1833 C 0.70646 0.58368 0.96503 0.0
C1834 C 0.70098 0.58111 0.98264 0.0
C1835 C 0.62049 0.56873 0.04644 0.0
C1836 C 0.61222 0.55412 0.034 0.0
C1837 C 0.63899 0.57746 0.04585 0.0
C1838 C 0.65049 0.57171 0.03318 0.0
C1839 C 0.64215 0.55708 0.02072 0.0
C1840 C 0.62348 0.5486 0.02103 0.0
C1841 C 0.67076 0.58102 0.03262 0.0
C1842 C 0.67779 0.58392 0.01546 0.0
C1843 C 0.68331 0.58737 0.04879 0.0
C1844 C 0.67835 0.58352 0.06755 0.0
C1845 C 0.67265 0.56593 0.07198 0.0
C1846 C 0.66783 0.56238 0.08964 0.0
C1847 C 0.6688 0.5763 0.10304 0.0
C1848 C 0.67467 0.5938 0.09884 0.0
C1849 C 0.6795 0.59743 0.08119 0.0
H1850 H 0.66504 0.57352 0.1167 0.0
H1851 H 0.71699 0.60276 0.94632 0.0
H1852 H 0.75874 0.52627 0.36822 0.0
H1853 H 0.77799 0.50337 0.36489 0.0
H1854 H 0.72979 0.46613 0.34105 0.0
H1855 H 0.71052 0.48887 0.34434 0.0
H1856 H 0.75471 0.45031 0.36346 0.0
H1857 H 0.7547 0.49079 0.31347 0.0
H1858 H 0.76028 0.52049 0.30135 0.0
H1859 H 0.8174 0.52772 0.32407 0.0
H1860 H 0.81207 0.49813 0.33655 0.0
H1861 H 0.77101 0.39237 0.29374 0.0
H1862 H 0.76207 0.41684 0.31134 0.0
H1863 H 0.81963 0.43958 0.32648 0.0
H1864 H 0.82876 0.41481 0.30901 0.0
H1865 H 0.79735 0.46438 0.31574 0.0
H1866 H 0.79782 0.41874 0.35673 0.0
H1867 H 0.79124 0.38815 0.36623 0.0
H1868 H 0.73303 0.38991 0.36078 0.0
H1869 H 0.73912 0.42019 0.35024 0.0
C1870 C 0.7522 0.51307 0.3627 0.0
C1871 C 0.7332 0.50937 0.35629 0.0
C1872 C 0.76321 0.50004 0.36081 0.0
C1873 C 0.75531 0.48317 0.35254 0.0
C1874 C 0.73612 0.47908 0.34748 0.0
C1875 C 0.72515 0.4921 0.34926 0.0
C1876 C 0.76705 0.47048 0.34684 0.0
C1877 C 0.76412 0.45333 0.35311 0.0
C1878 C 0.77972 0.47469 0.33373 0.0
C1879 C 0.78294 0.49239 0.32614 0.0
C1880 C 0.76841 0.49878 0.31599 0.0
C1881 C 0.77153 0.51558 0.30904 0.0
C1882 C 0.78917 0.52602 0.31199 0.0
C1883 C 0.80374 0.51965 0.32184 0.0
C1884 C 0.80068 0.50287 0.32886 0.0
C1885 C 0.78179 0.40254 0.30085 0.0
C1886 C 0.80058 0.40158 0.30021 0.0
C1887 C 0.77666 0.4165 0.31089 0.0
C1888 C 0.79021 0.42975 0.32051 0.0
C1889 C 0.809 0.42934 0.31925 0.0
C1890 C 0.81418 0.41528 0.3092 0.0
C1891 C 0.78441 0.44396 0.33177 0.0
C1892 C 0.78846 0.46141 0.32655 0.0
C1893 C 0.77273 0.43995 0.34579 0.0
C1894 C 0.76895 0.4218 0.35256 0.0
C1895 C 0.78358 0.41258 0.35735 0.0
C1896 C 0.77993 0.39525 0.36288 0.0
C1897 C 0.76174 0.38711 0.36418 0.0
C1898 C 0.74713 0.39624 0.3598 0.0
C1899 C 0.75067 0.41348 0.35395 0.0
H1900 H 0.75896 0.37374 0.36861 0.0
H1901 H 0.79157 0.53902 0.3066 0.0
H1902 H 0.86084 0.43438 0.57276 0.0
H1903 H 0.89135 0.45318 0.57833 0.0
H1904 H 0.91075 0.42204 0.53589 0.0
H1905 H 0.88034 0.40275 0.53072 0.0
H1906 H 0.93819 0.43307 0.5631 0.0
H1907 H 0.8935 0.45982 0.52607 0.0
H1908 H 0.864 0.47067 0.51914 0.0
H1909 H 0.87751 0.50732 0.56709 0.0
H1910 H 0.90701 0.49651 0.57443 0.0
H1911 H 0.98598 0.51307 0.51901 0.0
H1912 H 0.95816 0.49503 0.52723 0.0
H1913 H 0.9869 0.48711 0.58005 0.0
H1914 H 1.01536 0.50511 0.57163 0.0
H1915 H 0.93609 0.49634 0.55292 0.0
H1916 H 0.96919 0.44265 0.58942 0.0
H1917 H 0.99905 0.43187 0.59245 0.0
H1918 H 1.00919 0.44873 0.53857 0.0
H1919 H 0.97912 0.45899 0.53495 0.0
C1920 C 0.8717 0.43138 0.56481 0.0
C1921 C 0.86817 0.41728 0.55111 0.0
C1922 C 0.88912 0.44213 0.56802 0.0
C1923 C 0.90323 0.43925 0.55728 0.0
C1924 C 0.90007 0.42454 0.54432 0.0
C1925 C 0.88267 0.41358 0.5413 0.0
C1926 C 0.92052 0.45253 0.5582 0.0
C1927 C 0.93775 0.44694 0.56106 0.0
C1928 C 0.91999 0.47062 0.55537 0.0
C1929 C 0.90233 0.47722 0.55092 0.0
C1930 C 0.89011 0.47011 0.5352 0.0
C1931 C 0.87341 0.47626 0.53119 0.0
C1932 C 0.86886 0.48964 0.5427 0.0
C1933 C 0.88104 0.49693 0.55821 0.0
C1934 C 0.89775 0.49081 0.5623 0.0
C1935 C 0.98645 0.50766 0.53248 0.0
C1936 C 1.00298 0.51031 0.54458 0.0
C1937 C 0.97043 0.49743 0.53721 0.0
C1938 C 0.97046 0.48955 0.55416 0.0
C1939 C 0.98664 0.49292 0.5668 0.0
C1940 C 1.00284 0.50326 0.56202 0.0
C1941 C 0.95378 0.47689 0.55756 0.0
C1942 C 0.93659 0.48258 0.55548 0.0
C1943 C 0.95439 0.45883 0.5605 0.0
C1944 C 0.97204 0.45184 0.56207 0.0
C1945 C 0.97773 0.44391 0.57817 0.0
C1946 C 0.99467 0.43786 0.57997 0.0
C1947 C 1.00604 0.43967 0.56573 0.0
C1948 C 1.00038 0.44734 0.54958 0.0
C1949 C 0.98336 0.45322 0.54763 0.0
H1950 H 0.01919 0.43506 0.56719 0.0
H1951 H 0.85592 0.49438 0.53957 0.0
H1952 H 0.40825 0.10991 0.25591 0.0
H1953 H 0.39068 0.12816 0.2373 0.0
H1954 H 0.43155 0.17455 0.25581 0.0
H1955 H 0.4493 0.15615 0.27496 0.0
H1956 H 0.39643 0.18111 0.25595 0.0
H1957 H 0.42993 0.15716 0.212 0.0
H1958 H 0.44348 0.13422 0.19594 0.0
H1959 H 0.38903 0.10535 0.17737 0.0
H1960 H 0.37513 0.12796 0.19355 0.0
H1961 H 0.33795 0.21998 0.19246 0.0
H1962 H 0.36643 0.20771 0.19586 0.0
H1963 H 0.3366 0.15909 0.2128 0.0
H1964 H 0.30877 0.17166 0.21193 0.0
H1965 H 0.37375 0.16061 0.19051 0.0
H1966 H 0.34478 0.1788 0.24658 0.0
H1967 H 0.32987 0.2012 0.26189 0.0
H1968 H 0.37696 0.24126 0.25713 0.0
H1969 H 0.39179 0.21925 0.24086 0.0
C1970 C 0.41354 0.124 0.2561 0.0
C1971 C 0.4302 0.1316 0.2668 0.0
C1972 C 0.40355 0.1344 0.24531 0.0
C1973 C 0.41008 0.15261 0.24475 0.0
C1974 C 0.42643 0.16045 0.25587 0.0
C1975 C 0.43648 0.14998 0.26683 0.0
C1976 C 0.39914 0.16323 0.23295 0.0
C1977 C 0.39199 0.17702 0.24148 0.0
C1978 C 0.39325 0.15786 0.21405 0.0
C1979 C 0.40149 0.14429 0.20403 0.0
C1980 C 0.42084 0.14589 0.20456 0.0
C1981 C 0.42858 0.13293 0.19543 0.0
C1982 C 0.41712 0.11834 0.18564 0.0
C1983 C 0.39789 0.11668 0.18494 0.0
C1984 C 0.39007 0.12959 0.19405 0.0
C1985 C 0.33725 0.20666 0.19694 0.0
C1986 C 0.32109 0.19752 0.20337 0.0
C1987 C 0.35357 0.19954 0.1984 0.0
C1988 C 0.35358 0.18274 0.20508 0.0
C1989 C 0.3368 0.17221 0.20779 0.0
C1990 C 0.32071 0.17958 0.20722 0.0
C1991 C 0.37084 0.1779 0.21375 0.0
C1992 C 0.37897 0.16519 0.20471 0.0
C1993 C 0.37777 0.1843 0.23211 0.0
C1994 C 0.36923 0.19747 0.24228 0.0
C1995 C 0.35185 0.19244 0.24857 0.0
C1996 C 0.3434 0.20508 0.25735 0.0
C1997 C 0.35242 0.22269 0.26031 0.0
C1998 C 0.36994 0.22767 0.25457 0.0
C1999 C 0.37833 0.21515 0.24549 0.0
H2000 H 0.34589 0.23247 0.26714 0.0
H2001 H 0.42314 0.10832 0.17859 0.0
H2002 H 0.35757 0.10462 0.52422 0.0
H2003 H 0.38487 0.09017 0.52478 0.0
H2004 H 0.42018 0.14049 0.5405 0.0
H2005 H 0.39276 0.15506 0.53933 0.0
H2006 H 0.43908 0.12454 0.5201 0.0
H2007 H 0.40874 0.10204 0.57107 0.0
H2008 H 0.38305 0.08753 0.58716 0.0
H2009 H 0.37865 0.03995 0.55203 0.0
H2010 H 0.40418 0.05424 0.53558 0.0
H2011 H 0.52057 0.08545 0.54641 0.0
H2012 H 0.49357 0.10047 0.54583 0.0
H2013 H 0.45791 0.05166 0.52498 0.0
H2014 H 0.48489 0.03661 0.52556 0.0
H2015 H 0.43964 0.0671 0.54838 0.0
H2016 H 0.47052 0.08977 0.49783 0.0
H2017 H 0.49696 0.10409 0.48266 0.0
H2018 H 0.50102 0.15148 0.51794 0.0
H2019 H 0.47478 0.13734 0.5336 0.0
C2020 C 0.37109 0.11274 0.52787 0.0
C2021 C 0.37243 0.13126 0.53183 0.0
C2022 C 0.38702 0.1043 0.52837 0.0
C2023 C 0.40534 0.11378 0.53313 0.0
C2024 C 0.40667 0.13237 0.53683 0.0
C2025 C 0.39071 0.14084 0.53623 0.0
C2026 C 0.42279 0.10449 0.53412 0.0
C2027 C 0.43907 0.11211 0.52659 0.0
C2028 C 0.42358 0.0879 0.54215 0.0
C2029 C 0.40823 0.07927 0.55197 0.0
C2030 C 0.40221 0.08852 0.5667 0.0
C2031 C 0.38769 0.08033 0.57589 0.0
C2032 C 0.37919 0.06285 0.57058 0.0
C2033 C 0.38523 0.0535 0.5561 0.0
C2034 C 0.39973 0.06163 0.54685 0.0
C2035 C 0.50703 0.07776 0.54169 0.0
C2036 C 0.50544 0.05951 0.53605 0.0
C2037 C 0.49133 0.08654 0.54122 0.0
C2038 C 0.47304 0.07761 0.53512 0.0
C2039 C 0.47144 0.0593 0.52978 0.0
C2040 C 0.48716 0.05056 0.53008 0.0
C2041 C 0.45582 0.08712 0.53436 0.0
C2042 C 0.43961 0.07954 0.54192 0.0
C2043 C 0.45516 0.10377 0.52646 0.0
C2044 C 0.47079 0.11243 0.517 0.0
C2045 C 0.47712 0.10321 0.50245 0.0
C2046 C 0.49208 0.11129 0.49377 0.0
C2047 C 0.5007 0.12866 0.4994 0.0
C2048 C 0.49435 0.13801 0.51367 0.0
C2049 C 0.47943 0.12997 0.52245 0.0
H2050 H 0.51228 0.1349 0.49267 0.0
H2051 H 0.36796 0.05653 0.57772 0.0
H2052 H 0.71971 0.61331 0.37017 0.0
H2053 H 0.73356 0.6438 0.36527 0.0
H2054 H 0.76909 0.62412 0.32865 0.0
H2055 H 0.75552 0.59365 0.33368 0.0
H2056 H 0.78684 0.65377 0.34831 0.0
H2057 H 0.72901 0.63374 0.31125 0.0
H2058 H 0.69577 0.6211 0.30507 0.0
H2059 H 0.68251 0.66474 0.33737 0.0
H2060 H 0.71575 0.67744 0.34408 0.0
H2061 H 0.7692 0.72649 0.28107 0.0
H2062 H 0.7593 0.69825 0.29412 0.0
H2063 H 0.79334 0.71728 0.34538 0.0
H2064 H 0.804 0.74532 0.33202 0.0
H2065 H 0.74107 0.68844 0.32044 0.0
H2066 H 0.80878 0.68322 0.3663 0.0
H2067 H 0.84248 0.69343 0.36735 0.0
H2068 H 0.83676 0.69665 0.30842 0.0
H2069 H 0.80308 0.68625 0.307 0.0
C2070 C 0.73076 0.6155 0.3614 0.0
C2071 C 0.73638 0.60116 0.35209 0.0
C2072 C 0.73863 0.63289 0.3586 0.0
C2073 C 0.7521 0.63616 0.34636 0.0
C2074 C 0.75868 0.62186 0.33813 0.0
C2075 C 0.75086 0.60447 0.34096 0.0
C2076 C 0.75793 0.65427 0.34057 0.0
C2077 C 0.77686 0.66146 0.34238 0.0
C2078 C 0.74489 0.66401 0.33234 0.0
C2079 C 0.72489 0.65641 0.32838 0.0
C2080 C 0.71902 0.64055 0.31719 0.0
C2081 C 0.70018 0.63339 0.31357 0.0
C2082 C 0.68703 0.64209 0.32085 0.0
C2083 C 0.69271 0.65799 0.33177 0.0
C2084 C 0.71156 0.66516 0.33551 0.0
C2085 C 0.77459 0.72466 0.29512 0.0
C2086 C 0.78752 0.738 0.30547 0.0
C2087 C 0.76887 0.70853 0.3026 0.0
C2088 C 0.77575 0.70553 0.32066 0.0
C2089 C 0.78817 0.71912 0.33127 0.0
C2090 C 0.79421 0.73515 0.32365 0.0
C2091 C 0.77006 0.68805 0.32812 0.0
C2092 C 0.7511 0.68094 0.32665 0.0
C2093 C 0.78314 0.67809 0.33592 0.0
C2094 C 0.8034 0.68417 0.33659 0.0
C2095 C 0.81473 0.68606 0.35357 0.0
C2096 C 0.83382 0.69189 0.35423 0.0
C2097 C 0.84174 0.69576 0.33797 0.0
C2098 C 0.8306 0.69373 0.32101 0.0
C2099 C 0.81151 0.68788 0.32027 0.0
H2100 H 0.85652 0.70028 0.33852 0.0
H2101 H 0.67245 0.63655 0.31798 0.0
H2102 H 0.9288 0.55511 0.82508 0.0
H2103 H 0.90604 0.52788 0.82377 0.0
H2104 H 0.90269 0.52415 0.76423 0.0
H2105 H 0.92563 0.55154 0.7654 0.0
H2106 H 0.86741 0.51448 0.77933 0.0
H2107 H 0.92925 0.50115 0.78447 0.0
H2108 H 0.96186 0.50475 0.79801 0.0
H2109 H 0.94442 0.49025 0.85042 0.0
H2110 H 0.91168 0.48684 0.83725 0.0
H2111 H 0.8314 0.42067 0.7692 0.0
H2112 H 0.84795 0.45087 0.76708 0.0
H2113 H 0.86252 0.45584 0.82623 0.0
H2114 H 0.84682 0.42557 0.82839 0.0
H2115 H 0.89204 0.46506 0.80919 0.0
H2116 H 0.83046 0.47841 0.80481 0.0
H2117 H 0.79767 0.47555 0.79211 0.0
H2118 H 0.81399 0.49019 0.73934 0.0
H2119 H 0.8469 0.4929 0.75166 0.0
C2120 C 0.92304 0.54867 0.81168 0.0
C2121 C 0.92915 0.55531 0.79535 0.0
C2122 C 0.91003 0.53312 0.81096 0.0
C2123 C 0.90288 0.52395 0.79392 0.0
C2124 C 0.90811 0.53107 0.7775 0.0
C2125 C 0.92124 0.54663 0.77821 0.0
C2126 C 0.8913 0.50617 0.79353 0.0
C2127 C 0.87279 0.50355 0.78561 0.0
C2128 C 0.89834 0.4921 0.80202 0.0
C2129 C 0.91802 0.4939 0.80991 0.0
C2130 C 0.93237 0.49886 0.79892 0.0
C2131 C 0.95087 0.50085 0.80652 0.0
C2132 C 0.95521 0.49777 0.82508 0.0
C2133 C 0.94104 0.49265 0.83605 0.0
C2134 C 0.92251 0.49067 0.82852 0.0
C2135 C 0.83807 0.42823 0.78176 0.0
C2136 C 0.83779 0.42065 0.79896 0.0
C2137 C 0.84736 0.44555 0.78055 0.0
C2138 C 0.85642 0.45564 0.79652 0.0
C2139 C 0.85562 0.4483 0.81373 0.0
C2140 C 0.84644 0.43102 0.81495 0.0
C2141 C 0.8679 0.4733 0.79529 0.0
C2142 C 0.88654 0.4759 0.80285 0.0
C2143 C 0.86091 0.48731 0.78655 0.0
C2144 C 0.84114 0.48566 0.7791 0.0
C2145 C 0.82705 0.48086 0.79045 0.0
C2146 C 0.80845 0.4793 0.78333 0.0
C2147 C 0.80375 0.48263 0.76492 0.0
C2148 C 0.81765 0.48758 0.75359 0.0
C2149 C 0.83628 0.48914 0.76064 0.0
H2150 H 0.78933 0.48142 0.75943 0.0
H2151 H 0.96954 0.49932 0.83094 0.0
H2152 H 0.0905 0.89346 0.14241 0.0
H2153 H 0.08227 0.92097 0.13127 0.0
H2154 H 0.06512 0.89507 0.07678 0.0
H2155 H 0.07381 0.86755 0.08776 0.0
H2156 H 0.083 0.92808 0.07464 0.0
H2157 H 0.033 0.90093 0.10559 0.0
H2158 H 1.01808 0.88636 0.13092 0.0
H2159 H 0.03789 0.93306 0.16724 0.0
H2160 H 0.05318 0.94783 0.14221 0.0
H2161 H 0.04196 1.00212 0.04976 0.0
H2162 H 0.03953 0.97114 0.05789 0.0
H2163 H 0.07188 0.98849 0.11038 0.0
H2164 H 0.07478 0.01933 0.10213 0.0
H2165 H 0.04098 0.95742 0.10999 0.0
H2166 H 0.09543 0.98147 0.07967 0.0
H2167 H 0.10887 0.99658 0.05384 0.0
H2168 H 0.0787 0.95489 0.01538 0.0
H2169 H 0.06469 0.93977 0.04097 0.0
C2170 C 0.08519 0.89369 0.128 0.0
C2171 C 0.08266 0.87838 0.11597 0.0
C2172 C 0.08037 0.90936 0.12169 0.0
C2173 C 0.07264 0.90989 0.10333 0.0
C2174 C 0.07091 0.89486 0.09104 0.0
C2175 C 0.0759 0.87919 0.09732 0.0
C2176 C 0.06612 0.92611 0.09718 0.0
C2177 C 0.07352 0.93428 0.08214 0.0
C2178 C 0.05373 0.9342 0.10697 0.0
C2179 C 0.04434 0.92545 0.12203 0.0
C2180 C 0.03427 0.90807 0.11901 0.0
C2181 C 0.02574 0.89977 0.13331 0.0
C2182 C 0.02707 0.90877 0.15069 0.0
C2183 C 0.03688 0.9261 0.15377 0.0
C2184 C 0.04546 0.93445 0.13952 0.0
C2185 C 0.048 0.9993 0.06326 0.0
C2186 C 0.05867 0.01293 0.07531 0.0
C2187 C 0.04661 0.98168 0.06786 0.0
C2188 C 0.05561 0.97768 0.08466 0.0
C2189 C 0.0648 0.99142 0.09739 0.0
C2190 C 0.06653 1.00896 0.09264 0.0
C2191 C 0.05817 0.95939 0.08783 0.0
C2192 C 0.05011 0.95091 0.1023 0.0
C2193 C 0.0698 0.95093 0.07744 0.0
C2194 C 0.07885 0.9596 0.06218 0.0
C2195 C 0.09158 0.97558 0.06569 0.0
C2196 C 0.0993 0.98415 0.0511 0.0
C2197 C 0.09462 0.97672 0.03298 0.0
C2198 C 0.08228 0.96065 0.02942 0.0
C2199 C 0.07443 0.95208 0.04396 0.0
H2200 H 0.10058 0.9834 0.0217 0.0
H2201 H 0.02048 0.90232 0.16175 0.0
H2202 H 0.96644 0.21526 0.86051 0.0
H2203 H 0.9408 0.22288 0.84 0.0
H2204 H 0.94417 0.27189 0.87313 0.0
H2205 H 0.96931 0.26415 0.89386 0.0
H2206 H 0.90942 0.2579 0.8631 0.0
H2207 H 0.96506 0.2697 0.83261 0.0
H2208 H 0.99237 0.26183 0.81944 0.0
H2209 H 0.95703 0.22297 0.78131 0.0
H2210 H 0.92952 0.23046 0.79444 0.0
H2211 H 0.86641 0.31157 0.80837 0.0
H2212 H 0.89417 0.30094 0.82127 0.0
H2213 H 0.87674 0.25146 0.78832 0.0
H2214 H 0.84911 0.2622 0.77494 0.0
H2215 H 0.91699 0.26261 0.79647 0.0
H2216 H 0.86108 0.25282 0.82686 0.0
H2217 H 0.83461 0.26395 0.83833 0.0
H2218 H 0.87172 0.30122 0.87666 0.0
H2219 H 0.89851 0.2906 0.86503 0.0
C2220 C 0.96149 0.22752 0.86353 0.0
C2221 C 0.9699 0.23917 0.87869 0.0
C2222 C 0.94696 0.23191 0.85176 0.0
C2223 C 0.94083 0.2481 0.85487 0.0
C2224 C 0.94872 0.25935 0.87045 0.0
C2225 C 0.9631 0.25492 0.88228 0.0
C2226 C 0.92668 0.25381 0.84166 0.0
C2227 C 0.91116 0.25897 0.84857 0.0
C2228 C 0.92875 0.25493 0.8226 0.0
C2229 C 0.94526 0.25049 0.81464 0.0
C2230 C 0.96313 0.25939 0.82151 0.0
C2231 C 0.97864 0.25501 0.81404 0.0
C2232 C 0.97644 0.24187 0.79959 0.0
C2233 C 0.95872 0.23312 0.79253 0.0
C2234 C 0.94316 0.23743 0.79997 0.0
C2235 C 0.86881 0.29867 0.80341 0.0
C2236 C 0.85548 0.28753 0.791 0.0
C2237 C 0.88469 0.29266 0.8107 0.0
C2238 C 0.8872 0.2753 0.80601 0.0
C2239 C 0.87496 0.26488 0.79211 0.0
C2240 C 0.85916 0.27101 0.78456 0.0
C2241 C 0.9002 0.26706 0.8181 0.0
C2242 C 0.91528 0.26132 0.81098 0.0
C2243 C 0.89787 0.26551 0.83702 0.0
C2244 C 0.88179 0.27099 0.84499 0.0
C2245 C 0.8636 0.26343 0.83769 0.0
C2246 C 0.84853 0.26973 0.84414 0.0
C2247 C 0.85146 0.28338 0.85814 0.0
C2248 C 0.86948 0.2907 0.86577 0.0
C2249 C 0.88462 0.28454 0.85925 0.0
H2250 H 0.8398 0.2882 0.86319 0.0
H2251 H 0.98846 0.2385 0.79382 0.0
H2252 H 0.5685 0.2656 0.62503 0.0
H2253 H 0.56719 0.23983 0.60357 0.0
H2254 H 0.57163 0.27385 0.5582 0.0
H2255 H 0.57306 0.29984 0.57972 0.0
H2256 H 0.54436 0.22528 0.57266 0.0
H2257 H 0.60059 0.25613 0.53015 0.0
H2258 H 0.62655 0.28138 0.53211 0.0
H2259 H 0.63445 0.2797 0.59118 0.0
H2260 H 0.60871 0.25433 0.58953 0.0
H2261 H 0.56205 0.15054 0.52051 0.0
H2262 H 0.55721 0.18139 0.52376 0.0
H2263 H 0.60469 0.19347 0.5651 0.0
H2264 H 0.60946 0.16289 0.56216 0.0
H2265 H 0.60185 0.2213 0.54396 0.0
H2266 H 0.56185 0.17853 0.57655 0.0
H2267 H 0.53756 0.15231 0.57753 0.0
H2268 H 0.49914 0.17669 0.54339 0.0
H2269 H 0.52338 0.20288 0.54183 0.0
C2270 C 0.56901 0.26759 0.61046 0.0
C2271 C 0.57106 0.2847 0.60404 0.0
C2272 C 0.56812 0.25286 0.5982 0.0
C2273 C 0.56937 0.25497 0.57934 0.0
C2274 C 0.57072 0.27199 0.57274 0.0
C2275 C 0.57156 0.28678 0.58503 0.0
C2276 C 0.57083 0.2394 0.56716 0.0
C2277 C 0.55674 0.22449 0.56603 0.0
C2278 C 0.587 0.23842 0.55854 0.0
C2279 C 0.60259 0.25354 0.55972 0.0
C2280 C 0.6079 0.26116 0.54354 0.0
C2281 C 0.62257 0.27547 0.5446 0.0
C2282 C 0.63209 0.28219 0.56176 0.0
C2283 C 0.62702 0.27454 0.5779 0.0
C2284 C 0.61238 0.26021 0.57692 0.0
C2285 C 0.57161 0.15987 0.53008 0.0
C2286 C 0.586 0.15423 0.54126 0.0
C2287 C 0.5689 0.17748 0.53181 0.0
C2288 C 0.58049 0.18962 0.54479 0.0
C2289 C 0.59566 0.18433 0.55491 0.0
C2290 C 0.59837 0.1668 0.55321 0.0
C2291 C 0.57565 0.20701 0.55 0.0
C2292 C 0.58908 0.22228 0.54983 0.0
C2293 C 0.55904 0.20822 0.55778 0.0
C2294 C 0.54448 0.19252 0.55884 0.0
C2295 C 0.54827 0.17822 0.56911 0.0
C2296 C 0.53452 0.16336 0.56977 0.0
C2297 C 0.51684 0.16279 0.56045 0.0
C2298 C 0.51287 0.17711 0.55052 0.0
C2299 C 0.52661 0.19194 0.54971 0.0
H2300 H 0.50621 0.15128 0.56096 0.0
H2301 H 0.64343 0.29327 0.56255 0.0
H2302 H 0.5478 0.73482 0.34826 0.0
H2303 H 0.57401 0.7356 0.33023 0.0
H2304 H 0.59922 0.70341 0.36895 0.0
H2305 H 0.57292 0.70251 0.38708 0.0
H2306 H 0.62132 0.73541 0.3643 0.0
H2307 H 0.5858 0.68661 0.32587 0.0
H2308 H 0.5582 0.67015 0.30657 0.0
H2309 H 0.56123 0.71142 0.26865 0.0
H2310 H 0.5887 0.72827 0.28786 0.0
H2311 H 0.70063 0.74238 0.31658 0.0
H2312 H 0.67347 0.73003 0.33117 0.0
H2313 H 0.63867 0.75356 0.29165 0.0
H2314 H 0.66561 0.76505 0.27628 0.0
H2315 H 0.62203 0.7218 0.29715 0.0
H2316 H 0.65339 0.77244 0.33637 0.0
H2317 H 0.67849 0.79167 0.35669 0.0
H2318 H 0.68137 0.74982 0.39339 0.0
H2319 H 0.65648 0.73023 0.37315 0.0
C2320 C 0.55873 0.72758 0.35271 0.0
C2321 C 0.55845 0.71873 0.36913 0.0
C2322 C 0.57363 0.72795 0.34234 0.0
C2323 C 0.58849 0.71951 0.34825 0.0
C2324 C 0.58782 0.70993 0.36416 0.0
C2325 C 0.57281 0.70942 0.37446 0.0
C2326 C 0.60565 0.72275 0.3392 0.0
C2327 C 0.62166 0.73203 0.34971 0.0
C2328 C 0.60574 0.71891 0.32005 0.0
C2329 C 0.58926 0.70876 0.30839 0.0
C2330 C 0.58051 0.69225 0.31349 0.0
C2331 C 0.56489 0.68283 0.30255 0.0
C2332 C 0.55794 0.68975 0.28641 0.0
C2333 C 0.56662 0.70608 0.28116 0.0
C2334 C 0.58224 0.71555 0.29206 0.0
C2335 C 0.68717 0.74469 0.31077 0.0
C2336 C 0.68532 0.75477 0.29527 0.0
C2337 C 0.67168 0.73778 0.31928 0.0
C2338 C 0.65408 0.74109 0.31267 0.0
C2339 C 0.65213 0.75088 0.29702 0.0
C2340 C 0.66759 0.75762 0.28838 0.0
C2341 C 0.63771 0.73468 0.32224 0.0
C2342 C 0.62184 0.72487 0.31182 0.0
C2343 C 0.6376 0.73833 0.34147 0.0
C2344 C 0.65321 0.7498 0.35313 0.0
C2345 C 0.65955 0.76725 0.34863 0.0
C2346 C 0.67369 0.77824 0.36018 0.0
C2347 C 0.68147 0.77198 0.37634 0.0
C2348 C 0.6753 0.75465 0.38088 0.0
C2349 C 0.6612 0.7436 0.36938 0.0
H2350 H 0.69223 0.78057 0.38539 0.0
H2351 H 0.54585 0.68244 0.27796 0.0
H2352 H 0.06057 0.23724 0.46721 0.0
H2353 H 0.05827 0.2085 0.48106 0.0
H2354 H 0.05526 0.18208 0.42702 0.0
H2355 H 0.05676 0.2108 0.41318 0.0
H2356 H 0.03584 0.15949 0.44282 0.0
H2357 H 0.09617 0.18963 0.46762 0.0
H2358 H 0.11959 0.21362 0.48409 0.0
H2359 H 0.09252 0.20751 0.53336 0.0
H2360 H 0.06882 0.18361 0.51711 0.0
H2361 H 0.05115 0.07476 0.47778 0.0
H2362 H 0.05288 0.10345 0.46382 0.0
H2363 H 0.051 0.12938 0.51715 0.0
H2364 H 0.04958 0.10073 0.53115 0.0
H2365 H 0.07293 0.15199 0.50165 0.0
H2366 H 1.01283 0.1207 0.47584 0.0
H2367 H 0.99061 0.09614 0.45871 0.0
H2368 H 0.01895 0.10387 0.4104 0.0
H2369 H 0.04147 0.12833 0.4273 0.0
C2370 C 0.05948 0.22539 0.45814 0.0
C2371 C 0.05899 0.22703 0.43877 0.0
C2372 C 0.05833 0.20855 0.46623 0.0
C2373 C 0.05698 0.19215 0.45558 0.0
C2374 C 0.05631 0.19386 0.43617 0.0
C2375 C 0.05727 0.21067 0.42807 0.0
C2376 C 0.05602 0.17354 0.46432 0.0
C2377 C 0.04428 0.15808 0.45558 0.0
C2378 C 0.06647 0.17061 0.4813 0.0
C2379 C 0.08062 0.18498 0.49109 0.0
C2380 C 0.09515 0.19349 0.48193 0.0
C2381 C 0.10849 0.20705 0.49123 0.0
C2382 C 0.10751 0.21212 0.50975 0.0
C2383 C 0.09323 0.20359 0.51901 0.0
C2384 C 0.07985 0.19003 0.50977 0.0
C2385 C 0.05094 0.08645 0.48668 0.0
C2386 C 0.05 0.08468 0.50591 0.0
C2387 C 0.05183 0.10324 0.4785 0.0
C2388 C 0.05179 0.11947 0.48895 0.0
C2389 C 0.05104 0.11767 0.5082 0.0
C2390 C 0.05011 0.1009 0.51637 0.0
C2391 C 0.05276 0.13801 0.48017 0.0
C2392 C 0.0645 0.15344 0.4889 0.0
C2393 C 0.04248 0.14086 0.46308 0.0
C2394 C 0.02894 0.12622 0.45289 0.0
C2395 C 1.01438 0.11708 0.46159 0.0
C2396 C 1.00173 0.10319 0.45192 0.0
C2397 C 1.0034 0.09841 0.43349 0.0
C2398 C 1.01769 0.10756 0.42468 0.0
C2399 C 0.03039 0.12144 0.4343 0.0
H2400 H 0.9936 0.08765 0.42602 0.0
H2401 H 0.11785 0.22262 0.51692 0.0
H2402 H 0.58721 0.28541 0.20539 0.0
H2403 H 0.61825 0.28597 0.22168 0.0
H2404 H 0.64187 0.29301 0.17038 0.0
H2405 H 0.61082 0.2923 0.15408 0.0
H2406 H 0.66013 0.27167 0.18806 0.0
H2407 H 0.64539 0.32771 0.20731 0.0
H2408 H 0.62692 0.34819 0.22059 0.0
H2409 H 0.63128 0.3237 0.27225 0.0
H2410 H 0.64959 0.30292 0.25919 0.0
H2411 H 0.74842 0.31834 0.25687 0.0
H2412 H 0.71749 0.3186 0.24059 0.0
H2413 H 0.70636 0.26146 0.23724 0.0
H2414 H 0.73716 0.26116 0.25331 0.0
H2415 H 0.6826 0.30923 0.24596 0.0
H2416 H 0.67548 0.24424 0.19971 0.0
H2417 H 0.69534 0.22638 0.18453 0.0
H2418 H 0.73691 0.27279 0.18391 0.0
H2419 H 0.7172 0.29097 0.19885 0.0
C2420 C 0.59897 0.28716 0.1975 0.0
C2421 C 0.5961 0.2889 0.17822 0.0
C2422 C 0.61697 0.28757 0.20695 0.0
C2423 C 0.63306 0.28976 0.19761 0.0
C2424 C 0.63012 0.2913 0.17829 0.0
C2425 C 0.61214 0.29098 0.16886 0.0
C2426 C 0.65269 0.29035 0.20778 0.0
C2427 C 0.66484 0.27986 0.20078 0.0
C2428 C 0.65968 0.30119 0.22433 0.0
C2429 C 0.6487 0.31365 0.23222 0.0
C2430 C 0.6423 0.32661 0.22146 0.0
C2431 C 0.63188 0.33829 0.22895 0.0
C2432 C 0.62789 0.33722 0.24723 0.0
C2433 C 0.63436 0.3245 0.25808 0.0
C2434 C 0.64477 0.31278 0.25065 0.0
C2435 C 0.73946 0.30578 0.2527 0.0
C2436 C 0.74578 0.28973 0.25661 0.0
C2437 C 0.72152 0.30592 0.24332 0.0
C2438 C 0.70909 0.29005 0.23715 0.0
C2439 C 0.71535 0.27404 0.24127 0.0
C2440 C 0.7332 0.27388 0.25071 0.0
C2441 C 0.68982 0.29018 0.22653 0.0
C2442 C 0.67779 0.30088 0.23337 0.0
C2443 C 0.68303 0.2797 0.20969 0.0
C2444 C 0.69492 0.26892 0.20056 0.0
C2445 C 0.68883 0.25065 0.19627 0.0
C2446 C 0.70006 0.24047 0.18771 0.0
C2447 C 0.71738 0.24844 0.18328 0.0
C2448 C 0.7235 0.26662 0.18739 0.0
C2449 C 0.71231 0.27687 0.19591 0.0
H2450 H 0.72604 0.24055 0.17663 0.0
H2451 H 0.61982 0.34627 0.25301 0.0
H2452 H 0.57043 0.82728 0.96799 0.0
H2453 H 0.56999 0.85728 0.98145 0.0
H2454 H 0.55541 0.874 0.92715 0.0
H2455 H 0.55637 0.84419 0.91373 0.0
H2456 H 0.57559 0.90131 0.94302 0.0
H2457 H 0.52441 0.86582 0.96645 0.0
H2458 H 0.50839 0.84139 0.98276 0.0
H2459 H 0.54385 0.86006 0.03285 0.0
H2460 H 0.56023 0.8845 0.01677 0.0
H2461 H 0.55028 0.98455 0.9745 0.0
H2462 H 0.55123 0.95456 0.96158 0.0
H2463 H 0.56812 0.93937 0.01595 0.0
H2464 H 0.56687 0.96933 0.02893 0.0
H2465 H 0.54701 0.91137 1.00031 0.0
H2466 H 0.59787 0.9472 0.97658 0.0
H2467 H 0.61342 0.97173 0.96007 0.0
H2468 H 0.57792 0.9524 0.91018 0.0
H2469 H 0.562 0.92787 0.92646 0.0
C2470 C 0.56709 0.83726 0.9588 0.0
C2471 C 0.5634 0.83266 0.93949 0.0
C2472 C 0.56665 0.85474 0.96664 0.0
C2473 C 0.56228 0.86874 0.95574 0.0
C2474 C 0.55883 0.86411 0.93641 0.0
C2475 C 0.55933 0.84669 0.92858 0.0
C2476 C 0.56148 0.88792 0.96411 0.0
C2477 C 0.56904 0.90324 0.95543 0.0
C2478 C 0.55343 0.89152 0.98067 0.0
C2479 C 0.54367 0.87686 0.99036 0.0
C2480 C 0.52887 0.86464 0.98091 0.0
C2481 C 0.51972 0.85081 0.99012 0.0
C2482 C 0.52514 0.84915 1.00881 0.0
C2483 C 0.53969 0.86135 0.01836 0.0
C2484 C 0.54891 0.8752 1.00921 0.0
C2485 C 0.55431 0.97497 0.98386 0.0
C2486 C 0.55859 0.98009 1.00303 0.0
C2487 C 0.555 0.95747 0.9763 0.0
C2488 C 0.56012 0.94389 0.98737 0.0
C2489 C 0.56416 0.94897 1.00659 0.0
C2490 C 0.5635 0.96649 0.01415 0.0
C2491 C 0.56108 0.92471 0.97918 0.0
C2492 C 0.55356 0.90941 0.9879 0.0
C2493 C 0.5691 0.92112 0.96261 0.0
C2494 C 0.57863 0.93581 0.95279 0.0
C2495 C 0.5933 0.94826 0.96212 0.0
C2496 C 0.60219 0.96214 0.9528 0.0
C2497 C 0.59662 0.96365 0.9341 0.0
C2498 C 0.58219 0.95123 0.92467 0.0
C2499 C 0.57324 0.93733 0.93393 0.0
H2500 H 0.60352 0.97441 0.92691 0.0
H2501 H 0.51803 0.83843 0.01592 0.0
H2502 H 1.00378 0.79878 0.70286 0.0
H2503 H 0.97614 0.7985 0.71887 0.0
H2504 H 0.94277 0.76834 0.67217 0.0
H2505 H 0.97043 0.76945 0.6558 0.0
H2506 H 0.92074 0.78588 0.68367 0.0
H2507 H 0.95728 0.75263 0.72136 0.0
H2508 H 0.98471 0.74607 0.74038 0.0
H2509 H 0.98403 0.79098 0.77786 0.0
H2510 H 0.95669 0.79792 0.75894 0.0
H2511 H 0.84151 0.76024 0.73428 0.0
H2512 H 0.86925 0.76123 0.71817 0.0
H2513 H 0.89953 0.80046 0.7594 0.0
H2514 H 0.87161 0.79969 0.77543 0.0
H2515 H 0.92272 0.77835 0.75091 0.0
H2516 H 0.88409 0.8097 0.71244 0.0
H2517 H 0.85546 0.8137 0.69358 0.0
H2518 H 0.85897 0.76866 0.65743 0.0
H2519 H 0.8875 0.76424 0.67622 0.0
C2520 C 0.99062 0.792 0.69587 0.0
C2521 C 0.98993 0.78408 0.67774 0.0
C2522 C 0.97446 0.79164 0.7053 0.0
C2523 C 0.95654 0.78295 0.69744 0.0
C2524 C 0.95589 0.77518 0.67918 0.0
C2525 C 0.97203 0.77576 0.66964 0.0
C2526 C 0.93879 0.78219 0.70787 0.0
C2527 C 0.92141 0.78392 0.69833 0.0
C2528 C 0.93861 0.77994 0.72728 0.0
C2529 C 0.95509 0.77592 0.73862 0.0
C2530 C 0.96307 0.76118 0.73358 0.0
C2531 C 0.97858 0.75738 0.74436 0.0
C2532 C 0.98615 0.76813 0.76029 0.0
C2533 C 0.97818 0.78269 0.7655 0.0
C2534 C 0.96267 0.78655 0.75476 0.0
C2535 C 0.85399 0.76915 0.74008 0.0
C2536 C 0.85373 0.77984 0.75653 0.0
C2537 C 0.87012 0.76984 0.73058 0.0
C2538 C 0.88716 0.78112 0.73702 0.0
C2539 C 0.88701 0.79157 0.75366 0.0
C2540 C 0.87076 0.79111 0.76299 0.0
C2541 C 0.90485 0.78191 0.72666 0.0
C2542 C 0.92216 0.78025 0.73623 0.0
C2543 C 0.90486 0.78383 0.70724 0.0
C2544 C 0.88783 0.78655 0.69583 0.0
C2545 C 0.87869 0.80058 0.70053 0.0
C2546 C 0.86249 0.80293 0.68985 0.0
C2547 C 0.85537 0.79141 0.67434 0.0
C2548 C 0.86448 0.77755 0.66946 0.0
C2549 C 0.88068 0.77513 0.68011 0.0
H2550 H 0.84283 0.79325 0.6661 0.0
H2551 H 0.99816 0.76517 0.76861 0.0
H2552 H 0.18594 0.03421 0.90113 0.0
H2553 H 0.17224 0.02771 0.92976 0.0
H2554 H 0.11764 0.02556 0.90078 0.0
H2555 H 0.1313 0.0327 0.87241 0.0
H2556 H 0.12058 0.04494 0.93082 0.0
H2557 H 0.13448 0.9877 0.91561 0.0
H2558 H 0.15366 0.96569 0.90727 0.0
H2559 H 0.1891 0.97974 0.95829 0.0
H2560 H 0.1703 1.00205 0.96682 0.0
H2561 H 0.07123 0.01936 1.0022 0.0
H2562 H 0.08488 1.01042 0.97495 0.0
H2563 H 0.13956 0.03003 1.00278 0.0
H2564 H 0.12609 0.03907 0.03021 0.0
H2565 H 0.13543 0.99922 0.97326 0.0
H2566 H 0.12285 0.05968 0.98496 0.0
H2567 H 0.10188 0.0799 0.99365 0.0
H2568 H 0.06203 0.05747 0.94778 0.0
H2569 H 0.08263 0.03685 0.93908 0.0
C2570 C 0.17102 0.03228 0.90091 0.0
C2571 C 0.15967 0.03409 0.88464 0.0
C2572 C 0.16319 0.0284 0.91721 0.0
C2573 C 0.14389 0.02594 0.91737 0.0
C2574 C 0.13257 0.02742 0.90099 0.0
C2575 C 0.14038 0.03154 0.8848 0.0
C2576 C 0.1355 0.02318 0.93484 0.0
C2577 C 0.12364 0.0347 0.93986 0.0
C2578 C 0.13968 1.01004 0.94688 0.0
C2579 C 0.15107 0.99668 0.94177 0.0
C2580 C 0.14646 0.98622 0.92498 0.0
C2581 C 0.15725 0.97366 0.92023 0.0
C2582 C 0.17262 0.97135 0.93222 0.0
C2583 C 0.17721 0.98157 0.949 0.0
C2584 C 0.16648 0.99416 0.95381 0.0
C2585 C 0.08618 0.02124 1.00282 0.0
C2586 C 0.09758 0.03057 0.01807 0.0
C2587 C 0.09394 0.01598 0.98726 0.0
C2588 C 0.11316 0.01991 0.98683 0.0
C2589 C 0.12468 0.02697 1.0029 0.0
C2590 C 0.11693 0.03232 0.01847 0.0
C2591 C 0.12061 0.02086 0.96886 0.0
C2592 C 0.13234 1.00921 0.96393 0.0
C2593 C 0.11622 0.03375 0.95671 0.0
C2594 C 0.10418 0.04663 0.96149 0.0
C2595 C 0.10957 0.05901 0.9768 0.0
C2596 C 0.09775 0.07053 0.98173 0.0
C2597 C 0.08061 0.06994 0.9713 0.0
C2598 C 0.0753 0.05789 0.95587 0.0
C2599 C 0.08703 0.04628 0.95093 0.0
H2600 H 0.07147 0.07885 0.97514 0.0
H2601 H 0.18094 0.96162 0.92852 0.0
H2602 H 0.80247 0.38961 0.60054 0.0
H2603 H 0.80283 0.37817 0.63121 0.0
H2604 H 0.81615 0.3291 0.60929 0.0
H2605 H 0.81609 0.34063 0.57836 0.0
H2606 H 0.78688 0.32539 0.63311 0.0
H2607 H 0.84928 0.35582 0.63285 0.0
H2608 H 0.87339 0.38116 0.62823 0.0
H2609 H 0.85372 0.41315 0.66935 0.0
H2610 H 0.82928 0.38807 0.67401 0.0
H2611 H 0.80564 0.29053 0.71902 0.0
H2612 H 0.80722 0.301 0.68817 0.0
H2613 H 0.80902 0.35473 0.7102 0.0
H2614 H 0.80841 0.34429 0.7415 0.0
H2615 H 0.83112 0.35569 0.68558 0.0
H2616 H 0.76714 0.3276 0.6838 0.0
H2617 H 0.74106 0.3036 0.68734 0.0
H2618 H 0.76206 0.26872 0.65013 0.0
H2619 H 0.78815 0.29251 0.64627 0.0
C2620 C 0.80542 0.37634 0.60218 0.0
C2621 C 0.80926 0.366 0.58702 0.0
C2622 C 0.8057 0.36987 0.61975 0.0
C2623 C 0.80968 0.35287 0.62254 0.0
C2624 C 0.81311 0.3423 0.6074 0.0
C2625 C 0.81308 0.34888 0.58977 0.0
C2626 C 0.8101 0.34625 0.64135 0.0
C2627 C 0.79673 0.3318 0.64456 0.0
C2628 C 0.82258 0.35503 0.65634 0.0
C2629 C 0.83733 0.3701 0.65365 0.0
C2630 C 0.84999 0.3683 0.64079 0.0
C2631 C 0.86374 0.38261 0.63819 0.0
C2632 C 0.86506 0.39876 0.64846 0.0
C2633 C 0.85266 0.40063 0.66139 0.0
C2634 C 0.83887 0.38637 0.66403 0.0
C2635 C 0.80639 0.3046 0.71733 0.0
C2636 C 0.80677 0.31658 0.73268 0.0
C2637 C 0.8071 0.31057 0.6996 0.0
C2638 C 0.80764 0.32861 0.69664 0.0
C2639 C 0.80847 0.34071 0.71204 0.0
C2640 C 0.80814 0.33476 0.72993 0.0
C2641 C 0.80775 0.3348 0.67754 0.0
C2642 C 0.82124 0.3492 0.67422 0.0
C2643 C 0.79519 0.32613 0.66245 0.0
C2644 C 0.77968 0.31175 0.66494 0.0
C2645 C 0.76626 0.31475 0.67653 0.0
C2646 C 0.75147 0.30122 0.67855 0.0
C2647 C 0.75 0.28463 0.6691 0.0
C2648 C 0.76325 0.28156 0.65749 0.0
C2649 C 0.77799 0.29508 0.65532 0.0
H2650 H 0.73856 0.27417 0.67071 0.0
H2651 H 0.87572 0.40983 0.64642 0.0
H2652 H 0.4732 0.10921 0.35983 0.0
H2653 H 0.48727 0.10165 0.38983 0.0
H2654 H 0.52588 0.07619 0.3622 0.0
H2655 H 0.5121 0.08372 0.33241 0.0
H2656 H 0.5057 0.05444 0.38532 0.0
H2657 H 0.54131 0.11366 0.38692 0.0
H2658 H 0.54548 0.14621 0.38596 0.0
H2659 H 0.5154 0.14946 0.43305 0.0
H2660 H 0.51081 0.11689 0.43413 0.0
H2661 H 0.55822 0.03106 0.46529 0.0
H2662 H 0.54842 0.04204 0.43536 0.0
H2663 H 0.51916 0.07807 0.46307 0.0
H2664 H 0.52982 0.06797 0.49274 0.0
H2665 H 0.53548 0.09488 0.43925 0.0
H2666 H 0.49739 0.03731 0.43757 0.0
H2667 H 0.49085 1.0048 0.43917 0.0
H2668 H 0.5218 0.99825 0.39329 0.0
H2669 H 0.52873 0.03075 0.39157 0.0
C2670 C 0.48494 0.10235 0.36023 0.0
C2671 C 0.49147 0.09694 0.34381 0.0
C2672 C 0.49293 0.09802 0.37733 0.0
C2673 C 0.50752 0.08828 0.37813 0.0
C2674 C 0.51456 0.08363 0.36182 0.0
C2675 C 0.50669 0.08799 0.34483 0.0
C2676 C 0.51459 0.08168 0.39572 0.0
C2677 C 0.51243 0.06325 0.39708 0.0
C2678 C 0.52281 0.09322 0.41114 0.0
C2679 C 0.52555 0.11281 0.41047 0.0
C2680 C 0.53543 0.12129 0.39696 0.0
C2681 C 0.5379 0.13976 0.39642 0.0
C2682 C 0.53066 0.14989 0.4094 0.0
C2683 C 0.52097 0.14159 0.42298 0.0
C2684 C 0.51845 0.12313 0.42357 0.0
C2685 C 0.5497 0.04131 0.46485 0.0
C2686 C 0.54487 0.04878 0.48121 0.0
C2687 C 0.54402 0.04753 0.4478 0.0
C2688 C 0.53289 0.06081 0.44691 0.0
C2689 C 0.52786 0.06797 0.46334 0.0
C2690 C 0.53393 0.06214 0.4803 0.0
C2691 C 0.52649 0.06753 0.42902 0.0
C2692 C 0.52877 0.086 0.42755 0.0
C2693 C 0.51796 0.056 0.41361 0.0
C2694 C 0.51374 0.03646 0.41457 0.0
C2695 C 0.50291 0.02894 0.4279 0.0
C2696 C 0.49911 1.01052 0.42882 0.0
C2697 C 0.50595 0.99947 0.41638 0.0
C2698 C 0.51654 1.00682 0.40294 0.0
C2699 C 0.5204 0.02524 0.40198 0.0
H2700 H 0.503 0.98521 0.41711 0.0
H2701 H 0.5326 0.16419 0.40897 0.0
H2702 H 0.83227 0.71176 0.07397 0.0
H2703 H 0.83062 0.72705 0.10406 0.0
H2704 H 0.80896 0.67701 0.12481 0.0
H2705 H 0.81146 0.66175 0.09509 0.0
H2706 H 0.80837 0.73523 0.1247 0.0
H2707 H 0.81345 0.67666 0.17136 0.0
H2708 H 0.82833 0.6501 0.17291 0.0
H2709 H 0.87005 0.67412 0.1406 0.0
H2710 H 0.85555 0.70089 0.13904 0.0
H2711 H 0.78452 0.76348 0.21348 0.0
H2712 H 0.78682 0.74832 0.18364 0.0
H2713 H 0.84001 0.73668 0.20468 0.0
H2714 H 0.83731 0.75119 0.2348 0.0
H2715 H 0.8266 0.71025 0.18389 0.0
H2716 H 0.8303 0.77075 0.17016 0.0
H2717 H 0.82082 0.80011 0.16875 0.0
H2718 H 0.77026 0.77671 0.13544 0.0
H2719 H 0.77934 0.74716 0.13684 0.0
C2720 C 0.82732 0.70392 0.08496 0.0
C2721 C 0.82224 0.68527 0.08173 0.0
C2722 C 0.82626 0.71279 0.10241 0.0
C2723 C 0.81996 0.70352 0.11756 0.0
C2724 C 0.8145 0.68489 0.11411 0.0
C2725 C 0.8158 0.67601 0.09677 0.0
C2726 C 0.81893 0.71323 0.13659 0.0
C2727 C 0.81234 0.72956 0.13754 0.0
C2728 C 0.82443 0.70667 0.15397 0.0
C2729 C 0.83329 0.69068 0.15492 0.0
C2730 C 0.82583 0.67628 0.16463 0.0
C2731 C 0.83419 0.66119 0.1655 0.0
C2732 C 0.85009 0.6604 0.1568 0.0
C2733 C 0.8577 0.67472 0.14727 0.0
C2734 C 0.8494 0.68984 0.14637 0.0
C2735 C 0.79679 0.75777 0.21186 0.0
C2736 C 0.81072 0.75887 0.22702 0.0
C2737 C 0.79822 0.74908 0.19445 0.0
C2738 C 0.81384 0.74131 0.19105 0.0
C2739 C 0.8277 0.74232 0.20629 0.0
C2740 C 0.82617 0.75083 0.22378 0.0
C2741 C 0.81567 0.73205 0.17201 0.0
C2742 C 0.82248 0.71584 0.17105 0.0
C2743 C 0.81094 0.73902 0.15464 0.0
C2744 C 0.80542 0.75673 0.15377 0.0
C2745 C 0.81711 0.77186 0.16263 0.0
C2746 C 0.81181 0.78853 0.16183 0.0
C2747 C 0.79493 0.79027 0.15206 0.0
C2748 C 0.78332 0.77534 0.14303 0.0
C2749 C 0.78854 0.75863 0.14381 0.0
H2750 H 0.79085 0.80319 0.15144 0.0
H2751 H 0.85653 0.6487 0.15748 0.0
H2752 H 0.15986 0.0442 0.76971 0.0
H2753 H 0.13538 0.04058 0.74379 0.0
H2754 H 0.0961 0.01534 0.77838 0.0
H2755 H 0.12064 0.01872 0.80438 0.0
H2756 H 0.09067 0.99942 0.74283 0.0
H2757 H 0.09674 0.05748 0.77226 0.0
H2758 H 0.11356 0.08655 0.78589 0.0
H2759 H 0.13227 0.09899 0.73345 0.0
H2760 H 0.11579 0.06988 0.71957 0.0
H2761 H 0.03459 0.05127 0.67065 0.0
H2762 H 0.04597 0.04592 0.70229 0.0
H2763 H 0.07756 1.00836 0.68105 0.0
H2764 H 0.06622 0.01356 0.6496 0.0
H2765 H 0.0807 0.05523 0.71464 0.0
H2766 H 0.08836 0.98032 0.71242 0.0
H2767 H 0.07008 0.95143 0.69998 0.0
H2768 H 0.01989 0.97294 0.70018 0.0
H2769 H 0.03781 1.00189 0.71283 0.0
C2770 C 0.14607 0.03769 0.77175 0.0
C2771 C 0.1421 0.03191 0.78909 0.0
C2772 C 0.1321 0.03566 0.75695 0.0
C2773 C 0.1139 0.02795 0.75929 0.0
C2774 C 0.11006 0.02137 0.77634 0.0
C2775 C 0.12406 0.02337 0.79117 0.0
C2776 C 0.09879 0.02784 0.74422 0.0
C2777 C 0.08836 0.01158 0.73666 0.0
C2778 C 0.09538 0.0438 0.73668 0.0
C2779 C 0.10511 0.06145 0.7449 0.0
C2780 C 0.10453 0.06637 0.76366 0.0
C2781 C 0.114 0.08286 0.77143 0.0
C2782 C 0.124 0.0946 0.76055 0.0
C2783 C 0.12451 0.08989 0.74186 0.0
C2784 C 0.11509 0.0734 0.73403 0.0
C2785 C 0.04357 0.04153 0.67278 0.0
C2786 C 0.04964 0.03296 0.65765 0.0
C2787 C 0.05002 0.03846 0.69084 0.0
C2788 C 0.06263 0.02676 0.69405 0.0
C2789 C 0.06759 0.01721 0.67897 0.0
C2790 C 0.06109 0.02021 0.66094 0.0
C2791 C 0.07298 0.0267 0.71261 0.0
C2792 C 0.08263 0.04301 0.7209 0.0
C2793 C 0.07536 1.0108 0.72095 0.0
C2794 C 0.06447 0.99333 0.7135 0.0
C2795 C 0.07342 0.97887 0.70992 0.0
C2796 C 0.06312 0.96248 0.7028 0.0
C2797 C 0.04384 0.96036 0.69927 0.0
C2798 C 0.03483 0.97462 0.70287 0.0
C2799 C 0.04506 0.99103 0.70998 0.0
H2800 H 0.03589 0.94767 0.6938 0.0
H2801 H 0.13133 0.10736 0.76659 0.0
H2802 H 0.82096 0.38749 0.47175 0.0
H2803 H 0.8151 0.37426 0.44009 0.0
H2804 H 0.78189 0.32796 0.4584 0.0
H2805 H 0.78798 0.34111 0.49036 0.0
H2806 H 0.80466 0.31874 0.4341 0.0
H2807 H 0.76011 0.35823 0.43401 0.0
H2808 H 0.74949 0.38671 0.43982 0.0
H2809 H 0.78837 0.41212 0.40534 0.0
H2810 H 0.79941 0.38383 0.39961 0.0
H2811 H 0.77399 0.28516 0.34112 0.0
H2812 H 0.773 0.29652 0.37299 0.0
H2813 H 0.8062 0.34612 0.36235 0.0
H2814 H 0.807 0.33503 0.33055 0.0
H2815 H 0.78021 0.35219 0.38324 0.0
H2816 H 0.82543 0.31346 0.38393 0.0
H2817 H 0.83648 0.28529 0.37774 0.0
H2818 H 0.79744 0.25874 0.41138 0.0
H2819 H 0.78597 0.28672 0.41756 0.0
C2820 C 0.8124 0.37448 0.46909 0.0
C2821 C 0.80488 0.36538 0.48359 0.0
C2822 C 0.80896 0.36697 0.45092 0.0
C2823 C 0.79777 0.35023 0.44675 0.0
C2824 C 0.79048 0.34093 0.46124 0.0
C2825 C 0.79395 0.34846 0.4795 0.0
C2826 C 0.79403 0.34245 0.42727 0.0
C2827 C 0.79895 0.32589 0.42303 0.0
C2828 C 0.78696 0.35189 0.41271 0.0
C2829 C 0.78053 0.36894 0.41633 0.0
C2830 C 0.76644 0.36992 0.42775 0.0
C2831 C 0.76035 0.38602 0.43103 0.0
C2832 C 0.76824 0.40121 0.42293 0.0
C2833 C 0.78226 0.40034 0.41159 0.0
C2834 C 0.7884 0.38428 0.40828 0.0
C2835 C 0.78085 0.29857 0.34549 0.0
C2836 C 0.79072 0.3091 0.33329 0.0
C2837 C 0.78039 0.30502 0.36376 0.0
C2838 C 0.78982 0.32208 0.37021 0.0
C2839 C 0.7989 0.33289 0.35778 0.0
C2840 C 0.7994 0.32647 0.33958 0.0
C2841 C 0.79096 0.32853 0.39003 0.0
C2842 C 0.78564 0.34489 0.39433 0.0
C2843 C 0.79774 0.31892 0.40462 0.0
C2844 C 0.80469 0.30212 0.40103 0.0
C2845 C 0.8191 0.30158 0.3899 0.0
C2846 C 0.82546 0.28566 0.3864 0.0
C2847 C 0.81763 0.27023 0.39412 0.0
C2848 C 0.80346 0.2707 0.40539 0.0
C2849 C 0.79704 0.28658 0.40889 0.0
H2850 H 0.82256 0.25791 0.3914 0.0
H2851 H 0.76348 0.41365 0.42546 0.0
H2852 H 0.51894 0.11975 0.26596 0.0
H2853 H 0.54445 0.11479 0.24818 0.0
H2854 H 0.51303 0.06404 0.2263 0.0
H2855 H 0.48774 0.06885 0.2438 0.0
H2856 H 0.54943 0.06251 0.24082 0.0
H2857 H 0.51524 0.09893 0.20071 0.0
H2858 H 0.50352 0.12655 0.19388 0.0
H2859 H 0.55891 0.1561 0.20374 0.0
H2860 H 0.5709 0.12865 0.21084 0.0
H2861 H 0.55836 0.02748 0.15478 0.0
H2862 H 0.55228 0.04064 0.18408 0.0
H2863 H 0.5967 0.08455 0.18092 0.0
H2864 H 0.60253 0.0715 0.15106 0.0
H2865 H 0.56553 0.09601 0.18657 0.0
H2866 H 0.59964 0.05665 0.21654 0.0
H2867 H 0.61066 0.02849 0.2221 0.0
H2868 H 0.55588 1.00403 0.23132 0.0
H2869 H 0.54444 0.03193 0.22554 0.0
C2870 C 0.51747 0.10764 0.2572 0.0
C2871 C 0.50141 0.09466 0.25626 0.0
C2872 C 0.53204 0.10481 0.24715 0.0
C2873 C 0.53063 0.08897 0.23614 0.0
C2874 C 0.51444 0.07625 0.23493 0.0
C2875 C 0.49995 0.07908 0.24483 0.0
C2876 C 0.54574 0.08526 0.22558 0.0
C2877 C 0.55314 0.06986 0.22902 0.0
C2878 C 0.55118 0.09538 0.21079 0.0
C2879 C 0.54392 0.11182 0.20657 0.0
C2880 C 0.52488 0.11135 0.20159 0.0
C2881 C 0.5182 0.12696 0.19763 0.0
C2882 C 0.53045 0.14308 0.19845 0.0
C2883 C 0.54942 0.14361 0.20317 0.0
C2884 C 0.55617 0.12804 0.20716 0.0
C2885 C 0.56704 0.03978 0.16048 0.0
C2886 C 0.58079 0.04857 0.15064 0.0
C2887 C 0.56372 0.04721 0.17735 0.0
C2888 C 0.5742 0.06349 0.18482 0.0
C2889 C 0.58857 0.07191 0.17545 0.0
C2890 C 0.59193 0.06443 0.15849 0.0
C2891 C 0.56822 0.07248 0.20101 0.0
C2892 C 0.56258 0.08896 0.19876 0.0
C2893 C 0.56438 0.06331 0.21692 0.0
C2894 C 0.57119 0.04646 0.22062 0.0
C2895 C 0.58992 0.04526 0.21968 0.0
C2896 C 0.59624 0.02932 0.22287 0.0
C2897 C 0.58398 0.01448 0.22707 0.0
C2898 C 0.56537 0.01555 0.22811 0.0
C2899 C 0.55897 0.03144 0.22492 0.0
H2900 H 0.5889 1.00216 0.22952 0.0
H2901 H 0.52526 0.15515 0.19537 0.0
H2902 H 0.83748 0.70934 0.98612 0.0
H2903 H 0.83622 0.7241 0.95698 0.0
H2904 H 0.8018 0.67718 0.9295 0.0
H2905 H 0.80351 0.66229 0.95857 0.0
H2906 H 0.82193 0.689 0.90529 0.0
H2907 H 0.78702 0.72096 0.94268 0.0
H2908 H 0.78102 0.73862 0.96994 0.0
H2909 H 0.82643 0.77944 0.96179 0.0
H2910 H 0.83283 0.76193 0.9346 0.0
H2911 H 0.79249 0.72994 0.82275 0.0
H2912 H 0.795 0.71581 0.85209 0.0
H2913 H 0.83209 0.76225 0.87713 0.0
H2914 H 0.8294 0.77657 0.84767 0.0
H2915 H 0.81118 0.75103 0.90256 0.0
H2916 H 0.84551 0.71907 0.86463 0.0
H2917 H 0.851 0.70142 0.83715 0.0
H2918 H 0.80607 0.66046 0.84621 0.0
H2919 H 0.80015 0.67798 0.87362 0.0
C2920 C 0.82957 0.70208 0.97394 0.0
C2921 C 0.82057 0.68439 0.97523 0.0
C2922 C 0.82869 0.7107 0.95699 0.0
C2923 C 0.81856 0.70224 0.94034 0.0
C2924 C 0.80975 0.68447 0.94165 0.0
C2925 C 0.81069 0.67583 0.95857 0.0
C2926 C 0.81729 0.7116 0.92179 0.0
C2927 C 0.8193 0.7025 0.90489 0.0
C2928 C 0.8143 0.72951 0.9204 0.0
C2929 C 0.81053 0.74005 0.93673 0.0
C2930 C 0.7958 0.73365 0.94678 0.0
C2931 C 0.79232 0.74364 0.96221 0.0
C2932 C 0.80337 0.76012 0.96763 0.0
C2933 C 0.8179 0.76666 0.9576 0.0
C2934 C 0.82146 0.75671 0.94217 0.0
C2935 C 0.80135 0.73726 0.83437 0.0
C2936 C 0.81083 0.75461 0.83222 0.0
C2937 C 0.80288 0.72898 0.85144 0.0
C2938 C 0.81404 0.7375 0.86748 0.0
C2939 C 0.82337 0.75494 0.86542 0.0
C2940 C 0.8219 0.76323 0.84827 0.0
C2941 C 0.81574 0.72839 0.88613 0.0
C2942 C 0.81382 0.73753 0.903 0.0
C2943 C 0.81874 0.7105 0.8875 0.0
C2944 C 0.82227 0.69992 0.87107 0.0
C2945 C 0.83671 0.70636 0.86069 0.0
C2946 C 0.83992 0.69637 0.84513 0.0
C2947 C 0.82886 0.67985 0.83991 0.0
C2948 C 0.8146 0.67327 0.85025 0.0
C2949 C 0.81133 0.68322 0.86581 0.0
H2950 H 0.83136 0.67214 0.82786 0.0
H2951 H 0.80065 0.76783 0.97957 0.0
H2952 H 0.86275 0.19149 0.03397 0.0
H2953 H 0.89126 0.17939 0.03163 0.0
H2954 H 0.85897 0.13026 1.00629 0.0
H2955 H 0.83054 0.14208 1.00909 0.0
H2956 H 0.88376 0.12337 0.0316 0.0
H2957 H 0.8844 0.16183 0.98141 0.0
H2958 H 0.88396 0.19005 0.96663 0.0
H2959 H 0.93382 0.21376 1.00089 0.0
H2960 H 0.93441 0.18573 0.01607 0.0
H2961 H 0.95221 0.08229 0.99695 0.0
H2962 H 0.92623 0.09805 0.99808 0.0
H2963 H 0.96242 0.14301 0.02758 0.0
H2964 H 0.98881 0.12771 0.02567 0.0
H2965 H 0.93703 0.15321 1.00186 0.0
H2966 H 0.93628 0.11357 0.05117 0.0
H2967 H 0.93684 0.08451 0.06423 0.0
H2968 H 0.88665 0.06233 0.02968 0.0
H2969 H 0.8859 0.09119 0.01627 0.0
C2970 C 0.86178 0.17813 0.02786 0.0
C2971 C 0.84443 0.16771 0.02174 0.0
C2972 C 0.87807 0.17126 0.02644 0.0
C2973 C 0.87729 0.15395 0.01863 0.0
C2974 C 0.85994 0.14363 0.01241 0.0
C2975 C 0.8437 0.15041 0.01398 0.0
C2976 C 0.89439 0.14625 0.0174 0.0
C2977 C 0.89529 0.12983 0.02488 0.0
C2978 C 0.90969 0.15486 1.00908 0.0
C2979 C 0.90931 0.17174 1.00003 0.0
C2980 C 0.89517 0.17311 0.98592 0.0
C2981 C 0.89492 0.18906 0.97744 0.0
C2982 C 0.90882 0.20371 0.98286 0.0
C2983 C 0.92304 0.20242 0.99674 0.0
C2984 C 0.92334 0.1865 1.00527 0.0
C2985 C 0.95482 0.09567 1.00334 0.0
C2986 C 0.97268 0.10363 0.01136 0.0
C2987 C 0.93986 0.10459 1.00415 0.0
C2988 C 0.94233 0.12154 0.01326 0.0
C2989 C 0.96018 0.12984 0.02067 0.0
C2990 C 0.97522 0.12097 0.01975 0.0
C2991 C 0.92611 0.13021 0.01565 0.0
C2992 C 0.92546 0.14682 1.00855 0.0
C2993 C 0.91093 0.12174 0.02418 0.0
C2994 C 0.91112 0.10451 0.03262 0.0
C2995 C 0.92541 0.10247 0.04631 0.0
C2996 C 0.92576 0.08604 0.05378 0.0
C2997 C 0.91183 0.07158 0.04773 0.0
C2998 C 0.89744 0.07355 0.03433 0.0
C2999 C 0.89703 0.08994 0.02681 0.0
H3000 H 0.91217 0.05884 0.0534 0.0
H3001 H 0.90861 0.21605 0.97628 0.0
H3002 H 0.33622 0.4612 0.04716 0.0
H3003 H 0.36789 0.47708 0.04647 0.0
H3004 H 0.3844 0.42849 0.02756 0.0
H3005 H 0.35294 0.4125 0.02911 0.0
H3006 H 0.41212 0.44409 0.04794 0.0
H3007 H 0.37677 0.46753 0.99922 0.0
H3008 H 0.3518 0.48182 0.98467 0.0
H3009 H 0.37074 0.52844 0.02133 0.0
H3010 H 0.3957 0.51434 0.03625 0.0
H3011 H 0.49743 0.4857 0.01633 0.0
H3012 H 0.46565 0.47053 0.01795 0.0
H3013 H 0.45381 0.51685 0.0471 0.0
H3014 H 0.48573 0.53207 0.04567 0.0
H3015 H 0.42413 0.50287 0.02179 0.0
H3016 H 0.46071 0.47872 0.06929 0.0
H3017 H 0.48626 0.46413 0.08193 0.0
H3018 H 0.46521 0.41805 0.04507 0.0
H3019 H 0.43968 0.43248 0.032 0.0
C3020 C 0.34655 0.45383 0.04285 0.0
C3021 C 0.34162 0.43538 0.03816 0.0
C3022 C 0.36489 0.46306 0.04226 0.0
C3023 C 0.37913 0.4544 0.03652 0.0
C3024 C 0.37416 0.43589 0.03204 0.0
C3025 C 0.35591 0.42663 0.03287 0.0
C3026 C 0.399 0.46436 0.03534 0.0
C3027 C 0.41452 0.45682 0.04193 0.0
C3028 C 0.40296 0.48131 0.02788 0.0
C3029 C 0.38797 0.48981 0.01898 0.0
C3030 C 0.37553 0.48079 1.00426 0.0
C3031 C 0.36139 0.48885 0.99594 0.0
C3032 C 0.35965 0.506 1.00211 0.0
C3033 C 0.37208 0.51514 0.01659 0.0
C3034 C 0.38624 0.50713 0.02498 0.0
C3035 C 0.48814 0.4928 0.02307 0.0
C3036 C 0.49458 0.51033 0.03084 0.0
C3037 C 0.46977 0.48396 0.0241 0.0
C3038 C 0.45685 0.49223 0.03284 0.0
C3039 C 0.46313 0.50988 0.04027 0.0
C3040 C 0.4816 0.51867 0.03946 0.0
C3041 C 0.43704 0.48252 0.03429 0.0
C3042 C 0.42161 0.49012 0.02777 0.0
C3043 C 0.43317 0.46554 0.04157 0.0
C3044 C 0.44838 0.45675 0.04954 0.0
C3045 C 0.4616 0.46552 0.06379 0.0
C3046 C 0.47607 0.45727 0.07104 0.0
C3047 C 0.47738 0.44019 0.06427 0.0
C3048 C 0.46419 0.43129 0.05028 0.0
C3049 C 0.44971 0.4395 0.04295 0.0
H3050 H 0.48861 0.43383 0.0699 0.0
H3051 H 0.3487 0.51223 0.99565 0.0
H3052 H 0.38578 0.5679 0.77906 0.0
H3053 H 0.36311 0.58645 0.78563 0.0
H3054 H 0.32783 0.56346 0.73638 0.0
H3055 H 0.3508 0.54498 0.72948 0.0
H3056 H 0.3313 0.59864 0.73864 0.0
H3057 H 0.31522 0.55355 0.77905 0.0
H3058 H 0.3203 0.53229 0.80257 0.0
H3059 H 0.34394 0.57535 0.84247 0.0
H3060 H 0.33927 0.59688 0.81913 0.0
H3061 H 0.27207 0.65688 0.76808 0.0
H3062 H 0.28098 0.62815 0.76042 0.0
H3063 H 0.32847 0.64095 0.80171 0.0
H3064 H 0.31954 0.6695 0.80955 0.0
H3065 H 0.31093 0.60566 0.80099 0.0
H3066 H 0.3331 0.64927 0.75802 0.0
H3067 H 0.32854 0.67062 0.73442 0.0
H3068 H 0.29291 0.62944 0.69923 0.0
H3069 H 0.29708 0.6079 0.72277 0.0
C3070 C 0.37314 0.56669 0.76966 0.0
C3071 C 0.37003 0.55501 0.75375 0.0
C3072 C 0.36013 0.57719 0.77352 0.0
C3073 C 0.34362 0.57608 0.76168 0.0
C3074 C 0.34043 0.5644 0.74577 0.0
C3075 C 0.35353 0.55388 0.74184 0.0
C3076 C 0.33049 0.5881 0.76549 0.0
C3077 C 0.32639 0.59984 0.7521 0.0
C3078 C 0.32421 0.58974 0.7831 0.0
C3079 C 0.32694 0.57685 0.79729 0.0
C3080 C 0.3216 0.5585 0.79281 0.0
C3081 C 0.3244 0.54639 0.80612 0.0
C3082 C 0.33245 0.55246 0.824 0.0
C3083 C 0.33769 0.57066 0.82862 0.0
C3084 C 0.33494 0.58283 0.81536 0.0
C3085 C 0.2842 0.65338 0.77574 0.0
C3086 C 0.29523 0.66542 0.78928 0.0
C3087 C 0.2893 0.63704 0.77132 0.0
C3088 C 0.30544 0.63255 0.78043 0.0
C3089 C 0.31595 0.64419 0.79455 0.0
C3090 C 0.31094 0.66053 0.79889 0.0
C3091 C 0.31243 0.61648 0.77439 0.0
C3092 C 0.31536 0.60403 0.78736 0.0
C3093 C 0.31758 0.61413 0.75639 0.0
C3094 C 0.3152 0.62705 0.74223 0.0
C3095 C 0.32418 0.64481 0.74531 0.0
C3096 C 0.32169 0.65694 0.73194 0.0
C3097 C 0.31039 0.65141 0.71536 0.0
C3098 C 0.30162 0.63372 0.7121 0.0
C3099 C 0.30403 0.62155 0.72544 0.0
H3100 H 0.30848 0.66081 0.70503 0.0
H3101 H 0.33461 0.54306 0.83428 0.0
H3102 H 0.22445 0.67494 0.51464 0.0
H3103 H 0.19425 0.65531 0.51009 0.0
H3104 H 0.22121 0.60989 0.51777 0.0
H3105 H 0.25138 0.62937 0.52198 0.0
H3106 H 0.19402 0.60273 0.48983 0.0
H3107 H 0.20069 0.62765 0.55255 0.0
H3108 H 0.20616 0.65169 0.57734 0.0
H3109 H 0.15877 0.67205 0.5536 0.0
H3110 H 0.15317 0.64827 0.52851 0.0
H3111 H 0.11773 0.54167 0.51766 0.0
H3112 H 0.14733 0.5612 0.5156 0.0
H3113 H 0.11812 0.60315 0.49884 0.0
H3114 H 0.08858 0.58374 0.50049 0.0
H3115 H 0.14573 0.61246 0.52997 0.0
H3116 H 0.13844 0.5866 0.46788 0.0
H3117 H 0.13309 0.56238 0.4433 0.0
H3118 H 0.18146 0.54324 0.46649 0.0
H3119 H 0.18701 0.56726 0.49133 0.0
C3120 C 0.22392 0.66077 0.51531 0.0
C3121 C 0.24027 0.6537 0.51877 0.0
C3122 C 0.20667 0.64956 0.51275 0.0
C3123 C 0.20545 0.63112 0.51379 0.0
C3124 C 0.2218 0.62405 0.5169 0.0
C3125 C 0.23902 0.63522 0.51939 0.0
C3126 C 0.18717 0.6192 0.51207 0.0
C3127 C 0.18354 0.60476 0.49874 0.0
C3128 C 0.17333 0.62202 0.52344 0.0
C3129 C 0.17664 0.6363 0.53854 0.0
C3130 C 0.19152 0.63734 0.55253 0.0
C3131 C 0.19463 0.6509 0.56665 0.0
C3132 C 0.18285 0.66342 0.56701 0.0
C3133 C 0.1679 0.66237 0.55328 0.0
C3134 C 0.16475 0.64885 0.53912 0.0
C3135 C 0.11761 0.55495 0.51325 0.0
C3136 C 0.1008 0.56115 0.5093 0.0
C3137 C 0.13451 0.56607 0.51205 0.0
C3138 C 0.13486 0.58361 0.5071 0.0
C3139 C 0.11812 0.58966 0.50269 0.0
C3140 C 0.10125 0.5785 0.5036 0.0
C3141 C 0.15266 0.59603 0.50782 0.0
C3142 C 0.1562 0.61052 0.52101 0.0
C3143 C 0.16641 0.59319 0.4964 0.0
C3144 C 0.16302 0.57862 0.4816 0.0
C3145 C 0.14783 0.57712 0.46786 0.0
C3146 C 0.1448 0.56346 0.45384 0.0
C3147 C 0.15689 0.55124 0.45338 0.0
C3148 C 0.17209 0.5527 0.46689 0.0
C3149 C 0.1752 0.56635 0.48093 0.0
H3150 H 0.15452 0.54067 0.44253 0.0
H3151 H 0.18528 0.67391 0.57796 0.0
H3152 H 0.67512 0.97555 0.79847 0.0
H3153 H 0.69591 0.95418 0.80316 0.0
H3154 H 0.64902 0.91207 0.80301 0.0
H3155 H 0.62794 0.93367 0.79871 0.0
H3156 H 0.6775 0.90788 0.82868 0.0
H3157 H 0.6697 0.91764 0.76445 0.0
H3158 H 0.66857 0.93531 0.7371 0.0
H3159 H 0.72593 0.95822 0.75109 0.0
H3160 H 0.72734 0.94087 0.77868 0.0
H3161 H 0.74972 0.8584 0.7843 0.0
H3162 H 0.72212 0.87227 0.7828 0.0
H3163 H 0.73998 0.89745 0.83747 0.0
H3164 H 0.76765 0.88346 0.83909 0.0
H3165 H 0.72253 0.90648 0.78276 0.0
H3166 H 0.71115 0.90444 0.85741 0.0
H3167 H 0.70698 0.8844 0.88278 0.0
H3168 H 0.68167 0.84137 0.84346 0.0
H3169 H 0.68644 0.861 0.81786 0.0
C3170 C 0.66919 0.96176 0.79957 0.0
C3171 C 0.6499 0.95621 0.798 0.0
C3172 C 0.6811 0.94957 0.80222 0.0
C3173 C 0.674 0.9315 0.80304 0.0
C3174 C 0.65476 0.92596 0.80231 0.0
C3175 C 0.64275 0.93827 0.79982 0.0
C3176 C 0.68681 0.9185 0.80379 0.0
C3177 C 0.6873 0.90752 0.8186 0.0
C3178 C 0.69931 0.9177 0.7904 0.0
C3179 C 0.69859 0.92804 0.77371 0.0
C3180 C 0.68205 0.92653 0.76175 0.0
C3181 C 0.68136 0.93648 0.7462 0.0
C3182 C 0.69716 0.9479 0.74238 0.0
C3183 C 0.7137 0.94937 0.75408 0.0
C3184 C 0.71446 0.93946 0.76966 0.0
C3185 C 0.74776 0.86689 0.79602 0.0
C3186 C 0.76096 0.87006 0.81172 0.0
C3187 C 0.73188 0.87464 0.79522 0.0
C3188 C 0.72885 0.88574 0.81009 0.0
C3189 C 0.74178 0.8886 0.826 0.0
C3190 C 0.75769 0.88077 0.82683 0.0
C3191 C 0.71356 0.8961 0.8079 0.0
C3192 C 0.71266 0.90671 0.79278 0.0
C3193 C 0.70043 0.89622 0.8207 0.0
C3194 C 0.69934 0.88407 0.8358 0.0
C3195 C 0.70498 0.89062 0.85421 0.0
C3196 C 0.70254 0.87934 0.8686 0.0
C3197 C 0.69411 0.86161 0.86472 0.0
C3198 C 0.68832 0.85507 0.84643 0.0
C3199 C 0.6911 0.8662 0.83197 0.0
H3200 H 0.69206 0.85293 0.87588 0.0
H3201 H 0.6966 0.9556 0.73033 0.0
H3202 H 0.74964 0.96015 0.53028 0.0
H3203 H 0.72235 0.97473 0.52942 0.0
H3204 H 0.68774 0.92437 0.5341 0.0
H3205 H 0.71505 0.90974 0.53458 0.0
H3206 H 0.66767 0.94088 0.51254 0.0
H3207 H 0.70181 0.9616 0.57131 0.0
H3208 H 0.72888 0.97564 0.59296 0.0
H3209 H 0.7306 0.02417 0.56559 0.0
H3210 H 0.70366 1.01035 0.54363 0.0
H3211 H 0.58693 0.97849 0.53149 0.0
H3212 H 0.61383 0.96342 0.53205 0.0
H3213 H 0.64949 0.01365 0.52956 0.0
H3214 H 0.62266 0.02877 0.52967 0.0
H3215 H 0.66891 0.99689 0.55005 0.0
H3216 H 0.63469 0.97609 0.49113 0.0
H3217 H 0.60739 0.96207 0.46975 0.0
H3218 H 0.60562 0.9137 0.49741 0.0
H3219 H 0.63279 0.9275 0.51911 0.0
C3220 C 0.73627 0.95206 0.53117 0.0
C3221 C 0.73507 0.93351 0.53259 0.0
C3222 C 0.72039 0.96056 0.53082 0.0
C3223 C 0.7023 0.95108 0.53203 0.0
C3224 C 0.70109 0.93247 0.53317 0.0
C3225 C 0.71699 0.92397 0.53351 0.0
C3226 C 0.6849 0.96033 0.53202 0.0
C3227 C 0.66807 0.95301 0.52101 0.0
C3228 C 0.68466 0.97654 0.54257 0.0
C3229 C 0.70084 0.98488 0.55572 0.0
C3230 C 0.70804 0.97523 0.56984 0.0
C3231 C 0.72335 0.98315 0.58217 0.0
C3232 C 0.73149 1.00077 0.58061 0.0
C3233 C 0.7243 1.01052 0.56675 0.0
C3234 C 0.709 1.00265 0.55437 0.0
C3235 C 0.60044 0.98645 0.53096 0.0
C3236 C 0.60207 1.00514 0.53042 0.0
C3237 C 0.61612 0.97766 0.53113 0.0
C3238 C 0.6344 0.98696 0.53046 0.0
C3239 C 0.63599 1.00566 0.53005 0.0
C3240 C 0.62034 0.01446 0.53002 0.0
C3241 C 0.65167 0.97751 0.53049 0.0
C3242 C 0.66849 0.98478 0.54153 0.0
C3243 C 0.65189 0.96127 0.51995 0.0
C3244 C 0.63567 0.95289 0.50685 0.0
C3245 C 0.62842 0.96249 0.49272 0.0
C3246 C 0.61297 0.95459 0.48054 0.0
C3247 C 0.60475 0.93702 0.48225 0.0
C3248 C 0.61199 0.92732 0.49612 0.0
C3249 C 0.62742 0.93517 0.50835 0.0
H3250 H 0.59281 0.93092 0.47279 0.0
H3251 H 0.74334 1.00688 0.59018 0.0
H3252 H 0.41574 0.46191 0.74011 0.0
H3253 H 0.4043 0.43034 0.74281 0.0
H3254 H 0.35136 0.44253 0.75438 0.0
H3255 H 0.36276 0.47407 0.75192 0.0
H3256 H 0.36381 0.42067 0.77852 0.0
H3257 H 0.35718 0.4242 0.71236 0.0
H3258 H 0.36786 0.43112 0.68217 0.0
H3259 H 0.40674 0.39533 0.68937 0.0
H3260 H 0.39646 0.38839 0.71975 0.0
H3261 H 0.30427 0.33942 0.7659 0.0
H3262 H 0.31963 0.36888 0.7598 0.0
H3263 H 0.37065 0.34913 0.7557 0.0
H3264 H 0.35537 0.31936 0.76186 0.0
H3265 H 0.3624 0.37378 0.72858 0.0
H3266 H 0.36699 0.36865 0.79396 0.0
H3267 H 0.35525 0.3613 0.8236 0.0
H3268 H 0.31985 0.40036 0.81772 0.0
H3269 H 0.33098 0.40761 0.78781 0.0
C3270 C 0.40164 0.45783 0.74316 0.0
C3271 C 0.39013 0.47042 0.74583 0.0
C3272 C 0.39512 0.4398 0.74462 0.0
C3273 C 0.37696 0.43411 0.74867 0.0
C3274 C 0.36544 0.44667 0.75126 0.0
C3275 C 0.37194 0.46467 0.74982 0.0
C3276 C 0.37002 0.41513 0.7508 0.0
C3277 C 0.36335 0.41045 0.76753 0.0
C3278 C 0.36999 0.40175 0.73666 0.0
C3279 C 0.37621 0.40594 0.71843 0.0
C3280 C 0.36813 0.41794 0.70759 0.0
C3281 C 0.37408 0.42184 0.69042 0.0
C3282 C 0.38801 0.41372 0.68388 0.0
C3283 C 0.39598 0.40164 0.69447 0.0
C3284 C 0.39009 0.39771 0.71166 0.0
C3285 C 0.31871 0.34121 0.76351 0.0
C3286 C 0.32866 0.32707 0.7646 0.0
C3287 C 0.32745 0.35808 0.76004 0.0
C3288 C 0.34629 0.36116 0.75758 0.0
C3289 C 0.35609 0.34695 0.75765 0.0
C3290 C 0.34735 0.33 0.76122 0.0
C3291 C 0.35582 0.37949 0.75609 0.0
C3292 C 0.36303 0.38402 0.73958 0.0
C3293 C 0.35634 0.39279 0.77042 0.0
C3294 C 0.3497 0.38855 0.78853 0.0
C3295 C 0.35656 0.37554 0.79889 0.0
C3296 C 0.35001 0.37139 0.81575 0.0
C3297 C 0.33675 0.38029 0.82251 0.0
C3298 C 0.33005 0.3934 0.81244 0.0
C3299 C 0.33647 0.39754 0.79553 0.0
H3300 H 0.33172 0.37706 0.83557 0.0
H3301 H 0.3926 0.41675 0.67058 0.0
H3302 H 0.13722 0.54577 0.24762 0.0
H3303 H 0.15621 0.57404 0.2425 0.0
H3304 H 0.20544 0.55044 0.25048 0.0
H3305 H 0.18652 0.52209 0.25571 0.0
H3306 H 0.20688 0.57987 0.27368 0.0
H3307 H 0.19196 0.56377 0.20879 0.0
H3308 H 0.17135 0.55361 0.18006 0.0
H3309 H 0.14431 0.59876 0.18598 0.0
H3310 H 0.16459 0.60907 0.21491 0.0
H3311 H 0.27049 0.65513 0.25662 0.0
H3312 H 0.25168 0.62551 0.2545 0.0
H3313 H 0.20198 0.6483 0.24582 0.0
H3314 H 0.22079 0.67804 0.24747 0.0
H3315 H 0.20099 0.61911 0.22201 0.0
H3316 H 0.21387 0.63449 0.28698 0.0
H3317 H 0.23329 0.64491 0.31636 0.0
H3318 H 0.26264 0.60129 0.31103 0.0
H3319 H 0.24356 0.59075 0.28146 0.0
C3320 C 0.15205 0.54648 0.24784 0.0
C3321 C 0.16043 0.53179 0.25221 0.0
C3322 C 0.16287 0.56263 0.24485 0.0
C3323 C 0.18221 0.56431 0.24615 0.0
C3324 C 0.19052 0.54938 0.24945 0.0
C3325 C 0.1797 0.53319 0.25236 0.0
C3326 C 0.19381 0.58203 0.24622 0.0
C3327 C 0.20588 0.58832 0.26222 0.0
C3328 C 0.19189 0.59325 0.23156 0.0
C3329 C 0.1797 0.58711 0.21412 0.0
C3330 C 0.18152 0.57146 0.20406 0.0
C3331 C 0.16991 0.56568 0.18771 0.0
C3332 C 0.1565 0.57551 0.18122 0.0
C3333 C 0.1547 0.59115 0.19104 0.0
C3334 C 0.16626 0.59698 0.2074 0.0
C3335 C 0.25556 0.65383 0.25415 0.0
C3336 C 0.24709 0.66888 0.25222 0.0
C3337 C 0.24484 0.63692 0.25305 0.0
C3338 C 0.22546 0.63476 0.25012 0.0
C3339 C 0.21693 0.64973 0.24809 0.0
C3340 C 0.22767 0.66669 0.24922 0.0
C3341 C 0.21415 0.61683 0.24939 0.0
C3342 C 0.20208 0.61057 0.23337 0.0
C3343 C 0.2159 0.60564 0.26411 0.0
C3344 C 0.22742 0.61194 0.28189 0.0
C3345 C 0.22458 0.62721 0.29198 0.0
C3346 C 0.2355 0.63312 0.30869 0.0
C3347 C 0.24923 0.6238 0.31553 0.0
C3348 C 0.25202 0.60852 0.3057 0.0
C3349 C 0.24115 0.60256 0.28897 0.0
H3350 H 0.25766 0.62839 0.32848 0.0
H3351 H 0.14753 0.57101 0.16856 0.0
H3352 H 0.50535 0.68284 0.45 0.0
H3353 H 0.51252 0.66767 0.478 0.0
H3354 H 0.56277 0.70582 0.49203 0.0
H3355 H 0.55557 0.72123 0.46425 0.0
H3356 H 0.56636 0.66846 0.48987 0.0
H3357 H 0.53062 0.70815 0.51775 0.0
H3358 H 0.50291 0.72202 0.51961 0.0
H3359 H 0.46973 0.6708 0.52293 0.0
H3360 H 0.49719 0.6566 0.52084 0.0
H3361 H 0.59043 0.62114 0.56407 0.0
H3362 H 0.58407 0.64825 0.55026 0.0
H3363 H 0.52629 0.62488 0.53821 0.0
H3364 H 0.53236 0.59827 0.5526 0.0
H3365 H 0.52879 0.65902 0.54237 0.0
H3366 H 0.55686 0.61876 0.50667 0.0
H3367 H 0.58033 0.60024 0.50112 0.0
H3368 H 0.62281 0.64657 0.50773 0.0
H3369 H 0.5995 0.66541 0.51333 0.0
C3370 C 0.51781 0.68809 0.45917 0.0
C3371 C 0.52996 0.70313 0.45496 0.0
C3372 C 0.52182 0.6795 0.47517 0.0
C3373 C 0.53809 0.68576 0.48705 0.0
C3374 C 0.5501 0.70092 0.48303 0.0
C3375 C 0.54597 0.70966 0.46718 0.0
C3376 C 0.54334 0.67552 0.50275 0.0
C3377 C 0.55847 0.66676 0.50162 0.0
C3378 C 0.53246 0.67274 0.51755 0.0
C3379 C 0.51597 0.68131 0.51901 0.0
C3380 C 0.51739 0.69983 0.51874 0.0
C3381 C 0.50173 0.70776 0.51987 0.0
C3382 C 0.48456 0.6973 0.52136 0.0
C3383 C 0.48303 0.67889 0.52178 0.0
C3384 C 0.49865 0.6709 0.52065 0.0
C3385 C 0.57627 0.62202 0.55904 0.0
C3386 C 0.56197 0.60737 0.559 0.0
C3387 C 0.57267 0.6375 0.55111 0.0
C3388 C 0.55482 0.63832 0.54266 0.0
C3389 C 0.5402 0.6245 0.54449 0.0
C3390 C 0.54373 0.60919 0.55269 0.0
C3391 C 0.55185 0.65196 0.52951 0.0
C3392 C 0.53705 0.66118 0.53094 0.0
C3393 C 0.56249 0.65458 0.51446 0.0
C3394 C 0.57651 0.64344 0.51067 0.0
C3395 C 0.57123 0.62498 0.50703 0.0
C3396 C 0.5845 0.61442 0.50391 0.0
C3397 C 0.6031 0.62218 0.50431 0.0
C3398 C 0.60842 0.64056 0.5076 0.0
C3399 C 0.59518 0.6512 0.51068 0.0
H3400 H 0.61335 0.61399 0.50184 0.0
H3401 H 0.47245 0.70345 0.52221 0.0
H3402 H 0.63889 0.31324 0.65912 0.0
H3403 H 0.6645 0.30924 0.68185 0.0
H3404 H 0.64025 0.33542 0.72452 0.0
H3405 H 0.61456 0.33943 0.70187 0.0
H3406 H 0.69027 0.33319 0.70436 0.0
H3407 H 0.6474 0.31345 0.76413 0.0
H3408 H 0.61544 0.30012 0.76868 0.0
H3409 H 0.60869 0.27191 0.71532 0.0
H3410 H 0.64066 0.28487 0.71056 0.0
H3411 H 0.75361 0.33158 0.78154 0.0
H3412 H 0.72428 0.33694 0.76596 0.0
H3413 H 0.70723 0.28074 0.75225 0.0
H3414 H 0.73644 0.2752 0.76809 0.0
H3415 H 0.67752 0.29803 0.75847 0.0
H3416 H 0.7312 0.305 0.72467 0.0
H3417 H 0.76337 0.31801 0.72073 0.0
H3418 H 0.74864 0.36992 0.72003 0.0
H3419 H 0.71654 0.35732 0.7247 0.0
C3420 C 0.63909 0.31825 0.67332 0.0
C3421 C 0.62473 0.32659 0.67876 0.0
C3422 C 0.65372 0.31599 0.68626 0.0
C3423 C 0.65413 0.32188 0.70486 0.0
C3424 C 0.64004 0.3306 0.71025 0.0
C3425 C 0.62544 0.33294 0.6973 0.0
C3426 C 0.66915 0.31856 0.71866 0.0
C3427 C 0.68749 0.32557 0.71622 0.0
C3428 C 0.66545 0.3085 0.73404 0.0
C3429 C 0.64636 0.30028 0.73693 0.0
C3430 C 0.63911 0.30434 0.75341 0.0
C3431 C 0.621 0.29686 0.75602 0.0
C3432 C 0.61003 0.28522 0.74227 0.0
C3433 C 0.61718 0.28097 0.72593 0.0
C3434 C 0.63529 0.2884 0.72326 0.0
C3435 C 0.74343 0.32031 0.77563 0.0
C3436 C 0.74747 0.303 0.77567 0.0
C3437 C 0.72667 0.3234 0.76679 0.0
C3438 C 0.71383 0.30927 0.75764 0.0
C3439 C 0.71703 0.29182 0.75918 0.0
C3440 C 0.73376 0.28869 0.76818 0.0
C3441 C 0.6986 0.31284 0.74427 0.0
C3442 C 0.68026 0.30581 0.74671 0.0
C3443 C 0.7023 0.32276 0.72876 0.0
C3444 C 0.72148 0.33022 0.72525 0.0
C3445 C 0.73485 0.31921 0.72386 0.0
C3446 C 0.75309 0.32652 0.72156 0.0
C3447 C 0.75804 0.34478 0.72016 0.0
C3448 C 0.74478 0.35578 0.72113 0.0
C3449 C 0.72657 0.34856 0.72367 0.0
H3450 H 0.77213 0.35042 0.71827 0.0
H3451 H 0.596 0.27946 0.74431 0.0
H3452 H 0.04866 0.27685 0.95623 0.0
H3453 H 0.05639 0.30764 0.96895 0.0
H3454 H 0.05124 0.32578 0.91386 0.0
H3455 H 0.04353 0.29493 0.90096 0.0
H3456 H 0.07998 0.34762 0.93945 0.0
H3457 H 1.01511 0.32249 0.93362 0.0
H3458 H 0.98824 0.29966 0.93762 0.0
H3459 H 1.0015 0.30682 0.99661 0.0
H3460 H 0.02867 0.32948 0.99293 0.0
H3461 H 0.04932 0.43037 0.95978 0.0
H3462 H 0.0563 0.40203 0.94775 0.0
H3463 H 0.05378 0.38187 1.00186 0.0
H3464 H 0.04655 0.41001 0.0138 0.0
H3465 H 0.03058 0.36116 0.97647 0.0
H3466 H 0.09543 0.38741 0.98205 0.0
H3467 H 0.12272 0.4095 0.97731 0.0
H3468 H 0.10875 0.40131 0.9185 0.0
H3469 H 0.08156 0.37895 0.92285 0.0
C3470 C 0.04958 0.28737 0.94679 0.0
C3471 C 0.04516 0.28354 0.92764 0.0
C3472 C 0.05405 0.30493 0.95407 0.0
C3473 C 0.05414 0.31891 0.94233 0.0
C3474 C 0.05123 0.31514 0.92311 0.0
C3475 C 0.0467 0.29753 0.9158 0.0
C3476 C 0.05456 0.33714 0.95021 0.0
C3477 C 0.06916 0.35068 0.94746 0.0
C3478 C 0.04047 0.34101 0.96072 0.0
C3479 C 0.02403 0.32752 0.96299 0.0
C3480 C 1.01239 0.31908 0.94744 0.0
C3481 C 0.99709 0.30619 0.94965 0.0
C3482 C 0.99319 0.30176 0.96736 0.0
C3483 C 1.00456 0.31024 0.9829 0.0
C3484 C 0.0199 0.32311 0.98076 0.0
C3485 C 0.05065 0.41998 0.96913 0.0
C3486 C 0.04712 0.42218 0.98761 0.0
C3487 C 0.05474 0.40386 0.9623 0.0
C3488 C 0.05556 0.38985 0.97393 0.0
C3489 C 0.05314 0.39249 0.99265 0.0
C3490 C 0.04892 0.40849 0.99942 0.0
C3491 C 0.05626 0.37176 0.96616 0.0
C3492 C 0.04161 0.35818 0.96871 0.0
C3493 C 0.07024 0.36799 0.95541 0.0
C3494 C 0.08638 0.38164 0.95278 0.0
C3495 C 0.09811 0.39041 0.96811 0.0
C3496 C 0.11359 0.40293 0.9655 0.0
C3497 C 0.11736 0.40691 0.94764 0.0
C3498 C 0.10578 0.39825 0.93233 0.0
C3499 C 0.09039 0.38558 0.93485 0.0
H3500 H 0.12932 0.41665 0.94566 0.0
H3501 H 0.98134 0.29178 0.96904 0.0
H3502 H 0.02299 0.82062 0.15256 0.0
H3503 H 0.99953 0.8163 0.17392 0.0
H3504 H 0.04244 0.82268 0.22005 0.0
H3505 H 0.06606 0.82653 0.1986 0.0
H3506 H 1.01636 0.79551 0.22408 0.0
H3507 H 1.01722 0.85569 0.21083 0.0
H3508 H 1.0169 0.88116 0.19145 0.0
H3509 H 0.96243 0.85821 0.16589 0.0
H3510 H 0.96253 0.83245 0.1849 0.0
H3511 H 0.94646 0.8011 0.28602 0.0
H3512 H 0.97397 0.80819 0.2698 0.0
H3513 H 0.94008 0.79543 0.21741 0.0
H3514 H 0.91267 0.78774 0.2334 0.0
H3515 H 0.96398 0.82885 0.2203 0.0
H3516 H 0.96549 0.76721 0.23214 0.0
H3517 H 0.96643 0.74227 0.25216 0.0
H3518 H 1.01745 0.76964 0.28188 0.0
H3519 H 1.01667 0.79487 0.26219 0.0
C3520 C 0.02743 0.82118 0.16724 0.0
C3521 C 0.04631 0.82396 0.17394 0.0
C3522 C 1.01402 0.8188 0.17946 0.0
C3523 C 0.01925 0.81947 0.1986 0.0
C3524 C 0.03812 0.8222 0.20533 0.0
C3525 C 0.05157 0.82443 0.19308 0.0
C3526 C 1.00489 0.81674 0.21142 0.0
C3527 C 1.00511 0.80305 0.22352 0.0
C3528 C 0.99015 0.8265 0.2106 0.0
C3529 C 0.98994 0.84206 0.19922 0.0
C3530 C 1.00522 0.85601 0.20099 0.0
C3531 C 1.00507 0.87051 0.19008 0.0
C3532 C 0.98966 0.87128 0.17743 0.0
C3533 C 0.97436 0.85758 0.17569 0.0
C3534 C 0.97445 0.84304 0.18655 0.0
C3535 C 0.94491 0.7995 0.27106 0.0
C3536 C 0.92735 0.79395 0.26099 0.0
C3537 C 0.96061 0.80366 0.26184 0.0
C3538 C 0.95896 0.8024 0.24246 0.0
C3539 C 0.94155 0.79663 0.2324 0.0
C3540 C 0.9259 0.79232 0.24156 0.0
C3541 C 0.97527 0.80736 0.23248 0.0
C3542 C 0.97541 0.82152 0.22099 0.0
C3543 C 0.99042 0.79819 0.23404 0.0
C3544 C 0.9909 0.78302 0.24585 0.0
C3545 C 0.97681 0.76799 0.24306 0.0
C3546 C 0.97734 0.75378 0.25432 0.0
C3547 C 0.99196 0.7544 0.26833 0.0
C3548 C 1.00611 0.7692 0.27106 0.0
C3549 C 1.00564 0.78345 0.25985 0.0
H3550 H 0.99235 0.74338 0.27703 0.0
H3551 H 0.98957 0.88251 0.16899 0.0
H3552 H 0.5459 0.35314 0.14732 0.0
H3553 H 0.54814 0.38212 0.13403 0.0
H3554 H 0.54499 0.35664 0.07955 0.0
H3555 H 0.54292 0.32753 0.09297 0.0
H3556 H 0.56779 0.38632 0.07866 0.0
H3557 H 0.50765 0.3775 0.09942 0.0
H3558 H 0.48465 0.37154 0.12161 0.0
H3559 H 0.51224 0.41729 0.15621 0.0
H3560 H 0.53554 0.4234 0.13433 0.0
H3561 H 0.55508 0.46514 0.03076 0.0
H3562 H 0.5527 0.43598 0.04356 0.0
H3563 H 0.55232 0.46035 0.09798 0.0
H3564 H 0.55416 0.48955 0.08502 0.0
H3565 H 0.53116 0.43099 0.0987 0.0
H3566 H 0.5916 0.43969 0.07849 0.0
H3567 H 0.61484 0.44574 0.05656 0.0
H3568 H 0.5872 0.40043 0.02134 0.0
H3569 H 0.56366 0.39423 0.04297 0.0
C3570 C 0.54559 0.3535 0.13246 0.0
C3571 C 0.54408 0.33733 0.12152 0.0
C3572 C 0.54676 0.37043 0.12467 0.0
C3573 C 0.54647 0.37243 0.10534 0.0
C3574 C 0.54524 0.35625 0.0944 0.0
C3575 C 0.54397 0.33926 0.10221 0.0
C3576 C 0.5476 0.39102 0.09674 0.0
C3577 C 0.55948 0.39585 0.08301 0.0
C3578 C 0.53738 0.40444 0.10215 0.0
C3579 C 0.52345 0.40079 0.11534 0.0
C3580 C 0.50889 0.38621 0.11183 0.0
C3581 C 0.49579 0.38282 0.12434 0.0
C3582 C 0.49702 0.394 0.14034 0.0
C3583 C 0.51133 0.40862 0.14383 0.0
C3584 C 0.52448 0.41206 0.13138 0.0
C3585 C 0.55467 0.46452 0.04552 0.0
C3586 C 0.55509 0.48044 0.05657 0.0
C3587 C 0.55341 0.44745 0.05305 0.0
C3588 C 0.55268 0.44507 0.07224 0.0
C3589 C 0.5529 0.461 0.08325 0.0
C3590 C 0.55409 0.47808 0.07569 0.0
C3591 C 0.55144 0.42636 0.08066 0.0
C3592 C 0.53951 0.4215 0.09435 0.0
C3593 C 0.56168 0.41294 0.07527 0.0
C3594 C 0.57577 0.41662 0.06225 0.0
C3595 C 0.59041 0.43109 0.06601 0.0
C3596 C 0.60365 0.43453 0.05364 0.0
C3597 C 0.60247 0.4235 0.03754 0.0
C3598 C 0.58808 0.40898 0.0338 0.0
C3599 C 0.57479 0.40549 0.04612 0.0
H3600 H 0.61273 0.42619 0.02799 0.0
H3601 H 0.48686 0.39136 0.15 0.0
H3602 H 1.01613 0.2887 0.35744 0.0
H3603 H 0.98522 0.28956 0.34155 0.0
H3604 H 0.96022 0.26584 0.38721 0.0
H3605 H 0.99116 0.26511 0.40319 0.0
H3606 H 0.93996 0.25114 0.35531 0.0
H3607 H 0.96261 0.31134 0.379 0.0
H3608 H 0.98468 0.3396 0.38347 0.0
H3609 H 0.97918 0.34489 0.32485 0.0
H3610 H 0.95726 0.31652 0.32001 0.0
H3611 H 0.84749 0.26615 0.32823 0.0
H3612 H 0.87826 0.26498 0.34384 0.0
H3613 H 0.90323 0.29661 0.30285 0.0
H3614 H 0.87232 0.29842 0.28766 0.0
H3615 H 0.92386 0.30704 0.33223 0.0
H3616 H 0.90205 0.24744 0.30763 0.0
H3617 H 0.88043 0.21894 0.30199 0.0
H3618 H 0.88506 0.21181 0.36026 0.0
H3619 H 0.90652 0.24039 0.36628 0.0
C3620 C 1.00411 0.28362 0.36418 0.0
C3621 C 1.00656 0.27684 0.38182 0.0
C3622 C 0.9862 0.28421 0.35502 0.0
C3623 C 0.9698 0.27794 0.36297 0.0
C3624 C 0.97226 0.27084 0.38045 0.0
C3625 C 0.99017 0.27046 0.38971 0.0
C3626 C 0.95034 0.27884 0.35325 0.0
C3627 C 0.93649 0.26348 0.35052 0.0
C3628 C 0.94532 0.29466 0.34625 0.0
C3629 C 0.95844 0.31172 0.34913 0.0
C3630 C 0.96622 0.31847 0.36705 0.0
C3631 C 0.97868 0.33451 0.36966 0.0
C3632 C 0.98337 0.34401 0.35445 0.0
C3633 C 0.97556 0.3375 0.33661 0.0
C3634 C 0.9631 0.32145 0.33393 0.0
C3635 C 0.85946 0.27282 0.32238 0.0
C3636 C 0.85694 0.28229 0.30637 0.0
C3637 C 0.87736 0.27203 0.33136 0.0
C3638 C 0.89379 0.28034 0.32463 0.0
C3639 C 0.89125 0.28992 0.30868 0.0
C3640 C 0.87331 0.29089 0.29981 0.0
C3641 C 0.91336 0.2793 0.3342 0.0
C3642 C 0.92726 0.29465 0.33694 0.0
C3643 C 0.9185 0.2634 0.34098 0.0
C3644 C 0.90575 0.24614 0.33742 0.0
C3645 C 0.89838 0.23984 0.31925 0.0
C3646 C 0.88615 0.22367 0.31598 0.0
C3647 C 0.88133 0.2136 0.33076 0.0
C3648 C 0.88878 0.21964 0.34883 0.0
C3649 C 0.90098 0.23582 0.35218 0.0
H3650 H 0.87186 0.20109 0.3282 0.0
H3651 H 0.99302 0.35644 0.3565 0.0
H3652 H 0.02533 0.71692 0.6402 0.0
H3653 H 0.02629 0.68743 0.62614 0.0
H3654 H 0.05735 0.71143 0.58428 0.0
H3655 H 0.05544 0.74101 0.59788 0.0
H3656 H 0.04073 0.68467 0.56705 0.0
H3657 H 0.07386 0.6848 0.62711 0.0
H3658 H 0.07958 0.68741 0.66119 0.0
H3659 H 0.03302 0.64607 0.6641 0.0
H3660 H 0.02692 0.64334 0.63004 0.0
H3661 H 0.06885 0.58685 0.57426 0.0
H3662 H 0.06758 0.61645 0.58826 0.0
H3663 H 0.02412 0.62208 0.54584 0.0
H3664 H 0.02588 0.59289 0.53155 0.0
H3665 H 0.0488 0.63425 0.60528 0.0
H3666 H 1.01726 0.66452 0.54071 0.0
H3667 H 1.01757 0.66261 0.50683 0.0
H3668 H 0.07007 0.64496 0.51332 0.0
H3669 H 0.07017 0.64696 0.54722 0.0
C3670 C 0.0324 0.71608 0.62797 0.0
C3671 C 0.04028 0.73201 0.6205 0.0
C3672 C 0.0332 0.69881 0.61987 0.0
C3673 C 0.0424 0.69618 0.60396 0.0
C3674 C 0.05011 0.71219 0.5964 0.0
C3675 C 0.04906 0.72949 0.60436 0.0
C3676 C 0.04371 0.67721 0.59517 0.0
C3677 C 0.04242 0.6738 0.57568 0.0
C3678 C 0.04639 0.66223 0.6056 0.0
C3679 C 0.0498 0.66404 0.62605 0.0
C3680 C 0.06475 0.67638 0.63503 0.0
C3681 C 0.06807 0.67786 0.65434 0.0
C3682 C 0.0566 0.66699 0.6648 0.0
C3683 C 0.04182 0.65457 0.65598 0.0
C3684 C 0.03844 0.65303 0.63668 0.0
C3685 C 0.05903 0.59433 0.56773 0.0
C3686 C 0.0476 0.58685 0.55136 0.0
C3687 C 0.05823 0.6116 0.57593 0.0
C3688 C 0.046 0.62261 0.56833 0.0
C3689 C 0.03429 0.61489 0.55219 0.0
C3690 C 0.03518 0.59771 0.54392 0.0
C3691 C 0.0454 0.64169 0.57722 0.0
C3692 C 0.04693 0.64512 0.5967 0.0
C3693 C 0.04348 0.65681 0.56681 0.0
C3694 C 0.0436 0.6557 0.54648 0.0
C3695 C 0.02889 0.66028 0.5349 0.0
C3696 C 0.02899 0.65918 0.5157 0.0
C3697 C 0.0438 0.65361 0.50793 0.0
C3698 C 0.05858 0.64921 0.51935 0.0
C3699 C 0.05855 0.65031 0.53855 0.0
H3700 H 0.04384 0.65274 0.49306 0.0
H3701 H 0.05924 0.66811 0.67975 0.0
H3702 H 0.59824 0.76982 0.85702 0.0
H3703 H 0.62586 0.77057 0.84076 0.0
H3704 H 0.6604 0.79206 0.89074 0.0
H3705 H 0.63265 0.79151 0.90696 0.0
H3706 H 0.67635 0.80767 0.86437 0.0
H3707 H 0.65517 0.74569 0.86951 0.0
H3708 H 0.63289 0.71754 0.86586 0.0
H3709 H 0.6265 0.72092 0.80696 0.0
H3710 H 0.64858 0.7492 0.81028 0.0
H3711 H 0.76241 0.79668 0.82992 0.0
H3712 H 0.7352 0.79572 0.84656 0.0
H3713 H 0.70073 0.76854 0.79883 0.0
H3714 H 0.72837 0.7683 0.78269 0.0
H3715 H 0.68458 0.75607 0.82429 0.0
H3716 H 0.70624 0.8183 0.81927 0.0
H3717 H 0.72938 0.84575 0.82323 0.0
H3718 H 0.73517 0.84202 0.88207 0.0
H3719 H 0.71221 0.81431 0.87844 0.0
C3720 C 0.61166 0.7747 0.8647 0.0
C3721 C 0.61268 0.78051 0.88363 0.0
C3722 C 0.62778 0.77502 0.85527 0.0
C3723 C 0.646 0.7811 0.86418 0.0
C3724 C 0.64697 0.78719 0.88306 0.0
C3725 C 0.63083 0.78682 0.89251 0.0
C3726 C 0.66371 0.78117 0.85401 0.0
C3727 C 0.67806 0.7962 0.85581 0.0
C3728 C 0.66663 0.76663 0.84222 0.0
C3729 C 0.65337 0.74965 0.84017 0.0
C3730 C 0.64891 0.74049 0.85579 0.0
C3731 C 0.63634 0.7245 0.85378 0.0
C3732 C 0.62825 0.71747 0.83619 0.0
C3733 C 0.63276 0.72639 0.82057 0.0
C3734 C 0.64531 0.74239 0.82251 0.0
C3735 C 0.74907 0.79056 0.82277 0.0
C3736 C 0.7481 0.78277 0.80455 0.0
C3737 C 0.73311 0.79017 0.83241 0.0
C3738 C 0.71495 0.78258 0.82423 0.0
C3739 C 0.71405 0.77468 0.806 0.0
C3740 C 0.73012 0.77464 0.79653 0.0
C3741 C 0.69725 0.78264 0.83449 0.0
C3742 C 0.68288 0.76761 0.83274 0.0
C3743 C 0.69431 0.79721 0.8463 0.0
C3744 C 0.70765 0.81413 0.84856 0.0
C3745 C 0.71253 0.82327 0.83304 0.0
C3746 C 0.72567 0.83886 0.83523 0.0
C3747 C 0.73386 0.84559 0.85288 0.0
C3748 C 0.72888 0.83675 0.8684 0.0
C3749 C 0.71578 0.82111 0.86629 0.0
H3750 H 0.74397 0.8577 0.85458 0.0
H3751 H 0.61852 0.70509 0.83466 0.0
H3752 H 0.44245 0.56706 0.70579 0.0
H3753 H 0.46502 0.57191 0.68345 0.0
H3754 H 0.44437 0.51942 0.65771 0.0
H3755 H 0.42179 0.51444 0.67999 0.0
H3756 H 0.48123 0.52469 0.67177 0.0
H3757 H 0.44035 0.55442 0.63426 0.0
H3758 H 0.42028 0.57655 0.62746 0.0
H3759 H 0.46666 0.6187 0.64162 0.0
H3760 H 0.48694 0.59685 0.64906 0.0
H3761 H 0.53469 0.52187 0.59795 0.0
H3762 H 0.51065 0.52192 0.61841 0.0
H3763 H 0.53446 0.57557 0.63891 0.0
H3764 H 0.55858 0.57573 0.61807 0.0
H3765 H 0.49704 0.57154 0.62865 0.0
H3766 H 0.53777 0.54224 0.66651 0.0
H3767 H 0.55805 0.52034 0.67369 0.0
H3768 H 0.51209 0.47781 0.65914 0.0
H3769 H 0.49157 0.49945 0.65161 0.0
C3770 C 0.44231 0.55678 0.69499 0.0
C3771 C 0.43059 0.54026 0.69478 0.0
C3772 C 0.45519 0.55959 0.68223 0.0
C3773 C 0.45644 0.54595 0.6691 0.0
C3774 C 0.44363 0.53006 0.66784 0.0
C3775 C 0.43072 0.52726 0.68054 0.0
C3776 C 0.47271 0.54713 0.65874 0.0
C3777 C 0.48454 0.53477 0.66212 0.0
C3778 C 0.47736 0.56078 0.64682 0.0
C3779 C 0.46514 0.57396 0.64246 0.0
C3780 C 0.44624 0.5684 0.63617 0.0
C3781 C 0.43483 0.5809 0.63216 0.0
C3782 C 0.44218 0.59901 0.63412 0.0
C3783 C 0.46097 0.60467 0.64013 0.0
C3784 C 0.47243 0.59223 0.64428 0.0
C3785 C 0.53504 0.5336 0.60703 0.0
C3786 C 0.5485 0.54881 0.60643 0.0
C3787 C 0.52129 0.53359 0.61873 0.0
C3788 C 0.52083 0.54873 0.63019 0.0
C3789 C 0.53462 0.56377 0.63013 0.0
C3790 C 0.54847 0.56377 0.61838 0.0
C3791 C 0.50534 0.54891 0.64148 0.0
C3792 C 0.49373 0.56153 0.63837 0.0
C3793 C 0.50087 0.53556 0.65377 0.0
C3794 C 0.51316 0.52248 0.65837 0.0
C3795 C 0.53201 0.52822 0.66471 0.0
C3796 C 0.54354 0.51585 0.66886 0.0
C3797 C 0.53637 0.4977 0.66684 0.0
C3798 C 0.51763 0.49187 0.66069 0.0
C3799 C 0.50603 0.50419 0.6565 0.0
H3800 H 0.54532 0.48814 0.67006 0.0
H3801 H 0.43333 0.60866 0.63092 0.0
H3802 H 0.79736 0.24033 0.99063 0.0
H3803 H 0.79806 0.255 0.96141 0.0
H3804 H 0.78742 0.20385 0.93103 0.0
H3805 H 0.78681 0.18921 0.95999 0.0
H3806 H 0.81575 0.22536 0.91913 0.0
H3807 H 0.75386 0.22952 0.93229 0.0
H3808 H 0.73024 0.23781 0.95105 0.0
H3809 H 0.75513 0.29274 0.95196 0.0
H3810 H 0.77907 0.28474 0.93341 0.0
H3811 H 0.79357 0.24778 0.82765 0.0
H3812 H 0.79306 0.23612 0.85811 0.0
H3813 H 0.80154 0.28938 0.88343 0.0
H3814 H 0.80162 0.30123 0.85281 0.0
H3815 H 0.77575 0.26851 0.8989 0.0
H3816 H 0.84236 0.2625 0.89575 0.0
H3817 H 0.86826 0.25395 0.88044 0.0
H3818 H 0.83467 0.20385 0.86095 0.0
H3819 H 0.80892 0.21176 0.877 0.0
C3820 C 0.79504 0.23224 0.9777 0.0
C3821 C 0.79205 0.21361 0.97763 0.0
C3822 C 0.79538 0.24063 0.96101 0.0
C3823 C 0.79272 0.23053 0.94399 0.0
C3824 C 0.78954 0.21194 0.94396 0.0
C3825 C 0.78915 0.20358 0.96056 0.0
C3826 C 0.79394 0.23914 0.92617 0.0
C3827 C 0.80683 0.23466 0.91467 0.0
C3828 C 0.78275 0.25168 0.92049 0.0
C3829 C 0.76838 0.25651 0.93164 0.0
C3830 C 0.7544 0.24335 0.93663 0.0
C3831 C 0.74093 0.248 0.94719 0.0
C3832 C 0.74122 0.26578 0.95274 0.0
C3833 C 0.75495 0.27896 0.94768 0.0
C3834 C 0.76846 0.27438 0.93713 0.0
C3835 C 0.79537 0.25708 0.83966 0.0
C3836 C 0.79774 0.27549 0.83771 0.0
C3837 C 0.79532 0.25036 0.85716 0.0
C3838 C 0.7978 0.26184 0.8732 0.0
C3839 C 0.79977 0.28023 0.8713 0.0
C3840 C 0.79975 0.28698 0.85376 0.0
C3841 C 0.79741 0.25455 0.89179 0.0
C3842 C 0.78471 0.25929 0.90344 0.0
C3843 C 0.80879 0.24227 0.89773 0.0
C3844 C 0.82368 0.23785 0.8872 0.0
C3845 C 0.8405 0.24972 0.88808 0.0
C3846 C 0.85519 0.24492 0.87944 0.0
C3847 C 0.85303 0.22849 0.8695 0.0
C3848 C 0.83628 0.21664 0.86853 0.0
C3849 C 0.82171 0.22119 0.87755 0.0
H3850 H 0.86437 0.2249 0.86266 0.0
H3851 H 0.73078 0.26936 0.96092 0.0
H3852 H 0.07594 0.48593 0.23606 0.0
H3853 H 0.06101 0.48437 0.20462 0.0
H3854 H 0.09761 0.4498 0.18712 0.0
H3855 H 0.11347 0.45236 0.21863 0.0
H3856 H 0.09934 0.47378 0.16607 0.0
H3857 H 0.04751 0.43713 0.18314 0.0
H3858 H 0.02274 0.42544 0.20177 0.0
H3859 H 0.99889 0.47254 0.19523 0.0
H3860 H 0.02367 0.48466 0.17679 0.0
H3861 H 0.03129 0.48826 0.08128 0.0
H3862 H 0.0358 0.47204 0.10917 0.0
H3863 H 0.07643 0.51628 0.1341 0.0
H3864 H 0.07232 0.53229 0.10633 0.0
H3865 H 0.03354 0.47677 0.14605 0.0
H3866 H 0.1136 0.50236 0.15278 0.0
H3867 H 0.13745 0.5105 0.13189 0.0
H3868 H 0.10351 0.47771 0.0875 0.0
H3869 H 0.07962 0.46908 0.1082 0.0
C3870 C 0.08049 0.47758 0.22564 0.0
C3871 C 0.096 0.46942 0.22974 0.0
C3872 C 0.07179 0.47655 0.20759 0.0
C3873 C 0.07804 0.46688 0.19334 0.0
C3874 C 0.09256 0.45745 0.19779 0.0
C3875 C 0.10158 0.45884 0.21582 0.0
C3876 C 0.07148 0.46913 0.1737 0.0
C3877 C 0.08489 0.47409 0.16168 0.0
C3878 C 0.05255 0.46901 0.1675 0.0
C3879 C 0.03752 0.46183 0.17858 0.0
C3880 C 0.03706 0.44506 0.18575 0.0
C3881 C 0.023 0.43834 0.19628 0.0
C3882 C 1.00925 0.44825 0.19969 0.0
C3883 C 1.00953 0.46488 0.19255 0.0
C3884 C 0.02357 0.47166 0.18202 0.0
C3885 C 0.04092 0.49463 0.09287 0.0
C3886 C 0.05164 0.51144 0.09157 0.0
C3887 C 0.04349 0.48534 0.10875 0.0
C3888 C 0.05677 0.4928 0.12348 0.0
C3889 C 0.06644 0.51011 0.12269 0.0
C3890 C 0.06403 0.51928 0.10684 0.0
C3891 C 0.06156 0.48241 0.13934 0.0
C3892 C 0.04787 0.47593 0.15046 0.0
C3893 C 0.08012 0.4804 0.14444 0.0
C3894 C 0.09476 0.48513 0.13206 0.0
C3895 C 0.11129 0.49674 0.13862 0.0
C3896 C 0.1248 0.50147 0.12679 0.0
C3897 C 0.12198 0.49465 0.10838 0.0
C3898 C 0.10567 0.48301 0.10176 0.0
C3899 C 0.09213 0.4782 0.11354 0.0
H3900 H 0.13244 0.49836 0.09923 0.0
H3901 H 0.99838 0.44303 0.20785 0.0
H3902 H 0.80659 0.86456 0.49019 0.0
H3903 H 0.80921 0.8505 0.4597 0.0
H3904 H 0.7639 0.87393 0.43573 0.0
H3905 H 0.76164 0.8885 0.46615 0.0
H3906 H 0.76141 0.83685 0.42225 0.0
H3907 H 0.80658 0.89083 0.42796 0.0
H3908 H 0.8335 0.91192 0.44328 0.0
H3909 H 0.86741 0.87155 0.44095 0.0
H3910 H 0.8406 0.85013 0.42586 0.0
H3911 H 0.77034 0.8134 0.32719 0.0
H3912 H 0.76689 0.82799 0.35699 0.0
H3913 H 0.82281 0.82313 0.37712 0.0
H3914 H 0.8266 0.80965 0.34687 0.0
H3915 H 0.81949 0.85088 0.39315 0.0
H3916 H 0.77701 0.79643 0.39019 0.0
H3917 H 0.75154 0.77327 0.37561 0.0
H3918 H 0.71415 0.81072 0.37489 0.0
H3919 H 0.73947 0.83418 0.38932 0.0
C3920 C 0.79708 0.86675 0.47851 0.0
C3921 C 0.78384 0.87784 0.48106 0.0
C3922 C 0.79864 0.85864 0.46085 0.0
C3923 C 0.7868 0.86091 0.44487 0.0
C3924 C 0.7733 0.87168 0.44748 0.0
C3925 C 0.77202 0.88014 0.46508 0.0
C3926 C 0.78878 0.85245 0.42563 0.0
C3927 C 0.77408 0.84016 0.41587 0.0
C3928 C 0.80539 0.85594 0.41702 0.0
C3929 C 0.82154 0.86883 0.42594 0.0
C3930 C 0.81974 0.88641 0.43085 0.0
C3931 C 0.83498 0.89843 0.43947 0.0
C3932 C 0.85214 0.89306 0.44313 0.0
C3933 C 0.8541 0.87568 0.43813 0.0
C3934 C 0.83889 0.86359 0.42953 0.0
C3935 C 0.78195 0.81536 0.33792 0.0
C3936 C 0.79876 0.81004 0.33419 0.0
C3937 C 0.77991 0.82367 0.35535 0.0
C3938 C 0.79435 0.82657 0.37027 0.0
C3939 C 0.81119 0.82132 0.36641 0.0
C3940 C 0.81337 0.8134 0.34885 0.0
C3941 C 0.7921 0.8351 0.38956 0.0
C3942 C 0.80678 0.84744 0.39942 0.0
C3943 C 0.77563 0.83127 0.39849 0.0
C3944 C 0.76017 0.81709 0.39063 0.0
C3945 C 0.76335 0.79972 0.38691 0.0
C3946 C 0.74896 0.78656 0.37866 0.0
C3947 C 0.73128 0.79055 0.37423 0.0
C3948 C 0.72788 0.80767 0.37828 0.0
C3949 C 0.74224 0.82091 0.38652 0.0
H3950 H 0.72024 0.78037 0.36765 0.0
H3951 H 0.86393 0.90239 0.44981 0.0
H3952 H 0.47502 0.52661 0.76466 0.0
H3953 H 0.50187 0.53172 0.78834 0.0
H3954 H 0.4682 0.54936 0.8281 0.0
H3955 H 0.44125 0.54407 0.80459 0.0
H3956 H 0.50524 0.57054 0.82882 0.0
H3957 H 0.47349 0.50907 0.82846 0.0
H3958 H 0.46093 0.47939 0.81325 0.0
H3959 H 0.51476 0.47444 0.79823 0.0
H3960 H 0.52757 0.50423 0.81314 0.0
H3961 H 0.53629 0.55439 0.91912 0.0
H3962 H 0.52345 0.56011 0.8884 0.0
H3963 H 0.5594 0.52853 0.8642 0.0
H3964 H 0.57173 0.52211 0.8952 0.0
H3965 H 0.52685 0.51643 0.85079 0.0
H3966 H 0.56039 0.57486 0.85729 0.0
H3967 H 0.57359 0.6047 0.87169 0.0
H3968 H 0.51888 0.61643 0.87411 0.0
H3969 H 0.50532 0.58656 0.86004 0.0
C3970 C 0.47339 0.5317 0.77842 0.0
C3971 C 0.45605 0.5348 0.78288 0.0
C3972 C 0.48873 0.53467 0.79187 0.0
C3973 C 0.48696 0.54094 0.80989 0.0
C3974 C 0.46982 0.54463 0.8142 0.0
C3975 C 0.45443 0.54146 0.80083 0.0
C3976 C 0.50244 0.54218 0.82474 0.0
C3977 C 0.51006 0.55879 0.83374 0.0
C3978 C 0.50912 0.52687 0.83053 0.0
C3979 C 0.50143 0.50895 0.82168 0.0
C3980 C 0.4826 0.50171 0.82176 0.0
C3981 C 0.47545 0.48486 0.81323 0.0
C3982 C 0.48702 0.47506 0.80472 0.0
C3983 C 0.5058 0.48207 0.80479 0.0
C3984 C 0.51301 0.49893 0.81327 0.0
C3985 C 0.54194 0.54918 0.90727 0.0
C3986 C 0.5549 0.5377 0.90949 0.0
C3987 C 0.53463 0.55254 0.88963 0.0
C3988 C 0.54046 0.5448 0.87386 0.0
C3989 C 0.55461 0.53457 0.87613 0.0
C3990 C 0.56167 0.53093 0.89381 0.0
C3991 C 0.5296 0.54488 0.85551 0.0
C3992 C 0.52266 0.52842 0.84576 0.0
C3993 C 0.52376 0.56041 0.84896 0.0
C3994 C 0.53183 0.57839 0.85762 0.0
C3995 C 0.55116 0.58374 0.86101 0.0
C3996 C 0.55871 0.60068 0.86909 0.0
C3997 C 0.54708 0.61247 0.87376 0.0
C3998 C 0.52787 0.60732 0.8704 0.0
C3999 C 0.52024 0.59037 0.86237 0.0
H4000 H 0.55296 0.62557 0.88004 0.0
H4001 H 0.48146 0.46202 0.79813 0.0
H4002 H 0.80097 0.23319 0.07698 0.0
H4003 H 0.80459 0.2436 0.10972 0.0
H4004 H 0.80447 0.18998 0.12528 0.0
H4005 H 0.80077 0.17948 0.09261 0.0
H4006 H 0.78286 0.20682 0.1457 0.0
H4007 H 0.84459 0.21888 0.12899 0.0
H4008 H 0.86918 0.23095 0.11028 0.0
H4009 H 0.85921 0.28375 0.12239 0.0
H4010 H 0.83437 0.27198 0.14097 0.0
H4011 H 0.80925 0.23563 0.24121 0.0
H4012 H 0.80988 0.22144 0.21037 0.0
H4013 H 0.81288 0.27241 0.18707 0.0
H4014 H 0.81277 0.28662 0.21756 0.0
H4015 H 0.8349 0.25428 0.17145 0.0
H4016 H 0.77144 0.242 0.18588 0.0
H4017 H 0.74694 0.2301 0.20478 0.0
H4018 H 0.76007 0.17786 0.1969 0.0
H4019 H 0.78486 0.18953 0.17819 0.0
C4020 C 0.80172 0.22362 0.08738 0.0
C4021 C 0.80065 0.20552 0.0822 0.0
C4022 C 0.80385 0.22959 0.10609 0.0
C4023 C 0.80499 0.21759 0.11999 0.0
C4024 C 0.80365 0.19948 0.11483 0.0
C4025 C 0.80159 0.19352 0.09614 0.0
C4026 C 0.80759 0.22396 0.1399 0.0
C4027 C 0.7944 0.21701 0.1514 0.0
C4028 C 0.82251 0.23739 0.14734 0.0
C4029 C 0.83751 0.24453 0.13624 0.0
C4030 C 0.84754 0.23306 0.12755 0.0
C4031 C 0.86154 0.23984 0.11699 0.0
C4032 C 0.86573 0.2581 0.11511 0.0
C4033 C 0.85594 0.26961 0.12384 0.0
C4034 C 0.84192 0.26289 0.1344 0.0
C4035 C 0.81028 0.24382 0.22954 0.0
C4036 C 0.81085 0.26227 0.23192 0.0
C4037 C 0.81052 0.23568 0.21189 0.0
C4038 C 0.81115 0.24582 0.19629 0.0
C4039 C 0.81237 0.26427 0.19881 0.0
C4040 C 0.81224 0.27238 0.21635 0.0
C4041 C 0.80996 0.23744 0.17719 0.0
C4042 C 0.82344 0.24399 0.16581 0.0
C4043 C 0.79526 0.2237 0.16987 0.0
C4044 C 0.78014 0.21666 0.18082 0.0
C4045 C 0.76917 0.228 0.18827 0.0
C4046 C 0.75522 0.22129 0.19893 0.0
C4047 C 0.75196 0.20324 0.20205 0.0
C4048 C 0.76262 0.19184 0.19449 0.0
C4049 C 0.77662 0.19849 0.18386 0.0
H4050 H 0.74115 0.19808 0.21031 0.0
H4051 H 0.87657 0.26333 0.10693 0.0
H4052 H 0.13684 0.53804 0.32387 0.0
H4053 H 0.12357 0.55909 0.34251 0.0
H4054 H 0.07006 0.52525 0.33209 0.0
H4055 H 0.08322 0.50418 0.31334 0.0
H4056 H 0.06833 0.56032 0.32642 0.0
H4057 H 0.09637 0.52642 0.37252 0.0
H4058 H 0.12177 0.5146 0.38969 0.0
H4059 H 0.15059 0.56762 0.40509 0.0
H4060 H 0.12551 0.57977 0.38767 0.0
H4061 H 1.01686 0.56431 0.39924 0.0
H4062 H 0.03315 0.56306 0.37242 0.0
H4063 H 0.07597 0.60548 0.39728 0.0
H4064 H 0.05919 0.6074 0.42433 0.0
H4065 H 0.08854 0.57488 0.39326 0.0
H4066 H 0.05625 0.60832 0.35325 0.0
H4067 H 0.02964 0.61959 0.33768 0.0
H4068 H 1.00772 0.5676 0.31207 0.0
H4069 H 0.03403 0.55592 0.32769 0.0
C4070 C 0.12229 0.53499 0.32573 0.0
C4071 C 0.11105 0.51944 0.31721 0.0
C4072 C 0.11474 0.54706 0.33633 0.0
C4073 C 0.09584 0.54375 0.3386 0.0
C4074 C 0.08467 0.52809 0.33037 0.0
C4075 C 0.09222 0.51599 0.31982 0.0
C4076 C 0.08759 0.5565 0.34958 0.0
C4077 C 0.07267 0.56353 0.34105 0.0
C4078 C 0.09391 0.56133 0.36844 0.0
C4079 C 0.10922 0.554 0.37849 0.0
C4080 C 0.10825 0.53556 0.37932 0.0
C4081 C 0.12257 0.5288 0.38915 0.0
C4082 C 0.13784 0.54035 0.39838 0.0
C4083 C 0.13881 0.55869 0.39784 0.0
C4084 C 0.12456 0.56552 0.38797 0.0
C4085 C 0.02914 0.57418 0.39879 0.0
C4086 C 0.03701 0.58555 0.41439 0.0
C4087 C 0.03854 0.57339 0.38325 0.0
C4088 C 0.05597 0.58395 0.38296 0.0
C4089 C 0.06261 0.59707 0.39733 0.0
C4090 C 0.05305 0.59803 0.41285 0.0
C4091 C 0.06862 0.57809 0.37034 0.0
C4092 C 0.08449 0.57228 0.37849 0.0
C4093 C 0.06309 0.57433 0.3512 0.0
C4094 C 0.04716 0.58123 0.3417 0.0
C4095 C 0.0457 0.59925 0.3444 0.0
C4096 C 0.03067 0.60572 0.33554 0.0
C4097 C 1.017 0.59432 0.3239 0.0
C4098 C 1.01834 0.57642 0.32107 0.0
C4099 C 0.03334 0.56988 0.3299 0.0
H4100 H 1.00537 0.59936 0.31706 0.0
H4101 H 0.14888 0.53509 0.40602 0.0
H4102 H 0.79882 0.90351 0.60452 0.0
H4103 H 0.79991 0.88926 0.63387 0.0
H4104 H 0.77565 0.839 0.60504 0.0
H4105 H 0.77403 0.85347 0.57566 0.0
H4106 H 0.76189 0.83796 0.63537 0.0
H4107 H 0.82569 0.85351 0.62627 0.0
H4108 H 0.8545 0.873 0.62071 0.0
H4109 H 0.85254 0.9052 0.67019 0.0
H4110 H 0.82359 0.88601 0.67592 0.0
H4111 H 0.78344 0.78483 0.71119 0.0
H4112 H 0.78193 0.79977 0.68231 0.0
H4113 H 0.80054 0.85029 0.71276 0.0
H4114 H 0.80213 0.83527 0.74189 0.0
H4115 H 0.81717 0.85131 0.68197 0.0
H4116 H 0.75332 0.83468 0.69105 0.0
H4117 H 0.72501 0.81433 0.69643 0.0
H4118 H 0.72781 0.78311 0.64653 0.0
H4119 H 0.75627 0.80315 0.64096 0.0
C4120 C 0.79372 0.88939 0.60427 0.0
C4121 C 0.7864 0.87988 0.5872 0.0
C4122 C 0.79451 0.88105 0.62135 0.0
C4123 C 0.78827 0.86259 0.62239 0.0
C4124 C 0.78072 0.85312 0.60529 0.0
C4125 C 0.77984 0.86151 0.5882 0.0
C4126 C 0.78934 0.85334 0.64099 0.0
C4127 C 0.7742 0.84084 0.64529 0.0
C4128 C 0.80502 0.85685 0.65483 0.0
C4129 C 0.82237 0.86844 0.65141 0.0
C4130 C 0.83133 0.86482 0.63589 0.0
C4131 C 0.8477 0.8758 0.63272 0.0
C4132 C 0.85531 0.89036 0.64506 0.0
C4133 C 0.8466 0.89394 0.66062 0.0
C4134 C 0.83022 0.88301 0.66385 0.0
C4135 C 0.7871 0.79916 0.71197 0.0
C4136 C 0.79276 0.80858 0.72945 0.0
C4137 C 0.78616 0.80785 0.69514 0.0
C4138 C 0.79083 0.82653 0.69469 0.0
C4139 C 0.79671 0.83598 0.71213 0.0
C4140 C 0.79753 0.82727 0.72905 0.0
C4141 C 0.78975 0.83597 0.67626 0.0
C4142 C 0.80488 0.84848 0.67201 0.0
C4143 C 0.77414 0.83236 0.66241 0.0
C4144 C 0.75703 0.82032 0.66569 0.0
C4145 C 0.74797 0.8234 0.68129 0.0
C4146 C 0.73188 0.81193 0.68436 0.0
C4147 C 0.72464 0.79741 0.67186 0.0
C4148 C 0.73345 0.79435 0.65622 0.0
C4149 C 0.74955 0.80577 0.65309 0.0
H4150 H 0.71219 0.78855 0.67426 0.0
H4151 H 0.86799 0.89884 0.64258 0.0
H4152 H 0.79574 0.44798 0.5324 0.0
H4153 H 0.77462 0.46882 0.5371 0.0
H4154 H 0.72995 0.42506 0.53944 0.0
H4155 H 0.75106 0.40405 0.53476 0.0
H4156 H 0.71932 0.45329 0.51954 0.0
H4157 H 0.75122 0.44398 0.57835 0.0
H4158 H 0.77878 0.44262 0.60019 0.0
H4159 H 0.79916 0.49775 0.59451 0.0
H4160 H 0.77183 0.49936 0.5724 0.0
H4161 H 0.65848 0.49891 0.56397 0.0
H4162 H 0.6788 0.4782 0.5561 0.0
H4163 H 0.72522 0.5214 0.56119 0.0
H4164 H 0.70492 0.54218 0.56941 0.0
H4165 H 0.73507 0.49346 0.57663 0.0
H4166 H 0.70301 0.50325 0.51837 0.0
H4167 H 0.67576 0.50473 0.49615 0.0
H4168 H 0.6559 0.44923 0.50023 0.0
H4169 H 0.68293 0.44747 0.52266 0.0
C4170 C 0.78136 0.44277 0.53363 0.0
C4171 C 0.77507 0.42438 0.53335 0.0
C4172 C 0.76933 0.4547 0.53637 0.0
C4173 C 0.7508 0.44846 0.53885 0.0
C4174 C 0.74422 0.43011 0.53759 0.0
C4175 C 0.75629 0.41814 0.53495 0.0
C4176 C 0.73867 0.4611 0.54392 0.0
C4177 C 0.72261 0.46195 0.5321 0.0
C4178 C 0.74323 0.47262 0.56014 0.0
C4179 C 0.75958 0.47174 0.57358 0.0
C4180 C 0.76165 0.45577 0.58165 0.0
C4181 C 0.77721 0.45496 0.5941 0.0
C4182 C 0.79074 0.47008 0.5987 0.0
C4183 C 0.78869 0.48605 0.59091 0.0
C4184 C 0.77316 0.48692 0.57843 0.0
C4185 C 0.67302 0.50399 0.56336 0.0
C4186 C 0.68011 0.52218 0.56714 0.0
C4187 C 0.6846 0.49216 0.55881 0.0
C4188 C 0.70347 0.49829 0.55767 0.0
C4189 C 0.71069 0.51638 0.5619 0.0
C4190 C 0.69911 0.52823 0.56663 0.0
C4191 C 0.71566 0.48578 0.55221 0.0
C4192 C 0.73175 0.48489 0.564 0.0
C4193 C 0.71113 0.47429 0.53591 0.0
C4194 C 0.69492 0.47527 0.52232 0.0
C4195 C 0.69277 0.49139 0.51462 0.0
C4196 C 0.67737 0.49227 0.50198 0.0
C4197 C 0.66408 0.47709 0.49681 0.0
C4198 C 0.6662 0.46098 0.50425 0.0
C4199 C 0.68156 0.46003 0.51692 0.0
H4200 H 0.65217 0.4778 0.48702 0.0
H4201 H 0.80278 0.46943 0.60834 0.0
H4202 H 0.27099 0.10162 0.51821 0.0
H4203 H 0.23913 0.08573 0.51866 0.0
H4204 H 0.22301 0.13392 0.53912 0.0
H4205 H 0.25471 0.14982 0.53851 0.0
H4206 H 0.20736 0.10692 0.55765 0.0
H4207 H 0.21041 0.11554 0.49307 0.0
H4208 H 0.22304 0.11327 0.46317 0.0
H4209 H 0.21335 0.05642 0.46351 0.0
H4210 H 0.20088 0.05837 0.49355 0.0
H4211 H 0.10937 0.0795 0.54699 0.0
H4212 H 0.14128 0.09378 0.54563 0.0
H4213 H 0.15204 0.04673 0.51683 0.0
H4214 H 0.11957 0.03261 0.51745 0.0
H4215 H 0.17116 0.07209 0.50278 0.0
H4216 H 0.1685 0.06244 0.56661 0.0
H4217 H 0.1568 0.06359 0.59707 0.0
H4218 H 0.16702 0.12057 0.59922 0.0
H4219 H 0.17857 0.11975 0.56865 0.0
C4220 C 0.26069 0.10892 0.52276 0.0
C4221 C 0.26578 0.12721 0.52825 0.0
C4222 C 0.24225 0.09975 0.52295 0.0
C4223 C 0.22809 0.10841 0.52879 0.0
C4224 C 0.23328 0.12663 0.5345 0.0
C4225 C 0.25161 0.13583 0.53408 0.0
C4226 C 0.20809 0.09865 0.52916 0.0
C4227 C 0.19946 0.09952 0.54551 0.0
C4228 C 0.19745 0.08831 0.5137 0.0
C4229 C 0.2049 0.08711 0.49565 0.0
C4230 C 0.21111 0.10256 0.48684 0.0
C4231 C 0.21821 0.10133 0.46985 0.0
C4232 C 0.21905 0.08471 0.46147 0.0
C4233 C 0.21273 0.06929 0.47004 0.0
C4234 C 0.20563 0.07044 0.48703 0.0
C4235 C 0.11844 0.07201 0.54042 0.0
C4236 C 0.11148 0.05462 0.53253 0.0
C4237 C 0.13704 0.08027 0.53977 0.0
C4238 C 0.1499 0.07147 0.53156 0.0
C4239 C 0.1429 0.05412 0.52342 0.0
C4240 C 0.12413 0.0459 0.52385 0.0
C4241 C 0.17029 0.08042 0.5313 0.0
C4242 C 0.17902 0.07943 0.51498 0.0
C4243 C 0.18115 0.09046 0.54689 0.0
C4244 C 0.17423 0.09102 0.56526 0.0
C4245 C 0.16813 0.07521 0.57353 0.0
C4246 C 0.16155 0.0758 0.59082 0.0
C4247 C 0.16112 0.09214 0.60005 0.0
C4248 C 0.16733 0.10792 0.59204 0.0
C4249 C 0.17392 0.1074 0.57474 0.0
H4250 H 0.15602 0.09257 0.61344 0.0
H4251 H 0.22455 0.08379 0.44832 0.0
H4252 H 0.24087 0.03305 0.81813 0.0
H4253 H 0.2627 0.01326 0.81156 0.0
H4254 H 0.22241 0.96809 0.82178 0.0
H4255 H 0.20079 0.98773 0.82867 0.0
H4256 H 0.25596 0.96597 0.83828 0.0
H4257 H 0.22985 0.9799 0.7776 0.0
H4258 H 0.22329 1.00021 0.75348 0.0
H4259 H 0.28156 0.01899 0.75367 0.0
H4260 H 0.28845 0.99893 0.77797 0.0
H4261 H 0.26935 0.8894 0.79105 0.0
H4262 H 0.25832 0.91643 0.80027 0.0
H4263 H 0.31044 0.94776 0.79097 0.0
H4264 H 0.32183 0.92053 0.78199 0.0
H4265 H 0.27859 0.96151 0.77672 0.0
H4266 H 0.3039 0.94178 0.8331 0.0
H4267 H 0.30932 0.92038 0.85638 0.0
H4268 H 0.25167 0.91201 0.86434 0.0
H4269 H 0.24578 0.93287 0.8407 0.0
C4270 C 0.23673 0.01889 0.81899 0.0
C4271 C 0.21915 0.01189 0.82387 0.0
C4272 C 0.24918 1.00763 0.8152 0.0
C4273 C 0.24412 0.98922 0.81609 0.0
C4274 C 0.22661 0.98227 0.82109 0.0
C4275 C 0.21424 0.9935 0.82496 0.0
C4276 C 0.25678 0.97691 0.81167 0.0
C4277 C 0.26089 0.96496 0.82482 0.0
C4278 C 0.26381 0.9761 0.79436 0.0
C4279 C 0.25965 0.9881 0.77975 0.0
C4280 C 0.24125 0.98847 0.7726 0.0
C4281 C 0.23747 0.99991 0.75888 0.0
C4282 C 0.25199 1.01093 0.75209 0.0
C4283 C 0.27033 1.01048 0.75897 0.0
C4284 C 0.27418 0.99908 0.77271 0.0
C4285 C 0.27856 0.90201 0.79109 0.0
C4286 C 0.29656 0.90283 0.78608 0.0
C4287 C 0.27221 0.91743 0.7963 0.0
C4288 C 0.28372 0.93399 0.7966 0.0
C4289 C 0.30145 0.93503 0.79092 0.0
C4290 C 0.30788 0.91951 0.78574 0.0
C4291 C 0.27692 0.95005 0.80301 0.0
C4292 C 0.27402 0.96276 0.79033 0.0
C4293 C 0.27087 0.9515 0.82073 0.0
C4294 C 0.27438 0.93886 0.835 0.0
C4295 C 0.29233 0.93523 0.83965 0.0
C4296 C 0.29549 0.92316 0.85292 0.0
C4297 C 0.28084 0.91476 0.86178 0.0
C4298 C 0.26301 0.91843 0.8574 0.0
C4299 C 0.25975 0.93038 0.84406 0.0
H4300 H 0.28331 0.90545 0.87207 0.0
H4301 H 0.24904 0.01977 0.74147 0.0
H4302 H 0.38097 0.90323 0.0376 0.0
H4303 H 0.41164 0.92201 0.04365 0.0
H4304 H 0.38742 0.96312 0.06955 0.0
H4305 H 0.35686 0.94473 0.063 0.0
H4306 H 0.40819 0.97693 0.04652 0.0
H4307 H 0.41622 0.93884 0.09488 0.0
H4308 H 0.41584 0.91051 0.1096 0.0
H4309 H 0.45633 0.89683 0.07566 0.0
H4310 H 0.45676 0.92497 0.06053 0.0
H4311 H 0.51417 1.01056 0.07453 0.0
H4312 H 0.48481 0.9939 0.08267 0.0
H4313 H 0.46455 0.9841 0.02476 0.0
H4314 H 0.49318 1.00053 0.01657 0.0
H4315 H 0.46641 0.95804 0.07205 0.0
H4316 H 0.42135 0.99094 0.01825 0.0
H4317 H 0.42189 0.02004 1.00508 0.0
H4318 H 0.45486 0.04571 0.05412 0.0
H4319 H 0.4543 0.01681 0.06771 0.0
C4320 C 0.38227 0.91623 0.04467 0.0
C4321 C 0.36654 0.9226 0.04965 0.0
C4322 C 0.3998 0.9269 0.04829 0.0
C4323 C 0.40188 0.94395 0.05722 0.0
C4324 C 0.38619 0.95005 0.06262 0.0
C4325 C 0.36871 0.93953 0.05882 0.0
C4326 C 0.42005 0.95606 0.05946 0.0
C4327 C 0.42086 0.97283 0.05232 0.0
C4328 C 0.43658 0.95094 0.06741 0.0
C4329 C 0.43642 0.93399 0.07648 0.0
C4330 C 0.42495 0.92974 0.09045 0.0
C4331 C 0.42474 0.91372 0.09889 0.0
C4332 C 0.43603 0.90187 0.09355 0.0
C4333 C 0.44759 0.90603 0.07978 0.0
C4334 C 0.44783 0.92203 0.07129 0.0
C4335 C 0.5034 1.00487 0.06359 0.0
C4336 C 0.50599 1.00701 0.04492 0.0
C4337 C 0.48673 0.99531 0.06825 0.0
C4338 C 0.47249 0.98798 0.05429 0.0
C4339 C 0.47526 0.98987 0.03574 0.0
C4340 C 0.49173 0.9993 0.03111 0.0
C4341 C 0.4544 0.97847 0.05854 0.0
C4342 C 0.45362 0.96221 0.06673 0.0
C4343 C 0.43778 0.98415 0.0519 0.0
C4344 C 0.43783 1.00167 0.04397 0.0
C4345 C 0.4286 1.0028 0.02629 0.0
C4346 C 0.42894 0.01927 0.01873 0.0
C4347 C 0.43843 0.03471 0.02875 0.0
C4348 C 0.44755 0.03373 0.04636 0.0
C4349 C 0.44724 0.01731 0.05399 0.0
H4350 H 0.43869 0.04744 0.02286 0.0
H4351 H 0.43586 0.88947 0.1001 0.0
H4352 H 0.92627 0.62989 0.80589 0.0
H4353 H 0.90292 0.64462 0.78971 0.0
H4354 H 0.94171 0.66465 0.75219 0.0
H4355 H 0.9651 0.64967 0.76809 0.0
H4356 H 0.91427 0.68835 0.76564 0.0
H4357 H 0.91903 0.63117 0.73583 0.0
H4358 H 0.92157 0.59955 0.73728 0.0
H4359 H 0.86954 0.58928 0.75975 0.0
H4360 H 0.86689 0.62094 0.75879 0.0
H4361 H 0.84033 0.7057 0.70343 0.0
H4362 H 0.86864 0.69365 0.71141 0.0
H4363 H 0.84006 0.65808 0.74716 0.0
H4364 H 0.81227 0.67045 0.74022 0.0
H4365 H 0.86543 0.64288 0.7304 0.0
H4366 H 0.86083 0.69681 0.76451 0.0
H4367 H 0.85852 0.72823 0.77092 0.0
H4368 H 0.90859 0.7444 0.74635 0.0
H4369 H 0.91097 0.71306 0.73942 0.0
C4370 C 0.93005 0.63794 0.79462 0.0
C4371 C 0.94737 0.63849 0.78807 0.0
C4372 C 0.91669 0.64626 0.78536 0.0
C4373 C 0.92063 0.65541 0.76965 0.0
C4374 C 0.9385 0.65756 0.76426 0.0
C4375 C 0.9518 0.64901 0.77335 0.0
C4376 C 0.90541 0.66061 0.7576 0.0
C4377 C 0.9038 0.67854 0.75751 0.0
C4378 C 0.89164 0.64761 0.74749 0.0
C4379 C 0.89284 0.62845 0.74736 0.0
C4380 C 0.90819 0.62219 0.74118 0.0
C4381 C 0.90965 0.60426 0.74192 0.0
C4382 C 0.89575 0.59241 0.74864 0.0
C4383 C 0.88031 0.59847 0.75456 0.0
C4384 C 0.87881 0.6164 0.7539 0.0
C4385 C 0.83995 0.6951 0.71275 0.0
C4386 C 0.82402 0.68944 0.7215 0.0
C4387 C 0.85613 0.68819 0.71721 0.0
C4388 C 0.85648 0.67527 0.73017 0.0
C4389 C 0.84007 0.6681 0.73717 0.0
C4390 C 0.82403 0.67517 0.73299 0.0
C4391 C 0.87413 0.67075 0.73839 0.0
C4392 C 0.87618 0.65285 0.73792 0.0
C4393 C 0.8881 0.68377 0.74835 0.0
C4394 C 0.88592 0.70259 0.75118 0.0
C4395 C 0.87113 0.70706 0.76012 0.0
C4396 C 0.86986 0.72485 0.76393 0.0
C4397 C 0.88343 0.73829 0.75909 0.0
C4398 C 0.89809 0.73398 0.75009 0.0
C4399 C 0.89939 0.71621 0.74617 0.0
H4400 H 0.88267 0.75203 0.76251 0.0
H4401 H 0.89692 0.57855 0.74925 0.0
H4402 H 0.85778 0.60517 0.0161 0.0
H4403 H 0.88488 0.59037 0.01722 0.0
H4404 H 0.91821 0.63647 0.04738 0.0
H4405 H 0.89117 0.65153 0.04555 0.0
H4406 H 0.94065 0.6252 0.02837 0.0
H4407 H 0.9006 0.59086 0.06572 0.0
H4408 H 0.87181 0.57277 0.07343 0.0
H4409 H 0.87395 0.53436 0.02906 0.0
H4410 H 0.90266 0.55234 0.02096 0.0
H4411 H 1.01793 0.58085 0.05511 0.0
H4412 H 0.99092 0.59575 0.05386 0.0
H4413 H 0.95853 0.55133 0.02021 0.0
H4414 H 0.98553 0.53621 0.02179 0.0
H4415 H 0.93586 0.56179 0.04119 0.0
H4416 H 0.97677 0.59681 1.00451 0.0
H4417 H 1.00603 0.61501 0.99809 0.0
H4418 H 1.00282 0.65234 0.0431 0.0
H4419 H 0.97361 0.63426 0.0499 0.0
C4420 C 0.87082 0.61226 0.02305 0.0
C4421 C 0.87173 0.62979 0.03079 0.0
C4422 C 0.88661 0.60358 0.02389 0.0
C4423 C 0.9043 0.61171 0.03283 0.0
C4424 C 0.90521 0.62936 0.04038 0.0
C4425 C 0.88944 0.63811 0.03939 0.0
C4426 C 0.9216 0.60215 0.03414 0.0
C4427 C 0.93939 0.61138 0.03145 0.0
C4428 C 0.9209 0.58385 0.03782 0.0
C4429 C 0.90366 0.57304 0.04261 0.0
C4430 C 0.89486 0.57861 0.05753 0.0
C4431 C 0.87857 0.56837 0.06198 0.0
C4432 C 0.87103 0.55245 0.05171 0.0
C4433 C 0.87979 0.54671 0.03699 0.0
C4434 C 0.89608 0.55691 0.03247 0.0
C4435 C 1.00513 0.5741 0.04739 0.0
C4436 C 1.00449 0.55702 0.03856 0.0
C4437 C 0.98941 0.58287 0.04651 0.0
C4438 C 0.97203 0.57522 0.0366 0.0
C4439 C 0.97133 0.55802 0.02799 0.0
C4440 C 0.98707 0.54924 0.02886 0.0
C4441 C 0.95482 0.58484 0.03538 0.0
C4442 C 0.93707 0.57561 0.03809 0.0
C4443 C 0.9556 0.60317 0.0319 0.0
C4444 C 0.97308 0.61411 0.0278 0.0
C4445 C 0.98235 0.60885 0.01309 0.0
C4446 C 0.99892 0.61915 1.00938 0.0
C4447 C 1.00628 0.63481 0.02018 0.0
C4448 C 0.99709 0.64021 0.03473 0.0
C4449 C 0.98052 0.62996 0.03851 0.0
H4450 H 0.01907 0.64279 0.01724 0.0
H4451 H 0.85841 0.54454 0.05517 0.0
H4452 H 0.22688 0.09762 0.85662 0.0
H4453 H 0.24159 0.12823 0.85336 0.0
H4454 H 0.19358 0.13627 0.81769 0.0
H4455 H 0.17888 0.10565 0.82074 0.0
H4456 H 0.22506 0.14518 0.80214 0.0
H4457 H 0.20369 0.15699 0.86067 0.0
H4458 H 0.19973 0.15274 0.89342 0.0
H4459 H 0.25869 0.16464 0.90771 0.0
H4460 H 0.26303 0.16873 0.87498 0.0
H4461 H 0.25075 0.23526 0.78996 0.0
H4462 H 0.23434 0.20791 0.80031 0.0
H4463 H 0.28368 0.20123 0.83473 0.0
H4464 H 0.30024 0.22898 0.82467 0.0
H4465 H 0.25199 0.19185 0.85175 0.0
H4466 H 0.27347 0.17907 0.79345 0.0
H4467 H 0.27775 0.18329 0.76075 0.0
H4468 H 0.2188 0.17267 0.74614 0.0
H4469 H 0.21416 0.16865 0.77882 0.0
C4470 C 0.21934 0.10602 0.84834 0.0
C4471 C 0.20179 0.09924 0.83883 0.0
C4472 C 0.22773 0.12351 0.84655 0.0
C4473 C 0.21866 0.13451 0.83531 0.0
C4474 C 0.20082 0.12797 0.82641 0.0
C4475 C 0.19243 0.1105 0.8282 0.0
C4476 C 0.22838 0.15224 0.83144 0.0
C4477 C 0.23067 0.15548 0.81297 0.0
C4478 C 0.23625 0.16543 0.84564 0.0
C4479 C 0.23369 0.16299 0.86534 0.0
C4480 C 0.21582 0.15855 0.87076 0.0
C4481 C 0.21351 0.1562 0.88933 0.0
C4482 C 0.22895 0.15837 0.90263 0.0
C4483 C 0.24674 0.16294 0.89739 0.0
C4484 C 0.24914 0.16529 0.87883 0.0
C4485 C 0.25814 0.22807 0.79981 0.0
C4486 C 0.2769 0.23415 0.80629 0.0
C4487 C 0.24872 0.21243 0.80572 0.0
C4488 C 0.2579 0.2024 0.81801 0.0
C4489 C 0.27639 0.20878 0.82517 0.0
C4490 C 0.28583 0.22457 0.81935 0.0
C4491 C 0.2484 0.18478 0.82246 0.0
C4492 C 0.24629 0.18153 0.84096 0.0
C4493 C 0.24072 0.17148 0.80831 0.0
C4494 C 0.24347 0.17371 0.78861 0.0
C4495 C 0.26142 0.17776 0.78328 0.0
C4496 C 0.26391 0.1801 0.76475 0.0
C4497 C 0.24856 0.17829 0.75138 0.0
C4498 C 0.23068 0.17408 0.75652 0.0
C4499 C 0.22811 0.17176 0.77504 0.0
H4500 H 0.25051 0.18011 0.73704 0.0
H4501 H 0.22713 0.15655 0.917 0.0
H4502 H 0.40953 0.06049 0.31632 0.0
H4503 H 0.38815 0.03247 0.31754 0.0
H4504 H 0.41657 1.00743 0.27751 0.0
H4505 H 0.43766 0.03532 0.276 0.0
H4506 H 0.37991 0.99872 0.26923 0.0
H4507 H 0.42405 1.00146 0.32383 0.0
H4508 H 0.44105 0.01488 0.3535 0.0
H4509 H 0.38969 0.01396 0.37668 0.0
H4510 H 0.37237 1.00074 0.34704 0.0
H4511 H 0.36053 0.90704 0.28085 0.0
H4512 H 0.37354 0.93822 0.27879 0.0
H4513 H 0.33909 0.95332 0.31912 0.0
H4514 H 0.32595 0.92202 0.32125 0.0
H4515 H 0.3744 0.96902 0.32786 0.0
H4516 H 0.33062 0.96236 0.27384 0.0
H4517 H 0.31427 0.94822 0.24419 0.0
H4518 H 0.36533 0.95598 0.21978 0.0
H4519 H 0.38204 0.96995 0.24935 0.0
C4520 C 0.41118 0.04899 0.3078 0.0
C4521 C 0.42527 0.05005 0.2961 0.0
C4522 C 0.399 0.03301 0.30853 0.0
C4523 C 0.40085 0.01785 0.29769 0.0
C4524 C 0.41485 0.01897 0.28594 0.0
C4525 C 0.42694 0.0349 0.28515 0.0
C4526 C 0.38842 1.00067 0.29856 0.0
C4527 C 0.37876 0.99217 0.28203 0.0
C4528 C 0.38651 0.99239 0.31535 0.0
C4529 C 0.39691 1.00032 0.33316 0.0
C4530 C 0.41638 1.00426 0.33521 0.0
C4531 C 0.42608 0.0118 0.35203 0.0
C4532 C 0.41646 0.01532 0.36695 0.0
C4533 C 0.39712 0.01126 0.36509 0.0
C4534 C 0.38736 1.00374 0.3483 0.0
C4535 C 0.35539 0.917 0.28896 0.0
C4536 C 0.34219 0.91208 0.30119 0.0
C4537 C 0.36286 0.93483 0.28779 0.0
C4538 C 0.35716 0.94811 0.29868 0.0
C4539 C 0.34367 0.94328 0.3106 0.0
C4540 C 0.33622 0.92542 0.31182 0.0
C4541 C 0.36624 0.96686 0.29844 0.0
C4542 C 0.37526 0.97568 0.31509 0.0
C4543 C 0.36764 0.97539 0.28174 0.0
C4544 C 0.3576 0.96712 0.26387 0.0
C4545 C 0.33839 0.96095 0.26219 0.0
C4546 C 0.32905 0.95298 0.24539 0.0
C4547 C 0.33876 0.95117 0.23012 0.0
C4548 C 0.35783 0.95738 0.23161 0.0
C4549 C 0.36723 0.96536 0.24839 0.0
H4550 H 0.33151 0.94499 0.21713 0.0
H4551 H 0.42399 0.02116 0.37996 0.0
H4552 H 0.61258 0.37727 0.61241 0.0
H4553 H 0.61502 0.40287 0.59346 0.0
H4554 H 0.55556 0.39876 0.58764 0.0
H4555 H 0.55299 0.37304 0.6064 0.0
H4556 H 0.57052 0.40616 0.55485 0.0
H4557 H 0.58143 0.4274 0.61973 0.0
H4558 H 0.59749 0.42969 0.65142 0.0
H4559 H 0.64912 0.44962 0.63118 0.0
H4560 H 0.63338 0.44722 0.59931 0.0
H4561 H 0.55046 0.49226 0.54486 0.0
H4562 H 0.55474 0.46178 0.54928 0.0
H4563 H 0.61406 0.47894 0.5575 0.0
H4564 H 0.60972 0.50956 0.55392 0.0
H4565 H 0.60376 0.46348 0.58566 0.0
H4566 H 0.59162 0.44767 0.52129 0.0
H4567 H 0.57544 0.44583 0.48971 0.0
H4568 H 0.52664 0.41622 0.50799 0.0
H4569 H 0.54242 0.4181 0.53975 0.0
C4570 C 0.60003 0.3818 0.60704 0.0
C4571 C 0.58261 0.37332 0.61103 0.0
C4572 C 0.60145 0.39636 0.59618 0.0
C4573 C 0.58547 0.4027 0.58925 0.0
C4574 C 0.56803 0.39398 0.59281 0.0
C4575 C 0.5666 0.37941 0.60366 0.0
C4576 C 0.58692 0.4192 0.57943 0.0
C4577 C 0.57773 0.41876 0.5615 0.0
C4578 C 0.59684 0.43544 0.58798 0.0
C4579 C 0.60628 0.43691 0.60713 0.0
C4580 C 0.59624 0.43212 0.62202 0.0
C4581 C 0.60527 0.43347 0.64002 0.0
C4582 C 0.62432 0.43974 0.6433 0.0
C4583 C 0.63437 0.44472 0.62861 0.0
C4584 C 0.6254 0.44338 0.61058 0.0
C4585 C 0.56442 0.48941 0.547 0.0
C4586 C 0.57976 0.50321 0.54933 0.0
C4587 C 0.56688 0.47195 0.54942 0.0
C4588 C 0.58474 0.46803 0.55376 0.0
C4589 C 0.60015 0.48165 0.55429 0.0
C4590 C 0.59767 0.49913 0.55225 0.0
C4591 C 0.58707 0.4507 0.56099 0.0
C4592 C 0.59692 0.45092 0.5786 0.0
C4593 C 0.57778 0.43432 0.55207 0.0
C4594 C 0.5682 0.43311 0.53295 0.0
C4595 C 0.5774 0.44087 0.51862 0.0
C4596 C 0.5683 0.4398 0.50067 0.0
C4597 C 0.55001 0.43093 0.49685 0.0
C4598 C 0.5408 0.42309 0.51097 0.0
C4599 C 0.54983 0.42412 0.52894 0.0
H4600 H 0.54299 0.43012 0.48295 0.0
H4601 H 0.63129 0.44078 0.65724 0.0
H4602 H 0.4774 0.70566 0.35206 0.0
H4603 H 0.45023 0.71104 0.33237 0.0
H4604 H 0.42694 0.72852 0.38051 0.0
H4605 H 0.45401 0.72312 0.40031 0.0
H4606 H 0.39974 0.71257 0.3517 0.0
H4607 H 0.45459 0.75805 0.36264 0.0
H4608 H 0.48808 0.76897 0.36313 0.0
H4609 H 0.48415 0.75647 0.30458 0.0
H4610 H 0.45066 0.74517 0.30383 0.0
H4611 H 0.36983 0.79551 0.31698 0.0
H4612 H 0.39397 0.78026 0.33101 0.0
H4613 H 0.37374 0.73462 0.29286 0.0
H4614 H 0.34986 0.74992 0.27844 0.0
H4615 H 0.42227 0.763 0.31488 0.0
H4616 H 0.37008 0.70007 0.32334 0.0
H4617 H 0.33683 0.69126 0.32659 0.0
H4618 H 0.33573 0.74304 0.35154 0.0
H4619 H 0.3689 0.75206 0.34851 0.0
C4620 C 0.46618 0.71001 0.35851 0.0
C4621 C 0.46796 0.71437 0.37765 0.0
C4622 C 0.45068 0.71307 0.34724 0.0
C4623 C 0.43684 0.72051 0.35501 0.0
C4624 C 0.43755 0.72283 0.37429 0.0
C4625 C 0.45306 0.71982 0.38557 0.0
C4626 C 0.42372 0.72892 0.34322 0.0
C4627 C 0.40463 0.72338 0.34341 0.0
C4628 C 0.43018 0.74341 0.33289 0.0
C4629 C 0.45019 0.75059 0.33321 0.0
C4630 C 0.4609 0.75753 0.3499 0.0
C4631 C 0.47987 0.76379 0.35022 0.0
C4632 C 0.48825 0.76338 0.3339 0.0
C4633 C 0.47764 0.75676 0.31721 0.0
C4634 C 0.45867 0.75042 0.31683 0.0
C4635 C 0.37082 0.78239 0.31132 0.0
C4636 C 0.35803 0.77388 0.29665 0.0
C4637 C 0.38458 0.77373 0.31931 0.0
C4638 C 0.38544 0.75633 0.313 0.0
C4639 C 0.37319 0.74806 0.29788 0.0
C4640 C 0.35966 0.75685 0.28962 0.0
C4641 C 0.39833 0.74643 0.3231 0.0
C4642 C 0.41738 0.75183 0.32272 0.0
C4643 C 0.39184 0.73214 0.33362 0.0
C4644 C 0.37188 0.72679 0.33546 0.0
C4645 C 0.3627 0.70955 0.32949 0.0
C4646 C 0.34387 0.70453 0.3313 0.0
C4647 C 0.33413 0.71661 0.33917 0.0
C4648 C 0.34321 0.73372 0.34531 0.0
C4649 C 0.36202 0.73881 0.3435 0.0
H4650 H 0.31957 0.71268 0.34058 0.0
H4651 H 0.50294 0.76822 0.33417 0.0
H4652 H 0.10073 0.7897 0.08866 0.0
H4653 H 0.09401 0.76206 0.06915 0.0
H4654 H 0.03675 0.75532 0.07962 0.0
H4655 H 0.04355 0.78273 0.09961 0.0
H4656 H 0.05028 0.72736 0.08776 0.0
H4657 H 0.04936 0.76102 0.03526 0.0
H4658 H 0.0597 0.78479 0.01516 0.0
H4659 H 0.10961 0.76389 1.00986 0.0
H4660 H 0.09972 0.74014 0.03015 0.0
H4661 H 0.04342 0.64222 0.04602 0.0
H4662 H 0.03681 0.67243 0.04633 0.0
H4663 H 0.09507 0.693 0.04699 0.0
H4664 H 0.10169 0.66278 0.04574 0.0
H4665 H 0.07324 0.71379 0.02794 0.0
H4666 H 0.07697 0.68627 0.08729 0.0
H4667 H 0.06708 0.66264 0.10778 0.0
H4668 H 1.01131 0.67279 0.0997 0.0
H4669 H 0.02087 0.69637 0.07899 0.0
C4670 C 0.08664 0.78251 0.08649 0.0
C4671 C 0.07271 0.7882 0.09581 0.0
C4672 C 0.08275 0.76679 0.07519 0.0
C4673 C 0.06482 0.75666 0.07281 0.0
C4674 C 0.05067 0.76292 0.08126 0.0
C4675 C 0.05458 0.77855 0.0927 0.0
C4676 C 0.06165 0.73843 0.06391 0.0
C4677 C 0.05476 0.72446 0.07439 0.0
C4678 C 0.06776 0.73459 0.04661 0.0
C4679 C 0.07381 0.74882 0.03432 0.0
C4680 C 0.0626 0.76155 0.02992 0.0
C4681 C 0.06838 0.77502 0.01847 0.0
C4682 C 0.08531 0.77586 0.01125 0.0
C4683 C 0.09649 0.76322 0.01545 0.0
C4684 C 0.09079 0.74972 0.0269 0.0
C4685 C 0.05475 0.65313 0.04555 0.0
C4686 C 0.07312 0.65016 0.04613 0.0
C4687 C 0.05094 0.67038 0.04581 0.0
C4688 C 0.06549 0.68492 0.04698 0.0
C4689 C 0.08366 0.68195 0.04612 0.0
C4690 C 0.08745 0.6647 0.04569 0.0
C4691 C 0.06237 0.70301 0.05206 0.0
C4692 C 0.06816 0.71686 0.04096 0.0
C4693 C 0.05524 0.70684 0.0688 0.0
C4694 C 0.04958 0.69292 0.08149 0.0
C4695 C 0.06259 0.6834 0.08984 0.0
C4696 C 0.05705 0.67002 0.10148 0.0
C4697 C 0.03857 0.66619 0.105 0.0
C4698 C 0.02561 0.67576 0.09694 0.0
C4699 C 0.03108 0.68913 0.08526 0.0
H4700 H 0.0343 0.65582 0.114 0.0
H4701 H 0.08976 0.7863 1.00239 0.0
H4702 H 0.08237 0.22571 0.90037 0.0
H4703 H 0.10849 0.22947 0.88202 0.0
H4704 H 0.0707 0.22292 0.83186 0.0
H4705 H 0.0444 0.21927 0.85013 0.0
H4706 H 0.10558 0.20752 0.8307 0.0
H4707 H 0.08283 0.26171 0.84621 0.0
H4708 H 0.07274 0.28266 0.86821 0.0
H4709 H 0.12632 0.29066 0.89986 0.0
H4710 H 0.13661 0.26946 0.87824 0.0
H4711 H 0.16757 0.25431 0.77358 0.0
H4712 H 0.14024 0.24365 0.78902 0.0
H4713 H 0.17177 0.26018 0.84211 0.0
H4714 H 0.19883 0.27139 0.82682 0.0
H4715 H 0.13889 0.26978 0.84068 0.0
H4716 H 0.1624 0.21664 0.82611 0.0
H4717 H 0.17301 0.19448 0.80596 0.0
H4718 H 0.11949 0.18365 0.7741 0.0
H4719 H 0.10863 0.20594 0.79392 0.0
C4720 C 0.07959 0.22459 0.88542 0.0
C4721 C 0.06139 0.22247 0.87666 0.0
C4722 C 0.09452 0.22671 0.87499 0.0
C4723 C 0.09143 0.22665 0.85567 0.0
C4724 C 0.07328 0.22298 0.84678 0.0
C4725 C 0.05831 0.22099 0.85723 0.0
C4726 C 0.10696 0.233 0.84513 0.0
C4727 C 0.11277 0.22116 0.83263 0.0
C4728 C 0.1164 0.25073 0.84801 0.0
C4729 C 0.11042 0.26387 0.86071 0.0
C4730 C 0.09242 0.26784 0.85794 0.0
C4731 C 0.08666 0.27976 0.87033 0.0
C4732 C 0.09887 0.28795 0.88545 0.0
C4733 C 0.11688 0.28429 0.88816 0.0
C4734 C 0.12268 0.27233 0.87583 0.0
C4735 C 0.16859 0.25583 0.78853 0.0
C4736 C 0.18536 0.26359 0.799 0.0
C4737 C 0.15305 0.24956 0.79733 0.0
C4738 C 0.15408 0.25092 0.81671 0.0
C4739 C 0.17071 0.25893 0.82714 0.0
C4740 C 0.18619 0.26521 0.81839 0.0
C4741 C 0.1378 0.24427 0.82626 0.0
C4742 C 0.13174 0.25612 0.83859 0.0
C4743 C 0.12829 0.22652 0.82331 0.0
C4744 C 0.13477 0.21311 0.81137 0.0
C4745 C 0.15294 0.20965 0.81471 0.0
C4746 C 0.15899 0.19704 0.80337 0.0
C4747 C 0.14695 0.1877 0.78873 0.0
C4748 C 0.12881 0.19092 0.78543 0.0
C4749 C 0.1227 0.20353 0.79672 0.0
H4750 H 0.15165 0.17793 0.77997 0.0
H4751 H 0.09438 0.29715 0.89504 0.0
H4752 H 0.55583 0.7357 0.96667 0.0
H4753 H 0.55352 0.70681 0.98017 0.0
H4754 H 0.56107 0.68225 0.92772 0.0
H4755 H 0.56245 0.71106 0.91407 0.0
H4756 H 0.54119 0.65775 0.94016 0.0
H4757 H 0.59564 0.69177 0.97372 0.0
H4758 H 0.61499 0.71681 0.993 0.0
H4759 H 0.58011 0.70748 0.03642 0.0
H4760 H 0.56042 0.6825 0.0173 0.0
H4761 H 0.55647 0.5748 0.97884 0.0
H4762 H 0.5587 0.60342 0.96493 0.0
H4763 H 0.54717 0.62796 0.01585 0.0
H4764 H 0.5457 0.5994 0.03 0.0
H4765 H 0.5694 0.65214 1.00382 0.0
H4766 H 0.51437 0.61783 0.96777 0.0
H4767 H 0.49789 0.59141 0.9484 0.0
H4768 H 0.5378 0.60004 0.90947 0.0
H4769 H 0.55433 0.62672 0.92842 0.0
C4770 C 0.55708 0.72424 0.95789 0.0
C4771 C 0.55948 0.72641 0.93901 0.0
C4772 C 0.55594 0.70733 0.96581 0.0
C4773 C 0.55755 0.69142 0.95553 0.0
C4774 C 0.55977 0.69365 0.93657 0.0
C4775 C 0.56067 0.71051 0.9286 0.0
C4776 C 0.55672 0.6728 0.9642 0.0
C4777 C 0.54764 0.65682 0.95405 0.0
C4778 C 0.56475 0.67038 0.98251 0.0
C4779 C 0.57645 0.68541 0.994 0.0
C4780 C 0.59203 0.69515 0.98733 0.0
C4781 C 0.60306 0.70931 0.99824 0.0
C4782 C 0.59875 0.71377 0.0159 0.0
C4783 C 0.58341 0.70404 0.02272 0.0
C4784 C 0.57232 0.68987 0.01186 0.0
C4785 C 0.55423 0.58616 0.9872 0.0
C4786 C 0.55068 0.58403 1.00583 0.0
C4787 C 0.55535 0.60292 0.97901 0.0
C4788 C 0.55268 0.61873 0.98875 0.0
C4789 C 0.54928 0.61659 1.00743 0.0
C4790 C 0.54832 0.59986 0.01568 0.0
C4791 C 0.55371 0.63723 0.97989 0.0
C4792 C 0.56286 0.65316 0.98998 0.0
C4793 C 0.54604 0.63957 0.96144 0.0
C4794 C 0.53559 0.62419 0.94953 0.0
C4795 C 0.51954 0.61415 0.955 0.0
C4796 C 0.51019 0.59916 0.94408 0.0
C4797 C 0.51677 0.5941 0.92767 0.0
C4798 C 0.53263 0.6041 0.92207 0.0
C4799 C 0.54194 0.6192 0.93285 0.0
H4800 H 0.50961 0.58241 0.91931 0.0
H4801 H 0.60731 0.72474 0.02432 0.0
H4802 H 0.08544 0.77595 0.70468 0.0
H4803 H 0.11608 0.77552 0.72124 0.0
H4804 H 0.14185 0.79823 0.67546 0.0
H4805 H 0.11116 0.79799 0.65865 0.0
H4806 H 0.16249 0.7772 0.68683 0.0
H4807 H 0.13951 0.82131 0.72235 0.0
H4808 H 0.11763 0.83365 0.74056 0.0
H4809 H 0.12239 0.79441 0.78007 0.0
H4810 H 0.14414 0.7817 0.76196 0.0
H4811 H 0.25411 0.80231 0.73606 0.0
H4812 H 0.22311 0.80205 0.72006 0.0
H4813 H 0.19891 0.7725 0.76281 0.0
H4814 H 0.23002 0.77268 0.77888 0.0
H4815 H 0.17764 0.79667 0.75333 0.0
H4816 H 0.20177 0.75346 0.71772 0.0
H4817 H 0.22418 0.74202 0.69948 0.0
H4818 H 0.21783 0.78097 0.65999 0.0
H4819 H 0.19557 0.79281 0.67813 0.0
C4820 C 0.09759 0.78094 0.69809 0.0
C4821 C 0.09539 0.78711 0.68014 0.0
C4822 C 0.1154 0.78084 0.70775 0.0
C4823 C 0.13201 0.78719 0.70013 0.0
C4824 C 0.12974 0.79322 0.6821 0.0
C4825 C 0.11194 0.79316 0.67237 0.0
C4826 C 0.1515 0.78738 0.71062 0.0
C4827 C 0.16568 0.78176 0.70131 0.0
C4828 C 0.15636 0.79286 0.7298 0.0
C4829 C 0.14329 0.80044 0.7407 0.0
C4830 C 0.13579 0.81524 0.73485 0.0
C4831 C 0.12343 0.82231 0.74517 0.0
C4832 C 0.11858 0.81478 0.76143 0.0
C4833 C 0.12613 0.8002 0.76745 0.0
C4834 C 0.13848 0.79307 0.75717 0.0
C4835 C 0.24227 0.79572 0.7422 0.0
C4836 C 0.24506 0.7875 0.75901 0.0
C4837 C 0.22429 0.79548 0.73283 0.0
C4838 C 0.20807 0.78707 0.7398 0.0
C4839 C 0.2108 0.77912 0.75678 0.0
C4840 C 0.22883 0.7792 0.76607 0.0
C4841 C 0.18853 0.7866 0.72949 0.0
C4842 C 0.17438 0.79215 0.73884 0.0
C4843 C 0.18376 0.78121 0.71032 0.0
C4844 C 0.19714 0.77413 0.69939 0.0
C4845 C 0.20526 0.75968 0.70522 0.0
C4846 C 0.21792 0.75311 0.69489 0.0
C4847 C 0.22246 0.76079 0.67861 0.0
C4848 C 0.21432 0.77505 0.67262 0.0
C4849 C 0.20167 0.78168 0.68291 0.0
H4850 H 0.23226 0.75568 0.67063 0.0
H4851 H 0.10901 0.82028 0.7694 0.0
H4852 H 0.05816 0.34496 0.41157 0.0
H4853 H 0.0566 0.37479 0.42434 0.0
H4854 H 0.06514 0.3577 0.47948 0.0
H4855 H 0.06622 0.32757 0.46658 0.0
H4856 H 0.04312 0.37979 0.48233 0.0
H4857 H 0.09952 0.38837 0.45435 0.0
H4858 H 0.11961 0.38707 0.42946 0.0
H4859 H 0.08725 0.4184 0.39668 0.0
H4860 H 0.06682 0.4197 0.42129 0.0
H4861 H 0.06072 0.46901 0.52679 0.0
H4862 H 0.0622 0.43904 0.51419 0.0
H4863 H 0.05111 0.45511 0.45898 0.0
H4864 H 0.04966 0.4852 0.47162 0.0
H4865 H 0.07468 0.43364 0.4563 0.0
H4866 H 1.0182 0.42479 0.48415 0.0
H4867 H 0.99722 0.42489 0.5084 0.0
H4868 H 0.02985 0.39394 0.54141 0.0
H4869 H 0.05109 0.39375 0.5174 0.0
C4870 C 0.05983 0.3474 0.42647 0.0
C4871 C 0.06248 0.33325 0.43777 0.0
C4872 C 0.05908 0.36488 0.43394 0.0
C4873 C 0.06112 0.36951 0.45327 0.0
C4874 C 0.06355 0.35526 0.4646 0.0
C4875 C 0.06426 0.33771 0.45709 0.0
C4876 C 0.06046 0.38875 0.46151 0.0
C4877 C 0.05037 0.39143 0.47666 0.0
C4878 C 0.0693 0.40472 0.4544 0.0
C4879 C 0.08152 0.40397 0.43959 0.0
C4880 C 0.09661 0.39488 0.44178 0.0
C4881 C 0.10807 0.39416 0.42773 0.0
C4882 C 0.10467 0.4026 0.41148 0.0
C4883 C 0.08984 0.41183 0.40926 0.0
C4884 C 0.07832 0.41258 0.42326 0.0
C4885 C 0.05852 0.46634 0.51192 0.0
C4886 C 0.055 0.48021 0.50051 0.0
C4887 C 0.05924 0.44879 0.50456 0.0
C4888 C 0.05655 0.44388 0.48527 0.0
C4889 C 0.05327 0.45782 0.47385 0.0
C4890 C 0.05238 0.47535 0.48122 0.0
C4891 C 0.05737 0.42465 0.47714 0.0
C4892 C 0.06748 0.422 0.46199 0.0
C4893 C 0.0486 0.4087 0.48428 0.0
C4894 C 0.03633 0.40941 0.49905 0.0
C4895 C 0.02101 0.41817 0.49667 0.0
C4896 C 1.00903 0.41818 0.51034 0.0
C4897 C 1.0122 0.40941 0.52642 0.0
C4898 C 0.02741 0.40071 0.52893 0.0
C4899 C 0.03941 0.40063 0.51529 0.0
H4900 H 1.00283 0.40929 0.53692 0.0
H4901 H 0.11356 0.40202 0.40061 0.0
H4902 H 0.47122 0.26561 0.1567 0.0
H4903 H 0.44362 0.26432 0.173 0.0
H4904 H 0.47579 0.29801 0.21804 0.0
H4905 H 0.50359 0.29851 0.20205 0.0
H4906 H 0.45319 0.27925 0.23438 0.0
H4907 H 0.43793 0.30927 0.18039 0.0
H4908 H 0.43304 0.31394 0.14711 0.0
H4909 H 0.39208 0.26647 0.1385 0.0
H4910 H 0.39688 0.26141 0.17171 0.0
H4911 H 0.37267 0.29888 0.27629 0.0
H4912 H 0.40049 0.29949 0.26027 0.0
H4913 H 0.37031 0.25962 0.21961 0.0
H4914 H 0.34257 0.2589 0.23572 0.0
H4915 H 0.3916 0.28172 0.20119 0.0
H4916 H 0.40895 0.25133 0.25512 0.0
H4917 H 0.41318 0.24757 0.28867 0.0
H4918 H 0.45032 0.29758 0.2972 0.0
H4919 H 0.44597 0.30168 0.26371 0.0
C4920 C 0.47256 0.27282 0.17007 0.0
C4921 C 0.49018 0.28224 0.17769 0.0
C4922 C 0.45639 0.27226 0.17952 0.0
C4923 C 0.45664 0.28144 0.19706 0.0
C4924 C 0.47438 0.2907 0.20472 0.0
C4925 C 0.4906 0.29106 0.19537 0.0
C4926 C 0.43891 0.28122 0.20741 0.0
C4927 C 0.4399 0.28009 0.22687 0.0
C4928 C 0.42079 0.28193 0.19844 0.0
C4929 C 0.41792 0.28486 0.17849 0.0
C4930 C 0.42797 0.29977 0.17137 0.0
C4931 C 0.4252 0.30249 0.15253 0.0
C4932 C 0.4123 0.29047 0.14069 0.0
C4933 C 0.4021 0.27574 0.14768 0.0
C4934 C 0.40483 0.27294 0.16651 0.0
C4935 C 0.37183 0.29007 0.26403 0.0
C4936 C 0.35481 0.27871 0.25775 0.0
C4937 C 0.38808 0.29035 0.25473 0.0
C4938 C 0.38833 0.27944 0.23841 0.0
C4939 C 0.37121 0.26831 0.23197 0.0
C4940 C 0.35506 0.26783 0.24143 0.0
C4941 C 0.40599 0.27979 0.22802 0.0
C4942 C 0.40495 0.28092 0.20859 0.0
C4943 C 0.42409 0.27931 0.23701 0.0
C4944 C 0.42687 0.27692 0.25704 0.0
C4945 C 0.4178 0.26159 0.26423 0.0
C4946 C 0.42027 0.25938 0.2832 0.0
C4947 C 0.43195 0.27237 0.29508 0.0
C4948 C 0.44123 0.28755 0.28799 0.0
C4949 C 0.43877 0.28982 0.26902 0.0
H4950 H 0.43387 0.27065 0.30977 0.0
H4951 H 0.41018 0.29261 0.12611 0.0
H4952 H 0.67939 0.54124 0.40756 0.0
H4953 H 0.65687 0.54392 0.42943 0.0
H4954 H 0.62484 0.56946 0.38927 0.0
H4955 H 0.64746 0.56701 0.36736 0.0
H4956 H 0.62927 0.58689 0.42302 0.0
H4957 H 0.60905 0.52733 0.39791 0.0
H4958 H 0.61238 0.49687 0.38802 0.0
H4959 H 0.63159 0.48783 0.44385 0.0
H4960 H 0.62862 0.51832 0.45404 0.0
H4961 H 0.5598 0.55325 0.49339 0.0
H4962 H 0.56984 0.55394 0.46229 0.0
H4963 H 0.62531 0.57697 0.48586 0.0
H4964 H 0.61556 0.57577 0.51693 0.0
H4965 H 0.60086 0.53501 0.45465 0.0
H4966 H 0.63925 0.60785 0.45253 0.0
H4967 H 0.6346 0.63824 0.46108 0.0
H4968 H 0.57591 0.62024 0.45774 0.0
H4969 H 0.58015 0.5898 0.44897 0.0
C4970 C 0.66752 0.54736 0.40337 0.0
C4971 C 0.66514 0.55389 0.38578 0.0
C4972 C 0.65463 0.54881 0.41582 0.0
C4973 C 0.63909 0.55669 0.41085 0.0
C4974 C 0.63671 0.56328 0.39332 0.0
C4975 C 0.64961 0.56183 0.38084 0.0
C4976 C 0.6257 0.55847 0.42427 0.0
C4977 C 0.6229 0.57555 0.42983 0.0
C4978 C 0.61701 0.54358 0.43275 0.0
C4979 C 0.61868 0.52516 0.42671 0.0
C4980 C 0.61408 0.51888 0.40806 0.0
C4981 C 0.61589 0.5016 0.4024 0.0
C4982 C 0.62221 0.49043 0.41529 0.0
C4983 C 0.62669 0.4965 0.43388 0.0
C4984 C 0.62491 0.51377 0.43961 0.0
C4985 C 0.57405 0.55872 0.49186 0.0
C4986 C 0.587 0.56428 0.50745 0.0
C4987 C 0.57972 0.55912 0.47416 0.0
C4988 C 0.59824 0.56558 0.47192 0.0
C4989 C 0.61092 0.57207 0.48741 0.0
C4990 C 0.60539 0.57126 0.50509 0.0
C4991 C 0.60515 0.56345 0.45387 0.0
C4992 C 0.60686 0.5463 0.44752 0.0
C4993 C 0.61264 0.57823 0.44458 0.0
C4994 C 0.61005 0.59649 0.45016 0.0
C4995 C 0.62534 0.61037 0.45355 0.0
C4996 C 0.62278 0.62762 0.45842 0.0
C4997 C 0.60497 0.63118 0.45985 0.0
C4998 C 0.58969 0.61747 0.45655 0.0
C4999 C 0.59218 0.6002 0.45172 0.0
H5000 H 0.60301 0.64453 0.46363 0.0
H5001 H 0.6236 0.47706 0.41088 0.0
H5002 H 0.30422 0.84259 0.08057 0.0
H5003 H 0.30549 0.83049 0.11117 0.0
H5004 H 0.32511 0.88319 0.13684 0.0
H5005 H 0.32418 0.89524 0.10648 0.0
H5006 H 0.34437 0.86086 0.15253 0.0
H5007 H 0.28004 0.86247 0.13715 0.0
H5008 H 0.24956 0.85643 0.11838 0.0
H5009 H 0.24823 0.80036 0.12123 0.0
H5010 H 0.27884 0.80606 0.13982 0.0
H5011 H 0.32673 0.83935 0.24507 0.0
H5012 H 0.3277 0.85241 0.215 0.0
H5013 H 0.30983 0.80039 0.18718 0.0
H5014 H 0.30863 0.78737 0.21685 0.0
H5015 H 0.28974 0.82311 0.17296 0.0
H5016 H 0.35477 0.8224 0.18878 0.0
H5017 H 0.38473 0.82933 0.20845 0.0
H5018 H 0.38392 0.8851 0.20592 0.0
H5019 H 0.35383 0.8785 0.18641 0.0
C5020 C 0.3088 0.85156 0.09275 0.0
C5021 C 0.31405 0.86986 0.0911 0.0
C5022 C 0.30945 0.84466 0.11024 0.0
C5023 C 0.31524 0.85596 0.12637 0.0
C5024 C 0.32063 0.8742 0.12465 0.0
C5025 C 0.32002 0.88107 0.10725 0.0
C5026 C 0.31577 0.84888 0.14505 0.0
C5027 C 0.33234 0.8528 0.15708 0.0
C5028 C 0.30017 0.83818 0.15099 0.0
C5029 C 0.28184 0.83469 0.13968 0.0
C5030 C 0.27333 0.84885 0.13362 0.0
C5031 C 0.25601 0.84548 0.12305 0.0
C5032 C 0.24699 0.82802 0.11856 0.0
C5033 C 0.25525 0.81388 0.12468 0.0
C5034 C 0.27258 0.81717 0.13524 0.0
C5035 C 0.32325 0.8307 0.23254 0.0
C5036 C 0.31755 0.81232 0.23342 0.0
C5037 C 0.32382 0.83817 0.21535 0.0
C5038 C 0.31887 0.82736 0.19879 0.0
C5039 C 0.31362 0.80901 0.19972 0.0
C5040 C 0.31299 0.80159 0.21677 0.0
C5041 C 0.31834 0.83503 0.18041 0.0
C5042 C 0.30176 0.83122 0.16843 0.0
C5043 C 0.33385 0.84597 0.17464 0.0
C5044 C 0.35196 0.84995 0.1863 0.0
C5045 C 0.36092 0.83614 0.19253 0.0
C5046 C 0.37793 0.84001 0.20363 0.0
C5047 C 0.3862 0.85764 0.20847 0.0
C5048 C 0.37749 0.87145 0.20218 0.0
C5049 C 0.36046 0.86765 0.19109 0.0
H5050 H 0.39937 0.86061 0.21706 0.0
H5051 H 0.23358 0.82544 0.11039 0.0
H5052 H 1.00775 0.61183 0.86193 0.0
H5053 H 0.02443 0.60341 0.89014 0.0
H5054 H 0.0287 0.55345 0.86228 0.0
H5055 H 1.01202 0.56165 0.83425 0.0
H5056 H 1.01354 0.54915 0.8942 0.0
H5057 H 0.06689 0.58408 0.87396 0.0
H5058 H 0.08513 0.61072 0.863 0.0
H5059 H 0.0801 0.64068 0.91305 0.0
H5060 H 0.06158 0.61429 0.92421 0.0
H5061 H 0.05827 0.52018 0.97416 0.0
H5062 H 0.05471 0.52879 0.94223 0.0
H5063 H 0.0513 0.58209 0.96201 0.0
H5064 H 0.05543 0.57382 0.99376 0.0
H5065 H 0.0692 0.58301 0.93228 0.0
H5066 H 1.01226 0.55062 0.95012 0.0
H5067 H 0.99294 0.52492 0.96164 0.0
H5068 H 1.00343 0.49138 0.91634 0.0
H5069 H 0.02304 0.51685 0.9047 0.0
C5070 C 1.01251 0.59918 0.86178 0.0
C5071 C 1.00845 0.58732 0.846 0.0
C5072 C 0.02211 0.59443 0.87784 0.0
C5073 C 0.02782 0.57782 0.87822 0.0
C5074 C 0.02439 0.56631 0.86223 0.0
C5075 C 1.01483 0.57102 0.84626 0.0
C5076 C 0.03565 0.57167 0.89574 0.0
C5077 C 0.02595 0.55635 0.90234 0.0
C5078 C 0.05155 0.58132 0.90651 0.0
C5079 C 0.06271 0.59723 0.89985 0.0
C5080 C 0.06954 0.59639 0.88256 0.0
C5081 C 0.07995 0.61144 0.87633 0.0
C5082 C 0.08374 0.62739 0.8873 0.0
C5083 C 0.07714 0.62832 0.90456 0.0
C5084 C 0.06671 0.61331 0.91085 0.0
C5085 C 0.05706 0.53379 0.97168 0.0
C5086 C 0.05684 0.54625 0.98644 0.0
C5087 C 0.05502 0.53869 0.95346 0.0
C5088 C 0.05242 0.556 0.94978 0.0
C5089 C 0.05328 0.56866 0.96453 0.0
C5090 C 0.0555 0.56386 0.9827 0.0
C5091 C 0.04699 0.5606 0.93076 0.0
C5092 C 0.05702 0.57565 0.92393 0.0
C5093 C 0.03122 0.55084 0.91981 0.0
C5094 C 0.01928 0.53557 0.92667 0.0
C5095 C 1.01054 0.53773 0.94269 0.0
C5096 C 0.99953 0.52322 0.94923 0.0
C5097 C 0.99701 0.50651 0.93976 0.0
C5098 C 1.00544 0.50431 0.92369 0.0
C5099 C 1.01649 0.51878 0.91711 0.0
H5100 H 0.98848 0.49529 0.94485 0.0
H5101 H 0.09181 0.63903 0.88245 0.0
H5102 H 0.32731 0.16218 0.60014 0.0
H5103 H 0.32521 0.17676 0.63034 0.0
H5104 H 0.31444 0.22367 0.60394 0.0
H5105 H 0.3174 0.20928 0.57376 0.0
H5106 H 0.33261 0.23587 0.63394 0.0
H5107 H 0.27989 0.1895 0.62485 0.0
H5108 H 0.26258 0.15896 0.61853 0.0
H5109 H 0.29293 0.14245 0.66623 0.0
H5110 H 0.31059 0.17285 0.6727 0.0
H5111 H 0.29678 0.27344 0.71371 0.0
H5112 H 0.29993 0.25917 0.68347 0.0
H5113 H 0.32397 0.21847 0.7107 0.0
H5114 H 0.32127 0.23293 0.74094 0.0
H5115 H 0.29878 0.20335 0.68064 0.0
H5116 H 0.35059 0.25109 0.68968 0.0
H5117 H 0.36609 0.28221 0.69593 0.0
H5118 H 0.33491 0.29679 0.64769 0.0
H5119 H 0.31898 0.26576 0.64132 0.0
C5120 C 0.32452 0.17563 0.60065 0.0
C5121 C 0.32253 0.18431 0.58404 0.0
C5122 C 0.32309 0.18406 0.61819 0.0
C5123 C 0.31913 0.20153 0.62012 0.0
C5124 C 0.31742 0.21029 0.60349 0.0
C5125 C 0.31909 0.20193 0.58595 0.0
C5126 C 0.31694 0.21061 0.63917 0.0
C5127 C 0.32492 0.22863 0.64388 0.0
C5128 C 0.30723 0.20169 0.65298 0.0
C5129 C 0.29669 0.1834 0.64914 0.0
C5130 C 0.28296 0.17932 0.63391 0.0
C5131 C 0.27307 0.16205 0.63032 0.0
C5132 C 0.27669 0.14876 0.64194 0.0
C5133 C 0.29017 0.15274 0.65722 0.0
C5134 C 0.30011 0.17 0.66086 0.0
C5135 C 0.3028 0.26147 0.7134 0.0
C5136 C 0.30876 0.25459 0.73025 0.0
C5137 C 0.30467 0.25323 0.69586 0.0
C5138 C 0.31231 0.2375 0.69423 0.0
C5139 C 0.31801 0.23047 0.71106 0.0
C5140 C 0.31649 0.2389 0.72858 0.0
C5141 C 0.31439 0.22848 0.67524 0.0
C5142 C 0.30641 0.2105 0.6706 0.0
C5143 C 0.32384 0.2375 0.66141 0.0
C5144 C 0.33345 0.25613 0.66514 0.0
C5145 C 0.34693 0.26095 0.68049 0.0
C5146 C 0.35582 0.27858 0.68403 0.0
C5147 C 0.35146 0.29149 0.67223 0.0
C5148 C 0.33825 0.28678 0.65683 0.0
C5149 C 0.32929 0.26917 0.65324 0.0
H5150 H 0.35833 0.30514 0.675 0.0
H5151 H 0.26902 0.13539 0.63914 0.0
H5152 H 0.70172 0.56261 0.28364 0.0
H5153 H 0.68532 0.56345 0.25283 0.0
H5154 H 0.63652 0.53187 0.26975 0.0
H5155 H 0.65298 0.53067 0.30048 0.0
H5156 H 0.64197 0.52129 0.23553 0.0
H5157 H 0.64089 0.57688 0.2688 0.0
H5158 H 0.65446 0.60492 0.28696 0.0
H5159 H 0.68518 0.62219 0.24231 0.0
H5160 H 0.67204 0.59413 0.224 0.0
H5161 H 0.5738 0.54104 0.16772 0.0
H5162 H 0.59251 0.53918 0.19709 0.0
H5163 H 0.64051 0.56786 0.17591 0.0
H5164 H 0.62178 0.57002 0.14654 0.0
H5165 H 0.63656 0.57995 0.2115 0.0
H5166 H 0.6367 0.52451 0.17793 0.0
H5167 H 0.62262 0.49661 0.15981 0.0
H5168 H 0.59305 0.47922 0.20519 0.0
H5169 H 0.60675 0.50715 0.2235 0.0
C5170 C 0.68755 0.55571 0.28073 0.0
C5171 C 0.67857 0.54666 0.29446 0.0
C5172 C 0.67818 0.55627 0.26317 0.0
C5173 C 0.65961 0.54798 0.25912 0.0
C5174 C 0.65083 0.5384 0.27262 0.0
C5175 C 0.66023 0.53775 0.29016 0.0
C5176 C 0.64916 0.54964 0.24099 0.0
C5177 C 0.64062 0.53411 0.23036 0.0
C5178 C 0.64775 0.5664 0.2341 0.0
C5179 C 0.65562 0.58332 0.24509 0.0
C5180 C 0.65066 0.5866 0.26291 0.0
C5181 C 0.65825 0.6025 0.27323 0.0
C5182 C 0.67069 0.61531 0.26581 0.0
C5183 C 0.67556 0.61225 0.24805 0.0
C5184 C 0.66804 0.59635 0.23769 0.0
C5185 C 0.5883 0.5471 0.16938 0.0
C5186 C 0.59635 0.55566 0.15485 0.0
C5187 C 0.59899 0.5459 0.1861 0.0
C5188 C 0.61791 0.55323 0.18856 0.0
C5189 C 0.62593 0.56207 0.17422 0.0
C5190 C 0.61527 0.56319 0.15744 0.0
C5191 C 0.6293 0.5516 0.20614 0.0
C5192 C 0.638 0.56714 0.21665 0.0
C5193 C 0.6308 0.53486 0.21296 0.0
C5194 C 0.62262 0.518 0.20202 0.0
C5195 C 0.62708 0.5148 0.18399 0.0
C5196 C 0.61919 0.49897 0.1737 0.0
C5197 C 0.60691 0.48617 0.18133 0.0
C5198 C 0.60254 0.48916 0.19929 0.0
C5199 C 0.61038 0.50498 0.20964 0.0
H5200 H 0.60082 0.47392 0.17333 0.0
H5201 H 0.67652 0.62764 0.27379 0.0
H5202 H 0.30593 0.84254 0.99325 0.0
H5203 H 0.30235 0.82972 0.9613 0.0
H5204 H 0.3028 0.88183 0.94125 0.0
H5205 H 0.30608 0.89464 0.97307 0.0
H5206 H 0.2767 0.85847 0.92101 0.0
H5207 H 0.34109 0.8614 0.94187 0.0
H5208 H 0.36801 0.85608 0.96257 0.0
H5209 H 0.34998 0.79979 0.95288 0.0
H5210 H 0.3228 0.80477 0.93232 0.0
H5211 H 0.29419 0.83567 0.82828 0.0
H5212 H 0.29552 0.84901 0.85977 0.0
H5213 H 0.29368 0.79737 0.88126 0.0
H5214 H 0.2925 0.78399 0.85004 0.0
H5215 H 0.32064 0.82105 0.90052 0.0
H5216 H 0.25616 0.81827 0.87965 0.0
H5217 H 0.22957 0.82374 0.85858 0.0
H5218 H 0.24816 0.87995 0.86794 0.0
H5219 H 0.27504 0.87484 0.88886 0.0
C5220 C 0.30525 0.85125 0.98203 0.0
C5221 C 0.30637 0.86962 0.98573 0.0
C5222 C 0.30327 0.84392 0.96375 0.0
C5223 C 0.3025 0.85481 0.94879 0.0
C5224 C 0.30335 0.87312 0.95249 0.0
C5225 C 0.3053 0.88044 0.97073 0.0
C5226 C 0.30096 0.8472 0.92929 0.0
C5227 C 0.28646 0.85047 0.91649 0.0
C5228 C 0.31347 0.83651 0.92335 0.0
C5229 C 0.32981 0.83346 0.9357 0.0
C5230 C 0.34278 0.84789 0.94427 0.0
C5231 C 0.3581 0.84493 0.95596 0.0
C5232 C 0.36068 0.82761 0.95908 0.0
C5233 C 0.34796 0.8132 0.95048 0.0
C5234 C 0.3326 0.81608 0.93879 0.0
C5235 C 0.29388 0.82712 0.83967 0.0
C5236 C 0.29326 0.80873 0.83652 0.0
C5237 C 0.29462 0.83478 0.8577 0.0
C5238 C 0.29468 0.8242 0.87296 0.0
C5239 C 0.29374 0.80583 0.86978 0.0
C5240 C 0.29297 0.79819 0.85183 0.0
C5241 C 0.29632 0.8322 0.89229 0.0
C5242 C 0.31088 0.82904 0.90505 0.0
C5243 C 0.2839 0.84302 0.89815 0.0
C5244 C 0.26771 0.84616 0.88567 0.0
C5245 C 0.25466 0.8318 0.87709 0.0
C5246 C 0.23953 0.83484 0.8652 0.0
C5247 C 0.23722 0.85219 0.86187 0.0
C5248 C 0.25001 0.86654 0.87049 0.0
C5249 C 0.26518 0.86358 0.88238 0.0
H5250 H 0.22549 0.85453 0.85266 0.0
H5251 H 0.37255 0.82535 0.96813 0.0
H5252 H 0.99779 0.56767 0.74912 0.0
H5253 H 0.02139 0.56361 0.72899 0.0
H5254 H 0.05443 0.61345 0.75132 0.0
H5255 H 0.03076 0.61763 0.77175 0.0
H5256 H 0.05015 0.60694 0.7108 0.0
H5257 H 0.07023 0.58055 0.76541 0.0
H5258 H 0.06597 0.56237 0.79212 0.0
H5259 H 0.04592 0.51595 0.75547 0.0
H5260 H 0.04978 0.53388 0.72852 0.0
H5261 H 0.10436 0.57237 0.6465 0.0
H5262 H 0.0999 0.58562 0.67677 0.0
H5263 H 0.05683 0.5412 0.68253 0.0
H5264 H 0.0615 0.52788 0.65272 0.0
H5265 H 0.07721 0.55189 0.71511 0.0
H5266 H 0.04729 0.57936 0.66287 0.0
H5267 H 0.04817 0.59661 0.63514 0.0
H5268 H 0.08447 0.64 0.66653 0.0
H5269 H 0.0839 0.62294 0.69442 0.0
C5270 C 1.01001 0.57782 0.74971 0.0
C5271 C 1.01251 0.59291 0.76204 0.0
C5272 C 0.0235 0.57545 0.73827 0.0
C5273 C 0.03969 0.58813 0.73894 0.0
C5274 C 0.04204 0.60352 0.75077 0.0
C5275 C 0.02855 0.60585 0.76239 0.0
C5276 C 0.05397 0.58487 0.72711 0.0
C5277 C 0.05661 0.59524 0.71199 0.0
C5278 C 0.06224 0.56957 0.72876 0.0
C5279 C 0.0603 0.55859 0.74493 0.0
C5280 C 0.06485 0.56648 0.76304 0.0
C5281 C 0.0625 0.55621 0.77823 0.0
C5282 C 0.05568 0.53802 0.7755 0.0
C5283 C 0.05123 0.53004 0.75757 0.0
C5284 C 0.05354 0.54024 0.74232 0.0
C5285 C 0.09432 0.56528 0.65453 0.0
C5286 C 0.08309 0.54925 0.6473 0.0
C5287 C 0.09172 0.57288 0.67171 0.0
C5288 C 0.0779 0.56448 0.68174 0.0
C5289 C 0.06759 0.5479 0.67501 0.0
C5290 C 0.07015 0.54036 0.65794 0.0
C5291 C 0.0725 0.57338 0.69825 0.0
C5292 C 0.07153 0.56406 0.71431 0.0
C5293 C 0.06556 0.58953 0.69734 0.0
C5294 C 0.06578 0.59979 0.68062 0.0
C5295 C 0.05555 0.59254 0.66381 0.0
C5296 C 0.05597 0.60228 0.64809 0.0
C5297 C 0.06646 0.61935 0.64906 0.0
C5298 C 0.07643 0.62675 0.66579 0.0
C5299 C 0.07605 0.61706 0.68155 0.0
H5300 H 0.0668 0.62687 0.63687 0.0
H5301 H 0.05385 0.5301 0.78728 0.0
H5302 H 0.31668 0.20883 0.48809 0.0
H5303 H 0.31431 0.22292 0.45859 0.0
H5304 H 0.32366 0.17504 0.43027 0.0
H5305 H 0.32474 0.16069 0.45954 0.0
H5306 H 0.33109 0.23496 0.43402 0.0
H5307 H 0.31199 0.1715 0.38418 0.0
H5308 H 0.2944 0.14102 0.38334 0.0
H5309 H 0.2619 0.15754 0.42446 0.0
H5310 H 0.27916 0.18814 0.42539 0.0
H5311 H 0.33811 0.26655 0.34286 0.0
H5312 H 0.34103 0.25217 0.37209 0.0
H5313 H 0.28589 0.22226 0.35849 0.0
H5314 H 0.28357 0.23576 0.32881 0.0
H5315 H 0.30019 0.20167 0.37606 0.0
H5316 H 0.30362 0.26257 0.39521 0.0
H5317 H 0.31512 0.29484 0.3973 0.0
H5318 H 0.36899 0.2863 0.41954 0.0
H5319 H 0.35786 0.25395 0.41739 0.0
C5320 C 0.31809 0.20117 0.47558 0.0
C5321 C 0.32075 0.18334 0.47665 0.0
C5322 C 0.3168 0.20938 0.45841 0.0
C5323 C 0.31831 0.20032 0.44129 0.0
C5324 C 0.32158 0.18262 0.44256 0.0
C5325 C 0.32246 0.1743 0.45965 0.0
C5326 C 0.31669 0.20932 0.42252 0.0
C5327 C 0.32432 0.22746 0.42145 0.0
C5328 C 0.30749 0.20037 0.40552 0.0
C5329 C 0.29702 0.18205 0.405 0.0
C5330 C 0.30106 0.16862 0.39301 0.0
C5331 C 0.29115 0.15133 0.39252 0.0
C5332 C 0.27709 0.14734 0.40389 0.0
C5333 C 0.27285 0.16064 0.41571 0.0
C5334 C 0.2827 0.17795 0.41624 0.0
C5335 C 0.32656 0.25688 0.34599 0.0
C5336 C 0.31057 0.25256 0.33295 0.0
C5337 C 0.32813 0.24865 0.36314 0.0
C5338 C 0.31356 0.23603 0.36857 0.0
C5339 C 0.29763 0.23171 0.35538 0.0
C5340 C 0.29623 0.23963 0.33809 0.0
C5341 C 0.3148 0.22725 0.38748 0.0
C5342 C 0.30705 0.20915 0.3886 0.0
C5343 C 0.32319 0.23645 0.40466 0.0
C5344 C 0.32996 0.25584 0.40595 0.0
C5345 C 0.31795 0.26757 0.40044 0.0
C5346 C 0.3244 0.28587 0.40165 0.0
C5347 C 0.34279 0.29261 0.4085 0.0
C5348 C 0.35476 0.28106 0.41421 0.0
C5349 C 0.34839 0.26274 0.41301 0.0
H5350 H 0.34776 0.30678 0.40942 0.0
H5351 H 0.26945 0.13394 0.4035 0.0
H5352 H 0.3599 0.68842 0.53408 0.0
H5353 H 0.38754 0.6744 0.53459 0.0
H5354 H 0.35277 0.62278 0.52627 0.0
H5355 H 0.32525 0.63662 0.52602 0.0
H5356 H 0.38067 0.62294 0.55273 0.0
H5357 H 0.3735 0.64324 0.49102 0.0
H5358 H 0.37103 0.66556 0.46804 0.0
H5359 H 0.42485 0.69398 0.48977 0.0
H5360 H 0.42752 0.67197 0.51307 0.0
H5361 H 0.43808 0.56593 0.52327 0.0
H5362 H 0.41414 0.58453 0.52259 0.0
H5363 H 0.45612 0.6313 0.53476 0.0
H5364 H 0.48026 0.61275 0.53514 0.0
H5365 H 0.42715 0.63626 0.50849 0.0
H5366 H 0.43518 0.61513 0.56889 0.0
H5367 H 0.43817 0.59237 0.59124 0.0
H5368 H 0.38299 0.56565 0.57203 0.0
H5369 H 0.3798 0.58807 0.54929 0.0
C5370 C 0.35819 0.67408 0.5324 0.0
C5371 C 0.34043 0.66361 0.53 0.0
C5372 C 0.37398 0.6661 0.53261 0.0
C5373 C 0.37221 0.64754 0.53031 0.0
C5374 C 0.35447 0.63711 0.52808 0.0
C5375 C 0.33874 0.64505 0.5279 0.0
C5376 C 0.38872 0.63878 0.53035 0.0
C5377 C 0.39073 0.62577 0.54295 0.0
C5378 C 0.40219 0.64286 0.51797 0.0
C5379 C 0.4006 0.65608 0.50395 0.0
C5380 C 0.38474 0.65434 0.49101 0.0
C5381 C 0.38331 0.66692 0.4779 0.0
C5382 C 0.39774 0.68122 0.47749 0.0
C5383 C 0.41366 0.68293 0.49014 0.0
C5384 C 0.41513 0.6704 0.50329 0.0
C5385 C 0.44225 0.58019 0.52546 0.0
C5386 C 0.46103 0.58787 0.5294 0.0
C5387 C 0.42856 0.59079 0.5252 0.0
C5388 C 0.43337 0.60924 0.5289 0.0
C5389 C 0.45213 0.61707 0.53198 0.0
C5390 C 0.46587 0.60645 0.53232 0.0
C5391 C 0.4187 0.62013 0.5305 0.0
C5392 C 0.41713 0.63357 0.51834 0.0
C5393 C 0.40562 0.6165 0.5433 0.0
C5394 C 0.40731 0.60321 0.55727 0.0
C5395 C 0.42372 0.60435 0.56936 0.0
C5396 C 0.42545 0.59151 0.58211 0.0
C5397 C 0.41079 0.57755 0.58303 0.0
C5398 C 0.39434 0.57646 0.57128 0.0
C5399 C 0.39256 0.58924 0.55846 0.0
H5400 H 0.41218 0.56757 0.59285 0.0
H5401 H 0.39661 0.69094 0.46733 0.0
H5402 H 0.83983 0.9568 0.55644 0.0
H5403 H 0.87165 0.9724 0.55583 0.0
H5404 H 0.87769 0.9377 0.50928 0.0
H5405 H 0.84627 0.92161 0.51054 0.0
H5406 H 0.90871 0.94272 0.52713 0.0
H5407 H 0.87204 0.98639 0.5091 0.0
H5408 H 0.84866 1.00571 0.51168 0.0
H5409 H 0.87854 0.03056 0.56262 0.0
H5410 H 0.902 0.01123 0.56045 0.0
H5411 H 0.99173 0.99711 0.50254 0.0
H5412 H 0.95956 0.98207 0.50292 0.0
H5413 H 0.9577 1.00907 0.55576 0.0
H5414 H 0.98981 0.02393 0.55554 0.0
H5415 H 0.92493 1.00832 0.5345 0.0
H5416 H 0.96213 0.96443 0.55113 0.0
H5417 H 0.98573 0.94567 0.54694 0.0
H5418 H 0.95455 0.92174 0.49623 0.0
H5419 H 0.93089 0.94056 0.49998 0.0
C5420 C 0.84787 0.95249 0.546 0.0
C5421 C 0.84006 0.93782 0.53349 0.0
C5422 C 0.86627 0.96162 0.54552 0.0
C5423 C 0.87764 0.95681 0.53221 0.0
C5424 C 0.86976 0.94206 0.51978 0.0
C5425 C 0.8515 0.93279 0.52045 0.0
C5426 C 0.89758 0.96674 0.53132 0.0
C5427 C 0.91197 0.95709 0.52847 0.0
C5428 C 0.90272 0.98562 0.53335 0.0
C5429 C 0.88866 0.99723 0.53471 0.0
C5430 C 0.87355 0.99589 0.52092 0.0
C5431 C 0.8603 1.00686 0.52229 0.0
C5432 C 0.86208 0.01932 0.53733 0.0
C5433 C 0.87716 0.02088 0.551 0.0
C5434 C 0.89044 1.00993 0.54969 0.0
C5435 C 0.98451 0.99999 0.51423 0.0
C5436 C 0.99379 0.01196 0.52899 0.0
C5437 C 0.96595 0.9912 0.51451 0.0
C5438 C 0.95573 0.99407 0.52948 0.0
C5439 C 0.96485 1.00636 0.54397 0.0
C5440 C 0.98346 0.01494 0.54382 0.0
C5441 C 0.93583 0.98428 0.53021 0.0
C5442 C 0.92152 0.99395 0.53308 0.0
C5443 C 0.93072 0.96546 0.52795 0.0
C5444 C 0.94483 0.95403 0.52574 0.0
C5445 C 0.96037 0.95526 0.53902 0.0
C5446 C 0.97375 0.9446 0.53673 0.0
C5447 C 0.97166 0.93255 0.5213 0.0
C5448 C 0.95616 0.9311 0.50816 0.0
C5449 C 0.94276 0.94175 0.51036 0.0
H5450 H 0.98204 0.92432 0.51955 0.0
H5451 H 0.85181 0.0278 0.53837 0.0
H5452 H 0.8968 0.07716 0.24404 0.0
H5453 H 0.87985 0.09955 0.25517 0.0
H5454 H 0.8291 0.07063 0.22565 0.0
H5455 H 0.84606 0.04805 0.21429 0.0
H5456 H 0.8334 0.108 0.22367 0.0
H5457 H 0.8361 0.06541 0.26939 0.0
H5458 H 0.8515 0.04638 0.28999 0.0
H5459 H 0.88589 0.0925 0.31866 0.0
H5460 H 0.8709 0.11181 0.29803 0.0
H5461 H 0.78103 0.15985 0.27295 0.0
H5462 H 0.79177 0.13333 0.2613 0.0
H5463 H 0.84625 0.15274 0.28986 0.0
H5464 H 0.83545 0.179 0.30209 0.0
H5465 H 0.83629 0.11734 0.29192 0.0
H5466 H 0.83629 0.15955 0.24472 0.0
H5467 H 0.82194 0.17914 0.22393 0.0
H5468 H 0.78333 0.1343 0.19798 0.0
H5469 H 0.7973 0.11447 0.21882 0.0
C5470 C 0.88207 0.07565 0.23972 0.0
C5471 C 0.87269 0.0608 0.22846 0.0
C5472 C 0.87242 0.08842 0.24613 0.0
C5473 C 0.85322 0.08652 0.24147 0.0
C5474 C 0.84392 0.07221 0.22945 0.0
C5475 C 0.8536 0.05936 0.223 0.0
C5476 C 0.84292 0.09912 0.24998 0.0
C5477 C 0.83369 0.10984 0.23856 0.0
C5478 C 0.8436 0.10161 0.26942 0.0
C5479 C 0.85245 0.09005 0.28207 0.0
C5480 C 0.84703 0.07149 0.28001 0.0
C5481 C 0.85568 0.06065 0.2917 0.0
C5482 C 0.86969 0.06822 0.30561 0.0
C5483 C 0.87504 0.08665 0.30788 0.0
C5484 C 0.86645 0.09755 0.2962 0.0
C5485 C 0.79517 0.15825 0.27713 0.0
C5486 C 0.80746 0.17153 0.28833 0.0
C5487 C 0.80132 0.14319 0.27031 0.0
C5488 C 0.81986 0.14127 0.27448 0.0
C5489 C 0.8319 0.15405 0.28642 0.0
C5490 C 0.82576 0.16908 0.29328 0.0
C5491 C 0.82708 0.12649 0.26564 0.0
C5492 C 0.83574 0.11534 0.27701 0.0
C5493 C 0.82594 0.12368 0.24616 0.0
C5494 C 0.8177 0.13556 0.23347 0.0
C5495 C 0.82466 0.15389 0.23467 0.0
C5496 C 0.81661 0.16503 0.22287 0.0
C5497 C 0.8017 0.15797 0.20968 0.0
C5498 C 0.79486 0.13975 0.20823 0.0
C5499 C 0.80284 0.12855 0.22002 0.0
H5500 H 0.79548 0.16662 0.20056 0.0
H5501 H 0.87638 0.05981 0.31464 0.0
H5502 H 0.75486 0.12928 0.01677 0.0
H5503 H 0.72514 0.10917 0.01458 0.0
H5504 H 0.698 0.15332 0.02722 0.0
H5505 H 0.72778 0.17359 0.02942 0.0
H5506 H 0.6871 0.12383 0.04713 0.0
H5507 H 0.69393 0.13671 0.98395 0.0
H5508 H 0.71005 0.13899 0.95594 0.0
H5509 H 0.71138 0.08309 0.95432 0.0
H5510 H 0.69549 0.08052 0.98249 0.0
H5511 H 0.59364 0.08562 0.01469 0.0
H5512 H 0.62418 0.10424 0.01559 0.0
H5513 H 0.64967 0.0575 0.01483 0.0
H5514 H 0.61914 0.03873 0.01465 0.0
H5515 H 0.66172 0.08722 0.9891 0.0
H5516 H 0.65448 0.07367 0.05127 0.0
H5517 H 0.63865 0.07064 0.07936 0.0
H5518 H 0.6396 0.12685 0.0841 0.0
H5519 H 0.65464 0.13017 0.05543 0.0
C5520 C 0.74257 0.13473 0.01908 0.0
C5521 C 0.74363 0.15303 0.0232 0.0
C5522 C 0.7256 0.12322 0.01777 0.0
C5523 C 0.70935 0.12977 0.02059 0.0
C5524 C 0.71039 0.14801 0.02498 0.0
C5525 C 0.72737 0.15957 0.02616 0.0
C5526 C 0.69129 0.11757 0.01891 0.0
C5527 C 0.68142 0.11601 0.03438 0.0
C5528 C 0.6842 0.10696 1.00242 0.0
C5529 C 0.69369 0.10846 0.98544 0.0
C5530 C 0.6978 0.12493 0.97771 0.0
C5531 C 0.70687 0.12627 0.96179 0.0
C5532 C 0.71178 0.11121 0.95338 0.0
C5533 C 0.70759 0.09476 0.96086 0.0
C5534 C 0.69854 0.09335 0.97679 0.0
C5535 C 0.60572 0.07928 0.01446 0.0
C5536 C 0.60406 0.06074 0.01459 0.0
C5537 C 0.62312 0.08994 0.01505 0.0
C5538 C 0.63909 0.0822 0.01536 0.0
C5539 C 0.63744 0.06366 0.01461 0.0
C5540 C 0.62005 0.05299 0.01453 0.0
C5541 C 0.65753 0.09364 0.01726 0.0
C5542 C 0.66743 0.09506 1.00184 0.0
C5543 C 0.66471 0.10401 0.03384 0.0
C5544 C 0.65535 0.10211 0.05092 0.0
C5545 C 0.65093 0.08535 0.05801 0.0
C5546 C 0.64211 0.08359 0.07406 0.0
C5547 C 0.63793 0.09854 0.08338 0.0
C5548 C 0.64261 0.11528 0.07668 0.0
C5549 C 0.65124 0.1171 0.0605 0.0
H5550 H 0.63119 0.09717 0.09586 0.0
H5551 H 0.7188 0.11227 0.94106 0.0
H5552 H 0.14061 0.43262 0.30134 0.0
H5553 H 0.16124 0.41275 0.31358 0.0
H5554 H 0.20675 0.45683 0.32204 0.0
H5555 H 0.18643 0.47657 0.30981 0.0
H5556 H 0.21443 0.4291 0.3013 0.0
H5557 H 0.18916 0.43829 0.35901 0.0
H5558 H 0.16362 0.43836 0.37835 0.0
H5559 H 0.14542 0.38258 0.36465 0.0
H5560 H 0.17089 0.38216 0.34522 0.0
H5561 H 0.28601 0.39183 0.34072 0.0
H5562 H 0.26183 0.41002 0.34206 0.0
H5563 H 0.21986 0.36305 0.33188 0.0
H5564 H 0.24402 0.34471 0.33092 0.0
H5565 H 0.20894 0.39066 0.35405 0.0
H5566 H 0.23265 0.38099 0.29623 0.0
H5567 H 0.25726 0.37995 0.27594 0.0
H5568 H 0.27651 0.43586 0.28783 0.0
H5569 H 0.25221 0.43715 0.30851 0.0
C5570 C 0.15495 0.43807 0.30609 0.0
C5571 C 0.16197 0.45608 0.30445 0.0
C5572 C 0.16668 0.42675 0.31314 0.0
C5573 C 0.18552 0.43335 0.3187 0.0
C5574 C 0.19228 0.45147 0.31778 0.0
C5575 C 0.18064 0.46272 0.31076 0.0
C5576 C 0.19871 0.4213 0.32378 0.0
C5577 C 0.21336 0.42092 0.31302 0.0
C5578 C 0.1969 0.41012 0.33861 0.0
C5579 C 0.18183 0.41023 0.35055 0.0
C5580 C 0.17967 0.42605 0.36007 0.0
C5581 C 0.16525 0.42614 0.37109 0.0
C5582 C 0.15291 0.41048 0.37273 0.0
C5583 C 0.15503 0.39468 0.3634 0.0
C5584 C 0.16949 0.39449 0.35243 0.0
C5585 C 0.27168 0.38532 0.33949 0.0
C5586 C 0.26687 0.36692 0.33532 0.0
C5587 C 0.25787 0.39572 0.34022 0.0
C5588 C 0.23909 0.38788 0.3367 0.0
C5589 C 0.23427 0.36935 0.33453 0.0
C5590 C 0.24808 0.35893 0.3338 0.0
C5591 C 0.22494 0.39905 0.33194 0.0
C5592 C 0.21004 0.39901 0.34248 0.0
C5593 C 0.22631 0.40977 0.31672 0.0
C5594 C 0.24075 0.40913 0.30406 0.0
C5595 C 0.24223 0.39303 0.29463 0.0
C5596 C 0.25611 0.3924 0.28305 0.0
C5597 C 0.26847 0.40783 0.28063 0.0
C5598 C 0.26694 0.42392 0.28975 0.0
C5599 C 0.25312 0.42461 0.3014 0.0
H5600 H 0.27921 0.40731 0.27165 0.0
H5601 H 0.14173 0.41059 0.38122 0.0
H5602 H 0.2497 0.45917 0.03292 0.0
H5603 H 0.22246 0.47369 0.03296 0.0
H5604 H 0.18851 0.42348 0.03983 0.0
H5605 H 0.21573 0.40887 0.03906 0.0
H5606 H 0.16693 0.439 0.0202 0.0
H5607 H 0.20471 0.46262 0.07616 0.0
H5608 H 0.23285 0.47757 0.0958 0.0
H5609 H 0.2325 0.5245 0.06596 0.0
H5610 H 0.20447 0.50975 0.046 0.0
H5611 H 0.08807 0.47792 0.04204 0.0
H5612 H 0.11493 0.46292 0.04228 0.0
H5613 H 0.14975 0.51256 0.03507 0.0
H5614 H 0.12297 0.52773 0.03581 0.0
H5615 H 0.17057 0.49689 0.0551 0.0
H5616 H 0.1323 0.47209 0.99866 0.0
H5617 H 0.10302 0.45703 0.9809 0.0
H5618 H 0.10344 0.41194 0.01357 0.0
H5619 H 0.1327 0.42675 0.03157 0.0
C5620 C 0.23648 0.4511 0.03447 0.0
C5621 C 0.23544 0.4326 0.03606 0.0
C5622 C 0.22062 0.45958 0.03469 0.0
C5623 C 0.20273 0.45015 0.03686 0.0
C5624 C 0.20169 0.43157 0.03819 0.0
C5625 C 0.21754 0.42307 0.03781 0.0
C5626 C 0.18539 0.45942 0.03762 0.0
C5627 C 0.16793 0.45157 0.02808 0.0
C5628 C 0.18578 0.47612 0.04753 0.0
C5629 C 0.20262 0.48501 0.05946 0.0
C5630 C 0.21071 0.47609 0.07371 0.0
C5631 C 0.22663 0.48453 0.08491 0.0
C5632 C 0.23449 0.50195 0.0821 0.0
C5633 C 0.22641 0.51099 0.0681 0.0
C5634 C 0.21051 0.5026 0.05685 0.0
C5635 C 0.10138 0.48577 0.04043 0.0
C5636 C 0.1028 0.50431 0.03877 0.0
C5637 C 0.11704 0.47699 0.04037 0.0
C5638 C 0.13504 0.48611 0.03814 0.0
C5639 C 0.13645 0.5047 0.03672 0.0
C5640 C 0.12085 0.51353 0.03707 0.0
C5641 C 0.15221 0.47659 0.03752 0.0
C5642 C 0.16963 0.48437 0.04713 0.0
C5643 C 0.15174 0.45978 0.02779 0.0
C5644 C 0.1346 0.45058 0.01653 0.0
C5645 C 0.12614 0.45896 1.00204 0.0
C5646 C 0.10955 0.45049 0.99197 0.0
C5647 C 0.10135 0.4336 0.9962 0.0
C5648 C 0.10978 0.42507 0.0104 0.0
C5649 C 0.12641 0.43346 0.02048 0.0
H5650 H 0.08856 0.42704 0.98836 0.0
H5651 H 0.24681 0.50847 0.09078 0.0
H5652 H 0.89448 0.95705 0.19818 0.0
H5653 H 0.88124 0.92623 0.2023 0.0
H5654 H 0.83189 0.94303 0.2187 0.0
H5655 H 0.84519 0.97387 0.21495 0.0
H5656 H 0.84732 0.92523 0.24456 0.0
H5657 H 0.83074 0.91654 0.17905 0.0
H5658 H 0.83583 0.91739 0.14618 0.0
H5659 H 0.87574 0.88271 0.15421 0.0
H5660 H 0.87108 0.88185 0.18721 0.0
H5661 H 0.79687 0.84168 0.25775 0.0
H5662 H 0.80645 0.86946 0.24368 0.0
H5663 H 0.85837 0.85352 0.23445 0.0
H5664 H 0.84893 0.82553 0.24857 0.0
H5665 H 0.84157 0.87013 0.204 0.0
H5666 H 0.85943 0.88019 0.26945 0.0
H5667 H 0.85465 0.87929 0.3024 0.0
H5668 H 0.81269 0.91179 0.29424 0.0
H5669 H 0.81702 0.91266 0.26115 0.0
C5670 C 0.88059 0.95411 0.20214 0.0
C5671 C 0.87094 0.96785 0.20647 0.0
C5672 C 0.87302 0.93648 0.20445 0.0
C5673 C 0.85561 0.93236 0.2109 0.0
C5674 C 0.84539 0.94595 0.21381 0.0
C5675 C 0.85298 0.96355 0.21162 0.0
C5676 C 0.84921 0.91446 0.21704 0.0
C5677 C 0.84572 0.91323 0.23554 0.0
C5678 C 0.84783 0.89876 0.20549 0.0
C5679 C 0.85068 0.89927 0.18566 0.0
C5680 C 0.84072 0.90922 0.17385 0.0
C5681 C 0.84351 0.90968 0.15518 0.0
C5682 C 0.85613 0.90015 0.14812 0.0
C5683 C 0.86597 0.89011 0.15971 0.0
C5684 C 0.86325 0.88961 0.17839 0.0
C5685 C 0.81029 0.84397 0.25264 0.0
C5686 C 0.82221 0.83145 0.25444 0.0
C5687 C 0.81571 0.85985 0.24459 0.0
C5688 C 0.83313 0.86352 0.23816 0.0
C5689 C 0.84485 0.85085 0.23933 0.0
C5690 C 0.83948 0.83496 0.24751 0.0
C5691 C 0.83944 0.88109 0.23132 0.0
C5692 C 0.84305 0.88221 0.21285 0.0
C5693 C 0.84102 0.89677 0.24287 0.0
C5694 C 0.83841 0.89632 0.26278 0.0
C5695 C 0.84907 0.88701 0.27464 0.0
C5696 C 0.84646 0.88653 0.29335 0.0
C5697 C 0.83334 0.89543 0.3004 0.0
C5698 C 0.82283 0.90487 0.28875 0.0
C5699 C 0.82536 0.90537 0.27002 0.0
H5700 H 0.83134 0.89505 0.31489 0.0
H5701 H 0.85826 0.90051 0.13366 0.0
H5702 H 0.65726 0.03632 0.75323 0.0
H5703 H 0.67741 0.06485 0.75138 0.0
H5704 H 0.67113 0.07954 0.80803 0.0
H5705 H 0.65078 0.05116 0.80988 0.0
H5706 H 0.66684 0.10604 0.78615 0.0
H5707 H 0.7109 0.06724 0.79705 0.0
H5708 H 0.72505 0.04073 0.79159 0.0
H5709 H 0.73514 0.05633 0.73727 0.0
H5710 H 0.7208 0.08282 0.74231 0.0
H5711 H 0.7397 0.18092 0.79797 0.0
H5712 H 0.72064 0.15211 0.80123 0.0
H5713 H 0.72355 0.13689 0.74396 0.0
H5714 H 0.7423 0.16573 0.74047 0.0
H5715 H 0.73006 0.11068 0.76704 0.0
H5716 H 0.68523 0.14917 0.75617 0.0
H5717 H 0.67114 0.17567 0.7619 0.0
H5718 H 0.66271 0.16054 0.81675 0.0
H5719 H 0.67701 0.13407 0.81143 0.0
C5720 C 0.66024 0.04562 0.76529 0.0
C5721 C 0.6525 0.04155 0.7817 0.0
C5722 C 0.6718 0.06186 0.76425 0.0
C5723 C 0.67589 0.07421 0.77964 0.0
C5724 C 0.66815 0.07017 0.79602 0.0
C5725 C 0.65658 0.05395 0.79706 0.0
C5726 C 0.6879 0.09154 0.77851 0.0
C5727 C 0.68077 0.10706 0.78225 0.0
C5728 C 0.70592 0.09282 0.77306 0.0
C5729 C 0.71461 0.07693 0.77 0.0
C5730 C 0.716 0.06495 0.78389 0.0
C5731 C 0.72408 0.04994 0.78088 0.0
C5732 C 0.73095 0.04682 0.76408 0.0
C5733 C 0.72979 0.05874 0.75027 0.0
C5734 C 0.7217 0.07377 0.7532 0.0
C5735 C 0.73613 0.1715 0.78603 0.0
C5736 C 0.74249 0.17561 0.76896 0.0
C5737 C 0.72531 0.15505 0.78793 0.0
C5738 C 0.72064 0.14245 0.7728 0.0
C5739 C 0.7271 0.14643 0.75581 0.0
C5740 C 0.73785 0.16288 0.75387 0.0
C5741 C 0.70895 0.12512 0.77463 0.0
C5742 C 0.71615 0.10962 0.77101 0.0
C5743 C 0.69101 0.12385 0.78025 0.0
C5744 C 0.68237 0.13974 0.78347 0.0
C5745 C 0.68052 0.15158 0.76951 0.0
C5746 C 0.67247 0.16658 0.77267 0.0
C5747 C 0.66608 0.16982 0.7897 0.0
C5748 C 0.66769 0.15803 0.80358 0.0
C5749 C 0.67576 0.14302 0.80049 0.0
H5750 H 0.65984 0.18143 0.79212 0.0
H5751 H 0.73721 0.0352 0.76178 0.0
loop_
_geom_bond_atom_site_label_1
_geom_bond_atom_site_label_2
_geom_bond_distance
_geom_bond_site_symmetry_2
_ccdc_geom_bond_type
In0 O1 2.294 . S
In0 O2 2.326 . S
In0 O6 2.266 . S
In0 O7 2.326 . S
In0 O8 2.266 . S
In0 O9 2.326 . S
In0 O11 2.294 . S
In0 O12 2.326 . S
O1 In0 2.294 . S
O1 C10 1.240 . S
O2 In0 2.326 . S
O2 C10 1.252 . S
C3 O6 1.252 1_655 S
C3 O7 1.260 1_655 S
C4 O11 1.240 . S
C4 O12 1.252 . S
C5 O8 1.252 . S
C5 O9 1.260 . S
O6 In0 2.266 . S
O6 C3 1.252 1_455 S
O7 In0 2.326 . S
O7 C3 1.260 1_455 S
O8 In0 2.266 . S
O8 C5 1.252 . S
O9 In0 2.326 . S
O9 C5 1.260 . S
C10 O1 1.240 . S
C10 O2 1.252 . S
O11 In0 2.294 . S
O11 C4 1.240 . S
O12 In0 2.326 . S
O12 C4 1.252 . S
In13 O14 2.294 . S
In13 O15 2.326 . S
In13 O19 2.266 . S
In13 O20 2.326 . S
In13 O21 2.266 . S
In13 O22 2.326 . S
In13 O24 2.294 . S
In13 O25 2.326 . S
O14 In13 2.294 . S
O14 C23 1.240 . S
O15 In13 2.326 . S
O15 C23 1.252 . S
C16 O19 1.252 . S
C16 O20 1.260 . S
C17 O24 1.240 . S
C17 O25 1.252 . S
C18 O21 1.252 . S
C18 O22 1.260 . S
O19 In13 2.266 . S
O19 C16 1.252 . S
O20 In13 2.326 . S
O20 C16 1.260 . S
O21 In13 2.266 . S
O21 C18 1.252 . S
O22 In13 2.326 . S
O22 C18 1.260 . S
C23 O14 1.240 . S
C23 O15 1.252 . S
O24 In13 2.294 . S
O24 C17 1.240 . S
O25 In13 2.326 . S
O25 C17 1.252 . S
In26 O27 2.294 . S
In26 O28 2.326 . S
In26 O32 2.266 . S
In26 O33 2.326 . S
In26 O34 2.266 . S
In26 O35 2.326 . S
In26 O37 2.294 . S
In26 O38 2.326 . S
O27 In26 2.294 . S
O27 C36 1.240 . S
O28 In26 2.326 . S
O28 C36 1.252 . S
C29 O32 1.252 . S
C29 O33 1.260 . S
C30 O37 1.240 . S
C30 O38 1.252 . S
C31 O34 1.252 . S
C31 O35 1.260 . S
O32 In26 2.266 . S
O32 C29 1.252 . S
O33 In26 2.326 . S
O33 C29 1.260 . S
O34 In26 2.266 . S
O34 C31 1.252 . S
O35 In26 2.326 . S
O35 C31 1.260 . S
C36 O27 1.240 . S
C36 O28 1.252 . S
O37 In26 2.294 . S
O37 C30 1.240 . S
O38 In26 2.326 . S
O38 C30 1.252 . S
In39 O40 2.294 . S
In39 O41 2.326 . S
In39 O45 2.266 . S
In39 O46 2.326 . S
In39 O47 2.266 . S
In39 O48 2.326 . S
In39 O50 2.294 . S
In39 O51 2.326 . S
O40 In39 2.294 . S
O40 C49 1.240 . S
O41 In39 2.326 . S
O41 C49 1.252 . S
C42 O45 1.252 . S
C42 O46 1.260 . S
C43 O50 1.240 . S
C43 O51 1.252 . S
C44 O47 1.252 . S
C44 O48 1.260 . S
O45 In39 2.266 . S
O45 C42 1.252 . S
O46 In39 2.326 . S
O46 C42 1.260 . S
O47 In39 2.266 . S
O47 C44 1.252 . S
O48 In39 2.326 . S
O48 C44 1.260 . S
C49 O40 1.240 . S
C49 O41 1.252 . S
O50 In39 2.294 . S
O50 C43 1.240 . S
O51 In39 2.326 . S
O51 C43 1.252 . S
In52 O53 2.294 . S
In52 O54 2.326 . S
In52 O58 2.266 . S
In52 O59 2.326 . S
In52 O60 2.266 . S
In52 O61 2.326 . S
In52 O63 2.294 . S
In52 O64 2.326 . S
O53 In52 2.294 . S
O53 C62 1.240 . S
O54 In52 2.326 . S
O54 C62 1.252 . S
C55 O58 1.252 . S
C55 O59 1.260 . S
C56 O63 1.240 . S
C56 O64 1.252 . S
C57 O60 1.252 . S
C57 O61 1.260 . S
O58 In52 2.266 . S
O58 C55 1.252 . S
O59 In52 2.326 . S
O59 C55 1.260 . S
O60 In52 2.266 . S
O60 C57 1.252 . S
O61 In52 2.326 . S
O61 C57 1.260 . S
C62 O53 1.240 . S
C62 O54 1.252 . S
O63 In52 2.294 . S
O63 C56 1.240 . S
O64 In52 2.326 . S
O64 C56 1.252 . S
In65 O66 2.294 . S
In65 O67 2.326 . S
In65 O71 2.266 . S
In65 O72 2.326 . S
In65 O73 2.266 . S
In65 O74 2.326 . S
In65 O76 2.294 . S
In65 O77 2.326 . S
O66 In65 2.294 . S
O66 C75 1.240 . S
O67 In65 2.326 . S
O67 C75 1.252 . S
C68 O71 1.252 . S
C68 O72 1.260 . S
C69 O76 1.240 . S
C69 O77 1.252 . S
C70 O73 1.252 . S
C70 O74 1.260 . S
O71 In65 2.266 . S
O71 C68 1.252 . S
O72 In65 2.326 . S
O72 C68 1.260 . S
O73 In65 2.266 . S
O73 C70 1.252 . S
O74 In65 2.326 . S
O74 C70 1.260 . S
C75 O66 1.240 . S
C75 O67 1.252 . S
O76 In65 2.294 . S
O76 C69 1.240 . S
O77 In65 2.326 . S
O77 C69 1.252 . S
In78 O79 2.294 . S
In78 O80 2.326 . S
In78 O84 2.266 . S
In78 O85 2.326 . S
In78 O86 2.266 . S
In78 O87 2.326 . S
In78 O89 2.294 . S
In78 O90 2.326 . S
O79 In78 2.294 . S
O79 C88 1.240 . S
O80 In78 2.326 . S
O80 C88 1.252 . S
C81 O84 1.252 . S
C81 O85 1.260 . S
C82 O89 1.240 . S
C82 O90 1.252 . S
C83 O86 1.252 . S
C83 O87 1.260 . S
O84 In78 2.266 . S
O84 C81 1.252 . S
O85 In78 2.326 . S
O85 C81 1.260 . S
O86 In78 2.266 . S
O86 C83 1.252 . S
O87 In78 2.326 . S
O87 C83 1.260 . S
C88 O79 1.240 . S
C88 O80 1.252 . S
O89 In78 2.294 . S
O89 C82 1.240 . S
O90 In78 2.326 . S
O90 C82 1.252 . S
In91 O92 2.294 . S
In91 O93 2.328 1_455 S
In91 O97 2.266 . S
In91 O98 2.331 . S
In91 O99 2.264 1_455 S
In91 O100 2.323 1_455 S
In91 O102 2.296 . S
In91 O103 2.329 . S
O92 In91 2.294 . S
O92 C101 1.240 . S
O93 In91 2.328 1_655 S
O93 C101 1.252 1_655 S
C94 O97 1.254 . S
C94 O98 1.261 . S
C95 O102 1.240 . S
C95 O103 1.252 . S
C96 O99 1.252 . S
C96 O100 1.260 . S
O97 In91 2.266 . S
O97 C94 1.254 . S
O98 In91 2.331 . S
O98 C94 1.261 . S
O99 In91 2.264 1_655 S
O99 C96 1.252 . S
O100 In91 2.323 1_655 S
O100 C96 1.260 . S
C101 O92 1.240 . S
C101 O93 1.252 1_455 S
O102 In91 2.296 . S
O102 C95 1.240 . S
O103 In91 2.329 . S
O103 C95 1.252 . S
In104 O105 2.294 . S
In104 O106 2.326 . S
In104 O110 2.266 . S
In104 O111 2.326 . S
In104 O112 2.266 . S
In104 O113 2.326 . S
In104 O115 2.294 . S
In104 O116 2.326 . S
O105 In104 2.294 . S
O105 C114 1.240 . S
O106 In104 2.326 . S
O106 C114 1.252 . S
C107 O110 1.252 . S
C107 O111 1.260 . S
C108 O115 1.240 . S
C108 O116 1.252 . S
C109 O112 1.252 . S
C109 O113 1.260 . S
O110 In104 2.266 . S
O110 C107 1.252 . S
O111 In104 2.326 . S
O111 C107 1.260 . S
O112 In104 2.266 . S
O112 C109 1.252 . S
O113 In104 2.326 . S
O113 C109 1.260 . S
C114 O105 1.240 . S
C114 O106 1.252 . S
O115 In104 2.294 . S
O115 C108 1.240 . S
O116 In104 2.326 . S
O116 C108 1.252 . S
In117 O118 2.294 . S
In117 O119 2.326 . S
In117 O123 2.266 . S
In117 O124 2.326 . S
In117 O125 2.266 . S
In117 O126 2.326 . S
In117 O128 2.294 . S
In117 O129 2.326 . S
O118 In117 2.294 . S
O118 C127 1.240 . S
O119 In117 2.326 . S
O119 C127 1.252 . S
C120 O123 1.252 . S
C120 O124 1.260 . S
C121 O128 1.240 . S
C121 O129 1.252 . S
C122 O125 1.252 . S
C122 O126 1.260 . S
O123 In117 2.266 . S
O123 C120 1.252 . S
O124 In117 2.326 . S
O124 C120 1.260 . S
O125 In117 2.266 . S
O125 C122 1.252 . S
O126 In117 2.326 . S
O126 C122 1.260 . S
C127 O118 1.240 . S
C127 O119 1.252 . S
O128 In117 2.294 . S
O128 C121 1.240 . S
O129 In117 2.326 . S
O129 C121 1.252 . S
In130 O131 2.294 . S
In130 O132 2.326 . S
In130 O136 2.266 . S
In130 O137 2.326 . S
In130 O138 2.266 . S
In130 O139 2.326 . S
In130 O141 2.294 . S
In130 O142 2.326 . S
O131 In130 2.294 . S
O131 C140 1.240 . S
O132 In130 2.326 . S
O132 C140 1.252 . S
C133 O136 1.252 . S
C133 O137 1.260 . S
C134 O141 1.240 . S
C134 O142 1.252 . S
C135 O138 1.252 . S
C135 O139 1.260 . S
O136 In130 2.266 . S
O136 C133 1.252 . S
O137 In130 2.326 . S
O137 C133 1.260 . S
O138 In130 2.266 . S
O138 C135 1.252 . S
O139 In130 2.326 . S
O139 C135 1.260 . S
C140 O131 1.240 . S
C140 O132 1.252 . S
O141 In130 2.294 . S
O141 C134 1.240 . S
O142 In130 2.326 . S
O142 C134 1.252 . S
In143 O144 2.294 . S
In143 O145 2.326 . S
In143 O149 2.266 . S
In143 O150 2.326 . S
In143 O151 2.266 . S
In143 O152 2.326 . S
In143 O154 2.294 . S
In143 O155 2.326 . S
O144 In143 2.294 . S
O144 C153 1.240 . S
O145 In143 2.326 . S
O145 C153 1.252 . S
C146 O149 1.252 . S
C146 O150 1.260 . S
C147 O154 1.240 . S
C147 O155 1.252 . S
C148 O151 1.252 . S
C148 O152 1.260 . S
O149 In143 2.266 . S
O149 C146 1.252 . S
O150 In143 2.326 . S
O150 C146 1.260 . S
O151 In143 2.266 . S
O151 C148 1.252 . S
O152 In143 2.326 . S
O152 C148 1.260 . S
C153 O144 1.240 . S
C153 O145 1.252 . S
O154 In143 2.294 . S
O154 C147 1.240 . S
O155 In143 2.326 . S
O155 C147 1.252 . S
In156 O157 2.294 . S
In156 O158 2.326 . S
In156 O162 2.266 . S
In156 O163 2.326 1_554 S
In156 O164 2.266 . S
In156 O165 2.326 . S
In156 O167 2.294 . S
In156 O168 2.326 . S
O157 In156 2.294 . S
O157 C166 1.240 . S
O158 In156 2.326 . S
O158 C166 1.252 . S
C159 O162 1.252 1_556 S
C159 O163 1.260 . S
C160 O167 1.240 . S
C160 O168 1.252 . S
C161 O164 1.252 . S
C161 O165 1.260 . S
O162 In156 2.266 . S
O162 C159 1.252 1_554 S
O163 In156 2.326 1_556 S
O163 C159 1.260 . S
O164 In156 2.266 . S
O164 C161 1.252 . S
O165 In156 2.326 . S
O165 C161 1.260 . S
C166 O157 1.240 . S
C166 O158 1.252 . S
O167 In156 2.294 . S
O167 C160 1.240 . S
O168 In156 2.326 . S
O168 C160 1.252 . S
In169 O170 2.294 . S
In169 O171 2.326 . S
In169 O175 2.266 1_554 S
In169 O176 2.325 1_554 S
In169 O177 2.264 1_554 S
In169 O178 2.322 1_554 S
In169 O180 2.296 . S
In169 O181 2.330 . S
O170 In169 2.294 . S
O170 C179 1.240 . S
O171 In169 2.326 . S
O171 C179 1.252 . S
C172 O175 1.252 . S
C172 O176 1.260 . S
C173 O180 1.240 . S
C173 O181 1.252 . S
C174 O177 1.252 . S
C174 O178 1.260 . S
O175 In169 2.266 1_556 S
O175 C172 1.252 . S
O176 In169 2.325 1_556 S
O176 C172 1.260 . S
O177 In169 2.264 1_556 S
O177 C174 1.252 . S
O178 In169 2.322 1_556 S
O178 C174 1.260 . S
C179 O170 1.240 . S
C179 O171 1.252 . S
O180 In169 2.296 . S
O180 C173 1.240 . S
O181 In169 2.330 . S
O181 C173 1.252 . S
In182 O183 2.294 . S
In182 O184 2.326 . S
In182 O188 2.266 . S
In182 O189 2.326 . S
In182 O190 2.266 . S
In182 O191 2.326 . S
In182 O193 2.294 . S
In182 O194 2.326 . S
O183 In182 2.294 . S
O183 C192 1.240 . S
O184 In182 2.326 . S
O184 C192 1.252 . S
C185 O188 1.252 . S
C185 O189 1.260 . S
C186 O193 1.240 . S
C186 O194 1.252 . S
C187 O190 1.252 . S
C187 O191 1.260 . S
O188 In182 2.266 . S
O188 C185 1.252 . S
O189 In182 2.326 . S
O189 C185 1.260 . S
O190 In182 2.266 . S
O190 C187 1.252 . S
O191 In182 2.326 . S
O191 C187 1.260 . S
C192 O183 1.240 . S
C192 O184 1.252 . S
O193 In182 2.294 . S
O193 C186 1.240 . S
O194 In182 2.326 . S
O194 C186 1.252 . S
In195 O196 2.294 . S
In195 O197 2.326 . S
In195 O201 2.266 . S
In195 O202 2.326 . S
In195 O203 2.266 . S
In195 O204 2.326 . S
In195 O206 2.294 . S
In195 O207 2.326 . S
O196 In195 2.294 . S
O196 C205 1.240 . S
O197 In195 2.326 . S
O197 C205 1.252 . S
C198 O201 1.252 . S
C198 O202 1.260 . S
C199 O206 1.240 . S
C199 O207 1.252 . S
C200 O203 1.252 . S
C200 O204 1.260 . S
O201 In195 2.266 . S
O201 C198 1.252 . S
O202 In195 2.326 . S
O202 C198 1.260 . S
O203 In195 2.266 . S
O203 C200 1.252 . S
O204 In195 2.326 . S
O204 C200 1.260 . S
C205 O196 1.240 . S
C205 O197 1.252 . S
O206 In195 2.294 . S
O206 C199 1.240 . S
O207 In195 2.326 . S
O207 C199 1.252 . S
In208 O209 2.294 . S
In208 O210 2.326 . S
In208 O214 2.266 . S
In208 O215 2.326 . S
In208 O216 2.266 1_545 S
In208 O217 2.326 1_545 S
In208 O219 2.294 . S
In208 O220 2.326 . S
O209 In208 2.294 . S
O209 C218 1.240 . S
O210 In208 2.326 . S
O210 C218 1.252 . S
C211 O214 1.252 . S
C211 O215 1.260 . S
C212 O219 1.240 . S
C212 O220 1.252 . S
C213 O216 1.252 . S
C213 O217 1.260 . S
O214 In208 2.266 . S
O214 C211 1.252 . S
O215 In208 2.326 . S
O215 C211 1.260 . S
O216 In208 2.266 1_565 S
O216 C213 1.252 . S
O217 In208 2.326 1_565 S
O217 C213 1.260 . S
C218 O209 1.240 . S
C218 O210 1.252 . S
O219 In208 2.294 . S
O219 C212 1.240 . S
O220 In208 2.326 . S
O220 C212 1.252 . S
In221 O222 2.294 . S
In221 O223 2.326 . S
In221 O227 2.266 . S
In221 O228 2.326 . S
In221 O229 2.266 . S
In221 O230 2.326 . S
In221 O232 2.294 . S
In221 O233 2.326 . S
O222 In221 2.294 . S
O222 C231 1.240 . S
O223 In221 2.326 . S
O223 C231 1.252 . S
C224 O227 1.252 . S
C224 O228 1.260 . S
C225 O232 1.240 . S
C225 O233 1.252 . S
C226 O229 1.252 . S
C226 O230 1.260 . S
O227 In221 2.266 . S
O227 C224 1.252 . S
O228 In221 2.326 . S
O228 C224 1.260 . S
O229 In221 2.266 . S
O229 C226 1.252 . S
O230 In221 2.326 . S
O230 C226 1.260 . S
C231 O222 1.240 . S
C231 O223 1.252 . S
O232 In221 2.294 . S
O232 C225 1.240 . S
O233 In221 2.326 . S
O233 C225 1.252 . S
In234 O235 2.294 . S
In234 O236 2.326 . S
In234 O240 2.266 . S
In234 O241 2.326 . S
In234 O242 2.266 . S
In234 O243 2.326 . S
In234 O245 2.294 . S
In234 O246 2.326 . S
O235 In234 2.294 . S
O235 C244 1.240 . S
O236 In234 2.326 . S
O236 C244 1.252 . S
C237 O240 1.252 . S
C237 O241 1.260 . S
C238 O245 1.240 . S
C238 O246 1.252 . S
C239 O242 1.252 . S
C239 O243 1.260 . S
O240 In234 2.266 . S
O240 C237 1.252 . S
O241 In234 2.326 . S
O241 C237 1.260 . S
O242 In234 2.266 . S
O242 C239 1.252 . S
O243 In234 2.326 . S
O243 C239 1.260 . S
C244 O235 1.240 . S
C244 O236 1.252 . S
O245 In234 2.294 . S
O245 C238 1.240 . S
O246 In234 2.326 . S
O246 C238 1.252 . S
In247 O248 2.294 1_545 S
In247 O249 2.326 1_545 S
In247 O253 2.266 . S
In247 O254 2.326 . S
In247 O255 2.266 . S
In247 O256 2.326 . S
In247 O258 2.295 . S
In247 O259 2.326 . S
O248 In247 2.294 1_565 S
O248 C257 1.240 . S
O249 In247 2.326 1_565 S
O249 C257 1.252 . S
C250 O253 1.252 . S
C250 O254 1.260 . S
C251 O258 1.240 . S
C251 O259 1.252 . S
C252 O255 1.252 . S
C252 O256 1.260 . S
O253 In247 2.266 . S
O253 C250 1.252 . S
O254 In247 2.326 . S
O254 C250 1.260 . S
O255 In247 2.266 . S
O255 C252 1.252 . S
O256 In247 2.326 . S
O256 C252 1.260 . S
C257 O248 1.240 . S
C257 O249 1.252 . S
O258 In247 2.295 . S
O258 C251 1.240 . S
O259 In247 2.326 . S
O259 C251 1.252 . S
In260 O261 2.294 . S
In260 O262 2.326 . S
In260 O266 2.266 . S
In260 O267 2.326 . S
In260 O268 2.245 1_554 S
In260 O269 2.326 1_554 S
In260 O271 2.294 . S
In260 O272 2.326 . S
O261 In260 2.294 . S
O261 C270 1.240 . S
O262 In260 2.326 . S
O262 C270 1.252 . S
C263 O266 1.252 . S
C263 O267 1.260 . S
C264 O271 1.240 . S
C264 O272 1.252 . S
C265 O268 1.277 . S
C265 O269 1.260 . S
O266 In260 2.266 . S
O266 C263 1.252 . S
O267 In260 2.326 . S
O267 C263 1.260 . S
O268 In260 2.245 1_556 S
O268 C265 1.277 . S
O269 In260 2.326 1_556 S
O269 C265 1.260 . S
C270 O261 1.240 . S
C270 O262 1.252 . S
O271 In260 2.294 . S
O271 C264 1.240 . S
O272 In260 2.326 . S
O272 C264 1.252 . S
In273 O274 2.294 . S
In273 O275 2.326 . S
In273 O279 2.266 . S
In273 O280 2.326 . S
In273 O281 2.266 . S
In273 O282 2.326 . S
In273 O284 2.294 . S
In273 O285 2.326 . S
O274 In273 2.294 . S
O274 C283 1.240 . S
O275 In273 2.326 . S
O275 C283 1.252 . S
C276 O279 1.252 . S
C276 O280 1.260 . S
C277 O284 1.240 . S
C277 O285 1.252 . S
C278 O281 1.252 . S
C278 O282 1.260 . S
O279 In273 2.266 . S
O279 C276 1.252 . S
O280 In273 2.326 . S
O280 C276 1.260 . S
O281 In273 2.266 . S
O281 C278 1.252 . S
O282 In273 2.326 . S
O282 C278 1.260 . S
C283 O274 1.240 . S
C283 O275 1.252 . S
O284 In273 2.294 . S
O284 C277 1.240 . S
O285 In273 2.326 . S
O285 C277 1.252 . S
In286 O287 2.294 . S
In286 O288 2.326 . S
In286 O292 2.266 . S
In286 O293 2.326 . S
In286 O294 2.266 . S
In286 O295 2.326 . S
In286 O297 2.294 . S
In286 O298 2.326 . S
O287 In286 2.294 . S
O287 C296 1.240 . S
O288 In286 2.326 . S
O288 C296 1.252 . S
C289 O292 1.252 . S
C289 O293 1.260 . S
C290 O297 1.240 . S
C290 O298 1.252 . S
C291 O294 1.252 . S
C291 O295 1.260 . S
O292 In286 2.266 . S
O292 C289 1.252 . S
O293 In286 2.326 . S
O293 C289 1.260 . S
O294 In286 2.266 . S
O294 C291 1.252 . S
O295 In286 2.326 . S
O295 C291 1.260 . S
C296 O287 1.240 . S
C296 O288 1.252 . S
O297 In286 2.294 . S
O297 C290 1.240 . S
O298 In286 2.326 . S
O298 C290 1.252 . S
In299 O300 2.294 . S
In299 O301 2.326 . S
In299 O305 2.266 . S
In299 O306 2.326 . S
In299 O307 2.266 . S
In299 O308 2.326 . S
In299 O310 2.294 . S
In299 O311 2.326 . S
O300 In299 2.294 . S
O300 C309 1.240 . S
O301 In299 2.326 . S
O301 C309 1.252 . S
C302 O305 1.252 . S
C302 O306 1.260 . S
C303 O310 1.240 . S
C303 O311 1.252 . S
C304 O307 1.252 . S
C304 O308 1.260 . S
O305 In299 2.266 . S
O305 C302 1.252 . S
O306 In299 2.326 . S
O306 C302 1.260 . S
O307 In299 2.266 . S
O307 C304 1.252 . S
O308 In299 2.326 . S
O308 C304 1.260 . S
C309 O300 1.240 . S
C309 O301 1.252 . S
O310 In299 2.294 . S
O310 C303 1.240 . S
O311 In299 2.326 . S
O311 C303 1.252 . S
Tb312 C322 2.825 1_455 S
Tb312 O323 2.347 . S
Tb312 O326 2.366 . S
Tb312 O331 2.418 . S
Tb312 O332 2.384 . S
Tb312 O335 2.479 . S
Tb312 O336 2.478 . S
Eu313 O324 2.418 . S
Eu313 O325 2.384 . S
Eu313 O328 2.479 . S
Eu313 O329 2.471 . S
Eu313 O330 2.347 . S
Eu313 O333 2.366 . S
Eu313 C343 2.825 . S
C314 O330 1.259 . S
C314 O331 1.265 . S
C315 O332 1.255 . S
C315 O333 1.265 . S
C316 C318 1.380 1_554 S
C316 C319 1.374 . S
C316 C322 1.507 . S
C317 C318 1.384 . S
C317 C321 1.387 1_556 S
C317 H344 0.930 . S
C318 C316 1.380 1_556 S
C318 C317 1.384 . S
C318 H345 0.931 . S
C319 C316 1.374 . S
C319 C320 1.390 . S
C319 H346 0.930 . S
C320 C319 1.390 . S
C320 C321 1.391 . S
C320 H347 0.930 . S
C321 C317 1.387 1_554 S
C321 C320 1.391 . S
C322 Tb312 2.825 1_655 S
C322 C316 1.507 . S
C322 O335 1.238 1_655 S
C322 O336 1.246 1_655 S
O323 Tb312 2.347 . S
O323 C327 1.259 . S
O324 Eu313 2.418 . S
O324 C327 1.265 . S
O325 Eu313 2.384 . S
O325 C334 1.255 . S
O326 Tb312 2.366 . S
O326 C334 1.265 . S
C327 O323 1.259 . S
C327 O324 1.265 . S
O328 Eu313 2.479 . S
O328 C343 1.238 . S
O329 Eu313 2.471 . S
O329 C343 1.247 . S
O330 Eu313 2.347 . S
O330 C314 1.259 . S
O331 Tb312 2.418 . S
O331 C314 1.265 . S
O332 Tb312 2.384 . S
O332 C315 1.255 . S
O333 Eu313 2.366 . S
O333 C315 1.265 . S
C334 O325 1.255 . S
C334 O326 1.265 . S
O335 Tb312 2.479 . S
O335 C322 1.238 1_455 S
O336 Tb312 2.478 . S
O336 C322 1.246 1_455 S
C337 C340 1.380 . S
C337 C341 1.374 . S
C337 C343 1.507 . S
C338 C339 1.387 . S
C338 C342 1.391 . S
C339 C338 1.387 . S
C339 C340 1.384 . S
C339 H348 0.930 . S
C340 C337 1.380 . S
C340 C339 1.384 . S
C340 H349 0.931 . S
C341 C337 1.374 . S
C341 C342 1.390 . S
C341 H350 0.930 . S
C342 C338 1.391 . S
C342 C341 1.390 . S
C342 H351 0.930 . S
C343 Eu313 2.825 . S
C343 O328 1.238 . S
C343 O329 1.247 . S
C343 C337 1.507 . S
H344 C317 0.930 . S
H345 C318 0.931 . S
H346 C319 0.930 . S
H347 C320 0.930 . S
H348 C339 0.930 . S
H349 C340 0.931 . S
H350 C341 0.930 . S
H351 C342 0.930 . S
Tb352 C362 2.825 . S
Tb352 O363 2.347 . S
Tb352 O366 2.366 . S
Tb352 O371 2.418 . S
Tb352 O372 2.384 . S
Tb352 O375 2.479 . S
Tb352 O376 2.471 . S
Eu353 O364 2.418 . S
Eu353 O365 2.384 . S
Eu353 O368 2.479 . S
Eu353 O369 2.471 . S
Eu353 O370 2.347 . S
Eu353 O373 2.366 . S
Eu353 C383 2.825 . S
C354 O370 1.259 . S
C354 O371 1.265 . S
C355 O372 1.255 . S
C355 O373 1.265 . S
C356 C358 1.380 . S
C356 C359 1.374 . S
C356 C362 1.507 . S
C357 C358 1.384 . S
C357 C361 1.387 . S
C357 H384 0.930 . S
C358 C356 1.380 . S
C358 C357 1.384 . S
C358 H385 0.931 . S
C359 C356 1.374 . S
C359 C360 1.390 . S
C359 H386 0.930 . S
C360 C359 1.390 . S
C360 C361 1.391 . S
C360 H387 0.930 . S
C361 C357 1.387 . S
C361 C360 1.391 . S
C362 Tb352 2.825 . S
C362 C356 1.507 . S
C362 O375 1.238 . S
C362 O376 1.247 . S
O363 Tb352 2.347 . S
O363 C367 1.259 . S
O364 Eu353 2.418 . S
O364 C367 1.265 . S
O365 Eu353 2.384 . S
O365 C374 1.255 . S
O366 Tb352 2.366 . S
O366 C374 1.265 . S
C367 O363 1.259 . S
C367 O364 1.265 . S
O368 Eu353 2.479 . S
O368 C383 1.238 . S
O369 Eu353 2.471 . S
O369 C383 1.247 . S
O370 Eu353 2.347 . S
O370 C354 1.259 . S
O371 Tb352 2.418 . S
O371 C354 1.265 . S
O372 Tb352 2.384 . S
O372 C355 1.255 . S
O373 Eu353 2.366 . S
O373 C355 1.265 . S
C374 O365 1.255 . S
C374 O366 1.265 . S
O375 Tb352 2.479 . S
O375 C362 1.238 . S
O376 Tb352 2.471 . S
O376 C362 1.247 . S
C377 C380 1.380 . S
C377 C381 1.374 . S
C377 C383 1.507 . S
C378 C379 1.387 . S
C378 C382 1.391 . S
C379 C378 1.387 . S
C379 C380 1.384 . S
C379 H388 0.930 . S
C380 C377 1.380 . S
C380 C379 1.384 . S
C380 H389 0.931 . S
C381 C377 1.374 . S
C381 C382 1.390 . S
C381 H390 0.930 . S
C382 C378 1.391 . S
C382 C381 1.390 . S
C382 H391 0.930 . S
C383 Eu353 2.825 . S
C383 O368 1.238 . S
C383 O369 1.247 . S
C383 C377 1.507 . S
H384 C357 0.930 . S
H385 C358 0.931 . S
H386 C359 0.930 . S
H387 C360 0.930 . S
H388 C379 0.930 . S
H389 C380 0.931 . S
H390 C381 0.930 . S
H391 C382 0.930 . S
Tb392 C402 2.825 . S
Tb392 O403 2.347 1_565 S
Tb392 O406 2.366 . S
Tb392 O411 2.418 . S
Tb392 O412 2.384 1_565 S
Tb392 O415 2.479 . S
Tb392 O416 2.471 . S
Eu393 O404 2.418 . S
Eu393 O405 2.384 . S
Eu393 O408 2.479 . S
Eu393 O409 2.471 . S
Eu393 O410 2.347 . S
Eu393 O413 2.366 . S
Eu393 C423 2.825 . S
C394 O410 1.259 . S
C394 O411 1.265 1_545 S
C395 O412 1.255 . S
C395 O413 1.265 . S
C396 C398 1.380 . S
C396 C399 1.374 . S
C396 C402 1.507 . S
C397 C398 1.384 . S
C397 C401 1.387 . S
C397 H424 0.930 . S
C398 C396 1.380 . S
C398 C397 1.384 . S
C398 H425 0.931 . S
C399 C396 1.374 . S
C399 C400 1.390 . S
C399 H426 0.930 . S
C400 C399 1.390 . S
C400 C401 1.391 . S
C400 H427 0.930 . S
C401 C397 1.387 . S
C401 C400 1.391 . S
C402 Tb392 2.825 . S
C402 C396 1.507 . S
C402 O415 1.238 . S
C402 O416 1.247 . S
O403 Tb392 2.347 1_545 S
O403 C407 1.259 . S
O404 Eu393 2.418 . S
O404 C407 1.265 . S
O405 Eu393 2.384 . S
O405 C414 1.236 1_545 S
O406 Tb392 2.366 . S
O406 C414 1.273 . S
C407 O403 1.259 . S
C407 O404 1.265 . S
O408 Eu393 2.479 . S
O408 C423 1.238 . S
O409 Eu393 2.471 . S
O409 C423 1.247 . S
O410 Eu393 2.347 . S
O410 C394 1.259 . S
O411 Tb392 2.418 . S
O411 C394 1.265 1_565 S
O412 Tb392 2.384 1_545 S
O412 C395 1.255 . S
O413 Eu393 2.366 . S
O413 C395 1.265 . S
C414 O405 1.236 1_565 S
C414 O406 1.273 . S
O415 Tb392 2.479 . S
O415 C402 1.238 . S
O416 Tb392 2.471 . S
O416 C402 1.247 . S
C417 C420 1.380 . S
C417 C421 1.374 . S
C417 C423 1.507 . S
C418 C419 1.387 . S
C418 C422 1.391 . S
C419 C418 1.387 . S
C419 C420 1.384 . S
C419 H428 0.930 . S
C420 C417 1.380 . S
C420 C419 1.384 . S
C420 H429 0.931 . S
C421 C417 1.374 . S
C421 C422 1.390 . S
C421 H430 0.930 . S
C422 C418 1.391 . S
C422 C421 1.390 . S
C422 H431 0.930 . S
C423 Eu393 2.825 . S
C423 O408 1.238 . S
C423 O409 1.247 . S
C423 C417 1.507 . S
H424 C397 0.930 . S
H425 C398 0.931 . S
H426 C399 0.930 . S
H427 C400 0.930 . S
H428 C419 0.930 . S
H429 C420 0.931 . S
H430 C421 0.930 . S
H431 C422 0.930 . S
Tb432 C442 2.825 . S
Tb432 O443 2.347 . S
Tb432 O446 2.366 . S
Tb432 O451 2.418 . S
Tb432 O452 2.384 . S
Tb432 O455 2.479 . S
Tb432 O456 2.471 . S
Eu433 O444 2.418 . S
Eu433 O445 2.384 . S
Eu433 O448 2.479 . S
Eu433 O449 2.471 . S
Eu433 O450 2.347 . S
Eu433 O453 2.366 . S
Eu433 C463 2.825 . S
C434 O450 1.259 . S
C434 O451 1.265 . S
C435 O452 1.255 . S
C435 O453 1.265 . S
C436 C438 1.380 . S
C436 C439 1.374 . S
C436 C442 1.507 . S
C437 C438 1.384 . S
C437 C441 1.387 . S
C437 H464 0.930 . S
C438 C436 1.380 . S
C438 C437 1.384 . S
C438 H465 0.931 . S
C439 C436 1.374 . S
C439 C440 1.390 . S
C439 H466 0.930 . S
C440 C439 1.390 . S
C440 C441 1.391 . S
C440 H467 0.930 . S
C441 C437 1.387 . S
C441 C440 1.391 . S
C442 Tb432 2.825 . S
C442 C436 1.507 . S
C442 O455 1.238 . S
C442 O456 1.247 . S
O443 Tb432 2.347 . S
O443 C447 1.259 . S
O444 Eu433 2.418 . S
O444 C447 1.265 . S
O445 Eu433 2.384 . S
O445 C454 1.255 . S
O446 Tb432 2.366 . S
O446 C454 1.265 . S
C447 O443 1.259 . S
C447 O444 1.265 . S
O448 Eu433 2.479 . S
O448 C463 1.238 . S
O449 Eu433 2.471 . S
O449 C463 1.247 . S
O450 Eu433 2.347 . S
O450 C434 1.259 . S
O451 Tb432 2.418 . S
O451 C434 1.265 . S
O452 Tb432 2.384 . S
O452 C435 1.255 . S
O453 Eu433 2.366 . S
O453 C435 1.265 . S
C454 O445 1.255 . S
C454 O446 1.265 . S
O455 Tb432 2.479 . S
O455 C442 1.238 . S
O456 Tb432 2.471 . S
O456 C442 1.247 . S
C457 C460 1.380 . S
C457 C461 1.374 . S
C457 C463 1.507 . S
C458 C459 1.387 . S
C458 C462 1.391 . S
C459 C458 1.387 . S
C459 C460 1.384 . S
C459 H468 0.930 . S
C460 C457 1.380 . S
C460 C459 1.384 . S
C460 H469 0.931 . S
C461 C457 1.374 . S
C461 C462 1.390 . S
C461 H470 0.930 . S
C462 C458 1.391 . S
C462 C461 1.390 . S
C462 H471 0.930 . S
C463 Eu433 2.825 . S
C463 O448 1.238 . S
C463 O449 1.247 . S
C463 C457 1.507 . S
H464 C437 0.930 . S
H465 C438 0.931 . S
H466 C439 0.930 . S
H467 C440 0.930 . S
H468 C459 0.930 . S
H469 C460 0.931 . S
H470 C461 0.930 . S
H471 C462 0.930 . S
Tb472 C482 2.825 . S
Tb472 O483 2.347 . S
Tb472 O486 2.366 . S
Tb472 O491 2.418 . S
Tb472 O492 2.384 1_545 S
Tb472 O495 2.479 . S
Tb472 O496 2.471 . S
Eu473 O484 2.418 . S
Eu473 O485 2.384 . S
Eu473 O488 2.479 . S
Eu473 O489 2.471 . S
Eu473 O490 2.347 . S
Eu473 O493 2.332 1_545 S
Eu473 C503 2.825 . S
C474 O490 1.259 . S
C474 O491 1.265 . S
C475 O492 1.255 . S
C475 O493 1.291 . S
C476 C478 1.380 . S
C476 C479 1.353 1_455 S
C476 C482 1.507 . S
C477 C478 1.384 . S
C477 C481 1.387 . S
C477 H504 0.930 . S
C478 C476 1.380 . S
C478 C477 1.384 . S
C478 H505 0.931 . S
C479 C476 1.353 1_655 S
C479 C480 1.397 . S
C479 H506 0.945 . S
C480 C479 1.397 . S
C480 C481 1.391 1_655 S
C480 H507 0.930 . S
C481 C477 1.387 . S
C481 C480 1.391 1_455 S
C482 Tb472 2.825 . S
C482 C476 1.507 . S
C482 O495 1.238 . S
C482 O496 1.247 . S
O483 Tb472 2.347 . S
O483 C487 1.259 . S
O484 Eu473 2.418 . S
O484 C487 1.265 . S
O485 Eu473 2.384 . S
O485 C494 1.255 . S
O486 Tb472 2.366 . S
O486 C494 1.265 . S
C487 O483 1.259 . S
C487 O484 1.265 . S
O488 Eu473 2.479 . S
O488 C503 1.238 . S
O489 Eu473 2.471 . S
O489 C503 1.247 . S
O490 Eu473 2.347 . S
O490 C474 1.259 . S
O491 Tb472 2.418 . S
O491 C474 1.265 . S
O492 Tb472 2.384 1_565 S
O492 C475 1.255 . S
O493 Eu473 2.332 1_565 S
O493 C475 1.291 . S
C494 O485 1.255 . S
C494 O486 1.265 . S
O495 Tb472 2.479 . S
O495 C482 1.238 . S
O496 Tb472 2.471 . S
O496 C482 1.247 . S
C497 C500 1.380 . S
C497 C501 1.374 . S
C497 C503 1.507 . S
C498 C499 1.387 . S
C498 C502 1.391 . S
C499 C498 1.387 . S
C499 C500 1.384 . S
C499 H508 0.930 . S
C500 C497 1.380 . S
C500 C499 1.384 . S
C500 H509 0.931 . S
C501 C497 1.374 . S
C501 C502 1.390 . S
C501 H510 0.930 . S
C502 C498 1.391 . S
C502 C501 1.390 . S
C502 H511 0.930 . S
C503 Eu473 2.825 . S
C503 O488 1.238 . S
C503 O489 1.247 . S
C503 C497 1.507 . S
H504 C477 0.930 . S
H505 C478 0.931 . S
H506 C479 0.945 . S
H507 C480 0.930 . S
H508 C499 0.930 . S
H509 C500 0.931 . S
H510 C501 0.930 . S
H511 C502 0.930 . S
Tb512 C522 2.825 . S
Tb512 O523 2.347 . S
Tb512 O526 2.366 . S
Tb512 O531 2.418 . S
Tb512 O532 2.384 . S
Tb512 O535 2.479 . S
Tb512 O536 2.471 . S
Eu513 O524 2.418 . S
Eu513 O525 2.384 . S
Eu513 O528 2.479 . S
Eu513 O529 2.471 . S
Eu513 O530 2.347 . S
Eu513 O533 2.366 . S
Eu513 C543 2.825 . S
C514 O530 1.259 . S
C514 O531 1.265 . S
C515 O532 1.255 . S
C515 O533 1.265 . S
C516 C518 1.380 . S
C516 C519 1.374 . S
C516 C522 1.507 . S
C517 C518 1.384 . S
C517 C521 1.387 . S
C517 H544 0.930 . S
C518 C516 1.380 . S
C518 C517 1.384 . S
C518 H545 0.931 . S
C519 C516 1.374 . S
C519 C520 1.390 . S
C519 H546 0.930 . S
C520 C519 1.390 . S
C520 C521 1.391 . S
C520 H547 0.930 . S
C521 C517 1.387 . S
C521 C520 1.391 . S
C522 Tb512 2.825 . S
C522 C516 1.507 . S
C522 O535 1.238 . S
C522 O536 1.247 . S
O523 Tb512 2.347 . S
O523 C527 1.259 . S
O524 Eu513 2.418 . S
O524 C527 1.265 . S
O525 Eu513 2.384 . S
O525 C534 1.255 . S
O526 Tb512 2.366 . S
O526 C534 1.265 . S
C527 O523 1.259 . S
C527 O524 1.265 . S
O528 Eu513 2.479 . S
O528 C543 1.238 . S
O529 Eu513 2.471 . S
O529 C543 1.247 . S
O530 Eu513 2.347 . S
O530 C514 1.259 . S
O531 Tb512 2.418 . S
O531 C514 1.265 . S
O532 Tb512 2.384 . S
O532 C515 1.255 . S
O533 Eu513 2.366 . S
O533 C515 1.265 . S
C534 O525 1.255 . S
C534 O526 1.265 . S
O535 Tb512 2.479 . S
O535 C522 1.238 . S
O536 Tb512 2.471 . S
O536 C522 1.247 . S
C537 C540 1.380 . S
C537 C541 1.374 . S
C537 C543 1.507 . S
C538 C539 1.387 . S
C538 C542 1.391 . S
C539 C538 1.387 . S
C539 C540 1.384 . S
C539 H548 0.930 . S
C540 C537 1.380 . S
C540 C539 1.384 . S
C540 H549 0.931 . S
C541 C537 1.374 . S
C541 C542 1.390 . S
C541 H550 0.930 . S
C542 C538 1.391 . S
C542 C541 1.390 . S
C542 H551 0.930 . S
C543 Eu513 2.825 . S
C543 O528 1.238 . S
C543 O529 1.247 . S
C543 C537 1.507 . S
H544 C517 0.930 . S
H545 C518 0.931 . S
H546 C519 0.930 . S
H547 C520 0.930 . S
H548 C539 0.930 . S
H549 C540 0.931 . S
H550 C541 0.930 . S
H551 C542 0.930 . S
Tb552 C562 2.825 . S
Tb552 O563 2.347 . S
Tb552 O566 2.366 . S
Tb552 O571 2.464 . S
Tb552 O572 2.384 . S
Tb552 O575 2.479 . S
Tb552 O576 2.471 . S
Eu553 O564 2.432 . S
Eu553 O565 2.384 1_556 S
Eu553 O568 2.479 . S
Eu553 O569 2.471 . S
Eu553 O570 2.347 . S
Eu553 O573 2.366 . S
Eu553 C583 2.825 . S
C554 O570 1.259 1_554 S
C554 O571 1.276 . S
C555 O572 1.255 . S
C555 O573 1.265 1_554 S
C556 C558 1.380 . S
C556 C559 1.374 . S
C556 C562 1.507 . S
C557 C558 1.384 . S
C557 C561 1.387 . S
C557 H584 0.930 1_545 S
C558 C556 1.380 . S
C558 C557 1.384 . S
C558 H585 0.931 1_545 S
C559 C556 1.374 . S
C559 C560 1.390 . S
C559 H586 0.930 . S
C560 C559 1.390 . S
C560 C561 1.391 . S
C560 H587 0.930 . S
C561 C557 1.387 . S
C561 C560 1.391 . S
C562 Tb552 2.825 . S
C562 C556 1.507 . S
C562 O575 1.238 . S
C562 O576 1.247 . S
O563 Tb552 2.347 . S
O563 C567 1.259 . S
O564 Eu553 2.432 . S
O564 C567 1.231 1_556 S
O565 Eu553 2.384 1_554 S
O565 C574 1.255 . S
O566 Tb552 2.366 . S
O566 C574 1.265 . S
C567 O563 1.259 . S
C567 O564 1.231 1_554 S
O568 Eu553 2.479 . S
O568 C583 1.238 . S
O569 Eu553 2.471 . S
O569 C583 1.247 . S
O570 Eu553 2.347 . S
O570 C554 1.259 1_556 S
O571 Tb552 2.464 . S
O571 C554 1.276 . S
O572 Tb552 2.384 . S
O572 C555 1.255 . S
O573 Eu553 2.366 . S
O573 C555 1.265 1_556 S
C574 O565 1.255 . S
C574 O566 1.265 . S
O575 Tb552 2.479 . S
O575 C562 1.238 . S
O576 Tb552 2.471 . S
O576 C562 1.247 . S
C577 C580 1.380 . S
C577 C581 1.374 . S
C577 C583 1.507 . S
C578 C579 1.387 . S
C578 C582 1.391 . S
C579 C578 1.387 . S
C579 C580 1.384 . S
C579 H588 0.930 . S
C580 C577 1.380 . S
C580 C579 1.384 . S
C580 H589 0.931 . S
C581 C577 1.374 . S
C581 C582 1.390 . S
C581 H590 0.930 . S
C582 C578 1.391 . S
C582 C581 1.390 . S
C582 H591 0.930 . S
C583 Eu553 2.825 . S
C583 O568 1.238 . S
C583 O569 1.247 . S
C583 C577 1.507 . S
H584 C557 0.930 1_565 S
H585 C558 0.931 1_565 S
H586 C559 0.930 . S
H587 C560 0.930 . S
H588 C579 0.930 . S
H589 C580 0.931 . S
H590 C581 0.930 . S
H591 C582 0.930 . S
Tb592 C602 2.825 . S
Tb592 O603 2.347 . S
Tb592 O606 2.366 . S
Tb592 O611 2.418 . S
Tb592 O612 2.384 . S
Tb592 O615 2.479 . S
Tb592 O616 2.471 . S
Eu593 O604 2.418 . S
Eu593 O605 2.384 . S
Eu593 O608 2.479 . S
Eu593 O609 2.471 . S
Eu593 O610 2.347 . S
Eu593 O613 2.366 . S
Eu593 C623 2.825 . S
C594 O610 1.259 . S
C594 O611 1.265 . S
C595 O612 1.255 . S
C595 O613 1.265 . S
C596 C598 1.380 . S
C596 C599 1.374 . S
C596 C602 1.507 . S
C597 C598 1.384 . S
C597 C601 1.387 . S
C597 H624 0.930 . S
C598 C596 1.380 . S
C598 C597 1.384 . S
C598 H625 0.931 . S
C599 C596 1.374 . S
C599 C600 1.390 . S
C599 H626 0.930 . S
C600 C599 1.390 . S
C600 C601 1.391 . S
C600 H627 0.930 . S
C601 C597 1.387 . S
C601 C600 1.391 . S
C602 Tb592 2.825 . S
C602 C596 1.507 . S
C602 O615 1.238 . S
C602 O616 1.247 . S
O603 Tb592 2.347 . S
O603 C607 1.259 . S
O604 Eu593 2.418 . S
O604 C607 1.265 . S
O605 Eu593 2.384 . S
O605 C614 1.255 . S
O606 Tb592 2.366 . S
O606 C614 1.265 . S
C607 O603 1.259 . S
C607 O604 1.265 . S
O608 Eu593 2.479 . S
O608 C623 1.238 . S
O609 Eu593 2.471 . S
O609 C623 1.247 . S
O610 Eu593 2.347 . S
O610 C594 1.259 . S
O611 Tb592 2.418 . S
O611 C594 1.265 . S
O612 Tb592 2.384 . S
O612 C595 1.255 . S
O613 Eu593 2.366 . S
O613 C595 1.265 . S
C614 O605 1.255 . S
C614 O606 1.265 . S
O615 Tb592 2.479 . S
O615 C602 1.238 . S
O616 Tb592 2.471 . S
O616 C602 1.247 . S
C617 C620 1.380 . S
C617 C621 1.374 . S
C617 C623 1.507 . S
C618 C619 1.387 . S
C618 C622 1.391 . S
C619 C618 1.387 . S
C619 C620 1.384 . S
C619 H628 0.930 . S
C620 C617 1.380 . S
C620 C619 1.384 . S
C620 H629 0.931 . S
C621 C617 1.374 . S
C621 C622 1.390 . S
C621 H630 0.930 . S
C622 C618 1.391 . S
C622 C621 1.390 . S
C622 H631 0.930 . S
C623 Eu593 2.825 . S
C623 O608 1.238 . S
C623 O609 1.247 . S
C623 C617 1.507 . S
H624 C597 0.930 . S
H625 C598 0.931 . S
H626 C599 0.930 . S
H627 C600 0.930 . S
H628 C619 0.930 . S
H629 C620 0.931 . S
H630 C621 0.930 . S
H631 C622 0.930 . S
Tb632 C642 2.825 . S
Tb632 O643 2.347 1_556 S
Tb632 O646 2.366 . S
Tb632 O651 2.418 . S
Tb632 O652 2.384 1_556 S
Tb632 O655 2.479 . S
Tb632 O656 2.471 . S
Eu633 O644 2.418 . S
Eu633 O645 2.384 . S
Eu633 O648 2.479 . S
Eu633 O649 2.471 . S
Eu633 O650 2.347 . S
Eu633 O653 2.366 . S
Eu633 C663 2.825 . S
C634 O650 1.259 . S
C634 O651 1.265 1_554 S
C635 O652 1.255 . S
C635 O653 1.265 . S
C636 C638 1.380 . S
C636 C639 1.374 . S
C636 C642 1.507 . S
C637 C638 1.384 . S
C637 C641 1.387 . S
C637 H664 0.930 . S
C638 C636 1.380 . S
C638 C637 1.384 . S
C638 H665 0.931 . S
C639 C636 1.374 . S
C639 C640 1.390 . S
C639 H666 0.930 . S
C640 C639 1.390 . S
C640 C641 1.391 . S
C640 H667 0.930 . S
C641 C637 1.387 . S
C641 C640 1.391 . S
C642 Tb632 2.825 . S
C642 C636 1.507 . S
C642 O655 1.238 . S
C642 O656 1.247 . S
O643 Tb632 2.347 1_554 S
O643 C647 1.259 . S
O644 Eu633 2.418 . S
O644 C647 1.265 . S
O645 Eu633 2.384 . S
O645 C654 1.255 1_554 S
O646 Tb632 2.366 . S
O646 C654 1.265 . S
C647 O643 1.259 . S
C647 O644 1.265 . S
O648 Eu633 2.479 . S
O648 C663 1.238 . S
O649 Eu633 2.471 . S
O649 C663 1.247 . S
O650 Eu633 2.347 . S
O650 C634 1.259 . S
O651 Tb632 2.418 . S
O651 C634 1.265 1_556 S
O652 Tb632 2.384 1_554 S
O652 C635 1.255 . S
O653 Eu633 2.366 . S
O653 C635 1.265 . S
C654 O645 1.255 1_556 S
C654 O646 1.265 . S
O655 Tb632 2.479 . S
O655 C642 1.238 . S
O656 Tb632 2.471 . S
O656 C642 1.247 . S
C657 C660 1.380 . S
C657 C661 1.374 . S
C657 C663 1.507 . S
C658 C659 1.387 . S
C658 C662 1.391 . S
C659 C658 1.387 . S
C659 C660 1.384 . S
C659 H668 0.930 . S
C660 C657 1.380 . S
C660 C659 1.384 . S
C660 H669 0.931 . S
C661 C657 1.374 . S
C661 C662 1.390 . S
C661 H670 0.930 . S
C662 C658 1.391 . S
C662 C661 1.390 . S
C662 H671 0.930 . S
C663 Eu633 2.825 . S
C663 O648 1.238 . S
C663 O649 1.247 . S
C663 C657 1.507 . S
H664 C637 0.930 . S
H665 C638 0.931 . S
H666 C639 0.930 . S
H667 C640 0.930 . S
H668 C659 0.930 . S
H669 C660 0.931 . S
H670 C661 0.930 . S
H671 C662 0.930 . S
Tb672 C682 2.825 . S
Tb672 O683 2.347 . S
Tb672 O686 2.366 . S
Tb672 O691 2.418 . S
Tb672 O692 2.384 . S
Tb672 O695 2.479 . S
Tb672 O696 2.471 . S
Eu673 O684 2.418 . S
Eu673 O685 2.384 . S
Eu673 O688 2.479 . S
Eu673 O689 2.471 . S
Eu673 O690 2.347 . S
Eu673 O693 2.366 . S
Eu673 C703 2.825 . S
C674 O690 1.259 . S
C674 O691 1.265 . S
C675 O692 1.255 . S
C675 O693 1.265 . S
C676 C678 1.380 . S
C676 C679 1.374 . S
C676 C682 1.507 . S
C677 C678 1.384 . S
C677 C681 1.387 . S
C677 H704 0.930 . S
C678 C676 1.380 . S
C678 C677 1.384 . S
C678 H705 0.931 . S
C679 C676 1.374 . S
C679 C680 1.390 . S
C679 H706 0.930 . S
C680 C679 1.390 . S
C680 C681 1.391 . S
C680 H707 0.930 . S
C681 C677 1.387 . S
C681 C680 1.391 . S
C682 Tb672 2.825 . S
C682 C676 1.507 . S
C682 O695 1.238 . S
C682 O696 1.247 . S
O683 Tb672 2.347 . S
O683 C687 1.259 . S
O684 Eu673 2.418 . S
O684 C687 1.265 . S
O685 Eu673 2.384 . S
O685 C694 1.255 . S
O686 Tb672 2.366 . S
O686 C694 1.265 . S
C687 O683 1.259 . S
C687 O684 1.265 . S
O688 Eu673 2.479 . S
O688 C703 1.238 . S
O689 Eu673 2.471 . S
O689 C703 1.247 . S
O690 Eu673 2.347 . S
O690 C674 1.259 . S
O691 Tb672 2.418 . S
O691 C674 1.265 . S
O692 Tb672 2.384 . S
O692 C675 1.255 . S
O693 Eu673 2.366 . S
O693 C675 1.265 . S
C694 O685 1.255 . S
C694 O686 1.265 . S
O695 Tb672 2.479 . S
O695 C682 1.238 . S
O696 Tb672 2.471 . S
O696 C682 1.247 . S
C697 C700 1.380 . S
C697 C701 1.374 . S
C697 C703 1.507 . S
C698 C699 1.387 . S
C698 C702 1.391 . S
C699 C698 1.387 . S
C699 C700 1.384 . S
C699 H708 0.930 . S
C700 C697 1.380 . S
C700 C699 1.384 . S
C700 H709 0.931 . S
C701 C697 1.374 . S
C701 C702 1.390 . S
C701 H710 0.930 . S
C702 C698 1.391 . S
C702 C701 1.390 . S
C702 H711 0.930 . S
C703 Eu673 2.825 . S
C703 O688 1.238 . S
C703 O689 1.247 . S
C703 C697 1.507 . S
H704 C677 0.930 . S
H705 C678 0.931 . S
H706 C679 0.930 . S
H707 C680 0.930 . S
H708 C699 0.930 . S
H709 C700 0.931 . S
H710 C701 0.930 . S
H711 C702 0.930 . S
Tb712 C722 2.825 . S
Tb712 O723 2.347 . S
Tb712 O726 2.366 . S
Tb712 O731 2.418 . S
Tb712 O732 2.384 . S
Tb712 O735 2.479 . S
Tb712 O736 2.471 . S
Eu713 O724 2.418 . S
Eu713 O725 2.384 1_455 S
Eu713 O728 2.479 . S
Eu713 O729 2.471 . S
Eu713 O730 2.347 . S
Eu713 O733 2.366 . S
Eu713 C743 2.825 . S
C714 O730 1.259 . S
C714 O731 1.265 . S
C715 O732 1.255 . S
C715 O733 1.265 . S
C716 C718 1.380 . S
C716 C719 1.374 1_455 S
C716 C722 1.507 . S
C717 C718 1.384 . S
C717 C721 1.387 1_455 S
C717 H744 0.930 . S
C718 C716 1.380 . S
C718 C717 1.384 . S
C718 H745 0.931 . S
C719 C716 1.374 1_655 S
C719 C720 1.390 . S
C719 H746 0.930 . S
C720 C719 1.390 . S
C720 C721 1.391 . S
C720 H747 0.930 . S
C721 C717 1.387 1_655 S
C721 C720 1.391 . S
C722 Tb712 2.825 . S
C722 C716 1.507 . S
C722 O735 1.238 . S
C722 O736 1.247 . S
O723 Tb712 2.347 . S
O723 C727 1.259 . S
O724 Eu713 2.418 . S
O724 C727 1.265 . S
O725 Eu713 2.384 1_655 S
O725 C734 1.255 . S
O726 Tb712 2.366 . S
O726 C734 1.265 1_455 S
C727 O723 1.259 . S
C727 O724 1.265 . S
O728 Eu713 2.479 . S
O728 C743 1.238 . S
O729 Eu713 2.471 . S
O729 C743 1.247 . S
O730 Eu713 2.347 . S
O730 C714 1.259 . S
O731 Tb712 2.418 . S
O731 C714 1.265 . S
O732 Tb712 2.384 . S
O732 C715 1.255 . S
O733 Eu713 2.366 . S
O733 C715 1.265 . S
C734 O725 1.255 . S
C734 O726 1.265 1_655 S
O735 Tb712 2.479 . S
O735 C722 1.238 . S
O736 Tb712 2.471 . S
O736 C722 1.247 . S
C737 C740 1.380 . S
C737 C741 1.374 . S
C737 C743 1.507 . S
C738 C739 1.387 . S
C738 C742 1.391 . S
C739 C738 1.387 . S
C739 C740 1.384 . S
C739 H748 0.930 . S
C740 C737 1.380 . S
C740 C739 1.384 . S
C740 H749 0.931 . S
C741 C737 1.374 . S
C741 C742 1.390 . S
C741 H750 0.930 . S
C742 C738 1.391 . S
C742 C741 1.390 . S
C742 H751 0.930 . S
C743 Eu713 2.825 . S
C743 O728 1.238 . S
C743 O729 1.247 . S
C743 C737 1.507 . S
H744 C717 0.930 . S
H745 C718 0.931 . S
H746 C719 0.930 . S
H747 C720 0.930 . S
H748 C739 0.930 . S
H749 C740 0.931 . S
H750 C741 0.930 . S
H751 C742 0.930 . S
Tb752 C762 2.825 . S
Tb752 O763 2.347 . S
Tb752 O766 2.366 . S
Tb752 O771 2.418 . S
Tb752 O772 2.384 . S
Tb752 O775 2.479 . S
Tb752 O776 2.471 . S
Eu753 O764 2.418 . S
Eu753 O765 2.384 . S
Eu753 O768 2.479 . S
Eu753 O769 2.471 . S
Eu753 O770 2.347 . S
Eu753 O773 2.366 . S
Eu753 C783 2.825 . S
C754 O770 1.259 . S
C754 O771 1.265 . S
C755 O772 1.255 . S
C755 O773 1.265 . S
C756 C758 1.380 . S
C756 C759 1.374 . S
C756 C762 1.507 . S
C757 C758 1.384 . S
C757 C761 1.387 . S
C757 H784 0.930 . S
C758 C756 1.380 . S
C758 C757 1.384 . S
C758 H785 0.931 . S
C759 C756 1.374 . S
C759 C760 1.390 . S
C759 H786 0.930 . S
C760 C759 1.390 . S
C760 C761 1.391 . S
C760 H787 0.930 . S
C761 C757 1.387 . S
C761 C760 1.391 . S
C762 Tb752 2.825 . S
C762 C756 1.507 . S
C762 O775 1.238 . S
C762 O776 1.247 . S
O763 Tb752 2.347 . S
O763 C767 1.259 . S
O764 Eu753 2.418 . S
O764 C767 1.265 . S
O765 Eu753 2.384 . S
O765 C774 1.255 . S
O766 Tb752 2.366 . S
O766 C774 1.265 . S
C767 O763 1.259 . S
C767 O764 1.265 . S
O768 Eu753 2.479 . S
O768 C783 1.238 . S
O769 Eu753 2.471 . S
O769 C783 1.247 . S
O770 Eu753 2.347 . S
O770 C754 1.259 . S
O771 Tb752 2.418 . S
O771 C754 1.265 . S
O772 Tb752 2.384 . S
O772 C755 1.255 . S
O773 Eu753 2.366 . S
O773 C755 1.265 . S
C774 O765 1.255 . S
C774 O766 1.265 . S
O775 Tb752 2.479 . S
O775 C762 1.238 . S
O776 Tb752 2.471 . S
O776 C762 1.247 . S
C777 C780 1.380 . S
C777 C781 1.374 . S
C777 C783 1.507 . S
C778 C779 1.387 . S
C778 C782 1.391 . S
C779 C778 1.387 . S
C779 C780 1.384 . S
C779 H788 0.930 . S
C780 C777 1.380 . S
C780 C779 1.384 . S
C780 H789 0.931 . S
C781 C777 1.374 . S
C781 C782 1.390 . S
C781 H790 0.930 . S
C782 C778 1.391 . S
C782 C781 1.390 . S
C782 H791 0.930 . S
C783 Eu753 2.825 . S
C783 O768 1.238 . S
C783 O769 1.247 . S
C783 C777 1.507 . S
H784 C757 0.930 . S
H785 C758 0.931 . S
H786 C759 0.930 . S
H787 C760 0.930 . S
H788 C779 0.930 . S
H789 C780 0.931 . S
H790 C781 0.930 . S
H791 C782 0.930 . S
Tb792 C802 2.825 . S
Tb792 O803 2.347 . S
Tb792 O806 2.366 . S
Tb792 O811 2.418 . S
Tb792 O812 2.384 . S
Tb792 O815 2.479 . S
Tb792 O816 2.471 . S
Eu793 O804 2.418 . S
Eu793 O805 2.384 . S
Eu793 O808 2.479 . S
Eu793 O809 2.471 . S
Eu793 O810 2.347 . S
Eu793 O813 2.366 . S
Eu793 C823 2.825 . S
C794 O810 1.259 . S
C794 O811 1.265 . S
C795 O812 1.255 . S
C795 O813 1.265 . S
C796 C798 1.380 . S
C796 C799 1.374 . S
C796 C802 1.507 . S
C797 C798 1.384 . S
C797 C801 1.387 . S
C797 H824 0.930 . S
C798 C796 1.380 . S
C798 C797 1.384 . S
C798 H825 0.931 . S
C799 C796 1.374 . S
C799 C800 1.390 . S
C799 H826 0.930 . S
C800 C799 1.390 . S
C800 C801 1.391 . S
C800 H827 0.930 . S
C801 C797 1.387 . S
C801 C800 1.391 . S
C802 Tb792 2.825 . S
C802 C796 1.507 . S
C802 O815 1.238 . S
C802 O816 1.247 . S
O803 Tb792 2.347 . S
O803 C807 1.259 . S
O804 Eu793 2.418 . S
O804 C807 1.265 . S
O805 Eu793 2.384 . S
O805 C814 1.255 . S
O806 Tb792 2.366 . S
O806 C814 1.265 . S
C807 O803 1.259 . S
C807 O804 1.265 . S
O808 Eu793 2.479 . S
O808 C823 1.238 . S
O809 Eu793 2.471 . S
O809 C823 1.247 . S
O810 Eu793 2.347 . S
O810 C794 1.259 . S
O811 Tb792 2.418 . S
O811 C794 1.265 . S
O812 Tb792 2.384 . S
O812 C795 1.255 . S
O813 Eu793 2.366 . S
O813 C795 1.265 . S
C814 O805 1.255 . S
C814 O806 1.265 . S
O815 Tb792 2.479 . S
O815 C802 1.238 . S
O816 Tb792 2.471 . S
O816 C802 1.247 . S
C817 C820 1.380 . S
C817 C821 1.374 . S
C817 C823 1.507 . S
C818 C819 1.387 . S
C818 C822 1.391 . S
C819 C818 1.387 . S
C819 C820 1.384 . S
C819 H828 0.930 . S
C820 C817 1.380 . S
C820 C819 1.384 . S
C820 H829 0.931 . S
C821 C817 1.374 . S
C821 C822 1.390 . S
C821 H830 0.930 . S
C822 C818 1.391 . S
C822 C821 1.390 . S
C822 H831 0.930 . S
C823 Eu793 2.825 . S
C823 O808 1.238 . S
C823 O809 1.247 . S
C823 C817 1.507 . S
H824 C797 0.930 . S
H825 C798 0.931 . S
H826 C799 0.930 . S
H827 C800 0.930 . S
H828 C819 0.930 . S
H829 C820 0.931 . S
H830 C821 0.930 . S
H831 C822 0.930 . S
Tb832 C842 2.825 . S
Tb832 O843 2.347 . S
Tb832 O846 2.366 . S
Tb832 O851 2.418 . S
Tb832 O852 2.384 . S
Tb832 O855 2.479 . S
Tb832 O856 2.471 . S
Eu833 O844 2.418 . S
Eu833 O845 2.384 . S
Eu833 O848 2.479 . S
Eu833 O849 2.471 . S
Eu833 O850 2.347 . S
Eu833 O853 2.366 . S
Eu833 C863 2.825 . S
C834 O850 1.259 . S
C834 O851 1.265 . S
C835 O852 1.255 . S
C835 O853 1.265 . S
C836 C838 1.380 . S
C836 C839 1.374 . S
C836 C842 1.507 . S
C837 C838 1.384 . S
C837 C841 1.387 . S
C837 H864 0.930 . S
C838 C836 1.380 . S
C838 C837 1.384 . S
C838 H865 0.931 . S
C839 C836 1.374 . S
C839 C840 1.390 . S
C839 H866 0.930 . S
C840 C839 1.390 . S
C840 C841 1.391 . S
C840 H867 0.930 . S
C841 C837 1.387 . S
C841 C840 1.391 . S
C842 Tb832 2.825 . S
C842 C836 1.507 . S
C842 O855 1.238 . S
C842 O856 1.247 . S
O843 Tb832 2.347 . S
O843 C847 1.259 . S
O844 Eu833 2.418 . S
O844 C847 1.265 . S
O845 Eu833 2.384 . S
O845 C854 1.255 . S
O846 Tb832 2.366 . S
O846 C854 1.265 . S
C847 O843 1.259 . S
C847 O844 1.265 . S
O848 Eu833 2.479 . S
O848 C863 1.238 . S
O849 Eu833 2.471 . S
O849 C863 1.247 . S
O850 Eu833 2.347 . S
O850 C834 1.259 . S
O851 Tb832 2.418 . S
O851 C834 1.265 . S
O852 Tb832 2.384 . S
O852 C835 1.255 . S
O853 Eu833 2.366 . S
O853 C835 1.265 . S
C854 O845 1.255 . S
C854 O846 1.265 . S
O855 Tb832 2.479 . S
O855 C842 1.238 . S
O856 Tb832 2.471 . S
O856 C842 1.247 . S
C857 C860 1.380 . S
C857 C861 1.374 . S
C857 C863 1.507 . S
C858 C859 1.387 . S
C858 C862 1.391 . S
C859 C858 1.387 . S
C859 C860 1.384 . S
C859 H868 0.930 . S
C860 C857 1.380 . S
C860 C859 1.384 . S
C860 H869 0.931 . S
C861 C857 1.374 . S
C861 C862 1.390 . S
C861 H870 0.930 . S
C862 C858 1.391 . S
C862 C861 1.390 . S
C862 H871 0.930 . S
C863 Eu833 2.825 . S
C863 O848 1.238 . S
C863 O849 1.247 . S
C863 C857 1.507 . S
H864 C837 0.930 . S
H865 C838 0.931 . S
H866 C839 0.930 . S
H867 C840 0.930 . S
H868 C859 0.930 . S
H869 C860 0.931 . S
H870 C861 0.930 . S
H871 C862 0.930 . S
Tb872 C882 2.825 . S
Tb872 O883 2.347 . S
Tb872 O886 2.366 . S
Tb872 O891 2.418 . S
Tb872 O892 2.384 . S
Tb872 O895 2.479 . S
Tb872 O896 2.471 . S
Eu873 O884 2.418 . S
Eu873 O885 2.384 . S
Eu873 O888 2.479 . S
Eu873 O889 2.471 . S
Eu873 O890 2.347 . S
Eu873 O893 2.366 . S
Eu873 C903 2.825 . S
C874 O890 1.259 . S
C874 O891 1.265 . S
C875 O892 1.255 . S
C875 O893 1.265 . S
C876 C878 1.380 . S
C876 C879 1.374 . S
C876 C882 1.507 . S
C877 C878 1.384 . S
C877 C881 1.387 . S
C877 H904 0.930 . S
C878 C876 1.380 . S
C878 C877 1.384 . S
C878 H905 0.931 . S
C879 C876 1.374 . S
C879 C880 1.390 . S
C879 H906 0.930 . S
C880 C879 1.390 . S
C880 C881 1.391 . S
C880 H907 0.930 . S
C881 C877 1.387 . S
C881 C880 1.391 . S
C882 Tb872 2.825 . S
C882 C876 1.507 . S
C882 O895 1.238 . S
C882 O896 1.247 . S
O883 Tb872 2.347 . S
O883 C887 1.259 . S
O884 Eu873 2.418 . S
O884 C887 1.265 . S
O885 Eu873 2.384 . S
O885 C894 1.255 . S
O886 Tb872 2.366 . S
O886 C894 1.265 . S
C887 O883 1.259 . S
C887 O884 1.265 . S
O888 Eu873 2.479 . S
O888 C903 1.238 . S
O889 Eu873 2.471 . S
O889 C903 1.247 . S
O890 Eu873 2.347 . S
O890 C874 1.259 . S
O891 Tb872 2.418 . S
O891 C874 1.265 . S
O892 Tb872 2.384 . S
O892 C875 1.255 . S
O893 Eu873 2.366 . S
O893 C875 1.265 . S
C894 O885 1.255 . S
C894 O886 1.265 . S
O895 Tb872 2.479 . S
O895 C882 1.238 . S
O896 Tb872 2.471 . S
O896 C882 1.247 . S
C897 C900 1.380 . S
C897 C901 1.374 . S
C897 C903 1.507 . S
C898 C899 1.387 . S
C898 C902 1.391 . S
C899 C898 1.387 . S
C899 C900 1.384 . S
C899 H908 0.930 . S
C900 C897 1.380 . S
C900 C899 1.384 . S
C900 H909 0.931 . S
C901 C897 1.374 . S
C901 C902 1.390 . S
C901 H910 0.930 . S
C902 C898 1.391 . S
C902 C901 1.390 . S
C902 H911 0.930 . S
C903 Eu873 2.825 . S
C903 O888 1.238 . S
C903 O889 1.247 . S
C903 C897 1.507 . S
H904 C877 0.930 . S
H905 C878 0.931 . S
H906 C879 0.930 . S
H907 C880 0.930 . S
H908 C899 0.930 . S
H909 C900 0.931 . S
H910 C901 0.930 . S
H911 C902 0.930 . S
Tb912 C922 2.825 . S
Tb912 O923 2.347 . S
Tb912 O926 2.366 . S
Tb912 O931 2.418 . S
Tb912 O932 2.384 1_455 S
Tb912 O935 2.479 . S
Tb912 O936 2.471 . S
Eu913 O924 2.418 1_554 S
Eu913 O925 2.384 . S
Eu913 O928 2.479 . S
Eu913 O929 2.471 . S
Eu913 O930 2.347 . S
Eu913 O933 2.366 . S
Eu913 C943 2.825 . S
C914 O930 1.259 . S
C914 O931 1.265 . S
C915 O932 1.255 . S
C915 O933 1.265 1_655 S
C916 C918 1.380 . S
C916 C919 1.374 1_554 S
C916 C922 1.507 . S
C917 C918 1.384 . S
C917 C921 1.387 1_554 S
C917 H944 0.930 . S
C918 C916 1.380 . S
C918 C917 1.384 . S
C918 H945 0.931 . S
C919 C916 1.374 1_556 S
C919 C920 1.390 . S
C919 H946 0.930 . S
C920 C919 1.390 . S
C920 C921 1.391 . S
C920 H947 0.930 . S
C921 C917 1.387 1_556 S
C921 C920 1.391 . S
C922 Tb912 2.825 . S
C922 C916 1.507 . S
C922 O935 1.238 . S
C922 O936 1.247 . S
O923 Tb912 2.347 . S
O923 C927 1.259 1_554 S
O924 Eu913 2.418 1_556 S
O924 C927 1.265 . S
O925 Eu913 2.384 . S
O925 C934 1.255 . S
O926 Tb912 2.366 . S
O926 C934 1.265 . S
C927 O923 1.259 1_556 S
C927 O924 1.265 . S
O928 Eu913 2.479 . S
O928 C943 1.238 . S
O929 Eu913 2.471 . S
O929 C943 1.247 . S
O930 Eu913 2.347 . S
O930 C914 1.259 . S
O931 Tb912 2.418 . S
O931 C914 1.265 . S
O932 Tb912 2.384 1_655 S
O932 C915 1.255 . S
O933 Eu913 2.366 . S
O933 C915 1.265 1_455 S
C934 O925 1.255 . S
C934 O926 1.265 . S
O935 Tb912 2.479 . S
O935 C922 1.238 . S
O936 Tb912 2.471 . S
O936 C922 1.247 . S
C937 C940 1.380 . S
C937 C941 1.374 . S
C937 C943 1.507 . S
C938 C939 1.387 . S
C938 C942 1.391 . S
C939 C938 1.387 . S
C939 C940 1.384 . S
C939 H948 0.930 . S
C940 C937 1.380 . S
C940 C939 1.384 . S
C940 H949 0.931 . S
C941 C937 1.374 . S
C941 C942 1.390 . S
C941 H950 0.930 . S
C942 C938 1.391 . S
C942 C941 1.390 . S
C942 H951 0.930 . S
C943 Eu913 2.825 . S
C943 O928 1.238 . S
C943 O929 1.247 . S
C943 C937 1.507 . S
H944 C917 0.930 . S
H945 C918 0.931 . S
H946 C919 0.930 . S
H947 C920 0.930 . S
H948 C939 0.930 . S
H949 C940 0.931 . S
H950 C941 0.930 . S
H951 C942 0.930 . S
H952 C970 0.951 1_655 S
H953 C972 0.951 . S
H954 C974 0.950 . S
H955 C975 0.950 . S
H956 C977 0.950 . S
H957 C980 0.950 . S
H958 C981 0.950 . S
H959 C983 0.950 . S
H960 C984 0.950 . S
H961 C985 0.951 . S
H962 C987 0.951 . S
H963 C989 0.950 . S
H964 C990 0.950 . S
H965 C992 0.950 . S
H966 C995 0.950 . S
H967 C996 0.950 . S
H968 C998 0.950 . S
H969 C999 0.950 . S
C970 H952 0.951 1_455 S
C970 C971 1.366 . S
C970 C972 1.388 . S
C971 C970 1.366 . S
C971 C975 1.385 . S
C972 H953 0.951 . S
C972 C970 1.388 . S
C972 C973 1.366 . S
C973 C972 1.366 . S
C973 C974 1.414 . S
C973 C976 1.499 . S
C974 H954 0.950 . S
C974 C973 1.414 . S
C974 C975 1.374 . S
C975 H955 0.950 . S
C975 C971 1.385 . S
C975 C974 1.374 . S
C976 C973 1.499 . S
C976 C977 1.373 . S
C976 C978 1.389 . S
C977 H956 0.950 . S
C977 C976 1.373 . S
C977 C993 1.377 . S
C978 C976 1.389 . S
C978 C979 1.524 1_455 S
C978 C992 1.377 . S
C979 C978 1.524 1_655 S
C979 C980 1.397 . S
C979 C984 1.363 . S
C980 H957 0.950 . S
C980 C979 1.397 . S
C980 C981 1.334 . S
C981 H958 0.950 . S
C981 C980 1.334 . S
C981 C982 1.287 . S
C982 C981 1.287 . S
C982 C983 1.524 . S
C982 H1001 0.913 . S
C983 H959 0.950 . S
C983 C982 1.524 . S
C983 C984 1.415 . S
C984 H960 0.950 . S
C984 C979 1.363 . S
C984 C983 1.415 . S
C985 H961 0.951 . S
C985 C986 1.366 . S
C985 C987 1.388 . S
C986 C985 1.366 . S
C986 C990 1.385 . S
C987 H962 0.951 . S
C987 C985 1.388 . S
C987 C988 1.366 1_554 S
C988 C987 1.366 1_556 S
C988 C989 1.414 . S
C988 C991 1.499 . S
C989 H963 0.950 . S
C989 C988 1.414 . S
C989 C990 1.374 1_556 S
C990 H964 0.950 . S
C990 C986 1.385 . S
C990 C989 1.374 1_554 S
C991 C988 1.499 . S
C991 C992 1.373 . S
C991 C993 1.389 . S
C992 H965 0.950 . S
C992 C978 1.377 . S
C992 C991 1.373 . S
C993 C977 1.377 . S
C993 C991 1.389 . S
C993 C994 1.524 . S
C994 C993 1.524 . S
C994 C995 1.397 . S
C994 C999 1.363 . S
C995 H966 0.950 . S
C995 C994 1.397 . S
C995 C996 1.334 . S
C996 H967 0.950 . S
C996 C995 1.334 . S
C996 C997 1.287 . S
C997 C996 1.287 . S
C997 C998 1.524 1_556 S
C997 H1000 0.993 1_556 S
C998 H968 0.950 . S
C998 C997 1.524 1_554 S
C998 C999 1.415 1_554 S
C999 H969 0.950 . S
C999 C994 1.363 . S
C999 C998 1.415 1_556 S
H1000 C997 0.993 1_554 S
H1001 C982 0.913 . S
H1002 C1020 0.951 . S
H1003 C1022 0.951 . S
H1004 C1024 0.950 . S
H1005 C1025 0.950 . S
H1006 C1027 0.950 . S
H1007 C1030 0.950 . S
H1008 C1031 0.950 . S
H1009 C1033 0.950 . S
H1010 C1034 0.950 . S
H1011 C1035 0.951 . S
H1012 C1037 0.951 . S
H1013 C1039 0.950 . S
H1014 C1040 0.950 . S
H1015 C1042 0.950 . S
H1016 C1045 0.950 . S
H1017 C1046 0.950 . S
H1018 C1048 0.950 . S
H1019 C1049 0.950 . S
C1020 H1002 0.951 . S
C1020 C1021 1.366 . S
C1020 C1022 1.388 . S
C1021 C1020 1.366 . S
C1021 C1025 1.385 . S
C1022 H1003 0.951 . S
C1022 C1020 1.388 . S
C1022 C1023 1.366 . S
C1023 C1022 1.366 . S
C1023 C1024 1.414 . S
C1023 C1026 1.499 . S
C1024 H1004 0.950 . S
C1024 C1023 1.414 . S
C1024 C1025 1.374 . S
C1025 H1005 0.950 . S
C1025 C1021 1.385 . S
C1025 C1024 1.374 . S
C1026 C1023 1.499 . S
C1026 C1027 1.373 . S
C1026 C1028 1.389 . S
C1027 H1006 0.950 . S
C1027 C1026 1.373 . S
C1027 C1043 1.377 . S
C1028 C1026 1.389 . S
C1028 C1029 1.524 . S
C1028 C1042 1.377 . S
C1029 C1028 1.524 . S
C1029 C1030 1.397 . S
C1029 C1034 1.363 . S
C1030 H1007 0.950 . S
C1030 C1029 1.397 . S
C1030 C1031 1.334 . S
C1031 H1008 0.950 . S
C1031 C1030 1.334 . S
C1031 C1032 1.287 . S
C1032 C1031 1.287 . S
C1032 C1033 1.524 . S
C1032 H1051 0.913 . S
C1033 H1009 0.950 . S
C1033 C1032 1.524 . S
C1033 C1034 1.415 . S
C1034 H1010 0.950 . S
C1034 C1029 1.363 . S
C1034 C1033 1.415 . S
C1035 H1011 0.951 . S
C1035 C1036 1.366 . S
C1035 C1037 1.388 . S
C1036 C1035 1.366 . S
C1036 C1040 1.385 . S
C1037 H1012 0.951 . S
C1037 C1035 1.388 . S
C1037 C1038 1.366 . S
C1038 C1037 1.366 . S
C1038 C1039 1.414 . S
C1038 C1041 1.499 . S
C1039 H1013 0.950 . S
C1039 C1038 1.414 . S
C1039 C1040 1.374 . S
C1040 H1014 0.950 . S
C1040 C1036 1.385 . S
C1040 C1039 1.374 . S
C1041 C1038 1.499 . S
C1041 C1042 1.373 . S
C1041 C1043 1.389 . S
C1042 H1015 0.950 . S
C1042 C1028 1.377 . S
C1042 C1041 1.373 . S
C1043 C1027 1.377 . S
C1043 C1041 1.389 . S
C1043 C1044 1.524 . S
C1044 C1043 1.524 . S
C1044 C1045 1.397 . S
C1044 C1049 1.363 . S
C1045 H1016 0.950 . S
C1045 C1044 1.397 . S
C1045 C1046 1.334 . S
C1046 H1017 0.950 . S
C1046 C1045 1.334 . S
C1046 C1047 1.287 . S
C1047 C1046 1.287 . S
C1047 C1048 1.524 . S
C1047 H1050 0.999 . S
C1048 H1018 0.950 . S
C1048 C1047 1.524 . S
C1048 C1049 1.415 . S
C1049 H1019 0.950 . S
C1049 C1044 1.363 . S
C1049 C1048 1.415 . S
H1050 C1047 0.999 . S
H1051 C1032 0.913 . S
H1052 C1070 0.951 . S
H1053 C1072 0.951 . S
H1054 C1074 0.950 . S
H1055 C1075 0.950 . S
H1056 C1077 0.950 . S
H1057 C1080 0.950 . S
H1058 C1081 0.950 . S
H1059 C1083 0.950 . S
H1060 C1084 0.950 . S
H1061 C1085 0.951 . S
H1062 C1087 0.951 . S
H1063 C1089 0.950 . S
H1064 C1090 0.950 . S
H1065 C1092 0.950 . S
H1066 C1095 0.950 . S
H1067 C1096 0.950 . S
H1068 C1098 0.950 . S
H1069 C1099 0.950 . S
C1070 H1052 0.951 . S
C1070 C1071 1.366 . S
C1070 C1072 1.388 . S
C1071 C1070 1.366 . S
C1071 C1075 1.385 . S
C1072 H1053 0.951 . S
C1072 C1070 1.388 . S
C1072 C1073 1.366 . S
C1073 C1072 1.366 . S
C1073 C1074 1.414 . S
C1073 C1076 1.499 . S
C1074 H1054 0.950 . S
C1074 C1073 1.414 . S
C1074 C1075 1.374 . S
C1075 H1055 0.950 . S
C1075 C1071 1.385 . S
C1075 C1074 1.374 . S
C1076 C1073 1.499 . S
C1076 C1077 1.373 . S
C1076 C1078 1.389 . S
C1077 H1056 0.950 . S
C1077 C1076 1.373 . S
C1077 C1093 1.377 . S
C1078 C1076 1.389 . S
C1078 C1079 1.524 . S
C1078 C1092 1.377 . S
C1079 C1078 1.524 . S
C1079 C1080 1.397 . S
C1079 C1084 1.363 . S
C1080 H1057 0.950 . S
C1080 C1079 1.397 . S
C1080 C1081 1.334 . S
C1081 H1058 0.950 . S
C1081 C1080 1.334 . S
C1081 C1082 1.287 . S
C1082 C1081 1.287 . S
C1082 C1083 1.524 . S
C1082 H1101 0.913 . S
C1083 H1059 0.950 . S
C1083 C1082 1.524 . S
C1083 C1084 1.415 . S
C1084 H1060 0.950 . S
C1084 C1079 1.363 . S
C1084 C1083 1.415 . S
C1085 H1061 0.951 . S
C1085 C1086 1.366 . S
C1085 C1087 1.388 . S
C1086 C1085 1.366 . S
C1086 C1090 1.385 . S
C1087 H1062 0.951 . S
C1087 C1085 1.388 . S
C1087 C1088 1.366 . S
C1088 C1087 1.366 . S
C1088 C1089 1.414 . S
C1088 C1091 1.499 . S
C1089 H1063 0.950 . S
C1089 C1088 1.414 . S
C1089 C1090 1.374 . S
C1090 H1064 0.950 . S
C1090 C1086 1.385 . S
C1090 C1089 1.374 . S
C1091 C1088 1.499 . S
C1091 C1092 1.373 . S
C1091 C1093 1.389 . S
C1092 H1065 0.950 . S
C1092 C1078 1.377 . S
C1092 C1091 1.373 . S
C1093 C1077 1.377 . S
C1093 C1091 1.389 . S
C1093 C1094 1.524 . S
C1094 C1093 1.524 . S
C1094 C1095 1.397 . S
C1094 C1099 1.363 . S
C1095 H1066 0.950 . S
C1095 C1094 1.397 . S
C1095 C1096 1.334 . S
C1096 H1067 0.950 . S
C1096 C1095 1.334 . S
C1096 C1097 1.287 . S
C1097 C1096 1.287 . S
C1097 C1098 1.524 . S
C1097 H1100 0.999 . S
C1098 H1068 0.950 . S
C1098 C1097 1.524 . S
C1098 C1099 1.415 . S
C1099 H1069 0.950 . S
C1099 C1094 1.363 . S
C1099 C1098 1.415 . S
H1100 C1097 0.999 . S
H1101 C1082 0.913 . S
H1102 C1120 0.951 . S
H1103 C1122 0.951 . S
H1104 C1124 0.950 . S
H1105 C1125 0.950 . S
H1106 C1127 0.950 . S
H1107 C1130 0.950 . S
H1108 C1131 0.950 . S
H1109 C1133 0.950 . S
H1110 C1134 0.950 . S
H1111 C1135 0.951 . S
H1112 C1137 0.951 . S
H1113 C1139 0.950 . S
H1114 C1140 0.950 . S
H1115 C1142 0.950 . S
H1116 C1145 0.950 . S
H1117 C1146 0.950 . S
H1118 C1148 0.950 . S
H1119 C1149 0.950 . S
C1120 H1102 0.951 . S
C1120 C1121 1.366 . S
C1120 C1122 1.388 . S
C1121 C1120 1.366 . S
C1121 C1125 1.385 . S
C1122 H1103 0.951 . S
C1122 C1120 1.388 . S
C1122 C1123 1.366 . S
C1123 C1122 1.366 . S
C1123 C1124 1.414 . S
C1123 C1126 1.499 . S
C1124 H1104 0.950 . S
C1124 C1123 1.414 . S
C1124 C1125 1.374 . S
C1125 H1105 0.950 . S
C1125 C1121 1.385 . S
C1125 C1124 1.374 . S
C1126 C1123 1.499 . S
C1126 C1127 1.373 . S
C1126 C1128 1.389 . S
C1127 H1106 0.950 . S
C1127 C1126 1.373 . S
C1127 C1143 1.377 . S
C1128 C1126 1.389 . S
C1128 C1129 1.524 . S
C1128 C1142 1.377 . S
C1129 C1128 1.524 . S
C1129 C1130 1.397 . S
C1129 C1134 1.363 . S
C1130 H1107 0.950 . S
C1130 C1129 1.397 . S
C1130 C1131 1.334 . S
C1131 H1108 0.950 . S
C1131 C1130 1.334 . S
C1131 C1132 1.287 . S
C1132 C1131 1.287 . S
C1132 C1133 1.524 . S
C1132 H1151 0.913 . S
C1133 H1109 0.950 . S
C1133 C1132 1.524 . S
C1133 C1134 1.415 . S
C1134 H1110 0.950 . S
C1134 C1129 1.363 . S
C1134 C1133 1.415 . S
C1135 H1111 0.951 . S
C1135 C1136 1.366 . S
C1135 C1137 1.388 . S
C1136 C1135 1.366 . S
C1136 C1140 1.385 . S
C1137 H1112 0.951 . S
C1137 C1135 1.388 . S
C1137 C1138 1.366 . S
C1138 C1137 1.366 . S
C1138 C1139 1.414 . S
C1138 C1141 1.499 . S
C1139 H1113 0.950 . S
C1139 C1138 1.414 . S
C1139 C1140 1.374 . S
C1140 H1114 0.950 . S
C1140 C1136 1.385 . S
C1140 C1139 1.374 . S
C1141 C1138 1.499 . S
C1141 C1142 1.373 . S
C1141 C1143 1.389 . S
C1142 H1115 0.950 . S
C1142 C1128 1.377 . S
C1142 C1141 1.373 . S
C1143 C1127 1.377 . S
C1143 C1141 1.389 . S
C1143 C1144 1.524 . S
C1144 C1143 1.524 . S
C1144 C1145 1.397 . S
C1144 C1149 1.363 . S
C1145 H1116 0.950 . S
C1145 C1144 1.397 . S
C1145 C1146 1.334 . S
C1146 H1117 0.950 . S
C1146 C1145 1.334 . S
C1146 C1147 1.287 . S
C1147 C1146 1.287 . S
C1147 C1148 1.524 . S
C1147 H1150 0.999 . S
C1148 H1118 0.950 . S
C1148 C1147 1.524 . S
C1148 C1149 1.415 . S
C1149 H1119 0.950 . S
C1149 C1144 1.363 . S
C1149 C1148 1.415 . S
H1150 C1147 0.999 . S
H1151 C1132 0.913 . S
H1152 C1170 0.951 . S
H1153 C1172 0.951 . S
H1154 C1174 0.950 . S
H1155 C1175 0.950 . S
H1156 C1177 0.950 . S
H1157 C1180 0.950 . S
H1158 C1181 0.950 . S
H1159 C1183 0.950 . S
H1160 C1184 0.950 . S
H1161 C1185 0.951 . S
H1162 C1187 0.951 . S
H1163 C1189 0.950 . S
H1164 C1190 0.950 . S
H1165 C1192 0.950 . S
H1166 C1195 0.950 . S
H1167 C1196 0.950 . S
H1168 C1198 0.950 . S
H1169 C1199 0.950 . S
C1170 H1152 0.951 . S
C1170 C1171 1.366 . S
C1170 C1172 1.388 . S
C1171 C1170 1.366 . S
C1171 C1175 1.385 . S
C1172 H1153 0.951 . S
C1172 C1170 1.388 . S
C1172 C1173 1.366 . S
C1173 C1172 1.366 . S
C1173 C1174 1.414 . S
C1173 C1176 1.499 . S
C1174 H1154 0.950 . S
C1174 C1173 1.414 . S
C1174 C1175 1.374 . S
C1175 H1155 0.950 . S
C1175 C1171 1.385 . S
C1175 C1174 1.374 . S
C1176 C1173 1.499 . S
C1176 C1177 1.373 . S
C1176 C1178 1.389 . S
C1177 H1156 0.950 . S
C1177 C1176 1.373 . S
C1177 C1193 1.377 . S
C1178 C1176 1.389 . S
C1178 C1179 1.524 . S
C1178 C1192 1.377 . S
C1179 C1178 1.524 . S
C1179 C1180 1.397 . S
C1179 C1184 1.363 . S
C1180 H1157 0.950 . S
C1180 C1179 1.397 . S
C1180 C1181 1.334 . S
C1181 H1158 0.950 . S
C1181 C1180 1.334 . S
C1181 C1182 1.287 . S
C1182 C1181 1.287 . S
C1182 C1183 1.524 . S
C1182 H1201 0.913 . S
C1183 H1159 0.950 . S
C1183 C1182 1.524 . S
C1183 C1184 1.415 . S
C1184 H1160 0.950 . S
C1184 C1179 1.363 . S
C1184 C1183 1.415 . S
C1185 H1161 0.951 . S
C1185 C1186 1.366 . S
C1185 C1187 1.388 . S
C1186 C1185 1.366 . S
C1186 C1190 1.385 . S
C1187 H1162 0.951 . S
C1187 C1185 1.388 . S
C1187 C1188 1.366 . S
C1188 C1187 1.366 . S
C1188 C1189 1.414 . S
C1188 C1191 1.499 . S
C1189 H1163 0.950 . S
C1189 C1188 1.414 . S
C1189 C1190 1.374 . S
C1190 H1164 0.950 . S
C1190 C1186 1.385 . S
C1190 C1189 1.374 . S
C1191 C1188 1.499 . S
C1191 C1192 1.373 . S
C1191 C1193 1.389 . S
C1192 H1165 0.950 . S
C1192 C1178 1.377 . S
C1192 C1191 1.373 . S
C1193 C1177 1.377 . S
C1193 C1191 1.389 . S
C1193 C1194 1.524 . S
C1194 C1193 1.524 . S
C1194 C1195 1.397 . S
C1194 C1199 1.363 . S
C1195 H1166 0.950 . S
C1195 C1194 1.397 . S
C1195 C1196 1.334 . S
C1196 H1167 0.950 . S
C1196 C1195 1.334 . S
C1196 C1197 1.287 . S
C1197 C1196 1.287 . S
C1197 C1198 1.524 . S
C1197 H1200 0.999 . S
C1198 H1168 0.950 . S
C1198 C1197 1.524 . S
C1198 C1199 1.415 . S
C1199 H1169 0.950 . S
C1199 C1194 1.363 . S
C1199 C1198 1.415 . S
H1200 C1197 0.999 . S
H1201 C1182 0.913 . S
H1202 C1220 0.951 . S
H1203 C1222 0.951 . S
H1204 C1224 0.950 . S
H1205 C1225 0.950 . S
H1206 C1227 0.950 . S
H1207 C1230 0.950 . S
H1208 C1231 0.950 . S
H1209 C1233 0.950 . S
H1210 C1234 0.950 . S
H1211 C1235 0.951 . S
H1212 C1237 0.951 . S
H1213 C1239 0.950 . S
H1214 C1240 0.950 . S
H1215 C1242 0.950 . S
H1216 C1245 0.950 . S
H1217 C1246 0.950 . S
H1218 C1248 0.950 . S
H1219 C1249 0.950 . S
C1220 H1202 0.951 . S
C1220 C1221 1.366 . S
C1220 C1222 1.388 . S
C1221 C1220 1.366 . S
C1221 C1225 1.385 . S
C1222 H1203 0.951 . S
C1222 C1220 1.388 . S
C1222 C1223 1.366 . S
C1223 C1222 1.366 . S
C1223 C1224 1.414 . S
C1223 C1226 1.499 . S
C1224 H1204 0.950 . S
C1224 C1223 1.414 . S
C1224 C1225 1.374 . S
C1225 H1205 0.950 . S
C1225 C1221 1.385 . S
C1225 C1224 1.374 . S
C1226 C1223 1.499 . S
C1226 C1227 1.373 . S
C1226 C1228 1.389 . S
C1227 H1206 0.950 . S
C1227 C1226 1.373 . S
C1227 C1243 1.377 . S
C1228 C1226 1.389 . S
C1228 C1229 1.524 . S
C1228 C1242 1.377 . S
C1229 C1228 1.524 . S
C1229 C1230 1.397 . S
C1229 C1234 1.363 . S
C1230 H1207 0.950 . S
C1230 C1229 1.397 . S
C1230 C1231 1.334 . S
C1231 H1208 0.950 . S
C1231 C1230 1.334 . S
C1231 C1232 1.287 . S
C1232 C1231 1.287 . S
C1232 C1233 1.524 . S
C1232 H1251 0.913 . S
C1233 H1209 0.950 . S
C1233 C1232 1.524 . S
C1233 C1234 1.415 . S
C1234 H1210 0.950 . S
C1234 C1229 1.363 . S
C1234 C1233 1.415 . S
C1235 H1211 0.951 . S
C1235 C1236 1.366 . S
C1235 C1237 1.388 . S
C1236 C1235 1.366 . S
C1236 C1240 1.385 . S
C1237 H1212 0.951 . S
C1237 C1235 1.388 . S
C1237 C1238 1.366 . S
C1238 C1237 1.366 . S
C1238 C1239 1.414 . S
C1238 C1241 1.499 . S
C1239 H1213 0.950 . S
C1239 C1238 1.414 . S
C1239 C1240 1.374 . S
C1240 H1214 0.950 . S
C1240 C1236 1.385 . S
C1240 C1239 1.374 . S
C1241 C1238 1.499 . S
C1241 C1242 1.373 . S
C1241 C1243 1.389 . S
C1242 H1215 0.950 . S
C1242 C1228 1.377 . S
C1242 C1241 1.373 . S
C1243 C1227 1.377 . S
C1243 C1241 1.389 . S
C1243 C1244 1.524 . S
C1244 C1243 1.524 . S
C1244 C1245 1.397 . S
C1244 C1249 1.363 . S
C1245 H1216 0.950 . S
C1245 C1244 1.397 . S
C1245 C1246 1.334 . S
C1246 H1217 0.950 . S
C1246 C1245 1.334 . S
C1246 C1247 1.287 . S
C1247 C1246 1.287 . S
C1247 C1248 1.524 . S
C1247 H1250 0.999 . S
C1248 H1218 0.950 . S
C1248 C1247 1.524 . S
C1248 C1249 1.415 . S
C1249 H1219 0.950 . S
C1249 C1244 1.363 . S
C1249 C1248 1.415 . S
H1250 C1247 0.999 . S
H1251 C1232 0.913 . S
H1252 C1270 0.951 . S
H1253 C1272 0.951 . S
H1254 C1274 0.950 . S
H1255 C1275 0.950 . S
H1256 C1277 0.950 . S
H1257 C1280 0.950 . S
H1258 C1281 0.950 . S
H1259 C1283 0.950 . S
H1260 C1284 0.950 . S
H1261 C1285 0.951 . S
H1262 C1287 0.951 . S
H1263 C1289 0.950 . S
H1264 C1290 0.950 . S
H1265 C1292 0.950 . S
H1266 C1295 0.950 . S
H1267 C1296 0.950 . S
H1268 C1298 0.950 . S
H1269 C1299 0.950 . S
C1270 H1252 0.951 . S
C1270 C1271 1.366 . S
C1270 C1272 1.388 . S
C1271 C1270 1.366 . S
C1271 C1275 1.385 . S
C1272 H1253 0.951 . S
C1272 C1270 1.388 . S
C1272 C1273 1.366 . S
C1273 C1272 1.366 . S
C1273 C1274 1.414 . S
C1273 C1276 1.499 . S
C1274 H1254 0.950 . S
C1274 C1273 1.414 . S
C1274 C1275 1.374 . S
C1275 H1255 0.950 . S
C1275 C1271 1.385 . S
C1275 C1274 1.374 . S
C1276 C1273 1.499 . S
C1276 C1277 1.373 . S
C1276 C1278 1.389 . S
C1277 H1256 0.950 . S
C1277 C1276 1.373 . S
C1277 C1293 1.377 . S
C1278 C1276 1.389 . S
C1278 C1279 1.524 . S
C1278 C1292 1.377 . S
C1279 C1278 1.524 . S
C1279 C1280 1.397 . S
C1279 C1284 1.363 . S
C1280 H1257 0.950 . S
C1280 C1279 1.397 . S
C1280 C1281 1.334 . S
C1281 H1258 0.950 . S
C1281 C1280 1.334 . S
C1281 C1282 1.287 . S
C1282 C1281 1.287 . S
C1282 C1283 1.524 . S
C1282 H1301 0.913 . S
C1283 H1259 0.950 . S
C1283 C1282 1.524 . S
C1283 C1284 1.415 . S
C1284 H1260 0.950 . S
C1284 C1279 1.363 . S
C1284 C1283 1.415 . S
C1285 H1261 0.951 . S
C1285 C1286 1.366 . S
C1285 C1287 1.388 . S
C1286 C1285 1.366 . S
C1286 C1290 1.385 . S
C1287 H1262 0.951 . S
C1287 C1285 1.388 . S
C1287 C1288 1.366 . S
C1288 C1287 1.366 . S
C1288 C1289 1.414 . S
C1288 C1291 1.499 . S
C1289 H1263 0.950 . S
C1289 C1288 1.414 . S
C1289 C1290 1.374 . S
C1290 H1264 0.950 . S
C1290 C1286 1.385 . S
C1290 C1289 1.374 . S
C1291 C1288 1.499 . S
C1291 C1292 1.373 . S
C1291 C1293 1.389 . S
C1292 H1265 0.950 . S
C1292 C1278 1.377 . S
C1292 C1291 1.373 . S
C1293 C1277 1.377 . S
C1293 C1291 1.389 . S
C1293 C1294 1.524 . S
C1294 C1293 1.524 . S
C1294 C1295 1.397 . S
C1294 C1299 1.363 . S
C1295 H1266 0.950 . S
C1295 C1294 1.397 . S
C1295 C1296 1.334 . S
C1296 H1267 0.950 . S
C1296 C1295 1.334 . S
C1296 C1297 1.287 . S
C1297 C1296 1.287 . S
C1297 C1298 1.524 . S
C1297 H1300 0.999 . S
C1298 H1268 0.950 . S
C1298 C1297 1.524 . S
C1298 C1299 1.415 . S
C1299 H1269 0.950 . S
C1299 C1294 1.363 . S
C1299 C1298 1.415 . S
H1300 C1297 0.999 . S
H1301 C1282 0.913 . S
H1302 C1320 0.951 . S
H1303 C1322 0.951 . S
H1304 C1324 0.950 . S
H1305 C1325 0.950 . S
H1306 C1327 0.950 . S
H1307 C1330 0.950 . S
H1308 C1331 0.950 . S
H1309 C1333 0.950 . S
H1310 C1334 0.950 . S
H1311 C1335 0.951 . S
H1312 C1337 0.951 . S
H1313 C1339 0.950 . S
H1314 C1340 0.950 . S
H1315 C1342 0.950 . S
H1316 C1345 0.950 . S
H1317 C1346 0.950 . S
H1318 C1348 0.950 . S
H1319 C1349 0.950 . S
C1320 H1302 0.951 . S
C1320 C1321 1.366 . S
C1320 C1322 1.388 . S
C1321 C1320 1.366 . S
C1321 C1325 1.385 . S
C1322 H1303 0.951 . S
C1322 C1320 1.388 . S
C1322 C1323 1.366 . S
C1323 C1322 1.366 . S
C1323 C1324 1.414 . S
C1323 C1326 1.499 . S
C1324 H1304 0.950 . S
C1324 C1323 1.414 . S
C1324 C1325 1.374 . S
C1325 H1305 0.950 . S
C1325 C1321 1.385 . S
C1325 C1324 1.374 . S
C1326 C1323 1.499 . S
C1326 C1327 1.373 . S
C1326 C1328 1.389 . S
C1327 H1306 0.950 . S
C1327 C1326 1.373 . S
C1327 C1343 1.377 . S
C1328 C1326 1.389 . S
C1328 C1329 1.524 . S
C1328 C1342 1.377 . S
C1329 C1328 1.524 . S
C1329 C1330 1.397 . S
C1329 C1334 1.363 . S
C1330 H1307 0.950 . S
C1330 C1329 1.397 . S
C1330 C1331 1.334 . S
C1331 H1308 0.950 . S
C1331 C1330 1.334 . S
C1331 C1332 1.287 . S
C1332 C1331 1.287 . S
C1332 C1333 1.524 . S
C1332 H1351 0.913 . S
C1333 H1309 0.950 . S
C1333 C1332 1.524 . S
C1333 C1334 1.415 . S
C1334 H1310 0.950 . S
C1334 C1329 1.363 . S
C1334 C1333 1.415 . S
C1335 H1311 0.951 . S
C1335 C1336 1.366 . S
C1335 C1337 1.388 . S
C1336 C1335 1.366 . S
C1336 C1340 1.385 . S
C1337 H1312 0.951 . S
C1337 C1335 1.388 . S
C1337 C1338 1.366 . S
C1338 C1337 1.366 . S
C1338 C1339 1.414 . S
C1338 C1341 1.499 . S
C1339 H1313 0.950 . S
C1339 C1338 1.414 . S
C1339 C1340 1.374 . S
C1340 H1314 0.950 . S
C1340 C1336 1.385 . S
C1340 C1339 1.374 . S
C1341 C1338 1.499 . S
C1341 C1342 1.373 . S
C1341 C1343 1.389 . S
C1342 H1315 0.950 . S
C1342 C1328 1.377 . S
C1342 C1341 1.373 . S
C1343 C1327 1.377 . S
C1343 C1341 1.389 . S
C1343 C1344 1.524 . S
C1344 C1343 1.524 . S
C1344 C1345 1.397 . S
C1344 C1349 1.363 . S
C1345 H1316 0.950 . S
C1345 C1344 1.397 . S
C1345 C1346 1.334 . S
C1346 H1317 0.950 . S
C1346 C1345 1.334 . S
C1346 C1347 1.287 . S
C1347 C1346 1.287 . S
C1347 C1348 1.524 . S
C1347 H1350 0.999 . S
C1348 H1318 0.950 . S
C1348 C1347 1.524 . S
C1348 C1349 1.415 . S
C1349 H1319 0.950 . S
C1349 C1344 1.363 . S
C1349 C1348 1.415 . S
H1350 C1347 0.999 . S
H1351 C1332 0.913 . S
H1352 C1370 0.951 . S
H1353 C1372 0.951 . S
H1354 C1374 0.950 1_565 S
H1355 C1375 0.913 1_565 S
H1356 C1377 0.950 . S
H1357 C1380 0.950 . S
H1358 C1381 0.950 . S
H1359 C1383 0.950 . S
H1360 C1384 0.950 . S
H1361 C1385 0.951 . S
H1362 C1387 0.951 . S
H1363 C1389 0.950 . S
H1364 C1390 0.950 . S
H1365 C1392 0.950 . S
H1366 C1395 0.950 . S
H1367 C1396 0.950 . S
H1368 C1398 0.950 . S
H1369 C1399 0.936 1_665 S
C1370 H1352 0.951 . S
C1370 C1371 1.366 . S
C1370 C1372 1.388 . S
C1371 C1370 1.366 . S
C1371 C1375 1.417 . S
C1372 H1353 0.951 . S
C1372 C1370 1.388 . S
C1372 C1373 1.366 . S
C1373 C1372 1.366 . S
C1373 C1374 1.414 . S
C1373 C1376 1.499 . S
C1374 H1354 0.950 1_545 S
C1374 C1373 1.414 . S
C1374 C1375 1.379 . S
C1375 H1355 0.913 1_545 S
C1375 C1371 1.417 . S
C1375 C1374 1.379 . S
C1376 C1373 1.499 . S
C1376 C1377 1.373 . S
C1376 C1378 1.389 . S
C1377 H1356 0.950 . S
C1377 C1376 1.373 . S
C1377 C1393 1.377 . S
C1378 C1376 1.389 . S
C1378 C1379 1.524 . S
C1378 C1392 1.377 . S
C1379 C1378 1.524 . S
C1379 C1380 1.397 . S
C1379 C1384 1.363 . S
C1380 H1357 0.950 . S
C1380 C1379 1.397 . S
C1380 C1381 1.334 . S
C1381 H1358 0.950 . S
C1381 C1380 1.334 . S
C1381 C1382 1.287 . S
C1382 C1381 1.287 . S
C1382 C1383 1.524 . S
C1382 H1401 0.913 . S
C1383 H1359 0.950 . S
C1383 C1382 1.524 . S
C1383 C1384 1.415 . S
C1384 H1360 0.950 . S
C1384 C1379 1.363 . S
C1384 C1383 1.415 . S
C1385 H1361 0.951 . S
C1385 C1386 1.366 . S
C1385 C1387 1.388 . S
C1386 C1385 1.366 . S
C1386 C1390 1.385 . S
C1387 H1362 0.951 . S
C1387 C1385 1.388 . S
C1387 C1388 1.366 . S
C1388 C1387 1.366 . S
C1388 C1389 1.414 . S
C1388 C1391 1.499 1_455 S
C1389 H1363 0.950 . S
C1389 C1388 1.414 . S
C1389 C1390 1.374 . S
C1390 H1364 0.950 . S
C1390 C1386 1.385 . S
C1390 C1389 1.374 . S
C1391 C1388 1.499 1_655 S
C1391 C1392 1.373 . S
C1391 C1393 1.389 . S
C1392 H1365 0.950 . S
C1392 C1378 1.377 . S
C1392 C1391 1.373 . S
C1393 C1377 1.377 . S
C1393 C1391 1.389 . S
C1393 C1394 1.524 1_655 S
C1394 C1393 1.524 1_455 S
C1394 C1395 1.397 . S
C1394 C1399 1.392 . S
C1395 H1366 0.950 . S
C1395 C1394 1.397 . S
C1395 C1396 1.334 . S
C1396 H1367 0.950 . S
C1396 C1395 1.334 . S
C1396 C1397 1.287 . S
C1397 C1396 1.287 . S
C1397 C1398 1.524 1_545 S
C1397 H1400 0.999 . S
C1398 H1368 0.950 . S
C1398 C1397 1.524 1_565 S
C1398 C1399 1.400 1_565 S
C1399 H1369 0.936 1_445 S
C1399 C1394 1.392 . S
C1399 C1398 1.400 1_545 S
H1400 C1397 0.999 . S
H1401 C1382 0.913 . S
H1402 C1420 0.951 . S
H1403 C1422 0.951 . S
H1404 C1424 0.950 . S
H1405 C1425 0.950 . S
H1406 C1427 0.950 . S
H1407 C1430 0.950 . S
H1408 C1431 0.950 . S
H1409 C1433 0.950 . S
H1410 C1434 0.950 . S
H1411 C1435 0.951 . S
H1412 C1437 0.951 . S
H1413 C1439 0.950 . S
H1414 C1440 0.950 . S
H1415 C1442 0.950 . S
H1416 C1445 0.950 . S
H1417 C1446 0.950 . S
H1418 C1448 0.950 . S
H1419 C1449 0.950 . S
C1420 H1402 0.951 . S
C1420 C1421 1.366 . S
C1420 C1422 1.388 . S
C1421 C1420 1.366 . S
C1421 C1425 1.385 . S
C1422 H1403 0.951 . S
C1422 C1420 1.388 . S
C1422 C1423 1.366 . S
C1423 C1422 1.366 . S
C1423 C1424 1.414 . S
C1423 C1426 1.499 . S
C1424 H1404 0.950 . S
C1424 C1423 1.414 . S
C1424 C1425 1.374 . S
C1425 H1405 0.950 . S
C1425 C1421 1.385 . S
C1425 C1424 1.374 . S
C1426 C1423 1.499 . S
C1426 C1427 1.373 . S
C1426 C1428 1.389 . S
C1427 H1406 0.950 . S
C1427 C1426 1.373 . S
C1427 C1443 1.377 . S
C1428 C1426 1.389 . S
C1428 C1429 1.524 . S
C1428 C1442 1.377 . S
C1429 C1428 1.524 . S
C1429 C1430 1.397 . S
C1429 C1434 1.363 . S
C1430 H1407 0.950 . S
C1430 C1429 1.397 . S
C1430 C1431 1.334 . S
C1431 H1408 0.950 . S
C1431 C1430 1.334 . S
C1431 C1432 1.287 . S
C1432 C1431 1.287 . S
C1432 C1433 1.524 . S
C1432 H1451 0.913 . S
C1433 H1409 0.950 . S
C1433 C1432 1.524 . S
C1433 C1434 1.415 . S
C1434 H1410 0.950 . S
C1434 C1429 1.363 . S
C1434 C1433 1.415 . S
C1435 H1411 0.951 . S
C1435 C1436 1.366 . S
C1435 C1437 1.388 . S
C1436 C1435 1.366 . S
C1436 C1440 1.385 . S
C1437 H1412 0.951 . S
C1437 C1435 1.388 . S
C1437 C1438 1.366 . S
C1438 C1437 1.366 . S
C1438 C1439 1.414 . S
C1438 C1441 1.499 . S
C1439 H1413 0.950 . S
C1439 C1438 1.414 . S
C1439 C1440 1.374 . S
C1440 H1414 0.950 . S
C1440 C1436 1.385 . S
C1440 C1439 1.374 . S
C1441 C1438 1.499 . S
C1441 C1442 1.373 . S
C1441 C1443 1.389 . S
C1442 H1415 0.950 . S
C1442 C1428 1.377 . S
C1442 C1441 1.373 . S
C1443 C1427 1.377 . S
C1443 C1441 1.389 . S
C1443 C1444 1.524 . S
C1444 C1443 1.524 . S
C1444 C1445 1.397 . S
C1444 C1449 1.363 . S
C1445 H1416 0.950 . S
C1445 C1444 1.397 . S
C1445 C1446 1.334 . S
C1446 H1417 0.950 . S
C1446 C1445 1.334 . S
C1446 C1447 1.287 . S
C1447 C1446 1.287 . S
C1447 C1448 1.524 . S
C1447 H1450 0.999 . S
C1448 H1418 0.950 . S
C1448 C1447 1.524 . S
C1448 C1449 1.415 . S
C1449 H1419 0.950 . S
C1449 C1444 1.363 . S
C1449 C1448 1.415 . S
H1450 C1447 0.999 . S
H1451 C1432 0.913 . S
H1452 C1470 0.951 . S
H1453 C1472 0.951 . S
H1454 C1474 0.950 . S
H1455 C1475 0.950 . S
H1456 C1477 0.950 . S
H1457 C1480 0.950 . S
H1458 C1481 0.950 . S
H1459 C1483 0.950 . S
H1460 C1484 0.950 . S
H1461 C1485 0.951 . S
H1462 C1487 0.951 . S
H1463 C1489 0.950 . S
H1464 C1490 0.950 . S
H1465 C1492 0.962 . S
H1466 C1495 1.001 . S
H1467 C1496 0.952 . S
H1468 C1498 0.950 . S
H1469 C1499 0.950 . S
C1470 H1452 0.951 . S
C1470 C1471 1.374 . S
C1470 C1472 1.388 . S
C1471 C1470 1.374 . S
C1471 C1475 1.374 1_565 S
C1472 H1453 0.951 . S
C1472 C1470 1.388 . S
C1472 C1473 1.366 1_565 S
C1473 C1472 1.366 1_545 S
C1473 C1474 1.414 . S
C1473 C1476 1.499 . S
C1474 H1454 0.950 . S
C1474 C1473 1.414 . S
C1474 C1475 1.374 . S
C1475 H1455 0.950 . S
C1475 C1471 1.374 1_545 S
C1475 C1474 1.374 . S
C1476 C1473 1.499 . S
C1476 C1477 1.373 . S
C1476 C1478 1.389 . S
C1477 H1456 0.950 . S
C1477 C1476 1.373 . S
C1477 C1493 1.377 . S
C1478 C1476 1.389 . S
C1478 C1479 1.525 1_545 S
C1478 C1492 1.377 . S
C1479 C1478 1.525 1_565 S
C1479 C1480 1.398 1_565 S
C1479 C1484 1.361 . S
C1480 H1457 0.950 . S
C1480 C1479 1.398 1_545 S
C1480 C1481 1.334 . S
C1481 H1458 0.950 . S
C1481 C1480 1.334 . S
C1481 C1482 1.276 1_545 S
C1482 C1481 1.276 1_565 S
C1482 C1483 1.533 . S
C1482 H1501 0.917 . S
C1483 H1459 0.950 . S
C1483 C1482 1.533 . S
C1483 C1484 1.415 . S
C1484 H1460 0.950 . S
C1484 C1479 1.361 . S
C1484 C1483 1.415 . S
C1485 H1461 0.951 . S
C1485 C1486 1.366 . S
C1485 C1487 1.388 . S
C1486 C1485 1.366 . S
C1486 C1490 1.385 1_545 S
C1487 H1462 0.951 . S
C1487 C1485 1.388 . S
C1487 C1488 1.366 . S
C1488 C1487 1.366 . S
C1488 C1489 1.414 1_545 S
C1488 C1491 1.499 . S
C1489 H1463 0.950 . S
C1489 C1488 1.414 1_565 S
C1489 C1490 1.374 . S
C1490 H1464 0.950 . S
C1490 C1486 1.385 1_565 S
C1490 C1489 1.374 . S
C1491 C1488 1.499 . S
C1491 C1492 1.373 . S
C1491 C1493 1.389 . S
C1492 H1465 0.962 . S
C1492 C1478 1.377 . S
C1492 C1491 1.373 . S
C1493 C1477 1.377 . S
C1493 C1491 1.389 . S
C1493 C1494 1.524 . S
C1494 C1493 1.524 . S
C1494 C1495 1.362 1_545 S
C1494 C1499 1.363 . S
C1495 H1466 1.001 . S
C1495 C1494 1.362 1_565 S
C1495 C1496 1.321 . S
C1496 H1467 0.952 . S
C1496 C1495 1.321 . S
C1496 C1497 1.284 1_565 S
C1497 C1496 1.284 1_545 S
C1497 C1498 1.524 . S
C1497 H1500 0.999 . S
C1498 H1468 0.950 . S
C1498 C1497 1.524 . S
C1498 C1499 1.415 . S
C1499 H1469 0.950 . S
C1499 C1494 1.363 . S
C1499 C1498 1.415 . S
H1500 C1497 0.999 . S
H1501 C1482 0.917 . S
H1502 C1520 0.951 . S
H1503 C1522 0.951 . S
H1504 C1524 0.950 . S
H1505 C1525 0.950 . S
H1506 C1527 0.950 . S
H1507 C1530 0.950 . S
H1508 C1531 0.950 . S
H1509 C1533 0.950 . S
H1510 C1534 0.950 . S
H1511 C1535 0.951 . S
H1512 C1537 0.951 . S
H1513 C1539 0.950 . S
H1514 C1540 0.950 . S
H1515 C1542 0.950 . S
H1516 C1545 0.950 . S
H1517 C1546 0.950 . S
H1518 C1548 0.950 . S
H1519 C1549 0.950 . S
C1520 H1502 0.951 . S
C1520 C1521 1.366 . S
C1520 C1522 1.388 . S
C1521 C1520 1.366 . S
C1521 C1525 1.385 . S
C1522 H1503 0.951 . S
C1522 C1520 1.388 . S
C1522 C1523 1.366 . S
C1523 C1522 1.366 . S
C1523 C1524 1.414 . S
C1523 C1526 1.499 . S
C1524 H1504 0.950 . S
C1524 C1523 1.414 . S
C1524 C1525 1.374 . S
C1525 H1505 0.950 . S
C1525 C1521 1.385 . S
C1525 C1524 1.374 . S
C1526 C1523 1.499 . S
C1526 C1527 1.373 . S
C1526 C1528 1.389 . S
C1527 H1506 0.950 . S
C1527 C1526 1.373 . S
C1527 C1543 1.377 . S
C1528 C1526 1.389 . S
C1528 C1529 1.524 . S
C1528 C1542 1.377 . S
C1529 C1528 1.524 . S
C1529 C1530 1.397 . S
C1529 C1534 1.363 . S
C1530 H1507 0.950 . S
C1530 C1529 1.397 . S
C1530 C1531 1.334 . S
C1531 H1508 0.950 . S
C1531 C1530 1.334 . S
C1531 C1532 1.287 . S
C1532 C1531 1.287 . S
C1532 C1533 1.524 . S
C1532 H1551 0.913 . S
C1533 H1509 0.950 . S
C1533 C1532 1.524 . S
C1533 C1534 1.415 . S
C1534 H1510 0.950 . S
C1534 C1529 1.363 . S
C1534 C1533 1.415 . S
C1535 H1511 0.951 . S
C1535 C1536 1.366 . S
C1535 C1537 1.388 . S
C1536 C1535 1.366 . S
C1536 C1540 1.385 . S
C1537 H1512 0.951 . S
C1537 C1535 1.388 . S
C1537 C1538 1.366 . S
C1538 C1537 1.366 . S
C1538 C1539 1.414 . S
C1538 C1541 1.499 . S
C1539 H1513 0.950 . S
C1539 C1538 1.414 . S
C1539 C1540 1.374 . S
C1540 H1514 0.950 . S
C1540 C1536 1.385 . S
C1540 C1539 1.374 . S
C1541 C1538 1.499 . S
C1541 C1542 1.373 . S
C1541 C1543 1.389 . S
C1542 H1515 0.950 . S
C1542 C1528 1.377 . S
C1542 C1541 1.373 . S
C1543 C1527 1.377 . S
C1543 C1541 1.389 . S
C1543 C1544 1.524 . S
C1544 C1543 1.524 . S
C1544 C1545 1.397 . S
C1544 C1549 1.363 . S
C1545 H1516 0.950 . S
C1545 C1544 1.397 . S
C1545 C1546 1.334 . S
C1546 H1517 0.950 . S
C1546 C1545 1.334 . S
C1546 C1547 1.287 . S
C1547 C1546 1.287 . S
C1547 C1548 1.524 . S
C1547 H1550 0.999 . S
C1548 H1518 0.950 . S
C1548 C1547 1.524 . S
C1548 C1549 1.415 . S
C1549 H1519 0.950 . S
C1549 C1544 1.363 . S
C1549 C1548 1.415 . S
H1550 C1547 0.999 . S
H1551 C1532 0.913 . S
H1552 C1570 0.938 1_565 S
H1553 C1572 0.940 1_565 S
H1554 C1574 0.950 . S
H1555 C1575 0.950 . S
H1556 C1577 0.950 . S
H1557 C1580 0.950 . S
H1558 C1581 0.950 . S
H1559 C1583 0.950 . S
H1560 C1584 0.950 . S
H1561 C1585 0.951 . S
H1562 C1587 0.951 . S
H1563 C1589 0.930 1_455 S
H1564 C1590 0.950 . S
H1565 C1592 0.950 . S
H1566 C1595 0.950 . S
H1567 C1596 0.950 . S
H1568 C1598 0.950 . S
H1569 C1599 0.950 . S
C1570 H1552 0.938 1_545 S
C1570 C1571 1.386 . S
C1570 C1572 1.384 . S
C1571 C1570 1.386 . S
C1571 C1575 1.385 . S
C1572 H1553 0.940 1_545 S
C1572 C1570 1.384 . S
C1572 C1573 1.366 . S
C1573 C1572 1.366 . S
C1573 C1574 1.414 . S
C1573 C1576 1.499 . S
C1574 H1554 0.950 . S
C1574 C1573 1.414 . S
C1574 C1575 1.374 . S
C1575 H1555 0.950 . S
C1575 C1571 1.385 . S
C1575 C1574 1.374 . S
C1576 C1573 1.499 . S
C1576 C1577 1.373 . S
C1576 C1578 1.389 1_545 S
C1577 H1556 0.950 . S
C1577 C1576 1.373 . S
C1577 C1593 1.377 . S
C1578 C1576 1.389 1_565 S
C1578 C1579 1.524 . S
C1578 C1592 1.377 . S
C1579 C1578 1.524 . S
C1579 C1580 1.397 . S
C1579 C1584 1.363 . S
C1580 H1557 0.950 . S
C1580 C1579 1.397 . S
C1580 C1581 1.334 . S
C1581 H1558 0.950 . S
C1581 C1580 1.334 . S
C1581 C1582 1.287 . S
C1582 C1581 1.287 . S
C1582 C1583 1.524 . S
C1582 H1601 0.913 . S
C1583 H1559 0.950 . S
C1583 C1582 1.524 . S
C1583 C1584 1.415 . S
C1584 H1560 0.950 . S
C1584 C1579 1.363 . S
C1584 C1583 1.415 . S
C1585 H1561 0.951 . S
C1585 C1586 1.366 1_655 S
C1585 C1587 1.388 . S
C1586 C1585 1.366 1_455 S
C1586 C1590 1.385 . S
C1587 H1562 0.951 . S
C1587 C1585 1.388 . S
C1587 C1588 1.366 . S
C1588 C1587 1.366 . S
C1588 C1589 1.455 . S
C1588 C1591 1.499 . S
C1589 H1563 0.930 1_655 S
C1589 C1588 1.455 . S
C1589 C1590 1.354 1_655 S
C1590 H1564 0.950 . S
C1590 C1586 1.385 . S
C1590 C1589 1.354 1_455 S
C1591 C1588 1.499 . S
C1591 C1592 1.373 1_545 S
C1591 C1593 1.389 . S
C1592 H1565 0.950 . S
C1592 C1578 1.377 . S
C1592 C1591 1.373 1_565 S
C1593 C1577 1.377 . S
C1593 C1591 1.389 . S
C1593 C1594 1.524 . S
C1594 C1593 1.524 . S
C1594 C1595 1.397 . S
C1594 C1599 1.363 . S
C1595 H1566 0.950 . S
C1595 C1594 1.397 . S
C1595 C1596 1.334 . S
C1596 H1567 0.950 . S
C1596 C1595 1.334 . S
C1596 C1597 1.287 . S
C1597 C1596 1.287 . S
C1597 C1598 1.524 . S
C1597 H1600 0.999 . S
C1598 H1568 0.950 . S
C1598 C1597 1.524 . S
C1598 C1599 1.415 . S
C1599 H1569 0.950 . S
C1599 C1594 1.363 . S
C1599 C1598 1.415 . S
H1600 C1597 0.999 . S
H1601 C1582 0.913 . S
H1602 C1620 0.951 . S
H1603 C1622 0.951 . S
H1604 C1624 0.950 . S
H1605 C1625 0.950 . S
H1606 C1627 0.950 . S
H1607 C1630 0.950 . S
H1608 C1631 0.950 . S
H1609 C1633 0.950 . S
H1610 C1634 0.950 . S
H1611 C1635 0.951 . S
H1612 C1637 0.951 . S
H1613 C1639 0.950 . S
H1614 C1640 0.950 . S
H1615 C1642 0.950 . S
H1616 C1645 0.950 . S
H1617 C1646 0.950 . S
H1618 C1648 0.950 . S
H1619 C1649 0.950 . S
C1620 H1602 0.951 . S
C1620 C1621 1.366 . S
C1620 C1622 1.388 . S
C1621 C1620 1.366 . S
C1621 C1625 1.385 . S
C1622 H1603 0.951 . S
C1622 C1620 1.388 . S
C1622 C1623 1.366 . S
C1623 C1622 1.366 . S
C1623 C1624 1.414 . S
C1623 C1626 1.499 . S
C1624 H1604 0.950 . S
C1624 C1623 1.414 . S
C1624 C1625 1.374 . S
C1625 H1605 0.950 . S
C1625 C1621 1.385 . S
C1625 C1624 1.374 . S
C1626 C1623 1.499 . S
C1626 C1627 1.373 . S
C1626 C1628 1.389 . S
C1627 H1606 0.950 . S
C1627 C1626 1.373 . S
C1627 C1643 1.377 . S
C1628 C1626 1.389 . S
C1628 C1629 1.524 . S
C1628 C1642 1.377 . S
C1629 C1628 1.524 . S
C1629 C1630 1.397 . S
C1629 C1634 1.363 . S
C1630 H1607 0.950 . S
C1630 C1629 1.397 . S
C1630 C1631 1.334 . S
C1631 H1608 0.950 . S
C1631 C1630 1.334 . S
C1631 C1632 1.287 . S
C1632 C1631 1.287 . S
C1632 C1633 1.524 . S
C1632 H1651 0.913 . S
C1633 H1609 0.950 . S
C1633 C1632 1.524 . S
C1633 C1634 1.415 . S
C1634 H1610 0.950 . S
C1634 C1629 1.363 . S
C1634 C1633 1.415 . S
C1635 H1611 0.951 . S
C1635 C1636 1.366 . S
C1635 C1637 1.388 . S
C1636 C1635 1.366 . S
C1636 C1640 1.385 . S
C1637 H1612 0.951 . S
C1637 C1635 1.388 . S
C1637 C1638 1.366 . S
C1638 C1637 1.366 . S
C1638 C1639 1.414 . S
C1638 C1641 1.499 . S
C1639 H1613 0.950 . S
C1639 C1638 1.414 . S
C1639 C1640 1.374 . S
C1640 H1614 0.950 . S
C1640 C1636 1.385 . S
C1640 C1639 1.374 . S
C1641 C1638 1.499 . S
C1641 C1642 1.373 . S
C1641 C1643 1.389 . S
C1642 H1615 0.950 . S
C1642 C1628 1.377 . S
C1642 C1641 1.373 . S
C1643 C1627 1.377 . S
C1643 C1641 1.389 . S
C1643 C1644 1.524 . S
C1644 C1643 1.524 . S
C1644 C1645 1.397 . S
C1644 C1649 1.363 . S
C1645 H1616 0.950 . S
C1645 C1644 1.397 . S
C1645 C1646 1.334 . S
C1646 H1617 0.950 . S
C1646 C1645 1.334 . S
C1646 C1647 1.287 . S
C1647 C1646 1.287 . S
C1647 C1648 1.524 . S
C1647 H1650 0.999 . S
C1648 H1618 0.950 . S
C1648 C1647 1.524 . S
C1648 C1649 1.415 . S
C1649 H1619 0.950 . S
C1649 C1644 1.363 . S
C1649 C1648 1.415 . S
H1650 C1647 0.999 . S
H1651 C1632 0.913 . S
H1652 C1670 0.951 . S
H1653 C1672 0.951 1_565 S
H1654 C1674 0.950 . S
H1655 C1675 0.950 . S
H1656 C1677 0.950 . S
H1657 C1680 0.950 . S
H1658 C1681 0.950 . S
H1659 C1683 0.950 . S
H1660 C1684 0.950 . S
H1661 C1685 0.951 . S
H1662 C1687 0.951 . S
H1663 C1689 0.950 . S
H1664 C1690 0.950 . S
H1665 C1692 0.950 . S
H1666 C1695 0.950 . S
H1667 C1696 0.950 . S
H1668 C1698 0.950 . S
H1669 C1699 0.950 . S
C1670 H1652 0.951 . S
C1670 C1671 1.366 1_565 S
C1670 C1672 1.388 1_565 S
C1671 C1670 1.366 1_545 S
C1671 C1675 1.385 . S
C1672 H1653 0.951 1_545 S
C1672 C1670 1.388 1_545 S
C1672 C1673 1.366 . S
C1673 C1672 1.366 . S
C1673 C1674 1.414 . S
C1673 C1676 1.499 . S
C1674 H1654 0.950 . S
C1674 C1673 1.414 . S
C1674 C1675 1.374 . S
C1675 H1655 0.950 . S
C1675 C1671 1.385 . S
C1675 C1674 1.374 . S
C1676 C1673 1.499 . S
C1676 C1677 1.373 . S
C1676 C1678 1.389 . S
C1677 H1656 0.950 . S
C1677 C1676 1.373 . S
C1677 C1693 1.377 . S
C1678 C1676 1.389 . S
C1678 C1679 1.524 . S
C1678 C1692 1.377 . S
C1679 C1678 1.524 . S
C1679 C1680 1.397 . S
C1679 C1684 1.363 1_545 S
C1680 H1657 0.950 . S
C1680 C1679 1.397 . S
C1680 C1681 1.334 1_545 S
C1681 H1658 0.950 . S
C1681 C1680 1.334 1_565 S
C1681 C1682 1.287 . S
C1682 C1681 1.287 . S
C1682 C1683 1.524 . S
C1682 H1701 0.913 . S
C1683 H1659 0.950 . S
C1683 C1682 1.524 . S
C1683 C1684 1.415 . S
C1684 H1660 0.950 . S
C1684 C1679 1.363 1_565 S
C1684 C1683 1.415 . S
C1685 H1661 0.951 . S
C1685 C1686 1.366 . S
C1685 C1687 1.388 . S
C1686 C1685 1.366 . S
C1686 C1690 1.385 . S
C1687 H1662 0.951 . S
C1687 C1685 1.388 . S
C1687 C1688 1.366 . S
C1688 C1687 1.366 . S
C1688 C1689 1.414 . S
C1688 C1691 1.499 . S
C1689 H1663 0.950 . S
C1689 C1688 1.414 . S
C1689 C1690 1.374 . S
C1690 H1664 0.950 . S
C1690 C1686 1.385 . S
C1690 C1689 1.374 . S
C1691 C1688 1.499 . S
C1691 C1692 1.373 . S
C1691 C1693 1.389 . S
C1692 H1665 0.950 . S
C1692 C1678 1.377 . S
C1692 C1691 1.373 . S
C1693 C1677 1.377 . S
C1693 C1691 1.389 . S
C1693 C1694 1.524 . S
C1694 C1693 1.524 . S
C1694 C1695 1.397 . S
C1694 C1699 1.363 . S
C1695 H1666 0.950 . S
C1695 C1694 1.397 . S
C1695 C1696 1.334 . S
C1696 H1667 0.950 . S
C1696 C1695 1.334 . S
C1696 C1697 1.287 . S
C1697 C1696 1.287 . S
C1697 C1698 1.524 . S
C1697 H1700 0.999 . S
C1698 H1668 0.950 . S
C1698 C1697 1.524 . S
C1698 C1699 1.415 . S
C1699 H1669 0.950 . S
C1699 C1694 1.363 . S
C1699 C1698 1.415 . S
H1700 C1697 0.999 . S
H1701 C1682 0.913 . S
H1702 C1720 0.951 . S
H1703 C1722 0.951 . S
H1704 C1724 0.950 . S
H1705 C1725 0.950 . S
H1706 C1727 0.950 . S
H1707 C1730 0.950 . S
H1708 C1731 0.950 . S
H1709 C1733 0.950 . S
H1710 C1734 0.950 . S
H1711 C1735 0.951 . S
H1712 C1737 0.951 . S
H1713 C1739 0.950 . S
H1714 C1740 0.950 . S
H1715 C1742 0.950 . S
H1716 C1745 0.950 . S
H1717 C1746 0.950 . S
H1718 C1748 0.950 . S
H1719 C1749 0.950 . S
C1720 H1702 0.951 . S
C1720 C1721 1.366 . S
C1720 C1722 1.388 . S
C1721 C1720 1.366 . S
C1721 C1725 1.385 . S
C1722 H1703 0.951 . S
C1722 C1720 1.388 . S
C1722 C1723 1.366 . S
C1723 C1722 1.366 . S
C1723 C1724 1.414 . S
C1723 C1726 1.499 . S
C1724 H1704 0.950 . S
C1724 C1723 1.414 . S
C1724 C1725 1.374 . S
C1725 H1705 0.950 . S
C1725 C1721 1.385 . S
C1725 C1724 1.374 . S
C1726 C1723 1.499 . S
C1726 C1727 1.373 . S
C1726 C1728 1.389 . S
C1727 H1706 0.950 . S
C1727 C1726 1.373 . S
C1727 C1743 1.377 . S
C1728 C1726 1.389 . S
C1728 C1729 1.524 . S
C1728 C1742 1.377 . S
C1729 C1728 1.524 . S
C1729 C1730 1.397 . S
C1729 C1734 1.363 . S
C1730 H1707 0.950 . S
C1730 C1729 1.397 . S
C1730 C1731 1.334 . S
C1731 H1708 0.950 . S
C1731 C1730 1.334 . S
C1731 C1732 1.287 . S
C1732 C1731 1.287 . S
C1732 C1733 1.524 . S
C1732 H1751 0.913 . S
C1733 H1709 0.950 . S
C1733 C1732 1.524 . S
C1733 C1734 1.415 . S
C1734 H1710 0.950 . S
C1734 C1729 1.363 . S
C1734 C1733 1.415 . S
C1735 H1711 0.951 . S
C1735 C1736 1.366 . S
C1735 C1737 1.388 . S
C1736 C1735 1.366 . S
C1736 C1740 1.385 . S
C1737 H1712 0.951 . S
C1737 C1735 1.388 . S
C1737 C1738 1.366 . S
C1738 C1737 1.366 . S
C1738 C1739 1.414 . S
C1738 C1741 1.499 . S
C1739 H1713 0.950 . S
C1739 C1738 1.414 . S
C1739 C1740 1.374 . S
C1740 H1714 0.950 . S
C1740 C1736 1.385 . S
C1740 C1739 1.374 . S
C1741 C1738 1.499 . S
C1741 C1742 1.373 . S
C1741 C1743 1.389 . S
C1742 H1715 0.950 . S
C1742 C1728 1.377 . S
C1742 C1741 1.373 . S
C1743 C1727 1.377 . S
C1743 C1741 1.389 . S
C1743 C1744 1.524 . S
C1744 C1743 1.524 . S
C1744 C1745 1.397 . S
C1744 C1749 1.363 . S
C1745 H1716 0.950 . S
C1745 C1744 1.397 . S
C1745 C1746 1.334 . S
C1746 H1717 0.950 . S
C1746 C1745 1.334 . S
C1746 C1747 1.287 . S
C1747 C1746 1.287 . S
C1747 C1748 1.524 . S
C1747 H1750 0.999 . S
C1748 H1718 0.950 . S
C1748 C1747 1.524 . S
C1748 C1749 1.415 . S
C1749 H1719 0.950 . S
C1749 C1744 1.363 . S
C1749 C1748 1.415 . S
H1750 C1747 0.999 . S
H1751 C1732 0.913 . S
H1752 C1770 0.951 . S
H1753 C1772 0.951 . S
H1754 C1774 0.950 . S
H1755 C1775 0.950 . S
H1756 C1777 0.950 . S
H1757 C1780 0.950 . S
H1758 C1781 0.925 1_556 S
H1759 C1783 0.950 . S
H1760 C1784 0.950 . S
H1761 C1785 0.951 . S
H1762 C1787 0.951 . S
H1763 C1789 0.950 . S
H1764 C1790 0.950 . S
H1765 C1792 0.950 . S
H1766 C1795 0.950 . S
H1767 C1796 0.950 . S
H1768 C1798 0.950 . S
H1769 C1799 0.950 . S
C1770 H1752 0.951 . S
C1770 C1771 1.366 . S
C1770 C1772 1.388 . S
C1771 C1770 1.366 . S
C1771 C1775 1.385 . S
C1772 H1753 0.951 . S
C1772 C1770 1.388 . S
C1772 C1773 1.366 . S
C1773 C1772 1.366 . S
C1773 C1774 1.414 . S
C1773 C1776 1.499 . S
C1774 H1754 0.950 . S
C1774 C1773 1.414 . S
C1774 C1775 1.374 . S
C1775 H1755 0.950 . S
C1775 C1771 1.385 . S
C1775 C1774 1.374 . S
C1776 C1773 1.499 . S
C1776 C1777 1.373 . S
C1776 C1778 1.389 . S
C1777 H1756 0.950 . S
C1777 C1776 1.373 . S
C1777 C1793 1.377 . S
C1778 C1776 1.389 . S
C1778 C1779 1.524 . S
C1778 C1792 1.377 . S
C1779 C1778 1.524 . S
C1779 C1780 1.397 . S
C1779 C1784 1.363 . S
C1780 H1757 0.950 . S
C1780 C1779 1.397 . S
C1780 C1781 1.334 . S
C1781 H1758 0.925 1_554 S
C1781 C1780 1.334 . S
C1781 C1782 1.287 1_554 S
C1782 C1781 1.287 1_556 S
C1782 C1783 1.524 . S
C1782 H1801 0.913 . S
C1783 H1759 0.950 . S
C1783 C1782 1.524 . S
C1783 C1784 1.415 1_556 S
C1784 H1760 0.950 . S
C1784 C1779 1.363 . S
C1784 C1783 1.415 1_554 S
C1785 H1761 0.951 . S
C1785 C1786 1.366 . S
C1785 C1787 1.388 1_545 S
C1786 C1785 1.366 . S
C1786 C1790 1.374 1_545 S
C1787 H1762 0.951 . S
C1787 C1785 1.388 1_565 S
C1787 C1788 1.366 . S
C1788 C1787 1.366 . S
C1788 C1789 1.414 . S
C1788 C1791 1.499 . S
C1789 H1763 0.950 . S
C1789 C1788 1.414 . S
C1789 C1790 1.374 . S
C1790 H1764 0.950 . S
C1790 C1786 1.374 1_565 S
C1790 C1789 1.374 . S
C1791 C1788 1.499 . S
C1791 C1792 1.373 . S
C1791 C1793 1.389 . S
C1792 H1765 0.950 . S
C1792 C1778 1.377 . S
C1792 C1791 1.373 . S
C1793 C1777 1.377 . S
C1793 C1791 1.389 . S
C1793 C1794 1.524 . S
C1794 C1793 1.524 . S
C1794 C1795 1.397 . S
C1794 C1799 1.363 . S
C1795 H1766 0.950 . S
C1795 C1794 1.397 . S
C1795 C1796 1.334 . S
C1796 H1767 0.950 . S
C1796 C1795 1.334 . S
C1796 C1797 1.287 . S
C1797 C1796 1.287 . S
C1797 C1798 1.524 . S
C1797 H1800 0.999 . S
C1798 H1768 0.950 . S
C1798 C1797 1.524 . S
C1798 C1799 1.415 . S
C1799 H1769 0.950 . S
C1799 C1794 1.363 . S
C1799 C1798 1.415 . S
H1800 C1797 0.999 . S
H1801 C1782 0.913 . S
H1802 C1820 0.951 . S
H1803 C1822 0.951 . S
H1804 C1824 0.950 . S
H1805 C1825 0.950 . S
H1806 C1827 0.950 . S
H1807 C1830 0.950 . S
H1808 C1831 0.950 . S
H1809 C1833 0.950 . S
H1810 C1834 0.950 . S
H1811 C1835 0.951 . S
H1812 C1837 0.951 . S
H1813 C1839 0.950 . S
H1814 C1840 0.950 . S
H1815 C1842 0.950 1_556 S
H1816 C1845 0.950 . S
H1817 C1846 0.950 . S
H1818 C1848 0.950 . S
H1819 C1849 0.950 . S
C1820 H1802 0.951 . S
C1820 C1821 1.366 . S
C1820 C1822 1.388 . S
C1821 C1820 1.366 . S
C1821 C1825 1.385 . S
C1822 H1803 0.951 . S
C1822 C1820 1.388 . S
C1822 C1823 1.366 . S
C1823 C1822 1.366 . S
C1823 C1824 1.414 . S
C1823 C1826 1.499 . S
C1824 H1804 0.950 . S
C1824 C1823 1.414 . S
C1824 C1825 1.374 . S
C1825 H1805 0.950 . S
C1825 C1821 1.385 . S
C1825 C1824 1.374 . S
C1826 C1823 1.499 . S
C1826 C1827 1.373 . S
C1826 C1828 1.391 . S
C1827 H1806 0.950 . S
C1827 C1826 1.373 . S
C1827 C1843 1.377 . S
C1828 C1826 1.391 . S
C1828 C1829 1.522 1_554 S
C1828 C1842 1.377 . S
C1829 C1828 1.522 1_556 S
C1829 C1830 1.397 . S
C1829 C1834 1.363 . S
C1830 H1807 0.950 . S
C1830 C1829 1.397 . S
C1830 C1831 1.334 . S
C1831 H1808 0.950 . S
C1831 C1830 1.334 . S
C1831 C1832 1.287 . S
C1832 C1831 1.287 . S
C1832 C1833 1.524 . S
C1832 H1851 0.913 . S
C1833 H1809 0.950 . S
C1833 C1832 1.524 . S
C1833 C1834 1.415 . S
C1834 H1810 0.950 . S
C1834 C1829 1.363 . S
C1834 C1833 1.415 . S
C1835 H1811 0.951 . S
C1835 C1836 1.366 . S
C1835 C1837 1.388 . S
C1836 C1835 1.366 . S
C1836 C1840 1.385 . S
C1837 H1812 0.951 . S
C1837 C1835 1.388 . S
C1837 C1838 1.366 . S
C1838 C1837 1.366 . S
C1838 C1839 1.414 . S
C1838 C1841 1.499 . S
C1839 H1813 0.950 . S
C1839 C1838 1.414 . S
C1839 C1840 1.374 . S
C1840 H1814 0.950 . S
C1840 C1836 1.385 . S
C1840 C1839 1.374 . S
C1841 C1838 1.499 . S
C1841 C1842 1.373 . S
C1841 C1843 1.389 . S
C1842 H1815 0.950 1_554 S
C1842 C1828 1.377 . S
C1842 C1841 1.373 . S
C1843 C1827 1.377 . S
C1843 C1841 1.389 . S
C1843 C1844 1.524 . S
C1844 C1843 1.524 . S
C1844 C1845 1.397 . S
C1844 C1849 1.363 . S
C1845 H1816 0.950 . S
C1845 C1844 1.397 . S
C1845 C1846 1.334 . S
C1846 H1817 0.950 . S
C1846 C1845 1.334 . S
C1846 C1847 1.287 . S
C1847 C1846 1.287 . S
C1847 C1848 1.524 . S
C1847 H1850 0.999 . S
C1848 H1818 0.950 . S
C1848 C1847 1.524 . S
C1848 C1849 1.415 . S
C1849 H1819 0.950 . S
C1849 C1844 1.363 . S
C1849 C1848 1.415 . S
H1850 C1847 0.999 . S
H1851 C1832 0.913 . S
H1852 C1870 0.951 . S
H1853 C1872 0.951 . S
H1854 C1874 0.950 . S
H1855 C1875 0.950 . S
H1856 C1877 0.950 . S
H1857 C1880 0.950 . S
H1858 C1881 0.950 . S
H1859 C1883 0.950 . S
H1860 C1884 0.950 . S
H1861 C1885 0.951 . S
H1862 C1887 0.951 . S
H1863 C1889 0.950 . S
H1864 C1890 0.950 . S
H1865 C1892 0.950 . S
H1866 C1895 0.950 . S
H1867 C1896 0.950 . S
H1868 C1898 0.950 . S
H1869 C1899 0.950 . S
C1870 H1852 0.951 . S
C1870 C1871 1.366 . S
C1870 C1872 1.388 . S
C1871 C1870 1.366 . S
C1871 C1875 1.385 . S
C1872 H1853 0.951 . S
C1872 C1870 1.388 . S
C1872 C1873 1.366 . S
C1873 C1872 1.366 . S
C1873 C1874 1.414 . S
C1873 C1876 1.499 . S
C1874 H1854 0.950 . S
C1874 C1873 1.414 . S
C1874 C1875 1.374 . S
C1875 H1855 0.950 . S
C1875 C1871 1.385 . S
C1875 C1874 1.374 . S
C1876 C1873 1.499 . S
C1876 C1877 1.373 . S
C1876 C1878 1.389 . S
C1877 H1856 0.950 . S
C1877 C1876 1.373 . S
C1877 C1893 1.377 . S
C1878 C1876 1.389 . S
C1878 C1879 1.524 . S
C1878 C1892 1.377 . S
C1879 C1878 1.524 . S
C1879 C1880 1.397 . S
C1879 C1884 1.363 . S
C1880 H1857 0.950 . S
C1880 C1879 1.397 . S
C1880 C1881 1.334 . S
C1881 H1858 0.950 . S
C1881 C1880 1.334 . S
C1881 C1882 1.287 . S
C1882 C1881 1.287 . S
C1882 C1883 1.524 . S
C1882 H1901 0.913 . S
C1883 H1859 0.950 . S
C1883 C1882 1.524 . S
C1883 C1884 1.415 . S
C1884 H1860 0.950 . S
C1884 C1879 1.363 . S
C1884 C1883 1.415 . S
C1885 H1861 0.951 . S
C1885 C1886 1.366 . S
C1885 C1887 1.388 . S
C1886 C1885 1.366 . S
C1886 C1890 1.385 . S
C1887 H1862 0.951 . S
C1887 C1885 1.388 . S
C1887 C1888 1.366 . S
C1888 C1887 1.366 . S
C1888 C1889 1.414 . S
C1888 C1891 1.499 . S
C1889 H1863 0.950 . S
C1889 C1888 1.414 . S
C1889 C1890 1.374 . S
C1890 H1864 0.950 . S
C1890 C1886 1.385 . S
C1890 C1889 1.374 . S
C1891 C1888 1.499 . S
C1891 C1892 1.373 . S
C1891 C1893 1.389 . S
C1892 H1865 0.950 . S
C1892 C1878 1.377 . S
C1892 C1891 1.373 . S
C1893 C1877 1.377 . S
C1893 C1891 1.389 . S
C1893 C1894 1.524 . S
C1894 C1893 1.524 . S
C1894 C1895 1.397 . S
C1894 C1899 1.363 . S
C1895 H1866 0.950 . S
C1895 C1894 1.397 . S
C1895 C1896 1.334 . S
C1896 H1867 0.950 . S
C1896 C1895 1.334 . S
C1896 C1897 1.287 . S
C1897 C1896 1.287 . S
C1897 C1898 1.524 . S
C1897 H1900 0.999 . S
C1898 H1868 0.950 . S
C1898 C1897 1.524 . S
C1898 C1899 1.415 . S
C1899 H1869 0.950 . S
C1899 C1894 1.363 . S
C1899 C1898 1.415 . S
H1900 C1897 0.999 . S
H1901 C1882 0.913 . S
H1902 C1920 0.951 . S
H1903 C1922 0.951 . S
H1904 C1924 0.950 . S
H1905 C1925 0.950 . S
H1906 C1927 0.950 . S
H1907 C1930 0.950 . S
H1908 C1931 0.950 . S
H1909 C1933 0.950 . S
H1910 C1934 0.950 . S
H1911 C1935 0.951 . S
H1912 C1937 0.951 . S
H1913 C1939 0.950 . S
H1914 C1940 0.950 . S
H1915 C1942 0.950 . S
H1916 C1945 0.950 . S
H1917 C1946 0.950 . S
H1918 C1948 0.950 . S
H1919 C1949 0.950 . S
C1920 H1902 0.951 . S
C1920 C1921 1.366 . S
C1920 C1922 1.388 . S
C1921 C1920 1.366 . S
C1921 C1925 1.385 . S
C1922 H1903 0.951 . S
C1922 C1920 1.388 . S
C1922 C1923 1.366 . S
C1923 C1922 1.366 . S
C1923 C1924 1.414 . S
C1923 C1926 1.499 . S
C1924 H1904 0.950 . S
C1924 C1923 1.414 . S
C1924 C1925 1.374 . S
C1925 H1905 0.950 . S
C1925 C1921 1.385 . S
C1925 C1924 1.374 . S
C1926 C1923 1.499 . S
C1926 C1927 1.373 . S
C1926 C1928 1.389 . S
C1927 H1906 0.950 . S
C1927 C1926 1.373 . S
C1927 C1943 1.377 . S
C1928 C1926 1.389 . S
C1928 C1929 1.524 . S
C1928 C1942 1.377 . S
C1929 C1928 1.524 . S
C1929 C1930 1.397 . S
C1929 C1934 1.363 . S
C1930 H1907 0.950 . S
C1930 C1929 1.397 . S
C1930 C1931 1.334 . S
C1931 H1908 0.950 . S
C1931 C1930 1.334 . S
C1931 C1932 1.287 . S
C1932 C1931 1.287 . S
C1932 C1933 1.524 . S
C1932 H1951 0.913 . S
C1933 H1909 0.950 . S
C1933 C1932 1.524 . S
C1933 C1934 1.415 . S
C1934 H1910 0.950 . S
C1934 C1929 1.363 . S
C1934 C1933 1.415 . S
C1935 H1911 0.951 . S
C1935 C1936 1.366 . S
C1935 C1937 1.388 . S
C1936 C1935 1.366 . S
C1936 C1940 1.385 . S
C1937 H1912 0.951 . S
C1937 C1935 1.388 . S
C1937 C1938 1.366 . S
C1938 C1937 1.366 . S
C1938 C1939 1.414 . S
C1938 C1941 1.499 . S
C1939 H1913 0.950 . S
C1939 C1938 1.414 . S
C1939 C1940 1.374 . S
C1940 H1914 0.950 . S
C1940 C1936 1.385 . S
C1940 C1939 1.374 . S
C1941 C1938 1.499 . S
C1941 C1942 1.373 . S
C1941 C1943 1.389 . S
C1942 H1915 0.950 . S
C1942 C1928 1.377 . S
C1942 C1941 1.373 . S
C1943 C1927 1.377 . S
C1943 C1941 1.389 . S
C1943 C1944 1.524 . S
C1944 C1943 1.524 . S
C1944 C1945 1.397 . S
C1944 C1949 1.363 . S
C1945 H1916 0.950 . S
C1945 C1944 1.397 . S
C1945 C1946 1.334 . S
C1946 H1917 0.950 . S
C1946 C1945 1.334 . S
C1946 C1947 1.287 . S
C1947 C1946 1.287 . S
C1947 C1948 1.524 . S
C1947 H1950 0.999 . S
C1948 H1918 0.950 . S
C1948 C1947 1.524 . S
C1948 C1949 1.415 . S
C1949 H1919 0.950 . S
C1949 C1944 1.363 . S
C1949 C1948 1.415 . S
H1950 C1947 0.999 . S
H1951 C1932 0.913 . S
H1952 C1970 0.951 . S
H1953 C1972 0.951 . S
H1954 C1974 0.950 . S
H1955 C1975 0.950 . S
H1956 C1977 0.950 . S
H1957 C1980 0.950 . S
H1958 C1981 0.950 . S
H1959 C1983 0.950 . S
H1960 C1984 0.950 . S
H1961 C1985 0.951 . S
H1962 C1987 0.951 . S
H1963 C1989 0.950 . S
H1964 C1990 0.950 . S
H1965 C1992 0.950 . S
H1966 C1995 0.950 . S
H1967 C1996 0.950 . S
H1968 C1998 0.950 . S
H1969 C1999 0.950 . S
C1970 H1952 0.951 . S
C1970 C1971 1.366 . S
C1970 C1972 1.388 . S
C1971 C1970 1.366 . S
C1971 C1975 1.385 . S
C1972 H1953 0.951 . S
C1972 C1970 1.388 . S
C1972 C1973 1.366 . S
C1973 C1972 1.366 . S
C1973 C1974 1.414 . S
C1973 C1976 1.499 . S
C1974 H1954 0.950 . S
C1974 C1973 1.414 . S
C1974 C1975 1.374 . S
C1975 H1955 0.950 . S
C1975 C1971 1.385 . S
C1975 C1974 1.374 . S
C1976 C1973 1.499 . S
C1976 C1977 1.373 . S
C1976 C1978 1.389 . S
C1977 H1956 0.950 . S
C1977 C1976 1.373 . S
C1977 C1993 1.377 . S
C1978 C1976 1.389 . S
C1978 C1979 1.524 . S
C1978 C1992 1.377 . S
C1979 C1978 1.524 . S
C1979 C1980 1.397 . S
C1979 C1984 1.363 . S
C1980 H1957 0.950 . S
C1980 C1979 1.397 . S
C1980 C1981 1.334 . S
C1981 H1958 0.950 . S
C1981 C1980 1.334 . S
C1981 C1982 1.287 . S
C1982 C1981 1.287 . S
C1982 C1983 1.524 . S
C1982 H2001 0.913 . S
C1983 H1959 0.950 . S
C1983 C1982 1.524 . S
C1983 C1984 1.415 . S
C1984 H1960 0.950 . S
C1984 C1979 1.363 . S
C1984 C1983 1.415 . S
C1985 H1961 0.951 . S
C1985 C1986 1.366 . S
C1985 C1987 1.388 . S
C1986 C1985 1.366 . S
C1986 C1990 1.385 . S
C1987 H1962 0.951 . S
C1987 C1985 1.388 . S
C1987 C1988 1.366 . S
C1988 C1987 1.366 . S
C1988 C1989 1.414 . S
C1988 C1991 1.499 . S
C1989 H1963 0.950 . S
C1989 C1988 1.414 . S
C1989 C1990 1.374 . S
C1990 H1964 0.950 . S
C1990 C1986 1.385 . S
C1990 C1989 1.374 . S
C1991 C1988 1.499 . S
C1991 C1992 1.373 . S
C1991 C1993 1.389 . S
C1992 H1965 0.950 . S
C1992 C1978 1.377 . S
C1992 C1991 1.373 . S
C1993 C1977 1.377 . S
C1993 C1991 1.389 . S
C1993 C1994 1.524 . S
C1994 C1993 1.524 . S
C1994 C1995 1.397 . S
C1994 C1999 1.363 . S
C1995 H1966 0.950 . S
C1995 C1994 1.397 . S
C1995 C1996 1.334 . S
C1996 H1967 0.950 . S
C1996 C1995 1.334 . S
C1996 C1997 1.287 . S
C1997 C1996 1.287 . S
C1997 C1998 1.524 . S
C1997 H2000 0.999 . S
C1998 H1968 0.950 . S
C1998 C1997 1.524 . S
C1998 C1999 1.415 . S
C1999 H1969 0.950 . S
C1999 C1994 1.363 . S
C1999 C1998 1.415 . S
H2000 C1997 0.999 . S
H2001 C1982 0.913 . S
H2002 C2020 0.951 . S
H2003 C2022 0.951 . S
H2004 C2024 0.950 . S
H2005 C2025 0.950 . S
H2006 C2027 0.950 . S
H2007 C2030 0.950 . S
H2008 C2031 0.950 . S
H2009 C2033 0.950 . S
H2010 C2034 0.950 . S
H2011 C2035 0.951 . S
H2012 C2037 0.951 . S
H2013 C2039 0.950 . S
H2014 C2040 0.950 . S
H2015 C2042 0.950 . S
H2016 C2045 0.950 . S
H2017 C2046 0.950 . S
H2018 C2048 0.950 . S
H2019 C2049 0.950 . S
C2020 H2002 0.951 . S
C2020 C2021 1.366 . S
C2020 C2022 1.388 . S
C2021 C2020 1.366 . S
C2021 C2025 1.385 . S
C2022 H2003 0.951 . S
C2022 C2020 1.388 . S
C2022 C2023 1.366 . S
C2023 C2022 1.366 . S
C2023 C2024 1.414 . S
C2023 C2026 1.499 . S
C2024 H2004 0.950 . S
C2024 C2023 1.414 . S
C2024 C2025 1.374 . S
C2025 H2005 0.950 . S
C2025 C2021 1.385 . S
C2025 C2024 1.374 . S
C2026 C2023 1.499 . S
C2026 C2027 1.373 . S
C2026 C2028 1.389 . S
C2027 H2006 0.950 . S
C2027 C2026 1.373 . S
C2027 C2043 1.377 . S
C2028 C2026 1.389 . S
C2028 C2029 1.524 . S
C2028 C2042 1.377 . S
C2029 C2028 1.524 . S
C2029 C2030 1.397 . S
C2029 C2034 1.363 . S
C2030 H2007 0.950 . S
C2030 C2029 1.397 . S
C2030 C2031 1.334 . S
C2031 H2008 0.950 . S
C2031 C2030 1.334 . S
C2031 C2032 1.287 . S
C2032 C2031 1.287 . S
C2032 C2033 1.524 . S
C2032 H2051 0.913 . S
C2033 H2009 0.950 . S
C2033 C2032 1.524 . S
C2033 C2034 1.415 . S
C2034 H2010 0.950 . S
C2034 C2029 1.363 . S
C2034 C2033 1.415 . S
C2035 H2011 0.951 . S
C2035 C2036 1.366 . S
C2035 C2037 1.388 . S
C2036 C2035 1.366 . S
C2036 C2040 1.385 . S
C2037 H2012 0.951 . S
C2037 C2035 1.388 . S
C2037 C2038 1.366 . S
C2038 C2037 1.366 . S
C2038 C2039 1.414 . S
C2038 C2041 1.499 . S
C2039 H2013 0.950 . S
C2039 C2038 1.414 . S
C2039 C2040 1.374 . S
C2040 H2014 0.950 . S
C2040 C2036 1.385 . S
C2040 C2039 1.374 . S
C2041 C2038 1.499 . S
C2041 C2042 1.373 . S
C2041 C2043 1.389 . S
C2042 H2015 0.950 . S
C2042 C2028 1.377 . S
C2042 C2041 1.373 . S
C2043 C2027 1.377 . S
C2043 C2041 1.389 . S
C2043 C2044 1.524 . S
C2044 C2043 1.524 . S
C2044 C2045 1.397 . S
C2044 C2049 1.363 . S
C2045 H2016 0.950 . S
C2045 C2044 1.397 . S
C2045 C2046 1.334 . S
C2046 H2017 0.950 . S
C2046 C2045 1.334 . S
C2046 C2047 1.287 . S
C2047 C2046 1.287 . S
C2047 C2048 1.524 . S
C2047 H2050 0.999 . S
C2048 H2018 0.950 . S
C2048 C2047 1.524 . S
C2048 C2049 1.415 . S
C2049 H2019 0.950 . S
C2049 C2044 1.363 . S
C2049 C2048 1.415 . S
H2050 C2047 0.999 . S
H2051 C2032 0.913 . S
H2052 C2070 0.951 . S
H2053 C2072 0.951 . S
H2054 C2074 0.950 . S
H2055 C2075 0.950 . S
H2056 C2077 0.950 . S
H2057 C2080 0.950 . S
H2058 C2081 0.950 . S
H2059 C2083 0.950 . S
H2060 C2084 0.950 . S
H2061 C2085 0.951 . S
H2062 C2087 0.951 . S
H2063 C2089 0.950 . S
H2064 C2090 0.950 . S
H2065 C2092 0.950 . S
H2066 C2095 0.950 . S
H2067 C2096 0.950 . S
H2068 C2098 0.950 . S
H2069 C2099 0.950 . S
C2070 H2052 0.951 . S
C2070 C2071 1.366 . S
C2070 C2072 1.388 . S
C2071 C2070 1.366 . S
C2071 C2075 1.385 . S
C2072 H2053 0.951 . S
C2072 C2070 1.388 . S
C2072 C2073 1.366 . S
C2073 C2072 1.366 . S
C2073 C2074 1.414 . S
C2073 C2076 1.499 . S
C2074 H2054 0.950 . S
C2074 C2073 1.414 . S
C2074 C2075 1.374 . S
C2075 H2055 0.950 . S
C2075 C2071 1.385 . S
C2075 C2074 1.374 . S
C2076 C2073 1.499 . S
C2076 C2077 1.373 . S
C2076 C2078 1.389 . S
C2077 H2056 0.950 . S
C2077 C2076 1.373 . S
C2077 C2093 1.377 . S
C2078 C2076 1.389 . S
C2078 C2079 1.524 . S
C2078 C2092 1.377 . S
C2079 C2078 1.524 . S
C2079 C2080 1.397 . S
C2079 C2084 1.363 . S
C2080 H2057 0.950 . S
C2080 C2079 1.397 . S
C2080 C2081 1.334 . S
C2081 H2058 0.950 . S
C2081 C2080 1.334 . S
C2081 C2082 1.287 . S
C2082 C2081 1.287 . S
C2082 C2083 1.524 . S
C2082 H2101 0.913 . S
C2083 H2059 0.950 . S
C2083 C2082 1.524 . S
C2083 C2084 1.415 . S
C2084 H2060 0.950 . S
C2084 C2079 1.363 . S
C2084 C2083 1.415 . S
C2085 H2061 0.951 . S
C2085 C2086 1.366 . S
C2085 C2087 1.388 . S
C2086 C2085 1.366 . S
C2086 C2090 1.385 . S
C2087 H2062 0.951 . S
C2087 C2085 1.388 . S
C2087 C2088 1.366 . S
C2088 C2087 1.366 . S
C2088 C2089 1.414 . S
C2088 C2091 1.499 . S
C2089 H2063 0.950 . S
C2089 C2088 1.414 . S
C2089 C2090 1.374 . S
C2090 H2064 0.950 . S
C2090 C2086 1.385 . S
C2090 C2089 1.374 . S
C2091 C2088 1.499 . S
C2091 C2092 1.373 . S
C2091 C2093 1.389 . S
C2092 H2065 0.950 . S
C2092 C2078 1.377 . S
C2092 C2091 1.373 . S
C2093 C2077 1.377 . S
C2093 C2091 1.389 . S
C2093 C2094 1.524 . S
C2094 C2093 1.524 . S
C2094 C2095 1.397 . S
C2094 C2099 1.363 . S
C2095 H2066 0.950 . S
C2095 C2094 1.397 . S
C2095 C2096 1.334 . S
C2096 H2067 0.950 . S
C2096 C2095 1.334 . S
C2096 C2097 1.287 . S
C2097 C2096 1.287 . S
C2097 C2098 1.524 . S
C2097 H2100 0.999 . S
C2098 H2068 0.950 . S
C2098 C2097 1.524 . S
C2098 C2099 1.415 . S
C2099 H2069 0.950 . S
C2099 C2094 1.363 . S
C2099 C2098 1.415 . S
H2100 C2097 0.999 . S
H2101 C2082 0.913 . S
H2102 C2120 0.951 . S
H2103 C2122 0.951 . S
H2104 C2124 0.950 . S
H2105 C2125 0.950 . S
H2106 C2127 0.950 . S
H2107 C2130 0.950 . S
H2108 C2131 0.950 . S
H2109 C2133 0.950 . S
H2110 C2134 0.950 . S
H2111 C2135 0.951 . S
H2112 C2137 0.951 . S
H2113 C2139 0.950 . S
H2114 C2140 0.950 . S
H2115 C2142 0.950 . S
H2116 C2145 0.950 . S
H2117 C2146 0.950 . S
H2118 C2148 0.950 . S
H2119 C2149 0.950 . S
C2120 H2102 0.951 . S
C2120 C2121 1.366 . S
C2120 C2122 1.388 . S
C2121 C2120 1.366 . S
C2121 C2125 1.385 . S
C2122 H2103 0.951 . S
C2122 C2120 1.388 . S
C2122 C2123 1.366 . S
C2123 C2122 1.366 . S
C2123 C2124 1.414 . S
C2123 C2126 1.499 . S
C2124 H2104 0.950 . S
C2124 C2123 1.414 . S
C2124 C2125 1.374 . S
C2125 H2105 0.950 . S
C2125 C2121 1.385 . S
C2125 C2124 1.374 . S
C2126 C2123 1.499 . S
C2126 C2127 1.373 . S
C2126 C2128 1.389 . S
C2127 H2106 0.950 . S
C2127 C2126 1.373 . S
C2127 C2143 1.377 . S
C2128 C2126 1.389 . S
C2128 C2129 1.524 . S
C2128 C2142 1.377 . S
C2129 C2128 1.524 . S
C2129 C2130 1.397 . S
C2129 C2134 1.363 . S
C2130 H2107 0.950 . S
C2130 C2129 1.397 . S
C2130 C2131 1.334 . S
C2131 H2108 0.950 . S
C2131 C2130 1.334 . S
C2131 C2132 1.287 . S
C2132 C2131 1.287 . S
C2132 C2133 1.524 . S
C2132 H2151 0.913 . S
C2133 H2109 0.950 . S
C2133 C2132 1.524 . S
C2133 C2134 1.415 . S
C2134 H2110 0.950 . S
C2134 C2129 1.363 . S
C2134 C2133 1.415 . S
C2135 H2111 0.951 . S
C2135 C2136 1.366 . S
C2135 C2137 1.388 . S
C2136 C2135 1.366 . S
C2136 C2140 1.385 . S
C2137 H2112 0.951 . S
C2137 C2135 1.388 . S
C2137 C2138 1.366 . S
C2138 C2137 1.366 . S
C2138 C2139 1.414 . S
C2138 C2141 1.499 . S
C2139 H2113 0.950 . S
C2139 C2138 1.414 . S
C2139 C2140 1.374 . S
C2140 H2114 0.950 . S
C2140 C2136 1.385 . S
C2140 C2139 1.374 . S
C2141 C2138 1.499 . S
C2141 C2142 1.373 . S
C2141 C2143 1.389 . S
C2142 H2115 0.950 . S
C2142 C2128 1.377 . S
C2142 C2141 1.373 . S
C2143 C2127 1.377 . S
C2143 C2141 1.389 . S
C2143 C2144 1.524 . S
C2144 C2143 1.524 . S
C2144 C2145 1.397 . S
C2144 C2149 1.363 . S
C2145 H2116 0.950 . S
C2145 C2144 1.397 . S
C2145 C2146 1.334 . S
C2146 H2117 0.950 . S
C2146 C2145 1.334 . S
C2146 C2147 1.287 . S
C2147 C2146 1.287 . S
C2147 C2148 1.524 . S
C2147 H2150 0.999 . S
C2148 H2118 0.950 . S
C2148 C2147 1.524 . S
C2148 C2149 1.415 . S
C2149 H2119 0.950 . S
C2149 C2144 1.363 . S
C2149 C2148 1.415 . S
H2150 C2147 0.999 . S
H2151 C2132 0.913 . S
H2152 C2170 0.951 . S
H2153 C2172 0.951 . S
H2154 C2174 0.950 . S
H2155 C2175 0.950 . S
H2156 C2177 0.950 . S
H2157 C2180 0.950 . S
H2158 C2181 0.950 . S
H2159 C2183 0.950 . S
H2160 C2184 0.950 . S
H2161 C2185 0.951 . S
H2162 C2187 0.951 . S
H2163 C2189 0.950 . S
H2164 C2190 0.950 1_545 S
H2165 C2192 0.950 . S
H2166 C2195 0.950 . S
H2167 C2196 0.950 . S
H2168 C2198 0.950 . S
H2169 C2199 0.950 . S
C2170 H2152 0.951 . S
C2170 C2171 1.366 . S
C2170 C2172 1.388 . S
C2171 C2170 1.366 . S
C2171 C2175 1.385 . S
C2172 H2153 0.951 . S
C2172 C2170 1.388 . S
C2172 C2173 1.366 . S
C2173 C2172 1.366 . S
C2173 C2174 1.414 . S
C2173 C2176 1.499 . S
C2174 H2154 0.950 . S
C2174 C2173 1.414 . S
C2174 C2175 1.374 . S
C2175 H2155 0.950 . S
C2175 C2171 1.385 . S
C2175 C2174 1.374 . S
C2176 C2173 1.499 . S
C2176 C2177 1.373 . S
C2176 C2178 1.389 . S
C2177 H2156 0.950 . S
C2177 C2176 1.373 . S
C2177 C2193 1.377 . S
C2178 C2176 1.389 . S
C2178 C2179 1.524 . S
C2178 C2192 1.377 . S
C2179 C2178 1.524 . S
C2179 C2180 1.397 . S
C2179 C2184 1.363 . S
C2180 H2157 0.950 . S
C2180 C2179 1.397 . S
C2180 C2181 1.334 . S
C2181 H2158 0.950 . S
C2181 C2180 1.334 . S
C2181 C2182 1.287 . S
C2182 C2181 1.287 . S
C2182 C2183 1.524 . S
C2182 H2201 0.913 . S
C2183 H2159 0.950 . S
C2183 C2182 1.524 . S
C2183 C2184 1.415 . S
C2184 H2160 0.950 . S
C2184 C2179 1.363 . S
C2184 C2183 1.415 . S
C2185 H2161 0.951 . S
C2185 C2186 1.366 . S
C2185 C2187 1.388 . S
C2186 C2185 1.366 . S
C2186 C2190 1.385 . S
C2187 H2162 0.951 . S
C2187 C2185 1.388 . S
C2187 C2188 1.366 . S
C2188 C2187 1.366 . S
C2188 C2189 1.414 . S
C2188 C2191 1.499 . S
C2189 H2163 0.950 . S
C2189 C2188 1.414 . S
C2189 C2190 1.374 . S
C2190 H2164 0.950 1_565 S
C2190 C2186 1.385 . S
C2190 C2189 1.374 . S
C2191 C2188 1.499 . S
C2191 C2192 1.373 . S
C2191 C2193 1.389 . S
C2192 H2165 0.950 . S
C2192 C2178 1.377 . S
C2192 C2191 1.373 . S
C2193 C2177 1.377 . S
C2193 C2191 1.389 . S
C2193 C2194 1.524 . S
C2194 C2193 1.524 . S
C2194 C2195 1.397 . S
C2194 C2199 1.363 . S
C2195 H2166 0.950 . S
C2195 C2194 1.397 . S
C2195 C2196 1.334 . S
C2196 H2167 0.950 . S
C2196 C2195 1.334 . S
C2196 C2197 1.287 . S
C2197 C2196 1.287 . S
C2197 C2198 1.524 . S
C2197 H2200 0.999 . S
C2198 H2168 0.950 . S
C2198 C2197 1.524 . S
C2198 C2199 1.415 . S
C2199 H2169 0.950 . S
C2199 C2194 1.363 . S
C2199 C2198 1.415 . S
H2200 C2197 0.999 . S
H2201 C2182 0.913 . S
H2202 C2220 0.951 . S
H2203 C2222 0.951 . S
H2204 C2224 0.950 . S
H2205 C2225 0.950 . S
H2206 C2227 0.950 . S
H2207 C2230 0.950 . S
H2208 C2231 0.950 . S
H2209 C2233 0.950 . S
H2210 C2234 0.950 . S
H2211 C2235 0.951 . S
H2212 C2237 0.951 . S
H2213 C2239 0.950 . S
H2214 C2240 0.950 . S
H2215 C2242 0.950 . S
H2216 C2245 0.950 . S
H2217 C2246 0.950 . S
H2218 C2248 0.950 . S
H2219 C2249 0.950 . S
C2220 H2202 0.951 . S
C2220 C2221 1.366 . S
C2220 C2222 1.388 . S
C2221 C2220 1.366 . S
C2221 C2225 1.385 . S
C2222 H2203 0.951 . S
C2222 C2220 1.388 . S
C2222 C2223 1.366 . S
C2223 C2222 1.366 . S
C2223 C2224 1.414 . S
C2223 C2226 1.499 . S
C2224 H2204 0.950 . S
C2224 C2223 1.414 . S
C2224 C2225 1.374 . S
C2225 H2205 0.950 . S
C2225 C2221 1.385 . S
C2225 C2224 1.374 . S
C2226 C2223 1.499 . S
C2226 C2227 1.373 . S
C2226 C2228 1.389 . S
C2227 H2206 0.950 . S
C2227 C2226 1.373 . S
C2227 C2243 1.377 . S
C2228 C2226 1.389 . S
C2228 C2229 1.524 . S
C2228 C2242 1.377 . S
C2229 C2228 1.524 . S
C2229 C2230 1.397 . S
C2229 C2234 1.363 . S
C2230 H2207 0.950 . S
C2230 C2229 1.397 . S
C2230 C2231 1.334 . S
C2231 H2208 0.950 . S
C2231 C2230 1.334 . S
C2231 C2232 1.287 . S
C2232 C2231 1.287 . S
C2232 C2233 1.524 . S
C2232 H2251 0.913 . S
C2233 H2209 0.950 . S
C2233 C2232 1.524 . S
C2233 C2234 1.415 . S
C2234 H2210 0.950 . S
C2234 C2229 1.363 . S
C2234 C2233 1.415 . S
C2235 H2211 0.951 . S
C2235 C2236 1.366 . S
C2235 C2237 1.388 . S
C2236 C2235 1.366 . S
C2236 C2240 1.385 . S
C2237 H2212 0.951 . S
C2237 C2235 1.388 . S
C2237 C2238 1.366 . S
C2238 C2237 1.366 . S
C2238 C2239 1.414 . S
C2238 C2241 1.499 . S
C2239 H2213 0.950 . S
C2239 C2238 1.414 . S
C2239 C2240 1.374 . S
C2240 H2214 0.950 . S
C2240 C2236 1.385 . S
C2240 C2239 1.374 . S
C2241 C2238 1.499 . S
C2241 C2242 1.373 . S
C2241 C2243 1.389 . S
C2242 H2215 0.950 . S
C2242 C2228 1.377 . S
C2242 C2241 1.373 . S
C2243 C2227 1.377 . S
C2243 C2241 1.389 . S
C2243 C2244 1.524 . S
C2244 C2243 1.524 . S
C2244 C2245 1.397 . S
C2244 C2249 1.363 . S
C2245 H2216 0.950 . S
C2245 C2244 1.397 . S
C2245 C2246 1.334 . S
C2246 H2217 0.950 . S
C2246 C2245 1.334 . S
C2246 C2247 1.287 . S
C2247 C2246 1.287 . S
C2247 C2248 1.524 . S
C2247 H2250 0.999 . S
C2248 H2218 0.950 . S
C2248 C2247 1.524 . S
C2248 C2249 1.415 . S
C2249 H2219 0.950 . S
C2249 C2244 1.363 . S
C2249 C2248 1.415 . S
H2250 C2247 0.999 . S
H2251 C2232 0.913 . S
H2252 C2270 0.951 . S
H2253 C2272 0.951 . S
H2254 C2274 0.950 . S
H2255 C2275 0.950 . S
H2256 C2277 0.950 . S
H2257 C2280 0.950 . S
H2258 C2281 0.950 . S
H2259 C2283 0.950 . S
H2260 C2284 0.950 . S
H2261 C2285 0.951 . S
H2262 C2287 0.951 . S
H2263 C2289 0.950 . S
H2264 C2290 0.950 . S
H2265 C2292 0.950 . S
H2266 C2295 0.950 . S
H2267 C2296 0.950 . S
H2268 C2298 0.950 . S
H2269 C2299 0.950 . S
C2270 H2252 0.951 . S
C2270 C2271 1.366 . S
C2270 C2272 1.388 . S
C2271 C2270 1.366 . S
C2271 C2275 1.385 . S
C2272 H2253 0.951 . S
C2272 C2270 1.388 . S
C2272 C2273 1.366 . S
C2273 C2272 1.366 . S
C2273 C2274 1.414 . S
C2273 C2276 1.499 . S
C2274 H2254 0.950 . S
C2274 C2273 1.414 . S
C2274 C2275 1.374 . S
C2275 H2255 0.950 . S
C2275 C2271 1.385 . S
C2275 C2274 1.374 . S
C2276 C2273 1.499 . S
C2276 C2277 1.373 . S
C2276 C2278 1.389 . S
C2277 H2256 0.950 . S
C2277 C2276 1.373 . S
C2277 C2293 1.377 . S
C2278 C2276 1.389 . S
C2278 C2279 1.524 . S
C2278 C2292 1.377 . S
C2279 C2278 1.524 . S
C2279 C2280 1.397 . S
C2279 C2284 1.363 . S
C2280 H2257 0.950 . S
C2280 C2279 1.397 . S
C2280 C2281 1.334 . S
C2281 H2258 0.950 . S
C2281 C2280 1.334 . S
C2281 C2282 1.287 . S
C2282 C2281 1.287 . S
C2282 C2283 1.524 . S
C2282 H2301 0.913 . S
C2283 H2259 0.950 . S
C2283 C2282 1.524 . S
C2283 C2284 1.415 . S
C2284 H2260 0.950 . S
C2284 C2279 1.363 . S
C2284 C2283 1.415 . S
C2285 H2261 0.951 . S
C2285 C2286 1.366 . S
C2285 C2287 1.388 . S
C2286 C2285 1.366 . S
C2286 C2290 1.385 . S
C2287 H2262 0.951 . S
C2287 C2285 1.388 . S
C2287 C2288 1.366 . S
C2288 C2287 1.366 . S
C2288 C2289 1.414 . S
C2288 C2291 1.499 . S
C2289 H2263 0.950 . S
C2289 C2288 1.414 . S
C2289 C2290 1.374 . S
C2290 H2264 0.950 . S
C2290 C2286 1.385 . S
C2290 C2289 1.374 . S
C2291 C2288 1.499 . S
C2291 C2292 1.373 . S
C2291 C2293 1.389 . S
C2292 H2265 0.950 . S
C2292 C2278 1.377 . S
C2292 C2291 1.373 . S
C2293 C2277 1.377 . S
C2293 C2291 1.389 . S
C2293 C2294 1.524 . S
C2294 C2293 1.524 . S
C2294 C2295 1.397 . S
C2294 C2299 1.363 . S
C2295 H2266 0.950 . S
C2295 C2294 1.397 . S
C2295 C2296 1.334 . S
C2296 H2267 0.950 . S
C2296 C2295 1.334 . S
C2296 C2297 1.287 . S
C2297 C2296 1.287 . S
C2297 C2298 1.524 . S
C2297 H2300 0.999 . S
C2298 H2268 0.950 . S
C2298 C2297 1.524 . S
C2298 C2299 1.415 . S
C2299 H2269 0.950 . S
C2299 C2294 1.363 . S
C2299 C2298 1.415 . S
H2300 C2297 0.999 . S
H2301 C2282 0.913 . S
H2302 C2320 0.951 . S
H2303 C2322 0.951 . S
H2304 C2324 0.950 . S
H2305 C2325 0.950 . S
H2306 C2327 0.950 . S
H2307 C2330 0.950 . S
H2308 C2331 0.950 . S
H2309 C2333 0.950 . S
H2310 C2334 0.950 . S
H2311 C2335 0.951 . S
H2312 C2337 0.951 . S
H2313 C2339 0.950 . S
H2314 C2340 0.950 . S
H2315 C2342 0.950 . S
H2316 C2345 0.950 . S
H2317 C2346 0.950 . S
H2318 C2348 0.950 . S
H2319 C2349 0.950 . S
C2320 H2302 0.951 . S
C2320 C2321 1.366 . S
C2320 C2322 1.388 . S
C2321 C2320 1.366 . S
C2321 C2325 1.385 . S
C2322 H2303 0.951 . S
C2322 C2320 1.388 . S
C2322 C2323 1.366 . S
C2323 C2322 1.366 . S
C2323 C2324 1.414 . S
C2323 C2326 1.499 . S
C2324 H2304 0.950 . S
C2324 C2323 1.414 . S
C2324 C2325 1.374 . S
C2325 H2305 0.950 . S
C2325 C2321 1.385 . S
C2325 C2324 1.374 . S
C2326 C2323 1.499 . S
C2326 C2327 1.373 . S
C2326 C2328 1.389 . S
C2327 H2306 0.950 . S
C2327 C2326 1.373 . S
C2327 C2343 1.377 . S
C2328 C2326 1.389 . S
C2328 C2329 1.524 . S
C2328 C2342 1.377 . S
C2329 C2328 1.524 . S
C2329 C2330 1.397 . S
C2329 C2334 1.363 . S
C2330 H2307 0.950 . S
C2330 C2329 1.397 . S
C2330 C2331 1.334 . S
C2331 H2308 0.950 . S
C2331 C2330 1.334 . S
C2331 C2332 1.287 . S
C2332 C2331 1.287 . S
C2332 C2333 1.524 . S
C2332 H2351 0.913 . S
C2333 H2309 0.950 . S
C2333 C2332 1.524 . S
C2333 C2334 1.415 . S
C2334 H2310 0.950 . S
C2334 C2329 1.363 . S
C2334 C2333 1.415 . S
C2335 H2311 0.951 . S
C2335 C2336 1.366 . S
C2335 C2337 1.388 . S
C2336 C2335 1.366 . S
C2336 C2340 1.385 . S
C2337 H2312 0.951 . S
C2337 C2335 1.388 . S
C2337 C2338 1.366 . S
C2338 C2337 1.366 . S
C2338 C2339 1.414 . S
C2338 C2341 1.499 . S
C2339 H2313 0.950 . S
C2339 C2338 1.414 . S
C2339 C2340 1.374 . S
C2340 H2314 0.950 . S
C2340 C2336 1.385 . S
C2340 C2339 1.374 . S
C2341 C2338 1.499 . S
C2341 C2342 1.373 . S
C2341 C2343 1.389 . S
C2342 H2315 0.950 . S
C2342 C2328 1.377 . S
C2342 C2341 1.373 . S
C2343 C2327 1.377 . S
C2343 C2341 1.389 . S
C2343 C2344 1.524 . S
C2344 C2343 1.524 . S
C2344 C2345 1.397 . S
C2344 C2349 1.363 . S
C2345 H2316 0.950 . S
C2345 C2344 1.397 . S
C2345 C2346 1.334 . S
C2346 H2317 0.950 . S
C2346 C2345 1.334 . S
C2346 C2347 1.287 . S
C2347 C2346 1.287 . S
C2347 C2348 1.524 . S
C2347 H2350 0.999 . S
C2348 H2318 0.950 . S
C2348 C2347 1.524 . S
C2348 C2349 1.415 . S
C2349 H2319 0.950 . S
C2349 C2344 1.363 . S
C2349 C2348 1.415 . S
H2350 C2347 0.999 . S
H2351 C2332 0.913 . S
H2352 C2370 0.951 . S
H2353 C2372 0.951 . S
H2354 C2374 0.950 . S
H2355 C2375 0.950 . S
H2356 C2377 0.950 . S
H2357 C2380 0.950 . S
H2358 C2381 0.950 . S
H2359 C2383 0.950 . S
H2360 C2384 0.950 . S
H2361 C2385 0.951 . S
H2362 C2387 0.951 . S
H2363 C2389 0.950 . S
H2364 C2390 0.950 . S
H2365 C2392 0.950 . S
H2366 C2395 0.950 1_455 S
H2367 C2396 0.950 . S
H2368 C2398 0.950 . S
H2369 C2399 0.950 . S
C2370 H2352 0.951 . S
C2370 C2371 1.366 . S
C2370 C2372 1.388 . S
C2371 C2370 1.366 . S
C2371 C2375 1.385 . S
C2372 H2353 0.951 . S
C2372 C2370 1.388 . S
C2372 C2373 1.366 . S
C2373 C2372 1.366 . S
C2373 C2374 1.414 . S
C2373 C2376 1.499 . S
C2374 H2354 0.950 . S
C2374 C2373 1.414 . S
C2374 C2375 1.374 . S
C2375 H2355 0.950 . S
C2375 C2371 1.385 . S
C2375 C2374 1.374 . S
C2376 C2373 1.499 . S
C2376 C2377 1.373 . S
C2376 C2378 1.389 . S
C2377 H2356 0.950 . S
C2377 C2376 1.373 . S
C2377 C2393 1.377 . S
C2378 C2376 1.389 . S
C2378 C2379 1.524 . S
C2378 C2392 1.377 . S
C2379 C2378 1.524 . S
C2379 C2380 1.397 . S
C2379 C2384 1.363 . S
C2380 H2357 0.950 . S
C2380 C2379 1.397 . S
C2380 C2381 1.334 . S
C2381 H2358 0.950 . S
C2381 C2380 1.334 . S
C2381 C2382 1.287 . S
C2382 C2381 1.287 . S
C2382 C2383 1.524 . S
C2382 H2401 0.913 . S
C2383 H2359 0.950 . S
C2383 C2382 1.524 . S
C2383 C2384 1.415 . S
C2384 H2360 0.950 . S
C2384 C2379 1.363 . S
C2384 C2383 1.415 . S
C2385 H2361 0.951 . S
C2385 C2386 1.366 . S
C2385 C2387 1.388 . S
C2386 C2385 1.366 . S
C2386 C2390 1.385 . S
C2387 H2362 0.951 . S
C2387 C2385 1.388 . S
C2387 C2388 1.366 . S
C2388 C2387 1.366 . S
C2388 C2389 1.414 . S
C2388 C2391 1.499 . S
C2389 H2363 0.950 . S
C2389 C2388 1.414 . S
C2389 C2390 1.374 . S
C2390 H2364 0.950 . S
C2390 C2386 1.385 . S
C2390 C2389 1.374 . S
C2391 C2388 1.499 . S
C2391 C2392 1.373 . S
C2391 C2393 1.389 . S
C2392 H2365 0.950 . S
C2392 C2378 1.377 . S
C2392 C2391 1.373 . S
C2393 C2377 1.377 . S
C2393 C2391 1.389 . S
C2393 C2394 1.524 1_455 S
C2394 C2393 1.524 1_655 S
C2394 C2395 1.397 . S
C2394 C2399 1.363 . S
C2395 H2366 0.950 1_655 S
C2395 C2394 1.397 . S
C2395 C2396 1.334 . S
C2396 H2367 0.950 . S
C2396 C2395 1.334 . S
C2396 C2397 1.287 . S
C2397 C2396 1.287 . S
C2397 C2398 1.524 . S
C2397 H2400 0.999 . S
C2398 H2368 0.950 . S
C2398 C2397 1.524 . S
C2398 C2399 1.415 . S
C2399 H2369 0.950 . S
C2399 C2394 1.363 . S
C2399 C2398 1.415 . S
H2400 C2397 0.999 . S
H2401 C2382 0.913 . S
H2402 C2420 0.951 . S
H2403 C2422 0.951 . S
H2404 C2424 0.950 . S
H2405 C2425 0.950 . S
H2406 C2427 0.950 . S
H2407 C2430 0.950 . S
H2408 C2431 0.950 . S
H2409 C2433 0.950 . S
H2410 C2434 0.950 . S
H2411 C2435 0.951 . S
H2412 C2437 0.951 . S
H2413 C2439 0.950 . S
H2414 C2440 0.950 . S
H2415 C2442 0.950 . S
H2416 C2445 0.950 . S
H2417 C2446 0.950 . S
H2418 C2448 0.950 . S
H2419 C2449 0.950 . S
C2420 H2402 0.951 . S
C2420 C2421 1.366 . S
C2420 C2422 1.388 . S
C2421 C2420 1.366 . S
C2421 C2425 1.385 . S
C2422 H2403 0.951 . S
C2422 C2420 1.388 . S
C2422 C2423 1.366 . S
C2423 C2422 1.366 . S
C2423 C2424 1.414 . S
C2423 C2426 1.499 . S
C2424 H2404 0.950 . S
C2424 C2423 1.414 . S
C2424 C2425 1.374 . S
C2425 H2405 0.950 . S
C2425 C2421 1.385 . S
C2425 C2424 1.374 . S
C2426 C2423 1.499 . S
C2426 C2427 1.373 . S
C2426 C2428 1.389 . S
C2427 H2406 0.950 . S
C2427 C2426 1.373 . S
C2427 C2443 1.377 . S
C2428 C2426 1.389 . S
C2428 C2429 1.524 . S
C2428 C2442 1.377 . S
C2429 C2428 1.524 . S
C2429 C2430 1.397 . S
C2429 C2434 1.363 . S
C2430 H2407 0.950 . S
C2430 C2429 1.397 . S
C2430 C2431 1.334 . S
C2431 H2408 0.950 . S
C2431 C2430 1.334 . S
C2431 C2432 1.287 . S
C2432 C2431 1.287 . S
C2432 C2433 1.524 . S
C2432 H2451 0.913 . S
C2433 H2409 0.950 . S
C2433 C2432 1.524 . S
C2433 C2434 1.415 . S
C2434 H2410 0.950 . S
C2434 C2429 1.363 . S
C2434 C2433 1.415 . S
C2435 H2411 0.951 . S
C2435 C2436 1.366 . S
C2435 C2437 1.388 . S
C2436 C2435 1.366 . S
C2436 C2440 1.385 . S
C2437 H2412 0.951 . S
C2437 C2435 1.388 . S
C2437 C2438 1.366 . S
C2438 C2437 1.366 . S
C2438 C2439 1.414 . S
C2438 C2441 1.499 . S
C2439 H2413 0.950 . S
C2439 C2438 1.414 . S
C2439 C2440 1.374 . S
C2440 H2414 0.950 . S
C2440 C2436 1.385 . S
C2440 C2439 1.374 . S
C2441 C2438 1.499 . S
C2441 C2442 1.373 . S
C2441 C2443 1.389 . S
C2442 H2415 0.950 . S
C2442 C2428 1.377 . S
C2442 C2441 1.373 . S
C2443 C2427 1.377 . S
C2443 C2441 1.389 . S
C2443 C2444 1.524 . S
C2444 C2443 1.524 . S
C2444 C2445 1.397 . S
C2444 C2449 1.363 . S
C2445 H2416 0.950 . S
C2445 C2444 1.397 . S
C2445 C2446 1.334 . S
C2446 H2417 0.950 . S
C2446 C2445 1.334 . S
C2446 C2447 1.287 . S
C2447 C2446 1.287 . S
C2447 C2448 1.524 . S
C2447 H2450 0.999 . S
C2448 H2418 0.950 . S
C2448 C2447 1.524 . S
C2448 C2449 1.415 . S
C2449 H2419 0.950 . S
C2449 C2444 1.363 . S
C2449 C2448 1.415 . S
H2450 C2447 0.999 . S
H2451 C2432 0.913 . S
H2452 C2470 0.951 . S
H2453 C2472 0.951 . S
H2454 C2474 0.950 . S
H2455 C2475 0.950 . S
H2456 C2477 0.950 . S
H2457 C2480 0.950 . S
H2458 C2481 0.950 . S
H2459 C2483 0.950 1_554 S
H2460 C2484 0.950 . S
H2461 C2485 0.951 . S
H2462 C2487 0.951 . S
H2463 C2489 0.950 . S
H2464 C2490 0.950 1_554 S
H2465 C2492 0.950 . S
H2466 C2495 0.950 . S
H2467 C2496 0.950 . S
H2468 C2498 0.950 . S
H2469 C2499 0.950 . S
C2470 H2452 0.951 . S
C2470 C2471 1.366 . S
C2470 C2472 1.388 . S
C2471 C2470 1.366 . S
C2471 C2475 1.385 . S
C2472 H2453 0.951 . S
C2472 C2470 1.388 . S
C2472 C2473 1.366 . S
C2473 C2472 1.366 . S
C2473 C2474 1.414 . S
C2473 C2476 1.499 . S
C2474 H2454 0.950 . S
C2474 C2473 1.414 . S
C2474 C2475 1.374 . S
C2475 H2455 0.950 . S
C2475 C2471 1.385 . S
C2475 C2474 1.374 . S
C2476 C2473 1.499 . S
C2476 C2477 1.373 . S
C2476 C2478 1.389 . S
C2477 H2456 0.950 . S
C2477 C2476 1.373 . S
C2477 C2493 1.377 . S
C2478 C2476 1.389 . S
C2478 C2479 1.524 . S
C2478 C2492 1.377 . S
C2479 C2478 1.524 . S
C2479 C2480 1.397 . S
C2479 C2484 1.363 . S
C2480 H2457 0.950 . S
C2480 C2479 1.397 . S
C2480 C2481 1.334 . S
C2481 H2458 0.950 . S
C2481 C2480 1.334 . S
C2481 C2482 1.287 . S
C2482 C2481 1.287 . S
C2482 C2483 1.524 . S
C2482 H2501 0.913 . S
C2483 H2459 0.950 1_556 S
C2483 C2482 1.524 . S
C2483 C2484 1.415 . S
C2484 H2460 0.950 . S
C2484 C2479 1.363 . S
C2484 C2483 1.415 . S
C2485 H2461 0.951 . S
C2485 C2486 1.366 . S
C2485 C2487 1.388 . S
C2486 C2485 1.366 . S
C2486 C2490 1.385 . S
C2487 H2462 0.951 . S
C2487 C2485 1.388 . S
C2487 C2488 1.366 . S
C2488 C2487 1.366 . S
C2488 C2489 1.414 . S
C2488 C2491 1.499 . S
C2489 H2463 0.950 . S
C2489 C2488 1.414 . S
C2489 C2490 1.374 . S
C2490 H2464 0.950 1_556 S
C2490 C2486 1.385 . S
C2490 C2489 1.374 . S
C2491 C2488 1.499 . S
C2491 C2492 1.373 . S
C2491 C2493 1.389 . S
C2492 H2465 0.950 . S
C2492 C2478 1.377 . S
C2492 C2491 1.373 . S
C2493 C2477 1.377 . S
C2493 C2491 1.389 . S
C2493 C2494 1.524 . S
C2494 C2493 1.524 . S
C2494 C2495 1.397 . S
C2494 C2499 1.363 . S
C2495 H2466 0.950 . S
C2495 C2494 1.397 . S
C2495 C2496 1.334 . S
C2496 H2467 0.950 . S
C2496 C2495 1.334 . S
C2496 C2497 1.287 . S
C2497 C2496 1.287 . S
C2497 C2498 1.524 . S
C2497 H2500 0.999 . S
C2498 H2468 0.950 . S
C2498 C2497 1.524 . S
C2498 C2499 1.415 . S
C2499 H2469 0.950 . S
C2499 C2494 1.363 . S
C2499 C2498 1.415 . S
H2500 C2497 0.999 . S
H2501 C2482 0.913 . S
H2502 C2520 0.951 . S
H2503 C2522 0.951 . S
H2504 C2524 0.950 . S
H2505 C2525 0.950 . S
H2506 C2527 0.950 . S
H2507 C2530 0.950 . S
H2508 C2531 0.950 . S
H2509 C2533 0.950 . S
H2510 C2534 0.950 . S
H2511 C2535 0.951 . S
H2512 C2537 0.951 . S
H2513 C2539 0.950 . S
H2514 C2540 0.950 . S
H2515 C2542 0.950 . S
H2516 C2545 0.950 . S
H2517 C2546 0.950 . S
H2518 C2548 0.950 . S
H2519 C2549 0.950 . S
C2520 H2502 0.951 . S
C2520 C2521 1.366 . S
C2520 C2522 1.388 . S
C2521 C2520 1.366 . S
C2521 C2525 1.385 . S
C2522 H2503 0.951 . S
C2522 C2520 1.388 . S
C2522 C2523 1.366 . S
C2523 C2522 1.366 . S
C2523 C2524 1.414 . S
C2523 C2526 1.499 . S
C2524 H2504 0.950 . S
C2524 C2523 1.414 . S
C2524 C2525 1.374 . S
C2525 H2505 0.950 . S
C2525 C2521 1.385 . S
C2525 C2524 1.374 . S
C2526 C2523 1.499 . S
C2526 C2527 1.373 . S
C2526 C2528 1.389 . S
C2527 H2506 0.950 . S
C2527 C2526 1.373 . S
C2527 C2543 1.377 . S
C2528 C2526 1.389 . S
C2528 C2529 1.524 . S
C2528 C2542 1.377 . S
C2529 C2528 1.524 . S
C2529 C2530 1.397 . S
C2529 C2534 1.363 . S
C2530 H2507 0.950 . S
C2530 C2529 1.397 . S
C2530 C2531 1.334 . S
C2531 H2508 0.950 . S
C2531 C2530 1.334 . S
C2531 C2532 1.287 . S
C2532 C2531 1.287 . S
C2532 C2533 1.524 . S
C2532 H2551 0.913 . S
C2533 H2509 0.950 . S
C2533 C2532 1.524 . S
C2533 C2534 1.415 . S
C2534 H2510 0.950 . S
C2534 C2529 1.363 . S
C2534 C2533 1.415 . S
C2535 H2511 0.951 . S
C2535 C2536 1.366 . S
C2535 C2537 1.388 . S
C2536 C2535 1.366 . S
C2536 C2540 1.385 . S
C2537 H2512 0.951 . S
C2537 C2535 1.388 . S
C2537 C2538 1.366 . S
C2538 C2537 1.366 . S
C2538 C2539 1.414 . S
C2538 C2541 1.499 . S
C2539 H2513 0.950 . S
C2539 C2538 1.414 . S
C2539 C2540 1.374 . S
C2540 H2514 0.950 . S
C2540 C2536 1.385 . S
C2540 C2539 1.374 . S
C2541 C2538 1.499 . S
C2541 C2542 1.373 . S
C2541 C2543 1.389 . S
C2542 H2515 0.950 . S
C2542 C2528 1.377 . S
C2542 C2541 1.373 . S
C2543 C2527 1.377 . S
C2543 C2541 1.389 . S
C2543 C2544 1.524 . S
C2544 C2543 1.524 . S
C2544 C2545 1.397 . S
C2544 C2549 1.363 . S
C2545 H2516 0.950 . S
C2545 C2544 1.397 . S
C2545 C2546 1.334 . S
C2546 H2517 0.950 . S
C2546 C2545 1.334 . S
C2546 C2547 1.287 . S
C2547 C2546 1.287 . S
C2547 C2548 1.524 . S
C2547 H2550 0.999 . S
C2548 H2518 0.950 . S
C2548 C2547 1.524 . S
C2548 C2549 1.415 . S
C2549 H2519 0.950 . S
C2549 C2544 1.363 . S
C2549 C2548 1.415 . S
H2550 C2547 0.999 . S
H2551 C2532 0.913 . S
H2552 C2570 0.951 . S
H2553 C2572 0.951 . S
H2554 C2574 0.950 . S
H2555 C2575 0.950 . S
H2556 C2577 0.950 . S
H2557 C2580 0.950 . S
H2558 C2581 0.950 . S
H2559 C2583 0.950 . S
H2560 C2584 0.950 . S
H2561 C2585 0.951 . S
H2562 C2587 0.951 . S
H2563 C2589 0.950 . S
H2564 C2590 0.950 1_554 S
H2565 C2592 0.950 . S
H2566 C2595 0.950 . S
H2567 C2596 0.950 . S
H2568 C2598 0.950 . S
H2569 C2599 0.950 . S
C2570 H2552 0.951 . S
C2570 C2571 1.366 . S
C2570 C2572 1.388 . S
C2571 C2570 1.366 . S
C2571 C2575 1.385 . S
C2572 H2553 0.951 . S
C2572 C2570 1.388 . S
C2572 C2573 1.366 . S
C2573 C2572 1.366 . S
C2573 C2574 1.414 . S
C2573 C2576 1.499 . S
C2574 H2554 0.950 . S
C2574 C2573 1.414 . S
C2574 C2575 1.374 . S
C2575 H2555 0.950 . S
C2575 C2571 1.385 . S
C2575 C2574 1.374 . S
C2576 C2573 1.499 . S
C2576 C2577 1.373 . S
C2576 C2578 1.389 . S
C2577 H2556 0.950 . S
C2577 C2576 1.373 . S
C2577 C2593 1.377 . S
C2578 C2576 1.389 . S
C2578 C2579 1.524 . S
C2578 C2592 1.377 . S
C2579 C2578 1.524 . S
C2579 C2580 1.397 . S
C2579 C2584 1.363 . S
C2580 H2557 0.950 . S
C2580 C2579 1.397 . S
C2580 C2581 1.334 1_545 S
C2581 H2558 0.950 . S
C2581 C2580 1.334 1_565 S
C2581 C2582 1.287 . S
C2582 C2581 1.287 . S
C2582 C2583 1.524 . S
C2582 H2601 0.913 . S
C2583 H2559 0.950 . S
C2583 C2582 1.524 . S
C2583 C2584 1.415 1_565 S
C2584 H2560 0.950 . S
C2584 C2579 1.363 . S
C2584 C2583 1.415 1_545 S
C2585 H2561 0.951 . S
C2585 C2586 1.366 . S
C2585 C2587 1.388 . S
C2586 C2585 1.366 . S
C2586 C2590 1.385 . S
C2587 H2562 0.951 . S
C2587 C2585 1.388 . S
C2587 C2588 1.366 . S
C2588 C2587 1.366 . S
C2588 C2589 1.414 . S
C2588 C2591 1.499 . S
C2589 H2563 0.950 . S
C2589 C2588 1.414 . S
C2589 C2590 1.374 . S
C2590 H2564 0.950 1_556 S
C2590 C2586 1.385 . S
C2590 C2589 1.374 . S
C2591 C2588 1.499 . S
C2591 C2592 1.373 . S
C2591 C2593 1.389 . S
C2592 H2565 0.950 . S
C2592 C2578 1.377 . S
C2592 C2591 1.373 . S
C2593 C2577 1.377 . S
C2593 C2591 1.389 . S
C2593 C2594 1.524 . S
C2594 C2593 1.524 . S
C2594 C2595 1.397 . S
C2594 C2599 1.363 . S
C2595 H2566 0.950 . S
C2595 C2594 1.397 . S
C2595 C2596 1.334 . S
C2596 H2567 0.950 . S
C2596 C2595 1.334 . S
C2596 C2597 1.287 . S
C2597 C2596 1.287 . S
C2597 C2598 1.524 . S
C2597 H2600 0.999 . S
C2598 H2568 0.950 . S
C2598 C2597 1.524 . S
C2598 C2599 1.415 . S
C2599 H2569 0.950 . S
C2599 C2594 1.363 . S
C2599 C2598 1.415 . S
H2600 C2597 0.999 . S
H2601 C2582 0.913 . S
H2602 C2620 0.951 . S
H2603 C2622 0.951 . S
H2604 C2624 0.950 . S
H2605 C2625 0.950 . S
H2606 C2627 0.950 . S
H2607 C2630 0.950 . S
H2608 C2631 0.950 . S
H2609 C2633 0.950 . S
H2610 C2634 0.950 . S
H2611 C2635 0.951 . S
H2612 C2637 0.951 . S
H2613 C2639 0.950 . S
H2614 C2640 0.950 . S
H2615 C2642 0.950 . S
H2616 C2645 0.950 . S
H2617 C2646 0.950 . S
H2618 C2648 0.950 . S
H2619 C2649 0.950 . S
C2620 H2602 0.951 . S
C2620 C2621 1.366 . S
C2620 C2622 1.388 . S
C2621 C2620 1.366 . S
C2621 C2625 1.385 . S
C2622 H2603 0.951 . S
C2622 C2620 1.388 . S
C2622 C2623 1.366 . S
C2623 C2622 1.366 . S
C2623 C2624 1.414 . S
C2623 C2626 1.499 . S
C2624 H2604 0.950 . S
C2624 C2623 1.414 . S
C2624 C2625 1.374 . S
C2625 H2605 0.950 . S
C2625 C2621 1.385 . S
C2625 C2624 1.374 . S
C2626 C2623 1.499 . S
C2626 C2627 1.373 . S
C2626 C2628 1.389 . S
C2627 H2606 0.950 . S
C2627 C2626 1.373 . S
C2627 C2643 1.377 . S
C2628 C2626 1.389 . S
C2628 C2629 1.524 . S
C2628 C2642 1.377 . S
C2629 C2628 1.524 . S
C2629 C2630 1.397 . S
C2629 C2634 1.363 . S
C2630 H2607 0.950 . S
C2630 C2629 1.397 . S
C2630 C2631 1.334 . S
C2631 H2608 0.950 . S
C2631 C2630 1.334 . S
C2631 C2632 1.287 . S
C2632 C2631 1.287 . S
C2632 C2633 1.524 . S
C2632 H2651 0.913 . S
C2633 H2609 0.950 . S
C2633 C2632 1.524 . S
C2633 C2634 1.415 . S
C2634 H2610 0.950 . S
C2634 C2629 1.363 . S
C2634 C2633 1.415 . S
C2635 H2611 0.951 . S
C2635 C2636 1.366 . S
C2635 C2637 1.388 . S
C2636 C2635 1.366 . S
C2636 C2640 1.385 . S
C2637 H2612 0.951 . S
C2637 C2635 1.388 . S
C2637 C2638 1.366 . S
C2638 C2637 1.366 . S
C2638 C2639 1.414 . S
C2638 C2641 1.499 . S
C2639 H2613 0.950 . S
C2639 C2638 1.414 . S
C2639 C2640 1.374 . S
C2640 H2614 0.950 . S
C2640 C2636 1.385 . S
C2640 C2639 1.374 . S
C2641 C2638 1.499 . S
C2641 C2642 1.373 . S
C2641 C2643 1.389 . S
C2642 H2615 0.950 . S
C2642 C2628 1.377 . S
C2642 C2641 1.373 . S
C2643 C2627 1.377 . S
C2643 C2641 1.389 . S
C2643 C2644 1.524 . S
C2644 C2643 1.524 . S
C2644 C2645 1.397 . S
C2644 C2649 1.363 . S
C2645 H2616 0.950 . S
C2645 C2644 1.397 . S
C2645 C2646 1.334 . S
C2646 H2617 0.950 . S
C2646 C2645 1.334 . S
C2646 C2647 1.287 . S
C2647 C2646 1.287 . S
C2647 C2648 1.524 . S
C2647 H2650 0.999 . S
C2648 H2618 0.950 . S
C2648 C2647 1.524 . S
C2648 C2649 1.415 . S
C2649 H2619 0.950 . S
C2649 C2644 1.363 . S
C2649 C2648 1.415 . S
H2650 C2647 0.999 . S
H2651 C2632 0.913 . S
H2652 C2670 0.951 . S
H2653 C2672 0.951 . S
H2654 C2674 0.950 . S
H2655 C2675 0.950 . S
H2656 C2677 0.950 . S
H2657 C2680 0.950 . S
H2658 C2681 0.950 . S
H2659 C2683 0.950 . S
H2660 C2684 0.950 . S
H2661 C2685 0.951 . S
H2662 C2687 0.951 . S
H2663 C2689 0.950 . S
H2664 C2690 0.950 . S
H2665 C2692 0.950 . S
H2666 C2695 0.950 . S
H2667 C2696 0.950 . S
H2668 C2698 0.950 . S
H2669 C2699 0.950 . S
C2670 H2652 0.951 . S
C2670 C2671 1.366 . S
C2670 C2672 1.388 . S
C2671 C2670 1.366 . S
C2671 C2675 1.385 . S
C2672 H2653 0.951 . S
C2672 C2670 1.388 . S
C2672 C2673 1.366 . S
C2673 C2672 1.366 . S
C2673 C2674 1.414 . S
C2673 C2676 1.499 . S
C2674 H2654 0.950 . S
C2674 C2673 1.414 . S
C2674 C2675 1.374 . S
C2675 H2655 0.950 . S
C2675 C2671 1.385 . S
C2675 C2674 1.374 . S
C2676 C2673 1.499 . S
C2676 C2677 1.373 . S
C2676 C2678 1.389 . S
C2677 H2656 0.950 . S
C2677 C2676 1.373 . S
C2677 C2693 1.377 . S
C2678 C2676 1.389 . S
C2678 C2679 1.524 . S
C2678 C2692 1.377 . S
C2679 C2678 1.524 . S
C2679 C2680 1.397 . S
C2679 C2684 1.363 . S
C2680 H2657 0.950 . S
C2680 C2679 1.397 . S
C2680 C2681 1.334 . S
C2681 H2658 0.950 . S
C2681 C2680 1.334 . S
C2681 C2682 1.287 . S
C2682 C2681 1.287 . S
C2682 C2683 1.524 . S
C2682 H2701 0.913 . S
C2683 H2659 0.950 . S
C2683 C2682 1.524 . S
C2683 C2684 1.415 . S
C2684 H2660 0.950 . S
C2684 C2679 1.363 . S
C2684 C2683 1.415 . S
C2685 H2661 0.951 . S
C2685 C2686 1.366 . S
C2685 C2687 1.388 . S
C2686 C2685 1.366 . S
C2686 C2690 1.385 . S
C2687 H2662 0.951 . S
C2687 C2685 1.388 . S
C2687 C2688 1.366 . S
C2688 C2687 1.366 . S
C2688 C2689 1.414 . S
C2688 C2691 1.499 . S
C2689 H2663 0.950 . S
C2689 C2688 1.414 . S
C2689 C2690 1.374 . S
C2690 H2664 0.950 . S
C2690 C2686 1.385 . S
C2690 C2689 1.374 . S
C2691 C2688 1.499 . S
C2691 C2692 1.373 . S
C2691 C2693 1.389 . S
C2692 H2665 0.950 . S
C2692 C2678 1.377 . S
C2692 C2691 1.373 . S
C2693 C2677 1.377 . S
C2693 C2691 1.389 . S
C2693 C2694 1.524 1_545 S
C2694 C2693 1.524 1_565 S
C2694 C2695 1.397 . S
C2694 C2699 1.363 . S
C2695 H2666 0.950 . S
C2695 C2694 1.397 . S
C2695 C2696 1.334 . S
C2696 H2667 0.950 . S
C2696 C2695 1.334 . S
C2696 C2697 1.287 . S
C2697 C2696 1.287 . S
C2697 C2698 1.524 . S
C2697 H2700 0.999 . S
C2698 H2668 0.950 . S
C2698 C2697 1.524 . S
C2698 C2699 1.415 . S
C2699 H2669 0.950 . S
C2699 C2694 1.363 . S
C2699 C2698 1.415 . S
H2700 C2697 0.999 . S
H2701 C2682 0.913 . S
H2702 C2720 0.951 . S
H2703 C2722 0.951 . S
H2704 C2724 0.950 . S
H2705 C2725 0.950 . S
H2706 C2727 0.950 . S
H2707 C2730 0.950 . S
H2708 C2731 0.950 . S
H2709 C2733 0.950 . S
H2710 C2734 0.950 . S
H2711 C2735 0.951 . S
H2712 C2737 0.951 . S
H2713 C2739 0.950 . S
H2714 C2740 0.950 . S
H2715 C2742 0.950 . S
H2716 C2745 0.950 . S
H2717 C2746 0.950 . S
H2718 C2748 0.950 . S
H2719 C2749 0.950 . S
C2720 H2702 0.951 . S
C2720 C2721 1.366 . S
C2720 C2722 1.388 . S
C2721 C2720 1.366 . S
C2721 C2725 1.385 . S
C2722 H2703 0.951 . S
C2722 C2720 1.388 . S
C2722 C2723 1.366 . S
C2723 C2722 1.366 . S
C2723 C2724 1.414 . S
C2723 C2726 1.499 . S
C2724 H2704 0.950 . S
C2724 C2723 1.414 . S
C2724 C2725 1.374 . S
C2725 H2705 0.950 . S
C2725 C2721 1.385 . S
C2725 C2724 1.374 . S
C2726 C2723 1.499 . S
C2726 C2727 1.373 . S
C2726 C2728 1.389 . S
C2727 H2706 0.950 . S
C2727 C2726 1.373 . S
C2727 C2743 1.377 . S
C2728 C2726 1.389 . S
C2728 C2729 1.524 . S
C2728 C2742 1.377 . S
C2729 C2728 1.524 . S
C2729 C2730 1.397 . S
C2729 C2734 1.363 . S
C2730 H2707 0.950 . S
C2730 C2729 1.397 . S
C2730 C2731 1.334 . S
C2731 H2708 0.950 . S
C2731 C2730 1.334 . S
C2731 C2732 1.287 . S
C2732 C2731 1.287 . S
C2732 C2733 1.524 . S
C2732 H2751 0.913 . S
C2733 H2709 0.950 . S
C2733 C2732 1.524 . S
C2733 C2734 1.415 . S
C2734 H2710 0.950 . S
C2734 C2729 1.363 . S
C2734 C2733 1.415 . S
C2735 H2711 0.951 . S
C2735 C2736 1.366 . S
C2735 C2737 1.388 . S
C2736 C2735 1.366 . S
C2736 C2740 1.385 . S
C2737 H2712 0.951 . S
C2737 C2735 1.388 . S
C2737 C2738 1.366 . S
C2738 C2737 1.366 . S
C2738 C2739 1.414 . S
C2738 C2741 1.499 . S
C2739 H2713 0.950 . S
C2739 C2738 1.414 . S
C2739 C2740 1.374 . S
C2740 H2714 0.950 . S
C2740 C2736 1.385 . S
C2740 C2739 1.374 . S
C2741 C2738 1.499 . S
C2741 C2742 1.373 . S
C2741 C2743 1.389 . S
C2742 H2715 0.950 . S
C2742 C2728 1.377 . S
C2742 C2741 1.373 . S
C2743 C2727 1.377 . S
C2743 C2741 1.389 . S
C2743 C2744 1.524 . S
C2744 C2743 1.524 . S
C2744 C2745 1.397 . S
C2744 C2749 1.363 . S
C2745 H2716 0.950 . S
C2745 C2744 1.397 . S
C2745 C2746 1.334 . S
C2746 H2717 0.950 . S
C2746 C2745 1.334 . S
C2746 C2747 1.287 . S
C2747 C2746 1.287 . S
C2747 C2748 1.524 . S
C2747 H2750 0.999 . S
C2748 H2718 0.950 . S
C2748 C2747 1.524 . S
C2748 C2749 1.415 . S
C2749 H2719 0.950 . S
C2749 C2744 1.363 . S
C2749 C2748 1.415 . S
H2750 C2747 0.999 . S
H2751 C2732 0.913 . S
H2752 C2770 0.951 . S
H2753 C2772 0.951 . S
H2754 C2774 0.950 . S
H2755 C2775 0.950 . S
H2756 C2777 0.950 . S
H2757 C2780 0.950 . S
H2758 C2781 0.950 . S
H2759 C2783 0.950 . S
H2760 C2784 0.950 . S
H2761 C2785 0.951 . S
H2762 C2787 0.951 . S
H2763 C2789 0.950 . S
H2764 C2790 0.950 . S
H2765 C2792 0.950 . S
H2766 C2795 0.950 . S
H2767 C2796 0.950 . S
H2768 C2798 0.950 . S
H2769 C2799 0.950 . S
C2770 H2752 0.951 . S
C2770 C2771 1.366 . S
C2770 C2772 1.388 . S
C2771 C2770 1.366 . S
C2771 C2775 1.385 . S
C2772 H2753 0.951 . S
C2772 C2770 1.388 . S
C2772 C2773 1.366 . S
C2773 C2772 1.366 . S
C2773 C2774 1.414 . S
C2773 C2776 1.499 . S
C2774 H2754 0.950 . S
C2774 C2773 1.414 . S
C2774 C2775 1.374 . S
C2775 H2755 0.950 . S
C2775 C2771 1.385 . S
C2775 C2774 1.374 . S
C2776 C2773 1.499 . S
C2776 C2777 1.373 . S
C2776 C2778 1.389 . S
C2777 H2756 0.950 . S
C2777 C2776 1.373 . S
C2777 C2793 1.377 . S
C2778 C2776 1.389 . S
C2778 C2779 1.524 . S
C2778 C2792 1.377 . S
C2779 C2778 1.524 . S
C2779 C2780 1.397 . S
C2779 C2784 1.363 . S
C2780 H2757 0.950 . S
C2780 C2779 1.397 . S
C2780 C2781 1.334 . S
C2781 H2758 0.950 . S
C2781 C2780 1.334 . S
C2781 C2782 1.287 . S
C2782 C2781 1.287 . S
C2782 C2783 1.524 . S
C2782 H2801 0.913 . S
C2783 H2759 0.950 . S
C2783 C2782 1.524 . S
C2783 C2784 1.415 . S
C2784 H2760 0.950 . S
C2784 C2779 1.363 . S
C2784 C2783 1.415 . S
C2785 H2761 0.951 . S
C2785 C2786 1.366 . S
C2785 C2787 1.388 . S
C2786 C2785 1.366 . S
C2786 C2790 1.385 . S
C2787 H2762 0.951 . S
C2787 C2785 1.388 . S
C2787 C2788 1.366 . S
C2788 C2787 1.366 . S
C2788 C2789 1.414 . S
C2788 C2791 1.499 . S
C2789 H2763 0.950 . S
C2789 C2788 1.414 . S
C2789 C2790 1.374 . S
C2790 H2764 0.950 . S
C2790 C2786 1.385 . S
C2790 C2789 1.374 . S
C2791 C2788 1.499 . S
C2791 C2792 1.373 . S
C2791 C2793 1.389 . S
C2792 H2765 0.950 . S
C2792 C2778 1.377 . S
C2792 C2791 1.373 . S
C2793 C2777 1.377 . S
C2793 C2791 1.389 . S
C2793 C2794 1.524 1_545 S
C2794 C2793 1.524 1_565 S
C2794 C2795 1.397 . S
C2794 C2799 1.363 . S
C2795 H2766 0.950 . S
C2795 C2794 1.397 . S
C2795 C2796 1.334 . S
C2796 H2767 0.950 . S
C2796 C2795 1.334 . S
C2796 C2797 1.287 . S
C2797 C2796 1.287 . S
C2797 C2798 1.524 . S
C2797 H2800 0.999 . S
C2798 H2768 0.950 . S
C2798 C2797 1.524 . S
C2798 C2799 1.415 . S
C2799 H2769 0.950 . S
C2799 C2794 1.363 . S
C2799 C2798 1.415 . S
H2800 C2797 0.999 . S
H2801 C2782 0.913 . S
H2802 C2820 0.951 . S
H2803 C2822 0.951 . S
H2804 C2824 0.950 . S
H2805 C2825 0.950 . S
H2806 C2827 0.950 . S
H2807 C2830 0.950 . S
H2808 C2831 0.950 . S
H2809 C2833 0.950 . S
H2810 C2834 0.950 . S
H2811 C2835 0.951 . S
H2812 C2837 0.951 . S
H2813 C2839 0.950 . S
H2814 C2840 0.950 . S
H2815 C2842 0.950 . S
H2816 C2845 0.950 . S
H2817 C2846 0.950 . S
H2818 C2848 0.950 . S
H2819 C2849 0.950 . S
C2820 H2802 0.951 . S
C2820 C2821 1.366 . S
C2820 C2822 1.388 . S
C2821 C2820 1.366 . S
C2821 C2825 1.385 . S
C2822 H2803 0.951 . S
C2822 C2820 1.388 . S
C2822 C2823 1.366 . S
C2823 C2822 1.366 . S
C2823 C2824 1.414 . S
C2823 C2826 1.499 . S
C2824 H2804 0.950 . S
C2824 C2823 1.414 . S
C2824 C2825 1.374 . S
C2825 H2805 0.950 . S
C2825 C2821 1.385 . S
C2825 C2824 1.374 . S
C2826 C2823 1.499 . S
C2826 C2827 1.373 . S
C2826 C2828 1.389 . S
C2827 H2806 0.950 . S
C2827 C2826 1.373 . S
C2827 C2843 1.377 . S
C2828 C2826 1.389 . S
C2828 C2829 1.524 . S
C2828 C2842 1.377 . S
C2829 C2828 1.524 . S
C2829 C2830 1.397 . S
C2829 C2834 1.363 . S
C2830 H2807 0.950 . S
C2830 C2829 1.397 . S
C2830 C2831 1.334 . S
C2831 H2808 0.950 . S
C2831 C2830 1.334 . S
C2831 C2832 1.287 . S
C2832 C2831 1.287 . S
C2832 C2833 1.524 . S
C2832 H2851 0.913 . S
C2833 H2809 0.950 . S
C2833 C2832 1.524 . S
C2833 C2834 1.415 . S
C2834 H2810 0.950 . S
C2834 C2829 1.363 . S
C2834 C2833 1.415 . S
C2835 H2811 0.951 . S
C2835 C2836 1.366 . S
C2835 C2837 1.388 . S
C2836 C2835 1.366 . S
C2836 C2840 1.385 . S
C2837 H2812 0.951 . S
C2837 C2835 1.388 . S
C2837 C2838 1.366 . S
C2838 C2837 1.366 . S
C2838 C2839 1.414 . S
C2838 C2841 1.499 . S
C2839 H2813 0.950 . S
C2839 C2838 1.414 . S
C2839 C2840 1.374 . S
C2840 H2814 0.950 . S
C2840 C2836 1.385 . S
C2840 C2839 1.374 . S
C2841 C2838 1.499 . S
C2841 C2842 1.373 . S
C2841 C2843 1.389 . S
C2842 H2815 0.950 . S
C2842 C2828 1.377 . S
C2842 C2841 1.373 . S
C2843 C2827 1.377 . S
C2843 C2841 1.389 . S
C2843 C2844 1.524 . S
C2844 C2843 1.524 . S
C2844 C2845 1.397 . S
C2844 C2849 1.363 . S
C2845 H2816 0.950 . S
C2845 C2844 1.397 . S
C2845 C2846 1.334 . S
C2846 H2817 0.950 . S
C2846 C2845 1.334 . S
C2846 C2847 1.287 . S
C2847 C2846 1.287 . S
C2847 C2848 1.524 . S
C2847 H2850 0.999 . S
C2848 H2818 0.950 . S
C2848 C2847 1.524 . S
C2848 C2849 1.415 . S
C2849 H2819 0.950 . S
C2849 C2844 1.363 . S
C2849 C2848 1.415 . S
H2850 C2847 0.999 . S
H2851 C2832 0.913 . S
H2852 C2870 0.951 . S
H2853 C2872 0.951 . S
H2854 C2874 0.950 . S
H2855 C2875 0.950 . S
H2856 C2877 0.950 . S
H2857 C2880 0.950 . S
H2858 C2881 0.950 . S
H2859 C2883 0.950 . S
H2860 C2884 0.950 . S
H2861 C2885 0.931 1_565 S
H2862 C2887 0.945 1_565 S
H2863 C2889 0.950 . S
H2864 C2890 0.950 . S
H2865 C2892 0.950 . S
H2866 C2895 0.976 . S
H2867 C2896 0.950 . S
H2868 C2898 0.950 . S
H2869 C2899 0.950 . S
C2870 H2852 0.951 . S
C2870 C2871 1.366 . S
C2870 C2872 1.388 . S
C2871 C2870 1.366 . S
C2871 C2875 1.385 . S
C2872 H2853 0.951 . S
C2872 C2870 1.388 . S
C2872 C2873 1.366 . S
C2873 C2872 1.366 . S
C2873 C2874 1.414 . S
C2873 C2876 1.499 . S
C2874 H2854 0.950 . S
C2874 C2873 1.414 . S
C2874 C2875 1.374 . S
C2875 H2855 0.950 . S
C2875 C2871 1.385 . S
C2875 C2874 1.374 . S
C2876 C2873 1.499 . S
C2876 C2877 1.373 . S
C2876 C2878 1.389 . S
C2877 H2856 0.950 . S
C2877 C2876 1.373 . S
C2877 C2893 1.377 . S
C2878 C2876 1.389 . S
C2878 C2879 1.524 . S
C2878 C2892 1.377 . S
C2879 C2878 1.524 . S
C2879 C2880 1.397 . S
C2879 C2884 1.363 . S
C2880 H2857 0.950 . S
C2880 C2879 1.397 . S
C2880 C2881 1.334 . S
C2881 H2858 0.950 . S
C2881 C2880 1.334 . S
C2881 C2882 1.287 . S
C2882 C2881 1.287 . S
C2882 C2883 1.524 . S
C2882 H2901 0.913 . S
C2883 H2859 0.950 . S
C2883 C2882 1.524 . S
C2883 C2884 1.415 . S
C2884 H2860 0.950 . S
C2884 C2879 1.363 . S
C2884 C2883 1.415 . S
C2885 H2861 0.931 1_545 S
C2885 C2886 1.378 . S
C2885 C2887 1.396 . S
C2886 C2885 1.378 . S
C2886 C2890 1.385 . S
C2887 H2862 0.945 1_545 S
C2887 C2885 1.396 . S
C2887 C2888 1.366 . S
C2888 C2887 1.366 . S
C2888 C2889 1.414 . S
C2888 C2891 1.499 . S
C2889 H2863 0.950 . S
C2889 C2888 1.414 . S
C2889 C2890 1.374 . S
C2890 H2864 0.950 . S
C2890 C2886 1.385 . S
C2890 C2889 1.374 . S
C2891 C2888 1.499 . S
C2891 C2892 1.373 . S
C2891 C2893 1.389 . S
C2892 H2865 0.950 . S
C2892 C2878 1.377 . S
C2892 C2891 1.373 . S
C2893 C2877 1.377 . S
C2893 C2891 1.389 . S
C2893 C2894 1.524 1_545 S
C2894 C2893 1.524 1_565 S
C2894 C2895 1.397 . S
C2894 C2899 1.363 . S
C2895 H2866 0.976 . S
C2895 C2894 1.397 . S
C2895 C2896 1.334 . S
C2896 H2867 0.950 . S
C2896 C2895 1.334 . S
C2896 C2897 1.287 . S
C2897 C2896 1.287 . S
C2897 C2898 1.524 . S
C2897 H2900 0.999 . S
C2898 H2868 0.950 . S
C2898 C2897 1.524 . S
C2898 C2899 1.415 . S
C2899 H2869 0.950 . S
C2899 C2894 1.363 . S
C2899 C2898 1.415 . S
H2900 C2897 0.999 . S
H2901 C2882 0.913 . S
H2902 C2920 0.951 . S
H2903 C2922 0.951 . S
H2904 C2924 0.950 . S
H2905 C2925 0.950 . S
H2906 C2927 0.950 . S
H2907 C2930 0.950 . S
H2908 C2931 0.950 . S
H2909 C2933 0.950 . S
H2910 C2934 0.950 . S
H2911 C2935 0.951 . S
H2912 C2937 0.951 . S
H2913 C2939 0.950 . S
H2914 C2940 0.950 . S
H2915 C2942 0.950 . S
H2916 C2945 0.950 . S
H2917 C2946 0.950 . S
H2918 C2948 0.950 . S
H2919 C2949 0.950 . S
C2920 H2902 0.951 . S
C2920 C2921 1.366 . S
C2920 C2922 1.388 . S
C2921 C2920 1.366 . S
C2921 C2925 1.385 . S
C2922 H2903 0.951 . S
C2922 C2920 1.388 . S
C2922 C2923 1.366 . S
C2923 C2922 1.366 . S
C2923 C2924 1.414 . S
C2923 C2926 1.499 . S
C2924 H2904 0.950 . S
C2924 C2923 1.414 . S
C2924 C2925 1.374 . S
C2925 H2905 0.950 . S
C2925 C2921 1.385 . S
C2925 C2924 1.374 . S
C2926 C2923 1.499 . S
C2926 C2927 1.373 . S
C2926 C2928 1.389 . S
C2927 H2906 0.950 . S
C2927 C2926 1.373 . S
C2927 C2943 1.377 . S
C2928 C2926 1.389 . S
C2928 C2929 1.524 . S
C2928 C2942 1.377 . S
C2929 C2928 1.524 . S
C2929 C2930 1.397 . S
C2929 C2934 1.363 . S
C2930 H2907 0.950 . S
C2930 C2929 1.397 . S
C2930 C2931 1.334 . S
C2931 H2908 0.950 . S
C2931 C2930 1.334 . S
C2931 C2932 1.287 . S
C2932 C2931 1.287 . S
C2932 C2933 1.524 . S
C2932 H2951 0.913 . S
C2933 H2909 0.950 . S
C2933 C2932 1.524 . S
C2933 C2934 1.415 . S
C2934 H2910 0.950 . S
C2934 C2929 1.363 . S
C2934 C2933 1.415 . S
C2935 H2911 0.951 . S
C2935 C2936 1.366 . S
C2935 C2937 1.388 . S
C2936 C2935 1.366 . S
C2936 C2940 1.385 . S
C2937 H2912 0.951 . S
C2937 C2935 1.388 . S
C2937 C2938 1.366 . S
C2938 C2937 1.366 . S
C2938 C2939 1.414 . S
C2938 C2941 1.499 . S
C2939 H2913 0.950 . S
C2939 C2938 1.414 . S
C2939 C2940 1.374 . S
C2940 H2914 0.950 . S
C2940 C2936 1.385 . S
C2940 C2939 1.374 . S
C2941 C2938 1.499 . S
C2941 C2942 1.373 . S
C2941 C2943 1.389 . S
C2942 H2915 0.950 . S
C2942 C2928 1.377 . S
C2942 C2941 1.373 . S
C2943 C2927 1.377 . S
C2943 C2941 1.389 . S
C2943 C2944 1.524 . S
C2944 C2943 1.524 . S
C2944 C2945 1.397 . S
C2944 C2949 1.363 . S
C2945 H2916 0.950 . S
C2945 C2944 1.397 . S
C2945 C2946 1.334 . S
C2946 H2917 0.950 . S
C2946 C2945 1.334 . S
C2946 C2947 1.287 . S
C2947 C2946 1.287 . S
C2947 C2948 1.524 . S
C2947 H2950 0.999 . S
C2948 H2918 0.950 . S
C2948 C2947 1.524 . S
C2948 C2949 1.415 . S
C2949 H2919 0.950 . S
C2949 C2944 1.363 . S
C2949 C2948 1.415 . S
H2950 C2947 0.999 . S
H2951 C2932 0.913 . S
H2952 C2970 0.951 . S
H2953 C2972 0.951 . S
H2954 C2974 0.950 . S
H2955 C2975 0.950 . S
H2956 C2977 0.950 . S
H2957 C2980 0.950 . S
H2958 C2981 0.950 . S
H2959 C2983 0.950 . S
H2960 C2984 0.908 1_554 S
H2961 C2985 0.951 . S
H2962 C2987 0.951 . S
H2963 C2989 0.950 . S
H2964 C2990 0.950 . S
H2965 C2992 0.950 . S
H2966 C2995 0.950 . S
H2967 C2996 0.950 . S
H2968 C2998 0.950 . S
H2969 C2999 0.950 . S
C2970 H2952 0.951 . S
C2970 C2971 1.366 . S
C2970 C2972 1.388 . S
C2971 C2970 1.366 . S
C2971 C2975 1.385 1_554 S
C2972 H2953 0.951 . S
C2972 C2970 1.388 . S
C2972 C2973 1.366 . S
C2973 C2972 1.366 . S
C2973 C2974 1.414 1_554 S
C2973 C2976 1.499 . S
C2974 H2954 0.950 . S
C2974 C2973 1.414 1_556 S
C2974 C2975 1.374 . S
C2975 H2955 0.950 . S
C2975 C2971 1.385 1_556 S
C2975 C2974 1.374 . S
C2976 C2973 1.499 . S
C2976 C2977 1.373 . S
C2976 C2978 1.389 1_554 S
C2977 H2956 0.950 . S
C2977 C2976 1.373 . S
C2977 C2993 1.377 . S
C2978 C2976 1.389 1_556 S
C2978 C2979 1.524 . S
C2978 C2992 1.377 . S
C2979 C2978 1.524 . S
C2979 C2980 1.397 . S
C2979 C2984 1.363 . S
C2980 H2957 0.950 . S
C2980 C2979 1.397 . S
C2980 C2981 1.334 . S
C2981 H2958 0.950 . S
C2981 C2980 1.334 . S
C2981 C2982 1.287 . S
C2982 C2981 1.287 . S
C2982 C2983 1.524 . S
C2982 H3001 0.913 . S
C2983 H2959 0.950 . S
C2983 C2982 1.524 . S
C2983 C2984 1.415 . S
C2984 H2960 0.908 1_556 S
C2984 C2979 1.363 . S
C2984 C2983 1.415 . S
C2985 H2961 0.951 . S
C2985 C2986 1.370 . S
C2985 C2987 1.388 . S
C2986 C2985 1.370 . S
C2986 C2990 1.378 1_556 S
C2987 H2962 0.951 . S
C2987 C2985 1.388 . S
C2987 C2988 1.366 1_556 S
C2988 C2987 1.366 1_554 S
C2988 C2989 1.414 . S
C2988 C2991 1.499 . S
C2989 H2963 0.950 . S
C2989 C2988 1.414 . S
C2989 C2990 1.374 . S
C2990 H2964 0.950 . S
C2990 C2986 1.378 1_554 S
C2990 C2989 1.374 . S
C2991 C2988 1.499 . S
C2991 C2992 1.373 1_554 S
C2991 C2993 1.389 . S
C2992 H2965 0.950 . S
C2992 C2978 1.377 . S
C2992 C2991 1.373 1_556 S
C2993 C2977 1.377 . S
C2993 C2991 1.389 . S
C2993 C2994 1.524 . S
C2994 C2993 1.524 . S
C2994 C2995 1.397 . S
C2994 C2999 1.363 . S
C2995 H2966 0.950 . S
C2995 C2994 1.397 . S
C2995 C2996 1.334 . S
C2996 H2967 0.950 . S
C2996 C2995 1.334 . S
C2996 C2997 1.287 . S
C2997 C2996 1.287 . S
C2997 C2998 1.524 . S
C2997 H3000 0.999 . S
C2998 H2968 0.950 . S
C2998 C2997 1.524 . S
C2998 C2999 1.415 . S
C2999 H2969 0.950 . S
C2999 C2994 1.363 . S
C2999 C2998 1.415 . S
H3000 C2997 0.999 . S
H3001 C2982 0.913 . S
H3002 C3020 0.951 . S
H3003 C3022 0.951 . S
H3004 C3024 0.950 . S
H3005 C3025 0.950 . S
H3006 C3027 0.950 . S
H3007 C3030 0.950 . S
H3008 C3031 0.950 . S
H3009 C3033 0.950 . S
H3010 C3034 0.950 . S
H3011 C3035 0.951 . S
H3012 C3037 0.951 . S
H3013 C3039 0.950 . S
H3014 C3040 0.950 . S
H3015 C3042 0.950 1_556 S
H3016 C3045 0.950 . S
H3017 C3046 0.950 . S
H3018 C3048 0.950 . S
H3019 C3049 0.950 . S
C3020 H3002 0.951 . S
C3020 C3021 1.366 . S
C3020 C3022 1.388 . S
C3021 C3020 1.366 . S
C3021 C3025 1.385 . S
C3022 H3003 0.951 . S
C3022 C3020 1.388 . S
C3022 C3023 1.366 . S
C3023 C3022 1.366 . S
C3023 C3024 1.414 . S
C3023 C3026 1.499 . S
C3024 H3004 0.950 . S
C3024 C3023 1.414 . S
C3024 C3025 1.374 . S
C3025 H3005 0.950 . S
C3025 C3021 1.385 . S
C3025 C3024 1.374 . S
C3026 C3023 1.499 . S
C3026 C3027 1.373 . S
C3026 C3028 1.389 . S
C3027 H3006 0.950 . S
C3027 C3026 1.373 . S
C3027 C3043 1.377 . S
C3028 C3026 1.389 . S
C3028 C3029 1.524 1_554 S
C3028 C3042 1.377 . S
C3029 C3028 1.524 1_556 S
C3029 C3030 1.397 . S
C3029 C3034 1.363 . S
C3030 H3007 0.950 . S
C3030 C3029 1.397 . S
C3030 C3031 1.334 . S
C3031 H3008 0.950 . S
C3031 C3030 1.334 . S
C3031 C3032 1.287 . S
C3032 C3031 1.287 . S
C3032 C3033 1.524 . S
C3032 H3051 0.913 . S
C3033 H3009 0.950 . S
C3033 C3032 1.524 . S
C3033 C3034 1.415 . S
C3034 H3010 0.950 . S
C3034 C3029 1.363 . S
C3034 C3033 1.415 . S
C3035 H3011 0.951 . S
C3035 C3036 1.366 . S
C3035 C3037 1.388 . S
C3036 C3035 1.366 . S
C3036 C3040 1.385 . S
C3037 H3012 0.951 . S
C3037 C3035 1.388 . S
C3037 C3038 1.366 . S
C3038 C3037 1.366 . S
C3038 C3039 1.414 . S
C3038 C3041 1.499 . S
C3039 H3013 0.950 . S
C3039 C3038 1.414 . S
C3039 C3040 1.374 . S
C3040 H3014 0.950 . S
C3040 C3036 1.385 . S
C3040 C3039 1.374 . S
C3041 C3038 1.499 . S
C3041 C3042 1.373 . S
C3041 C3043 1.389 . S
C3042 H3015 0.950 1_554 S
C3042 C3028 1.377 . S
C3042 C3041 1.373 . S
C3043 C3027 1.377 . S
C3043 C3041 1.389 . S
C3043 C3044 1.524 . S
C3044 C3043 1.524 . S
C3044 C3045 1.397 . S
C3044 C3049 1.363 . S
C3045 H3016 0.950 . S
C3045 C3044 1.397 . S
C3045 C3046 1.334 . S
C3046 H3017 0.950 . S
C3046 C3045 1.334 . S
C3046 C3047 1.287 . S
C3047 C3046 1.287 . S
C3047 C3048 1.524 . S
C3047 H3050 0.999 . S
C3048 H3018 0.950 . S
C3048 C3047 1.524 . S
C3048 C3049 1.415 . S
C3049 H3019 0.950 . S
C3049 C3044 1.363 . S
C3049 C3048 1.415 . S
H3050 C3047 0.999 . S
H3051 C3032 0.913 . S
H3052 C3070 0.951 . S
H3053 C3072 0.951 . S
H3054 C3074 0.950 . S
H3055 C3075 0.950 . S
H3056 C3077 0.950 . S
H3057 C3080 0.950 . S
H3058 C3081 0.950 . S
H3059 C3083 0.950 . S
H3060 C3084 0.950 . S
H3061 C3085 0.951 . S
H3062 C3087 0.951 . S
H3063 C3089 0.950 . S
H3064 C3090 0.950 . S
H3065 C3092 0.950 . S
H3066 C3095 0.950 . S
H3067 C3096 0.950 . S
H3068 C3098 0.950 . S
H3069 C3099 0.950 . S
C3070 H3052 0.951 . S
C3070 C3071 1.366 . S
C3070 C3072 1.388 . S
C3071 C3070 1.366 . S
C3071 C3075 1.385 . S
C3072 H3053 0.951 . S
C3072 C3070 1.388 . S
C3072 C3073 1.366 . S
C3073 C3072 1.366 . S
C3073 C3074 1.414 . S
C3073 C3076 1.499 . S
C3074 H3054 0.950 . S
C3074 C3073 1.414 . S
C3074 C3075 1.374 . S
C3075 H3055 0.950 . S
C3075 C3071 1.385 . S
C3075 C3074 1.374 . S
C3076 C3073 1.499 . S
C3076 C3077 1.373 . S
C3076 C3078 1.389 . S
C3077 H3056 0.950 . S
C3077 C3076 1.373 . S
C3077 C3093 1.377 . S
C3078 C3076 1.389 . S
C3078 C3079 1.524 . S
C3078 C3092 1.377 . S
C3079 C3078 1.524 . S
C3079 C3080 1.397 . S
C3079 C3084 1.363 . S
C3080 H3057 0.950 . S
C3080 C3079 1.397 . S
C3080 C3081 1.334 . S
C3081 H3058 0.950 . S
C3081 C3080 1.334 . S
C3081 C3082 1.287 . S
C3082 C3081 1.287 . S
C3082 C3083 1.524 . S
C3082 H3101 0.913 . S
C3083 H3059 0.950 . S
C3083 C3082 1.524 . S
C3083 C3084 1.415 . S
C3084 H3060 0.950 . S
C3084 C3079 1.363 . S
C3084 C3083 1.415 . S
C3085 H3061 0.951 . S
C3085 C3086 1.366 . S
C3085 C3087 1.388 . S
C3086 C3085 1.366 . S
C3086 C3090 1.385 . S
C3087 H3062 0.951 . S
C3087 C3085 1.388 . S
C3087 C3088 1.366 . S
C3088 C3087 1.366 . S
C3088 C3089 1.414 . S
C3088 C3091 1.499 . S
C3089 H3063 0.950 . S
C3089 C3088 1.414 . S
C3089 C3090 1.374 . S
C3090 H3064 0.950 . S
C3090 C3086 1.385 . S
C3090 C3089 1.374 . S
C3091 C3088 1.499 . S
C3091 C3092 1.373 . S
C3091 C3093 1.389 . S
C3092 H3065 0.950 . S
C3092 C3078 1.377 . S
C3092 C3091 1.373 . S
C3093 C3077 1.377 . S
C3093 C3091 1.389 . S
C3093 C3094 1.524 . S
C3094 C3093 1.524 . S
C3094 C3095 1.397 . S
C3094 C3099 1.363 . S
C3095 H3066 0.950 . S
C3095 C3094 1.397 . S
C3095 C3096 1.334 . S
C3096 H3067 0.950 . S
C3096 C3095 1.334 . S
C3096 C3097 1.287 . S
C3097 C3096 1.287 . S
C3097 C3098 1.524 . S
C3097 H3100 0.999 . S
C3098 H3068 0.950 . S
C3098 C3097 1.524 . S
C3098 C3099 1.415 . S
C3099 H3069 0.950 . S
C3099 C3094 1.363 . S
C3099 C3098 1.415 . S
H3100 C3097 0.999 . S
H3101 C3082 0.913 . S
H3102 C3120 0.951 . S
H3103 C3122 0.951 . S
H3104 C3124 0.950 . S
H3105 C3125 0.950 . S
H3106 C3127 0.950 . S
H3107 C3130 0.950 . S
H3108 C3131 0.950 . S
H3109 C3133 0.950 . S
H3110 C3134 0.950 . S
H3111 C3135 0.951 . S
H3112 C3137 0.951 . S
H3113 C3139 0.950 . S
H3114 C3140 0.950 . S
H3115 C3142 0.950 . S
H3116 C3145 0.950 . S
H3117 C3146 0.950 . S
H3118 C3148 0.950 . S
H3119 C3149 0.950 . S
C3120 H3102 0.951 . S
C3120 C3121 1.366 . S
C3120 C3122 1.388 . S
C3121 C3120 1.366 . S
C3121 C3125 1.385 . S
C3122 H3103 0.951 . S
C3122 C3120 1.388 . S
C3122 C3123 1.366 . S
C3123 C3122 1.366 . S
C3123 C3124 1.414 . S
C3123 C3126 1.499 . S
C3124 H3104 0.950 . S
C3124 C3123 1.414 . S
C3124 C3125 1.374 . S
C3125 H3105 0.950 . S
C3125 C3121 1.385 . S
C3125 C3124 1.374 . S
C3126 C3123 1.499 . S
C3126 C3127 1.373 . S
C3126 C3128 1.389 . S
C3127 H3106 0.950 . S
C3127 C3126 1.373 . S
C3127 C3143 1.377 . S
C3128 C3126 1.389 . S
C3128 C3129 1.524 . S
C3128 C3142 1.377 . S
C3129 C3128 1.524 . S
C3129 C3130 1.397 . S
C3129 C3134 1.363 . S
C3130 H3107 0.950 . S
C3130 C3129 1.397 . S
C3130 C3131 1.334 . S
C3131 H3108 0.950 . S
C3131 C3130 1.334 . S
C3131 C3132 1.287 . S
C3132 C3131 1.287 . S
C3132 C3133 1.524 . S
C3132 H3151 0.913 . S
C3133 H3109 0.950 . S
C3133 C3132 1.524 . S
C3133 C3134 1.415 . S
C3134 H3110 0.950 . S
C3134 C3129 1.363 . S
C3134 C3133 1.415 . S
C3135 H3111 0.951 . S
C3135 C3136 1.366 . S
C3135 C3137 1.388 . S
C3136 C3135 1.366 . S
C3136 C3140 1.385 . S
C3137 H3112 0.951 . S
C3137 C3135 1.388 . S
C3137 C3138 1.366 . S
C3138 C3137 1.366 . S
C3138 C3139 1.414 . S
C3138 C3141 1.499 . S
C3139 H3113 0.950 . S
C3139 C3138 1.414 . S
C3139 C3140 1.374 . S
C3140 H3114 0.950 . S
C3140 C3136 1.385 . S
C3140 C3139 1.374 . S
C3141 C3138 1.499 . S
C3141 C3142 1.373 . S
C3141 C3143 1.389 . S
C3142 H3115 0.950 . S
C3142 C3128 1.377 . S
C3142 C3141 1.373 . S
C3143 C3127 1.377 . S
C3143 C3141 1.389 . S
C3143 C3144 1.524 . S
C3144 C3143 1.524 . S
C3144 C3145 1.397 . S
C3144 C3149 1.363 . S
C3145 H3116 0.950 . S
C3145 C3144 1.397 . S
C3145 C3146 1.334 . S
C3146 H3117 0.950 . S
C3146 C3145 1.334 . S
C3146 C3147 1.287 . S
C3147 C3146 1.287 . S
C3147 C3148 1.524 . S
C3147 H3150 0.999 . S
C3148 H3118 0.950 . S
C3148 C3147 1.524 . S
C3148 C3149 1.415 . S
C3149 H3119 0.950 . S
C3149 C3144 1.363 . S
C3149 C3148 1.415 . S
H3150 C3147 0.999 . S
H3151 C3132 0.913 . S
H3152 C3170 0.951 . S
H3153 C3172 0.951 . S
H3154 C3174 0.950 . S
H3155 C3175 0.950 . S
H3156 C3177 0.950 . S
H3157 C3180 0.950 . S
H3158 C3181 0.950 . S
H3159 C3183 0.950 . S
H3160 C3184 0.950 . S
H3161 C3185 0.951 . S
H3162 C3187 0.951 . S
H3163 C3189 0.950 . S
H3164 C3190 0.950 . S
H3165 C3192 0.950 . S
H3166 C3195 0.950 . S
H3167 C3196 0.950 . S
H3168 C3198 0.950 . S
H3169 C3199 0.950 . S
C3170 H3152 0.951 . S
C3170 C3171 1.366 . S
C3170 C3172 1.388 . S
C3171 C3170 1.366 . S
C3171 C3175 1.385 . S
C3172 H3153 0.951 . S
C3172 C3170 1.388 . S
C3172 C3173 1.366 . S
C3173 C3172 1.366 . S
C3173 C3174 1.414 . S
C3173 C3176 1.499 . S
C3174 H3154 0.950 . S
C3174 C3173 1.414 . S
C3174 C3175 1.374 . S
C3175 H3155 0.950 . S
C3175 C3171 1.385 . S
C3175 C3174 1.374 . S
C3176 C3173 1.499 . S
C3176 C3177 1.373 . S
C3176 C3178 1.389 . S
C3177 H3156 0.950 . S
C3177 C3176 1.373 . S
C3177 C3193 1.377 . S
C3178 C3176 1.389 . S
C3178 C3179 1.524 . S
C3178 C3192 1.377 . S
C3179 C3178 1.524 . S
C3179 C3180 1.397 . S
C3179 C3184 1.363 . S
C3180 H3157 0.950 . S
C3180 C3179 1.397 . S
C3180 C3181 1.334 . S
C3181 H3158 0.950 . S
C3181 C3180 1.334 . S
C3181 C3182 1.287 . S
C3182 C3181 1.287 . S
C3182 C3183 1.524 . S
C3182 H3201 0.913 . S
C3183 H3159 0.950 . S
C3183 C3182 1.524 . S
C3183 C3184 1.415 . S
C3184 H3160 0.950 . S
C3184 C3179 1.363 . S
C3184 C3183 1.415 . S
C3185 H3161 0.951 . S
C3185 C3186 1.366 . S
C3185 C3187 1.388 . S
C3186 C3185 1.366 . S
C3186 C3190 1.385 . S
C3187 H3162 0.951 . S
C3187 C3185 1.388 . S
C3187 C3188 1.366 . S
C3188 C3187 1.366 . S
C3188 C3189 1.414 . S
C3188 C3191 1.499 . S
C3189 H3163 0.950 . S
C3189 C3188 1.414 . S
C3189 C3190 1.374 . S
C3190 H3164 0.950 . S
C3190 C3186 1.385 . S
C3190 C3189 1.374 . S
C3191 C3188 1.499 . S
C3191 C3192 1.373 . S
C3191 C3193 1.389 . S
C3192 H3165 0.950 . S
C3192 C3178 1.377 . S
C3192 C3191 1.373 . S
C3193 C3177 1.377 . S
C3193 C3191 1.389 . S
C3193 C3194 1.524 . S
C3194 C3193 1.524 . S
C3194 C3195 1.397 . S
C3194 C3199 1.363 . S
C3195 H3166 0.950 . S
C3195 C3194 1.397 . S
C3195 C3196 1.334 . S
C3196 H3167 0.950 . S
C3196 C3195 1.334 . S
C3196 C3197 1.287 . S
C3197 C3196 1.287 . S
C3197 C3198 1.524 . S
C3197 H3200 0.999 . S
C3198 H3168 0.950 . S
C3198 C3197 1.524 . S
C3198 C3199 1.415 . S
C3199 H3169 0.950 . S
C3199 C3194 1.363 . S
C3199 C3198 1.415 . S
H3200 C3197 0.999 . S
H3201 C3182 0.913 . S
H3202 C3220 0.951 . S
H3203 C3222 0.951 . S
H3204 C3224 0.950 . S
H3205 C3225 0.950 . S
H3206 C3227 0.950 . S
H3207 C3230 0.950 . S
H3208 C3231 0.950 . S
H3209 C3233 0.950 1_545 S
H3210 C3234 0.950 . S
H3211 C3235 0.951 . S
H3212 C3237 0.951 . S
H3213 C3239 0.950 . S
H3214 C3240 0.950 1_545 S
H3215 C3242 0.950 . S
H3216 C3245 0.950 . S
H3217 C3246 0.950 . S
H3218 C3248 0.950 . S
H3219 C3249 0.950 . S
C3220 H3202 0.951 . S
C3220 C3221 1.366 . S
C3220 C3222 1.388 . S
C3221 C3220 1.366 . S
C3221 C3225 1.385 . S
C3222 H3203 0.951 . S
C3222 C3220 1.388 . S
C3222 C3223 1.366 . S
C3223 C3222 1.366 . S
C3223 C3224 1.414 . S
C3223 C3226 1.499 . S
C3224 H3204 0.950 . S
C3224 C3223 1.414 . S
C3224 C3225 1.374 . S
C3225 H3205 0.950 . S
C3225 C3221 1.385 . S
C3225 C3224 1.374 . S
C3226 C3223 1.499 . S
C3226 C3227 1.373 . S
C3226 C3228 1.389 . S
C3227 H3206 0.950 . S
C3227 C3226 1.373 . S
C3227 C3243 1.377 . S
C3228 C3226 1.389 . S
C3228 C3229 1.524 . S
C3228 C3242 1.377 . S
C3229 C3228 1.524 . S
C3229 C3230 1.397 . S
C3229 C3234 1.363 . S
C3230 H3207 0.950 . S
C3230 C3229 1.397 . S
C3230 C3231 1.334 . S
C3231 H3208 0.950 . S
C3231 C3230 1.334 . S
C3231 C3232 1.287 . S
C3232 C3231 1.287 . S
C3232 C3233 1.524 . S
C3232 H3251 0.913 . S
C3233 H3209 0.950 1_565 S
C3233 C3232 1.524 . S
C3233 C3234 1.415 . S
C3234 H3210 0.950 . S
C3234 C3229 1.363 . S
C3234 C3233 1.415 . S
C3235 H3211 0.951 . S
C3235 C3236 1.366 . S
C3235 C3237 1.388 . S
C3236 C3235 1.366 . S
C3236 C3240 1.385 . S
C3237 H3212 0.951 . S
C3237 C3235 1.388 . S
C3237 C3238 1.366 . S
C3238 C3237 1.366 . S
C3238 C3239 1.414 . S
C3238 C3241 1.499 . S
C3239 H3213 0.950 . S
C3239 C3238 1.414 . S
C3239 C3240 1.374 . S
C3240 H3214 0.950 1_565 S
C3240 C3236 1.385 . S
C3240 C3239 1.374 . S
C3241 C3238 1.499 . S
C3241 C3242 1.373 . S
C3241 C3243 1.389 . S
C3242 H3215 0.950 . S
C3242 C3228 1.377 . S
C3242 C3241 1.373 . S
C3243 C3227 1.377 . S
C3243 C3241 1.389 . S
C3243 C3244 1.524 . S
C3244 C3243 1.524 . S
C3244 C3245 1.397 . S
C3244 C3249 1.363 . S
C3245 H3216 0.950 . S
C3245 C3244 1.397 . S
C3245 C3246 1.334 . S
C3246 H3217 0.950 . S
C3246 C3245 1.334 . S
C3246 C3247 1.287 . S
C3247 C3246 1.287 . S
C3247 C3248 1.524 . S
C3247 H3250 0.999 . S
C3248 H3218 0.950 . S
C3248 C3247 1.524 . S
C3248 C3249 1.415 . S
C3249 H3219 0.950 . S
C3249 C3244 1.363 . S
C3249 C3248 1.415 . S
H3250 C3247 0.999 . S
H3251 C3232 0.913 . S
H3252 C3270 0.951 . S
H3253 C3272 0.951 . S
H3254 C3274 0.950 . S
H3255 C3275 0.950 . S
H3256 C3277 0.950 . S
H3257 C3280 0.950 . S
H3258 C3281 0.950 . S
H3259 C3283 0.950 . S
H3260 C3284 0.950 . S
H3261 C3285 0.951 . S
H3262 C3287 0.951 . S
H3263 C3289 0.950 . S
H3264 C3290 0.950 . S
H3265 C3292 0.950 . S
H3266 C3295 0.950 . S
H3267 C3296 0.950 . S
H3268 C3298 0.950 . S
H3269 C3299 0.950 . S
C3270 H3252 0.951 . S
C3270 C3271 1.366 . S
C3270 C3272 1.388 . S
C3271 C3270 1.366 . S
C3271 C3275 1.385 . S
C3272 H3253 0.951 . S
C3272 C3270 1.388 . S
C3272 C3273 1.366 . S
C3273 C3272 1.366 . S
C3273 C3274 1.414 . S
C3273 C3276 1.499 . S
C3274 H3254 0.950 . S
C3274 C3273 1.414 . S
C3274 C3275 1.374 . S
C3275 H3255 0.950 . S
C3275 C3271 1.385 . S
C3275 C3274 1.374 . S
C3276 C3273 1.499 . S
C3276 C3277 1.373 . S
C3276 C3278 1.389 . S
C3277 H3256 0.950 . S
C3277 C3276 1.373 . S
C3277 C3293 1.377 . S
C3278 C3276 1.389 . S
C3278 C3279 1.524 . S
C3278 C3292 1.377 . S
C3279 C3278 1.524 . S
C3279 C3280 1.397 . S
C3279 C3284 1.363 . S
C3280 H3257 0.950 . S
C3280 C3279 1.397 . S
C3280 C3281 1.334 . S
C3281 H3258 0.950 . S
C3281 C3280 1.334 . S
C3281 C3282 1.287 . S
C3282 C3281 1.287 . S
C3282 C3283 1.524 . S
C3282 H3301 0.913 . S
C3283 H3259 0.950 . S
C3283 C3282 1.524 . S
C3283 C3284 1.415 . S
C3284 H3260 0.950 . S
C3284 C3279 1.363 . S
C3284 C3283 1.415 . S
C3285 H3261 0.951 . S
C3285 C3286 1.366 . S
C3285 C3287 1.388 . S
C3286 C3285 1.366 . S
C3286 C3290 1.385 . S
C3287 H3262 0.951 . S
C3287 C3285 1.388 . S
C3287 C3288 1.366 . S
C3288 C3287 1.366 . S
C3288 C3289 1.414 . S
C3288 C3291 1.499 . S
C3289 H3263 0.950 . S
C3289 C3288 1.414 . S
C3289 C3290 1.374 . S
C3290 H3264 0.950 . S
C3290 C3286 1.385 . S
C3290 C3289 1.374 . S
C3291 C3288 1.499 . S
C3291 C3292 1.373 . S
C3291 C3293 1.389 . S
C3292 H3265 0.950 . S
C3292 C3278 1.377 . S
C3292 C3291 1.373 . S
C3293 C3277 1.377 . S
C3293 C3291 1.389 . S
C3293 C3294 1.524 . S
C3294 C3293 1.524 . S
C3294 C3295 1.397 . S
C3294 C3299 1.363 . S
C3295 H3266 0.950 . S
C3295 C3294 1.397 . S
C3295 C3296 1.334 . S
C3296 H3267 0.950 . S
C3296 C3295 1.334 . S
C3296 C3297 1.287 . S
C3297 C3296 1.287 . S
C3297 C3298 1.524 . S
C3297 H3300 0.999 . S
C3298 H3268 0.950 . S
C3298 C3297 1.524 . S
C3298 C3299 1.415 . S
C3299 H3269 0.950 . S
C3299 C3294 1.363 . S
C3299 C3298 1.415 . S
H3300 C3297 0.999 . S
H3301 C3282 0.913 . S
H3302 C3320 0.951 . S
H3303 C3322 0.951 . S
H3304 C3324 0.950 . S
H3305 C3325 0.950 . S
H3306 C3327 0.950 . S
H3307 C3330 0.950 . S
H3308 C3331 0.950 . S
H3309 C3333 0.950 . S
H3310 C3334 0.950 . S
H3311 C3335 0.951 . S
H3312 C3337 0.951 . S
H3313 C3339 0.950 . S
H3314 C3340 0.950 . S
H3315 C3342 0.950 . S
H3316 C3345 0.950 . S
H3317 C3346 0.950 . S
H3318 C3348 0.950 . S
H3319 C3349 0.950 . S
C3320 H3302 0.951 . S
C3320 C3321 1.366 . S
C3320 C3322 1.388 . S
C3321 C3320 1.366 . S
C3321 C3325 1.385 . S
C3322 H3303 0.951 . S
C3322 C3320 1.388 . S
C3322 C3323 1.366 . S
C3323 C3322 1.366 . S
C3323 C3324 1.414 . S
C3323 C3326 1.499 . S
C3324 H3304 0.950 . S
C3324 C3323 1.414 . S
C3324 C3325 1.374 . S
C3325 H3305 0.950 . S
C3325 C3321 1.385 . S
C3325 C3324 1.374 . S
C3326 C3323 1.499 . S
C3326 C3327 1.373 . S
C3326 C3328 1.389 . S
C3327 H3306 0.950 . S
C3327 C3326 1.373 . S
C3327 C3343 1.377 . S
C3328 C3326 1.389 . S
C3328 C3329 1.524 . S
C3328 C3342 1.377 . S
C3329 C3328 1.524 . S
C3329 C3330 1.397 . S
C3329 C3334 1.363 . S
C3330 H3307 0.950 . S
C3330 C3329 1.397 . S
C3330 C3331 1.334 . S
C3331 H3308 0.950 . S
C3331 C3330 1.334 . S
C3331 C3332 1.287 . S
C3332 C3331 1.287 . S
C3332 C3333 1.524 . S
C3332 H3351 0.913 . S
C3333 H3309 0.950 . S
C3333 C3332 1.524 . S
C3333 C3334 1.415 . S
C3334 H3310 0.950 . S
C3334 C3329 1.363 . S
C3334 C3333 1.415 . S
C3335 H3311 0.951 . S
C3335 C3336 1.366 . S
C3335 C3337 1.388 . S
C3336 C3335 1.366 . S
C3336 C3340 1.385 . S
C3337 H3312 0.951 . S
C3337 C3335 1.388 . S
C3337 C3338 1.366 . S
C3338 C3337 1.366 . S
C3338 C3339 1.414 . S
C3338 C3341 1.499 . S
C3339 H3313 0.950 . S
C3339 C3338 1.414 . S
C3339 C3340 1.374 . S
C3340 H3314 0.950 . S
C3340 C3336 1.385 . S
C3340 C3339 1.374 . S
C3341 C3338 1.499 . S
C3341 C3342 1.373 . S
C3341 C3343 1.389 . S
C3342 H3315 0.950 . S
C3342 C3328 1.377 . S
C3342 C3341 1.373 . S
C3343 C3327 1.377 . S
C3343 C3341 1.389 . S
C3343 C3344 1.524 . S
C3344 C3343 1.524 . S
C3344 C3345 1.397 . S
C3344 C3349 1.363 . S
C3345 H3316 0.950 . S
C3345 C3344 1.397 . S
C3345 C3346 1.334 . S
C3346 H3317 0.950 . S
C3346 C3345 1.334 . S
C3346 C3347 1.287 . S
C3347 C3346 1.287 . S
C3347 C3348 1.524 . S
C3347 H3350 0.999 . S
C3348 H3318 0.950 . S
C3348 C3347 1.524 . S
C3348 C3349 1.415 . S
C3349 H3319 0.950 . S
C3349 C3344 1.363 . S
C3349 C3348 1.415 . S
H3350 C3347 0.999 . S
H3351 C3332 0.913 . S
H3352 C3370 0.951 . S
H3353 C3372 0.951 . S
H3354 C3374 0.950 . S
H3355 C3375 0.950 . S
H3356 C3377 0.950 . S
H3357 C3380 0.950 . S
H3358 C3381 0.950 . S
H3359 C3383 0.950 . S
H3360 C3384 0.950 . S
H3361 C3385 0.951 . S
H3362 C3387 0.951 . S
H3363 C3389 0.950 . S
H3364 C3390 0.950 . S
H3365 C3392 0.950 . S
H3366 C3395 0.950 . S
H3367 C3396 0.950 . S
H3368 C3398 0.950 . S
H3369 C3399 0.950 . S
C3370 H3352 0.951 . S
C3370 C3371 1.366 . S
C3370 C3372 1.388 . S
C3371 C3370 1.366 . S
C3371 C3375 1.385 . S
C3372 H3353 0.951 . S
C3372 C3370 1.388 . S
C3372 C3373 1.366 . S
C3373 C3372 1.366 . S
C3373 C3374 1.414 . S
C3373 C3376 1.499 . S
C3374 H3354 0.950 . S
C3374 C3373 1.414 . S
C3374 C3375 1.374 . S
C3375 H3355 0.950 . S
C3375 C3371 1.385 . S
C3375 C3374 1.374 . S
C3376 C3373 1.499 . S
C3376 C3377 1.373 . S
C3376 C3378 1.389 . S
C3377 H3356 0.950 . S
C3377 C3376 1.373 . S
C3377 C3393 1.377 . S
C3378 C3376 1.389 . S
C3378 C3379 1.524 . S
C3378 C3392 1.377 . S
C3379 C3378 1.524 . S
C3379 C3380 1.397 . S
C3379 C3384 1.363 . S
C3380 H3357 0.950 . S
C3380 C3379 1.397 . S
C3380 C3381 1.334 . S
C3381 H3358 0.950 . S
C3381 C3380 1.334 . S
C3381 C3382 1.287 . S
C3382 C3381 1.287 . S
C3382 C3383 1.524 . S
C3382 H3401 0.913 . S
C3383 H3359 0.950 . S
C3383 C3382 1.524 . S
C3383 C3384 1.415 . S
C3384 H3360 0.950 . S
C3384 C3379 1.363 . S
C3384 C3383 1.415 . S
C3385 H3361 0.951 . S
C3385 C3386 1.366 . S
C3385 C3387 1.388 . S
C3386 C3385 1.366 . S
C3386 C3390 1.385 . S
C3387 H3362 0.951 . S
C3387 C3385 1.388 . S
C3387 C3388 1.366 . S
C3388 C3387 1.366 . S
C3388 C3389 1.414 . S
C3388 C3391 1.499 . S
C3389 H3363 0.950 . S
C3389 C3388 1.414 . S
C3389 C3390 1.374 . S
C3390 H3364 0.950 . S
C3390 C3386 1.385 . S
C3390 C3389 1.374 . S
C3391 C3388 1.499 . S
C3391 C3392 1.373 . S
C3391 C3393 1.389 . S
C3392 H3365 0.950 . S
C3392 C3378 1.377 . S
C3392 C3391 1.373 . S
C3393 C3377 1.377 . S
C3393 C3391 1.389 . S
C3393 C3394 1.524 . S
C3394 C3393 1.524 . S
C3394 C3395 1.397 . S
C3394 C3399 1.363 . S
C3395 H3366 0.950 . S
C3395 C3394 1.397 . S
C3395 C3396 1.334 . S
C3396 H3367 0.950 . S
C3396 C3395 1.334 . S
C3396 C3397 1.287 . S
C3397 C3396 1.287 . S
C3397 C3398 1.524 . S
C3397 H3400 0.999 . S
C3398 H3368 0.950 . S
C3398 C3397 1.524 . S
C3398 C3399 1.415 . S
C3399 H3369 0.950 . S
C3399 C3394 1.363 . S
C3399 C3398 1.415 . S
H3400 C3397 0.999 . S
H3401 C3382 0.913 . S
H3402 C3420 0.951 . S
H3403 C3422 0.951 . S
H3404 C3424 0.950 . S
H3405 C3425 0.950 . S
H3406 C3427 0.950 . S
H3407 C3430 0.950 . S
H3408 C3431 0.950 . S
H3409 C3433 0.950 . S
H3410 C3434 0.950 . S
H3411 C3435 0.951 . S
H3412 C3437 0.951 . S
H3413 C3439 0.950 . S
H3414 C3440 0.950 . S
H3415 C3442 0.950 . S
H3416 C3445 0.950 . S
H3417 C3446 0.950 . S
H3418 C3448 0.950 . S
H3419 C3449 0.950 . S
C3420 H3402 0.951 . S
C3420 C3421 1.366 . S
C3420 C3422 1.388 . S
C3421 C3420 1.366 . S
C3421 C3425 1.385 . S
C3422 H3403 0.951 . S
C3422 C3420 1.388 . S
C3422 C3423 1.366 . S
C3423 C3422 1.366 . S
C3423 C3424 1.414 . S
C3423 C3426 1.499 . S
C3424 H3404 0.950 . S
C3424 C3423 1.414 . S
C3424 C3425 1.374 . S
C3425 H3405 0.950 . S
C3425 C3421 1.385 . S
C3425 C3424 1.374 . S
C3426 C3423 1.499 . S
C3426 C3427 1.373 . S
C3426 C3428 1.389 . S
C3427 H3406 0.950 . S
C3427 C3426 1.373 . S
C3427 C3443 1.377 . S
C3428 C3426 1.389 . S
C3428 C3429 1.524 . S
C3428 C3442 1.377 . S
C3429 C3428 1.524 . S
C3429 C3430 1.397 . S
C3429 C3434 1.363 . S
C3430 H3407 0.950 . S
C3430 C3429 1.397 . S
C3430 C3431 1.334 . S
C3431 H3408 0.950 . S
C3431 C3430 1.334 . S
C3431 C3432 1.287 . S
C3432 C3431 1.287 . S
C3432 C3433 1.524 . S
C3432 H3451 0.913 . S
C3433 H3409 0.950 . S
C3433 C3432 1.524 . S
C3433 C3434 1.415 . S
C3434 H3410 0.950 . S
C3434 C3429 1.363 . S
C3434 C3433 1.415 . S
C3435 H3411 0.951 . S
C3435 C3436 1.366 . S
C3435 C3437 1.388 . S
C3436 C3435 1.366 . S
C3436 C3440 1.385 . S
C3437 H3412 0.951 . S
C3437 C3435 1.388 . S
C3437 C3438 1.366 . S
C3438 C3437 1.366 . S
C3438 C3439 1.414 . S
C3438 C3441 1.499 . S
C3439 H3413 0.950 . S
C3439 C3438 1.414 . S
C3439 C3440 1.374 . S
C3440 H3414 0.950 . S
C3440 C3436 1.385 . S
C3440 C3439 1.374 . S
C3441 C3438 1.499 . S
C3441 C3442 1.373 . S
C3441 C3443 1.389 . S
C3442 H3415 0.950 . S
C3442 C3428 1.377 . S
C3442 C3441 1.373 . S
C3443 C3427 1.377 . S
C3443 C3441 1.389 . S
C3443 C3444 1.524 . S
C3444 C3443 1.524 . S
C3444 C3445 1.397 . S
C3444 C3449 1.363 . S
C3445 H3416 0.950 . S
C3445 C3444 1.397 . S
C3445 C3446 1.334 . S
C3446 H3417 0.950 . S
C3446 C3445 1.334 . S
C3446 C3447 1.287 . S
C3447 C3446 1.287 . S
C3447 C3448 1.524 . S
C3447 H3450 0.999 . S
C3448 H3418 0.950 . S
C3448 C3447 1.524 . S
C3448 C3449 1.415 . S
C3449 H3419 0.950 . S
C3449 C3444 1.363 . S
C3449 C3448 1.415 . S
H3450 C3447 0.999 . S
H3451 C3432 0.913 . S
H3452 C3470 0.951 . S
H3453 C3472 0.951 . S
H3454 C3474 0.950 . S
H3455 C3475 0.954 1_655 S
H3456 C3477 0.950 . S
H3457 C3480 0.950 . S
H3458 C3481 0.950 . S
H3459 C3483 0.950 . S
H3460 C3484 0.950 . S
H3461 C3485 0.951 . S
H3462 C3487 0.951 . S
H3463 C3489 0.950 . S
H3464 C3490 0.950 . S
H3465 C3492 0.950 . S
H3466 C3495 0.950 . S
H3467 C3496 0.950 . S
H3468 C3498 0.950 . S
H3469 C3499 0.950 . S
C3470 H3452 0.951 . S
C3470 C3471 1.364 . S
C3470 C3472 1.388 . S
C3471 C3470 1.364 . S
C3471 C3475 1.383 . S
C3472 H3453 0.951 . S
C3472 C3470 1.388 . S
C3472 C3473 1.366 . S
C3473 C3472 1.366 . S
C3473 C3474 1.414 . S
C3473 C3476 1.499 . S
C3474 H3454 0.950 . S
C3474 C3473 1.414 . S
C3474 C3475 1.370 . S
C3475 H3455 0.954 1_455 S
C3475 C3471 1.383 . S
C3475 C3474 1.370 . S
C3476 C3473 1.499 . S
C3476 C3477 1.373 . S
C3476 C3478 1.389 1_455 S
C3477 H3456 0.950 . S
C3477 C3476 1.373 . S
C3477 C3493 1.377 . S
C3478 C3476 1.389 1_655 S
C3478 C3479 1.524 . S
C3478 C3492 1.377 . S
C3479 C3478 1.524 . S
C3479 C3480 1.397 . S
C3479 C3484 1.363 . S
C3480 H3457 0.950 . S
C3480 C3479 1.397 . S
C3480 C3481 1.334 . S
C3481 H3458 0.950 . S
C3481 C3480 1.334 . S
C3481 C3482 1.287 . S
C3482 C3481 1.287 . S
C3482 C3483 1.524 . S
C3482 H3501 0.913 . S
C3483 H3459 0.950 . S
C3483 C3482 1.524 . S
C3483 C3484 1.415 . S
C3484 H3460 0.950 . S
C3484 C3479 1.363 . S
C3484 C3483 1.415 . S
C3485 H3461 0.951 . S
C3485 C3486 1.366 . S
C3485 C3487 1.388 . S
C3486 C3485 1.366 . S
C3486 C3490 1.385 1_556 S
C3487 H3462 0.951 . S
C3487 C3485 1.388 . S
C3487 C3488 1.366 . S
C3488 C3487 1.366 . S
C3488 C3489 1.414 . S
C3488 C3491 1.499 . S
C3489 H3463 0.950 . S
C3489 C3488 1.414 . S
C3489 C3490 1.374 1_556 S
C3490 H3464 0.950 . S
C3490 C3486 1.385 1_554 S
C3490 C3489 1.374 1_554 S
C3491 C3488 1.499 . S
C3491 C3492 1.373 1_455 S
C3491 C3493 1.389 . S
C3492 H3465 0.950 . S
C3492 C3478 1.377 . S
C3492 C3491 1.373 1_655 S
C3493 C3477 1.377 . S
C3493 C3491 1.389 . S
C3493 C3494 1.524 . S
C3494 C3493 1.524 . S
C3494 C3495 1.397 . S
C3494 C3499 1.363 . S
C3495 H3466 0.950 . S
C3495 C3494 1.397 . S
C3495 C3496 1.334 . S
C3496 H3467 0.950 . S
C3496 C3495 1.334 . S
C3496 C3497 1.287 . S
C3497 C3496 1.287 . S
C3497 C3498 1.524 . S
C3497 H3500 0.999 . S
C3498 H3468 0.950 . S
C3498 C3497 1.524 . S
C3498 C3499 1.415 . S
C3499 H3469 0.950 . S
C3499 C3494 1.363 . S
C3499 C3498 1.415 . S
H3500 C3497 0.999 . S
H3501 C3482 0.913 . S
H3502 C3520 0.951 . S
H3503 C3522 0.951 . S
H3504 C3524 0.950 . S
H3505 C3525 0.950 . S
H3506 C3527 0.950 . S
H3507 C3530 0.950 . S
H3508 C3531 0.980 . S
H3509 C3533 0.950 . S
H3510 C3534 0.950 . S
H3511 C3535 0.951 . S
H3512 C3537 0.951 . S
H3513 C3539 0.950 . S
H3514 C3540 0.950 . S
H3515 C3542 0.950 . S
H3516 C3545 0.950 . S
H3517 C3546 0.950 . S
H3518 C3548 0.950 . S
H3519 C3549 0.950 . S
C3520 H3502 0.951 . S
C3520 C3521 1.366 . S
C3520 C3522 1.388 1_455 S
C3521 C3520 1.366 . S
C3521 C3525 1.385 . S
C3522 H3503 0.951 . S
C3522 C3520 1.388 1_655 S
C3522 C3523 1.366 . S
C3523 C3522 1.366 . S
C3523 C3524 1.414 1_655 S
C3523 C3526 1.499 . S
C3524 H3504 0.950 . S
C3524 C3523 1.414 1_455 S
C3524 C3525 1.374 . S
C3525 H3505 0.950 . S
C3525 C3521 1.385 . S
C3525 C3524 1.374 . S
C3526 C3523 1.499 . S
C3526 C3527 1.373 . S
C3526 C3528 1.389 . S
C3527 H3506 0.950 . S
C3527 C3526 1.373 . S
C3527 C3543 1.377 . S
C3528 C3526 1.389 . S
C3528 C3529 1.524 . S
C3528 C3542 1.377 . S
C3529 C3528 1.524 . S
C3529 C3530 1.397 . S
C3529 C3534 1.363 . S
C3530 H3507 0.950 . S
C3530 C3529 1.397 . S
C3530 C3531 1.334 . S
C3531 H3508 0.980 . S
C3531 C3530 1.334 . S
C3531 C3532 1.287 . S
C3532 C3531 1.287 . S
C3532 C3533 1.524 . S
C3532 H3551 0.913 . S
C3533 H3509 0.950 . S
C3533 C3532 1.524 . S
C3533 C3534 1.415 . S
C3534 H3510 0.950 . S
C3534 C3529 1.363 . S
C3534 C3533 1.415 . S
C3535 H3511 0.951 . S
C3535 C3536 1.366 . S
C3535 C3537 1.388 . S
C3536 C3535 1.366 . S
C3536 C3540 1.385 . S
C3537 H3512 0.951 . S
C3537 C3535 1.388 . S
C3537 C3538 1.366 . S
C3538 C3537 1.366 . S
C3538 C3539 1.414 . S
C3538 C3541 1.499 . S
C3539 H3513 0.950 . S
C3539 C3538 1.414 . S
C3539 C3540 1.374 . S
C3540 H3514 0.950 . S
C3540 C3536 1.385 . S
C3540 C3539 1.374 . S
C3541 C3538 1.499 . S
C3541 C3542 1.373 . S
C3541 C3543 1.389 . S
C3542 H3515 0.950 . S
C3542 C3528 1.377 . S
C3542 C3541 1.373 . S
C3543 C3527 1.377 . S
C3543 C3541 1.389 . S
C3543 C3544 1.524 . S
C3544 C3543 1.524 . S
C3544 C3545 1.397 . S
C3544 C3549 1.363 . S
C3545 H3516 0.950 . S
C3545 C3544 1.397 . S
C3545 C3546 1.334 . S
C3546 H3517 0.950 . S
C3546 C3545 1.334 . S
C3546 C3547 1.287 . S
C3547 C3546 1.287 . S
C3547 C3548 1.524 . S
C3547 H3550 0.999 . S
C3548 H3518 0.950 . S
C3548 C3547 1.524 . S
C3548 C3549 1.415 . S
C3549 H3519 0.950 . S
C3549 C3544 1.363 . S
C3549 C3548 1.415 . S
H3550 C3547 0.999 . S
H3551 C3532 0.913 . S
H3552 C3570 0.951 . S
H3553 C3572 0.951 . S
H3554 C3574 0.950 . S
H3555 C3575 0.950 . S
H3556 C3577 0.950 . S
H3557 C3580 0.950 . S
H3558 C3581 0.950 . S
H3559 C3583 0.950 . S
H3560 C3584 0.950 . S
H3561 C3585 0.951 . S
H3562 C3587 0.951 . S
H3563 C3589 0.950 . S
H3564 C3590 0.950 . S
H3565 C3592 0.950 . S
H3566 C3595 0.950 . S
H3567 C3596 0.950 . S
H3568 C3598 0.950 . S
H3569 C3599 0.950 . S
C3570 H3552 0.951 . S
C3570 C3571 1.366 . S
C3570 C3572 1.388 . S
C3571 C3570 1.366 . S
C3571 C3575 1.385 . S
C3572 H3553 0.951 . S
C3572 C3570 1.388 . S
C3572 C3573 1.366 . S
C3573 C3572 1.366 . S
C3573 C3574 1.414 . S
C3573 C3576 1.499 . S
C3574 H3554 0.950 . S
C3574 C3573 1.414 . S
C3574 C3575 1.374 . S
C3575 H3555 0.950 . S
C3575 C3571 1.385 . S
C3575 C3574 1.374 . S
C3576 C3573 1.499 . S
C3576 C3577 1.373 . S
C3576 C3578 1.389 . S
C3577 H3556 0.950 . S
C3577 C3576 1.373 . S
C3577 C3593 1.377 . S
C3578 C3576 1.389 . S
C3578 C3579 1.524 . S
C3578 C3592 1.377 . S
C3579 C3578 1.524 . S
C3579 C3580 1.397 . S
C3579 C3584 1.363 . S
C3580 H3557 0.950 . S
C3580 C3579 1.397 . S
C3580 C3581 1.334 . S
C3581 H3558 0.950 . S
C3581 C3580 1.334 . S
C3581 C3582 1.287 . S
C3582 C3581 1.287 . S
C3582 C3583 1.524 . S
C3582 H3601 0.913 . S
C3583 H3559 0.950 . S
C3583 C3582 1.524 . S
C3583 C3584 1.415 . S
C3584 H3560 0.950 . S
C3584 C3579 1.363 . S
C3584 C3583 1.415 . S
C3585 H3561 0.951 . S
C3585 C3586 1.366 . S
C3585 C3587 1.388 . S
C3586 C3585 1.366 . S
C3586 C3590 1.385 . S
C3587 H3562 0.951 . S
C3587 C3585 1.388 . S
C3587 C3588 1.366 . S
C3588 C3587 1.366 . S
C3588 C3589 1.414 . S
C3588 C3591 1.499 . S
C3589 H3563 0.950 . S
C3589 C3588 1.414 . S
C3589 C3590 1.374 . S
C3590 H3564 0.950 . S
C3590 C3586 1.385 . S
C3590 C3589 1.374 . S
C3591 C3588 1.499 . S
C3591 C3592 1.373 . S
C3591 C3593 1.389 . S
C3592 H3565 0.950 . S
C3592 C3578 1.377 . S
C3592 C3591 1.373 . S
C3593 C3577 1.377 . S
C3593 C3591 1.389 . S
C3593 C3594 1.524 . S
C3594 C3593 1.524 . S
C3594 C3595 1.397 . S
C3594 C3599 1.363 . S
C3595 H3566 0.950 . S
C3595 C3594 1.397 . S
C3595 C3596 1.334 . S
C3596 H3567 0.950 . S
C3596 C3595 1.334 . S
C3596 C3597 1.287 . S
C3597 C3596 1.287 . S
C3597 C3598 1.524 . S
C3597 H3600 0.999 . S
C3598 H3568 0.950 . S
C3598 C3597 1.524 . S
C3598 C3599 1.415 . S
C3599 H3569 0.950 . S
C3599 C3594 1.363 . S
C3599 C3598 1.415 . S
H3600 C3597 0.999 . S
H3601 C3582 0.913 . S
H3602 C3620 0.951 . S
H3603 C3622 0.951 . S
H3604 C3624 0.950 . S
H3605 C3625 0.950 . S
H3606 C3627 0.950 . S
H3607 C3630 0.950 . S
H3608 C3631 0.950 . S
H3609 C3633 0.950 . S
H3610 C3634 0.950 . S
H3611 C3635 0.951 . S
H3612 C3637 0.951 . S
H3613 C3639 0.950 . S
H3614 C3640 0.950 . S
H3615 C3642 0.950 . S
H3616 C3645 0.950 . S
H3617 C3646 0.950 . S
H3618 C3648 0.950 . S
H3619 C3649 0.950 . S
C3620 H3602 0.951 . S
C3620 C3621 1.366 . S
C3620 C3622 1.388 . S
C3621 C3620 1.366 . S
C3621 C3625 1.385 . S
C3622 H3603 0.951 . S
C3622 C3620 1.388 . S
C3622 C3623 1.366 . S
C3623 C3622 1.366 . S
C3623 C3624 1.414 . S
C3623 C3626 1.499 . S
C3624 H3604 0.950 . S
C3624 C3623 1.414 . S
C3624 C3625 1.374 . S
C3625 H3605 0.950 . S
C3625 C3621 1.385 . S
C3625 C3624 1.374 . S
C3626 C3623 1.499 . S
C3626 C3627 1.373 . S
C3626 C3628 1.389 . S
C3627 H3606 0.950 . S
C3627 C3626 1.373 . S
C3627 C3643 1.377 . S
C3628 C3626 1.389 . S
C3628 C3629 1.524 . S
C3628 C3642 1.377 . S
C3629 C3628 1.524 . S
C3629 C3630 1.397 . S
C3629 C3634 1.363 . S
C3630 H3607 0.950 . S
C3630 C3629 1.397 . S
C3630 C3631 1.334 . S
C3631 H3608 0.950 . S
C3631 C3630 1.334 . S
C3631 C3632 1.287 . S
C3632 C3631 1.287 . S
C3632 C3633 1.524 . S
C3632 H3651 0.913 . S
C3633 H3609 0.950 . S
C3633 C3632 1.524 . S
C3633 C3634 1.415 . S
C3634 H3610 0.950 . S
C3634 C3629 1.363 . S
C3634 C3633 1.415 . S
C3635 H3611 0.951 . S
C3635 C3636 1.366 . S
C3635 C3637 1.388 . S
C3636 C3635 1.366 . S
C3636 C3640 1.385 . S
C3637 H3612 0.951 . S
C3637 C3635 1.388 . S
C3637 C3638 1.366 . S
C3638 C3637 1.366 . S
C3638 C3639 1.414 . S
C3638 C3641 1.499 . S
C3639 H3613 0.950 . S
C3639 C3638 1.414 . S
C3639 C3640 1.374 . S
C3640 H3614 0.950 . S
C3640 C3636 1.385 . S
C3640 C3639 1.374 . S
C3641 C3638 1.499 . S
C3641 C3642 1.373 . S
C3641 C3643 1.389 . S
C3642 H3615 0.950 . S
C3642 C3628 1.377 . S
C3642 C3641 1.373 . S
C3643 C3627 1.377 . S
C3643 C3641 1.389 . S
C3643 C3644 1.524 . S
C3644 C3643 1.524 . S
C3644 C3645 1.397 . S
C3644 C3649 1.363 . S
C3645 H3616 0.950 . S
C3645 C3644 1.397 . S
C3645 C3646 1.334 . S
C3646 H3617 0.950 . S
C3646 C3645 1.334 . S
C3646 C3647 1.287 . S
C3647 C3646 1.287 . S
C3647 C3648 1.524 . S
C3647 H3650 0.999 . S
C3648 H3618 0.950 . S
C3648 C3647 1.524 . S
C3648 C3649 1.415 . S
C3649 H3619 0.950 . S
C3649 C3644 1.363 . S
C3649 C3648 1.415 . S
H3650 C3647 0.999 . S
H3651 C3632 0.913 . S
H3652 C3670 0.951 1_655 S
H3653 C3672 0.951 1_655 S
H3654 C3674 0.950 . S
H3655 C3675 0.950 . S
H3656 C3677 0.950 . S
H3657 C3680 0.950 . S
H3658 C3681 0.950 . S
H3659 C3683 0.950 . S
H3660 C3684 0.950 . S
H3661 C3685 0.951 . S
H3662 C3687 0.951 . S
H3663 C3689 0.950 1_655 S
H3664 C3690 0.950 1_655 S
H3665 C3692 0.950 . S
H3666 C3695 0.950 . S
H3667 C3696 0.950 . S
H3668 C3698 0.950 . S
H3669 C3699 0.950 . S
C3670 H3652 0.951 1_455 S
C3670 C3671 1.366 . S
C3670 C3672 1.388 . S
C3671 C3670 1.366 . S
C3671 C3675 1.385 . S
C3672 H3653 0.951 1_455 S
C3672 C3670 1.388 . S
C3672 C3673 1.366 . S
C3673 C3672 1.366 . S
C3673 C3674 1.414 . S
C3673 C3676 1.499 . S
C3674 H3654 0.950 . S
C3674 C3673 1.414 . S
C3674 C3675 1.374 . S
C3675 H3655 0.950 . S
C3675 C3671 1.385 . S
C3675 C3674 1.374 . S
C3676 C3673 1.499 . S
C3676 C3677 1.373 . S
C3676 C3678 1.389 . S
C3677 H3656 0.950 . S
C3677 C3676 1.373 . S
C3677 C3693 1.377 . S
C3678 C3676 1.389 . S
C3678 C3679 1.524 . S
C3678 C3692 1.377 . S
C3679 C3678 1.524 . S
C3679 C3680 1.397 . S
C3679 C3684 1.363 1_455 S
C3680 H3657 0.950 . S
C3680 C3679 1.397 . S
C3680 C3681 1.334 . S
C3681 H3658 0.950 . S
C3681 C3680 1.334 . S
C3681 C3682 1.287 1_455 S
C3682 C3681 1.287 1_655 S
C3682 C3683 1.524 . S
C3682 H3701 0.913 . S
C3683 H3659 0.950 . S
C3683 C3682 1.524 . S
C3683 C3684 1.415 . S
C3684 H3660 0.950 . S
C3684 C3679 1.363 1_655 S
C3684 C3683 1.415 . S
C3685 H3661 0.951 . S
C3685 C3686 1.366 . S
C3685 C3687 1.388 . S
C3686 C3685 1.366 . S
C3686 C3690 1.385 . S
C3687 H3662 0.951 . S
C3687 C3685 1.388 . S
C3687 C3688 1.366 . S
C3688 C3687 1.366 . S
C3688 C3689 1.414 . S
C3688 C3691 1.499 . S
C3689 H3663 0.950 1_455 S
C3689 C3688 1.414 . S
C3689 C3690 1.374 . S
C3690 H3664 0.950 1_455 S
C3690 C3686 1.385 . S
C3690 C3689 1.374 . S
C3691 C3688 1.499 . S
C3691 C3692 1.373 . S
C3691 C3693 1.389 . S
C3692 H3665 0.950 . S
C3692 C3678 1.377 . S
C3692 C3691 1.373 . S
C3693 C3677 1.377 . S
C3693 C3691 1.389 . S
C3693 C3694 1.524 . S
C3694 C3693 1.524 . S
C3694 C3695 1.397 . S
C3694 C3699 1.363 . S
C3695 H3666 0.950 . S
C3695 C3694 1.397 . S
C3695 C3696 1.334 . S
C3696 H3667 0.950 . S
C3696 C3695 1.334 . S
C3696 C3697 1.287 . S
C3697 C3696 1.287 . S
C3697 C3698 1.524 . S
C3697 H3700 0.999 . S
C3698 H3668 0.950 . S
C3698 C3697 1.524 . S
C3698 C3699 1.415 . S
C3699 H3669 0.950 . S
C3699 C3694 1.363 . S
C3699 C3698 1.415 . S
H3700 C3697 0.999 . S
H3701 C3682 0.913 . S
H3702 C3720 0.951 . S
H3703 C3722 0.951 . S
H3704 C3724 0.950 . S
H3705 C3725 0.950 . S
H3706 C3727 0.950 . S
H3707 C3730 0.950 . S
H3708 C3731 0.950 . S
H3709 C3733 0.950 . S
H3710 C3734 0.950 . S
H3711 C3735 0.951 . S
H3712 C3737 0.951 . S
H3713 C3739 0.950 . S
H3714 C3740 0.950 . S
H3715 C3742 0.950 . S
H3716 C3745 0.950 . S
H3717 C3746 0.950 . S
H3718 C3748 0.950 . S
H3719 C3749 0.950 . S
C3720 H3702 0.951 . S
C3720 C3721 1.366 . S
C3720 C3722 1.388 . S
C3721 C3720 1.366 . S
C3721 C3725 1.385 . S
C3722 H3703 0.951 . S
C3722 C3720 1.388 . S
C3722 C3723 1.366 . S
C3723 C3722 1.366 . S
C3723 C3724 1.414 . S
C3723 C3726 1.499 . S
C3724 H3704 0.950 . S
C3724 C3723 1.414 . S
C3724 C3725 1.374 . S
C3725 H3705 0.950 . S
C3725 C3721 1.385 . S
C3725 C3724 1.374 . S
C3726 C3723 1.499 . S
C3726 C3727 1.373 . S
C3726 C3728 1.389 . S
C3727 H3706 0.950 . S
C3727 C3726 1.373 . S
C3727 C3743 1.377 . S
C3728 C3726 1.389 . S
C3728 C3729 1.524 . S
C3728 C3742 1.377 . S
C3729 C3728 1.524 . S
C3729 C3730 1.397 . S
C3729 C3734 1.363 . S
C3730 H3707 0.950 . S
C3730 C3729 1.397 . S
C3730 C3731 1.334 . S
C3731 H3708 0.950 . S
C3731 C3730 1.334 . S
C3731 C3732 1.287 . S
C3732 C3731 1.287 . S
C3732 C3733 1.524 . S
C3732 H3751 0.913 . S
C3733 H3709 0.950 . S
C3733 C3732 1.524 . S
C3733 C3734 1.415 . S
C3734 H3710 0.950 . S
C3734 C3729 1.363 . S
C3734 C3733 1.415 . S
C3735 H3711 0.951 . S
C3735 C3736 1.366 . S
C3735 C3737 1.388 . S
C3736 C3735 1.366 . S
C3736 C3740 1.385 . S
C3737 H3712 0.951 . S
C3737 C3735 1.388 . S
C3737 C3738 1.366 . S
C3738 C3737 1.366 . S
C3738 C3739 1.414 . S
C3738 C3741 1.499 . S
C3739 H3713 0.950 . S
C3739 C3738 1.414 . S
C3739 C3740 1.374 . S
C3740 H3714 0.950 . S
C3740 C3736 1.385 . S
C3740 C3739 1.374 . S
C3741 C3738 1.499 . S
C3741 C3742 1.373 . S
C3741 C3743 1.389 . S
C3742 H3715 0.950 . S
C3742 C3728 1.377 . S
C3742 C3741 1.373 . S
C3743 C3727 1.377 . S
C3743 C3741 1.389 . S
C3743 C3744 1.524 . S
C3744 C3743 1.524 . S
C3744 C3745 1.397 . S
C3744 C3749 1.363 . S
C3745 H3716 0.950 . S
C3745 C3744 1.397 . S
C3745 C3746 1.334 . S
C3746 H3717 0.950 . S
C3746 C3745 1.334 . S
C3746 C3747 1.287 . S
C3747 C3746 1.287 . S
C3747 C3748 1.524 . S
C3747 H3750 0.999 . S
C3748 H3718 0.950 . S
C3748 C3747 1.524 . S
C3748 C3749 1.415 . S
C3749 H3719 0.950 . S
C3749 C3744 1.363 . S
C3749 C3748 1.415 . S
H3750 C3747 0.999 . S
H3751 C3732 0.913 . S
H3752 C3770 0.951 . S
H3753 C3772 0.951 . S
H3754 C3774 0.950 . S
H3755 C3775 0.950 . S
H3756 C3777 0.950 . S
H3757 C3780 0.950 . S
H3758 C3781 0.950 . S
H3759 C3783 0.950 . S
H3760 C3784 0.950 . S
H3761 C3785 0.951 . S
H3762 C3787 0.951 . S
H3763 C3789 0.950 . S
H3764 C3790 0.950 . S
H3765 C3792 0.950 . S
H3766 C3795 0.950 . S
H3767 C3796 0.950 . S
H3768 C3798 0.950 . S
H3769 C3799 0.950 . S
C3770 H3752 0.951 . S
C3770 C3771 1.366 . S
C3770 C3772 1.388 . S
C3771 C3770 1.366 . S
C3771 C3775 1.385 . S
C3772 H3753 0.951 . S
C3772 C3770 1.388 . S
C3772 C3773 1.366 . S
C3773 C3772 1.366 . S
C3773 C3774 1.414 . S
C3773 C3776 1.499 . S
C3774 H3754 0.950 . S
C3774 C3773 1.414 . S
C3774 C3775 1.374 . S
C3775 H3755 0.950 . S
C3775 C3771 1.385 . S
C3775 C3774 1.374 . S
C3776 C3773 1.499 . S
C3776 C3777 1.373 . S
C3776 C3778 1.389 . S
C3777 H3756 0.950 . S
C3777 C3776 1.373 . S
C3777 C3793 1.377 . S
C3778 C3776 1.389 . S
C3778 C3779 1.524 . S
C3778 C3792 1.377 . S
C3779 C3778 1.524 . S
C3779 C3780 1.397 . S
C3779 C3784 1.363 . S
C3780 H3757 0.950 . S
C3780 C3779 1.397 . S
C3780 C3781 1.334 . S
C3781 H3758 0.950 . S
C3781 C3780 1.334 . S
C3781 C3782 1.287 . S
C3782 C3781 1.287 . S
C3782 C3783 1.524 . S
C3782 H3801 0.913 . S
C3783 H3759 0.950 . S
C3783 C3782 1.524 . S
C3783 C3784 1.415 . S
C3784 H3760 0.950 . S
C3784 C3779 1.363 . S
C3784 C3783 1.415 . S
C3785 H3761 0.951 . S
C3785 C3786 1.366 . S
C3785 C3787 1.388 . S
C3786 C3785 1.366 . S
C3786 C3790 1.385 . S
C3787 H3762 0.951 . S
C3787 C3785 1.388 . S
C3787 C3788 1.366 . S
C3788 C3787 1.366 . S
C3788 C3789 1.414 . S
C3788 C3791 1.499 . S
C3789 H3763 0.950 . S
C3789 C3788 1.414 . S
C3789 C3790 1.374 . S
C3790 H3764 0.950 . S
C3790 C3786 1.385 . S
C3790 C3789 1.374 . S
C3791 C3788 1.499 . S
C3791 C3792 1.373 . S
C3791 C3793 1.389 . S
C3792 H3765 0.950 . S
C3792 C3778 1.377 . S
C3792 C3791 1.373 . S
C3793 C3777 1.377 . S
C3793 C3791 1.389 . S
C3793 C3794 1.524 . S
C3794 C3793 1.524 . S
C3794 C3795 1.397 . S
C3794 C3799 1.363 . S
C3795 H3766 0.950 . S
C3795 C3794 1.397 . S
C3795 C3796 1.334 . S
C3796 H3767 0.950 . S
C3796 C3795 1.334 . S
C3796 C3797 1.287 . S
C3797 C3796 1.287 . S
C3797 C3798 1.524 . S
C3797 H3800 0.999 . S
C3798 H3768 0.950 . S
C3798 C3797 1.524 . S
C3798 C3799 1.415 . S
C3799 H3769 0.950 . S
C3799 C3794 1.363 . S
C3799 C3798 1.415 . S
H3800 C3797 0.999 . S
H3801 C3782 0.913 . S
H3802 C3820 0.951 . S
H3803 C3822 0.951 . S
H3804 C3824 0.950 . S
H3805 C3825 0.950 . S
H3806 C3827 0.950 . S
H3807 C3830 0.950 . S
H3808 C3831 0.950 . S
H3809 C3833 0.950 . S
H3810 C3834 0.950 . S
H3811 C3835 0.951 . S
H3812 C3837 0.951 . S
H3813 C3839 0.950 . S
H3814 C3840 0.950 . S
H3815 C3842 0.950 . S
H3816 C3845 0.950 . S
H3817 C3846 0.950 . S
H3818 C3848 0.950 . S
H3819 C3849 0.950 . S
C3820 H3802 0.951 . S
C3820 C3821 1.366 . S
C3820 C3822 1.388 . S
C3821 C3820 1.366 . S
C3821 C3825 1.385 . S
C3822 H3803 0.951 . S
C3822 C3820 1.388 . S
C3822 C3823 1.366 . S
C3823 C3822 1.366 . S
C3823 C3824 1.414 . S
C3823 C3826 1.499 . S
C3824 H3804 0.950 . S
C3824 C3823 1.414 . S
C3824 C3825 1.374 . S
C3825 H3805 0.950 . S
C3825 C3821 1.385 . S
C3825 C3824 1.374 . S
C3826 C3823 1.499 . S
C3826 C3827 1.373 . S
C3826 C3828 1.389 . S
C3827 H3806 0.950 . S
C3827 C3826 1.373 . S
C3827 C3843 1.377 . S
C3828 C3826 1.389 . S
C3828 C3829 1.524 . S
C3828 C3842 1.377 . S
C3829 C3828 1.524 . S
C3829 C3830 1.397 . S
C3829 C3834 1.363 . S
C3830 H3807 0.950 . S
C3830 C3829 1.397 . S
C3830 C3831 1.334 . S
C3831 H3808 0.950 . S
C3831 C3830 1.334 . S
C3831 C3832 1.287 . S
C3832 C3831 1.287 . S
C3832 C3833 1.524 . S
C3832 H3851 0.913 . S
C3833 H3809 0.950 . S
C3833 C3832 1.524 . S
C3833 C3834 1.415 . S
C3834 H3810 0.950 . S
C3834 C3829 1.363 . S
C3834 C3833 1.415 . S
C3835 H3811 0.951 . S
C3835 C3836 1.366 . S
C3835 C3837 1.388 . S
C3836 C3835 1.366 . S
C3836 C3840 1.385 . S
C3837 H3812 0.951 . S
C3837 C3835 1.388 . S
C3837 C3838 1.366 . S
C3838 C3837 1.366 . S
C3838 C3839 1.414 . S
C3838 C3841 1.499 . S
C3839 H3813 0.950 . S
C3839 C3838 1.414 . S
C3839 C3840 1.374 . S
C3840 H3814 0.950 . S
C3840 C3836 1.385 . S
C3840 C3839 1.374 . S
C3841 C3838 1.499 . S
C3841 C3842 1.373 . S
C3841 C3843 1.389 . S
C3842 H3815 0.950 . S
C3842 C3828 1.377 . S
C3842 C3841 1.373 . S
C3843 C3827 1.377 . S
C3843 C3841 1.389 . S
C3843 C3844 1.524 . S
C3844 C3843 1.524 . S
C3844 C3845 1.397 . S
C3844 C3849 1.363 . S
C3845 H3816 0.950 . S
C3845 C3844 1.397 . S
C3845 C3846 1.334 . S
C3846 H3817 0.950 . S
C3846 C3845 1.334 . S
C3846 C3847 1.287 . S
C3847 C3846 1.287 . S
C3847 C3848 1.524 . S
C3847 H3850 0.999 . S
C3848 H3818 0.950 . S
C3848 C3847 1.524 . S
C3848 C3849 1.415 . S
C3849 H3819 0.950 . S
C3849 C3844 1.363 . S
C3849 C3848 1.415 . S
H3850 C3847 0.999 . S
H3851 C3832 0.913 . S
H3852 C3870 0.951 . S
H3853 C3872 0.951 . S
H3854 C3874 0.950 . S
H3855 C3875 0.950 . S
H3856 C3877 0.950 . S
H3857 C3880 0.950 . S
H3858 C3881 0.950 . S
H3859 C3883 0.950 . S
H3860 C3884 0.950 . S
H3861 C3885 0.951 . S
H3862 C3887 0.951 . S
H3863 C3889 0.950 . S
H3864 C3890 0.950 . S
H3865 C3892 0.950 . S
H3866 C3895 0.950 . S
H3867 C3896 0.950 . S
H3868 C3898 0.950 . S
H3869 C3899 0.950 . S
C3870 H3852 0.951 . S
C3870 C3871 1.366 . S
C3870 C3872 1.388 . S
C3871 C3870 1.366 . S
C3871 C3875 1.385 . S
C3872 H3853 0.951 . S
C3872 C3870 1.388 . S
C3872 C3873 1.366 . S
C3873 C3872 1.366 . S
C3873 C3874 1.414 . S
C3873 C3876 1.499 . S
C3874 H3854 0.950 . S
C3874 C3873 1.414 . S
C3874 C3875 1.374 . S
C3875 H3855 0.950 . S
C3875 C3871 1.385 . S
C3875 C3874 1.374 . S
C3876 C3873 1.499 . S
C3876 C3877 1.373 . S
C3876 C3878 1.389 . S
C3877 H3856 0.950 . S
C3877 C3876 1.373 . S
C3877 C3893 1.377 . S
C3878 C3876 1.389 . S
C3878 C3879 1.524 . S
C3878 C3892 1.377 . S
C3879 C3878 1.524 . S
C3879 C3880 1.397 . S
C3879 C3884 1.363 . S
C3880 H3857 0.950 . S
C3880 C3879 1.397 . S
C3880 C3881 1.334 . S
C3881 H3858 0.950 . S
C3881 C3880 1.334 . S
C3881 C3882 1.287 . S
C3882 C3881 1.287 . S
C3882 C3883 1.524 . S
C3882 H3901 0.913 . S
C3883 H3859 0.950 . S
C3883 C3882 1.524 . S
C3883 C3884 1.415 . S
C3884 H3860 0.950 . S
C3884 C3879 1.363 . S
C3884 C3883 1.415 . S
C3885 H3861 0.951 . S
C3885 C3886 1.366 . S
C3885 C3887 1.388 . S
C3886 C3885 1.366 . S
C3886 C3890 1.385 . S
C3887 H3862 0.951 . S
C3887 C3885 1.388 . S
C3887 C3888 1.366 . S
C3888 C3887 1.366 . S
C3888 C3889 1.414 . S
C3888 C3891 1.499 . S
C3889 H3863 0.950 . S
C3889 C3888 1.414 . S
C3889 C3890 1.374 . S
C3890 H3864 0.950 . S
C3890 C3886 1.385 . S
C3890 C3889 1.374 . S
C3891 C3888 1.499 . S
C3891 C3892 1.373 . S
C3891 C3893 1.389 . S
C3892 H3865 0.950 . S
C3892 C3878 1.377 . S
C3892 C3891 1.373 . S
C3893 C3877 1.377 . S
C3893 C3891 1.389 . S
C3893 C3894 1.524 . S
C3894 C3893 1.524 . S
C3894 C3895 1.397 . S
C3894 C3899 1.363 . S
C3895 H3866 0.950 . S
C3895 C3894 1.397 . S
C3895 C3896 1.334 . S
C3896 H3867 0.950 . S
C3896 C3895 1.334 . S
C3896 C3897 1.287 . S
C3897 C3896 1.287 . S
C3897 C3898 1.524 . S
C3897 H3900 0.999 . S
C3898 H3868 0.950 . S
C3898 C3897 1.524 . S
C3898 C3899 1.415 . S
C3899 H3869 0.950 . S
C3899 C3894 1.363 . S
C3899 C3898 1.415 . S
H3900 C3897 0.999 . S
H3901 C3882 0.913 . S
H3902 C3920 0.951 . S
H3903 C3922 0.951 . S
H3904 C3924 0.950 . S
H3905 C3925 0.950 . S
H3906 C3927 0.950 . S
H3907 C3930 0.950 . S
H3908 C3931 0.950 . S
H3909 C3933 0.950 . S
H3910 C3934 0.950 . S
H3911 C3935 0.951 . S
H3912 C3937 0.951 . S
H3913 C3939 0.950 . S
H3914 C3940 0.950 . S
H3915 C3942 0.950 . S
H3916 C3945 0.950 . S
H3917 C3946 0.950 . S
H3918 C3948 0.950 . S
H3919 C3949 0.950 . S
C3920 H3902 0.951 . S
C3920 C3921 1.366 . S
C3920 C3922 1.388 . S
C3921 C3920 1.366 . S
C3921 C3925 1.385 . S
C3922 H3903 0.951 . S
C3922 C3920 1.388 . S
C3922 C3923 1.366 . S
C3923 C3922 1.366 . S
C3923 C3924 1.414 . S
C3923 C3926 1.499 . S
C3924 H3904 0.950 . S
C3924 C3923 1.414 . S
C3924 C3925 1.374 . S
C3925 H3905 0.950 . S
C3925 C3921 1.385 . S
C3925 C3924 1.374 . S
C3926 C3923 1.499 . S
C3926 C3927 1.373 . S
C3926 C3928 1.389 . S
C3927 H3906 0.950 . S
C3927 C3926 1.373 . S
C3927 C3943 1.377 . S
C3928 C3926 1.389 . S
C3928 C3929 1.524 . S
C3928 C3942 1.377 . S
C3929 C3928 1.524 . S
C3929 C3930 1.397 . S
C3929 C3934 1.363 . S
C3930 H3907 0.950 . S
C3930 C3929 1.397 . S
C3930 C3931 1.334 . S
C3931 H3908 0.950 . S
C3931 C3930 1.334 . S
C3931 C3932 1.287 . S
C3932 C3931 1.287 . S
C3932 C3933 1.524 . S
C3932 H3951 0.913 . S
C3933 H3909 0.950 . S
C3933 C3932 1.524 . S
C3933 C3934 1.415 . S
C3934 H3910 0.950 . S
C3934 C3929 1.363 . S
C3934 C3933 1.415 . S
C3935 H3911 0.951 . S
C3935 C3936 1.366 . S
C3935 C3937 1.388 . S
C3936 C3935 1.366 . S
C3936 C3940 1.385 . S
C3937 H3912 0.951 . S
C3937 C3935 1.388 . S
C3937 C3938 1.366 . S
C3938 C3937 1.366 . S
C3938 C3939 1.414 . S
C3938 C3941 1.499 . S
C3939 H3913 0.950 . S
C3939 C3938 1.414 . S
C3939 C3940 1.374 . S
C3940 H3914 0.950 . S
C3940 C3936 1.385 . S
C3940 C3939 1.374 . S
C3941 C3938 1.499 . S
C3941 C3942 1.373 . S
C3941 C3943 1.389 . S
C3942 H3915 0.950 . S
C3942 C3928 1.377 . S
C3942 C3941 1.373 . S
C3943 C3927 1.377 . S
C3943 C3941 1.389 . S
C3943 C3944 1.524 . S
C3944 C3943 1.524 . S
C3944 C3945 1.397 . S
C3944 C3949 1.363 . S
C3945 H3916 0.950 . S
C3945 C3944 1.397 . S
C3945 C3946 1.334 . S
C3946 H3917 0.950 . S
C3946 C3945 1.334 . S
C3946 C3947 1.287 . S
C3947 C3946 1.287 . S
C3947 C3948 1.524 . S
C3947 H3950 0.999 . S
C3948 H3918 0.950 . S
C3948 C3947 1.524 . S
C3948 C3949 1.415 . S
C3949 H3919 0.950 . S
C3949 C3944 1.363 . S
C3949 C3948 1.415 . S
H3950 C3947 0.999 . S
H3951 C3932 0.913 . S
H3952 C3970 0.951 . S
H3953 C3972 0.951 . S
H3954 C3974 0.950 . S
H3955 C3975 0.950 . S
H3956 C3977 0.950 . S
H3957 C3980 0.950 . S
H3958 C3981 0.950 . S
H3959 C3983 0.950 . S
H3960 C3984 0.950 . S
H3961 C3985 0.951 . S
H3962 C3987 0.951 . S
H3963 C3989 0.950 . S
H3964 C3990 0.950 . S
H3965 C3992 0.950 . S
H3966 C3995 0.950 . S
H3967 C3996 0.950 . S
H3968 C3998 0.950 . S
H3969 C3999 0.950 . S
C3970 H3952 0.951 . S
C3970 C3971 1.366 . S
C3970 C3972 1.388 . S
C3971 C3970 1.366 . S
C3971 C3975 1.385 . S
C3972 H3953 0.951 . S
C3972 C3970 1.388 . S
C3972 C3973 1.366 . S
C3973 C3972 1.366 . S
C3973 C3974 1.414 . S
C3973 C3976 1.499 . S
C3974 H3954 0.950 . S
C3974 C3973 1.414 . S
C3974 C3975 1.374 . S
C3975 H3955 0.950 . S
C3975 C3971 1.385 . S
C3975 C3974 1.374 . S
C3976 C3973 1.499 . S
C3976 C3977 1.373 . S
C3976 C3978 1.389 . S
C3977 H3956 0.950 . S
C3977 C3976 1.373 . S
C3977 C3993 1.377 . S
C3978 C3976 1.389 . S
C3978 C3979 1.524 . S
C3978 C3992 1.377 . S
C3979 C3978 1.524 . S
C3979 C3980 1.397 . S
C3979 C3984 1.363 . S
C3980 H3957 0.950 . S
C3980 C3979 1.397 . S
C3980 C3981 1.334 . S
C3981 H3958 0.950 . S
C3981 C3980 1.334 . S
C3981 C3982 1.287 . S
C3982 C3981 1.287 . S
C3982 C3983 1.524 . S
C3982 H4001 0.913 . S
C3983 H3959 0.950 . S
C3983 C3982 1.524 . S
C3983 C3984 1.415 . S
C3984 H3960 0.950 . S
C3984 C3979 1.363 . S
C3984 C3983 1.415 . S
C3985 H3961 0.951 . S
C3985 C3986 1.366 . S
C3985 C3987 1.388 . S
C3986 C3985 1.366 . S
C3986 C3990 1.385 . S
C3987 H3962 0.951 . S
C3987 C3985 1.388 . S
C3987 C3988 1.366 . S
C3988 C3987 1.366 . S
C3988 C3989 1.414 . S
C3988 C3991 1.499 . S
C3989 H3963 0.950 . S
C3989 C3988 1.414 . S
C3989 C3990 1.374 . S
C3990 H3964 0.950 . S
C3990 C3986 1.385 . S
C3990 C3989 1.374 . S
C3991 C3988 1.499 . S
C3991 C3992 1.373 . S
C3991 C3993 1.389 . S
C3992 H3965 0.950 . S
C3992 C3978 1.377 . S
C3992 C3991 1.373 . S
C3993 C3977 1.377 . S
C3993 C3991 1.389 . S
C3993 C3994 1.524 . S
C3994 C3993 1.524 . S
C3994 C3995 1.397 . S
C3994 C3999 1.363 . S
C3995 H3966 0.950 . S
C3995 C3994 1.397 . S
C3995 C3996 1.334 . S
C3996 H3967 0.950 . S
C3996 C3995 1.334 . S
C3996 C3997 1.287 . S
C3997 C3996 1.287 . S
C3997 C3998 1.524 . S
C3997 H4000 0.999 . S
C3998 H3968 0.950 . S
C3998 C3997 1.524 . S
C3998 C3999 1.415 . S
C3999 H3969 0.950 . S
C3999 C3994 1.363 . S
C3999 C3998 1.415 . S
H4000 C3997 0.999 . S
H4001 C3982 0.913 . S
H4002 C4020 0.951 . S
H4003 C4022 0.951 . S
H4004 C4024 0.950 . S
H4005 C4025 0.950 . S
H4006 C4027 0.950 . S
H4007 C4030 0.950 . S
H4008 C4031 0.950 . S
H4009 C4033 0.950 . S
H4010 C4034 0.950 . S
H4011 C4035 0.951 . S
H4012 C4037 0.951 . S
H4013 C4039 0.950 . S
H4014 C4040 0.950 . S
H4015 C4042 0.950 . S
H4016 C4045 0.950 . S
H4017 C4046 0.950 . S
H4018 C4048 0.950 . S
H4019 C4049 0.950 . S
C4020 H4002 0.951 . S
C4020 C4021 1.366 . S
C4020 C4022 1.388 . S
C4021 C4020 1.366 . S
C4021 C4025 1.385 . S
C4022 H4003 0.951 . S
C4022 C4020 1.388 . S
C4022 C4023 1.366 . S
C4023 C4022 1.366 . S
C4023 C4024 1.414 . S
C4023 C4026 1.499 . S
C4024 H4004 0.950 . S
C4024 C4023 1.414 . S
C4024 C4025 1.374 . S
C4025 H4005 0.950 . S
C4025 C4021 1.385 . S
C4025 C4024 1.374 . S
C4026 C4023 1.499 . S
C4026 C4027 1.373 . S
C4026 C4028 1.389 . S
C4027 H4006 0.950 . S
C4027 C4026 1.373 . S
C4027 C4043 1.377 . S
C4028 C4026 1.389 . S
C4028 C4029 1.524 . S
C4028 C4042 1.377 . S
C4029 C4028 1.524 . S
C4029 C4030 1.397 . S
C4029 C4034 1.363 . S
C4030 H4007 0.950 . S
C4030 C4029 1.397 . S
C4030 C4031 1.334 . S
C4031 H4008 0.950 . S
C4031 C4030 1.334 . S
C4031 C4032 1.287 . S
C4032 C4031 1.287 . S
C4032 C4033 1.524 . S
C4032 H4051 0.913 . S
C4033 H4009 0.950 . S
C4033 C4032 1.524 . S
C4033 C4034 1.415 . S
C4034 H4010 0.950 . S
C4034 C4029 1.363 . S
C4034 C4033 1.415 . S
C4035 H4011 0.951 . S
C4035 C4036 1.366 . S
C4035 C4037 1.388 . S
C4036 C4035 1.366 . S
C4036 C4040 1.385 . S
C4037 H4012 0.951 . S
C4037 C4035 1.388 . S
C4037 C4038 1.366 . S
C4038 C4037 1.366 . S
C4038 C4039 1.414 . S
C4038 C4041 1.499 . S
C4039 H4013 0.950 . S
C4039 C4038 1.414 . S
C4039 C4040 1.374 . S
C4040 H4014 0.950 . S
C4040 C4036 1.385 . S
C4040 C4039 1.374 . S
C4041 C4038 1.499 . S
C4041 C4042 1.373 . S
C4041 C4043 1.389 . S
C4042 H4015 0.950 . S
C4042 C4028 1.377 . S
C4042 C4041 1.373 . S
C4043 C4027 1.377 . S
C4043 C4041 1.389 . S
C4043 C4044 1.524 . S
C4044 C4043 1.524 . S
C4044 C4045 1.397 . S
C4044 C4049 1.363 . S
C4045 H4016 0.950 . S
C4045 C4044 1.397 . S
C4045 C4046 1.334 . S
C4046 H4017 0.950 . S
C4046 C4045 1.334 . S
C4046 C4047 1.287 . S
C4047 C4046 1.287 . S
C4047 C4048 1.524 . S
C4047 H4050 0.999 . S
C4048 H4018 0.950 . S
C4048 C4047 1.524 . S
C4048 C4049 1.415 . S
C4049 H4019 0.950 . S
C4049 C4044 1.363 . S
C4049 C4048 1.415 . S
H4050 C4047 0.999 . S
H4051 C4032 0.913 . S
H4052 C4070 0.951 . S
H4053 C4072 0.951 . S
H4054 C4074 0.950 . S
H4055 C4075 0.950 . S
H4056 C4077 0.950 . S
H4057 C4080 0.950 . S
H4058 C4081 0.950 . S
H4059 C4083 0.950 . S
H4060 C4084 0.950 . S
H4061 C4085 0.951 . S
H4062 C4087 0.951 . S
H4063 C4089 0.950 . S
H4064 C4090 0.950 . S
H4065 C4092 0.950 . S
H4066 C4095 0.950 . S
H4067 C4096 0.950 . S
H4068 C4098 0.950 . S
H4069 C4099 0.950 . S
C4070 H4052 0.951 . S
C4070 C4071 1.366 . S
C4070 C4072 1.388 . S
C4071 C4070 1.366 . S
C4071 C4075 1.385 . S
C4072 H4053 0.951 . S
C4072 C4070 1.388 . S
C4072 C4073 1.366 . S
C4073 C4072 1.366 . S
C4073 C4074 1.414 . S
C4073 C4076 1.499 . S
C4074 H4054 0.950 . S
C4074 C4073 1.414 . S
C4074 C4075 1.374 . S
C4075 H4055 0.950 . S
C4075 C4071 1.385 . S
C4075 C4074 1.374 . S
C4076 C4073 1.499 . S
C4076 C4077 1.373 . S
C4076 C4078 1.389 . S
C4077 H4056 0.950 . S
C4077 C4076 1.373 . S
C4077 C4093 1.377 . S
C4078 C4076 1.389 . S
C4078 C4079 1.524 . S
C4078 C4092 1.377 . S
C4079 C4078 1.524 . S
C4079 C4080 1.397 . S
C4079 C4084 1.363 . S
C4080 H4057 0.950 . S
C4080 C4079 1.397 . S
C4080 C4081 1.334 . S
C4081 H4058 0.950 . S
C4081 C4080 1.334 . S
C4081 C4082 1.287 . S
C4082 C4081 1.287 . S
C4082 C4083 1.524 . S
C4082 H4101 0.913 . S
C4083 H4059 0.950 . S
C4083 C4082 1.524 . S
C4083 C4084 1.415 . S
C4084 H4060 0.950 . S
C4084 C4079 1.363 . S
C4084 C4083 1.415 . S
C4085 H4061 0.951 . S
C4085 C4086 1.366 . S
C4085 C4087 1.388 . S
C4086 C4085 1.366 . S
C4086 C4090 1.385 . S
C4087 H4062 0.951 . S
C4087 C4085 1.388 . S
C4087 C4088 1.366 . S
C4088 C4087 1.366 . S
C4088 C4089 1.414 . S
C4088 C4091 1.499 . S
C4089 H4063 0.950 . S
C4089 C4088 1.414 . S
C4089 C4090 1.374 . S
C4090 H4064 0.950 . S
C4090 C4086 1.385 . S
C4090 C4089 1.374 . S
C4091 C4088 1.499 . S
C4091 C4092 1.373 . S
C4091 C4093 1.389 . S
C4092 H4065 0.950 . S
C4092 C4078 1.377 . S
C4092 C4091 1.373 . S
C4093 C4077 1.377 . S
C4093 C4091 1.389 . S
C4093 C4094 1.524 . S
C4094 C4093 1.524 . S
C4094 C4095 1.397 . S
C4094 C4099 1.363 . S
C4095 H4066 0.950 . S
C4095 C4094 1.397 . S
C4095 C4096 1.334 . S
C4096 H4067 0.950 . S
C4096 C4095 1.334 . S
C4096 C4097 1.287 . S
C4097 C4096 1.287 . S
C4097 C4098 1.524 . S
C4097 H4100 0.999 . S
C4098 H4068 0.950 . S
C4098 C4097 1.524 . S
C4098 C4099 1.415 . S
C4099 H4069 0.950 . S
C4099 C4094 1.363 . S
C4099 C4098 1.415 . S
H4100 C4097 0.999 . S
H4101 C4082 0.913 . S
H4102 C4120 0.951 . S
H4103 C4122 0.951 . S
H4104 C4124 0.950 . S
H4105 C4125 0.950 . S
H4106 C4127 0.950 . S
H4107 C4130 0.950 . S
H4108 C4131 0.950 . S
H4109 C4133 0.950 . S
H4110 C4134 0.950 . S
H4111 C4135 0.951 . S
H4112 C4137 0.951 . S
H4113 C4139 0.950 . S
H4114 C4140 0.950 . S
H4115 C4142 0.950 . S
H4116 C4145 0.950 . S
H4117 C4146 0.950 . S
H4118 C4148 0.950 . S
H4119 C4149 0.950 . S
C4120 H4102 0.951 . S
C4120 C4121 1.366 . S
C4120 C4122 1.388 . S
C4121 C4120 1.366 . S
C4121 C4125 1.385 . S
C4122 H4103 0.951 . S
C4122 C4120 1.388 . S
C4122 C4123 1.366 . S
C4123 C4122 1.366 . S
C4123 C4124 1.414 . S
C4123 C4126 1.499 . S
C4124 H4104 0.950 . S
C4124 C4123 1.414 . S
C4124 C4125 1.374 . S
C4125 H4105 0.950 . S
C4125 C4121 1.385 . S
C4125 C4124 1.374 . S
C4126 C4123 1.499 . S
C4126 C4127 1.373 . S
C4126 C4128 1.389 . S
C4127 H4106 0.950 . S
C4127 C4126 1.373 . S
C4127 C4143 1.377 . S
C4128 C4126 1.389 . S
C4128 C4129 1.524 . S
C4128 C4142 1.377 . S
C4129 C4128 1.524 . S
C4129 C4130 1.397 . S
C4129 C4134 1.363 . S
C4130 H4107 0.950 . S
C4130 C4129 1.397 . S
C4130 C4131 1.334 . S
C4131 H4108 0.950 . S
C4131 C4130 1.334 . S
C4131 C4132 1.287 . S
C4132 C4131 1.287 . S
C4132 C4133 1.524 . S
C4132 H4151 0.913 . S
C4133 H4109 0.950 . S
C4133 C4132 1.524 . S
C4133 C4134 1.415 . S
C4134 H4110 0.950 . S
C4134 C4129 1.363 . S
C4134 C4133 1.415 . S
C4135 H4111 0.951 . S
C4135 C4136 1.366 . S
C4135 C4137 1.388 . S
C4136 C4135 1.366 . S
C4136 C4140 1.385 . S
C4137 H4112 0.951 . S
C4137 C4135 1.388 . S
C4137 C4138 1.366 . S
C4138 C4137 1.366 . S
C4138 C4139 1.414 . S
C4138 C4141 1.499 . S
C4139 H4113 0.950 . S
C4139 C4138 1.414 . S
C4139 C4140 1.374 . S
C4140 H4114 0.950 . S
C4140 C4136 1.385 . S
C4140 C4139 1.374 . S
C4141 C4138 1.499 . S
C4141 C4142 1.373 . S
C4141 C4143 1.389 . S
C4142 H4115 0.950 . S
C4142 C4128 1.377 . S
C4142 C4141 1.373 . S
C4143 C4127 1.377 . S
C4143 C4141 1.389 . S
C4143 C4144 1.524 . S
C4144 C4143 1.524 . S
C4144 C4145 1.397 . S
C4144 C4149 1.363 . S
C4145 H4116 0.950 . S
C4145 C4144 1.397 . S
C4145 C4146 1.334 . S
C4146 H4117 0.950 . S
C4146 C4145 1.334 . S
C4146 C4147 1.287 . S
C4147 C4146 1.287 . S
C4147 C4148 1.524 . S
C4147 H4150 0.999 . S
C4148 H4118 0.950 . S
C4148 C4147 1.524 . S
C4148 C4149 1.415 . S
C4149 H4119 0.950 . S
C4149 C4144 1.363 . S
C4149 C4148 1.415 . S
H4150 C4147 0.999 . S
H4151 C4132 0.913 . S
H4152 C4170 0.951 . S
H4153 C4172 0.951 . S
H4154 C4174 0.950 . S
H4155 C4175 0.950 . S
H4156 C4177 0.950 . S
H4157 C4180 0.950 . S
H4158 C4181 0.950 . S
H4159 C4183 0.950 . S
H4160 C4184 0.950 . S
H4161 C4185 0.951 . S
H4162 C4187 0.951 . S
H4163 C4189 0.950 . S
H4164 C4190 0.950 . S
H4165 C4192 0.950 . S
H4166 C4195 0.950 . S
H4167 C4196 0.950 . S
H4168 C4198 0.950 . S
H4169 C4199 0.950 . S
C4170 H4152 0.951 . S
C4170 C4171 1.366 . S
C4170 C4172 1.388 . S
C4171 C4170 1.366 . S
C4171 C4175 1.385 . S
C4172 H4153 0.951 . S
C4172 C4170 1.388 . S
C4172 C4173 1.366 . S
C4173 C4172 1.366 . S
C4173 C4174 1.414 . S
C4173 C4176 1.499 . S
C4174 H4154 0.950 . S
C4174 C4173 1.414 . S
C4174 C4175 1.374 . S
C4175 H4155 0.950 . S
C4175 C4171 1.385 . S
C4175 C4174 1.374 . S
C4176 C4173 1.499 . S
C4176 C4177 1.373 . S
C4176 C4178 1.389 . S
C4177 H4156 0.950 . S
C4177 C4176 1.373 . S
C4177 C4193 1.377 . S
C4178 C4176 1.389 . S
C4178 C4179 1.524 . S
C4178 C4192 1.377 . S
C4179 C4178 1.524 . S
C4179 C4180 1.397 . S
C4179 C4184 1.363 . S
C4180 H4157 0.950 . S
C4180 C4179 1.397 . S
C4180 C4181 1.334 . S
C4181 H4158 0.950 . S
C4181 C4180 1.334 . S
C4181 C4182 1.287 . S
C4182 C4181 1.287 . S
C4182 C4183 1.524 . S
C4182 H4201 0.913 . S
C4183 H4159 0.950 . S
C4183 C4182 1.524 . S
C4183 C4184 1.415 . S
C4184 H4160 0.950 . S
C4184 C4179 1.363 . S
C4184 C4183 1.415 . S
C4185 H4161 0.951 . S
C4185 C4186 1.366 . S
C4185 C4187 1.388 . S
C4186 C4185 1.366 . S
C4186 C4190 1.385 . S
C4187 H4162 0.951 . S
C4187 C4185 1.388 . S
C4187 C4188 1.366 . S
C4188 C4187 1.366 . S
C4188 C4189 1.414 . S
C4188 C4191 1.499 . S
C4189 H4163 0.950 . S
C4189 C4188 1.414 . S
C4189 C4190 1.374 . S
C4190 H4164 0.950 . S
C4190 C4186 1.385 . S
C4190 C4189 1.374 . S
C4191 C4188 1.499 . S
C4191 C4192 1.373 . S
C4191 C4193 1.389 . S
C4192 H4165 0.950 . S
C4192 C4178 1.377 . S
C4192 C4191 1.373 . S
C4193 C4177 1.377 . S
C4193 C4191 1.389 . S
C4193 C4194 1.524 . S
C4194 C4193 1.524 . S
C4194 C4195 1.397 . S
C4194 C4199 1.363 . S
C4195 H4166 0.950 . S
C4195 C4194 1.397 . S
C4195 C4196 1.334 . S
C4196 H4167 0.950 . S
C4196 C4195 1.334 . S
C4196 C4197 1.287 . S
C4197 C4196 1.287 . S
C4197 C4198 1.524 . S
C4197 H4200 0.999 . S
C4198 H4168 0.950 . S
C4198 C4197 1.524 . S
C4198 C4199 1.415 . S
C4199 H4169 0.950 . S
C4199 C4194 1.363 . S
C4199 C4198 1.415 . S
H4200 C4197 0.999 . S
H4201 C4182 0.913 . S
H4202 C4220 0.951 . S
H4203 C4222 0.951 . S
H4204 C4224 0.950 . S
H4205 C4225 0.950 . S
H4206 C4227 0.950 . S
H4207 C4230 0.950 . S
H4208 C4231 0.950 . S
H4209 C4233 0.950 . S
H4210 C4234 0.950 . S
H4211 C4235 0.951 . S
H4212 C4237 0.951 . S
H4213 C4239 0.950 . S
H4214 C4240 0.950 . S
H4215 C4242 0.950 . S
H4216 C4245 0.950 . S
H4217 C4246 0.950 . S
H4218 C4248 0.950 . S
H4219 C4249 0.950 . S
C4220 H4202 0.951 . S
C4220 C4221 1.366 . S
C4220 C4222 1.388 . S
C4221 C4220 1.366 . S
C4221 C4225 1.385 . S
C4222 H4203 0.951 . S
C4222 C4220 1.388 . S
C4222 C4223 1.366 . S
C4223 C4222 1.366 . S
C4223 C4224 1.414 . S
C4223 C4226 1.499 . S
C4224 H4204 0.950 . S
C4224 C4223 1.414 . S
C4224 C4225 1.374 . S
C4225 H4205 0.950 . S
C4225 C4221 1.385 . S
C4225 C4224 1.374 . S
C4226 C4223 1.499 . S
C4226 C4227 1.373 . S
C4226 C4228 1.389 . S
C4227 H4206 0.950 . S
C4227 C4226 1.373 . S
C4227 C4243 1.377 . S
C4228 C4226 1.389 . S
C4228 C4229 1.524 . S
C4228 C4242 1.377 . S
C4229 C4228 1.524 . S
C4229 C4230 1.397 . S
C4229 C4234 1.363 . S
C4230 H4207 0.950 . S
C4230 C4229 1.397 . S
C4230 C4231 1.334 . S
C4231 H4208 0.950 . S
C4231 C4230 1.334 . S
C4231 C4232 1.287 . S
C4232 C4231 1.287 . S
C4232 C4233 1.524 . S
C4232 H4251 0.913 . S
C4233 H4209 0.950 . S
C4233 C4232 1.524 . S
C4233 C4234 1.415 . S
C4234 H4210 0.950 . S
C4234 C4229 1.363 . S
C4234 C4233 1.415 . S
C4235 H4211 0.951 . S
C4235 C4236 1.366 . S
C4235 C4237 1.388 . S
C4236 C4235 1.366 . S
C4236 C4240 1.385 . S
C4237 H4212 0.951 . S
C4237 C4235 1.388 . S
C4237 C4238 1.366 . S
C4238 C4237 1.366 . S
C4238 C4239 1.414 . S
C4238 C4241 1.499 . S
C4239 H4213 0.950 . S
C4239 C4238 1.414 . S
C4239 C4240 1.374 . S
C4240 H4214 0.950 . S
C4240 C4236 1.385 . S
C4240 C4239 1.374 . S
C4241 C4238 1.499 . S
C4241 C4242 1.373 . S
C4241 C4243 1.389 . S
C4242 H4215 0.950 . S
C4242 C4228 1.377 . S
C4242 C4241 1.373 . S
C4243 C4227 1.377 . S
C4243 C4241 1.389 . S
C4243 C4244 1.524 . S
C4244 C4243 1.524 . S
C4244 C4245 1.397 . S
C4244 C4249 1.363 . S
C4245 H4216 0.950 . S
C4245 C4244 1.397 . S
C4245 C4246 1.334 . S
C4246 H4217 0.950 . S
C4246 C4245 1.334 . S
C4246 C4247 1.287 . S
C4247 C4246 1.287 . S
C4247 C4248 1.524 . S
C4247 H4250 0.999 . S
C4248 H4218 0.950 . S
C4248 C4247 1.524 . S
C4248 C4249 1.415 . S
C4249 H4219 0.950 . S
C4249 C4244 1.363 . S
C4249 C4248 1.415 . S
H4250 C4247 0.999 . S
H4251 C4232 0.913 . S
H4252 C4270 0.951 . S
H4253 C4272 0.951 . S
H4254 C4274 0.950 . S
H4255 C4275 0.950 . S
H4256 C4277 0.950 . S
H4257 C4280 0.950 . S
H4258 C4281 0.966 . S
H4259 C4283 0.950 . S
H4260 C4284 0.950 . S
H4261 C4285 0.951 . S
H4262 C4287 0.951 . S
H4263 C4289 0.950 . S
H4264 C4290 0.950 . S
H4265 C4292 0.950 . S
H4266 C4295 0.950 . S
H4267 C4296 0.950 . S
H4268 C4298 0.950 . S
H4269 C4299 0.950 . S
C4270 H4252 0.951 . S
C4270 C4271 1.366 . S
C4270 C4272 1.388 1_545 S
C4271 C4270 1.366 . S
C4271 C4275 1.385 1_545 S
C4272 H4253 0.951 . S
C4272 C4270 1.388 1_565 S
C4272 C4273 1.366 . S
C4273 C4272 1.366 . S
C4273 C4274 1.414 . S
C4273 C4276 1.499 . S
C4274 H4254 0.950 . S
C4274 C4273 1.414 . S
C4274 C4275 1.374 . S
C4275 H4255 0.950 . S
C4275 C4271 1.385 1_565 S
C4275 C4274 1.374 . S
C4276 C4273 1.499 . S
C4276 C4277 1.373 . S
C4276 C4278 1.389 . S
C4277 H4256 0.950 . S
C4277 C4276 1.373 . S
C4277 C4293 1.377 . S
C4278 C4276 1.389 . S
C4278 C4279 1.524 . S
C4278 C4292 1.377 . S
C4279 C4278 1.524 . S
C4279 C4280 1.397 . S
C4279 C4284 1.363 . S
C4280 H4257 0.950 . S
C4280 C4279 1.397 . S
C4280 C4281 1.310 1_565 S
C4281 H4258 0.966 . S
C4281 C4280 1.310 1_545 S
C4281 C4282 1.295 . S
C4282 C4281 1.295 . S
C4282 C4283 1.524 . S
C4282 H4301 0.913 . S
C4283 H4259 0.950 . S
C4283 C4282 1.524 . S
C4283 C4284 1.415 1_545 S
C4284 H4260 0.950 . S
C4284 C4279 1.363 . S
C4284 C4283 1.415 1_565 S
C4285 H4261 0.951 . S
C4285 C4286 1.366 . S
C4285 C4287 1.388 . S
C4286 C4285 1.366 . S
C4286 C4290 1.385 . S
C4287 H4262 0.951 . S
C4287 C4285 1.388 . S
C4287 C4288 1.366 . S
C4288 C4287 1.366 . S
C4288 C4289 1.414 . S
C4288 C4291 1.499 . S
C4289 H4263 0.950 . S
C4289 C4288 1.414 . S
C4289 C4290 1.374 . S
C4290 H4264 0.950 . S
C4290 C4286 1.385 . S
C4290 C4289 1.374 . S
C4291 C4288 1.499 . S
C4291 C4292 1.373 . S
C4291 C4293 1.389 . S
C4292 H4265 0.950 . S
C4292 C4278 1.377 . S
C4292 C4291 1.373 . S
C4293 C4277 1.377 . S
C4293 C4291 1.389 . S
C4293 C4294 1.524 . S
C4294 C4293 1.524 . S
C4294 C4295 1.397 . S
C4294 C4299 1.363 . S
C4295 H4266 0.950 . S
C4295 C4294 1.397 . S
C4295 C4296 1.334 . S
C4296 H4267 0.950 . S
C4296 C4295 1.334 . S
C4296 C4297 1.287 . S
C4297 C4296 1.287 . S
C4297 C4298 1.524 . S
C4297 H4300 0.999 . S
C4298 H4268 0.950 . S
C4298 C4297 1.524 . S
C4298 C4299 1.415 . S
C4299 H4269 0.950 . S
C4299 C4294 1.363 . S
C4299 C4298 1.415 . S
H4300 C4297 0.999 . S
H4301 C4282 0.913 . S
H4302 C4320 0.951 . S
H4303 C4322 0.951 . S
H4304 C4324 0.950 . S
H4305 C4325 0.950 . S
H4306 C4327 0.950 . S
H4307 C4330 0.950 . S
H4308 C4331 0.950 . S
H4309 C4333 0.950 . S
H4310 C4334 0.950 . S
H4311 C4335 0.951 . S
H4312 C4337 0.951 . S
H4313 C4339 0.950 . S
H4314 C4340 0.950 . S
H4315 C4342 0.950 . S
H4316 C4345 0.950 . S
H4317 C4346 0.950 . S
H4318 C4348 0.950 . S
H4319 C4349 0.950 . S
C4320 H4302 0.951 . S
C4320 C4321 1.366 . S
C4320 C4322 1.388 . S
C4321 C4320 1.366 . S
C4321 C4325 1.385 . S
C4322 H4303 0.951 . S
C4322 C4320 1.388 . S
C4322 C4323 1.366 . S
C4323 C4322 1.366 . S
C4323 C4324 1.414 . S
C4323 C4326 1.499 . S
C4324 H4304 0.950 . S
C4324 C4323 1.414 . S
C4324 C4325 1.374 . S
C4325 H4305 0.950 . S
C4325 C4321 1.385 . S
C4325 C4324 1.374 . S
C4326 C4323 1.499 . S
C4326 C4327 1.373 . S
C4326 C4328 1.389 . S
C4327 H4306 0.950 . S
C4327 C4326 1.373 . S
C4327 C4343 1.377 . S
C4328 C4326 1.389 . S
C4328 C4329 1.524 . S
C4328 C4342 1.377 . S
C4329 C4328 1.524 . S
C4329 C4330 1.397 . S
C4329 C4334 1.363 . S
C4330 H4307 0.950 . S
C4330 C4329 1.397 . S
C4330 C4331 1.334 . S
C4331 H4308 0.950 . S
C4331 C4330 1.334 . S
C4331 C4332 1.287 . S
C4332 C4331 1.287 . S
C4332 C4333 1.524 . S
C4332 H4351 0.913 . S
C4333 H4309 0.950 . S
C4333 C4332 1.524 . S
C4333 C4334 1.415 . S
C4334 H4310 0.950 . S
C4334 C4329 1.363 . S
C4334 C4333 1.415 . S
C4335 H4311 0.951 . S
C4335 C4336 1.366 . S
C4335 C4337 1.388 . S
C4336 C4335 1.366 . S
C4336 C4340 1.385 1_545 S
C4337 H4312 0.951 . S
C4337 C4335 1.388 . S
C4337 C4338 1.366 1_545 S
C4338 C4337 1.366 1_565 S
C4338 C4339 1.414 . S
C4338 C4341 1.499 . S
C4339 H4313 0.950 . S
C4339 C4338 1.414 . S
C4339 C4340 1.374 . S
C4340 H4314 0.950 . S
C4340 C4336 1.385 1_565 S
C4340 C4339 1.374 . S
C4341 C4338 1.499 . S
C4341 C4342 1.373 . S
C4341 C4343 1.389 . S
C4342 H4315 0.950 . S
C4342 C4328 1.377 . S
C4342 C4341 1.373 . S
C4343 C4327 1.377 . S
C4343 C4341 1.389 . S
C4343 C4344 1.524 . S
C4344 C4343 1.524 . S
C4344 C4345 1.397 1_554 S
C4344 C4349 1.363 . S
C4345 H4316 0.950 . S
C4345 C4344 1.397 1_556 S
C4345 C4346 1.334 . S
C4346 H4317 0.950 . S
C4346 C4345 1.334 . S
C4346 C4347 1.287 1_565 S
C4347 C4346 1.287 1_545 S
C4347 C4348 1.524 . S
C4347 H4350 0.999 . S
C4348 H4318 0.950 . S
C4348 C4347 1.524 . S
C4348 C4349 1.415 1_546 S
C4349 H4319 0.950 . S
C4349 C4344 1.363 . S
C4349 C4348 1.415 1_564 S
H4350 C4347 0.999 . S
H4351 C4332 0.913 . S
H4352 C4370 0.951 . S
H4353 C4372 0.951 . S
H4354 C4374 0.950 . S
H4355 C4375 0.950 . S
H4356 C4377 0.950 . S
H4357 C4380 0.950 . S
H4358 C4381 0.950 . S
H4359 C4383 0.950 . S
H4360 C4384 0.950 . S
H4361 C4385 0.951 . S
H4362 C4387 0.951 . S
H4363 C4389 0.950 . S
H4364 C4390 0.950 . S
H4365 C4392 0.950 . S
H4366 C4395 0.950 . S
H4367 C4396 0.950 . S
H4368 C4398 0.950 . S
H4369 C4399 0.950 . S
C4370 H4352 0.951 . S
C4370 C4371 1.366 . S
C4370 C4372 1.388 . S
C4371 C4370 1.366 . S
C4371 C4375 1.385 . S
C4372 H4353 0.951 . S
C4372 C4370 1.388 . S
C4372 C4373 1.366 . S
C4373 C4372 1.366 . S
C4373 C4374 1.414 . S
C4373 C4376 1.499 . S
C4374 H4354 0.950 . S
C4374 C4373 1.414 . S
C4374 C4375 1.374 . S
C4375 H4355 0.950 . S
C4375 C4371 1.385 . S
C4375 C4374 1.374 . S
C4376 C4373 1.499 . S
C4376 C4377 1.373 . S
C4376 C4378 1.389 . S
C4377 H4356 0.950 . S
C4377 C4376 1.373 . S
C4377 C4393 1.377 . S
C4378 C4376 1.389 . S
C4378 C4379 1.524 . S
C4378 C4392 1.377 . S
C4379 C4378 1.524 . S
C4379 C4380 1.397 . S
C4379 C4384 1.363 . S
C4380 H4357 0.950 . S
C4380 C4379 1.397 . S
C4380 C4381 1.334 . S
C4381 H4358 0.950 . S
C4381 C4380 1.334 . S
C4381 C4382 1.287 . S
C4382 C4381 1.287 . S
C4382 C4383 1.524 . S
C4382 H4401 0.913 . S
C4383 H4359 0.950 . S
C4383 C4382 1.524 . S
C4383 C4384 1.415 . S
C4384 H4360 0.950 . S
C4384 C4379 1.363 . S
C4384 C4383 1.415 . S
C4385 H4361 0.951 . S
C4385 C4386 1.366 . S
C4385 C4387 1.388 . S
C4386 C4385 1.366 . S
C4386 C4390 1.385 . S
C4387 H4362 0.951 . S
C4387 C4385 1.388 . S
C4387 C4388 1.366 . S
C4388 C4387 1.366 . S
C4388 C4389 1.414 . S
C4388 C4391 1.499 . S
C4389 H4363 0.950 . S
C4389 C4388 1.414 . S
C4389 C4390 1.374 . S
C4390 H4364 0.950 . S
C4390 C4386 1.385 . S
C4390 C4389 1.374 . S
C4391 C4388 1.499 . S
C4391 C4392 1.373 . S
C4391 C4393 1.389 . S
C4392 H4365 0.950 . S
C4392 C4378 1.377 . S
C4392 C4391 1.373 . S
C4393 C4377 1.377 . S
C4393 C4391 1.389 . S
C4393 C4394 1.524 . S
C4394 C4393 1.524 . S
C4394 C4395 1.397 . S
C4394 C4399 1.363 . S
C4395 H4366 0.950 . S
C4395 C4394 1.397 . S
C4395 C4396 1.334 . S
C4396 H4367 0.950 . S
C4396 C4395 1.334 . S
C4396 C4397 1.287 . S
C4397 C4396 1.287 . S
C4397 C4398 1.524 . S
C4397 H4400 0.999 . S
C4398 H4368 0.950 . S
C4398 C4397 1.524 . S
C4398 C4399 1.415 . S
C4399 H4369 0.950 . S
C4399 C4394 1.363 . S
C4399 C4398 1.415 . S
H4400 C4397 0.999 . S
H4401 C4382 0.913 . S
H4402 C4420 0.951 . S
H4403 C4422 0.951 . S
H4404 C4424 0.950 . S
H4405 C4425 0.950 . S
H4406 C4427 0.950 . S
H4407 C4430 0.950 . S
H4408 C4431 0.950 . S
H4409 C4433 0.950 1_556 S
H4410 C4434 0.950 . S
H4411 C4435 0.951 . S
H4412 C4437 0.951 . S
H4413 C4439 0.950 . S
H4414 C4440 0.950 . S
H4415 C4442 0.950 . S
H4416 C4445 0.950 . S
H4417 C4446 0.950 . S
H4418 C4448 0.950 . S
H4419 C4449 0.950 . S
C4420 H4402 0.951 . S
C4420 C4421 1.366 . S
C4420 C4422 1.388 . S
C4421 C4420 1.366 . S
C4421 C4425 1.385 . S
C4422 H4403 0.951 . S
C4422 C4420 1.388 . S
C4422 C4423 1.366 . S
C4423 C4422 1.366 . S
C4423 C4424 1.414 . S
C4423 C4426 1.499 . S
C4424 H4404 0.950 . S
C4424 C4423 1.414 . S
C4424 C4425 1.374 . S
C4425 H4405 0.950 . S
C4425 C4421 1.385 . S
C4425 C4424 1.374 . S
C4426 C4423 1.499 . S
C4426 C4427 1.373 . S
C4426 C4428 1.389 . S
C4427 H4406 0.950 . S
C4427 C4426 1.373 . S
C4427 C4443 1.377 . S
C4428 C4426 1.389 . S
C4428 C4429 1.524 . S
C4428 C4442 1.377 . S
C4429 C4428 1.524 . S
C4429 C4430 1.397 . S
C4429 C4434 1.363 . S
C4430 H4407 0.950 . S
C4430 C4429 1.397 . S
C4430 C4431 1.334 . S
C4431 H4408 0.950 . S
C4431 C4430 1.334 . S
C4431 C4432 1.287 . S
C4432 C4431 1.287 . S
C4432 C4433 1.524 . S
C4432 H4451 0.913 . S
C4433 H4409 0.950 1_554 S
C4433 C4432 1.524 . S
C4433 C4434 1.415 . S
C4434 H4410 0.950 . S
C4434 C4429 1.363 . S
C4434 C4433 1.415 . S
C4435 H4411 0.951 . S
C4435 C4436 1.366 . S
C4435 C4437 1.388 . S
C4436 C4435 1.366 . S
C4436 C4440 1.385 . S
C4437 H4412 0.951 . S
C4437 C4435 1.388 . S
C4437 C4438 1.366 . S
C4438 C4437 1.366 . S
C4438 C4439 1.414 . S
C4438 C4441 1.499 . S
C4439 H4413 0.950 . S
C4439 C4438 1.414 . S
C4439 C4440 1.374 . S
C4440 H4414 0.950 . S
C4440 C4436 1.385 . S
C4440 C4439 1.374 . S
C4441 C4438 1.499 . S
C4441 C4442 1.373 . S
C4441 C4443 1.389 . S
C4442 H4415 0.950 . S
C4442 C4428 1.377 . S
C4442 C4441 1.373 . S
C4443 C4427 1.377 . S
C4443 C4441 1.389 . S
C4443 C4444 1.524 . S
C4444 C4443 1.524 . S
C4444 C4445 1.397 . S
C4444 C4449 1.363 . S
C4445 H4416 0.950 . S
C4445 C4444 1.397 . S
C4445 C4446 1.334 . S
C4446 H4417 0.950 . S
C4446 C4445 1.334 . S
C4446 C4447 1.287 . S
C4447 C4446 1.287 . S
C4447 C4448 1.524 . S
C4447 H4450 0.999 . S
C4448 H4418 0.950 . S
C4448 C4447 1.524 . S
C4448 C4449 1.415 . S
C4449 H4419 0.950 . S
C4449 C4444 1.363 . S
C4449 C4448 1.415 . S
H4450 C4447 0.999 . S
H4451 C4432 0.913 . S
H4452 C4470 0.951 . S
H4453 C4472 0.951 . S
H4454 C4474 0.950 . S
H4455 C4475 0.950 . S
H4456 C4477 0.950 . S
H4457 C4480 0.950 . S
H4458 C4481 0.950 . S
H4459 C4483 0.950 . S
H4460 C4484 0.950 . S
H4461 C4485 0.951 . S
H4462 C4487 0.951 . S
H4463 C4489 0.950 . S
H4464 C4490 0.950 . S
H4465 C4492 0.950 . S
H4466 C4495 0.950 . S
H4467 C4496 0.950 . S
H4468 C4498 0.950 . S
H4469 C4499 0.950 . S
C4470 H4452 0.951 . S
C4470 C4471 1.366 . S
C4470 C4472 1.388 . S
C4471 C4470 1.366 . S
C4471 C4475 1.385 . S
C4472 H4453 0.951 . S
C4472 C4470 1.388 . S
C4472 C4473 1.366 . S
C4473 C4472 1.366 . S
C4473 C4474 1.414 . S
C4473 C4476 1.499 . S
C4474 H4454 0.950 . S
C4474 C4473 1.414 . S
C4474 C4475 1.374 . S
C4475 H4455 0.950 . S
C4475 C4471 1.385 . S
C4475 C4474 1.374 . S
C4476 C4473 1.499 . S
C4476 C4477 1.373 . S
C4476 C4478 1.389 . S
C4477 H4456 0.950 . S
C4477 C4476 1.373 . S
C4477 C4493 1.377 . S
C4478 C4476 1.389 . S
C4478 C4479 1.524 . S
C4478 C4492 1.377 . S
C4479 C4478 1.524 . S
C4479 C4480 1.397 . S
C4479 C4484 1.363 . S
C4480 H4457 0.950 . S
C4480 C4479 1.397 . S
C4480 C4481 1.334 . S
C4481 H4458 0.950 . S
C4481 C4480 1.334 . S
C4481 C4482 1.287 . S
C4482 C4481 1.287 . S
C4482 C4483 1.524 . S
C4482 H4501 0.913 . S
C4483 H4459 0.950 . S
C4483 C4482 1.524 . S
C4483 C4484 1.415 . S
C4484 H4460 0.950 . S
C4484 C4479 1.363 . S
C4484 C4483 1.415 . S
C4485 H4461 0.951 . S
C4485 C4486 1.366 . S
C4485 C4487 1.388 . S
C4486 C4485 1.366 . S
C4486 C4490 1.385 . S
C4487 H4462 0.951 . S
C4487 C4485 1.388 . S
C4487 C4488 1.366 . S
C4488 C4487 1.366 . S
C4488 C4489 1.414 . S
C4488 C4491 1.499 . S
C4489 H4463 0.950 . S
C4489 C4488 1.414 . S
C4489 C4490 1.374 . S
C4490 H4464 0.950 . S
C4490 C4486 1.385 . S
C4490 C4489 1.374 . S
C4491 C4488 1.499 . S
C4491 C4492 1.373 . S
C4491 C4493 1.389 . S
C4492 H4465 0.950 . S
C4492 C4478 1.377 . S
C4492 C4491 1.373 . S
C4493 C4477 1.377 . S
C4493 C4491 1.389 . S
C4493 C4494 1.524 . S
C4494 C4493 1.524 . S
C4494 C4495 1.397 . S
C4494 C4499 1.363 . S
C4495 H4466 0.950 . S
C4495 C4494 1.397 . S
C4495 C4496 1.334 . S
C4496 H4467 0.950 . S
C4496 C4495 1.334 . S
C4496 C4497 1.287 . S
C4497 C4496 1.287 . S
C4497 C4498 1.524 . S
C4497 H4500 0.999 . S
C4498 H4468 0.950 . S
C4498 C4497 1.524 . S
C4498 C4499 1.415 . S
C4499 H4469 0.950 . S
C4499 C4494 1.363 . S
C4499 C4498 1.415 . S
H4500 C4497 0.999 . S
H4501 C4482 0.913 . S
H4502 C4520 0.951 . S
H4503 C4522 0.948 1_545 S
H4504 C4524 0.950 . S
H4505 C4525 0.950 . S
H4506 C4527 0.950 . S
H4507 C4530 0.950 . S
H4508 C4531 0.950 1_545 S
H4509 C4533 0.950 . S
H4510 C4534 0.950 . S
H4511 C4535 0.951 . S
H4512 C4537 0.951 . S
H4513 C4539 0.950 . S
H4514 C4540 0.950 . S
H4515 C4542 0.950 . S
H4516 C4545 0.950 . S
H4517 C4546 0.950 . S
H4518 C4548 0.950 . S
H4519 C4549 0.950 . S
C4520 H4502 0.951 . S
C4520 C4521 1.366 . S
C4520 C4522 1.382 1_545 S
C4521 C4520 1.366 . S
C4521 C4525 1.385 1_545 S
C4522 H4503 0.948 1_565 S
C4522 C4520 1.382 1_565 S
C4522 C4523 1.375 . S
C4523 C4522 1.375 . S
C4523 C4524 1.414 . S
C4523 C4526 1.499 . S
C4524 H4504 0.950 . S
C4524 C4523 1.414 . S
C4524 C4525 1.374 . S
C4525 H4505 0.950 . S
C4525 C4521 1.385 1_565 S
C4525 C4524 1.374 . S
C4526 C4523 1.499 . S
C4526 C4527 1.373 . S
C4526 C4528 1.389 . S
C4527 H4506 0.950 . S
C4527 C4526 1.373 . S
C4527 C4543 1.377 . S
C4528 C4526 1.389 . S
C4528 C4529 1.524 . S
C4528 C4542 1.377 . S
C4529 C4528 1.524 . S
C4529 C4530 1.397 . S
C4529 C4534 1.363 . S
C4530 H4507 0.950 . S
C4530 C4529 1.397 . S
C4530 C4531 1.334 . S
C4531 H4508 0.950 1_565 S
C4531 C4530 1.334 . S
C4531 C4532 1.287 1_565 S
C4532 C4531 1.287 1_545 S
C4532 C4533 1.524 . S
C4532 H4551 0.913 . S
C4533 H4509 0.950 . S
C4533 C4532 1.524 . S
C4533 C4534 1.415 1_545 S
C4534 H4510 0.950 . S
C4534 C4529 1.363 . S
C4534 C4533 1.415 1_565 S
C4535 H4511 0.951 . S
C4535 C4536 1.366 . S
C4535 C4537 1.388 . S
C4536 C4535 1.366 . S
C4536 C4540 1.385 . S
C4537 H4512 0.951 . S
C4537 C4535 1.388 . S
C4537 C4538 1.366 . S
C4538 C4537 1.366 . S
C4538 C4539 1.414 . S
C4538 C4541 1.499 . S
C4539 H4513 0.950 . S
C4539 C4538 1.414 . S
C4539 C4540 1.374 . S
C4540 H4514 0.950 . S
C4540 C4536 1.385 . S
C4540 C4539 1.374 . S
C4541 C4538 1.499 . S
C4541 C4542 1.373 . S
C4541 C4543 1.389 . S
C4542 H4515 0.950 . S
C4542 C4528 1.377 . S
C4542 C4541 1.373 . S
C4543 C4527 1.377 . S
C4543 C4541 1.389 . S
C4543 C4544 1.524 . S
C4544 C4543 1.524 . S
C4544 C4545 1.397 . S
C4544 C4549 1.363 . S
C4545 H4516 0.950 . S
C4545 C4544 1.397 . S
C4545 C4546 1.334 . S
C4546 H4517 0.950 . S
C4546 C4545 1.334 . S
C4546 C4547 1.287 . S
C4547 C4546 1.287 . S
C4547 C4548 1.524 . S
C4547 H4550 0.999 . S
C4548 H4518 0.950 . S
C4548 C4547 1.524 . S
C4548 C4549 1.415 . S
C4549 H4519 0.950 . S
C4549 C4544 1.363 . S
C4549 C4548 1.415 . S
H4550 C4547 0.999 . S
H4551 C4532 0.913 . S
H4552 C4570 0.951 . S
H4553 C4572 0.951 . S
H4554 C4574 0.950 . S
H4555 C4575 0.950 . S
H4556 C4577 0.950 . S
H4557 C4580 0.950 . S
H4558 C4581 0.950 . S
H4559 C4583 0.950 . S
H4560 C4584 0.950 . S
H4561 C4585 0.951 . S
H4562 C4587 0.951 . S
H4563 C4589 0.950 . S
H4564 C4590 0.950 . S
H4565 C4592 0.950 . S
H4566 C4595 0.950 . S
H4567 C4596 0.950 . S
H4568 C4598 0.950 . S
H4569 C4599 0.950 . S
C4570 H4552 0.951 . S
C4570 C4571 1.366 . S
C4570 C4572 1.388 . S
C4571 C4570 1.366 . S
C4571 C4575 1.385 . S
C4572 H4553 0.951 . S
C4572 C4570 1.388 . S
C4572 C4573 1.366 . S
C4573 C4572 1.366 . S
C4573 C4574 1.414 . S
C4573 C4576 1.499 . S
C4574 H4554 0.950 . S
C4574 C4573 1.414 . S
C4574 C4575 1.374 . S
C4575 H4555 0.950 . S
C4575 C4571 1.385 . S
C4575 C4574 1.374 . S
C4576 C4573 1.499 . S
C4576 C4577 1.373 . S
C4576 C4578 1.389 . S
C4577 H4556 0.950 . S
C4577 C4576 1.373 . S
C4577 C4593 1.377 . S
C4578 C4576 1.389 . S
C4578 C4579 1.524 . S
C4578 C4592 1.377 . S
C4579 C4578 1.524 . S
C4579 C4580 1.397 . S
C4579 C4584 1.363 . S
C4580 H4557 0.950 . S
C4580 C4579 1.397 . S
C4580 C4581 1.334 . S
C4581 H4558 0.950 . S
C4581 C4580 1.334 . S
C4581 C4582 1.287 . S
C4582 C4581 1.287 . S
C4582 C4583 1.524 . S
C4582 H4601 0.913 . S
C4583 H4559 0.950 . S
C4583 C4582 1.524 . S
C4583 C4584 1.415 . S
C4584 H4560 0.950 . S
C4584 C4579 1.363 . S
C4584 C4583 1.415 . S
C4585 H4561 0.951 . S
C4585 C4586 1.366 . S
C4585 C4587 1.388 . S
C4586 C4585 1.366 . S
C4586 C4590 1.385 . S
C4587 H4562 0.951 . S
C4587 C4585 1.388 . S
C4587 C4588 1.366 . S
C4588 C4587 1.366 . S
C4588 C4589 1.414 . S
C4588 C4591 1.499 . S
C4589 H4563 0.950 . S
C4589 C4588 1.414 . S
C4589 C4590 1.374 . S
C4590 H4564 0.950 . S
C4590 C4586 1.385 . S
C4590 C4589 1.374 . S
C4591 C4588 1.499 . S
C4591 C4592 1.373 . S
C4591 C4593 1.389 . S
C4592 H4565 0.950 . S
C4592 C4578 1.377 . S
C4592 C4591 1.373 . S
C4593 C4577 1.377 . S
C4593 C4591 1.389 . S
C4593 C4594 1.524 . S
C4594 C4593 1.524 . S
C4594 C4595 1.397 . S
C4594 C4599 1.363 . S
C4595 H4566 0.950 . S
C4595 C4594 1.397 . S
C4595 C4596 1.334 . S
C4596 H4567 0.950 . S
C4596 C4595 1.334 . S
C4596 C4597 1.287 . S
C4597 C4596 1.287 . S
C4597 C4598 1.524 . S
C4597 H4600 0.999 . S
C4598 H4568 0.950 . S
C4598 C4597 1.524 . S
C4598 C4599 1.415 . S
C4599 H4569 0.950 . S
C4599 C4594 1.363 . S
C4599 C4598 1.415 . S
H4600 C4597 0.999 . S
H4601 C4582 0.913 . S
H4602 C4620 0.951 . S
H4603 C4622 0.951 . S
H4604 C4624 0.950 . S
H4605 C4625 0.950 . S
H4606 C4627 0.950 . S
H4607 C4630 0.950 . S
H4608 C4631 0.950 . S
H4609 C4633 0.950 . S
H4610 C4634 0.950 . S
H4611 C4635 0.951 . S
H4612 C4637 0.951 . S
H4613 C4639 0.950 . S
H4614 C4640 0.950 . S
H4615 C4642 0.950 . S
H4616 C4645 0.950 . S
H4617 C4646 0.950 . S
H4618 C4648 0.950 . S
H4619 C4649 0.950 . S
C4620 H4602 0.951 . S
C4620 C4621 1.366 . S
C4620 C4622 1.388 . S
C4621 C4620 1.366 . S
C4621 C4625 1.385 . S
C4622 H4603 0.951 . S
C4622 C4620 1.388 . S
C4622 C4623 1.366 . S
C4623 C4622 1.366 . S
C4623 C4624 1.414 . S
C4623 C4626 1.499 . S
C4624 H4604 0.950 . S
C4624 C4623 1.414 . S
C4624 C4625 1.374 . S
C4625 H4605 0.950 . S
C4625 C4621 1.385 . S
C4625 C4624 1.374 . S
C4626 C4623 1.499 . S
C4626 C4627 1.373 . S
C4626 C4628 1.389 . S
C4627 H4606 0.950 . S
C4627 C4626 1.373 . S
C4627 C4643 1.377 . S
C4628 C4626 1.389 . S
C4628 C4629 1.524 . S
C4628 C4642 1.377 . S
C4629 C4628 1.524 . S
C4629 C4630 1.397 . S
C4629 C4634 1.363 . S
C4630 H4607 0.950 . S
C4630 C4629 1.397 . S
C4630 C4631 1.334 . S
C4631 H4608 0.950 . S
C4631 C4630 1.334 . S
C4631 C4632 1.287 . S
C4632 C4631 1.287 . S
C4632 C4633 1.524 . S
C4632 H4651 0.913 . S
C4633 H4609 0.950 . S
C4633 C4632 1.524 . S
C4633 C4634 1.415 . S
C4634 H4610 0.950 . S
C4634 C4629 1.363 . S
C4634 C4633 1.415 . S
C4635 H4611 0.951 . S
C4635 C4636 1.366 . S
C4635 C4637 1.388 . S
C4636 C4635 1.366 . S
C4636 C4640 1.385 . S
C4637 H4612 0.951 . S
C4637 C4635 1.388 . S
C4637 C4638 1.366 . S
C4638 C4637 1.366 . S
C4638 C4639 1.414 . S
C4638 C4641 1.499 . S
C4639 H4613 0.950 . S
C4639 C4638 1.414 . S
C4639 C4640 1.374 . S
C4640 H4614 0.950 . S
C4640 C4636 1.385 . S
C4640 C4639 1.374 . S
C4641 C4638 1.499 . S
C4641 C4642 1.373 . S
C4641 C4643 1.389 . S
C4642 H4615 0.950 . S
C4642 C4628 1.377 . S
C4642 C4641 1.373 . S
C4643 C4627 1.377 . S
C4643 C4641 1.389 . S
C4643 C4644 1.524 . S
C4644 C4643 1.524 . S
C4644 C4645 1.397 . S
C4644 C4649 1.363 . S
C4645 H4616 0.950 . S
C4645 C4644 1.397 . S
C4645 C4646 1.334 . S
C4646 H4617 0.950 . S
C4646 C4645 1.334 . S
C4646 C4647 1.287 . S
C4647 C4646 1.287 . S
C4647 C4648 1.524 . S
C4647 H4650 0.999 . S
C4648 H4618 0.950 . S
C4648 C4647 1.524 . S
C4648 C4649 1.415 . S
C4649 H4619 0.950 . S
C4649 C4644 1.363 . S
C4649 C4648 1.415 . S
H4650 C4647 0.999 . S
H4651 C4632 0.913 . S
H4652 C4670 0.951 . S
H4653 C4672 0.951 . S
H4654 C4674 0.950 . S
H4655 C4675 0.950 . S
H4656 C4677 0.950 . S
H4657 C4680 0.950 . S
H4658 C4681 0.950 . S
H4659 C4683 0.950 . S
H4660 C4684 0.950 . S
H4661 C4685 0.951 . S
H4662 C4687 0.951 . S
H4663 C4689 0.950 . S
H4664 C4690 0.950 . S
H4665 C4692 0.950 . S
H4666 C4695 0.950 . S
H4667 C4696 0.950 . S
H4668 C4698 0.950 . S
H4669 C4699 0.950 . S
C4670 H4652 0.951 . S
C4670 C4671 1.366 . S
C4670 C4672 1.388 . S
C4671 C4670 1.366 . S
C4671 C4675 1.385 . S
C4672 H4653 0.951 . S
C4672 C4670 1.388 . S
C4672 C4673 1.366 . S
C4673 C4672 1.366 . S
C4673 C4674 1.414 . S
C4673 C4676 1.499 . S
C4674 H4654 0.950 . S
C4674 C4673 1.414 . S
C4674 C4675 1.374 . S
C4675 H4655 0.950 . S
C4675 C4671 1.385 . S
C4675 C4674 1.374 . S
C4676 C4673 1.499 . S
C4676 C4677 1.373 . S
C4676 C4678 1.389 . S
C4677 H4656 0.950 . S
C4677 C4676 1.373 . S
C4677 C4693 1.377 . S
C4678 C4676 1.389 . S
C4678 C4679 1.524 . S
C4678 C4692 1.377 . S
C4679 C4678 1.524 . S
C4679 C4680 1.397 . S
C4679 C4684 1.363 . S
C4680 H4657 0.950 . S
C4680 C4679 1.397 . S
C4680 C4681 1.334 . S
C4681 H4658 0.950 . S
C4681 C4680 1.334 . S
C4681 C4682 1.287 . S
C4682 C4681 1.287 . S
C4682 C4683 1.524 . S
C4682 H4701 0.913 . S
C4683 H4659 0.950 . S
C4683 C4682 1.524 . S
C4683 C4684 1.415 . S
C4684 H4660 0.950 . S
C4684 C4679 1.363 . S
C4684 C4683 1.415 . S
C4685 H4661 0.951 . S
C4685 C4686 1.366 . S
C4685 C4687 1.388 . S
C4686 C4685 1.366 . S
C4686 C4690 1.385 . S
C4687 H4662 0.951 . S
C4687 C4685 1.388 . S
C4687 C4688 1.366 . S
C4688 C4687 1.366 . S
C4688 C4689 1.414 . S
C4688 C4691 1.499 . S
C4689 H4663 0.950 . S
C4689 C4688 1.414 . S
C4689 C4690 1.374 . S
C4690 H4664 0.950 . S
C4690 C4686 1.385 . S
C4690 C4689 1.374 . S
C4691 C4688 1.499 . S
C4691 C4692 1.373 . S
C4691 C4693 1.389 . S
C4692 H4665 0.950 . S
C4692 C4678 1.377 . S
C4692 C4691 1.373 . S
C4693 C4677 1.377 . S
C4693 C4691 1.389 . S
C4693 C4694 1.524 . S
C4694 C4693 1.524 . S
C4694 C4695 1.397 . S
C4694 C4699 1.363 . S
C4695 H4666 0.950 . S
C4695 C4694 1.397 . S
C4695 C4696 1.334 . S
C4696 H4667 0.950 . S
C4696 C4695 1.334 . S
C4696 C4697 1.287 . S
C4697 C4696 1.287 . S
C4697 C4698 1.524 . S
C4697 H4700 0.999 . S
C4698 H4668 0.950 . S
C4698 C4697 1.524 . S
C4698 C4699 1.415 . S
C4699 H4669 0.950 . S
C4699 C4694 1.363 . S
C4699 C4698 1.415 . S
H4700 C4697 0.999 . S
H4701 C4682 0.913 . S
H4702 C4720 0.951 . S
H4703 C4722 0.951 . S
H4704 C4724 0.950 . S
H4705 C4725 0.950 . S
H4706 C4727 0.950 . S
H4707 C4730 0.950 . S
H4708 C4731 0.950 . S
H4709 C4733 0.950 . S
H4710 C4734 0.950 . S
H4711 C4735 0.951 . S
H4712 C4737 0.951 . S
H4713 C4739 0.950 . S
H4714 C4740 0.950 . S
H4715 C4742 0.950 . S
H4716 C4745 0.950 . S
H4717 C4746 0.950 . S
H4718 C4748 0.950 . S
H4719 C4749 0.950 . S
C4720 H4702 0.951 . S
C4720 C4721 1.366 . S
C4720 C4722 1.388 . S
C4721 C4720 1.366 . S
C4721 C4725 1.385 . S
C4722 H4703 0.951 . S
C4722 C4720 1.388 . S
C4722 C4723 1.366 . S
C4723 C4722 1.366 . S
C4723 C4724 1.414 . S
C4723 C4726 1.499 . S
C4724 H4704 0.950 . S
C4724 C4723 1.414 . S
C4724 C4725 1.374 . S
C4725 H4705 0.950 . S
C4725 C4721 1.385 . S
C4725 C4724 1.374 . S
C4726 C4723 1.499 . S
C4726 C4727 1.373 . S
C4726 C4728 1.389 . S
C4727 H4706 0.950 . S
C4727 C4726 1.373 . S
C4727 C4743 1.377 . S
C4728 C4726 1.389 . S
C4728 C4729 1.524 . S
C4728 C4742 1.377 . S
C4729 C4728 1.524 . S
C4729 C4730 1.397 . S
C4729 C4734 1.363 . S
C4730 H4707 0.950 . S
C4730 C4729 1.397 . S
C4730 C4731 1.334 . S
C4731 H4708 0.950 . S
C4731 C4730 1.334 . S
C4731 C4732 1.287 . S
C4732 C4731 1.287 . S
C4732 C4733 1.524 . S
C4732 H4751 0.913 . S
C4733 H4709 0.950 . S
C4733 C4732 1.524 . S
C4733 C4734 1.415 . S
C4734 H4710 0.950 . S
C4734 C4729 1.363 . S
C4734 C4733 1.415 . S
C4735 H4711 0.951 . S
C4735 C4736 1.366 . S
C4735 C4737 1.388 . S
C4736 C4735 1.366 . S
C4736 C4740 1.385 . S
C4737 H4712 0.951 . S
C4737 C4735 1.388 . S
C4737 C4738 1.366 . S
C4738 C4737 1.366 . S
C4738 C4739 1.414 . S
C4738 C4741 1.499 . S
C4739 H4713 0.950 . S
C4739 C4738 1.414 . S
C4739 C4740 1.374 . S
C4740 H4714 0.950 . S
C4740 C4736 1.385 . S
C4740 C4739 1.374 . S
C4741 C4738 1.499 . S
C4741 C4742 1.373 . S
C4741 C4743 1.389 . S
C4742 H4715 0.950 . S
C4742 C4728 1.377 . S
C4742 C4741 1.373 . S
C4743 C4727 1.377 . S
C4743 C4741 1.389 . S
C4743 C4744 1.524 . S
C4744 C4743 1.524 . S
C4744 C4745 1.397 . S
C4744 C4749 1.363 . S
C4745 H4716 0.950 . S
C4745 C4744 1.397 . S
C4745 C4746 1.334 . S
C4746 H4717 0.950 . S
C4746 C4745 1.334 . S
C4746 C4747 1.287 . S
C4747 C4746 1.287 . S
C4747 C4748 1.524 . S
C4747 H4750 0.999 . S
C4748 H4718 0.950 . S
C4748 C4747 1.524 . S
C4748 C4749 1.415 . S
C4749 H4719 0.950 . S
C4749 C4744 1.363 . S
C4749 C4748 1.415 . S
H4750 C4747 0.999 . S
H4751 C4732 0.913 . S
H4752 C4770 0.951 . S
H4753 C4772 0.951 . S
H4754 C4774 0.950 . S
H4755 C4775 0.950 . S
H4756 C4777 0.950 . S
H4757 C4780 0.950 . S
H4758 C4781 0.950 . S
H4759 C4783 0.950 . S
H4760 C4784 0.950 . S
H4761 C4785 0.951 . S
H4762 C4787 0.951 . S
H4763 C4789 0.950 . S
H4764 C4790 0.950 . S
H4765 C4792 0.950 . S
H4766 C4795 0.950 . S
H4767 C4796 0.950 . S
H4768 C4798 0.950 . S
H4769 C4799 0.950 . S
C4770 H4752 0.951 . S
C4770 C4771 1.366 . S
C4770 C4772 1.388 . S
C4771 C4770 1.366 . S
C4771 C4775 1.385 . S
C4772 H4753 0.951 . S
C4772 C4770 1.388 . S
C4772 C4773 1.366 . S
C4773 C4772 1.366 . S
C4773 C4774 1.414 . S
C4773 C4776 1.499 . S
C4774 H4754 0.950 . S
C4774 C4773 1.414 . S
C4774 C4775 1.374 . S
C4775 H4755 0.950 . S
C4775 C4771 1.385 . S
C4775 C4774 1.374 . S
C4776 C4773 1.499 . S
C4776 C4777 1.373 . S
C4776 C4778 1.389 . S
C4777 H4756 0.950 . S
C4777 C4776 1.373 . S
C4777 C4793 1.377 . S
C4778 C4776 1.389 . S
C4778 C4779 1.524 . S
C4778 C4792 1.377 . S
C4779 C4778 1.524 . S
C4779 C4780 1.397 . S
C4779 C4784 1.363 . S
C4780 H4757 0.950 . S
C4780 C4779 1.397 . S
C4780 C4781 1.334 . S
C4781 H4758 0.950 . S
C4781 C4780 1.334 . S
C4781 C4782 1.287 . S
C4782 C4781 1.287 . S
C4782 C4783 1.524 . S
C4782 H4801 0.913 . S
C4783 H4759 0.950 . S
C4783 C4782 1.524 . S
C4783 C4784 1.415 . S
C4784 H4760 0.950 . S
C4784 C4779 1.363 . S
C4784 C4783 1.415 . S
C4785 H4761 0.951 . S
C4785 C4786 1.366 . S
C4785 C4787 1.388 . S
C4786 C4785 1.366 . S
C4786 C4790 1.385 . S
C4787 H4762 0.951 . S
C4787 C4785 1.388 . S
C4787 C4788 1.366 . S
C4788 C4787 1.366 . S
C4788 C4789 1.414 . S
C4788 C4791 1.499 . S
C4789 H4763 0.950 . S
C4789 C4788 1.414 . S
C4789 C4790 1.374 . S
C4790 H4764 0.950 . S
C4790 C4786 1.385 . S
C4790 C4789 1.374 . S
C4791 C4788 1.499 . S
C4791 C4792 1.373 . S
C4791 C4793 1.389 . S
C4792 H4765 0.950 . S
C4792 C4778 1.377 . S
C4792 C4791 1.373 . S
C4793 C4777 1.377 . S
C4793 C4791 1.389 . S
C4793 C4794 1.524 . S
C4794 C4793 1.524 . S
C4794 C4795 1.397 . S
C4794 C4799 1.363 . S
C4795 H4766 0.950 . S
C4795 C4794 1.397 . S
C4795 C4796 1.334 . S
C4796 H4767 0.950 . S
C4796 C4795 1.334 . S
C4796 C4797 1.287 . S
C4797 C4796 1.287 . S
C4797 C4798 1.524 . S
C4797 H4800 0.999 . S
C4798 H4768 0.950 . S
C4798 C4797 1.524 . S
C4798 C4799 1.415 . S
C4799 H4769 0.950 . S
C4799 C4794 1.363 . S
C4799 C4798 1.415 . S
H4800 C4797 0.999 . S
H4801 C4782 0.913 . S
H4802 C4820 0.951 . S
H4803 C4822 0.951 . S
H4804 C4824 0.950 . S
H4805 C4825 0.950 . S
H4806 C4827 0.950 . S
H4807 C4830 0.950 . S
H4808 C4831 0.950 . S
H4809 C4833 0.950 . S
H4810 C4834 0.950 . S
H4811 C4835 0.951 . S
H4812 C4837 0.951 . S
H4813 C4839 0.950 . S
H4814 C4840 0.950 . S
H4815 C4842 0.950 . S
H4816 C4845 0.950 . S
H4817 C4846 0.950 . S
H4818 C4848 0.950 . S
H4819 C4849 0.950 . S
C4820 H4802 0.951 . S
C4820 C4821 1.366 . S
C4820 C4822 1.388 . S
C4821 C4820 1.366 . S
C4821 C4825 1.385 . S
C4822 H4803 0.951 . S
C4822 C4820 1.388 . S
C4822 C4823 1.366 . S
C4823 C4822 1.366 . S
C4823 C4824 1.414 . S
C4823 C4826 1.499 . S
C4824 H4804 0.950 . S
C4824 C4823 1.414 . S
C4824 C4825 1.374 . S
C4825 H4805 0.950 . S
C4825 C4821 1.385 . S
C4825 C4824 1.374 . S
C4826 C4823 1.499 . S
C4826 C4827 1.373 . S
C4826 C4828 1.389 . S
C4827 H4806 0.950 . S
C4827 C4826 1.373 . S
C4827 C4843 1.377 . S
C4828 C4826 1.389 . S
C4828 C4829 1.524 . S
C4828 C4842 1.377 . S
C4829 C4828 1.524 . S
C4829 C4830 1.397 . S
C4829 C4834 1.363 . S
C4830 H4807 0.950 . S
C4830 C4829 1.397 . S
C4830 C4831 1.334 . S
C4831 H4808 0.950 . S
C4831 C4830 1.334 . S
C4831 C4832 1.287 . S
C4832 C4831 1.287 . S
C4832 C4833 1.524 . S
C4832 H4851 0.913 . S
C4833 H4809 0.950 . S
C4833 C4832 1.524 . S
C4833 C4834 1.415 . S
C4834 H4810 0.950 . S
C4834 C4829 1.363 . S
C4834 C4833 1.415 . S
C4835 H4811 0.951 . S
C4835 C4836 1.366 . S
C4835 C4837 1.388 . S
C4836 C4835 1.366 . S
C4836 C4840 1.385 . S
C4837 H4812 0.951 . S
C4837 C4835 1.388 . S
C4837 C4838 1.366 . S
C4838 C4837 1.366 . S
C4838 C4839 1.414 . S
C4838 C4841 1.499 . S
C4839 H4813 0.950 . S
C4839 C4838 1.414 . S
C4839 C4840 1.374 . S
C4840 H4814 0.950 . S
C4840 C4836 1.385 . S
C4840 C4839 1.374 . S
C4841 C4838 1.499 . S
C4841 C4842 1.373 . S
C4841 C4843 1.389 . S
C4842 H4815 0.950 . S
C4842 C4828 1.377 . S
C4842 C4841 1.373 . S
C4843 C4827 1.377 . S
C4843 C4841 1.389 . S
C4843 C4844 1.524 . S
C4844 C4843 1.524 . S
C4844 C4845 1.397 . S
C4844 C4849 1.363 . S
C4845 H4816 0.950 . S
C4845 C4844 1.397 . S
C4845 C4846 1.334 . S
C4846 H4817 0.950 . S
C4846 C4845 1.334 . S
C4846 C4847 1.287 . S
C4847 C4846 1.287 . S
C4847 C4848 1.524 . S
C4847 H4850 0.999 . S
C4848 H4818 0.950 . S
C4848 C4847 1.524 . S
C4848 C4849 1.415 . S
C4849 H4819 0.950 . S
C4849 C4844 1.363 . S
C4849 C4848 1.415 . S
H4850 C4847 0.999 . S
H4851 C4832 0.913 . S
H4852 C4870 0.951 . S
H4853 C4872 0.951 . S
H4854 C4874 0.950 . S
H4855 C4875 0.950 . S
H4856 C4877 0.950 . S
H4857 C4880 0.950 . S
H4858 C4881 0.950 . S
H4859 C4883 0.950 1_655 S
H4860 C4884 0.967 . S
H4861 C4885 0.951 . S
H4862 C4887 0.951 . S
H4863 C4889 0.950 . S
H4864 C4890 0.950 . S
H4865 C4892 0.950 . S
H4866 C4895 0.950 . S
H4867 C4896 0.950 . S
H4868 C4898 0.950 . S
H4869 C4899 0.950 . S
C4870 H4852 0.951 . S
C4870 C4871 1.366 . S
C4870 C4872 1.388 . S
C4871 C4870 1.366 . S
C4871 C4875 1.385 . S
C4872 H4853 0.951 . S
C4872 C4870 1.388 . S
C4872 C4873 1.366 . S
C4873 C4872 1.366 . S
C4873 C4874 1.414 . S
C4873 C4876 1.499 . S
C4874 H4854 0.950 . S
C4874 C4873 1.414 . S
C4874 C4875 1.374 . S
C4875 H4855 0.950 . S
C4875 C4871 1.385 . S
C4875 C4874 1.374 . S
C4876 C4873 1.499 . S
C4876 C4877 1.373 . S
C4876 C4878 1.389 . S
C4877 H4856 0.950 . S
C4877 C4876 1.373 . S
C4877 C4893 1.377 . S
C4878 C4876 1.389 . S
C4878 C4879 1.524 . S
C4878 C4892 1.377 . S
C4879 C4878 1.524 . S
C4879 C4880 1.397 . S
C4879 C4884 1.363 . S
C4880 H4857 0.950 . S
C4880 C4879 1.397 . S
C4880 C4881 1.334 . S
C4881 H4858 0.950 . S
C4881 C4880 1.334 . S
C4881 C4882 1.287 . S
C4882 C4881 1.287 . S
C4882 C4883 1.524 . S
C4882 H4901 0.913 . S
C4883 H4859 0.950 1_455 S
C4883 C4882 1.524 . S
C4883 C4884 1.415 . S
C4884 H4860 0.967 . S
C4884 C4879 1.363 . S
C4884 C4883 1.415 . S
C4885 H4861 0.951 . S
C4885 C4886 1.366 . S
C4885 C4887 1.388 . S
C4886 C4885 1.366 . S
C4886 C4890 1.385 . S
C4887 H4862 0.951 . S
C4887 C4885 1.388 . S
C4887 C4888 1.366 . S
C4888 C4887 1.366 . S
C4888 C4889 1.414 . S
C4888 C4891 1.499 . S
C4889 H4863 0.950 . S
C4889 C4888 1.414 . S
C4889 C4890 1.374 . S
C4890 H4864 0.950 . S
C4890 C4886 1.385 . S
C4890 C4889 1.374 . S
C4891 C4888 1.499 . S
C4891 C4892 1.373 . S
C4891 C4893 1.389 . S
C4892 H4865 0.950 . S
C4892 C4878 1.377 . S
C4892 C4891 1.373 . S
C4893 C4877 1.377 . S
C4893 C4891 1.389 . S
C4893 C4894 1.524 . S
C4894 C4893 1.524 . S
C4894 C4895 1.397 . S
C4894 C4899 1.363 . S
C4895 H4866 0.950 . S
C4895 C4894 1.397 . S
C4895 C4896 1.334 . S
C4896 H4867 0.950 . S
C4896 C4895 1.334 . S
C4896 C4897 1.287 . S
C4897 C4896 1.287 . S
C4897 C4898 1.524 . S
C4897 H4900 0.999 . S
C4898 H4868 0.950 . S
C4898 C4897 1.524 . S
C4898 C4899 1.415 . S
C4899 H4869 0.950 . S
C4899 C4894 1.363 . S
C4899 C4898 1.415 . S
H4900 C4897 0.999 . S
H4901 C4882 0.913 . S
H4902 C4920 0.951 . S
H4903 C4922 0.951 . S
H4904 C4924 0.950 . S
H4905 C4925 0.950 . S
H4906 C4927 0.950 . S
H4907 C4930 0.950 . S
H4908 C4931 0.950 . S
H4909 C4933 0.950 . S
H4910 C4934 0.950 . S
H4911 C4935 0.951 . S
H4912 C4937 0.951 . S
H4913 C4939 0.950 . S
H4914 C4940 0.950 . S
H4915 C4942 0.950 . S
H4916 C4945 0.950 . S
H4917 C4946 0.950 . S
H4918 C4948 0.950 . S
H4919 C4949 0.950 . S
C4920 H4902 0.951 . S
C4920 C4921 1.366 . S
C4920 C4922 1.388 . S
C4921 C4920 1.366 . S
C4921 C4925 1.385 . S
C4922 H4903 0.951 . S
C4922 C4920 1.388 . S
C4922 C4923 1.366 . S
C4923 C4922 1.366 . S
C4923 C4924 1.414 . S
C4923 C4926 1.499 . S
C4924 H4904 0.950 . S
C4924 C4923 1.414 . S
C4924 C4925 1.374 . S
C4925 H4905 0.950 . S
C4925 C4921 1.385 . S
C4925 C4924 1.374 . S
C4926 C4923 1.499 . S
C4926 C4927 1.373 . S
C4926 C4928 1.389 . S
C4927 H4906 0.950 . S
C4927 C4926 1.373 . S
C4927 C4943 1.377 . S
C4928 C4926 1.389 . S
C4928 C4929 1.524 . S
C4928 C4942 1.377 . S
C4929 C4928 1.524 . S
C4929 C4930 1.397 . S
C4929 C4934 1.363 . S
C4930 H4907 0.950 . S
C4930 C4929 1.397 . S
C4930 C4931 1.334 . S
C4931 H4908 0.950 . S
C4931 C4930 1.334 . S
C4931 C4932 1.287 . S
C4932 C4931 1.287 . S
C4932 C4933 1.524 . S
C4932 H4951 0.913 . S
C4933 H4909 0.950 . S
C4933 C4932 1.524 . S
C4933 C4934 1.415 . S
C4934 H4910 0.950 . S
C4934 C4929 1.363 . S
C4934 C4933 1.415 . S
C4935 H4911 0.951 . S
C4935 C4936 1.366 . S
C4935 C4937 1.388 . S
C4936 C4935 1.366 . S
C4936 C4940 1.385 . S
C4937 H4912 0.951 . S
C4937 C4935 1.388 . S
C4937 C4938 1.366 . S
C4938 C4937 1.366 . S
C4938 C4939 1.414 . S
C4938 C4941 1.499 . S
C4939 H4913 0.950 . S
C4939 C4938 1.414 . S
C4939 C4940 1.374 . S
C4940 H4914 0.950 . S
C4940 C4936 1.385 . S
C4940 C4939 1.374 . S
C4941 C4938 1.499 . S
C4941 C4942 1.373 . S
C4941 C4943 1.389 . S
C4942 H4915 0.950 . S
C4942 C4928 1.377 . S
C4942 C4941 1.373 . S
C4943 C4927 1.377 . S
C4943 C4941 1.389 . S
C4943 C4944 1.524 . S
C4944 C4943 1.524 . S
C4944 C4945 1.397 . S
C4944 C4949 1.363 . S
C4945 H4916 0.950 . S
C4945 C4944 1.397 . S
C4945 C4946 1.334 . S
C4946 H4917 0.950 . S
C4946 C4945 1.334 . S
C4946 C4947 1.287 . S
C4947 C4946 1.287 . S
C4947 C4948 1.524 . S
C4947 H4950 0.999 . S
C4948 H4918 0.950 . S
C4948 C4947 1.524 . S
C4948 C4949 1.415 . S
C4949 H4919 0.950 . S
C4949 C4944 1.363 . S
C4949 C4948 1.415 . S
H4950 C4947 0.999 . S
H4951 C4932 0.913 . S
H4952 C4970 0.951 . S
H4953 C4972 0.951 . S
H4954 C4974 0.950 . S
H4955 C4975 0.950 . S
H4956 C4977 0.950 . S
H4957 C4980 0.950 . S
H4958 C4981 0.950 . S
H4959 C4983 0.950 . S
H4960 C4984 0.950 . S
H4961 C4985 0.951 . S
H4962 C4987 0.951 . S
H4963 C4989 0.950 . S
H4964 C4990 0.950 . S
H4965 C4992 0.950 . S
H4966 C4995 0.950 . S
H4967 C4996 0.950 . S
H4968 C4998 0.950 . S
H4969 C4999 0.950 . S
C4970 H4952 0.951 . S
C4970 C4971 1.366 . S
C4970 C4972 1.388 . S
C4971 C4970 1.366 . S
C4971 C4975 1.385 . S
C4972 H4953 0.951 . S
C4972 C4970 1.388 . S
C4972 C4973 1.366 . S
C4973 C4972 1.366 . S
C4973 C4974 1.414 . S
C4973 C4976 1.499 . S
C4974 H4954 0.950 . S
C4974 C4973 1.414 . S
C4974 C4975 1.374 . S
C4975 H4955 0.950 . S
C4975 C4971 1.385 . S
C4975 C4974 1.374 . S
C4976 C4973 1.499 . S
C4976 C4977 1.373 . S
C4976 C4978 1.389 . S
C4977 H4956 0.950 . S
C4977 C4976 1.373 . S
C4977 C4993 1.377 . S
C4978 C4976 1.389 . S
C4978 C4979 1.524 . S
C4978 C4992 1.377 . S
C4979 C4978 1.524 . S
C4979 C4980 1.397 . S
C4979 C4984 1.363 . S
C4980 H4957 0.950 . S
C4980 C4979 1.397 . S
C4980 C4981 1.334 . S
C4981 H4958 0.950 . S
C4981 C4980 1.334 . S
C4981 C4982 1.287 . S
C4982 C4981 1.287 . S
C4982 C4983 1.524 . S
C4982 H5001 0.913 . S
C4983 H4959 0.950 . S
C4983 C4982 1.524 . S
C4983 C4984 1.415 . S
C4984 H4960 0.950 . S
C4984 C4979 1.363 . S
C4984 C4983 1.415 . S
C4985 H4961 0.951 . S
C4985 C4986 1.366 . S
C4985 C4987 1.388 . S
C4986 C4985 1.366 . S
C4986 C4990 1.385 . S
C4987 H4962 0.951 . S
C4987 C4985 1.388 . S
C4987 C4988 1.366 . S
C4988 C4987 1.366 . S
C4988 C4989 1.414 . S
C4988 C4991 1.499 . S
C4989 H4963 0.950 . S
C4989 C4988 1.414 . S
C4989 C4990 1.374 . S
C4990 H4964 0.950 . S
C4990 C4986 1.385 . S
C4990 C4989 1.374 . S
C4991 C4988 1.499 . S
C4991 C4992 1.373 . S
C4991 C4993 1.389 . S
C4992 H4965 0.950 . S
C4992 C4978 1.377 . S
C4992 C4991 1.373 . S
C4993 C4977 1.377 . S
C4993 C4991 1.389 . S
C4993 C4994 1.524 . S
C4994 C4993 1.524 . S
C4994 C4995 1.397 . S
C4994 C4999 1.363 . S
C4995 H4966 0.950 . S
C4995 C4994 1.397 . S
C4995 C4996 1.334 . S
C4996 H4967 0.950 . S
C4996 C4995 1.334 . S
C4996 C4997 1.287 . S
C4997 C4996 1.287 . S
C4997 C4998 1.524 . S
C4997 H5000 0.999 . S
C4998 H4968 0.950 . S
C4998 C4997 1.524 . S
C4998 C4999 1.415 . S
C4999 H4969 0.950 . S
C4999 C4994 1.363 . S
C4999 C4998 1.415 . S
H5000 C4997 0.999 . S
H5001 C4982 0.913 . S
H5002 C5020 0.951 . S
H5003 C5022 0.951 . S
H5004 C5024 0.950 . S
H5005 C5025 0.950 . S
H5006 C5027 0.950 . S
H5007 C5030 0.950 . S
H5008 C5031 0.950 . S
H5009 C5033 0.950 . S
H5010 C5034 0.950 . S
H5011 C5035 0.951 . S
H5012 C5037 0.951 . S
H5013 C5039 0.950 . S
H5014 C5040 0.950 . S
H5015 C5042 0.950 . S
H5016 C5045 0.950 . S
H5017 C5046 0.950 . S
H5018 C5048 0.950 . S
H5019 C5049 0.950 . S
C5020 H5002 0.951 . S
C5020 C5021 1.366 . S
C5020 C5022 1.388 . S
C5021 C5020 1.366 . S
C5021 C5025 1.385 . S
C5022 H5003 0.951 . S
C5022 C5020 1.388 . S
C5022 C5023 1.366 . S
C5023 C5022 1.366 . S
C5023 C5024 1.414 . S
C5023 C5026 1.499 . S
C5024 H5004 0.950 . S
C5024 C5023 1.414 . S
C5024 C5025 1.374 . S
C5025 H5005 0.950 . S
C5025 C5021 1.385 . S
C5025 C5024 1.374 . S
C5026 C5023 1.499 . S
C5026 C5027 1.373 . S
C5026 C5028 1.389 . S
C5027 H5006 0.950 . S
C5027 C5026 1.373 . S
C5027 C5043 1.377 . S
C5028 C5026 1.389 . S
C5028 C5029 1.524 . S
C5028 C5042 1.377 . S
C5029 C5028 1.524 . S
C5029 C5030 1.397 . S
C5029 C5034 1.363 . S
C5030 H5007 0.950 . S
C5030 C5029 1.397 . S
C5030 C5031 1.334 . S
C5031 H5008 0.950 . S
C5031 C5030 1.334 . S
C5031 C5032 1.287 . S
C5032 C5031 1.287 . S
C5032 C5033 1.524 . S
C5032 H5051 0.913 . S
C5033 H5009 0.950 . S
C5033 C5032 1.524 . S
C5033 C5034 1.415 . S
C5034 H5010 0.950 . S
C5034 C5029 1.363 . S
C5034 C5033 1.415 . S
C5035 H5011 0.951 . S
C5035 C5036 1.366 . S
C5035 C5037 1.388 . S
C5036 C5035 1.366 . S
C5036 C5040 1.385 . S
C5037 H5012 0.951 . S
C5037 C5035 1.388 . S
C5037 C5038 1.366 . S
C5038 C5037 1.366 . S
C5038 C5039 1.414 . S
C5038 C5041 1.499 . S
C5039 H5013 0.950 . S
C5039 C5038 1.414 . S
C5039 C5040 1.374 . S
C5040 H5014 0.950 . S
C5040 C5036 1.385 . S
C5040 C5039 1.374 . S
C5041 C5038 1.499 . S
C5041 C5042 1.373 . S
C5041 C5043 1.389 . S
C5042 H5015 0.950 . S
C5042 C5028 1.377 . S
C5042 C5041 1.373 . S
C5043 C5027 1.377 . S
C5043 C5041 1.389 . S
C5043 C5044 1.524 . S
C5044 C5043 1.524 . S
C5044 C5045 1.397 . S
C5044 C5049 1.363 . S
C5045 H5016 0.950 . S
C5045 C5044 1.397 . S
C5045 C5046 1.334 . S
C5046 H5017 0.950 . S
C5046 C5045 1.334 . S
C5046 C5047 1.287 . S
C5047 C5046 1.287 . S
C5047 C5048 1.524 . S
C5047 H5050 0.999 . S
C5048 H5018 0.950 . S
C5048 C5047 1.524 . S
C5048 C5049 1.415 . S
C5049 H5019 0.950 . S
C5049 C5044 1.363 . S
C5049 C5048 1.415 . S
H5050 C5047 0.999 . S
H5051 C5032 0.913 . S
H5052 C5070 0.951 . S
H5053 C5072 0.951 . S
H5054 C5074 0.950 . S
H5055 C5075 0.950 . S
H5056 C5077 0.950 . S
H5057 C5080 0.950 . S
H5058 C5081 0.950 . S
H5059 C5083 0.950 . S
H5060 C5084 0.932 1_655 S
H5061 C5085 0.951 . S
H5062 C5087 0.951 . S
H5063 C5089 0.919 1_655 S
H5064 C5090 0.950 . S
H5065 C5092 0.950 . S
H5066 C5095 0.950 . S
H5067 C5096 0.950 . S
H5068 C5098 0.950 . S
H5069 C5099 0.950 . S
C5070 H5052 0.951 . S
C5070 C5071 1.366 . S
C5070 C5072 1.388 . S
C5071 C5070 1.366 . S
C5071 C5075 1.385 . S
C5072 H5053 0.951 . S
C5072 C5070 1.388 . S
C5072 C5073 1.366 . S
C5073 C5072 1.366 . S
C5073 C5074 1.414 . S
C5073 C5076 1.499 . S
C5074 H5054 0.950 . S
C5074 C5073 1.414 . S
C5074 C5075 1.374 . S
C5075 H5055 0.950 . S
C5075 C5071 1.385 . S
C5075 C5074 1.374 . S
C5076 C5073 1.499 . S
C5076 C5077 1.373 . S
C5076 C5078 1.377 1_655 S
C5077 H5056 0.950 . S
C5077 C5076 1.373 . S
C5077 C5093 1.377 . S
C5078 C5076 1.377 1_455 S
C5078 C5079 1.537 . S
C5078 C5092 1.382 . S
C5079 C5078 1.537 . S
C5079 C5080 1.397 . S
C5079 C5084 1.363 . S
C5080 H5057 0.950 . S
C5080 C5079 1.397 . S
C5080 C5081 1.334 . S
C5081 H5058 0.950 . S
C5081 C5080 1.334 . S
C5081 C5082 1.287 . S
C5082 C5081 1.287 . S
C5082 C5083 1.524 . S
C5082 H5101 0.913 . S
C5083 H5059 0.950 . S
C5083 C5082 1.524 . S
C5083 C5084 1.415 . S
C5084 H5060 0.932 1_455 S
C5084 C5079 1.363 . S
C5084 C5083 1.415 . S
C5085 H5061 0.951 . S
C5085 C5086 1.366 . S
C5085 C5087 1.388 . S
C5086 C5085 1.366 . S
C5086 C5090 1.385 . S
C5087 H5062 0.951 . S
C5087 C5085 1.388 . S
C5087 C5088 1.366 . S
C5088 C5087 1.366 . S
C5088 C5089 1.436 . S
C5088 C5091 1.499 1_455 S
C5089 H5063 0.919 1_455 S
C5089 C5088 1.436 . S
C5089 C5090 1.387 . S
C5090 H5064 0.950 . S
C5090 C5086 1.385 . S
C5090 C5089 1.387 . S
C5091 C5088 1.499 1_655 S
C5091 C5092 1.373 1_655 S
C5091 C5093 1.389 . S
C5092 H5065 0.950 . S
C5092 C5078 1.382 . S
C5092 C5091 1.373 1_455 S
C5093 C5077 1.377 . S
C5093 C5091 1.389 . S
C5093 C5094 1.524 . S
C5094 C5093 1.524 . S
C5094 C5095 1.397 . S
C5094 C5099 1.363 . S
C5095 H5066 0.950 . S
C5095 C5094 1.397 . S
C5095 C5096 1.334 . S
C5096 H5067 0.950 . S
C5096 C5095 1.334 . S
C5096 C5097 1.287 . S
C5097 C5096 1.287 . S
C5097 C5098 1.524 . S
C5097 H5100 0.999 . S
C5098 H5068 0.950 . S
C5098 C5097 1.524 . S
C5098 C5099 1.415 . S
C5099 H5069 0.950 . S
C5099 C5094 1.363 . S
C5099 C5098 1.415 . S
H5100 C5097 0.999 . S
H5101 C5082 0.913 . S
H5102 C5120 0.951 . S
H5103 C5122 0.951 . S
H5104 C5124 0.950 . S
H5105 C5125 0.950 . S
H5106 C5127 0.950 . S
H5107 C5130 0.950 . S
H5108 C5131 0.950 . S
H5109 C5133 0.950 . S
H5110 C5134 0.950 . S
H5111 C5135 0.951 . S
H5112 C5137 0.951 . S
H5113 C5139 0.950 . S
H5114 C5140 0.950 . S
H5115 C5142 0.950 . S
H5116 C5145 0.950 . S
H5117 C5146 0.950 . S
H5118 C5148 0.950 . S
H5119 C5149 0.950 . S
C5120 H5102 0.951 . S
C5120 C5121 1.366 . S
C5120 C5122 1.388 . S
C5121 C5120 1.366 . S
C5121 C5125 1.385 . S
C5122 H5103 0.951 . S
C5122 C5120 1.388 . S
C5122 C5123 1.366 . S
C5123 C5122 1.366 . S
C5123 C5124 1.414 . S
C5123 C5126 1.499 . S
C5124 H5104 0.950 . S
C5124 C5123 1.414 . S
C5124 C5125 1.374 . S
C5125 H5105 0.950 . S
C5125 C5121 1.385 . S
C5125 C5124 1.374 . S
C5126 C5123 1.499 . S
C5126 C5127 1.373 . S
C5126 C5128 1.389 . S
C5127 H5106 0.950 . S
C5127 C5126 1.373 . S
C5127 C5143 1.377 . S
C5128 C5126 1.389 . S
C5128 C5129 1.524 . S
C5128 C5142 1.377 . S
C5129 C5128 1.524 . S
C5129 C5130 1.397 . S
C5129 C5134 1.363 . S
C5130 H5107 0.950 . S
C5130 C5129 1.397 . S
C5130 C5131 1.334 . S
C5131 H5108 0.950 . S
C5131 C5130 1.334 . S
C5131 C5132 1.287 . S
C5132 C5131 1.287 . S
C5132 C5133 1.524 . S
C5132 H5151 0.913 . S
C5133 H5109 0.950 . S
C5133 C5132 1.524 . S
C5133 C5134 1.415 . S
C5134 H5110 0.950 . S
C5134 C5129 1.363 . S
C5134 C5133 1.415 . S
C5135 H5111 0.951 . S
C5135 C5136 1.366 . S
C5135 C5137 1.388 . S
C5136 C5135 1.366 . S
C5136 C5140 1.385 . S
C5137 H5112 0.951 . S
C5137 C5135 1.388 . S
C5137 C5138 1.366 . S
C5138 C5137 1.366 . S
C5138 C5139 1.414 . S
C5138 C5141 1.499 . S
C5139 H5113 0.950 . S
C5139 C5138 1.414 . S
C5139 C5140 1.374 . S
C5140 H5114 0.950 . S
C5140 C5136 1.385 . S
C5140 C5139 1.374 . S
C5141 C5138 1.499 . S
C5141 C5142 1.373 . S
C5141 C5143 1.389 . S
C5142 H5115 0.950 . S
C5142 C5128 1.377 . S
C5142 C5141 1.373 . S
C5143 C5127 1.377 . S
C5143 C5141 1.389 . S
C5143 C5144 1.524 . S
C5144 C5143 1.524 . S
C5144 C5145 1.397 . S
C5144 C5149 1.363 . S
C5145 H5116 0.950 . S
C5145 C5144 1.397 . S
C5145 C5146 1.334 . S
C5146 H5117 0.950 . S
C5146 C5145 1.334 . S
C5146 C5147 1.287 . S
C5147 C5146 1.287 . S
C5147 C5148 1.524 . S
C5147 H5150 0.999 . S
C5148 H5118 0.950 . S
C5148 C5147 1.524 . S
C5148 C5149 1.415 . S
C5149 H5119 0.950 . S
C5149 C5144 1.363 . S
C5149 C5148 1.415 . S
H5150 C5147 0.999 . S
H5151 C5132 0.913 . S
H5152 C5170 0.951 . S
H5153 C5172 0.951 . S
H5154 C5174 0.950 . S
H5155 C5175 0.950 . S
H5156 C5177 0.950 . S
H5157 C5180 0.950 . S
H5158 C5181 0.950 . S
H5159 C5183 0.950 . S
H5160 C5184 0.950 . S
H5161 C5185 0.951 . S
H5162 C5187 0.951 . S
H5163 C5189 0.950 . S
H5164 C5190 0.950 . S
H5165 C5192 0.950 . S
H5166 C5195 0.950 . S
H5167 C5196 0.950 . S
H5168 C5198 0.950 . S
H5169 C5199 0.950 . S
C5170 H5152 0.951 . S
C5170 C5171 1.366 . S
C5170 C5172 1.388 . S
C5171 C5170 1.366 . S
C5171 C5175 1.385 . S
C5172 H5153 0.951 . S
C5172 C5170 1.388 . S
C5172 C5173 1.366 . S
C5173 C5172 1.366 . S
C5173 C5174 1.414 . S
C5173 C5176 1.499 . S
C5174 H5154 0.950 . S
C5174 C5173 1.414 . S
C5174 C5175 1.374 . S
C5175 H5155 0.950 . S
C5175 C5171 1.385 . S
C5175 C5174 1.374 . S
C5176 C5173 1.499 . S
C5176 C5177 1.373 . S
C5176 C5178 1.389 . S
C5177 H5156 0.950 . S
C5177 C5176 1.373 . S
C5177 C5193 1.377 . S
C5178 C5176 1.389 . S
C5178 C5179 1.524 . S
C5178 C5192 1.377 . S
C5179 C5178 1.524 . S
C5179 C5180 1.397 . S
C5179 C5184 1.363 . S
C5180 H5157 0.950 . S
C5180 C5179 1.397 . S
C5180 C5181 1.334 . S
C5181 H5158 0.950 . S
C5181 C5180 1.334 . S
C5181 C5182 1.287 . S
C5182 C5181 1.287 . S
C5182 C5183 1.524 . S
C5182 H5201 0.913 . S
C5183 H5159 0.950 . S
C5183 C5182 1.524 . S
C5183 C5184 1.415 . S
C5184 H5160 0.950 . S
C5184 C5179 1.363 . S
C5184 C5183 1.415 . S
C5185 H5161 0.951 . S
C5185 C5186 1.366 . S
C5185 C5187 1.388 . S
C5186 C5185 1.366 . S
C5186 C5190 1.385 . S
C5187 H5162 0.951 . S
C5187 C5185 1.388 . S
C5187 C5188 1.366 . S
C5188 C5187 1.366 . S
C5188 C5189 1.414 . S
C5188 C5191 1.499 . S
C5189 H5163 0.950 . S
C5189 C5188 1.414 . S
C5189 C5190 1.374 . S
C5190 H5164 0.950 . S
C5190 C5186 1.385 . S
C5190 C5189 1.374 . S
C5191 C5188 1.499 . S
C5191 C5192 1.373 . S
C5191 C5193 1.389 . S
C5192 H5165 0.950 . S
C5192 C5178 1.377 . S
C5192 C5191 1.373 . S
C5193 C5177 1.377 . S
C5193 C5191 1.389 . S
C5193 C5194 1.524 . S
C5194 C5193 1.524 . S
C5194 C5195 1.397 . S
C5194 C5199 1.363 . S
C5195 H5166 0.950 . S
C5195 C5194 1.397 . S
C5195 C5196 1.334 . S
C5196 H5167 0.950 . S
C5196 C5195 1.334 . S
C5196 C5197 1.287 . S
C5197 C5196 1.287 . S
C5197 C5198 1.524 . S
C5197 H5200 0.999 . S
C5198 H5168 0.950 . S
C5198 C5197 1.524 . S
C5198 C5199 1.415 . S
C5199 H5169 0.950 . S
C5199 C5194 1.363 . S
C5199 C5198 1.415 . S
H5200 C5197 0.999 . S
H5201 C5182 0.913 . S
H5202 C5220 0.951 . S
H5203 C5222 0.951 . S
H5204 C5224 0.950 . S
H5205 C5225 0.950 . S
H5206 C5227 0.950 . S
H5207 C5230 0.950 . S
H5208 C5231 0.950 . S
H5209 C5233 0.950 . S
H5210 C5234 0.950 . S
H5211 C5235 0.951 . S
H5212 C5237 0.951 . S
H5213 C5239 0.950 . S
H5214 C5240 0.950 . S
H5215 C5242 0.950 . S
H5216 C5245 0.950 . S
H5217 C5246 0.950 . S
H5218 C5248 0.950 . S
H5219 C5249 0.950 . S
C5220 H5202 0.951 . S
C5220 C5221 1.366 . S
C5220 C5222 1.388 . S
C5221 C5220 1.366 . S
C5221 C5225 1.385 . S
C5222 H5203 0.951 . S
C5222 C5220 1.388 . S
C5222 C5223 1.366 . S
C5223 C5222 1.366 . S
C5223 C5224 1.414 . S
C5223 C5226 1.499 . S
C5224 H5204 0.950 . S
C5224 C5223 1.414 . S
C5224 C5225 1.374 . S
C5225 H5205 0.950 . S
C5225 C5221 1.385 . S
C5225 C5224 1.374 . S
C5226 C5223 1.499 . S
C5226 C5227 1.373 . S
C5226 C5228 1.389 . S
C5227 H5206 0.950 . S
C5227 C5226 1.373 . S
C5227 C5243 1.377 . S
C5228 C5226 1.389 . S
C5228 C5229 1.524 . S
C5228 C5242 1.377 . S
C5229 C5228 1.524 . S
C5229 C5230 1.397 . S
C5229 C5234 1.363 . S
C5230 H5207 0.950 . S
C5230 C5229 1.397 . S
C5230 C5231 1.334 . S
C5231 H5208 0.950 . S
C5231 C5230 1.334 . S
C5231 C5232 1.287 . S
C5232 C5231 1.287 . S
C5232 C5233 1.524 . S
C5232 H5251 0.913 . S
C5233 H5209 0.950 . S
C5233 C5232 1.524 . S
C5233 C5234 1.415 . S
C5234 H5210 0.950 . S
C5234 C5229 1.363 . S
C5234 C5233 1.415 . S
C5235 H5211 0.951 . S
C5235 C5236 1.366 . S
C5235 C5237 1.388 . S
C5236 C5235 1.366 . S
C5236 C5240 1.385 . S
C5237 H5212 0.951 . S
C5237 C5235 1.388 . S
C5237 C5238 1.366 . S
C5238 C5237 1.366 . S
C5238 C5239 1.414 . S
C5238 C5241 1.499 . S
C5239 H5213 0.950 . S
C5239 C5238 1.414 . S
C5239 C5240 1.374 . S
C5240 H5214 0.950 . S
C5240 C5236 1.385 . S
C5240 C5239 1.374 . S
C5241 C5238 1.499 . S
C5241 C5242 1.373 . S
C5241 C5243 1.389 . S
C5242 H5215 0.950 . S
C5242 C5228 1.377 . S
C5242 C5241 1.373 . S
C5243 C5227 1.377 . S
C5243 C5241 1.389 . S
C5243 C5244 1.524 . S
C5244 C5243 1.524 . S
C5244 C5245 1.397 . S
C5244 C5249 1.363 . S
C5245 H5216 0.950 . S
C5245 C5244 1.397 . S
C5245 C5246 1.334 . S
C5246 H5217 0.950 . S
C5246 C5245 1.334 . S
C5246 C5247 1.287 . S
C5247 C5246 1.287 . S
C5247 C5248 1.524 . S
C5247 H5250 0.999 . S
C5248 H5218 0.950 . S
C5248 C5247 1.524 . S
C5248 C5249 1.415 . S
C5249 H5219 0.950 . S
C5249 C5244 1.363 . S
C5249 C5248 1.415 . S
H5250 C5247 0.999 . S
H5251 C5232 0.913 . S
H5252 C5270 0.951 . S
H5253 C5272 0.951 . S
H5254 C5274 0.950 . S
H5255 C5275 0.950 . S
H5256 C5277 0.950 1_455 S
H5257 C5280 0.950 . S
H5258 C5281 0.950 . S
H5259 C5283 0.950 . S
H5260 C5284 0.950 . S
H5261 C5285 0.951 . S
H5262 C5287 0.922 1_455 S
H5263 C5289 0.950 . S
H5264 C5290 0.950 . S
H5265 C5292 0.950 . S
H5266 C5295 1.007 . S
H5267 C5296 0.950 . S
H5268 C5298 0.950 . S
H5269 C5299 0.950 . S
C5270 H5252 0.951 . S
C5270 C5271 1.366 . S
C5270 C5272 1.388 . S
C5271 C5270 1.366 . S
C5271 C5275 1.385 . S
C5272 H5253 0.951 . S
C5272 C5270 1.388 . S
C5272 C5273 1.366 . S
C5273 C5272 1.366 . S
C5273 C5274 1.414 . S
C5273 C5276 1.499 . S
C5274 H5254 0.950 . S
C5274 C5273 1.414 . S
C5274 C5275 1.374 . S
C5275 H5255 0.950 . S
C5275 C5271 1.385 . S
C5275 C5274 1.374 . S
C5276 C5273 1.499 . S
C5276 C5277 1.373 . S
C5276 C5278 1.389 . S
C5277 H5256 0.950 1_655 S
C5277 C5276 1.373 . S
C5277 C5293 1.377 . S
C5278 C5276 1.389 . S
C5278 C5279 1.524 . S
C5278 C5292 1.377 . S
C5279 C5278 1.524 . S
C5279 C5280 1.397 . S
C5279 C5284 1.363 . S
C5280 H5257 0.950 . S
C5280 C5279 1.397 . S
C5280 C5281 1.334 . S
C5281 H5258 0.950 . S
C5281 C5280 1.334 . S
C5281 C5282 1.287 . S
C5282 C5281 1.287 . S
C5282 C5283 1.524 . S
C5282 H5301 0.913 . S
C5283 H5259 0.950 . S
C5283 C5282 1.524 . S
C5283 C5284 1.415 . S
C5284 H5260 0.950 . S
C5284 C5279 1.363 . S
C5284 C5283 1.415 . S
C5285 H5261 0.951 . S
C5285 C5286 1.366 1_455 S
C5285 C5287 1.376 1_455 S
C5286 C5285 1.366 1_655 S
C5286 C5290 1.385 . S
C5287 H5262 0.922 1_655 S
C5287 C5285 1.376 1_655 S
C5287 C5288 1.408 . S
C5288 C5287 1.408 . S
C5288 C5289 1.414 . S
C5288 C5291 1.499 . S
C5289 H5263 0.950 . S
C5289 C5288 1.414 . S
C5289 C5290 1.374 . S
C5290 H5264 0.950 . S
C5290 C5286 1.385 . S
C5290 C5289 1.374 . S
C5291 C5288 1.499 . S
C5291 C5292 1.373 . S
C5291 C5293 1.389 . S
C5292 H5265 0.950 . S
C5292 C5278 1.377 . S
C5292 C5291 1.373 . S
C5293 C5277 1.377 . S
C5293 C5291 1.389 . S
C5293 C5294 1.524 1_655 S
C5294 C5293 1.524 1_455 S
C5294 C5295 1.397 . S
C5294 C5299 1.363 . S
C5295 H5266 1.007 . S
C5295 C5294 1.397 . S
C5295 C5296 1.334 . S
C5296 H5267 0.950 . S
C5296 C5295 1.334 . S
C5296 C5297 1.287 . S
C5297 C5296 1.287 . S
C5297 C5298 1.524 . S
C5297 H5300 0.999 . S
C5298 H5268 0.950 . S
C5298 C5297 1.524 . S
C5298 C5299 1.415 . S
C5299 H5269 0.950 . S
C5299 C5294 1.363 . S
C5299 C5298 1.415 . S
H5300 C5297 0.999 . S
H5301 C5282 0.913 . S
H5302 C5320 0.951 . S
H5303 C5322 0.951 . S
H5304 C5324 0.950 . S
H5305 C5325 0.950 . S
H5306 C5327 0.950 . S
H5307 C5330 0.950 . S
H5308 C5331 0.950 . S
H5309 C5333 0.950 . S
H5310 C5334 0.950 . S
H5311 C5335 0.951 . S
H5312 C5337 0.951 . S
H5313 C5339 0.950 . S
H5314 C5340 0.950 . S
H5315 C5342 0.950 . S
H5316 C5345 0.950 . S
H5317 C5346 0.950 . S
H5318 C5348 0.950 . S
H5319 C5349 0.950 . S
C5320 H5302 0.951 . S
C5320 C5321 1.366 . S
C5320 C5322 1.388 . S
C5321 C5320 1.366 . S
C5321 C5325 1.385 . S
C5322 H5303 0.951 . S
C5322 C5320 1.388 . S
C5322 C5323 1.366 . S
C5323 C5322 1.366 . S
C5323 C5324 1.414 . S
C5323 C5326 1.499 . S
C5324 H5304 0.950 . S
C5324 C5323 1.414 . S
C5324 C5325 1.374 . S
C5325 H5305 0.950 . S
C5325 C5321 1.385 . S
C5325 C5324 1.374 . S
C5326 C5323 1.499 . S
C5326 C5327 1.373 . S
C5326 C5328 1.389 . S
C5327 H5306 0.950 . S
C5327 C5326 1.373 . S
C5327 C5343 1.377 . S
C5328 C5326 1.389 . S
C5328 C5329 1.524 . S
C5328 C5342 1.377 . S
C5329 C5328 1.524 . S
C5329 C5330 1.397 . S
C5329 C5334 1.363 . S
C5330 H5307 0.950 . S
C5330 C5329 1.397 . S
C5330 C5331 1.334 . S
C5331 H5308 0.950 . S
C5331 C5330 1.334 . S
C5331 C5332 1.287 . S
C5332 C5331 1.287 . S
C5332 C5333 1.524 . S
C5332 H5351 0.913 . S
C5333 H5309 0.950 . S
C5333 C5332 1.524 . S
C5333 C5334 1.415 . S
C5334 H5310 0.950 . S
C5334 C5329 1.363 . S
C5334 C5333 1.415 . S
C5335 H5311 0.951 . S
C5335 C5336 1.366 . S
C5335 C5337 1.388 . S
C5336 C5335 1.366 . S
C5336 C5340 1.385 . S
C5337 H5312 0.951 . S
C5337 C5335 1.388 . S
C5337 C5338 1.366 . S
C5338 C5337 1.366 . S
C5338 C5339 1.414 . S
C5338 C5341 1.499 . S
C5339 H5313 0.950 . S
C5339 C5338 1.414 . S
C5339 C5340 1.374 . S
C5340 H5314 0.950 . S
C5340 C5336 1.385 . S
C5340 C5339 1.374 . S
C5341 C5338 1.499 . S
C5341 C5342 1.373 . S
C5341 C5343 1.389 . S
C5342 H5315 0.950 . S
C5342 C5328 1.377 . S
C5342 C5341 1.373 . S
C5343 C5327 1.377 . S
C5343 C5341 1.389 . S
C5343 C5344 1.524 . S
C5344 C5343 1.524 . S
C5344 C5345 1.397 . S
C5344 C5349 1.363 . S
C5345 H5316 0.950 . S
C5345 C5344 1.397 . S
C5345 C5346 1.334 . S
C5346 H5317 0.950 . S
C5346 C5345 1.334 . S
C5346 C5347 1.287 . S
C5347 C5346 1.287 . S
C5347 C5348 1.524 . S
C5347 H5350 0.999 . S
C5348 H5318 0.950 . S
C5348 C5347 1.524 . S
C5348 C5349 1.415 . S
C5349 H5319 0.950 . S
C5349 C5344 1.363 . S
C5349 C5348 1.415 . S
H5350 C5347 0.999 . S
H5351 C5332 0.913 . S
H5352 C5370 0.951 . S
H5353 C5372 0.951 . S
H5354 C5374 0.950 . S
H5355 C5375 0.950 . S
H5356 C5377 0.950 . S
H5357 C5380 0.950 . S
H5358 C5381 0.950 . S
H5359 C5383 0.950 . S
H5360 C5384 0.950 . S
H5361 C5385 0.951 . S
H5362 C5387 0.951 . S
H5363 C5389 0.950 . S
H5364 C5390 0.950 . S
H5365 C5392 0.950 . S
H5366 C5395 0.950 . S
H5367 C5396 0.950 . S
H5368 C5398 0.950 . S
H5369 C5399 0.950 . S
C5370 H5352 0.951 . S
C5370 C5371 1.366 . S
C5370 C5372 1.388 . S
C5371 C5370 1.366 . S
C5371 C5375 1.385 . S
C5372 H5353 0.951 . S
C5372 C5370 1.388 . S
C5372 C5373 1.366 . S
C5373 C5372 1.366 . S
C5373 C5374 1.414 . S
C5373 C5376 1.499 . S
C5374 H5354 0.950 . S
C5374 C5373 1.414 . S
C5374 C5375 1.374 . S
C5375 H5355 0.950 . S
C5375 C5371 1.385 . S
C5375 C5374 1.374 . S
C5376 C5373 1.499 . S
C5376 C5377 1.373 . S
C5376 C5378 1.389 . S
C5377 H5356 0.950 . S
C5377 C5376 1.373 . S
C5377 C5393 1.377 . S
C5378 C5376 1.389 . S
C5378 C5379 1.524 . S
C5378 C5392 1.377 . S
C5379 C5378 1.524 . S
C5379 C5380 1.397 . S
C5379 C5384 1.363 . S
C5380 H5357 0.950 . S
C5380 C5379 1.397 . S
C5380 C5381 1.334 . S
C5381 H5358 0.950 . S
C5381 C5380 1.334 . S
C5381 C5382 1.287 . S
C5382 C5381 1.287 . S
C5382 C5383 1.524 . S
C5382 H5401 0.913 . S
C5383 H5359 0.950 . S
C5383 C5382 1.524 . S
C5383 C5384 1.415 . S
C5384 H5360 0.950 . S
C5384 C5379 1.363 . S
C5384 C5383 1.415 . S
C5385 H5361 0.951 . S
C5385 C5386 1.366 . S
C5385 C5387 1.388 . S
C5386 C5385 1.366 . S
C5386 C5390 1.385 . S
C5387 H5362 0.951 . S
C5387 C5385 1.388 . S
C5387 C5388 1.366 . S
C5388 C5387 1.366 . S
C5388 C5389 1.414 . S
C5388 C5391 1.499 . S
C5389 H5363 0.950 . S
C5389 C5388 1.414 . S
C5389 C5390 1.374 . S
C5390 H5364 0.950 . S
C5390 C5386 1.385 . S
C5390 C5389 1.374 . S
C5391 C5388 1.499 . S
C5391 C5392 1.373 . S
C5391 C5393 1.389 . S
C5392 H5365 0.950 . S
C5392 C5378 1.377 . S
C5392 C5391 1.373 . S
C5393 C5377 1.377 . S
C5393 C5391 1.389 . S
C5393 C5394 1.524 . S
C5394 C5393 1.524 . S
C5394 C5395 1.397 . S
C5394 C5399 1.363 . S
C5395 H5366 0.950 . S
C5395 C5394 1.397 . S
C5395 C5396 1.334 . S
C5396 H5367 0.950 . S
C5396 C5395 1.334 . S
C5396 C5397 1.287 . S
C5397 C5396 1.287 . S
C5397 C5398 1.524 . S
C5397 H5400 0.999 . S
C5398 H5368 0.950 . S
C5398 C5397 1.524 . S
C5398 C5399 1.415 . S
C5399 H5369 0.950 . S
C5399 C5394 1.363 . S
C5399 C5398 1.415 . S
H5400 C5397 0.999 . S
H5401 C5382 0.913 . S
H5402 C5420 0.951 . S
H5403 C5422 0.951 . S
H5404 C5424 0.950 . S
H5405 C5425 0.950 . S
H5406 C5427 0.950 . S
H5407 C5430 0.950 . S
H5408 C5431 0.950 . S
H5409 C5433 0.950 . S
H5410 C5434 0.950 . S
H5411 C5435 0.951 . S
H5412 C5437 0.951 . S
H5413 C5439 0.950 . S
H5414 C5440 0.950 . S
H5415 C5442 0.950 . S
H5416 C5445 0.950 . S
H5417 C5446 0.950 . S
H5418 C5448 0.950 . S
H5419 C5449 0.950 . S
C5420 H5402 0.951 . S
C5420 C5421 1.366 . S
C5420 C5422 1.388 . S
C5421 C5420 1.366 . S
C5421 C5425 1.385 . S
C5422 H5403 0.951 . S
C5422 C5420 1.388 . S
C5422 C5423 1.366 . S
C5423 C5422 1.366 . S
C5423 C5424 1.414 . S
C5423 C5426 1.499 . S
C5424 H5404 0.950 . S
C5424 C5423 1.414 . S
C5424 C5425 1.374 . S
C5425 H5405 0.950 . S
C5425 C5421 1.385 . S
C5425 C5424 1.374 . S
C5426 C5423 1.499 . S
C5426 C5427 1.373 . S
C5426 C5428 1.389 . S
C5427 H5406 0.950 . S
C5427 C5426 1.373 . S
C5427 C5443 1.377 . S
C5428 C5426 1.389 . S
C5428 C5429 1.524 . S
C5428 C5442 1.377 . S
C5429 C5428 1.524 . S
C5429 C5430 1.397 . S
C5429 C5434 1.363 . S
C5430 H5407 0.950 . S
C5430 C5429 1.397 . S
C5430 C5431 1.334 . S
C5431 H5408 0.950 . S
C5431 C5430 1.334 . S
C5431 C5432 1.287 . S
C5432 C5431 1.287 . S
C5432 C5433 1.524 . S
C5432 H5451 0.913 1_565 S
C5433 H5409 0.950 . S
C5433 C5432 1.524 . S
C5433 C5434 1.415 . S
C5434 H5410 0.950 . S
C5434 C5429 1.363 . S
C5434 C5433 1.415 . S
C5435 H5411 0.951 . S
C5435 C5436 1.366 . S
C5435 C5437 1.388 . S
C5436 C5435 1.366 . S
C5436 C5440 1.385 . S
C5437 H5412 0.951 . S
C5437 C5435 1.388 . S
C5437 C5438 1.366 . S
C5438 C5437 1.366 . S
C5438 C5439 1.414 . S
C5438 C5441 1.499 . S
C5439 H5413 0.950 . S
C5439 C5438 1.414 . S
C5439 C5440 1.374 . S
C5440 H5414 0.950 . S
C5440 C5436 1.385 . S
C5440 C5439 1.374 . S
C5441 C5438 1.499 . S
C5441 C5442 1.373 . S
C5441 C5443 1.389 . S
C5442 H5415 0.950 . S
C5442 C5428 1.377 . S
C5442 C5441 1.373 . S
C5443 C5427 1.377 . S
C5443 C5441 1.389 . S
C5443 C5444 1.524 . S
C5444 C5443 1.524 . S
C5444 C5445 1.397 . S
C5444 C5449 1.363 . S
C5445 H5416 0.950 . S
C5445 C5444 1.397 . S
C5445 C5446 1.334 . S
C5446 H5417 0.950 . S
C5446 C5445 1.334 . S
C5446 C5447 1.287 . S
C5447 C5446 1.287 . S
C5447 C5448 1.524 . S
C5447 H5450 0.999 . S
C5448 H5418 0.950 . S
C5448 C5447 1.524 . S
C5448 C5449 1.415 . S
C5449 H5419 0.950 . S
C5449 C5444 1.363 . S
C5449 C5448 1.415 . S
H5450 C5447 0.999 . S
H5451 C5432 0.913 1_545 S
H5452 C5470 0.951 . S
H5453 C5472 0.951 . S
H5454 C5474 0.950 . S
H5455 C5475 0.950 . S
H5456 C5477 0.950 . S
H5457 C5480 0.950 . S
H5458 C5481 0.950 . S
H5459 C5483 0.950 . S
H5460 C5484 0.950 . S
H5461 C5485 0.951 . S
H5462 C5487 0.951 . S
H5463 C5489 0.950 . S
H5464 C5490 0.950 . S
H5465 C5492 0.950 . S
H5466 C5495 0.950 . S
H5467 C5496 0.950 . S
H5468 C5498 0.950 . S
H5469 C5499 0.950 . S
C5470 H5452 0.951 . S
C5470 C5471 1.366 . S
C5470 C5472 1.388 . S
C5471 C5470 1.366 . S
C5471 C5475 1.385 . S
C5472 H5453 0.951 . S
C5472 C5470 1.388 . S
C5472 C5473 1.366 . S
C5473 C5472 1.366 . S
C5473 C5474 1.414 . S
C5473 C5476 1.499 . S
C5474 H5454 0.950 . S
C5474 C5473 1.414 . S
C5474 C5475 1.374 . S
C5475 H5455 0.950 . S
C5475 C5471 1.385 . S
C5475 C5474 1.374 . S
C5476 C5473 1.499 . S
C5476 C5477 1.373 . S
C5476 C5478 1.389 . S
C5477 H5456 0.950 . S
C5477 C5476 1.373 . S
C5477 C5493 1.377 . S
C5478 C5476 1.389 . S
C5478 C5479 1.524 . S
C5478 C5492 1.377 . S
C5479 C5478 1.524 . S
C5479 C5480 1.397 . S
C5479 C5484 1.363 . S
C5480 H5457 0.950 . S
C5480 C5479 1.397 . S
C5480 C5481 1.334 . S
C5481 H5458 0.950 . S
C5481 C5480 1.334 . S
C5481 C5482 1.287 . S
C5482 C5481 1.287 . S
C5482 C5483 1.524 . S
C5482 H5501 0.913 . S
C5483 H5459 0.950 . S
C5483 C5482 1.524 . S
C5483 C5484 1.415 . S
C5484 H5460 0.950 . S
C5484 C5479 1.363 . S
C5484 C5483 1.415 . S
C5485 H5461 0.951 . S
C5485 C5486 1.366 . S
C5485 C5487 1.388 . S
C5486 C5485 1.366 . S
C5486 C5490 1.385 . S
C5487 H5462 0.951 . S
C5487 C5485 1.388 . S
C5487 C5488 1.366 . S
C5488 C5487 1.366 . S
C5488 C5489 1.414 . S
C5488 C5491 1.499 . S
C5489 H5463 0.950 . S
C5489 C5488 1.414 . S
C5489 C5490 1.374 . S
C5490 H5464 0.950 . S
C5490 C5486 1.385 . S
C5490 C5489 1.374 . S
C5491 C5488 1.499 . S
C5491 C5492 1.373 . S
C5491 C5493 1.389 . S
C5492 H5465 0.950 . S
C5492 C5478 1.377 . S
C5492 C5491 1.373 . S
C5493 C5477 1.377 . S
C5493 C5491 1.389 . S
C5493 C5494 1.524 . S
C5494 C5493 1.524 . S
C5494 C5495 1.397 . S
C5494 C5499 1.363 . S
C5495 H5466 0.950 . S
C5495 C5494 1.397 . S
C5495 C5496 1.334 . S
C5496 H5467 0.950 . S
C5496 C5495 1.334 . S
C5496 C5497 1.287 . S
C5497 C5496 1.287 . S
C5497 C5498 1.524 . S
C5497 H5500 0.999 . S
C5498 H5468 0.950 . S
C5498 C5497 1.524 . S
C5498 C5499 1.415 . S
C5499 H5469 0.950 . S
C5499 C5494 1.363 . S
C5499 C5498 1.415 . S
H5500 C5497 0.999 . S
H5501 C5482 0.913 . S
H5502 C5520 0.951 . S
H5503 C5522 0.951 . S
H5504 C5524 0.950 . S
H5505 C5525 0.950 . S
H5506 C5527 0.950 . S
H5507 C5530 0.950 . S
H5508 C5531 0.950 . S
H5509 C5533 0.950 . S
H5510 C5534 0.950 . S
H5511 C5535 0.951 . S
H5512 C5537 0.951 . S
H5513 C5539 0.950 . S
H5514 C5540 0.950 . S
H5515 C5542 0.950 . S
H5516 C5545 0.950 . S
H5517 C5546 0.950 . S
H5518 C5548 0.950 . S
H5519 C5549 0.950 . S
C5520 H5502 0.951 . S
C5520 C5521 1.366 . S
C5520 C5522 1.388 . S
C5521 C5520 1.366 . S
C5521 C5525 1.385 . S
C5522 H5503 0.951 . S
C5522 C5520 1.388 . S
C5522 C5523 1.366 . S
C5523 C5522 1.366 . S
C5523 C5524 1.414 . S
C5523 C5526 1.499 . S
C5524 H5504 0.950 . S
C5524 C5523 1.414 . S
C5524 C5525 1.374 . S
C5525 H5505 0.950 . S
C5525 C5521 1.385 . S
C5525 C5524 1.374 . S
C5526 C5523 1.499 . S
C5526 C5527 1.373 1_556 S
C5526 C5528 1.389 . S
C5527 H5506 0.950 . S
C5527 C5526 1.373 1_554 S
C5527 C5543 1.377 . S
C5528 C5526 1.389 . S
C5528 C5529 1.524 . S
C5528 C5542 1.377 . S
C5529 C5528 1.524 . S
C5529 C5530 1.397 . S
C5529 C5534 1.363 . S
C5530 H5507 0.950 . S
C5530 C5529 1.397 . S
C5530 C5531 1.334 . S
C5531 H5508 0.950 . S
C5531 C5530 1.334 . S
C5531 C5532 1.287 . S
C5532 C5531 1.287 . S
C5532 C5533 1.524 . S
C5532 H5551 0.913 . S
C5533 H5509 0.950 . S
C5533 C5532 1.524 . S
C5533 C5534 1.415 . S
C5534 H5510 0.950 . S
C5534 C5529 1.363 . S
C5534 C5533 1.415 . S
C5535 H5511 0.951 . S
C5535 C5536 1.366 1_556 S
C5535 C5537 1.388 . S
C5536 C5535 1.366 1_554 S
C5536 C5540 1.385 . S
C5537 H5512 0.951 . S
C5537 C5535 1.388 . S
C5537 C5538 1.365 . S
C5538 C5537 1.365 . S
C5538 C5539 1.415 1_556 S
C5538 C5541 1.498 . S
C5539 H5513 0.950 . S
C5539 C5538 1.415 1_554 S
C5539 C5540 1.374 . S
C5540 H5514 0.950 . S
C5540 C5536 1.385 . S
C5540 C5539 1.374 . S
C5541 C5538 1.498 . S
C5541 C5542 1.373 . S
C5541 C5543 1.389 1_556 S
C5542 H5515 0.950 . S
C5542 C5528 1.377 . S
C5542 C5541 1.373 . S
C5543 C5527 1.377 . S
C5543 C5541 1.389 1_554 S
C5543 C5544 1.524 . S
C5544 C5543 1.524 . S
C5544 C5545 1.397 . S
C5544 C5549 1.363 . S
C5545 H5516 0.950 . S
C5545 C5544 1.397 . S
C5545 C5546 1.334 . S
C5546 H5517 0.950 . S
C5546 C5545 1.334 . S
C5546 C5547 1.287 . S
C5547 C5546 1.287 . S
C5547 C5548 1.524 . S
C5547 H5550 0.999 . S
C5548 H5518 0.950 . S
C5548 C5547 1.524 . S
C5548 C5549 1.415 . S
C5549 H5519 0.950 . S
C5549 C5544 1.363 . S
C5549 C5548 1.415 . S
H5550 C5547 0.999 . S
H5551 C5532 0.913 . S
H5552 C5570 0.951 . S
H5553 C5572 0.951 . S
H5554 C5574 0.950 . S
H5555 C5575 0.950 . S
H5556 C5577 0.950 . S
H5557 C5580 0.950 . S
H5558 C5581 0.950 . S
H5559 C5583 0.950 . S
H5560 C5584 0.950 . S
H5561 C5585 0.951 . S
H5562 C5587 0.951 . S
H5563 C5589 0.950 . S
H5564 C5590 0.950 . S
H5565 C5592 0.950 . S
H5566 C5595 0.950 . S
H5567 C5596 0.950 . S
H5568 C5598 0.950 . S
H5569 C5599 0.950 . S
C5570 H5552 0.951 . S
C5570 C5571 1.366 . S
C5570 C5572 1.388 . S
C5571 C5570 1.366 . S
C5571 C5575 1.385 . S
C5572 H5553 0.951 . S
C5572 C5570 1.388 . S
C5572 C5573 1.366 . S
C5573 C5572 1.366 . S
C5573 C5574 1.414 . S
C5573 C5576 1.499 . S
C5574 H5554 0.950 . S
C5574 C5573 1.414 . S
C5574 C5575 1.374 . S
C5575 H5555 0.950 . S
C5575 C5571 1.385 . S
C5575 C5574 1.374 . S
C5576 C5573 1.499 . S
C5576 C5577 1.373 . S
C5576 C5578 1.389 . S
C5577 H5556 0.950 . S
C5577 C5576 1.373 . S
C5577 C5593 1.377 . S
C5578 C5576 1.389 . S
C5578 C5579 1.524 . S
C5578 C5592 1.377 . S
C5579 C5578 1.524 . S
C5579 C5580 1.397 . S
C5579 C5584 1.363 . S
C5580 H5557 0.950 . S
C5580 C5579 1.397 . S
C5580 C5581 1.334 . S
C5581 H5558 0.950 . S
C5581 C5580 1.334 . S
C5581 C5582 1.287 . S
C5582 C5581 1.287 . S
C5582 C5583 1.524 . S
C5582 H5601 0.913 . S
C5583 H5559 0.950 . S
C5583 C5582 1.524 . S
C5583 C5584 1.415 . S
C5584 H5560 0.950 . S
C5584 C5579 1.363 . S
C5584 C5583 1.415 . S
C5585 H5561 0.951 . S
C5585 C5586 1.366 . S
C5585 C5587 1.388 . S
C5586 C5585 1.366 . S
C5586 C5590 1.385 . S
C5587 H5562 0.951 . S
C5587 C5585 1.388 . S
C5587 C5588 1.366 . S
C5588 C5587 1.366 . S
C5588 C5589 1.414 . S
C5588 C5591 1.499 . S
C5589 H5563 0.950 . S
C5589 C5588 1.414 . S
C5589 C5590 1.374 . S
C5590 H5564 0.950 . S
C5590 C5586 1.385 . S
C5590 C5589 1.374 . S
C5591 C5588 1.499 . S
C5591 C5592 1.373 . S
C5591 C5593 1.389 . S
C5592 H5565 0.950 . S
C5592 C5578 1.377 . S
C5592 C5591 1.373 . S
C5593 C5577 1.377 . S
C5593 C5591 1.389 . S
C5593 C5594 1.524 . S
C5594 C5593 1.524 . S
C5594 C5595 1.397 . S
C5594 C5599 1.363 . S
C5595 H5566 0.950 . S
C5595 C5594 1.397 . S
C5595 C5596 1.334 . S
C5596 H5567 0.950 . S
C5596 C5595 1.334 . S
C5596 C5597 1.287 . S
C5597 C5596 1.287 . S
C5597 C5598 1.524 . S
C5597 H5600 0.999 . S
C5598 H5568 0.950 . S
C5598 C5597 1.524 . S
C5598 C5599 1.415 . S
C5599 H5569 0.950 . S
C5599 C5594 1.363 . S
C5599 C5598 1.415 . S
H5600 C5597 0.999 . S
H5601 C5582 0.913 . S
H5602 C5620 0.951 . S
H5603 C5622 0.951 . S
H5604 C5624 0.950 . S
H5605 C5625 0.950 . S
H5606 C5627 0.950 . S
H5607 C5630 0.950 . S
H5608 C5631 0.950 . S
H5609 C5633 0.950 . S
H5610 C5634 0.950 . S
H5611 C5635 0.951 . S
H5612 C5637 0.951 . S
H5613 C5639 0.950 . S
H5614 C5640 0.950 . S
H5615 C5642 0.950 . S
H5616 C5645 0.950 . S
H5617 C5646 0.950 . S
H5618 C5648 0.950 . S
H5619 C5649 0.950 . S
C5620 H5602 0.951 . S
C5620 C5621 1.366 . S
C5620 C5622 1.388 . S
C5621 C5620 1.366 . S
C5621 C5625 1.385 . S
C5622 H5603 0.951 . S
C5622 C5620 1.388 . S
C5622 C5623 1.366 . S
C5623 C5622 1.366 . S
C5623 C5624 1.414 . S
C5623 C5626 1.499 . S
C5624 H5604 0.950 . S
C5624 C5623 1.414 . S
C5624 C5625 1.374 . S
C5625 H5605 0.950 . S
C5625 C5621 1.385 . S
C5625 C5624 1.374 . S
C5626 C5623 1.499 . S
C5626 C5627 1.373 . S
C5626 C5628 1.389 . S
C5627 H5606 0.950 . S
C5627 C5626 1.373 . S
C5627 C5643 1.377 . S
C5628 C5626 1.389 . S
C5628 C5629 1.524 . S
C5628 C5642 1.377 . S
C5629 C5628 1.524 . S
C5629 C5630 1.397 . S
C5629 C5634 1.363 . S
C5630 H5607 0.950 . S
C5630 C5629 1.397 . S
C5630 C5631 1.334 . S
C5631 H5608 0.950 . S
C5631 C5630 1.334 . S
C5631 C5632 1.287 . S
C5632 C5631 1.287 . S
C5632 C5633 1.524 . S
C5632 H5651 0.913 . S
C5633 H5609 0.950 . S
C5633 C5632 1.524 . S
C5633 C5634 1.415 . S
C5634 H5610 0.950 . S
C5634 C5629 1.363 . S
C5634 C5633 1.415 . S
C5635 H5611 0.951 . S
C5635 C5636 1.366 . S
C5635 C5637 1.388 . S
C5636 C5635 1.366 . S
C5636 C5640 1.385 . S
C5637 H5612 0.951 . S
C5637 C5635 1.388 . S
C5637 C5638 1.366 . S
C5638 C5637 1.366 . S
C5638 C5639 1.414 . S
C5638 C5641 1.499 . S
C5639 H5613 0.950 . S
C5639 C5638 1.414 . S
C5639 C5640 1.374 . S
C5640 H5614 0.950 . S
C5640 C5636 1.385 . S
C5640 C5639 1.374 . S
C5641 C5638 1.499 . S
C5641 C5642 1.373 . S
C5641 C5643 1.389 . S
C5642 H5615 0.950 . S
C5642 C5628 1.377 . S
C5642 C5641 1.373 . S
C5643 C5627 1.377 . S
C5643 C5641 1.389 . S
C5643 C5644 1.524 . S
C5644 C5643 1.524 . S
C5644 C5645 1.397 1_554 S
C5644 C5649 1.363 . S
C5645 H5616 0.950 . S
C5645 C5644 1.397 1_556 S
C5645 C5646 1.334 . S
C5646 H5617 0.950 . S
C5646 C5645 1.334 . S
C5646 C5647 1.304 . S
C5647 C5646 1.304 . S
C5647 C5648 1.498 1_556 S
C5647 H5650 1.005 . S
C5648 H5618 0.950 . S
C5648 C5647 1.498 1_554 S
C5648 C5649 1.415 . S
C5649 H5619 0.950 . S
C5649 C5644 1.363 . S
C5649 C5648 1.415 . S
H5650 C5647 1.005 . S
H5651 C5632 0.913 . S
H5652 C5670 0.951 . S
H5653 C5672 0.951 . S
H5654 C5674 0.950 . S
H5655 C5675 0.950 . S
H5656 C5677 0.950 . S
H5657 C5680 0.950 . S
H5658 C5681 0.950 . S
H5659 C5683 0.950 . S
H5660 C5684 0.950 . S
H5661 C5685 0.951 . S
H5662 C5687 0.951 . S
H5663 C5689 0.950 . S
H5664 C5690 0.950 . S
H5665 C5692 0.950 . S
H5666 C5695 0.950 . S
H5667 C5696 0.950 . S
H5668 C5698 0.950 . S
H5669 C5699 0.950 . S
C5670 H5652 0.951 . S
C5670 C5671 1.366 . S
C5670 C5672 1.388 . S
C5671 C5670 1.366 . S
C5671 C5675 1.385 . S
C5672 H5653 0.951 . S
C5672 C5670 1.388 . S
C5672 C5673 1.366 . S
C5673 C5672 1.366 . S
C5673 C5674 1.414 . S
C5673 C5676 1.499 . S
C5674 H5654 0.950 . S
C5674 C5673 1.414 . S
C5674 C5675 1.374 . S
C5675 H5655 0.950 . S
C5675 C5671 1.385 . S
C5675 C5674 1.374 . S
C5676 C5673 1.499 . S
C5676 C5677 1.373 . S
C5676 C5678 1.389 . S
C5677 H5656 0.950 . S
C5677 C5676 1.373 . S
C5677 C5693 1.377 . S
C5678 C5676 1.389 . S
C5678 C5679 1.524 . S
C5678 C5692 1.377 . S
C5679 C5678 1.524 . S
C5679 C5680 1.397 . S
C5679 C5684 1.363 . S
C5680 H5657 0.950 . S
C5680 C5679 1.397 . S
C5680 C5681 1.334 . S
C5681 H5658 0.950 . S
C5681 C5680 1.334 . S
C5681 C5682 1.287 . S
C5682 C5681 1.287 . S
C5682 C5683 1.524 . S
C5682 H5701 0.913 . S
C5683 H5659 0.950 . S
C5683 C5682 1.524 . S
C5683 C5684 1.415 . S
C5684 H5660 0.950 . S
C5684 C5679 1.363 . S
C5684 C5683 1.415 . S
C5685 H5661 0.951 . S
C5685 C5686 1.366 . S
C5685 C5687 1.388 . S
C5686 C5685 1.366 . S
C5686 C5690 1.385 . S
C5687 H5662 0.951 . S
C5687 C5685 1.388 . S
C5687 C5688 1.366 . S
C5688 C5687 1.366 . S
C5688 C5689 1.414 . S
C5688 C5691 1.499 . S
C5689 H5663 0.950 . S
C5689 C5688 1.414 . S
C5689 C5690 1.374 . S
C5690 H5664 0.950 . S
C5690 C5686 1.385 . S
C5690 C5689 1.374 . S
C5691 C5688 1.499 . S
C5691 C5692 1.373 . S
C5691 C5693 1.389 . S
C5692 H5665 0.950 . S
C5692 C5678 1.377 . S
C5692 C5691 1.373 . S
C5693 C5677 1.377 . S
C5693 C5691 1.389 . S
C5693 C5694 1.524 . S
C5694 C5693 1.524 . S
C5694 C5695 1.397 . S
C5694 C5699 1.363 . S
C5695 H5666 0.950 . S
C5695 C5694 1.397 . S
C5695 C5696 1.334 . S
C5696 H5667 0.950 . S
C5696 C5695 1.334 . S
C5696 C5697 1.287 . S
C5697 C5696 1.287 . S
C5697 C5698 1.524 . S
C5697 H5700 0.999 . S
C5698 H5668 0.950 . S
C5698 C5697 1.524 . S
C5698 C5699 1.415 . S
C5699 H5669 0.950 . S
C5699 C5694 1.363 . S
C5699 C5698 1.415 . S
H5700 C5697 0.999 . S
H5701 C5682 0.913 . S
H5702 C5720 0.951 . S
H5703 C5722 0.951 . S
H5704 C5724 0.950 . S
H5705 C5725 0.950 . S
H5706 C5727 0.950 . S
H5707 C5730 0.950 . S
H5708 C5731 0.950 . S
H5709 C5733 0.950 . S
H5710 C5734 0.950 . S
H5711 C5735 0.951 . S
H5712 C5737 0.951 . S
H5713 C5739 0.950 . S
H5714 C5740 0.950 . S
H5715 C5742 0.950 . S
H5716 C5745 0.950 . S
H5717 C5746 0.950 . S
H5718 C5748 0.950 . S
H5719 C5749 0.950 . S
C5720 H5702 0.951 . S
C5720 C5721 1.366 . S
C5720 C5722 1.388 . S
C5721 C5720 1.366 . S
C5721 C5725 1.385 . S
C5722 H5703 0.951 . S
C5722 C5720 1.388 . S
C5722 C5723 1.366 . S
C5723 C5722 1.366 . S
C5723 C5724 1.414 . S
C5723 C5726 1.499 . S
C5724 H5704 0.950 . S
C5724 C5723 1.414 . S
C5724 C5725 1.374 . S
C5725 H5705 0.950 . S
C5725 C5721 1.385 . S
C5725 C5724 1.374 . S
C5726 C5723 1.499 . S
C5726 C5727 1.373 . S
C5726 C5728 1.389 . S
C5727 H5706 0.950 . S
C5727 C5726 1.373 . S
C5727 C5743 1.377 . S
C5728 C5726 1.389 . S
C5728 C5729 1.524 . S
C5728 C5742 1.377 . S
C5729 C5728 1.524 . S
C5729 C5730 1.397 . S
C5729 C5734 1.363 . S
C5730 H5707 0.950 . S
C5730 C5729 1.397 . S
C5730 C5731 1.334 . S
C5731 H5708 0.950 . S
C5731 C5730 1.334 . S
C5731 C5732 1.287 . S
C5732 C5731 1.287 . S
C5732 C5733 1.524 . S
C5732 H5751 0.913 . S
C5733 H5709 0.950 . S
C5733 C5732 1.524 . S
C5733 C5734 1.415 . S
C5734 H5710 0.950 . S
C5734 C5729 1.363 . S
C5734 C5733 1.415 . S
C5735 H5711 0.951 . S
C5735 C5736 1.366 . S
C5735 C5737 1.388 . S
C5736 C5735 1.366 . S
C5736 C5740 1.385 . S
C5737 H5712 0.951 . S
C5737 C5735 1.388 . S
C5737 C5738 1.366 . S
C5738 C5737 1.366 . S
C5738 C5739 1.414 . S
C5738 C5741 1.499 . S
C5739 H5713 0.950 . S
C5739 C5738 1.414 . S
C5739 C5740 1.374 . S
C5740 H5714 0.950 . S
C5740 C5736 1.385 . S
C5740 C5739 1.374 . S
C5741 C5738 1.499 . S
C5741 C5742 1.373 . S
C5741 C5743 1.389 . S
C5742 H5715 0.950 . S
C5742 C5728 1.377 . S
C5742 C5741 1.373 . S
C5743 C5727 1.377 . S
C5743 C5741 1.389 . S
C5743 C5744 1.524 . S
C5744 C5743 1.524 . S
C5744 C5745 1.397 . S
C5744 C5749 1.363 . S
C5745 H5716 0.950 . S
C5745 C5744 1.397 . S
C5745 C5746 1.334 . S
C5746 H5717 0.950 . S
C5746 C5745 1.334 . S
C5746 C5747 1.287 . S
C5747 C5746 1.287 . S
C5747 C5748 1.524 . S
C5747 H5750 0.999 . S
C5748 H5718 0.950 . S
C5748 C5747 1.524 . S
C5748 C5749 1.415 . S
C5749 H5719 0.950 . S
C5749 C5744 1.363 . S
C5749 C5748 1.415 . S
H5750 C5747 0.999 . S
H5751 C5732 0.913 . S
C971 C101 1.682 . S
C986 C334 1.657 . S
C1021 C57 1.009 . S
C1036 C354 1.006 . S
C1071 C70 0.325 . S
C1086 C401 0.338 . S
C1136 C458 0.966 . S
C1121 C82 0.974 . S
C1171 C23 2.511 . S
C1186 C475 2.502 . S
C1236 C534 1.501 . S
C1221 C29 1.516 . S
C1286 C567 2.571 . S
C1271 C49 2.563 . S
C1321 C10 2.478 . S
C1336 C614 2.448 . S
C1386 C327 1.399 . S
C1371 C218 1.380 . S
C1421 C226 1.065 . S
C1436 C355 1.054 . S
C1486 C394 0.478 . S
C1471 C251 0.452 1_565 S
C1536 C454 1.893 . S
C1521 C159 1.893 . S
C1571 C211 0.170 . S
C1586 C481 0.222 . S
C1636 C527 2.221 . S
C1621 C225 2.228 . S
C1686 C578 0.521 . S
C1671 C252 0.365 . S
C1736 C607 2.196 . S
C1721 C166 2.189 . S
C1786 C338 1.719 . S
C1771 C147 1.729 . S
C1821 C263 2.221 . S
C1836 C634 2.200 . S
C1886 C698 1.160 . S
C1871 C309 1.165 . S
C1936 C734 1.170 . S
C1921 C291 1.172 . S
C1971 C108 1.184 . S
C1986 C618 1.189 . S
C2021 C121 2.467 . S
C2036 C395 2.464 . S
C2071 C302 1.277 . S
C2086 C767 1.297 . S
C2136 C801 0.261 . S
C2121 C276 0.321 . S
C2186 C315 1.923 1_565 S
C2171 C55 1.924 . S
C2236 C807 1.328 . S
C2221 C96 1.361 . S
C2271 C88 0.798 . S
C2286 C418 0.797 . S
C2321 C75 1.120 . S
C2336 C761 1.110 . S
C2386 C494 2.957 . S
C2371 C4 2.973 . S
C2421 C44 1.856 . S
C2436 C675 1.854 . S
C2486 C554 2.996 1_566 S
C2471 C31 3.008 . S
C2536 C835 2.613 . S
C2521 C18 2.627 1_655 S
C2586 C314 1.565 1_556 S
C2571 C133 1.571 . S
C2636 C814 1.753 . S
C2621 C296 1.770 . S
C2671 C107 0.813 . S
C2686 C407 0.809 . S
C2721 C264 2.283 . S
C2736 C755 2.292 . S
C2771 C140 0.462 . S
C2786 C498 0.479 . S
C2836 C674 2.617 . S
C2821 C289 2.632 . S
C2871 C114 0.283 . S
C2886 C561 0.380 . S
C2921 C265 2.579 . S
C2936 C834 2.566 . S
C2971 C179 1.673 . S
C2986 C321 1.661 1_556 S
C3021 C161 2.467 . S
C3036 C647 2.433 . S
C3071 C244 1.322 . S
C3086 C521 1.316 . S
C3121 C224 1.489 . S
C3136 C715 1.490 . S
C3186 C841 1.137 . S
C3171 C257 1.139 . S
C3221 C199 2.819 . S
C3236 C414 2.825 . S
C3286 C434 1.701 . S
C3271 C237 1.702 . S
C3336 C378 0.379 . S
C3321 C185 0.331 . S
C3371 C69 1.683 . S
C3386 C894 1.661 . S
C3436 C794 1.007 . S
C3421 C83 1.010 . S
C3471 C94 0.326 . S
C3486 C921 0.341 . S
C3521 C56 0.973 . S
C3536 C778 0.965 . S
C3571 C42 2.521 . S
C3586 C635 2.511 . S
C3636 C694 1.500 . S
C3621 C3 1.516 . S
C3686 C727 2.581 . S
C3671 C16 2.571 . S
C3736 C854 2.448 . S
C3721 C36 2.478 . S
C3786 C887 1.399 . S
C3771 C238 1.380 . S
C3821 C174 1.063 . S
C3836 C795 1.060 . S
C3886 C914 0.477 . S
C3871 C186 0.453 . S
C3936 C774 1.891 . S
C3921 C198 1.892 . S
C3986 C641 0.224 . S
C3971 C239 0.172 . S
C4021 C173 2.228 . S
C4036 C687 2.215 . S
C4086 C738 0.520 . S
C4071 C187 0.364 . S
C4121 C205 2.189 . S
C4136 C847 2.196 . S
C4186 C898 1.708 . S
C4171 C290 1.727 . S
C4221 C122 2.222 . S
C4236 C474 2.201 . S
C4286 C538 1.162 . S
C4271 C134 1.166 . S
C4336 C574 1.171 . S
C4321 C148 1.172 . S
C4386 C858 1.187 . S
C4371 C283 1.182 . S
C4421 C270 2.466 . S
C4436 C915 2.463 . S
C4486 C447 1.296 . S
C4471 C135 1.276 . S
C4536 C361 0.262 . S
C4521 C109 0.324 . S
C4571 C81 1.924 . S
C4586 C875 1.924 . S
C4636 C367 1.328 . S
C4621 C68 1.355 . S
C4671 C62 0.798 . S
C4686 C938 0.797 . S
C4721 C95 1.119 . S
C4736 C441 1.103 . S
C4771 C30 2.974 . S
C4786 C654 2.958 . S
C4836 C515 1.844 . S
C4821 C17 1.850 . S
C4871 C5 3.009 . S
C4886 C714 2.997 . S
C4921 C43 2.619 . S
C4936 C595 2.603 . S
C4986 C874 1.566 . S
C4971 C304 1.572 . S
C5021 C153 1.769 . S
C5036 C374 1.751 . S
C5086 C927 0.808 . S
C5071 C278 0.813 . S
C5121 C127 2.282 . S
C5136 C435 2.291 . S
C5171 C303 0.459 . S
C5186 C658 0.477 . S
C5236 C514 2.615 . S
C5221 C146 2.631 1_556 S
C5271 C277 0.285 . S
C5286 C721 0.384 . S
C5336 C594 2.564 . S
C5321 C120 2.577 . S
C5386 C881 1.662 . S
C5371 C231 1.673 . S
C5436 C487 2.432 1_665 S
C5421 C200 2.466 . S
C5471 C212 1.323 . S
C5486 C681 1.317 . S
C5536 C555 1.490 . S
C5521 C172 1.488 . S
C5571 C192 1.138 . S
C5586 C601 1.137 . S
C5621 C160 2.819 . S
C5636 C934 2.813 . S
C5686 C754 1.703 . S
C5671 C213 1.703 . S
C5736 C818 0.382 . S
C5721 C250 0.333 . S
