# Generated by pormake.
# Topology eea, (3,6)-cn, num edge types: 1
# Building blocks:
#     Node 0, Type 0, BuildingBlock: OLANEW_clean_sbu_2, # of connection points: 3
#     Node 1, Type 0, BuildingBlock: OLANEW_clean_sbu_2, # of connection points: 3
#     Node 2, Type 0, BuildingBlock: OLANEW_clean_sbu_2, # of connection points: 3
#     Node 3, Type 0, BuildingBlock: OLANEW_clean_sbu_2, # of connection points: 3
#     Node 4, Type 0, BuildingBlock: OLANEW_clean_sbu_2, # of connection points: 3
#     Node 5, Type 0, BuildingBlock: OLANEW_clean_sbu_2, # of connection points: 3
#     Node 6, Type 0, BuildingBlock: OLANEW_clean_sbu_2, # of connection points: 3
#     Node 7, Type 0, BuildingBlock: OLANEW_clean_sbu_2, # of connection points: 3
#     Node 8, Type 0, BuildingBlock: OLANEW_clean_sbu_2, # of connection points: 3
#     Node 9, Type 0, BuildingBlock: OLANEW_clean_sbu_2, # of connection points: 3
#     Node 10, Type 0, BuildingBlock: OLANEW_clean_sbu_2, # of connection points: 3
#     Node 11, Type 0, BuildingBlock: OLANEW_clean_sbu_2, # of connection points: 3
#     Node 12, Type 0, BuildingBlock: OLANEW_clean_sbu_2, # of connection points: 3
#     Node 13, Type 0, BuildingBlock: OLANEW_clean_sbu_2, # of connection points: 3
#     Node 14, Type 0, BuildingBlock: OLANEW_clean_sbu_2, # of connection points: 3
#     Node 15, Type 0, BuildingBlock: OLANEW_clean_sbu_2, # of connection points: 3
#     Node 16, Type 0, BuildingBlock: OLANEW_clean_sbu_2, # of connection points: 3
#     Node 17, Type 0, BuildingBlock: OLANEW_clean_sbu_2, # of connection points: 3
#     Node 18, Type 1, BuildingBlock: CUKXOW_clean_sbu_0, # of connection points: 6
#     Node 19, Type 1, BuildingBlock: CUKXOW_clean_sbu_0, # of connection points: 6
#     Node 20, Type 1, BuildingBlock: CUKXOW_clean_sbu_0, # of connection points: 6
#     Node 21, Type 1, BuildingBlock: CUKXOW_clean_sbu_0, # of connection points: 6
#     Node 22, Type 1, BuildingBlock: CUKXOW_clean_sbu_0, # of connection points: 6
#     Node 23, Type 1, BuildingBlock: CUKXOW_clean_sbu_0, # of connection points: 6
#     Node 24, Type 1, BuildingBlock: CUKXOW_clean_sbu_0, # of connection points: 6
#     Node 25, Type 1, BuildingBlock: CUKXOW_clean_sbu_0, # of connection points: 6
#     Node 26, Type 1, BuildingBlock: CUKXOW_clean_sbu_0, # of connection points: 6
#     Edge 27, Type (0, 1), BuildingBlock: XUDNAN_clean_linker_2, # of connection points: 2
#     Edge 28, Type (0, 1), BuildingBlock: XUDNAN_clean_linker_2, # of connection points: 2
#     Edge 29, Type (0, 1), BuildingBlock: XUDNAN_clean_linker_2, # of connection points: 2
#     Edge 30, Type (0, 1), BuildingBlock: XUDNAN_clean_linker_2, # of connection points: 2
#     Edge 31, Type (0, 1), BuildingBlock: XUDNAN_clean_linker_2, # of connection points: 2
#     Edge 32, Type (0, 1), BuildingBlock: XUDNAN_clean_linker_2, # of connection points: 2
#     Edge 33, Type (0, 1), BuildingBlock: XUDNAN_clean_linker_2, # of connection points: 2
#     Edge 34, Type (0, 1), BuildingBlock: XUDNAN_clean_linker_2, # of connection points: 2
#     Edge 35, Type (0, 1), BuildingBlock: XUDNAN_clean_linker_2, # of connection points: 2
#     Edge 36, Type (0, 1), BuildingBlock: XUDNAN_clean_linker_2, # of connection points: 2
#     Edge 37, Type (0, 1), BuildingBlock: XUDNAN_clean_linker_2, # of connection points: 2
#     Edge 38, Type (0, 1), BuildingBlock: XUDNAN_clean_linker_2, # of connection points: 2
#     Edge 39, Type (0, 1), BuildingBlock: XUDNAN_clean_linker_2, # of connection points: 2
#     Edge 40, Type (0, 1), BuildingBlock: XUDNAN_clean_linker_2, # of connection points: 2
#     Edge 41, Type (0, 1), BuildingBlock: XUDNAN_clean_linker_2, # of connection points: 2
#     Edge 42, Type (0, 1), BuildingBlock: XUDNAN_clean_linker_2, # of connection points: 2
#     Edge 43, Type (0, 1), BuildingBlock: XUDNAN_clean_linker_2, # of connection points: 2
#     Edge 44, Type (0, 1), BuildingBlock: XUDNAN_clean_linker_2, # of connection points: 2
#     Edge 45, Type (0, 1), BuildingBlock: XUDNAN_clean_linker_2, # of connection points: 2
#     Edge 46, Type (0, 1), BuildingBlock: XUDNAN_clean_linker_2, # of connection points: 2
#     Edge 47, Type (0, 1), BuildingBlock: XUDNAN_clean_linker_2, # of connection points: 2
#     Edge 48, Type (0, 1), BuildingBlock: XUDNAN_clean_linker_2, # of connection points: 2
#     Edge 49, Type (0, 1), BuildingBlock: XUDNAN_clean_linker_2, # of connection points: 2
#     Edge 50, Type (0, 1), BuildingBlock: XUDNAN_clean_linker_2, # of connection points: 2
#     Edge 51, Type (0, 1), BuildingBlock: XUDNAN_clean_linker_2, # of connection points: 2
#     Edge 52, Type (0, 1), BuildingBlock: XUDNAN_clean_linker_2, # of connection points: 2
#     Edge 53, Type (0, 1), BuildingBlock: XUDNAN_clean_linker_2, # of connection points: 2
#     Edge 54, Type (0, 1), BuildingBlock: XUDNAN_clean_linker_2, # of connection points: 2
#     Edge 55, Type (0, 1), BuildingBlock: XUDNAN_clean_linker_2, # of connection points: 2
#     Edge 56, Type (0, 1), BuildingBlock: XUDNAN_clean_linker_2, # of connection points: 2
#     Edge 57, Type (0, 1), BuildingBlock: XUDNAN_clean_linker_2, # of connection points: 2
#     Edge 58, Type (0, 1), BuildingBlock: XUDNAN_clean_linker_2, # of connection points: 2
#     Edge 59, Type (0, 1), BuildingBlock: XUDNAN_clean_linker_2, # of connection points: 2
#     Edge 60, Type (0, 1), BuildingBlock: XUDNAN_clean_linker_2, # of connection points: 2
#     Edge 61, Type (0, 1), BuildingBlock: XUDNAN_clean_linker_2, # of connection points: 2
#     Edge 62, Type (0, 1), BuildingBlock: XUDNAN_clean_linker_2, # of connection points: 2
#     Edge 63, Type (0, 1), BuildingBlock: XUDNAN_clean_linker_2, # of connection points: 2
#     Edge 64, Type (0, 1), BuildingBlock: XUDNAN_clean_linker_2, # of connection points: 2
#     Edge 65, Type (0, 1), BuildingBlock: XUDNAN_clean_linker_2, # of connection points: 2
#     Edge 66, Type (0, 1), BuildingBlock: XUDNAN_clean_linker_2, # of connection points: 2
#     Edge 67, Type (0, 1), BuildingBlock: XUDNAN_clean_linker_2, # of connection points: 2
#     Edge 68, Type (0, 1), BuildingBlock: XUDNAN_clean_linker_2, # of connection points: 2
#     Edge 69, Type (0, 1), BuildingBlock: XUDNAN_clean_linker_2, # of connection points: 2
#     Edge 70, Type (0, 1), BuildingBlock: XUDNAN_clean_linker_2, # of connection points: 2
#     Edge 71, Type (0, 1), BuildingBlock: XUDNAN_clean_linker_2, # of connection points: 2
#     Edge 72, Type (0, 1), BuildingBlock: XUDNAN_clean_linker_2, # of connection points: 2
#     Edge 73, Type (0, 1), BuildingBlock: XUDNAN_clean_linker_2, # of connection points: 2
#     Edge 74, Type (0, 1), BuildingBlock: XUDNAN_clean_linker_2, # of connection points: 2
#     Edge 75, Type (0, 1), BuildingBlock: XUDNAN_clean_linker_2, # of connection points: 2
#     Edge 76, Type (0, 1), BuildingBlock: XUDNAN_clean_linker_2, # of connection points: 2
#     Edge 77, Type (0, 1), BuildingBlock: XUDNAN_clean_linker_2, # of connection points: 2
#     Edge 78, Type (0, 1), BuildingBlock: XUDNAN_clean_linker_2, # of connection points: 2
#     Edge 79, Type (0, 1), BuildingBlock: XUDNAN_clean_linker_2, # of connection points: 2
#     Edge 80, Type (0, 1), BuildingBlock: XUDNAN_clean_linker_2, # of connection points: 2
# Relax obj value: 0.013
# Max RMSD: 0.116
# Mean RMSD: 0.058
data_MOF--net-eea--node1-OLANEW_clean_sbu_2--node2-CUKXOW_clean_sbu_0--edge1-XUDNAN_clean_linker_2
_symmetry_space_group_name_H-M    P1
_symmetry_Int_Tables_number       1
_symmetry_cell_setting            triclinic
loop_
_symmetry_equiv_pos_as_xyz
'x, y, z'
_cell_length_a     65.838694
_cell_length_b     61.183665
_cell_length_c     51.688811
_cell_angle_alpha  97.001926
_cell_angle_beta   93.396877
_cell_angle_gamma 120.5652
loop_
_atom_site_label
_atom_site_type_symbol
_atom_site_fract_x
_atom_site_fract_y
_atom_site_fract_z
_atom_type_partial_charge
O0 O 0.26187 0.17062 0.44983 0.0
Cd1 Cd 0.25086 0.16469 0.40228 0.0
O2 O 0.24392 0.12869 0.44844 0.0
Cd3 Cd 0.22889 0.11619 0.40701 0.0
O4 O 0.21457 0.0802 0.37957 0.0
C5 C 0.20001 0.06007 0.38817 0.0
O6 O 0.19315 0.06279 0.41109 0.0
C7 C 0.25643 0.15152 0.46135 0.0
C8 C 0.23166 0.19371 0.38811 0.0
O9 O 0.21828 0.1707 0.39238 0.0
O10 O 0.25423 0.20313 0.39081 0.0
O11 O 0.89849 0.20366 0.4669 0.0
Cd12 Cd 0.91256 0.22236 0.42752 0.0
O13 O 0.88337 0.16509 0.44371 0.0
Cd14 Cd 0.86525 0.12299 0.43457 0.0
O15 O 0.84718 0.08157 0.41992 0.0
C16 C 0.82536 0.06925 0.40992 0.0
O17 O 0.81402 0.08173 0.409 0.0
C18 C 0.88649 0.17934 0.46549 0.0
C19 C 0.96176 0.24844 0.42707 0.0
O20 O 0.95199 0.25921 0.43958 0.0
O21 O 0.94835 0.22503 0.41517 0.0
O22 O 0.8983 0.72205 0.45935 0.0
Cd23 Cd 0.90823 0.74206 0.42015 0.0
O24 O 0.86589 0.72376 0.46227 0.0
Cd25 Cd 0.86805 0.74364 0.42937 0.0
O26 O 0.85209 0.75992 0.40604 0.0
C27 C 0.83224 0.75604 0.41219 0.0
O28 O 0.82345 0.7429 0.43114 0.0
C29 C 0.88023 0.71726 0.47071 0.0
C30 C 0.95341 0.75277 0.41071 0.0
O31 O 0.95047 0.77079 0.42145 0.0
O32 O 0.93507 0.72999 0.40409 0.0
O33 O 0.15676 0.29334 0.57912 0.0
Cd34 Cd 0.1406 0.26453 0.61124 0.0
O35 O 0.13102 0.26431 0.54578 0.0
Cd36 Cd 0.11034 0.23714 0.57087 0.0
O37 O 0.08128 0.21863 0.59377 0.0
C38 C 0.06142 0.21529 0.58443 0.0
O39 O 0.05962 0.2221 0.56165 0.0
C40 C 0.1489 0.28673 0.55462 0.0
C41 C 0.16432 0.23818 0.61838 0.0
O42 O 0.14673 0.22937 0.6 0.0
O43 O 0.17076 0.25954 0.63346 0.0
O44 O 0.77399 0.85341 0.55102 0.0
Cd45 Cd 0.80347 0.86802 0.59029 0.0
O46 O 0.7469 0.85214 0.57482 0.0
Cd47 Cd 0.77234 0.87572 0.61017 0.0
O48 O 0.78754 0.91295 0.63624 0.0
C49 C 0.80086 0.93335 0.62728 0.0
O50 O 0.80656 0.9312 0.60356 0.0
C51 C 0.75267 0.84765 0.55263 0.0
C52 C 0.80264 0.82665 0.6092 0.0
O53 O 0.78855 0.83429 0.616 0.0
O54 O 0.81722 0.83859 0.59344 0.0
O55 O 0.09228 0.89744 0.54058 0.0
Cd56 Cd 0.07069 0.90043 0.57688 0.0
O57 O 0.10269 0.8721 0.55597 0.0
Cd58 Cd 0.0994 0.88737 0.59478 0.0
O59 O 0.12255 0.92398 0.62158 0.0
C60 C 0.1383 0.92523 0.63815 0.0
O61 O 0.13827 0.90401 0.64019 0.0
C62 C 0.10123 0.88329 0.53743 0.0
C63 C 0.03252 0.85304 0.58441 0.0
O64 O 0.03086 0.86384 0.56533 0.0
O65 O 0.05226 0.86443 0.59997 0.0
O66 O 0.88849 0.44817 0.79218 0.0
Cd67 Cd 0.86513 0.43623 0.74866 0.0
O68 O 0.92196 0.46614 0.77506 0.0
Cd69 Cd 0.90451 0.44101 0.73687 0.0
O70 O 0.89798 0.40509 0.71354 0.0
C71 C 0.88438 0.38404 0.7213 0.0
O72 O 0.87344 0.38455 0.74162 0.0
C73 C 0.91107 0.46233 0.79506 0.0
C74 C 0.86848 0.47973 0.73183 0.0
O75 O 0.85172 0.46596 0.74464 0.0
O76 O 0.88348 0.47288 0.72689 0.0
O77 O 0.58012 0.45827 0.81668 0.0
Cd78 Cd 0.59542 0.44021 0.78384 0.0
O79 O 0.54748 0.42126 0.81827 0.0
Cd80 Cd 0.54881 0.39627 0.78537 0.0
O81 O 0.52018 0.36224 0.75873 0.0
C82 C 0.50455 0.36546 0.74719 0.0
O83 O 0.50789 0.38876 0.75032 0.0
C84 C 0.56111 0.44535 0.82656 0.0
C85 C 0.62972 0.47745 0.75848 0.0
O86 O 0.60752 0.4649 0.74913 0.0
O87 O 0.63583 0.47262 0.78006 0.0
O88 O 0.58229 0.08359 0.82083 0.0
Cd89 Cd 0.60461 0.11742 0.79541 0.0
O90 O 0.5532 0.08468 0.80002 0.0
Cd91 Cd 0.51789 0.07808 0.78775 0.0
O92 O 0.48783 0.07696 0.76616 0.0
C93 C 0.48147 0.0927 0.77431 0.0
O94 O 0.49264 0.10899 0.79651 0.0
C95 C 0.56013 0.07513 0.81649 0.0
C96 C 0.64896 0.12565 0.78631 0.0
O97 O 0.64665 0.13764 0.80697 0.0
O98 O 0.63014 0.10922 0.77024 0.0
O99 O 0.80974 0.59976 0.88546 0.0
Cd100 Cd 0.79934 0.57717 0.9229 0.0
O101 O 0.78363 0.61175 0.89008 0.0
Cd102 Cd 0.76849 0.59239 0.9228 0.0
O103 O 0.73556 0.5731 0.93987 0.0
C104 C 0.71772 0.5547 0.92433 0.0
O105 O 0.72089 0.54769 0.90058 0.0
C106 C 0.79977 0.6115 0.87795 0.0
C107 C 0.82884 0.55794 0.93269 0.0
O108 O 0.80985 0.54503 0.91588 0.0
O109 O 0.83381 0.57991 0.9451 0.0
O110 O 0.44293 0.18901 0.89256 0.0
Cd111 Cd 0.47326 0.20488 0.9312 0.0
O112 O 0.44376 0.22553 0.89281 0.0
Cd113 Cd 0.4691 0.24923 0.92823 0.0
O114 O 0.48002 0.28527 0.95472 0.0
C115 C 0.46486 0.28534 0.96881 0.0
O116 O 0.44473 0.26355 0.96839 0.0
C117 C 0.43561 0.20216 0.88248 0.0
C118 C 0.47282 0.16417 0.95132 0.0
O119 O 0.45991 0.17309 0.9592 0.0
O120 O 0.48608 0.17455 0.93392 0.0
O121 O 0.78114 0.1442 0.89129 0.0
Cd122 Cd 0.7692 0.1413 0.93536 0.0
O123 O 0.80935 0.18093 0.91414 0.0
Cd124 Cd 0.84211 0.21875 0.92406 0.0
O125 O 0.86566 0.25946 0.94082 0.0
C126 C 0.85559 0.27029 0.95205 0.0
O127 O 0.83253 0.25648 0.95264 0.0
C128 C 0.8002 0.16576 0.89205 0.0
C129 C 0.72268 0.10462 0.94078 0.0
O130 O 0.72783 0.12673 0.9357 0.0
O131 O 0.73932 0.09954 0.94217 0.0
O132 O 0.56307 0.79164 0.11693 0.0
Cd133 Cd 0.55249 0.78435 0.06895 0.0
O134 O 0.60163 0.81291 0.1151 0.0
Cd135 Cd 0.59459 0.79819 0.07289 0.0
O136 O 0.57657 0.76052 0.04701 0.0
C137 C 0.58612 0.74694 0.04682 0.0
O138 O 0.60744 0.757 0.06016 0.0
C139 C 0.58445 0.80471 0.12859 0.0
C140 C 0.53339 0.81202 0.05016 0.0
O141 O 0.51996 0.78943 0.05544 0.0
O142 O 0.55601 0.8219 0.0544 0.0
O143 O 0.22451 0.86484 0.1314 0.0
Cd144 Cd 0.22289 0.86678 0.08461 0.0
O145 O 0.20578 0.82276 0.12231 0.0
Cd146 Cd 0.18931 0.7831 0.12906 0.0
O147 O 0.16606 0.74254 0.1116 0.0
C148 C 0.15734 0.73942 0.08791 0.0
O149 O 0.16315 0.75996 0.07733 0.0
C150 C 0.21548 0.84336 0.1393 0.0
C151 C 0.2632 0.871 0.06577 0.0
O152 O 0.26327 0.89092 0.07697 0.0
O153 O 0.24395 0.84895 0.06335 0.0
O154 O 0.23246 0.42055 0.13146 0.0
Cd155 Cd 0.23716 0.43422 0.08854 0.0
O156 O 0.19428 0.39085 0.12314 0.0
Cd157 Cd 0.18987 0.40344 0.0866 0.0
O158 O 0.17508 0.42203 0.06513 0.0
C159 C 0.16033 0.4259 0.07658 0.0
O160 O 0.15535 0.41847 0.09938 0.0
C161 C 0.21387 0.40275 0.13863 0.0
C162 C 0.28446 0.45466 0.07956 0.0
O163 O 0.27792 0.46857 0.09277 0.0
O164 O 0.26857 0.43109 0.07022 0.0
O165 O 0.45946 0.89049 0.1849 0.0
Cd166 Cd 0.4546 0.86068 0.21479 0.0
O167 O 0.44852 0.91016 0.21396 0.0
Cd168 Cd 0.43643 0.93588 0.22911 0.0
O169 O 0.41274 0.94185 0.25297 0.0
C170 C 0.39105 0.9236 0.24932 0.0
O171 O 0.38424 0.9035 0.23084 0.0
C172 C 0.4551 0.90821 0.19162 0.0
C173 C 0.49779 0.87079 0.24042 0.0
O174 O 0.48797 0.8548 0.21865 0.0
O175 O 0.48729 0.88213 0.24987 0.0
O176 O 0.12347 0.54542 0.2141 0.0
Cd177 Cd 0.15998 0.56385 0.24572 0.0
O178 O 0.10954 0.56339 0.24136 0.0
Cd179 Cd 0.14004 0.58342 0.27249 0.0
O180 O 0.16098 0.62015 0.29953 0.0
C181 C 0.14861 0.62872 0.30939 0.0
O182 O 0.12527 0.6143 0.30402 0.0
C183 C 0.10711 0.54981 0.21941 0.0
C184 C 0.16231 0.53134 0.27781 0.0
O185 O 0.15184 0.54369 0.28398 0.0
O186 O 0.17115 0.53385 0.25616 0.0
O187 O 0.44328 0.56835 0.21357 0.0
Cd188 Cd 0.4324 0.5778 0.25638 0.0
O189 O 0.45645 0.54345 0.22393 0.0
Cd190 Cd 0.462 0.5596 0.26536 0.0
O191 O 0.48803 0.5933 0.29416 0.0
C192 C 0.49396 0.61508 0.28806 0.0
O193 O 0.48293 0.61574 0.2664 0.0
C194 C 0.4508 0.55333 0.20675 0.0
C195 C 0.40059 0.53531 0.27794 0.0
O196 O 0.39307 0.54292 0.25964 0.0
O197 O 0.42305 0.54745 0.28568 0.0
Tb198 Tb 0.51554 0.99344 0.99557 0.0
C199 C 0.49172 0.93259 0.99169 0.0
Tb200 Tb 0.46081 0.95861 0.99229 0.0
O201 O 0.51778 0.01069 0.0367 0.0
O202 O 0.49095 0.97366 0.02058 0.0
O203 O 0.51091 0.95488 0.98935 0.0
C204 C 0.41776 0.93032 0.0057 0.0
O205 O 0.47068 0.92995 0.99423 0.0
C206 C 0.47494 0.97285 0.94774 0.0
C207 C 0.48432 0.01825 0.9943 0.0
O208 O 0.42526 0.92376 0.98515 0.0
O209 O 0.43441 0.95277 0.01846 0.0
O210 O 0.45361 0.96534 0.95325 0.0
O211 O 0.48615 0.96889 0.96547 0.0
O212 O 0.46724 0.99754 0.00213 0.0
O213 O 0.50372 0.01947 0.98674 0.0
C214 C 0.56148 0.0153 0.98911 0.0
O215 O 0.55058 0.99785 0.00341 0.0
O216 O 0.54664 0.02091 0.97879 0.0
C217 C 0.49798 0.99087 0.04042 0.0
Tb218 Tb 0.98597 0.51524 0.01056 0.0
C219 C 0.03945 0.55781 0.01927 0.0
Tb220 Tb 0.02283 0.49888 0.01269 0.0
O221 O 0.99374 0.53147 0.05228 0.0
O222 O 1.00025 0.50216 0.03872 0.0
O223 O 0.01812 0.55084 0.00732 0.0
C224 C 0.05847 0.49059 0.02226 0.0
O225 O 0.04433 0.54078 0.0269 0.0
C226 C 0.00366 0.49709 0.96592 0.0
C227 C 0.96886 0.45567 0.00748 0.0
O228 O 0.05637 0.50219 0.00381 0.0
O229 O 0.04055 0.48369 0.03527 0.0
O230 O 0.00986 0.48084 0.9708 0.0
O231 O 0.00962 0.51369 0.98608 0.0
O232 O 0.9912 0.4613 0.01218 0.0
O233 O 0.9631 0.47336 0.00564 0.0
C234 C 0.95052 0.51942 0.98915 0.0
O235 O 0.95746 0.50438 0.97881 0.0
O236 O 0.96355 0.53225 0.01177 0.0
C237 C 0.00384 0.51885 0.05836 0.0
Tb238 Tb 0.4793 0.50107 0.01198 0.0
C239 C 0.49416 0.45987 0.01243 0.0
Tb240 Tb 0.53222 0.51886 0.00895 0.0
O241 O 0.46995 0.48203 0.9702 0.0
O242 O 0.50323 0.51444 0.98462 0.0
O243 O 0.47843 0.46628 0.0191 0.0
C244 C 0.56898 0.52074 0.988 0.0
O245 O 0.51534 0.47686 0.00648 0.0
C246 C 0.52129 0.52441 0.05609 0.0
C247 C 0.51762 0.56046 0.00972 0.0
O248 O 0.5705 0.53287 0.01123 0.0
O249 O 0.54703 0.50791 0.97689 0.0
O250 O 0.54248 0.53886 0.04994 0.0
O251 O 0.50864 0.5066 0.03692 0.0
O252 O 0.53381 0.55449 0.00368 0.0
O253 O 0.49601 0.54308 0.01449 0.0
C254 C 0.44071 0.49685 0.03061 0.0
O255 O 0.46251 0.512 0.04196 0.0
O256 O 0.44051 0.484 0.00852 0.0
C257 C 0.49118 0.49751 0.96481 0.0
Tb258 Tb 0.21947 0.38522 0.36145 0.0
C259 C 0.19311 0.32369 0.35485 0.0
Tb260 Tb 0.16451 0.35228 0.35981 0.0
O261 O 0.22405 0.39806 0.40397 0.0
O262 O 0.19526 0.36242 0.38558 0.0
O263 O 0.21265 0.3457 0.35247 0.0
C264 C 0.12342 0.33349 0.37945 0.0
O265 O 0.17317 0.32247 0.3606 0.0
C266 C 0.17967 0.36091 0.31404 0.0
C267 C 0.19016 0.41344 0.36373 0.0
O268 O 0.12597 0.32456 0.35647 0.0
O269 O 0.1438 0.35298 0.39091 0.0
O270 O 0.15864 0.34177 0.31619 0.0
O271 O 0.18872 0.37488 0.33622 0.0
O272 O 0.17105 0.39169 0.36738 0.0
O273 O 0.2102 0.4146 0.35831 0.0
C274 C 0.26341 0.40787 0.34855 0.0
O275 O 0.25814 0.4105 0.37207 0.0
O276 O 0.24402 0.39223 0.3324 0.0
C277 C 0.20403 0.37806 0.407 0.0
Tb278 Tb 0.65815 0.84488 0.33974 0.0
C279 C 0.71376 0.88443 0.34674 0.0
Tb280 Tb 0.69187 0.82358 0.34054 0.0
O281 O 0.64877 0.83519 0.37864 0.0
O282 O 0.68161 0.84327 0.36797 0.0
O283 O 0.69208 0.88085 0.34207 0.0
C284 C 0.72536 0.81231 0.35023 0.0
O285 O 0.71759 0.86518 0.34811 0.0
C286 C 0.66872 0.81771 0.29455 0.0
C287 C 0.63749 0.78581 0.33994 0.0
O288 O 0.72358 0.82322 0.33088 0.0
O289 O 0.70824 0.8077 0.36415 0.0
O290 O 0.67412 0.80123 0.30085 0.0
O291 O 0.67727 0.83652 0.31309 0.0
O292 O 0.65912 0.79105 0.34875 0.0
O293 O 0.63363 0.80318 0.33142 0.0
C294 C 0.63033 0.86114 0.32193 0.0
O295 O 0.64382 0.8703 0.34469 0.0
O296 O 0.63258 0.84296 0.30939 0.0
C297 C 0.66826 0.83541 0.38531 0.0
Tb298 Tb 0.16107 0.83515 0.36346 0.0
C299 C 0.18843 0.80515 0.36534 0.0
Tb300 Tb 0.21635 0.86596 0.36632 0.0
O301 O 0.15653 0.81752 0.32183 0.0
O302 O 0.18634 0.85286 0.33837 0.0
O303 O 0.16791 0.80426 0.36632 0.0
C304 C 0.25933 0.88353 0.35149 0.0
O305 O 0.20902 0.82674 0.3651 0.0
C306 C 0.20012 0.86791 0.41119 0.0
C307 C 0.18866 0.89469 0.36179 0.0
O308 O 0.2402 0.86176 0.34141 0.0
O309 O 0.25447 0.8953 0.37054 0.0
O310 O 0.22114 0.8852 0.40675 0.0
O311 O 0.19116 0.84941 0.39211 0.0
O312 O 0.20672 0.89275 0.3542 0.0
O313 O 0.17039 0.8756 0.37044 0.0
C314 C 0.11726 0.81438 0.37653 0.0
O315 O 0.125 0.82887 0.35871 0.0
O316 O 0.13408 0.81167 0.38683 0.0
C317 C 0.17767 0.8355 0.31843 0.0
Tb318 Tb 0.86392 0.6738 0.6664 0.0
C319 C 0.85189 0.62028 0.68022 0.0
Tb320 Tb 0.8115 0.63445 0.67095 0.0
O321 O 0.8736 0.67915 0.70905 0.0
O322 O 0.83955 0.66961 0.69284 0.0
O323 O 0.86744 0.64086 0.67068 0.0
C324 C 0.76983 0.60159 0.68564 0.0
O325 O 0.82998 0.61508 0.68335 0.0
C326 C 0.82362 0.63505 0.6235 0.0
C327 C 0.82378 0.68855 0.65952 0.0
O328 O 0.78992 0.61546 0.70127 0.0
O329 O 0.77333 0.6062 0.66198 0.0
O330 O 0.80245 0.62914 0.62814 0.0
O331 O 0.83597 0.63846 0.64469 0.0
O332 O 0.80916 0.66861 0.67039 0.0
O333 O 0.84496 0.69285 0.65434 0.0
C334 C 0.90164 0.70533 0.64448 0.0
O335 O 0.90009 0.70795 0.66952 0.0
O336 O 0.88233 0.6849 0.6323 0.0
C337 C 0.8522 0.6727 0.71371 0.0
Tb338 Tb 0.29862 0.16114 0.68577 0.0
C339 C 0.35401 0.20053 0.69152 0.0
Tb340 Tb 0.33206 0.13965 0.68199 0.0
O341 O 0.30978 0.17439 0.72847 0.0
O342 O 0.31067 0.14299 0.709 0.0
O343 O 0.33238 0.19659 0.68488 0.0
C344 C 0.36462 0.12731 0.69319 0.0
O345 O 0.35772 0.18126 0.69326 0.0
C346 C 0.31494 0.14491 0.63749 0.0
C347 C 0.27729 0.10025 0.68058 0.0
O348 O 0.35027 0.11897 0.67121 0.0
O349 O 0.36079 0.14277 0.70869 0.0
O350 O 0.32109 0.12796 0.63891 0.0
O351 O 0.32091 0.15903 0.65952 0.0
O352 O 0.29923 0.10482 0.68597 0.0
O353 O 0.27298 0.11899 0.67789 0.0
C354 C 0.26556 0.17085 0.66837 0.0
O355 O 0.27152 0.15604 0.65526 0.0
O356 O 0.27815 0.18024 0.69167 0.0
C357 C 0.31671 0.15808 0.73055 0.0
Tb358 Tb 0.82667 0.15347 0.68708 0.0
C359 C 0.83962 0.11114 0.67966 0.0
Tb360 Tb 0.87797 0.17005 0.67946 0.0
O361 O 0.81305 0.13463 0.64572 0.0
O362 O 0.84795 0.16562 0.65677 0.0
O363 O 0.82617 0.11839 0.69163 0.0
C364 C 0.91815 0.1756 0.66444 0.0
O365 O 0.85894 0.12767 0.67012 0.0
C366 C 0.86955 0.17565 0.72795 0.0
C367 C 0.86472 0.21265 0.68391 0.0
O368 O 0.91186 0.17199 0.68757 0.0
O369 O 0.90187 0.17627 0.6497 0.0
O370 O 0.88941 0.19151 0.72008 0.0
O371 O 0.85642 0.15743 0.70938 0.0
O372 O 0.88041 0.20647 0.67641 0.0
O373 O 0.84366 0.19548 0.68997 0.0
C374 C 0.79189 0.15164 0.71243 0.0
O375 O 0.81449 0.16628 0.72062 0.0
O376 O 0.78861 0.13783 0.68961 0.0
C377 C 0.8337 0.14822 0.63799 0.0
H378 H 0.3089 0.9119 0.0785 0.0
H379 H 0.26586 0.83599 0.02995 0.0
H380 H 0.3015 0.84164 0.01095 0.0
H381 H 0.34477 0.94311 0.03207 0.0
H382 H 0.37175 0.96273 0.05513 0.0
H383 H 0.34328 0.95191 0.06618 0.0
H384 H 0.3538 0.93104 0.10137 0.0
H385 H 0.38238 0.94193 0.09044 0.0
H386 H 0.36268 0.90822 0.09132 0.0
H387 H 0.3412 0.85743 0.99442 0.0
H388 H 0.38225 0.88139 0.9833 0.0
H389 H 0.39922 0.94587 0.04423 0.0
C390 C 0.30701 0.89636 0.06405 0.0
C391 C 0.28464 0.87356 0.05558 0.0
C392 C 0.28288 0.8536 0.03673 0.0
C393 C 0.303 0.85664 0.02585 0.0
C394 C 0.32476 0.87953 0.03439 0.0
C395 C 0.32693 0.89891 0.05332 0.0
C396 C 0.35216 0.92189 0.0587 0.0
C397 C 0.35302 0.94634 0.05265 0.0
C398 C 0.36341 0.926 0.08715 0.0
C399 C 0.36367 0.9128 0.03919 0.0
C400 C 0.34766 0.88828 0.02542 0.0
C401 C 0.35397 0.87649 0.00533 0.0
C402 C 0.37724 0.89021 0.9991 0.0
C403 C 0.39376 0.91534 0.01299 0.0
C404 C 0.38694 0.92657 0.03346 0.0
H405 H 0.1256 0.43302 0.0948 0.0
H406 H 0.16865 0.44675 0.03134 0.0
H407 H 0.14863 0.46695 0.01149 0.0
H408 H 0.07188 0.41592 0.05595 0.0
H409 H 0.0629 0.43148 0.08064 0.0
H410 H 0.08154 0.41944 0.09038 0.0
H411 H 0.11272 0.46478 0.11666 0.0
H412 H 0.09434 0.47709 0.1067 0.0
H413 H 0.12469 0.49222 0.10014 0.0
H414 H 0.12306 0.48486 0.99816 0.0
H415 H 0.09291 0.49723 0.99155 0.0
H416 H 0.0664 0.47067 0.0633 0.0
C417 C 0.13098 0.4404 0.07681 0.0
C418 C 0.14874 0.43834 0.06464 0.0
C419 C 0.15509 0.44812 0.04102 0.0
C420 C 0.14387 0.45968 0.02965 0.0
C421 C 0.12637 0.46131 0.04215 0.0
C422 C 0.11994 0.45188 0.06519 0.0
C423 C 0.10008 0.45517 0.07431 0.0
C424 C 0.07778 0.42894 0.07536 0.0
C425 C 0.10847 0.4734 0.10104 0.0
C426 C 0.09596 0.46745 0.05252 0.0
C427 C 0.11149 0.47118 0.03431 0.0
C428 C 0.11086 0.48207 0.01232 0.0
C429 C 0.09373 0.48905 0.00874 0.0
C430 C 0.07739 0.48482 0.02691 0.0
C431 C 0.0787 0.47409 0.04913 0.0
H432 H 0.60197 0.71321 0.04084 0.0
H433 H 0.53858 0.71767 0.02712 0.0
H434 H 0.51439 0.67039 0.01314 0.0
H435 H 0.58461 0.65989 0.98529 0.0
H436 H 0.59748 0.64566 0.0038 0.0
H437 H 0.61008 0.68005 0.01025 0.0
H438 H 0.60503 0.67842 0.05946 0.0
H439 H 0.59227 0.64406 0.05313 0.0
H440 H 0.576 0.6574 0.06814 0.0
H441 H 0.49648 0.62236 0.00607 0.0
H442 H 0.48665 0.57729 0.0028 0.0
H443 H 0.56187 0.60425 0.01924 0.0
C444 C 0.58308 0.70433 0.03439 0.0
C445 C 0.57219 0.71917 0.03508 0.0
C446 C 0.54737 0.70675 0.02664 0.0
C447 C 0.53346 0.67988 0.01871 0.0
C448 C 0.54468 0.66576 0.01896 0.0
C449 C 0.56898 0.67758 0.0262 0.0
C450 C 0.57651 0.65792 0.0258 0.0
C451 C 0.59316 0.66107 0.00504 0.0
C452 C 0.58813 0.65955 0.05327 0.0
C453 C 0.55257 0.63316 0.01789 0.0
C454 C 0.53442 0.63809 0.01405 0.0
C455 C 0.51058 0.61826 0.00852 0.0
C456 C 0.50516 0.59275 0.00683 0.0
C457 C 0.52352 0.58729 0.01043 0.0
C458 C 0.54751 0.60781 0.01582 0.0
H459 H 0.90395 0.3042 0.95636 0.0
H460 H 0.83818 0.2991 0.97424 0.0
H461 H 0.86053 0.34554 0.99271 0.0
H462 H 0.94196 0.35107 0.01493 0.0
H463 H 0.96699 0.36791 0.99762 0.0
H464 H 0.94603 0.33393 0.98676 0.0
H465 H 0.93876 0.34233 0.94011 0.0
H466 H 0.95972 0.37629 0.95082 0.0
H467 H 0.92977 0.36526 0.93643 0.0
H468 H 0.88924 0.39271 0.00645 0.0
H469 H 0.92291 0.43779 0.01563 0.0
H470 H 0.97042 0.41239 0.99032 0.0
C471 C 0.89427 0.3128 0.96433 0.0
C472 C 0.8693 0.298 0.96384 0.0
C473 C 0.8573 0.31001 0.97442 0.0
C474 C 0.86984 0.33639 0.98499 0.0
C475 C 0.89438 0.35044 0.98503 0.0
C476 C 0.90653 0.33911 0.97512 0.0
C477 C 0.93288 0.3588 0.97694 0.0
C478 C 0.94784 0.35255 0.99515 0.0
C479 C 0.94073 0.36078 0.94944 0.0
C480 C 0.93355 0.38302 0.98908 0.0
C481 C 0.91113 0.37772 0.99358 0.0
C482 C 0.90694 0.39709 0.00333 0.0
C483 C 0.92616 0.42262 0.00841 0.0
C484 C 0.94928 0.42852 0.00391 0.0
C485 C 0.95302 0.40838 0.99443 0.0
H486 H 0.70399 0.56899 0.96943 0.0
H487 H 0.67633 0.5154 0.89506 0.0
H488 H 0.63535 0.49958 0.90452 0.0
H489 H 0.65822 0.5265 0.00713 0.0
H490 H 0.65716 0.55279 0.02558 0.0
H491 H 0.68443 0.55843 0.01402 0.0
H492 H 0.68589 0.59405 0.9903 0.0
H493 H 0.65855 0.58838 0.00158 0.0
H494 H 0.66078 0.58635 0.96689 0.0
H495 H 0.59756 0.49215 0.91995 0.0
H496 H 0.56516 0.49194 0.94172 0.0
H497 H 0.61692 0.54992 0.00638 0.0
C498 C 0.68933 0.5536 0.95536 0.0
C499 C 0.69339 0.54341 0.93151 0.0
C500 C 0.6737 0.52348 0.91348 0.0
C501 C 0.65033 0.51435 0.91867 0.0
C502 C 0.64695 0.52522 0.94204 0.0
C503 C 0.66587 0.54422 0.96023 0.0
C504 C 0.65725 0.55336 0.98332 0.0
C505 C 0.66471 0.5474 0.00903 0.0
C506 C 0.66615 0.58225 0.98564 0.0
C507 C 0.63055 0.53687 0.97499 0.0
C508 C 0.62503 0.52073 0.95113 0.0
C509 C 0.60164 0.50444 0.9388 0.0
C510 C 0.58338 0.50455 0.95125 0.0
C511 C 0.58862 0.52085 0.97573 0.0
C512 C 0.61248 0.53713 0.98778 0.0
H513 H 0.49877 0.14134 0.93935 0.0
H514 H 0.44539 0.13764 0.98715 0.0
H515 H 0.44368 0.10098 0.0044 0.0
H516 H 0.47373 0.07316 0.92216 0.0
H517 H 0.50212 0.07528 0.92386 0.0
H518 H 0.49962 0.10166 0.91562 0.0
H519 H 0.53299 0.1328 0.95413 0.0
H520 H 0.53551 0.10644 0.96246 0.0
H521 H 0.52989 0.12559 0.98698 0.0
H522 H 0.44652 0.06383 0.01528 0.0
H523 H 0.45413 0.02879 0.01946 0.0
H524 H 0.50628 0.05692 0.9654 0.0
C525 C 0.48679 0.13289 0.95352 0.0
C526 C 0.47221 0.14242 0.96191 0.0
C527 C 0.45675 0.13075 0.98045 0.0
C528 C 0.45565 0.10991 0.99038 0.0
C529 C 0.47019 0.10098 0.98169 0.0
C530 C 0.48551 0.11209 0.96372 0.0
C531 C 0.49898 0.09849 0.95739 0.0
C532 C 0.49326 0.08643 0.92802 0.0
C533 C 0.52594 0.11694 0.96575 0.0
C534 C 0.4887 0.07794 0.97449 0.0
C535 C 0.47211 0.07972 0.98831 0.0
C536 C 0.45959 0.06234 0.00471 0.0
C537 C 0.46402 0.04247 0.00692 0.0
C538 C 0.48091 0.04022 0.99292 0.0
C539 C 0.49352 0.05837 0.97668 0.0
H540 H 0.68238 0.10756 0.93519 0.0
H541 H 0.70891 0.06043 0.96055 0.0
H542 H 0.67027 0.03212 0.97493 0.0
H543 H 0.64964 0.10507 0.98736 0.0
H544 H 0.625 0.10287 0.96751 0.0
H545 H 0.65424 0.11871 0.95769 0.0
H546 H 0.63761 0.08821 0.9123 0.0
H547 H 0.60832 0.07276 0.922 0.0
H548 H 0.62101 0.05379 0.91106 0.0
H549 H 0.63018 0.01115 0.98992 0.0
H550 H 0.58967 0.99639 0.0009 0.0
H551 H 0.58846 0.056 0.96444 0.0
C552 C 0.67996 0.09109 0.94343 0.0
C553 C 0.69869 0.08623 0.94676 0.0
C554 C 0.69481 0.06449 0.9577 0.0
C555 C 0.67294 0.04834 0.966 0.0
C556 C 0.65503 0.05398 0.96296 0.0
C557 C 0.65814 0.07459 0.95159 0.0
C558 C 0.63606 0.07652 0.95089 0.0
C559 C 0.64158 0.10233 0.96682 0.0
C560 C 0.6251 0.07257 0.92236 0.0
C561 C 0.62026 0.05411 0.96414 0.0
C562 C 0.6316 0.04142 0.971 0.0
C563 C 0.621 0.02073 0.98438 0.0
C564 C 0.59808 0.01259 0.99066 0.0
C565 C 0.58599 0.02502 0.9834 0.0
C566 C 0.59725 0.04604 0.97 0.0
H567 H 0.86585 0.57618 0.97271 0.0
H568 H 0.82779 0.5171 0.90306 0.0
H569 H 0.85489 0.50094 0.91 0.0
H570 H 0.92443 0.58953 0.96406 0.0
H571 H 0.93403 0.59383 0.99866 0.0
H572 H 0.91166 0.60081 0.98825 0.0
H573 H 0.88285 0.56919 0.01628 0.0
H574 H 0.90515 0.56215 0.02682 0.0
H575 H 0.87598 0.53632 0.01132 0.0
H576 H 0.88682 0.4921 0.92359 0.0
H577 H 0.92022 0.48967 0.94439 0.0
H578 H 0.93661 0.55338 0.00614 0.0
C579 C 0.86321 0.55984 0.95892 0.0
C580 C 0.84475 0.54794 0.93729 0.0
C581 C 0.84178 0.52649 0.91979 0.0
C582 C 0.85711 0.51721 0.92353 0.0
C583 C 0.87518 0.52944 0.94498 0.0
C584 C 0.87819 0.55015 0.96251 0.0
C585 C 0.89881 0.55958 0.98418 0.0
C586 C 0.91839 0.5876 0.98374 0.0
C587 C 0.89017 0.55662 0.01125 0.0
C588 C 0.90702 0.54103 0.97598 0.0
C589 C 0.89321 0.52389 0.95323 0.0
C590 C 0.89764 0.50528 0.94151 0.0
C591 C 0.91664 0.50407 0.95344 0.0
C592 C 0.93079 0.52123 0.97692 0.0
C593 C 0.92591 0.53993 0.98829 0.0
H594 H 0.50089 0.33475 0.96706 0.0
H595 H 0.43588 0.29151 0.0008 0.0
H596 H 0.43833 0.33209 0.01893 0.0
H597 H 0.53031 0.39191 0.02126 0.0
H598 H 0.54335 0.41404 0.99872 0.0
H599 H 0.53818 0.38191 0.99114 0.0
H600 H 0.51311 0.37404 0.94648 0.0
H601 H 0.51879 0.40627 0.95416 0.0
H602 H 0.48853 0.37932 0.94627 0.0
H603 H 0.44518 0.37651 0.02908 0.0
H604 H 0.45677 0.422 0.0319 0.0
H605 H 0.51746 0.43664 0.99175 0.0
C606 C 0.48747 0.33384 0.97878 0.0
C607 C 0.46821 0.30991 0.98254 0.0
C608 C 0.45084 0.30958 0.99769 0.0
C609 C 0.45209 0.33255 0.00811 0.0
C610 C 0.47091 0.35574 0.00341 0.0
C611 C 0.48845 0.35662 0.98934 0.0
C612 C 0.50596 0.38393 0.98576 0.0
C613 C 0.53093 0.39351 8e-05 0.0
C614 C 0.50659 0.38597 0.95641 0.0
C615 C 0.49498 0.39808 0.99908 0.0
C616 C 0.47494 0.3815 0.00941 0.0
C617 C 0.46104 0.38977 0.02141 0.0
C618 C 0.46772 0.41565 0.02281 0.0
C619 C 0.48811 0.43298 0.0122 0.0
C620 C 0.50198 0.42401 0.00041 0.0
H621 H 0.14348 0.69227 0.1021 0.0
H622 H 0.13293 0.72783 0.03893 0.0
H623 H 0.10371 0.68491 0.01344 0.0
H624 H 0.13789 0.63633 0.05941 0.0
H625 H 0.12226 0.61444 0.08137 0.0
H626 H 0.14344 0.64797 0.09437 0.0
H627 H 0.11099 0.6515 0.11727 0.0
H628 H 0.08977 0.61801 0.10438 0.0
H629 H 0.08325 0.64226 0.09793 0.0
H630 H 0.07356 0.63908 0.99633 0.0
H631 H 0.04471 0.59219 0.98786 0.0
H632 H 0.07549 0.58538 0.06079 0.0
C633 C 0.13517 0.691 0.08281 0.0
C634 C 0.1405 0.71343 0.07252 0.0
C635 C 0.1292 0.71095 0.04723 0.0
C636 C 0.11258 0.68665 0.03255 0.0
C637 C 0.10762 0.66497 0.04329 0.0
C638 C 0.11863 0.6668 0.06774 0.0
C639 C 0.10943 0.64034 0.07492 0.0
C640 C 0.12945 0.63443 0.07767 0.0
C641 C 0.09766 0.63789 0.10011 0.0
C642 C 0.0912 0.62347 0.05091 0.0
C643 C 0.09052 0.63815 0.03294 0.0
C644 C 0.07413 0.62729 0.01002 0.0
C645 C 0.05779 0.60071 0.00544 0.0
C646 C 0.05813 0.58529 0.02355 0.0
C647 C 0.07526 0.59674 0.04638 0.0
H648 H 0.3025 0.43497 0.04326 0.0
H649 H 0.32341 0.49862 0.10716 0.0
H650 H 0.36566 0.51612 0.10171 0.0
H651 H 0.3518 0.42645 0.05766 0.0
H652 H 0.35467 0.41964 0.0236 0.0
H653 H 0.32607 0.41189 0.03272 0.0
H654 H 0.32262 0.43926 0.00016 0.0
H655 H 0.3512 0.44707 0.99091 0.0
H656 H 0.34602 0.47251 0.0028 0.0
H657 H 0.40569 0.5258 0.0905 0.0
H658 H 0.4406 0.52874 0.07202 0.0
H659 H 0.39366 0.4602 0.01386 0.0
C660 C 0.31597 0.45258 0.05612 0.0
C661 C 0.30968 0.46539 0.07571 0.0
C662 C 0.32781 0.48851 0.09198 0.0
C663 C 0.35186 0.49856 0.08909 0.0
C664 C 0.35747 0.48543 0.06965 0.0
C665 C 0.34005 0.46309 0.05325 0.0
C666 C 0.35084 0.45309 0.03349 0.0
C667 C 0.34553 0.42618 0.0371 0.0
C668 C 0.34215 0.45299 0.00516 0.0
C669 C 0.37705 0.47322 0.04143 0.0
C670 C 0.38049 0.49158 0.0625 0.0
C671 C 0.4032 0.5117 0.07383 0.0
C672 C 0.42289 0.51321 0.06323 0.0
C673 C 0.41972 0.49484 0.0414 0.0
C674 C 0.39652 0.47463 0.03039 0.0
H675 H 0.55674 0.86218 0.04159 0.0
H676 H 0.48647 0.7932 0.03313 0.0
H677 H 0.46887 0.8157 0.01361 0.0
H678 H 0.53835 0.90683 0.06043 0.0
H679 H 0.55879 0.93095 0.04299 0.0
H680 H 0.56606 0.90899 0.05498 0.0
H681 H 0.57165 0.89506 0.00784 0.0
H682 H 0.56416 0.91683 0.99569 0.0
H683 H 0.54768 0.8831 0.98115 0.0
H684 H 0.45859 0.8457 0.99655 0.0
H685 H 0.45586 0.88224 0.98554 0.0
H686 H 0.53268 0.93222 0.00501 0.0
C687 C 0.53767 0.85177 0.03548 0.0
C688 C 0.52299 0.82587 0.03882 0.0
C689 C 0.49809 0.81302 0.0308 0.0
C690 C 0.48792 0.82559 0.01956 0.0
C691 C 0.50287 0.85104 0.01645 0.0
C692 C 0.52718 0.86408 0.02431 0.0
C693 C 0.53902 0.89179 0.01993 0.0
C694 C 0.55127 0.91075 0.04614 0.0
C695 C 0.55667 0.89699 0.99996 0.0
C696 C 0.51751 0.89232 0.00866 0.0
C697 C 0.49689 0.86851 0.00663 0.0
C698 C 0.47462 0.86439 0.99788 0.0
C699 C 0.47327 0.8853 0.99165 0.0
C700 C 0.49406 0.91009 0.99424 0.0
C701 C 0.51652 0.91344 0.00235 0.0
H702 H 0.98555 0.23902 0.38963 0.0
H703 H 0.9962 0.29122 0.46097 0.0
H704 H 0.03909 0.31727 0.45748 0.0
H705 H 0.04276 0.24238 0.40006 0.0
H706 H 0.0464 0.2419 0.36575 0.0
H707 H 0.01694 0.22601 0.3751 0.0
H708 H 0.00605 0.2528 0.34853 0.0
H709 H 0.03548 0.26885 0.33923 0.0
H710 H 0.0243 0.28751 0.35552 0.0
H711 H 0.08033 0.33826 0.44577 0.0
H712 H 0.11719 0.35418 0.42549 0.0
H713 H 0.07976 0.28981 0.36037 0.0
C714 C 0.99701 0.25569 0.40474 0.0
C715 C 0.98763 0.263 0.42573 0.0
C716 C 0.00305 0.28525 0.44479 0.0
C717 C 0.02743 0.30011 0.44301 0.0
C718 C 0.03606 0.2926 0.42191 0.0
C719 C 0.02135 0.27099 0.40303 0.0
C720 C 0.03493 0.26814 0.38146 0.0
C721 C 0.03528 0.24312 0.38055 0.0
C722 C 0.02457 0.26941 0.3546 0.0
C723 C 0.0595 0.29169 0.39103 0.0
C724 C 0.05977 0.30531 0.41458 0.0
C725 C 0.08033 0.32779 0.42733 0.0
C726 C 0.10115 0.3367 0.41562 0.0
C727 C 0.10121 0.32332 0.3913 0.0
C728 C 0.08014 0.30047 0.37891 0.0
H729 H 0.78996 0.75133 0.42198 0.0
H730 H 0.84527 0.78419 0.37219 0.0
H731 H 0.82369 0.8019 0.35055 0.0
H732 H 0.74051 0.73343 0.37262 0.0
H733 H 0.72464 0.74128 0.39557 0.0
H734 H 0.74425 0.73088 0.40675 0.0
H735 H 0.76828 0.77282 0.44199 0.0
H736 H 0.74779 0.78214 0.43121 0.0
H737 H 0.77936 0.80364 0.43181 0.0
H738 H 0.79601 0.8161 0.33453 0.0
H739 H 0.76459 0.82617 0.32568 0.0
H740 H 0.72793 0.78454 0.38656 0.0
C741 C 0.79756 0.7622 0.40648 0.0
C742 C 0.81933 0.76639 0.39877 0.0
C743 C 0.82863 0.78073 0.37842 0.0
C744 C 0.81649 0.79085 0.36602 0.0
C745 C 0.79512 0.78644 0.37422 0.0
C746 C 0.78575 0.77244 0.39397 0.0
C747 C 0.7626 0.77057 0.39929 0.0
C748 C 0.74177 0.74236 0.39319 0.0
C749 C 0.76467 0.78307 0.42776 0.0
C750 C 0.76053 0.78601 0.37966 0.0
C751 C 0.77937 0.79484 0.36524 0.0
C752 C 0.7812 0.80932 0.34572 0.0
C753 C 0.7633 0.81492 0.34083 0.0
C754 C 0.74397 0.80619 0.35551 0.0
C755 C 0.74261 0.79156 0.37515 0.0
H756 H 0.17379 0.01402 0.40494 0.0
H757 H 0.21475 0.04828 0.34292 0.0
H758 H 0.21184 0.00716 0.32619 0.0
H759 H 0.20083 0.98132 0.42011 0.0
H760 H 0.17448 0.95306 0.42628 0.0
H761 H 0.17616 0.98352 0.43051 0.0
H762 H 0.13697 0.96295 0.39795 0.0
H763 H 0.13546 0.93244 0.39376 0.0
H764 H 0.13492 0.94678 0.36545 0.0
H765 H 0.21084 0.96583 0.32114 0.0
H766 H 0.2091 0.92532 0.32579 0.0
H767 H 0.16782 0.91687 0.39029 0.0
C768 C 0.1815 0.01265 0.38733 0.0
C769 C 0.1945 0.03438 0.37523 0.0
C770 C 0.20464 0.03189 0.35247 0.0
C771 C 0.20306 0.00859 0.3428 0.0
C772 C 0.19101 0.98789 0.35589 0.0
C773 C 0.18003 0.98951 0.37739 0.0
C774 C 0.17006 0.96519 0.38928 0.0
C775 C 0.18107 0.97116 0.41825 0.0
C776 C 0.14272 0.951 0.38643 0.0
C777 C 0.1782 0.9502 0.37191 0.0
C778 C 0.19003 0.96357 0.35261 0.0
C779 C 0.20115 0.95488 0.33574 0.0
C780 C 0.20023 0.93199 0.3387 0.0
C781 C 0.18821 0.91798 0.3583 0.0
C782 C 0.17674 0.927 0.37483 0.0
H783 H 0.50982 0.6645 0.28088 0.0
H784 H 0.5258 0.61988 0.32843 0.0
H785 H 0.56332 0.65953 0.34937 0.0
H786 H 0.56749 0.70446 0.26772 0.0
H787 H 0.56571 0.73303 0.26957 0.0
H788 H 0.53908 0.70171 0.26031 0.0
H789 H 0.51992 0.71277 0.29822 0.0
H790 H 0.54652 0.74422 0.30746 0.0
H791 H 0.53532 0.72332 0.33144 0.0
H792 H 0.6012 0.7032 0.36132 0.0
H793 H 0.63516 0.74794 0.36539 0.0
H794 H 0.59353 0.76384 0.31093 0.0
C795 C 0.52097 0.66309 0.29605 0.0
C796 C 0.51487 0.63908 0.30302 0.0
C797 C 0.53004 0.63808 0.32285 0.0
C798 C 0.55141 0.66049 0.33483 0.0
C799 C 0.55718 0.68375 0.32698 0.0
C800 C 0.54223 0.68524 0.30828 0.0
C801 C 0.55299 0.71231 0.30243 0.0
C802 C 0.55652 0.71289 0.27328 0.0
C803 C 0.53778 0.72383 0.31037 0.0
C804 C 0.57659 0.72569 0.32024 0.0
C805 C 0.5787 0.70895 0.33429 0.0
C806 C 0.59959 0.71658 0.35074 0.0
C807 C 0.61882 0.74198 0.35282 0.0
C808 C 0.61695 0.75942 0.33861 0.0
C809 C 0.59542 0.75111 0.32236 0.0
H810 H 0.34369 0.88733 0.24616 0.0
H811 H 0.40023 0.95984 0.29261 0.0
H812 H 0.37255 0.95796 0.3238 0.0
H813 H 0.29506 0.89886 0.25572 0.0
H814 H 0.2742 0.86562 0.25736 0.0
H815 H 0.2981 0.87367 0.23795 0.0
H816 H 0.31185 0.84859 0.26382 0.0
H817 H 0.28814 0.8407 0.28344 0.0
H818 H 0.31856 0.85695 0.29922 0.0
H819 H 0.33884 0.94704 0.35101 0.0
H820 H 0.30151 0.92843 0.37107 0.0
H821 H 0.26783 0.86306 0.30683 0.0
C822 C 0.35024 0.903 0.26271 0.0
C823 C 0.37415 0.92374 0.26693 0.0
C824 C 0.38197 0.94378 0.28892 0.0
C825 C 0.36639 0.94287 0.30677 0.0
C826 C 0.34304 0.92187 0.30226 0.0
C827 C 0.33495 0.90241 0.28063 0.0
C828 C 0.30924 0.88163 0.28054 0.0
C829 C 0.29321 0.87985 0.25647 0.0
C830 C 0.30682 0.85543 0.28184 0.0
C831 C 0.30425 0.89218 0.30575 0.0
C832 C 0.32386 0.91549 0.31796 0.0
C833 C 0.32336 0.92882 0.34159 0.0
C834 C 0.30218 0.91811 0.35288 0.0
C835 C 0.28198 0.89428 0.34057 0.0
C836 C 0.28312 0.88121 0.31679 0.0
H837 H 0.19101 0.51098 0.27556 0.0
H838 H 0.13889 0.51523 0.3201 0.0
H839 H 0.14283 0.48833 0.34966 0.0
H840 H 0.17238 0.44583 0.27877 0.0
H841 H 0.20213 0.4514 0.28219 0.0
H842 H 0.19555 0.4715 0.26514 0.0
H843 H 0.22934 0.51206 0.29662 0.0
H844 H 0.23582 0.49198 0.31392 0.0
H845 H 0.2291 0.51423 0.33169 0.0
H846 H 0.15023 0.45817 0.37224 0.0
H847 H 0.161 0.4276 0.3862 0.0
H848 H 0.21015 0.44567 0.32878 0.0
C849 C 0.18045 0.5063 0.29155 0.0
C850 C 0.16458 0.51513 0.29547 0.0
C851 C 0.15117 0.50869 0.31672 0.0
C852 C 0.15332 0.49347 0.33366 0.0
C853 C 0.16919 0.48515 0.32929 0.0
C854 C 0.1826 0.49143 0.30883 0.0
C855 C 0.19806 0.4797 0.30811 0.0
C856 C 0.19164 0.461 0.28201 0.0
C857 C 0.22466 0.50075 0.31288 0.0
C858 C 0.19095 0.46547 0.33108 0.0
C859 C 0.17426 0.4688 0.34306 0.0
C860 C 0.16363 0.45581 0.36336 0.0
C861 C 0.16988 0.43856 0.37121 0.0
C862 C 0.1868 0.43477 0.35901 0.0
C863 C 0.19778 0.44885 0.3391 0.0
H864 H 0.35325 0.49965 0.26057 0.0
H865 H 0.40999 0.52318 0.32447 0.0
H866 H 0.38148 0.49021 0.34796 0.0
H867 H 0.30824 0.48894 0.29905 0.0
H868 H 0.28474 0.46085 0.27706 0.0
H869 H 0.30993 0.48486 0.26426 0.0
H870 H 0.31801 0.4498 0.24332 0.0
H871 H 0.29275 0.42572 0.2561 0.0
H872 H 0.3217 0.42983 0.26372 0.0
H873 H 0.3461 0.459 0.36708 0.0
H874 H 0.30647 0.429 0.37883 0.0
H875 H 0.27328 0.42309 0.30128 0.0
C876 C 0.35973 0.49759 0.27932 0.0
C877 C 0.38383 0.51401 0.29072 0.0
C878 C 0.39163 0.51075 0.3153 0.0
C879 C 0.37557 0.49208 0.32881 0.0
C880 C 0.35187 0.47648 0.31724 0.0
C881 C 0.344 0.47873 0.29287 0.0
C882 C 0.31742 0.4601 0.28524 0.0
C883 C 0.30432 0.47456 0.28118 0.0
C884 C 0.31217 0.44018 0.26064 0.0
C885 C 0.31149 0.44766 0.30951 0.0
C886 C 0.33161 0.45741 0.32776 0.0
C887 C 0.33029 0.45072 0.35272 0.0
C888 C 0.30779 0.43376 0.35925 0.0
C889 C 0.28708 0.42347 0.34075 0.0
C890 C 0.289 0.43017 0.31547 0.0
H891 H 0.52139 0.84534 0.22876 0.0
H892 H 0.52459 0.90645 0.28462 0.0
H893 H 0.56066 0.91266 0.30992 0.0
H894 H 0.53776 0.81787 0.27573 0.0
H895 H 0.55515 0.80975 0.25544 0.0
H896 H 0.53082 0.81155 0.24035 0.0
H897 H 0.55937 0.84529 0.21348 0.0
H898 H 0.58315 0.84231 0.22806 0.0
H899 H 0.58637 0.87362 0.23058 0.0
H900 H 0.59464 0.91028 0.33086 0.0
H901 H 0.62419 0.89926 0.34592 0.0
H902 H 0.59901 0.83995 0.27642 0.0
C903 C 0.52989 0.86031 0.24608 0.0
C904 C 0.52022 0.87549 0.25465 0.0
C905 C 0.53169 0.89461 0.27764 0.0
C906 C 0.55223 0.89834 0.29211 0.0
C907 C 0.56112 0.88284 0.28331 0.0
C908 C 0.55038 0.86424 0.26079 0.0
C909 C 0.56273 0.84915 0.25646 0.0
C910 C 0.54559 0.82038 0.25705 0.0
C911 C 0.57356 0.85285 0.23062 0.0
C912 C 0.5819 0.862 0.28024 0.0
C913 C 0.58074 0.88147 0.29541 0.0
C914 C 0.5959 0.89528 0.31901 0.0
C915 C 0.61258 0.88889 0.32743 0.0
C916 C 0.61385 0.86888 0.31228 0.0
C917 C 0.5985 0.8555 0.28827 0.0
H918 H 0.12639 0.65354 0.32805 0.0
H919 H 0.19647 0.66484 0.32213 0.0
H920 H 0.21487 0.71105 0.34101 0.0
H921 H 0.13747 0.70939 0.30709 0.0
H922 H 0.12002 0.71606 0.32867 0.0
H923 H 0.11268 0.68341 0.3186 0.0
H924 H 0.11626 0.67841 0.36747 0.0
H925 H 0.12352 0.7111 0.37772 0.0
H926 H 0.14332 0.70109 0.38943 0.0
H927 H 0.22516 0.75687 0.35543 0.0
H928 H 0.22651 0.79818 0.36423 0.0
H929 H 0.14948 0.75636 0.36047 0.0
C930 C 0.14564 0.66554 0.3313 0.0
C931 C 0.16 0.65554 0.32371 0.0
C932 C 0.18512 0.67204 0.32793 0.0
C933 C 0.19573 0.6983 0.33868 0.0
C934 C 0.18097 0.70767 0.34527 0.0
C935 C 0.15646 0.69171 0.3419 0.0
C936 C 0.14443 0.70678 0.34833 0.0
C937 C 0.12768 0.70373 0.32423 0.0
C938 C 0.1311 0.69887 0.37216 0.0
C939 C 0.16593 0.73385 0.35504 0.0
C940 C 0.18688 0.73399 0.3535 0.0
C941 C 0.2089 0.75695 0.35711 0.0
C942 C 0.20946 0.78035 0.36205 0.0
C943 C 0.18811 0.7806 0.36318 0.0
C944 C 0.16618 0.75695 0.36008 0.0
H945 H 0.77811 0.03676 0.38996 0.0
H946 H 0.84442 0.03842 0.40603 0.0
H947 H 0.82353 0.99168 0.38879 0.0
H948 H 0.74083 0.97663 0.40938 0.0
H949 H 0.71618 0.96654 0.38416 0.0
H950 H 0.73666 0.00034 0.3964 0.0
H951 H 0.74481 0.00788 0.34885 0.0
H952 H 0.72441 0.97404 0.33649 0.0
H953 H 0.75465 0.98942 0.32939 0.0
H954 H 0.7951 0.94448 0.37143 0.0
H955 H 0.76106 0.90011 0.35661 0.0
H956 H 0.71337 0.92944 0.3519 0.0
C957 C 0.78831 0.02737 0.38969 0.0
C958 C 0.81293 0.04129 0.3993 0.0
C959 C 0.82555 0.02818 0.39877 0.0
C960 C 0.81386 0.00165 0.38893 0.0
C961 C 0.78957 0.98852 0.37966 0.0
C962 C 0.77693 0.00092 0.37999 0.0
C963 C 0.75077 0.98218 0.36987 0.0
C964 C 0.7352 0.98138 0.39123 0.0
C965 C 0.74323 0.98878 0.34465 0.0
C966 C 0.75062 0.95723 0.36412 0.0
C967 C 0.77319 0.96132 0.36971 0.0
C968 C 0.77736 0.94106 0.36681 0.0
C969 C 0.75787 0.9159 0.35836 0.0
C970 C 0.73448 0.9112 0.35299 0.0
C971 C 0.731 0.9323 0.35559 0.0
H972 H 0.99106 0.79681 0.3992 0.0
H973 H 0.96943 0.71989 0.41306 0.0
H974 H 0.00956 0.72803 0.40728 0.0
H975 H 0.02497 0.79622 0.34749 0.0
H976 H 0.04771 0.82989 0.35663 0.0
H977 H 0.01787 0.81881 0.36369 0.0
H978 H 0.03418 0.83848 0.41307 0.0
H979 H 0.06407 0.84963 0.40609 0.0
H980 H 0.05248 0.82938 0.43053 0.0
H981 H 0.05229 0.74512 0.40202 0.0
H982 H 0.09359 0.76796 0.39179 0.0
H983 H 0.08636 0.83193 0.37637 0.0
C984 C 0.9949 0.7818 0.40116 0.0
C985 C 0.97732 0.7578 0.40679 0.0
C986 C 0.98272 0.73839 0.40875 0.0
C987 C 0.00545 0.74288 0.40564 0.0
C988 C 0.02241 0.76672 0.40007 0.0
C989 C 0.01734 0.78572 0.39741 0.0
C990 C 0.03838 0.809 0.38973 0.0
C991 C 0.03183 0.81375 0.36278 0.0
C992 C 0.04783 0.83304 0.41114 0.0
C993 C 0.05598 0.80004 0.3884 0.0
C994 C 0.04656 0.77582 0.39504 0.0
C995 C 0.05976 0.76393 0.39646 0.0
C996 C 0.08315 0.77702 0.39067 0.0
C997 C 0.09282 0.80139 0.38295 0.0
C998 C 0.0791 0.81306 0.38177 0.0
H999 H 0.25547 0.24425 0.38112 0.0
H1000 H 0.18445 0.1775 0.37744 0.0
H1001 H 0.16703 0.20277 0.36492 0.0
H1002 H 0.24258 0.29064 0.40985 0.0
H1003 H 0.2614 0.31514 0.39174 0.0
H1004 H 0.2683 0.29134 0.3987 0.0
H1005 H 0.26789 0.27862 0.34888 0.0
H1006 H 0.26084 0.30233 0.34176 0.0
H1007 H 0.24186 0.26911 0.32601 0.0
H1008 H 0.15727 0.23559 0.35515 0.0
H1009 H 0.15571 0.27425 0.35015 0.0
H1010 H 0.23304 0.31991 0.35993 0.0
C1011 C 0.23625 0.23487 0.37745 0.0
C1012 C 0.22132 0.20885 0.3802 0.0
C1013 C 0.19626 0.19738 0.37545 0.0
C1014 C 0.18619 0.21155 0.36822 0.0
C1015 C 0.2014 0.23714 0.36576 0.0
C1016 C 0.22588 0.24874 0.37026 0.0
C1017 C 0.23819 0.2769 0.36748 0.0
C1018 C 0.25351 0.29454 0.39349 0.0
C1019 C 0.25307 0.28203 0.34467 0.0
C1020 C 0.21677 0.2794 0.36115 0.0
C1021 C 0.19574 0.25616 0.36006 0.0
C1022 C 0.17361 0.25384 0.35573 0.0
C1023 C 0.17293 0.27595 0.35294 0.0
C1024 C 0.19425 0.30012 0.35452 0.0
C1025 C 0.21642 0.30167 0.35821 0.0
H1026 H 0.67806 0.51001 0.77464 0.0
H1027 H 0.62213 0.48782 0.71017 0.0
H1028 H 0.65187 0.51802 0.68548 0.0
H1029 H 0.71282 0.57822 0.76926 0.0
H1030 H 0.74111 0.58082 0.77702 0.0
H1031 H 0.71538 0.55799 0.79021 0.0
H1032 H 0.72131 0.52108 0.77002 0.0
H1033 H 0.747 0.5438 0.75674 0.0
H1034 H 0.7227 0.516 0.73523 0.0
H1035 H 0.6874 0.54852 0.66669 0.0
H1036 H 0.72683 0.57919 0.65551 0.0
H1037 H 0.7602 0.58328 0.73235 0.0
C1038 C 0.67206 0.51163 0.7554 0.0
C1039 C 0.64771 0.49648 0.74433 0.0
C1040 C 0.64062 0.49919 0.7191 0.0
C1041 C 0.65739 0.51631 0.70489 0.0
C1042 C 0.68121 0.53076 0.71624 0.0
C1043 C 0.68859 0.52882 0.74098 0.0
C1044 C 0.7154 0.54648 0.74838 0.0
C1045 C 0.72153 0.5671 0.77265 0.0
C1046 C 0.72729 0.5309 0.75285 0.0
C1047 C 0.72189 0.55835 0.72378 0.0
C1048 C 0.70184 0.54893 0.70552 0.0
C1049 C 0.70322 0.55621 0.68089 0.0
C1050 C 0.72568 0.57359 0.6747 0.0
C1051 C 0.74647 0.58363 0.6931 0.0
C1052 C 0.74453 0.57602 0.71802 0.0
H1053 H 0.46255 0.12294 0.78672 0.0
H1054 H 0.45805 0.0648 0.72536 0.0
H1055 H 0.42802 0.06776 0.69764 0.0
H1056 H 0.40002 0.10147 0.77765 0.0
H1057 H 0.40502 0.13357 0.78358 0.0
H1058 H 0.42615 0.12709 0.79911 0.0
H1059 H 0.46007 0.16292 0.77923 0.0
H1060 H 0.43911 0.16979 0.76399 0.0
H1061 H 0.45706 0.16217 0.74418 0.0
H1062 H 0.39905 0.07764 0.6762 0.0
H1063 H 0.3719 0.09255 0.66346 0.0
H1064 H 0.39506 0.14376 0.73894 0.0
C1065 C 0.45521 0.11075 0.7675 0.0
C1066 C 0.46269 0.09366 0.7582 0.0
C1067 C 0.45258 0.07802 0.73293 0.0
C1068 C 0.43555 0.0796 0.717 0.0
C1069 C 0.42875 0.09683 0.72666 0.0
C1070 C 0.43814 0.11201 0.75138 0.0
C1071 C 0.42771 0.12887 0.75712 0.0
C1072 C 0.41391 0.12233 0.78079 0.0
C1073 C 0.44715 0.15764 0.76137 0.0
C1074 C 0.41106 0.12084 0.73175 0.0
C1075 C 0.41196 0.10239 0.71439 0.0
C1076 C 0.39816 0.09205 0.68964 0.0
C1077 C 0.38285 0.10064 0.68256 0.0
C1078 C 0.3815 0.11927 0.70022 0.0
C1079 C 0.39584 0.12953 0.72504 0.0
H1080 H 0.85509 0.3355 0.73167 0.0
H1081 H 0.9108 0.37787 0.68516 0.0
H1082 H 0.91106 0.33825 0.6693 0.0
H1083 H 0.87698 0.29766 0.75222 0.0
H1084 H 0.8481 0.2689 0.75013 0.0
H1085 H 0.85118 0.3001 0.75649 0.0
H1086 H 0.81947 0.28675 0.71609 0.0
H1087 H 0.81616 0.25541 0.70974 0.0
H1088 H 0.82341 0.27484 0.6843 0.0
H1089 H 0.90744 0.29468 0.66139 0.0
H1090 H 0.89819 0.2499 0.65966 0.0
H1091 H 0.84417 0.23609 0.71044 0.0
C1092 C 0.86715 0.33641 0.71788 0.0
C1093 C 0.88294 0.35983 0.70968 0.0
C1094 C 0.89846 0.36015 0.69165 0.0
C1095 C 0.89879 0.33776 0.68258 0.0
C1096 C 0.88332 0.31513 0.6915 0.0
C1097 C 0.86759 0.31424 0.7085 0.0
C1098 C 0.85314 0.28767 0.71557 0.0
C1099 C 0.85763 0.28866 0.74537 0.0
C1100 C 0.82646 0.27545 0.70583 0.0
C1101 C 0.86347 0.27386 0.70023 0.0
C1102 C 0.88089 0.29 0.6865 0.0
C1103 C 0.89364 0.28179 0.67183 0.0
C1104 C 0.88836 0.25637 0.67107 0.0
C1105 C 0.87037 0.23945 0.68477 0.0
C1106 C 0.8578 0.24842 0.69946 0.0
H1107 H 0.14957 0.97365 0.63022 0.0
H1108 H 0.17318 0.93395 0.67651 0.0
H1109 H 0.20979 0.97532 0.6951 0.0
H1110 H 0.20464 0.01564 0.61282 0.0
H1111 H 0.20126 0.04322 0.61497 0.0
H1112 H 0.17534 0.01119 0.60776 0.0
H1113 H 0.1579 0.02195 0.64758 0.0
H1114 H 0.1837 0.05417 0.6548 0.0
H1115 H 0.17539 0.0342 0.67979 0.0
H1116 H 0.24564 0.01931 0.70435 0.0
H1117 H 0.27799 0.06417 0.70584 0.0
H1118 H 0.23148 0.07644 0.65448 0.0
C1119 C 0.16214 0.97375 0.6448 0.0
C1120 C 0.15845 0.95052 0.65198 0.0
C1121 C 0.17556 0.95145 0.67075 0.0
C1122 C 0.19641 0.97488 0.68145 0.0
C1123 C 0.19985 0.99728 0.67336 0.0
C1124 C 0.18311 0.99703 0.6557 0.0
C1125 C 0.19199 0.02366 0.64904 0.0
C1126 C 0.19339 0.02339 0.61939 0.0
C1127 C 0.17631 0.03411 0.65836 0.0
C1128 C 0.2166 0.03868 0.66509 0.0
C1129 C 0.22065 0.02304 0.67905 0.0
C1130 C 0.24256 0.03187 0.69388 0.0
C1131 C 0.26088 0.05735 0.69444 0.0
C1132 C 0.2572 0.07381 0.68037 0.0
C1133 C 0.23465 0.0644 0.66576 0.0
H1134 H 0.01726 0.20767 0.57025 0.0
H1135 H 0.05994 0.20186 0.63332 0.0
H1136 H 0.027 0.18899 0.65998 0.0
H1137 H 0.99195 0.23518 0.61048 0.0
H1138 H 0.96307 0.21796 0.59061 0.0
H1139 H 0.98917 0.22478 0.5756 0.0
H1140 H 0.97027 0.17617 0.55709 0.0
H1141 H 0.94397 0.16919 0.57182 0.0
H1142 H 0.95973 0.15325 0.57921 0.0
H1143 H 0.99047 0.17958 0.68083 0.0
H1144 H 0.95256 0.17332 0.69388 0.0
H1145 H 0.93387 0.18487 0.61705 0.0
C1146 C 0.01961 0.20338 0.58953 0.0
C1147 C 0.04118 0.20574 0.5997 0.0
C1148 C 0.04356 0.20011 0.6251 0.0
C1149 C 0.02495 0.19278 0.64038 0.0
C1150 C 0.00408 0.19104 0.62991 0.0
C1151 C 0.00125 0.19602 0.605 0.0
C1152 C 0.9774 0.19368 0.59869 0.0
C1153 C 0.9806 0.21943 0.59355 0.0
C1154 C 0.96193 0.17176 0.57532 0.0
C1155 C 0.96742 0.18705 0.62413 0.0
C1156 C 0.98302 0.18551 0.64185 0.0
C1157 C 0.97802 0.18051 0.66704 0.0
C1158 C 0.95651 0.17704 0.67428 0.0
C1159 C 0.94039 0.17863 0.6564 0.0
C1160 C 0.94588 0.18352 0.63101 0.0
H1161 H 0.83496 0.81096 0.60557 0.0
H1162 H 0.76878 0.79251 0.63537 0.0
H1163 H 0.76711 0.75535 0.65147 0.0
H1164 H 0.82065 0.74589 0.58384 0.0
H1165 H 0.85058 0.75362 0.59418 0.0
H1166 H 0.84561 0.77806 0.5848 0.0
H1167 H 0.86889 0.80676 0.63021 0.0
H1168 H 0.87285 0.78159 0.6395 0.0
H1169 H 0.8589 0.7946 0.65995 0.0
H1170 H 0.77218 0.71981 0.66359 0.0
H1171 H 0.7841 0.68886 0.67209 0.0
H1172 H 0.8474 0.73062 0.63499 0.0
C1173 C 0.82009 0.79908 0.61545 0.0
C1174 C 0.80193 0.80458 0.61912 0.0
C1175 C 0.7829 0.78869 0.63234 0.0
C1176 C 0.78178 0.76751 0.64153 0.0
C1177 C 0.79992 0.76258 0.63753 0.0
C1178 C 0.8188 0.77798 0.62497 0.0
C1179 C 0.83617 0.76867 0.62359 0.0
C1180 C 0.83834 0.76109 0.59488 0.0
C1181 C 0.86065 0.78913 0.63925 0.0
C1182 C 0.82383 0.7453 0.63686 0.0
C1183 C 0.80301 0.74223 0.64484 0.0
C1184 C 0.78848 0.72204 0.6575 0.0
C1185 C 0.79542 0.70452 0.6622 0.0
C1186 C 0.81674 0.70727 0.6543 0.0
C1187 C 0.83106 0.72799 0.64142 0.0
H1188 H 0.02135 0.83538 0.63096 0.0
H1189 H 0.99746 0.81509 0.54681 0.0
H1190 H 0.96278 0.77389 0.55312 0.0
H1191 H 0.00232 0.77099 0.64379 0.0
H1192 H 0.99232 0.77581 0.67451 0.0
H1193 H 0.01626 0.80285 0.6633 0.0
H1194 H 0.99297 0.82655 0.66658 0.0
H1195 H 0.96901 0.79962 0.67784 0.0
H1196 H 0.96309 0.81087 0.64933 0.0
H1197 H 0.93065 0.73544 0.56836 0.0
H1198 H 0.90123 0.70344 0.59185 0.0
H1199 H 0.94428 0.74933 0.66665 0.0
C1200 C 0.00895 0.82208 0.61387 0.0
C1201 C 0.01215 0.82822 0.58834 0.0
C1202 C 0.99531 0.81068 0.5665 0.0
C1203 C 0.97565 0.78722 0.56988 0.0
C1204 C 0.9729 0.78178 0.59529 0.0
C1205 C 0.98892 0.79879 0.61697 0.0
C1206 C 0.98085 0.78899 0.64229 0.0
C1207 C 0.99902 0.78439 0.65682 0.0
C1208 C 0.9762 0.80762 0.66005 0.0
C1209 C 0.95784 0.76379 0.63144 0.0
C1210 C 0.95379 0.75993 0.60425 0.0
C1211 C 0.93366 0.73823 0.58964 0.0
C1212 C 0.91707 0.72012 0.60317 0.0
C1213 C 0.92054 0.72388 0.63103 0.0
C1214 C 0.94127 0.74593 0.64533 0.0
H1215 H 0.19808 0.24806 0.65941 0.0
H1216 H 0.15887 0.19654 0.58537 0.0
H1217 H 0.17999 0.17332 0.59077 0.0
H1218 H 0.25376 0.25248 0.65221 0.0
H1219 H 0.26081 0.25266 0.68649 0.0
H1220 H 0.24247 0.26515 0.677 0.0
H1221 H 0.20932 0.23376 0.70152 0.0
H1222 H 0.22756 0.22115 0.71107 0.0
H1223 H 0.19794 0.19965 0.69349 0.0
H1224 H 0.20625 0.15674 0.6032 0.0
H1225 H 0.23517 0.14686 0.62266 0.0
H1226 H 0.25646 0.20797 0.68949 0.0
C1227 C 0.19392 0.23188 0.64434 0.0
C1228 C 0.17684 0.22415 0.62192 0.0
C1229 C 0.17184 0.2028 0.60272 0.0
C1230 C 0.18376 0.1895 0.6056 0.0
C1231 C 0.20049 0.19763 0.62788 0.0
C1232 C 0.2055 0.21823 0.64701 0.0
C1233 C 0.22426 0.22296 0.66909 0.0
C1234 C 0.24665 0.24991 0.67131 0.0
C1235 C 0.21416 0.21914 0.69534 0.0
C1236 C 0.22914 0.20194 0.65927 0.0
C1237 C 0.21526 0.18762 0.63541 0.0
C1238 C 0.21707 0.16766 0.62197 0.0
C1239 C 0.23353 0.1622 0.63317 0.0
C1240 C 0.24783 0.17652 0.65764 0.0
C1241 C 0.24552 0.19655 0.6709 0.0
H1242 H 0.82998 0.98075 0.61411 0.0
H1243 H 0.78567 0.94378 0.67284 0.0
H1244 H 0.79257 0.98583 0.69405 0.0
H1245 H 0.8733 0.04156 0.65877 0.0
H1246 H 0.87645 0.0608 0.6338 0.0
H1247 H 0.86963 0.02816 0.62457 0.0
H1248 H 0.83231 0.01746 0.5933 0.0
H1249 H 0.83889 0.04996 0.60258 0.0
H1250 H 0.81026 0.02318 0.60623 0.0
H1251 H 0.80077 0.03086 0.70603 0.0
H1252 H 0.81221 0.07645 0.70996 0.0
H1253 H 0.85232 0.08448 0.64441 0.0
C1254 C 0.82206 0.98154 0.6317 0.0
C1255 C 0.80727 0.95893 0.6418 0.0
C1256 C 0.79714 0.96082 0.66478 0.0
C1257 C 0.80092 0.98462 0.67696 0.0
C1258 C 0.81511 0.0064 0.66611 0.0
C1259 C 0.82579 0.00516 0.64421 0.0
C1260 C 0.83956 0.03128 0.63593 0.0
C1261 C 0.86633 0.04102 0.63843 0.0
C1262 C 0.82965 0.0304 0.60785 0.0
C1263 C 0.83447 0.04726 0.65622 0.0
C1264 C 0.82033 0.03254 0.67344 0.0
C1265 C 0.81214 0.04267 0.69292 0.0
C1266 C 0.81862 0.06854 0.6949 0.0
C1267 C 0.83328 0.08404 0.67761 0.0
C1268 C 0.8414 0.07322 0.65816 0.0
H1269 H 0.48821 0.31376 0.74417 0.0
H1270 H 0.46866 0.36675 0.71947 0.0
H1271 H 0.42866 0.33008 0.70058 0.0
H1272 H 0.45402 0.26151 0.68684 0.0
H1273 H 0.44565 0.23657 0.70646 0.0
H1274 H 0.47348 0.26681 0.71602 0.0
H1275 H 0.46133 0.27292 0.76204 0.0
H1276 H 0.43373 0.24258 0.75237 0.0
H1277 H 0.4334 0.27137 0.7641 0.0
H1278 H 0.38983 0.28825 0.68779 0.0
H1279 H 0.35525 0.24372 0.6801 0.0
H1280 H 0.39992 0.21773 0.71285 0.0
C1281 C 0.47568 0.31763 0.73435 0.0
C1282 C 0.48162 0.34317 0.73328 0.0
C1283 C 0.46458 0.34739 0.72052 0.0
C1284 C 0.44178 0.32667 0.70971 0.0
C1285 C 0.43631 0.30181 0.71168 0.0
C1286 C 0.45281 0.29715 0.72345 0.0
C1287 C 0.44202 0.26865 0.72391 0.0
C1288 C 0.45454 0.25775 0.70731 0.0
C1289 C 0.44266 0.26361 0.7523 0.0
C1290 C 0.41674 0.25815 0.71115 0.0
C1291 C 0.41388 0.27759 0.70411 0.0
C1292 C 0.3919 0.2728 0.69294 0.0
C1293 C 0.37233 0.24745 0.68876 0.0
C1294 C 0.37486 0.22717 0.69572 0.0
C1295 C 0.39744 0.23271 0.707 0.0
H1296 H 0.65985 0.10447 0.7434 0.0
H1297 H 0.69199 0.1604 0.8161 0.0
H1298 H 0.73194 0.17243 0.80523 0.0
H1299 H 0.70339 0.08427 0.74405 0.0
H1300 H 0.70284 0.0809 0.70884 0.0
H1301 H 0.67672 0.07579 0.72296 0.0
H1302 H 0.67588 0.11009 0.69878 0.0
H1303 H 0.7021 0.11545 0.68477 0.0
H1304 H 0.70188 0.14212 0.70363 0.0
H1305 H 0.76822 0.18005 0.78561 0.0
H1306 H 0.79876 0.18142 0.75927 0.0
H1307 H 0.74332 0.12027 0.69944 0.0
C1308 C 0.67528 0.11906 0.75718 0.0
C1309 C 0.67279 0.1315 0.78062 0.0
C1310 C 0.69344 0.15057 0.79806 0.0
C1311 C 0.71621 0.15757 0.79205 0.0
C1312 C 0.71803 0.14522 0.7686 0.0
C1313 C 0.69815 0.12624 0.75152 0.0
C1314 C 0.7051 0.11636 0.72737 0.0
C1315 C 0.6965 0.08763 0.72572 0.0
C1316 C 0.69568 0.12131 0.70215 0.0
C1317 C 0.73199 0.13302 0.7334 0.0
C1318 C 0.73904 0.1495 0.75731 0.0
C1319 C 0.76293 0.16714 0.76693 0.0
C1320 C 0.78012 0.16784 0.75179 0.0
C1321 C 0.77331 0.15089 0.72743 0.0
C1322 C 0.74895 0.13334 0.71807 0.0
H1323 H 0.83797 0.49789 0.73673 0.0
H1324 H 0.90351 0.51386 0.70672 0.0
H1325 H 0.90687 0.55205 0.69137 0.0
H1326 H 0.81495 0.5154 0.684 0.0
H1327 H 0.80225 0.52985 0.70467 0.0
H1328 H 0.80538 0.50429 0.7143 0.0
H1329 H 0.82977 0.53362 0.7589 0.0
H1330 H 0.82646 0.5591 0.74933 0.0
H1331 H 0.85576 0.56486 0.759 0.0
H1332 H 0.90295 0.58817 0.67872 0.0
H1333 H 0.89153 0.61921 0.66875 0.0
H1334 H 0.82824 0.57961 0.70646 0.0
C1335 C 0.85309 0.50948 0.72704 0.0
C1336 C 0.8705 0.50285 0.72295 0.0
C1337 C 0.88995 0.5185 0.71008 0.0
C1338 C 0.89204 0.54028 0.70132 0.0
C1339 C 0.87456 0.54621 0.70557 0.0
C1340 C 0.85545 0.5313 0.71812 0.0
C1341 C 0.83884 0.54163 0.71964 0.0
C1342 C 0.81388 0.5216 0.70476 0.0
C1343 C 0.83765 0.55032 0.74843 0.0
C1344 C 0.85148 0.56449 0.70574 0.0
C1345 C 0.87214 0.56689 0.69796 0.0
C1346 C 0.88682 0.5865 0.68473 0.0
C1347 C 0.88017 0.60407 0.67917 0.0
C1348 C 0.85892 0.60185 0.68668 0.0
C1349 C 0.84451 0.58179 0.70026 0.0
H1350 H 0.44048 0.8955 0.13903 0.0
H1351 H 0.47664 0.96067 0.20316 0.0
H1352 H 0.48766 0.99056 0.17106 0.0
H1353 H 0.48009 0.91808 0.09658 0.0
H1354 H 0.45908 0.9059 0.06686 0.0
H1355 H 0.45071 0.89013 0.09485 0.0
H1356 H 0.41424 0.89588 0.09462 0.0
H1357 H 0.42248 0.91152 0.06636 0.0
H1358 H 0.41864 0.92757 0.09558 0.0
H1359 H 0.50124 0.01252 0.13127 0.0
H1360 H 0.51273 0.02431 0.08783 0.0
H1361 H 0.46489 0.94457 0.05067 0.0
C1362 C 0.45006 0.91608 0.14628 0.0
C1363 C 0.45773 0.92593 0.1734 0.0
C1364 C 0.47041 0.95288 0.18238 0.0
C1365 C 0.47675 0.96994 0.1643 0.0
C1366 C 0.46958 0.95961 0.13747 0.0
C1367 C 0.4559 0.93324 0.12859 0.0
C1368 C 0.45169 0.92682 0.09885 0.0
C1369 C 0.46096 0.90922 0.08872 0.0
C1370 C 0.42519 0.91474 0.08824 0.0
C1371 C 0.4665 0.9535 0.09239 0.0
C1372 C 0.47649 0.9723 0.11477 0.0
C1373 C 0.49295 0.99805 0.11357 0.0
C1374 C 0.49945 0.00458 0.0889 0.0
C1375 C 0.48948 0.9854 0.06596 0.0
C1376 C 0.47244 0.95976 0.06781 0.0
H1377 H 0.09603 0.52233 0.16869 0.0
H1378 H 0.07153 0.55984 0.22448 0.0
H1379 H 0.04042 0.55262 0.18998 0.0
H1380 H 0.08948 0.5472 0.11441 0.0
H1381 H 0.07814 0.51828 0.09032 0.0
H1382 H 0.09695 0.52341 0.11992 0.0
H1383 H 0.06441 0.47984 0.13119 0.0
H1384 H 0.04584 0.47445 0.10115 0.0
H1385 H 0.03466 0.47357 0.13221 0.0
H1386 H 0.01591 0.54725 0.14874 0.0
H1387 H 0.9969 0.54024 0.10349 0.0
H1388 H 0.03502 0.50414 0.07437 0.0
C1389 C 0.08377 0.52847 0.1738 0.0
C1390 C 0.08635 0.54172 0.19937 0.0
C1391 C 0.07001 0.54963 0.20513 0.0
C1392 C 0.0522 0.54562 0.18564 0.0
C1393 C 0.0506 0.53326 0.16051 0.0
C1394 C 0.0656 0.52433 0.15457 0.0
C1395 C 0.06042 0.51243 0.12562 0.0
C1396 C 0.08257 0.52617 0.11177 0.0
C1397 C 0.05077 0.48335 0.12234 0.0
C1398 C 0.04115 0.51744 0.1161 0.0
C1399 C 0.03564 0.52925 0.13664 0.0
C1400 C 0.01967 0.53747 0.13256 0.0
C1401 C 0.00904 0.53351 0.10678 0.0
C1402 C 0.01426 0.52127 0.08543 0.0
C1403 C 0.03032 0.51294 0.09028 0.0
H1404 H 0.45035 0.5122 0.17806 0.0
H1405 H 0.46631 0.58997 0.17585 0.0
H1406 H 0.48458 0.59025 0.1355 0.0
H1407 H 0.50127 0.51813 0.15858 0.0
H1408 H 0.48789 0.48718 0.13734 0.0
H1409 H 0.47335 0.49147 0.16419 0.0
H1410 H 0.43506 0.47581 0.132 0.0
H1411 H 0.44927 0.47104 0.10493 0.0
H1412 H 0.43678 0.49122 0.10397 0.0
H1413 H 0.50789 0.58534 0.10127 0.0
H1414 H 0.52755 0.572 0.06898 0.0
H1415 H 0.49249 0.49569 0.08947 0.0
C1416 C 0.45707 0.52895 0.16858 0.0
C1417 C 0.45698 0.55107 0.18001 0.0
C1418 C 0.46601 0.57273 0.16724 0.0
C1419 C 0.47653 0.57313 0.1444 0.0
C1420 C 0.4772 0.55142 0.13417 0.0
C1421 C 0.46696 0.52936 0.14525 0.0
C1422 C 0.47049 0.50883 0.1305 0.0
C1423 C 0.48406 0.50096 0.14875 0.0
C1424 C 0.44647 0.48534 0.11705 0.0
C1425 C 0.48547 0.52335 0.11044 0.0
C1426 C 0.48925 0.54795 0.11301 0.0
C1427 C 0.50451 0.56589 0.09852 0.0
C1428 C 0.51579 0.55829 0.08049 0.0
C1429 C 0.51129 0.53286 0.07683 0.0
C1430 C 0.49593 0.51517 0.09188 0.0
H1431 H 0.91155 0.43533 0.83286 0.0
H1432 H 0.94258 0.5127 0.81575 0.0
H1433 H 0.96828 0.53023 0.85907 0.0
H1434 H 0.91404 0.45114 0.90456 0.0
H1435 H 0.92237 0.42836 0.91152 0.0
H1436 H 0.90426 0.4223 0.88089 0.0
H1437 H 0.93498 0.41788 0.85516 0.0
H1438 H 0.95323 0.42409 0.88567 0.0
H1439 H 0.96571 0.44386 0.86102 0.0
H1440 H 0.99044 0.53908 0.90393 0.0
H1441 H 0.01078 0.53863 0.94548 0.0
H1442 H 0.96889 0.45506 0.931 0.0
C1443 C 0.92341 0.45599 0.83862 0.0
C1444 C 0.92489 0.47287 0.8215 0.0
C1445 C 0.94111 0.49967 0.82897 0.0
C1446 C 0.95568 0.50972 0.85346 0.0
C1447 C 0.95407 0.49257 0.86986 0.0
C1448 C 0.93855 0.46625 0.86267 0.0
C1449 C 0.94193 0.45187 0.88279 0.0
C1450 C 0.9193 0.43758 0.89571 0.0
C1451 C 0.94942 0.43334 0.87041 0.0
C1452 C 0.96203 0.47418 0.90219 0.0
C1453 C 0.96832 0.49752 0.89468 0.0
C1454 C 0.98584 0.52094 0.90989 0.0
C1455 C 0.9973 0.5205 0.93335 0.0
C1456 C 0.99165 0.49681 0.94093 0.0
C1457 C 0.97383 0.47337 0.92519 0.0
H1458 H 0.52345 0.42263 0.8542 0.0
H1459 H 0.58256 0.49728 0.84525 0.0
H1460 H 0.56906 0.51866 0.87751 0.0
H1461 H 0.4798 0.44053 0.86052 0.0
H1462 H 0.46645 0.42121 0.88525 0.0
H1463 H 0.48061 0.41162 0.86144 0.0
H1464 H 0.50805 0.41093 0.89907 0.0
H1465 H 0.49378 0.42022 0.92297 0.0
H1466 H 0.52566 0.43928 0.92405 0.0
H1467 H 0.5491 0.53182 0.91034 0.0
H1468 H 0.52629 0.53589 0.9449 0.0
H1469 H 0.48018 0.45271 0.93258 0.0
C1470 C 0.5336 0.44349 0.85896 0.0
C1471 C 0.55399 0.4583 0.847 0.0
C1472 C 0.56686 0.48553 0.85406 0.0
C1473 C 0.55926 0.49784 0.87226 0.0
C1474 C 0.5388 0.48265 0.88321 0.0
C1475 C 0.52633 0.45607 0.8771 0.0
C1476 C 0.50543 0.44418 0.89239 0.0
C1477 C 0.48167 0.42846 0.87378 0.0
C1478 C 0.50841 0.42768 0.9107 0.0
C1479 C 0.50796 0.46824 0.90795 0.0
C1480 C 0.52729 0.49022 0.90225 0.0
C1481 C 0.53385 0.51478 0.91483 0.0
C1482 C 0.52075 0.51689 0.93431 0.0
C1483 C 0.50142 0.4946 0.94107 0.0
C1484 C 0.49458 0.47001 0.92732 0.0
H1485 H 0.57061 0.064 0.86333 0.0
H1486 H 0.51183 0.04141 0.80252 0.0
H1487 H 0.48374 0.01181 0.82894 0.0
H1488 H 0.54835 1.00016 0.88037 0.0
H1489 H 0.55922 0.01312 0.91491 0.0
H1490 H 0.57425 0.03201 0.89051 0.0
H1491 H 0.56912 0.06891 0.91363 0.0
H1492 H 0.55337 0.04946 0.93734 0.0
H1493 H 0.53965 0.06221 0.91788 0.0
H1494 H 0.46176 0.98778 0.86394 0.0
H1495 H 0.4479 0.96797 0.90317 0.0
H1496 H 0.52101 0.00097 0.93802 0.0
C1497 C 0.55186 0.05264 0.85541 0.0
C1498 C 0.54334 0.05574 0.8312 0.0
C1499 C 0.51869 0.0404 0.82153 0.0
C1500 C 0.50261 0.02318 0.83624 0.0
C1501 C 0.51153 0.02111 0.86033 0.0
C1502 C 0.53561 0.0351 0.86967 0.0
C1503 C 0.54052 0.02953 0.89635 0.0
C1504 C 0.55653 0.01801 0.89547 0.0
C1505 C 0.55132 0.05398 0.91754 0.0
C1506 C 0.51546 0.00991 0.90032 0.0
C1507 C 0.49896 0.00577 0.87959 0.0
C1508 C 0.47454 0.99046 0.88003 0.0
C1509 C 0.46685 0.97932 0.90238 0.0
C1510 C 0.48351 0.98306 0.92365 0.0
C1511 C 0.50804 0.99799 0.92221 0.0
H1512 H 0.13608 0.27866 0.50131 0.0
H1513 H 0.18657 0.33673 0.56684 0.0
H1514 H 0.20436 0.36771 0.53653 0.0
H1515 H 0.17623 0.29439 0.45445 0.0
H1516 H 0.15459 0.28849 0.42729 0.0
H1517 H 0.14506 0.27145 0.45439 0.0
H1518 H 0.11608 0.28799 0.46129 0.0
H1519 H 0.12568 0.30512 0.43421 0.0
H1520 H 0.12751 0.32217 0.46608 0.0
H1521 H 0.21748 0.39194 0.49875 0.0
H1522 H 0.22617 0.4066 0.45596 0.0
H1523 H 0.16722 0.33245 0.41565 0.0
C1524 C 0.15081 0.29792 0.50937 0.0
C1525 C 0.15991 0.30526 0.53649 0.0
C1526 C 0.17928 0.33064 0.54615 0.0
C1527 C 0.18944 0.34842 0.52912 0.0
C1528 C 0.17996 0.34055 0.50253 0.0
C1529 C 0.16111 0.31587 0.49269 0.0
C1530 C 0.15485 0.31188 0.46316 0.0
C1531 C 0.15788 0.29028 0.449 0.0
C1532 C 0.12953 0.30648 0.45577 0.0
C1533 C 0.17344 0.33801 0.45786 0.0
C1534 C 0.18758 0.35441 0.48081 0.0
C1535 C 0.20643 0.37933 0.48066 0.0
C1536 C 0.21122 0.38749 0.45633 0.0
C1537 C 0.19729 0.37068 0.43262 0.0
C1538 C 0.17799 0.34581 0.43351 0.0
H1539 H 0.76141 0.85088 0.50159 0.0
H1540 H 0.70427 0.82418 0.54963 0.0
H1541 H 0.67548 0.8141 0.51064 0.0
H1542 H 0.74261 0.88319 0.46607 0.0
H1543 H 0.75087 0.87551 0.43516 0.0
H1544 H 0.76647 0.87676 0.46559 0.0
H1545 H 0.75635 0.82981 0.45031 0.0
H1546 H 0.74136 0.82903 0.41958 0.0
H1547 H 0.72572 0.80463 0.43921 0.0
H1548 H 0.65371 0.81161 0.46777 0.0
H1549 H 0.64072 0.81637 0.42391 0.0
H1550 H 0.71213 0.84533 0.40428 0.0
C1551 C 0.74274 0.84217 0.50374 0.0
C1552 C 0.73505 0.83811 0.52861 0.0
C1553 C 0.71054 0.82735 0.53074 0.0
C1554 C 0.69404 0.8215 0.5087 0.0
C1555 C 0.7023 0.82651 0.48464 0.0
C1556 C 0.72606 0.83644 0.48198 0.0
C1557 C 0.73071 0.84229 0.45455 0.0
C1558 C 0.74872 0.87115 0.45541 0.0
C1559 C 0.73903 0.82543 0.44007 0.0
C1560 C 0.70602 0.83468 0.44247 0.0
C1561 C 0.68981 0.82536 0.46001 0.0
C1562 C 0.66616 0.81851 0.45372 0.0
C1563 C 0.65896 0.82135 0.42887 0.0
C1564 C 0.67539 0.83102 0.41078 0.0
C1565 C 0.69911 0.8375 0.41762 0.0
H1566 H 0.10623 0.84438 0.51182 0.0
H1567 H 0.12475 0.92333 0.51184 0.0
H1568 H 0.15099 0.92726 0.47834 0.0
H1569 H 0.16123 0.85176 0.50478 0.0
H1570 H 0.15057 0.82224 0.48185 0.0
H1571 H 0.13166 0.82457 0.50439 0.0
H1572 H 0.09894 0.8118 0.46542 0.0
H1573 H 0.11763 0.80929 0.4426 0.0
H1574 H 0.1061 0.83009 0.43904 0.0
H1575 H 0.18017 0.9252 0.45147 0.0
H1576 H 0.2046 0.91452 0.42443 0.0
H1577 H 0.16426 0.83535 0.4369 0.0
C1578 C 0.11544 0.86226 0.5043 0.0
C1579 C 0.11356 0.88359 0.51442 0.0
C1580 C 0.12581 0.90671 0.50418 0.0
C1581 C 0.14086 0.90918 0.48527 0.0
C1582 C 0.1429 0.8881 0.47624 0.0
C1583 C 0.12997 0.86479 0.48469 0.0
C1584 C 0.13541 0.84517 0.47143 0.0
C1585 C 0.14531 0.83537 0.49184 0.0
C1586 C 0.1132 0.82275 0.45356 0.0
C1587 C 0.15433 0.86155 0.45536 0.0
C1588 C 0.15845 0.8863 0.45865 0.0
C1589 C 0.1766 0.9057 0.44796 0.0
C1590 C 0.19058 0.89953 0.43296 0.0
C1591 C 0.18608 0.87409 0.42845 0.0
C1592 C 0.16771 0.85484 0.43974 0.0
H1593 H 0.62287 0.8432 0.16323 0.0
H1594 H 0.55792 0.76897 0.15796 0.0
H1595 H 0.57079 0.76596 0.20251 0.0
H1596 H 0.66107 0.83018 0.19268 0.0
H1597 H 0.67926 0.86026 0.21522 0.0
H1598 H 0.6634 0.85935 0.1852 0.0
H1599 H 0.64194 0.87878 0.21133 0.0
H1600 H 0.65892 0.88087 0.2412 0.0
H1601 H 0.62693 0.86413 0.23804 0.0
H1602 H 0.59511 0.76602 0.24163 0.0
H1603 H 0.62557 0.77376 0.27795 0.0
H1604 H 0.67237 0.85025 0.26138 0.0
C1605 C 0.61098 0.82683 0.17194 0.0
C1606 C 0.58944 0.80631 0.15722 0.0
C1607 C 0.57438 0.78502 0.16903 0.0
C1608 C 0.58159 0.78309 0.19428 0.0
C1609 C 0.60349 0.80303 0.20779 0.0
C1610 C 0.61755 0.82501 0.19752 0.0
C1611 C 0.64084 0.84304 0.21558 0.0
C1612 C 0.6624 0.8485 0.2013 0.0
C1613 C 0.64222 0.86819 0.22721 0.0
C1614 C 0.63838 0.82695 0.23656 0.0
C1615 C 0.61672 0.80389 0.2317 0.0
C1616 C 0.61172 0.7844 0.24629 0.0
C1617 C 0.62914 0.78882 0.26664 0.0
C1618 C 0.65095 0.8127 0.27251 0.0
C1619 C 0.65552 0.83205 0.25748 0.0
H1620 H 0.18208 0.80712 0.16482 0.0
H1621 H 0.24975 0.87973 0.17805 0.0
H1622 H 0.24907 0.88287 0.22592 0.0
H1623 H 0.15579 0.82448 0.2117 0.0
H1624 H 0.14016 0.79404 0.22292 0.0
H1625 H 0.1474 0.79496 0.18991 0.0
H1626 H 0.16973 0.77118 0.19803 0.0
H1627 H 0.16227 0.76983 0.23104 0.0
H1628 H 0.19295 0.78401 0.22574 0.0
H1629 H 0.23832 0.88206 0.27045 0.0
H1630 H 0.2194 0.87601 0.31051 0.0
H1631 H 0.15964 0.80225 0.27055 0.0
C1632 C 0.1972 0.82308 0.17785 0.0
C1633 C 0.21618 0.84299 0.1678 0.0
C1634 C 0.23512 0.86424 0.18541 0.0
C1635 C 0.23493 0.86613 0.2126 0.0
C1636 C 0.21571 0.84655 0.22189 0.0
C1637 C 0.19729 0.82526 0.20517 0.0
C1638 C 0.17783 0.80814 0.22034 0.0
C1639 C 0.15389 0.80526 0.21063 0.0
C1640 C 0.17557 0.78172 0.21869 0.0
C1641 C 0.18779 0.82374 0.24797 0.0
C1642 C 0.20975 0.84571 0.24828 0.0
C1643 C 0.22153 0.86453 0.27069 0.0
C1644 C 0.21067 0.86082 0.29345 0.0
C1645 C 0.18851 0.83818 0.29396 0.0
C1646 C 0.17691 0.81937 0.27089 0.0
H1647 H 0.18035 0.36154 0.15915 0.0
H1648 H 0.24865 0.4334 0.18005 0.0
H1649 H 0.24775 0.42892 0.22669 0.0
H1650 H 0.15396 0.36991 0.21311 0.0
H1651 H 0.13896 0.33689 0.21805 0.0
H1652 H 0.14551 0.34422 0.18578 0.0
H1653 H 0.16837 0.32005 0.18335 0.0
H1654 H 0.16167 0.31238 0.21554 0.0
H1655 H 0.19215 0.32886 0.20924 0.0
H1656 H 0.23652 0.42099 0.27064 0.0
H1657 H 0.21911 0.40612 0.31017 0.0
H1658 H 0.16028 0.33633 0.26235 0.0
C1659 C 0.19531 0.37606 0.1735 0.0
C1660 C 0.21455 0.39788 0.16593 0.0
C1661 C 0.23377 0.41649 0.1853 0.0
C1662 C 0.23339 0.41417 0.21188 0.0
C1663 C 0.21389 0.39288 0.21874 0.0
C1664 C 0.19545 0.3738 0.20018 0.0
C1665 C 0.17651 0.35311 0.21318 0.0
C1666 C 0.15231 0.35092 0.20717 0.0
C1667 C 0.17457 0.32706 0.20483 0.0
C1668 C 0.18688 0.36406 0.24198 0.0
C1669 C 0.20837 0.38714 0.24456 0.0
C1670 C 0.22028 0.40241 0.26894 0.0
C1671 C 0.21032 0.39362 0.29137 0.0
C1672 C 0.18906 0.36937 0.28952 0.0
C1673 C 0.17701 0.3545 0.26441 0.0
H1674 H 0.83507 0.61744 0.84807 0.0
H1675 H 0.77787 0.63298 0.85406 0.0
H1676 H 0.7861 0.6514 0.8135 0.0
H1677 H 0.87533 0.67549 0.8235 0.0
H1678 H 0.88594 0.65963 0.80137 0.0
H1679 H 0.87592 0.64785 0.83124 0.0
H1680 H 0.84584 0.60251 0.80406 0.0
H1681 H 0.85572 0.61415 0.77411 0.0
H1682 H 0.82464 0.59918 0.77781 0.0
H1683 H 0.79843 0.66548 0.7712 0.0
H1684 H 0.81609 0.67699 0.73046 0.0
H1685 H 0.86677 0.65481 0.7525 0.0
C1686 C 0.82441 0.62491 0.84097 0.0
C1687 C 0.80585 0.62379 0.85434 0.0
C1688 C 0.79225 0.63369 0.8443 0.0
C1689 C 0.79674 0.64417 0.82122 0.0
C1690 C 0.81501 0.64481 0.80847 0.0
C1691 C 0.82877 0.63564 0.81799 0.0
C1692 C 0.84719 0.63851 0.8002 0.0
C1693 C 0.8726 0.65644 0.81497 0.0
C1694 C 0.8431 0.61202 0.78835 0.0
C1695 C 0.84162 0.65079 0.7793 0.0
C1696 C 0.8228 0.65396 0.78437 0.0
C1697 C 0.81341 0.66348 0.76719 0.0
C1698 C 0.82351 0.66994 0.74416 0.0
C1699 C 0.84297 0.66718 0.73877 0.0
C1700 C 0.85226 0.65767 0.75661 0.0
H1701 H 0.41736 0.22566 0.85549 0.0
H1702 H 0.41165 0.15185 0.85645 0.0
H1703 H 0.3798 0.13221 0.81822 0.0
H1704 H 0.35539 0.20133 0.8387 0.0
H1705 H 0.35982 0.22438 0.81766 0.0
H1706 H 0.38235 0.23267 0.84482 0.0
H1707 H 0.41375 0.24348 0.81284 0.0
H1708 H 0.39138 0.23519 0.78548 0.0
H1709 H 0.40824 0.21944 0.78498 0.0
H1710 H 0.34963 0.12112 0.77867 0.0
H1711 H 0.32192 0.11897 0.7425 0.0
H1712 H 0.34674 0.1997 0.76857 0.0
C1713 C 0.40955 0.20538 0.84763 0.0
C1714 C 0.41707 0.19031 0.85899 0.0
C1715 C 0.40628 0.16383 0.84806 0.0
C1716 C 0.3882 0.15251 0.82632 0.0
C1717 C 0.38128 0.16797 0.81562 0.0
C1718 C 0.3916 0.19382 0.82597 0.0
C1719 C 0.38082 0.20619 0.81107 0.0
C1720 C 0.36889 0.21676 0.82914 0.0
C1721 C 0.39967 0.22734 0.79781 0.0
C1722 C 0.3626 0.1832 0.79087 0.0
C1723 C 0.36331 0.16138 0.79362 0.0
C1724 C 0.34875 0.13801 0.77653 0.0
C1725 C 0.3331 0.13696 0.7561 0.0
C1726 C 0.33209 0.1591 0.75308 0.0
C1727 C 0.34689 0.18241 0.7708 0.0
H1728 H 0.79742 0.13283 0.84914 0.0
H1729 H 0.82788 0.21402 0.8801 0.0
H1730 H 0.84939 0.22545 0.84181 0.0
H1731 H 0.8484 0.1386 0.82245 0.0
H1732 H 0.83142 0.11447 0.79352 0.0
H1733 H 0.81851 0.1127 0.82353 0.0
H1734 H 0.783 0.11149 0.79843 0.0
H1735 H 0.79574 0.1144 0.76819 0.0
H1736 H 0.78792 0.13734 0.78143 0.0
H1737 H 0.86963 0.2281 0.80148 0.0
H1738 H 0.884 0.2215 0.75966 0.0
H1739 H 0.83796 0.13875 0.75322 0.0
C1740 C 0.80851 0.15301 0.84778 0.0
C1741 C 0.81167 0.17258 0.86812 0.0
C1742 C 0.82613 0.19874 0.86547 0.0
C1743 C 0.83815 0.20542 0.84357 0.0
C1744 C 0.83523 0.18569 0.82425 0.0
C1745 C 0.82051 0.16 0.82594 0.0
C1746 C 0.8204 0.14252 0.80241 0.0
C1747 C 0.83028 0.12611 0.811 0.0
C1748 C 0.79528 0.12544 0.78666 0.0
C1749 C 0.8373 0.16243 0.78724 0.0
C1750 C 0.8459 0.18722 0.80033 0.0
C1751 C 0.86282 0.20879 0.79088 0.0
C1752 C 0.87102 0.2049 0.76731 0.0
C1753 C 0.86199 0.17969 0.75339 0.0
C1754 C 0.84495 0.15824 0.76348 0.0
H1755 H 0.26043 0.11719 0.48702 0.0
H1756 H 0.27291 0.19476 0.49904 0.0
H1757 H 0.28817 0.20095 0.54595 0.0
H1758 H 0.24215 0.10165 0.55013 0.0
H1759 H 0.25722 0.08421 0.55327 0.0
H1760 H 0.24623 0.08554 0.5211 0.0
H1761 H 0.28849 0.10396 0.50772 0.0
H1762 H 0.29961 0.10271 0.53983 0.0
H1763 H 0.31328 0.13269 0.52756 0.0
H1764 H 0.30175 0.19838 0.5914 0.0
H1765 H 0.31517 0.18854 0.63158 0.0
H1766 H 0.29564 0.11333 0.58921 0.0
C1767 C 0.26615 0.13542 0.49956 0.0
C1768 C 0.26529 0.15546 0.48948 0.0
C1769 C 0.27337 0.17917 0.5064 0.0
C1770 C 0.28199 0.1828 0.53304 0.0
C1771 C 0.28263 0.16263 0.54228 0.0
C1772 C 0.2751 0.13948 0.526 0.0
C1773 C 0.27861 0.12129 0.54046 0.0
C1774 C 0.25462 0.09672 0.54129 0.0
C1775 C 0.29604 0.11479 0.52816 0.0
C1776 C 0.28937 0.13783 0.56749 0.0
C1777 C 0.29128 0.1615 0.56818 0.0
C1778 C 0.30042 0.17997 0.59106 0.0
C1779 C 0.30796 0.17418 0.61377 0.0
C1780 C 0.30648 0.15021 0.61338 0.0
C1781 C 0.29706 0.13183 0.58994 0.0
H1782 H 0.90211 0.20239 0.51715 0.0
H1783 H 0.84611 0.1325 0.46658 0.0
H1784 H 0.82785 0.11571 0.50546 0.0
H1785 H 0.90686 0.17377 0.57349 0.0
H1786 H 0.91131 0.20088 0.59673 0.0
H1787 H 0.92084 0.20546 0.56486 0.0
H1788 H 0.8954 0.22618 0.55739 0.0
H1789 H 0.88547 0.22066 0.58896 0.0
H1790 H 0.86397 0.20802 0.55962 0.0
H1791 H 0.81418 0.10775 0.54994 0.0
H1792 H 0.8067 0.10924 0.59638 0.0
H1793 H 0.87114 0.18467 0.61755 0.0
C1794 C 0.88621 0.18337 0.51427 0.0
C1795 C 0.87608 0.16836 0.48881 0.0
C1796 C 0.85495 0.14383 0.48587 0.0
C1797 C 0.84421 0.13428 0.50788 0.0
C1798 C 0.8547 0.14958 0.53269 0.0
C1799 C 0.87522 0.17363 0.53598 0.0
C1800 C 0.88225 0.18686 0.56452 0.0
C1801 C 0.90678 0.19202 0.57554 0.0
C1802 C 0.88173 0.21191 0.5678 0.0
C1803 C 0.86253 0.16648 0.57683 0.0
C1804 C 0.84674 0.14514 0.55816 0.0
C1805 C 0.82654 0.12427 0.56475 0.0
C1806 C 0.8224 0.12529 0.59111 0.0
C1807 C 0.83844 0.14694 0.61047 0.0
C1808 C 0.85878 0.16769 0.60319 0.0
H1809 H 0.84486 0.707 0.50124 0.0
H1810 H 0.90439 0.69614 0.49132 0.0
H1811 H 0.89487 0.67153 0.52791 0.0
H1812 H 0.85279 0.71597 0.57188 0.0
H1813 H 0.82129 0.69966 0.57371 0.0
H1814 H 0.83277 0.71607 0.54659 0.0
H1815 H 0.80388 0.67374 0.51379 0.0
H1816 H 0.79252 0.65715 0.54085 0.0
H1817 H 0.80448 0.64496 0.51647 0.0
H1818 H 0.87869 0.64803 0.56565 0.0
H1819 H 0.85904 0.63059 0.60395 0.0
H1820 H 0.81032 0.65692 0.58868 0.0
C1821 C 0.85591 0.69943 0.50666 0.0
C1822 C 0.87529 0.70337 0.49326 0.0
C1823 C 0.88941 0.69332 0.50123 0.0
C1824 C 0.88408 0.67923 0.52191 0.0
C1825 C 0.86461 0.67538 0.53439 0.0
C1826 C 0.8509 0.68541 0.52722 0.0
C1827 C 0.83146 0.67935 0.54432 0.0
C1828 C 0.83478 0.70424 0.56005 0.0
C1829 C 0.80662 0.66281 0.52787 0.0
C1830 C 0.83624 0.66418 0.56216 0.0
C1831 C 0.85538 0.662 0.55609 0.0
C1832 C 0.86362 0.64952 0.57049 0.0
C1833 C 0.85238 0.63966 0.5921 0.0
C1834 C 0.83325 0.64246 0.59901 0.0
C1835 C 0.82475 0.65431 0.58352 0.0
loop_
_geom_bond_atom_site_label_1
_geom_bond_atom_site_label_2
_geom_bond_distance
_geom_bond_site_symmetry_2
_ccdc_geom_bond_type
O0 Cd1 2.300 . S
O0 C7 1.275 . S
Cd1 O0 2.300 . S
Cd1 O9 2.381 . S
Cd1 O10 2.378 . S
O2 Cd3 2.385 . S
O2 C7 1.255 . S
Cd3 O2 2.385 . S
Cd3 O4 2.317 . S
O4 Cd3 2.317 . S
O4 C5 1.232 . S
C5 O4 1.232 . S
C5 O6 1.218 . S
O6 C5 1.218 . S
C7 O0 1.275 . S
C7 O2 1.255 . S
C8 O9 1.258 . S
C8 O10 1.256 . S
O9 Cd1 2.381 . S
O9 C8 1.258 . S
O10 Cd1 2.378 . S
O10 C8 1.256 . S
O11 Cd12 2.300 . S
O11 C18 1.275 . S
Cd12 O11 2.300 . S
Cd12 O20 2.381 . S
Cd12 O21 2.378 . S
O13 Cd14 2.385 . S
O13 C18 1.255 . S
Cd14 O13 2.385 . S
Cd14 O15 2.317 . S
O15 Cd14 2.317 . S
O15 C16 1.232 . S
C16 O15 1.232 . S
C16 O17 1.218 . S
O17 C16 1.218 . S
C18 O11 1.275 . S
C18 O13 1.255 . S
C19 O20 1.258 . S
C19 O21 1.256 . S
O20 Cd12 2.381 . S
O20 C19 1.258 . S
O21 Cd12 2.378 . S
O21 C19 1.256 . S
O22 Cd23 2.300 . S
O22 C29 1.275 . S
Cd23 O22 2.300 . S
Cd23 O31 2.381 . S
Cd23 O32 2.378 . S
O24 Cd25 2.385 . S
O24 C29 1.255 . S
Cd25 O24 2.385 . S
Cd25 O26 2.317 . S
O26 Cd25 2.317 . S
O26 C27 1.232 . S
C27 O26 1.232 . S
C27 O28 1.218 . S
O28 C27 1.218 . S
C29 O22 1.275 . S
C29 O24 1.255 . S
C30 O31 1.258 . S
C30 O32 1.256 . S
O31 Cd23 2.381 . S
O31 C30 1.258 . S
O32 Cd23 2.378 . S
O32 C30 1.256 . S
O33 Cd34 2.300 . S
O33 C40 1.275 . S
Cd34 O33 2.300 . S
Cd34 O42 2.381 . S
Cd34 O43 2.378 . S
O35 Cd36 2.385 . S
O35 C40 1.255 . S
Cd36 O35 2.385 . S
Cd36 O37 2.317 . S
O37 Cd36 2.317 . S
O37 C38 1.232 . S
C38 O37 1.232 . S
C38 O39 1.218 . S
O39 C38 1.218 . S
C40 O33 1.275 . S
C40 O35 1.255 . S
C41 O42 1.258 . S
C41 O43 1.256 . S
O42 Cd34 2.381 . S
O42 C41 1.258 . S
O43 Cd34 2.378 . S
O43 C41 1.256 . S
O44 Cd45 2.300 . S
O44 C51 1.275 . S
Cd45 O44 2.300 . S
Cd45 O53 2.381 . S
Cd45 O54 2.378 . S
O46 Cd47 2.385 . S
O46 C51 1.255 . S
Cd47 O46 2.385 . S
Cd47 O48 2.317 . S
O48 Cd47 2.317 . S
O48 C49 1.232 . S
C49 O48 1.232 . S
C49 O50 1.218 . S
O50 C49 1.218 . S
C51 O44 1.275 . S
C51 O46 1.255 . S
C52 O53 1.258 . S
C52 O54 1.256 . S
O53 Cd45 2.381 . S
O53 C52 1.258 . S
O54 Cd45 2.378 . S
O54 C52 1.256 . S
O55 Cd56 2.300 . S
O55 C62 1.275 . S
Cd56 O55 2.300 . S
Cd56 O64 2.381 . S
Cd56 O65 2.378 . S
O57 Cd58 2.385 . S
O57 C62 1.255 . S
Cd58 O57 2.385 . S
Cd58 O59 2.317 . S
O59 Cd58 2.317 . S
O59 C60 1.232 . S
C60 O59 1.232 . S
C60 O61 1.218 . S
O61 C60 1.218 . S
C62 O55 1.275 . S
C62 O57 1.255 . S
C63 O64 1.258 . S
C63 O65 1.256 . S
O64 Cd56 2.381 . S
O64 C63 1.258 . S
O65 Cd56 2.378 . S
O65 C63 1.256 . S
O66 Cd67 2.300 . S
O66 C73 1.275 . S
Cd67 O66 2.300 . S
Cd67 O75 2.381 . S
Cd67 O76 2.378 . S
O68 Cd69 2.385 . S
O68 C73 1.255 . S
Cd69 O68 2.385 . S
Cd69 O70 2.317 . S
O70 Cd69 2.317 . S
O70 C71 1.232 . S
C71 O70 1.232 . S
C71 O72 1.218 . S
O72 C71 1.218 . S
C73 O66 1.275 . S
C73 O68 1.255 . S
C74 O75 1.258 . S
C74 O76 1.256 . S
O75 Cd67 2.381 . S
O75 C74 1.258 . S
O76 Cd67 2.378 . S
O76 C74 1.256 . S
O77 Cd78 2.300 . S
O77 C84 1.275 . S
Cd78 O77 2.300 . S
Cd78 O86 2.381 . S
Cd78 O87 2.378 . S
O79 Cd80 2.385 . S
O79 C84 1.255 . S
Cd80 O79 2.385 . S
Cd80 O81 2.317 . S
O81 Cd80 2.317 . S
O81 C82 1.232 . S
C82 O81 1.232 . S
C82 O83 1.218 . S
O83 C82 1.218 . S
C84 O77 1.275 . S
C84 O79 1.255 . S
C85 O86 1.258 . S
C85 O87 1.256 . S
O86 Cd78 2.381 . S
O86 C85 1.258 . S
O87 Cd78 2.378 . S
O87 C85 1.256 . S
O88 Cd89 2.300 . S
O88 C95 1.275 . S
Cd89 O88 2.300 . S
Cd89 O97 2.381 . S
Cd89 O98 2.378 . S
O90 Cd91 2.385 . S
O90 C95 1.255 . S
Cd91 O90 2.385 . S
Cd91 O92 2.317 . S
O92 Cd91 2.317 . S
O92 C93 1.232 . S
C93 O92 1.232 . S
C93 O94 1.218 . S
O94 C93 1.218 . S
C95 O88 1.275 . S
C95 O90 1.255 . S
C96 O97 1.258 . S
C96 O98 1.256 . S
O97 Cd89 2.381 . S
O97 C96 1.258 . S
O98 Cd89 2.378 . S
O98 C96 1.256 . S
O99 Cd100 2.300 . S
O99 C106 1.275 . S
Cd100 O99 2.300 . S
Cd100 O108 2.381 . S
Cd100 O109 2.378 . S
O101 Cd102 2.385 . S
O101 C106 1.255 . S
Cd102 O101 2.385 . S
Cd102 O103 2.317 . S
O103 Cd102 2.317 . S
O103 C104 1.232 . S
C104 O103 1.232 . S
C104 O105 1.218 . S
O105 C104 1.218 . S
C106 O99 1.275 . S
C106 O101 1.255 . S
C107 O108 1.258 . S
C107 O109 1.256 . S
O108 Cd100 2.381 . S
O108 C107 1.258 . S
O109 Cd100 2.378 . S
O109 C107 1.256 . S
O110 Cd111 2.300 . S
O110 C117 1.275 . S
Cd111 O110 2.300 . S
Cd111 O119 2.381 . S
Cd111 O120 2.378 . S
O112 Cd113 2.385 . S
O112 C117 1.255 . S
Cd113 O112 2.385 . S
Cd113 O114 2.317 . S
O114 Cd113 2.317 . S
O114 C115 1.232 . S
C115 O114 1.232 . S
C115 O116 1.218 . S
O116 C115 1.218 . S
C117 O110 1.275 . S
C117 O112 1.255 . S
C118 O119 1.258 . S
C118 O120 1.256 . S
O119 Cd111 2.381 . S
O119 C118 1.258 . S
O120 Cd111 2.378 . S
O120 C118 1.256 . S
O121 Cd122 2.300 . S
O121 C128 1.275 . S
Cd122 O121 2.300 . S
Cd122 O130 2.381 . S
Cd122 O131 2.378 . S
O123 Cd124 2.385 . S
O123 C128 1.255 . S
Cd124 O123 2.385 . S
Cd124 O125 2.317 . S
O125 Cd124 2.317 . S
O125 C126 1.232 . S
C126 O125 1.232 . S
C126 O127 1.218 . S
O127 C126 1.218 . S
C128 O121 1.275 . S
C128 O123 1.255 . S
C129 O130 1.258 . S
C129 O131 1.256 . S
O130 Cd122 2.381 . S
O130 C129 1.258 . S
O131 Cd122 2.378 . S
O131 C129 1.256 . S
O132 Cd133 2.300 . S
O132 C139 1.275 . S
Cd133 O132 2.300 . S
Cd133 O141 2.381 . S
Cd133 O142 2.378 . S
O134 Cd135 2.385 . S
O134 C139 1.255 . S
Cd135 O134 2.385 . S
Cd135 O136 2.317 . S
O136 Cd135 2.317 . S
O136 C137 1.232 . S
C137 O136 1.232 . S
C137 O138 1.218 . S
O138 C137 1.218 . S
C139 O132 1.275 . S
C139 O134 1.255 . S
C140 O141 1.258 . S
C140 O142 1.256 . S
O141 Cd133 2.381 . S
O141 C140 1.258 . S
O142 Cd133 2.378 . S
O142 C140 1.256 . S
O143 Cd144 2.300 . S
O143 C150 1.275 . S
Cd144 O143 2.300 . S
Cd144 O152 2.381 . S
Cd144 O153 2.378 . S
O145 Cd146 2.385 . S
O145 C150 1.255 . S
Cd146 O145 2.385 . S
Cd146 O147 2.317 . S
O147 Cd146 2.317 . S
O147 C148 1.232 . S
C148 O147 1.232 . S
C148 O149 1.218 . S
O149 C148 1.218 . S
C150 O143 1.275 . S
C150 O145 1.255 . S
C151 O152 1.258 . S
C151 O153 1.256 . S
O152 Cd144 2.381 . S
O152 C151 1.258 . S
O153 Cd144 2.378 . S
O153 C151 1.256 . S
O154 Cd155 2.300 . S
O154 C161 1.275 . S
Cd155 O154 2.300 . S
Cd155 O163 2.381 . S
Cd155 O164 2.378 . S
O156 Cd157 2.385 . S
O156 C161 1.255 . S
Cd157 O156 2.385 . S
Cd157 O158 2.317 . S
O158 Cd157 2.317 . S
O158 C159 1.232 . S
C159 O158 1.232 . S
C159 O160 1.218 . S
O160 C159 1.218 . S
C161 O154 1.275 . S
C161 O156 1.255 . S
C162 O163 1.258 . S
C162 O164 1.256 . S
O163 Cd155 2.381 . S
O163 C162 1.258 . S
O164 Cd155 2.378 . S
O164 C162 1.256 . S
O165 Cd166 2.300 . S
O165 C172 1.275 . S
Cd166 O165 2.300 . S
Cd166 O174 2.381 . S
Cd166 O175 2.378 . S
O167 Cd168 2.385 . S
O167 C172 1.255 . S
Cd168 O167 2.385 . S
Cd168 O169 2.317 . S
O169 Cd168 2.317 . S
O169 C170 1.232 . S
C170 O169 1.232 . S
C170 O171 1.218 . S
O171 C170 1.218 . S
C172 O165 1.275 . S
C172 O167 1.255 . S
C173 O174 1.258 . S
C173 O175 1.256 . S
O174 Cd166 2.381 . S
O174 C173 1.258 . S
O175 Cd166 2.378 . S
O175 C173 1.256 . S
O176 Cd177 2.300 . S
O176 C183 1.275 . S
Cd177 O176 2.300 . S
Cd177 O185 2.381 . S
Cd177 O186 2.378 . S
O178 Cd179 2.385 . S
O178 C183 1.255 . S
Cd179 O178 2.385 . S
Cd179 O180 2.317 . S
O180 Cd179 2.317 . S
O180 C181 1.232 . S
C181 O180 1.232 . S
C181 O182 1.218 . S
O182 C181 1.218 . S
C183 O176 1.275 . S
C183 O178 1.255 . S
C184 O185 1.258 . S
C184 O186 1.256 . S
O185 Cd177 2.381 . S
O185 C184 1.258 . S
O186 Cd177 2.378 . S
O186 C184 1.256 . S
O187 Cd188 2.300 . S
O187 C194 1.275 . S
Cd188 O187 2.300 . S
Cd188 O196 2.381 . S
Cd188 O197 2.378 . S
O189 Cd190 2.385 . S
O189 C194 1.255 . S
Cd190 O189 2.385 . S
Cd190 O191 2.317 . S
O191 Cd190 2.317 . S
O191 C192 1.232 . S
C192 O191 1.232 . S
C192 O193 1.218 . S
O193 C192 1.218 . S
C194 O187 1.275 . S
C194 O189 1.255 . S
C195 O196 1.258 . S
C195 O197 1.256 . S
O196 Cd188 2.381 . S
O196 C195 1.258 . S
O197 Cd188 2.378 . S
O197 C195 1.256 . S
Tb198 O201 2.453 . S
Tb198 O202 2.596 1_545 S
Tb198 O203 2.374 1_545 S
Tb198 O211 2.343 1_554 S
Tb198 O213 2.353 . S
Tb198 O215 2.427 . S
Tb198 O216 2.528 . S
C199 O203 1.251 . S
C199 O205 1.263 1_554 S
Tb200 O202 2.343 1_556 S
Tb200 O205 2.353 . S
Tb200 O208 2.427 1_556 S
Tb200 O209 2.513 1_556 S
Tb200 O210 2.453 . S
Tb200 O211 2.596 1_565 S
Tb200 O212 2.374 1_565 S
O201 Tb198 2.453 . S
O201 C217 1.245 1_545 S
O202 Tb198 2.596 1_565 S
O202 Tb200 2.343 1_554 S
O202 C217 1.259 . S
O203 Tb198 2.374 1_565 S
O203 C199 1.251 . S
C204 O208 1.275 . S
C204 O209 1.246 . S
O205 C199 1.263 1_556 S
O205 Tb200 2.353 . S
C206 O210 1.245 1_545 S
C206 O211 1.259 . S
C207 O212 1.249 1_554 S
C207 O213 1.263 . S
O208 Tb200 2.427 1_554 S
O208 C204 1.275 . S
O209 Tb200 2.513 1_554 S
O209 C204 1.246 . S
O210 Tb200 2.453 . S
O210 C206 1.245 1_565 S
O211 Tb198 2.343 1_556 S
O211 Tb200 2.596 1_545 S
O211 C206 1.259 . S
O212 Tb200 2.374 1_545 S
O212 C207 1.249 1_556 S
O213 Tb198 2.353 . S
O213 C207 1.263 . S
C214 O215 1.275 1_556 S
C214 O216 1.240 1_556 S
O215 Tb198 2.427 . S
O215 C214 1.275 1_554 S
O216 Tb198 2.528 . S
O216 C214 1.240 1_554 S
C217 O201 1.245 1_565 S
C217 O202 1.259 . S
Tb218 O221 2.453 1_655 S
Tb218 O222 2.596 1_655 S
Tb218 O223 2.374 1_655 S
Tb218 O231 2.343 1_554 S
Tb218 O233 2.353 . S
Tb218 O235 2.427 . S
Tb218 O236 2.513 . S
C219 O223 1.251 . S
C219 O225 1.263 . S
Tb220 O222 2.368 . S
Tb220 O225 2.355 . S
Tb220 O228 2.440 . S
Tb220 O229 2.531 . S
Tb220 O230 2.428 1_554 S
Tb220 O231 2.591 1_454 S
Tb220 O232 2.380 1_455 S
O221 Tb218 2.453 1_455 S
O221 C237 1.246 . S
O222 Tb218 2.596 1_455 S
O222 Tb220 2.368 . S
O222 C237 1.259 . S
O223 Tb218 2.374 1_455 S
O223 C219 1.251 . S
C224 O228 1.275 . S
C224 O229 1.246 . S
O225 C219 1.263 . S
O225 Tb220 2.355 . S
C226 O230 1.245 1_655 S
C226 O231 1.259 . S
C227 O232 1.250 . S
C227 O233 1.263 . S
O228 Tb220 2.440 . S
O228 C224 1.275 . S
O229 Tb220 2.531 . S
O229 C224 1.246 . S
O230 Tb220 2.428 1_556 S
O230 C226 1.245 1_455 S
O231 Tb218 2.343 1_556 S
O231 Tb220 2.591 1_656 S
O231 C226 1.259 . S
O232 Tb220 2.380 1_655 S
O232 C227 1.250 . S
O233 Tb218 2.353 . S
O233 C227 1.263 . S
C234 O235 1.275 1_556 S
C234 O236 1.246 1_556 S
O235 Tb218 2.427 . S
O235 C234 1.275 1_554 S
O236 Tb218 2.513 . S
O236 C234 1.246 1_554 S
C237 O221 1.246 . S
C237 O222 1.259 . S
Tb238 O241 2.453 . S
Tb238 O242 2.596 . S
Tb238 O243 2.374 . S
Tb238 O251 2.343 1_556 S
Tb238 O253 2.353 . S
Tb238 O255 2.427 1_556 S
Tb238 O256 2.513 1_556 S
C239 O243 1.251 . S
C239 O245 1.263 1_556 S
Tb240 O242 2.343 1_554 S
Tb240 O245 2.353 . S
Tb240 O248 2.427 1_554 S
Tb240 O249 2.513 1_554 S
Tb240 O250 2.453 . S
Tb240 O251 2.596 . S
Tb240 O252 2.374 . S
O241 Tb238 2.453 . S
O241 C257 1.245 . S
O242 Tb238 2.596 . S
O242 Tb240 2.343 1_556 S
O242 C257 1.259 . S
O243 Tb238 2.374 . S
O243 C239 1.251 . S
C244 O248 1.275 . S
C244 O249 1.246 . S
O245 C239 1.263 1_554 S
O245 Tb240 2.353 . S
C246 O250 1.245 . S
C246 O251 1.259 . S
C247 O252 1.250 . S
C247 O253 1.263 1_554 S
O248 Tb240 2.427 1_556 S
O248 C244 1.275 . S
O249 Tb240 2.513 1_556 S
O249 C244 1.246 . S
O250 Tb240 2.453 . S
O250 C246 1.245 . S
O251 Tb238 2.343 1_554 S
O251 Tb240 2.596 . S
O251 C246 1.259 . S
O252 Tb240 2.374 . S
O252 C247 1.250 . S
O253 Tb238 2.353 . S
O253 C247 1.263 1_556 S
C254 O255 1.275 . S
C254 O256 1.246 . S
O255 Tb238 2.427 1_554 S
O255 C254 1.275 . S
O256 Tb238 2.513 1_554 S
O256 C254 1.246 . S
C257 O241 1.245 . S
C257 O242 1.259 . S
Tb258 O261 2.453 . S
Tb258 O262 2.596 . S
Tb258 O263 2.374 . S
Tb258 O271 2.343 . S
Tb258 O273 2.353 . S
Tb258 O275 2.427 . S
Tb258 O276 2.513 . S
C259 O263 1.251 . S
C259 O265 1.263 . S
Tb260 O262 2.343 . S
Tb260 O265 2.353 . S
Tb260 O268 2.427 . S
Tb260 O269 2.513 . S
Tb260 O270 2.453 . S
Tb260 O271 2.596 . S
Tb260 O272 2.374 . S
O261 Tb258 2.453 . S
O261 C277 1.245 . S
O262 Tb258 2.596 . S
O262 Tb260 2.343 . S
O262 C277 1.259 . S
O263 Tb258 2.374 . S
O263 C259 1.251 . S
C264 O268 1.275 . S
C264 O269 1.246 . S
O265 C259 1.263 . S
O265 Tb260 2.353 . S
C266 O270 1.245 . S
C266 O271 1.259 . S
C267 O272 1.250 . S
C267 O273 1.263 . S
O268 Tb260 2.427 . S
O268 C264 1.275 . S
O269 Tb260 2.513 . S
O269 C264 1.246 . S
O270 Tb260 2.453 . S
O270 C266 1.245 . S
O271 Tb258 2.343 . S
O271 Tb260 2.596 . S
O271 C266 1.259 . S
O272 Tb260 2.374 . S
O272 C267 1.250 . S
O273 Tb258 2.353 . S
O273 C267 1.263 . S
C274 O275 1.275 . S
C274 O276 1.246 . S
O275 Tb258 2.427 . S
O275 C274 1.275 . S
O276 Tb258 2.513 . S
O276 C274 1.246 . S
C277 O261 1.245 . S
C277 O262 1.259 . S
Tb278 O281 2.453 . S
Tb278 O282 2.596 . S
Tb278 O283 2.374 . S
Tb278 O291 2.343 . S
Tb278 O293 2.353 . S
Tb278 O295 2.427 . S
Tb278 O296 2.513 . S
C279 O283 1.251 . S
C279 O285 1.263 . S
Tb280 O282 2.343 . S
Tb280 O285 2.353 . S
Tb280 O288 2.427 . S
Tb280 O289 2.513 . S
Tb280 O290 2.453 . S
Tb280 O291 2.596 . S
Tb280 O292 2.374 . S
O281 Tb278 2.453 . S
O281 C297 1.245 . S
O282 Tb278 2.596 . S
O282 Tb280 2.343 . S
O282 C297 1.259 . S
O283 Tb278 2.374 . S
O283 C279 1.251 . S
C284 O288 1.275 . S
C284 O289 1.246 . S
O285 C279 1.263 . S
O285 Tb280 2.353 . S
C286 O290 1.245 . S
C286 O291 1.259 . S
C287 O292 1.250 . S
C287 O293 1.263 . S
O288 Tb280 2.427 . S
O288 C284 1.275 . S
O289 Tb280 2.513 . S
O289 C284 1.246 . S
O290 Tb280 2.453 . S
O290 C286 1.245 . S
O291 Tb278 2.343 . S
O291 Tb280 2.596 . S
O291 C286 1.259 . S
O292 Tb280 2.374 . S
O292 C287 1.250 . S
O293 Tb278 2.353 . S
O293 C287 1.263 . S
C294 O295 1.275 . S
C294 O296 1.246 . S
O295 Tb278 2.427 . S
O295 C294 1.275 . S
O296 Tb278 2.513 . S
O296 C294 1.246 . S
C297 O281 1.245 . S
C297 O282 1.259 . S
Tb298 O301 2.453 . S
Tb298 O302 2.596 . S
Tb298 O303 2.374 . S
Tb298 O311 2.343 . S
Tb298 O313 2.353 . S
Tb298 O315 2.427 . S
Tb298 O316 2.513 . S
C299 O303 1.251 . S
C299 O305 1.263 . S
Tb300 O302 2.343 . S
Tb300 O305 2.353 . S
Tb300 O308 2.427 . S
Tb300 O309 2.513 . S
Tb300 O310 2.453 . S
Tb300 O311 2.596 . S
Tb300 O312 2.374 . S
O301 Tb298 2.453 . S
O301 C317 1.245 . S
O302 Tb298 2.596 . S
O302 Tb300 2.343 . S
O302 C317 1.259 . S
O303 Tb298 2.374 . S
O303 C299 1.251 . S
C304 O308 1.275 . S
C304 O309 1.246 . S
O305 C299 1.263 . S
O305 Tb300 2.353 . S
C306 O310 1.245 . S
C306 O311 1.259 . S
C307 O312 1.250 . S
C307 O313 1.263 . S
O308 Tb300 2.427 . S
O308 C304 1.275 . S
O309 Tb300 2.513 . S
O309 C304 1.246 . S
O310 Tb300 2.453 . S
O310 C306 1.245 . S
O311 Tb298 2.343 . S
O311 Tb300 2.596 . S
O311 C306 1.259 . S
O312 Tb300 2.374 . S
O312 C307 1.250 . S
O313 Tb298 2.353 . S
O313 C307 1.263 . S
C314 O315 1.275 . S
C314 O316 1.246 . S
O315 Tb298 2.427 . S
O315 C314 1.275 . S
O316 Tb298 2.513 . S
O316 C314 1.246 . S
C317 O301 1.245 . S
C317 O302 1.259 . S
Tb318 O321 2.453 . S
Tb318 O322 2.596 . S
Tb318 O323 2.374 . S
Tb318 O331 2.343 . S
Tb318 O333 2.353 . S
Tb318 O335 2.427 . S
Tb318 O336 2.513 . S
C319 O323 1.251 . S
C319 O325 1.263 . S
Tb320 O322 2.343 . S
Tb320 O325 2.353 . S
Tb320 O328 2.427 . S
Tb320 O329 2.513 . S
Tb320 O330 2.453 . S
Tb320 O331 2.596 . S
Tb320 O332 2.374 . S
O321 Tb318 2.453 . S
O321 C337 1.245 . S
O322 Tb318 2.596 . S
O322 Tb320 2.343 . S
O322 C337 1.259 . S
O323 Tb318 2.374 . S
O323 C319 1.251 . S
C324 O328 1.275 . S
C324 O329 1.246 . S
O325 C319 1.263 . S
O325 Tb320 2.353 . S
C326 O330 1.245 . S
C326 O331 1.259 . S
C327 O332 1.250 . S
C327 O333 1.263 . S
O328 Tb320 2.427 . S
O328 C324 1.275 . S
O329 Tb320 2.513 . S
O329 C324 1.246 . S
O330 Tb320 2.453 . S
O330 C326 1.245 . S
O331 Tb318 2.343 . S
O331 Tb320 2.596 . S
O331 C326 1.259 . S
O332 Tb320 2.374 . S
O332 C327 1.250 . S
O333 Tb318 2.353 . S
O333 C327 1.263 . S
C334 O335 1.275 . S
C334 O336 1.246 . S
O335 Tb318 2.427 . S
O335 C334 1.275 . S
O336 Tb318 2.513 . S
O336 C334 1.246 . S
C337 O321 1.245 . S
C337 O322 1.259 . S
Tb338 O341 2.453 . S
Tb338 O342 2.596 . S
Tb338 O343 2.374 . S
Tb338 O351 2.343 . S
Tb338 O353 2.353 . S
Tb338 O355 2.427 . S
Tb338 O356 2.513 . S
C339 O343 1.251 . S
C339 O345 1.263 . S
Tb340 O342 2.343 . S
Tb340 O345 2.353 . S
Tb340 O348 2.427 . S
Tb340 O349 2.513 . S
Tb340 O350 2.453 . S
Tb340 O351 2.596 . S
Tb340 O352 2.374 . S
O341 Tb338 2.453 . S
O341 C357 1.245 . S
O342 Tb338 2.596 . S
O342 Tb340 2.343 . S
O342 C357 1.259 . S
O343 Tb338 2.374 . S
O343 C339 1.251 . S
C344 O348 1.275 . S
C344 O349 1.246 . S
O345 C339 1.263 . S
O345 Tb340 2.353 . S
C346 O350 1.245 . S
C346 O351 1.259 . S
C347 O352 1.250 . S
C347 O353 1.263 . S
O348 Tb340 2.427 . S
O348 C344 1.275 . S
O349 Tb340 2.513 . S
O349 C344 1.246 . S
O350 Tb340 2.453 . S
O350 C346 1.245 . S
O351 Tb338 2.343 . S
O351 Tb340 2.596 . S
O351 C346 1.259 . S
O352 Tb340 2.374 . S
O352 C347 1.250 . S
O353 Tb338 2.353 . S
O353 C347 1.263 . S
C354 O355 1.275 . S
C354 O356 1.246 . S
O355 Tb338 2.427 . S
O355 C354 1.275 . S
O356 Tb338 2.513 . S
O356 C354 1.246 . S
C357 O341 1.245 . S
C357 O342 1.259 . S
Tb358 O361 2.453 . S
Tb358 O362 2.596 . S
Tb358 O363 2.374 . S
Tb358 O371 2.343 . S
Tb358 O373 2.353 . S
Tb358 O375 2.427 . S
Tb358 O376 2.513 . S
C359 O363 1.251 . S
C359 O365 1.263 . S
Tb360 O362 2.343 . S
Tb360 O365 2.353 . S
Tb360 O368 2.427 . S
Tb360 O369 2.513 . S
Tb360 O370 2.453 . S
Tb360 O371 2.596 . S
Tb360 O372 2.374 . S
O361 Tb358 2.453 . S
O361 C377 1.245 . S
O362 Tb358 2.596 . S
O362 Tb360 2.343 . S
O362 C377 1.259 . S
O363 Tb358 2.374 . S
O363 C359 1.251 . S
C364 O368 1.275 . S
C364 O369 1.246 . S
O365 C359 1.263 . S
O365 Tb360 2.353 . S
C366 O370 1.245 . S
C366 O371 1.259 . S
C367 O372 1.250 . S
C367 O373 1.263 . S
O368 Tb360 2.427 . S
O368 C364 1.275 . S
O369 Tb360 2.513 . S
O369 C364 1.246 . S
O370 Tb360 2.453 . S
O370 C366 1.245 . S
O371 Tb358 2.343 . S
O371 Tb360 2.596 . S
O371 C366 1.259 . S
O372 Tb360 2.374 . S
O372 C367 1.250 . S
O373 Tb358 2.353 . S
O373 C367 1.263 . S
C374 O375 1.275 . S
C374 O376 1.246 . S
O375 Tb358 2.427 . S
O375 C374 1.275 . S
O376 Tb358 2.513 . S
O376 C374 1.246 . S
C377 O361 1.245 . S
C377 O362 1.259 . S
H378 C390 0.930 . S
H379 C392 0.930 . S
H380 C393 0.930 . S
H381 C397 0.959 . S
H382 C397 0.959 . S
H383 C397 0.961 . S
H384 C398 0.960 . S
H385 C398 0.961 . S
H386 C398 0.959 . S
H387 C401 0.929 1_556 S
H388 C402 0.931 1_556 S
H389 C404 0.930 . S
C390 H378 0.930 . S
C390 C391 1.399 . S
C390 C395 1.399 . S
C391 C390 1.399 . S
C391 C392 1.376 . S
C392 H379 0.930 . S
C392 C391 1.376 . S
C392 C393 1.388 . S
C393 H380 0.930 . S
C393 C392 1.388 . S
C393 C394 1.390 . S
C394 C393 1.390 . S
C394 C395 1.394 . S
C394 C400 1.465 . S
C395 C390 1.399 . S
C395 C394 1.394 . S
C395 C396 1.516 . S
C396 C395 1.516 . S
C396 C397 1.502 . S
C396 C398 1.561 . S
C396 C399 1.526 . S
C397 H381 0.959 . S
C397 H382 0.959 . S
C397 H383 0.961 . S
C397 C396 1.502 . S
C398 H384 0.960 . S
C398 H385 0.961 . S
C398 H386 0.959 . S
C398 C396 1.561 . S
C399 C396 1.526 . S
C399 C400 1.396 . S
C399 C404 1.390 . S
C400 C394 1.465 . S
C400 C399 1.396 . S
C400 C401 1.399 . S
C401 H387 0.929 1_554 S
C401 C400 1.399 . S
C401 C402 1.385 . S
C402 H388 0.931 1_554 S
C402 C401 1.385 . S
C402 C403 1.389 . S
C403 C402 1.389 . S
C403 C404 1.387 . S
C404 H389 0.930 . S
C404 C399 1.390 . S
C404 C403 1.387 . S
H405 C417 0.930 . S
H406 C419 0.930 . S
H407 C420 0.930 . S
H408 C424 0.959 . S
H409 C424 0.959 . S
H410 C424 0.961 . S
H411 C425 0.960 . S
H412 C425 0.961 . S
H413 C425 0.959 . S
H414 C428 0.929 . S
H415 C429 0.931 . S
H416 C431 0.930 . S
C417 H405 0.930 . S
C417 C418 1.399 . S
C417 C422 1.399 . S
C418 C417 1.399 . S
C418 C419 1.376 . S
C419 H406 0.930 . S
C419 C418 1.376 . S
C419 C420 1.388 . S
C420 H407 0.930 . S
C420 C419 1.388 . S
C420 C421 1.390 . S
C421 C420 1.390 . S
C421 C422 1.394 . S
C421 C427 1.465 . S
C422 C417 1.399 . S
C422 C421 1.394 . S
C422 C423 1.516 . S
C423 C422 1.516 . S
C423 C424 1.502 . S
C423 C425 1.561 . S
C423 C426 1.526 . S
C424 H408 0.959 . S
C424 H409 0.959 . S
C424 H410 0.961 . S
C424 C423 1.502 . S
C425 H411 0.960 . S
C425 H412 0.961 . S
C425 H413 0.959 . S
C425 C423 1.561 . S
C426 C423 1.526 . S
C426 C427 1.396 . S
C426 C431 1.390 . S
C427 C421 1.465 . S
C427 C426 1.396 . S
C427 C428 1.399 . S
C428 H414 0.929 . S
C428 C427 1.399 . S
C428 C429 1.385 . S
C429 H415 0.931 . S
C429 C428 1.385 . S
C429 C430 1.389 . S
C430 C429 1.389 . S
C430 C431 1.387 . S
C431 H416 0.930 . S
C431 C426 1.390 . S
C431 C430 1.387 . S
H432 C444 0.930 . S
H433 C446 0.930 . S
H434 C447 0.930 . S
H435 C451 0.959 . S
H436 C451 0.959 . S
H437 C451 0.961 . S
H438 C452 0.960 . S
H439 C452 0.961 . S
H440 C452 0.959 . S
H441 C455 0.929 1_556 S
H442 C456 0.931 1_556 S
H443 C458 0.930 . S
C444 H432 0.930 . S
C444 C445 1.399 . S
C444 C449 1.399 . S
C445 C444 1.399 . S
C445 C446 1.376 . S
C446 H433 0.930 . S
C446 C445 1.376 . S
C446 C447 1.388 . S
C447 H434 0.930 . S
C447 C446 1.388 . S
C447 C448 1.390 . S
C448 C447 1.390 . S
C448 C449 1.394 . S
C448 C454 1.465 . S
C449 C444 1.399 . S
C449 C448 1.394 . S
C449 C450 1.516 . S
C450 C449 1.516 . S
C450 C451 1.502 . S
C450 C452 1.561 . S
C450 C453 1.526 . S
C451 H435 0.959 . S
C451 H436 0.959 . S
C451 H437 0.961 . S
C451 C450 1.502 . S
C452 H438 0.960 . S
C452 H439 0.961 . S
C452 H440 0.959 . S
C452 C450 1.561 . S
C453 C450 1.526 . S
C453 C454 1.396 . S
C453 C458 1.390 . S
C454 C448 1.465 . S
C454 C453 1.396 . S
C454 C455 1.399 . S
C455 H441 0.929 1_554 S
C455 C454 1.399 . S
C455 C456 1.385 . S
C456 H442 0.931 1_554 S
C456 C455 1.385 . S
C456 C457 1.389 . S
C457 C456 1.389 . S
C457 C458 1.387 . S
C458 H443 0.930 . S
C458 C453 1.390 . S
C458 C457 1.387 . S
H459 C471 0.930 . S
H460 C473 0.930 . S
H461 C474 0.930 . S
H462 C478 0.959 . S
H463 C478 0.959 . S
H464 C478 0.961 . S
H465 C479 0.960 . S
H466 C479 0.961 . S
H467 C479 0.959 1_556 S
H468 C482 0.929 . S
H469 C483 0.931 . S
H470 C485 0.930 . S
C471 H459 0.930 . S
C471 C472 1.399 . S
C471 C476 1.399 . S
C472 C471 1.399 . S
C472 C473 1.376 . S
C473 H460 0.930 . S
C473 C472 1.376 . S
C473 C474 1.388 . S
C474 H461 0.930 . S
C474 C473 1.388 . S
C474 C475 1.390 . S
C475 C474 1.390 . S
C475 C476 1.394 . S
C475 C481 1.465 . S
C476 C471 1.399 . S
C476 C475 1.394 . S
C476 C477 1.516 1_556 S
C477 C476 1.516 1_554 S
C477 C478 1.502 . S
C477 C479 1.561 . S
C477 C480 1.526 1_554 S
C478 H462 0.959 . S
C478 H463 0.959 . S
C478 H464 0.961 . S
C478 C477 1.502 . S
C479 H465 0.960 . S
C479 H466 0.961 . S
C479 H467 0.959 1_554 S
C479 C477 1.561 . S
C480 C477 1.526 1_556 S
C480 C481 1.396 . S
C480 C485 1.390 1_556 S
C481 C475 1.465 . S
C481 C480 1.396 . S
C481 C482 1.399 . S
C482 H468 0.929 . S
C482 C481 1.399 . S
C482 C483 1.385 . S
C483 H469 0.931 . S
C483 C482 1.385 . S
C483 C484 1.389 . S
C484 C483 1.389 . S
C484 C485 1.387 1_556 S
C485 H470 0.930 . S
C485 C480 1.390 1_554 S
C485 C484 1.387 1_554 S
H486 C498 0.930 . S
H487 C500 0.930 . S
H488 C501 0.930 . S
H489 C505 0.959 . S
H490 C505 0.959 . S
H491 C505 0.961 . S
H492 C506 0.960 . S
H493 C506 0.961 . S
H494 C506 0.959 1_556 S
H495 C509 0.929 . S
H496 C510 0.931 . S
H497 C512 0.930 1_554 S
C498 H486 0.930 . S
C498 C499 1.399 . S
C498 C503 1.399 . S
C499 C498 1.399 . S
C499 C500 1.376 . S
C500 H487 0.930 . S
C500 C499 1.376 . S
C500 C501 1.388 . S
C501 H488 0.930 . S
C501 C500 1.388 . S
C501 C502 1.390 . S
C502 C501 1.390 . S
C502 C503 1.394 . S
C502 C508 1.465 . S
C503 C498 1.399 . S
C503 C502 1.394 . S
C503 C504 1.516 . S
C504 C503 1.516 . S
C504 C505 1.502 1_556 S
C504 C506 1.561 1_556 S
C504 C507 1.526 . S
C505 H489 0.959 . S
C505 H490 0.959 . S
C505 H491 0.961 . S
C505 C504 1.502 1_554 S
C506 H492 0.960 . S
C506 H493 0.961 . S
C506 H494 0.959 1_554 S
C506 C504 1.561 1_554 S
C507 C504 1.526 . S
C507 C508 1.396 . S
C507 C512 1.390 . S
C508 C502 1.465 . S
C508 C507 1.396 . S
C508 C509 1.399 . S
C509 H495 0.929 . S
C509 C508 1.399 . S
C509 C510 1.385 . S
C510 H496 0.931 . S
C510 C509 1.385 . S
C510 C511 1.389 . S
C511 C510 1.389 . S
C511 C512 1.387 . S
C512 H497 0.930 1_556 S
C512 C507 1.390 . S
C512 C511 1.387 . S
H513 C525 0.952 . S
H514 C527 0.930 . S
H515 C528 0.930 . S
H516 C532 0.959 . S
H517 C532 0.959 . S
H518 C532 0.961 . S
H519 C533 0.960 . S
H520 C533 0.961 . S
H521 C533 0.959 . S
H522 C536 0.929 . S
H523 C537 0.931 . S
H524 C539 0.930 . S
C525 H513 0.952 . S
C525 C526 1.372 1_554 S
C525 C530 1.405 . S
C526 C525 1.372 1_556 S
C526 C527 1.376 . S
C527 H514 0.930 . S
C527 C526 1.376 . S
C527 C528 1.388 . S
C528 H515 0.930 . S
C528 C527 1.388 . S
C528 C529 1.390 . S
C529 C528 1.390 . S
C529 C530 1.394 1_556 S
C529 C535 1.465 . S
C530 C525 1.405 . S
C530 C529 1.394 1_554 S
C530 C531 1.516 . S
C531 C530 1.516 . S
C531 C532 1.502 . S
C531 C533 1.561 . S
C531 C534 1.526 . S
C532 H516 0.959 . S
C532 H517 0.959 . S
C532 H518 0.961 . S
C532 C531 1.502 . S
C533 H519 0.960 . S
C533 H520 0.961 . S
C533 H521 0.959 . S
C533 C531 1.561 . S
C534 C531 1.526 . S
C534 C535 1.396 1_554 S
C534 C539 1.390 . S
C535 C529 1.465 . S
C535 C534 1.396 1_556 S
C535 C536 1.399 . S
C536 H522 0.929 . S
C536 C535 1.399 . S
C536 C537 1.385 . S
C537 H523 0.931 . S
C537 C536 1.385 . S
C537 C538 1.395 . S
C538 C537 1.395 . S
C538 C539 1.384 1_556 S
C539 H524 0.930 . S
C539 C534 1.390 . S
C539 C538 1.384 1_554 S
H540 C552 0.930 . S
H541 C554 0.930 1_554 S
H542 C555 0.930 . S
H543 C559 0.959 . S
H544 C559 0.959 . S
H545 C559 0.961 . S
H546 C560 0.960 . S
H547 C560 0.961 . S
H548 C560 0.959 . S
H549 C563 0.929 . S
H550 C564 0.931 . S
H551 C566 0.930 . S
C552 H540 0.930 . S
C552 C553 1.399 . S
C552 C557 1.399 . S
C553 C552 1.399 . S
C553 C554 1.376 . S
C554 H541 0.930 1_556 S
C554 C553 1.376 . S
C554 C555 1.388 1_556 S
C555 H542 0.930 . S
C555 C554 1.388 1_554 S
C555 C556 1.390 1_554 S
C556 C555 1.390 1_556 S
C556 C557 1.394 . S
C556 C562 1.465 . S
C557 C552 1.399 . S
C557 C556 1.394 . S
C557 C558 1.516 . S
C558 C557 1.516 . S
C558 C559 1.502 . S
C558 C560 1.561 . S
C558 C561 1.526 . S
C559 H543 0.959 . S
C559 H544 0.959 . S
C559 H545 0.961 . S
C559 C558 1.502 . S
C560 H546 0.960 . S
C560 H547 0.961 . S
C560 H548 0.959 . S
C560 C558 1.561 . S
C561 C558 1.526 . S
C561 C562 1.396 . S
C561 C566 1.390 . S
C562 C556 1.465 . S
C562 C561 1.396 . S
C562 C563 1.399 1_556 S
C563 H549 0.929 . S
C563 C562 1.399 1_554 S
C563 C564 1.385 . S
C564 H550 0.931 . S
C564 C563 1.385 . S
C564 C565 1.389 1_554 S
C565 C564 1.389 1_556 S
C565 C566 1.387 . S
C566 H551 0.930 . S
C566 C561 1.390 . S
C566 C565 1.387 . S
H567 C579 0.930 . S
H568 C581 0.930 . S
H569 C582 0.930 . S
H570 C586 0.959 1_556 S
H571 C586 0.959 . S
H572 C586 0.961 . S
H573 C587 0.960 . S
H574 C587 0.961 . S
H575 C587 0.959 . S
H576 C590 0.929 . S
H577 C591 0.931 . S
H578 C593 0.930 1_554 S
C579 H567 0.930 . S
C579 C580 1.399 . S
C579 C584 1.399 . S
C580 C579 1.399 . S
C580 C581 1.376 . S
C581 H568 0.930 . S
C581 C580 1.376 . S
C581 C582 1.388 . S
C582 H569 0.930 . S
C582 C581 1.388 . S
C582 C583 1.390 . S
C583 C582 1.390 . S
C583 C584 1.394 . S
C583 C589 1.465 . S
C584 C579 1.399 . S
C584 C583 1.394 . S
C584 C585 1.516 1_556 S
C585 C584 1.516 1_554 S
C585 C586 1.502 . S
C585 C587 1.561 . S
C585 C588 1.526 1_554 S
C586 H570 0.959 1_554 S
C586 H571 0.959 . S
C586 H572 0.961 . S
C586 C585 1.502 . S
C587 H573 0.960 . S
C587 H574 0.961 . S
C587 H575 0.959 . S
C587 C585 1.561 . S
C588 C585 1.526 1_556 S
C588 C589 1.396 . S
C588 C593 1.390 . S
C589 C583 1.465 . S
C589 C588 1.396 . S
C589 C590 1.399 . S
C590 H576 0.929 . S
C590 C589 1.399 . S
C590 C591 1.385 . S
C591 H577 0.931 . S
C591 C590 1.385 . S
C591 C592 1.389 . S
C592 C591 1.389 . S
C592 C593 1.387 . S
C593 H578 0.930 1_556 S
C593 C588 1.390 . S
C593 C592 1.387 . S
H594 C606 0.930 . S
H595 C608 0.917 1_554 S
H596 C609 0.923 1_554 S
H597 C613 0.959 . S
H598 C613 0.959 . S
H599 C613 0.961 . S
H600 C614 0.960 . S
H601 C614 0.961 . S
H602 C614 0.959 . S
H603 C617 0.929 . S
H604 C618 0.931 . S
H605 C620 0.930 . S
C606 H594 0.930 . S
C606 C607 1.399 . S
C606 C611 1.399 . S
C607 C606 1.399 . S
C607 C608 1.376 . S
C608 H595 0.917 1_556 S
C608 C607 1.376 . S
C608 C609 1.389 . S
C609 H596 0.923 1_556 S
C609 C608 1.389 . S
C609 C610 1.396 . S
C610 C609 1.396 . S
C610 C611 1.394 . S
C610 C616 1.465 . S
C611 C606 1.399 . S
C611 C610 1.394 . S
C611 C612 1.516 . S
C612 C611 1.516 . S
C612 C613 1.502 . S
C612 C614 1.561 . S
C612 C615 1.526 . S
C613 H597 0.959 . S
C613 H598 0.959 . S
C613 H599 0.961 . S
C613 C612 1.502 . S
C614 H600 0.960 . S
C614 H601 0.961 . S
C614 H602 0.959 . S
C614 C612 1.561 . S
C615 C612 1.526 . S
C615 C616 1.396 . S
C615 C620 1.390 . S
C616 C610 1.465 . S
C616 C615 1.396 . S
C616 C617 1.399 1_556 S
C617 H603 0.929 . S
C617 C616 1.399 1_554 S
C617 C618 1.385 . S
C618 H604 0.931 . S
C618 C617 1.385 . S
C618 C619 1.389 1_554 S
C619 C618 1.389 1_556 S
C619 C620 1.387 . S
C620 H605 0.930 . S
C620 C615 1.390 . S
C620 C619 1.387 . S
H621 C633 0.930 . S
H622 C635 0.930 . S
H623 C636 0.930 . S
H624 C640 0.959 . S
H625 C640 0.959 . S
H626 C640 0.961 . S
H627 C641 0.960 . S
H628 C641 0.961 . S
H629 C641 0.959 . S
H630 C644 0.929 1_556 S
H631 C645 0.931 1_556 S
H632 C647 0.930 . S
C633 H621 0.930 . S
C633 C634 1.399 . S
C633 C638 1.399 . S
C634 C633 1.399 . S
C634 C635 1.376 . S
C635 H622 0.930 . S
C635 C634 1.376 . S
C635 C636 1.388 . S
C636 H623 0.930 . S
C636 C635 1.388 . S
C636 C637 1.390 . S
C637 C636 1.390 . S
C637 C638 1.394 . S
C637 C643 1.465 . S
C638 C633 1.399 . S
C638 C637 1.394 . S
C638 C639 1.516 . S
C639 C638 1.516 . S
C639 C640 1.502 . S
C639 C641 1.561 . S
C639 C642 1.526 . S
C640 H624 0.959 . S
C640 H625 0.959 . S
C640 H626 0.961 . S
C640 C639 1.502 . S
C641 H627 0.960 . S
C641 H628 0.961 . S
C641 H629 0.959 . S
C641 C639 1.561 . S
C642 C639 1.526 . S
C642 C643 1.396 . S
C642 C647 1.390 . S
C643 C637 1.465 . S
C643 C642 1.396 . S
C643 C644 1.399 . S
C644 H630 0.929 1_554 S
C644 C643 1.399 . S
C644 C645 1.385 . S
C645 H631 0.931 1_554 S
C645 C644 1.385 . S
C645 C646 1.389 . S
C646 C645 1.389 . S
C646 C647 1.387 . S
C647 H632 0.930 . S
C647 C642 1.390 . S
C647 C646 1.387 . S
H648 C660 0.930 . S
H649 C662 0.930 . S
H650 C663 0.930 . S
H651 C667 0.959 . S
H652 C667 0.959 . S
H653 C667 0.961 . S
H654 C668 0.960 . S
H655 C668 0.961 . S
H656 C668 0.959 . S
H657 C671 0.929 . S
H658 C672 0.931 . S
H659 C674 0.930 . S
C660 H648 0.930 . S
C660 C661 1.399 . S
C660 C665 1.399 . S
C661 C660 1.399 . S
C661 C662 1.376 . S
C662 H649 0.930 . S
C662 C661 1.376 . S
C662 C663 1.388 . S
C663 H650 0.930 . S
C663 C662 1.388 . S
C663 C664 1.390 . S
C664 C663 1.390 . S
C664 C665 1.394 . S
C664 C670 1.465 . S
C665 C660 1.399 . S
C665 C664 1.394 . S
C665 C666 1.516 . S
C666 C665 1.516 . S
C666 C667 1.502 . S
C666 C668 1.561 1_554 S
C666 C669 1.526 . S
C667 H651 0.959 . S
C667 H652 0.959 . S
C667 H653 0.961 . S
C667 C666 1.502 . S
C668 H654 0.960 . S
C668 H655 0.961 . S
C668 H656 0.959 . S
C668 C666 1.561 1_556 S
C669 C666 1.526 . S
C669 C670 1.396 . S
C669 C674 1.390 . S
C670 C664 1.465 . S
C670 C669 1.396 . S
C670 C671 1.399 . S
C671 H657 0.929 . S
C671 C670 1.399 . S
C671 C672 1.385 . S
C672 H658 0.931 . S
C672 C671 1.385 . S
C672 C673 1.389 . S
C673 C672 1.389 . S
C673 C674 1.387 . S
C674 H659 0.930 . S
C674 C669 1.390 . S
C674 C673 1.387 . S
H675 C687 0.930 . S
H676 C689 0.930 . S
H677 C690 0.930 . S
H678 C694 0.959 1_554 S
H679 C694 0.959 . S
H680 C694 0.961 . S
H681 C695 0.960 . S
H682 C695 0.961 . S
H683 C695 0.959 . S
H684 C698 0.929 . S
H685 C699 0.931 . S
H686 C701 0.930 1_556 S
C687 H675 0.930 . S
C687 C688 1.399 . S
C687 C692 1.399 . S
C688 C687 1.399 . S
C688 C689 1.376 . S
C689 H676 0.930 . S
C689 C688 1.376 . S
C689 C690 1.388 . S
C690 H677 0.930 . S
C690 C689 1.388 . S
C690 C691 1.390 . S
C691 C690 1.390 . S
C691 C692 1.394 . S
C691 C697 1.465 . S
C692 C687 1.399 . S
C692 C691 1.394 . S
C692 C693 1.528 . S
C693 C692 1.528 . S
C693 C694 1.494 1_554 S
C693 C695 1.552 1_554 S
C693 C696 1.532 . S
C694 H678 0.959 1_556 S
C694 H679 0.959 . S
C694 H680 0.961 . S
C694 C693 1.494 1_556 S
C695 H681 0.960 . S
C695 H682 0.961 . S
C695 H683 0.959 . S
C695 C693 1.552 1_556 S
C696 C693 1.532 . S
C696 C697 1.396 . S
C696 C701 1.390 . S
C697 C691 1.465 . S
C697 C696 1.396 . S
C697 C698 1.399 . S
C698 H684 0.929 . S
C698 C697 1.399 . S
C698 C699 1.385 . S
C699 H685 0.931 . S
C699 C698 1.385 . S
C699 C700 1.389 . S
C700 C699 1.389 . S
C700 C701 1.387 . S
C701 H686 0.930 1_554 S
C701 C696 1.390 . S
C701 C700 1.387 . S
H702 C714 0.930 . S
H703 C716 0.930 . S
H704 C717 0.930 . S
H705 C721 0.959 . S
H706 C721 0.959 . S
H707 C721 0.961 . S
H708 C722 0.960 1_655 S
H709 C722 0.961 . S
H710 C722 0.959 . S
H711 C725 0.929 . S
H712 C726 0.931 . S
H713 C728 0.930 . S
C714 H702 0.930 . S
C714 C715 1.399 . S
C714 C719 1.376 1_655 S
C715 C714 1.399 . S
C715 C716 1.376 . S
C716 H703 0.930 . S
C716 C715 1.376 . S
C716 C717 1.388 . S
C717 H704 0.930 . S
C717 C716 1.388 . S
C717 C718 1.390 1_655 S
C718 C717 1.390 1_455 S
C718 C719 1.385 . S
C718 C724 1.465 . S
C719 C714 1.376 1_455 S
C719 C718 1.385 . S
C719 C720 1.549 . S
C720 C719 1.549 . S
C720 C721 1.502 . S
C720 C722 1.561 . S
C720 C723 1.526 . S
C721 H705 0.959 . S
C721 H706 0.959 . S
C721 H707 0.961 . S
C721 C720 1.502 . S
C722 H708 0.960 1_455 S
C722 H709 0.961 . S
C722 H710 0.959 . S
C722 C720 1.561 . S
C723 C720 1.526 . S
C723 C724 1.396 . S
C723 C728 1.390 . S
C724 C718 1.465 . S
C724 C723 1.396 . S
C724 C725 1.399 . S
C725 H711 0.929 . S
C725 C724 1.399 . S
C725 C726 1.385 . S
C726 H712 0.931 . S
C726 C725 1.385 . S
C726 C727 1.389 . S
C727 C726 1.389 . S
C727 C728 1.387 . S
C728 H713 0.930 . S
C728 C723 1.390 . S
C728 C727 1.387 . S
H729 C741 0.930 . S
H730 C743 0.930 . S
H731 C744 0.930 . S
H732 C748 0.959 . S
H733 C748 0.959 . S
H734 C748 0.961 . S
H735 C749 0.960 . S
H736 C749 0.961 . S
H737 C749 0.959 . S
H738 C752 0.929 . S
H739 C753 0.931 . S
H740 C755 0.930 . S
C741 H729 0.930 . S
C741 C742 1.399 . S
C741 C746 1.399 . S
C742 C741 1.399 . S
C742 C743 1.376 . S
C743 H730 0.930 . S
C743 C742 1.376 . S
C743 C744 1.388 . S
C744 H731 0.930 . S
C744 C743 1.388 . S
C744 C745 1.390 . S
C745 C744 1.390 . S
C745 C746 1.394 . S
C745 C751 1.465 . S
C746 C741 1.399 . S
C746 C745 1.394 . S
C746 C747 1.516 . S
C747 C746 1.516 . S
C747 C748 1.502 . S
C747 C749 1.561 . S
C747 C750 1.526 . S
C748 H732 0.959 . S
C748 H733 0.959 . S
C748 H734 0.961 . S
C748 C747 1.502 . S
C749 H735 0.960 . S
C749 H736 0.961 . S
C749 H737 0.959 . S
C749 C747 1.561 . S
C750 C747 1.526 . S
C750 C751 1.396 . S
C750 C755 1.390 . S
C751 C745 1.465 . S
C751 C750 1.396 . S
C751 C752 1.399 . S
C752 H738 0.929 . S
C752 C751 1.399 . S
C752 C753 1.385 . S
C753 H739 0.931 . S
C753 C752 1.385 . S
C753 C754 1.389 . S
C754 C753 1.389 . S
C754 C755 1.387 . S
C755 H740 0.930 . S
C755 C750 1.390 . S
C755 C754 1.387 . S
H756 C768 0.930 . S
H757 C770 0.930 . S
H758 C771 0.930 . S
H759 C775 0.959 . S
H760 C775 0.959 . S
H761 C775 0.961 1_545 S
H762 C776 0.960 . S
H763 C776 0.961 . S
H764 C776 0.959 . S
H765 C779 0.929 . S
H766 C780 0.931 . S
H767 C782 0.930 . S
C768 H756 0.930 . S
C768 C769 1.399 . S
C768 C773 1.399 . S
C769 C768 1.399 . S
C769 C770 1.376 . S
C770 H757 0.930 . S
C770 C769 1.376 . S
C770 C771 1.388 . S
C771 H758 0.930 . S
C771 C770 1.388 . S
C771 C772 1.390 1_545 S
C772 C771 1.390 1_565 S
C772 C773 1.394 1_565 S
C772 C778 1.465 . S
C773 C768 1.399 . S
C773 C772 1.394 1_545 S
C773 C774 1.516 1_545 S
C774 C773 1.516 1_565 S
C774 C775 1.502 . S
C774 C776 1.561 . S
C774 C777 1.526 . S
C775 H759 0.959 . S
C775 H760 0.959 . S
C775 H761 0.961 1_565 S
C775 C774 1.502 . S
C776 H762 0.960 . S
C776 H763 0.961 . S
C776 H764 0.959 . S
C776 C774 1.561 . S
C777 C774 1.526 . S
C777 C778 1.396 . S
C777 C782 1.390 . S
C778 C772 1.465 . S
C778 C777 1.396 . S
C778 C779 1.399 . S
C779 H765 0.929 . S
C779 C778 1.399 . S
C779 C780 1.385 . S
C780 H766 0.931 . S
C780 C779 1.385 . S
C780 C781 1.389 . S
C781 C780 1.389 . S
C781 C782 1.387 . S
C782 H767 0.930 . S
C782 C777 1.390 . S
C782 C781 1.387 . S
H783 C795 0.930 . S
H784 C797 0.930 . S
H785 C798 0.930 . S
H786 C802 0.959 . S
H787 C802 0.959 . S
H788 C802 0.961 . S
H789 C803 0.960 . S
H790 C803 0.961 . S
H791 C803 0.959 . S
H792 C806 0.929 . S
H793 C807 0.931 . S
H794 C809 0.930 . S
C795 H783 0.930 . S
C795 C796 1.399 . S
C795 C800 1.399 . S
C796 C795 1.399 . S
C796 C797 1.376 . S
C797 H784 0.930 . S
C797 C796 1.376 . S
C797 C798 1.388 . S
C798 H785 0.930 . S
C798 C797 1.388 . S
C798 C799 1.390 . S
C799 C798 1.390 . S
C799 C800 1.394 . S
C799 C805 1.465 . S
C800 C795 1.399 . S
C800 C799 1.394 . S
C800 C801 1.516 . S
C801 C800 1.516 . S
C801 C802 1.502 . S
C801 C803 1.561 . S
C801 C804 1.526 . S
C802 H786 0.959 . S
C802 H787 0.959 . S
C802 H788 0.961 . S
C802 C801 1.502 . S
C803 H789 0.960 . S
C803 H790 0.961 . S
C803 H791 0.959 . S
C803 C801 1.561 . S
C804 C801 1.526 . S
C804 C805 1.396 . S
C804 C809 1.390 . S
C805 C799 1.465 . S
C805 C804 1.396 . S
C805 C806 1.399 . S
C806 H792 0.929 . S
C806 C805 1.399 . S
C806 C807 1.385 . S
C807 H793 0.931 . S
C807 C806 1.385 . S
C807 C808 1.389 . S
C808 C807 1.389 . S
C808 C809 1.387 . S
C809 H794 0.930 . S
C809 C804 1.390 . S
C809 C808 1.387 . S
H810 C822 0.930 . S
H811 C824 0.930 . S
H812 C825 0.930 . S
H813 C829 0.959 . S
H814 C829 0.959 . S
H815 C829 0.961 . S
H816 C830 0.960 . S
H817 C830 0.961 . S
H818 C830 0.959 . S
H819 C833 0.929 . S
H820 C834 0.931 . S
H821 C836 0.930 . S
C822 H810 0.930 . S
C822 C823 1.399 . S
C822 C827 1.399 . S
C823 C822 1.399 . S
C823 C824 1.376 . S
C824 H811 0.930 . S
C824 C823 1.376 . S
C824 C825 1.388 . S
C825 H812 0.930 . S
C825 C824 1.388 . S
C825 C826 1.390 . S
C826 C825 1.390 . S
C826 C827 1.394 . S
C826 C832 1.465 . S
C827 C822 1.399 . S
C827 C826 1.394 . S
C827 C828 1.516 . S
C828 C827 1.516 . S
C828 C829 1.502 . S
C828 C830 1.561 . S
C828 C831 1.526 . S
C829 H813 0.959 . S
C829 H814 0.959 . S
C829 H815 0.961 . S
C829 C828 1.502 . S
C830 H816 0.960 . S
C830 H817 0.961 . S
C830 H818 0.959 . S
C830 C828 1.561 . S
C831 C828 1.526 . S
C831 C832 1.396 . S
C831 C836 1.390 . S
C832 C826 1.465 . S
C832 C831 1.396 . S
C832 C833 1.399 . S
C833 H819 0.929 . S
C833 C832 1.399 . S
C833 C834 1.385 . S
C834 H820 0.931 . S
C834 C833 1.385 . S
C834 C835 1.389 . S
C835 C834 1.389 . S
C835 C836 1.387 . S
C836 H821 0.930 . S
C836 C831 1.390 . S
C836 C835 1.387 . S
H837 C849 0.930 . S
H838 C851 0.930 . S
H839 C852 0.930 . S
H840 C856 0.959 . S
H841 C856 0.959 . S
H842 C856 0.961 . S
H843 C857 0.960 . S
H844 C857 0.961 . S
H845 C857 0.959 . S
H846 C860 0.929 . S
H847 C861 0.931 . S
H848 C863 0.930 . S
C849 H837 0.930 . S
C849 C850 1.399 . S
C849 C854 1.399 . S
C850 C849 1.399 . S
C850 C851 1.376 . S
C851 H838 0.930 . S
C851 C850 1.376 . S
C851 C852 1.388 . S
C852 H839 0.930 . S
C852 C851 1.388 . S
C852 C853 1.390 . S
C853 C852 1.390 . S
C853 C854 1.394 . S
C853 C859 1.465 . S
C854 C849 1.399 . S
C854 C853 1.394 . S
C854 C855 1.516 . S
C855 C854 1.516 . S
C855 C856 1.502 . S
C855 C857 1.561 . S
C855 C858 1.526 . S
C856 H840 0.959 . S
C856 H841 0.959 . S
C856 H842 0.961 . S
C856 C855 1.502 . S
C857 H843 0.960 . S
C857 H844 0.961 . S
C857 H845 0.959 . S
C857 C855 1.561 . S
C858 C855 1.526 . S
C858 C859 1.396 . S
C858 C863 1.390 . S
C859 C853 1.465 . S
C859 C858 1.396 . S
C859 C860 1.399 . S
C860 H846 0.929 . S
C860 C859 1.399 . S
C860 C861 1.385 . S
C861 H847 0.931 . S
C861 C860 1.385 . S
C861 C862 1.389 . S
C862 C861 1.389 . S
C862 C863 1.387 . S
C863 H848 0.930 . S
C863 C858 1.390 . S
C863 C862 1.387 . S
H864 C876 0.930 . S
H865 C878 0.930 . S
H866 C879 0.930 . S
H867 C883 0.959 . S
H868 C883 0.959 . S
H869 C883 0.961 . S
H870 C884 0.960 . S
H871 C884 0.961 . S
H872 C884 0.959 . S
H873 C887 0.929 . S
H874 C888 0.931 . S
H875 C890 0.930 . S
C876 H864 0.930 . S
C876 C877 1.399 . S
C876 C881 1.399 . S
C877 C876 1.399 . S
C877 C878 1.376 . S
C878 H865 0.930 . S
C878 C877 1.376 . S
C878 C879 1.388 . S
C879 H866 0.930 . S
C879 C878 1.388 . S
C879 C880 1.390 . S
C880 C879 1.390 . S
C880 C881 1.394 . S
C880 C886 1.465 . S
C881 C876 1.399 . S
C881 C880 1.394 . S
C881 C882 1.516 . S
C882 C881 1.516 . S
C882 C883 1.502 . S
C882 C884 1.561 . S
C882 C885 1.526 . S
C883 H867 0.959 . S
C883 H868 0.959 . S
C883 H869 0.961 . S
C883 C882 1.502 . S
C884 H870 0.960 . S
C884 H871 0.961 . S
C884 H872 0.959 . S
C884 C882 1.561 . S
C885 C882 1.526 . S
C885 C886 1.396 . S
C885 C890 1.390 . S
C886 C880 1.465 . S
C886 C885 1.396 . S
C886 C887 1.399 . S
C887 H873 0.929 . S
C887 C886 1.399 . S
C887 C888 1.385 . S
C888 H874 0.931 . S
C888 C887 1.385 . S
C888 C889 1.389 . S
C889 C888 1.389 . S
C889 C890 1.387 . S
C890 H875 0.930 . S
C890 C885 1.390 . S
C890 C889 1.387 . S
H891 C903 0.930 . S
H892 C905 0.930 . S
H893 C906 0.930 . S
H894 C910 0.959 . S
H895 C910 0.959 . S
H896 C910 0.961 . S
H897 C911 0.960 . S
H898 C911 0.961 . S
H899 C911 0.959 . S
H900 C914 0.929 . S
H901 C915 0.931 . S
H902 C917 0.930 . S
C903 H891 0.930 . S
C903 C904 1.399 . S
C903 C908 1.399 . S
C904 C903 1.399 . S
C904 C905 1.376 . S
C905 H892 0.930 . S
C905 C904 1.376 . S
C905 C906 1.388 . S
C906 H893 0.930 . S
C906 C905 1.388 . S
C906 C907 1.390 . S
C907 C906 1.390 . S
C907 C908 1.394 . S
C907 C913 1.465 . S
C908 C903 1.399 . S
C908 C907 1.394 . S
C908 C909 1.516 . S
C909 C908 1.516 . S
C909 C910 1.502 . S
C909 C911 1.561 . S
C909 C912 1.526 . S
C910 H894 0.959 . S
C910 H895 0.959 . S
C910 H896 0.961 . S
C910 C909 1.502 . S
C911 H897 0.960 . S
C911 H898 0.961 . S
C911 H899 0.959 . S
C911 C909 1.561 . S
C912 C909 1.526 . S
C912 C913 1.396 . S
C912 C917 1.390 . S
C913 C907 1.465 . S
C913 C912 1.396 . S
C913 C914 1.399 . S
C914 H900 0.929 . S
C914 C913 1.399 . S
C914 C915 1.385 . S
C915 H901 0.931 . S
C915 C914 1.385 . S
C915 C916 1.389 . S
C916 C915 1.389 . S
C916 C917 1.387 . S
C917 H902 0.930 . S
C917 C912 1.390 . S
C917 C916 1.387 . S
H918 C930 0.930 . S
H919 C932 0.930 . S
H920 C933 0.930 . S
H921 C937 0.959 . S
H922 C937 0.959 . S
H923 C937 0.961 . S
H924 C938 0.960 . S
H925 C938 0.961 . S
H926 C938 0.959 . S
H927 C941 0.929 . S
H928 C942 0.931 . S
H929 C944 0.930 . S
C930 H918 0.930 . S
C930 C931 1.399 . S
C930 C935 1.399 . S
C931 C930 1.399 . S
C931 C932 1.376 . S
C932 H919 0.930 . S
C932 C931 1.376 . S
C932 C933 1.388 . S
C933 H920 0.930 . S
C933 C932 1.388 . S
C933 C934 1.390 . S
C934 C933 1.390 . S
C934 C935 1.394 . S
C934 C940 1.465 . S
C935 C930 1.399 . S
C935 C934 1.394 . S
C935 C936 1.516 . S
C936 C935 1.516 . S
C936 C937 1.502 . S
C936 C938 1.561 . S
C936 C939 1.526 . S
C937 H921 0.959 . S
C937 H922 0.959 . S
C937 H923 0.961 . S
C937 C936 1.502 . S
C938 H924 0.960 . S
C938 H925 0.961 . S
C938 H926 0.959 . S
C938 C936 1.561 . S
C939 C936 1.526 . S
C939 C940 1.396 . S
C939 C944 1.390 . S
C940 C934 1.465 . S
C940 C939 1.396 . S
C940 C941 1.399 . S
C941 H927 0.929 . S
C941 C940 1.399 . S
C941 C942 1.385 . S
C942 H928 0.931 . S
C942 C941 1.385 . S
C942 C943 1.389 . S
C943 C942 1.389 . S
C943 C944 1.387 . S
C944 H929 0.930 . S
C944 C939 1.390 . S
C944 C943 1.387 . S
H945 C957 0.930 . S
H946 C959 0.930 . S
H947 C960 0.930 . S
H948 C964 0.959 . S
H949 C964 0.959 . S
H950 C964 0.961 . S
H951 C965 0.960 . S
H952 C965 0.961 . S
H953 C965 0.959 . S
H954 C968 0.929 . S
H955 C969 0.931 . S
H956 C971 0.930 . S
C957 H945 0.930 . S
C957 C958 1.399 . S
C957 C962 1.399 1_545 S
C958 C957 1.399 . S
C958 C959 1.376 . S
C959 H946 0.930 . S
C959 C958 1.376 . S
C959 C960 1.388 1_545 S
C960 H947 0.930 . S
C960 C959 1.388 1_565 S
C960 C961 1.390 . S
C961 C960 1.390 . S
C961 C962 1.394 . S
C961 C967 1.465 . S
C962 C957 1.399 1_565 S
C962 C961 1.394 . S
C962 C963 1.516 . S
C963 C962 1.516 . S
C963 C964 1.502 . S
C963 C965 1.561 . S
C963 C966 1.526 . S
C964 H948 0.959 . S
C964 H949 0.959 . S
C964 H950 0.961 . S
C964 C963 1.502 . S
C965 H951 0.960 . S
C965 H952 0.961 . S
C965 H953 0.959 . S
C965 C963 1.561 . S
C966 C963 1.526 . S
C966 C967 1.396 . S
C966 C971 1.390 . S
C967 C961 1.465 . S
C967 C966 1.396 . S
C967 C968 1.399 . S
C968 H954 0.929 . S
C968 C967 1.399 . S
C968 C969 1.385 . S
C969 H955 0.931 . S
C969 C968 1.385 . S
C969 C970 1.389 . S
C970 C969 1.389 . S
C970 C971 1.387 . S
C971 H956 0.930 . S
C971 C966 1.390 . S
C971 C970 1.387 . S
H972 C984 0.930 . S
H973 C986 0.930 . S
H974 C987 0.930 . S
H975 C991 0.959 . S
H976 C991 0.959 . S
H977 C991 0.961 . S
H978 C992 0.960 . S
H979 C992 0.961 . S
H980 C992 0.959 . S
H981 C995 0.929 . S
H982 C996 0.931 . S
H983 C998 0.930 . S
C984 H972 0.930 . S
C984 C985 1.399 . S
C984 C989 1.399 1_655 S
C985 C984 1.399 . S
C985 C986 1.376 . S
C986 H973 0.930 . S
C986 C985 1.376 . S
C986 C987 1.388 1_655 S
C987 H974 0.930 . S
C987 C986 1.388 1_455 S
C987 C988 1.390 . S
C988 C987 1.390 . S
C988 C989 1.394 . S
C988 C994 1.465 . S
C989 C984 1.399 1_455 S
C989 C988 1.394 . S
C989 C990 1.516 . S
C990 C989 1.516 . S
C990 C991 1.502 . S
C990 C992 1.561 . S
C990 C993 1.526 . S
C991 H975 0.959 . S
C991 H976 0.959 . S
C991 H977 0.961 . S
C991 C990 1.502 . S
C992 H978 0.960 . S
C992 H979 0.961 . S
C992 H980 0.959 . S
C992 C990 1.561 . S
C993 C990 1.526 . S
C993 C994 1.396 . S
C993 C998 1.390 . S
C994 C988 1.465 . S
C994 C993 1.396 . S
C994 C995 1.399 . S
C995 H981 0.929 . S
C995 C994 1.399 . S
C995 C996 1.385 . S
C996 H982 0.931 . S
C996 C995 1.385 . S
C996 C997 1.389 . S
C997 C996 1.389 . S
C997 C998 1.387 . S
C998 H983 0.930 . S
C998 C993 1.390 . S
C998 C997 1.387 . S
H999 C1011 0.930 . S
H1000 C1013 0.930 . S
H1001 C1014 0.930 . S
H1002 C1018 0.959 . S
H1003 C1018 0.959 . S
H1004 C1018 0.961 . S
H1005 C1019 0.960 . S
H1006 C1019 0.961 . S
H1007 C1019 0.959 . S
H1008 C1022 0.929 . S
H1009 C1023 0.931 . S
H1010 C1025 0.930 . S
C1011 H999 0.930 . S
C1011 C1012 1.399 . S
C1011 C1016 1.399 . S
C1012 C1011 1.399 . S
C1012 C1013 1.376 . S
C1013 H1000 0.930 . S
C1013 C1012 1.376 . S
C1013 C1014 1.388 . S
C1014 H1001 0.930 . S
C1014 C1013 1.388 . S
C1014 C1015 1.390 . S
C1015 C1014 1.390 . S
C1015 C1016 1.394 . S
C1015 C1021 1.465 . S
C1016 C1011 1.399 . S
C1016 C1015 1.394 . S
C1016 C1017 1.516 . S
C1017 C1016 1.516 . S
C1017 C1018 1.502 . S
C1017 C1019 1.561 . S
C1017 C1020 1.526 . S
C1018 H1002 0.959 . S
C1018 H1003 0.959 . S
C1018 H1004 0.961 . S
C1018 C1017 1.502 . S
C1019 H1005 0.960 . S
C1019 H1006 0.961 . S
C1019 H1007 0.959 . S
C1019 C1017 1.561 . S
C1020 C1017 1.526 . S
C1020 C1021 1.396 . S
C1020 C1025 1.390 . S
C1021 C1015 1.465 . S
C1021 C1020 1.396 . S
C1021 C1022 1.399 . S
C1022 H1008 0.929 . S
C1022 C1021 1.399 . S
C1022 C1023 1.385 . S
C1023 H1009 0.931 . S
C1023 C1022 1.385 . S
C1023 C1024 1.389 . S
C1024 C1023 1.389 . S
C1024 C1025 1.387 . S
C1025 H1010 0.930 . S
C1025 C1020 1.390 . S
C1025 C1024 1.387 . S
H1026 C1038 0.930 . S
H1027 C1040 0.930 . S
H1028 C1041 0.930 . S
H1029 C1045 0.959 . S
H1030 C1045 0.959 . S
H1031 C1045 0.961 . S
H1032 C1046 0.960 . S
H1033 C1046 0.961 . S
H1034 C1046 0.959 . S
H1035 C1049 0.929 . S
H1036 C1050 0.931 . S
H1037 C1052 0.930 . S
C1038 H1026 0.930 . S
C1038 C1039 1.399 . S
C1038 C1043 1.399 . S
C1039 C1038 1.399 . S
C1039 C1040 1.376 . S
C1040 H1027 0.930 . S
C1040 C1039 1.376 . S
C1040 C1041 1.388 . S
C1041 H1028 0.930 . S
C1041 C1040 1.388 . S
C1041 C1042 1.390 . S
C1042 C1041 1.390 . S
C1042 C1043 1.394 . S
C1042 C1048 1.465 . S
C1043 C1038 1.399 . S
C1043 C1042 1.394 . S
C1043 C1044 1.516 . S
C1044 C1043 1.516 . S
C1044 C1045 1.502 . S
C1044 C1046 1.561 . S
C1044 C1047 1.526 . S
C1045 H1029 0.959 . S
C1045 H1030 0.959 . S
C1045 H1031 0.961 . S
C1045 C1044 1.502 . S
C1046 H1032 0.960 . S
C1046 H1033 0.961 . S
C1046 H1034 0.959 . S
C1046 C1044 1.561 . S
C1047 C1044 1.526 . S
C1047 C1048 1.396 . S
C1047 C1052 1.390 . S
C1048 C1042 1.465 . S
C1048 C1047 1.396 . S
C1048 C1049 1.399 . S
C1049 H1035 0.929 . S
C1049 C1048 1.399 . S
C1049 C1050 1.385 . S
C1050 H1036 0.931 . S
C1050 C1049 1.385 . S
C1050 C1051 1.389 . S
C1051 C1050 1.389 . S
C1051 C1052 1.387 . S
C1052 H1037 0.930 . S
C1052 C1047 1.390 . S
C1052 C1051 1.387 . S
H1053 C1065 0.930 . S
H1054 C1067 0.930 . S
H1055 C1068 0.930 . S
H1056 C1072 0.959 . S
H1057 C1072 0.959 . S
H1058 C1072 0.961 . S
H1059 C1073 0.960 . S
H1060 C1073 0.961 . S
H1061 C1073 0.959 . S
H1062 C1076 0.929 . S
H1063 C1077 0.931 . S
H1064 C1079 0.930 . S
C1065 H1053 0.930 . S
C1065 C1066 1.399 . S
C1065 C1070 1.399 . S
C1066 C1065 1.399 . S
C1066 C1067 1.376 . S
C1067 H1054 0.930 . S
C1067 C1066 1.376 . S
C1067 C1068 1.388 . S
C1068 H1055 0.930 . S
C1068 C1067 1.388 . S
C1068 C1069 1.390 . S
C1069 C1068 1.390 . S
C1069 C1070 1.394 . S
C1069 C1075 1.465 . S
C1070 C1065 1.399 . S
C1070 C1069 1.394 . S
C1070 C1071 1.516 . S
C1071 C1070 1.516 . S
C1071 C1072 1.502 . S
C1071 C1073 1.561 . S
C1071 C1074 1.526 . S
C1072 H1056 0.959 . S
C1072 H1057 0.959 . S
C1072 H1058 0.961 . S
C1072 C1071 1.502 . S
C1073 H1059 0.960 . S
C1073 H1060 0.961 . S
C1073 H1061 0.959 . S
C1073 C1071 1.561 . S
C1074 C1071 1.526 . S
C1074 C1075 1.396 . S
C1074 C1079 1.390 . S
C1075 C1069 1.465 . S
C1075 C1074 1.396 . S
C1075 C1076 1.399 . S
C1076 H1062 0.929 . S
C1076 C1075 1.399 . S
C1076 C1077 1.385 . S
C1077 H1063 0.931 . S
C1077 C1076 1.385 . S
C1077 C1078 1.389 . S
C1078 C1077 1.389 . S
C1078 C1079 1.387 . S
C1079 H1064 0.930 . S
C1079 C1074 1.390 . S
C1079 C1078 1.387 . S
H1080 C1092 0.930 . S
H1081 C1094 0.930 . S
H1082 C1095 0.930 . S
H1083 C1099 0.959 . S
H1084 C1099 0.959 . S
H1085 C1099 0.961 . S
H1086 C1100 0.960 . S
H1087 C1100 0.961 . S
H1088 C1100 0.959 . S
H1089 C1103 0.929 . S
H1090 C1104 0.931 . S
H1091 C1106 0.930 . S
C1092 H1080 0.930 . S
C1092 C1093 1.399 . S
C1092 C1097 1.399 . S
C1093 C1092 1.399 . S
C1093 C1094 1.376 . S
C1094 H1081 0.930 . S
C1094 C1093 1.376 . S
C1094 C1095 1.388 . S
C1095 H1082 0.930 . S
C1095 C1094 1.388 . S
C1095 C1096 1.390 . S
C1096 C1095 1.390 . S
C1096 C1097 1.394 . S
C1096 C1102 1.465 . S
C1097 C1092 1.399 . S
C1097 C1096 1.394 . S
C1097 C1098 1.516 . S
C1098 C1097 1.516 . S
C1098 C1099 1.502 . S
C1098 C1100 1.561 . S
C1098 C1101 1.526 . S
C1099 H1083 0.959 . S
C1099 H1084 0.959 . S
C1099 H1085 0.961 . S
C1099 C1098 1.502 . S
C1100 H1086 0.960 . S
C1100 H1087 0.961 . S
C1100 H1088 0.959 . S
C1100 C1098 1.561 . S
C1101 C1098 1.526 . S
C1101 C1102 1.396 . S
C1101 C1106 1.390 . S
C1102 C1096 1.465 . S
C1102 C1101 1.396 . S
C1102 C1103 1.399 . S
C1103 H1089 0.929 . S
C1103 C1102 1.399 . S
C1103 C1104 1.385 . S
C1104 H1090 0.931 . S
C1104 C1103 1.385 . S
C1104 C1105 1.389 . S
C1105 C1104 1.389 . S
C1105 C1106 1.387 . S
C1106 H1091 0.930 . S
C1106 C1101 1.390 . S
C1106 C1105 1.387 . S
H1107 C1119 0.930 . S
H1108 C1121 0.930 . S
H1109 C1122 0.937 . S
H1110 C1126 0.959 . S
H1111 C1126 0.959 . S
H1112 C1126 0.961 . S
H1113 C1127 0.960 . S
H1114 C1127 0.961 . S
H1115 C1127 0.959 . S
H1116 C1130 0.929 . S
H1117 C1131 0.931 . S
H1118 C1133 0.930 . S
C1119 H1107 0.930 . S
C1119 C1120 1.399 . S
C1119 C1124 1.399 1_565 S
C1120 C1119 1.399 . S
C1120 C1121 1.376 . S
C1121 H1108 0.930 . S
C1121 C1120 1.376 . S
C1121 C1122 1.388 . S
C1122 H1109 0.937 . S
C1122 C1121 1.388 . S
C1122 C1123 1.390 1_565 S
C1123 C1122 1.390 1_545 S
C1123 C1124 1.394 . S
C1123 C1129 1.465 . S
C1124 C1119 1.399 1_545 S
C1124 C1123 1.394 . S
C1124 C1125 1.516 . S
C1125 C1124 1.516 . S
C1125 C1126 1.502 . S
C1125 C1127 1.561 . S
C1125 C1128 1.526 . S
C1126 H1110 0.959 . S
C1126 H1111 0.959 . S
C1126 H1112 0.961 . S
C1126 C1125 1.502 . S
C1127 H1113 0.960 . S
C1127 H1114 0.961 . S
C1127 H1115 0.959 . S
C1127 C1125 1.561 . S
C1128 C1125 1.526 . S
C1128 C1129 1.396 . S
C1128 C1133 1.390 . S
C1129 C1123 1.465 . S
C1129 C1128 1.396 . S
C1129 C1130 1.399 . S
C1130 H1116 0.929 . S
C1130 C1129 1.399 . S
C1130 C1131 1.385 . S
C1131 H1117 0.931 . S
C1131 C1130 1.385 . S
C1131 C1132 1.389 . S
C1132 C1131 1.389 . S
C1132 C1133 1.387 . S
C1133 H1118 0.930 . S
C1133 C1128 1.390 . S
C1133 C1132 1.387 . S
H1134 C1146 0.930 . S
H1135 C1148 0.930 . S
H1136 C1149 0.930 . S
H1137 C1153 0.959 . S
H1138 C1153 0.959 . S
H1139 C1153 0.961 . S
H1140 C1154 0.960 . S
H1141 C1154 0.961 . S
H1142 C1154 0.959 . S
H1143 C1157 0.929 . S
H1144 C1158 0.931 . S
H1145 C1160 0.930 . S
C1146 H1134 0.930 . S
C1146 C1147 1.399 . S
C1146 C1151 1.399 . S
C1147 C1146 1.399 . S
C1147 C1148 1.376 . S
C1148 H1135 0.930 . S
C1148 C1147 1.376 . S
C1148 C1149 1.388 . S
C1149 H1136 0.930 . S
C1149 C1148 1.388 . S
C1149 C1150 1.390 . S
C1150 C1149 1.390 . S
C1150 C1151 1.394 . S
C1150 C1156 1.465 1_455 S
C1151 C1146 1.399 . S
C1151 C1150 1.394 . S
C1151 C1152 1.516 1_455 S
C1152 C1151 1.516 1_655 S
C1152 C1153 1.502 . S
C1152 C1154 1.561 . S
C1152 C1155 1.526 . S
C1153 H1137 0.959 . S
C1153 H1138 0.959 . S
C1153 H1139 0.961 . S
C1153 C1152 1.502 . S
C1154 H1140 0.960 . S
C1154 H1141 0.961 . S
C1154 H1142 0.959 . S
C1154 C1152 1.561 . S
C1155 C1152 1.526 . S
C1155 C1156 1.396 . S
C1155 C1160 1.390 . S
C1156 C1150 1.465 1_655 S
C1156 C1155 1.396 . S
C1156 C1157 1.399 . S
C1157 H1143 0.929 . S
C1157 C1156 1.399 . S
C1157 C1158 1.385 . S
C1158 H1144 0.931 . S
C1158 C1157 1.385 . S
C1158 C1159 1.389 . S
C1159 C1158 1.389 . S
C1159 C1160 1.387 . S
C1160 H1145 0.930 . S
C1160 C1155 1.390 . S
C1160 C1159 1.387 . S
H1161 C1173 0.930 . S
H1162 C1175 0.930 . S
H1163 C1176 0.930 . S
H1164 C1180 0.959 . S
H1165 C1180 0.959 . S
H1166 C1180 0.961 . S
H1167 C1181 0.960 . S
H1168 C1181 0.961 . S
H1169 C1181 0.959 . S
H1170 C1184 0.929 . S
H1171 C1185 0.931 . S
H1172 C1187 0.930 . S
C1173 H1161 0.930 . S
C1173 C1174 1.399 . S
C1173 C1178 1.399 . S
C1174 C1173 1.399 . S
C1174 C1175 1.376 . S
C1175 H1162 0.930 . S
C1175 C1174 1.376 . S
C1175 C1176 1.388 . S
C1176 H1163 0.930 . S
C1176 C1175 1.388 . S
C1176 C1177 1.390 . S
C1177 C1176 1.390 . S
C1177 C1178 1.394 . S
C1177 C1183 1.465 . S
C1178 C1173 1.399 . S
C1178 C1177 1.394 . S
C1178 C1179 1.516 . S
C1179 C1178 1.516 . S
C1179 C1180 1.502 . S
C1179 C1181 1.561 . S
C1179 C1182 1.526 . S
C1180 H1164 0.959 . S
C1180 H1165 0.959 . S
C1180 H1166 0.961 . S
C1180 C1179 1.502 . S
C1181 H1167 0.960 . S
C1181 H1168 0.961 . S
C1181 H1169 0.959 . S
C1181 C1179 1.561 . S
C1182 C1179 1.526 . S
C1182 C1183 1.396 . S
C1182 C1187 1.390 . S
C1183 C1177 1.465 . S
C1183 C1182 1.396 . S
C1183 C1184 1.399 . S
C1184 H1170 0.929 . S
C1184 C1183 1.399 . S
C1184 C1185 1.385 . S
C1185 H1171 0.931 . S
C1185 C1184 1.385 . S
C1185 C1186 1.389 . S
C1186 C1185 1.389 . S
C1186 C1187 1.387 . S
C1187 H1172 0.930 . S
C1187 C1182 1.390 . S
C1187 C1186 1.387 . S
H1188 C1200 0.930 . S
H1189 C1202 0.930 . S
H1190 C1203 0.930 . S
H1191 C1207 0.959 . S
H1192 C1207 0.959 . S
H1193 C1207 0.961 1_455 S
H1194 C1208 0.960 1_455 S
H1195 C1208 0.961 . S
H1196 C1208 0.959 . S
H1197 C1211 0.929 . S
H1198 C1212 0.931 . S
H1199 C1214 0.930 . S
C1200 H1188 0.930 . S
C1200 C1201 1.399 . S
C1200 C1205 1.399 . S
C1201 C1200 1.399 . S
C1201 C1202 1.376 . S
C1202 H1189 0.930 . S
C1202 C1201 1.376 . S
C1202 C1203 1.388 1_455 S
C1203 H1190 0.930 . S
C1203 C1202 1.388 1_655 S
C1203 C1204 1.390 . S
C1204 C1203 1.390 . S
C1204 C1205 1.394 1_655 S
C1204 C1210 1.465 . S
C1205 C1200 1.399 . S
C1205 C1204 1.394 1_455 S
C1205 C1206 1.516 1_455 S
C1206 C1205 1.516 1_655 S
C1206 C1207 1.502 . S
C1206 C1208 1.561 . S
C1206 C1209 1.526 . S
C1207 H1191 0.959 . S
C1207 H1192 0.959 . S
C1207 H1193 0.961 1_655 S
C1207 C1206 1.502 . S
C1208 H1194 0.960 1_655 S
C1208 H1195 0.961 . S
C1208 H1196 0.959 . S
C1208 C1206 1.561 . S
C1209 C1206 1.526 . S
C1209 C1210 1.396 . S
C1209 C1214 1.390 . S
C1210 C1204 1.465 . S
C1210 C1209 1.396 . S
C1210 C1211 1.399 . S
C1211 H1197 0.929 . S
C1211 C1210 1.399 . S
C1211 C1212 1.385 . S
C1212 H1198 0.931 . S
C1212 C1211 1.385 . S
C1212 C1213 1.389 . S
C1213 C1212 1.389 . S
C1213 C1214 1.387 . S
C1214 H1199 0.930 . S
C1214 C1209 1.390 . S
C1214 C1213 1.387 . S
H1215 C1227 0.930 . S
H1216 C1229 0.930 . S
H1217 C1230 0.930 . S
H1218 C1234 0.959 . S
H1219 C1234 0.959 . S
H1220 C1234 0.961 . S
H1221 C1235 0.960 . S
H1222 C1235 0.961 . S
H1223 C1235 0.959 . S
H1224 C1238 0.929 . S
H1225 C1239 0.931 . S
H1226 C1241 0.930 . S
C1227 H1215 0.930 . S
C1227 C1228 1.399 . S
C1227 C1232 1.399 . S
C1228 C1227 1.399 . S
C1228 C1229 1.376 . S
C1229 H1216 0.930 . S
C1229 C1228 1.376 . S
C1229 C1230 1.388 . S
C1230 H1217 0.930 . S
C1230 C1229 1.388 . S
C1230 C1231 1.390 . S
C1231 C1230 1.390 . S
C1231 C1232 1.394 . S
C1231 C1237 1.465 . S
C1232 C1227 1.399 . S
C1232 C1231 1.394 . S
C1232 C1233 1.516 . S
C1233 C1232 1.516 . S
C1233 C1234 1.502 . S
C1233 C1235 1.561 . S
C1233 C1236 1.526 . S
C1234 H1218 0.959 . S
C1234 H1219 0.959 . S
C1234 H1220 0.961 . S
C1234 C1233 1.502 . S
C1235 H1221 0.960 . S
C1235 H1222 0.961 . S
C1235 H1223 0.959 . S
C1235 C1233 1.561 . S
C1236 C1233 1.526 . S
C1236 C1237 1.396 . S
C1236 C1241 1.390 . S
C1237 C1231 1.465 . S
C1237 C1236 1.396 . S
C1237 C1238 1.399 . S
C1238 H1224 0.929 . S
C1238 C1237 1.399 . S
C1238 C1239 1.385 . S
C1239 H1225 0.931 . S
C1239 C1238 1.385 . S
C1239 C1240 1.389 . S
C1240 C1239 1.389 . S
C1240 C1241 1.387 . S
C1241 H1226 0.930 . S
C1241 C1236 1.390 . S
C1241 C1240 1.387 . S
H1242 C1254 0.930 . S
H1243 C1256 0.930 . S
H1244 C1257 0.930 1_545 S
H1245 C1261 0.959 . S
H1246 C1261 0.959 . S
H1247 C1261 0.961 . S
H1248 C1262 0.960 . S
H1249 C1262 0.961 . S
H1250 C1262 0.959 . S
H1251 C1265 0.929 . S
H1252 C1266 0.931 . S
H1253 C1268 0.930 . S
C1254 H1242 0.930 . S
C1254 C1255 1.399 . S
C1254 C1259 1.399 1_565 S
C1255 C1254 1.399 . S
C1255 C1256 1.376 . S
C1256 H1243 0.930 . S
C1256 C1255 1.376 . S
C1256 C1257 1.388 . S
C1257 H1244 0.930 1_565 S
C1257 C1256 1.388 . S
C1257 C1258 1.390 1_565 S
C1258 C1257 1.390 1_545 S
C1258 C1259 1.394 . S
C1258 C1264 1.465 . S
C1259 C1254 1.399 1_545 S
C1259 C1258 1.394 . S
C1259 C1260 1.516 . S
C1260 C1259 1.516 . S
C1260 C1261 1.502 . S
C1260 C1262 1.561 . S
C1260 C1263 1.526 . S
C1261 H1245 0.959 . S
C1261 H1246 0.959 . S
C1261 H1247 0.961 . S
C1261 C1260 1.502 . S
C1262 H1248 0.960 . S
C1262 H1249 0.961 . S
C1262 H1250 0.959 . S
C1262 C1260 1.561 . S
C1263 C1260 1.526 . S
C1263 C1264 1.396 . S
C1263 C1268 1.390 . S
C1264 C1258 1.465 . S
C1264 C1263 1.396 . S
C1264 C1265 1.399 . S
C1265 H1251 0.929 . S
C1265 C1264 1.399 . S
C1265 C1266 1.385 . S
C1266 H1252 0.931 . S
C1266 C1265 1.385 . S
C1266 C1267 1.389 . S
C1267 C1266 1.389 . S
C1267 C1268 1.387 . S
C1268 H1253 0.930 . S
C1268 C1263 1.390 . S
C1268 C1267 1.387 . S
H1269 C1281 0.930 . S
H1270 C1283 0.930 . S
H1271 C1284 0.930 . S
H1272 C1288 0.959 . S
H1273 C1288 0.959 . S
H1274 C1288 0.961 . S
H1275 C1289 0.960 . S
H1276 C1289 0.961 . S
H1277 C1289 0.959 . S
H1278 C1292 0.929 . S
H1279 C1293 0.931 . S
H1280 C1295 0.930 . S
C1281 H1269 0.930 . S
C1281 C1282 1.399 . S
C1281 C1286 1.399 . S
C1282 C1281 1.399 . S
C1282 C1283 1.376 . S
C1283 H1270 0.930 . S
C1283 C1282 1.376 . S
C1283 C1284 1.388 . S
C1284 H1271 0.930 . S
C1284 C1283 1.388 . S
C1284 C1285 1.390 . S
C1285 C1284 1.390 . S
C1285 C1286 1.394 . S
C1285 C1291 1.465 . S
C1286 C1281 1.399 . S
C1286 C1285 1.394 . S
C1286 C1287 1.516 . S
C1287 C1286 1.516 . S
C1287 C1288 1.502 . S
C1287 C1289 1.561 . S
C1287 C1290 1.526 . S
C1288 H1272 0.959 . S
C1288 H1273 0.959 . S
C1288 H1274 0.961 . S
C1288 C1287 1.502 . S
C1289 H1275 0.960 . S
C1289 H1276 0.961 . S
C1289 H1277 0.959 . S
C1289 C1287 1.561 . S
C1290 C1287 1.526 . S
C1290 C1291 1.396 . S
C1290 C1295 1.390 . S
C1291 C1285 1.465 . S
C1291 C1290 1.396 . S
C1291 C1292 1.399 . S
C1292 H1278 0.929 . S
C1292 C1291 1.399 . S
C1292 C1293 1.385 . S
C1293 H1279 0.931 . S
C1293 C1292 1.385 . S
C1293 C1294 1.389 . S
C1294 C1293 1.389 . S
C1294 C1295 1.387 . S
C1295 H1280 0.930 . S
C1295 C1290 1.390 . S
C1295 C1294 1.387 . S
H1296 C1308 0.930 . S
H1297 C1310 0.930 . S
H1298 C1311 0.930 . S
H1299 C1315 0.959 . S
H1300 C1315 0.959 . S
H1301 C1315 0.961 . S
H1302 C1316 0.960 . S
H1303 C1316 0.961 . S
H1304 C1316 0.959 . S
H1305 C1319 0.929 . S
H1306 C1320 0.931 . S
H1307 C1322 0.930 . S
C1308 H1296 0.930 . S
C1308 C1309 1.399 . S
C1308 C1313 1.399 . S
C1309 C1308 1.399 . S
C1309 C1310 1.376 . S
C1310 H1297 0.930 . S
C1310 C1309 1.376 . S
C1310 C1311 1.388 . S
C1311 H1298 0.930 . S
C1311 C1310 1.388 . S
C1311 C1312 1.390 . S
C1312 C1311 1.390 . S
C1312 C1313 1.394 . S
C1312 C1318 1.465 . S
C1313 C1308 1.399 . S
C1313 C1312 1.394 . S
C1313 C1314 1.516 . S
C1314 C1313 1.516 . S
C1314 C1315 1.502 . S
C1314 C1316 1.561 . S
C1314 C1317 1.526 . S
C1315 H1299 0.959 . S
C1315 H1300 0.959 . S
C1315 H1301 0.961 . S
C1315 C1314 1.502 . S
C1316 H1302 0.960 . S
C1316 H1303 0.961 . S
C1316 H1304 0.959 . S
C1316 C1314 1.561 . S
C1317 C1314 1.526 . S
C1317 C1318 1.396 . S
C1317 C1322 1.390 . S
C1318 C1312 1.465 . S
C1318 C1317 1.396 . S
C1318 C1319 1.399 . S
C1319 H1305 0.929 . S
C1319 C1318 1.399 . S
C1319 C1320 1.385 . S
C1320 H1306 0.931 . S
C1320 C1319 1.385 . S
C1320 C1321 1.389 . S
C1321 C1320 1.389 . S
C1321 C1322 1.387 . S
C1322 H1307 0.930 . S
C1322 C1317 1.390 . S
C1322 C1321 1.387 . S
H1323 C1335 0.930 . S
H1324 C1337 0.930 . S
H1325 C1338 0.930 . S
H1326 C1342 0.959 . S
H1327 C1342 0.959 . S
H1328 C1342 0.961 . S
H1329 C1343 0.960 . S
H1330 C1343 0.961 . S
H1331 C1343 0.959 . S
H1332 C1346 0.929 . S
H1333 C1347 0.931 . S
H1334 C1349 0.930 . S
C1335 H1323 0.930 . S
C1335 C1336 1.399 . S
C1335 C1340 1.399 . S
C1336 C1335 1.399 . S
C1336 C1337 1.376 . S
C1337 H1324 0.930 . S
C1337 C1336 1.376 . S
C1337 C1338 1.388 . S
C1338 H1325 0.930 . S
C1338 C1337 1.388 . S
C1338 C1339 1.390 . S
C1339 C1338 1.390 . S
C1339 C1340 1.394 . S
C1339 C1345 1.465 . S
C1340 C1335 1.399 . S
C1340 C1339 1.394 . S
C1340 C1341 1.516 . S
C1341 C1340 1.516 . S
C1341 C1342 1.502 . S
C1341 C1343 1.561 . S
C1341 C1344 1.526 . S
C1342 H1326 0.959 . S
C1342 H1327 0.959 . S
C1342 H1328 0.961 . S
C1342 C1341 1.502 . S
C1343 H1329 0.960 . S
C1343 H1330 0.961 . S
C1343 H1331 0.959 . S
C1343 C1341 1.561 . S
C1344 C1341 1.526 . S
C1344 C1345 1.396 . S
C1344 C1349 1.390 . S
C1345 C1339 1.465 . S
C1345 C1344 1.396 . S
C1345 C1346 1.399 . S
C1346 H1332 0.929 . S
C1346 C1345 1.399 . S
C1346 C1347 1.385 . S
C1347 H1333 0.931 . S
C1347 C1346 1.385 . S
C1347 C1348 1.389 . S
C1348 C1347 1.389 . S
C1348 C1349 1.387 . S
C1349 H1334 0.930 . S
C1349 C1344 1.390 . S
C1349 C1348 1.387 . S
H1350 C1362 0.930 . S
H1351 C1364 0.930 . S
H1352 C1365 0.930 1_545 S
H1353 C1369 0.959 . S
H1354 C1369 0.959 . S
H1355 C1369 0.961 . S
H1356 C1370 0.960 . S
H1357 C1370 0.961 . S
H1358 C1370 0.959 . S
H1359 C1373 0.929 . S
H1360 C1374 0.931 . S
H1361 C1376 0.930 . S
C1362 H1350 0.930 . S
C1362 C1363 1.399 . S
C1362 C1367 1.399 . S
C1363 C1362 1.399 . S
C1363 C1364 1.376 . S
C1364 H1351 0.930 . S
C1364 C1363 1.376 . S
C1364 C1365 1.388 . S
C1365 H1352 0.930 1_565 S
C1365 C1364 1.388 . S
C1365 C1366 1.390 . S
C1366 C1365 1.390 . S
C1366 C1367 1.394 . S
C1366 C1372 1.465 . S
C1367 C1362 1.399 . S
C1367 C1366 1.394 . S
C1367 C1368 1.516 . S
C1368 C1367 1.516 . S
C1368 C1369 1.502 . S
C1368 C1370 1.561 . S
C1368 C1371 1.526 . S
C1369 H1353 0.959 . S
C1369 H1354 0.959 . S
C1369 H1355 0.961 . S
C1369 C1368 1.502 . S
C1370 H1356 0.960 . S
C1370 H1357 0.961 . S
C1370 H1358 0.959 . S
C1370 C1368 1.561 . S
C1371 C1368 1.526 . S
C1371 C1372 1.396 . S
C1371 C1376 1.390 . S
C1372 C1366 1.465 . S
C1372 C1371 1.396 . S
C1372 C1373 1.399 1_565 S
C1373 H1359 0.929 . S
C1373 C1372 1.399 1_545 S
C1373 C1374 1.385 . S
C1374 H1360 0.931 . S
C1374 C1373 1.385 . S
C1374 C1375 1.389 1_545 S
C1375 C1374 1.389 1_565 S
C1375 C1376 1.387 . S
C1376 H1361 0.930 . S
C1376 C1371 1.390 . S
C1376 C1375 1.387 . S
H1377 C1389 0.930 . S
H1378 C1391 0.930 . S
H1379 C1392 0.930 . S
H1380 C1396 0.959 . S
H1381 C1396 0.959 . S
H1382 C1396 0.961 . S
H1383 C1397 0.960 . S
H1384 C1397 0.961 . S
H1385 C1397 0.959 . S
H1386 C1400 0.929 . S
H1387 C1401 0.931 . S
H1388 C1403 0.930 . S
C1389 H1377 0.930 . S
C1389 C1390 1.399 . S
C1389 C1394 1.399 . S
C1390 C1389 1.399 . S
C1390 C1391 1.376 . S
C1391 H1378 0.930 . S
C1391 C1390 1.376 . S
C1391 C1392 1.388 . S
C1392 H1379 0.930 . S
C1392 C1391 1.388 . S
C1392 C1393 1.390 . S
C1393 C1392 1.390 . S
C1393 C1394 1.394 . S
C1393 C1399 1.465 . S
C1394 C1389 1.399 . S
C1394 C1393 1.394 . S
C1394 C1395 1.516 . S
C1395 C1394 1.516 . S
C1395 C1396 1.502 . S
C1395 C1397 1.561 . S
C1395 C1398 1.526 . S
C1396 H1380 0.959 . S
C1396 H1381 0.959 . S
C1396 H1382 0.961 . S
C1396 C1395 1.502 . S
C1397 H1383 0.960 . S
C1397 H1384 0.961 . S
C1397 H1385 0.959 . S
C1397 C1395 1.561 . S
C1398 C1395 1.526 . S
C1398 C1399 1.396 . S
C1398 C1403 1.390 . S
C1399 C1393 1.465 . S
C1399 C1398 1.396 . S
C1399 C1400 1.399 . S
C1400 H1386 0.929 . S
C1400 C1399 1.399 . S
C1400 C1401 1.385 . S
C1401 H1387 0.931 . S
C1401 C1400 1.385 . S
C1401 C1402 1.389 . S
C1402 C1401 1.389 . S
C1402 C1403 1.387 . S
C1403 H1388 0.930 . S
C1403 C1398 1.390 . S
C1403 C1402 1.387 . S
H1404 C1416 0.930 . S
H1405 C1418 0.930 . S
H1406 C1419 0.930 . S
H1407 C1423 0.959 . S
H1408 C1423 0.959 . S
H1409 C1423 0.961 . S
H1410 C1424 0.960 . S
H1411 C1424 0.961 . S
H1412 C1424 0.959 . S
H1413 C1427 0.929 . S
H1414 C1428 0.931 . S
H1415 C1430 0.930 . S
C1416 H1404 0.930 . S
C1416 C1417 1.399 . S
C1416 C1421 1.399 . S
C1417 C1416 1.399 . S
C1417 C1418 1.376 . S
C1418 H1405 0.930 . S
C1418 C1417 1.376 . S
C1418 C1419 1.388 . S
C1419 H1406 0.930 . S
C1419 C1418 1.388 . S
C1419 C1420 1.390 . S
C1420 C1419 1.390 . S
C1420 C1421 1.394 . S
C1420 C1426 1.465 . S
C1421 C1416 1.399 . S
C1421 C1420 1.394 . S
C1421 C1422 1.516 . S
C1422 C1421 1.516 . S
C1422 C1423 1.502 . S
C1422 C1424 1.561 . S
C1422 C1425 1.526 . S
C1423 H1407 0.959 . S
C1423 H1408 0.959 . S
C1423 H1409 0.961 . S
C1423 C1422 1.502 . S
C1424 H1410 0.960 . S
C1424 H1411 0.961 . S
C1424 H1412 0.959 . S
C1424 C1422 1.561 . S
C1425 C1422 1.526 . S
C1425 C1426 1.396 . S
C1425 C1430 1.390 . S
C1426 C1420 1.465 . S
C1426 C1425 1.396 . S
C1426 C1427 1.399 . S
C1427 H1413 0.929 . S
C1427 C1426 1.399 . S
C1427 C1428 1.385 . S
C1428 H1414 0.931 . S
C1428 C1427 1.385 . S
C1428 C1429 1.389 . S
C1429 C1428 1.389 . S
C1429 C1430 1.387 . S
C1430 H1415 0.930 . S
C1430 C1425 1.390 . S
C1430 C1429 1.387 . S
H1431 C1443 0.930 . S
H1432 C1445 0.930 . S
H1433 C1446 0.930 . S
H1434 C1450 0.959 . S
H1435 C1450 0.959 . S
H1436 C1450 0.961 . S
H1437 C1451 0.960 . S
H1438 C1451 0.961 . S
H1439 C1451 0.959 . S
H1440 C1454 0.929 1_455 S
H1441 C1455 0.931 1_455 S
H1442 C1457 0.930 . S
C1443 H1431 0.930 . S
C1443 C1444 1.399 . S
C1443 C1448 1.399 . S
C1444 C1443 1.399 . S
C1444 C1445 1.376 . S
C1445 H1432 0.930 . S
C1445 C1444 1.376 . S
C1445 C1446 1.388 . S
C1446 H1433 0.930 . S
C1446 C1445 1.388 . S
C1446 C1447 1.390 . S
C1447 C1446 1.390 . S
C1447 C1448 1.394 . S
C1447 C1453 1.465 . S
C1448 C1443 1.399 . S
C1448 C1447 1.394 . S
C1448 C1449 1.516 . S
C1449 C1448 1.516 . S
C1449 C1450 1.502 . S
C1449 C1451 1.561 . S
C1449 C1452 1.526 . S
C1450 H1434 0.959 . S
C1450 H1435 0.959 . S
C1450 H1436 0.961 . S
C1450 C1449 1.502 . S
C1451 H1437 0.960 . S
C1451 H1438 0.961 . S
C1451 H1439 0.959 . S
C1451 C1449 1.561 . S
C1452 C1449 1.526 . S
C1452 C1453 1.396 . S
C1452 C1457 1.390 . S
C1453 C1447 1.465 . S
C1453 C1452 1.396 . S
C1453 C1454 1.399 . S
C1454 H1440 0.929 1_655 S
C1454 C1453 1.399 . S
C1454 C1455 1.385 . S
C1455 H1441 0.931 1_655 S
C1455 C1454 1.385 . S
C1455 C1456 1.389 . S
C1456 C1455 1.389 . S
C1456 C1457 1.387 . S
C1457 H1442 0.930 . S
C1457 C1452 1.390 . S
C1457 C1456 1.387 . S
H1458 C1470 0.930 . S
H1459 C1472 0.930 . S
H1460 C1473 0.930 . S
H1461 C1477 0.959 . S
H1462 C1477 0.959 . S
H1463 C1477 0.961 . S
H1464 C1478 0.960 . S
H1465 C1478 0.961 . S
H1466 C1478 0.959 . S
H1467 C1481 0.929 . S
H1468 C1482 0.931 . S
H1469 C1484 0.930 . S
C1470 H1458 0.930 . S
C1470 C1471 1.399 . S
C1470 C1475 1.399 . S
C1471 C1470 1.399 . S
C1471 C1472 1.376 . S
C1472 H1459 0.930 . S
C1472 C1471 1.376 . S
C1472 C1473 1.388 . S
C1473 H1460 0.930 . S
C1473 C1472 1.388 . S
C1473 C1474 1.390 . S
C1474 C1473 1.390 . S
C1474 C1475 1.394 . S
C1474 C1480 1.465 . S
C1475 C1470 1.399 . S
C1475 C1474 1.394 . S
C1475 C1476 1.516 . S
C1476 C1475 1.516 . S
C1476 C1477 1.502 . S
C1476 C1478 1.561 . S
C1476 C1479 1.526 . S
C1477 H1461 0.959 . S
C1477 H1462 0.959 . S
C1477 H1463 0.961 . S
C1477 C1476 1.502 . S
C1478 H1464 0.960 . S
C1478 H1465 0.961 . S
C1478 H1466 0.959 . S
C1478 C1476 1.561 . S
C1479 C1476 1.526 . S
C1479 C1480 1.396 . S
C1479 C1484 1.390 . S
C1480 C1474 1.465 . S
C1480 C1479 1.396 . S
C1480 C1481 1.399 . S
C1481 H1467 0.929 . S
C1481 C1480 1.399 . S
C1481 C1482 1.385 . S
C1482 H1468 0.931 . S
C1482 C1481 1.385 . S
C1482 C1483 1.389 . S
C1483 C1482 1.389 . S
C1483 C1484 1.387 . S
C1484 H1469 0.930 . S
C1484 C1479 1.390 . S
C1484 C1483 1.387 . S
H1485 C1497 0.930 . S
H1486 C1499 0.930 . S
H1487 C1500 0.930 . S
H1488 C1504 0.959 . S
H1489 C1504 0.959 . S
H1490 C1504 0.961 . S
H1491 C1505 0.960 . S
H1492 C1505 0.961 . S
H1493 C1505 0.959 . S
H1494 C1508 0.924 1_565 S
H1495 C1509 0.931 . S
H1496 C1511 0.930 . S
C1497 H1485 0.930 . S
C1497 C1498 1.399 . S
C1497 C1502 1.399 . S
C1498 C1497 1.399 . S
C1498 C1499 1.376 . S
C1499 H1486 0.930 . S
C1499 C1498 1.376 . S
C1499 C1500 1.388 . S
C1500 H1487 0.930 . S
C1500 C1499 1.388 . S
C1500 C1501 1.390 . S
C1501 C1500 1.390 . S
C1501 C1502 1.394 . S
C1501 C1507 1.465 . S
C1502 C1497 1.399 . S
C1502 C1501 1.394 . S
C1502 C1503 1.516 . S
C1503 C1502 1.516 . S
C1503 C1504 1.502 . S
C1503 C1505 1.561 . S
C1503 C1506 1.526 . S
C1504 H1488 0.959 . S
C1504 H1489 0.959 . S
C1504 H1490 0.961 . S
C1504 C1503 1.502 . S
C1505 H1491 0.960 . S
C1505 H1492 0.961 . S
C1505 H1493 0.959 . S
C1505 C1503 1.561 . S
C1506 C1503 1.526 . S
C1506 C1507 1.396 . S
C1506 C1511 1.390 . S
C1507 C1501 1.465 . S
C1507 C1506 1.396 . S
C1507 C1508 1.407 . S
C1508 H1494 0.924 1_545 S
C1508 C1507 1.407 . S
C1508 C1509 1.382 1_545 S
C1509 H1495 0.931 . S
C1509 C1508 1.382 1_565 S
C1509 C1510 1.389 1_565 S
C1510 C1509 1.389 1_545 S
C1510 C1511 1.387 . S
C1511 H1496 0.930 . S
C1511 C1506 1.390 . S
C1511 C1510 1.387 . S
H1512 C1524 0.930 . S
H1513 C1526 0.930 . S
H1514 C1527 0.930 . S
H1515 C1531 0.959 . S
H1516 C1531 0.959 . S
H1517 C1531 0.961 . S
H1518 C1532 0.960 . S
H1519 C1532 0.961 . S
H1520 C1532 0.959 . S
H1521 C1535 0.929 . S
H1522 C1536 0.931 . S
H1523 C1538 0.930 . S
C1524 H1512 0.930 . S
C1524 C1525 1.399 . S
C1524 C1529 1.399 . S
C1525 C1524 1.399 . S
C1525 C1526 1.376 . S
C1526 H1513 0.930 . S
C1526 C1525 1.376 . S
C1526 C1527 1.388 . S
C1527 H1514 0.930 . S
C1527 C1526 1.388 . S
C1527 C1528 1.390 . S
C1528 C1527 1.390 . S
C1528 C1529 1.394 . S
C1528 C1534 1.465 . S
C1529 C1524 1.399 . S
C1529 C1528 1.394 . S
C1529 C1530 1.516 . S
C1530 C1529 1.516 . S
C1530 C1531 1.502 . S
C1530 C1532 1.561 . S
C1530 C1533 1.526 . S
C1531 H1515 0.959 . S
C1531 H1516 0.959 . S
C1531 H1517 0.961 . S
C1531 C1530 1.502 . S
C1532 H1518 0.960 . S
C1532 H1519 0.961 . S
C1532 H1520 0.959 . S
C1532 C1530 1.561 . S
C1533 C1530 1.526 . S
C1533 C1534 1.396 . S
C1533 C1538 1.390 . S
C1534 C1528 1.465 . S
C1534 C1533 1.396 . S
C1534 C1535 1.399 . S
C1535 H1521 0.929 . S
C1535 C1534 1.399 . S
C1535 C1536 1.385 . S
C1536 H1522 0.931 . S
C1536 C1535 1.385 . S
C1536 C1537 1.389 . S
C1537 C1536 1.389 . S
C1537 C1538 1.387 . S
C1538 H1523 0.930 . S
C1538 C1533 1.390 . S
C1538 C1537 1.387 . S
H1539 C1551 0.930 . S
H1540 C1553 0.930 . S
H1541 C1554 0.930 . S
H1542 C1558 0.959 . S
H1543 C1558 0.959 . S
H1544 C1558 0.961 . S
H1545 C1559 0.960 . S
H1546 C1559 0.961 . S
H1547 C1559 0.959 . S
H1548 C1562 0.929 . S
H1549 C1563 0.931 . S
H1550 C1565 0.930 . S
C1551 H1539 0.930 . S
C1551 C1552 1.399 . S
C1551 C1556 1.399 . S
C1552 C1551 1.399 . S
C1552 C1553 1.376 . S
C1553 H1540 0.930 . S
C1553 C1552 1.376 . S
C1553 C1554 1.388 . S
C1554 H1541 0.930 . S
C1554 C1553 1.388 . S
C1554 C1555 1.390 . S
C1555 C1554 1.390 . S
C1555 C1556 1.394 . S
C1555 C1561 1.465 . S
C1556 C1551 1.399 . S
C1556 C1555 1.394 . S
C1556 C1557 1.516 . S
C1557 C1556 1.516 . S
C1557 C1558 1.502 . S
C1557 C1559 1.561 . S
C1557 C1560 1.526 . S
C1558 H1542 0.959 . S
C1558 H1543 0.959 . S
C1558 H1544 0.961 . S
C1558 C1557 1.502 . S
C1559 H1545 0.960 . S
C1559 H1546 0.961 . S
C1559 H1547 0.959 . S
C1559 C1557 1.561 . S
C1560 C1557 1.526 . S
C1560 C1561 1.396 . S
C1560 C1565 1.390 . S
C1561 C1555 1.465 . S
C1561 C1560 1.396 . S
C1561 C1562 1.399 . S
C1562 H1548 0.929 . S
C1562 C1561 1.399 . S
C1562 C1563 1.385 . S
C1563 H1549 0.931 . S
C1563 C1562 1.385 . S
C1563 C1564 1.389 . S
C1564 C1563 1.389 . S
C1564 C1565 1.387 . S
C1565 H1550 0.930 . S
C1565 C1560 1.390 . S
C1565 C1564 1.387 . S
H1566 C1578 0.930 . S
H1567 C1580 0.930 . S
H1568 C1581 0.930 . S
H1569 C1585 0.959 . S
H1570 C1585 0.959 . S
H1571 C1585 0.961 . S
H1572 C1586 0.960 . S
H1573 C1586 0.961 . S
H1574 C1586 0.959 . S
H1575 C1589 0.929 . S
H1576 C1590 0.931 . S
H1577 C1592 0.930 . S
C1578 H1566 0.930 . S
C1578 C1579 1.399 . S
C1578 C1583 1.399 . S
C1579 C1578 1.399 . S
C1579 C1580 1.376 . S
C1580 H1567 0.930 . S
C1580 C1579 1.376 . S
C1580 C1581 1.388 . S
C1581 H1568 0.930 . S
C1581 C1580 1.388 . S
C1581 C1582 1.390 . S
C1582 C1581 1.390 . S
C1582 C1583 1.394 . S
C1582 C1588 1.465 . S
C1583 C1578 1.399 . S
C1583 C1582 1.394 . S
C1583 C1584 1.516 . S
C1584 C1583 1.516 . S
C1584 C1585 1.502 . S
C1584 C1586 1.561 . S
C1584 C1587 1.526 . S
C1585 H1569 0.959 . S
C1585 H1570 0.959 . S
C1585 H1571 0.961 . S
C1585 C1584 1.502 . S
C1586 H1572 0.960 . S
C1586 H1573 0.961 . S
C1586 H1574 0.959 . S
C1586 C1584 1.561 . S
C1587 C1584 1.526 . S
C1587 C1588 1.396 . S
C1587 C1592 1.390 . S
C1588 C1582 1.465 . S
C1588 C1587 1.396 . S
C1588 C1589 1.399 . S
C1589 H1575 0.929 . S
C1589 C1588 1.399 . S
C1589 C1590 1.385 . S
C1590 H1576 0.931 . S
C1590 C1589 1.385 . S
C1590 C1591 1.389 . S
C1591 C1590 1.389 . S
C1591 C1592 1.387 . S
C1592 H1577 0.930 . S
C1592 C1587 1.390 . S
C1592 C1591 1.387 . S
H1593 C1605 0.930 . S
H1594 C1607 0.930 . S
H1595 C1608 0.930 . S
H1596 C1612 0.959 . S
H1597 C1612 0.959 . S
H1598 C1612 0.961 . S
H1599 C1613 0.960 . S
H1600 C1613 0.961 . S
H1601 C1613 0.959 . S
H1602 C1616 0.929 . S
H1603 C1617 0.931 . S
H1604 C1619 0.930 . S
C1605 H1593 0.930 . S
C1605 C1606 1.399 . S
C1605 C1610 1.399 . S
C1606 C1605 1.399 . S
C1606 C1607 1.376 . S
C1607 H1594 0.930 . S
C1607 C1606 1.376 . S
C1607 C1608 1.388 . S
C1608 H1595 0.930 . S
C1608 C1607 1.388 . S
C1608 C1609 1.390 . S
C1609 C1608 1.390 . S
C1609 C1610 1.394 . S
C1609 C1615 1.465 . S
C1610 C1605 1.399 . S
C1610 C1609 1.394 . S
C1610 C1611 1.516 . S
C1611 C1610 1.516 . S
C1611 C1612 1.502 . S
C1611 C1613 1.561 . S
C1611 C1614 1.526 . S
C1612 H1596 0.959 . S
C1612 H1597 0.959 . S
C1612 H1598 0.961 . S
C1612 C1611 1.502 . S
C1613 H1599 0.960 . S
C1613 H1600 0.961 . S
C1613 H1601 0.959 . S
C1613 C1611 1.561 . S
C1614 C1611 1.526 . S
C1614 C1615 1.396 . S
C1614 C1619 1.390 . S
C1615 C1609 1.465 . S
C1615 C1614 1.396 . S
C1615 C1616 1.399 . S
C1616 H1602 0.929 . S
C1616 C1615 1.399 . S
C1616 C1617 1.385 . S
C1617 H1603 0.931 . S
C1617 C1616 1.385 . S
C1617 C1618 1.389 . S
C1618 C1617 1.389 . S
C1618 C1619 1.387 . S
C1619 H1604 0.930 . S
C1619 C1614 1.390 . S
C1619 C1618 1.387 . S
H1620 C1632 0.930 . S
H1621 C1634 0.930 . S
H1622 C1635 0.930 . S
H1623 C1639 0.959 . S
H1624 C1639 0.959 . S
H1625 C1639 0.961 . S
H1626 C1640 0.960 . S
H1627 C1640 0.961 . S
H1628 C1640 0.959 . S
H1629 C1643 0.929 . S
H1630 C1644 0.931 . S
H1631 C1646 0.930 . S
C1632 H1620 0.930 . S
C1632 C1633 1.399 . S
C1632 C1637 1.399 . S
C1633 C1632 1.399 . S
C1633 C1634 1.376 . S
C1634 H1621 0.930 . S
C1634 C1633 1.376 . S
C1634 C1635 1.388 . S
C1635 H1622 0.930 . S
C1635 C1634 1.388 . S
C1635 C1636 1.390 . S
C1636 C1635 1.390 . S
C1636 C1637 1.394 . S
C1636 C1642 1.465 . S
C1637 C1632 1.399 . S
C1637 C1636 1.394 . S
C1637 C1638 1.516 . S
C1638 C1637 1.516 . S
C1638 C1639 1.502 . S
C1638 C1640 1.561 . S
C1638 C1641 1.526 . S
C1639 H1623 0.959 . S
C1639 H1624 0.959 . S
C1639 H1625 0.961 . S
C1639 C1638 1.502 . S
C1640 H1626 0.960 . S
C1640 H1627 0.961 . S
C1640 H1628 0.959 . S
C1640 C1638 1.561 . S
C1641 C1638 1.526 . S
C1641 C1642 1.396 . S
C1641 C1646 1.390 . S
C1642 C1636 1.465 . S
C1642 C1641 1.396 . S
C1642 C1643 1.399 . S
C1643 H1629 0.929 . S
C1643 C1642 1.399 . S
C1643 C1644 1.385 . S
C1644 H1630 0.931 . S
C1644 C1643 1.385 . S
C1644 C1645 1.389 . S
C1645 C1644 1.389 . S
C1645 C1646 1.387 . S
C1646 H1631 0.930 . S
C1646 C1641 1.390 . S
C1646 C1645 1.387 . S
H1647 C1659 0.930 . S
H1648 C1661 0.930 . S
H1649 C1662 0.930 . S
H1650 C1666 0.959 . S
H1651 C1666 0.959 . S
H1652 C1666 0.961 . S
H1653 C1667 0.960 . S
H1654 C1667 0.961 . S
H1655 C1667 0.959 . S
H1656 C1670 0.929 . S
H1657 C1671 0.931 . S
H1658 C1673 0.930 . S
C1659 H1647 0.930 . S
C1659 C1660 1.399 . S
C1659 C1664 1.399 . S
C1660 C1659 1.399 . S
C1660 C1661 1.376 . S
C1661 H1648 0.930 . S
C1661 C1660 1.376 . S
C1661 C1662 1.388 . S
C1662 H1649 0.930 . S
C1662 C1661 1.388 . S
C1662 C1663 1.390 . S
C1663 C1662 1.390 . S
C1663 C1664 1.394 . S
C1663 C1669 1.465 . S
C1664 C1659 1.399 . S
C1664 C1663 1.394 . S
C1664 C1665 1.516 . S
C1665 C1664 1.516 . S
C1665 C1666 1.502 . S
C1665 C1667 1.561 . S
C1665 C1668 1.526 . S
C1666 H1650 0.959 . S
C1666 H1651 0.959 . S
C1666 H1652 0.961 . S
C1666 C1665 1.502 . S
C1667 H1653 0.960 . S
C1667 H1654 0.961 . S
C1667 H1655 0.959 . S
C1667 C1665 1.561 . S
C1668 C1665 1.526 . S
C1668 C1669 1.396 . S
C1668 C1673 1.390 . S
C1669 C1663 1.465 . S
C1669 C1668 1.396 . S
C1669 C1670 1.399 . S
C1670 H1656 0.929 . S
C1670 C1669 1.399 . S
C1670 C1671 1.385 . S
C1671 H1657 0.931 . S
C1671 C1670 1.385 . S
C1671 C1672 1.389 . S
C1672 C1671 1.389 . S
C1672 C1673 1.387 . S
C1673 H1658 0.930 . S
C1673 C1668 1.390 . S
C1673 C1672 1.387 . S
H1674 C1686 0.930 . S
H1675 C1688 0.930 . S
H1676 C1689 0.930 . S
H1677 C1693 0.959 . S
H1678 C1693 0.959 . S
H1679 C1693 0.961 . S
H1680 C1694 0.960 . S
H1681 C1694 0.961 . S
H1682 C1694 0.959 . S
H1683 C1697 0.929 . S
H1684 C1698 0.931 . S
H1685 C1700 0.930 . S
C1686 H1674 0.930 . S
C1686 C1687 1.399 . S
C1686 C1691 1.399 . S
C1687 C1686 1.399 . S
C1687 C1688 1.376 . S
C1688 H1675 0.930 . S
C1688 C1687 1.376 . S
C1688 C1689 1.388 . S
C1689 H1676 0.930 . S
C1689 C1688 1.388 . S
C1689 C1690 1.390 . S
C1690 C1689 1.390 . S
C1690 C1691 1.394 . S
C1690 C1696 1.465 . S
C1691 C1686 1.399 . S
C1691 C1690 1.394 . S
C1691 C1692 1.516 . S
C1692 C1691 1.516 . S
C1692 C1693 1.502 . S
C1692 C1694 1.561 . S
C1692 C1695 1.526 . S
C1693 H1677 0.959 . S
C1693 H1678 0.959 . S
C1693 H1679 0.961 . S
C1693 C1692 1.502 . S
C1694 H1680 0.960 . S
C1694 H1681 0.961 . S
C1694 H1682 0.959 . S
C1694 C1692 1.561 . S
C1695 C1692 1.526 . S
C1695 C1696 1.396 . S
C1695 C1700 1.390 . S
C1696 C1690 1.465 . S
C1696 C1695 1.396 . S
C1696 C1697 1.399 . S
C1697 H1683 0.929 . S
C1697 C1696 1.399 . S
C1697 C1698 1.385 . S
C1698 H1684 0.931 . S
C1698 C1697 1.385 . S
C1698 C1699 1.389 . S
C1699 C1698 1.389 . S
C1699 C1700 1.387 . S
C1700 H1685 0.930 . S
C1700 C1695 1.390 . S
C1700 C1699 1.387 . S
H1701 C1713 0.930 . S
H1702 C1715 0.930 . S
H1703 C1716 0.930 . S
H1704 C1720 0.959 . S
H1705 C1720 0.959 . S
H1706 C1720 0.961 . S
H1707 C1721 0.960 . S
H1708 C1721 0.961 . S
H1709 C1721 0.959 . S
H1710 C1724 0.929 . S
H1711 C1725 0.931 . S
H1712 C1727 0.930 . S
C1713 H1701 0.930 . S
C1713 C1714 1.399 . S
C1713 C1718 1.399 . S
C1714 C1713 1.399 . S
C1714 C1715 1.376 . S
C1715 H1702 0.930 . S
C1715 C1714 1.376 . S
C1715 C1716 1.388 . S
C1716 H1703 0.930 . S
C1716 C1715 1.388 . S
C1716 C1717 1.390 . S
C1717 C1716 1.390 . S
C1717 C1718 1.394 . S
C1717 C1723 1.465 . S
C1718 C1713 1.399 . S
C1718 C1717 1.394 . S
C1718 C1719 1.516 . S
C1719 C1718 1.516 . S
C1719 C1720 1.502 . S
C1719 C1721 1.561 . S
C1719 C1722 1.526 . S
C1720 H1704 0.959 . S
C1720 H1705 0.959 . S
C1720 H1706 0.961 . S
C1720 C1719 1.502 . S
C1721 H1707 0.960 . S
C1721 H1708 0.961 . S
C1721 H1709 0.959 . S
C1721 C1719 1.561 . S
C1722 C1719 1.526 . S
C1722 C1723 1.396 . S
C1722 C1727 1.390 . S
C1723 C1717 1.465 . S
C1723 C1722 1.396 . S
C1723 C1724 1.399 . S
C1724 H1710 0.929 . S
C1724 C1723 1.399 . S
C1724 C1725 1.385 . S
C1725 H1711 0.931 . S
C1725 C1724 1.385 . S
C1725 C1726 1.389 . S
C1726 C1725 1.389 . S
C1726 C1727 1.387 . S
C1727 H1712 0.930 . S
C1727 C1722 1.390 . S
C1727 C1726 1.387 . S
H1728 C1740 0.930 . S
H1729 C1742 0.930 . S
H1730 C1743 0.930 . S
H1731 C1747 0.959 . S
H1732 C1747 0.959 . S
H1733 C1747 0.961 . S
H1734 C1748 0.960 . S
H1735 C1748 0.961 . S
H1736 C1748 0.959 . S
H1737 C1751 0.929 . S
H1738 C1752 0.931 . S
H1739 C1754 0.930 . S
C1740 H1728 0.930 . S
C1740 C1741 1.399 . S
C1740 C1745 1.399 . S
C1741 C1740 1.399 . S
C1741 C1742 1.376 . S
C1742 H1729 0.930 . S
C1742 C1741 1.376 . S
C1742 C1743 1.388 . S
C1743 H1730 0.930 . S
C1743 C1742 1.388 . S
C1743 C1744 1.390 . S
C1744 C1743 1.390 . S
C1744 C1745 1.394 . S
C1744 C1750 1.465 . S
C1745 C1740 1.399 . S
C1745 C1744 1.394 . S
C1745 C1746 1.516 . S
C1746 C1745 1.516 . S
C1746 C1747 1.502 . S
C1746 C1748 1.561 . S
C1746 C1749 1.526 . S
C1747 H1731 0.959 . S
C1747 H1732 0.959 . S
C1747 H1733 0.961 . S
C1747 C1746 1.502 . S
C1748 H1734 0.960 . S
C1748 H1735 0.961 . S
C1748 H1736 0.959 . S
C1748 C1746 1.561 . S
C1749 C1746 1.526 . S
C1749 C1750 1.396 . S
C1749 C1754 1.390 . S
C1750 C1744 1.465 . S
C1750 C1749 1.396 . S
C1750 C1751 1.399 . S
C1751 H1737 0.929 . S
C1751 C1750 1.399 . S
C1751 C1752 1.385 . S
C1752 H1738 0.931 . S
C1752 C1751 1.385 . S
C1752 C1753 1.389 . S
C1753 C1752 1.389 . S
C1753 C1754 1.387 . S
C1754 H1739 0.930 . S
C1754 C1749 1.390 . S
C1754 C1753 1.387 . S
H1755 C1767 0.930 . S
H1756 C1769 0.930 . S
H1757 C1770 0.930 . S
H1758 C1774 0.959 . S
H1759 C1774 0.959 . S
H1760 C1774 0.961 . S
H1761 C1775 0.960 . S
H1762 C1775 0.961 . S
H1763 C1775 0.959 . S
H1764 C1778 0.929 . S
H1765 C1779 0.931 . S
H1766 C1781 0.930 . S
C1767 H1755 0.930 . S
C1767 C1768 1.399 . S
C1767 C1772 1.399 . S
C1768 C1767 1.399 . S
C1768 C1769 1.376 . S
C1769 H1756 0.930 . S
C1769 C1768 1.376 . S
C1769 C1770 1.388 . S
C1770 H1757 0.930 . S
C1770 C1769 1.388 . S
C1770 C1771 1.390 . S
C1771 C1770 1.390 . S
C1771 C1772 1.394 . S
C1771 C1777 1.465 . S
C1772 C1767 1.399 . S
C1772 C1771 1.394 . S
C1772 C1773 1.516 . S
C1773 C1772 1.516 . S
C1773 C1774 1.502 . S
C1773 C1775 1.561 . S
C1773 C1776 1.526 . S
C1774 H1758 0.959 . S
C1774 H1759 0.959 . S
C1774 H1760 0.961 . S
C1774 C1773 1.502 . S
C1775 H1761 0.960 . S
C1775 H1762 0.961 . S
C1775 H1763 0.959 . S
C1775 C1773 1.561 . S
C1776 C1773 1.526 . S
C1776 C1777 1.396 . S
C1776 C1781 1.390 . S
C1777 C1771 1.465 . S
C1777 C1776 1.396 . S
C1777 C1778 1.399 . S
C1778 H1764 0.929 . S
C1778 C1777 1.399 . S
C1778 C1779 1.385 . S
C1779 H1765 0.931 . S
C1779 C1778 1.385 . S
C1779 C1780 1.389 . S
C1780 C1779 1.389 . S
C1780 C1781 1.387 . S
C1781 H1766 0.930 . S
C1781 C1776 1.390 . S
C1781 C1780 1.387 . S
H1782 C1794 0.930 . S
H1783 C1796 0.930 . S
H1784 C1797 0.930 . S
H1785 C1801 0.959 . S
H1786 C1801 0.959 . S
H1787 C1801 0.961 . S
H1788 C1802 0.960 . S
H1789 C1802 0.961 . S
H1790 C1802 0.959 . S
H1791 C1805 0.929 . S
H1792 C1806 0.931 . S
H1793 C1808 0.930 . S
C1794 H1782 0.930 . S
C1794 C1795 1.399 . S
C1794 C1799 1.399 . S
C1795 C1794 1.399 . S
C1795 C1796 1.376 . S
C1796 H1783 0.930 . S
C1796 C1795 1.376 . S
C1796 C1797 1.388 . S
C1797 H1784 0.930 . S
C1797 C1796 1.388 . S
C1797 C1798 1.390 . S
C1798 C1797 1.390 . S
C1798 C1799 1.394 . S
C1798 C1804 1.465 . S
C1799 C1794 1.399 . S
C1799 C1798 1.394 . S
C1799 C1800 1.516 . S
C1800 C1799 1.516 . S
C1800 C1801 1.502 . S
C1800 C1802 1.561 . S
C1800 C1803 1.526 . S
C1801 H1785 0.959 . S
C1801 H1786 0.959 . S
C1801 H1787 0.961 . S
C1801 C1800 1.502 . S
C1802 H1788 0.960 . S
C1802 H1789 0.961 . S
C1802 H1790 0.959 . S
C1802 C1800 1.561 . S
C1803 C1800 1.526 . S
C1803 C1804 1.396 . S
C1803 C1808 1.390 . S
C1804 C1798 1.465 . S
C1804 C1803 1.396 . S
C1804 C1805 1.399 . S
C1805 H1791 0.929 . S
C1805 C1804 1.399 . S
C1805 C1806 1.385 . S
C1806 H1792 0.931 . S
C1806 C1805 1.385 . S
C1806 C1807 1.389 . S
C1807 C1806 1.389 . S
C1807 C1808 1.387 . S
C1808 H1793 0.930 . S
C1808 C1803 1.390 . S
C1808 C1807 1.387 . S
H1809 C1821 0.930 . S
H1810 C1823 0.930 . S
H1811 C1824 0.930 . S
H1812 C1828 0.959 . S
H1813 C1828 0.959 . S
H1814 C1828 0.961 . S
H1815 C1829 0.960 . S
H1816 C1829 0.961 . S
H1817 C1829 0.959 . S
H1818 C1832 0.929 . S
H1819 C1833 0.931 . S
H1820 C1835 0.930 . S
C1821 H1809 0.930 . S
C1821 C1822 1.399 . S
C1821 C1826 1.399 . S
C1822 C1821 1.399 . S
C1822 C1823 1.376 . S
C1823 H1810 0.930 . S
C1823 C1822 1.376 . S
C1823 C1824 1.388 . S
C1824 H1811 0.930 . S
C1824 C1823 1.388 . S
C1824 C1825 1.390 . S
C1825 C1824 1.390 . S
C1825 C1826 1.394 . S
C1825 C1831 1.465 . S
C1826 C1821 1.399 . S
C1826 C1825 1.394 . S
C1826 C1827 1.516 . S
C1827 C1826 1.516 . S
C1827 C1828 1.502 . S
C1827 C1829 1.561 . S
C1827 C1830 1.526 . S
C1828 H1812 0.959 . S
C1828 H1813 0.959 . S
C1828 H1814 0.961 . S
C1828 C1827 1.502 . S
C1829 H1815 0.960 . S
C1829 H1816 0.961 . S
C1829 H1817 0.959 . S
C1829 C1827 1.561 . S
C1830 C1827 1.526 . S
C1830 C1831 1.396 . S
C1830 C1835 1.390 . S
C1831 C1825 1.465 . S
C1831 C1830 1.396 . S
C1831 C1832 1.399 . S
C1832 H1818 0.929 . S
C1832 C1831 1.399 . S
C1832 C1833 1.385 . S
C1833 H1819 0.931 . S
C1833 C1832 1.385 . S
C1833 C1834 1.389 . S
C1834 C1833 1.389 . S
C1834 C1835 1.387 . S
C1835 H1820 0.930 . S
C1835 C1830 1.390 . S
C1835 C1834 1.387 . S
C391 C151 1.283 . S
C403 C204 1.271 . S
C418 C159 1.589 . S
C430 C224 1.681 . S
C445 C137 1.443 . S
C457 C247 1.527 . S
C472 C126 1.303 . S
C484 C227 1.443 1_556 S
C511 C244 1.719 . S
C499 C104 1.578 . S
C526 C118 1.241 . S
C538 C207 1.253 1_556 S
C565 C214 1.462 . S
C553 C129 1.522 . S
C592 C234 1.533 . S
C580 C107 1.544 . S
C607 C115 1.323 . S
C619 C239 1.508 . S
C634 C148 1.264 . S
C646 C219 1.391 . S
C661 C162 1.519 . S
C673 C254 1.512 . S
C700 C199 1.490 . S
C688 C140 1.480 . S
C727 C264 1.293 . S
C715 C19 1.301 . S
C742 C27 1.577 . S
C754 C284 1.681 . S
C769 C5 1.422 . S
C781 C307 1.516 . S
C796 C192 1.309 . S
C808 C287 1.412 . S
C823 C170 1.535 . S
C835 C304 1.675 . S
C850 C184 1.255 . S
C862 C267 1.248 . S
C877 C195 1.521 . S
C889 C274 1.461 . S
C904 C173 1.538 . S
C916 C294 1.477 . S
C943 C299 1.514 . S
C931 C181 1.321 . S
C958 C16 1.091 . S
C970 C279 1.438 . S
C997 C314 1.494 . S
C985 C30 1.510 . S
C1012 C8 1.493 . S
C1024 C259 1.481 . S
C1051 C324 1.297 . S
C1039 C85 1.298 . S
C1066 C93 1.621 . S
C1078 C344 1.692 . S
C1105 C367 1.508 . S
C1093 C71 1.337 . S
C1132 C347 1.434 . S
C1120 C60 1.248 . S
C1159 C364 1.673 . S
C1147 C38 1.559 . S
C1174 C52 1.232 . S
C1186 C327 1.261 . S
C1201 C63 1.521 . S
C1213 C334 1.519 . S
C1228 C41 1.549 . S
C1240 C354 1.521 . S
C1267 C359 1.506 . S
C1255 C49 1.336 . S
C1282 C82 1.262 . S
C1294 C339 1.391 . S
C1309 C96 1.519 . S
C1321 C374 1.508 . S
C1336 C74 1.485 . S
C1348 C319 1.458 . S
C1363 C172 1.489 . S
C1375 C217 1.464 . S
C1402 C237 1.406 . S
C1390 C183 1.452 . S
C1417 C194 1.509 . S
C1429 C246 1.495 . S
C1444 C73 1.658 . S
C1456 C226 1.600 . S
C1471 C84 1.198 . S
C1483 C257 1.266 . S
C1510 C206 1.416 . S
C1498 C95 1.465 . S
C1525 C40 1.442 . S
C1537 C277 1.466 . S
C1552 C51 1.458 . S
C1564 C297 1.396 . S
C1579 C62 1.521 . S
C1591 C306 1.471 . S
C1606 C139 1.691 . S
C1618 C286 1.642 . S
C1645 C317 1.281 . S
C1633 C150 1.189 . S
C1660 C161 1.453 . S
C1672 C266 1.486 . S
C1687 C106 1.496 . S
C1699 C337 1.522 . S
C1714 C117 1.375 . S
C1726 C357 1.442 . S
C1753 C366 1.492 . S
C1741 C128 1.512 . S
C1768 C7 1.688 . S
C1780 C346 1.647 . S
C1795 C18 1.276 . S
C1807 C377 1.234 . S
C1822 C29 1.447 . S
C1834 C326 1.485 . S
