# Generated by pormake.
# Topology gar, (4,6)-cn, num edge types: 1
# Building blocks:
#     Node 0, Type 0, BuildingBlock: GALJAG_clean_sbu_0, # of connection points: 4
#     Node 1, Type 0, BuildingBlock: GALJAG_clean_sbu_0, # of connection points: 4
#     Node 2, Type 0, BuildingBlock: GALJAG_clean_sbu_0, # of connection points: 4
#     Node 3, Type 0, BuildingBlock: GALJAG_clean_sbu_0, # of connection points: 4
#     Node 4, Type 0, BuildingBlock: GALJAG_clean_sbu_0, # of connection points: 4
#     Node 5, Type 0, BuildingBlock: GALJAG_clean_sbu_0, # of connection points: 4
#     Node 6, Type 0, BuildingBlock: GALJAG_clean_sbu_0, # of connection points: 4
#     Node 7, Type 0, BuildingBlock: GALJAG_clean_sbu_0, # of connection points: 4
#     Node 8, Type 0, BuildingBlock: GALJAG_clean_sbu_0, # of connection points: 4
#     Node 9, Type 0, BuildingBlock: GALJAG_clean_sbu_0, # of connection points: 4
#     Node 10, Type 0, BuildingBlock: GALJAG_clean_sbu_0, # of connection points: 4
#     Node 11, Type 0, BuildingBlock: GALJAG_clean_sbu_0, # of connection points: 4
#     Node 12, Type 0, BuildingBlock: GALJAG_clean_sbu_0, # of connection points: 4
#     Node 13, Type 0, BuildingBlock: GALJAG_clean_sbu_0, # of connection points: 4
#     Node 14, Type 0, BuildingBlock: GALJAG_clean_sbu_0, # of connection points: 4
#     Node 15, Type 0, BuildingBlock: GALJAG_clean_sbu_0, # of connection points: 4
#     Node 16, Type 0, BuildingBlock: GALJAG_clean_sbu_0, # of connection points: 4
#     Node 17, Type 0, BuildingBlock: GALJAG_clean_sbu_0, # of connection points: 4
#     Node 18, Type 0, BuildingBlock: GALJAG_clean_sbu_0, # of connection points: 4
#     Node 19, Type 0, BuildingBlock: GALJAG_clean_sbu_0, # of connection points: 4
#     Node 20, Type 0, BuildingBlock: GALJAG_clean_sbu_0, # of connection points: 4
#     Node 21, Type 0, BuildingBlock: GALJAG_clean_sbu_0, # of connection points: 4
#     Node 22, Type 0, BuildingBlock: GALJAG_clean_sbu_0, # of connection points: 4
#     Node 23, Type 0, BuildingBlock: GALJAG_clean_sbu_0, # of connection points: 4
#     Node 24, Type 1, BuildingBlock: GEDQOX_clean_sbu_0, # of connection points: 6
#     Node 25, Type 1, BuildingBlock: GEDQOX_clean_sbu_0, # of connection points: 6
#     Node 26, Type 1, BuildingBlock: GEDQOX_clean_sbu_0, # of connection points: 6
#     Node 27, Type 1, BuildingBlock: GEDQOX_clean_sbu_0, # of connection points: 6
#     Node 28, Type 1, BuildingBlock: GEDQOX_clean_sbu_0, # of connection points: 6
#     Node 29, Type 1, BuildingBlock: GEDQOX_clean_sbu_0, # of connection points: 6
#     Node 30, Type 1, BuildingBlock: GEDQOX_clean_sbu_0, # of connection points: 6
#     Node 31, Type 1, BuildingBlock: GEDQOX_clean_sbu_0, # of connection points: 6
#     Node 32, Type 1, BuildingBlock: GEDQOX_clean_sbu_0, # of connection points: 6
#     Node 33, Type 1, BuildingBlock: GEDQOX_clean_sbu_0, # of connection points: 6
#     Node 34, Type 1, BuildingBlock: GEDQOX_clean_sbu_0, # of connection points: 6
#     Node 35, Type 1, BuildingBlock: GEDQOX_clean_sbu_0, # of connection points: 6
#     Node 36, Type 1, BuildingBlock: GEDQOX_clean_sbu_0, # of connection points: 6
#     Node 37, Type 1, BuildingBlock: GEDQOX_clean_sbu_0, # of connection points: 6
#     Node 38, Type 1, BuildingBlock: GEDQOX_clean_sbu_0, # of connection points: 6
#     Node 39, Type 1, BuildingBlock: GEDQOX_clean_sbu_0, # of connection points: 6
#     Edge 40, Type (0, 1), BuildingBlock: XIVTED_clean_linker_0, # of connection points: 2
#     Edge 41, Type (0, 1), BuildingBlock: XIVTED_clean_linker_0, # of connection points: 2
#     Edge 42, Type (0, 1), BuildingBlock: XIVTED_clean_linker_0, # of connection points: 2
#     Edge 43, Type (0, 1), BuildingBlock: XIVTED_clean_linker_0, # of connection points: 2
#     Edge 44, Type (0, 1), BuildingBlock: XIVTED_clean_linker_0, # of connection points: 2
#     Edge 45, Type (0, 1), BuildingBlock: XIVTED_clean_linker_0, # of connection points: 2
#     Edge 46, Type (0, 1), BuildingBlock: XIVTED_clean_linker_0, # of connection points: 2
#     Edge 47, Type (0, 1), BuildingBlock: XIVTED_clean_linker_0, # of connection points: 2
#     Edge 48, Type (0, 1), BuildingBlock: XIVTED_clean_linker_0, # of connection points: 2
#     Edge 49, Type (0, 1), BuildingBlock: XIVTED_clean_linker_0, # of connection points: 2
#     Edge 50, Type (0, 1), BuildingBlock: XIVTED_clean_linker_0, # of connection points: 2
#     Edge 51, Type (0, 1), BuildingBlock: XIVTED_clean_linker_0, # of connection points: 2
#     Edge 52, Type (0, 1), BuildingBlock: XIVTED_clean_linker_0, # of connection points: 2
#     Edge 53, Type (0, 1), BuildingBlock: XIVTED_clean_linker_0, # of connection points: 2
#     Edge 54, Type (0, 1), BuildingBlock: XIVTED_clean_linker_0, # of connection points: 2
#     Edge 55, Type (0, 1), BuildingBlock: XIVTED_clean_linker_0, # of connection points: 2
#     Edge 56, Type (0, 1), BuildingBlock: XIVTED_clean_linker_0, # of connection points: 2
#     Edge 57, Type (0, 1), BuildingBlock: XIVTED_clean_linker_0, # of connection points: 2
#     Edge 58, Type (0, 1), BuildingBlock: XIVTED_clean_linker_0, # of connection points: 2
#     Edge 59, Type (0, 1), BuildingBlock: XIVTED_clean_linker_0, # of connection points: 2
#     Edge 60, Type (0, 1), BuildingBlock: XIVTED_clean_linker_0, # of connection points: 2
#     Edge 61, Type (0, 1), BuildingBlock: XIVTED_clean_linker_0, # of connection points: 2
#     Edge 62, Type (0, 1), BuildingBlock: XIVTED_clean_linker_0, # of connection points: 2
#     Edge 63, Type (0, 1), BuildingBlock: XIVTED_clean_linker_0, # of connection points: 2
#     Edge 64, Type (0, 1), BuildingBlock: XIVTED_clean_linker_0, # of connection points: 2
#     Edge 65, Type (0, 1), BuildingBlock: XIVTED_clean_linker_0, # of connection points: 2
#     Edge 66, Type (0, 1), BuildingBlock: XIVTED_clean_linker_0, # of connection points: 2
#     Edge 67, Type (0, 1), BuildingBlock: XIVTED_clean_linker_0, # of connection points: 2
#     Edge 68, Type (0, 1), BuildingBlock: XIVTED_clean_linker_0, # of connection points: 2
#     Edge 69, Type (0, 1), BuildingBlock: XIVTED_clean_linker_0, # of connection points: 2
#     Edge 70, Type (0, 1), BuildingBlock: XIVTED_clean_linker_0, # of connection points: 2
#     Edge 71, Type (0, 1), BuildingBlock: XIVTED_clean_linker_0, # of connection points: 2
#     Edge 72, Type (0, 1), BuildingBlock: XIVTED_clean_linker_0, # of connection points: 2
#     Edge 73, Type (0, 1), BuildingBlock: XIVTED_clean_linker_0, # of connection points: 2
#     Edge 74, Type (0, 1), BuildingBlock: XIVTED_clean_linker_0, # of connection points: 2
#     Edge 75, Type (0, 1), BuildingBlock: XIVTED_clean_linker_0, # of connection points: 2
#     Edge 76, Type (0, 1), BuildingBlock: XIVTED_clean_linker_0, # of connection points: 2
#     Edge 77, Type (0, 1), BuildingBlock: XIVTED_clean_linker_0, # of connection points: 2
#     Edge 78, Type (0, 1), BuildingBlock: XIVTED_clean_linker_0, # of connection points: 2
#     Edge 79, Type (0, 1), BuildingBlock: XIVTED_clean_linker_0, # of connection points: 2
#     Edge 80, Type (0, 1), BuildingBlock: XIVTED_clean_linker_0, # of connection points: 2
#     Edge 81, Type (0, 1), BuildingBlock: XIVTED_clean_linker_0, # of connection points: 2
#     Edge 82, Type (0, 1), BuildingBlock: XIVTED_clean_linker_0, # of connection points: 2
#     Edge 83, Type (0, 1), BuildingBlock: XIVTED_clean_linker_0, # of connection points: 2
#     Edge 84, Type (0, 1), BuildingBlock: XIVTED_clean_linker_0, # of connection points: 2
#     Edge 85, Type (0, 1), BuildingBlock: XIVTED_clean_linker_0, # of connection points: 2
#     Edge 86, Type (0, 1), BuildingBlock: XIVTED_clean_linker_0, # of connection points: 2
#     Edge 87, Type (0, 1), BuildingBlock: XIVTED_clean_linker_0, # of connection points: 2
#     Edge 88, Type (0, 1), BuildingBlock: XIVTED_clean_linker_0, # of connection points: 2
#     Edge 89, Type (0, 1), BuildingBlock: XIVTED_clean_linker_0, # of connection points: 2
#     Edge 90, Type (0, 1), BuildingBlock: XIVTED_clean_linker_0, # of connection points: 2
#     Edge 91, Type (0, 1), BuildingBlock: XIVTED_clean_linker_0, # of connection points: 2
#     Edge 92, Type (0, 1), BuildingBlock: XIVTED_clean_linker_0, # of connection points: 2
#     Edge 93, Type (0, 1), BuildingBlock: XIVTED_clean_linker_0, # of connection points: 2
#     Edge 94, Type (0, 1), BuildingBlock: XIVTED_clean_linker_0, # of connection points: 2
#     Edge 95, Type (0, 1), BuildingBlock: XIVTED_clean_linker_0, # of connection points: 2
#     Edge 96, Type (0, 1), BuildingBlock: XIVTED_clean_linker_0, # of connection points: 2
#     Edge 97, Type (0, 1), BuildingBlock: XIVTED_clean_linker_0, # of connection points: 2
#     Edge 98, Type (0, 1), BuildingBlock: XIVTED_clean_linker_0, # of connection points: 2
#     Edge 99, Type (0, 1), BuildingBlock: XIVTED_clean_linker_0, # of connection points: 2
#     Edge 100, Type (0, 1), BuildingBlock: XIVTED_clean_linker_0, # of connection points: 2
#     Edge 101, Type (0, 1), BuildingBlock: XIVTED_clean_linker_0, # of connection points: 2
#     Edge 102, Type (0, 1), BuildingBlock: XIVTED_clean_linker_0, # of connection points: 2
#     Edge 103, Type (0, 1), BuildingBlock: XIVTED_clean_linker_0, # of connection points: 2
#     Edge 104, Type (0, 1), BuildingBlock: XIVTED_clean_linker_0, # of connection points: 2
#     Edge 105, Type (0, 1), BuildingBlock: XIVTED_clean_linker_0, # of connection points: 2
#     Edge 106, Type (0, 1), BuildingBlock: XIVTED_clean_linker_0, # of connection points: 2
#     Edge 107, Type (0, 1), BuildingBlock: XIVTED_clean_linker_0, # of connection points: 2
#     Edge 108, Type (0, 1), BuildingBlock: XIVTED_clean_linker_0, # of connection points: 2
#     Edge 109, Type (0, 1), BuildingBlock: XIVTED_clean_linker_0, # of connection points: 2
#     Edge 110, Type (0, 1), BuildingBlock: XIVTED_clean_linker_0, # of connection points: 2
#     Edge 111, Type (0, 1), BuildingBlock: XIVTED_clean_linker_0, # of connection points: 2
#     Edge 112, Type (0, 1), BuildingBlock: XIVTED_clean_linker_0, # of connection points: 2
#     Edge 113, Type (0, 1), BuildingBlock: XIVTED_clean_linker_0, # of connection points: 2
#     Edge 114, Type (0, 1), BuildingBlock: XIVTED_clean_linker_0, # of connection points: 2
#     Edge 115, Type (0, 1), BuildingBlock: XIVTED_clean_linker_0, # of connection points: 2
#     Edge 116, Type (0, 1), BuildingBlock: XIVTED_clean_linker_0, # of connection points: 2
#     Edge 117, Type (0, 1), BuildingBlock: XIVTED_clean_linker_0, # of connection points: 2
#     Edge 118, Type (0, 1), BuildingBlock: XIVTED_clean_linker_0, # of connection points: 2
#     Edge 119, Type (0, 1), BuildingBlock: XIVTED_clean_linker_0, # of connection points: 2
#     Edge 120, Type (0, 1), BuildingBlock: XIVTED_clean_linker_0, # of connection points: 2
#     Edge 121, Type (0, 1), BuildingBlock: XIVTED_clean_linker_0, # of connection points: 2
#     Edge 122, Type (0, 1), BuildingBlock: XIVTED_clean_linker_0, # of connection points: 2
#     Edge 123, Type (0, 1), BuildingBlock: XIVTED_clean_linker_0, # of connection points: 2
#     Edge 124, Type (0, 1), BuildingBlock: XIVTED_clean_linker_0, # of connection points: 2
#     Edge 125, Type (0, 1), BuildingBlock: XIVTED_clean_linker_0, # of connection points: 2
#     Edge 126, Type (0, 1), BuildingBlock: XIVTED_clean_linker_0, # of connection points: 2
#     Edge 127, Type (0, 1), BuildingBlock: XIVTED_clean_linker_0, # of connection points: 2
#     Edge 128, Type (0, 1), BuildingBlock: XIVTED_clean_linker_0, # of connection points: 2
#     Edge 129, Type (0, 1), BuildingBlock: XIVTED_clean_linker_0, # of connection points: 2
#     Edge 130, Type (0, 1), BuildingBlock: XIVTED_clean_linker_0, # of connection points: 2
#     Edge 131, Type (0, 1), BuildingBlock: XIVTED_clean_linker_0, # of connection points: 2
#     Edge 132, Type (0, 1), BuildingBlock: XIVTED_clean_linker_0, # of connection points: 2
#     Edge 133, Type (0, 1), BuildingBlock: XIVTED_clean_linker_0, # of connection points: 2
#     Edge 134, Type (0, 1), BuildingBlock: XIVTED_clean_linker_0, # of connection points: 2
#     Edge 135, Type (0, 1), BuildingBlock: XIVTED_clean_linker_0, # of connection points: 2
# Relax obj value: 0.287
# Max RMSD: 0.426
# Mean RMSD: 0.190
data_MOF--net-gar--node1-GALJAG_clean_sbu_0--node2-GEDQOX_clean_sbu_0--edge1-XIVTED_clean_linker_0
_symmetry_space_group_name_H-M    P1
_symmetry_Int_Tables_number       1
_symmetry_cell_setting            triclinic
loop_
_symmetry_equiv_pos_as_xyz
'x, y, z'
_cell_length_a     60.698689
_cell_length_b     58.863324
_cell_length_c     53.216512
_cell_angle_alpha  97.667791
_cell_angle_beta   96.566311
_cell_angle_gamma 98.836684
loop_
_atom_site_label
_atom_site_type_symbol
_atom_site_fract_x
_atom_site_fract_y
_atom_site_fract_z
_atom_type_partial_charge
In0 In 0.11541 0.38242 0.51121 0.0
O1 O 0.10925 0.36569 0.47061 0.0
O2 O 0.14361 0.37777 0.4868 0.0
C3 C 0.07464 0.38921 0.49271 0.0
C4 C 0.1111 0.34493 0.53345 0.0
C5 C 0.13325 0.4205 0.5447 0.0
O6 O 0.09219 0.40349 0.49181 0.0
O7 O 0.0777 0.37253 0.50443 0.0
O8 O 0.12536 0.40159 0.55144 0.0
O9 O 0.13436 0.41942 0.52105 0.0
C10 C 0.12962 0.36792 0.46743 0.0
O11 O 0.09974 0.3609 0.53761 0.0
O12 O 0.12641 0.3488 0.51952 0.0
In13 In 1.00447 0.77327 0.65052 0.0
O14 O 1.02625 0.79402 0.62749 0.0
O15 O 1.00785 0.81221 0.65304 0.0
C16 C 0.98535 0.73874 0.61338 0.0
C17 C 0.04316 0.77244 0.67939 0.0
C18 C 0.97295 0.77804 0.67983 0.0
O19 O 0.98686 0.75971 0.61022 0.0
O20 O 0.9934 0.73535 0.63518 0.0
O21 O 0.98522 0.76266 0.68155 0.0
O22 O 0.97579 0.79014 0.66215 0.0
C23 C 1.02226 0.81329 0.63773 0.0
O24 O 1.02559 0.77565 0.68874 0.0
O25 O 0.04073 0.76743 0.65536 0.0
In26 In 0.61628 0.88891 1.00691 0.0
O27 O 0.62338 0.89021 0.96655 0.0
O28 O 0.64048 0.86846 0.98793 0.0
C29 C 0.57677 0.89935 0.98922 0.0
C30 C 0.60322 0.84747 0.01938 0.0
C31 C 0.63433 0.92602 0.04205 0.0
O32 O 0.59453 0.90516 0.97975 0.0
O33 O 0.57935 0.88968 0.00885 0.0
O34 O 0.62184 0.90866 0.04722 0.0
O35 O 0.6399 0.92324 0.01993 0.0
C36 C 0.63626 0.87539 0.96672 0.0
O37 O 0.62283 0.85872 0.02756 0.0
O38 O 0.59089 0.85712 1.00503 0.0
In39 In 0.49975 0.27399 0.14769 0.0
O40 O 0.48008 0.25423 0.11031 0.0
O41 O 0.49385 0.23541 0.13824 0.0
C42 C 0.51065 0.31029 0.12495 0.0
C43 C 0.47046 0.27177 0.18026 0.0
C44 C 0.54099 0.28197 0.17336 0.0
O45 O 0.5148 0.29048 0.11678 0.0
O46 O 0.49881 0.31115 0.14302 0.0
O47 O 0.52584 0.29298 0.17993 0.0
O48 O 0.53502 0.26594 0.15438 0.0
C49 C 0.48235 0.23477 0.11677 0.0
O50 O 0.48863 0.26404 0.18355 0.0
O51 O 0.46705 0.28096 0.1603 0.0
In52 In 0.05123 0.81156 0.25229 0.0
O53 O 0.05165 0.79086 0.21323 0.0
O54 O 0.04404 0.77155 0.24309 0.0
C55 C 0.05509 0.84635 0.22413 0.0
C56 C 1.0098 0.81331 0.27001 0.0
C57 C 0.09482 0.8157 0.27803 0.0
O58 O 0.05139 0.82515 0.21441 0.0
O59 O 0.05723 0.85017 0.24833 0.0
O60 O 0.08562 0.83292 0.2739 0.0
O61 O 0.08159 0.79657 0.2711 0.0
C62 C 0.04675 0.77112 0.2198 0.0
O63 O 0.02738 0.81224 0.28484 0.0
O64 O 1.01329 0.81334 0.24722 0.0
In65 In 0.56512 0.84628 0.40925 0.0
O66 O 0.58849 0.83685 0.37797 0.0
O67 O 0.60351 0.85842 0.41233 0.0
C68 C 0.52071 0.83833 0.38525 0.0
C69 C 0.56657 0.81436 0.4408 0.0
C70 C 0.56616 0.88827 0.43657 0.0
O71 O 0.53608 0.85292 0.37928 0.0
O72 O 0.52811 0.8264 0.40127 0.0
O73 O 0.57151 0.87133 0.44658 0.0
O74 O 0.56099 0.88434 0.41254 0.0
C75 C 0.60665 0.84776 0.39129 0.0
O76 O 0.56139 0.83403 0.44737 0.0
O77 O 0.57034 0.81034 0.41785 0.0
In78 In 0.5495 0.3109 0.75258 0.0
O79 O 0.55394 0.29054 0.71473 0.0
O80 O 0.54258 0.27088 0.74284 0.0
C81 C 0.55063 0.34575 0.72482 0.0
C82 C 0.50812 0.31218 0.77012 0.0
C83 C 0.59284 0.31602 0.77868 0.0
O84 O 0.54699 0.32459 0.71497 0.0
O85 O 0.55369 0.34957 0.74906 0.0
O86 O 0.57758 0.29895 0.7794 0.0
O87 O 0.58585 0.33107 0.76657 0.0
C88 C 0.54783 0.27071 0.7205 0.0
O89 O 0.52643 0.31566 0.78525 0.0
O90 O 0.51082 0.30776 0.74703 0.0
In91 In 0.06351 0.34629 0.90855 0.0
O92 O 0.05944 0.33342 0.94639 0.0
O93 O 0.07036 0.31087 0.91736 0.0
C94 C 0.06551 0.38773 0.93748 0.0
C95 C 0.1052 0.34761 0.89107 0.0
C96 C 1.01957 0.34002 0.88316 0.0
O97 O 0.06327 0.36884 0.94637 0.0
O98 O 0.06726 0.38586 0.91388 0.0
O99 O 0.03461 0.35713 0.88212 0.0
O100 O 0.02715 0.32484 0.89465 0.0
C101 C 0.06587 0.31435 0.94006 0.0
O102 O 0.08695 0.33787 0.87708 0.0
O103 O 0.10215 0.35709 0.91273 0.0
In104 In 0.4518 0.1421 0.3182 0.0
O105 O 0.48277 0.14942 0.29712 0.0
O106 O 0.45183 0.13135 0.2759 0.0
C107 C 0.47695 0.14195 0.36396 0.0
C108 C 0.42356 0.17276 0.31147 0.0
C109 C 0.42359 0.10323 0.32007 0.0
O110 O 0.477 0.12744 0.34427 0.0
O111 O 0.46566 0.15783 0.36012 0.0
O112 O 0.42489 0.12173 0.33548 0.0
O113 O 0.43702 0.10404 0.30362 0.0
C114 C 0.47225 0.13931 0.27566 0.0
O115 O 0.41743 0.15132 0.31071 0.0
O116 O 0.44468 0.17957 0.31591 0.0
In117 In 0.26835 0.15228 0.49469 0.0
O118 O 0.27198 0.18824 0.51769 0.0
O119 O 0.2804 0.16078 0.53708 0.0
C120 C 0.27416 0.17195 0.45362 0.0
C121 C 0.29884 0.12516 0.50074 0.0
C122 C 0.22549 0.13412 0.49261 0.0
O123 O 0.28738 0.17759 0.47429 0.0
O124 O 0.2582 0.15528 0.45311 0.0
O125 O 0.23974 0.12187 0.48573 0.0
O126 O 0.23282 0.15554 0.49959 0.0
C127 C 0.27964 0.1821 0.53826 0.0
O128 O 0.27991 0.12114 0.50835 0.0
O129 O 0.30127 0.14138 0.48751 0.0
In130 In 0.20062 0.07063 0.85222 0.0
O131 O 0.16689 0.0603 0.82364 0.0
O132 O 0.19605 0.07252 0.80828 0.0
C133 C 0.17648 0.07332 0.89552 0.0
C134 C 0.22266 0.03011 0.8493 0.0
C135 C 0.22233 0.11734 0.85165 0.0
O136 O 0.16868 0.0623 0.87355 0.0
O137 O 0.19674 0.08298 0.89628 0.0
O138 O 0.23247 0.10194 0.86007 0.0
O139 O 0.20165 0.10948 0.84451 0.0
C140 C 0.17507 0.06544 0.80396 0.0
O141 O 0.23298 0.05091 0.85242 0.0
O142 O 0.20175 0.02972 0.84818 0.0
In143 In 0.24441 0.93087 0.09052 0.0
O144 O 0.25385 0.8991 0.10715 0.0
O145 O 0.23921 0.92309 0.13041 0.0
C146 C 0.24576 0.91092 0.04191 0.0
C147 C 0.21058 0.95502 0.09616 0.0
C148 C 0.2831 0.96107 0.09852 0.0
O149 O 0.23524 0.89983 0.05697 0.0
O150 O 0.25393 0.93174 0.051 0.0
O151 O 0.26497 0.96562 0.08808 0.0
O152 O 0.28177 0.94117 0.1051 0.0
C153 C 0.24809 0.90507 0.12876 0.0
O154 O 0.22954 0.96016 0.10966 0.0
O155 O 0.20795 0.93669 0.07986 0.0
In156 In 0.33842 0.50411 0.16379 0.0
O157 O 0.34562 0.47108 0.17615 0.0
O158 O 0.32759 0.49137 0.20003 0.0
C159 C 0.33586 0.47892 0.11794 0.0
C160 C 0.29937 0.51911 0.16122 0.0
C161 C 0.37723 0.53363 0.16867 0.0
O162 O 0.34948 0.47679 0.1368 0.0
O163 O 0.32428 0.49469 0.12187 0.0
O164 O 0.36197 0.53162 0.15001 0.0
O165 O 0.37197 0.52246 0.1864 0.0
C166 C 0.33525 0.47267 0.19529 0.0
O167 O 0.31771 0.53304 0.16901 0.0
O168 O 0.30101 0.49794 0.15659 0.0
In169 In 0.87349 0.23271 0.08609 0.0
O170 O 0.88962 0.20095 0.09046 0.0
O171 O 0.91045 0.23039 0.0817 0.0
C172 C 0.83147 0.20884 0.07902 0.0
C173 C 0.87444 0.25769 0.13301 0.0
C174 C 0.8679 0.25163 0.04274 0.0
O175 O 0.84799 0.19929 0.07395 0.0
O176 O 0.83628 0.23018 0.08801 0.0
O177 O 0.87743 0.26364 0.06371 0.0
O178 O 0.86271 0.23021 0.04349 0.0
C179 C 0.9086 0.20946 0.08541 0.0
O180 O 0.87693 0.26699 0.11327 0.0
O181 O 0.87308 0.23587 0.1295 0.0
In182 In 0.14906 0.51034 0.31855 0.0
O183 O 0.17858 0.49323 0.31077 0.0
O184 O 0.15035 0.47208 0.32102 0.0
C185 C 0.1739 0.55256 0.33307 0.0
C186 C 0.13089 0.51318 0.27063 0.0
C187 C 0.12713 0.51253 0.35928 0.0
O188 O 0.18234 0.53431 0.33366 0.0
O189 O 0.15299 0.54932 0.32571 0.0
O190 O 0.11689 0.50988 0.33677 0.0
O191 O 0.14806 0.51291 0.36092 0.0
C192 C 0.17017 0.47368 0.31558 0.0
O193 O 0.11981 0.50165 0.28485 0.0
O194 O 0.15079 0.52179 0.28024 0.0
In195 In 0.83819 1.00039 0.66261 0.0
O196 O 0.82368 0.96592 0.67049 0.0
O197 O 0.84013 0.9905 0.70303 0.0
C198 C 0.84032 0.97577 0.61779 0.0
C199 C 0.79947 1.01594 0.65911 0.0
C200 C 0.87713 0.02891 0.66582 0.0
O201 O 0.84997 0.9715 0.63849 0.0
O202 O 0.83148 0.99381 0.61964 0.0
O203 O 0.85914 0.0322 0.65357 0.0
O204 O 0.87506 1.01222 0.67851 0.0
C205 C 0.82921 0.97031 0.69429 0.0
O206 O 0.81676 0.0283 0.67269 0.0
O207 O 0.80208 0.99634 0.64864 0.0
In208 In 0.91909 0.09741 0.31778 0.0
O209 O 0.95263 0.10733 0.29973 0.0
O210 O 0.92544 0.08813 0.27418 0.0
C211 C 0.94302 0.09843 0.36588 0.0
C212 C 0.89772 0.13837 0.32136 0.0
C213 C 0.89655 0.05051 0.3162 0.0
O214 O 0.95149 0.10765 0.34828 0.0
O215 O 0.92251 0.08955 0.35967 0.0
O216 O 0.88624 0.0677 0.31532 0.0
O217 O 0.9175 0.05679 0.3167 0.0
C218 C 0.94591 0.0977 0.27695 0.0
O219 O 0.88965 0.11949 0.30648 0.0
O220 O 0.91593 0.13653 0.33432 0.0
In221 In 0.37545 0.73339 0.58635 0.0
O222 O 0.39073 0.70103 0.58989 0.0
O223 O 0.4127 0.73081 0.58371 0.0
C224 C 0.33372 0.7095 0.57792 0.0
C225 C 0.37347 0.7553 0.63414 0.0
C226 C 0.36874 0.75298 0.54359 0.0
O227 O 0.35003 0.70028 0.57131 0.0
O228 O 0.3386 0.73047 0.58839 0.0
O229 O 0.37685 0.76519 0.56496 0.0
O230 O 0.3657 0.73141 0.54381 0.0
C231 C 0.41012 0.7095 0.58603 0.0
O232 O 0.38223 0.76602 0.61765 0.0
O233 O 0.36787 0.73366 0.6272 0.0
In234 In 0.41844 0.59556 0.81861 0.0
O235 O 0.38846 0.61736 0.8092 0.0
O236 O 0.41707 0.63553 0.8331 0.0
C237 C 0.39495 0.54916 0.81909 0.0
C238 C 0.4444 0.59685 0.77716 0.0
C239 C 0.44415 0.59711 0.86563 0.0
O240 O 0.38528 0.56505 0.81108 0.0
O241 O 0.41564 0.55656 0.82617 0.0
O242 O 0.45136 0.5932 0.84439 0.0
O243 O 0.42416 0.60109 0.86341 0.0
C244 C 0.39786 0.63689 0.82207 0.0
O245 O 0.44953 0.61009 0.79838 0.0
O246 O 0.42587 0.58336 0.77622 0.0
In247 In 0.64686 1.00793 0.81853 0.0
O248 O 0.67606 0.99085 0.83057 0.0
O249 O 0.64712 0.96856 0.80958 0.0
C250 C 0.67384 0.04934 0.82777 0.0
C251 C 0.62794 1.00975 0.77047 0.0
C252 C 0.62494 1.0109 0.8596 0.0
O253 O 0.68057 0.03074 0.82017 0.0
O254 O 0.65322 0.04718 0.83019 0.0
O255 O 0.6148 1.00911 0.83719 0.0
O256 O 0.64563 1.01014 0.86095 0.0
C257 C 0.66697 0.9705 0.82088 0.0
O258 O 0.61632 1.00286 0.7871 0.0
O259 O 0.64884 1.01439 0.77779 0.0
In260 In 0.76377 0.65332 1.00027 0.0
O261 O 0.78492 0.6251 0.99508 0.0
O262 O 0.80117 0.66028 1.00763 0.0
C263 C 0.72434 0.62508 0.99598 0.0
C264 C 0.76857 0.67806 0.04678 0.0
C265 C 0.76808 0.67868 0.96359 0.0
O266 O 0.74237 0.62057 1.00667 0.0
O267 O 0.72636 0.64345 0.98611 0.0
O268 O 0.76386 0.68652 0.98537 0.0
O269 O 0.76897 0.65716 0.95956 0.0
C270 C 0.80303 0.63916 1.00334 0.0
O271 O 0.75915 0.68456 0.02731 0.0
O272 O 0.77375 0.65813 0.04309 0.0
In273 In 0.95007 0.6413 0.81742 0.0
O274 O 0.91611 0.65217 0.81703 0.0
O275 O 0.94344 0.67826 0.81323 0.0
C276 C 0.92606 0.59915 0.81559 0.0
C277 C 0.96852 0.63696 0.77345 0.0
C278 C 0.97377 0.6434 0.86486 0.0
O279 O 0.91743 0.61544 0.80763 0.0
O280 O 0.94677 0.60407 0.82384 0.0
O281 O 0.98037 0.63576 0.84427 0.0
O282 O 0.95613 0.6522 0.86164 0.0
C283 C 0.92243 0.67269 0.81338 0.0
O284 O 0.97754 0.6522 0.79237 0.0
O285 O 0.95056 0.62475 0.77684 0.0
In286 In 0.74067 0.42922 0.58899 0.0
O287 O 0.73427 0.39848 0.61177 0.0
O288 O 0.75532 0.42982 0.63004 0.0
C289 C 0.74038 0.40639 0.54095 0.0
C290 C 0.70756 0.45511 0.59097 0.0
C291 C 0.7818 0.45407 0.59386 0.0
O292 O 0.73938 0.39604 0.56021 0.0
O293 O 0.7396 0.42779 0.54559 0.0
O294 O 0.76604 0.46206 0.60355 0.0
O295 O 0.77689 0.43341 0.58239 0.0
C296 C 0.74706 0.40922 0.6316 0.0
O297 O 0.72731 0.4627 0.5876 0.0
O298 O 0.70373 0.4336 0.59239 0.0
In299 In 0.70097 0.5733 0.35256 0.0
O300 O 0.73204 0.55242 0.34749 0.0
O301 O 0.70203 0.53281 0.35331 0.0
C302 C 0.72364 0.62003 0.35369 0.0
C303 C 0.67539 0.56678 0.30408 0.0
C304 C 0.67665 0.57737 0.39539 0.0
O305 O 0.73371 0.60403 0.36069 0.0
O306 O 0.70281 0.6127 0.34747 0.0
O307 O 0.66866 0.57757 0.37249 0.0
O308 O 0.69723 0.5753 0.39732 0.0
C309 C 0.72212 0.53229 0.34948 0.0
O310 O 0.6685 0.55776 0.32261 0.0
O311 O 0.69524 0.57785 0.30954 0.0
Nd312 Nd 0.07903 0.10895 0.09477 0.0
Nd313 Nd 0.04971 0.06823 0.0845 0.0
C314 C 0.10478 0.15027 0.10763 0.0
C315 C 0.10322 0.17143 0.09557 0.0
C316 C 0.08683 0.18525 0.10082 0.0
C317 C 0.08335 0.20311 0.08667 0.0
C318 C 0.09599 0.20746 0.06669 0.0
C319 C 0.11275 0.19395 0.06195 0.0
C320 C 0.11645 0.17639 0.07634 0.0
C321 C 0.07992 0.09095 0.04332 0.0
C322 C 0.02891 0.11223 0.07104 0.0
C323 C 1.0249 0.02638 0.07445 0.0
C324 C 0.02814 1.00634 0.08797 0.0
C325 C 0.03805 0.98814 0.07672 0.0
C326 C 0.04355 0.97069 0.09061 0.0
C327 C 0.03931 0.97111 0.11611 0.0
C328 C 0.02916 0.98915 0.12721 0.0
C329 C 1.02362 1.00647 0.11334 0.0
C330 C 0.04958 0.08714 0.13593 0.0
C331 C 0.10004 0.06418 0.10478 0.0
O332 O 0.08844 0.14318 0.12019 0.0
O333 O 0.11069 0.13302 0.09345 0.0
O334 O 0.07688 0.11175 0.05174 0.0
O335 O 0.07908 0.0791 0.06173 0.0
O336 O 0.0474 0.12375 0.08495 0.0
O337 O 1.02659 0.08961 0.06417 0.0
O338 O 0.04049 0.03311 0.06078 0.0
O339 O 1.01863 0.04399 0.08762 0.0
O340 O 0.05351 0.06659 0.12796 0.0
O341 O 0.04953 0.09826 0.11698 0.0
O342 O 0.08147 0.05359 0.09057 0.0
O343 O 0.10219 0.08641 0.11395 0.0
H344 H 0.07623 0.1819 0.11543 0.0
H345 H 0.07056 0.21331 0.0913 0.0
H346 H 0.12257 0.19625 0.04646 0.0
H347 H 0.12911 0.16601 0.07163 0.0
H348 H 0.04202 0.98768 0.05734 0.0
H349 H 0.05153 0.95715 0.08155 0.0
H350 H 1.02526 0.98981 0.14663 0.0
H351 H 1.01607 0.02015 0.12276 0.0
Nd352 Nd 0.31203 0.85275 0.35044 0.0
Nd353 Nd 0.30366 0.80885 0.3253 0.0
C354 C 0.31548 0.89449 0.3773 0.0
C355 C 0.31835 0.91753 0.36984 0.0
C356 C 0.31251 0.92011 0.34421 0.0
C357 C 0.31895 0.94135 0.33609 0.0
C358 C 0.33131 0.96019 0.35354 0.0
C359 C 0.33647 0.95771 0.37937 0.0
C360 C 0.33005 0.93645 0.38744 0.0
C361 C 0.35259 0.8399 0.3391 0.0
C362 C 0.30397 0.84917 0.29023 0.0
C363 C 0.29964 0.7666 0.29985 0.0
C364 C 0.2871 0.74498 0.30559 0.0
C365 C 0.2975 0.7254 0.30666 0.0
C366 C 0.28603 0.70528 0.31369 0.0
C367 C 0.26404 0.70459 0.31979 0.0
C368 C 0.25399 0.72451 0.31949 0.0
C369 C 0.26537 0.74448 0.31242 0.0
C370 C 0.26264 0.82114 0.3357 0.0
C371 C 0.31025 0.81278 0.38613 0.0
O372 O 0.2962 0.88096 0.36891 0.0
O373 O 0.33256 0.8839 0.37463 0.0
O374 O 0.34561 0.85864 0.33359 0.0
O375 O 0.33718 0.82745 0.34785 0.0
O376 O 0.30123 0.86182 0.31142 0.0
O377 O 0.30988 0.82867 0.29125 0.0
O378 O 0.31713 0.77614 0.3165 0.0
O379 O 0.28759 0.78175 0.29273 0.0
O380 O 0.2697 0.8024 0.34087 0.0
O381 O 0.27827 0.83401 0.32771 0.0
O382 O 0.31074 0.79886 0.36493 0.0
O383 O 0.30755 0.83432 0.38529 0.0
H384 H 0.30371 0.90551 0.33033 0.0
H385 H 0.31474 0.9429 0.31612 0.0
H386 H 0.34639 0.97188 0.39309 0.0
H387 H 0.33509 0.9345 0.40713 0.0
H388 H 0.31448 0.7257 0.30209 0.0
H389 H 0.29415 0.69014 0.31374 0.0
H390 H 0.23726 0.72467 0.32468 0.0
H391 H 0.25713 0.75954 0.31244 0.0
Nd392 Nd 0.57033 0.08899 0.56925 0.0
Nd393 Nd 0.52505 0.07025 0.57634 0.0
C394 C 0.60998 0.09948 0.55482 0.0
C395 C 0.62869 0.08721 0.5595 0.0
C396 C 0.64963 0.09512 0.55248 0.0
C397 C 0.66802 0.08488 0.56005 0.0
C398 C 0.66556 0.06682 0.5749 0.0
C399 C 0.64422 0.05826 0.58087 0.0
C400 C 0.62588 0.06839 0.57318 0.0
C401 C 0.56893 0.07121 0.61453 0.0
C402 C 0.54965 0.03493 0.54375 0.0
C403 C 0.49061 0.05452 0.59827 0.0
C404 C 0.47057 0.06463 0.60203 0.0
C405 C 0.47228 0.0889 0.60779 0.0
C406 C 0.45306 0.099 0.6056 0.0
C407 C 0.43198 0.08499 0.59721 0.0
C408 C 0.43021 0.06063 0.59306 0.0
C409 C 0.44944 0.05052 0.59549 0.0
C410 C 0.51935 0.09332 0.53445 0.0
C411 C 0.54534 0.12389 0.59969 0.0
O412 O 0.5927 0.08743 0.53925 0.0
O413 O 0.60435 0.11017 0.57562 0.0
O414 O 0.58072 0.09086 0.61219 0.0
O415 O 0.55806 0.06152 0.59313 0.0
O416 O 0.56705 0.05192 0.54776 0.0
O417 O 0.53085 0.03721 0.55291 0.0
O418 O 0.50946 0.06625 0.61128 0.0
O419 O 0.49229 0.04729 0.57431 0.0
O420 O 0.5031 0.08353 0.54513 0.0
O421 O 0.53817 0.09208 0.54649 0.0
O422 O 0.53325 0.10463 0.60386 0.0
O423 O 0.55862 0.1232 0.58187 0.0
H424 H 0.65189 0.10964 0.54194 0.0
H425 H 0.6843 0.09155 0.555 0.0
H426 H 0.6419 0.04462 0.59262 0.0
H427 H 0.60971 0.06224 0.57889 0.0
H428 H 0.48851 0.1002 0.6125 0.0
H429 H 0.45482 0.1178 0.609 0.0
H430 H 0.41421 0.04942 0.58604 0.0
H431 H 0.44794 0.03183 0.59054 0.0
Nd432 Nd 0.31616 0.33478 0.85282 0.0
Nd433 Nd 0.29836 0.32963 0.80939 0.0
C434 C 0.32614 0.33309 0.90181 0.0
C435 C 0.31576 0.33952 0.92421 0.0
C436 C 0.31711 0.32648 0.94421 0.0
C437 C 0.30944 0.33401 0.96696 0.0
C438 C 0.30098 0.35498 0.96993 0.0
C439 C 0.29748 0.36657 0.94874 0.0
C440 C 0.30471 0.35875 0.92588 0.0
C441 C 0.32863 0.37815 0.83594 0.0
C442 C 0.26338 0.34266 0.84488 0.0
C443 C 0.28905 0.32824 0.75971 0.0
C444 C 0.29671 0.31492 0.73827 0.0
C445 C 0.31037 0.32667 0.72291 0.0
C446 C 0.31844 0.31423 0.70291 0.0
C447 C 0.31269 0.2899 0.69783 0.0
C448 C 0.29961 0.27812 0.71376 0.0
C449 C 0.29177 0.29052 0.73392 0.0
C450 C 0.28622 0.28642 0.82671 0.0
C451 C 0.35124 0.32206 0.81703 0.0
O452 O 0.31449 0.3157 0.8857 0.0
O453 O 0.33481 0.35019 0.89081 0.0
O454 O 0.34223 0.36609 0.84644 0.0
O455 O 0.30863 0.36637 0.83285 0.0
O456 O 0.27937 0.33782 0.8612 0.0
O457 O 0.26779 0.3441 0.82166 0.0
O458 O 0.30457 0.34386 0.77401 0.0
O459 O 0.27594 0.31653 0.77298 0.0
O460 O 0.27255 0.29832 0.81621 0.0
O461 O 0.30614 0.29818 0.82923 0.0
O462 O 0.3348 0.32586 0.80061 0.0
O463 O 0.34752 0.32194 0.84064 0.0
H464 H 0.32501 0.31114 0.94266 0.0
H465 H 0.31182 0.3245 0.98286 0.0
H466 H 0.2911 0.38283 0.95037 0.0
H467 H 0.30292 0.36852 0.9101 0.0
H468 H 0.31471 0.34548 0.72634 0.0
H469 H 0.32867 0.32366 0.691 0.0
H470 H 0.29454 0.25939 0.71002 0.0
H471 H 0.2816 0.28096 0.74579 0.0
Nd472 Nd 0.05372 0.09762 0.59605 0.0
Nd473 Nd 0.0573 0.05123 0.5726 0.0
C474 C 0.03993 0.13665 0.60911 0.0
C475 C 0.0398 0.15504 0.5934 0.0
C476 C 1.02273 0.16844 0.59324 0.0
C477 C 1.02317 0.18626 0.57841 0.0
C478 C 0.04096 0.19106 0.56404 0.0
C479 C 0.05711 0.17637 0.56289 0.0
C480 C 0.05636 0.15834 0.57723 0.0
C481 C 0.09112 0.09594 0.57266 0.0
C482 C 0.03053 0.07937 0.53475 0.0
C483 C 0.07171 1.01338 0.55473 0.0
C484 C 0.0802 0.99499 0.56636 0.0
C485 C 0.09177 0.99951 0.59139 0.0
C486 C 0.09633 0.98114 0.60392 0.0
C487 C 0.08937 0.95821 0.59146 0.0
C488 C 0.07864 0.95388 0.56603 0.0
C489 C 0.07404 0.97221 0.55358 0.0
C490 C 1.01929 0.05281 0.59464 0.0
C491 C 0.08084 0.07027 0.63385 0.0
O492 O 1.02582 0.11747 0.59972 0.0
O493 O 0.06002 0.13313 0.61767 0.0
O494 O 0.09135 0.10907 0.59423 0.0
O495 O 0.07169 0.08569 0.5636 0.0
O496 O 0.03237 0.09511 0.55556 0.0
O497 O 0.04049 0.06107 0.53558 0.0
O498 O 0.08461 0.03386 0.55973 0.0
O499 O 0.05047 1.01406 0.55626 0.0
O500 O 1.01948 0.04057 0.57257 0.0
O501 O 0.0386 0.06306 0.60468 0.0
O502 O 0.07946 0.05461 0.61298 0.0
O503 O 0.06994 0.08792 0.63322 0.0
H504 H 1.0094 0.16542 0.60491 0.0
H505 H 1.01018 0.19695 0.57912 0.0
H506 H 0.07117 0.17958 0.55228 0.0
H507 H 0.06924 0.14748 0.57634 0.0
H508 H 0.09641 0.01707 0.60162 0.0
H509 H 0.10438 0.98475 0.62362 0.0
H510 H 0.07247 0.93627 0.55633 0.0
H511 H 0.06466 0.96855 0.53448 0.0
Nd512 Nd 0.33246 0.84862 0.84386 0.0
Nd513 Nd 0.2915 0.82159 0.82774 0.0
C514 C 0.37363 0.87151 0.85297 0.0
C515 C 0.3962 0.8671 0.85139 0.0
C516 C 0.4013 0.84482 0.85275 0.0
C517 C 0.42357 0.84216 0.85868 0.0
C518 C 0.44065 0.86176 0.863 0.0
C519 C 0.43552 0.88347 0.85846 0.0
C520 C 0.4133 0.88613 0.85281 0.0
C521 C 0.30579 0.85355 0.88177 0.0
C522 C 0.33177 0.79115 0.83914 0.0
C523 C 0.25155 0.79554 0.81844 0.0
C524 C 0.23064 0.8007 0.80555 0.0
C525 C 0.21842 0.81592 0.81841 0.0
C526 C 0.19965 0.82226 0.80541 0.0
C527 C 0.19287 0.8135 0.77941 0.0
C528 C 0.20531 0.79866 0.76647 0.0
C529 C 0.22398 0.79223 0.77945 0.0
C530 C 0.31394 0.83087 0.78662 0.0
C531 C 0.29153 0.87763 0.83022 0.0
O532 O 0.36076 0.87049 0.83123 0.0
O533 O 0.36353 0.86169 0.87024 0.0
O534 O 0.31831 0.87018 0.8741 0.0
O535 O 0.30713 0.83397 0.86923 0.0
O536 O 0.34447 0.81215 0.84555 0.0
O537 O 0.30992 0.79002 0.83256 0.0
O538 O 0.25943 0.80804 0.84073 0.0
O539 O 0.26719 0.79288 0.80394 0.0
O540 O 0.29318 0.83331 0.78797 0.0
O541 O 0.32211 0.82493 0.80695 0.0
O542 O 0.279 0.85762 0.83214 0.0
O543 O 0.31327 0.87754 0.82911 0.0
H544 H 0.38807 0.82995 0.85147 0.0
H545 H 0.42725 0.8253 0.86208 0.0
H546 H 0.44837 0.89893 0.86203 0.0
H547 H 0.4094 0.90338 0.85177 0.0
H548 H 0.22333 0.82301 0.83848 0.0
H549 H 0.19022 0.83367 0.81576 0.0
H550 H 0.20011 0.79123 0.74653 0.0
H551 H 0.23322 0.78065 0.76903 0.0
Nd552 Nd 0.52627 0.07708 0.05222 0.0
Nd553 Nd 0.57555 0.08706 0.07997 0.0
C554 C 0.48415 0.07673 0.0339 0.0
C555 C 0.46264 0.06719 0.04181 0.0
C556 C 0.45102 0.0819 0.05625 0.0
C557 C 0.43179 0.07266 0.06591 0.0
C558 C 0.42389 0.0486 0.0612 0.0
C559 C 0.43509 0.03397 0.04613 0.0
C560 C 0.45428 0.04317 0.03648 0.0
C561 C 0.54189 0.03972 0.06922 0.0
C562 C 0.53669 0.09497 0.11476 0.0
C563 C 0.61802 0.08704 0.09601 0.0
C564 C 0.63834 0.09817 0.08724 0.0
C565 C 0.65816 0.08893 0.09051 0.0
C566 C 0.67775 0.10001 0.08291 0.0
C567 C 0.6777 0.12048 0.07199 0.0
C568 C 0.65752 0.12916 0.06781 0.0
C569 C 0.63794 0.11801 0.07528 0.0
C570 C 0.56033 0.12446 0.06238 0.0
C571 C 0.56446 0.06821 0.01806 0.0
O572 O 0.49645 0.09444 0.04942 0.0
O573 O 0.49598 0.06149 0.02486 0.0
O574 O 0.52724 0.03798 0.04904 0.0
O575 O 0.54558 0.06017 0.08083 0.0
O576 O 0.52313 0.09372 0.09309 0.0
O577 O 0.55696 0.0893 0.11507 0.0
O578 O 0.60563 0.07001 0.07969 0.0
O579 O 0.6063 0.10132 0.10717 0.0
O580 O 0.57617 0.12628 0.08142 0.0
O581 O 0.55627 0.10384 0.05134 0.0
O582 O 0.5774 0.06823 0.03979 0.0
O583 O 0.5451 0.07577 0.01762 0.0
H584 H 0.4571 0.10047 0.06058 0.0
H585 H 0.42341 0.08425 0.07755 0.0
H586 H 0.42901 1.01539 0.04181 0.0
H587 H 0.46274 0.03135 0.02526 0.0
H588 H 0.65858 0.07344 0.09937 0.0
H589 H 0.69313 0.09307 0.08654 0.0
H590 H 0.65697 0.14474 0.05913 0.0
H591 H 0.62257 0.1251 0.07212 0.0
Nd592 Nd 0.26445 0.29736 0.29476 0.0
Nd593 Nd 0.30626 0.32706 0.32269 0.0
C594 C 0.22655 0.27404 0.26921 0.0
C595 C 0.20439 0.27896 0.2753 0.0
C596 C 0.1983 0.30064 0.27213 0.0
C597 C 0.183 0.30959 0.28665 0.0
C598 C 0.17359 0.29713 0.30471 0.0
C599 C 0.17746 0.27428 0.3055 0.0
C600 C 0.19261 0.26521 0.29075 0.0
C601 C 0.2716 0.29489 0.346 0.0
C602 C 0.26042 0.34797 0.32281 0.0
C603 C 0.34248 0.3498 0.35214 0.0
C604 C 0.3647 0.34301 0.35082 0.0
C605 C 0.36696 0.31973 0.35235 0.0
C606 C 0.38181 0.30928 0.33849 0.0
C607 C 0.39461 0.32211 0.32332 0.0
C608 C 0.39502 0.34614 0.32503 0.0
C609 C 0.38029 0.35666 0.33903 0.0
C610 C 0.29935 0.3305 0.27148 0.0
C611 C 0.31147 0.27736 0.29411 0.0
O612 O 0.23905 0.29022 0.25986 0.0
O613 O 0.23809 0.26584 0.28717 0.0
O614 O 0.25251 0.29738 0.33407 0.0
O615 O 0.28608 0.2949 0.33102 0.0
O616 O 0.25146 0.33124 0.30389 0.0
O617 O 0.28044 0.34882 0.33552 0.0
O618 O 0.32754 0.33525 0.36062 0.0
O619 O 0.33424 0.357 0.33138 0.0
O620 O 0.31822 0.32746 0.28355 0.0
O621 O 0.28458 0.32999 0.28625 0.0
O622 O 0.32002 0.29401 0.31322 0.0
O623 O 0.29118 0.27611 0.28137 0.0
H624 H 0.20688 0.31171 0.26029 0.0
H625 H 0.17991 0.32704 0.28515 0.0
H626 H 0.17055 0.26421 0.31926 0.0
H627 H 0.19691 0.24845 0.2936 0.0
H628 H 0.35529 0.3087 0.36137 0.0
H629 H 0.38131 0.29067 0.33725 0.0
H630 H 0.40498 0.35623 0.31339 0.0
H631 H 0.37891 0.37458 0.33755 0.0
Nd632 Nd 0.55162 0.60034 0.09817 0.0
Nd633 Nd 0.55726 0.5498 0.07389 0.0
C634 C 0.53761 0.63939 0.111 0.0
C635 C 0.53834 0.65802 0.0957 0.0
C636 C 0.53076 0.67856 0.10404 0.0
C637 C 0.53469 0.69742 0.09092 0.0
C638 C 0.5464 0.69573 0.06963 0.0
C639 C 0.55283 0.67465 0.06051 0.0
C640 C 0.5488 0.65586 0.07349 0.0
C641 C 0.58904 0.59684 0.07545 0.0
C642 C 0.52898 0.57913 0.0368 0.0
C643 C 0.57646 0.51624 0.05427 0.0
C644 C 0.58132 0.49589 0.06487 0.0
C645 C 0.59317 0.48049 0.05216 0.0
C646 C 0.59625 0.46014 0.06175 0.0
C647 C 0.58723 0.45505 0.08396 0.0
C648 C 0.57631 0.4713 0.09728 0.0
C649 C 0.57348 0.49164 0.08783 0.0
C650 C 0.52195 0.54765 0.10208 0.0
C651 C 0.57801 0.57067 0.13539 0.0
O652 O 0.52374 0.62028 0.10071 0.0
O653 O 0.55757 0.63577 0.11992 0.0
O654 O 0.58925 0.61174 0.09576 0.0
O655 O 0.56966 0.58593 0.0673 0.0
O656 O 0.53163 0.59603 0.05681 0.0
O657 O 0.53783 0.56001 0.03824 0.0
O658 O 0.58803 0.53594 0.0669 0.0
O659 O 0.55488 0.51658 0.04846 0.0
O660 O 0.52731 0.529 0.09004 0.0
O661 O 0.53511 0.56496 0.09857 0.0
O662 O 0.57919 0.55605 0.11436 0.0
O663 O 0.56551 0.58725 0.13477 0.0
H664 H 0.52276 0.68033 0.12121 0.0
H665 H 0.52982 0.7137 0.0983 0.0
H666 H 0.56181 0.67308 0.04405 0.0
H667 H 0.55486 0.64001 0.06696 0.0
H668 H 0.59945 0.48387 0.03453 0.0
H669 H 0.60483 0.44796 0.05126 0.0
H670 H 0.5687 0.46774 0.11409 0.0
H671 H 0.56439 0.50364 0.09788 0.0
Nd672 Nd 0.83053 0.34855 0.35003 0.0
Nd673 Nd 0.79175 0.32408 0.32408 0.0
C674 C 0.86774 0.37857 0.36565 0.0
C675 C 0.89164 0.37884 0.3668 0.0
C676 C 0.9001 0.36193 0.35128 0.0
C677 C 0.92293 0.36062 0.35532 0.0
C678 C 0.93713 0.37637 0.37465 0.0
C679 C 0.92861 0.39361 0.38956 0.0
C680 C 0.90592 0.39479 0.38567 0.0
C681 C 0.80041 0.34014 0.38399 0.0
C682 C 0.83112 0.29247 0.34011 0.0
C683 C 0.75313 0.29677 0.30748 0.0
C684 C 0.73066 0.30169 0.30119 0.0
C685 C 0.71226 0.28387 0.29916 0.0
C686 C 0.69136 0.28684 0.2878 0.0
C687 C 0.68892 0.30759 0.27831 0.0
C688 C 0.70687 0.32627 0.28262 0.0
C689 C 0.72777 0.32332 0.29411 0.0
C690 C 0.82196 0.33297 0.29034 0.0
C691 C 0.79127 0.38 0.33303 0.0
O692 O 0.85646 0.37657 0.34279 0.0
O693 O 0.85786 0.36558 0.38057 0.0
O694 O 0.82082 0.33598 0.38709 0.0
O695 O 0.79613 0.34661 0.36261 0.0
O696 O 0.8444 0.31312 0.34568 0.0
O697 O 0.80921 0.29234 0.3343 0.0
O698 O 0.76151 0.30113 0.3317 0.0
O699 O 0.76728 0.304 0.29236 0.0
O700 O 0.80166 0.33763 0.28753 0.0
O701 O 0.82617 0.32626 0.3116 0.0
O702 O 0.778 0.35945 0.32786 0.0
O703 O 0.81312 0.38011 0.33895 0.0
H704 H 0.88895 0.34928 0.33686 0.0
H705 H 0.92934 0.347 0.34406 0.0
H706 H 0.93932 0.4054 0.40513 0.0
H707 H 0.89936 0.40754 0.39807 0.0
H708 H 0.71434 0.26723 0.30481 0.0
H709 H 0.67745 0.27239 0.2848 0.0
H710 H 0.70521 0.34234 0.27531 0.0
H711 H 0.74196 0.33729 0.29571 0.0
Nd712 Nd 1.02398 0.56727 0.55051 0.0
Nd713 Nd 0.07042 0.59342 0.57647 0.0
C714 C 0.98221 0.55279 0.52902 0.0
C715 C 0.96008 0.5514 0.53686 0.0
C716 C 0.95666 0.56481 0.55945 0.0
C717 C 0.93579 0.56127 0.5681 0.0
C718 C 0.91836 0.54418 0.55427 0.0
C719 C 0.92195 0.53115 0.53139 0.0
C720 C 0.94267 0.53484 0.52272 0.0
C721 C 0.05149 0.54021 0.5712 0.0
C722 C 0.03046 0.5925 0.61086 0.0
C723 C 0.11317 0.60663 0.59441 0.0
C724 C 0.13354 0.61553 0.58392 0.0
C725 C 0.14779 0.60036 0.57526 0.0
C726 C 0.16851 0.60924 0.56837 0.0
C727 C 0.17512 0.63334 0.57024 0.0
C728 C 0.16012 0.64831 0.57682 0.0
C729 C 0.13954 0.63951 0.58376 0.0
C730 C 0.04405 0.62029 0.55348 0.0
C731 C 0.06388 0.56814 0.51606 0.0
O732 O 0.99303 0.57371 0.52862 0.0
O733 O 0.99471 0.53919 0.53903 0.0
O734 O 0.03851 0.53366 0.54955 0.0
O735 O 0.04938 0.56017 0.58138 0.0
O736 O 1.01642 0.58468 0.58944 0.0
O737 O 0.05242 0.59404 0.61161 0.0
O738 O 0.10417 0.58483 0.58643 0.0
O739 O 0.09829 0.62044 0.59658 0.0
O740 O 0.05771 0.62792 0.57449 0.0
O741 O 0.04556 0.59981 0.54487 0.0
O742 O 0.07786 0.57788 0.53692 0.0
O743 O 0.04192 0.5648 0.51553 0.0
H744 H 0.97023 0.57751 0.57066 0.0
H745 H 0.93344 0.57147 0.58579 0.0
H746 H 0.90908 0.51735 0.52072 0.0
H747 H 0.94536 0.52415 0.50549 0.0
H748 H 0.14344 0.58176 0.57495 0.0
H749 H 0.17996 0.59747 0.56342 0.0
H750 H 0.16494 0.66698 0.57814 0.0
H751 H 0.12883 0.65163 0.59007 0.0
Nd752 Nd 0.81882 0.83824 0.35546 0.0
Nd753 Nd 0.8009 0.83177 0.31162 0.0
C754 C 0.8313 0.84019 0.40496 0.0
C755 C 0.82086 0.84196 0.42804 0.0
C756 C 0.79774 0.84244 0.42687 0.0
C757 C 0.78876 0.8489 0.4491 0.0
C758 C 0.80288 0.85442 0.47254 0.0
C759 C 0.82565 0.85201 0.47376 0.0
C760 C 0.83463 0.84592 0.45152 0.0
C761 C 0.83127 0.88028 0.33605 0.0
C762 C 0.76541 0.84389 0.34634 0.0
C763 C 0.79231 0.82995 0.26189 0.0
C764 C 0.80035 0.81618 0.24114 0.0
C765 C 0.81296 0.82756 0.22463 0.0
C766 C 0.82119 0.81469 0.20506 0.0
C767 C 0.81655 0.79029 0.20156 0.0
C768 C 0.80493 0.77898 0.21902 0.0
C769 C 0.79702 0.79184 0.23877 0.0
C770 C 0.78881 0.78907 0.33001 0.0
C771 C 0.85382 0.82417 0.31976 0.0
O772 O 0.82501 0.82078 0.38923 0.0
O773 O 0.83236 0.85844 0.39351 0.0
O774 O 0.845 0.86813 0.3461 0.0
O775 O 0.81126 0.86886 0.33412 0.0
O776 O 0.78118 0.83839 0.36243 0.0
O777 O 0.77027 0.8464 0.32351 0.0
O778 O 0.80777 0.8456 0.27622 0.0
O779 O 0.77874 0.81862 0.27503 0.0
O780 O 0.77519 0.80027 0.31821 0.0
O781 O 0.80864 0.80111 0.333 0.0
O782 O 0.83715 0.82693 0.30295 0.0
O783 O 0.85044 0.82562 0.34362 0.0
H784 H 0.78695 0.83915 0.40878 0.0
H785 H 0.77126 0.85098 0.44783 0.0
H786 H 0.83699 0.85681 0.4916 0.0
H787 H 0.85253 0.84572 0.45251 0.0
H788 H 0.81622 0.84639 0.22671 0.0
H789 H 0.83035 0.8238 0.19204 0.0
H790 H 0.80073 0.76019 0.21664 0.0
H791 H 0.78788 0.78264 0.25176 0.0
Nd792 Nd 0.80804 0.35262 0.85049 0.0
Nd793 Nd 0.80213 0.30402 0.82314 0.0
C794 C 0.80092 0.39349 0.8708 0.0
C795 C 0.81288 0.41683 0.87002 0.0
C796 C 0.80081 0.43322 0.86095 0.0
C797 C 0.8122 0.45415 0.85588 0.0
C798 C 0.83581 0.45888 0.85986 0.0
C799 C 0.84786 0.44266 0.86954 0.0
C800 C 0.83649 0.42177 0.87455 0.0
C801 C 0.85171 0.34558 0.84497 0.0
C802 C 0.80135 0.34487 0.78803 0.0
C803 C 0.8071 0.26192 0.80477 0.0
C804 C 0.79426 0.23972 0.80895 0.0
C805 C 0.80464 0.22605 0.82476 0.0
C806 C 0.79209 0.20668 0.83192 0.0
C807 C 0.76893 0.20048 0.82319 0.0
C808 C 0.75856 0.21404 0.80717 0.0
C809 C 0.77108 0.23353 0.80018 0.0
C810 C 0.75864 0.31123 0.8288 0.0
C811 C 0.80914 0.31196 0.8856 0.0
O812 O 0.79046 0.38258 0.84863 0.0
O813 O 0.81169 0.38028 0.88391 0.0
O814 O 0.84617 0.36511 0.85388 0.0
O815 O 0.83397 0.3305 0.83707 0.0
O816 O 0.80228 0.35938 0.80932 0.0
O817 O 0.80331 0.32291 0.78818 0.0
O818 O 0.81969 0.27404 0.82519 0.0
O819 O 0.79633 0.27471 0.79105 0.0
O820 O 0.76401 0.29164 0.82003 0.0
O821 O 0.77642 0.32617 0.83662 0.0
O822 O 0.80821 0.29747 0.86435 0.0
O823 O 0.80705 0.33383 0.88539 0.0
H824 H 0.7826 0.42945 0.85691 0.0
H825 H 0.80256 0.46646 0.84855 0.0
H826 H 0.86609 0.44571 0.87232 0.0
H827 H 0.84624 0.4092 0.88103 0.0
H828 H 0.82238 0.23072 0.83219 0.0
H829 H 0.80047 0.19675 0.84458 0.0
H830 H 0.7408 0.20947 0.79981 0.0
H831 H 0.76246 0.24391 0.78829 0.0
Nd832 Nd 0.76283 0.79314 0.78578 0.0
Nd833 Nd 0.80129 0.8213 0.82206 0.0
C834 C 0.72323 0.77819 0.75871 0.0
C835 C 0.70234 0.78026 0.77019 0.0
C836 C 0.68983 0.79754 0.76445 0.0
C837 C 0.67532 0.80525 0.78111 0.0
C838 C 0.67327 0.79599 0.80397 0.0
C839 C 0.68403 0.77706 0.80823 0.0
C840 C 0.69819 0.76917 0.79146 0.0
C841 C 0.771 0.77585 0.82984 0.0
C842 C 0.75493 0.84077 0.82053 0.0
C843 C 0.8357 0.84206 0.85544 0.0
C844 C 0.85915 0.84223 0.85024 0.0
C845 C 0.87045 0.82419 0.85656 0.0
C846 C 0.88834 0.81883 0.8439 0.0
C847 C 0.89521 0.83138 0.82463 0.0
C848 C 0.88541 0.8509 0.82028 0.0
C849 C 0.86781 0.85645 0.83318 0.0
C850 C 0.80312 0.82784 0.772 0.0
C851 C 0.80918 0.77484 0.7879 0.0
O852 O 0.73551 0.79786 0.75619 0.0
O853 O 0.73547 0.76405 0.76796 0.0
O854 O 0.76576 0.76324 0.80756 0.0
O855 O 0.77118 0.79717 0.82898 0.0
O856 O 0.74579 0.82065 0.80655 0.0
O857 O 0.77646 0.84574 0.82942 0.0
O858 O 0.82449 0.82162 0.85751 0.0
O859 O 0.82382 0.85364 0.84127 0.0
O860 O 0.82001 0.82456 0.78743 0.0
O861 O 0.78577 0.82614 0.7829 0.0
O862 O 0.81337 0.78724 0.81091 0.0
O863 O 0.79203 0.77695 0.77111 0.0
H864 H 0.6927 0.80646 0.74828 0.0
H865 H 0.6669 0.8195 0.77686 0.0
H866 H 0.68315 0.76948 0.82561 0.0
H867 H 0.70744 0.75575 0.79663 0.0
H868 H 0.86427 0.81296 0.86971 0.0
H869 H 0.89588 0.80403 0.8482 0.0
H870 H 0.88996 0.86087 0.8054 0.0
H871 H 0.85964 0.87055 0.82783 0.0
Nd872 Nd 0.57913 0.60973 0.59561 0.0
Nd873 Nd 0.55074 0.5702 0.5836 0.0
C874 C 0.60354 0.65141 0.6104 0.0
C875 C 0.60353 0.6718 0.59675 0.0
C876 C 0.59153 0.68948 0.60466 0.0
C877 C 0.58846 0.70684 0.58965 0.0
C878 C 0.59733 0.7069 0.56635 0.0
C879 C 0.60976 0.68948 0.55879 0.0
C880 C 0.61291 0.67225 0.57382 0.0
C881 C 0.58088 0.5933 0.54383 0.0
C882 C 0.53034 0.61297 0.56939 0.0
C883 C 0.5323 0.52583 0.57267 0.0
C884 C 0.536 0.50733 0.58801 0.0
C885 C 0.53999 0.4859 0.57626 0.0
C886 C 0.54463 0.46879 0.59099 0.0
C887 C 0.54521 0.47276 0.61778 0.0
C888 C 0.5416 0.49448 0.62951 0.0
C889 C 0.53725 0.51162 0.61483 0.0
C890 C 0.53942 0.59255 0.62885 0.0
C891 C 0.59945 0.56634 0.6115 0.0
O892 O 0.58499 0.6446 0.61952 0.0
O893 O 0.61166 0.63391 0.59949 0.0
O894 O 0.57692 0.61371 0.55237 0.0
O895 O 0.58046 0.58131 0.56196 0.0
O896 O 0.54644 0.62302 0.58764 0.0
O897 O 0.53005 0.59124 0.55936 0.0
O898 O 0.5495 0.53461 0.56242 0.0
O899 O 0.52198 0.54179 0.58284 0.0
O900 O 0.52568 0.58353 0.60837 0.0
O901 O 0.55969 0.5912 0.6246 0.0
O902 O 0.5782 0.55665 0.60729 0.0
O903 O 0.60518 0.58812 0.60868 0.0
H904 H 0.58391 0.68949 0.62211 0.0
H905 H 0.57901 0.7201 0.59625 0.0
H906 H 0.61645 0.68857 0.54075 0.0
H907 H 0.62199 0.65877 0.56686 0.0
H908 H 0.5397 0.48247 0.5557 0.0
H909 H 0.54786 0.45248 0.58135 0.0
H910 H 0.54167 0.49816 0.65001 0.0
H911 H 0.53484 0.52826 0.62453 0.0
Nd912 Nd 0.06745 0.58961 0.06759 0.0
Nd913 Nd 0.02723 0.56984 0.07566 0.0
C914 C 0.10748 0.59953 0.05355 0.0
C915 C 0.12658 0.58825 0.0606 0.0
C916 C 0.14622 0.59214 0.04936 0.0
C917 C 0.16462 0.58201 0.05738 0.0
C918 C 0.16355 0.56807 0.0769 0.0
C919 C 0.14343 0.56351 0.08738 0.0
C920 C 0.12505 0.57341 0.07915 0.0
C921 C 0.07038 0.57196 0.11347 0.0
C922 C 0.05024 0.53596 0.04382 0.0
C923 C 0.98978 0.55661 0.09402 0.0
C924 C 0.97092 0.56866 0.09622 0.0
C925 C 0.95249 0.55925 0.10718 0.0
C926 C 0.93356 0.56995 0.10671 0.0
C927 C 0.93299 0.58991 0.09494 0.0
C928 C 0.95221 0.60001 0.08541 0.0
C929 C 0.9711 0.58946 0.08613 0.0
C930 C 1.02365 0.58721 0.02943 0.0
C931 C 0.04453 0.62423 0.09923 0.0
O932 O 0.0907 0.58604 0.03861 0.0
O933 O 0.10101 0.61186 0.07268 0.0
O934 O 0.07908 0.59269 0.1107 0.0
O935 O 0.05981 0.5611 0.09258 0.0
O936 O 0.05951 0.55594 0.03815 0.0
O937 O 0.03916 0.53608 0.06343 0.0
O938 O 1.00829 0.56711 0.10845 0.0
O939 O 0.99278 0.54969 0.07051 0.0
O940 O 1.01465 0.5666 0.03256 0.0
O941 O 0.03465 0.59825 0.05018 0.0
O942 O 0.03387 0.60434 0.10373 0.0
O943 O 0.05662 0.62415 0.08035 0.0
H944 H 0.14744 0.60325 0.03473 0.0
H945 H 0.17981 0.58543 0.04865 0.0
H946 H 0.14212 0.55309 0.10262 0.0
H947 H 0.1098 0.56994 0.08773 0.0
H948 H 0.95243 0.54328 0.11522 0.0
H949 H 0.919 0.56201 0.11438 0.0
H950 H 0.95218 0.61511 0.07579 0.0
H951 H 0.98547 0.5969 0.07772 0.0
H952 H 0.09593 0.28452 0.94063 0.0
H953 H 0.05535 0.22123 0.05246 0.0
H954 H 0.04467 0.30859 0.98192 0.0
H955 H 0.12572 0.23457 0.04272 0.0
H956 H 0.04787 0.24837 0.02284 0.0
H957 H 0.10363 0.25996 0.97326 0.0
C958 C 0.0861 0.28436 0.95639 0.0
C959 C 0.06952 0.29836 0.95856 0.0
C960 C 0.06492 0.24531 0.02738 0.0
C961 C 0.07812 0.27038 0.99565 0.0
C962 C 0.06932 0.22995 0.04445 0.0
C963 C 0.09125 0.22523 0.05011 0.0
C964 C 0.08241 0.2556 0.01538 0.0
C965 C 0.10843 0.23692 0.03851 0.0
C966 C 0.09064 0.27057 0.97507 0.0
C967 C 0.05752 0.2979 0.97958 0.0
N968 N 0.10359 0.25127 0.02146 0.0
N969 N 0.06189 0.28391 0.99725 0.0
H970 H 0.12773 0.85511 0.29185 0.0
H971 H 0.22726 0.78518 0.33231 0.0
H972 H 0.11872 0.78051 0.28645 0.0
H973 H 0.24084 0.85713 0.32202 0.0
H974 H 0.18724 0.78426 0.31871 0.0
H975 H 0.16821 0.85729 0.30598 0.0
C976 C 0.13416 0.83917 0.29379 0.0
C977 C 0.11947 0.81758 0.28809 0.0
C978 C 0.19885 0.80035 0.31952 0.0
C979 C 0.16629 0.81998 0.30427 0.0
C980 C 0.22188 0.80095 0.32746 0.0
C981 C 0.23778 0.82134 0.32861 0.0
C982 C 0.19112 0.82038 0.31286 0.0
C983 C 0.22939 0.84103 0.32164 0.0
C984 C 0.15739 0.84044 0.30177 0.0
C985 C 0.12911 0.79758 0.29081 0.0
N986 N 0.20677 0.84009 0.31424 0.0
N987 N 0.15167 0.79928 0.29868 0.0
H988 H 0.54136 0.92066 0.42326 0.0
H989 H 0.58601 1.01344 0.54642 0.0
H990 H 0.58608 0.90525 0.4854 0.0
H991 H 0.51795 1.00603 0.50867 0.0
H992 H 0.58991 0.97681 0.52078 0.0
H993 H 0.53627 0.95588 0.45066 0.0
C994 C 0.55028 0.92486 0.44257 0.0
C995 C 0.56426 0.91024 0.45212 0.0
C996 C 0.57413 0.98321 0.51822 0.0
C997 C 0.55857 0.95018 0.48325 0.0
C998 C 0.57194 1.00404 0.53267 0.0
C999 C 0.55171 1.0126 0.52936 0.0
C1000 C 0.55616 0.97137 0.49993 0.0
C1001 C 0.5338 0.99983 0.51164 0.0
C1002 C 0.54719 0.94474 0.45819 0.0
C1003 C 0.57522 0.91619 0.47735 0.0
N1004 N 0.53655 0.9799 0.49721 0.0
N1005 N 0.5723 0.93589 0.49205 0.0
H1006 H 0.49537 0.31684 0.81883 0.0
H1007 H 0.36513 0.32017 0.76919 0.0
H1008 H 0.46833 0.31069 0.73926 0.0
H1009 H 0.39002 0.31931 0.8482 0.0
H1010 H 0.40299 0.31784 0.75817 0.0
H1011 H 0.45744 0.3189 0.8303 0.0
C1012 C 0.48153 0.31594 0.80377 0.0
C1013 C 0.48524 0.31352 0.77801 0.0
C1014 C 0.4002 0.31807 0.77793 0.0
C1015 C 0.44151 0.31603 0.79103 0.0
C1016 C 0.37848 0.31937 0.78424 0.0
C1017 C 0.37411 0.31974 0.80967 0.0
C1018 C 0.41798 0.3173 0.79715 0.0
C1019 C 0.39236 0.31886 0.82829 0.0
C1020 C 0.45981 0.3171 0.81032 0.0
C1021 C 0.46645 0.31246 0.75938 0.0
N1022 N 0.41334 0.31773 0.8217 0.0
N1023 N 0.44561 0.31376 0.76622 0.0
H1024 H 1.02062 0.85671 0.66186 0.0
H1025 H 0.10301 0.91714 0.5771 0.0
H1026 H 0.05501 0.81944 0.60741 0.0
H1027 H 0.07511 0.95481 0.63751 0.0
H1028 H 0.09131 0.88118 0.59354 0.0
H1029 H 0.04458 0.8929 0.65763 0.0
C1030 C 0.03314 0.85621 0.64891 0.0
C1031 C 0.03559 0.83527 0.6345 0.0
C1032 C 0.08829 0.89737 0.60368 0.0
C1033 C 0.06321 0.87625 0.62999 0.0
C1034 C 0.09508 0.91785 0.59437 0.0
C1035 C 0.08961 0.93868 0.60577 0.0
C1036 C 0.07575 0.89789 0.62428 0.0
C1037 C 0.0795 0.93896 0.62816 0.0
C1038 C 0.04699 0.87678 0.64676 0.0
C1039 C 0.05233 0.83536 0.61847 0.0
N1040 N 0.07237 0.91866 0.6364 0.0
N1041 N 0.06542 0.85562 0.61648 0.0
H1042 H 0.53714 0.87391 0.9964 0.0
H1043 H 0.48246 0.88078 0.8548 0.0
H1044 H 0.56677 0.9191 0.94712 0.0
H1045 H 0.44706 0.84353 0.90685 0.0
H1046 H 0.51532 0.89151 0.88756 0.0
H1047 H 0.50404 0.86158 0.96402 0.0
C1048 C 0.53637 0.88177 0.9791 0.0
C1049 C 0.55469 0.89743 0.97423 0.0
C1050 C 0.50048 0.88068 0.8917 0.0
C1051 C 0.51748 0.88288 0.93703 0.0
C1052 C 0.48194 0.87429 0.87289 0.0
C1053 C 0.46218 0.86141 0.87828 0.0
C1054 C 0.49913 0.87409 0.91594 0.0
C1055 C 0.46213 0.85337 0.90193 0.0
C1056 C 0.51766 0.87445 0.96049 0.0
C1057 C 0.553 0.90689 0.95148 0.0
N1058 N 0.4803 0.86014 0.92014 0.0
N1059 N 0.5348 0.89923 0.93353 0.0
H1060 H 0.4859 0.22814 0.06615 0.0
H1061 H 0.54941 0.14447 0.10659 0.0
H1062 H 0.46684 0.19233 0.12795 0.0
H1063 H 0.52929 0.13287 0.02477 0.0
H1064 H 0.51674 0.16231 0.11237 0.0
H1065 H 0.49568 0.19236 0.04498 0.0
C1066 C 0.4824 0.21232 0.07441 0.0
C1067 C 0.47639 0.21305 0.09908 0.0
C1068 C 0.51923 0.15564 0.0931 0.0
C1069 C 0.48775 0.17282 0.07552 0.0
C1070 C 0.53819 0.14598 0.08976 0.0
C1071 C 0.54211 0.13763 0.06512 0.0
C1072 C 0.50456 0.15793 0.07162 0.0
C1073 C 0.52683 0.13958 0.04401 0.0
C1074 C 0.488 0.19193 0.06235 0.0
C1075 C 0.47209 0.19234 0.10917 0.0
N1076 N 0.5088 0.15017 0.04768 0.0
N1077 N 0.47857 0.17305 0.09769 0.0
H1078 H 0.16997 0.37794 0.44935 0.0
H1079 H 0.13747 0.2802 0.32795 0.0
H1080 H 0.1031 0.33742 0.42955 0.0
H1081 H 0.18696 0.34143 0.32934 0.0
H1082 H 0.12607 0.29872 0.36727 0.0
H1083 H 0.17893 0.36214 0.4073 0.0
C1084 C 0.15728 0.36571 0.43619 0.0
C1085 C 0.13588 0.35885 0.44279 0.0
C1086 C 0.13931 0.30814 0.35874 0.0
C1087 C 0.14586 0.34083 0.3953 0.0
C1088 C 0.14581 0.2976 0.33638 0.0
C1089 C 0.16345 0.30922 0.32555 0.0
C1090 C 0.15083 0.3302 0.3705 0.0
C1091 C 0.17347 0.33185 0.33713 0.0
C1092 C 0.16229 0.35687 0.41226 0.0
C1093 C 0.11985 0.34312 0.42512 0.0
N1094 N 0.1673 0.34151 0.35922 0.0
N1095 N 0.12523 0.33447 0.40222 0.0
H1096 H 0.98791 0.12418 0.2764 0.0
H1097 H 1.01244 0.05682 0.14286 0.0
H1098 H 0.93912 0.07027 0.22872 0.0
H1099 H 0.05051 0.12399 0.17601 0.0
H1100 H 0.98757 0.05987 0.17591 0.0
H1101 H 1.01251 0.12294 0.2426 0.0
C1102 C 0.98224 0.11206 0.25886 0.0
C1103 C 0.96105 0.09737 0.25576 0.0
C1104 C 1.00132 0.07402 0.17612 0.0
C1105 C 0.98986 0.0956 0.21645 0.0
C1106 C 1.01575 0.07223 0.15717 0.0
C1107 C 0.03399 0.09003 0.15636 0.0
C1108 C 1.00501 0.09369 0.19528 0.0
C1109 C 0.03683 0.10972 0.17556 0.0
C1110 C 0.99641 0.11141 0.23942 0.0
C1111 C 0.95506 0.08207 0.23229 0.0
N1112 N 1.02278 0.1109 0.19418 0.0
N1113 N 0.96929 0.08149 0.21392 0.0
H1114 H 0.34879 0.72869 0.49768 0.0
H1115 H 0.32562 0.8395 0.43311 0.0
H1116 H 0.36958 0.79895 0.53747 0.0
H1117 H 0.30848 0.76828 0.39538 0.0
H1118 H 0.33989 0.82576 0.47241 0.0
H1119 H 0.33269 0.74365 0.46078 0.0
C1120 C 0.35021 0.74736 0.49856 0.0
C1121 C 0.36079 0.76261 0.52062 0.0
C1122 C 0.33279 0.81318 0.45558 0.0
C1123 C 0.34204 0.77999 0.4782 0.0
C1124 C 0.32445 0.82097 0.43323 0.0
C1125 C 0.3158 0.80495 0.41096 0.0
C1126 C 0.33233 0.78925 0.45559 0.0
C1127 C 0.31503 0.78122 0.41206 0.0
C1128 C 0.34086 0.75591 0.47745 0.0
C1129 C 0.36177 0.78662 0.52071 0.0
N1130 N 0.32324 0.77413 0.43393 0.0
N1131 N 0.35251 0.79462 0.49976 0.0
H1132 H 0.65052 0.02448 0.73291 0.0
H1133 H 0.54254 0.04186 0.64008 0.0
H1134 H 0.58317 1.00668 0.75116 0.0
H1135 H 0.61129 0.07197 0.63657 0.0
H1136 H 0.55581 0.02396 0.67728 0.0
H1137 H 0.63518 0.03659 0.69367 0.0
C1138 C 0.63242 0.02286 0.72851 0.0
C1139 C 0.61812 1.01454 0.74536 0.0
C1140 C 0.56791 0.03437 0.66818 0.0
C1141 C 0.60029 0.02873 0.70025 0.0
C1142 C 0.56038 0.04446 0.64696 0.0
C1143 C 0.57587 0.05852 0.63545 0.0
C1144 C 0.59108 0.0381 0.67738 0.0
C1145 C 0.59876 0.06149 0.64507 0.0
C1146 C 0.62364 0.0299 0.70608 0.0
C1147 C 0.59478 1.01293 0.73861 0.0
N1148 N 0.60561 0.05138 0.66535 0.0
N1149 N 0.58654 0.02009 0.71658 0.0
H1150 H 0.30106 0.4738 0.07939 0.0
H1151 H 0.33228 0.3572 0.01127 0.0
H1152 H 0.35861 0.44389 0.1055 0.0
H1153 H 0.27157 0.38284 0.9867 0.0
H1154 H 0.33967 0.38672 0.04857 0.0
H1155 H 0.28914 0.44019 0.04573 0.0
C1156 C 0.31136 0.46033 0.07772 0.0
C1157 C 0.33082 0.46147 0.09507 0.0
C1158 C 0.32451 0.38572 0.03529 0.0
C1159 C 0.31707 0.42303 0.05743 0.0
C1160 C 0.32 0.3685 0.01413 0.0
C1161 C 0.30134 0.36771 0.99567 0.0
C1162 C 0.31045 0.40241 0.03781 0.0
C1163 C 0.28637 0.3832 1.00028 0.0
C1164 C 0.3044 0.44106 0.05881 0.0
C1165 C 0.3435 0.44359 0.09241 0.0
N1166 N 0.2915 0.40033 0.02076 0.0
N1167 N 0.33632 0.425 0.07394 0.0
H1168 H 0.98065 0.12802 0.39296 0.0
H1169 H 1.00817 0.04554 0.49559 0.0
H1170 H 0.93578 0.06455 0.39616 0.0
H1171 H 1.02363 0.12008 0.51662 0.0
H1172 H 0.98708 0.05053 0.45499 0.0
H1173 H 1.0019 0.12403 0.43413 0.0
C1174 C 0.97526 0.11325 0.40226 0.0
C1175 C 0.95622 0.0967 0.39106 0.0
C1176 C 0.99508 0.0658 0.46849 0.0
C1177 C 0.98094 0.09168 0.43795 0.0
C1178 C 1.00721 0.06298 0.4917 0.0
C1179 C 1.01763 0.08241 0.50985 0.0
C1180 C 0.99378 0.08824 0.46275 0.0
C1181 C 1.01572 0.10457 0.50346 0.0
C1182 C 0.98738 0.11102 0.4258 0.0
C1183 C 0.95016 0.07788 0.4041 0.0
N1184 N 1.00429 0.10688 0.48044 0.0
N1185 N 0.96255 0.07575 0.42654 0.0
H1186 H 0.34152 0.73749 0.66131 0.0
H1187 H 0.35619 0.84259 0.77433 0.0
H1188 H 0.38819 0.80022 0.65953 0.0
H1189 H 0.29149 0.80062 0.74497 0.0
H1190 H 0.37161 0.82519 0.73685 0.0
H1191 H 0.32668 0.7576 0.69715 0.0
C1192 C 0.34892 0.75542 0.66872 0.0
C1193 C 0.36631 0.76713 0.65752 0.0
C1194 C 0.35397 0.82012 0.73845 0.0
C1195 C 0.34927 0.79026 0.69869 0.0
C1196 C 0.34514 0.8301 0.75968 0.0
C1197 C 0.32238 0.82351 0.76231 0.0
C1198 C 0.34013 0.80275 0.7203 0.0
C1199 C 0.30894 0.80669 0.74327 0.0
C1200 C 0.34025 0.76693 0.68902 0.0
C1201 C 0.37491 0.7905 0.66771 0.0
N1202 N 0.31808 0.79666 0.72327 0.0
N1203 N 0.36643 0.80128 0.6879 0.0
H1204 H 0.64401 1.01463 0.90889 0.0
H1205 H 0.54227 0.06263 0.96897 0.0
H1206 H 0.58241 0.02038 0.86272 0.0
H1207 H 0.60395 0.05319 0.01245 0.0
H1208 H 0.55572 0.04682 0.92964 0.0
H1209 H 0.62845 0.02795 0.94709 0.0
C1210 C 0.62705 0.01843 0.90684 0.0
C1211 C 0.61442 1.01633 0.88267 0.0
C1212 C 0.56623 0.04825 0.94784 0.0
C1213 C 0.59652 0.03191 0.92639 0.0
C1214 C 0.55863 0.05733 0.97024 0.0
C1215 C 0.57208 0.05933 0.99398 0.0
C1216 C 0.58737 0.04122 0.94937 0.0
C1217 C 0.59302 0.05206 0.9946 0.0
C1218 C 0.61818 0.02614 0.92868 0.0
C1219 C 0.5926 0.02165 0.88109 0.0
N1220 N 0.6 0.04338 0.97264 0.0
N1221 N 0.58433 0.02936 0.90274 0.0
H1222 H 0.3005 0.46288 0.223 0.0
H1223 H 0.33076 0.33817 0.23988 0.0
H1224 H 0.35659 0.43576 0.19457 0.0
H1225 H 0.27024 0.36039 0.26195 0.0
H1226 H 0.33859 0.37293 0.22004 0.0
H1227 H 0.28835 0.42542 0.2371 0.0
C1228 C 0.31048 0.44921 0.22026 0.0
C1229 C 0.3297 0.45237 0.20796 0.0
C1230 C 0.32338 0.37008 0.22886 0.0
C1231 C 0.31568 0.40966 0.22312 0.0
C1232 C 0.31881 0.35009 0.23989 0.0
C1233 C 0.30008 0.34667 0.25283 0.0
C1234 C 0.30921 0.3868 0.23104 0.0
C1235 C 0.28504 0.36257 0.25232 0.0
C1236 C 0.30337 0.42779 0.22788 0.0
C1237 C 0.34176 0.43404 0.20418 0.0
N1238 N 0.29018 0.38229 0.24206 0.0
N1239 N 0.33454 0.41347 0.21171 0.0
H1240 H 0.17236 0.95464 0.06328 0.0
H1241 H 0.13668 0.06612 0.1424 0.0
H1242 H 0.21143 0.9915 0.1338 0.0
H1243 H 0.10656 0.03298 0.06631 0.0
H1244 H 0.1645 0.03945 0.14105 0.0
H1245 H 0.14696 0.98299 0.06588 0.0
C1246 C 0.17541 0.96854 0.07945 0.0
C1247 C 0.19388 0.97065 0.09839 0.0
C1248 C 0.15176 0.03821 0.1247 0.0
C1249 C 0.16514 1.0034 0.10147 0.0
C1250 C 0.13606 0.05347 0.12547 0.0
C1251 C 0.11904 0.05135 0.10474 0.0
C1252 C 0.15021 0.02105 0.10305 0.0
C1253 C 0.119 0.03482 0.08309 0.0
C1254 C 0.16104 0.98487 0.08088 0.0
C1255 C 0.19728 0.98923 0.11881 0.0
N1256 N 0.13413 0.02028 0.08292 0.0
N1257 N 0.18303 1.00491 0.11984 0.0
H1258 H 0.6826 0.63156 0.97623 0.0
H1259 H 0.63278 0.60076 0.09513 0.0
H1260 H 0.71675 0.59221 0.02645 0.0
H1261 H 0.58792 0.58972 0.02399 0.0
H1262 H 0.66479 0.60087 0.07087 0.0
H1263 H 0.64747 0.61882 0.99289 0.0
C1264 C 0.68253 0.61968 0.99013 0.0
C1265 C 0.7025 0.613 1.00016 0.0
C1266 C 0.64788 0.59812 0.06063 0.0
C1267 C 0.66302 0.59909 0.01948 0.0
C1268 C 0.62979 0.59827 0.0744 0.0
C1269 C 0.60803 0.59544 0.06135 0.0
C1270 C 0.64399 0.59584 0.03383 0.0
C1271 C 0.60467 0.592 0.03453 0.0
C1272 C 0.66259 0.61249 0.9996 0.0
C1273 C 0.70168 0.59778 0.0183 0.0
N1274 N 0.62262 0.59281 0.02151 0.0
N1275 N 0.68231 0.59178 0.0279 0.0
H1276 H 0.7051 0.48815 0.35962 0.0
H1277 H 0.81171 0.42524 0.32877 0.0
H1278 H 0.7636 0.52428 0.33419 0.0
H1279 H 0.74837 0.38782 0.34166 0.0
H1280 H 0.79568 0.46151 0.33244 0.0
H1281 H 0.72159 0.45234 0.35559 0.0
C1282 C 0.72141 0.48873 0.35312 0.0
C1283 C 0.7327 0.50988 0.34729 0.0
C1284 C 0.78521 0.44541 0.33448 0.0
C1285 C 0.75216 0.46776 0.34242 0.0
C1286 C 0.79443 0.42448 0.33236 0.0
C1287 C 0.78152 0.40284 0.33458 0.0
C1288 C 0.76281 0.44537 0.33951 0.0
C1289 C 0.75914 0.40364 0.33936 0.0
C1290 C 0.7309 0.46802 0.35078 0.0
C1291 C 0.75401 0.50882 0.33909 0.0
N1292 N 0.75074 0.42421 0.34179 0.0
N1293 N 0.76286 0.48846 0.33694 0.0
H1294 H 0.81265 0.44455 0.56314 0.0
H1295 H 0.91253 0.54065 0.60399 0.0
H1296 H 0.79945 0.49652 0.62235 0.0
H1297 H 0.87613 0.53301 0.52777 0.0
H1298 H 0.87851 0.52095 0.61811 0.0
H1299 H 0.84583 0.47125 0.55696 0.0
C1300 C 0.81701 0.46139 0.57519 0.0
C1301 C 0.80338 0.46855 0.59314 0.0
C1302 C 0.87805 0.52421 0.59851 0.0
C1303 C 0.84094 0.49868 0.58621 0.0
C1304 C 0.89726 0.5355 0.59044 0.0
C1305 C 0.89717 0.538 0.56454 0.0
C1306 C 0.85917 0.5152 0.58037 0.0
C1307 C 0.87704 0.53081 0.54772 0.0
C1308 C 0.83574 0.47654 0.57152 0.0
C1309 C 0.80963 0.49058 0.60821 0.0
N1310 N 0.85894 0.51909 0.55578 0.0
N1311 N 0.82816 0.50511 0.60438 0.0
H1312 H 0.37846 0.16143 0.31048 0.0
H1313 H 0.3527 0.28471 0.28048 0.0
H1314 H 0.43002 0.21827 0.30248 0.0
H1315 H 0.30248 0.23118 0.29757 0.0
H1316 H 0.38034 0.25859 0.28286 0.0
H1317 H 0.34994 0.18531 0.302 0.0
C1318 C 0.38381 0.179 0.30694 0.0
C1319 C 0.4067 0.18793 0.30723 0.0
C1320 C 0.36324 0.25239 0.28572 0.0
C1321 C 0.37394 0.21529 0.29719 0.0
C1322 C 0.34746 0.26712 0.28395 0.0
C1323 C 0.32539 0.25976 0.28826 0.0
C1324 C 0.35693 0.23029 0.29235 0.0
C1325 C 0.31927 0.23714 0.29343 0.0
C1326 C 0.36745 0.1926 0.30205 0.0
C1327 C 0.41259 0.21079 0.30257 0.0
N1328 N 0.33509 0.2232 0.29561 0.0
N1329 N 0.39626 0.2237 0.29768 0.0
H1330 H 0.29862 0.09398 0.53397 0.0
H1331 H 0.43182 0.12094 0.56988 0.0
H1332 H 0.34297 0.13951 0.49714 0.0
H1333 H 0.38808 0.07229 0.60387 0.0
H1334 H 0.39895 0.13195 0.5473 0.0
H1335 H 0.33105 0.08776 0.56192 0.0
C1336 C 0.31526 0.10218 0.53135 0.0
C1337 C 0.31823 0.11698 0.51302 0.0
C1338 C 0.39653 0.11906 0.55992 0.0
C1339 C 0.3552 0.11054 0.54532 0.0
C1340 C 0.41528 0.11301 0.57314 0.0
C1341 C 0.41258 0.09547 0.58853 0.0
C1342 C 0.37507 0.10728 0.56197 0.0
C1343 C 0.3908 0.08557 0.59178 0.0
C1344 C 0.33371 0.09892 0.54755 0.0
C1345 C 0.34004 0.12764 0.51076 0.0
N1346 N 0.3728 0.09139 0.57826 0.0
N1347 N 0.35776 0.12427 0.52687 0.0
H1348 H 0.70329 0.65518 0.33725 0.0
H1349 H 0.81373 0.75651 0.35002 0.0
H1350 H 0.76926 0.64291 0.3647 0.0
H1351 H 0.74622 0.7631 0.32104 0.0
H1352 H 0.79933 0.71612 0.35647 0.0
H1353 H 0.71968 0.6947 0.33232 0.0
C1354 C 0.72129 0.66069 0.3424 0.0
C1355 C 0.73461 0.64505 0.35156 0.0
C1356 C 0.78765 0.7264 0.34868 0.0
C1357 C 0.75413 0.69177 0.3457 0.0
C1358 C 0.79594 0.74967 0.34496 0.0
C1359 C 0.78138 0.76385 0.33479 0.0
C1360 C 0.76446 0.71678 0.34231 0.0
C1361 C 0.7584 0.75336 0.32883 0.0
C1362 C 0.73076 0.68357 0.33949 0.0
C1363 C 0.75801 0.65393 0.35765 0.0
N1364 N 0.75089 0.73098 0.33262 0.0
N1365 N 0.76688 0.6764 0.35465 0.0
H1366 H 0.88239 0.58176 0.79484 0.0
H1367 H 0.87294 0.48714 0.88698 0.0
H1368 H 0.93923 0.56678 0.84257 0.0
H1369 H 0.8265 0.47895 0.81722 0.0
H1370 H 0.89495 0.52055 0.87382 0.0
H1371 H 0.85922 0.54685 0.80462 0.0
C1372 C 0.88999 0.57096 0.80708 0.0
C1373 C 0.91262 0.57702 0.81806 0.0
C1374 C 0.87995 0.5114 0.86138 0.0
C1375 C 0.88645 0.53797 0.82959 0.0
C1376 C 0.86741 0.49239 0.86888 0.0
C1377 C 0.84804 0.48022 0.85304 0.0
C1378 C 0.87295 0.51837 0.83801 0.0
C1379 C 0.84128 0.48804 0.83005 0.0
C1380 C 0.87684 0.55119 0.81264 0.0
C1381 C 0.92183 0.56263 0.83374 0.0
N1382 N 0.85379 0.50673 0.82314 0.0
N1383 N 0.9086 0.54387 0.8393 0.0
H1384 H 0.06638 0.89334 0.23973 0.0
H1385 H 0.03449 0.92416 0.09955 0.0
H1386 H 0.04535 0.84176 0.17217 0.0
H1387 H 0.05686 0.97588 0.16684 0.0
H1388 H 0.04112 0.89385 0.12526 0.0
H1389 H 0.06541 0.92395 0.2129 0.0
C1390 C 0.06165 0.88848 0.21924 0.0
C1391 C 0.05583 0.86504 0.20817 0.0
C1392 C 0.04469 0.91184 0.13438 0.0
C1393 C 0.05455 0.89987 0.17736 0.0
C1394 C 0.04104 0.92919 0.11966 0.0
C1395 C 0.0449 0.95263 0.13106 0.0
C1396 C 0.05221 0.91793 0.16075 0.0
C1397 C 0.05318 0.95802 0.15731 0.0
C1398 C 0.06111 0.90594 0.20392 0.0
C1399 C 0.04994 0.85966 0.1815 0.0
N1400 N 0.05642 0.94081 0.17127 0.0
N1401 N 0.0493 0.87694 0.16703 0.0
H1402 H 0.99873 0.37487 0.86708 0.0
H1403 H 0.87064 0.30482 0.84481 0.0
H1404 H 0.98338 0.30398 0.88056 0.0
H1405 H 0.88885 0.37921 0.85091 0.0
H1406 H 0.91117 0.30226 0.85302 0.0
H1407 H 0.95843 0.37498 0.85639 0.0
C1408 C 0.98694 0.35915 0.86746 0.0
C1409 C 0.99479 0.33931 0.87453 0.0
C1410 C 0.90625 0.31911 0.85234 0.0
C1411 C 0.94783 0.33931 0.8622 0.0
C1412 C 0.88306 0.32055 0.84741 0.0
C1413 C 0.87607 0.34226 0.84686 0.0
C1414 C 0.92274 0.33949 0.85645 0.0
C1415 C 0.89318 0.36204 0.85094 0.0
C1416 C 0.96376 0.35927 0.86147 0.0
C1417 C 0.97832 0.31965 0.87503 0.0
N1418 N 0.9154 0.36016 0.85542 0.0
N1419 N 0.95579 0.32012 0.86891 0.0
H1420 H 0.56044 0.26713 0.67275 0.0
H1421 H 0.52473 0.12906 0.64242 0.0
H1422 H 0.53361 0.2255 0.72671 0.0
H1423 H 0.566 0.16834 0.59671 0.0
H1424 H 0.52524 0.16464 0.6717 0.0
H1425 H 0.55985 0.23161 0.64293 0.0
C1426 C 0.55443 0.25049 0.67835 0.0
C1427 C 0.54717 0.24923 0.70233 0.0
C1428 C 0.53416 0.16553 0.65526 0.0
C1429 C 0.54639 0.20854 0.6682 0.0
C1430 C 0.5338 0.14521 0.6384 0.0
C1431 C 0.5452 0.14574 0.61689 0.0
C1432 C 0.54586 0.18666 0.65058 0.0
C1433 C 0.55686 0.16717 0.61294 0.0
C1434 C 0.55416 0.23024 0.66131 0.0
C1435 C 0.53945 0.22724 0.70848 0.0
N1436 N 0.55683 0.18683 0.6296 0.0
N1437 N 0.53924 0.20775 0.6915 0.0
H1438 H 0.64719 0.8641 0.42157 0.0
H1439 H 0.72589 0.83782 0.31327 0.0
H1440 H 0.61986 0.83033 0.34504 0.0
H1441 H 0.75089 0.85143 0.39387 0.0
H1442 H 0.68751 0.83817 0.3236 0.0
H1443 H 0.68524 0.86291 0.41095 0.0
C1444 C 0.64911 0.8565 0.40242 0.0
C1445 C 0.63 0.84737 0.38418 0.0
C1446 C 0.70136 0.84114 0.33905 0.0
C1447 C 0.67417 0.84606 0.37176 0.0
C1448 C 0.7234 0.84109 0.33318 0.0
C1449 C 0.74193 0.84477 0.35269 0.0
C1450 C 0.69755 0.84532 0.36472 0.0
C1451 C 0.73733 0.84853 0.37812 0.0
C1452 C 0.67098 0.85575 0.39642 0.0
C1453 C 0.63391 0.83765 0.35977 0.0
N1454 N 0.71578 0.8489 0.38334 0.0
N1455 N 0.65542 0.83738 0.35427 0.0
H1456 H 0.11773 0.30324 0.50922 0.0
H1457 H 0.03365 0.23304 0.58641 0.0
H1458 H 0.08436 0.33459 0.56887 0.0
H1459 H 0.05888 0.20038 0.52042 0.0
H1460 H 0.04957 0.27063 0.57731 0.0
H1461 H 0.09631 0.26516 0.51237 0.0
C1462 C 0.10637 0.30196 0.52346 0.0
C1463 C 0.10297 0.32185 0.53913 0.0
C1464 C 0.05142 0.25529 0.56457 0.0
C1465 C 0.07802 0.27895 0.54213 0.0
C1466 C 0.04195 0.23371 0.56951 0.0
C1467 C 0.04523 0.21343 0.5544 0.0
C1468 C 0.06462 0.25663 0.54469 0.0
C1469 C 0.05653 0.21559 0.533 0.0
C1470 C 0.09385 0.28038 0.52487 0.0
C1471 C 0.08761 0.31954 0.55668 0.0
N1472 N 0.06627 0.23689 0.52905 0.0
N1473 N 0.07564 0.29845 0.55766 0.0
H1474 H 0.57715 0.26281 0.16141 0.0
H1475 H 0.66033 0.33935 0.27986 0.0
H1476 H 0.5574 0.31621 0.21374 0.0
H1477 H 0.67343 0.27722 0.23546 0.0
H1478 H 0.62542 0.33688 0.25039 0.0
H1479 H 0.61561 0.27355 0.1833 0.0
C1480 C 0.58095 0.27676 0.17755 0.0
C1481 C 0.56414 0.28833 0.18618 0.0
C1482 C 0.63607 0.32392 0.24708 0.0
C1483 C 0.60787 0.30077 0.21117 0.0
C1484 C 0.65582 0.32534 0.26381 0.0
C1485 C 0.66905 0.308 0.26031 0.0
C1486 C 0.63 0.3052 0.22685 0.0
C1487 C 0.6631 0.29044 0.2391 0.0
C1488 C 0.60287 0.28298 0.18994 0.0
C1489 C 0.56992 0.30661 0.20683 0.0
N1490 N 0.64385 0.28935 0.22326 0.0
N1491 N 0.59136 0.31216 0.21885 0.0
H1492 H 0.64389 0.96703 0.0242 0.0
H1493 H 0.56901 0.03294 0.11102 0.0
H1494 H 0.62142 0.93763 0.08891 0.0
H1495 H 0.55514 1.01514 0.02875 0.0
H1496 H 0.6004 1.01075 0.11074 0.0
H1497 H 0.62532 1.00011 0.03546 0.0
C1498 C 0.63614 0.9681 0.04159 0.0
C1499 C 0.63373 0.94935 0.05537 0.0
C1500 C 0.59044 1.01197 0.09289 0.0
C1501 C 0.61268 0.98695 0.06814 0.0
C1502 C 0.57253 0.02424 0.09303 0.0
C1503 C 0.55931 0.02521 0.06995 0.0
C1504 C 0.59542 1.00161 0.06945 0.0
C1505 C 0.56464 1.01425 0.047 0.0
C1506 C 0.62537 0.98685 0.04778 0.0
C1507 C 0.6234 0.95165 0.07765 0.0
N1508 N 0.58244 1.00298 0.04731 0.0
N1509 N 0.61266 0.96993 0.08305 0.0
H1510 H 0.95542 0.81754 0.68871 0.0
H1511 H 0.89805 0.78596 0.80743 0.0
H1512 H 0.96119 0.75297 0.71708 0.0
H1513 H 0.92629 0.85656 0.80074 0.0
H1514 H 0.91698 0.77196 0.77191 0.0
H1515 H 0.9385 0.83039 0.72639 0.0
C1516 C 0.95271 0.80591 0.70265 0.0
C1517 C 0.9595 0.78415 0.69988 0.0
C1518 C 0.91915 0.79047 0.77856 0.0
C1519 C 0.94066 0.79882 0.74286 0.0
C1520 C 0.90848 0.79853 0.79889 0.0
C1521 C 0.9101 0.82256 0.8068 0.0
C1522 C 0.93129 0.80654 0.76598 0.0
C1523 C 0.92391 0.83795 0.79482 0.0
C1524 C 0.9434 0.81337 0.72424 0.0
C1525 C 0.95599 0.76984 0.71858 0.0
N1526 N 0.9337 0.82967 0.7747 0.0
N1527 N 0.94672 0.77744 0.73942 0.0
H1528 H 0.13667 0.04548 0.90154 0.0
H1529 H 0.11189 0.12305 0.02837 0.0
H1530 H 0.18411 0.10486 0.94124 0.0
H1531 H 0.08208 0.05066 0.00889 0.0
H1532 H 0.13547 0.11828 0.99417 0.0
H1533 H 0.11406 0.04849 0.93715 0.0
C1534 C 0.14246 0.05919 0.91769 0.0
C1535 C 0.16268 0.07486 0.91798 0.0
C1536 C 0.12379 0.10337 0.99722 0.0
C1537 C 0.13608 0.07872 0.95938 0.0
C1538 C 0.11009 0.10608 0.01685 0.0
C1539 C 0.09455 0.0873 0.02189 0.0
C1540 C 0.12192 0.08176 0.98144 0.0
C1541 C 0.0936 0.06576 1.00605 0.0
C1542 C 0.12944 0.06084 0.93819 0.0
C1543 C 0.16889 0.09221 0.93982 0.0
N1544 N 0.10673 0.0637 0.98656 0.0
N1545 N 0.15569 0.09378 0.95921 0.0
H1546 H 0.73782 0.36324 0.63856 0.0
H1547 H 0.80763 0.38974 0.77949 0.0
H1548 H 0.77225 0.43101 0.67606 0.0
H1549 H 0.78151 0.31978 0.74133 0.0
H1550 H 0.79396 0.40465 0.74132 0.0
H1551 H 0.75216 0.34645 0.67586 0.0
C1552 C 0.74818 0.37458 0.6547 0.0
C1553 C 0.75373 0.39856 0.65429 0.0
C1554 C 0.79134 0.386 0.74108 0.0
C1555 C 0.77034 0.37956 0.69666 0.0
C1556 C 0.79924 0.37746 0.76291 0.0
C1557 C 0.79586 0.35346 0.76357 0.0
C1558 C 0.77969 0.37051 0.71964 0.0
C1559 C 0.78475 0.3384 0.74151 0.0
C1560 C 0.75648 0.36499 0.67586 0.0
C1561 C 0.76743 0.41244 0.67555 0.0
N1562 N 0.77689 0.34719 0.72045 0.0
N1563 N 0.77522 0.40276 0.69576 0.0
H1564 H 0.46709 0.16079 0.41039 0.0
H1565 H 0.54688 0.09643 0.49678 0.0
H1566 H 0.50756 0.11408 0.3766 0.0
H1567 H 0.48354 0.11227 0.51689 0.0
H1568 H 0.53849 0.10996 0.45533 0.0
H1569 H 0.47903 0.15065 0.4525 0.0
C1570 C 0.47884 0.14876 0.41188 0.0
C1571 C 0.48645 0.1384 0.38991 0.0
C1572 C 0.52657 0.11064 0.46896 0.0
C1573 C 0.50019 0.12672 0.43815 0.0
C1574 C 0.5314 0.10309 0.49264 0.0
C1575 C 0.51587 0.10329 0.51032 0.0
C1576 C 0.50638 0.11905 0.46326 0.0
C1577 C 0.49595 0.1118 0.50383 0.0
C1578 C 0.48549 0.14284 0.43589 0.0
C1579 C 0.50138 0.12259 0.39303 0.0
N1580 N 0.49185 0.11946 0.48098 0.0
N1581 N 0.50781 0.11728 0.41666 0.0
H1582 H 0.79336 0.66968 0.08949 0.0
H1583 H 0.80935 0.80168 0.15384 0.0
H1584 H 0.76509 0.7237 0.05627 0.0
H1585 H 0.82976 0.7476 0.19409 0.0
H1586 H 0.80216 0.7746 0.11428 0.0
H1587 H 0.81285 0.69876 0.12543 0.0
C1588 C 0.791 0.6876 0.09 0.0
C1589 C 0.77738 0.69434 0.0702 0.0
C1590 C 0.80858 0.76872 0.13167 0.0
C1591 C 0.80005 0.72754 0.1105 0.0
C1592 C 0.81309 0.78432 0.15427 0.0
C1593 C 0.81962 0.77667 0.17739 0.0
C1594 C 0.81031 0.74534 0.13235 0.0
C1595 C 0.82405 0.75392 0.1767 0.0
C1596 C 0.80235 0.70418 0.11026 0.0
C1597 C 0.77519 0.71776 0.07138 0.0
N1598 N 0.81875 0.73878 0.15454 0.0
N1599 N 0.78645 0.73355 0.09125 0.0
H1600 H 0.13357 0.03859 0.78394 0.0
H1601 H 0.10923 0.10545 0.6661 0.0
H1602 H 0.18447 0.0909 0.76557 0.0
H1603 H 0.08509 0.03178 0.65802 0.0
H1604 H 0.13229 0.10353 0.70663 0.0
H1605 H 0.11102 0.03861 0.74224 0.0
C1606 C 0.14005 0.05006 0.77119 0.0
C1607 C 0.16114 0.06467 0.77839 0.0
C1608 C 0.12196 0.08777 0.69603 0.0
C1609 C 0.13497 0.0652 0.73072 0.0
C1610 C 0.10872 0.08884 0.67286 0.0
C1611 C 0.09522 0.06871 0.65838 0.0
C1612 C 0.12127 0.06655 0.70556 0.0
C1613 C 0.09535 0.0477 0.66831 0.0
C1614 C 0.12716 0.05 0.74733 0.0
C1615 C 0.16848 0.0792 0.76091 0.0
N1616 N 0.10787 0.04722 0.69136 0.0
N1617 N 0.15538 0.07931 0.73823 0.0
H1618 H 0.74514 0.42583 0.49741 0.0
H1619 H 0.80117 0.32396 0.42993 0.0
H1620 H 0.74956 0.36243 0.52859 0.0
H1621 H 0.77503 0.37463 0.38885 0.0
H1622 H 0.78488 0.33925 0.46755 0.0
H1623 H 0.75861 0.40895 0.45863 0.0
C1624 C 0.74857 0.40821 0.49594 0.0
C1625 C 0.74591 0.39541 0.51619 0.0
C1626 C 0.78257 0.34689 0.45022 0.0
C1627 C 0.76179 0.37615 0.472 0.0
C1628 C 0.79183 0.33815 0.42879 0.0
C1629 C 0.7892 0.34782 0.40618 0.0
C1630 C 0.77103 0.3658 0.44922 0.0
C1631 C 0.77716 0.36639 0.40577 0.0
C1632 C 0.75635 0.39862 0.47382 0.0
C1633 C 0.75108 0.37283 0.51337 0.0
N1634 N 0.76872 0.37491 0.42702 0.0
N1635 N 0.75891 0.364 0.4918 0.0
H1636 H 0.45096 0.12836 0.22696 0.0
H1637 H 0.55955 0.10287 0.16383 0.0
H1638 H 0.51715 0.14122 0.2708 0.0
H1639 H 0.49516 0.10504 0.12109 0.0
H1640 H 0.5449 0.11575 0.2035 0.0
H1641 H 0.4674 0.1188 0.18816 0.0
C1642 C 0.46904 0.12934 0.22837 0.0
C1643 C 0.48274 0.13566 0.2521 0.0
C1644 C 0.53408 0.11345 0.18539 0.0
C1645 C 0.50175 0.12436 0.20764 0.0
C1646 C 0.54237 0.106 0.16276 0.0
C1647 C 0.52851 0.10268 0.13908 0.0
C1648 C 0.51177 0.11742 0.18425 0.0
C1649 C 0.50646 0.10719 0.13884 0.0
C1650 C 0.47844 0.12386 0.20617 0.0
C1651 C 0.50605 0.13661 0.2528 0.0
N1652 N 0.4988 0.11421 0.16103 0.0
N1653 N 0.51486 0.13081 0.23086 0.0
H1654 H 0.77916 0.66761 0.91583 0.0
H1655 H 0.77049 0.79276 0.88027 0.0
H1656 H 0.76859 0.72513 0.97002 0.0
H1657 H 0.78774 0.73645 0.8298 0.0
H1658 H 0.77534 0.77052 0.91582 0.0
H1659 H 0.78687 0.69437 0.88547 0.0
C1660 C 0.77848 0.68587 0.92126 0.0
C1661 C 0.77285 0.6942 0.94508 0.0
C1662 C 0.77843 0.76327 0.89702 0.0
C1663 C 0.78183 0.72483 0.91092 0.0
C1664 C 0.77573 0.77595 0.87691 0.0
C1665 C 0.77808 0.76592 0.85228 0.0
C1666 C 0.78347 0.74068 0.89201 0.0
C1667 C 0.78513 0.74435 0.84856 0.0
C1668 C 0.78305 0.70118 0.9041 0.0
C1669 C 0.77252 0.71802 0.95155 0.0
N1670 N 0.78726 0.73224 0.8682 0.0
N1671 N 0.77675 0.73254 0.9344 0.0
H1672 H 0.95167 0.22337 0.07594 0.0
H1673 H 0.98362 0.09546 0.06712 0.0
H1674 H 0.90592 0.16307 0.08744 0.0
H1675 H 0.03143 0.15812 0.06854 0.0
H1676 H 0.95364 0.11904 0.06989 0.0
H1677 H 0.98028 0.1989 0.06938 0.0
C1678 C 0.9477 0.20501 0.0772 0.0
C1679 C 0.92648 0.19528 0.08242 0.0
C1680 C 0.97066 0.12754 0.0692 0.0
C1681 C 0.95895 0.16708 0.07459 0.0
C1682 C 0.98767 0.11406 0.06725 0.0
C1683 C 1.00994 0.12486 0.06723 0.0
C1684 C 0.97604 0.15188 0.07097 0.0
C1685 C 1.01443 0.14909 0.06827 0.0
C1686 C 0.96398 0.19102 0.07339 0.0
C1687 C 0.92215 0.17132 0.08364 0.0
N1688 N 0.99768 0.16176 0.07017 0.0
N1689 N 0.93823 0.15802 0.07972 0.0
H1690 H 0.41511 0.52262 0.19318 0.0
H1691 H 0.49553 0.58072 0.10251 0.0
H1692 H 0.39217 0.56307 0.13665 0.0
H1693 H 0.50379 0.5169 0.13095 0.0
H1694 H 0.46167 0.58173 0.12342 0.0
H1695 H 0.45253 0.52864 0.17972 0.0
C1696 C 0.41817 0.53348 0.17861 0.0
C1697 C 0.40065 0.54253 0.16609 0.0
C1698 C 0.47106 0.56767 0.12531 0.0
C1699 C 0.44303 0.54906 0.15045 0.0
C1700 C 0.49032 0.56713 0.11352 0.0
C1701 C 0.50222 0.54869 0.11518 0.0
C1702 C 0.46412 0.54992 0.13927 0.0
C1703 C 0.4948 0.53127 0.12921 0.0
C1704 C 0.43938 0.5366 0.17071 0.0
C1705 C 0.40533 0.55597 0.14688 0.0
N1706 N 0.47617 0.53234 0.14089 0.0
N1707 N 0.4261 0.55871 0.13948 0.0
H1708 H 0.35567 0.64514 0.80098 0.0
H1709 H 0.37551 0.78408 0.85606 0.0
H1710 H 0.41646 0.68138 0.84819 0.0
H1711 H 0.31171 0.74569 0.81782 0.0
H1712 H 0.39113 0.74761 0.85199 0.0
H1713 H 0.34007 0.68162 0.80519 0.0
C1714 C 0.36586 0.66064 0.81227 0.0
C1715 C 0.38764 0.65954 0.82425 0.0
C1716 C 0.37368 0.74706 0.84449 0.0
C1717 C 0.36949 0.70249 0.82919 0.0
C1718 C 0.36464 0.7681 0.84686 0.0
C1719 C 0.34195 0.76854 0.83756 0.0
C1720 C 0.36026 0.72573 0.83234 0.0
C1721 C 0.32915 0.74673 0.82565 0.0
C1722 C 0.35684 0.6817 0.81471 0.0
C1723 C 0.39967 0.68082 0.83852 0.0
N1724 N 0.33836 0.72664 0.82337 0.0
N1725 N 0.39059 0.70101 0.8405 0.0
H1726 H 0.31456 0.66929 0.54528 0.0
H1727 H 0.20111 0.66449 0.60727 0.0
H1728 H 0.30096 0.72111 0.60425 0.0
H1729 H 0.20276 0.62378 0.53401 0.0
H1730 H 0.24011 0.68162 0.60842 0.0
H1731 H 0.27539 0.64903 0.54204 0.0
C1732 C 0.30334 0.6763 0.5575 0.0
C1733 C 0.31076 0.69681 0.57503 0.0
C1734 C 0.23201 0.66912 0.5919 0.0
C1735 C 0.26679 0.67396 0.57168 0.0
C1736 C 0.20974 0.65943 0.59122 0.0
C1737 C 0.19874 0.64325 0.57021 0.0
C1738 C 0.24348 0.66262 0.57141 0.0
C1739 C 0.2108 0.63651 0.55034 0.0
C1740 C 0.28113 0.66486 0.55558 0.0
C1741 C 0.2958 0.70542 0.59037 0.0
N1742 N 0.23271 0.64642 0.5513 0.0
N1743 N 0.27456 0.69388 0.5884 0.0
H1744 H 0.70812 0.97173 0.84758 0.0
H1745 H 0.71418 0.84048 0.79384 0.0
H1746 H 0.654 0.92515 0.79773 0.0
H1747 H 0.76475 0.88336 0.85155 0.0
H1748 H 0.69266 0.8719 0.79426 0.0
H1749 H 0.72946 0.93999 0.84893 0.0
C1750 C 0.70068 0.95475 0.83697 0.0
C1751 C 0.67926 0.951 0.82246 0.0
C1752 C 0.70822 0.87433 0.80725 0.0
C1753 C 0.70364 0.91469 0.82391 0.0
C1754 C 0.72046 0.85629 0.80717 0.0
C1755 C 0.74098 0.85903 0.8232 0.0
C1756 C 0.71637 0.89528 0.8237 0.0
C1757 C 0.74877 0.88034 0.83925 0.0
C1758 C 0.71289 0.93667 0.8378 0.0
C1759 C 0.67043 0.92873 0.80916 0.0
N1760 N 0.73638 0.89771 0.83915 0.0
N1761 N 0.68274 0.91138 0.81013 0.0
H1762 H 0.79246 0.0609 0.66191 0.0
H1763 H 0.67041 0.02213 0.57995 0.0
H1764 H 0.75958 0.98948 0.63883 0.0
H1765 H 0.70554 0.09317 0.59697 0.0
H1766 H 0.70234 1.00987 0.60341 0.0
H1767 H 0.75928 0.07351 0.64113 0.0
C1768 C 0.77802 0.04798 0.65306 0.0
C1769 C 0.77855 0.02424 0.6521 0.0
C1770 C 0.7031 0.02813 0.60186 0.0
C1771 C 0.74116 0.03825 0.62792 0.0
C1772 C 0.68492 0.03509 0.58849 0.0
C1773 C 0.68545 0.05866 0.5865 0.0
C1774 C 0.7218 0.0449 0.61334 0.0
C1775 C 0.70465 0.07477 0.59772 0.0
C1776 C 0.75927 0.05509 0.64092 0.0
C1777 C 0.75972 1.00802 0.63998 0.0
N1778 N 0.72208 0.06759 0.61076 0.0
N1779 N 0.74181 1.01534 0.62817 0.0
H1780 H 0.41443 0.51445 0.83809 0.0
H1781 H 0.3045 0.4112 0.81575 0.0
H1782 H 0.34981 0.52538 0.80421 0.0
H1783 H 0.37109 0.40457 0.84802 0.0
H1784 H 0.31921 0.452 0.81107 0.0
H1785 H 0.39789 0.47455 0.84154 0.0
C1786 C 0.3967 0.5086 0.83126 0.0
C1787 C 0.38381 0.52401 0.82077 0.0
C1788 C 0.33062 0.44164 0.81921 0.0
C1789 C 0.3641 0.47676 0.8248 0.0
C1790 C 0.32215 0.41812 0.82193 0.0
C1791 C 0.33634 0.40375 0.83245 0.0
C1792 C 0.35364 0.45142 0.82704 0.0
C1793 C 0.35917 0.4144 0.83986 0.0
C1794 C 0.38714 0.48548 0.83329 0.0
C1795 C 0.36073 0.51462 0.81246 0.0
N1796 N 0.36686 0.43706 0.83709 0.0
N1797 N 0.35178 0.49193 0.81463 0.0
H1798 H 0.21939 0.56498 0.34862 0.0
H1799 H 0.22016 0.68697 0.30226 0.0
H1800 H 0.15949 0.59292 0.32681 0.0
H1801 H 0.27814 0.67259 0.34856 0.0
H1802 H 0.19838 0.65122 0.31019 0.0
H1803 H 0.24208 0.60339 0.34898 0.0
C1804 C 0.21103 0.57927 0.34431 0.0
C1805 C 0.1876 0.57584 0.33742 0.0
C1806 C 0.21579 0.65595 0.3189 0.0
C1807 C 0.21324 0.61924 0.33743 0.0
C1808 C 0.22824 0.67642 0.31443 0.0
C1809 C 0.25093 0.68287 0.32499 0.0
C1810 C 0.22611 0.64157 0.3338 0.0
C1811 C 0.2607 0.66812 0.33994 0.0
C1812 C 0.22394 0.60109 0.34451 0.0
C1813 C 0.17752 0.5948 0.33208 0.0
N1814 N 0.24821 0.64799 0.34385 0.0
N1815 N 0.19043 0.61561 0.33188 0.0
H1816 H 0.54808 0.8122 0.48504 0.0
H1817 H 0.62592 0.72742 0.53627 0.0
H1818 H 0.59244 0.78044 0.43888 0.0
H1819 H 0.55931 0.72676 0.5578 0.0
H1820 H 0.61764 0.75332 0.50568 0.0
H1821 H 0.55542 0.78673 0.51695 0.0
C1822 C 0.55924 0.79975 0.48158 0.0
C1823 C 0.56954 0.79818 0.45924 0.0
C1824 C 0.60489 0.74748 0.51716 0.0
C1825 C 0.5784 0.76971 0.49576 0.0
C1826 C 0.60953 0.73261 0.53458 0.0
C1827 C 0.59318 0.72448 0.54945 0.0
C1828 C 0.58393 0.75472 0.51486 0.0
C1829 C 0.57253 0.73262 0.54694 0.0
C1830 C 0.56339 0.7853 0.49974 0.0
C1831 C 0.58397 0.78195 0.4557 0.0
N1832 N 0.56848 0.74732 0.52995 0.0
N1833 N 0.58816 0.76849 0.47392 0.0
H1834 H 0.6289 0.35057 0.77723 0.0
H1835 H 0.72204 0.27927 0.8313 0.0
H1836 H 0.61304 0.28442 0.8031 0.0
H1837 H 0.73972 0.35032 0.8193 0.0
H1838 H 0.68226 0.28153 0.82106 0.0
H1839 H 0.66902 0.35134 0.79177 0.0
C1840 C 0.63376 0.33629 0.78622 0.0
C1841 C 0.61729 0.31746 0.78907 0.0
C1842 C 0.69469 0.2968 0.8209 0.0
C1843 C 0.66366 0.31817 0.80567 0.0
C1844 C 0.71754 0.29556 0.82691 0.0
C1845 C 0.73446 0.31472 0.82662 0.0
C1846 C 0.68823 0.31726 0.81386 0.0
C1847 C 0.72737 0.33523 0.82033 0.0
C1848 C 0.65678 0.33676 0.79451 0.0
C1849 C 0.6249 0.2994 0.80059 0.0
N1850 N 0.70489 0.33587 0.81396 0.0
N1851 N 0.64733 0.30018 0.80829 0.0
H1852 H 0.06988 0.43091 0.92323 0.0
H1853 H 0.03875 0.49194 0.05454 0.0
H1854 H 0.05863 0.39495 0.98743 0.0
H1855 H 0.06579 0.53005 0.99782 0.0
H1856 H 0.04282 0.45564 0.02869 0.0
H1857 H 0.06581 0.46719 0.94913 0.0
C1858 C 0.06671 0.43071 0.94282 0.0
C1859 C 0.06459 0.40998 0.95324 0.0
C1860 C 0.0479 0.47196 0.02196 0.0
C1861 C 0.05973 0.4512 0.98281 0.0
C1862 C 0.04551 0.49264 0.03663 0.0
C1863 C 0.05212 0.51397 0.02833 0.0
C1864 C 0.05674 0.47269 0.99877 0.0
C1865 C 0.0607 0.51396 1.00499 0.0
C1866 C 0.06436 0.45137 0.95757 0.0
C1867 C 0.0604 0.4106 0.97869 0.0
N1868 N 0.06274 0.49359 0.99097 0.0
N1869 N 0.058 0.4309 0.9926 0.0
H1870 H 0.97206 0.82002 0.24045 0.0
H1871 H 0.89127 0.8173 0.35044 0.0
H1872 H 0.99474 0.80977 0.31722 0.0
H1873 H 0.86902 0.82523 0.2727 0.0
H1874 H 0.92889 0.81457 0.33902 0.0
H1875 H 0.93462 0.82221 0.25225 0.0
C1876 C 0.96923 0.81818 0.25986 0.0
C1877 C 0.98686 0.81469 0.27782 0.0
C1878 C 0.9158 0.81682 0.3244 0.0
C1879 C 0.94334 0.81715 0.2916 0.0
C1880 C 0.89418 0.81834 0.33089 0.0
C1881 C 0.87664 0.82135 0.3125 0.0
C1882 C 0.92025 0.81842 0.29927 0.0
C1883 C 0.88178 0.82274 0.28755 0.0
C1884 C 0.94769 0.81944 0.26659 0.0
C1885 C 0.98185 0.81253 0.30268 0.0
N1886 N 0.90298 0.82131 0.28175 0.0
N1887 N 0.96066 0.81377 0.30878 0.0
H1888 H 0.52001 0.35329 0.15324 0.0
H1889 H 0.57807 0.41393 0.05145 0.0
H1890 H 0.53164 0.31401 0.08292 0.0
H1891 H 0.59136 0.44254 0.13189 0.0
H1892 H 0.56359 0.37638 0.06248 0.0
H1893 H 0.54626 0.38646 0.14534 0.0
C1894 C 0.52776 0.35186 0.13587 0.0
C1895 C 0.52334 0.33122 0.11832 0.0
C1896 C 0.57021 0.39072 0.07776 0.0
C1897 C 0.55371 0.36861 0.10962 0.0
C1898 C 0.57874 0.41216 0.07151 0.0
C1899 C 0.58545 0.43151 0.0908 0.0
C1900 C 0.56799 0.38887 0.10334 0.0
C1901 C 0.58567 0.42816 0.11642 0.0
C1902 C 0.54309 0.37056 0.13167 0.0
C1903 C 0.53436 0.32987 0.0966 0.0
N1904 N 0.57642 0.40732 0.12198 0.0
N1905 N 0.54896 0.34847 0.09269 0.0
H1906 H 0.06498 0.42037 0.46151 0.0
H1907 H 0.95037 0.33978 0.39393 0.0
H1908 H 0.03748 0.3555 0.4847 0.0
H1909 H 0.97502 0.40721 0.37513 0.0
H1910 H 0.9855 0.34209 0.42238 0.0
H1911 H 0.03364 0.41427 0.427 0.0
C1912 C 0.05209 0.40508 0.4596 0.0
C1913 C 0.0537 0.38845 0.4759 0.0
C1914 C 0.98348 0.35613 0.41154 0.0
C1915 C 1.01837 0.38098 0.43618 0.0
C1916 C 0.96369 0.35458 0.39498 0.0
C1917 C 0.96012 0.37339 0.38245 0.0
C1918 C 0.99947 0.37666 0.41539 0.0
C1919 C 0.97744 0.39243 0.38461 0.0
C1920 C 0.03441 0.40142 0.43972 0.0
C1921 C 0.03674 0.36881 0.47255 0.0
N1922 N 0.99632 0.39379 0.40125 0.0
N1923 N 1.01977 0.36552 0.4529 0.0
H1924 H 0.96467 0.69496 0.61486 0.0
H1925 H 0.04645 0.65808 0.52977 0.0
H1926 H 0.99373 0.73914 0.56455 0.0
H1927 H 1.00071 0.60979 0.56122 0.0
H1928 H 1.01939 0.68477 0.53056 0.0
H1929 H 0.96782 0.66096 0.585 0.0
C1930 C 0.97091 0.69739 0.59695 0.0
C1931 C 0.97935 0.7196 0.59218 0.0
C1932 C 1.01475 0.66788 0.53623 0.0
C1933 C 0.98409 0.68111 0.5586 0.0
C1934 C 0.03022 0.65273 0.53576 0.0
C1935 C 1.02563 0.63191 0.5455 0.0
C1936 C 0.99514 0.66232 0.54751 0.0
C1937 C 1.00468 0.6256 0.55335 0.0
C1938 C 0.97277 0.67802 0.57986 0.0
C1939 C 0.98722 0.72211 0.56883 0.0
N1940 N 0.99033 0.64101 0.55476 0.0
N1941 N 0.99015 0.70299 0.5532 0.0
H1942 H 0.64781 0.83257 0.95695 0.0
H1943 H 0.67276 0.84272 0.81646 0.0
H1944 H 0.63776 0.89302 0.92217 0.0
H1945 H 0.6503 0.77657 0.84 0.0
H1946 H 0.66298 0.86246 0.85567 0.0
H1947 H 0.6534 0.8127 0.91532 0.0
C1948 C 0.64723 0.84178 0.94063 0.0
C1949 C 0.64268 0.86451 0.94291 0.0
C1950 C 0.65999 0.84361 0.85206 0.0
C1951 C 0.64867 0.84194 0.8955 0.0
C1952 C 0.66547 0.83226 0.82956 0.0
C1953 C 0.66295 0.80786 0.825 0.0
C1954 C 0.6521 0.83048 0.87029 0.0
C1955 C 0.6533 0.79539 0.84295 0.0
C1956 C 0.65006 0.83035 0.91688 0.0
C1957 C 0.64149 0.87554 0.92114 0.0
N1958 N 0.64857 0.80685 0.86501 0.0
N1959 N 0.64462 0.86417 0.89827 0.0
H1960 H 0.44275 0.56299 0.73508 0.0
H1961 H 0.54421 0.62897 0.6702 0.0
H1962 H 0.48074 0.62977 0.7702 0.0
H1963 H 0.51141 0.55814 0.6448 0.0
H1964 H 0.52198 0.63059 0.70653 0.0
H1965 H 0.46752 0.56195 0.70168 0.0
C1966 C 0.45618 0.57758 0.73578 0.0
C1967 C 0.45932 0.59651 0.75582 0.0
C1968 C 0.51991 0.61455 0.69326 0.0
C1969 C 0.48833 0.5955 0.71676 0.0
C1970 C 0.5329 0.61353 0.67258 0.0
C1971 C 0.53027 0.59318 0.6544 0.0
C1972 C 0.50384 0.59515 0.69589 0.0
C1973 C 0.51448 0.57413 0.65831 0.0
C1974 C 0.47051 0.57693 0.71659 0.0
C1975 C 0.47743 0.61472 0.75536 0.0
N1976 N 0.50204 0.5756 0.67824 0.0
N1977 N 0.491 0.61382 0.73629 0.0
H1978 H 0.8701 0.29782 0.03764 0.0
H1979 H 0.80656 0.26708 0.89376 0.0
H1980 H 0.84849 0.22833 0.99604 0.0
H1981 H 0.82601 0.33772 0.93292 0.0
H1982 H 0.8212 0.25313 0.93212 0.0
H1983 H 0.85432 0.31341 1.00022 0.0
C1984 C 0.86231 0.28589 0.02054 0.0
C1985 C 0.86076 0.26176 0.01984 0.0
C1986 C 0.82216 0.2717 0.93252 0.0
C1987 C 0.84243 0.27936 0.97732 0.0
C1988 C 0.81368 0.27969 0.91058 0.0
C1989 C 0.815 0.30361 0.91011 0.0
C1990 C 0.83224 0.28768 0.95429 0.0
C1991 C 0.82447 0.3191 0.93252 0.0
C1992 C 0.85317 0.29477 0.9993 0.0
C1993 C 0.85021 0.24705 0.99739 0.0
N1994 N 0.83289 0.31087 0.95371 0.0
N1995 N 0.84146 0.25608 0.97712 0.0
H1996 H 0.14979 0.54587 0.24505 0.0
H1997 H 0.05576 0.52771 0.12411 0.0
H1998 H 0.08986 0.49461 0.24076 0.0
H1999 H 0.0998 0.59259 0.15506 0.0
H2000 H 0.06926 0.5113 0.16232 0.0
H2001 H 0.13367 0.55866 0.2068 0.0
C2002 C 0.13327 0.53707 0.23586 0.0
C2003 C 0.12116 0.5191 0.24612 0.0
C2004 C 0.07576 0.52914 0.16064 0.0
C2005 C 0.10244 0.5339 0.202 0.0
C2006 C 0.06816 0.53847 0.13891 0.0
C2007 C 0.07686 0.56148 0.13636 0.0
C2008 C 0.09234 0.5429 0.17947 0.0
C2009 C 0.09275 0.57474 0.15609 0.0
C2010 C 0.12399 0.54454 0.21406 0.0
C2011 C 0.09971 0.50854 0.23341 0.0
N2012 N 0.10007 0.56522 0.1766 0.0
N2013 N 0.09097 0.51608 0.21182 0.0
H2014 H 0.85024 0.93218 0.6124 0.0
H2015 H 0.78564 0.89412 0.47308 0.0
H2016 H 0.81532 0.9785 0.57275 0.0
H2017 H 0.80644 0.84602 0.52163 0.0
H2018 H 0.79169 0.92447 0.51027 0.0
H2019 H 0.83302 0.90016 0.57889 0.0
C2020 C 0.83928 0.93567 0.59634 0.0
C2021 C 0.83428 0.95796 0.59516 0.0
C2022 C 0.79421 0.90708 0.51297 0.0
C2023 C 0.81397 0.92136 0.55725 0.0
C2024 C 0.79037 0.88967 0.49183 0.0
C2025 C 0.79601 0.86782 0.49451 0.0
C2026 C 0.80384 0.90237 0.53654 0.0
C2027 C 0.80226 0.86286 0.519 0.0
C2028 C 0.82909 0.91732 0.57749 0.0
C2029 C 0.81973 0.96153 0.57417 0.0
N2030 N 0.80664 0.88027 0.53911 0.0
N2031 N 0.81003 0.94333 0.55593 0.0
H2032 H 0.48152 0.57651 0.87398 0.0
H2033 H 0.50216 0.61173 0.027 0.0
H2034 H 0.43719 0.61343 0.91483 0.0
H2035 H 0.52728 0.55377 0.98858 0.0
H2036 H 0.48199 0.61648 0.98584 0.0
H2037 H 0.50206 0.572 0.91508 0.0
C2038 C 0.47618 0.58385 0.89157 0.0
C2039 C 0.45748 0.59539 0.89076 0.0
C2040 C 0.49188 0.60269 0.98641 0.0
C2041 C 0.48128 0.59044 0.93827 0.0
C2042 C 0.50349 0.59997 0.00998 0.0
C2043 C 0.51648 0.58221 0.0116 0.0
C2044 C 0.49344 0.58786 0.96387 0.0
C2045 C 0.51745 0.56763 0.98856 0.0
C2046 C 0.48789 0.58115 0.9151 0.0
C2047 C 0.4514 0.60437 0.91437 0.0
N2048 N 0.50628 0.57086 0.9658 0.0
N2049 N 0.46329 0.60185 0.93701 0.0
H2050 H 0.86362 0.30117 0.14046 0.0
H2051 H 0.85246 0.30336 0.28868 0.0
H2052 H 0.87423 0.24366 0.18016 0.0
H2053 H 0.81548 0.34257 0.24111 0.0
H2054 H 0.86675 0.28578 0.25096 0.0
H2055 H 0.85219 0.32094 0.1791 0.0
C2056 C 0.86392 0.29287 0.15745 0.0
C2057 C 0.87005 0.2708 0.15716 0.0
C2058 C 0.85568 0.29838 0.24882 0.0
C2059 C 0.85697 0.29336 0.2014 0.0
C2060 C 0.84762 0.3086 0.27036 0.0
C2061 C 0.83279 0.3246 0.26807 0.0
C2062 C 0.84926 0.3045 0.2248 0.0
C2063 C 0.82695 0.33043 0.24376 0.0
C2064 C 0.8572 0.30409 0.1794 0.0
C2065 C 0.86976 0.26072 0.17961 0.0
N2066 N 0.83525 0.32043 0.22306 0.0
N2067 N 0.8634 0.2721 0.20086 0.0
H2068 H 0.08358 0.51863 0.36139 0.0
H2069 H 0.10714 0.56294 0.51194 0.0
H2070 H 0.14632 0.51908 0.40891 0.0
H2071 H 0.04137 0.55442 0.46757 0.0
H2072 H 0.1218 0.5476 0.47373 0.0
H2073 H 0.06746 0.53188 0.39973 0.0
C2074 C 0.09382 0.52117 0.37993 0.0
C2075 C 0.11624 0.5177 0.38208 0.0
C2076 C 0.10416 0.54912 0.47231 0.0
C2077 C 0.09817 0.53307 0.42571 0.0
C2078 C 0.09583 0.55805 0.49408 0.0
C2079 C 0.07308 0.56011 0.49282 0.0
C2080 C 0.08966 0.54235 0.4491 0.0
C2081 C 0.05908 0.55316 0.4693 0.0
C2082 C 0.08468 0.52883 0.40174 0.0
C2083 C 0.12892 0.52149 0.40643 0.0
N2084 N 0.06763 0.54462 0.44827 0.0
N2085 N 0.11973 0.5291 0.4273 0.0
H2086 H 0.85633 0.95874 0.73334 0.0
H2087 H 0.77111 0.84423 0.74299 0.0
H2088 H 0.79085 0.9396 0.68796 0.0
H2089 H 0.84306 0.85201 0.76401 0.0
H2090 H 0.77671 0.88073 0.72558 0.0
H2091 H 0.84991 0.92186 0.75045 0.0
C2092 C 0.84038 0.94706 0.72768 0.0
C2093 C 0.82398 0.952 0.70955 0.0
C2094 C 0.79127 0.87421 0.73365 0.0
C2095 C 0.81681 0.9101 0.72812 0.0
C2096 C 0.78811 0.8533 0.74326 0.0
C2097 C 0.80664 0.84524 0.75499 0.0
C2098 C 0.81307 0.88708 0.73607 0.0
C2099 C 0.82831 0.85766 0.75511 0.0
C2100 C 0.83688 0.92595 0.73699 0.0
C2101 C 0.80379 0.93625 0.7021 0.0
N2102 N 0.83092 0.87825 0.74616 0.0
N2103 N 0.80076 0.91589 0.71138 0.0
H2104 H 0.66295 0.44448 0.59728 0.0
H2105 H 0.64502 0.57761 0.61102 0.0
H2106 H 0.71516 0.50212 0.5934 0.0
H2107 H 0.59276 0.52007 0.61533 0.0
H2108 H 0.6715 0.55042 0.60648 0.0
H2109 H 0.63705 0.47205 0.60483 0.0
C2110 C 0.66892 0.46289 0.59794 0.0
C2111 C 0.69116 0.47099 0.59459 0.0
C2112 C 0.6543 0.5438 0.60876 0.0
C2113 C 0.66186 0.50262 0.60351 0.0
C2114 C 0.63923 0.55937 0.61164 0.0
C2115 C 0.61667 0.5512 0.6139 0.0
C2116 C 0.64674 0.51987 0.60803 0.0
C2117 C 0.61003 0.52725 0.61396 0.0
C2118 C 0.6542 0.47864 0.60233 0.0
C2119 C 0.69809 0.49506 0.59573 0.0
N2120 N 0.62494 0.51246 0.6109 0.0
N2121 N 0.68352 0.51 0.60011 0.0
H2122 H 0.21243 0.09148 0.50521 0.0
H2123 H 0.09054 0.1147 0.52925 0.0
H2124 H 0.18831 0.15431 0.49031 0.0
H2125 H 0.13159 0.08247 0.5807 0.0
H2126 H 0.12153 0.12017 0.50353 0.0
H2127 H 0.17709 0.07845 0.52132 0.0
C2128 C 0.19936 0.10211 0.50455 0.0
C2129 C 0.20301 0.12391 0.4965 0.0
C2130 C 0.12358 0.1117 0.52031 0.0
C2131 C 0.16316 0.10927 0.51462 0.0
C2132 C 0.10611 0.10868 0.53489 0.0
C2133 C 0.10907 0.09858 0.55708 0.0
C2134 C 0.14367 0.10396 0.52781 0.0
C2135 C 0.12916 0.09073 0.56382 0.0
C2136 C 0.17944 0.09481 0.51392 0.0
C2137 C 0.18593 0.13737 0.49641 0.0
N2138 N 0.1459 0.09359 0.54913 0.0
N2139 N 0.16663 0.12985 0.50551 0.0
H2140 H 0.26745 0.02523 0.84448 0.0
H2141 H 0.24763 0.88396 0.83535 0.0
H2142 H 0.20337 0.9836 0.84779 0.0
H2143 H 0.31204 0.92408 0.83013 0.0
H2144 H 0.23174 0.92001 0.84009 0.0
H2145 H 0.28412 0.98939 0.8395 0.0
C2146 C 0.25678 1.00867 0.8443 0.0
C2147 C 0.2337 1.00803 0.84669 0.0
C2148 C 0.24934 0.92109 0.83779 0.0
C2149 C 0.25315 0.96591 0.8409 0.0
C2150 C 0.25855 0.90025 0.83497 0.0
C2151 C 0.28143 0.90031 0.83196 0.0
C2152 C 0.26282 0.94292 0.83777 0.0
C2153 C 0.29435 0.92259 0.83208 0.0
C2154 C 0.26642 0.98799 0.84138 0.0
C2155 C 0.22113 0.9855 0.84606 0.0
N2156 N 0.28499 0.94263 0.83488 0.0
N2157 N 0.23088 0.96577 0.84333 0.0
H2158 H 0.32512 0.95273 0.11355 0.0
H2159 H 0.38402 0.06447 0.0619 0.0
H2160 H 0.28956 1.00479 0.08635 0.0
H2161 H 0.41866 1.01015 0.08471 0.0
H2162 H 0.35024 0.04593 0.07697 0.0
H2163 H 0.36066 0.97677 0.10951 0.0
C2164 C 0.32486 0.96941 0.10714 0.0
C2165 C 0.30451 0.97675 0.09999 0.0
C2166 C 0.36529 0.03818 0.07889 0.0
C2167 C 0.34484 1.00413 0.09513 0.0
C2168 C 0.38455 0.0488 0.07039 0.0
C2169 C 0.40396 0.03863 0.07187 0.0
C2170 C 0.36556 0.01731 0.08887 0.0
C2171 C 0.40383 0.01825 0.08282 0.0
C2172 C 0.34509 0.98308 0.10475 0.0
C2173 C 0.30497 0.99846 0.09182 0.0
N2174 N 0.38482 1.00813 0.09075 0.0
N2175 N 0.32487 1.01133 0.08934 0.0
H2176 H 0.93043 0.71848 0.80648 0.0
H2177 H 0.79943 0.7275 0.78005 0.0
H2178 H 0.8767 0.66126 0.80679 0.0
H2179 H 0.85358 0.78555 0.78716 0.0
H2180 H 0.82729 0.70157 0.78476 0.0
H2181 H 0.90227 0.74251 0.79575 0.0
C2182 C 0.91274 0.71102 0.80433 0.0
C2183 C 0.90591 0.68796 0.80776 0.0
C2184 C 0.83306 0.71989 0.7846 0.0
C2185 C 0.87361 0.71512 0.79484 0.0
C2186 C 0.81718 0.73453 0.78143 0.0
C2187 C 0.82437 0.75842 0.78237 0.0
C2188 C 0.85617 0.72939 0.78881 0.0
C2189 C 0.84748 0.76705 0.78557 0.0
C2190 C 0.89665 0.72468 0.79804 0.0
C2191 C 0.88272 0.67907 0.80455 0.0
N2192 N 0.86255 0.75256 0.78875 0.0
N2193 N 0.8674 0.69265 0.79825 0.0
H2194 H 0.84306 0.66632 0.02318 0.0
H2195 H 0.89219 0.56281 0.07804 0.0
H2196 H 0.80814 0.59518 0.01006 0.0
H2197 H 0.9253 0.63461 0.09554 0.0
H2198 H 0.85955 0.57499 0.05672 0.0
H2199 H 0.87308 0.65515 0.05068 0.0
C2200 C 0.84201 0.64821 0.02562 0.0
C2201 C 0.82328 0.63154 0.0142 0.0
C2202 C 0.87382 0.58813 0.06552 0.0
C2203 C 0.85711 0.61884 0.0461 0.0
C2204 C 0.89235 0.58123 0.07809 0.0
C2205 C 0.91157 0.59774 0.0883 0.0
C2206 C 0.87472 0.6116 0.06287 0.0
C2207 C 0.91095 0.62132 0.08742 0.0
C2208 C 0.85895 0.64194 0.04162 0.0
C2209 C 0.8225 0.60845 0.01824 0.0
N2210 N 0.8929 0.62755 0.07444 0.0
N2211 N 0.83919 0.60278 0.03404 0.0
H2212 H 0.26744 0.14038 0.86503 0.0
H2213 H 0.24354 0.26101 0.81679 0.0
H2214 H 0.20271 0.15215 0.83249 0.0
H2215 H 0.31032 0.25326 0.84723 0.0
H2216 H 0.22936 0.22141 0.82327 0.0
H2217 H 0.28391 0.18043 0.85981 0.0
C2218 C 0.25657 0.15124 0.85684 0.0
C2219 C 0.23336 0.14229 0.84931 0.0
C2220 C 0.24715 0.22813 0.8286 0.0
C2221 C 0.25252 0.18907 0.84307 0.0
C2222 C 0.25543 0.25107 0.82484 0.0
C2223 C 0.27843 0.26118 0.83123 0.0
C2224 C 0.26167 0.21423 0.83907 0.0
C2225 C 0.29252 0.24669 0.84177 0.0
C2226 C 0.26609 0.17431 0.85382 0.0
C2227 C 0.22055 0.15776 0.83876 0.0
N2228 N 0.284 0.22425 0.84529 0.0
N2229 N 0.23016 0.1799 0.83603 0.0
H2230 H 0.41482 0.06158 0.28778 0.0
H2231 H 0.33161 1.00437 0.37644 0.0
H2232 H 0.39549 0.09805 0.35552 0.0
H2233 H 0.35179 0.96522 0.311 0.0
H2234 H 0.35145 0.03997 0.36533 0.0
H2235 H 0.38848 0.02685 0.29241 0.0
C2236 C 0.405 0.06225 0.30354 0.0
C2237 C 0.40745 0.08247 0.3215 0.0
C2238 C 0.35135 0.02365 0.35317 0.0
C2239 C 0.3775 0.04329 0.3268 0.0
C2240 C 0.34006 1.00337 0.35956 0.0
C2241 C 0.34031 0.98193 0.34477 0.0
C2242 C 0.36306 0.02245 0.33189 0.0
C2243 C 0.35117 0.9815 0.32284 0.0
C2244 C 0.38997 0.04254 0.30613 0.0
C2245 C 0.39423 0.0827 0.34138 0.0
N2246 N 0.36239 1.00152 0.31719 0.0
N2247 N 0.37992 0.06333 0.34359 0.0
H2248 H 0.53995 0.34091 0.67313 0.0
H2249 H 0.56791 0.47692 0.6666 0.0
H2250 H 0.56297 0.3928 0.74011 0.0
H2251 H 0.53003 0.42584 0.60469 0.0
H2252 H 0.5704 0.4461 0.69277 0.0
H2253 H 0.54061 0.3717 0.64666 0.0
C2254 C 0.54518 0.35882 0.68227 0.0
C2255 C 0.55128 0.36438 0.70886 0.0
C2256 C 0.56166 0.44169 0.6734 0.0
C2257 C 0.55216 0.39968 0.67866 0.0
C2258 C 0.56011 0.45928 0.65845 0.0
C2259 C 0.54858 0.45408 0.63335 0.0
C2260 C 0.55181 0.4187 0.66314 0.0
C2261 C 0.53933 0.43075 0.62373 0.0
C2262 C 0.54553 0.37638 0.66714 0.0
C2263 C 0.55798 0.38783 0.71968 0.0
N2264 N 0.54112 0.41397 0.63865 0.0
N2265 N 0.55825 0.40469 0.70451 0.0
H2266 H 0.4848 0.80782 0.39574 0.0
H2267 H 0.38874 0.86895 0.32729 0.0
H2268 H 0.49941 0.86624 0.35587 0.0
H2269 H 0.37341 0.80807 0.36313 0.0
H2270 H 0.42901 0.8681 0.33762 0.0
H2271 H 0.44436 0.80745 0.38415 0.0
C2272 C 0.47958 0.82046 0.38432 0.0
C2273 C 0.49584 0.83692 0.37658 0.0
C2274 C 0.41692 0.85481 0.34315 0.0
C2275 C 0.44897 0.83679 0.36339 0.0
C2276 C 0.39377 0.85525 0.33717 0.0
C2277 C 0.37735 0.83846 0.3441 0.0
C2278 C 0.42411 0.83747 0.35635 0.0
C2279 C 0.38525 0.8213 0.35714 0.0
C2280 C 0.45636 0.82028 0.37776 0.0
C2281 C 0.48772 0.85301 0.36207 0.0
N2282 N 0.40788 0.82129 0.36284 0.0
N2283 N 0.46507 0.85256 0.35607 0.0
H2284 H 0.04855 0.76678 0.16842 0.0
H2285 H 0.03361 0.628 0.14759 0.0
H2286 H 0.0414 0.72615 0.22968 0.0
H2287 H 0.05536 0.66944 0.09106 0.0
H2288 H 0.0336 0.66357 0.17695 0.0
H2289 H 0.04771 0.7311 0.13875 0.0
C2290 C 0.04679 0.75033 0.17564 0.0
C2291 C 0.04516 0.74943 0.20161 0.0
C2292 C 0.0383 0.66492 0.15811 0.0
C2293 C 0.04428 0.70853 0.16772 0.0
C2294 C 0.0382 0.64462 0.14127 0.0
C2295 C 0.04428 0.64581 0.11675 0.0
C2296 C 0.04425 0.68662 0.1503 0.0
C2297 C 0.05048 0.66778 0.10976 0.0
C2298 C 0.04638 0.72998 0.15868 0.0
C2299 C 0.04272 0.72763 0.20983 0.0
N2300 N 0.05018 0.68736 0.12642 0.0
N2301 N 0.0424 0.70803 0.19294 0.0
H2302 H 0.14587 0.36348 0.92136 0.0
H2303 H 0.2237 0.33665 0.81221 0.0
H2304 H 0.11822 0.33079 0.84454 0.0
H2305 H 0.24942 0.35104 0.89263 0.0
H2306 H 0.18553 0.33743 0.82289 0.0
H2307 H 0.18384 0.36225 0.91048 0.0
C2308 C 0.1477 0.35609 0.90211 0.0
C2309 C 0.12852 0.34727 0.88385 0.0
C2310 C 0.19949 0.34053 0.83824 0.0
C2311 C 0.17259 0.34589 0.87116 0.0
C2312 C 0.22142 0.34024 0.83215 0.0
C2313 C 0.24008 0.34403 0.85151 0.0
C2314 C 0.1959 0.34503 0.86395 0.0
C2315 C 0.23573 0.34813 0.877 0.0
C2316 C 0.16953 0.35533 0.89595 0.0
C2317 C 0.13232 0.33786 0.85928 0.0
N2318 N 0.21426 0.3487 0.88242 0.0
N2319 N 0.15378 0.33752 0.85367 0.0
H2320 H 0.56027 0.82449 0.00942 0.0
H2321 H 0.58909 0.71118 0.0621 0.0
H2322 H 0.62686 0.81913 0.04402 0.0
H2323 H 0.52205 0.72779 0.05423 0.0
H2324 H 0.60325 0.74809 0.04862 0.0
H2325 H 0.54602 0.78639 0.01971 0.0
C2326 C 0.57189 0.81524 0.01919 0.0
C2327 C 0.59478 0.82479 0.02593 0.0
C2328 C 0.58544 0.74358 0.04973 0.0
C2329 C 0.5786 0.78142 0.03754 0.0
C2330 C 0.57734 0.72251 0.05711 0.0
C2331 C 0.55442 0.71665 0.0591 0.0
C2332 C 0.57043 0.75864 0.04419 0.0
C2333 C 0.53986 0.73192 0.05293 0.0
C2334 C 0.56372 0.79358 0.02508 0.0
C2335 C 0.60911 0.81225 0.03859 0.0
N2336 N 0.54814 0.75237 0.0457 0.0
N2337 N 0.60076 0.79102 0.04396 0.0
H2338 H 0.05249 0.77835 0.73115 0.0
H2339 H 0.18303 0.8237 0.73116 0.0
H2340 H 0.08355 0.78365 0.66264 0.0
H2341 H 0.15316 0.8095 0.79847 0.0
H2342 H 0.14538 0.81702 0.7067 0.0
H2343 H 0.0885 0.79555 0.75689 0.0
C2344 C 0.06702 0.78283 0.72158 0.0
C2345 C 0.06528 0.7792 0.69485 0.0
C2346 C 0.14708 0.81579 0.72694 0.0
C2347 C 0.10619 0.79946 0.72398 0.0
C2348 C 0.16849 0.81972 0.74087 0.0
C2349 C 0.17107 0.81662 0.76663 0.0
C2350 C 0.12837 0.80863 0.73897 0.0
C2351 C 0.15185 0.81194 0.77858 0.0
C2352 C 0.08746 0.79289 0.73623 0.0
C2353 C 0.0844 0.78568 0.68327 0.0
N2354 N 0.13125 0.80763 0.76449 0.0
N2355 N 0.10415 0.79555 0.69796 0.0
H2356 H 0.1161 0.42717 0.58965 0.0
H2357 H 0.09165 0.54633 0.55362 0.0
H2358 H 0.14821 0.46407 0.53504 0.0
H2359 H 0.05375 0.50748 0.60218 0.0
H2360 H 0.12066 0.52282 0.5582 0.0
H2361 H 0.10211 0.46215 0.60569 0.0
C2362 C 0.12109 0.44294 0.5818 0.0
C2363 C 0.13305 0.44271 0.56071 0.0
C2364 C 0.10634 0.5197 0.56846 0.0
C2365 C 0.11681 0.4825 0.57869 0.0
C2366 C 0.08982 0.53336 0.56602 0.0
C2367 C 0.07063 0.52909 0.57798 0.0
C2368 C 0.10308 0.50093 0.58206 0.0
C2369 C 0.06861 0.51135 0.59297 0.0
C2370 C 0.11289 0.46284 0.59083 0.0
C2371 C 0.13888 0.46351 0.55118 0.0
N2372 N 0.08453 0.49752 0.59424 0.0
N2373 N 0.13026 0.48249 0.55989 0.0
H2374 H 0.4777 0.25905 0.22726 0.0
H2375 H 0.38119 0.3226 0.27362 0.0
H2376 H 0.42919 0.28441 0.17703 0.0
H2377 H 0.42556 0.29288 0.32415 0.0
H2378 H 0.39468 0.30265 0.23697 0.0
H2379 H 0.45511 0.26495 0.26176 0.0
C2380 C 0.46204 0.26546 0.22341 0.0
C2381 C 0.45537 0.27173 0.19957 0.0
C2382 C 0.40152 0.3004 0.25601 0.0
C2383 C 0.4297 0.27857 0.23871 0.0
C2384 C 0.39404 0.312 0.27686 0.0
C2385 C 0.40298 0.30987 0.30169 0.0
C2386 C 0.41848 0.28708 0.26012 0.0
C2387 C 0.41881 0.29527 0.30515 0.0
C2388 C 0.44917 0.26879 0.24307 0.0
C2389 C 0.43501 0.27977 0.19536 0.0
N2390 N 0.42644 0.28467 0.28446 0.0
N2391 N 0.42298 0.28328 0.21495 0.0
H2392 H 0.6378 0.59611 0.39803 0.0
H2393 H 0.60941 0.56109 0.53403 0.0
H2394 H 0.68305 0.56355 0.44395 0.0
H2395 H 0.58388 0.61691 0.50216 0.0
H2396 H 0.63291 0.55726 0.49922 0.0
H2397 H 0.61495 0.59956 0.43321 0.0
C2398 C 0.64302 0.58961 0.41547 0.0
C2399 C 0.66273 0.57962 0.41765 0.0
C2400 C 0.62211 0.5703 0.49973 0.0
C2401 C 0.63576 0.58309 0.45863 0.0
C2402 C 0.60846 0.57241 0.51963 0.0
C2403 C 0.59424 0.58931 0.52133 0.0
C2404 C 0.6215 0.58485 0.48068 0.0
C2405 C 0.59428 0.60352 0.5019 0.0
C2406 C 0.62986 0.59164 0.43571 0.0
C2407 C 0.66824 0.57156 0.4411 0.0
N2408 N 0.60737 0.60087 0.48259 0.0
N2409 N 0.65486 0.57326 0.46034 0.0
H2410 H 0.26843 0.86667 0.13101 0.0
H2411 H 0.28927 0.88954 0.28368 0.0
H2412 H 0.24254 0.91914 0.17812 0.0
H2413 H 0.30238 0.82663 0.24063 0.0
H2414 H 0.2745 0.90138 0.24424 0.0
H2415 H 0.28245 0.85199 0.16983 0.0
C2416 C 0.26542 0.87487 0.14947 0.0
C2417 C 0.25421 0.89407 0.15135 0.0
C2418 C 0.28065 0.88501 0.24326 0.0
C2419 C 0.27054 0.87772 0.19568 0.0
C2420 C 0.28931 0.87825 0.26588 0.0
C2421 C 0.29729 0.85707 0.26558 0.0
C2422 C 0.27999 0.87064 0.21986 0.0
C2423 C 0.29661 0.8432 0.24176 0.0
C2424 C 0.27349 0.86655 0.17158 0.0
C2425 C 0.25096 0.90421 0.17572 0.0
N2426 N 0.28812 0.85025 0.21978 0.0
N2427 N 0.25922 0.89602 0.19687 0.0
H2428 H 0.9684 0.66288 0.91364 0.0
H2429 H 1.01416 0.56395 0.98088 0.0
H2430 H 1.00052 0.61136 0.87353 0.0
H2431 H 1.02083 0.63277 0.02358 0.0
H2432 H 1.00364 0.57926 0.94142 0.0
H2433 H 0.98219 0.65079 0.95444 0.0
C2434 C 0.97856 0.64928 0.91342 0.0
C2435 C 0.98356 0.63836 0.89011 0.0
C2436 C 1.00748 0.59106 0.95939 0.0
C2437 C 0.99871 0.62399 0.93652 0.0
C2438 C 1.01343 0.58233 0.98193 0.0
C2439 C 1.01842 0.5971 1.00555 0.0
C2440 C 1.00585 0.6147 0.9604 0.0
C2441 C 1.01724 0.62081 1.00574 0.0
C2442 C 0.9864 0.64239 0.93667 0.0
C2443 C 0.99651 0.62055 0.89098 0.0
N2444 N 1.01078 0.62884 0.98355 0.0
N2445 N 1.00334 0.61376 0.91366 0.0
H2446 H 0.29892 0.17286 0.58359 0.0
H2447 H 0.30921 0.30297 0.65066 0.0
H2448 H 0.28184 0.22905 0.54483 0.0
H2449 H 0.32583 0.24731 0.69064 0.0
H2450 H 0.30712 0.27777 0.61023 0.0
H2451 H 0.3149 0.20097 0.62163 0.0
C2452 C 0.2985 0.19114 0.58316 0.0
C2453 C 0.28875 0.19873 0.56133 0.0
C2454 C 0.31164 0.27116 0.62781 0.0
C2455 C 0.3072 0.23085 0.60441 0.0
C2456 C 0.31311 0.28565 0.65093 0.0
C2457 C 0.31729 0.27701 0.67399 0.0
C2458 C 0.31403 0.24785 0.62786 0.0
C2459 C 0.32199 0.25437 0.6732 0.0
C2460 C 0.30779 0.20717 0.60475 0.0
C2461 C 0.28893 0.22253 0.56148 0.0
N2462 N 0.31977 0.24034 0.65042 0.0
N2463 N 0.29789 0.2378 0.58284 0.0
H2464 H 0.68038 0.59781 0.27023 0.0
H2465 H 0.58704 0.53145 0.15544 0.0
H2466 H 0.63736 0.53521 0.28015 0.0
H2467 H 0.6008 0.60627 0.17245 0.0
H2468 H 0.60987 0.52971 0.19648 0.0
H2469 H 0.65644 0.59852 0.22998 0.0
C2470 C 0.66602 0.58405 0.26388 0.0
C2471 C 0.66105 0.5664 0.27882 0.0
C2472 C 0.60787 0.54649 0.19121 0.0
C2473 C 0.63351 0.56693 0.23201 0.0
C2474 C 0.5949 0.54751 0.16771 0.0
C2475 C 0.59181 0.56905 0.16036 0.0
C2476 C 0.61862 0.56716 0.20724 0.0
C2477 C 0.60247 0.58926 0.17726 0.0
C2478 C 0.65225 0.58456 0.24088 0.0
C2479 C 0.64195 0.54918 0.26942 0.0
N2480 N 0.61555 0.58782 0.19954 0.0
N2481 N 0.62909 0.54973 0.2466 0.0
H2482 H 0.26399 0.93404 1.00679 0.0
H2483 H 0.28091 0.82345 0.90942 0.0
H2484 H 0.2395 0.86436 0.01971 0.0
H2485 H 0.30406 0.89592 0.90577 0.0
H2486 H 0.26359 0.83577 0.94805 0.0
H2487 H 0.27654 0.91836 0.96783 0.0
C2488 C 0.26097 0.91532 1.00123 0.0
C2489 C 0.25057 0.90054 0.01657 0.0
C2490 C 0.27251 0.8488 0.93859 0.0
C2491 C 0.26537 0.88204 0.97139 0.0
C2492 C 0.28235 0.84178 0.91662 0.0
C2493 C 0.29414 0.85863 0.90441 0.0
C2494 C 0.27455 0.87271 0.94803 0.0
C2495 C 0.29538 0.88215 0.91445 0.0
C2496 C 0.26828 0.90626 0.97886 0.0
C2497 C 0.24731 0.87637 1.00829 0.0
N2498 N 0.28586 0.88833 0.93545 0.0
N2499 N 0.25482 0.86779 0.98624 0.0
H2500 H 1.01041 0.65486 0.76239 0.0
H2501 H 0.98681 0.58404 0.61988 0.0
H2502 H 0.94854 0.60861 0.72985 0.0
H2503 H 0.05338 0.6174 0.65599 0.0
H2504 H 0.97196 0.59623 0.65919 0.0
H2505 H 1.02603 0.64474 0.72249 0.0
C2506 C 1.0001 0.64276 0.74682 0.0
C2507 C 0.97817 0.63258 0.74939 0.0
C2508 C 0.98983 0.60089 0.65856 0.0
C2509 C 0.99579 0.62095 0.70401 0.0
C2510 C 0.99831 0.59395 0.63608 0.0
C2511 C 1.02136 0.59961 0.63468 0.0
C2512 C 1.00445 0.61378 0.6798 0.0
C2513 C 0.03549 0.6125 0.65632 0.0
C2514 C 1.00902 0.63691 0.72416 0.0
C2515 C 0.96553 0.61689 0.72873 0.0
N2516 N 1.02679 0.61921 0.67801 0.0
N2517 N 0.97451 0.61158 0.70697 0.0
H2518 H 0.24043 0.17517 0.41664 0.0
H2519 H 0.30904 0.2856 0.37244 0.0
H2520 H 0.30967 0.20343 0.44729 0.0
H2521 H 0.23641 0.27029 0.36356 0.0
H2522 H 0.31059 0.2534 0.39675 0.0
H2523 H 0.23997 0.2068 0.3912 0.0
C2524 C 0.25567 0.18769 0.41745 0.0
C2525 C 0.27511 0.18687 0.43395 0.0
C2526 C 0.29434 0.25736 0.38984 0.0
C2527 C 0.27453 0.22305 0.40577 0.0
C2528 C 0.29345 0.27585 0.3763 0.0
C2529 C 0.27257 0.28052 0.3662 0.0
C2530 C 0.2742 0.24352 0.393 0.0
C2531 C 0.25283 0.26729 0.37127 0.0
C2532 C 0.2553 0.20587 0.40331 0.0
C2533 C 0.29436 0.20358 0.43472 0.0
N2534 N 0.25412 0.24909 0.38411 0.0
N2535 N 0.29355 0.22118 0.42092 0.0
H2536 H 0.40535 0.66234 0.58314 0.0
H2537 H 0.53412 0.65885 0.5685 0.0
H2538 H 0.45425 0.72303 0.57993 0.0
H2539 H 0.48463 0.59664 0.56169 0.0
H2540 H 0.50459 0.68226 0.57159 0.0
H2541 H 0.43363 0.63783 0.57511 0.0
C2542 C 0.42211 0.67054 0.58092 0.0
C2543 C 0.42754 0.69482 0.58241 0.0
C2544 C 0.49998 0.66349 0.56886 0.0
C2545 C 0.4599 0.66678 0.57298 0.0
C2546 C 0.51683 0.65009 0.56683 0.0
C2547 C 0.51172 0.62577 0.56427 0.0
C2548 C 0.47773 0.65258 0.5686 0.0
C2549 C 0.48916 0.61531 0.56293 0.0
C2550 C 0.43819 0.65649 0.57616 0.0
C2551 C 0.44939 0.70443 0.57908 0.0
N2552 N 0.47294 0.62884 0.56538 0.0
N2553 N 0.46478 0.69039 0.57461 0.0
H2554 H 0.88496 0.05321 0.62711 0.0
H2555 H 1.01747 0.06344 0.64568 0.0
H2556 H 0.91891 0.02751 0.69055 0.0
H2557 H 0.97598 0.04301 0.57223 0.0
H2558 H 0.9832 0.06206 0.66646 0.0
H2559 H 0.92084 0.0625 0.61129 0.0
C2560 C 0.90007 0.05023 0.63819 0.0
C2561 C 0.89906 0.03962 0.66021 0.0
C2562 C 0.98177 0.05804 0.64581 0.0
C2563 C 0.93989 0.05015 0.64213 0.0
C2564 C 1.00114 0.05885 0.634 0.0
C2565 C 0.99929 0.05309 0.60734 0.0
C2566 C 0.9607 0.05215 0.63064 0.0
C2567 C 0.97795 0.04731 0.59289 0.0
C2568 C 0.92043 0.05532 0.62899 0.0
C2569 C 0.9191 0.03576 0.67355 0.0
N2570 N 0.95937 0.04707 0.60476 0.0
N2571 N 0.93885 0.04093 0.66419 0.0
H2572 H 0.85588 0.14664 0.29897 0.0
H2573 H 0.87456 0.28491 0.35639 0.0
H2574 H 0.91527 0.18247 0.34905 0.0
H2575 H 0.81053 0.2469 0.31844 0.0
H2576 H 0.89009 0.24849 0.35187 0.0
H2577 H 0.83983 0.18289 0.30355 0.0
C2578 C 0.86568 0.16201 0.31094 0.0
C2579 C 0.8872 0.16086 0.32364 0.0
C2580 C 0.87261 0.24797 0.34453 0.0
C2581 C 0.86854 0.20354 0.32893 0.0
C2582 C 0.86361 0.269 0.34716 0.0
C2583 C 0.84088 0.26957 0.33811 0.0
C2584 C 0.85916 0.22671 0.3323 0.0
C2585 C 0.828 0.24782 0.32611 0.0
C2586 C 0.85638 0.18292 0.31359 0.0
C2587 C 0.89869 0.18194 0.33881 0.0
N2588 N 0.83721 0.2277 0.32352 0.0
N2589 N 0.8894 0.202 0.34088 0.0
H2590 H 0.79394 0.22639 0.08832 0.0
H2591 H 0.71198 0.10391 0.05013 0.0
H2592 H 0.81622 0.1631 0.05884 0.0
H2593 H 0.69205 0.16728 0.0835 0.0
H2594 H 0.74919 0.12591 0.048 0.0
H2595 H 0.75543 0.20555 0.08174 0.0
C2596 C 0.79068 0.20807 0.08041 0.0
C2597 C 0.80822 0.19634 0.0744 0.0
C2598 C 0.73657 0.13501 0.05551 0.0
C2599 C 0.76421 0.17236 0.06676 0.0
C2600 C 0.7154 0.12248 0.05677 0.0
C2601 C 0.69904 0.13379 0.06719 0.0
C2602 C 0.74133 0.15894 0.06485 0.0
C2603 C 0.70412 0.1579 0.07516 0.0
C2604 C 0.76868 0.19619 0.07658 0.0
C2605 C 0.80311 0.17268 0.06397 0.0
N2606 N 0.72491 0.16963 0.07404 0.0
N2607 N 0.78149 0.16137 0.06061 0.0
H2608 H 0.21111 0.47289 0.30029 0.0
H2609 H 0.22493 0.35231 0.34809 0.0
H2610 H 0.1598 0.43261 0.33388 0.0
H2611 H 0.27097 0.38816 0.30484 0.0
H2612 H 0.20251 0.38371 0.34723 0.0
H2613 H 0.23461 0.44336 0.30474 0.0
C2614 C 0.20473 0.45769 0.30845 0.0
C2615 C 0.18346 0.45501 0.31658 0.0
C2616 C 0.21758 0.38476 0.33804 0.0
C2617 C 0.21035 0.42137 0.32206 0.0
C2618 C 0.23028 0.36703 0.33868 0.0
C2619 C 0.24943 0.36801 0.32649 0.0
C2620 C 0.22423 0.40326 0.3249 0.0
C2621 C 0.25619 0.38714 0.31456 0.0
C2622 C 0.21819 0.4409 0.31107 0.0
C2623 C 0.17604 0.43514 0.32717 0.0
N2624 N 0.24345 0.40406 0.31387 0.0
N2625 N 0.18955 0.41901 0.32967 0.0
H2626 H 0.25812 0.49223 0.1476 0.0
H2627 H 0.20645 0.59212 0.08682 0.0
H2628 H 0.29317 0.56285 0.15433 0.0
H2629 H 0.16678 0.52596 0.09263 0.0
H2630 H 0.23927 0.58021 0.10845 0.0
H2631 H 0.22479 0.50347 0.12594 0.0
C2632 C 0.25861 0.51024 0.145 0.0
C2633 C 0.27827 0.52676 0.15296 0.0
C2634 C 0.22339 0.5683 0.105 0.0
C2635 C 0.24051 0.53953 0.12777 0.0
C2636 C 0.2047 0.57495 0.09234 0.0
C2637 C 0.18385 0.56001 0.08791 0.0
C2638 C 0.2212 0.5466 0.11341 0.0
C2639 C 0.18249 0.53813 0.09595 0.0
C2640 C 0.23966 0.51658 0.13249 0.0
C2641 C 0.2782 0.54971 0.14882 0.0
N2642 N 0.20096 0.53209 0.10842 0.0
N2643 N 0.2596 0.55541 0.13628 0.0
H2644 H 0.91746 1.01283 0.32336 0.0
H2645 H 0.80625 0.91503 0.32239 0.0
H2646 H 0.85081 0.02972 0.31363 0.0
H2647 H 0.87451 0.90437 0.34017 0.0
H2648 H 0.82084 0.9557 0.3172 0.0
H2649 H 0.90122 0.97294 0.32751 0.0
C2650 C 0.89934 1.00828 0.32194 0.0
C2651 C 0.88577 0.02531 0.318 0.0
C2652 C 0.83265 0.94447 0.32222 0.0
C2653 C 0.86645 0.97822 0.32286 0.0
C2654 C 0.82426 0.92102 0.32516 0.0
C2655 C 0.83896 0.90562 0.33183 0.0
C2656 C 0.85612 0.95305 0.32573 0.0
C2657 C 0.86222 0.91509 0.33509 0.0
C2658 C 0.88997 0.9852 0.3244 0.0
C2659 C 0.86225 0.01761 0.31657 0.0
N2660 N 0.86985 0.93767 0.33202 0.0
N2661 N 0.85349 0.99495 0.31891 0.0
H2662 H 0.71922 0.05737 0.8283 0.0
H2663 H 0.72606 0.19438 0.83584 0.0
H2664 H 0.66261 0.09239 0.83823 0.0
H2665 H 0.782 0.15839 0.8254 0.0
H2666 H 0.70357 0.15794 0.84205 0.0
H2667 H 0.74363 0.09503 0.83277 0.0
C2668 C 0.71198 0.07304 0.83156 0.0
C2669 C 0.68887 0.07189 0.83252 0.0
C2670 C 0.72085 0.1581 0.83869 0.0
C2671 C 0.71659 0.11494 0.83756 0.0
C2672 C 0.73364 0.17884 0.83499 0.0
C2673 C 0.75583 0.17933 0.82976 0.0
C2674 C 0.73035 0.13776 0.83706 0.0
C2675 C 0.765 0.15885 0.82947 0.0
C2676 C 0.7259 0.09453 0.83417 0.0
C2677 C 0.68034 0.09262 0.83713 0.0
N2678 N 0.75213 0.13884 0.83281 0.0
N2679 N 0.6942 0.11338 0.8392 0.0
loop_
_geom_bond_atom_site_label_1
_geom_bond_atom_site_label_2
_geom_bond_distance
_geom_bond_site_symmetry_2
_ccdc_geom_bond_type
In0 O1 2.294 . S
In0 O2 2.326 . S
In0 O6 2.266 . S
In0 O7 2.326 . S
In0 O8 2.266 . S
In0 O9 2.326 . S
In0 O11 2.294 . S
In0 O12 2.326 . S
O1 In0 2.294 . S
O1 C10 1.240 . S
O2 In0 2.326 . S
O2 C10 1.252 . S
C3 O6 1.252 . S
C3 O7 1.260 . S
C4 O11 1.240 . S
C4 O12 1.252 . S
C5 O8 1.252 . S
C5 O9 1.260 . S
O6 In0 2.266 . S
O6 C3 1.252 . S
O7 In0 2.326 . S
O7 C3 1.260 . S
O8 In0 2.266 . S
O8 C5 1.252 . S
O9 In0 2.326 . S
O9 C5 1.260 . S
C10 O1 1.240 . S
C10 O2 1.252 . S
O11 In0 2.294 . S
O11 C4 1.240 . S
O12 In0 2.326 . S
O12 C4 1.252 . S
In13 O14 2.295 . S
In13 O15 2.326 . S
In13 O19 2.266 1_455 S
In13 O20 2.326 1_455 S
In13 O21 2.262 1_455 S
In13 O22 2.320 1_455 S
In13 O24 2.297 . S
In13 O25 2.332 . S
O14 In13 2.295 . S
O14 C23 1.240 . S
O15 In13 2.326 . S
O15 C23 1.252 . S
C16 O19 1.252 . S
C16 O20 1.260 . S
C17 O24 1.240 . S
C17 O25 1.252 . S
C18 O21 1.252 . S
C18 O22 1.260 . S
O19 In13 2.266 1_655 S
O19 C16 1.252 . S
O20 In13 2.326 1_655 S
O20 C16 1.260 . S
O21 In13 2.262 1_655 S
O21 C18 1.252 . S
O22 In13 2.320 1_655 S
O22 C18 1.260 . S
C23 O14 1.240 . S
C23 O15 1.252 . S
O24 In13 2.297 . S
O24 C17 1.240 . S
O25 In13 2.332 . S
O25 C17 1.252 . S
In26 O27 2.294 . S
In26 O28 2.326 1_556 S
In26 O32 2.266 . S
In26 O33 2.326 1_556 S
In26 O34 2.266 1_556 S
In26 O35 2.326 . S
In26 O37 2.294 1_556 S
In26 O38 2.326 . S
O27 In26 2.294 . S
O27 C36 1.240 . S
O28 In26 2.326 1_554 S
O28 C36 1.252 1_554 S
C29 O32 1.252 . S
C29 O33 1.260 1_556 S
C30 O37 1.240 . S
C30 O38 1.252 1_554 S
C31 O34 1.252 . S
C31 O35 1.260 1_554 S
O32 In26 2.266 . S
O32 C29 1.252 . S
O33 In26 2.326 1_554 S
O33 C29 1.260 1_554 S
O34 In26 2.266 1_554 S
O34 C31 1.252 . S
O35 In26 2.326 . S
O35 C31 1.260 1_556 S
C36 O27 1.240 . S
C36 O28 1.252 1_556 S
O37 In26 2.294 1_554 S
O37 C30 1.240 . S
O38 In26 2.326 . S
O38 C30 1.252 1_556 S
In39 O40 2.294 . S
In39 O41 2.326 . S
In39 O45 2.266 . S
In39 O46 2.326 . S
In39 O47 2.266 . S
In39 O48 2.326 . S
In39 O50 2.294 . S
In39 O51 2.326 . S
O40 In39 2.294 . S
O40 C49 1.240 . S
O41 In39 2.326 . S
O41 C49 1.252 . S
C42 O45 1.252 . S
C42 O46 1.260 . S
C43 O50 1.240 . S
C43 O51 1.252 . S
C44 O47 1.252 . S
C44 O48 1.260 . S
O45 In39 2.266 . S
O45 C42 1.252 . S
O46 In39 2.326 . S
O46 C42 1.260 . S
O47 In39 2.266 . S
O47 C44 1.252 . S
O48 In39 2.326 . S
O48 C44 1.260 . S
C49 O40 1.240 . S
C49 O41 1.252 . S
O50 In39 2.294 . S
O50 C43 1.240 . S
O51 In39 2.326 . S
O51 C43 1.252 . S
In52 O53 2.294 . S
In52 O54 2.326 . S
In52 O58 2.266 . S
In52 O59 2.326 . S
In52 O60 2.266 . S
In52 O61 2.326 . S
In52 O63 2.294 . S
In52 O64 2.326 1_455 S
O53 In52 2.294 . S
O53 C62 1.240 . S
O54 In52 2.326 . S
O54 C62 1.252 . S
C55 O58 1.252 . S
C55 O59 1.260 . S
C56 O63 1.240 1_655 S
C56 O64 1.252 . S
C57 O60 1.252 . S
C57 O61 1.260 . S
O58 In52 2.266 . S
O58 C55 1.252 . S
O59 In52 2.326 . S
O59 C55 1.260 . S
O60 In52 2.266 . S
O60 C57 1.252 . S
O61 In52 2.326 . S
O61 C57 1.260 . S
C62 O53 1.240 . S
C62 O54 1.252 . S
O63 In52 2.294 . S
O63 C56 1.240 1_455 S
O64 In52 2.326 1_655 S
O64 C56 1.252 . S
In65 O66 2.294 . S
In65 O67 2.326 . S
In65 O71 2.266 . S
In65 O72 2.326 . S
In65 O73 2.266 . S
In65 O74 2.326 . S
In65 O76 2.294 . S
In65 O77 2.326 . S
O66 In65 2.294 . S
O66 C75 1.240 . S
O67 In65 2.326 . S
O67 C75 1.252 . S
C68 O71 1.252 . S
C68 O72 1.260 . S
C69 O76 1.240 . S
C69 O77 1.252 . S
C70 O73 1.252 . S
C70 O74 1.260 . S
O71 In65 2.266 . S
O71 C68 1.252 . S
O72 In65 2.326 . S
O72 C68 1.260 . S
O73 In65 2.266 . S
O73 C70 1.252 . S
O74 In65 2.326 . S
O74 C70 1.260 . S
C75 O66 1.240 . S
C75 O67 1.252 . S
O76 In65 2.294 . S
O76 C69 1.240 . S
O77 In65 2.326 . S
O77 C69 1.252 . S
In78 O79 2.294 . S
In78 O80 2.326 . S
In78 O84 2.266 . S
In78 O85 2.326 . S
In78 O86 2.266 . S
In78 O87 2.326 . S
In78 O89 2.294 . S
In78 O90 2.326 . S
O79 In78 2.294 . S
O79 C88 1.240 . S
O80 In78 2.326 . S
O80 C88 1.252 . S
C81 O84 1.252 . S
C81 O85 1.260 . S
C82 O89 1.240 . S
C82 O90 1.252 . S
C83 O86 1.252 . S
C83 O87 1.260 . S
O84 In78 2.266 . S
O84 C81 1.252 . S
O85 In78 2.326 . S
O85 C81 1.260 . S
O86 In78 2.266 . S
O86 C83 1.252 . S
O87 In78 2.326 . S
O87 C83 1.260 . S
C88 O79 1.240 . S
C88 O80 1.252 . S
O89 In78 2.294 . S
O89 C82 1.240 . S
O90 In78 2.326 . S
O90 C82 1.252 . S
In91 O92 2.294 . S
In91 O93 2.326 . S
In91 O97 2.266 . S
In91 O98 2.326 . S
In91 O99 2.266 . S
In91 O100 2.326 1_455 S
In91 O102 2.294 . S
In91 O103 2.326 . S
O92 In91 2.294 . S
O92 C101 1.240 . S
O93 In91 2.326 . S
O93 C101 1.252 . S
C94 O97 1.252 . S
C94 O98 1.260 . S
C95 O102 1.240 . S
C95 O103 1.252 . S
C96 O99 1.252 1_655 S
C96 O100 1.260 . S
O97 In91 2.266 . S
O97 C94 1.252 . S
O98 In91 2.326 . S
O98 C94 1.260 . S
O99 In91 2.266 . S
O99 C96 1.252 1_455 S
O100 In91 2.326 1_655 S
O100 C96 1.260 . S
C101 O92 1.240 . S
C101 O93 1.252 . S
O102 In91 2.294 . S
O102 C95 1.240 . S
O103 In91 2.326 . S
O103 C95 1.252 . S
In104 O105 2.294 . S
In104 O106 2.326 . S
In104 O110 2.266 . S
In104 O111 2.326 . S
In104 O112 2.266 . S
In104 O113 2.326 . S
In104 O115 2.294 . S
In104 O116 2.326 . S
O105 In104 2.294 . S
O105 C114 1.240 . S
O106 In104 2.326 . S
O106 C114 1.252 . S
C107 O110 1.252 . S
C107 O111 1.260 . S
C108 O115 1.240 . S
C108 O116 1.252 . S
C109 O112 1.252 . S
C109 O113 1.260 . S
O110 In104 2.266 . S
O110 C107 1.252 . S
O111 In104 2.326 . S
O111 C107 1.260 . S
O112 In104 2.266 . S
O112 C109 1.252 . S
O113 In104 2.326 . S
O113 C109 1.260 . S
C114 O105 1.240 . S
C114 O106 1.252 . S
O115 In104 2.294 . S
O115 C108 1.240 . S
O116 In104 2.326 . S
O116 C108 1.252 . S
In117 O118 2.294 . S
In117 O119 2.326 . S
In117 O123 2.266 . S
In117 O124 2.326 . S
In117 O125 2.266 . S
In117 O126 2.326 . S
In117 O128 2.294 . S
In117 O129 2.326 . S
O118 In117 2.294 . S
O118 C127 1.240 . S
O119 In117 2.326 . S
O119 C127 1.252 . S
C120 O123 1.252 . S
C120 O124 1.260 . S
C121 O128 1.240 . S
C121 O129 1.252 . S
C122 O125 1.252 . S
C122 O126 1.260 . S
O123 In117 2.266 . S
O123 C120 1.252 . S
O124 In117 2.326 . S
O124 C120 1.260 . S
O125 In117 2.266 . S
O125 C122 1.252 . S
O126 In117 2.326 . S
O126 C122 1.260 . S
C127 O118 1.240 . S
C127 O119 1.252 . S
O128 In117 2.294 . S
O128 C121 1.240 . S
O129 In117 2.326 . S
O129 C121 1.252 . S
In130 O131 2.294 . S
In130 O132 2.326 . S
In130 O136 2.266 . S
In130 O137 2.326 . S
In130 O138 2.266 . S
In130 O139 2.326 . S
In130 O141 2.294 . S
In130 O142 2.326 . S
O131 In130 2.294 . S
O131 C140 1.240 . S
O132 In130 2.326 . S
O132 C140 1.252 . S
C133 O136 1.252 . S
C133 O137 1.260 . S
C134 O141 1.240 . S
C134 O142 1.252 . S
C135 O138 1.252 . S
C135 O139 1.260 . S
O136 In130 2.266 . S
O136 C133 1.252 . S
O137 In130 2.326 . S
O137 C133 1.260 . S
O138 In130 2.266 . S
O138 C135 1.252 . S
O139 In130 2.326 . S
O139 C135 1.260 . S
C140 O131 1.240 . S
C140 O132 1.252 . S
O141 In130 2.294 . S
O141 C134 1.240 . S
O142 In130 2.326 . S
O142 C134 1.252 . S
In143 O144 2.294 . S
In143 O145 2.326 . S
In143 O149 2.266 . S
In143 O150 2.326 . S
In143 O151 2.266 . S
In143 O152 2.326 . S
In143 O154 2.294 . S
In143 O155 2.326 . S
O144 In143 2.294 . S
O144 C153 1.240 . S
O145 In143 2.326 . S
O145 C153 1.252 . S
C146 O149 1.252 . S
C146 O150 1.260 . S
C147 O154 1.240 . S
C147 O155 1.252 . S
C148 O151 1.252 . S
C148 O152 1.260 . S
O149 In143 2.266 . S
O149 C146 1.252 . S
O150 In143 2.326 . S
O150 C146 1.260 . S
O151 In143 2.266 . S
O151 C148 1.252 . S
O152 In143 2.326 . S
O152 C148 1.260 . S
C153 O144 1.240 . S
C153 O145 1.252 . S
O154 In143 2.294 . S
O154 C147 1.240 . S
O155 In143 2.326 . S
O155 C147 1.252 . S
In156 O157 2.294 . S
In156 O158 2.326 . S
In156 O162 2.266 . S
In156 O163 2.326 . S
In156 O164 2.266 . S
In156 O165 2.326 . S
In156 O167 2.294 . S
In156 O168 2.326 . S
O157 In156 2.294 . S
O157 C166 1.240 . S
O158 In156 2.326 . S
O158 C166 1.252 . S
C159 O162 1.252 . S
C159 O163 1.260 . S
C160 O167 1.240 . S
C160 O168 1.252 . S
C161 O164 1.252 . S
C161 O165 1.260 . S
O162 In156 2.266 . S
O162 C159 1.252 . S
O163 In156 2.326 . S
O163 C159 1.260 . S
O164 In156 2.266 . S
O164 C161 1.252 . S
O165 In156 2.326 . S
O165 C161 1.260 . S
C166 O157 1.240 . S
C166 O158 1.252 . S
O167 In156 2.294 . S
O167 C160 1.240 . S
O168 In156 2.326 . S
O168 C160 1.252 . S
In169 O170 2.294 . S
In169 O171 2.326 . S
In169 O175 2.266 . S
In169 O176 2.326 . S
In169 O177 2.266 . S
In169 O178 2.326 . S
In169 O180 2.294 . S
In169 O181 2.326 . S
O170 In169 2.294 . S
O170 C179 1.240 . S
O171 In169 2.326 . S
O171 C179 1.252 . S
C172 O175 1.252 . S
C172 O176 1.260 . S
C173 O180 1.240 . S
C173 O181 1.252 . S
C174 O177 1.252 . S
C174 O178 1.260 . S
O175 In169 2.266 . S
O175 C172 1.252 . S
O176 In169 2.326 . S
O176 C172 1.260 . S
O177 In169 2.266 . S
O177 C174 1.252 . S
O178 In169 2.326 . S
O178 C174 1.260 . S
C179 O170 1.240 . S
C179 O171 1.252 . S
O180 In169 2.294 . S
O180 C173 1.240 . S
O181 In169 2.326 . S
O181 C173 1.252 . S
In182 O183 2.294 . S
In182 O184 2.326 . S
In182 O188 2.266 . S
In182 O189 2.326 . S
In182 O190 2.266 . S
In182 O191 2.326 . S
In182 O193 2.294 . S
In182 O194 2.326 . S
O183 In182 2.294 . S
O183 C192 1.240 . S
O184 In182 2.326 . S
O184 C192 1.252 . S
C185 O188 1.252 . S
C185 O189 1.260 . S
C186 O193 1.240 . S
C186 O194 1.252 . S
C187 O190 1.252 . S
C187 O191 1.260 . S
O188 In182 2.266 . S
O188 C185 1.252 . S
O189 In182 2.326 . S
O189 C185 1.260 . S
O190 In182 2.266 . S
O190 C187 1.252 . S
O191 In182 2.326 . S
O191 C187 1.260 . S
C192 O183 1.240 . S
C192 O184 1.252 . S
O193 In182 2.294 . S
O193 C186 1.240 . S
O194 In182 2.326 . S
O194 C186 1.252 . S
In195 O196 2.294 . S
In195 O197 2.326 . S
In195 O201 2.266 . S
In195 O202 2.326 . S
In195 O203 2.266 1_565 S
In195 O204 2.326 . S
In195 O206 2.294 1_565 S
In195 O207 2.326 . S
O196 In195 2.294 . S
O196 C205 1.240 . S
O197 In195 2.326 . S
O197 C205 1.252 . S
C198 O201 1.252 . S
C198 O202 1.260 . S
C199 O206 1.240 1_565 S
C199 O207 1.252 . S
C200 O203 1.252 1_565 S
C200 O204 1.260 . S
O201 In195 2.266 . S
O201 C198 1.252 . S
O202 In195 2.326 . S
O202 C198 1.260 . S
O203 In195 2.266 1_545 S
O203 C200 1.252 1_545 S
O204 In195 2.326 . S
O204 C200 1.260 . S
C205 O196 1.240 . S
C205 O197 1.252 . S
O206 In195 2.294 1_545 S
O206 C199 1.240 1_545 S
O207 In195 2.326 . S
O207 C199 1.252 . S
In208 O209 2.294 . S
In208 O210 2.326 . S
In208 O214 2.266 . S
In208 O215 2.326 . S
In208 O216 2.266 . S
In208 O217 2.326 . S
In208 O219 2.294 . S
In208 O220 2.326 . S
O209 In208 2.294 . S
O209 C218 1.240 . S
O210 In208 2.326 . S
O210 C218 1.252 . S
C211 O214 1.252 . S
C211 O215 1.260 . S
C212 O219 1.240 . S
C212 O220 1.252 . S
C213 O216 1.252 . S
C213 O217 1.260 . S
O214 In208 2.266 . S
O214 C211 1.252 . S
O215 In208 2.326 . S
O215 C211 1.260 . S
O216 In208 2.266 . S
O216 C213 1.252 . S
O217 In208 2.326 . S
O217 C213 1.260 . S
C218 O209 1.240 . S
C218 O210 1.252 . S
O219 In208 2.294 . S
O219 C212 1.240 . S
O220 In208 2.326 . S
O220 C212 1.252 . S
In221 O222 2.294 . S
In221 O223 2.326 . S
In221 O227 2.266 . S
In221 O228 2.326 . S
In221 O229 2.266 . S
In221 O230 2.326 . S
In221 O232 2.294 . S
In221 O233 2.326 . S
O222 In221 2.294 . S
O222 C231 1.240 . S
O223 In221 2.326 . S
O223 C231 1.252 . S
C224 O227 1.252 . S
C224 O228 1.260 . S
C225 O232 1.240 . S
C225 O233 1.252 . S
C226 O229 1.252 . S
C226 O230 1.260 . S
O227 In221 2.266 . S
O227 C224 1.252 . S
O228 In221 2.326 . S
O228 C224 1.260 . S
O229 In221 2.266 . S
O229 C226 1.252 . S
O230 In221 2.326 . S
O230 C226 1.260 . S
C231 O222 1.240 . S
C231 O223 1.252 . S
O232 In221 2.294 . S
O232 C225 1.240 . S
O233 In221 2.326 . S
O233 C225 1.252 . S
In234 O235 2.294 . S
In234 O236 2.326 . S
In234 O240 2.266 . S
In234 O241 2.326 . S
In234 O242 2.266 . S
In234 O243 2.326 . S
In234 O245 2.294 . S
In234 O246 2.326 . S
O235 In234 2.294 . S
O235 C244 1.240 . S
O236 In234 2.326 . S
O236 C244 1.252 . S
C237 O240 1.252 . S
C237 O241 1.260 . S
C238 O245 1.240 . S
C238 O246 1.252 . S
C239 O242 1.252 . S
C239 O243 1.260 . S
O240 In234 2.266 . S
O240 C237 1.252 . S
O241 In234 2.326 . S
O241 C237 1.260 . S
O242 In234 2.266 . S
O242 C239 1.252 . S
O243 In234 2.326 . S
O243 C239 1.260 . S
C244 O235 1.240 . S
C244 O236 1.252 . S
O245 In234 2.294 . S
O245 C238 1.240 . S
O246 In234 2.326 . S
O246 C238 1.252 . S
In247 O248 2.294 1_545 S
In247 O249 2.326 1_545 S
In247 O253 2.266 . S
In247 O254 2.326 . S
In247 O255 2.266 . S
In247 O256 2.326 . S
In247 O258 2.294 1_545 S
In247 O259 2.326 1_545 S
O248 In247 2.294 1_565 S
O248 C257 1.240 . S
O249 In247 2.326 1_565 S
O249 C257 1.252 . S
C250 O253 1.252 . S
C250 O254 1.260 . S
C251 O258 1.240 . S
C251 O259 1.252 . S
C252 O255 1.252 . S
C252 O256 1.260 . S
O253 In247 2.266 . S
O253 C250 1.252 . S
O254 In247 2.326 . S
O254 C250 1.260 . S
O255 In247 2.266 . S
O255 C252 1.252 . S
O256 In247 2.326 . S
O256 C252 1.260 . S
C257 O248 1.240 . S
C257 O249 1.252 . S
O258 In247 2.294 1_565 S
O258 C251 1.240 . S
O259 In247 2.326 1_565 S
O259 C251 1.252 . S
In260 O261 2.294 . S
In260 O262 2.326 . S
In260 O266 2.266 1_554 S
In260 O267 2.326 1_554 S
In260 O268 2.264 1_554 S
In260 O269 2.322 1_554 S
In260 O271 2.296 . S
In260 O272 2.330 . S
O261 In260 2.294 . S
O261 C270 1.240 . S
O262 In260 2.326 . S
O262 C270 1.252 . S
C263 O266 1.252 . S
C263 O267 1.260 . S
C264 O271 1.240 . S
C264 O272 1.252 . S
C265 O268 1.252 . S
C265 O269 1.260 . S
O266 In260 2.266 1_556 S
O266 C263 1.252 . S
O267 In260 2.326 1_556 S
O267 C263 1.260 . S
O268 In260 2.264 1_556 S
O268 C265 1.252 . S
O269 In260 2.322 1_556 S
O269 C265 1.260 . S
C270 O261 1.240 . S
C270 O262 1.252 . S
O271 In260 2.296 . S
O271 C264 1.240 . S
O272 In260 2.330 . S
O272 C264 1.252 . S
In273 O274 2.294 . S
In273 O275 2.326 . S
In273 O279 2.266 . S
In273 O280 2.326 . S
In273 O281 2.266 . S
In273 O282 2.326 . S
In273 O284 2.294 . S
In273 O285 2.326 . S
O274 In273 2.294 . S
O274 C283 1.240 . S
O275 In273 2.326 . S
O275 C283 1.252 . S
C276 O279 1.252 . S
C276 O280 1.260 . S
C277 O284 1.240 . S
C277 O285 1.252 . S
C278 O281 1.252 . S
C278 O282 1.260 . S
O279 In273 2.266 . S
O279 C276 1.252 . S
O280 In273 2.326 . S
O280 C276 1.260 . S
O281 In273 2.266 . S
O281 C278 1.252 . S
O282 In273 2.326 . S
O282 C278 1.260 . S
C283 O274 1.240 . S
C283 O275 1.252 . S
O284 In273 2.294 . S
O284 C277 1.240 . S
O285 In273 2.326 . S
O285 C277 1.252 . S
In286 O287 2.294 . S
In286 O288 2.326 . S
In286 O292 2.266 . S
In286 O293 2.326 . S
In286 O294 2.266 . S
In286 O295 2.326 . S
In286 O297 2.294 . S
In286 O298 2.326 . S
O287 In286 2.294 . S
O287 C296 1.240 . S
O288 In286 2.326 . S
O288 C296 1.252 . S
C289 O292 1.252 . S
C289 O293 1.260 . S
C290 O297 1.240 . S
C290 O298 1.252 . S
C291 O294 1.252 . S
C291 O295 1.260 . S
O292 In286 2.266 . S
O292 C289 1.252 . S
O293 In286 2.326 . S
O293 C289 1.260 . S
O294 In286 2.266 . S
O294 C291 1.252 . S
O295 In286 2.326 . S
O295 C291 1.260 . S
C296 O287 1.240 . S
C296 O288 1.252 . S
O297 In286 2.294 . S
O297 C290 1.240 . S
O298 In286 2.326 . S
O298 C290 1.252 . S
In299 O300 2.294 . S
In299 O301 2.326 . S
In299 O305 2.266 . S
In299 O306 2.326 . S
In299 O307 2.266 . S
In299 O308 2.326 . S
In299 O310 2.294 . S
In299 O311 2.326 . S
O300 In299 2.294 . S
O300 C309 1.240 . S
O301 In299 2.326 . S
O301 C309 1.252 . S
C302 O305 1.252 . S
C302 O306 1.260 . S
C303 O310 1.240 . S
C303 O311 1.252 . S
C304 O307 1.252 . S
C304 O308 1.260 . S
O305 In299 2.266 . S
O305 C302 1.252 . S
O306 In299 2.326 . S
O306 C302 1.260 . S
O307 In299 2.266 . S
O307 C304 1.252 . S
O308 In299 2.326 . S
O308 C304 1.260 . S
C309 O300 1.240 . S
C309 O301 1.252 . S
O310 In299 2.294 . S
O310 C303 1.240 . S
O311 In299 2.326 . S
O311 C303 1.252 . S
Nd312 C314 2.836 . S
Nd312 O332 2.500 . S
Nd312 O333 2.492 . S
Nd312 O334 2.487 . S
Nd312 O335 2.682 . S
Nd312 O336 2.410 . S
Nd312 O341 2.414 . S
Nd312 O343 2.424 . S
Nd313 C323 2.836 . S
Nd313 O335 2.414 . S
Nd313 O337 2.424 . S
Nd313 O338 2.500 . S
Nd313 O339 2.492 . S
Nd313 O340 2.487 . S
Nd313 O341 2.682 . S
Nd313 O342 2.410 . S
C314 Nd312 2.836 . S
C314 C315 1.498 . S
C314 O332 1.258 . S
C314 O333 1.239 . S
C315 C314 1.498 . S
C315 C316 1.366 . S
C315 C320 1.407 . S
C316 C315 1.366 . S
C316 C317 1.392 . S
C316 H344 0.930 . S
C317 C316 1.392 . S
C317 C318 1.398 . S
C317 H345 0.929 . S
C318 C317 1.398 . S
C318 C319 1.352 . S
C319 C318 1.352 . S
C319 C320 1.384 . S
C319 H346 0.930 . S
C320 C315 1.407 . S
C320 C319 1.384 . S
C320 H347 0.929 . S
C321 O334 1.241 . S
C321 O335 1.273 . S
C322 O336 1.251 . S
C322 O337 1.268 . S
C323 Nd313 2.836 . S
C323 C324 1.498 1_545 S
C323 O338 1.258 . S
C323 O339 1.239 . S
C324 C323 1.498 1_565 S
C324 C325 1.366 . S
C324 C329 1.407 . S
C325 C324 1.366 . S
C325 C326 1.392 . S
C325 H348 0.930 . S
C326 C325 1.392 . S
C326 C327 1.398 . S
C326 H349 0.929 . S
C327 C326 1.398 . S
C327 C328 1.352 . S
C328 C327 1.352 . S
C328 C329 1.384 . S
C328 H350 0.930 . S
C329 C324 1.407 . S
C329 C328 1.384 . S
C329 H351 0.929 . S
C330 O340 1.241 . S
C330 O341 1.273 . S
C331 O342 1.251 . S
C331 O343 1.268 . S
O332 Nd312 2.500 . S
O332 C314 1.258 . S
O333 Nd312 2.492 . S
O333 C314 1.239 . S
O334 Nd312 2.487 . S
O334 C321 1.241 . S
O335 Nd312 2.682 . S
O335 Nd313 2.414 . S
O335 C321 1.273 . S
O336 Nd312 2.410 . S
O336 C322 1.251 . S
O337 Nd313 2.424 . S
O337 C322 1.268 . S
O338 Nd313 2.500 . S
O338 C323 1.258 . S
O339 Nd313 2.492 . S
O339 C323 1.239 . S
O340 Nd313 2.487 . S
O340 C330 1.241 . S
O341 Nd312 2.414 . S
O341 Nd313 2.682 . S
O341 C330 1.273 . S
O342 Nd313 2.410 . S
O342 C331 1.251 . S
O343 Nd312 2.424 . S
O343 C331 1.268 . S
H344 C316 0.930 . S
H345 C317 0.929 . S
H346 C319 0.930 . S
H347 C320 0.929 . S
H348 C325 0.930 . S
H349 C326 0.929 . S
H350 C328 0.930 . S
H351 C329 0.929 . S
Nd352 C354 2.836 . S
Nd352 O372 2.500 . S
Nd352 O373 2.492 . S
Nd352 O374 2.487 . S
Nd352 O375 2.682 . S
Nd352 O376 2.410 . S
Nd352 O381 2.414 . S
Nd352 O383 2.424 . S
Nd353 C363 2.836 . S
Nd353 O375 2.414 . S
Nd353 O377 2.424 . S
Nd353 O378 2.500 . S
Nd353 O379 2.492 . S
Nd353 O380 2.487 . S
Nd353 O381 2.682 . S
Nd353 O382 2.410 . S
C354 Nd352 2.836 . S
C354 C355 1.498 . S
C354 O372 1.258 . S
C354 O373 1.239 . S
C355 C354 1.498 . S
C355 C356 1.366 . S
C355 C360 1.407 . S
C356 C355 1.366 . S
C356 C357 1.392 . S
C356 H384 0.930 . S
C357 C356 1.392 . S
C357 C358 1.398 . S
C357 H385 0.929 . S
C358 C357 1.398 . S
C358 C359 1.352 . S
C359 C358 1.352 . S
C359 C360 1.384 . S
C359 H386 0.930 . S
C360 C355 1.407 . S
C360 C359 1.384 . S
C360 H387 0.929 . S
C361 O374 1.241 . S
C361 O375 1.273 . S
C362 O376 1.251 . S
C362 O377 1.268 . S
C363 Nd353 2.836 . S
C363 C364 1.498 . S
C363 O378 1.258 . S
C363 O379 1.239 . S
C364 C363 1.498 . S
C364 C365 1.366 . S
C364 C369 1.407 . S
C365 C364 1.366 . S
C365 C366 1.392 . S
C365 H388 0.930 . S
C366 C365 1.392 . S
C366 C367 1.398 . S
C366 H389 0.929 . S
C367 C366 1.398 . S
C367 C368 1.352 . S
C368 C367 1.352 . S
C368 C369 1.384 . S
C368 H390 0.930 . S
C369 C364 1.407 . S
C369 C368 1.384 . S
C369 H391 0.929 . S
C370 O380 1.241 . S
C370 O381 1.273 . S
C371 O382 1.251 . S
C371 O383 1.268 . S
O372 Nd352 2.500 . S
O372 C354 1.258 . S
O373 Nd352 2.492 . S
O373 C354 1.239 . S
O374 Nd352 2.487 . S
O374 C361 1.241 . S
O375 Nd352 2.682 . S
O375 Nd353 2.414 . S
O375 C361 1.273 . S
O376 Nd352 2.410 . S
O376 C362 1.251 . S
O377 Nd353 2.424 . S
O377 C362 1.268 . S
O378 Nd353 2.500 . S
O378 C363 1.258 . S
O379 Nd353 2.492 . S
O379 C363 1.239 . S
O380 Nd353 2.487 . S
O380 C370 1.241 . S
O381 Nd352 2.414 . S
O381 Nd353 2.682 . S
O381 C370 1.273 . S
O382 Nd353 2.410 . S
O382 C371 1.251 . S
O383 Nd352 2.424 . S
O383 C371 1.268 . S
H384 C356 0.930 . S
H385 C357 0.929 . S
H386 C359 0.930 . S
H387 C360 0.929 . S
H388 C365 0.930 . S
H389 C366 0.929 . S
H390 C368 0.930 . S
H391 C369 0.929 . S
Nd392 C394 2.836 . S
Nd392 O412 2.500 . S
Nd392 O413 2.492 . S
Nd392 O414 2.487 . S
Nd392 O415 2.682 . S
Nd392 O416 2.410 . S
Nd392 O421 2.414 . S
Nd392 O423 2.424 . S
Nd393 C403 2.836 . S
Nd393 O415 2.414 . S
Nd393 O417 2.424 . S
Nd393 O418 2.500 . S
Nd393 O419 2.492 . S
Nd393 O420 2.487 . S
Nd393 O421 2.682 . S
Nd393 O422 2.410 . S
C394 Nd392 2.836 . S
C394 C395 1.498 . S
C394 O412 1.258 . S
C394 O413 1.239 . S
C395 C394 1.498 . S
C395 C396 1.366 . S
C395 C400 1.407 . S
C396 C395 1.366 . S
C396 C397 1.392 . S
C396 H424 0.930 . S
C397 C396 1.392 . S
C397 C398 1.398 . S
C397 H425 0.929 . S
C398 C397 1.398 . S
C398 C399 1.352 . S
C399 C398 1.352 . S
C399 C400 1.384 . S
C399 H426 0.930 . S
C400 C395 1.407 . S
C400 C399 1.384 . S
C400 H427 0.929 . S
C401 O414 1.241 . S
C401 O415 1.273 . S
C402 O416 1.251 . S
C402 O417 1.268 . S
C403 Nd393 2.836 . S
C403 C404 1.498 . S
C403 O418 1.258 . S
C403 O419 1.239 . S
C404 C403 1.498 . S
C404 C405 1.366 . S
C404 C409 1.407 . S
C405 C404 1.366 . S
C405 C406 1.392 . S
C405 H428 0.930 . S
C406 C405 1.392 . S
C406 C407 1.398 . S
C406 H429 0.929 . S
C407 C406 1.398 . S
C407 C408 1.352 . S
C408 C407 1.352 . S
C408 C409 1.384 . S
C408 H430 0.930 . S
C409 C404 1.407 . S
C409 C408 1.384 . S
C409 H431 0.929 . S
C410 O420 1.241 . S
C410 O421 1.273 . S
C411 O422 1.251 . S
C411 O423 1.268 . S
O412 Nd392 2.500 . S
O412 C394 1.258 . S
O413 Nd392 2.492 . S
O413 C394 1.239 . S
O414 Nd392 2.487 . S
O414 C401 1.241 . S
O415 Nd392 2.682 . S
O415 Nd393 2.414 . S
O415 C401 1.273 . S
O416 Nd392 2.410 . S
O416 C402 1.251 . S
O417 Nd393 2.424 . S
O417 C402 1.268 . S
O418 Nd393 2.500 . S
O418 C403 1.258 . S
O419 Nd393 2.492 . S
O419 C403 1.239 . S
O420 Nd393 2.487 . S
O420 C410 1.241 . S
O421 Nd392 2.414 . S
O421 Nd393 2.682 . S
O421 C410 1.273 . S
O422 Nd393 2.410 . S
O422 C411 1.251 . S
O423 Nd392 2.424 . S
O423 C411 1.268 . S
H424 C396 0.930 . S
H425 C397 0.929 . S
H426 C399 0.930 . S
H427 C400 0.929 . S
H428 C405 0.930 . S
H429 C406 0.929 . S
H430 C408 0.930 . S
H431 C409 0.929 . S
Nd432 C434 2.836 . S
Nd432 O452 2.500 . S
Nd432 O453 2.492 . S
Nd432 O454 2.487 . S
Nd432 O455 2.682 . S
Nd432 O456 2.410 . S
Nd432 O461 2.414 . S
Nd432 O463 2.424 . S
Nd433 C443 2.836 . S
Nd433 O455 2.414 . S
Nd433 O457 2.424 . S
Nd433 O458 2.500 . S
Nd433 O459 2.492 . S
Nd433 O460 2.487 . S
Nd433 O461 2.682 . S
Nd433 O462 2.410 . S
C434 Nd432 2.836 . S
C434 C435 1.498 . S
C434 O452 1.258 . S
C434 O453 1.239 . S
C435 C434 1.498 . S
C435 C436 1.366 . S
C435 C440 1.407 . S
C436 C435 1.366 . S
C436 C437 1.392 . S
C436 H464 0.930 . S
C437 C436 1.392 . S
C437 C438 1.398 . S
C437 H465 0.929 . S
C438 C437 1.398 . S
C438 C439 1.352 . S
C439 C438 1.352 . S
C439 C440 1.384 . S
C439 H466 0.930 . S
C440 C435 1.407 . S
C440 C439 1.384 . S
C440 H467 0.929 . S
C441 O454 1.241 . S
C441 O455 1.273 . S
C442 O456 1.251 . S
C442 O457 1.268 . S
C443 Nd433 2.836 . S
C443 C444 1.498 . S
C443 O458 1.258 . S
C443 O459 1.239 . S
C444 C443 1.498 . S
C444 C445 1.366 . S
C444 C449 1.407 . S
C445 C444 1.366 . S
C445 C446 1.392 . S
C445 H468 0.930 . S
C446 C445 1.392 . S
C446 C447 1.398 . S
C446 H469 0.929 . S
C447 C446 1.398 . S
C447 C448 1.352 . S
C448 C447 1.352 . S
C448 C449 1.384 . S
C448 H470 0.930 . S
C449 C444 1.407 . S
C449 C448 1.384 . S
C449 H471 0.929 . S
C450 O460 1.241 . S
C450 O461 1.273 . S
C451 O462 1.251 . S
C451 O463 1.268 . S
O452 Nd432 2.500 . S
O452 C434 1.258 . S
O453 Nd432 2.492 . S
O453 C434 1.239 . S
O454 Nd432 2.487 . S
O454 C441 1.241 . S
O455 Nd432 2.682 . S
O455 Nd433 2.414 . S
O455 C441 1.273 . S
O456 Nd432 2.410 . S
O456 C442 1.251 . S
O457 Nd433 2.424 . S
O457 C442 1.268 . S
O458 Nd433 2.500 . S
O458 C443 1.258 . S
O459 Nd433 2.492 . S
O459 C443 1.239 . S
O460 Nd433 2.487 . S
O460 C450 1.241 . S
O461 Nd432 2.414 . S
O461 Nd433 2.682 . S
O461 C450 1.273 . S
O462 Nd433 2.410 . S
O462 C451 1.251 . S
O463 Nd432 2.424 . S
O463 C451 1.268 . S
H464 C436 0.930 . S
H465 C437 0.929 . S
H466 C439 0.930 . S
H467 C440 0.929 . S
H468 C445 0.930 . S
H469 C446 0.929 . S
H470 C448 0.930 . S
H471 C449 0.929 . S
Nd472 C474 2.836 . S
Nd472 O492 2.500 . S
Nd472 O493 2.492 . S
Nd472 O494 2.487 . S
Nd472 O495 2.682 . S
Nd472 O496 2.410 . S
Nd472 O501 2.414 . S
Nd472 O503 2.424 . S
Nd473 C483 2.836 1_545 S
Nd473 O495 2.414 . S
Nd473 O497 2.424 . S
Nd473 O498 2.500 1_545 S
Nd473 O499 2.492 1_545 S
Nd473 O500 2.487 1_455 S
Nd473 O501 2.682 . S
Nd473 O502 2.410 . S
C474 Nd472 2.836 . S
C474 C475 1.498 . S
C474 O492 1.258 . S
C474 O493 1.239 . S
C475 C474 1.498 . S
C475 C476 1.366 . S
C475 C480 1.407 . S
C476 C475 1.366 . S
C476 C477 1.392 1_455 S
C476 H504 0.930 1_455 S
C477 C476 1.392 1_655 S
C477 C478 1.398 1_655 S
C477 H505 0.929 . S
C478 C477 1.398 1_455 S
C478 C479 1.352 . S
C479 C478 1.352 . S
C479 C480 1.384 . S
C479 H506 0.930 . S
C480 C475 1.407 . S
C480 C479 1.384 . S
C480 H507 0.929 . S
C481 O494 1.241 . S
C481 O495 1.273 . S
C482 O496 1.251 . S
C482 O497 1.268 . S
C483 Nd473 2.836 1_565 S
C483 C484 1.498 . S
C483 O498 1.258 . S
C483 O499 1.239 . S
C484 C483 1.498 . S
C484 C485 1.366 . S
C484 C489 1.407 . S
C485 C484 1.366 . S
C485 C486 1.392 . S
C485 H508 0.930 . S
C486 C485 1.392 . S
C486 C487 1.398 . S
C486 H509 0.929 . S
C487 C486 1.398 . S
C487 C488 1.352 . S
C488 C487 1.352 . S
C488 C489 1.384 . S
C488 H510 0.930 . S
C489 C484 1.407 . S
C489 C488 1.384 . S
C489 H511 0.929 . S
C490 O500 1.241 . S
C490 O501 1.273 1_655 S
C491 O502 1.251 . S
C491 O503 1.268 . S
O492 Nd472 2.500 . S
O492 C474 1.258 . S
O493 Nd472 2.492 . S
O493 C474 1.239 . S
O494 Nd472 2.487 . S
O494 C481 1.241 . S
O495 Nd472 2.682 . S
O495 Nd473 2.414 . S
O495 C481 1.273 . S
O496 Nd472 2.410 . S
O496 C482 1.251 . S
O497 Nd473 2.424 . S
O497 C482 1.268 . S
O498 Nd473 2.500 1_565 S
O498 C483 1.258 . S
O499 Nd473 2.492 1_565 S
O499 C483 1.239 . S
O500 Nd473 2.487 1_655 S
O500 C490 1.241 . S
O501 Nd472 2.414 . S
O501 Nd473 2.682 . S
O501 C490 1.273 1_455 S
O502 Nd473 2.410 . S
O502 C491 1.251 . S
O503 Nd472 2.424 . S
O503 C491 1.268 . S
H504 C476 0.930 1_655 S
H505 C477 0.929 . S
H506 C479 0.930 . S
H507 C480 0.929 . S
H508 C485 0.930 . S
H509 C486 0.929 . S
H510 C488 0.930 . S
H511 C489 0.929 . S
Nd512 C514 2.836 . S
Nd512 O532 2.500 . S
Nd512 O533 2.492 . S
Nd512 O534 2.487 . S
Nd512 O535 2.682 . S
Nd512 O536 2.410 . S
Nd512 O541 2.414 . S
Nd512 O543 2.424 . S
Nd513 C523 2.836 . S
Nd513 O535 2.414 . S
Nd513 O537 2.424 . S
Nd513 O538 2.500 . S
Nd513 O539 2.492 . S
Nd513 O540 2.487 . S
Nd513 O541 2.682 . S
Nd513 O542 2.410 . S
C514 Nd512 2.836 . S
C514 C515 1.498 . S
C514 O532 1.258 . S
C514 O533 1.239 . S
C515 C514 1.498 . S
C515 C516 1.366 . S
C515 C520 1.407 . S
C516 C515 1.366 . S
C516 C517 1.392 . S
C516 H544 0.930 . S
C517 C516 1.392 . S
C517 C518 1.398 . S
C517 H545 0.929 . S
C518 C517 1.398 . S
C518 C519 1.352 . S
C519 C518 1.352 . S
C519 C520 1.384 . S
C519 H546 0.930 . S
C520 C515 1.407 . S
C520 C519 1.384 . S
C520 H547 0.929 . S
C521 O534 1.241 . S
C521 O535 1.273 . S
C522 O536 1.251 . S
C522 O537 1.268 . S
C523 Nd513 2.836 . S
C523 C524 1.498 . S
C523 O538 1.258 . S
C523 O539 1.239 . S
C524 C523 1.498 . S
C524 C525 1.366 . S
C524 C529 1.407 . S
C525 C524 1.366 . S
C525 C526 1.392 . S
C525 H548 0.930 . S
C526 C525 1.392 . S
C526 C527 1.398 . S
C526 H549 0.929 . S
C527 C526 1.398 . S
C527 C528 1.352 . S
C528 C527 1.352 . S
C528 C529 1.384 . S
C528 H550 0.930 . S
C529 C524 1.407 . S
C529 C528 1.384 . S
C529 H551 0.929 . S
C530 O540 1.241 . S
C530 O541 1.273 . S
C531 O542 1.251 . S
C531 O543 1.268 . S
O532 Nd512 2.500 . S
O532 C514 1.258 . S
O533 Nd512 2.492 . S
O533 C514 1.239 . S
O534 Nd512 2.487 . S
O534 C521 1.241 . S
O535 Nd512 2.682 . S
O535 Nd513 2.414 . S
O535 C521 1.273 . S
O536 Nd512 2.410 . S
O536 C522 1.251 . S
O537 Nd513 2.424 . S
O537 C522 1.268 . S
O538 Nd513 2.500 . S
O538 C523 1.258 . S
O539 Nd513 2.492 . S
O539 C523 1.239 . S
O540 Nd513 2.487 . S
O540 C530 1.241 . S
O541 Nd512 2.414 . S
O541 Nd513 2.682 . S
O541 C530 1.273 . S
O542 Nd513 2.410 . S
O542 C531 1.251 . S
O543 Nd512 2.424 . S
O543 C531 1.268 . S
H544 C516 0.930 . S
H545 C517 0.929 . S
H546 C519 0.930 . S
H547 C520 0.929 . S
H548 C525 0.930 . S
H549 C526 0.929 . S
H550 C528 0.930 . S
H551 C529 0.929 . S
Nd552 C554 2.836 . S
Nd552 O572 2.500 . S
Nd552 O573 2.492 . S
Nd552 O574 2.487 . S
Nd552 O575 2.682 . S
Nd552 O576 2.410 . S
Nd552 O581 2.414 . S
Nd552 O583 2.457 . S
Nd553 C563 2.836 . S
Nd553 O575 2.414 . S
Nd553 O577 2.424 . S
Nd553 O578 2.500 . S
Nd553 O579 2.492 . S
Nd553 O580 2.487 . S
Nd553 O581 2.682 . S
Nd553 O582 2.410 . S
C554 Nd552 2.836 . S
C554 C555 1.498 . S
C554 O572 1.258 . S
C554 O573 1.239 . S
C555 C554 1.498 . S
C555 C556 1.366 . S
C555 C560 1.407 . S
C556 C555 1.366 . S
C556 C557 1.392 . S
C556 H584 0.930 . S
C557 C556 1.392 . S
C557 C558 1.398 . S
C557 H585 0.929 . S
C558 C557 1.398 . S
C558 C559 1.352 . S
C559 C558 1.352 . S
C559 C560 1.384 . S
C559 H586 0.930 1_545 S
C560 C555 1.407 . S
C560 C559 1.384 . S
C560 H587 0.929 . S
C561 O574 1.241 . S
C561 O575 1.273 . S
C562 O576 1.251 . S
C562 O577 1.268 . S
C563 Nd553 2.836 . S
C563 C564 1.498 . S
C563 O578 1.258 . S
C563 O579 1.239 . S
C564 C563 1.498 . S
C564 C565 1.366 . S
C564 C569 1.407 . S
C565 C564 1.366 . S
C565 C566 1.392 . S
C565 H588 0.930 . S
C566 C565 1.392 . S
C566 C567 1.398 . S
C566 H589 0.929 . S
C567 C566 1.398 . S
C567 C568 1.352 . S
C568 C567 1.352 . S
C568 C569 1.384 . S
C568 H590 0.930 . S
C569 C564 1.407 . S
C569 C568 1.384 . S
C569 H591 0.929 . S
C570 O580 1.241 . S
C570 O581 1.273 . S
C571 O582 1.251 . S
C571 O583 1.266 . S
O572 Nd552 2.500 . S
O572 C554 1.258 . S
O573 Nd552 2.492 . S
O573 C554 1.239 . S
O574 Nd552 2.487 . S
O574 C561 1.241 . S
O575 Nd552 2.682 . S
O575 Nd553 2.414 . S
O575 C561 1.273 . S
O576 Nd552 2.410 . S
O576 C562 1.251 . S
O577 Nd553 2.424 . S
O577 C562 1.268 . S
O578 Nd553 2.500 . S
O578 C563 1.258 . S
O579 Nd553 2.492 . S
O579 C563 1.239 . S
O580 Nd553 2.487 . S
O580 C570 1.241 . S
O581 Nd552 2.414 . S
O581 Nd553 2.682 . S
O581 C570 1.273 . S
O582 Nd553 2.410 . S
O582 C571 1.251 . S
O583 Nd552 2.457 . S
O583 C571 1.266 . S
H584 C556 0.930 . S
H585 C557 0.929 . S
H586 C559 0.930 1_565 S
H587 C560 0.929 . S
H588 C565 0.930 . S
H589 C566 0.929 . S
H590 C568 0.930 . S
H591 C569 0.929 . S
Nd592 C594 2.836 . S
Nd592 O612 2.500 . S
Nd592 O613 2.492 . S
Nd592 O614 2.487 . S
Nd592 O615 2.682 . S
Nd592 O616 2.410 . S
Nd592 O621 2.414 . S
Nd592 O623 2.424 . S
Nd593 C603 2.836 . S
Nd593 O615 2.414 . S
Nd593 O617 2.424 . S
Nd593 O618 2.500 . S
Nd593 O619 2.492 . S
Nd593 O620 2.487 . S
Nd593 O621 2.682 . S
Nd593 O622 2.410 . S
C594 Nd592 2.836 . S
C594 C595 1.498 . S
C594 O612 1.258 . S
C594 O613 1.239 . S
C595 C594 1.498 . S
C595 C596 1.366 . S
C595 C600 1.407 . S
C596 C595 1.366 . S
C596 C597 1.392 . S
C596 H624 0.930 . S
C597 C596 1.392 . S
C597 C598 1.398 . S
C597 H625 0.929 . S
C598 C597 1.398 . S
C598 C599 1.352 . S
C599 C598 1.352 . S
C599 C600 1.384 . S
C599 H626 0.930 . S
C600 C595 1.407 . S
C600 C599 1.384 . S
C600 H627 0.929 . S
C601 O614 1.241 . S
C601 O615 1.273 . S
C602 O616 1.251 . S
C602 O617 1.268 . S
C603 Nd593 2.836 . S
C603 C604 1.498 . S
C603 O618 1.258 . S
C603 O619 1.239 . S
C604 C603 1.498 . S
C604 C605 1.366 . S
C604 C609 1.407 . S
C605 C604 1.366 . S
C605 C606 1.392 . S
C605 H628 0.930 . S
C606 C605 1.392 . S
C606 C607 1.398 . S
C606 H629 0.929 . S
C607 C606 1.398 . S
C607 C608 1.352 . S
C608 C607 1.352 . S
C608 C609 1.384 . S
C608 H630 0.930 . S
C609 C604 1.407 . S
C609 C608 1.384 . S
C609 H631 0.929 . S
C610 O620 1.241 . S
C610 O621 1.273 . S
C611 O622 1.251 . S
C611 O623 1.268 . S
O612 Nd592 2.500 . S
O612 C594 1.258 . S
O613 Nd592 2.492 . S
O613 C594 1.239 . S
O614 Nd592 2.487 . S
O614 C601 1.241 . S
O615 Nd592 2.682 . S
O615 Nd593 2.414 . S
O615 C601 1.273 . S
O616 Nd592 2.410 . S
O616 C602 1.251 . S
O617 Nd593 2.424 . S
O617 C602 1.268 . S
O618 Nd593 2.500 . S
O618 C603 1.258 . S
O619 Nd593 2.492 . S
O619 C603 1.239 . S
O620 Nd593 2.487 . S
O620 C610 1.241 . S
O621 Nd592 2.414 . S
O621 Nd593 2.682 . S
O621 C610 1.273 . S
O622 Nd593 2.410 . S
O622 C611 1.251 . S
O623 Nd592 2.424 . S
O623 C611 1.268 . S
H624 C596 0.930 . S
H625 C597 0.929 . S
H626 C599 0.930 . S
H627 C600 0.929 . S
H628 C605 0.930 . S
H629 C606 0.929 . S
H630 C608 0.930 . S
H631 C609 0.929 . S
Nd632 C634 2.836 . S
Nd632 O652 2.500 . S
Nd632 O653 2.492 . S
Nd632 O654 2.487 . S
Nd632 O655 2.682 . S
Nd632 O656 2.410 . S
Nd632 O661 2.414 . S
Nd632 O663 2.424 . S
Nd633 C643 2.836 . S
Nd633 O655 2.414 . S
Nd633 O657 2.424 . S
Nd633 O658 2.500 . S
Nd633 O659 2.492 . S
Nd633 O660 2.487 . S
Nd633 O661 2.682 . S
Nd633 O662 2.410 . S
C634 Nd632 2.836 . S
C634 C635 1.498 . S
C634 O652 1.258 . S
C634 O653 1.239 . S
C635 C634 1.498 . S
C635 C636 1.366 . S
C635 C640 1.407 . S
C636 C635 1.366 . S
C636 C637 1.392 . S
C636 H664 0.930 . S
C637 C636 1.392 . S
C637 C638 1.398 . S
C637 H665 0.929 . S
C638 C637 1.398 . S
C638 C639 1.352 . S
C639 C638 1.352 . S
C639 C640 1.384 . S
C639 H666 0.930 . S
C640 C635 1.407 . S
C640 C639 1.384 . S
C640 H667 0.929 . S
C641 O654 1.241 . S
C641 O655 1.273 . S
C642 O656 1.251 . S
C642 O657 1.268 . S
C643 Nd633 2.836 . S
C643 C644 1.498 . S
C643 O658 1.258 . S
C643 O659 1.239 . S
C644 C643 1.498 . S
C644 C645 1.366 . S
C644 C649 1.407 . S
C645 C644 1.366 . S
C645 C646 1.392 . S
C645 H668 0.930 . S
C646 C645 1.392 . S
C646 C647 1.398 . S
C646 H669 0.929 . S
C647 C646 1.398 . S
C647 C648 1.352 . S
C648 C647 1.352 . S
C648 C649 1.384 . S
C648 H670 0.930 . S
C649 C644 1.407 . S
C649 C648 1.384 . S
C649 H671 0.929 . S
C650 O660 1.241 . S
C650 O661 1.273 . S
C651 O662 1.251 . S
C651 O663 1.268 . S
O652 Nd632 2.500 . S
O652 C634 1.258 . S
O653 Nd632 2.492 . S
O653 C634 1.239 . S
O654 Nd632 2.487 . S
O654 C641 1.241 . S
O655 Nd632 2.682 . S
O655 Nd633 2.414 . S
O655 C641 1.273 . S
O656 Nd632 2.410 . S
O656 C642 1.251 . S
O657 Nd633 2.424 . S
O657 C642 1.268 . S
O658 Nd633 2.500 . S
O658 C643 1.258 . S
O659 Nd633 2.492 . S
O659 C643 1.239 . S
O660 Nd633 2.487 . S
O660 C650 1.241 . S
O661 Nd632 2.414 . S
O661 Nd633 2.682 . S
O661 C650 1.273 . S
O662 Nd633 2.410 . S
O662 C651 1.251 . S
O663 Nd632 2.424 . S
O663 C651 1.268 . S
H664 C636 0.930 . S
H665 C637 0.929 . S
H666 C639 0.930 . S
H667 C640 0.929 . S
H668 C645 0.930 . S
H669 C646 0.929 . S
H670 C648 0.930 . S
H671 C649 0.929 . S
Nd672 C674 2.836 . S
Nd672 O692 2.500 . S
Nd672 O693 2.492 . S
Nd672 O694 2.487 . S
Nd672 O695 2.682 . S
Nd672 O696 2.410 . S
Nd672 O701 2.414 . S
Nd672 O703 2.424 . S
Nd673 C683 2.836 . S
Nd673 O695 2.414 . S
Nd673 O697 2.424 . S
Nd673 O698 2.500 . S
Nd673 O699 2.492 . S
Nd673 O700 2.487 . S
Nd673 O701 2.682 . S
Nd673 O702 2.410 . S
C674 Nd672 2.836 . S
C674 C675 1.498 . S
C674 O692 1.258 . S
C674 O693 1.239 . S
C675 C674 1.498 . S
C675 C676 1.366 . S
C675 C680 1.407 . S
C676 C675 1.366 . S
C676 C677 1.392 . S
C676 H704 0.930 . S
C677 C676 1.392 . S
C677 C678 1.398 . S
C677 H705 0.929 . S
C678 C677 1.398 . S
C678 C679 1.352 . S
C679 C678 1.352 . S
C679 C680 1.384 . S
C679 H706 0.930 . S
C680 C675 1.407 . S
C680 C679 1.384 . S
C680 H707 0.929 . S
C681 O694 1.241 . S
C681 O695 1.273 . S
C682 O696 1.251 . S
C682 O697 1.268 . S
C683 Nd673 2.836 . S
C683 C684 1.498 . S
C683 O698 1.258 . S
C683 O699 1.239 . S
C684 C683 1.498 . S
C684 C685 1.366 . S
C684 C689 1.407 . S
C685 C684 1.366 . S
C685 C686 1.392 . S
C685 H708 0.930 . S
C686 C685 1.392 . S
C686 C687 1.398 . S
C686 H709 0.929 . S
C687 C686 1.398 . S
C687 C688 1.352 . S
C688 C687 1.352 . S
C688 C689 1.384 . S
C688 H710 0.930 . S
C689 C684 1.407 . S
C689 C688 1.384 . S
C689 H711 0.929 . S
C690 O700 1.241 . S
C690 O701 1.273 . S
C691 O702 1.251 . S
C691 O703 1.268 . S
O692 Nd672 2.500 . S
O692 C674 1.258 . S
O693 Nd672 2.492 . S
O693 C674 1.239 . S
O694 Nd672 2.487 . S
O694 C681 1.241 . S
O695 Nd672 2.682 . S
O695 Nd673 2.414 . S
O695 C681 1.273 . S
O696 Nd672 2.410 . S
O696 C682 1.251 . S
O697 Nd673 2.424 . S
O697 C682 1.268 . S
O698 Nd673 2.500 . S
O698 C683 1.258 . S
O699 Nd673 2.492 . S
O699 C683 1.239 . S
O700 Nd673 2.487 . S
O700 C690 1.241 . S
O701 Nd672 2.414 . S
O701 Nd673 2.682 . S
O701 C690 1.273 . S
O702 Nd673 2.410 . S
O702 C691 1.251 . S
O703 Nd672 2.424 . S
O703 C691 1.268 . S
H704 C676 0.930 . S
H705 C677 0.929 . S
H706 C679 0.930 . S
H707 C680 0.929 . S
H708 C685 0.930 . S
H709 C686 0.929 . S
H710 C688 0.930 . S
H711 C689 0.929 . S
Nd712 C714 2.836 . S
Nd712 O732 2.500 . S
Nd712 O733 2.492 . S
Nd712 O734 2.492 . S
Nd712 O735 2.682 1_655 S
Nd712 O736 2.410 . S
Nd712 O741 2.414 1_655 S
Nd712 O743 2.424 1_655 S
Nd713 C723 2.836 . S
Nd713 O735 2.414 . S
Nd713 O737 2.424 . S
Nd713 O738 2.500 . S
Nd713 O739 2.492 . S
Nd713 O740 2.487 . S
Nd713 O741 2.682 . S
Nd713 O742 2.410 . S
C714 Nd712 2.836 . S
C714 C715 1.498 . S
C714 O732 1.258 . S
C714 O733 1.239 . S
C715 C714 1.498 . S
C715 C716 1.366 . S
C715 C720 1.407 . S
C716 C715 1.366 . S
C716 C717 1.392 . S
C716 H744 0.930 . S
C717 C716 1.392 . S
C717 C718 1.398 . S
C717 H745 0.929 . S
C718 C717 1.398 . S
C718 C719 1.352 . S
C719 C718 1.352 . S
C719 C720 1.384 . S
C719 H746 0.930 . S
C720 C715 1.407 . S
C720 C719 1.384 . S
C720 H747 0.929 . S
C721 O734 1.232 1_455 S
C721 O735 1.273 . S
C722 O736 1.251 1_455 S
C722 O737 1.268 . S
C723 Nd713 2.836 . S
C723 C724 1.498 . S
C723 O738 1.258 . S
C723 O739 1.239 . S
C724 C723 1.498 . S
C724 C725 1.366 . S
C724 C729 1.407 . S
C725 C724 1.366 . S
C725 C726 1.392 . S
C725 H748 0.930 . S
C726 C725 1.392 . S
C726 C727 1.398 . S
C726 H749 0.929 . S
C727 C726 1.398 . S
C727 C728 1.352 . S
C728 C727 1.352 . S
C728 C729 1.384 . S
C728 H750 0.930 . S
C729 C724 1.407 . S
C729 C728 1.384 . S
C729 H751 0.929 . S
C730 O740 1.241 . S
C730 O741 1.273 . S
C731 O742 1.251 . S
C731 O743 1.268 . S
O732 Nd712 2.500 . S
O732 C714 1.258 . S
O733 Nd712 2.492 . S
O733 C714 1.239 . S
O734 Nd712 2.492 . S
O734 C721 1.232 1_655 S
O735 Nd712 2.682 1_455 S
O735 Nd713 2.414 . S
O735 C721 1.273 . S
O736 Nd712 2.410 . S
O736 C722 1.251 1_655 S
O737 Nd713 2.424 . S
O737 C722 1.268 . S
O738 Nd713 2.500 . S
O738 C723 1.258 . S
O739 Nd713 2.492 . S
O739 C723 1.239 . S
O740 Nd713 2.487 . S
O740 C730 1.241 . S
O741 Nd712 2.414 1_455 S
O741 Nd713 2.682 . S
O741 C730 1.273 . S
O742 Nd713 2.410 . S
O742 C731 1.251 . S
O743 Nd712 2.424 1_455 S
O743 C731 1.268 . S
H744 C716 0.930 . S
H745 C717 0.929 . S
H746 C719 0.930 . S
H747 C720 0.929 . S
H748 C725 0.930 . S
H749 C726 0.929 . S
H750 C728 0.930 . S
H751 C729 0.929 . S
Nd752 C754 2.836 . S
Nd752 O772 2.500 . S
Nd752 O773 2.492 . S
Nd752 O774 2.487 . S
Nd752 O775 2.682 . S
Nd752 O776 2.410 . S
Nd752 O781 2.414 . S
Nd752 O783 2.424 . S
Nd753 C763 2.836 . S
Nd753 O775 2.414 . S
Nd753 O777 2.424 . S
Nd753 O778 2.500 . S
Nd753 O779 2.492 . S
Nd753 O780 2.487 . S
Nd753 O781 2.682 . S
Nd753 O782 2.410 . S
C754 Nd752 2.836 . S
C754 C755 1.498 . S
C754 O772 1.258 . S
C754 O773 1.239 . S
C755 C754 1.498 . S
C755 C756 1.366 . S
C755 C760 1.407 . S
C756 C755 1.366 . S
C756 C757 1.392 . S
C756 H784 0.930 . S
C757 C756 1.392 . S
C757 C758 1.398 . S
C757 H785 0.929 . S
C758 C757 1.398 . S
C758 C759 1.352 . S
C759 C758 1.352 . S
C759 C760 1.384 . S
C759 H786 0.930 . S
C760 C755 1.407 . S
C760 C759 1.384 . S
C760 H787 0.929 . S
C761 O774 1.241 . S
C761 O775 1.273 . S
C762 O776 1.251 . S
C762 O777 1.268 . S
C763 Nd753 2.836 . S
C763 C764 1.498 . S
C763 O778 1.258 . S
C763 O779 1.239 . S
C764 C763 1.498 . S
C764 C765 1.366 . S
C764 C769 1.407 . S
C765 C764 1.366 . S
C765 C766 1.392 . S
C765 H788 0.930 . S
C766 C765 1.392 . S
C766 C767 1.398 . S
C766 H789 0.929 . S
C767 C766 1.398 . S
C767 C768 1.352 . S
C768 C767 1.352 . S
C768 C769 1.384 . S
C768 H790 0.930 . S
C769 C764 1.407 . S
C769 C768 1.384 . S
C769 H791 0.929 . S
C770 O780 1.241 . S
C770 O781 1.273 . S
C771 O782 1.251 . S
C771 O783 1.268 . S
O772 Nd752 2.500 . S
O772 C754 1.258 . S
O773 Nd752 2.492 . S
O773 C754 1.239 . S
O774 Nd752 2.487 . S
O774 C761 1.241 . S
O775 Nd752 2.682 . S
O775 Nd753 2.414 . S
O775 C761 1.273 . S
O776 Nd752 2.410 . S
O776 C762 1.251 . S
O777 Nd753 2.424 . S
O777 C762 1.268 . S
O778 Nd753 2.500 . S
O778 C763 1.258 . S
O779 Nd753 2.492 . S
O779 C763 1.239 . S
O780 Nd753 2.487 . S
O780 C770 1.241 . S
O781 Nd752 2.414 . S
O781 Nd753 2.682 . S
O781 C770 1.273 . S
O782 Nd753 2.410 . S
O782 C771 1.251 . S
O783 Nd752 2.424 . S
O783 C771 1.268 . S
H784 C756 0.930 . S
H785 C757 0.929 . S
H786 C759 0.930 . S
H787 C760 0.929 . S
H788 C765 0.930 . S
H789 C766 0.929 . S
H790 C768 0.930 . S
H791 C769 0.929 . S
Nd792 C794 2.836 . S
Nd792 O812 2.500 . S
Nd792 O813 2.492 . S
Nd792 O814 2.487 . S
Nd792 O815 2.682 . S
Nd792 O816 2.410 . S
Nd792 O821 2.414 . S
Nd792 O823 2.424 . S
Nd793 C803 2.836 . S
Nd793 O815 2.414 . S
Nd793 O817 2.424 . S
Nd793 O818 2.500 . S
Nd793 O819 2.492 . S
Nd793 O820 2.487 . S
Nd793 O821 2.682 . S
Nd793 O822 2.410 . S
C794 Nd792 2.836 . S
C794 C795 1.498 . S
C794 O812 1.258 . S
C794 O813 1.239 . S
C795 C794 1.498 . S
C795 C796 1.366 . S
C795 C800 1.407 . S
C796 C795 1.366 . S
C796 C797 1.392 . S
C796 H824 0.930 . S
C797 C796 1.392 . S
C797 C798 1.398 . S
C797 H825 0.929 . S
C798 C797 1.398 . S
C798 C799 1.352 . S
C799 C798 1.352 . S
C799 C800 1.384 . S
C799 H826 0.930 . S
C800 C795 1.407 . S
C800 C799 1.384 . S
C800 H827 0.929 . S
C801 O814 1.241 . S
C801 O815 1.273 . S
C802 O816 1.251 . S
C802 O817 1.268 . S
C803 Nd793 2.836 . S
C803 C804 1.498 . S
C803 O818 1.258 . S
C803 O819 1.239 . S
C804 C803 1.498 . S
C804 C805 1.366 . S
C804 C809 1.407 . S
C805 C804 1.366 . S
C805 C806 1.392 . S
C805 H828 0.930 . S
C806 C805 1.392 . S
C806 C807 1.398 . S
C806 H829 0.929 . S
C807 C806 1.398 . S
C807 C808 1.352 . S
C808 C807 1.352 . S
C808 C809 1.384 . S
C808 H830 0.930 . S
C809 C804 1.407 . S
C809 C808 1.384 . S
C809 H831 0.929 . S
C810 O820 1.241 . S
C810 O821 1.273 . S
C811 O822 1.251 . S
C811 O823 1.268 . S
O812 Nd792 2.500 . S
O812 C794 1.258 . S
O813 Nd792 2.492 . S
O813 C794 1.239 . S
O814 Nd792 2.487 . S
O814 C801 1.241 . S
O815 Nd792 2.682 . S
O815 Nd793 2.414 . S
O815 C801 1.273 . S
O816 Nd792 2.410 . S
O816 C802 1.251 . S
O817 Nd793 2.424 . S
O817 C802 1.268 . S
O818 Nd793 2.500 . S
O818 C803 1.258 . S
O819 Nd793 2.492 . S
O819 C803 1.239 . S
O820 Nd793 2.487 . S
O820 C810 1.241 . S
O821 Nd792 2.414 . S
O821 Nd793 2.682 . S
O821 C810 1.273 . S
O822 Nd793 2.410 . S
O822 C811 1.251 . S
O823 Nd792 2.424 . S
O823 C811 1.268 . S
H824 C796 0.930 . S
H825 C797 0.929 . S
H826 C799 0.930 . S
H827 C800 0.929 . S
H828 C805 0.930 . S
H829 C806 0.929 . S
H830 C808 0.930 . S
H831 C809 0.929 . S
Nd832 C834 2.836 . S
Nd832 O852 2.500 . S
Nd832 O853 2.492 . S
Nd832 O854 2.487 . S
Nd832 O855 2.682 . S
Nd832 O856 2.410 . S
Nd832 O861 2.414 . S
Nd832 O863 2.424 . S
Nd833 C843 2.836 . S
Nd833 O855 2.414 . S
Nd833 O857 2.424 . S
Nd833 O858 2.500 . S
Nd833 O859 2.492 . S
Nd833 O860 2.487 . S
Nd833 O861 2.682 . S
Nd833 O862 2.410 . S
C834 Nd832 2.836 . S
C834 C835 1.498 . S
C834 O852 1.258 . S
C834 O853 1.239 . S
C835 C834 1.498 . S
C835 C836 1.366 . S
C835 C840 1.407 . S
C836 C835 1.366 . S
C836 C837 1.392 . S
C836 H864 0.930 . S
C837 C836 1.392 . S
C837 C838 1.398 . S
C837 H865 0.929 . S
C838 C837 1.398 . S
C838 C839 1.352 . S
C839 C838 1.352 . S
C839 C840 1.384 . S
C839 H866 0.930 . S
C840 C835 1.407 . S
C840 C839 1.384 . S
C840 H867 0.929 . S
C841 O854 1.241 . S
C841 O855 1.273 . S
C842 O856 1.251 . S
C842 O857 1.268 . S
C843 Nd833 2.836 . S
C843 C844 1.498 . S
C843 O858 1.258 . S
C843 O859 1.239 . S
C844 C843 1.498 . S
C844 C845 1.366 . S
C844 C849 1.407 . S
C845 C844 1.366 . S
C845 C846 1.392 . S
C845 H868 0.930 . S
C846 C845 1.392 . S
C846 C847 1.398 . S
C846 H869 0.929 . S
C847 C846 1.398 . S
C847 C848 1.352 . S
C848 C847 1.352 . S
C848 C849 1.384 . S
C848 H870 0.930 . S
C849 C844 1.407 . S
C849 C848 1.384 . S
C849 H871 0.929 . S
C850 O860 1.241 . S
C850 O861 1.273 . S
C851 O862 1.251 . S
C851 O863 1.268 . S
O852 Nd832 2.500 . S
O852 C834 1.258 . S
O853 Nd832 2.492 . S
O853 C834 1.239 . S
O854 Nd832 2.487 . S
O854 C841 1.241 . S
O855 Nd832 2.682 . S
O855 Nd833 2.414 . S
O855 C841 1.273 . S
O856 Nd832 2.410 . S
O856 C842 1.251 . S
O857 Nd833 2.424 . S
O857 C842 1.268 . S
O858 Nd833 2.500 . S
O858 C843 1.258 . S
O859 Nd833 2.492 . S
O859 C843 1.239 . S
O860 Nd833 2.487 . S
O860 C850 1.241 . S
O861 Nd832 2.414 . S
O861 Nd833 2.682 . S
O861 C850 1.273 . S
O862 Nd833 2.410 . S
O862 C851 1.251 . S
O863 Nd832 2.424 . S
O863 C851 1.268 . S
H864 C836 0.930 . S
H865 C837 0.929 . S
H866 C839 0.930 . S
H867 C840 0.929 . S
H868 C845 0.930 . S
H869 C846 0.929 . S
H870 C848 0.930 . S
H871 C849 0.929 . S
Nd872 C874 2.836 . S
Nd872 O892 2.500 . S
Nd872 O893 2.492 . S
Nd872 O894 2.487 . S
Nd872 O895 2.682 . S
Nd872 O896 2.410 . S
Nd872 O901 2.414 . S
Nd872 O903 2.424 . S
Nd873 C883 2.836 . S
Nd873 O895 2.414 . S
Nd873 O897 2.424 . S
Nd873 O898 2.500 . S
Nd873 O899 2.492 . S
Nd873 O900 2.487 . S
Nd873 O901 2.682 . S
Nd873 O902 2.410 . S
C874 Nd872 2.836 . S
C874 C875 1.498 . S
C874 O892 1.258 . S
C874 O893 1.239 . S
C875 C874 1.498 . S
C875 C876 1.366 . S
C875 C880 1.407 . S
C876 C875 1.366 . S
C876 C877 1.392 . S
C876 H904 0.930 . S
C877 C876 1.392 . S
C877 C878 1.398 . S
C877 H905 0.929 . S
C878 C877 1.398 . S
C878 C879 1.352 . S
C879 C878 1.352 . S
C879 C880 1.384 . S
C879 H906 0.930 . S
C880 C875 1.407 . S
C880 C879 1.384 . S
C880 H907 0.929 . S
C881 O894 1.241 . S
C881 O895 1.273 . S
C882 O896 1.251 . S
C882 O897 1.268 . S
C883 Nd873 2.836 . S
C883 C884 1.498 . S
C883 O898 1.258 . S
C883 O899 1.239 . S
C884 C883 1.498 . S
C884 C885 1.366 . S
C884 C889 1.407 . S
C885 C884 1.366 . S
C885 C886 1.392 . S
C885 H908 0.930 . S
C886 C885 1.392 . S
C886 C887 1.398 . S
C886 H909 0.929 . S
C887 C886 1.398 . S
C887 C888 1.352 . S
C888 C887 1.352 . S
C888 C889 1.384 . S
C888 H910 0.930 . S
C889 C884 1.407 . S
C889 C888 1.384 . S
C889 H911 0.929 . S
C890 O900 1.241 . S
C890 O901 1.273 . S
C891 O902 1.251 . S
C891 O903 1.268 . S
O892 Nd872 2.500 . S
O892 C874 1.258 . S
O893 Nd872 2.492 . S
O893 C874 1.239 . S
O894 Nd872 2.487 . S
O894 C881 1.241 . S
O895 Nd872 2.682 . S
O895 Nd873 2.414 . S
O895 C881 1.273 . S
O896 Nd872 2.410 . S
O896 C882 1.251 . S
O897 Nd873 2.424 . S
O897 C882 1.268 . S
O898 Nd873 2.500 . S
O898 C883 1.258 . S
O899 Nd873 2.492 . S
O899 C883 1.239 . S
O900 Nd873 2.487 . S
O900 C890 1.241 . S
O901 Nd872 2.414 . S
O901 Nd873 2.682 . S
O901 C890 1.273 . S
O902 Nd873 2.410 . S
O902 C891 1.251 . S
O903 Nd872 2.424 . S
O903 C891 1.268 . S
H904 C876 0.930 . S
H905 C877 0.929 . S
H906 C879 0.930 . S
H907 C880 0.929 . S
H908 C885 0.930 . S
H909 C886 0.929 . S
H910 C888 0.930 . S
H911 C889 0.929 . S
Nd912 C914 2.836 . S
Nd912 O932 2.500 . S
Nd912 O933 2.492 . S
Nd912 O934 2.487 . S
Nd912 O935 2.682 . S
Nd912 O936 2.410 . S
Nd912 O941 2.414 . S
Nd912 O943 2.424 . S
Nd913 C923 2.836 . S
Nd913 O935 2.414 1_655 S
Nd913 O937 2.397 1_655 S
Nd913 O938 2.500 . S
Nd913 O939 2.492 . S
Nd913 O940 2.487 . S
Nd913 O941 2.682 1_655 S
Nd913 O942 2.410 . S
C914 Nd912 2.836 . S
C914 C915 1.498 . S
C914 O932 1.258 . S
C914 O933 1.239 . S
C915 C914 1.498 . S
C915 C916 1.366 . S
C915 C920 1.407 . S
C916 C915 1.366 . S
C916 C917 1.392 . S
C916 H944 0.930 . S
C917 C916 1.392 . S
C917 C918 1.398 . S
C917 H945 0.929 . S
C918 C917 1.398 . S
C918 C919 1.352 . S
C919 C918 1.352 . S
C919 C920 1.384 . S
C919 H946 0.930 . S
C920 C915 1.407 . S
C920 C919 1.384 . S
C920 H947 0.929 . S
C921 O934 1.241 . S
C921 O935 1.273 . S
C922 O936 1.251 . S
C922 O937 1.311 . S
C923 Nd913 2.836 . S
C923 C924 1.498 . S
C923 O938 1.258 . S
C923 O939 1.239 . S
C924 C923 1.498 . S
C924 C925 1.366 . S
C924 C929 1.407 . S
C925 C924 1.366 . S
C925 C926 1.392 . S
C925 H948 0.930 . S
C926 C925 1.392 . S
C926 C927 1.398 . S
C926 H949 0.929 . S
C927 C926 1.398 . S
C927 C928 1.352 . S
C928 C927 1.352 . S
C928 C929 1.384 . S
C928 H950 0.930 . S
C929 C924 1.407 . S
C929 C928 1.384 . S
C929 H951 0.929 . S
C930 O940 1.241 1_455 S
C930 O941 1.273 . S
C931 O942 1.251 1_455 S
C931 O943 1.268 . S
O932 Nd912 2.500 . S
O932 C914 1.258 . S
O933 Nd912 2.492 . S
O933 C914 1.239 . S
O934 Nd912 2.487 . S
O934 C921 1.241 . S
O935 Nd912 2.682 . S
O935 Nd913 2.414 1_455 S
O935 C921 1.273 . S
O936 Nd912 2.410 . S
O936 C922 1.251 . S
O937 Nd913 2.397 1_455 S
O937 C922 1.311 . S
O938 Nd913 2.500 . S
O938 C923 1.258 . S
O939 Nd913 2.492 . S
O939 C923 1.239 . S
O940 Nd913 2.487 . S
O940 C930 1.241 1_655 S
O941 Nd912 2.414 . S
O941 Nd913 2.682 1_455 S
O941 C930 1.273 . S
O942 Nd913 2.410 . S
O942 C931 1.251 1_655 S
O943 Nd912 2.424 . S
O943 C931 1.268 . S
H944 C916 0.930 . S
H945 C917 0.929 . S
H946 C919 0.930 . S
H947 C920 0.929 . S
H948 C925 0.930 . S
H949 C926 0.929 . S
H950 C928 0.930 . S
H951 C929 0.929 . S
H952 C958 0.930 . S
H953 C962 0.930 . S
H954 C967 0.929 . S
H955 C965 0.929 . S
H956 C960 0.929 . S
H957 C966 0.929 . S
C958 H952 0.930 . S
C958 C959 1.367 . S
C958 C966 1.378 . S
C959 C958 1.367 . S
C959 C967 1.433 . S
C960 H956 0.929 . S
C960 C962 1.378 . S
C960 C964 1.350 . S
C961 C964 1.419 1_556 S
C961 C966 1.383 . S
C961 N969 1.436 . S
C962 H953 0.930 . S
C962 C960 1.378 . S
C962 C963 1.367 . S
C963 C962 1.367 . S
C963 C965 1.433 . S
C964 C960 1.350 . S
C964 C961 1.419 1_554 S
C964 N968 1.427 . S
C965 H955 0.929 . S
C965 C963 1.433 . S
C965 N968 1.384 . S
C966 H957 0.929 . S
C966 C958 1.378 . S
C966 C961 1.383 . S
C967 H954 0.929 . S
C967 C959 1.433 . S
C967 N969 1.384 . S
N968 C964 1.427 . S
N968 C965 1.384 . S
N969 C961 1.436 . S
N969 C967 1.384 . S
H970 C976 0.930 . S
H971 C980 0.930 . S
H972 C985 0.929 . S
H973 C983 0.929 . S
H974 C978 0.929 . S
H975 C984 0.929 . S
C976 H970 0.930 . S
C976 C977 1.367 . S
C976 C984 1.378 . S
C977 C976 1.367 . S
C977 C985 1.433 . S
C978 H974 0.929 . S
C978 C980 1.378 . S
C978 C982 1.350 . S
C979 C982 1.463 . S
C979 C984 1.350 . S
C979 N987 1.427 . S
C980 H971 0.930 . S
C980 C978 1.378 . S
C980 C981 1.367 . S
C981 C980 1.367 . S
C981 C983 1.433 . S
C982 C978 1.350 . S
C982 C979 1.463 . S
C982 N986 1.427 . S
C983 H973 0.929 . S
C983 C981 1.433 . S
C983 N986 1.384 . S
C984 H975 0.929 . S
C984 C976 1.378 . S
C984 C979 1.350 . S
C985 H972 0.929 . S
C985 C977 1.433 . S
C985 N987 1.384 . S
N986 C982 1.427 . S
N986 C983 1.384 . S
N987 C979 1.427 . S
N987 C985 1.384 . S
H988 C994 0.930 . S
H989 C998 0.930 . S
H990 C1003 0.929 . S
H991 C1001 0.929 1_545 S
H992 C996 0.929 . S
H993 C1002 0.929 . S
C994 H988 0.930 . S
C994 C995 1.367 . S
C994 C1002 1.378 . S
C995 C994 1.367 . S
C995 C1003 1.433 . S
C996 H992 0.929 . S
C996 C998 1.378 . S
C996 C1000 1.350 . S
C997 C1000 1.463 . S
C997 C1002 1.350 . S
C997 N1005 1.427 . S
C998 H989 0.930 . S
C998 C996 1.378 . S
C998 C999 1.367 . S
C999 C998 1.367 . S
C999 C1001 1.433 . S
C1000 C996 1.350 . S
C1000 C997 1.463 . S
C1000 N1004 1.427 . S
C1001 H991 0.929 1_565 S
C1001 C999 1.433 . S
C1001 N1004 1.384 . S
C1002 H993 0.929 . S
C1002 C994 1.378 . S
C1002 C997 1.350 . S
C1003 H990 0.929 . S
C1003 C995 1.433 . S
C1003 N1005 1.384 . S
N1004 C1000 1.427 . S
N1004 C1001 1.384 . S
N1005 C997 1.427 . S
N1005 C1003 1.384 . S
H1006 C1012 0.930 . S
H1007 C1016 0.930 . S
H1008 C1021 0.929 . S
H1009 C1019 0.929 . S
H1010 C1014 0.929 . S
H1011 C1020 0.929 . S
C1012 H1006 0.930 . S
C1012 C1013 1.367 . S
C1012 C1020 1.378 . S
C1013 C1012 1.367 . S
C1013 C1021 1.433 . S
C1014 H1010 0.929 . S
C1014 C1016 1.378 . S
C1014 C1018 1.350 . S
C1015 C1018 1.463 . S
C1015 C1020 1.350 . S
C1015 N1023 1.427 . S
C1016 H1007 0.930 . S
C1016 C1014 1.378 . S
C1016 C1017 1.367 . S
C1017 C1016 1.367 . S
C1017 C1019 1.433 . S
C1018 C1014 1.350 . S
C1018 C1015 1.463 . S
C1018 N1022 1.427 . S
C1019 H1009 0.929 . S
C1019 C1017 1.433 . S
C1019 N1022 1.384 . S
C1020 H1011 0.929 . S
C1020 C1012 1.378 . S
C1020 C1015 1.350 . S
C1021 H1008 0.929 . S
C1021 C1013 1.433 . S
C1021 N1023 1.384 . S
N1022 C1018 1.427 . S
N1022 C1019 1.384 . S
N1023 C1015 1.427 . S
N1023 C1021 1.384 . S
H1024 C1030 0.930 . S
H1025 C1034 0.930 . S
H1026 C1039 0.929 . S
H1027 C1037 0.929 . S
H1028 C1032 0.929 . S
H1029 C1038 0.929 1_655 S
C1030 H1024 0.930 . S
C1030 C1031 1.367 1_655 S
C1030 C1038 1.378 1_655 S
C1031 C1030 1.367 1_455 S
C1031 C1039 1.433 . S
C1032 H1028 0.929 . S
C1032 C1034 1.378 . S
C1032 C1036 1.350 . S
C1033 C1036 1.463 . S
C1033 C1038 1.350 . S
C1033 N1041 1.427 . S
C1034 H1025 0.930 . S
C1034 C1032 1.378 . S
C1034 C1035 1.367 . S
C1035 C1034 1.367 . S
C1035 C1037 1.433 . S
C1036 C1032 1.350 . S
C1036 C1033 1.463 . S
C1036 N1040 1.427 . S
C1037 H1027 0.929 . S
C1037 C1035 1.433 . S
C1037 N1040 1.384 . S
C1038 H1029 0.929 1_455 S
C1038 C1030 1.378 1_455 S
C1038 C1033 1.350 . S
C1039 H1026 0.929 . S
C1039 C1031 1.433 . S
C1039 N1041 1.384 . S
N1040 C1036 1.427 . S
N1040 C1037 1.384 . S
N1041 C1033 1.427 . S
N1041 C1039 1.384 . S
H1042 C1048 0.930 . S
H1043 C1052 0.930 . S
H1044 C1057 0.929 . S
H1045 C1055 0.929 . S
H1046 C1050 0.929 . S
H1047 C1056 0.929 . S
C1048 H1042 0.930 . S
C1048 C1049 1.367 . S
C1048 C1056 1.378 . S
C1049 C1048 1.367 . S
C1049 C1057 1.433 . S
C1050 H1046 0.929 . S
C1050 C1052 1.378 . S
C1050 C1054 1.350 . S
C1051 C1054 1.463 . S
C1051 C1056 1.350 . S
C1051 N1059 1.427 . S
C1052 H1043 0.930 . S
C1052 C1050 1.378 . S
C1052 C1053 1.367 . S
C1053 C1052 1.367 . S
C1053 C1055 1.433 . S
C1054 C1050 1.350 . S
C1054 C1051 1.463 . S
C1054 N1058 1.427 . S
C1055 H1045 0.929 . S
C1055 C1053 1.433 . S
C1055 N1058 1.384 . S
C1056 H1047 0.929 . S
C1056 C1048 1.378 . S
C1056 C1051 1.350 . S
C1057 H1044 0.929 . S
C1057 C1049 1.433 . S
C1057 N1059 1.384 . S
N1058 C1054 1.427 . S
N1058 C1055 1.384 . S
N1059 C1051 1.427 . S
N1059 C1057 1.384 . S
H1060 C1066 0.930 . S
H1061 C1070 0.930 . S
H1062 C1075 0.929 . S
H1063 C1073 0.929 . S
H1064 C1068 0.929 . S
H1065 C1074 0.929 . S
C1066 H1060 0.930 . S
C1066 C1067 1.367 . S
C1066 C1074 1.378 . S
C1067 C1066 1.367 . S
C1067 C1075 1.433 . S
C1068 H1064 0.929 . S
C1068 C1070 1.378 . S
C1068 C1072 1.350 . S
C1069 C1072 1.463 . S
C1069 C1074 1.350 . S
C1069 N1077 1.427 . S
C1070 H1061 0.930 . S
C1070 C1068 1.378 . S
C1070 C1071 1.367 . S
C1071 C1070 1.367 . S
C1071 C1073 1.433 . S
C1072 C1068 1.350 . S
C1072 C1069 1.463 . S
C1072 N1076 1.427 . S
C1073 H1063 0.929 . S
C1073 C1071 1.433 . S
C1073 N1076 1.384 . S
C1074 H1065 0.929 . S
C1074 C1066 1.378 . S
C1074 C1069 1.350 . S
C1075 H1062 0.929 . S
C1075 C1067 1.433 . S
C1075 N1077 1.384 . S
N1076 C1072 1.427 . S
N1076 C1073 1.384 . S
N1077 C1069 1.427 . S
N1077 C1075 1.384 . S
H1078 C1084 0.930 . S
H1079 C1088 0.930 . S
H1080 C1093 0.929 . S
H1081 C1091 0.929 . S
H1082 C1086 0.929 . S
H1083 C1092 0.929 . S
C1084 H1078 0.930 . S
C1084 C1085 1.367 . S
C1084 C1092 1.378 . S
C1085 C1084 1.367 . S
C1085 C1093 1.433 . S
C1086 H1082 0.929 . S
C1086 C1088 1.378 . S
C1086 C1090 1.350 . S
C1087 C1090 1.463 . S
C1087 C1092 1.350 . S
C1087 N1095 1.427 . S
C1088 H1079 0.930 . S
C1088 C1086 1.378 . S
C1088 C1089 1.367 . S
C1089 C1088 1.367 . S
C1089 C1091 1.433 . S
C1090 C1086 1.350 . S
C1090 C1087 1.463 . S
C1090 N1094 1.427 . S
C1091 H1081 0.929 . S
C1091 C1089 1.433 . S
C1091 N1094 1.384 . S
C1092 H1083 0.929 . S
C1092 C1084 1.378 . S
C1092 C1087 1.350 . S
C1093 H1080 0.929 . S
C1093 C1085 1.433 . S
C1093 N1095 1.384 . S
N1094 C1090 1.427 . S
N1094 C1091 1.384 . S
N1095 C1087 1.427 . S
N1095 C1093 1.384 . S
H1096 C1102 0.930 . S
H1097 C1106 0.930 1_655 S
H1098 C1111 0.929 . S
H1099 C1109 0.929 . S
H1100 C1104 0.929 . S
H1101 C1110 0.929 . S
C1102 H1096 0.930 . S
C1102 C1103 1.367 . S
C1102 C1110 1.378 . S
C1103 C1102 1.367 . S
C1103 C1111 1.433 . S
C1104 H1100 0.929 . S
C1104 C1106 1.381 1_655 S
C1104 C1108 1.350 . S
C1105 C1108 1.463 . S
C1105 C1110 1.350 . S
C1105 N1113 1.427 . S
C1106 H1097 0.930 1_455 S
C1106 C1104 1.381 1_455 S
C1106 C1107 1.364 . S
C1107 C1106 1.364 . S
C1107 C1109 1.433 . S
C1108 C1104 1.350 . S
C1108 C1105 1.463 . S
C1108 N1112 1.427 1_655 S
C1109 H1099 0.929 . S
C1109 C1107 1.433 . S
C1109 N1112 1.384 . S
C1110 H1101 0.929 . S
C1110 C1102 1.378 . S
C1110 C1105 1.350 . S
C1111 H1098 0.929 . S
C1111 C1103 1.433 . S
C1111 N1113 1.384 . S
N1112 C1108 1.427 1_455 S
N1112 C1109 1.384 . S
N1113 C1105 1.427 . S
N1113 C1111 1.384 . S
H1114 C1120 0.930 . S
H1115 C1124 0.930 . S
H1116 C1129 0.929 . S
H1117 C1127 0.929 . S
H1118 C1122 0.929 . S
H1119 C1128 0.929 . S
C1120 H1114 0.930 . S
C1120 C1121 1.367 . S
C1120 C1128 1.378 . S
C1121 C1120 1.367 . S
C1121 C1129 1.433 . S
C1122 H1118 0.929 . S
C1122 C1124 1.378 . S
C1122 C1126 1.350 . S
C1123 C1126 1.463 . S
C1123 C1128 1.350 . S
C1123 N1131 1.427 . S
C1124 H1115 0.930 . S
C1124 C1122 1.378 . S
C1124 C1125 1.367 . S
C1125 C1124 1.367 . S
C1125 C1127 1.433 . S
C1126 C1122 1.350 . S
C1126 C1123 1.463 . S
C1126 N1130 1.427 . S
C1127 H1117 0.929 . S
C1127 C1125 1.433 . S
C1127 N1130 1.384 . S
C1128 H1119 0.929 . S
C1128 C1120 1.378 . S
C1128 C1123 1.350 . S
C1129 H1116 0.929 . S
C1129 C1121 1.433 . S
C1129 N1131 1.384 . S
N1130 C1126 1.427 . S
N1130 C1127 1.384 . S
N1131 C1123 1.427 . S
N1131 C1129 1.384 . S
H1132 C1138 0.930 . S
H1133 C1142 0.930 . S
H1134 C1147 0.929 . S
H1135 C1145 0.929 . S
H1136 C1140 0.929 . S
H1137 C1146 0.929 . S
C1138 H1132 0.930 . S
C1138 C1139 1.367 1_545 S
C1138 C1146 1.378 . S
C1139 C1138 1.367 1_565 S
C1139 C1147 1.433 . S
C1140 H1136 0.929 . S
C1140 C1142 1.378 . S
C1140 C1144 1.350 . S
C1141 C1144 1.463 . S
C1141 C1146 1.350 . S
C1141 N1149 1.427 . S
C1142 H1133 0.930 . S
C1142 C1140 1.378 . S
C1142 C1143 1.367 . S
C1143 C1142 1.367 . S
C1143 C1145 1.433 . S
C1144 C1140 1.350 . S
C1144 C1141 1.463 . S
C1144 N1148 1.427 . S
C1145 H1135 0.929 . S
C1145 C1143 1.433 . S
C1145 N1148 1.384 . S
C1146 H1137 0.929 . S
C1146 C1138 1.378 . S
C1146 C1141 1.350 . S
C1147 H1134 0.929 . S
C1147 C1139 1.433 . S
C1147 N1149 1.384 1_565 S
N1148 C1144 1.427 . S
N1148 C1145 1.384 . S
N1149 C1141 1.427 . S
N1149 C1147 1.384 1_545 S
H1150 C1156 0.930 . S
H1151 C1160 0.930 . S
H1152 C1165 0.929 . S
H1153 C1163 0.929 . S
H1154 C1158 0.929 . S
H1155 C1164 0.929 . S
C1156 H1150 0.930 . S
C1156 C1157 1.367 . S
C1156 C1164 1.378 . S
C1157 C1156 1.367 . S
C1157 C1165 1.433 . S
C1158 H1154 0.929 . S
C1158 C1160 1.378 1_554 S
C1158 C1162 1.350 . S
C1159 C1162 1.463 . S
C1159 C1164 1.350 . S
C1159 N1167 1.427 . S
C1160 H1151 0.930 . S
C1160 C1158 1.378 1_556 S
C1160 C1161 1.367 . S
C1161 C1160 1.367 . S
C1161 C1163 1.433 1_556 S
C1162 C1158 1.350 . S
C1162 C1159 1.463 . S
C1162 N1166 1.427 . S
C1163 H1153 0.929 . S
C1163 C1161 1.433 1_554 S
C1163 N1166 1.384 . S
C1164 H1155 0.929 . S
C1164 C1156 1.378 . S
C1164 C1159 1.350 . S
C1165 H1152 0.929 . S
C1165 C1157 1.433 . S
C1165 N1167 1.384 . S
N1166 C1162 1.427 . S
N1166 C1163 1.384 . S
N1167 C1159 1.427 . S
N1167 C1165 1.384 . S
H1168 C1174 0.930 . S
H1169 C1178 0.930 . S
H1170 C1183 0.929 . S
H1171 C1181 0.923 1_455 S
H1172 C1176 0.929 . S
H1173 C1182 0.929 . S
C1174 H1168 0.930 . S
C1174 C1175 1.367 . S
C1174 C1182 1.378 . S
C1175 C1174 1.367 . S
C1175 C1183 1.433 . S
C1176 H1172 0.929 . S
C1176 C1178 1.378 . S
C1176 C1180 1.350 . S
C1177 C1180 1.463 . S
C1177 C1182 1.350 . S
C1177 N1185 1.427 . S
C1178 H1169 0.930 . S
C1178 C1176 1.378 . S
C1178 C1179 1.385 . S
C1179 C1178 1.385 . S
C1179 C1181 1.439 . S
C1180 C1176 1.350 . S
C1180 C1177 1.463 . S
C1180 N1184 1.427 . S
C1181 H1171 0.923 1_655 S
C1181 C1179 1.439 . S
C1181 N1184 1.392 . S
C1182 H1173 0.929 . S
C1182 C1174 1.378 . S
C1182 C1177 1.350 . S
C1183 H1170 0.929 . S
C1183 C1175 1.433 . S
C1183 N1185 1.384 . S
N1184 C1180 1.427 . S
N1184 C1181 1.392 . S
N1185 C1177 1.427 . S
N1185 C1183 1.384 . S
H1186 C1192 0.930 . S
H1187 C1196 0.930 . S
H1188 C1201 0.929 . S
H1189 C1199 0.929 . S
H1190 C1194 0.929 . S
H1191 C1200 0.929 . S
C1192 H1186 0.930 . S
C1192 C1193 1.367 . S
C1192 C1200 1.378 . S
C1193 C1192 1.367 . S
C1193 C1201 1.433 . S
C1194 H1190 0.929 . S
C1194 C1196 1.378 . S
C1194 C1198 1.350 . S
C1195 C1198 1.463 . S
C1195 C1200 1.350 . S
C1195 N1203 1.427 . S
C1196 H1187 0.930 . S
C1196 C1194 1.378 . S
C1196 C1197 1.367 . S
C1197 C1196 1.367 . S
C1197 C1199 1.433 . S
C1198 C1194 1.350 . S
C1198 C1195 1.463 . S
C1198 N1202 1.427 . S
C1199 H1189 0.929 . S
C1199 C1197 1.433 . S
C1199 N1202 1.384 . S
C1200 H1191 0.929 . S
C1200 C1192 1.378 . S
C1200 C1195 1.350 . S
C1201 H1188 0.929 . S
C1201 C1193 1.433 . S
C1201 N1203 1.384 . S
N1202 C1198 1.427 . S
N1202 C1199 1.384 . S
N1203 C1195 1.427 . S
N1203 C1201 1.384 . S
H1204 C1210 0.930 . S
H1205 C1214 0.930 . S
H1206 C1219 0.929 . S
H1207 C1217 0.929 1_554 S
H1208 C1212 0.929 . S
H1209 C1218 0.929 . S
C1210 H1204 0.930 . S
C1210 C1211 1.367 . S
C1210 C1218 1.378 . S
C1211 C1210 1.367 . S
C1211 C1219 1.433 . S
C1212 H1208 0.929 . S
C1212 C1214 1.378 . S
C1212 C1216 1.350 . S
C1213 C1216 1.463 . S
C1213 C1218 1.350 . S
C1213 N1221 1.427 . S
C1214 H1205 0.930 . S
C1214 C1212 1.378 . S
C1214 C1215 1.367 . S
C1215 C1214 1.367 . S
C1215 C1217 1.433 . S
C1216 C1212 1.350 . S
C1216 C1213 1.463 . S
C1216 N1220 1.427 . S
C1217 H1207 0.929 1_556 S
C1217 C1215 1.433 . S
C1217 N1220 1.384 . S
C1218 H1209 0.929 . S
C1218 C1210 1.378 . S
C1218 C1213 1.350 . S
C1219 H1206 0.929 . S
C1219 C1211 1.433 . S
C1219 N1221 1.384 . S
N1220 C1216 1.427 . S
N1220 C1217 1.384 . S
N1221 C1213 1.427 . S
N1221 C1219 1.384 . S
H1222 C1228 0.930 . S
H1223 C1232 0.930 . S
H1224 C1237 0.929 . S
H1225 C1235 0.929 . S
H1226 C1230 0.929 . S
H1227 C1236 0.929 . S
C1228 H1222 0.930 . S
C1228 C1229 1.367 . S
C1228 C1236 1.378 . S
C1229 C1228 1.367 . S
C1229 C1237 1.433 . S
C1230 H1226 0.929 . S
C1230 C1232 1.378 . S
C1230 C1234 1.350 . S
C1231 C1234 1.463 . S
C1231 C1236 1.350 . S
C1231 N1239 1.427 . S
C1232 H1223 0.930 . S
C1232 C1230 1.378 . S
C1232 C1233 1.367 . S
C1233 C1232 1.367 . S
C1233 C1235 1.433 . S
C1234 C1230 1.350 . S
C1234 C1231 1.463 . S
C1234 N1238 1.427 . S
C1235 H1225 0.929 . S
C1235 C1233 1.433 . S
C1235 N1238 1.384 . S
C1236 H1227 0.929 . S
C1236 C1228 1.378 . S
C1236 C1231 1.350 . S
C1237 H1224 0.929 . S
C1237 C1229 1.433 . S
C1237 N1239 1.384 . S
N1238 C1234 1.427 . S
N1238 C1235 1.384 . S
N1239 C1231 1.427 . S
N1239 C1237 1.384 . S
H1240 C1246 0.930 . S
H1241 C1250 0.930 . S
H1242 C1255 0.929 . S
H1243 C1253 0.929 . S
H1244 C1248 0.929 . S
H1245 C1254 0.929 . S
C1246 H1240 0.930 . S
C1246 C1247 1.367 . S
C1246 C1254 1.378 . S
C1247 C1246 1.367 . S
C1247 C1255 1.433 . S
C1248 H1244 0.929 . S
C1248 C1250 1.378 . S
C1248 C1252 1.350 . S
C1249 C1252 1.463 1_565 S
C1249 C1254 1.350 . S
C1249 N1257 1.427 . S
C1250 H1241 0.930 . S
C1250 C1248 1.378 . S
C1250 C1251 1.367 . S
C1251 C1250 1.367 . S
C1251 C1253 1.433 . S
C1252 C1248 1.350 . S
C1252 C1249 1.463 1_545 S
C1252 N1256 1.427 . S
C1253 H1243 0.929 . S
C1253 C1251 1.433 . S
C1253 N1256 1.384 . S
C1254 H1245 0.929 . S
C1254 C1246 1.378 . S
C1254 C1249 1.350 . S
C1255 H1242 0.929 . S
C1255 C1247 1.433 . S
C1255 N1257 1.384 . S
N1256 C1252 1.427 . S
N1256 C1253 1.384 . S
N1257 C1249 1.427 . S
N1257 C1255 1.384 . S
H1258 C1264 0.930 . S
H1259 C1268 0.930 . S
H1260 C1273 0.929 . S
H1261 C1271 0.929 . S
H1262 C1266 0.929 . S
H1263 C1272 0.929 . S
C1264 H1258 0.930 . S
C1264 C1265 1.367 . S
C1264 C1272 1.382 . S
C1265 C1264 1.367 . S
C1265 C1273 1.433 1_556 S
C1266 H1262 0.929 . S
C1266 C1268 1.378 . S
C1266 C1270 1.350 . S
C1267 C1270 1.463 . S
C1267 C1272 1.345 1_554 S
C1267 N1275 1.427 . S
C1268 H1259 0.930 . S
C1268 C1266 1.378 . S
C1268 C1269 1.367 . S
C1269 C1268 1.367 . S
C1269 C1271 1.433 . S
C1270 C1266 1.350 . S
C1270 C1267 1.463 . S
C1270 N1274 1.427 . S
C1271 H1261 0.929 . S
C1271 C1269 1.433 . S
C1271 N1274 1.384 . S
C1272 H1263 0.929 . S
C1272 C1264 1.382 . S
C1272 C1267 1.345 1_556 S
C1273 H1260 0.929 . S
C1273 C1265 1.433 1_554 S
C1273 N1275 1.384 . S
N1274 C1270 1.427 . S
N1274 C1271 1.384 . S
N1275 C1267 1.427 . S
N1275 C1273 1.384 . S
H1276 C1282 0.930 . S
H1277 C1286 0.930 . S
H1278 C1291 0.929 . S
H1279 C1289 0.929 . S
H1280 C1284 0.929 . S
H1281 C1290 0.929 . S
C1282 H1276 0.930 . S
C1282 C1283 1.367 . S
C1282 C1290 1.378 . S
C1283 C1282 1.367 . S
C1283 C1291 1.433 . S
C1284 H1280 0.929 . S
C1284 C1286 1.378 . S
C1284 C1288 1.350 . S
C1285 C1288 1.463 . S
C1285 C1290 1.350 . S
C1285 N1293 1.427 . S
C1286 H1277 0.930 . S
C1286 C1284 1.378 . S
C1286 C1287 1.367 . S
C1287 C1286 1.367 . S
C1287 C1289 1.433 . S
C1288 C1284 1.350 . S
C1288 C1285 1.463 . S
C1288 N1292 1.427 . S
C1289 H1279 0.929 . S
C1289 C1287 1.433 . S
C1289 N1292 1.384 . S
C1290 H1281 0.929 . S
C1290 C1282 1.378 . S
C1290 C1285 1.350 . S
C1291 H1278 0.929 . S
C1291 C1283 1.433 . S
C1291 N1293 1.384 . S
N1292 C1288 1.427 . S
N1292 C1289 1.384 . S
N1293 C1285 1.427 . S
N1293 C1291 1.384 . S
H1294 C1300 0.930 . S
H1295 C1304 0.930 . S
H1296 C1309 0.929 . S
H1297 C1307 0.929 . S
H1298 C1302 0.929 . S
H1299 C1308 0.929 . S
C1300 H1294 0.930 . S
C1300 C1301 1.367 . S
C1300 C1308 1.378 . S
C1301 C1300 1.367 . S
C1301 C1309 1.433 . S
C1302 H1298 0.929 . S
C1302 C1304 1.378 . S
C1302 C1306 1.350 . S
C1303 C1306 1.463 . S
C1303 C1308 1.350 . S
C1303 N1311 1.427 . S
C1304 H1295 0.930 . S
C1304 C1302 1.378 . S
C1304 C1305 1.367 . S
C1305 C1304 1.367 . S
C1305 C1307 1.433 . S
C1306 C1302 1.350 . S
C1306 C1303 1.463 . S
C1306 N1310 1.427 . S
C1307 H1297 0.929 . S
C1307 C1305 1.433 . S
C1307 N1310 1.384 . S
C1308 H1299 0.929 . S
C1308 C1300 1.378 . S
C1308 C1303 1.350 . S
C1309 H1296 0.929 . S
C1309 C1301 1.433 . S
C1309 N1311 1.384 . S
N1310 C1306 1.427 . S
N1310 C1307 1.384 . S
N1311 C1303 1.427 . S
N1311 C1309 1.384 . S
H1312 C1318 0.930 . S
H1313 C1322 0.930 . S
H1314 C1327 0.929 . S
H1315 C1325 0.929 . S
H1316 C1320 0.929 . S
H1317 C1326 0.929 . S
C1318 H1312 0.930 . S
C1318 C1319 1.367 . S
C1318 C1326 1.378 . S
C1319 C1318 1.367 . S
C1319 C1327 1.433 . S
C1320 H1316 0.929 . S
C1320 C1322 1.378 . S
C1320 C1324 1.350 . S
C1321 C1324 1.463 . S
C1321 C1326 1.350 . S
C1321 N1329 1.427 . S
C1322 H1313 0.930 . S
C1322 C1320 1.378 . S
C1322 C1323 1.367 . S
C1323 C1322 1.367 . S
C1323 C1325 1.433 . S
C1324 C1320 1.350 . S
C1324 C1321 1.463 . S
C1324 N1328 1.427 . S
C1325 H1315 0.929 . S
C1325 C1323 1.433 . S
C1325 N1328 1.384 . S
C1326 H1317 0.929 . S
C1326 C1318 1.378 . S
C1326 C1321 1.350 . S
C1327 H1314 0.929 . S
C1327 C1319 1.433 . S
C1327 N1329 1.384 . S
N1328 C1324 1.427 . S
N1328 C1325 1.384 . S
N1329 C1321 1.427 . S
N1329 C1327 1.384 . S
H1330 C1336 0.930 . S
H1331 C1340 0.930 . S
H1332 C1345 0.929 . S
H1333 C1343 0.929 . S
H1334 C1338 0.929 . S
H1335 C1344 0.929 . S
C1336 H1330 0.930 . S
C1336 C1337 1.367 . S
C1336 C1344 1.378 . S
C1337 C1336 1.367 . S
C1337 C1345 1.433 . S
C1338 H1334 0.929 . S
C1338 C1340 1.378 . S
C1338 C1342 1.350 . S
C1339 C1342 1.463 . S
C1339 C1344 1.350 . S
C1339 N1347 1.427 . S
C1340 H1331 0.930 . S
C1340 C1338 1.378 . S
C1340 C1341 1.367 . S
C1341 C1340 1.367 . S
C1341 C1343 1.433 . S
C1342 C1338 1.350 . S
C1342 C1339 1.463 . S
C1342 N1346 1.427 . S
C1343 H1333 0.929 . S
C1343 C1341 1.433 . S
C1343 N1346 1.384 . S
C1344 H1335 0.929 . S
C1344 C1336 1.378 . S
C1344 C1339 1.350 . S
C1345 H1332 0.929 . S
C1345 C1337 1.433 . S
C1345 N1347 1.384 . S
N1346 C1342 1.427 . S
N1346 C1343 1.384 . S
N1347 C1339 1.427 . S
N1347 C1345 1.384 . S
H1348 C1354 0.930 . S
H1349 C1358 0.930 . S
H1350 C1363 0.929 . S
H1351 C1361 0.929 . S
H1352 C1356 0.929 . S
H1353 C1362 0.929 . S
C1354 H1348 0.930 . S
C1354 C1355 1.367 . S
C1354 C1362 1.378 . S
C1355 C1354 1.367 . S
C1355 C1363 1.433 . S
C1356 H1352 0.929 . S
C1356 C1358 1.378 . S
C1356 C1360 1.350 . S
C1357 C1360 1.463 . S
C1357 C1362 1.350 . S
C1357 N1365 1.427 . S
C1358 H1349 0.930 . S
C1358 C1356 1.378 . S
C1358 C1359 1.367 . S
C1359 C1358 1.367 . S
C1359 C1361 1.433 . S
C1360 C1356 1.350 . S
C1360 C1357 1.463 . S
C1360 N1364 1.427 . S
C1361 H1351 0.929 . S
C1361 C1359 1.433 . S
C1361 N1364 1.384 . S
C1362 H1353 0.929 . S
C1362 C1354 1.378 . S
C1362 C1357 1.350 . S
C1363 H1350 0.929 . S
C1363 C1355 1.433 . S
C1363 N1365 1.384 . S
N1364 C1360 1.427 . S
N1364 C1361 1.384 . S
N1365 C1357 1.427 . S
N1365 C1363 1.384 . S
H1366 C1372 0.930 . S
H1367 C1376 0.930 . S
H1368 C1381 0.929 . S
H1369 C1379 0.929 . S
H1370 C1374 0.929 . S
H1371 C1380 0.929 . S
C1372 H1366 0.930 . S
C1372 C1373 1.367 . S
C1372 C1380 1.378 . S
C1373 C1372 1.367 . S
C1373 C1381 1.433 . S
C1374 H1370 0.929 . S
C1374 C1376 1.378 . S
C1374 C1378 1.350 . S
C1375 C1378 1.463 . S
C1375 C1380 1.350 . S
C1375 N1383 1.427 . S
C1376 H1367 0.930 . S
C1376 C1374 1.378 . S
C1376 C1377 1.367 . S
C1377 C1376 1.367 . S
C1377 C1379 1.433 . S
C1378 C1374 1.350 . S
C1378 C1375 1.463 . S
C1378 N1382 1.427 . S
C1379 H1369 0.929 . S
C1379 C1377 1.433 . S
C1379 N1382 1.384 . S
C1380 H1371 0.929 . S
C1380 C1372 1.378 . S
C1380 C1375 1.350 . S
C1381 H1368 0.929 . S
C1381 C1373 1.433 . S
C1381 N1383 1.384 . S
N1382 C1378 1.427 . S
N1382 C1379 1.384 . S
N1383 C1375 1.427 . S
N1383 C1381 1.384 . S
H1384 C1390 0.930 . S
H1385 C1394 0.930 . S
H1386 C1399 0.929 . S
H1387 C1397 0.929 . S
H1388 C1392 0.929 . S
H1389 C1398 0.929 . S
C1390 H1384 0.930 . S
C1390 C1391 1.367 . S
C1390 C1398 1.378 . S
C1391 C1390 1.367 . S
C1391 C1399 1.433 . S
C1392 H1388 0.929 . S
C1392 C1394 1.378 . S
C1392 C1396 1.350 . S
C1393 C1396 1.463 . S
C1393 C1398 1.350 . S
C1393 N1401 1.427 . S
C1394 H1385 0.930 . S
C1394 C1392 1.378 . S
C1394 C1395 1.367 . S
C1395 C1394 1.367 . S
C1395 C1397 1.433 . S
C1396 C1392 1.350 . S
C1396 C1393 1.463 . S
C1396 N1400 1.427 . S
C1397 H1387 0.929 . S
C1397 C1395 1.433 . S
C1397 N1400 1.384 . S
C1398 H1389 0.929 . S
C1398 C1390 1.378 . S
C1398 C1393 1.350 . S
C1399 H1386 0.929 . S
C1399 C1391 1.433 . S
C1399 N1401 1.384 . S
N1400 C1396 1.427 . S
N1400 C1397 1.384 . S
N1401 C1393 1.427 . S
N1401 C1399 1.384 . S
H1402 C1408 0.930 . S
H1403 C1412 0.930 . S
H1404 C1417 0.929 . S
H1405 C1415 0.929 . S
H1406 C1410 0.929 . S
H1407 C1416 0.929 . S
C1408 H1402 0.930 . S
C1408 C1409 1.367 . S
C1408 C1416 1.378 . S
C1409 C1408 1.367 . S
C1409 C1417 1.433 . S
C1410 H1406 0.929 . S
C1410 C1412 1.378 . S
C1410 C1414 1.350 . S
C1411 C1414 1.463 . S
C1411 C1416 1.350 . S
C1411 N1419 1.427 . S
C1412 H1403 0.930 . S
C1412 C1410 1.378 . S
C1412 C1413 1.367 . S
C1413 C1412 1.367 . S
C1413 C1415 1.433 . S
C1414 C1410 1.350 . S
C1414 C1411 1.463 . S
C1414 N1418 1.427 . S
C1415 H1405 0.929 . S
C1415 C1413 1.433 . S
C1415 N1418 1.384 . S
C1416 H1407 0.929 . S
C1416 C1408 1.378 . S
C1416 C1411 1.350 . S
C1417 H1404 0.929 . S
C1417 C1409 1.433 . S
C1417 N1419 1.384 . S
N1418 C1414 1.427 . S
N1418 C1415 1.384 . S
N1419 C1411 1.427 . S
N1419 C1417 1.384 . S
H1420 C1426 0.930 . S
H1421 C1430 0.930 . S
H1422 C1435 0.929 . S
H1423 C1433 0.929 . S
H1424 C1428 0.929 . S
H1425 C1434 0.929 . S
C1426 H1420 0.930 . S
C1426 C1427 1.367 . S
C1426 C1434 1.378 . S
C1427 C1426 1.367 . S
C1427 C1435 1.433 . S
C1428 H1424 0.929 . S
C1428 C1430 1.378 . S
C1428 C1432 1.350 . S
C1429 C1432 1.463 . S
C1429 C1434 1.350 . S
C1429 N1437 1.427 . S
C1430 H1421 0.930 . S
C1430 C1428 1.378 . S
C1430 C1431 1.367 . S
C1431 C1430 1.367 . S
C1431 C1433 1.433 . S
C1432 C1428 1.350 . S
C1432 C1429 1.463 . S
C1432 N1436 1.427 . S
C1433 H1423 0.929 . S
C1433 C1431 1.433 . S
C1433 N1436 1.384 . S
C1434 H1425 0.929 . S
C1434 C1426 1.378 . S
C1434 C1429 1.350 . S
C1435 H1422 0.929 . S
C1435 C1427 1.433 . S
C1435 N1437 1.384 . S
N1436 C1432 1.427 . S
N1436 C1433 1.384 . S
N1437 C1429 1.427 . S
N1437 C1435 1.384 . S
H1438 C1444 0.930 . S
H1439 C1448 0.930 . S
H1440 C1453 0.929 . S
H1441 C1451 0.929 . S
H1442 C1446 0.929 . S
H1443 C1452 0.929 . S
C1444 H1438 0.930 . S
C1444 C1445 1.367 . S
C1444 C1452 1.378 . S
C1445 C1444 1.367 . S
C1445 C1453 1.433 . S
C1446 H1442 0.929 . S
C1446 C1448 1.378 . S
C1446 C1450 1.350 . S
C1447 C1450 1.463 . S
C1447 C1452 1.350 . S
C1447 N1455 1.427 . S
C1448 H1439 0.930 . S
C1448 C1446 1.378 . S
C1448 C1449 1.367 . S
C1449 C1448 1.367 . S
C1449 C1451 1.433 . S
C1450 C1446 1.350 . S
C1450 C1447 1.463 . S
C1450 N1454 1.427 . S
C1451 H1441 0.929 . S
C1451 C1449 1.433 . S
C1451 N1454 1.384 . S
C1452 H1443 0.929 . S
C1452 C1444 1.378 . S
C1452 C1447 1.350 . S
C1453 H1440 0.929 . S
C1453 C1445 1.433 . S
C1453 N1455 1.384 . S
N1454 C1450 1.427 . S
N1454 C1451 1.384 . S
N1455 C1447 1.427 . S
N1455 C1453 1.384 . S
H1456 C1462 0.930 . S
H1457 C1466 0.942 . S
H1458 C1471 0.929 . S
H1459 C1469 0.929 . S
H1460 C1464 0.929 . S
H1461 C1470 0.929 . S
C1462 H1456 0.930 . S
C1462 C1463 1.367 . S
C1462 C1470 1.378 . S
C1463 C1462 1.367 . S
C1463 C1471 1.433 . S
C1464 H1460 0.929 . S
C1464 C1466 1.378 . S
C1464 C1468 1.350 . S
C1465 C1468 1.463 . S
C1465 C1470 1.350 . S
C1465 N1473 1.427 . S
C1466 H1457 0.942 . S
C1466 C1464 1.378 . S
C1466 C1467 1.367 . S
C1467 C1466 1.367 . S
C1467 C1469 1.433 . S
C1468 C1464 1.350 . S
C1468 C1465 1.463 . S
C1468 N1472 1.427 . S
C1469 H1459 0.929 . S
C1469 C1467 1.433 . S
C1469 N1472 1.384 . S
C1470 H1461 0.929 . S
C1470 C1462 1.378 . S
C1470 C1465 1.350 . S
C1471 H1458 0.929 . S
C1471 C1463 1.433 . S
C1471 N1473 1.384 . S
N1472 C1468 1.427 . S
N1472 C1469 1.384 . S
N1473 C1465 1.427 . S
N1473 C1471 1.384 . S
H1474 C1480 0.930 . S
H1475 C1484 0.930 . S
H1476 C1489 0.929 . S
H1477 C1487 0.929 . S
H1478 C1482 0.929 . S
H1479 C1488 0.929 . S
C1480 H1474 0.930 . S
C1480 C1481 1.367 . S
C1480 C1488 1.378 . S
C1481 C1480 1.367 . S
C1481 C1489 1.433 . S
C1482 H1478 0.929 . S
C1482 C1484 1.378 . S
C1482 C1486 1.350 . S
C1483 C1486 1.463 . S
C1483 C1488 1.350 . S
C1483 N1491 1.427 . S
C1484 H1475 0.930 . S
C1484 C1482 1.378 . S
C1484 C1485 1.367 . S
C1485 C1484 1.367 . S
C1485 C1487 1.433 . S
C1486 C1482 1.350 . S
C1486 C1483 1.463 . S
C1486 N1490 1.427 . S
C1487 H1477 0.929 . S
C1487 C1485 1.433 . S
C1487 N1490 1.384 . S
C1488 H1479 0.929 . S
C1488 C1480 1.378 . S
C1488 C1483 1.350 . S
C1489 H1476 0.929 . S
C1489 C1481 1.433 . S
C1489 N1491 1.384 . S
N1490 C1486 1.427 . S
N1490 C1487 1.384 . S
N1491 C1483 1.427 . S
N1491 C1489 1.384 . S
H1492 C1498 0.930 1_556 S
H1493 C1502 0.930 . S
H1494 C1507 0.929 . S
H1495 C1505 0.929 . S
H1496 C1500 0.929 . S
H1497 C1506 0.929 1_556 S
C1498 H1492 0.930 1_554 S
C1498 C1499 1.367 . S
C1498 C1506 1.378 . S
C1499 C1498 1.367 . S
C1499 C1507 1.433 . S
C1500 H1496 0.929 . S
C1500 C1502 1.378 1_565 S
C1500 C1504 1.350 . S
C1501 C1504 1.463 . S
C1501 C1506 1.350 . S
C1501 N1509 1.427 . S
C1502 H1493 0.930 . S
C1502 C1500 1.378 1_545 S
C1502 C1503 1.367 . S
C1503 C1502 1.367 . S
C1503 C1505 1.433 . S
C1504 C1500 1.350 . S
C1504 C1501 1.463 . S
C1504 N1508 1.427 . S
C1505 H1495 0.929 . S
C1505 C1503 1.433 . S
C1505 N1508 1.384 1_545 S
C1506 H1497 0.929 1_554 S
C1506 C1498 1.378 . S
C1506 C1501 1.350 . S
C1507 H1494 0.929 . S
C1507 C1499 1.433 . S
C1507 N1509 1.384 . S
N1508 C1504 1.427 . S
N1508 C1505 1.384 1_565 S
N1509 C1501 1.427 . S
N1509 C1507 1.384 . S
H1510 C1516 0.930 . S
H1511 C1520 0.930 . S
H1512 C1525 0.929 . S
H1513 C1523 0.929 . S
H1514 C1518 0.929 . S
H1515 C1524 0.929 . S
C1516 H1510 0.930 . S
C1516 C1517 1.367 . S
C1516 C1524 1.378 . S
C1517 C1516 1.367 . S
C1517 C1525 1.433 . S
C1518 H1514 0.929 . S
C1518 C1520 1.378 . S
C1518 C1522 1.350 . S
C1519 C1522 1.463 . S
C1519 C1524 1.350 . S
C1519 N1527 1.427 . S
C1520 H1511 0.930 . S
C1520 C1518 1.378 . S
C1520 C1521 1.367 . S
C1521 C1520 1.367 . S
C1521 C1523 1.433 . S
C1522 C1518 1.350 . S
C1522 C1519 1.463 . S
C1522 N1526 1.427 . S
C1523 H1513 0.929 . S
C1523 C1521 1.433 . S
C1523 N1526 1.384 . S
C1524 H1515 0.929 . S
C1524 C1516 1.378 . S
C1524 C1519 1.350 . S
C1525 H1512 0.929 . S
C1525 C1517 1.433 . S
C1525 N1527 1.384 . S
N1526 C1522 1.427 . S
N1526 C1523 1.384 . S
N1527 C1519 1.427 . S
N1527 C1525 1.384 . S
H1528 C1534 0.930 . S
H1529 C1538 0.930 . S
H1530 C1543 0.929 . S
H1531 C1541 0.929 . S
H1532 C1536 0.929 . S
H1533 C1542 0.929 . S
C1534 H1528 0.930 . S
C1534 C1535 1.367 . S
C1534 C1542 1.378 . S
C1535 C1534 1.367 . S
C1535 C1543 1.433 . S
C1536 H1532 0.929 . S
C1536 C1538 1.378 1_556 S
C1536 C1540 1.350 . S
C1537 C1540 1.463 . S
C1537 C1542 1.350 . S
C1537 N1545 1.427 . S
C1538 H1529 0.930 . S
C1538 C1536 1.378 1_554 S
C1538 C1539 1.367 . S
C1539 C1538 1.367 . S
C1539 C1541 1.433 1_554 S
C1540 C1536 1.350 . S
C1540 C1537 1.463 . S
C1540 N1544 1.427 . S
C1541 H1531 0.929 . S
C1541 C1539 1.433 1_556 S
C1541 N1544 1.384 . S
C1542 H1533 0.929 . S
C1542 C1534 1.378 . S
C1542 C1537 1.350 . S
C1543 H1530 0.929 . S
C1543 C1535 1.433 . S
C1543 N1545 1.384 . S
N1544 C1540 1.427 . S
N1544 C1541 1.384 . S
N1545 C1537 1.427 . S
N1545 C1543 1.384 . S
H1546 C1552 0.930 . S
H1547 C1556 0.930 . S
H1548 C1561 0.929 . S
H1549 C1559 0.929 . S
H1550 C1554 0.929 . S
H1551 C1560 0.929 . S
C1552 H1546 0.930 . S
C1552 C1553 1.367 . S
C1552 C1560 1.378 . S
C1553 C1552 1.367 . S
C1553 C1561 1.433 . S
C1554 H1550 0.929 . S
C1554 C1556 1.378 . S
C1554 C1558 1.350 . S
C1555 C1558 1.463 . S
C1555 C1560 1.350 . S
C1555 N1563 1.427 . S
C1556 H1547 0.930 . S
C1556 C1554 1.378 . S
C1556 C1557 1.367 . S
C1557 C1556 1.367 . S
C1557 C1559 1.433 . S
C1558 C1554 1.350 . S
C1558 C1555 1.463 . S
C1558 N1562 1.427 . S
C1559 H1549 0.929 . S
C1559 C1557 1.433 . S
C1559 N1562 1.384 . S
C1560 H1551 0.929 . S
C1560 C1552 1.378 . S
C1560 C1555 1.350 . S
C1561 H1548 0.929 . S
C1561 C1553 1.433 . S
C1561 N1563 1.384 . S
N1562 C1558 1.427 . S
N1562 C1559 1.384 . S
N1563 C1555 1.427 . S
N1563 C1561 1.384 . S
H1564 C1570 0.930 . S
H1565 C1574 0.930 . S
H1566 C1579 0.929 . S
H1567 C1577 0.929 . S
H1568 C1572 0.929 . S
H1569 C1578 0.929 . S
C1570 H1564 0.930 . S
C1570 C1571 1.367 . S
C1570 C1578 1.378 . S
C1571 C1570 1.367 . S
C1571 C1579 1.433 . S
C1572 H1568 0.929 . S
C1572 C1574 1.378 . S
C1572 C1576 1.350 . S
C1573 C1576 1.463 . S
C1573 C1578 1.350 . S
C1573 N1581 1.427 . S
C1574 H1565 0.930 . S
C1574 C1572 1.378 . S
C1574 C1575 1.367 . S
C1575 C1574 1.367 . S
C1575 C1577 1.433 . S
C1576 C1572 1.350 . S
C1576 C1573 1.463 . S
C1576 N1580 1.427 . S
C1577 H1567 0.929 . S
C1577 C1575 1.433 . S
C1577 N1580 1.384 . S
C1578 H1569 0.929 . S
C1578 C1570 1.378 . S
C1578 C1573 1.350 . S
C1579 H1566 0.929 . S
C1579 C1571 1.433 . S
C1579 N1581 1.384 . S
N1580 C1576 1.427 . S
N1580 C1577 1.384 . S
N1581 C1573 1.427 . S
N1581 C1579 1.384 . S
H1582 C1588 0.930 . S
H1583 C1592 0.930 . S
H1584 C1597 0.929 . S
H1585 C1595 0.929 . S
H1586 C1590 0.929 . S
H1587 C1596 0.929 . S
C1588 H1582 0.930 . S
C1588 C1589 1.367 . S
C1588 C1596 1.378 . S
C1589 C1588 1.367 . S
C1589 C1597 1.433 . S
C1590 H1586 0.929 . S
C1590 C1592 1.378 . S
C1590 C1594 1.350 . S
C1591 C1594 1.463 . S
C1591 C1596 1.350 . S
C1591 N1599 1.427 . S
C1592 H1583 0.930 . S
C1592 C1590 1.378 . S
C1592 C1593 1.367 . S
C1593 C1592 1.367 . S
C1593 C1595 1.433 . S
C1594 C1590 1.350 . S
C1594 C1591 1.463 . S
C1594 N1598 1.427 . S
C1595 H1585 0.929 . S
C1595 C1593 1.433 . S
C1595 N1598 1.384 . S
C1596 H1587 0.929 . S
C1596 C1588 1.378 . S
C1596 C1591 1.350 . S
C1597 H1584 0.929 . S
C1597 C1589 1.433 . S
C1597 N1599 1.384 . S
N1598 C1594 1.427 . S
N1598 C1595 1.384 . S
N1599 C1591 1.427 . S
N1599 C1597 1.384 . S
H1600 C1606 0.930 . S
H1601 C1610 0.930 . S
H1602 C1615 0.929 . S
H1603 C1613 0.929 . S
H1604 C1608 0.929 . S
H1605 C1614 0.929 . S
C1606 H1600 0.930 . S
C1606 C1607 1.367 . S
C1606 C1614 1.378 . S
C1607 C1606 1.367 . S
C1607 C1615 1.433 . S
C1608 H1604 0.929 . S
C1608 C1610 1.378 . S
C1608 C1612 1.350 . S
C1609 C1612 1.463 . S
C1609 C1614 1.350 . S
C1609 N1617 1.427 . S
C1610 H1601 0.930 . S
C1610 C1608 1.378 . S
C1610 C1611 1.367 . S
C1611 C1610 1.367 . S
C1611 C1613 1.433 . S
C1612 C1608 1.350 . S
C1612 C1609 1.463 . S
C1612 N1616 1.427 . S
C1613 H1603 0.929 . S
C1613 C1611 1.433 . S
C1613 N1616 1.384 . S
C1614 H1605 0.929 . S
C1614 C1606 1.378 . S
C1614 C1609 1.350 . S
C1615 H1602 0.929 . S
C1615 C1607 1.433 . S
C1615 N1617 1.384 . S
N1616 C1612 1.427 . S
N1616 C1613 1.384 . S
N1617 C1609 1.427 . S
N1617 C1615 1.384 . S
H1618 C1624 0.930 . S
H1619 C1628 0.930 . S
H1620 C1633 0.929 . S
H1621 C1631 0.929 . S
H1622 C1626 0.929 . S
H1623 C1632 0.929 . S
C1624 H1618 0.930 . S
C1624 C1625 1.367 . S
C1624 C1632 1.378 . S
C1625 C1624 1.367 . S
C1625 C1633 1.433 . S
C1626 H1622 0.929 . S
C1626 C1628 1.378 . S
C1626 C1630 1.350 . S
C1627 C1630 1.463 . S
C1627 C1632 1.350 . S
C1627 N1635 1.427 . S
C1628 H1619 0.930 . S
C1628 C1626 1.378 . S
C1628 C1629 1.367 . S
C1629 C1628 1.367 . S
C1629 C1631 1.433 . S
C1630 C1626 1.350 . S
C1630 C1627 1.463 . S
C1630 N1634 1.427 . S
C1631 H1621 0.929 . S
C1631 C1629 1.433 . S
C1631 N1634 1.384 . S
C1632 H1623 0.929 . S
C1632 C1624 1.378 . S
C1632 C1627 1.350 . S
C1633 H1620 0.929 . S
C1633 C1625 1.433 . S
C1633 N1635 1.384 . S
N1634 C1630 1.427 . S
N1634 C1631 1.384 . S
N1635 C1627 1.427 . S
N1635 C1633 1.384 . S
H1636 C1642 0.930 . S
H1637 C1646 0.930 . S
H1638 C1651 0.929 . S
H1639 C1649 0.929 . S
H1640 C1644 0.929 . S
H1641 C1650 0.929 . S
C1642 H1636 0.930 . S
C1642 C1643 1.367 . S
C1642 C1650 1.378 . S
C1643 C1642 1.367 . S
C1643 C1651 1.433 . S
C1644 H1640 0.929 . S
C1644 C1646 1.378 . S
C1644 C1648 1.350 . S
C1645 C1648 1.463 . S
C1645 C1650 1.350 . S
C1645 N1653 1.427 . S
C1646 H1637 0.930 . S
C1646 C1644 1.378 . S
C1646 C1647 1.367 . S
C1647 C1646 1.367 . S
C1647 C1649 1.433 . S
C1648 C1644 1.350 . S
C1648 C1645 1.463 . S
C1648 N1652 1.427 . S
C1649 H1639 0.929 . S
C1649 C1647 1.433 . S
C1649 N1652 1.384 . S
C1650 H1641 0.929 . S
C1650 C1642 1.378 . S
C1650 C1645 1.350 . S
C1651 H1638 0.929 . S
C1651 C1643 1.433 . S
C1651 N1653 1.384 . S
N1652 C1648 1.427 . S
N1652 C1649 1.384 . S
N1653 C1645 1.427 . S
N1653 C1651 1.384 . S
H1654 C1660 0.930 . S
H1655 C1664 0.930 . S
H1656 C1669 0.929 . S
H1657 C1667 0.929 . S
H1658 C1662 0.929 . S
H1659 C1668 0.929 . S
C1660 H1654 0.930 . S
C1660 C1661 1.367 . S
C1660 C1668 1.378 . S
C1661 C1660 1.367 . S
C1661 C1669 1.433 . S
C1662 H1658 0.929 . S
C1662 C1664 1.378 . S
C1662 C1666 1.350 . S
C1663 C1666 1.463 . S
C1663 C1668 1.350 . S
C1663 N1671 1.427 . S
C1664 H1655 0.930 . S
C1664 C1662 1.378 . S
C1664 C1665 1.367 . S
C1665 C1664 1.367 . S
C1665 C1667 1.433 . S
C1666 C1662 1.350 . S
C1666 C1663 1.463 . S
C1666 N1670 1.427 . S
C1667 H1657 0.929 . S
C1667 C1665 1.433 . S
C1667 N1670 1.384 . S
C1668 H1659 0.929 . S
C1668 C1660 1.378 . S
C1668 C1663 1.350 . S
C1669 H1656 0.929 . S
C1669 C1661 1.433 . S
C1669 N1671 1.384 . S
N1670 C1666 1.427 . S
N1670 C1667 1.384 . S
N1671 C1663 1.427 . S
N1671 C1669 1.384 . S
H1672 C1678 0.930 . S
H1673 C1682 0.930 . S
H1674 C1687 0.929 . S
H1675 C1685 0.929 . S
H1676 C1680 0.929 . S
H1677 C1686 0.929 . S
C1678 H1672 0.930 . S
C1678 C1679 1.367 . S
C1678 C1686 1.378 . S
C1679 C1678 1.367 . S
C1679 C1687 1.433 . S
C1680 H1676 0.929 . S
C1680 C1682 1.378 . S
C1680 C1684 1.350 . S
C1681 C1684 1.463 . S
C1681 C1686 1.350 . S
C1681 N1689 1.427 . S
C1682 H1673 0.930 . S
C1682 C1680 1.378 . S
C1682 C1683 1.367 . S
C1683 C1682 1.367 . S
C1683 C1685 1.433 . S
C1684 C1680 1.350 . S
C1684 C1681 1.463 . S
C1684 N1688 1.427 . S
C1685 H1675 0.929 . S
C1685 C1683 1.433 . S
C1685 N1688 1.384 . S
C1686 H1677 0.929 . S
C1686 C1678 1.378 . S
C1686 C1681 1.350 . S
C1687 H1674 0.929 . S
C1687 C1679 1.433 . S
C1687 N1689 1.384 . S
N1688 C1684 1.427 . S
N1688 C1685 1.384 . S
N1689 C1681 1.427 . S
N1689 C1687 1.384 . S
H1690 C1696 0.930 . S
H1691 C1700 0.930 . S
H1692 C1705 0.929 . S
H1693 C1703 0.929 . S
H1694 C1698 0.929 . S
H1695 C1704 0.929 . S
C1696 H1690 0.930 . S
C1696 C1697 1.367 . S
C1696 C1704 1.378 . S
C1697 C1696 1.367 . S
C1697 C1705 1.433 . S
C1698 H1694 0.929 . S
C1698 C1700 1.378 . S
C1698 C1702 1.350 . S
C1699 C1702 1.463 . S
C1699 C1704 1.350 . S
C1699 N1707 1.427 . S
C1700 H1691 0.930 . S
C1700 C1698 1.378 . S
C1700 C1701 1.367 . S
C1701 C1700 1.367 . S
C1701 C1703 1.433 . S
C1702 C1698 1.350 . S
C1702 C1699 1.463 . S
C1702 N1706 1.427 . S
C1703 H1693 0.929 . S
C1703 C1701 1.433 . S
C1703 N1706 1.384 . S
C1704 H1695 0.929 . S
C1704 C1696 1.378 . S
C1704 C1699 1.350 . S
C1705 H1692 0.929 . S
C1705 C1697 1.433 . S
C1705 N1707 1.384 . S
N1706 C1702 1.427 . S
N1706 C1703 1.384 . S
N1707 C1699 1.427 . S
N1707 C1705 1.384 . S
H1708 C1714 0.930 . S
H1709 C1718 0.930 . S
H1710 C1723 0.929 . S
H1711 C1721 0.929 . S
H1712 C1716 0.929 . S
H1713 C1722 0.929 . S
C1714 H1708 0.930 . S
C1714 C1715 1.367 . S
C1714 C1722 1.378 . S
C1715 C1714 1.367 . S
C1715 C1723 1.433 . S
C1716 H1712 0.929 . S
C1716 C1718 1.378 . S
C1716 C1720 1.350 . S
C1717 C1720 1.463 . S
C1717 C1722 1.350 . S
C1717 N1725 1.427 . S
C1718 H1709 0.930 . S
C1718 C1716 1.378 . S
C1718 C1719 1.367 . S
C1719 C1718 1.367 . S
C1719 C1721 1.433 . S
C1720 C1716 1.350 . S
C1720 C1717 1.463 . S
C1720 N1724 1.427 . S
C1721 H1711 0.929 . S
C1721 C1719 1.433 . S
C1721 N1724 1.384 . S
C1722 H1713 0.929 . S
C1722 C1714 1.378 . S
C1722 C1717 1.350 . S
C1723 H1710 0.929 . S
C1723 C1715 1.433 . S
C1723 N1725 1.384 . S
N1724 C1720 1.427 . S
N1724 C1721 1.384 . S
N1725 C1717 1.427 . S
N1725 C1723 1.384 . S
H1726 C1732 0.930 . S
H1727 C1736 0.930 . S
H1728 C1741 0.929 . S
H1729 C1739 0.929 . S
H1730 C1734 0.929 . S
H1731 C1740 0.929 . S
C1732 H1726 0.930 . S
C1732 C1733 1.367 . S
C1732 C1740 1.378 . S
C1733 C1732 1.367 . S
C1733 C1741 1.433 . S
C1734 H1730 0.929 . S
C1734 C1736 1.378 . S
C1734 C1738 1.350 . S
C1735 C1738 1.463 . S
C1735 C1740 1.350 . S
C1735 N1743 1.427 . S
C1736 H1727 0.930 . S
C1736 C1734 1.378 . S
C1736 C1737 1.367 . S
C1737 C1736 1.367 . S
C1737 C1739 1.433 . S
C1738 C1734 1.350 . S
C1738 C1735 1.463 . S
C1738 N1742 1.427 . S
C1739 H1729 0.929 . S
C1739 C1737 1.433 . S
C1739 N1742 1.384 . S
C1740 H1731 0.929 . S
C1740 C1732 1.378 . S
C1740 C1735 1.350 . S
C1741 H1728 0.929 . S
C1741 C1733 1.433 . S
C1741 N1743 1.384 . S
N1742 C1738 1.427 . S
N1742 C1739 1.384 . S
N1743 C1735 1.427 . S
N1743 C1741 1.384 . S
H1744 C1750 0.930 . S
H1745 C1754 0.930 . S
H1746 C1759 0.929 . S
H1747 C1757 0.929 . S
H1748 C1752 0.929 . S
H1749 C1758 0.929 . S
C1750 H1744 0.930 . S
C1750 C1751 1.367 . S
C1750 C1758 1.378 . S
C1751 C1750 1.367 . S
C1751 C1759 1.433 . S
C1752 H1748 0.929 . S
C1752 C1754 1.378 . S
C1752 C1756 1.350 . S
C1753 C1756 1.463 . S
C1753 C1758 1.350 . S
C1753 N1761 1.427 . S
C1754 H1745 0.930 . S
C1754 C1752 1.378 . S
C1754 C1755 1.367 . S
C1755 C1754 1.367 . S
C1755 C1757 1.433 . S
C1756 C1752 1.350 . S
C1756 C1753 1.463 . S
C1756 N1760 1.427 . S
C1757 H1747 0.929 . S
C1757 C1755 1.433 . S
C1757 N1760 1.384 . S
C1758 H1749 0.929 . S
C1758 C1750 1.378 . S
C1758 C1753 1.350 . S
C1759 H1746 0.929 . S
C1759 C1751 1.433 . S
C1759 N1761 1.384 . S
N1760 C1756 1.427 . S
N1760 C1757 1.384 . S
N1761 C1753 1.427 . S
N1761 C1759 1.384 . S
H1762 C1768 0.930 . S
H1763 C1772 0.930 . S
H1764 C1777 0.929 . S
H1765 C1775 0.929 . S
H1766 C1770 0.929 . S
H1767 C1776 0.929 . S
C1768 H1762 0.930 . S
C1768 C1769 1.367 1_545 S
C1768 C1776 1.378 . S
C1769 C1768 1.367 1_565 S
C1769 C1777 1.433 . S
C1770 H1766 0.929 . S
C1770 C1772 1.378 . S
C1770 C1774 1.350 1_565 S
C1771 C1774 1.463 . S
C1771 C1776 1.350 . S
C1771 N1779 1.427 1_545 S
C1772 H1763 0.930 . S
C1772 C1770 1.378 . S
C1772 C1773 1.367 1_565 S
C1773 C1772 1.367 1_545 S
C1773 C1775 1.433 . S
C1774 C1770 1.350 1_545 S
C1774 C1771 1.463 . S
C1774 N1778 1.427 . S
C1775 H1765 0.929 . S
C1775 C1773 1.433 . S
C1775 N1778 1.384 . S
C1776 H1767 0.929 . S
C1776 C1768 1.378 . S
C1776 C1771 1.350 . S
C1777 H1764 0.929 . S
C1777 C1769 1.433 . S
C1777 N1779 1.384 . S
N1778 C1774 1.427 . S
N1778 C1775 1.384 . S
N1779 C1771 1.427 1_565 S
N1779 C1777 1.384 . S
H1780 C1786 0.930 . S
H1781 C1790 0.930 . S
H1782 C1795 0.929 . S
H1783 C1793 0.929 . S
H1784 C1788 0.929 . S
H1785 C1794 0.929 . S
C1786 H1780 0.930 . S
C1786 C1787 1.367 . S
C1786 C1794 1.378 . S
C1787 C1786 1.367 . S
C1787 C1795 1.433 . S
C1788 H1784 0.929 . S
C1788 C1790 1.378 . S
C1788 C1792 1.350 . S
C1789 C1792 1.463 . S
C1789 C1794 1.350 . S
C1789 N1797 1.427 . S
C1790 H1781 0.930 . S
C1790 C1788 1.378 . S
C1790 C1791 1.367 . S
C1791 C1790 1.367 . S
C1791 C1793 1.433 . S
C1792 C1788 1.350 . S
C1792 C1789 1.463 . S
C1792 N1796 1.427 . S
C1793 H1783 0.929 . S
C1793 C1791 1.433 . S
C1793 N1796 1.384 . S
C1794 H1785 0.929 . S
C1794 C1786 1.378 . S
C1794 C1789 1.350 . S
C1795 H1782 0.929 . S
C1795 C1787 1.433 . S
C1795 N1797 1.384 . S
N1796 C1792 1.427 . S
N1796 C1793 1.384 . S
N1797 C1789 1.427 . S
N1797 C1795 1.384 . S
H1798 C1804 0.930 . S
H1799 C1808 0.930 . S
H1800 C1813 0.929 . S
H1801 C1811 0.929 . S
H1802 C1806 0.929 . S
H1803 C1812 0.929 . S
C1804 H1798 0.930 . S
C1804 C1805 1.367 . S
C1804 C1812 1.378 . S
C1805 C1804 1.367 . S
C1805 C1813 1.433 . S
C1806 H1802 0.929 . S
C1806 C1808 1.378 . S
C1806 C1810 1.350 . S
C1807 C1810 1.463 . S
C1807 C1812 1.350 . S
C1807 N1815 1.427 . S
C1808 H1799 0.930 . S
C1808 C1806 1.378 . S
C1808 C1809 1.367 . S
C1809 C1808 1.367 . S
C1809 C1811 1.433 . S
C1810 C1806 1.350 . S
C1810 C1807 1.463 . S
C1810 N1814 1.427 . S
C1811 H1801 0.929 . S
C1811 C1809 1.433 . S
C1811 N1814 1.384 . S
C1812 H1803 0.929 . S
C1812 C1804 1.378 . S
C1812 C1807 1.350 . S
C1813 H1800 0.929 . S
C1813 C1805 1.433 . S
C1813 N1815 1.384 . S
N1814 C1810 1.427 . S
N1814 C1811 1.384 . S
N1815 C1807 1.427 . S
N1815 C1813 1.384 . S
H1816 C1822 0.930 . S
H1817 C1826 0.930 . S
H1818 C1831 0.929 . S
H1819 C1829 0.929 . S
H1820 C1824 0.929 . S
H1821 C1830 0.929 . S
C1822 H1816 0.930 . S
C1822 C1823 1.367 . S
C1822 C1830 1.378 . S
C1823 C1822 1.367 . S
C1823 C1831 1.433 . S
C1824 H1820 0.929 . S
C1824 C1826 1.378 . S
C1824 C1828 1.350 . S
C1825 C1828 1.463 . S
C1825 C1830 1.350 . S
C1825 N1833 1.427 . S
C1826 H1817 0.930 . S
C1826 C1824 1.378 . S
C1826 C1827 1.367 . S
C1827 C1826 1.367 . S
C1827 C1829 1.433 . S
C1828 C1824 1.350 . S
C1828 C1825 1.463 . S
C1828 N1832 1.427 . S
C1829 H1819 0.929 . S
C1829 C1827 1.433 . S
C1829 N1832 1.384 . S
C1830 H1821 0.929 . S
C1830 C1822 1.378 . S
C1830 C1825 1.350 . S
C1831 H1818 0.929 . S
C1831 C1823 1.433 . S
C1831 N1833 1.384 . S
N1832 C1828 1.427 . S
N1832 C1829 1.384 . S
N1833 C1825 1.427 . S
N1833 C1831 1.384 . S
H1834 C1840 0.930 . S
H1835 C1844 0.930 . S
H1836 C1849 0.929 . S
H1837 C1847 0.929 . S
H1838 C1842 0.929 . S
H1839 C1848 0.929 . S
C1840 H1834 0.930 . S
C1840 C1841 1.367 . S
C1840 C1848 1.378 . S
C1841 C1840 1.367 . S
C1841 C1849 1.433 . S
C1842 H1838 0.929 . S
C1842 C1844 1.378 . S
C1842 C1846 1.350 . S
C1843 C1846 1.463 . S
C1843 C1848 1.350 . S
C1843 N1851 1.427 . S
C1844 H1835 0.930 . S
C1844 C1842 1.378 . S
C1844 C1845 1.367 . S
C1845 C1844 1.367 . S
C1845 C1847 1.433 . S
C1846 C1842 1.350 . S
C1846 C1843 1.463 . S
C1846 N1850 1.427 . S
C1847 H1837 0.929 . S
C1847 C1845 1.433 . S
C1847 N1850 1.384 . S
C1848 H1839 0.929 . S
C1848 C1840 1.378 . S
C1848 C1843 1.350 . S
C1849 H1836 0.929 . S
C1849 C1841 1.433 . S
C1849 N1851 1.384 . S
N1850 C1846 1.427 . S
N1850 C1847 1.384 . S
N1851 C1843 1.427 . S
N1851 C1849 1.384 . S
H1852 C1858 0.930 . S
H1853 C1862 0.930 . S
H1854 C1867 0.929 . S
H1855 C1865 0.929 . S
H1856 C1860 0.929 . S
H1857 C1866 0.929 . S
C1858 H1852 0.930 . S
C1858 C1859 1.367 . S
C1858 C1866 1.378 . S
C1859 C1858 1.367 . S
C1859 C1867 1.433 . S
C1860 H1856 0.929 . S
C1860 C1862 1.378 . S
C1860 C1864 1.350 . S
C1861 C1864 1.463 1_556 S
C1861 C1866 1.350 . S
C1861 N1869 1.427 . S
C1862 H1853 0.930 . S
C1862 C1860 1.378 . S
C1862 C1863 1.367 . S
C1863 C1862 1.367 . S
C1863 C1865 1.433 . S
C1864 C1860 1.350 . S
C1864 C1861 1.463 1_554 S
C1864 N1868 1.427 1_554 S
C1865 H1855 0.929 . S
C1865 C1863 1.433 . S
C1865 N1868 1.384 1_554 S
C1866 H1857 0.929 . S
C1866 C1858 1.378 . S
C1866 C1861 1.350 . S
C1867 H1854 0.929 . S
C1867 C1859 1.433 . S
C1867 N1869 1.384 . S
N1868 C1864 1.427 1_556 S
N1868 C1865 1.384 1_556 S
N1869 C1861 1.427 . S
N1869 C1867 1.384 . S
H1870 C1876 0.930 . S
H1871 C1880 0.930 . S
H1872 C1885 0.929 . S
H1873 C1883 0.929 . S
H1874 C1878 0.929 . S
H1875 C1884 0.929 . S
C1876 H1870 0.930 . S
C1876 C1877 1.367 . S
C1876 C1884 1.378 . S
C1877 C1876 1.367 . S
C1877 C1885 1.433 . S
C1878 H1874 0.929 . S
C1878 C1880 1.378 . S
C1878 C1882 1.350 . S
C1879 C1882 1.463 . S
C1879 C1884 1.350 . S
C1879 N1887 1.427 . S
C1880 H1871 0.930 . S
C1880 C1878 1.378 . S
C1880 C1881 1.367 . S
C1881 C1880 1.367 . S
C1881 C1883 1.433 . S
C1882 C1878 1.350 . S
C1882 C1879 1.463 . S
C1882 N1886 1.427 . S
C1883 H1873 0.929 . S
C1883 C1881 1.433 . S
C1883 N1886 1.384 . S
C1884 H1875 0.929 . S
C1884 C1876 1.378 . S
C1884 C1879 1.350 . S
C1885 H1872 0.929 . S
C1885 C1877 1.433 . S
C1885 N1887 1.384 . S
N1886 C1882 1.427 . S
N1886 C1883 1.384 . S
N1887 C1879 1.427 . S
N1887 C1885 1.384 . S
H1888 C1894 0.930 . S
H1889 C1898 0.930 . S
H1890 C1903 0.929 . S
H1891 C1901 0.929 . S
H1892 C1896 0.929 . S
H1893 C1902 0.929 . S
C1894 H1888 0.930 . S
C1894 C1895 1.367 . S
C1894 C1902 1.378 . S
C1895 C1894 1.367 . S
C1895 C1903 1.433 . S
C1896 H1892 0.929 . S
C1896 C1898 1.378 . S
C1896 C1900 1.350 . S
C1897 C1900 1.463 . S
C1897 C1902 1.350 . S
C1897 N1905 1.427 . S
C1898 H1889 0.930 . S
C1898 C1896 1.378 . S
C1898 C1899 1.367 . S
C1899 C1898 1.367 . S
C1899 C1901 1.433 . S
C1900 C1896 1.350 . S
C1900 C1897 1.463 . S
C1900 N1904 1.427 . S
C1901 H1891 0.929 . S
C1901 C1899 1.433 . S
C1901 N1904 1.384 . S
C1902 H1893 0.929 . S
C1902 C1894 1.378 . S
C1902 C1897 1.350 . S
C1903 H1890 0.929 . S
C1903 C1895 1.433 . S
C1903 N1905 1.384 . S
N1904 C1900 1.427 . S
N1904 C1901 1.384 . S
N1905 C1897 1.427 . S
N1905 C1903 1.384 . S
H1906 C1912 0.935 1_455 S
H1907 C1916 0.930 . S
H1908 C1921 0.929 . S
H1909 C1919 0.929 . S
H1910 C1914 0.929 . S
H1911 C1920 0.929 . S
C1912 H1906 0.935 1_655 S
C1912 C1913 1.367 1_655 S
C1912 C1920 1.378 . S
C1913 C1912 1.367 1_455 S
C1913 C1921 1.433 . S
C1914 H1910 0.929 . S
C1914 C1916 1.378 . S
C1914 C1918 1.350 . S
C1915 C1918 1.463 . S
C1915 C1920 1.350 . S
C1915 N1923 1.427 . S
C1916 H1907 0.930 . S
C1916 C1914 1.378 . S
C1916 C1917 1.367 . S
C1917 C1916 1.367 . S
C1917 C1919 1.433 . S
C1918 C1914 1.350 . S
C1918 C1915 1.463 . S
C1918 N1922 1.427 . S
C1919 H1909 0.929 . S
C1919 C1917 1.433 . S
C1919 N1922 1.384 . S
C1920 H1911 0.929 . S
C1920 C1912 1.378 . S
C1920 C1915 1.350 . S
C1921 H1908 0.929 . S
C1921 C1913 1.433 . S
C1921 N1923 1.384 1_455 S
N1922 C1918 1.427 . S
N1922 C1919 1.384 . S
N1923 C1915 1.427 . S
N1923 C1921 1.384 1_655 S
H1924 C1930 0.930 . S
H1925 C1934 0.930 . S
H1926 C1939 0.929 . S
H1927 C1937 0.929 . S
H1928 C1932 0.929 . S
H1929 C1938 0.929 . S
C1930 H1924 0.930 . S
C1930 C1931 1.367 . S
C1930 C1938 1.378 . S
C1931 C1930 1.367 . S
C1931 C1939 1.433 . S
C1932 H1928 0.929 . S
C1932 C1934 1.378 . S
C1932 C1936 1.342 1_455 S
C1933 C1936 1.473 . S
C1933 C1938 1.350 . S
C1933 N1941 1.427 . S
C1934 H1925 0.930 . S
C1934 C1932 1.378 . S
C1934 C1935 1.367 . S
C1935 C1934 1.367 . S
C1935 C1937 1.433 . S
C1936 C1932 1.342 1_655 S
C1936 C1933 1.473 . S
C1936 N1940 1.426 . S
C1937 H1927 0.929 . S
C1937 C1935 1.433 . S
C1937 N1940 1.384 1_455 S
C1938 H1929 0.929 . S
C1938 C1930 1.378 . S
C1938 C1933 1.350 . S
C1939 H1926 0.929 . S
C1939 C1931 1.433 . S
C1939 N1941 1.384 . S
N1940 C1936 1.426 . S
N1940 C1937 1.384 1_655 S
N1941 C1933 1.427 . S
N1941 C1939 1.384 . S
H1942 C1948 0.930 . S
H1943 C1952 0.930 . S
H1944 C1957 0.929 . S
H1945 C1955 0.929 . S
H1946 C1950 0.929 . S
H1947 C1956 0.929 . S
C1948 H1942 0.930 . S
C1948 C1949 1.367 . S
C1948 C1956 1.378 . S
C1949 C1948 1.367 . S
C1949 C1957 1.433 . S
C1950 H1946 0.929 . S
C1950 C1952 1.378 . S
C1950 C1954 1.350 . S
C1951 C1954 1.463 . S
C1951 C1956 1.350 . S
C1951 N1959 1.427 . S
C1952 H1943 0.930 . S
C1952 C1950 1.378 . S
C1952 C1953 1.367 . S
C1953 C1952 1.367 . S
C1953 C1955 1.433 . S
C1954 C1950 1.350 . S
C1954 C1951 1.463 . S
C1954 N1958 1.427 . S
C1955 H1945 0.929 . S
C1955 C1953 1.433 . S
C1955 N1958 1.384 . S
C1956 H1947 0.929 . S
C1956 C1948 1.378 . S
C1956 C1951 1.350 . S
C1957 H1944 0.929 . S
C1957 C1949 1.433 . S
C1957 N1959 1.384 . S
N1958 C1954 1.427 . S
N1958 C1955 1.384 . S
N1959 C1951 1.427 . S
N1959 C1957 1.384 . S
H1960 C1966 0.930 . S
H1961 C1970 0.930 . S
H1962 C1975 0.929 . S
H1963 C1973 0.929 . S
H1964 C1968 0.929 . S
H1965 C1974 0.929 . S
C1966 H1960 0.930 . S
C1966 C1967 1.367 . S
C1966 C1974 1.378 . S
C1967 C1966 1.367 . S
C1967 C1975 1.433 . S
C1968 H1964 0.929 . S
C1968 C1970 1.378 . S
C1968 C1972 1.350 . S
C1969 C1972 1.463 . S
C1969 C1974 1.350 . S
C1969 N1977 1.427 . S
C1970 H1961 0.930 . S
C1970 C1968 1.378 . S
C1970 C1971 1.367 . S
C1971 C1970 1.367 . S
C1971 C1973 1.433 . S
C1972 C1968 1.350 . S
C1972 C1969 1.463 . S
C1972 N1976 1.427 . S
C1973 H1963 0.929 . S
C1973 C1971 1.433 . S
C1973 N1976 1.384 . S
C1974 H1965 0.929 . S
C1974 C1966 1.378 . S
C1974 C1969 1.350 . S
C1975 H1962 0.929 . S
C1975 C1967 1.433 . S
C1975 N1977 1.384 . S
N1976 C1972 1.427 . S
N1976 C1973 1.384 . S
N1977 C1969 1.427 . S
N1977 C1975 1.384 . S
H1978 C1984 0.930 . S
H1979 C1988 0.930 . S
H1980 C1993 0.929 . S
H1981 C1991 0.929 . S
H1982 C1986 0.929 . S
H1983 C1992 0.929 . S
C1984 H1978 0.930 . S
C1984 C1985 1.367 1_554 S
C1984 C1992 1.378 1_554 S
C1985 C1984 1.367 1_556 S
C1985 C1993 1.433 . S
C1986 H1982 0.929 . S
C1986 C1988 1.378 . S
C1986 C1990 1.350 . S
C1987 C1990 1.463 . S
C1987 C1992 1.350 . S
C1987 N1995 1.427 . S
C1988 H1979 0.930 . S
C1988 C1986 1.378 . S
C1988 C1989 1.367 . S
C1989 C1988 1.367 . S
C1989 C1991 1.433 . S
C1990 C1986 1.350 . S
C1990 C1987 1.463 . S
C1990 N1994 1.427 . S
C1991 H1981 0.929 . S
C1991 C1989 1.433 . S
C1991 N1994 1.384 . S
C1992 H1983 0.929 . S
C1992 C1984 1.378 1_556 S
C1992 C1987 1.350 . S
C1993 H1980 0.929 . S
C1993 C1985 1.433 . S
C1993 N1995 1.384 . S
N1994 C1990 1.427 . S
N1994 C1991 1.384 . S
N1995 C1987 1.427 . S
N1995 C1993 1.384 . S
H1996 C2002 0.930 . S
H1997 C2006 0.930 . S
H1998 C2011 0.929 . S
H1999 C2009 0.929 . S
H2000 C2004 0.929 . S
H2001 C2010 0.929 . S
C2002 H1996 0.930 . S
C2002 C2003 1.367 . S
C2002 C2010 1.378 . S
C2003 C2002 1.367 . S
C2003 C2011 1.433 . S
C2004 H2000 0.929 . S
C2004 C2006 1.378 . S
C2004 C2008 1.350 . S
C2005 C2008 1.463 . S
C2005 C2010 1.350 . S
C2005 N2013 1.427 . S
C2006 H1997 0.930 . S
C2006 C2004 1.378 . S
C2006 C2007 1.367 . S
C2007 C2006 1.367 . S
C2007 C2009 1.433 . S
C2008 C2004 1.350 . S
C2008 C2005 1.463 . S
C2008 N2012 1.427 . S
C2009 H1999 0.929 . S
C2009 C2007 1.433 . S
C2009 N2012 1.384 . S
C2010 H2001 0.929 . S
C2010 C2002 1.378 . S
C2010 C2005 1.350 . S
C2011 H1998 0.929 . S
C2011 C2003 1.433 . S
C2011 N2013 1.384 . S
N2012 C2008 1.427 . S
N2012 C2009 1.384 . S
N2013 C2005 1.427 . S
N2013 C2011 1.384 . S
H2014 C2020 0.930 . S
H2015 C2024 0.930 . S
H2016 C2029 0.929 . S
H2017 C2027 0.929 . S
H2018 C2022 0.929 . S
H2019 C2028 0.929 . S
C2020 H2014 0.930 . S
C2020 C2021 1.367 . S
C2020 C2028 1.378 . S
C2021 C2020 1.367 . S
C2021 C2029 1.433 . S
C2022 H2018 0.929 . S
C2022 C2024 1.378 . S
C2022 C2026 1.350 . S
C2023 C2026 1.463 . S
C2023 C2028 1.350 . S
C2023 N2031 1.427 . S
C2024 H2015 0.930 . S
C2024 C2022 1.378 . S
C2024 C2025 1.367 . S
C2025 C2024 1.367 . S
C2025 C2027 1.433 . S
C2026 C2022 1.350 . S
C2026 C2023 1.463 . S
C2026 N2030 1.427 . S
C2027 H2017 0.929 . S
C2027 C2025 1.433 . S
C2027 N2030 1.384 . S
C2028 H2019 0.929 . S
C2028 C2020 1.378 . S
C2028 C2023 1.350 . S
C2029 H2016 0.929 . S
C2029 C2021 1.433 . S
C2029 N2031 1.384 . S
N2030 C2026 1.427 . S
N2030 C2027 1.384 . S
N2031 C2023 1.427 . S
N2031 C2029 1.384 . S
H2032 C2038 0.930 . S
H2033 C2042 0.930 1_554 S
H2034 C2047 0.929 . S
H2035 C2045 0.929 . S
H2036 C2040 0.929 . S
H2037 C2046 0.929 . S
C2038 H2032 0.930 . S
C2038 C2039 1.367 . S
C2038 C2046 1.378 . S
C2039 C2038 1.367 . S
C2039 C2047 1.433 . S
C2040 H2036 0.929 . S
C2040 C2042 1.378 . S
C2040 C2044 1.350 . S
C2041 C2044 1.463 . S
C2041 C2046 1.350 . S
C2041 N2049 1.427 . S
C2042 H2033 0.930 1_556 S
C2042 C2040 1.378 . S
C2042 C2043 1.367 . S
C2043 C2042 1.367 . S
C2043 C2045 1.433 . S
C2044 C2040 1.350 . S
C2044 C2041 1.463 . S
C2044 N2048 1.427 . S
C2045 H2035 0.929 . S
C2045 C2043 1.433 . S
C2045 N2048 1.384 . S
C2046 H2037 0.929 . S
C2046 C2038 1.378 . S
C2046 C2041 1.350 . S
C2047 H2034 0.929 . S
C2047 C2039 1.433 . S
C2047 N2049 1.384 . S
N2048 C2044 1.427 . S
N2048 C2045 1.384 . S
N2049 C2041 1.427 . S
N2049 C2047 1.384 . S
H2050 C2056 0.930 . S
H2051 C2060 0.930 . S
H2052 C2065 0.929 . S
H2053 C2063 0.929 . S
H2054 C2058 0.929 . S
H2055 C2064 0.929 . S
C2056 H2050 0.930 . S
C2056 C2057 1.367 . S
C2056 C2064 1.378 . S
C2057 C2056 1.367 . S
C2057 C2065 1.433 . S
C2058 H2054 0.929 . S
C2058 C2060 1.378 . S
C2058 C2062 1.350 . S
C2059 C2062 1.463 . S
C2059 C2064 1.350 . S
C2059 N2067 1.427 . S
C2060 H2051 0.930 . S
C2060 C2058 1.378 . S
C2060 C2061 1.367 . S
C2061 C2060 1.367 . S
C2061 C2063 1.433 . S
C2062 C2058 1.350 . S
C2062 C2059 1.463 . S
C2062 N2066 1.427 . S
C2063 H2053 0.929 . S
C2063 C2061 1.433 . S
C2063 N2066 1.384 . S
C2064 H2055 0.929 . S
C2064 C2056 1.378 . S
C2064 C2059 1.350 . S
C2065 H2052 0.929 . S
C2065 C2057 1.433 . S
C2065 N2067 1.384 . S
N2066 C2062 1.427 . S
N2066 C2063 1.384 . S
N2067 C2059 1.427 . S
N2067 C2065 1.384 . S
H2068 C2074 0.930 . S
H2069 C2078 0.930 . S
H2070 C2083 0.929 . S
H2071 C2081 0.929 . S
H2072 C2076 0.929 . S
H2073 C2082 0.929 . S
C2074 H2068 0.930 . S
C2074 C2075 1.367 . S
C2074 C2082 1.378 . S
C2075 C2074 1.367 . S
C2075 C2083 1.433 . S
C2076 H2072 0.929 . S
C2076 C2078 1.378 . S
C2076 C2080 1.350 . S
C2077 C2080 1.463 . S
C2077 C2082 1.350 . S
C2077 N2085 1.427 . S
C2078 H2069 0.930 . S
C2078 C2076 1.378 . S
C2078 C2079 1.367 . S
C2079 C2078 1.367 . S
C2079 C2081 1.433 . S
C2080 C2076 1.350 . S
C2080 C2077 1.463 . S
C2080 N2084 1.427 . S
C2081 H2071 0.929 . S
C2081 C2079 1.433 . S
C2081 N2084 1.384 . S
C2082 H2073 0.929 . S
C2082 C2074 1.378 . S
C2082 C2077 1.350 . S
C2083 H2070 0.929 . S
C2083 C2075 1.433 . S
C2083 N2085 1.384 . S
N2084 C2080 1.427 . S
N2084 C2081 1.384 . S
N2085 C2077 1.427 . S
N2085 C2083 1.384 . S
H2086 C2092 0.930 . S
H2087 C2096 0.930 . S
H2088 C2101 0.929 . S
H2089 C2099 0.929 . S
H2090 C2094 0.929 . S
H2091 C2100 0.929 . S
C2092 H2086 0.930 . S
C2092 C2093 1.367 . S
C2092 C2100 1.378 . S
C2093 C2092 1.367 . S
C2093 C2101 1.433 . S
C2094 H2090 0.929 . S
C2094 C2096 1.378 . S
C2094 C2098 1.350 . S
C2095 C2098 1.463 . S
C2095 C2100 1.350 . S
C2095 N2103 1.427 . S
C2096 H2087 0.930 . S
C2096 C2094 1.378 . S
C2096 C2097 1.367 . S
C2097 C2096 1.367 . S
C2097 C2099 1.433 . S
C2098 C2094 1.350 . S
C2098 C2095 1.463 . S
C2098 N2102 1.427 . S
C2099 H2089 0.929 . S
C2099 C2097 1.433 . S
C2099 N2102 1.384 . S
C2100 H2091 0.929 . S
C2100 C2092 1.378 . S
C2100 C2095 1.350 . S
C2101 H2088 0.929 . S
C2101 C2093 1.433 . S
C2101 N2103 1.384 . S
N2102 C2098 1.427 . S
N2102 C2099 1.384 . S
N2103 C2095 1.427 . S
N2103 C2101 1.384 . S
H2104 C2110 0.930 . S
H2105 C2114 0.930 . S
H2106 C2119 0.929 . S
H2107 C2117 0.929 . S
H2108 C2112 0.929 . S
H2109 C2118 0.929 . S
C2110 H2104 0.930 . S
C2110 C2111 1.367 . S
C2110 C2118 1.378 . S
C2111 C2110 1.367 . S
C2111 C2119 1.433 . S
C2112 H2108 0.929 . S
C2112 C2114 1.378 . S
C2112 C2116 1.350 . S
C2113 C2116 1.463 . S
C2113 C2118 1.350 . S
C2113 N2121 1.427 . S
C2114 H2105 0.930 . S
C2114 C2112 1.378 . S
C2114 C2115 1.367 . S
C2115 C2114 1.367 . S
C2115 C2117 1.433 . S
C2116 C2112 1.350 . S
C2116 C2113 1.463 . S
C2116 N2120 1.427 . S
C2117 H2107 0.929 . S
C2117 C2115 1.433 . S
C2117 N2120 1.384 . S
C2118 H2109 0.929 . S
C2118 C2110 1.378 . S
C2118 C2113 1.350 . S
C2119 H2106 0.929 . S
C2119 C2111 1.433 . S
C2119 N2121 1.384 . S
N2120 C2116 1.427 . S
N2120 C2117 1.384 . S
N2121 C2113 1.427 . S
N2121 C2119 1.384 . S
H2122 C2128 0.930 . S
H2123 C2132 0.930 . S
H2124 C2137 0.929 . S
H2125 C2135 0.929 . S
H2126 C2130 0.929 . S
H2127 C2136 0.929 . S
C2128 H2122 0.930 . S
C2128 C2129 1.367 . S
C2128 C2136 1.378 . S
C2129 C2128 1.367 . S
C2129 C2137 1.433 . S
C2130 H2126 0.929 . S
C2130 C2132 1.378 . S
C2130 C2134 1.350 . S
C2131 C2134 1.463 . S
C2131 C2136 1.350 . S
C2131 N2139 1.427 . S
C2132 H2123 0.930 . S
C2132 C2130 1.378 . S
C2132 C2133 1.367 . S
C2133 C2132 1.367 . S
C2133 C2135 1.433 . S
C2134 C2130 1.350 . S
C2134 C2131 1.463 . S
C2134 N2138 1.427 . S
C2135 H2125 0.929 . S
C2135 C2133 1.433 . S
C2135 N2138 1.384 . S
C2136 H2127 0.929 . S
C2136 C2128 1.378 . S
C2136 C2131 1.350 . S
C2137 H2124 0.929 . S
C2137 C2129 1.433 . S
C2137 N2139 1.384 . S
N2138 C2134 1.427 . S
N2138 C2135 1.384 . S
N2139 C2131 1.427 . S
N2139 C2137 1.384 . S
H2140 C2146 0.930 . S
H2141 C2150 0.930 . S
H2142 C2155 0.929 . S
H2143 C2153 0.929 . S
H2144 C2148 0.929 . S
H2145 C2154 0.929 . S
C2146 H2140 0.930 . S
C2146 C2147 1.367 . S
C2146 C2154 1.378 . S
C2147 C2146 1.367 . S
C2147 C2155 1.433 . S
C2148 H2144 0.929 . S
C2148 C2150 1.378 . S
C2148 C2152 1.350 . S
C2149 C2152 1.463 . S
C2149 C2154 1.350 . S
C2149 N2157 1.427 . S
C2150 H2141 0.930 . S
C2150 C2148 1.378 . S
C2150 C2151 1.367 . S
C2151 C2150 1.367 . S
C2151 C2153 1.433 . S
C2152 C2148 1.350 . S
C2152 C2149 1.463 . S
C2152 N2156 1.427 . S
C2153 H2143 0.929 . S
C2153 C2151 1.433 . S
C2153 N2156 1.384 . S
C2154 H2145 0.929 . S
C2154 C2146 1.378 . S
C2154 C2149 1.350 . S
C2155 H2142 0.929 . S
C2155 C2147 1.433 . S
C2155 N2157 1.384 . S
N2156 C2152 1.427 . S
N2156 C2153 1.384 . S
N2157 C2149 1.427 . S
N2157 C2155 1.384 . S
H2158 C2164 0.930 . S
H2159 C2168 0.930 . S
H2160 C2173 0.929 . S
H2161 C2171 0.929 . S
H2162 C2166 0.929 . S
H2163 C2172 0.929 . S
C2164 H2158 0.930 . S
C2164 C2165 1.367 . S
C2164 C2172 1.378 . S
C2165 C2164 1.367 . S
C2165 C2173 1.433 . S
C2166 H2162 0.929 . S
C2166 C2168 1.378 . S
C2166 C2170 1.350 1_545 S
C2167 C2170 1.463 . S
C2167 C2172 1.350 . S
C2167 N2175 1.427 . S
C2168 H2159 0.930 . S
C2168 C2166 1.378 . S
C2168 C2169 1.367 . S
C2169 C2168 1.367 . S
C2169 C2171 1.433 1_545 S
C2170 C2166 1.350 1_565 S
C2170 C2167 1.463 . S
C2170 N2174 1.427 . S
C2171 H2161 0.929 . S
C2171 C2169 1.433 1_565 S
C2171 N2174 1.384 . S
C2172 H2163 0.929 . S
C2172 C2164 1.378 . S
C2172 C2167 1.350 . S
C2173 H2160 0.929 . S
C2173 C2165 1.433 . S
C2173 N2175 1.384 . S
N2174 C2170 1.427 . S
N2174 C2171 1.384 . S
N2175 C2167 1.427 . S
N2175 C2173 1.384 . S
H2176 C2182 0.930 . S
H2177 C2186 0.930 . S
H2178 C2191 0.929 . S
H2179 C2189 0.929 . S
H2180 C2184 0.929 . S
H2181 C2190 0.929 . S
C2182 H2176 0.930 . S
C2182 C2183 1.367 . S
C2182 C2190 1.378 . S
C2183 C2182 1.367 . S
C2183 C2191 1.433 . S
C2184 H2180 0.929 . S
C2184 C2186 1.378 . S
C2184 C2188 1.350 . S
C2185 C2188 1.463 . S
C2185 C2190 1.350 . S
C2185 N2193 1.427 . S
C2186 H2177 0.930 . S
C2186 C2184 1.378 . S
C2186 C2187 1.367 . S
C2187 C2186 1.367 . S
C2187 C2189 1.433 . S
C2188 C2184 1.350 . S
C2188 C2185 1.463 . S
C2188 N2192 1.427 . S
C2189 H2179 0.929 . S
C2189 C2187 1.433 . S
C2189 N2192 1.384 . S
C2190 H2181 0.929 . S
C2190 C2182 1.378 . S
C2190 C2185 1.350 . S
C2191 H2178 0.929 . S
C2191 C2183 1.433 . S
C2191 N2193 1.384 . S
N2192 C2188 1.427 . S
N2192 C2189 1.384 . S
N2193 C2185 1.427 . S
N2193 C2191 1.384 . S
H2194 C2200 0.930 . S
H2195 C2204 0.930 . S
H2196 C2209 0.929 1_556 S
H2197 C2207 0.929 . S
H2198 C2202 0.929 . S
H2199 C2208 0.929 . S
C2200 H2194 0.930 . S
C2200 C2201 1.367 . S
C2200 C2208 1.378 . S
C2201 C2200 1.367 . S
C2201 C2209 1.433 . S
C2202 H2198 0.929 . S
C2202 C2204 1.378 . S
C2202 C2206 1.350 . S
C2203 C2206 1.463 . S
C2203 C2208 1.350 . S
C2203 N2211 1.427 . S
C2204 H2195 0.930 . S
C2204 C2202 1.378 . S
C2204 C2205 1.367 . S
C2205 C2204 1.367 . S
C2205 C2207 1.433 . S
C2206 C2202 1.350 . S
C2206 C2203 1.463 . S
C2206 N2210 1.427 . S
C2207 H2197 0.929 . S
C2207 C2205 1.433 . S
C2207 N2210 1.384 . S
C2208 H2199 0.929 . S
C2208 C2200 1.378 . S
C2208 C2203 1.350 . S
C2209 H2196 0.929 1_554 S
C2209 C2201 1.433 . S
C2209 N2211 1.384 . S
N2210 C2206 1.427 . S
N2210 C2207 1.384 . S
N2211 C2203 1.427 . S
N2211 C2209 1.384 . S
H2212 C2218 0.930 . S
H2213 C2222 0.930 . S
H2214 C2227 0.929 . S
H2215 C2225 0.929 . S
H2216 C2220 0.929 . S
H2217 C2226 0.929 . S
C2218 H2212 0.930 . S
C2218 C2219 1.367 . S
C2218 C2226 1.378 . S
C2219 C2218 1.367 . S
C2219 C2227 1.433 . S
C2220 H2216 0.929 . S
C2220 C2222 1.378 . S
C2220 C2224 1.350 . S
C2221 C2224 1.463 . S
C2221 C2226 1.350 . S
C2221 N2229 1.427 . S
C2222 H2213 0.930 . S
C2222 C2220 1.378 . S
C2222 C2223 1.367 . S
C2223 C2222 1.367 . S
C2223 C2225 1.433 . S
C2224 C2220 1.350 . S
C2224 C2221 1.463 . S
C2224 N2228 1.427 . S
C2225 H2215 0.929 . S
C2225 C2223 1.433 . S
C2225 N2228 1.384 . S
C2226 H2217 0.929 . S
C2226 C2218 1.378 . S
C2226 C2221 1.350 . S
C2227 H2214 0.929 . S
C2227 C2219 1.433 . S
C2227 N2229 1.384 . S
N2228 C2224 1.427 . S
N2228 C2225 1.384 . S
N2229 C2221 1.427 . S
N2229 C2227 1.384 . S
H2230 C2236 0.930 . S
H2231 C2240 0.930 . S
H2232 C2245 0.929 . S
H2233 C2243 0.929 . S
H2234 C2238 0.929 . S
H2235 C2244 0.929 . S
C2236 H2230 0.930 . S
C2236 C2237 1.367 . S
C2236 C2244 1.378 . S
C2237 C2236 1.367 . S
C2237 C2245 1.433 . S
C2238 H2234 0.929 . S
C2238 C2240 1.378 1_545 S
C2238 C2242 1.350 . S
C2239 C2242 1.463 . S
C2239 C2244 1.350 . S
C2239 N2247 1.427 . S
C2240 H2231 0.930 . S
C2240 C2238 1.378 1_565 S
C2240 C2241 1.367 . S
C2241 C2240 1.367 . S
C2241 C2243 1.433 . S
C2242 C2238 1.350 . S
C2242 C2239 1.463 . S
C2242 N2246 1.427 1_545 S
C2243 H2233 0.929 . S
C2243 C2241 1.433 . S
C2243 N2246 1.384 . S
C2244 H2235 0.929 . S
C2244 C2236 1.378 . S
C2244 C2239 1.350 . S
C2245 H2232 0.929 . S
C2245 C2237 1.433 . S
C2245 N2247 1.384 . S
N2246 C2242 1.427 1_565 S
N2246 C2243 1.384 . S
N2247 C2239 1.427 . S
N2247 C2245 1.384 . S
H2248 C2254 0.930 . S
H2249 C2258 0.930 . S
H2250 C2263 0.929 . S
H2251 C2261 0.929 . S
H2252 C2256 0.929 . S
H2253 C2262 0.929 . S
C2254 H2248 0.930 . S
C2254 C2255 1.367 . S
C2254 C2262 1.378 . S
C2255 C2254 1.367 . S
C2255 C2263 1.433 . S
C2256 H2252 0.929 . S
C2256 C2258 1.378 . S
C2256 C2260 1.350 . S
C2257 C2260 1.463 . S
C2257 C2262 1.350 . S
C2257 N2265 1.427 . S
C2258 H2249 0.930 . S
C2258 C2256 1.378 . S
C2258 C2259 1.367 . S
C2259 C2258 1.367 . S
C2259 C2261 1.433 . S
C2260 C2256 1.350 . S
C2260 C2257 1.463 . S
C2260 N2264 1.427 . S
C2261 H2251 0.929 . S
C2261 C2259 1.433 . S
C2261 N2264 1.384 . S
C2262 H2253 0.929 . S
C2262 C2254 1.378 . S
C2262 C2257 1.350 . S
C2263 H2250 0.929 . S
C2263 C2255 1.433 . S
C2263 N2265 1.384 . S
N2264 C2260 1.427 . S
N2264 C2261 1.384 . S
N2265 C2257 1.427 . S
N2265 C2263 1.384 . S
H2266 C2272 0.930 . S
H2267 C2276 0.930 . S
H2268 C2281 0.929 . S
H2269 C2279 0.929 . S
H2270 C2274 0.929 . S
H2271 C2280 0.929 . S
C2272 H2266 0.930 . S
C2272 C2273 1.367 . S
C2272 C2280 1.378 . S
C2273 C2272 1.367 . S
C2273 C2281 1.433 . S
C2274 H2270 0.929 . S
C2274 C2276 1.378 . S
C2274 C2278 1.350 . S
C2275 C2278 1.463 . S
C2275 C2280 1.350 . S
C2275 N2283 1.427 . S
C2276 H2267 0.930 . S
C2276 C2274 1.378 . S
C2276 C2277 1.367 . S
C2277 C2276 1.367 . S
C2277 C2279 1.433 . S
C2278 C2274 1.350 . S
C2278 C2275 1.463 . S
C2278 N2282 1.427 . S
C2279 H2269 0.929 . S
C2279 C2277 1.433 . S
C2279 N2282 1.384 . S
C2280 H2271 0.929 . S
C2280 C2272 1.378 . S
C2280 C2275 1.350 . S
C2281 H2268 0.929 . S
C2281 C2273 1.433 . S
C2281 N2283 1.384 . S
N2282 C2278 1.427 . S
N2282 C2279 1.384 . S
N2283 C2275 1.427 . S
N2283 C2281 1.384 . S
H2284 C2290 0.930 . S
H2285 C2294 0.930 . S
H2286 C2299 0.929 . S
H2287 C2297 0.935 . S
H2288 C2292 0.929 . S
H2289 C2298 0.946 . S
C2290 H2284 0.930 . S
C2290 C2291 1.367 1_655 S
C2290 C2298 1.392 . S
C2291 C2290 1.367 1_455 S
C2291 C2299 1.433 . S
C2292 H2288 0.929 . S
C2292 C2294 1.378 . S
C2292 C2296 1.350 . S
C2293 C2296 1.463 . S
C2293 C2298 1.322 1_455 S
C2293 N2301 1.427 . S
C2294 H2285 0.930 . S
C2294 C2292 1.378 . S
C2294 C2295 1.367 . S
C2295 C2294 1.367 . S
C2295 C2297 1.422 1_455 S
C2296 C2292 1.350 . S
C2296 C2293 1.463 . S
C2296 N2300 1.420 1_455 S
C2297 H2287 0.935 . S
C2297 C2295 1.422 1_655 S
C2297 N2300 1.383 . S
C2298 H2289 0.946 . S
C2298 C2290 1.392 . S
C2298 C2293 1.322 1_655 S
C2299 H2286 0.929 . S
C2299 C2291 1.433 . S
C2299 N2301 1.384 . S
N2300 C2296 1.420 1_655 S
N2300 C2297 1.383 . S
N2301 C2293 1.427 . S
N2301 C2299 1.384 . S
H2302 C2308 0.930 . S
H2303 C2312 0.930 . S
H2304 C2317 0.929 . S
H2305 C2315 0.929 . S
H2306 C2310 0.929 . S
H2307 C2316 0.929 . S
C2308 H2302 0.930 . S
C2308 C2309 1.367 . S
C2308 C2316 1.378 . S
C2309 C2308 1.367 . S
C2309 C2317 1.433 . S
C2310 H2306 0.929 . S
C2310 C2312 1.378 . S
C2310 C2314 1.350 . S
C2311 C2314 1.463 . S
C2311 C2316 1.350 . S
C2311 N2319 1.427 . S
C2312 H2303 0.930 . S
C2312 C2310 1.378 . S
C2312 C2313 1.367 . S
C2313 C2312 1.367 . S
C2313 C2315 1.433 . S
C2314 C2310 1.350 . S
C2314 C2311 1.463 . S
C2314 N2318 1.427 . S
C2315 H2305 0.929 . S
C2315 C2313 1.433 . S
C2315 N2318 1.384 . S
C2316 H2307 0.929 . S
C2316 C2308 1.378 . S
C2316 C2311 1.350 . S
C2317 H2304 0.929 . S
C2317 C2309 1.433 . S
C2317 N2319 1.384 . S
N2318 C2314 1.427 . S
N2318 C2315 1.384 . S
N2319 C2311 1.427 . S
N2319 C2317 1.384 . S
H2320 C2326 0.930 . S
H2321 C2330 0.930 . S
H2322 C2335 0.929 . S
H2323 C2333 0.929 . S
H2324 C2328 0.929 . S
H2325 C2334 0.929 . S
C2326 H2320 0.930 . S
C2326 C2327 1.367 . S
C2326 C2334 1.378 . S
C2327 C2326 1.367 . S
C2327 C2335 1.433 . S
C2328 H2324 0.929 . S
C2328 C2330 1.378 . S
C2328 C2332 1.350 . S
C2329 C2332 1.463 . S
C2329 C2334 1.350 . S
C2329 N2337 1.427 . S
C2330 H2321 0.930 . S
C2330 C2328 1.378 . S
C2330 C2331 1.367 . S
C2331 C2330 1.367 . S
C2331 C2333 1.433 . S
C2332 C2328 1.350 . S
C2332 C2329 1.463 . S
C2332 N2336 1.427 . S
C2333 H2323 0.929 . S
C2333 C2331 1.433 . S
C2333 N2336 1.384 . S
C2334 H2325 0.929 . S
C2334 C2326 1.378 . S
C2334 C2329 1.350 . S
C2335 H2322 0.929 . S
C2335 C2327 1.433 . S
C2335 N2337 1.384 . S
N2336 C2332 1.427 . S
N2336 C2333 1.384 . S
N2337 C2329 1.427 . S
N2337 C2335 1.384 . S
H2338 C2344 0.930 . S
H2339 C2348 0.930 . S
H2340 C2353 0.929 . S
H2341 C2351 0.929 . S
H2342 C2346 0.929 . S
H2343 C2352 0.929 . S
C2344 H2338 0.930 . S
C2344 C2345 1.367 . S
C2344 C2352 1.378 . S
C2345 C2344 1.367 . S
C2345 C2353 1.433 . S
C2346 H2342 0.929 . S
C2346 C2348 1.378 . S
C2346 C2350 1.350 . S
C2347 C2350 1.463 . S
C2347 C2352 1.350 . S
C2347 N2355 1.427 . S
C2348 H2339 0.930 . S
C2348 C2346 1.378 . S
C2348 C2349 1.367 . S
C2349 C2348 1.367 . S
C2349 C2351 1.433 . S
C2350 C2346 1.350 . S
C2350 C2347 1.463 . S
C2350 N2354 1.427 . S
C2351 H2341 0.929 . S
C2351 C2349 1.433 . S
C2351 N2354 1.384 . S
C2352 H2343 0.929 . S
C2352 C2344 1.378 . S
C2352 C2347 1.350 . S
C2353 H2340 0.929 . S
C2353 C2345 1.433 . S
C2353 N2355 1.384 . S
N2354 C2350 1.427 . S
N2354 C2351 1.384 . S
N2355 C2347 1.427 . S
N2355 C2353 1.384 . S
H2356 C2362 0.930 . S
H2357 C2366 0.930 . S
H2358 C2371 0.929 . S
H2359 C2369 0.929 . S
H2360 C2364 0.929 . S
H2361 C2370 0.929 . S
C2362 H2356 0.930 . S
C2362 C2363 1.367 . S
C2362 C2370 1.378 . S
C2363 C2362 1.367 . S
C2363 C2371 1.433 . S
C2364 H2360 0.929 . S
C2364 C2366 1.378 . S
C2364 C2368 1.350 . S
C2365 C2368 1.463 . S
C2365 C2370 1.350 . S
C2365 N2373 1.427 . S
C2366 H2357 0.930 . S
C2366 C2364 1.378 . S
C2366 C2367 1.367 . S
C2367 C2366 1.367 . S
C2367 C2369 1.433 . S
C2368 C2364 1.350 . S
C2368 C2365 1.463 . S
C2368 N2372 1.427 . S
C2369 H2359 0.929 . S
C2369 C2367 1.433 . S
C2369 N2372 1.384 . S
C2370 H2361 0.929 . S
C2370 C2362 1.378 . S
C2370 C2365 1.350 . S
C2371 H2358 0.929 . S
C2371 C2363 1.433 . S
C2371 N2373 1.384 . S
N2372 C2368 1.427 . S
N2372 C2369 1.384 . S
N2373 C2365 1.427 . S
N2373 C2371 1.384 . S
H2374 C2380 0.930 . S
H2375 C2384 0.930 . S
H2376 C2389 0.929 . S
H2377 C2387 0.929 . S
H2378 C2382 0.929 . S
H2379 C2388 0.929 . S
C2380 H2374 0.930 . S
C2380 C2381 1.367 . S
C2380 C2388 1.378 . S
C2381 C2380 1.367 . S
C2381 C2389 1.433 . S
C2382 H2378 0.929 . S
C2382 C2384 1.378 . S
C2382 C2386 1.350 . S
C2383 C2386 1.463 . S
C2383 C2388 1.350 . S
C2383 N2391 1.427 . S
C2384 H2375 0.930 . S
C2384 C2382 1.378 . S
C2384 C2385 1.367 . S
C2385 C2384 1.367 . S
C2385 C2387 1.433 . S
C2386 C2382 1.350 . S
C2386 C2383 1.463 . S
C2386 N2390 1.427 . S
C2387 H2377 0.929 . S
C2387 C2385 1.433 . S
C2387 N2390 1.384 . S
C2388 H2379 0.929 . S
C2388 C2380 1.378 . S
C2388 C2383 1.350 . S
C2389 H2376 0.929 . S
C2389 C2381 1.433 . S
C2389 N2391 1.384 . S
N2390 C2386 1.427 . S
N2390 C2387 1.384 . S
N2391 C2383 1.427 . S
N2391 C2389 1.384 . S
H2392 C2398 0.930 . S
H2393 C2402 0.930 . S
H2394 C2407 0.929 . S
H2395 C2405 0.929 . S
H2396 C2400 0.929 . S
H2397 C2406 0.929 . S
C2398 H2392 0.930 . S
C2398 C2399 1.367 . S
C2398 C2406 1.378 . S
C2399 C2398 1.367 . S
C2399 C2407 1.433 . S
C2400 H2396 0.929 . S
C2400 C2402 1.378 . S
C2400 C2404 1.350 . S
C2401 C2404 1.463 . S
C2401 C2406 1.350 . S
C2401 N2409 1.427 . S
C2402 H2393 0.930 . S
C2402 C2400 1.378 . S
C2402 C2403 1.367 . S
C2403 C2402 1.367 . S
C2403 C2405 1.433 . S
C2404 C2400 1.350 . S
C2404 C2401 1.463 . S
C2404 N2408 1.427 . S
C2405 H2395 0.929 . S
C2405 C2403 1.433 . S
C2405 N2408 1.384 . S
C2406 H2397 0.929 . S
C2406 C2398 1.378 . S
C2406 C2401 1.350 . S
C2407 H2394 0.929 . S
C2407 C2399 1.433 . S
C2407 N2409 1.384 . S
N2408 C2404 1.427 . S
N2408 C2405 1.384 . S
N2409 C2401 1.427 . S
N2409 C2407 1.384 . S
H2410 C2416 0.930 . S
H2411 C2420 0.930 . S
H2412 C2425 0.929 . S
H2413 C2423 0.929 . S
H2414 C2418 0.929 . S
H2415 C2424 0.929 . S
C2416 H2410 0.930 . S
C2416 C2417 1.367 . S
C2416 C2424 1.378 . S
C2417 C2416 1.367 . S
C2417 C2425 1.433 . S
C2418 H2414 0.929 . S
C2418 C2420 1.378 . S
C2418 C2422 1.350 . S
C2419 C2422 1.463 . S
C2419 C2424 1.350 . S
C2419 N2427 1.427 . S
C2420 H2411 0.930 . S
C2420 C2418 1.378 . S
C2420 C2421 1.367 . S
C2421 C2420 1.367 . S
C2421 C2423 1.433 . S
C2422 C2418 1.350 . S
C2422 C2419 1.463 . S
C2422 N2426 1.427 . S
C2423 H2413 0.929 . S
C2423 C2421 1.433 . S
C2423 N2426 1.384 . S
C2424 H2415 0.929 . S
C2424 C2416 1.378 . S
C2424 C2419 1.350 . S
C2425 H2412 0.929 . S
C2425 C2417 1.433 . S
C2425 N2427 1.384 . S
N2426 C2422 1.427 . S
N2426 C2423 1.384 . S
N2427 C2419 1.427 . S
N2427 C2425 1.384 . S
H2428 C2434 0.930 . S
H2429 C2438 0.930 . S
H2430 C2443 0.929 . S
H2431 C2441 0.929 1_554 S
H2432 C2436 0.935 . S
H2433 C2442 0.929 . S
C2434 H2428 0.930 . S
C2434 C2435 1.367 . S
C2434 C2442 1.378 . S
C2435 C2434 1.367 . S
C2435 C2443 1.433 . S
C2436 H2432 0.935 . S
C2436 C2438 1.378 1_655 S
C2436 C2440 1.350 . S
C2437 C2440 1.463 . S
C2437 C2442 1.350 . S
C2437 N2445 1.427 . S
C2438 H2429 0.930 . S
C2438 C2436 1.378 1_455 S
C2438 C2439 1.367 . S
C2439 C2438 1.367 . S
C2439 C2441 1.433 1_455 S
C2440 C2436 1.350 . S
C2440 C2437 1.463 . S
C2440 N2444 1.427 . S
C2441 H2431 0.929 1_556 S
C2441 C2439 1.433 1_655 S
C2441 N2444 1.384 . S
C2442 H2433 0.929 . S
C2442 C2434 1.378 . S
C2442 C2437 1.350 . S
C2443 H2430 0.929 . S
C2443 C2435 1.433 . S
C2443 N2445 1.384 . S
N2444 C2440 1.427 . S
N2444 C2441 1.384 . S
N2445 C2437 1.427 . S
N2445 C2443 1.384 . S
H2446 C2452 0.930 . S
H2447 C2456 0.930 . S
H2448 C2461 0.929 . S
H2449 C2459 0.929 . S
H2450 C2454 0.929 . S
H2451 C2460 0.929 . S
C2452 H2446 0.930 . S
C2452 C2453 1.367 . S
C2452 C2460 1.378 . S
C2453 C2452 1.367 . S
C2453 C2461 1.433 . S
C2454 H2450 0.929 . S
C2454 C2456 1.378 . S
C2454 C2458 1.350 . S
C2455 C2458 1.463 . S
C2455 C2460 1.350 . S
C2455 N2463 1.427 . S
C2456 H2447 0.930 . S
C2456 C2454 1.378 . S
C2456 C2457 1.367 . S
C2457 C2456 1.367 . S
C2457 C2459 1.433 . S
C2458 C2454 1.350 . S
C2458 C2455 1.463 . S
C2458 N2462 1.427 . S
C2459 H2449 0.929 . S
C2459 C2457 1.433 . S
C2459 N2462 1.384 . S
C2460 H2451 0.929 . S
C2460 C2452 1.378 . S
C2460 C2455 1.350 . S
C2461 H2448 0.929 . S
C2461 C2453 1.433 . S
C2461 N2463 1.384 . S
N2462 C2458 1.427 . S
N2462 C2459 1.384 . S
N2463 C2455 1.427 . S
N2463 C2461 1.384 . S
H2464 C2470 0.930 . S
H2465 C2474 0.930 . S
H2466 C2479 0.929 . S
H2467 C2477 0.929 . S
H2468 C2472 0.929 . S
H2469 C2478 0.929 . S
C2470 H2464 0.930 . S
C2470 C2471 1.367 . S
C2470 C2478 1.378 . S
C2471 C2470 1.367 . S
C2471 C2479 1.433 . S
C2472 H2468 0.929 . S
C2472 C2474 1.378 . S
C2472 C2476 1.350 . S
C2473 C2476 1.463 . S
C2473 C2478 1.350 . S
C2473 N2481 1.427 . S
C2474 H2465 0.930 . S
C2474 C2472 1.378 . S
C2474 C2475 1.367 . S
C2475 C2474 1.367 . S
C2475 C2477 1.433 . S
C2476 C2472 1.350 . S
C2476 C2473 1.463 . S
C2476 N2480 1.427 . S
C2477 H2467 0.929 . S
C2477 C2475 1.433 . S
C2477 N2480 1.384 . S
C2478 H2469 0.929 . S
C2478 C2470 1.378 . S
C2478 C2473 1.350 . S
C2479 H2466 0.929 . S
C2479 C2471 1.433 . S
C2479 N2481 1.384 . S
N2480 C2476 1.427 . S
N2480 C2477 1.384 . S
N2481 C2473 1.427 . S
N2481 C2479 1.384 . S
H2482 C2488 0.930 1_554 S
H2483 C2492 0.930 . S
H2484 C2497 0.929 . S
H2485 C2495 0.929 . S
H2486 C2490 0.929 . S
H2487 C2496 0.929 . S
C2488 H2482 0.930 1_556 S
C2488 C2489 1.367 1_556 S
C2488 C2496 1.378 . S
C2489 C2488 1.367 1_554 S
C2489 C2497 1.433 1_554 S
C2490 H2486 0.929 . S
C2490 C2492 1.378 . S
C2490 C2494 1.350 . S
C2491 C2494 1.463 . S
C2491 C2496 1.350 . S
C2491 N2499 1.427 . S
C2492 H2483 0.930 . S
C2492 C2490 1.378 . S
C2492 C2493 1.367 . S
C2493 C2492 1.367 . S
C2493 C2495 1.433 . S
C2494 C2490 1.350 . S
C2494 C2491 1.463 . S
C2494 N2498 1.427 . S
C2495 H2485 0.929 . S
C2495 C2493 1.433 . S
C2495 N2498 1.384 . S
C2496 H2487 0.929 . S
C2496 C2488 1.378 . S
C2496 C2491 1.350 . S
C2497 H2484 0.929 . S
C2497 C2489 1.433 1_556 S
C2497 N2499 1.384 . S
N2498 C2494 1.427 . S
N2498 C2495 1.384 . S
N2499 C2491 1.427 . S
N2499 C2497 1.384 . S
H2500 C2506 0.930 . S
H2501 C2510 0.930 . S
H2502 C2515 0.929 . S
H2503 C2513 0.929 . S
H2504 C2508 0.929 . S
H2505 C2514 0.929 . S
C2506 H2500 0.930 . S
C2506 C2507 1.367 . S
C2506 C2514 1.378 . S
C2507 C2506 1.367 . S
C2507 C2515 1.433 . S
C2508 H2504 0.929 . S
C2508 C2510 1.378 . S
C2508 C2512 1.350 . S
C2509 C2512 1.463 . S
C2509 C2514 1.350 . S
C2509 N2517 1.427 . S
C2510 H2501 0.930 . S
C2510 C2508 1.378 . S
C2510 C2511 1.367 . S
C2511 C2510 1.367 . S
C2511 C2513 1.433 1_655 S
C2512 C2508 1.350 . S
C2512 C2509 1.463 . S
C2512 N2516 1.427 . S
C2513 H2503 0.929 . S
C2513 C2511 1.433 1_455 S
C2513 N2516 1.384 1_455 S
C2514 H2505 0.929 . S
C2514 C2506 1.378 . S
C2514 C2509 1.350 . S
C2515 H2502 0.929 . S
C2515 C2507 1.433 . S
C2515 N2517 1.384 . S
N2516 C2512 1.427 . S
N2516 C2513 1.384 1_655 S
N2517 C2509 1.427 . S
N2517 C2515 1.384 . S
H2518 C2524 0.930 . S
H2519 C2528 0.930 . S
H2520 C2533 0.929 . S
H2521 C2531 0.929 . S
H2522 C2526 0.929 . S
H2523 C2532 0.929 . S
C2524 H2518 0.930 . S
C2524 C2525 1.367 . S
C2524 C2532 1.378 . S
C2525 C2524 1.367 . S
C2525 C2533 1.433 . S
C2526 H2522 0.929 . S
C2526 C2528 1.378 . S
C2526 C2530 1.350 . S
C2527 C2530 1.463 . S
C2527 C2532 1.350 . S
C2527 N2535 1.427 . S
C2528 H2519 0.930 . S
C2528 C2526 1.378 . S
C2528 C2529 1.367 . S
C2529 C2528 1.367 . S
C2529 C2531 1.433 . S
C2530 C2526 1.350 . S
C2530 C2527 1.463 . S
C2530 N2534 1.427 . S
C2531 H2521 0.929 . S
C2531 C2529 1.433 . S
C2531 N2534 1.384 . S
C2532 H2523 0.929 . S
C2532 C2524 1.378 . S
C2532 C2527 1.350 . S
C2533 H2520 0.929 . S
C2533 C2525 1.433 . S
C2533 N2535 1.384 . S
N2534 C2530 1.427 . S
N2534 C2531 1.384 . S
N2535 C2527 1.427 . S
N2535 C2533 1.384 . S
H2536 C2542 0.930 . S
H2537 C2546 0.930 . S
H2538 C2551 0.929 . S
H2539 C2549 0.929 . S
H2540 C2544 0.929 . S
H2541 C2550 0.929 . S
C2542 H2536 0.930 . S
C2542 C2543 1.367 . S
C2542 C2550 1.378 . S
C2543 C2542 1.367 . S
C2543 C2551 1.433 . S
C2544 H2540 0.929 . S
C2544 C2546 1.378 . S
C2544 C2548 1.350 . S
C2545 C2548 1.463 . S
C2545 C2550 1.350 . S
C2545 N2553 1.427 . S
C2546 H2537 0.930 . S
C2546 C2544 1.378 . S
C2546 C2547 1.367 . S
C2547 C2546 1.367 . S
C2547 C2549 1.433 . S
C2548 C2544 1.350 . S
C2548 C2545 1.463 . S
C2548 N2552 1.427 . S
C2549 H2539 0.929 . S
C2549 C2547 1.433 . S
C2549 N2552 1.384 . S
C2550 H2541 0.929 . S
C2550 C2542 1.378 . S
C2550 C2545 1.350 . S
C2551 H2538 0.929 . S
C2551 C2543 1.433 . S
C2551 N2553 1.384 . S
N2552 C2548 1.427 . S
N2552 C2549 1.384 . S
N2553 C2545 1.427 . S
N2553 C2551 1.384 . S
H2554 C2560 0.930 1_565 S
H2555 C2564 0.930 . S
H2556 C2569 0.929 . S
H2557 C2567 0.929 . S
H2558 C2562 0.929 . S
H2559 C2568 0.929 . S
C2560 H2554 0.930 1_545 S
C2560 C2561 1.367 . S
C2560 C2568 1.378 . S
C2561 C2560 1.367 . S
C2561 C2569 1.433 . S
C2562 H2558 0.929 . S
C2562 C2564 1.378 . S
C2562 C2566 1.350 . S
C2563 C2566 1.463 . S
C2563 C2568 1.350 . S
C2563 N2571 1.427 . S
C2564 H2555 0.930 . S
C2564 C2562 1.378 . S
C2564 C2565 1.367 . S
C2565 C2564 1.367 . S
C2565 C2567 1.433 . S
C2566 C2562 1.350 . S
C2566 C2563 1.463 . S
C2566 N2570 1.427 . S
C2567 H2557 0.929 . S
C2567 C2565 1.433 . S
C2567 N2570 1.384 . S
C2568 H2559 0.929 . S
C2568 C2560 1.378 . S
C2568 C2563 1.350 . S
C2569 H2556 0.929 . S
C2569 C2561 1.433 . S
C2569 N2571 1.384 . S
N2570 C2566 1.427 . S
N2570 C2567 1.384 . S
N2571 C2563 1.427 . S
N2571 C2569 1.384 . S
H2572 C2578 0.930 . S
H2573 C2582 0.930 . S
H2574 C2587 0.929 . S
H2575 C2585 0.929 . S
H2576 C2580 0.929 . S
H2577 C2586 0.929 . S
C2578 H2572 0.930 . S
C2578 C2579 1.367 . S
C2578 C2586 1.378 . S
C2579 C2578 1.367 . S
C2579 C2587 1.433 . S
C2580 H2576 0.929 . S
C2580 C2582 1.378 . S
C2580 C2584 1.350 . S
C2581 C2584 1.463 . S
C2581 C2586 1.350 . S
C2581 N2589 1.427 . S
C2582 H2573 0.930 . S
C2582 C2580 1.378 . S
C2582 C2583 1.367 . S
C2583 C2582 1.367 . S
C2583 C2585 1.433 . S
C2584 C2580 1.350 . S
C2584 C2581 1.463 . S
C2584 N2588 1.427 . S
C2585 H2575 0.929 . S
C2585 C2583 1.433 . S
C2585 N2588 1.384 . S
C2586 H2577 0.929 . S
C2586 C2578 1.378 . S
C2586 C2581 1.350 . S
C2587 H2574 0.929 . S
C2587 C2579 1.433 . S
C2587 N2589 1.384 . S
N2588 C2584 1.427 . S
N2588 C2585 1.384 . S
N2589 C2581 1.427 . S
N2589 C2587 1.384 . S
H2590 C2596 0.930 . S
H2591 C2600 0.930 . S
H2592 C2605 0.929 . S
H2593 C2603 0.929 . S
H2594 C2598 0.929 . S
H2595 C2604 0.929 . S
C2596 H2590 0.930 . S
C2596 C2597 1.367 . S
C2596 C2604 1.378 . S
C2597 C2596 1.367 . S
C2597 C2605 1.433 . S
C2598 H2594 0.929 . S
C2598 C2600 1.378 . S
C2598 C2602 1.350 . S
C2599 C2602 1.463 . S
C2599 C2604 1.350 . S
C2599 N2607 1.427 . S
C2600 H2591 0.930 . S
C2600 C2598 1.378 . S
C2600 C2601 1.367 . S
C2601 C2600 1.367 . S
C2601 C2603 1.433 . S
C2602 C2598 1.350 . S
C2602 C2599 1.463 . S
C2602 N2606 1.427 . S
C2603 H2593 0.929 . S
C2603 C2601 1.433 . S
C2603 N2606 1.384 . S
C2604 H2595 0.929 . S
C2604 C2596 1.378 . S
C2604 C2599 1.350 . S
C2605 H2592 0.929 . S
C2605 C2597 1.433 . S
C2605 N2607 1.384 . S
N2606 C2602 1.427 . S
N2606 C2603 1.384 . S
N2607 C2599 1.427 . S
N2607 C2605 1.384 . S
H2608 C2614 0.930 . S
H2609 C2618 0.930 . S
H2610 C2623 0.929 . S
H2611 C2621 0.929 . S
H2612 C2616 0.929 . S
H2613 C2622 0.929 . S
C2614 H2608 0.930 . S
C2614 C2615 1.367 . S
C2614 C2622 1.378 . S
C2615 C2614 1.367 . S
C2615 C2623 1.433 . S
C2616 H2612 0.929 . S
C2616 C2618 1.378 . S
C2616 C2620 1.350 . S
C2617 C2620 1.463 . S
C2617 C2622 1.350 . S
C2617 N2625 1.427 . S
C2618 H2609 0.930 . S
C2618 C2616 1.378 . S
C2618 C2619 1.367 . S
C2619 C2618 1.367 . S
C2619 C2621 1.433 . S
C2620 C2616 1.350 . S
C2620 C2617 1.463 . S
C2620 N2624 1.427 . S
C2621 H2611 0.929 . S
C2621 C2619 1.433 . S
C2621 N2624 1.384 . S
C2622 H2613 0.929 . S
C2622 C2614 1.378 . S
C2622 C2617 1.350 . S
C2623 H2610 0.929 . S
C2623 C2615 1.433 . S
C2623 N2625 1.384 . S
N2624 C2620 1.427 . S
N2624 C2621 1.384 . S
N2625 C2617 1.427 . S
N2625 C2623 1.384 . S
H2626 C2632 0.930 . S
H2627 C2636 0.930 . S
H2628 C2641 0.929 . S
H2629 C2639 0.929 . S
H2630 C2634 0.929 . S
H2631 C2640 0.929 . S
C2632 H2626 0.930 . S
C2632 C2633 1.367 . S
C2632 C2640 1.378 . S
C2633 C2632 1.367 . S
C2633 C2641 1.433 . S
C2634 H2630 0.929 . S
C2634 C2636 1.378 . S
C2634 C2638 1.350 . S
C2635 C2638 1.463 . S
C2635 C2640 1.350 . S
C2635 N2643 1.427 . S
C2636 H2627 0.930 . S
C2636 C2634 1.378 . S
C2636 C2637 1.367 . S
C2637 C2636 1.367 . S
C2637 C2639 1.433 . S
C2638 C2634 1.350 . S
C2638 C2635 1.463 . S
C2638 N2642 1.427 . S
C2639 H2629 0.929 . S
C2639 C2637 1.433 . S
C2639 N2642 1.384 . S
C2640 H2631 0.929 . S
C2640 C2632 1.378 . S
C2640 C2635 1.350 . S
C2641 H2628 0.929 . S
C2641 C2633 1.433 . S
C2641 N2643 1.384 . S
N2642 C2638 1.427 . S
N2642 C2639 1.384 . S
N2643 C2635 1.427 . S
N2643 C2641 1.384 . S
H2644 C2650 0.930 . S
H2645 C2654 0.930 . S
H2646 C2659 0.929 1_545 S
H2647 C2657 0.929 . S
H2648 C2652 0.929 . S
H2649 C2658 0.929 . S
C2650 H2644 0.930 . S
C2650 C2651 1.367 1_565 S
C2650 C2658 1.378 . S
C2651 C2650 1.367 1_545 S
C2651 C2659 1.433 1_545 S
C2652 H2648 0.929 . S
C2652 C2654 1.378 . S
C2652 C2656 1.350 . S
C2653 C2656 1.463 . S
C2653 C2658 1.350 . S
C2653 N2661 1.427 . S
C2654 H2645 0.930 . S
C2654 C2652 1.378 . S
C2654 C2655 1.367 . S
C2655 C2654 1.367 . S
C2655 C2657 1.433 . S
C2656 C2652 1.350 . S
C2656 C2653 1.463 . S
C2656 N2660 1.427 . S
C2657 H2647 0.929 . S
C2657 C2655 1.433 . S
C2657 N2660 1.384 . S
C2658 H2649 0.929 . S
C2658 C2650 1.378 . S
C2658 C2653 1.350 . S
C2659 H2646 0.929 1_565 S
C2659 C2651 1.433 1_565 S
C2659 N2661 1.384 . S
N2660 C2656 1.427 . S
N2660 C2657 1.384 . S
N2661 C2653 1.427 . S
N2661 C2659 1.384 . S
H2662 C2668 0.930 . S
H2663 C2672 0.930 . S
H2664 C2677 0.929 . S
H2665 C2675 0.929 . S
H2666 C2670 0.929 . S
H2667 C2676 0.929 . S
C2668 H2662 0.930 . S
C2668 C2669 1.367 . S
C2668 C2676 1.378 . S
C2669 C2668 1.367 . S
C2669 C2677 1.433 . S
C2670 H2666 0.929 . S
C2670 C2672 1.378 . S
C2670 C2674 1.350 . S
C2671 C2674 1.463 . S
C2671 C2676 1.350 . S
C2671 N2679 1.427 . S
C2672 H2663 0.930 . S
C2672 C2670 1.378 . S
C2672 C2673 1.367 . S
C2673 C2672 1.367 . S
C2673 C2675 1.433 . S
C2674 C2670 1.350 . S
C2674 C2671 1.463 . S
C2674 N2678 1.427 . S
C2675 H2665 0.929 . S
C2675 C2673 1.433 . S
C2675 N2678 1.384 . S
C2676 H2667 0.929 . S
C2676 C2668 1.378 . S
C2676 C2671 1.350 . S
C2677 H2664 0.929 . S
C2677 C2669 1.433 . S
C2677 N2679 1.384 . S
N2678 C2674 1.427 . S
N2678 C2675 1.384 . S
N2679 C2671 1.427 . S
N2679 C2677 1.384 . S
C959 C101 1.502 . S
C963 C318 1.425 . S
C977 C57 2.023 . S
C981 C370 1.849 . S
C995 C70 1.240 . S
C999 C402 1.254 1_565 S
C1017 C451 2.398 . S
C1013 C82 2.396 . S
C1031 C23 0.980 . S
C1035 C487 0.959 . S
C1053 C518 0.480 . S
C1049 C29 0.443 . S
C1071 C570 0.493 . S
C1067 C49 0.297 . S
C1085 C10 2.103 . S
C1089 C598 1.974 . S
C1107 C330 1.910 . S
C1103 C218 2.089 . S
C1121 C226 1.599 . S
C1125 C371 1.614 . S
C1143 C401 1.736 . S
C1139 C251 1.887 . S
C1161 C438 0.532 . S
C1157 C159 0.498 . S
C1175 C211 1.771 . S
C1179 C482 1.754 1_655 S
C1197 C530 1.952 . S
C1193 C225 1.999 . S
C1215 C571 1.544 1_556 S
C1211 C252 1.534 . S
C1233 C610 1.856 . S
C1229 C166 2.062 . S
C1251 C331 2.289 . S
C1247 C147 2.267 . S
C1265 C263 1.494 . S
C1269 C641 1.429 . S
C1287 C691 2.332 . S
C1283 C309 2.325 . S
C1305 C718 0.966 . S
C1301 C291 0.970 . S
C1319 C108 2.716 . S
C1323 C611 2.698 . S
C1337 C121 1.275 . S
C1341 C407 1.190 . S
C1355 C302 2.472 . S
C1359 C770 2.367 . S
C1377 C798 1.140 . S
C1373 C276 1.190 . S
C1395 C327 1.299 . S
C1391 C55 1.346 . S
C1413 C801 2.048 . S
C1409 C96 2.170 . S
C1427 C88 1.578 . S
C1431 C411 1.587 . S
C1445 C75 2.824 . S
C1449 C762 2.814 . S
C1467 C478 1.177 . S
C1463 C4 1.202 . S
C1481 C44 0.668 . S
C1485 C687 0.689 . S
C1503 C561 0.526 . S
C1499 C31 0.532 . S
C1521 C847 1.198 . S
C1517 C18 1.230 . S
C1539 C321 2.084 . S
C1535 C133 2.225 . S
C1557 C802 1.930 . S
C1553 C296 1.907 . S
C1571 C107 2.221 . S
C1575 C410 2.095 . S
C1589 C264 0.745 . S
C1593 C767 0.736 . S
C1607 C140 2.094 . S
C1611 C491 2.101 . S
C1629 C681 2.074 . S
C1625 C289 2.087 . S
C1643 C114 1.918 . S
C1647 C562 1.930 . S
C1661 C265 1.797 . S
C1665 C841 1.699 . S
C1679 C179 2.475 . S
C1683 C322 2.482 1_655 S
C1697 C161 2.035 . S
C1701 C650 1.968 . S
C1715 C244 2.760 . S
C1719 C522 2.754 . S
C1733 C224 1.278 . S
C1737 C727 1.253 . S
C1755 C842 2.578 . S
C1751 C257 2.574 . S
C1769 C199 1.490 . S
C1773 C398 1.415 . S
C1791 C441 2.592 . S
C1787 C237 2.703 . S
C1809 C367 1.318 . S
C1805 C185 1.380 . S
C1823 C69 1.496 . S
C1827 C878 1.414 . S
C1845 C810 1.856 . S
C1841 C83 2.028 . S
C1859 C94 1.255 . S
C1863 C922 1.267 . S
C1877 C56 2.397 . S
C1881 C771 2.400 . S
C1895 C42 0.981 . S
C1899 C647 0.947 . S
C1917 C678 0.506 . S
C1913 C3 0.471 . S
C1935 C730 0.537 . S
C1931 C16 0.317 . S
C1953 C838 1.916 . S
C1949 C36 2.036 . S
C1971 C890 1.918 . S
C1967 C238 2.082 . S
C1985 C174 1.600 1_556 S
C1989 C811 1.618 . S
C2007 C921 1.732 . S
C2003 C186 1.882 . S
C2025 C758 0.529 . S
C2021 C198 0.490 . S
C2043 C642 1.793 1_556 S
C2039 C239 1.776 . S
C2057 C173 2.010 . S
C2061 C690 1.953 . S
C2079 C731 1.541 . S
C2075 C187 1.527 . S
C2093 C205 2.075 . S
C2097 C850 1.881 . S
C2115 C891 2.286 . S
C2111 C290 2.266 . S
C2129 C122 1.497 . S
C2133 C481 1.424 . S
C2151 C531 2.331 . S
C2147 C134 2.324 1_565 S
C2169 C558 0.977 . S
C2165 C148 0.984 . S
C2187 C851 2.695 . S
C2183 C283 2.715 . S
C2201 C270 1.261 . S
C2205 C927 1.179 . S
C2223 C450 2.357 . S
C2219 C135 2.472 . S
C2241 C358 1.146 . S
C2237 C109 1.194 . S
C2255 C81 1.338 . S
C2259 C887 1.288 . S
C2277 C361 2.037 . S
C2273 C68 2.170 . S
C2291 C62 1.585 . S
C2295 C931 1.590 . S
C2309 C95 2.827 . S
C2313 C442 2.816 . S
C2327 C30 1.197 . S
C2331 C638 1.165 . S
C2349 C527 0.666 . S
C2345 C17 0.650 . S
C2363 C5 0.529 . S
C2367 C721 0.521 . S
C2381 C43 1.213 . S
C2385 C607 1.171 . S
C2403 C881 2.091 . S
C2399 C304 2.222 . S
C2417 C153 1.900 . S
C2421 C362 1.925 . S
C2439 C930 2.100 1_556 S
C2435 C278 2.227 . S
C2453 C127 0.772 . S
C2457 C447 0.767 . S
C2471 C303 2.090 . S
C2475 C651 2.100 . S
C2493 C521 2.080 . S
C2489 C146 2.092 . S
C2507 C277 1.909 . S
C2511 C722 1.924 1_655 S
C2529 C601 1.675 . S
C2525 C120 1.773 . S
C2547 C882 2.483 . S
C2543 C231 2.473 . S
C2565 C490 1.963 . S
C2561 C200 2.024 1_545 S
C2579 C212 2.760 . S
C2583 C682 2.754 . S
C2601 C567 1.268 . S
C2597 C172 1.280 . S
C2615 C192 2.571 . S
C2619 C602 2.577 . S
C2633 C160 1.476 . S
C2637 C918 1.399 . S
C2655 C761 2.592 . S
C2651 C213 2.704 . S
C2673 C807 1.316 . S
C2669 C250 1.377 . S
