# Generated by pormake.
# Topology ssb, (4,4)-cn, num edge types: 1
# Building blocks:
#     Node 0, Type 0, BuildingBlock: NAWXER_clean_sbu_0, # of connection points: 4
#     Node 1, Type 0, BuildingBlock: NAWXER_clean_sbu_0, # of connection points: 4
#     Node 2, Type 0, BuildingBlock: NAWXER_clean_sbu_0, # of connection points: 4
#     Node 3, Type 0, BuildingBlock: NAWXER_clean_sbu_0, # of connection points: 4
#     Node 4, Type 0, BuildingBlock: NAWXER_clean_sbu_0, # of connection points: 4
#     Node 5, Type 0, BuildingBlock: NAWXER_clean_sbu_0, # of connection points: 4
#     Node 6, Type 0, BuildingBlock: NAWXER_clean_sbu_0, # of connection points: 4
#     Node 7, Type 0, BuildingBlock: NAWXER_clean_sbu_0, # of connection points: 4
#     Node 8, Type 1, BuildingBlock: NAWXER_clean_sbu_0, # of connection points: 4
#     Node 9, Type 1, BuildingBlock: NAWXER_clean_sbu_0, # of connection points: 4
#     Node 10, Type 1, BuildingBlock: NAWXER_clean_sbu_0, # of connection points: 4
#     Node 11, Type 1, BuildingBlock: NAWXER_clean_sbu_0, # of connection points: 4
#     Node 12, Type 1, BuildingBlock: NAWXER_clean_sbu_0, # of connection points: 4
#     Node 13, Type 1, BuildingBlock: NAWXER_clean_sbu_0, # of connection points: 4
#     Node 14, Type 1, BuildingBlock: NAWXER_clean_sbu_0, # of connection points: 4
#     Node 15, Type 1, BuildingBlock: NAWXER_clean_sbu_0, # of connection points: 4
#     Edge 16, Type (0, 1), BuildingBlock: EYOCIG_clean_linker_4, # of connection points: 2
#     Edge 17, Type (0, 1), BuildingBlock: EYOCIG_clean_linker_4, # of connection points: 2
#     Edge 18, Type (0, 1), BuildingBlock: EYOCIG_clean_linker_4, # of connection points: 2
#     Edge 19, Type (0, 1), BuildingBlock: EYOCIG_clean_linker_4, # of connection points: 2
#     Edge 20, Type (0, 1), BuildingBlock: EYOCIG_clean_linker_4, # of connection points: 2
#     Edge 21, Type (0, 1), BuildingBlock: EYOCIG_clean_linker_4, # of connection points: 2
#     Edge 22, Type (0, 1), BuildingBlock: EYOCIG_clean_linker_4, # of connection points: 2
#     Edge 23, Type (0, 1), BuildingBlock: EYOCIG_clean_linker_4, # of connection points: 2
#     Edge 24, Type (0, 1), BuildingBlock: EYOCIG_clean_linker_4, # of connection points: 2
#     Edge 25, Type (0, 1), BuildingBlock: EYOCIG_clean_linker_4, # of connection points: 2
#     Edge 26, Type (0, 1), BuildingBlock: EYOCIG_clean_linker_4, # of connection points: 2
#     Edge 27, Type (0, 1), BuildingBlock: EYOCIG_clean_linker_4, # of connection points: 2
#     Edge 28, Type (0, 1), BuildingBlock: EYOCIG_clean_linker_4, # of connection points: 2
#     Edge 29, Type (0, 1), BuildingBlock: EYOCIG_clean_linker_4, # of connection points: 2
#     Edge 30, Type (0, 1), BuildingBlock: EYOCIG_clean_linker_4, # of connection points: 2
#     Edge 31, Type (0, 1), BuildingBlock: EYOCIG_clean_linker_4, # of connection points: 2
#     Edge 32, Type (0, 1), BuildingBlock: EYOCIG_clean_linker_4, # of connection points: 2
#     Edge 33, Type (0, 1), BuildingBlock: EYOCIG_clean_linker_4, # of connection points: 2
#     Edge 34, Type (0, 1), BuildingBlock: EYOCIG_clean_linker_4, # of connection points: 2
#     Edge 35, Type (0, 1), BuildingBlock: EYOCIG_clean_linker_4, # of connection points: 2
#     Edge 36, Type (0, 1), BuildingBlock: EYOCIG_clean_linker_4, # of connection points: 2
#     Edge 37, Type (0, 1), BuildingBlock: EYOCIG_clean_linker_4, # of connection points: 2
#     Edge 38, Type (0, 1), BuildingBlock: EYOCIG_clean_linker_4, # of connection points: 2
#     Edge 39, Type (0, 1), BuildingBlock: EYOCIG_clean_linker_4, # of connection points: 2
#     Edge 40, Type (0, 1), BuildingBlock: EYOCIG_clean_linker_4, # of connection points: 2
#     Edge 41, Type (0, 1), BuildingBlock: EYOCIG_clean_linker_4, # of connection points: 2
#     Edge 42, Type (0, 1), BuildingBlock: EYOCIG_clean_linker_4, # of connection points: 2
#     Edge 43, Type (0, 1), BuildingBlock: EYOCIG_clean_linker_4, # of connection points: 2
#     Edge 44, Type (0, 1), BuildingBlock: EYOCIG_clean_linker_4, # of connection points: 2
#     Edge 45, Type (0, 1), BuildingBlock: EYOCIG_clean_linker_4, # of connection points: 2
#     Edge 46, Type (0, 1), BuildingBlock: EYOCIG_clean_linker_4, # of connection points: 2
#     Edge 47, Type (0, 1), BuildingBlock: EYOCIG_clean_linker_4, # of connection points: 2
# Relax obj value: 0.002
# Max RMSD: 0.009
# Mean RMSD: 0.008
data_MOF--net-ssb--node1-NAWXER_clean_sbu_0--node2-NAWXER_clean_sbu_0--edge1-EYOCIG_clean_linker_4
_symmetry_space_group_name_H-M    P1
_symmetry_Int_Tables_number       1
_symmetry_cell_setting            triclinic
loop_
_symmetry_equiv_pos_as_xyz
'x, y, z'
_cell_length_a     35.060161
_cell_length_b     35.077818
_cell_length_c     30.949207
_cell_angle_alpha  90.004345
_cell_angle_beta   89.966829
_cell_angle_gamma 89.979146
loop_
_atom_site_label
_atom_site_type_symbol
_atom_site_fract_x
_atom_site_fract_y
_atom_site_fract_z
_atom_type_partial_charge
C0 C 0.19849 0.27255 0.29447 0.0
C1 C 0.30998 0.23596 0.19005 0.0
O2 O 0.19213 0.24896 0.2642 0.0
Zn3 Zn 0.23103 0.231 0.22094 0.0
O4 O 0.23121 0.28726 0.29962 0.0
Zn5 Zn 0.27987 0.27992 0.2659 0.0
O6 O 0.26126 0.319 0.22319 0.0
O7 O 0.22302 0.27986 0.18777 0.0
O8 O 0.31587 0.25952 0.22044 0.0
O9 O 0.27741 0.22096 0.18452 0.0
O10 O 0.25167 0.19497 0.2662 0.0
O11 O 0.29017 0.23351 0.30211 0.0
C12 C 0.23746 0.31268 0.19312 0.0
C13 C 0.27525 0.20091 0.29655 0.0
C14 C 0.69881 0.23628 0.19236 0.0
C15 C 0.8108 0.27423 0.29567 0.0
O16 O 0.69268 0.26021 0.22236 0.0
Zn17 Zn 0.73102 0.27969 0.2656 0.0
O18 O 0.73159 0.22171 0.1869 0.0
Zn19 Zn 0.77998 0.23053 0.22066 0.0
O20 O 0.76127 0.19272 0.26475 0.0
O21 O 0.72291 0.23175 0.30025 0.0
O22 O 0.81681 0.25055 0.26541 0.0
O23 O 0.77818 0.28919 0.30108 0.0
O24 O 0.75093 0.31622 0.22048 0.0
O25 O 0.78939 0.27742 0.18481 0.0
C26 C 0.7377 0.19906 0.29506 0.0
C27 C 0.7745 0.31006 0.19013 0.0
C28 C 0.7747 0.69906 0.19198 0.0
C29 C 0.73573 0.81031 0.296 0.0
O30 O 0.75074 0.69271 0.22189 0.0
Zn31 Zn 0.73091 0.73032 0.26579 0.0
O32 O 0.78925 0.73186 0.18682 0.0
Zn33 Zn 0.78009 0.77968 0.22143 0.0
O34 O 0.81773 0.76017 0.26535 0.0
O35 O 0.77871 0.72151 0.30039 0.0
O36 O 0.75965 0.81653 0.266 0.0
O37 O 0.72107 0.77755 0.30119 0.0
O38 O 0.69427 0.74992 0.22078 0.0
O39 O 0.7331 0.78867 0.18559 0.0
C40 C 0.81145 0.7362 0.29524 0.0
C41 C 0.7005 0.77364 0.19063 0.0
C42 C 0.23649 0.69976 0.19113 0.0
C43 C 0.27285 0.81215 0.29443 0.0
O44 O 0.22156 0.73231 0.18527 0.0
Zn45 Zn 0.23107 0.77934 0.2208 0.0
O46 O 0.26017 0.69408 0.22145 0.0
Zn47 Zn 0.28011 0.73098 0.26612 0.0
O48 O 0.23317 0.72078 0.30177 0.0
O49 O 0.19442 0.75885 0.26555 0.0
O50 O 0.28767 0.77951 0.29991 0.0
O51 O 0.24918 0.81816 0.26415 0.0
O52 O 0.27958 0.78772 0.18696 0.0
O53 O 0.31874 0.74978 0.22277 0.0
C54 C 0.2004 0.73528 0.29592 0.0
C55 C 0.31245 0.77339 0.19249 0.0
C56 C 0.31217 0.7736 0.79429 0.0
C57 C 0.19982 0.73674 0.69132 0.0
O58 O 0.27945 0.78817 0.80015 0.0
Zn59 Zn 0.23116 0.77971 0.7663 0.0
O60 O 0.31817 0.75002 0.76391 0.0
Zn61 Zn 0.28003 0.73088 0.72033 0.0
O62 O 0.2882 0.7791 0.68621 0.0
O63 O 0.25002 0.81779 0.72244 0.0
O64 O 0.23245 0.72196 0.68547 0.0
O65 O 0.19391 0.76018 0.72184 0.0
O66 O 0.22229 0.73209 0.8012 0.0
O67 O 0.26055 0.69358 0.76483 0.0
C68 C 0.27351 0.81176 0.69195 0.0
C69 C 0.23709 0.69947 0.79537 0.0
C70 C 0.27369 0.19993 0.69065 0.0
C71 C 0.23767 0.31153 0.79509 0.0
O72 O 0.2502 0.19388 0.72111 0.0
Zn73 Zn 0.23121 0.23113 0.76585 0.0
O74 O 0.28865 0.2325 0.68521 0.0
Zn75 Zn 0.28029 0.28 0.72042 0.0
O76 O 0.31783 0.26001 0.76439 0.0
O77 O 0.27907 0.22173 0.80032 0.0
O78 O 0.26125 0.31758 0.76472 0.0
O79 O 0.22286 0.2789 0.80062 0.0
O80 O 0.19345 0.25102 0.72212 0.0
O81 O 0.2323 0.28923 0.6862 0.0
C82 C 0.31182 0.23628 0.79461 0.0
C83 C 0.19952 0.27476 0.69193 0.0
C84 C 0.73568 0.20108 0.68944 0.0
C85 C 0.77294 0.31138 0.79534 0.0
O86 O 0.72064 0.23371 0.68452 0.0
Zn87 Zn 0.73082 0.27984 0.72136 0.0
O88 O 0.75954 0.19489 0.71947 0.0
Zn89 Zn 0.78011 0.23068 0.76507 0.0
O90 O 0.73377 0.21979 0.80129 0.0
O91 O 0.69487 0.2586 0.7663 0.0
O92 O 0.78787 0.27868 0.79989 0.0
O93 O 0.74911 0.31795 0.76537 0.0
O94 O 0.77915 0.28866 0.68747 0.0
O95 O 0.81856 0.25004 0.72196 0.0
C96 C 0.70104 0.23457 0.79614 0.0
C97 C 0.81202 0.27417 0.6923 0.0
C98 C 0.8115 0.73632 0.69144 0.0
C99 C 0.70056 0.77414 0.79646 0.0
O100 O 0.77874 0.72166 0.68629 0.0
Zn101 Zn 0.73129 0.73096 0.72157 0.0
O102 O 0.81776 0.76019 0.72144 0.0
Zn103 Zn 0.78059 0.78002 0.76589 0.0
O104 O 0.78996 0.73252 0.80088 0.0
O105 O 0.75125 0.69365 0.76574 0.0
O106 O 0.73328 0.78894 0.80142 0.0
O107 O 0.6942 0.75043 0.76633 0.0
O108 O 0.72189 0.7786 0.68676 0.0
O109 O 0.7606 0.81746 0.72189 0.0
C110 C 0.77521 0.69981 0.79568 0.0
C111 C 0.73658 0.81133 0.69202 0.0
C112 C 0.95211 0.31105 0.55303 0.0
C113 C 0.05861 0.30906 0.43456 0.0
O114 O 0.96458 0.34272 0.53894 0.0
Zn115 Zn 1.00547 0.35027 0.49314 0.0
O116 O 0.96528 0.27971 0.53918 0.0
Zn117 Zn 1.00535 0.27064 0.49455 0.0
O118 O 0.04533 0.27845 0.53948 0.0
O119 O 0.04609 0.34146 0.53905 0.0
O120 O 0.04539 0.27816 0.44953 0.0
O121 O 0.04625 0.34114 0.44757 0.0
O122 O 0.96467 0.34024 0.44775 0.0
O123 O 0.96525 0.27724 0.4495 0.0
C124 C 0.05845 0.30981 0.55332 0.0
C125 C 0.95215 0.30826 0.43466 0.0
C126 C 0.69895 0.05896 0.55214 0.0
C127 C 0.69846 0.95167 0.43418 0.0
O128 O 0.72988 0.04516 0.5379 0.0
Zn129 Zn 0.7393 1.00467 0.49367 0.0
O130 O 0.6669 0.04681 0.53873 0.0
Zn131 Zn 0.66054 0.00546 0.49328 0.0
O132 O 0.67085 0.96512 0.53923 0.0
O133 O 0.7339 0.965 0.53918 0.0
O134 O 0.66654 0.96437 0.44739 0.0
O135 O 0.72951 0.96467 0.44897 0.0
O136 O 0.73518 0.04476 0.44848 0.0
O137 O 0.67214 0.04589 0.4479 0.0
C138 C 0.70241 0.95238 0.55335 0.0
C139 C 0.70404 0.05813 0.43422 0.0
C140 C 0.95242 0.69898 0.55286 0.0
C141 C 0.05855 0.69885 0.43363 0.0
O142 O 0.96531 0.73 0.53785 0.0
Zn143 Zn 1.00508 0.73921 0.49274 0.0
O144 O 0.96498 0.66704 0.53964 0.0
Zn145 Zn 0.00572 0.66002 0.49357 0.0
O146 O 0.04636 0.67122 0.53881 0.0
O147 O 0.04529 0.73423 0.53776 0.0
O148 O 0.04648 0.66693 0.44748 0.0
O149 O 0.0451 0.7299 0.44794 0.0
O150 O 0.96497 0.73273 0.44787 0.0
O151 O 0.96487 0.66971 0.4481 0.0
C152 C 0.05861 0.70318 0.55227 0.0
C153 C 0.95213 0.70126 0.43399 0.0
C154 C 0.3089 0.05854 0.55235 0.0
C155 C 0.3093 0.95249 0.43356 0.0
O156 O 0.34083 0.04613 0.53889 0.0
Zn157 Zn 0.34998 0.00535 0.49333 0.0
O158 O 0.27779 0.04532 0.53794 0.0
Zn159 Zn 0.27013 0.00529 0.49312 0.0
O160 O 0.27786 0.96535 0.53809 0.0
O161 O 0.3409 0.96468 0.53907 0.0
O162 O 0.2781 0.96553 0.44801 0.0
O163 O 0.34114 0.96483 0.44732 0.0
O164 O 0.34107 0.0464 0.44802 0.0
O165 O 0.27803 0.04555 0.44858 0.0
C166 C 0.309 0.95228 0.55262 0.0
C167 C 0.30921 0.05887 0.43445 0.0
C168 C 0.45251 0.81198 0.05315 0.0
C169 C 0.55925 0.81166 0.93461 0.0
O170 O 0.46491 0.84392 0.03971 0.0
Zn171 Zn 0.50566 0.8499 -0.00656 0.0
O172 O 0.46559 0.78097 0.03832 0.0
Zn173 Zn 0.50537 0.77099 -0.0066 0.0
O174 O 0.54562 0.77553 0.03828 0.0
O175 O 0.54639 0.83856 0.03854 0.0
O176 O 0.54567 0.78073 0.94904 0.0
O177 O 0.54694 0.84369 0.94789 0.0
O178 O 0.46531 0.83891 0.94771 0.0
O179 O 0.46557 0.77589 0.94801 0.0
C180 C 0.55888 0.80679 0.05229 0.0
C181 C 0.45277 0.80725 0.93373 0.0
C182 C 0.20186 0.55819 0.0531 0.0
C183 C 0.20242 0.45216 0.93429 0.0
O184 O 0.23312 0.54508 0.03891 0.0
Zn185 Zn 0.24055 0.50513 -0.00607 0.0
O186 O 0.17007 0.54591 0.03913 0.0
Zn187 Zn 0.16085 0.50534 -0.00668 0.0
O188 O 0.1688 0.46458 0.03921 0.0
O189 O 0.23183 0.46522 0.0388 0.0
O190 O 0.17052 0.46464 0.94775 0.0
O191 O 0.23356 0.46515 0.94891 0.0
O192 O 0.23268 0.54518 0.94902 0.0
O193 O 0.16966 0.54613 0.94766 0.0
C194 C 0.20058 0.45218 0.05308 0.0
C195 C 0.20168 0.55842 0.93431 0.0
C196 C 0.55926 0.20086 0.93423 0.0
C197 C 0.45204 0.20255 0.05179 0.0
O198 O 0.54636 0.23228 0.9482 0.0
Zn199 Zn 0.50607 0.23937 0.99285 0.0
O200 O 0.54644 0.16926 0.94809 0.0
Zn201 Zn 0.50536 0.16002 -0.00662 0.0
O202 O 0.4649 0.16784 0.9471 0.0
O203 O 0.46624 0.23082 0.94771 0.0
O204 O 0.46434 0.17058 0.03837 0.0
O205 O 0.46556 0.23358 0.03749 0.0
O206 O 0.54566 0.23055 0.0382 0.0
O207 O 0.54588 0.16757 0.03965 0.0
C208 C 0.45287 0.19979 0.93327 0.0
C209 C 0.55844 0.19943 0.0531 0.0
C210 C 0.81022 0.55838 0.05307 0.0
C211 C 0.80859 0.45206 0.93444 0.0
O212 O 0.84187 0.54554 0.03927 0.0
Zn213 Zn 0.85072 0.50494 -0.00669 0.0
O214 O 0.77883 0.5458 0.03867 0.0
Zn215 Zn 0.77123 0.50607 -0.00657 0.0
O216 O 0.77899 0.46567 0.03798 0.0
O217 O 0.842 0.46395 0.03871 0.0
O218 O 0.77756 0.46575 0.94862 0.0
O219 O 0.84059 0.46417 0.94797 0.0
O220 O 0.84308 0.5458 0.94743 0.0
O221 O 0.78006 0.54591 0.94847 0.0
C222 C 0.80994 0.45189 0.05218 0.0
C223 C 0.81133 0.55863 0.93392 0.0
C224 C 0.14335 0.29186 0.3483 0.0
C225 C 0.16833 0.28286 0.32355 0.0
C226 C 0.11403 0.30135 0.37767 0.0
C227 C 0.08887 0.30704 0.40343 0.0
C228 C 0.71889 0.1437 0.34869 0.0
C229 C 0.72758 0.16888 0.32411 0.0
C230 C 0.71014 0.11406 0.37786 0.0
C231 C 0.70535 0.08864 0.40346 0.0
C232 C 0.86706 0.71609 0.34797 0.0
C233 C 0.84181 0.72541 0.32377 0.0
C234 C 0.8966 0.70679 0.37709 0.0
C235 C 0.92183 0.70192 0.40291 0.0
C236 C 0.29252 0.86788 0.34726 0.0
C237 C 0.28331 0.84266 0.32293 0.0
C238 C 0.30223 0.89727 0.37641 0.0
C239 C 0.30784 0.92233 0.4023 0.0
C240 C 0.1437 0.71846 0.63841 0.0
C241 C 0.16918 0.72695 0.6627 0.0
C242 C 0.11407 0.7097 0.60921 0.0
C243 C 0.08887 0.70471 0.58337 0.0
C244 C 0.29243 0.14407 0.63759 0.0
C245 C 0.28372 0.16942 0.66196 0.0
C246 C 0.30176 0.1144 0.60865 0.0
C247 C 0.30728 0.08904 0.58314 0.0
C248 C 0.86711 0.29483 0.63901 0.0
C249 C 0.84211 0.28525 0.66347 0.0
C250 C 0.89648 0.30454 0.6098 0.0
C251 C 0.92172 0.30993 0.58405 0.0
C252 C 0.71668 0.86726 0.63953 0.0
C253 C 0.72586 0.84182 0.66358 0.0
C254 C 0.70764 0.89694 0.61049 0.0
C255 C 0.70298 0.92216 0.58456 0.0
C256 C 0.8674 0.71632 0.63882 0.0
C257 C 0.84199 0.72556 0.66294 0.0
C258 C 0.89704 0.70661 0.60988 0.0
C259 C 0.92218 0.70082 0.58409 0.0
C260 C 0.29258 0.86757 0.63895 0.0
C261 C 0.28367 0.8423 0.66334 0.0
C262 C 0.30197 0.89701 0.60972 0.0
C263 C 0.30745 0.9221 0.58384 0.0
C264 C 0.1435 0.29446 0.63946 0.0
C265 C 0.16893 0.28532 0.66355 0.0
C266 C 0.1139 0.30372 0.61037 0.0
C267 C 0.08873 0.30881 0.58448 0.0
C268 C 0.71661 0.14513 0.63652 0.0
C269 C 0.72539 0.1706 0.66075 0.0
C270 C 0.70704 0.11529 0.60784 0.0
C271 C 0.70108 0.08976 0.58261 0.0
C272 C 0.86675 0.29249 0.3489 0.0
C273 C 0.84131 0.28405 0.3245 0.0
C274 C 0.89644 0.30135 0.37803 0.0
C275 C 0.92176 0.30657 0.4037 0.0
C276 C 0.71591 0.86623 0.34872 0.0
C277 C 0.72506 0.8408 0.32457 0.0
C278 C 0.70619 0.89593 0.37761 0.0
C279 C 0.7003 0.92123 0.40319 0.0
C280 C 0.1439 0.71586 0.34799 0.0
C281 C 0.16957 0.72484 0.32411 0.0
C282 C 0.11411 0.70635 0.37681 0.0
C283 C 0.08891 0.70064 0.40256 0.0
C284 C 0.29349 0.14473 0.34942 0.0
C285 C 0.28506 0.17028 0.32518 0.0
C286 C 0.30247 0.11493 0.37832 0.0
C287 C 0.30776 0.08947 0.40378 0.0
C288 C 0.64505 0.79364 0.84982 0.0
C289 C 0.67026 0.7846 0.82534 0.0
C290 C 0.61541 0.80345 0.8787 0.0
C291 C 0.58996 0.80953 0.90401 0.0
C292 C 0.21844 0.64332 0.84816 0.0
C293 C 0.22713 0.66877 0.82389 0.0
C294 C 0.20914 0.61376 0.8773 0.0
C295 C 0.20354 0.58863 0.90313 0.0
C296 C 0.36795 0.21675 0.84711 0.0
C297 C 0.34249 0.22582 0.823 0.0
C298 C 0.39755 0.20724 0.87617 0.0
C299 C 0.42264 0.20159 0.90204 0.0
C300 C 0.79232 0.36627 0.84942 0.0
C301 C 0.78336 0.34133 0.82463 0.0
C302 C 0.80157 0.39583 0.87854 0.0
C303 C 0.80689 0.42135 0.90391 0.0
C304 C 0.64303 0.21628 0.13964 0.0
C305 C 0.66831 0.22558 0.16387 0.0
C306 C 0.61357 0.20665 0.11046 0.0
C307 C 0.58854 0.20103 0.0845 0.0
C308 C 0.79487 0.64343 0.13918 0.0
C309 C 0.78556 0.66872 0.16338 0.0
C310 C 0.80423 0.61384 0.11011 0.0
C311 C 0.80931 0.58862 0.08426 0.0
C312 C 0.36806 0.79376 0.13962 0.0
C313 C 0.3429 0.78425 0.16395 0.0
C314 C 0.39739 0.8039 0.11044 0.0
C315 C 0.42239 0.81003 0.08454 0.0
C316 C 0.21721 0.36795 0.13992 0.0
C317 C 0.22667 0.34294 0.16441 0.0
C318 C 0.20749 0.39715 0.11051 0.0
C319 C 0.20194 0.42212 0.08448 0.0
C320 C 0.36622 0.21797 0.1371 0.0
C321 C 0.34064 0.22628 0.16136 0.0
C322 C 0.39605 0.20924 0.1081 0.0
C323 C 0.42149 0.20416 0.08254 0.0
C324 C 0.79313 0.3659 0.13692 0.0
C325 C 0.78452 0.34051 0.16131 0.0
C326 C 0.80236 0.39567 0.10804 0.0
C327 C 0.80797 0.42117 0.0827 0.0
C328 C 0.6448 0.79227 0.13736 0.0
C329 C 0.67017 0.7837 0.16174 0.0
C330 C 0.61502 0.801 0.10839 0.0
C331 C 0.5895 0.80574 0.08291 0.0
C332 C 0.21755 0.64317 0.13918 0.0
C333 C 0.22636 0.66885 0.16305 0.0
C334 C 0.20834 0.61346 0.11025 0.0
C335 C 0.20311 0.58837 0.08433 0.0
C336 C 0.36812 0.79279 0.847 0.0
C337 C 0.34275 0.78386 0.82277 0.0
C338 C 0.39763 0.8017 0.87629 0.0
C339 C 0.4227 0.80642 0.90236 0.0
C340 C 0.21856 0.36738 0.84801 0.0
C341 C 0.22746 0.34205 0.82369 0.0
C342 C 0.20927 0.39687 0.87719 0.0
C343 C 0.20392 0.42199 0.90307 0.0
C344 C 0.64501 0.2153 0.84878 0.0
C345 C 0.67054 0.22415 0.82469 0.0
C346 C 0.61519 0.20642 0.87772 0.0
C347 C 0.58976 0.20164 0.90337 0.0
C348 C 0.7951 0.64394 0.84828 0.0
C349 C 0.7859 0.66933 0.82415 0.0
C350 C 0.80463 0.61428 0.87719 0.0
C351 C 0.81007 0.589 0.90287 0.0
loop_
_geom_bond_atom_site_label_1
_geom_bond_atom_site_label_2
_geom_bond_distance
_geom_bond_site_symmetry_2
_ccdc_geom_bond_type
C0 O2 1.247 . S
C0 O4 1.258 . S
C1 O8 1.247 . S
C1 O9 1.258 . S
O2 C0 1.247 . S
O2 Zn3 2.028 . S
Zn3 O2 2.028 . S
Zn3 O7 2.035 . S
Zn3 O9 2.035 . S
Zn3 O10 2.028 . S
O4 C0 1.258 . S
O4 Zn5 2.035 . S
Zn5 O4 2.035 . S
Zn5 O6 2.028 . S
Zn5 O8 2.028 . S
Zn5 O11 2.035 . S
O6 Zn5 2.028 . S
O6 C12 1.247 . S
O7 Zn3 2.035 . S
O7 C12 1.258 . S
O8 C1 1.247 . S
O8 Zn5 2.028 . S
O9 C1 1.258 . S
O9 Zn3 2.035 . S
O10 Zn3 2.028 . S
O10 C13 1.247 . S
O11 Zn5 2.035 . S
O11 C13 1.258 . S
C12 O6 1.247 . S
C12 O7 1.258 . S
C13 O10 1.247 . S
C13 O11 1.258 . S
C14 O16 1.247 . S
C14 O18 1.258 . S
C15 O22 1.247 . S
C15 O23 1.258 . S
O16 C14 1.247 . S
O16 Zn17 2.028 . S
Zn17 O16 2.028 . S
Zn17 O21 2.035 . S
Zn17 O23 2.035 . S
Zn17 O24 2.028 . S
O18 C14 1.258 . S
O18 Zn19 2.035 . S
Zn19 O18 2.035 . S
Zn19 O20 2.028 . S
Zn19 O22 2.028 . S
Zn19 O25 2.035 . S
O20 Zn19 2.028 . S
O20 C26 1.247 . S
O21 Zn17 2.035 . S
O21 C26 1.258 . S
O22 C15 1.247 . S
O22 Zn19 2.028 . S
O23 C15 1.258 . S
O23 Zn17 2.035 . S
O24 Zn17 2.028 . S
O24 C27 1.247 . S
O25 Zn19 2.035 . S
O25 C27 1.258 . S
C26 O20 1.247 . S
C26 O21 1.258 . S
C27 O24 1.247 . S
C27 O25 1.258 . S
C28 O30 1.247 . S
C28 O32 1.258 . S
C29 O36 1.247 . S
C29 O37 1.258 . S
O30 C28 1.247 . S
O30 Zn31 2.028 . S
Zn31 O30 2.028 . S
Zn31 O35 2.035 . S
Zn31 O37 2.035 . S
Zn31 O38 2.028 . S
O32 C28 1.258 . S
O32 Zn33 2.035 . S
Zn33 O32 2.035 . S
Zn33 O34 2.028 . S
Zn33 O36 2.028 . S
Zn33 O39 2.035 . S
O34 Zn33 2.028 . S
O34 C40 1.247 . S
O35 Zn31 2.035 . S
O35 C40 1.258 . S
O36 C29 1.247 . S
O36 Zn33 2.028 . S
O37 C29 1.258 . S
O37 Zn31 2.035 . S
O38 Zn31 2.028 . S
O38 C41 1.247 . S
O39 Zn33 2.035 . S
O39 C41 1.258 . S
C40 O34 1.247 . S
C40 O35 1.258 . S
C41 O38 1.247 . S
C41 O39 1.258 . S
C42 O44 1.247 . S
C42 O46 1.258 . S
C43 O50 1.247 . S
C43 O51 1.258 . S
O44 C42 1.247 . S
O44 Zn45 2.028 . S
Zn45 O44 2.028 . S
Zn45 O49 2.035 . S
Zn45 O51 2.035 . S
Zn45 O52 2.028 . S
O46 C42 1.258 . S
O46 Zn47 2.035 . S
Zn47 O46 2.035 . S
Zn47 O48 2.028 . S
Zn47 O50 2.028 . S
Zn47 O53 2.035 . S
O48 Zn47 2.028 . S
O48 C54 1.247 . S
O49 Zn45 2.035 . S
O49 C54 1.258 . S
O50 C43 1.247 . S
O50 Zn47 2.028 . S
O51 C43 1.258 . S
O51 Zn45 2.035 . S
O52 Zn45 2.028 . S
O52 C55 1.247 . S
O53 Zn47 2.035 . S
O53 C55 1.258 . S
C54 O48 1.247 . S
C54 O49 1.258 . S
C55 O52 1.247 . S
C55 O53 1.258 . S
C56 O58 1.247 . S
C56 O60 1.258 . S
C57 O64 1.247 . S
C57 O65 1.258 . S
O58 C56 1.247 . S
O58 Zn59 2.028 . S
Zn59 O58 2.028 . S
Zn59 O63 2.035 . S
Zn59 O65 2.035 . S
Zn59 O66 2.028 . S
O60 C56 1.258 . S
O60 Zn61 2.035 . S
Zn61 O60 2.035 . S
Zn61 O62 2.028 . S
Zn61 O64 2.028 . S
Zn61 O67 2.035 . S
O62 Zn61 2.028 . S
O62 C68 1.247 . S
O63 Zn59 2.035 . S
O63 C68 1.258 . S
O64 C57 1.247 . S
O64 Zn61 2.028 . S
O65 C57 1.258 . S
O65 Zn59 2.035 . S
O66 Zn59 2.028 . S
O66 C69 1.247 . S
O67 Zn61 2.035 . S
O67 C69 1.258 . S
C68 O62 1.247 . S
C68 O63 1.258 . S
C69 O66 1.247 . S
C69 O67 1.258 . S
C70 O72 1.247 . S
C70 O74 1.258 . S
C71 O78 1.247 . S
C71 O79 1.258 . S
O72 C70 1.247 . S
O72 Zn73 2.028 . S
Zn73 O72 2.028 . S
Zn73 O77 2.035 . S
Zn73 O79 2.035 . S
Zn73 O80 2.028 . S
O74 C70 1.258 . S
O74 Zn75 2.035 . S
Zn75 O74 2.035 . S
Zn75 O76 2.028 . S
Zn75 O78 2.028 . S
Zn75 O81 2.035 . S
O76 Zn75 2.028 . S
O76 C82 1.247 . S
O77 Zn73 2.035 . S
O77 C82 1.258 . S
O78 C71 1.247 . S
O78 Zn75 2.028 . S
O79 C71 1.258 . S
O79 Zn73 2.035 . S
O80 Zn73 2.028 . S
O80 C83 1.247 . S
O81 Zn75 2.035 . S
O81 C83 1.258 . S
C82 O76 1.247 . S
C82 O77 1.258 . S
C83 O80 1.247 . S
C83 O81 1.258 . S
C84 O86 1.247 . S
C84 O88 1.258 . S
C85 O92 1.247 . S
C85 O93 1.258 . S
O86 C84 1.247 . S
O86 Zn87 2.028 . S
Zn87 O86 2.028 . S
Zn87 O91 2.035 . S
Zn87 O93 2.035 . S
Zn87 O94 2.028 . S
O88 C84 1.258 . S
O88 Zn89 2.035 . S
Zn89 O88 2.035 . S
Zn89 O90 2.028 . S
Zn89 O92 2.028 . S
Zn89 O95 2.035 . S
O90 Zn89 2.028 . S
O90 C96 1.247 . S
O91 Zn87 2.035 . S
O91 C96 1.258 . S
O92 C85 1.247 . S
O92 Zn89 2.028 . S
O93 C85 1.258 . S
O93 Zn87 2.035 . S
O94 Zn87 2.028 . S
O94 C97 1.247 . S
O95 Zn89 2.035 . S
O95 C97 1.258 . S
C96 O90 1.247 . S
C96 O91 1.258 . S
C97 O94 1.247 . S
C97 O95 1.258 . S
C98 O100 1.247 . S
C98 O102 1.258 . S
C99 O106 1.247 . S
C99 O107 1.258 . S
O100 C98 1.247 . S
O100 Zn101 2.028 . S
Zn101 O100 2.028 . S
Zn101 O105 2.035 . S
Zn101 O107 2.035 . S
Zn101 O108 2.028 . S
O102 C98 1.258 . S
O102 Zn103 2.035 . S
Zn103 O102 2.035 . S
Zn103 O104 2.028 . S
Zn103 O106 2.028 . S
Zn103 O109 2.035 . S
O104 Zn103 2.028 . S
O104 C110 1.247 . S
O105 Zn101 2.035 . S
O105 C110 1.258 . S
O106 C99 1.247 . S
O106 Zn103 2.028 . S
O107 C99 1.258 . S
O107 Zn101 2.035 . S
O108 Zn101 2.028 . S
O108 C111 1.247 . S
O109 Zn103 2.035 . S
O109 C111 1.258 . S
C110 O104 1.247 . S
C110 O105 1.258 . S
C111 O108 1.247 . S
C111 O109 1.258 . S
C112 O114 1.247 . S
C112 O116 1.258 . S
C113 O120 1.247 . S
C113 O121 1.258 . S
O114 C112 1.247 . S
O114 Zn115 2.030 . S
Zn115 O114 2.030 . S
Zn115 O119 2.033 1_655 S
Zn115 O121 2.033 1_655 S
Zn115 O122 2.030 . S
O116 C112 1.258 . S
O116 Zn117 2.028 1_655 S
Zn117 O116 2.028 1_455 S
Zn117 O118 2.035 . S
Zn117 O120 2.035 . S
Zn117 O123 2.028 1_455 S
O118 Zn117 2.035 . S
O118 C124 1.247 . S
O119 Zn115 2.033 1_455 S
O119 C124 1.258 . S
O120 C113 1.247 . S
O120 Zn117 2.035 . S
O121 C113 1.258 . S
O121 Zn115 2.033 1_455 S
O122 Zn115 2.030 . S
O122 C125 1.247 . S
O123 Zn117 2.028 1_655 S
O123 C125 1.258 . S
C124 O118 1.247 . S
C124 O119 1.258 . S
C125 O122 1.247 . S
C125 O123 1.258 . S
C126 O128 1.247 . S
C126 O130 1.258 . S
C127 O134 1.247 . S
C127 O135 1.258 . S
O128 C126 1.247 . S
O128 Zn129 2.035 . S
Zn129 O128 2.035 . S
Zn129 O133 2.028 1_545 S
Zn129 O135 2.028 1_545 S
Zn129 O136 2.035 . S
O130 C126 1.258 . S
O130 Zn131 2.033 1_545 S
Zn131 O130 2.033 1_565 S
Zn131 O132 2.030 . S
Zn131 O134 2.030 . S
Zn131 O137 2.033 1_565 S
O132 Zn131 2.030 . S
O132 C138 1.247 . S
O133 Zn129 2.028 1_565 S
O133 C138 1.258 . S
O134 C127 1.247 . S
O134 Zn131 2.030 . S
O135 C127 1.258 . S
O135 Zn129 2.028 1_565 S
O136 Zn129 2.035 . S
O136 C139 1.247 . S
O137 Zn131 2.033 1_545 S
O137 C139 1.258 . S
C138 O132 1.247 . S
C138 O133 1.258 . S
C139 O136 1.247 . S
C139 O137 1.258 . S
C140 O142 1.247 . S
C140 O144 1.258 . S
C141 O148 1.247 . S
C141 O149 1.258 . S
O142 C140 1.247 . S
O142 Zn143 2.030 . S
Zn143 O142 2.030 . S
Zn143 O147 2.033 1_655 S
Zn143 O149 2.033 1_655 S
Zn143 O150 2.030 . S
O144 C140 1.258 . S
O144 Zn145 2.028 1_655 S
Zn145 O144 2.028 1_455 S
Zn145 O146 2.035 . S
Zn145 O148 2.035 . S
Zn145 O151 2.028 1_455 S
O146 Zn145 2.035 . S
O146 C152 1.247 . S
O147 Zn143 2.033 1_455 S
O147 C152 1.258 . S
O148 C141 1.247 . S
O148 Zn145 2.035 . S
O149 C141 1.258 . S
O149 Zn143 2.033 1_455 S
O150 Zn143 2.030 . S
O150 C153 1.247 . S
O151 Zn145 2.028 1_655 S
O151 C153 1.258 . S
C152 O146 1.247 . S
C152 O147 1.258 . S
C153 O150 1.247 . S
C153 O151 1.258 . S
C154 O156 1.247 . S
C154 O158 1.258 . S
C155 O162 1.247 . S
C155 O163 1.258 . S
O156 C154 1.247 . S
O156 Zn157 2.035 . S
Zn157 O156 2.035 . S
Zn157 O161 2.028 1_545 S
Zn157 O163 2.028 1_545 S
Zn157 O164 2.035 . S
O158 C154 1.258 . S
O158 Zn159 2.033 1_545 S
Zn159 O158 2.033 1_565 S
Zn159 O160 2.030 . S
Zn159 O162 2.030 . S
Zn159 O165 2.033 1_565 S
O160 Zn159 2.030 . S
O160 C166 1.247 . S
O161 Zn157 2.028 1_565 S
O161 C166 1.258 . S
O162 C155 1.247 . S
O162 Zn159 2.030 . S
O163 C155 1.258 . S
O163 Zn157 2.028 1_565 S
O164 Zn157 2.035 . S
O164 C167 1.247 . S
O165 Zn159 2.033 1_545 S
O165 C167 1.258 . S
C166 O160 1.247 . S
C166 O161 1.258 . S
C167 O164 1.247 . S
C167 O165 1.258 . S
C168 O170 1.247 . S
C168 O172 1.258 . S
C169 O176 1.247 . S
C169 O177 1.258 . S
O170 C168 1.247 . S
O170 Zn171 2.028 . S
Zn171 O170 2.028 . S
Zn171 O175 2.035 . S
Zn171 O177 2.035 1_554 S
Zn171 O178 2.028 1_554 S
O172 C168 1.258 . S
O172 Zn173 2.035 . S
Zn173 O172 2.035 . S
Zn173 O174 2.028 . S
Zn173 O176 2.028 1_554 S
Zn173 O179 2.035 1_554 S
O174 Zn173 2.028 . S
O174 C180 1.247 . S
O175 Zn171 2.035 . S
O175 C180 1.258 . S
O176 C169 1.247 . S
O176 Zn173 2.028 1_556 S
O177 C169 1.258 . S
O177 Zn171 2.035 1_556 S
O178 Zn171 2.028 1_556 S
O178 C181 1.247 . S
O179 Zn173 2.035 1_556 S
O179 C181 1.258 . S
C180 O174 1.247 . S
C180 O175 1.258 . S
C181 O178 1.247 . S
C181 O179 1.258 . S
C182 O184 1.247 . S
C182 O186 1.258 . S
C183 O190 1.247 . S
C183 O191 1.258 . S
O184 C182 1.247 . S
O184 Zn185 2.028 . S
Zn185 O184 2.028 . S
Zn185 O189 2.035 . S
Zn185 O191 2.035 1_554 S
Zn185 O192 2.028 1_554 S
O186 C182 1.258 . S
O186 Zn187 2.035 . S
Zn187 O186 2.035 . S
Zn187 O188 2.028 . S
Zn187 O190 2.028 1_554 S
Zn187 O193 2.035 1_554 S
O188 Zn187 2.028 . S
O188 C194 1.247 . S
O189 Zn185 2.035 . S
O189 C194 1.258 . S
O190 C183 1.247 . S
O190 Zn187 2.028 1_556 S
O191 C183 1.258 . S
O191 Zn185 2.035 1_556 S
O192 Zn185 2.028 1_556 S
O192 C195 1.247 . S
O193 Zn187 2.035 1_556 S
O193 C195 1.258 . S
C194 O188 1.247 . S
C194 O189 1.258 . S
C195 O192 1.247 . S
C195 O193 1.258 . S
C196 O198 1.247 . S
C196 O200 1.258 . S
C197 O204 1.247 . S
C197 O205 1.258 . S
O198 C196 1.247 . S
O198 Zn199 2.028 1_556 S
Zn199 O198 2.028 1_554 S
Zn199 O203 2.035 1_554 S
Zn199 O205 2.035 . S
Zn199 O206 2.028 . S
O200 C196 1.258 . S
O200 Zn201 2.035 1_556 S
Zn201 O200 2.035 1_554 S
Zn201 O202 2.028 1_554 S
Zn201 O204 2.028 . S
Zn201 O207 2.035 . S
O202 Zn201 2.028 1_556 S
O202 C208 1.247 . S
O203 Zn199 2.035 1_556 S
O203 C208 1.258 . S
O204 C197 1.247 . S
O204 Zn201 2.028 . S
O205 C197 1.258 . S
O205 Zn199 2.035 . S
O206 Zn199 2.028 . S
O206 C209 1.247 . S
O207 Zn201 2.035 . S
O207 C209 1.258 . S
C208 O202 1.247 . S
C208 O203 1.258 . S
C209 O206 1.247 . S
C209 O207 1.258 . S
C210 O212 1.247 . S
C210 O214 1.258 . S
C211 O218 1.247 . S
C211 O219 1.258 . S
O212 C210 1.247 . S
O212 Zn213 2.028 . S
Zn213 O212 2.028 . S
Zn213 O217 2.035 . S
Zn213 O219 2.035 1_554 S
Zn213 O220 2.028 1_554 S
O214 C210 1.258 . S
O214 Zn215 2.035 . S
Zn215 O214 2.035 . S
Zn215 O216 2.028 . S
Zn215 O218 2.028 1_554 S
Zn215 O221 2.035 1_554 S
O216 Zn215 2.028 . S
O216 C222 1.247 . S
O217 Zn213 2.035 . S
O217 C222 1.258 . S
O218 C211 1.247 . S
O218 Zn215 2.028 1_556 S
O219 C211 1.258 . S
O219 Zn213 2.035 1_556 S
O220 Zn213 2.028 1_556 S
O220 C223 1.247 . S
O221 Zn215 2.035 1_556 S
O221 C223 1.258 . S
C222 O216 1.247 . S
C222 O217 1.258 . S
C223 O220 1.247 . S
C223 O221 1.258 . S
C224 C225 1.170 . S
C224 C226 1.380 . S
C225 C224 1.170 . S
C226 C224 1.380 . S
C226 C227 1.170 . S
C227 C226 1.170 . S
C228 C229 1.170 . S
C228 C230 1.380 . S
C229 C228 1.170 . S
C230 C228 1.380 . S
C230 C231 1.170 . S
C231 C230 1.170 . S
C232 C233 1.170 . S
C232 C234 1.380 . S
C233 C232 1.170 . S
C234 C232 1.380 . S
C234 C235 1.170 . S
C235 C234 1.170 . S
C236 C237 1.170 . S
C236 C238 1.380 . S
C237 C236 1.170 . S
C238 C236 1.380 . S
C238 C239 1.170 . S
C239 C238 1.170 . S
C240 C241 1.170 . S
C240 C242 1.380 . S
C241 C240 1.170 . S
C242 C240 1.380 . S
C242 C243 1.170 . S
C243 C242 1.170 . S
C244 C245 1.170 . S
C244 C246 1.380 . S
C245 C244 1.170 . S
C246 C244 1.380 . S
C246 C247 1.170 . S
C247 C246 1.170 . S
C248 C249 1.170 . S
C248 C250 1.380 . S
C249 C248 1.170 . S
C250 C248 1.380 . S
C250 C251 1.170 . S
C251 C250 1.170 . S
C252 C253 1.170 . S
C252 C254 1.380 . S
C253 C252 1.170 . S
C254 C252 1.380 . S
C254 C255 1.170 . S
C255 C254 1.170 . S
C256 C257 1.170 . S
C256 C258 1.380 . S
C257 C256 1.170 . S
C258 C256 1.380 . S
C258 C259 1.170 . S
C259 C258 1.170 . S
C260 C261 1.170 . S
C260 C262 1.380 . S
C261 C260 1.170 . S
C262 C260 1.380 . S
C262 C263 1.170 . S
C263 C262 1.170 . S
C264 C265 1.170 . S
C264 C266 1.380 . S
C265 C264 1.170 . S
C266 C264 1.380 . S
C266 C267 1.170 . S
C267 C266 1.170 . S
C268 C269 1.170 . S
C268 C270 1.380 . S
C269 C268 1.170 . S
C270 C268 1.380 . S
C270 C271 1.170 . S
C271 C270 1.170 . S
C272 C273 1.170 . S
C272 C274 1.380 . S
C273 C272 1.170 . S
C274 C272 1.380 . S
C274 C275 1.170 . S
C275 C274 1.170 . S
C276 C277 1.170 . S
C276 C278 1.380 . S
C277 C276 1.170 . S
C278 C276 1.380 . S
C278 C279 1.170 . S
C279 C278 1.170 . S
C280 C281 1.170 . S
C280 C282 1.380 . S
C281 C280 1.170 . S
C282 C280 1.380 . S
C282 C283 1.170 . S
C283 C282 1.170 . S
C284 C285 1.170 . S
C284 C286 1.380 . S
C285 C284 1.170 . S
C286 C284 1.380 . S
C286 C287 1.170 . S
C287 C286 1.170 . S
C288 C289 1.170 . S
C288 C290 1.380 . S
C289 C288 1.170 . S
C290 C288 1.380 . S
C290 C291 1.170 . S
C291 C290 1.170 . S
C292 C293 1.170 . S
C292 C294 1.380 . S
C293 C292 1.170 . S
C294 C292 1.380 . S
C294 C295 1.170 . S
C295 C294 1.170 . S
C296 C297 1.170 . S
C296 C298 1.380 . S
C297 C296 1.170 . S
C298 C296 1.380 . S
C298 C299 1.170 . S
C299 C298 1.170 . S
C300 C301 1.170 . S
C300 C302 1.380 . S
C301 C300 1.170 . S
C302 C300 1.380 . S
C302 C303 1.170 . S
C303 C302 1.170 . S
C304 C305 1.170 . S
C304 C306 1.380 . S
C305 C304 1.170 . S
C306 C304 1.380 . S
C306 C307 1.170 . S
C307 C306 1.170 . S
C308 C309 1.170 . S
C308 C310 1.380 . S
C309 C308 1.170 . S
C310 C308 1.380 . S
C310 C311 1.170 . S
C311 C310 1.170 . S
C312 C313 1.170 . S
C312 C314 1.380 . S
C313 C312 1.170 . S
C314 C312 1.380 . S
C314 C315 1.170 . S
C315 C314 1.170 . S
C316 C317 1.170 . S
C316 C318 1.380 . S
C317 C316 1.170 . S
C318 C316 1.380 . S
C318 C319 1.170 . S
C319 C318 1.170 . S
C320 C321 1.170 . S
C320 C322 1.380 . S
C321 C320 1.170 . S
C322 C320 1.380 . S
C322 C323 1.170 . S
C323 C322 1.170 . S
C324 C325 1.170 . S
C324 C326 1.380 . S
C325 C324 1.170 . S
C326 C324 1.380 . S
C326 C327 1.170 . S
C327 C326 1.170 . S
C328 C329 1.170 . S
C328 C330 1.380 . S
C329 C328 1.170 . S
C330 C328 1.380 . S
C330 C331 1.170 . S
C331 C330 1.170 . S
C332 C333 1.170 . S
C332 C334 1.380 . S
C333 C332 1.170 . S
C334 C332 1.380 . S
C334 C335 1.170 . S
C335 C334 1.170 . S
C336 C337 1.170 . S
C336 C338 1.380 . S
C337 C336 1.170 . S
C338 C336 1.380 . S
C338 C339 1.170 . S
C339 C338 1.170 . S
C340 C341 1.170 . S
C340 C342 1.380 . S
C341 C340 1.170 . S
C342 C340 1.380 . S
C342 C343 1.170 . S
C343 C342 1.170 . S
C344 C345 1.170 . S
C344 C346 1.380 . S
C345 C344 1.170 . S
C346 C344 1.380 . S
C346 C347 1.170 . S
C347 C346 1.170 . S
C348 C349 1.170 . S
C348 C350 1.380 . S
C349 C348 1.170 . S
C350 C348 1.380 . S
C350 C351 1.170 . S
C351 C350 1.170 . S
C227 C113 1.534 . S
C225 C0 1.561 . S
C231 C139 1.534 . S
C229 C26 1.561 . S
C235 C153 1.555 . S
C233 C40 1.551 . S
C239 C155 1.538 . S
C237 C43 1.562 . S
C241 C57 1.562 . S
C243 C152 1.535 . S
C247 C154 1.537 . S
C245 C70 1.560 . S
C251 C112 1.556 . S
C249 C97 1.552 . S
C255 C138 1.552 . S
C253 C111 1.554 . S
C259 C140 1.547 . S
C257 C98 1.551 . S
C263 C166 1.534 . S
C261 C68 1.561 . S
C267 C124 1.547 . S
C265 C83 1.548 . S
C271 C126 1.554 . S
C269 C84 1.556 . S
C275 C125 1.541 . S
C273 C15 1.564 . S
C279 C127 1.556 . S
C277 C29 1.554 . S
C283 C141 1.550 . S
C281 C54 1.548 . S
C287 C167 1.545 . S
C285 C13 1.561 . S
C291 C169 1.547 . S
C289 C99 1.556 . S
C293 C69 1.562 . S
C295 C195 1.537 . S
C297 C82 1.555 . S
C299 C208 1.550 . S
C301 C85 1.560 . S
C303 C211 1.539 . S
C305 C14 1.552 . S
C307 C209 1.550 . S
C309 C28 1.551 . S
C311 C210 1.554 . S
C313 C55 1.554 . S
C315 C168 1.549 . S
C319 C194 1.547 . S
C317 C12 1.555 . S
C323 C197 1.543 . S
C321 C1 1.561 . S
C325 C27 1.562 . S
C327 C222 1.545 . S
C329 C41 1.563 . S
C331 C180 1.539 . S
C333 C42 1.554 . S
C335 C182 1.536 . S
C339 C181 1.537 . S
C337 C56 1.557 . S
C343 C183 1.536 . S
C341 C71 1.560 . S
C345 C96 1.552 . S
C347 C196 1.557 . S
C351 C223 1.555 . S
C349 C110 1.552 . S
