# Generated by pormake.
# Topology eea, (3,6)-cn, num edge types: 1
# Building blocks:
#     Node 0, Type 0, BuildingBlock: OLANEW_clean_sbu_2, # of connection points: 3
#     Node 1, Type 0, BuildingBlock: OLANEW_clean_sbu_2, # of connection points: 3
#     Node 2, Type 0, BuildingBlock: OLANEW_clean_sbu_2, # of connection points: 3
#     Node 3, Type 0, BuildingBlock: OLANEW_clean_sbu_2, # of connection points: 3
#     Node 4, Type 0, BuildingBlock: OLANEW_clean_sbu_2, # of connection points: 3
#     Node 5, Type 0, BuildingBlock: OLANEW_clean_sbu_2, # of connection points: 3
#     Node 6, Type 0, BuildingBlock: OLANEW_clean_sbu_2, # of connection points: 3
#     Node 7, Type 0, BuildingBlock: OLANEW_clean_sbu_2, # of connection points: 3
#     Node 8, Type 0, BuildingBlock: OLANEW_clean_sbu_2, # of connection points: 3
#     Node 9, Type 0, BuildingBlock: OLANEW_clean_sbu_2, # of connection points: 3
#     Node 10, Type 0, BuildingBlock: OLANEW_clean_sbu_2, # of connection points: 3
#     Node 11, Type 0, BuildingBlock: OLANEW_clean_sbu_2, # of connection points: 3
#     Node 12, Type 0, BuildingBlock: OLANEW_clean_sbu_2, # of connection points: 3
#     Node 13, Type 0, BuildingBlock: OLANEW_clean_sbu_2, # of connection points: 3
#     Node 14, Type 0, BuildingBlock: OLANEW_clean_sbu_2, # of connection points: 3
#     Node 15, Type 0, BuildingBlock: OLANEW_clean_sbu_2, # of connection points: 3
#     Node 16, Type 0, BuildingBlock: OLANEW_clean_sbu_2, # of connection points: 3
#     Node 17, Type 0, BuildingBlock: OLANEW_clean_sbu_2, # of connection points: 3
#     Node 18, Type 1, BuildingBlock: KUMJIN_clean_sbu_0, # of connection points: 6
#     Node 19, Type 1, BuildingBlock: KUMJIN_clean_sbu_0, # of connection points: 6
#     Node 20, Type 1, BuildingBlock: KUMJIN_clean_sbu_0, # of connection points: 6
#     Node 21, Type 1, BuildingBlock: KUMJIN_clean_sbu_0, # of connection points: 6
#     Node 22, Type 1, BuildingBlock: KUMJIN_clean_sbu_0, # of connection points: 6
#     Node 23, Type 1, BuildingBlock: KUMJIN_clean_sbu_0, # of connection points: 6
#     Node 24, Type 1, BuildingBlock: KUMJIN_clean_sbu_0, # of connection points: 6
#     Node 25, Type 1, BuildingBlock: KUMJIN_clean_sbu_0, # of connection points: 6
#     Node 26, Type 1, BuildingBlock: KUMJIN_clean_sbu_0, # of connection points: 6
#     Edge 27, Type (0, 1), BuildingBlock: KIFKEQ_clean_linker_1, # of connection points: 2
#     Edge 28, Type (0, 1), BuildingBlock: KIFKEQ_clean_linker_1, # of connection points: 2
#     Edge 29, Type (0, 1), BuildingBlock: KIFKEQ_clean_linker_1, # of connection points: 2
#     Edge 30, Type (0, 1), BuildingBlock: KIFKEQ_clean_linker_1, # of connection points: 2
#     Edge 31, Type (0, 1), BuildingBlock: KIFKEQ_clean_linker_1, # of connection points: 2
#     Edge 32, Type (0, 1), BuildingBlock: KIFKEQ_clean_linker_1, # of connection points: 2
#     Edge 33, Type (0, 1), BuildingBlock: KIFKEQ_clean_linker_1, # of connection points: 2
#     Edge 34, Type (0, 1), BuildingBlock: KIFKEQ_clean_linker_1, # of connection points: 2
#     Edge 35, Type (0, 1), BuildingBlock: KIFKEQ_clean_linker_1, # of connection points: 2
#     Edge 36, Type (0, 1), BuildingBlock: KIFKEQ_clean_linker_1, # of connection points: 2
#     Edge 37, Type (0, 1), BuildingBlock: KIFKEQ_clean_linker_1, # of connection points: 2
#     Edge 38, Type (0, 1), BuildingBlock: KIFKEQ_clean_linker_1, # of connection points: 2
#     Edge 39, Type (0, 1), BuildingBlock: KIFKEQ_clean_linker_1, # of connection points: 2
#     Edge 40, Type (0, 1), BuildingBlock: KIFKEQ_clean_linker_1, # of connection points: 2
#     Edge 41, Type (0, 1), BuildingBlock: KIFKEQ_clean_linker_1, # of connection points: 2
#     Edge 42, Type (0, 1), BuildingBlock: KIFKEQ_clean_linker_1, # of connection points: 2
#     Edge 43, Type (0, 1), BuildingBlock: KIFKEQ_clean_linker_1, # of connection points: 2
#     Edge 44, Type (0, 1), BuildingBlock: KIFKEQ_clean_linker_1, # of connection points: 2
#     Edge 45, Type (0, 1), BuildingBlock: KIFKEQ_clean_linker_1, # of connection points: 2
#     Edge 46, Type (0, 1), BuildingBlock: KIFKEQ_clean_linker_1, # of connection points: 2
#     Edge 47, Type (0, 1), BuildingBlock: KIFKEQ_clean_linker_1, # of connection points: 2
#     Edge 48, Type (0, 1), BuildingBlock: KIFKEQ_clean_linker_1, # of connection points: 2
#     Edge 49, Type (0, 1), BuildingBlock: KIFKEQ_clean_linker_1, # of connection points: 2
#     Edge 50, Type (0, 1), BuildingBlock: KIFKEQ_clean_linker_1, # of connection points: 2
#     Edge 51, Type (0, 1), BuildingBlock: KIFKEQ_clean_linker_1, # of connection points: 2
#     Edge 52, Type (0, 1), BuildingBlock: KIFKEQ_clean_linker_1, # of connection points: 2
#     Edge 53, Type (0, 1), BuildingBlock: KIFKEQ_clean_linker_1, # of connection points: 2
#     Edge 54, Type (0, 1), BuildingBlock: KIFKEQ_clean_linker_1, # of connection points: 2
#     Edge 55, Type (0, 1), BuildingBlock: KIFKEQ_clean_linker_1, # of connection points: 2
#     Edge 56, Type (0, 1), BuildingBlock: KIFKEQ_clean_linker_1, # of connection points: 2
#     Edge 57, Type (0, 1), BuildingBlock: KIFKEQ_clean_linker_1, # of connection points: 2
#     Edge 58, Type (0, 1), BuildingBlock: KIFKEQ_clean_linker_1, # of connection points: 2
#     Edge 59, Type (0, 1), BuildingBlock: KIFKEQ_clean_linker_1, # of connection points: 2
#     Edge 60, Type (0, 1), BuildingBlock: KIFKEQ_clean_linker_1, # of connection points: 2
#     Edge 61, Type (0, 1), BuildingBlock: KIFKEQ_clean_linker_1, # of connection points: 2
#     Edge 62, Type (0, 1), BuildingBlock: KIFKEQ_clean_linker_1, # of connection points: 2
#     Edge 63, Type (0, 1), BuildingBlock: KIFKEQ_clean_linker_1, # of connection points: 2
#     Edge 64, Type (0, 1), BuildingBlock: KIFKEQ_clean_linker_1, # of connection points: 2
#     Edge 65, Type (0, 1), BuildingBlock: KIFKEQ_clean_linker_1, # of connection points: 2
#     Edge 66, Type (0, 1), BuildingBlock: KIFKEQ_clean_linker_1, # of connection points: 2
#     Edge 67, Type (0, 1), BuildingBlock: KIFKEQ_clean_linker_1, # of connection points: 2
#     Edge 68, Type (0, 1), BuildingBlock: KIFKEQ_clean_linker_1, # of connection points: 2
#     Edge 69, Type (0, 1), BuildingBlock: KIFKEQ_clean_linker_1, # of connection points: 2
#     Edge 70, Type (0, 1), BuildingBlock: KIFKEQ_clean_linker_1, # of connection points: 2
#     Edge 71, Type (0, 1), BuildingBlock: KIFKEQ_clean_linker_1, # of connection points: 2
#     Edge 72, Type (0, 1), BuildingBlock: KIFKEQ_clean_linker_1, # of connection points: 2
#     Edge 73, Type (0, 1), BuildingBlock: KIFKEQ_clean_linker_1, # of connection points: 2
#     Edge 74, Type (0, 1), BuildingBlock: KIFKEQ_clean_linker_1, # of connection points: 2
#     Edge 75, Type (0, 1), BuildingBlock: KIFKEQ_clean_linker_1, # of connection points: 2
#     Edge 76, Type (0, 1), BuildingBlock: KIFKEQ_clean_linker_1, # of connection points: 2
#     Edge 77, Type (0, 1), BuildingBlock: KIFKEQ_clean_linker_1, # of connection points: 2
#     Edge 78, Type (0, 1), BuildingBlock: KIFKEQ_clean_linker_1, # of connection points: 2
#     Edge 79, Type (0, 1), BuildingBlock: KIFKEQ_clean_linker_1, # of connection points: 2
#     Edge 80, Type (0, 1), BuildingBlock: KIFKEQ_clean_linker_1, # of connection points: 2
# Relax obj value: 0.012
# Max RMSD: 0.158
# Mean RMSD: 0.110
data_MOF--net-eea--node1-OLANEW_clean_sbu_2--node2-KUMJIN_clean_sbu_0--edge1-KIFKEQ_clean_linker_1
_symmetry_space_group_name_H-M    P1
_symmetry_Int_Tables_number       1
_symmetry_cell_setting            triclinic
loop_
_symmetry_equiv_pos_as_xyz
'x, y, z'
_cell_length_a     61.831723
_cell_length_b     61.327945
_cell_length_c     69.659962
_cell_angle_alpha  94.526282
_cell_angle_beta   90.218921
_cell_angle_gamma 120.81712
loop_
_atom_site_label
_atom_site_type_symbol
_atom_site_fract_x
_atom_site_fract_y
_atom_site_fract_z
_atom_type_partial_charge
O0 O 0.23544 0.13827 0.43572 0.0
Cd1 Cd 0.20626 0.12346 0.40734 0.0
O2 O 0.2649 0.13714 0.41886 0.0
Cd3 Cd 0.23906 0.11385 0.3944 0.0
O4 O 0.22081 0.07393 0.38284 0.0
C5 C 0.22028 0.05939 0.39511 0.0
O6 O 0.22941 0.06939 0.41277 0.0
C7 C 0.25786 0.1427 0.43468 0.0
C8 C 0.19986 0.16212 0.39497 0.0
O9 O 0.18458 0.14654 0.40643 0.0
O10 O 0.21814 0.15942 0.38939 0.0
O11 O 0.89194 0.20366 0.41732 0.0
Cd12 Cd 0.90424 0.2087 0.38385 0.0
O13 O 0.88849 0.16623 0.41502 0.0
Cd14 Cd 0.87442 0.12745 0.42246 0.0
O15 O 0.85319 0.08612 0.4161 0.0
C16 C 0.83617 0.07138 0.42676 0.0
O17 O 0.832 0.08113 0.44279 0.0
C18 C 0.88608 0.1832 0.42476 0.0
C19 C 0.9559 0.23422 0.37877 0.0
O20 O 0.94463 0.2464 0.38335 0.0
O21 O 0.94283 0.20978 0.37694 0.0
O22 O 0.89602 0.74591 0.43618 0.0
Cd23 Cd 0.91053 0.76152 0.4043 0.0
O24 O 0.8616 0.74865 0.43781 0.0
Cd25 Cd 0.85779 0.76592 0.41246 0.0
O26 O 0.83282 0.77625 0.39796 0.0
C27 C 0.83169 0.79544 0.40498 0.0
O28 O 0.8467 0.80954 0.41996 0.0
C29 C 0.87658 0.74252 0.44493 0.0
C30 C 0.9593 0.772 0.3953 0.0
O31 O 0.95516 0.7901 0.40012 0.0
O32 O 0.94074 0.74905 0.39512 0.0
O33 O 0.14779 0.24807 0.58309 0.0
Cd34 Cd 0.14232 0.22581 0.61219 0.0
O35 O 0.11373 0.25128 0.58022 0.0
Cd36 Cd 0.08936 0.23273 0.60399 0.0
O37 O 0.05342 0.22199 0.61778 0.0
C38 C 0.04064 0.2307 0.61071 0.0
O39 O 0.04975 0.24504 0.59634 0.0
C40 C 0.13487 0.2554 0.57425 0.0
C41 C 0.18371 0.22006 0.62075 0.0
O42 O 0.16482 0.20308 0.60989 0.0
O43 O 0.18316 0.23981 0.62753 0.0
O44 O 0.69873 0.81475 0.6082 0.0
Cd45 Cd 0.71073 0.81305 0.6412 0.0
O46 O 0.73355 0.85185 0.60925 0.0
Cd47 Cd 0.75893 0.89019 0.60105 0.0
O48 O 0.77911 0.93147 0.60762 0.0
C49 C 0.77645 0.94594 0.59702 0.0
O50 O 0.76227 0.93595 0.58098 0.0
C51 C 0.71328 0.83475 0.60013 0.0
C52 C 0.73459 0.78526 0.64371 0.0
O53 O 0.71056 0.77451 0.64419 0.0
O54 O 0.74738 0.80923 0.64183 0.0
O55 O 0.06405 0.84799 0.56538 0.0
Cd56 Cd 0.04584 0.8607 0.59177 0.0
O57 O 0.09868 0.87392 0.5826 0.0
Cd58 Cd 0.13899 0.8995 0.58897 0.0
O59 O 0.1719 0.93548 0.60012 0.0
C60 C 0.16885 0.95451 0.60156 0.0
O61 O 0.14694 0.95115 0.59598 0.0
C62 C 0.08787 0.85899 0.56744 0.0
C63 C 0.00936 0.81962 0.60974 0.0
O64 O 0.00341 0.82838 0.59584 0.0
O65 O 0.03272 0.83023 0.61508 0.0
O66 O 0.90059 0.46011 0.78048 0.0
Cd67 Cd 0.86702 0.44041 0.75505 0.0
O68 O 0.93189 0.47091 0.76121 0.0
Cd69 Cd 0.90581 0.44721 0.73705 0.0
O70 O 0.88738 0.40917 0.72178 0.0
C71 C 0.90208 0.40174 0.71563 0.0
O72 O 0.92655 0.4178 0.71763 0.0
C73 C 0.92415 0.47117 0.77806 0.0
C74 C 0.86104 0.47719 0.73876 0.0
O75 O 0.85075 0.46833 0.75447 0.0
O76 O 0.87405 0.46854 0.73063 0.0
O77 O 0.56225 0.48416 0.76078 0.0
Cd78 Cd 0.56728 0.46894 0.72846 0.0
O79 O 0.57528 0.46331 0.77697 0.0
Cd80 Cd 0.57272 0.43964 0.75107 0.0
O81 O 0.54749 0.40286 0.73503 0.0
C82 C 0.52829 0.40002 0.72583 0.0
O83 O 0.52542 0.41973 0.72514 0.0
C84 C 0.56786 0.47917 0.77679 0.0
C85 C 0.61428 0.50182 0.7146 0.0
O86 O 0.59666 0.50697 0.71457 0.0
O87 O 0.60981 0.48103 0.72114 0.0
O88 O 0.56681 0.08984 0.7691 0.0
Cd89 Cd 0.58265 0.11209 0.73965 0.0
O90 O 0.53212 0.09199 0.77004 0.0
Cd91 Cd 0.53203 0.11167 0.74496 0.0
O92 O 0.50969 0.12381 0.72884 0.0
C93 C 0.48847 0.11761 0.73576 0.0
O94 O 0.48227 0.10512 0.75124 0.0
C95 C 0.54653 0.08515 0.77714 0.0
C96 C 0.62861 0.1184 0.72673 0.0
O97 O 0.6282 0.13516 0.73869 0.0
O98 O 0.60744 0.09835 0.72124 0.0
O99 O 0.82504 0.58064 0.92275 0.0
Cd100 Cd 0.82466 0.56975 0.95604 0.0
O101 O 0.78935 0.5808 0.92025 0.0
Cd102 Cd 0.77104 0.56863 0.94752 0.0
O103 O 0.73776 0.56041 0.96409 0.0
C104 C 0.71621 0.5429 0.95695 0.0
O105 O 0.71504 0.52973 0.94075 0.0
C106 C 0.80964 0.58407 0.9131 0.0
C107 C 0.86493 0.56282 0.96555 0.0
O108 O 0.84274 0.54365 0.96126 0.0
O109 O 0.86819 0.58517 0.96527 0.0
O110 O 0.36196 0.14044 0.91767 0.0
Cd111 Cd 0.37285 0.14277 0.95184 0.0
O112 O 0.38861 0.18131 0.92282 0.0
Cd113 Cd 0.41127 0.22161 0.91787 0.0
O114 O 0.42992 0.26293 0.9234 0.0
C115 C 0.44182 0.2725 0.93965 0.0
O116 O 0.44286 0.2573 0.95142 0.0
C117 C 0.37291 0.16232 0.91141 0.0
C118 C 0.39931 0.11901 0.96042 0.0
O119 O 0.3753 0.10756 0.96149 0.0
O120 O 0.41077 0.14152 0.95485 0.0
O121 O 0.74473 0.18036 0.8983 0.0
Cd122 Cd 0.72933 0.19189 0.92742 0.0
O123 O 0.78055 0.21205 0.91084 0.0
Cd124 Cd 0.82023 0.24225 0.91246 0.0
O125 O 0.85335 0.27895 0.92244 0.0
C126 C 0.85027 0.29794 0.92474 0.0
O127 O 0.828 0.29456 0.92036 0.0
C128 C 0.76838 0.19475 0.89717 0.0
C129 C 0.68863 0.15182 0.94357 0.0
O130 O 0.68523 0.1641 0.93098 0.0
O131 O 0.71133 0.15813 0.94819 0.0
O132 O 0.54135 0.80252 0.13586 0.0
Cd133 Cd 0.50926 0.78437 0.10937 0.0
O134 O 0.5555 0.78125 0.11919 0.0
Cd135 Cd 0.57619 0.76151 0.1139 0.0
O136 O 0.57676 0.72766 0.10266 0.0
C137 C 0.55526 0.70732 0.1015 0.0
O138 O 0.53577 0.70851 0.10758 0.0
C139 C 0.55734 0.79544 0.13417 0.0
C140 C 0.50926 0.8204 0.08756 0.0
O141 O 0.49431 0.81167 0.10134 0.0
O142 O 0.52445 0.8123 0.08425 0.0
O143 O 0.23176 0.81939 0.09704 0.0
Cd144 Cd 0.24118 0.80339 0.06672 0.0
O145 O 0.24759 0.80276 0.11531 0.0
Cd146 Cd 0.24785 0.77843 0.09096 0.0
O147 O 0.22209 0.74054 0.0767 0.0
C148 C 0.19944 0.73497 0.07377 0.0
O149 O 0.19366 0.75253 0.07826 0.0
C150 C 0.23776 0.8164 0.11371 0.0
C151 C 0.28731 0.83854 0.05247 0.0
O152 O 0.26694 0.83792 0.04773 0.0
O153 O 0.2859 0.82268 0.06406 0.0
O154 O 0.24537 0.42718 0.10225 0.0
Cd155 Cd 0.26065 0.44749 0.07212 0.0
O156 O 0.21321 0.43343 0.10439 0.0
Cd157 Cd 0.21336 0.45064 0.0779 0.0
O158 O 0.1899 0.46034 0.06082 0.0
C159 C 0.16683 0.44887 0.06494 0.0
O160 O 0.15957 0.43262 0.07813 0.0
C161 C 0.22661 0.42525 0.11121 0.0
C162 C 0.30675 0.45289 0.0609 0.0
O163 O 0.30616 0.46996 0.07237 0.0
O164 O 0.28563 0.43307 0.05497 0.0
O165 O 0.47903 0.90739 0.25217 0.0
Cd166 Cd 0.47231 0.88844 0.28317 0.0
O167 O 0.44445 0.90956 0.2492 0.0
Cd168 Cd 0.42299 0.89393 0.27485 0.0
O169 O 0.38886 0.88471 0.2908 0.0
C170 C 0.3754 0.89291 0.28417 0.0
O171 O 0.3829 0.90594 0.269 0.0
C172 C 0.46527 0.91328 0.2428 0.0
C173 C 0.51268 0.88393 0.29713 0.0
O174 O 0.49504 0.86618 0.28575 0.0
O175 O 0.51153 0.90396 0.30169 0.0
O176 O 0.09552 0.54031 0.2609 0.0
Cd177 Cd 0.12046 0.55427 0.29164 0.0
O178 O 0.1281 0.55027 0.24314 0.0
Cd179 Cd 0.1525 0.5765 0.26725 0.0
O180 O 0.16094 0.61248 0.28307 0.0
C181 C 0.14232 0.61578 0.2849 0.0
O182 O 0.11989 0.59738 0.27813 0.0
C183 C 0.10441 0.53983 0.24454 0.0
C184 C 0.13295 0.51888 0.30232 0.0
O185 O 0.11205 0.51708 0.30678 0.0
O186 O 0.14802 0.53742 0.29276 0.0
O187 O 0.44427 0.51084 0.25261 0.0
Cd188 Cd 0.43291 0.52628 0.28207 0.0
O189 O 0.48336 0.54282 0.25744 0.0
Cd190 Cd 0.47872 0.56271 0.28291 0.0
O191 O 0.49752 0.60069 0.29824 0.0
C192 C 0.51264 0.61785 0.28791 0.0
O193 O 0.51438 0.61117 0.26985 0.0
C194 C 0.46689 0.5227 0.24746 0.0
C195 C 0.38637 0.49045 0.29491 0.0
O196 O 0.38814 0.50642 0.28328 0.0
O197 O 0.40664 0.49132 0.30036 0.0
Eu198 Eu 0.48487 0.97345 0.98209 0.0
C199 C 0.54608 0.06864 0.04255 0.0
C200 C 0.58899 0.07862 0.03892 0.0
C201 C 0.58071 0.1125 0.04858 0.0
C202 C 0.56284 0.06084 0.03788 0.0
C203 C 0.55482 0.09444 0.04855 0.0
C204 C 0.59779 0.1046 0.04374 0.0
C205 C 0.51216 0.08202 0.05623 0.0
N206 N 0.52134 0.05061 0.04269 0.0
C207 C 0.50453 0.05666 0.05028 0.0
C208 C 0.53737 0.10108 0.05507 0.0
Eu209 Eu 0.50907 0.00825 0.03121 0.0
N210 N 0.55364 0.03556 0.03361 0.0
C211 C 0.56974 0.02654 0.0319 0.0
C212 C 0.60552 0.06962 0.03579 0.0
C213 C 0.59585 0.04341 0.03263 0.0
H214 H 0.48504 0.04191 0.05122 0.0
H215 H 0.60847 0.03617 0.03068 0.0
H216 H 0.61779 0.11859 0.04439 0.0
H217 H 0.49863 0.08682 0.06173 0.0
H218 H 0.56261 0.00637 0.02936 0.0
H219 H 0.38563 0.94575 0.9756 0.0
H220 H 0.62574 0.08264 0.0364 0.0
H221 H 0.51137 0.93907 0.96913 0.0
H222 H 0.43137 0.97552 0.98031 0.0
H223 H 0.49834 0.89411 0.95963 0.0
H224 H 0.58779 0.13247 0.05292 0.0
H225 H 0.36877 0.89946 0.96897 0.0
H226 H 0.37724 0.86367 0.96271 0.0
H227 H 0.54331 0.12069 0.05981 0.0
H228 H 0.40786 0.8496 0.95832 0.0
N229 N 0.44061 0.94646 0.97689 0.0
C230 C 0.42443 0.95543 0.97738 0.0
C231 C 0.38895 0.91247 0.97101 0.0
C232 C 0.40569 0.90353 0.96951 0.0
C233 C 0.39839 0.93858 0.97472 0.0
C234 C 0.43177 0.92126 0.97242 0.0
H235 H 0.45303 0.86084 0.95692 0.0
N236 N 0.47387 0.93108 0.97216 0.0
C237 C 0.48425 0.89923 0.96258 0.0
C238 C 0.44894 0.91332 0.97 0.0
C239 C 0.49157 0.92464 0.9679 0.0
C240 C 0.45866 0.88051 0.96111 0.0
C241 C 0.44061 0.88748 0.96456 0.0
O242 O 0.50487 0.97976 0.95541 0.0
O243 O 0.51646 0.00613 0.99999 0.0
O244 O 0.50041 0.03314 0.01422 0.0
O245 O 0.47566 0.00484 0.98759 0.0
O246 O 0.52616 0.98589 0.9804 0.0
O247 O 0.47403 0.98682 0.95771 0.0
O248 O 0.49201 0.00178 0.05923 0.0
O249 O 0.47711 0.977 0.01293 0.0
O250 O 0.4862 0.94672 0.00187 0.0
O251 O 0.51777 0.97654 0.02409 0.0
O252 O 0.46763 0.99472 0.03484 0.0
O253 O 0.52125 0.9932 0.05357 0.0
C254 C 0.53486 0.0056 0.99281 0.0
C255 C 0.48229 0.97528 0.92658 0.0
C256 C 0.4845 0.98057 0.89204 0.0
C257 C 0.49233 0.99086 0.91134 0.0
C258 C 0.46662 0.95436 0.88832 0.0
C259 C 0.46446 0.94929 0.92252 0.0
C260 C 0.45673 0.93891 0.90346 0.0
C261 C 0.48511 0.02665 0.9987 0.0
C262 C 0.49078 0.98639 0.94659 0.0
C263 C 0.41464 0.86958 0.96234 0.0
C264 C 0.39721 0.8776 0.96483 0.0
C265 C 0.45877 0.97692 0.02081 0.0
C266 C 0.51822 0.0061 0.08573 0.0
C267 C 0.51037 0.99128 0.10152 0.0
C268 C 0.52146 0.00213 0.12019 0.0
C269 C 0.54045 0.0281 0.12268 0.0
C270 C 0.53725 0.03185 0.08858 0.0
C271 C 0.54826 0.04276 0.10698 0.0
C272 C 0.5033 0.95291 0.01596 0.0
C273 C 0.50655 0.99451 0.06635 0.0
H274 H 0.50593 0.01101 0.91457 0.0
H275 H 0.46043 0.94571 0.87367 0.0
H276 H 0.45659 0.93705 0.93406 0.0
H277 H 0.44302 0.91879 0.90039 0.0
H278 H 0.49587 0.97129 0.09918 0.0
H279 H 0.54906 0.03726 0.13682 0.0
H280 H 0.54358 0.04349 0.07661 0.0
H281 H 0.56286 0.0627 0.10911 0.0
Eu282 Eu 0.04156 0.51908 0.98583 0.0
C283 C 0.94528 0.47996 0.03302 0.0
C284 C 0.93632 0.51415 0.03502 0.0
C285 C 0.90196 0.47016 0.03461 0.0
C286 C 0.95363 0.50568 0.03351 0.0
C287 C 0.91942 0.46196 0.0341 0.0
C288 C 0.9104 0.49622 0.03504 0.0
C289 C 0.93025 0.42946 0.03596 0.0
N290 N 0.96264 0.4727 0.03266 0.0
C291 C 0.95569 0.44804 0.03494 0.0
C292 C 0.91198 0.43637 0.03525 0.0
Eu293 Eu 0.00517 0.50511 0.03004 0.0
N294 N 0.9788 0.52251 0.03356 0.0
C295 C 0.98806 0.54812 0.03659 0.0
C296 C 0.94564 0.54041 0.03702 0.0
C297 C 0.97165 0.55746 0.03816 0.0
H298 H 0.96974 0.44259 0.0354 0.0
H299 H 0.97907 0.5778 0.04008 0.0
H300 H 0.89679 0.50235 0.03593 0.0
H301 H 0.92474 0.40982 0.03726 0.0
H302 H 0.00812 0.56148 0.0373 0.0
H303 H 0.0681 0.44672 0.97541 0.0
H304 H 0.93296 0.5477 0.03816 0.0
H305 H 0.07637 0.58154 0.98073 0.0
H306 H 0.03893 0.46278 0.97863 0.0
H307 H 0.12112 0.6145 0.97802 0.0
H308 H 0.88197 0.45658 0.03521 0.0
H309 H 0.11412 0.47702 0.97613 0.0
H310 H 0.15002 0.52245 0.97726 0.0
H311 H 0.89229 0.42195 0.03609 0.0
H312 H 0.16446 0.56811 0.97781 0.0
N313 N 0.06806 0.50187 0.98168 0.0
C314 C 0.05892 0.47626 0.97889 0.0
C315 C 0.10138 0.48421 0.97754 0.0
C316 C 0.11053 0.51043 0.97921 0.0
C317 C 0.07542 0.46705 0.97707 0.0
C318 C 0.09314 0.51877 0.98111 0.0
H319 H 0.15379 0.60258 0.97777 0.0
N320 N 0.0838 0.55149 0.98234 0.0
C321 C 0.11581 0.59487 0.97901 0.0
C322 C 0.10127 0.54439 0.98143 0.0
C323 C 0.0905 0.57617 0.98049 0.0
C324 C 0.1342 0.58807 0.97894 0.0
C325 C 0.127 0.56251 0.97987 0.0
O326 O 0.03708 0.53395 0.95966 0.0
O327 O 0.00983 0.5186 1.00092 0.0
O328 O 0.9796 0.47683 0.00556 0.0
O329 O 0.0094 0.47748 0.98476 0.0
O330 O 0.03034 0.54918 0.98521 0.0
O331 O 0.02908 0.495 0.95859 0.0
O332 O 0.01273 0.49128 0.05558 0.0
O333 O 0.03718 0.50578 0.0151 0.0
O334 O 0.06738 0.54644 0.01031 0.0
O335 O 0.03809 0.54677 0.03122 0.0
O336 O 0.01554 0.47455 0.03019 0.0
O337 O 0.01274 0.52664 0.05836 0.0
C338 C 0.01116 0.53842 0.99573 0.0
C339 C 0.04286 0.51622 0.93037 0.0
C340 C 0.0392 0.51502 0.89542 0.0
C341 C 0.02844 0.51195 0.91347 0.0
C342 C 0.06485 0.52274 0.89459 0.0
C343 C 0.06836 0.52375 0.92938 0.0
C344 C 0.07929 0.52702 0.91151 0.0
C345 C 0.98609 0.46685 0.99076 0.0
C346 C 0.0308 0.51306 0.9488 0.0
C347 C 0.14457 0.55446 0.97883 0.0
C348 C 0.13635 0.52846 0.97851 0.0
C349 C 0.03506 0.48544 0.01998 0.0
C350 C 1.00043 0.50169 0.08496 0.0
C351 C 0.01379 0.50634 0.10257 0.0
C352 C 1.00102 0.49608 0.11932 0.0
C353 C 0.97442 0.48143 0.11794 0.0
C354 C 0.97404 0.48765 0.0841 0.0
C355 C 0.96113 0.47761 0.10053 0.0
C356 C 0.06132 0.55703 0.02494 0.0
C357 C 0.01439 0.50967 0.06738 0.0
H358 H 0.00883 0.50652 0.91445 0.0
H359 H 0.07362 0.52509 0.88088 0.0
H360 H 0.07974 0.52714 0.94234 0.0
H361 H 0.09899 0.53284 0.91077 0.0
H362 H 0.03417 0.51785 0.10302 0.0
H363 H 0.96372 0.47249 0.13016 0.0
H364 H 0.96343 0.48404 0.07071 0.0
H365 H 0.94073 0.4664 0.0997 0.0
Eu366 Eu 0.52322 0.48947 0.03288 0.0
C367 C 0.47103 0.53533 0.98675 0.0
C368 C 0.4266 0.50306 0.98453 0.0
C369 C 0.43962 0.54783 0.98499 0.0
C370 C 0.45214 0.50999 0.98612 0.0
C371 C 0.46502 0.55451 0.98578 0.0
C372 C 0.42044 0.52214 0.98439 0.0
C373 C 0.50957 0.5852 0.98484 0.0
N374 N 0.49533 0.54111 0.98734 0.0
C375 C 0.51456 0.56548 0.98569 0.0
C376 C 0.4847 0.57975 0.98511 0.0
Eu377 Eu 0.5024 0.50694 0.98963 0.0
N378 N 0.45875 0.49204 0.98617 0.0
C379 C 0.4408 0.46673 0.98331 0.0
C380 C 0.40805 0.47713 0.98267 0.0
C381 C 0.41522 0.45889 0.9818 0.0
H382 H 0.53383 0.56978 0.98558 0.0
H383 H 0.40105 0.43879 0.98004 0.0
H384 H 0.40093 0.5172 0.98336 0.0
H385 H 0.5249 0.60458 0.98399 0.0
H386 H 0.44605 0.45242 0.98272 0.0
H387 H 0.62434 0.55836 0.04312 0.0
H388 H 0.38822 0.47101 0.9815 0.0
H389 H 0.49241 0.4265 0.03638 0.0
H390 H 0.57922 0.54428 0.04057 0.0
H391 H 0.50184 0.39193 0.03711 0.0
H392 H 0.43461 0.56231 0.98441 0.0
H393 H 0.63766 0.52652 0.04069 0.0
H394 H 0.62547 0.48044 0.03778 0.0
H395 H 0.48087 0.59505 0.98438 0.0
H396 H 0.59215 0.43513 0.0361 0.0
N397 N 0.56695 0.5048 0.03631 0.0
C398 C 0.58468 0.53013 0.03958 0.0
C399 C 0.61778 0.5202 0.0396 0.0
C400 C 0.59945 0.4942 0.0373 0.0
C401 C 0.61033 0.53822 0.04102 0.0
C402 C 0.57383 0.48701 0.03583 0.0
H403 H 0.546 0.40196 0.03612 0.0
N404 N 0.53074 0.4555 0.03445 0.0
C405 C 0.517 0.41142 0.03639 0.0
C406 C 0.55514 0.46155 0.0348 0.0
C407 C 0.51173 0.431 0.03603 0.0
C408 C 0.54195 0.41715 0.03577 0.0
C409 C 0.56144 0.44252 0.0353 0.0
O410 O 0.50279 0.47408 0.05856 0.0
O411 O 0.493 0.49294 0.01868 0.0
O412 O 0.50714 0.53491 0.01464 0.0
O413 O 0.53514 0.53176 0.03523 0.0
O414 O 0.48109 0.46105 0.03327 0.0
O415 O 0.5373 0.51101 0.06113 0.0
O416 O 0.52278 0.52159 0.96377 0.0
O417 O 0.53256 0.50367 0.00398 0.0
O418 O 0.51867 0.4618 0.00767 0.0
O419 O 0.49003 0.46456 0.9876 0.0
O420 O 0.54463 0.53531 0.98916 0.0
O421 O 0.48828 0.48464 0.96166 0.0
C422 C 0.47368 0.47333 0.0236 0.0
C423 C 0.52728 0.48597 0.08747 0.0
C424 C 0.52389 0.48049 0.12186 0.0
C425 C 0.51774 0.48826 0.10523 0.0
C426 C 0.53979 0.47034 0.12032 0.0
C427 C 0.54329 0.47608 0.08626 0.0
C428 C 0.54947 0.46827 0.10263 0.0
C429 C 0.52371 0.54368 0.02951 0.0
C430 C 0.51949 0.49304 0.07026 0.0
C431 C 0.58692 0.44949 0.0359 0.0
C432 C 0.60589 0.47529 0.03688 0.0
C433 C 0.55195 0.52318 0.99908 0.0
C434 C 0.49843 0.50861 0.93468 0.0
C435 C 0.50956 0.5074 0.91747 0.0
C436 C 0.50347 0.51437 0.9004 0.0
C437 C 0.4859 0.52249 0.90089 0.0
C438 C 0.48091 0.51664 0.93491 0.0
C439 C 0.47468 0.52354 0.91805 0.0
C440 C 0.50169 0.45277 0.99308 0.0
C441 C 0.50612 0.50226 0.95232 0.0
H442 H 0.50573 0.49637 0.10608 0.0
H443 H 0.54462 0.46382 0.13273 0.0
H444 H 0.55089 0.47428 0.07272 0.0
H445 H 0.56171 0.46048 0.10159 0.0
H446 H 0.52281 0.50079 0.9174 0.0
H447 H 0.48101 0.5283 0.88808 0.0
H448 H 0.47215 0.51768 0.94807 0.0
H449 H 0.46123 0.52985 0.9183 0.0
Eu450 Eu 0.16313 0.3278 0.32057 0.0
C451 C 0.23359 0.42318 0.37949 0.0
C452 C 0.27497 0.42832 0.37727 0.0
C453 C 0.27104 0.46534 0.38559 0.0
C454 C 0.24846 0.41274 0.37576 0.0
C455 C 0.24467 0.44952 0.38487 0.0
C456 C 0.28617 0.45475 0.38178 0.0
C457 C 0.20292 0.44222 0.38998 0.0
N458 N 0.20826 0.4073 0.37886 0.0
C459 C 0.19287 0.41622 0.38465 0.0
C460 C 0.22893 0.45902 0.38986 0.0
Eu461 Eu 0.19227 0.3637 0.36871 0.0
N462 N 0.23698 0.38715 0.37155 0.0
C463 C 0.25094 0.37565 0.37012 0.0
C464 C 0.28939 0.41678 0.37468 0.0
C465 C 0.2773 0.39028 0.37138 0.0
H466 H 0.17273 0.40333 0.38464 0.0
H467 H 0.28826 0.38109 0.3697 0.0
H468 H 0.30651 0.46707 0.38281 0.0
H469 H 0.19061 0.44929 0.39413 0.0
H470 H 0.24189 0.35523 0.36744 0.0
H471 H 0.06601 0.3064 0.31294 0.0
H472 H 0.30981 0.42807 0.37563 0.0
H473 H 0.18587 0.28965 0.30798 0.0
H474 H 0.1122 0.3338 0.31736 0.0
H475 H 0.17 0.24388 0.2996 0.0
H476 H 0.27991 0.48566 0.38952 0.0
H477 H 0.04624 0.2595 0.30826 0.0
H478 H 0.05163 0.22152 0.30363 0.0
H479 H 0.23669 0.47914 0.39406 0.0
H480 H 0.07996 0.2045 0.29984 0.0
N481 N 0.11864 0.30285 0.31582 0.0
C482 C 0.10388 0.31342 0.31532 0.0
C483 C 0.06656 0.27147 0.3102 0.0
C484 C 0.08191 0.26084 0.30949 0.0
C485 C 0.07765 0.29792 0.31279 0.0
C486 C 0.10826 0.27729 0.31218 0.0
H487 H 0.12411 0.21273 0.298 0.0
N488 N 0.14937 0.28437 0.31152 0.0
C489 C 0.15689 0.25031 0.30254 0.0
C490 C 0.12413 0.26773 0.30994 0.0
C491 C 0.16581 0.27623 0.30723 0.0
C492 C 0.13098 0.23278 0.30171 0.0
C493 C 0.11421 0.24144 0.30512 0.0
O494 O 0.18208 0.33287 0.2935 0.0
O495 O 0.19728 0.35843 0.33748 0.0
O496 O 0.18962 0.39064 0.34957 0.0
O497 O 0.15759 0.36179 0.32685 0.0
O498 O 0.20317 0.33617 0.31696 0.0
O499 O 0.15247 0.3417 0.29642 0.0
O500 O 0.17593 0.36001 0.39687 0.0
O501 O 0.1578 0.33448 0.35156 0.0
O502 O 0.16203 0.30036 0.34094 0.0
O503 O 0.19631 0.32884 0.3618 0.0
O504 O 0.15278 0.35603 0.37355 0.0
O505 O 0.20184 0.34671 0.39119 0.0
C506 C 0.21406 0.35557 0.32965 0.0
C507 C 0.15879 0.32835 0.2652 0.0
C508 C 0.16242 0.3315 0.23046 0.0
C509 C 0.17039 0.34255 0.24957 0.0
C510 C 0.14254 0.30598 0.2273 0.0
C511 C 0.13902 0.30297 0.26176 0.0
C512 C 0.13094 0.29189 0.24286 0.0
C513 C 0.172 0.38498 0.33593 0.0
C514 C 0.16829 0.34003 0.28493 0.0
C515 C 0.08796 0.22479 0.30336 0.0
C516 C 0.07183 0.23448 0.30554 0.0
C517 C 0.14158 0.33779 0.36 0.0
C518 C 0.20028 0.36086 0.42335 0.0
C519 C 0.19108 0.34563 0.4388 0.0
C520 C 0.20201 0.35539 0.45762 0.0
C521 C 0.22239 0.38071 0.46059 0.0
C522 C 0.22062 0.38597 0.42663 0.0
C523 C 0.23161 0.3958 0.44519 0.0
C524 C 0.17991 0.30541 0.35407 0.0
C525 C 0.18832 0.35029 0.40396 0.0
H526 H 0.18593 0.36206 0.25232 0.0
H527 H 0.13572 0.297 0.2128 0.0
H528 H 0.12997 0.29175 0.27363 0.0
H529 H 0.11564 0.27229 0.24026 0.0
H530 H 0.17557 0.32612 0.43607 0.0
H531 H 0.231 0.38903 0.47488 0.0
H532 H 0.22792 0.39793 0.41487 0.0
H533 H 0.24724 0.41524 0.44768 0.0
Eu534 Eu 0.69067 0.84929 0.33585 0.0
C535 C 0.59585 0.81262 0.38489 0.0
C536 C 0.58407 0.84443 0.38265 0.0
C537 C 0.55188 0.80055 0.38657 0.0
C538 C 0.60254 0.83744 0.38253 0.0
C539 C 0.57054 0.794 0.38739 0.0
C540 C 0.55864 0.82573 0.38419 0.0
C541 C 0.58433 0.76449 0.393 0.0
N542 N 0.61437 0.80702 0.38582 0.0
C543 C 0.60918 0.78366 0.39052 0.0
C544 C 0.56487 0.76958 0.39118 0.0
Eu545 Eu 0.65576 0.84003 0.38062 0.0
N546 N 0.62731 0.85508 0.38132 0.0
C547 C 0.63512 0.88036 0.38167 0.0
C548 C 0.59183 0.87014 0.3818 0.0
C549 C 0.61751 0.88822 0.38161 0.0
H550 H 0.62418 0.77962 0.39179 0.0
H551 H 0.62376 0.90821 0.38134 0.0
H552 H 0.54414 0.83067 0.38408 0.0
H553 H 0.5802 0.74581 0.39626 0.0
H554 H 0.6549 0.8945 0.38142 0.0
H555 H 0.72047 0.77915 0.33015 0.0
H556 H 0.57823 0.87628 0.38177 0.0
H557 H 0.72318 0.91069 0.32712 0.0
H558 H 0.69032 0.79392 0.33295 0.0
H559 H 0.76709 0.94401 0.32212 0.0
H560 H 0.53227 0.78646 0.38825 0.0
H561 H 0.76592 0.81024 0.32796 0.0
H562 H 0.80043 0.85564 0.32573 0.0
H563 H 0.54564 0.75473 0.39317 0.0
H564 H 0.81314 0.90049 0.32354 0.0
N565 N 0.71829 0.83323 0.33279 0.0
C566 C 0.71002 0.80779 0.33193 0.0
C567 C 0.75273 0.81688 0.32914 0.0
C568 C 0.76094 0.84278 0.32902 0.0
C569 C 0.72709 0.79928 0.33034 0.0
C570 C 0.74298 0.85042 0.3307 0.0
H571 H 0.80081 0.93356 0.32195 0.0
N572 N 0.7321 0.88191 0.33019 0.0
C573 C 0.7626 0.92486 0.3242 0.0
C574 C 0.75012 0.87557 0.32942 0.0
C575 C 0.73775 0.90593 0.32698 0.0
C576 C 0.78158 0.9189 0.32417 0.0
C577 C 0.77542 0.89392 0.32651 0.0
O578 O 0.6844 0.85996 0.30813 0.0
O579 O 0.65828 0.84891 0.35004 0.0
O580 O 0.63032 0.80795 0.35829 0.0
O581 O 0.66042 0.80755 0.3384 0.0
O582 O 0.67793 0.87767 0.33248 0.0
O583 O 0.67621 0.82142 0.31066 0.0
O584 O 0.66238 0.83058 0.40877 0.0
O585 O 0.6879 0.8404 0.36629 0.0
O586 O 0.71647 0.88043 0.35876 0.0
O587 O 0.6866 0.88161 0.37847 0.0
O588 O 0.66983 0.81273 0.38497 0.0
O589 O 0.66652 0.86745 0.40598 0.0
C590 C 0.65876 0.8675 0.34306 0.0
C591 C 0.6869 0.83726 0.28018 0.0
C592 C 0.67962 0.83126 0.24523 0.0
C593 C 0.6712 0.83205 0.26384 0.0
C594 C 0.70431 0.8361 0.24326 0.0
C595 C 0.71142 0.842 0.27806 0.0
C596 C 0.72007 0.84144 0.25961 0.0
C597 C 0.63724 0.79676 0.34471 0.0
C598 C 0.67702 0.8376 0.29918 0.0
C599 C 0.79357 0.88664 0.32561 0.0
C600 C 0.78634 0.86111 0.32685 0.0
C601 C 0.68822 0.82245 0.37361 0.0
C602 C 0.65235 0.84918 0.43535 0.0
C603 C 0.66379 0.85088 0.45328 0.0
C604 C 0.65038 0.84702 0.47022 0.0
C605 C 0.62531 0.84156 0.46879 0.0
C606 C 0.6275 0.84402 0.43432 0.0
C607 C 0.61409 0.84025 0.45098 0.0
C608 C 0.70985 0.89189 0.37238 0.0
C609 C 0.66621 0.85181 0.41779 0.0
H610 H 0.65242 0.82888 0.2657 0.0
H611 H 0.71132 0.83545 0.22914 0.0
H612 H 0.72378 0.84609 0.29058 0.0
H613 H 0.739 0.84505 0.25798 0.0
H614 H 0.68315 0.85526 0.45394 0.0
H615 H 0.61413 0.83783 0.48137 0.0
H616 H 0.61843 0.84275 0.42068 0.0
H617 H 0.59481 0.83603 0.45007 0.0
Eu618 Eu 0.18362 0.83156 0.36804 0.0
C619 C 0.11675 0.85173 0.31396 0.0
C620 C 0.07454 0.81569 0.31613 0.0
C621 C 0.08059 0.85692 0.3101 0.0
C622 C 0.10091 0.8264 0.317 0.0
C623 C 0.10676 0.86711 0.30994 0.0
C624 C 0.06451 0.83125 0.31321 0.0
C625 C 0.14895 0.90061 0.30402 0.0
N626 N 0.14189 0.8609 0.31372 0.0
C627 C 0.15794 0.88459 0.30805 0.0
C628 C 0.12329 0.89198 0.30526 0.0
Eu629 Eu 0.15578 0.83305 0.32143 0.0
N630 N 0.1112 0.81183 0.31952 0.0
C631 C 0.09617 0.78602 0.31965 0.0
C632 C 0.05904 0.78948 0.3175 0.0
C633 C 0.0699 0.77451 0.31888 0.0
H634 H 0.17781 0.89136 0.30721 0.0
H635 H 0.05808 0.75413 0.31951 0.0
H636 H 0.04432 0.82343 0.31273 0.0
H637 H 0.1618 0.91962 0.30002 0.0
H638 H 0.10433 0.77427 0.32088 0.0
H639 H 0.28195 0.90926 0.36995 0.0
H640 H 0.0387 0.78052 0.31693 0.0
H641 H 0.16018 0.77292 0.38201 0.0
H642 H 0.23584 0.88978 0.36788 0.0
H643 H 0.17527 0.74434 0.3903 0.0
H644 H 0.07256 0.86851 0.30727 0.0
H645 H 0.3006 0.88258 0.37449 0.0
H646 H 0.29412 0.83973 0.38026 0.0
H647 H 0.11635 0.9044 0.30208 0.0
H648 H 0.26511 0.79489 0.38597 0.0
N649 N 0.2282 0.85219 0.37066 0.0
C650 C 0.24362 0.87786 0.36993 0.0
C651 C 0.28029 0.87389 0.37359 0.0
C652 C 0.26439 0.84788 0.37554 0.0
C653 C 0.26983 0.88902 0.37108 0.0
C654 C 0.23808 0.8375 0.37415 0.0
H655 H 0.2208 0.75928 0.39007 0.0
N656 N 0.19672 0.80345 0.3768 0.0
C657 C 0.18856 0.76339 0.38663 0.0
C658 C 0.22183 0.81235 0.37737 0.0
C659 C 0.18009 0.77963 0.38197 0.0
C660 C 0.21427 0.77188 0.38643 0.0
C661 C 0.23131 0.79675 0.38203 0.0
O662 O 0.16652 0.82222 0.39582 0.0
O663 O 0.14971 0.82635 0.35231 0.0
O664 O 0.15857 0.86503 0.3418 0.0
O665 O 0.19052 0.87119 0.36345 0.0
O666 O 0.14312 0.79998 0.37146 0.0
O667 O 0.19653 0.86086 0.39225 0.0
O668 O 0.17413 0.84324 0.29419 0.0
O669 O 0.18963 0.83793 0.33707 0.0
O670 O 0.1816 0.80005 0.34767 0.0
O671 O 0.15015 0.79359 0.32527 0.0
O672 O 0.19622 0.86463 0.3181 0.0
O673 O 0.14134 0.80566 0.29583 0.0
C674 C 0.13252 0.80716 0.35956 0.0
C675 C 0.19253 0.84648 0.42326 0.0
C676 C 0.18881 0.84735 0.45809 0.0
C677 C 0.17905 0.84592 0.43949 0.0
C678 C 0.21243 0.84942 0.46024 0.0
C679 C 0.21596 0.84829 0.42556 0.0
C680 C 0.22585 0.84979 0.44402 0.0
C681 C 0.17632 0.87892 0.35553 0.0
C682 C 0.18156 0.84505 0.40419 0.0
C683 C 0.25745 0.80664 0.3826 0.0
C684 C 0.27397 0.83217 0.37934 0.0
C685 C 0.20678 0.85717 0.32981 0.0
C686 C 0.14763 0.82434 0.26629 0.0
C687 C 0.16121 0.8268 0.24973 0.0
C688 C 0.1532 0.83083 0.23211 0.0
C689 C 0.1312 0.83224 0.23138 0.0
C690 C 0.12569 0.82568 0.26527 0.0
C691 C 0.11755 0.8296 0.24786 0.0
C692 C 0.16449 0.7862 0.33351 0.0
C693 C 0.15753 0.82185 0.28465 0.0
H694 H 0.16105 0.84476 0.4376 0.0
H695 H 0.22036 0.85046 0.47441 0.0
H696 H 0.22659 0.84864 0.41316 0.0
H697 H 0.24395 0.85123 0.44576 0.0
H698 H 0.17797 0.82541 0.25062 0.0
H699 H 0.12467 0.83567 0.21814 0.0
H700 H 0.11499 0.82387 0.27789 0.0
H701 H 0.10069 0.83078 0.24716 0.0
Eu702 Eu 0.81773 0.62964 0.64926 0.0
C703 C 0.87443 0.72662 0.70854 0.0
C704 C 0.91823 0.73914 0.70592 0.0
C705 C 0.90718 0.77132 0.71436 0.0
C706 C 0.89242 0.72019 0.70466 0.0
C707 C 0.8816 0.75216 0.71398 0.0
C708 C 0.92548 0.76482 0.7103 0.0
C709 C 0.83801 0.73754 0.7201 0.0
N710 N 0.84999 0.70761 0.70827 0.0
C711 C 0.83189 0.7125 0.71465 0.0
C712 C 0.86293 0.75753 0.71949 0.0
Eu713 Eu 0.84065 0.66578 0.69811 0.0
N714 N 0.88473 0.69519 0.70072 0.0
C715 C 0.902 0.68762 0.69938 0.0
C716 C 0.93599 0.73162 0.70332 0.0
C717 C 0.92783 0.7057 0.70035 0.0
H718 H 0.81257 0.69708 0.71499 0.0
H719 H 0.94141 0.69963 0.69875 0.0
H720 H 0.9452 0.77969 0.71114 0.0
H721 H 0.82352 0.74142 0.72471 0.0
H722 H 0.89595 0.66766 0.69698 0.0
H723 H 0.71628 0.59055 0.63952 0.0
H724 H 0.956 0.74558 0.7041 0.0
H725 H 0.85072 0.6017 0.63645 0.0
H726 H 0.76094 0.62423 0.64513 0.0
H727 H 0.84307 0.55867 0.62652 0.0
H728 H 0.91307 0.7911 0.7183 0.0
H729 H 0.7045 0.54539 0.63369 0.0
H730 H 0.71836 0.51346 0.62827 0.0
H731 H 0.86766 0.7769 0.72378 0.0
H732 H 0.75291 0.50481 0.62442 0.0
N733 N 0.77442 0.5985 0.64327 0.0
C734 C 0.75613 0.60466 0.64265 0.0
C735 C 0.72417 0.56013 0.63621 0.0
C736 C 0.74314 0.55411 0.63552 0.0
C737 C 0.73074 0.58559 0.63944 0.0
C738 C 0.76845 0.57403 0.63898 0.0
H739 H 0.79945 0.52161 0.62334 0.0
N740 N 0.81187 0.58907 0.63915 0.0
C741 C 0.82735 0.56134 0.62943 0.0
C742 C 0.7878 0.56916 0.63676 0.0
C743 C 0.83161 0.5857 0.63501 0.0
C744 C 0.80271 0.54046 0.6277 0.0
C745 C 0.78253 0.54425 0.63112 0.0
O746 O 0.83791 0.63878 0.62265 0.0
O747 O 0.84814 0.6631 0.66718 0.0
O748 O 0.83182 0.6891 0.67936 0.0
O749 O 0.80436 0.6579 0.65526 0.0
O750 O 0.85983 0.64531 0.64729 0.0
O751 O 0.80455 0.64162 0.62535 0.0
O752 O 0.82383 0.65973 0.7262 0.0
O753 O 0.80954 0.63337 0.68004 0.0
O754 O 0.82082 0.60412 0.66937 0.0
O755 O 0.85104 0.63508 0.69197 0.0
O756 O 0.79895 0.65037 0.70191 0.0
O757 O 0.85467 0.65329 0.72108 0.0
C758 C 0.86737 0.66449 0.66004 0.0
C759 C 0.81421 0.63243 0.59404 0.0
C760 C 0.81678 0.63814 0.55961 0.0
C761 C 0.82416 0.64827 0.57897 0.0
C762 C 0.79945 0.61185 0.55564 0.0
C763 C 0.79701 0.60631 0.58977 0.0
C764 C 0.78971 0.5961 0.57063 0.0
C765 C 0.8146 0.68085 0.66491 0.0
C766 C 0.82214 0.64345 0.6141 0.0
C767 C 0.75736 0.52412 0.62858 0.0
C768 C 0.73769 0.52904 0.63079 0.0
C769 C 0.79087 0.63252 0.68797 0.0
C770 C 0.85124 0.66721 0.75279 0.0
C771 C 0.84491 0.65317 0.76895 0.0
C772 C 0.85595 0.66531 0.78738 0.0
C773 C 0.8734 0.69175 0.78925 0.0
C774 C 0.86876 0.69347 0.75499 0.0
C775 C 0.87975 0.70565 0.77316 0.0
C776 C 0.83782 0.6113 0.68377 0.0
C777 C 0.83959 0.65422 0.73371 0.0
H778 H 0.83731 0.66851 0.58236 0.0
H779 H 0.7936 0.60339 0.54091 0.0
H780 H 0.78926 0.59386 0.60121 0.0
H781 H 0.77645 0.5759 0.56738 0.0
H782 H 0.83162 0.6328 0.7671 0.0
H783 H 0.8819 0.70181 0.80322 0.0
H784 H 0.87392 0.70454 0.74271 0.0
H785 H 0.89317 0.72597 0.77478 0.0
Eu786 Eu 0.36182 0.17798 0.64524 0.0
C787 C 0.2706 0.15614 0.69496 0.0
C788 C 0.26507 0.19207 0.69185 0.0
C789 C 0.22886 0.15065 0.69685 0.0
C790 C 0.28067 0.18151 0.69195 0.0
C791 C 0.2447 0.14058 0.69795 0.0
C792 C 0.23903 0.17635 0.6938 0.0
C793 C 0.2525 0.10711 0.70487 0.0
N794 N 0.28644 0.14709 0.6962 0.0
C795 C 0.27807 0.12334 0.70191 0.0
C796 C 0.23566 0.11563 0.7026 0.0
Eu797 Eu 0.32926 0.17532 0.69047 0.0
N798 N 0.30595 0.19622 0.69026 0.0
C799 C 0.31706 0.222 0.68981 0.0
C800 C 0.27622 0.21825 0.69033 0.0
C801 C 0.30237 0.23333 0.68962 0.0
H802 H 0.29108 0.11671 0.70357 0.0
H803 H 0.31122 0.25367 0.68879 0.0
H804 H 0.22671 0.18405 0.6935 0.0
H805 H 0.2458 0.08806 0.70888 0.0
H806 H 0.33721 0.2339 0.68913 0.0
H807 H 0.38641 0.10434 0.64882 0.0
H808 H 0.26489 0.22708 0.69012 0.0
H809 H 0.3955 0.2341 0.62717 0.0
H810 H 0.35803 0.12129 0.64761 0.0
H811 H 0.43974 0.26424 0.61999 0.0
H812 H 0.20885 0.13892 0.69889 0.0
H813 H 0.43239 0.13312 0.64682 0.0
H814 H 0.46851 0.17673 0.64153 0.0
H815 H 0.21588 0.10307 0.70499 0.0
H816 H 0.48313 0.22045 0.63362 0.0
N817 N 0.38757 0.15962 0.64559 0.0
C818 C 0.37799 0.13414 0.64665 0.0
C819 C 0.41999 0.14071 0.64629 0.0
C820 C 0.42949 0.16641 0.64376 0.0
C821 C 0.39405 0.1244 0.64736 0.0
C822 C 0.41253 0.17533 0.64327 0.0
H823 H 0.47244 0.25312 0.62515 0.0
N824 N 0.40348 0.20696 0.6371 0.0
C825 C 0.43472 0.24627 0.62544 0.0
C826 C 0.42076 0.19984 0.63888 0.0
C827 C 0.40973 0.2292 0.6295 0.0
C828 C 0.45313 0.23996 0.62843 0.0
C829 C 0.44616 0.21624 0.6348 0.0
O830 O 0.35276 0.18508 0.61696 0.0
O831 O 0.33116 0.18095 0.65936 0.0
O832 O 0.30186 0.1423 0.66942 0.0
O833 O 0.32995 0.13773 0.64973 0.0
O834 O 0.35027 0.20686 0.63966 0.0
O835 O 0.34903 0.1487 0.62095 0.0
O836 O 0.33288 0.16421 0.71878 0.0
O837 O 0.36048 0.17263 0.67673 0.0
O838 O 0.3892 0.21329 0.66414 0.0
O839 O 0.36343 0.21525 0.68811 0.0
O840 O 0.33933 0.14548 0.6954 0.0
O841 O 0.34222 0.20297 0.71583 0.0
C842 C 0.33198 0.19891 0.65116 0.0
C843 C 0.36037 0.16448 0.59041 0.0
C844 C 0.35977 0.16651 0.5556 0.0
C845 C 0.34838 0.16453 0.57332 0.0
C846 C 0.38341 0.16837 0.55527 0.0
C847 C 0.38397 0.16644 0.58986 0.0
C848 C 0.39539 0.16835 0.57232 0.0
C849 C 0.30721 0.12901 0.65645 0.0
C850 C 0.34827 0.16331 0.60867 0.0
C851 C 0.46347 0.20802 0.63645 0.0
C852 C 0.45514 0.18313 0.64094 0.0
C853 C 0.35843 0.15389 0.68468 0.0
C854 C 0.32471 0.18523 0.74483 0.0
C855 C 0.33302 0.18263 0.76281 0.0
C856 C 0.3191 0.1805 0.77925 0.0
C857 C 0.2966 0.18086 0.77728 0.0
C858 C 0.30249 0.18597 0.7433 0.0
C859 C 0.28848 0.1837 0.75944 0.0
C860 C 0.3847 0.22518 0.67884 0.0
C861 C 0.33892 0.18621 0.72773 0.0
H862 H 0.33004 0.16279 0.57386 0.0
H863 H 0.39278 0.17015 0.54188 0.0
H864 H 0.39356 0.16656 0.60293 0.0
H865 H 0.41363 0.16991 0.57195 0.0
H866 H 0.35046 0.18254 0.76395 0.0
H867 H 0.28509 0.1787 0.78948 0.0
H868 H 0.29591 0.18825 0.72967 0.0
H869 H 0.27121 0.18405 0.7581 0.0
Eu870 Eu 0.84605 0.16658 0.68764 0.0
C871 C 0.78156 0.19451 0.63691 0.0
C872 C 0.73839 0.16082 0.63999 0.0
C873 C 0.74759 0.20333 0.63445 0.0
C874 C 0.76439 0.16954 0.64006 0.0
C875 C 0.77333 0.21155 0.63361 0.0
C876 C 0.73015 0.17801 0.63766 0.0
C877 C 0.81622 0.24279 0.62714 0.0
N878 N 0.80621 0.20173 0.63599 0.0
C879 C 0.82343 0.22515 0.63046 0.0
C880 C 0.7911 0.23608 0.62898 0.0
Eu881 Eu 0.81722 0.17127 0.64252 0.0
N882 N 0.77297 0.15339 0.64202 0.0
C883 C 0.75641 0.12787 0.64247 0.0
C884 C 0.72142 0.13494 0.64167 0.0
C885 C 0.73046 0.11833 0.64261 0.0
H886 H 0.84289 0.23045 0.62915 0.0
H887 H 0.71747 0.09818 0.64351 0.0
H888 H 0.71028 0.17173 0.63777 0.0
H889 H 0.83002 0.26154 0.62323 0.0
H890 H 0.76315 0.11484 0.64328 0.0
H891 H 0.9457 0.24125 0.6907 0.0
H892 H 0.70131 0.1275 0.64176 0.0
H893 H 0.82017 0.10616 0.69829 0.0
H894 H 0.89992 0.22375 0.68895 0.0
H895 H 0.83329 0.0752 0.70385 0.0
H896 H 0.74091 0.21621 0.63214 0.0
H897 H 0.96243 0.2125 0.69304 0.0
H898 H 0.95387 0.16826 0.69623 0.0
H899 H 0.78554 0.24975 0.62634 0.0
H900 H 0.9233 0.1231 0.69989 0.0
N901 N 0.89046 0.18525 0.68984 0.0
C902 C 0.90681 0.21092 0.69006 0.0
C903 C 0.94223 0.20468 0.69232 0.0
C904 C 0.92542 0.17858 0.69318 0.0
C905 C 0.93287 0.22096 0.69104 0.0
C906 C 0.8993 0.16937 0.69208 0.0
H907 H 0.87835 0.0883 0.703 0.0
N908 N 0.85733 0.13623 0.69396 0.0
C909 C 0.84724 0.09448 0.70109 0.0
C910 C 0.88218 0.14405 0.69419 0.0
C911 C 0.83988 0.11207 0.69801 0.0
C912 C 0.87268 0.10194 0.70055 0.0
C913 C 0.89057 0.12708 0.69735 0.0
O914 O 0.83061 0.15624 0.71589 0.0
O915 O 0.81235 0.164 0.67348 0.0
O916 O 0.82324 0.20382 0.66379 0.0
O917 O 0.85527 0.20731 0.68407 0.0
O918 O 0.80525 0.1366 0.69187 0.0
O919 O 0.85941 0.19532 0.71226 0.0
O920 O 0.83329 0.18003 0.61433 0.0
O921 O 0.85083 0.174 0.65684 0.0
O922 O 0.84148 0.13524 0.66548 0.0
O923 O 0.80849 0.13084 0.64599 0.0
O924 O 0.85814 0.20074 0.63775 0.0
O925 O 0.80066 0.14291 0.61759 0.0
C926 C 0.79496 0.14519 0.681 0.0
C927 C 0.85739 0.18086 0.74302 0.0
C928 C 0.85647 0.18357 0.7781 0.0
C929 C 0.84516 0.18106 0.75988 0.0
C930 C 0.88021 0.18573 0.77921 0.0
C931 C 0.88095 0.18276 0.74434 0.0
C932 C 0.89227 0.18517 0.7624 0.0
C933 C 0.84198 0.21665 0.67699 0.0
C934 C 0.84535 0.1791 0.72432 0.0
C935 C 0.91649 0.13588 0.69765 0.0
C936 C 0.93389 0.16159 0.69556 0.0
C937 C 0.86828 0.19255 0.64917 0.0
C938 C 0.80455 0.15997 0.58765 0.0
C939 C 0.8153 0.15934 0.57005 0.0
C940 C 0.80575 0.1626 0.55278 0.0
C941 C 0.78509 0.16636 0.55357 0.0
C942 C 0.78383 0.16342 0.58801 0.0
C943 C 0.77416 0.16656 0.57103 0.0
C944 C 0.82286 0.12228 0.65217 0.0
C945 C 0.81596 0.15833 0.60559 0.0
H946 H 0.82703 0.17979 0.7588 0.0
H947 H 0.88929 0.18757 0.79307 0.0
H948 H 0.89062 0.18254 0.73147 0.0
H949 H 0.91048 0.18671 0.76337 0.0
H950 H 0.83109 0.15631 0.56991 0.0
H951 H 0.77757 0.16962 0.54077 0.0
H952 H 0.77527 0.1639 0.6014 0.0
H953 H 0.75832 0.16949 0.57144 0.0
H954 H 0.29642 0.87471 0.0279 0.0
H955 H 0.33359 0.84451 0.05993 0.0
H956 H 0.33695 0.9064 0.01649 0.0
H957 H 0.3741 0.87644 0.04882 0.0
H958 H 0.44225 0.92593 0.01629 0.0
H959 H 0.39973 0.89073 0.02076 0.0
H960 H 0.37458 0.94446 0.0311 0.0
H961 H 0.41696 0.97944 0.02606 0.0
C962 C 0.31321 0.87477 0.03247 0.0
C963 C 0.31178 0.85718 0.04494 0.0
C964 C 0.33644 0.89298 0.02596 0.0
C965 C 0.35878 0.89399 0.03176 0.0
C966 C 0.35724 0.87598 0.04385 0.0
C967 C 0.33402 0.8578 0.05037 0.0
C968 C 0.42745 0.93007 0.01891 0.0
C969 C 0.43268 0.9553 0.02041 0.0
C970 C 0.40317 0.90997 0.02175 0.0
C971 C 0.38376 0.91477 0.02638 0.0
C972 C 0.38895 0.94001 0.0273 0.0
C973 C 0.41321 0.96006 0.0245 0.0
H974 H 0.17484 0.48268 0.03806 0.0
H975 H 0.11683 0.42672 0.07119 0.0
H976 H 0.14385 0.49128 0.02396 0.0
H977 H 0.08638 0.43563 0.05759 0.0
H978 H 0.03048 0.43939 0.02033 0.0
H979 H 0.06319 0.43005 0.02823 0.0
H980 H 0.11872 0.51068 0.03354 0.0
H981 H 0.08588 0.51983 0.02521 0.0
C982 C 0.15553 0.47218 0.04229 0.0
C983 C 0.14834 0.45398 0.05574 0.0
C984 C 0.13781 0.47719 0.03429 0.0
C985 C 0.11256 0.46403 0.03952 0.0
C986 C 0.10549 0.44577 0.05288 0.0
C987 C 0.12308 0.44079 0.06083 0.0
C988 C 0.04978 0.45504 0.02286 0.0
C989 C 0.05572 0.48025 0.02198 0.0
C990 C 0.06851 0.44975 0.02751 0.0
C991 C 0.09357 0.46963 0.0318 0.0
C992 C 0.09968 0.49489 0.03019 0.0
C993 C 0.08088 0.50016 0.02542 0.0
H994 H 0.5911 0.69796 0.08668 0.0
H995 H 0.51126 0.66169 0.09551 0.0
H996 H 0.58425 0.65832 0.06964 0.0
H997 H 0.50455 0.62224 0.07874 0.0
H998 H 0.49787 0.56853 0.02718 0.0
H999 H 0.50663 0.60804 0.04507 0.0
H1000 H 0.57067 0.61311 0.07486 0.0
H1001 H 0.56224 0.57358 0.05657 0.0
C1002 C 0.57216 0.68151 0.08513 0.0
C1003 C 0.5517 0.68303 0.09233 0.0
C1004 C 0.56826 0.6588 0.07546 0.0
C1005 C 0.54384 0.63726 0.07272 0.0
C1006 C 0.52353 0.63865 0.08035 0.0
C1007 C 0.52742 0.66124 0.09006 0.0
C1008 C 0.51398 0.57811 0.03739 0.0
C1009 C 0.52943 0.56792 0.04036 0.0
C1010 C 0.51884 0.60065 0.0478 0.0
C1011 C 0.53924 0.61359 0.06146 0.0
C1012 C 0.5549 0.60361 0.06433 0.0
C1013 C 0.54997 0.58092 0.05394 0.0
H1014 H 0.89748 0.31072 0.93798 0.0
H1015 H 0.8496 0.34209 0.93094 0.0
H1016 H 0.9304 0.35163 0.95367 0.0
H1017 H 0.88267 0.38307 0.94623 0.0
H1018 H 0.93502 0.44262 0.99411 0.0
H1019 H 0.9028 0.40192 0.97791 0.0
H1020 H 0.96019 0.39535 0.94736 0.0
H1021 H 0.99256 0.43565 0.9641 0.0
C1022 C 0.89406 0.32639 0.93961 0.0
C1023 C 0.87087 0.3231 0.93327 0.0
C1024 C 0.91297 0.34988 0.94853 0.0
C1025 C 0.90913 0.3706 0.95129 0.0
C1026 C 0.8861 0.36739 0.94463 0.0
C1027 C 0.86719 0.34393 0.93574 0.0
C1028 C 0.94084 0.43239 0.98413 0.0
C1029 C 0.96644 0.44229 0.98063 0.0
C1030 C 0.9223 0.40917 0.97464 0.0
C1031 C 0.9289 0.39535 0.96132 0.0
C1032 C 0.95449 0.40534 0.95772 0.0
C1033 C 0.97304 0.42855 0.96724 0.0
H1034 H 0.71099 0.57049 0.98776 0.0
H1035 H 0.6679 0.50573 0.94583 0.0
H1036 H 0.67177 0.56496 1.00036 0.0
H1037 H 0.62896 0.50055 0.95814 0.0
H1038 H 0.56211 0.48479 0.99277 0.0
H1039 H 0.60237 0.4887 0.98535 0.0
H1040 H 0.63747 0.57072 0.98944 0.0
H1041 H 0.59715 0.56664 0.9975 0.0
C1042 C 0.69319 0.55497 0.98132 0.0
C1043 C 0.69263 0.53861 0.96573 0.0
C1044 C 0.67072 0.55191 0.98847 0.0
C1045 C 0.64719 0.53236 0.98024 0.0
C1046 C 0.6467 0.51561 0.96501 0.0
C1047 C 0.6691 0.51871 0.95785 0.0
C1048 C 0.57853 0.50365 0.99253 0.0
C1049 C 0.57666 0.52545 0.99617 0.0
C1050 C 0.60158 0.50591 0.98803 0.0
C1051 C 0.62321 0.53004 0.98677 0.0
C1052 C 0.62132 0.55186 0.99059 0.0
C1053 C 0.59823 0.54957 0.99508 0.0
H1054 H 0.44684 0.13119 0.95094 0.0
H1055 H 0.38374 0.07961 0.98277 0.0
H1056 H 0.47027 0.11121 0.96074 0.0
H1057 H 0.40738 0.06011 0.99282 0.0
H1058 H 0.46878 0.0517 0.0229 0.0
H1059 H 0.44967 0.07612 0.01389 0.0
H1060 H 0.46204 0.06396 0.95405 0.0
H1061 H 0.481 0.03937 0.96309 0.0
C1062 C 0.43803 0.11567 0.96006 0.0
C1063 C 0.41344 0.10688 0.96604 0.0
C1064 C 0.45141 0.10428 0.96563 0.0
C1065 C 0.44063 0.08431 0.97762 0.0
C1066 C 0.41617 0.07568 0.98373 0.0
C1067 C 0.40261 0.0867 0.97786 0.0
C1068 C 0.46804 0.05486 0.00793 0.0
C1069 C 0.47659 0.04398 0.99371 0.0
C1070 C 0.45685 0.06853 0.00275 0.0
C1071 C 0.45442 0.07184 0.98329 0.0
C1072 C 0.46388 0.0618 0.96915 0.0
C1073 C 0.47462 0.04772 0.97431 0.0
H1074 H 0.68935 0.12034 0.969 0.0
H1075 H 0.63897 0.13709 0.93904 0.0
H1076 H 0.65349 0.08658 0.98412 0.0
H1077 H 0.60323 0.10327 0.954 0.0
H1078 H 0.54613 0.05504 0.99533 0.0
H1079 H 0.58478 0.09193 0.98587 0.0
H1080 H 0.61643 0.04422 0.97292 0.0
H1081 H 0.57792 0.00748 0.98273 0.0
C1082 C 0.67065 0.11684 0.96565 0.0
C1083 C 0.66699 0.13132 0.95275 0.0
C1084 C 0.65014 0.0975 0.97429 0.0
C1085 C 0.62558 0.09236 0.97031 0.0
C1086 C 0.62198 0.10704 0.95759 0.0
C1087 C 0.64244 0.12626 0.94887 0.0
C1088 C 0.5616 0.05262 0.99089 0.0
C1089 C 0.55925 0.02854 0.98992 0.0
C1090 C 0.5836 0.07365 0.9853 0.0
C1091 C 0.60355 0.07091 0.97851 0.0
C1092 C 0.6015 0.04698 0.97825 0.0
C1093 C 0.57946 0.02595 0.98377 0.0
H1094 H 0.91493 0.59474 0.9605 0.0
H1095 H 0.86286 0.52305 0.98232 0.0
H1096 H 0.94979 0.58869 0.9681 0.0
H1097 H 0.89783 0.51773 0.99148 0.0
H1098 H 0.96175 0.50163 0.98802 0.0
H1099 H 0.92664 0.50749 0.981 0.0
H1100 H 0.97666 0.58932 0.99074 0.0
H1101 H 0.01196 0.58307 0.99644 0.0
C1102 C 0.91102 0.57782 0.96721 0.0
C1103 C 0.88616 0.55931 0.97071 0.0
C1104 C 0.93109 0.5744 0.97179 0.0
C1105 C 0.92695 0.55268 0.98053 0.0
C1106 C 0.90196 0.53441 0.98436 0.0
C1107 C 0.88182 0.53751 0.97925 0.0
C1108 C 0.96511 0.52083 0.98882 0.0
C1109 C 0.98944 0.54191 0.99314 0.0
C1110 C 0.94491 0.52428 0.98485 0.0
C1111 C 0.94848 0.54895 0.98527 0.0
C1112 C 0.973 0.57002 0.98979 0.0
C1113 C 0.99328 0.56652 0.9933 0.0
H1114 H 0.44108 0.30896 0.91973 0.0
H1115 H 0.46727 0.29805 0.97373 0.0
H1116 H 0.45728 0.35364 0.93098 0.0
H1117 H 0.48293 0.34237 0.98506 0.0
H1118 H 0.52779 0.42804 0.99412 0.0
H1119 H 0.51509 0.3855 0.97973 0.0
H1120 H 0.44722 0.37809 0.95492 0.0
H1121 H 0.46005 0.42088 0.96922 0.0
C1122 C 0.45037 0.3161 0.93396 0.0
C1123 C 0.45283 0.29993 0.94586 0.0
C1124 C 0.45951 0.34165 0.94044 0.0
C1125 C 0.47135 0.35155 0.95893 0.0
C1126 C 0.47422 0.33546 0.97064 0.0
C1127 C 0.46509 0.30998 0.96418 0.0
C1128 C 0.51013 0.41736 0.98562 0.0
C1129 C 0.49471 0.42769 0.98309 0.0
C1130 C 0.50286 0.39295 0.97737 0.0
C1131 C 0.48002 0.37829 0.96634 0.0
C1132 C 0.46502 0.38897 0.96322 0.0
C1133 C 0.47232 0.41345 0.97149 0.0
H1134 H 0.20267 0.69201 0.06993 0.0
H1135 H 0.15086 0.71849 0.06206 0.0
H1136 H 0.16913 0.64851 0.05996 0.0
H1137 H 0.11751 0.67515 0.05141 0.0
H1138 H 0.05664 0.5915 0.04959 0.0
H1139 H 0.0901 0.63409 0.06227 0.0
H1140 H 0.14485 0.62222 0.0323 0.0
H1141 H 0.11189 0.5795 0.02063 0.0
C1142 C 0.18418 0.68858 0.06586 0.0
C1143 C 0.17945 0.70872 0.06675 0.0
C1144 C 0.16493 0.66362 0.06009 0.0
C1145 C 0.14053 0.65823 0.05488 0.0
C1146 C 0.1359 0.67847 0.05565 0.0
C1147 C 0.15511 0.70339 0.06158 0.0
C1148 C 0.07587 0.59791 0.04592 0.0
C1149 C 0.08149 0.58221 0.03385 0.0
C1150 C 0.09503 0.62243 0.05302 0.0
C1151 C 0.1202 0.63175 0.04818 0.0
C1152 C 0.1258 0.6157 0.03652 0.0
C1153 C 0.10675 0.59122 0.02959 0.0
H1154 H 0.31401 0.42214 0.03433 0.0
H1155 H 0.35459 0.49111 0.0728 0.0
H1156 H 0.35387 0.42773 0.02353 0.0
H1157 H 0.39444 0.49629 0.06247 0.0
H1158 H 0.46246 0.51118 0.02885 0.0
H1159 H 0.42186 0.50653 0.03628 0.0
H1160 H 0.38879 0.42487 0.03469 0.0
H1161 H 0.42924 0.42965 0.02642 0.0
C1162 C 0.33144 0.43843 0.04057 0.0
C1163 C 0.33106 0.45613 0.05448 0.0
C1164 C 0.35434 0.44159 0.03443 0.0
C1165 C 0.37748 0.46245 0.04211 0.0
C1166 C 0.37706 0.48021 0.05598 0.0
C1167 C 0.35416 0.47711 0.06205 0.0
C1168 C 0.44637 0.49223 0.02966 0.0
C1169 C 0.44883 0.4707 0.0266 0.0
C1170 C 0.42314 0.48955 0.03421 0.0
C1171 C 0.40193 0.4653 0.03615 0.0
C1172 C 0.40451 0.4438 0.03301 0.0
C1173 C 0.42771 0.4465 0.02838 0.0
H1174 H 0.54532 0.85131 0.06395 0.0
H1175 H 0.47209 0.83153 0.08431 0.0
H1176 H 0.54457 0.88254 0.04455 0.0
H1177 H 0.47128 0.86245 0.0647 0.0
H1178 H 0.46916 0.90174 0.01177 0.0
H1179 H 0.47094 0.86862 0.02781 0.0
H1180 H 0.5443 0.92472 0.0537 0.0
H1181 H 0.54252 0.95796 0.03792 0.0
C1182 C 0.52904 0.85353 0.06419 0.0
C1183 C 0.5088 0.83906 0.07568 0.0
C1184 C 0.52865 0.87139 0.05314 0.0
C1185 C 0.50782 0.87472 0.0531 0.0
C1186 C 0.48743 0.86 0.06434 0.0
C1187 C 0.488 0.84248 0.07566 0.0
C1188 C 0.48581 0.90697 0.02068 0.0
C1189 C 0.50564 0.93248 0.02371 0.0
C1190 C 0.48674 0.88804 0.02991 0.0
C1191 C 0.50769 0.89423 0.04203 0.0
C1192 C 0.528 0.91949 0.04435 0.0
C1193 C 0.52691 0.93849 0.03538 0.0
H1194 H 0.98223 0.21701 0.3575 0.0
H1195 H 0.99086 0.28286 0.39206 0.0
H1196 H 0.02669 0.24123 0.35012 0.0
H1197 H 0.03534 0.30655 0.38575 0.0
H1198 H 0.10787 0.35283 0.35912 0.0
H1199 H 0.06247 0.3268 0.36178 0.0
H1200 H 0.06863 0.25966 0.36256 0.0
H1201 H 0.11406 0.28591 0.35869 0.0
C1202 C 0.99374 0.23656 0.36372 0.0
C1203 C 0.98309 0.24813 0.37526 0.0
C1204 C 0.01924 0.25043 0.35956 0.0
C1205 C 0.03467 0.27601 0.36713 0.0
C1206 C 0.02399 0.28719 0.37913 0.0
C1207 C 0.99849 0.27353 0.38295 0.0
C1208 C 0.0993 0.3324 0.35945 0.0
C1209 C 0.11414 0.3212 0.35841 0.0
C1210 C 0.07337 0.31749 0.36124 0.0
C1211 C 0.06182 0.29112 0.36283 0.0
C1212 C 0.07675 0.27982 0.36126 0.0
C1213 C 0.10274 0.29478 0.35903 0.0
H1214 H 0.82642 0.83624 0.41563 0.0
H1215 H 0.79283 0.76635 0.37787 0.0
H1216 H 0.79263 0.84312 0.40604 0.0
H1217 H 0.75908 0.77348 0.36803 0.0
H1218 H 0.68706 0.77834 0.37769 0.0
H1219 H 0.72275 0.77241 0.38314 0.0
H1220 H 0.77419 0.85291 0.37952 0.0
H1221 H 0.73841 0.85876 0.37451 0.0
C1222 C 0.81199 0.82247 0.40509 0.0
C1223 C 0.81231 0.80065 0.39762 0.0
C1224 C 0.79265 0.82651 0.3995 0.0
C1225 C 0.77304 0.8088 0.38632 0.0
C1226 C 0.77372 0.78733 0.37841 0.0
C1227 C 0.79316 0.78333 0.38395 0.0
C1228 C 0.70604 0.79466 0.37788 0.0
C1229 C 0.71001 0.81887 0.37525 0.0
C1230 C 0.72649 0.79128 0.38087 0.0
C1231 C 0.75139 0.81216 0.38169 0.0
C1232 C 0.75529 0.83643 0.3791 0.0
C1233 C 0.73481 0.83977 0.376 0.0
H1234 H 0.21961 0.02494 0.41787 0.0
H1235 H 0.20088 0.03225 0.35981 0.0
H1236 H 0.20758 0.98095 0.40859 0.0
H1237 H 0.18899 0.98805 0.35048 0.0
H1238 H 0.14796 0.89995 0.34703 0.0
H1239 H 0.15718 0.94316 0.35647 0.0
H1240 H 0.2249 0.95954 0.38804 0.0
H1241 H 0.21592 0.91657 0.3785 0.0
C1242 C 0.21283 0.01715 0.40313 0.0
C1243 C 0.21135 0.03218 0.38954 0.0
C1244 C 0.20606 0.99195 0.3978 0.0
C1245 C 0.19755 0.9811 0.37877 0.0
C1246 C 0.19536 0.99586 0.36529 0.0
C1247 C 0.20226 0.02118 0.37061 0.0
C1248 C 0.16497 0.91284 0.3558 0.0
C1249 C 0.18138 0.90485 0.36176 0.0
C1250 C 0.1702 0.93758 0.36123 0.0
C1251 C 0.19178 0.95476 0.37297 0.0
C1252 C 0.20798 0.94666 0.37915 0.0
C1253 C 0.20285 0.92201 0.37361 0.0
H1254 H 0.54816 0.65761 0.26965 0.0
H1255 H 0.51492 0.63843 0.32484 0.0
H1256 H 0.57743 0.70096 0.28339 0.0
H1257 H 0.54454 0.68197 0.33866 0.0
H1258 H 0.58647 0.77003 0.35002 0.0
H1259 H 0.55546 0.72696 0.33653 0.0
H1260 H 0.61395 0.72156 0.30681 0.0
H1261 H 0.645 0.76447 0.32034 0.0
C1262 C 0.54703 0.66265 0.28471 0.0
C1263 C 0.52929 0.64452 0.29618 0.0
C1264 C 0.56393 0.68748 0.2926 0.0
C1265 C 0.56344 0.6948 0.31214 0.0
C1266 C 0.54527 0.6769 0.32352 0.0
C1267 C 0.52838 0.65196 0.31563 0.0
C1268 C 0.59281 0.75957 0.34081 0.0
C1269 C 0.61833 0.77065 0.33647 0.0
C1270 C 0.575 0.7349 0.33306 0.0
C1271 C 0.58227 0.72089 0.32062 0.0
C1272 C 0.60773 0.732 0.31619 0.0
C1273 C 0.62555 0.75659 0.32403 0.0
H1274 H 0.34381 0.90861 0.27281 0.0
H1275 H 0.35278 0.86582 0.31531 0.0
H1276 H 0.3045 0.90033 0.28623 0.0
H1277 H 0.31321 0.85788 0.32914 0.0
H1278 H 0.22537 0.82493 0.3302 0.0
H1279 H 0.2673 0.8341 0.32133 0.0
H1280 H 0.28868 0.91188 0.31416 0.0
H1281 H 0.24673 0.90248 0.3227 0.0
C1282 C 0.33751 0.89756 0.28515 0.0
C1283 C 0.35157 0.88793 0.29297 0.0
C1284 C 0.31496 0.89297 0.29297 0.0
C1285 C 0.30573 0.87865 0.30892 0.0
C1286 C 0.31971 0.86889 0.3168 0.0
C1287 C 0.34243 0.87354 0.30893 0.0
C1288 C 0.23924 0.84409 0.3271 0.0
C1289 C 0.23292 0.86309 0.32726 0.0
C1290 C 0.26328 0.84936 0.32202 0.0
C1291 C 0.28132 0.87366 0.31678 0.0
C1292 C 0.27514 0.89283 0.31772 0.0
C1293 C 0.25117 0.88753 0.32272 0.0
H1294 H 0.17793 0.52058 0.29909 0.0
H1295 H 0.10251 0.4744 0.3183 0.0
H1296 H 0.18804 0.48882 0.30778 0.0
H1297 H 0.11267 0.44279 0.32698 0.0
H1298 H 0.13069 0.37912 0.31645 0.0
H1299 H 0.12199 0.412 0.30895 0.0
H1300 H 0.19316 0.46976 0.33719 0.0
H1301 H 0.20211 0.43673 0.34461 0.0
C1302 C 0.16354 0.50371 0.30521 0.0
C1303 C 0.13938 0.49997 0.30793 0.0
C1304 C 0.16939 0.48562 0.31029 0.0
C1305 C 0.15113 0.4633 0.318 0.0
C1306 C 0.12706 0.45968 0.32087 0.0
C1307 C 0.12128 0.47785 0.31597 0.0
C1308 C 0.14457 0.39878 0.32106 0.0
C1309 C 0.16707 0.40523 0.33121 0.0
C1310 C 0.13947 0.41763 0.31686 0.0
C1311 C 0.15682 0.44344 0.32256 0.0
C1312 C 0.17948 0.45001 0.33253 0.0
C1313 C 0.18451 0.43108 0.33689 0.0
H1314 H 0.34054 0.48511 0.28689 0.0
H1315 H 0.37624 0.45309 0.31856 0.0
H1316 H 0.29963 0.45333 0.29751 0.0
H1317 H 0.33525 0.42148 0.3294 0.0
H1318 H 0.25389 0.35038 0.3211 0.0
H1319 H 0.29639 0.38394 0.31437 0.0
H1320 H 0.27517 0.44049 0.32655 0.0
H1321 H 0.23262 0.40685 0.33277 0.0
C1322 C 0.33969 0.47139 0.29622 0.0
C1323 C 0.36163 0.47155 0.3018 0.0
C1324 C 0.31626 0.45331 0.30243 0.0
C1325 C 0.31423 0.43493 0.31431 0.0
C1326 C 0.3362 0.43526 0.32009 0.0
C1327 C 0.35967 0.45341 0.31393 0.0
C1328 C 0.25851 0.37005 0.32254 0.0
C1329 C 0.24022 0.37613 0.32778 0.0
C1330 C 0.28281 0.38925 0.3188 0.0
C1331 C 0.28912 0.41486 0.31993 0.0
C1332 C 0.27081 0.42092 0.3254 0.0
C1333 C 0.24654 0.40171 0.32917 0.0
H1334 H 0.55156 0.91725 0.32281 0.0
H1335 H 0.52106 0.84442 0.28929 0.0
H1336 H 0.58564 0.91277 0.33575 0.0
H1337 H 0.55549 0.84022 0.30185 0.0
H1338 H 0.65881 0.91013 0.33572 0.0
H1339 H 0.62315 0.9139 0.3255 0.0
H1340 H 0.57287 0.83341 0.33023 0.0
H1341 H 0.60882 0.82966 0.33981 0.0
C1342 C 0.55216 0.90032 0.31813 0.0
C1343 C 0.53357 0.88125 0.30494 0.0
C1344 C 0.5718 0.89779 0.32551 0.0
C1345 C 0.57344 0.87615 0.31985 0.0
C1346 C 0.5547 0.85698 0.30677 0.0
C1347 C 0.53503 0.85949 0.29942 0.0
C1348 C 0.64006 0.89334 0.33476 0.0
C1349 C 0.63652 0.86974 0.33894 0.0
C1350 C 0.61958 0.89548 0.329 0.0
C1351 C 0.59502 0.87398 0.32705 0.0
C1352 C 0.5915 0.85034 0.33136 0.0
C1353 C 0.61205 0.84822 0.33712 0.0
H1354 H 0.18669 0.66081 0.29416 0.0
H1355 H 0.1058 0.62651 0.29439 0.0
H1356 H 0.19207 0.70194 0.3058 0.0
H1357 H 0.11114 0.66734 0.3066 0.0
H1358 H 0.12849 0.74913 0.30757 0.0
H1359 H 0.12355 0.70814 0.29627 0.0
H1360 H 0.18785 0.72525 0.33301 0.0
H1361 H 0.19356 0.76664 0.34352 0.0
C1362 C 0.17007 0.66198 0.29693 0.0
C1363 C 0.14583 0.64041 0.29328 0.0
C1364 C 0.17313 0.68555 0.30367 0.0
C1365 C 0.15203 0.68805 0.30706 0.0
C1366 C 0.12781 0.66629 0.30379 0.0
C1367 C 0.12475 0.64279 0.29693 0.0
C1368 C 0.14161 0.74418 0.31321 0.0
C1369 C 0.16124 0.76113 0.32665 0.0
C1370 C 0.13866 0.72055 0.30684 0.0
C1371 C 0.15521 0.71325 0.3138 0.0
C1372 C 0.17489 0.73028 0.32718 0.0
C1373 C 0.17796 0.75395 0.33342 0.0
H1374 H 0.83666 0.0466 0.39255 0.0
H1375 H 0.79808 0.03425 0.44579 0.0
H1376 H 0.80692 0.00275 0.38019 0.0
H1377 H 0.76868 0.99005 0.4336 0.0
H1378 H 0.70263 0.92529 0.39579 0.0
H1379 H 0.73429 0.96765 0.4098 0.0
H1380 H 0.79272 0.95875 0.38327 0.0
H1381 H 0.76097 0.91648 0.36892 0.0
C1382 C 0.82205 0.03442 0.40174 0.0
C1383 C 0.81962 0.04401 0.42011 0.0
C1384 C 0.80505 0.00919 0.39468 0.0
C1385 C 0.78527 0.99289 0.40583 0.0
C1386 C 0.7834 0.00223 0.42448 0.0
C1387 C 0.80036 0.02752 0.43153 0.0
C1388 C 0.72223 0.93231 0.39295 0.0
C1389 C 0.72921 0.91755 0.38108 0.0
C1390 C 0.74043 0.95657 0.40112 0.0
C1391 C 0.76609 0.96663 0.39771 0.0
C1392 C 0.7731 0.95174 0.38599 0.0
C1393 C 0.75488 0.92748 0.37776 0.0
H1394 H 0.99361 0.81117 0.37574 0.0
H1395 H 0.98185 0.74484 0.40196 0.0
H1396 H 0.03413 0.81887 0.36496 0.0
H1397 H 0.02328 0.75362 0.39299 0.0
H1398 H 0.09077 0.7615 0.36374 0.0
H1399 H 0.04865 0.7526 0.37069 0.0
H1400 H 0.07506 0.83317 0.37151 0.0
H1401 H 0.11642 0.84127 0.36289 0.0
C1402 C 0.99998 0.79849 0.37949 0.0
C1403 C 0.98457 0.7774 0.38967 0.0
C1404 C 0.02342 0.80298 0.37344 0.0
C1405 C 0.03252 0.78698 0.37799 0.0
C1406 C 0.01705 0.76611 0.38857 0.0
C1407 C 0.99326 0.76116 0.394 0.0
C1408 C 0.08729 0.77715 0.36515 0.0
C1409 C 0.10666 0.80195 0.36244 0.0
C1410 C 0.06316 0.77219 0.36942 0.0
C1411 C 0.058 0.79211 0.37202 0.0
C1412 C 0.0777 0.81705 0.36932 0.0
C1413 C 0.10163 0.82184 0.36445 0.0
H1414 H 0.15908 0.16797 0.39907 0.0
H1415 H 0.23317 0.20279 0.3761 0.0
H1416 H 0.15395 0.20226 0.38862 0.0
H1417 H 0.22799 0.23705 0.36575 0.0
H1418 H 0.2202 0.30833 0.37303 0.0
H1419 H 0.22464 0.2733 0.38238 0.0
H1420 H 0.15017 0.21915 0.35731 0.0
H1421 H 0.14557 0.25421 0.34797 0.0
C1422 C 0.17425 0.18291 0.39178 0.0
C1423 C 0.19655 0.18269 0.38845 0.0
C1424 C 0.17123 0.20244 0.38571 0.0
C1425 C 0.19058 0.22232 0.3764 0.0
C1426 C 0.21286 0.22208 0.37304 0.0
C1427 C 0.21576 0.2024 0.3789 0.0
C1428 C 0.20474 0.28898 0.3695 0.0
C1429 C 0.18255 0.28408 0.35971 0.0
C1430 C 0.20737 0.26892 0.37476 0.0
C1431 C 0.18777 0.24351 0.37054 0.0
C1432 C 0.16551 0.23856 0.36085 0.0
C1433 C 0.16296 0.25864 0.35541 0.0
H1434 H 0.64639 0.49093 0.69511 0.0
H1435 H 0.63844 0.5533 0.71907 0.0
H1436 H 0.68772 0.52116 0.68394 0.0
H1437 H 0.68035 0.58352 0.70977 0.0
H1438 H 0.7503 0.63735 0.68469 0.0
H1439 H 0.70642 0.60453 0.68703 0.0
H1440 H 0.72902 0.54892 0.69227 0.0
H1441 H 0.77257 0.58164 0.68786 0.0
C1442 C 0.65369 0.51118 0.69812 0.0
C1443 C 0.6393 0.51987 0.70785 0.0
C1444 C 0.67748 0.52858 0.69186 0.0
C1445 C 0.68774 0.55508 0.6958 0.0
C1446 C 0.67312 0.56349 0.70576 0.0
C1447 C 0.64908 0.54614 0.71137 0.0
C1448 C 0.74558 0.61788 0.68582 0.0
C1449 C 0.76451 0.6118 0.68589 0.0
C1450 C 0.72048 0.59905 0.68752 0.0
C1451 C 0.71388 0.57395 0.69051 0.0
C1452 C 0.733 0.5678 0.68985 0.0
C1453 C 0.75806 0.58654 0.68738 0.0
H1454 H 0.44171 0.10482 0.74711 0.0
H1455 H 0.49472 0.1445 0.70414 0.0
H1456 H 0.41184 0.11409 0.73285 0.0
H1457 H 0.46425 0.15362 0.68958 0.0
H1458 H 0.4098 0.18728 0.68636 0.0
H1459 H 0.44255 0.17884 0.69707 0.0
H1460 H 0.38519 0.10068 0.70326 0.0
H1461 H 0.35281 0.10922 0.69279 0.0
C1462 C 0.44702 0.11548 0.73455 0.0
C1463 C 0.47065 0.1238 0.72675 0.0
C1464 C 0.42975 0.12067 0.72628 0.0
C1465 C 0.43552 0.13435 0.70994 0.0
C1466 C 0.45928 0.14309 0.70221 0.0
C1467 C 0.47666 0.13777 0.71049 0.0
C1468 C 0.40439 0.16822 0.68968 0.0
C1469 C 0.37885 0.14879 0.6886 0.0
C1470 C 0.42308 0.16338 0.69581 0.0
C1471 C 0.41645 0.13915 0.70123 0.0
C1472 C 0.39092 0.11966 0.69953 0.0
C1473 C 0.37237 0.12448 0.69344 0.0
H1474 H 0.85326 0.36177 0.71454 0.0
H1475 H 0.92857 0.38075 0.70036 0.0
H1476 H 0.83797 0.31679 0.70541 0.0
H1477 H 0.91322 0.33598 0.69085 0.0
H1478 H 0.88465 0.25285 0.69802 0.0
H1479 H 0.8982 0.29736 0.70664 0.0
H1480 H 0.83034 0.28583 0.67833 0.0
H1481 H 0.81627 0.24099 0.67035 0.0
C1482 C 0.86648 0.3564 0.70923 0.0
C1483 C 0.89216 0.37482 0.7083 0.0
C1484 C 0.85771 0.33062 0.70395 0.0
C1485 C 0.87443 0.32275 0.6976 0.0
C1486 C 0.89994 0.34132 0.69608 0.0
C1487 C 0.9087 0.36703 0.70139 0.0
C1488 C 0.87253 0.25971 0.69369 0.0
C1489 C 0.84957 0.24339 0.68317 0.0
C1490 C 0.88041 0.28533 0.69849 0.0
C1491 C 0.86553 0.29527 0.69293 0.0
C1492 C 0.84224 0.2788 0.68287 0.0
C1493 C 0.83432 0.25313 0.67811 0.0
H1494 H 0.2152 0.96741 0.61685 0.0
H1495 H 0.16862 0.99899 0.60497 0.0
H1496 H 0.24843 0.00922 0.63095 0.0
H1497 H 0.20201 0.04082 0.61862 0.0
H1498 H 0.25654 0.10641 0.66159 0.0
H1499 H 0.22326 0.06382 0.64917 0.0
H1500 H 0.27852 0.05088 0.62122 0.0
H1501 H 0.31188 0.09301 0.63423 0.0
C1502 C 0.21211 0.98329 0.61715 0.0
C1503 C 0.18928 0.97989 0.60979 0.0
C1504 C 0.23119 0.00727 0.62516 0.0
C1505 C 0.22786 0.02836 0.62593 0.0
C1506 C 0.20504 0.02491 0.61853 0.0
C1507 C 0.18596 0.00095 0.61057 0.0
C1508 C 0.26166 0.09435 0.65306 0.0
C1509 C 0.28694 0.10306 0.64911 0.0
C1510 C 0.24253 0.07003 0.64573 0.0
C1511 C 0.24823 0.05394 0.63419 0.0
C1512 C 0.27352 0.06264 0.63029 0.0
C1513 C 0.29264 0.08691 0.63765 0.0
H1514 H 0.01469 0.20097 0.63988 0.0
H1515 H 0.0103 0.24734 0.59823 0.0
H1516 H 0.97374 0.19198 0.65153 0.0
H1517 H 0.96966 0.23806 0.6095 0.0
H1518 H 0.90908 0.2382 0.64404 0.0
H1519 H 0.9515 0.24774 0.63689 0.0
H1520 H 0.92841 0.16886 0.64104 0.0
H1521 H 0.88595 0.15952 0.64848 0.0
C1522 C 0.00504 0.20923 0.63321 0.0
C1523 C 0.01588 0.22495 0.61815 0.0
C1524 C 0.98154 0.20399 0.63982 0.0
C1525 C 0.96845 0.21445 0.63156 0.0
C1526 C 0.97936 0.23008 0.61649 0.0
C1527 C 0.00268 0.23526 0.60991 0.0
C1528 C 0.91322 0.22301 0.64367 0.0
C1529 C 0.8944 0.19826 0.6471 0.0
C1530 C 0.93745 0.2284 0.63946 0.0
C1531 C 0.94337 0.20903 0.63819 0.0
C1532 C 0.92461 0.18429 0.64206 0.0
C1533 C 0.90029 0.17892 0.64634 0.0
H1534 H 0.7851 0.80237 0.6433 0.0
H1535 H 0.71251 0.73473 0.64876 0.0
H1536 H 0.80567 0.77789 0.64719 0.0
H1537 H 0.73306 0.71051 0.65306 0.0
H1538 H 0.77374 0.66806 0.64118 0.0
H1539 H 0.75562 0.69391 0.63497 0.0
H1540 H 0.8144 0.75678 0.67181 0.0
H1541 H 0.83325 0.73117 0.67743 0.0
C1542 C 0.77354 0.7823 0.64533 0.0
C1543 C 0.74716 0.77048 0.64568 0.0
C1544 C 0.78534 0.76832 0.64767 0.0
C1545 C 0.771 0.74224 0.65039 0.0
C1546 C 0.74463 0.73046 0.65068 0.0
C1547 C 0.73285 0.7444 0.64833 0.0
C1548 C 0.78296 0.68742 0.64791 0.0
C1549 C 0.80466 0.69731 0.66019 0.0
C1550 C 0.77243 0.7022 0.64443 0.0
C1551 C 0.78332 0.72727 0.65313 0.0
C1552 C 0.80555 0.73753 0.66486 0.0
C1553 C 0.81617 0.72273 0.6683 0.0
H1554 H 0.95848 0.79779 0.60496 0.0
H1555 H 0.01589 0.79251 0.63626 0.0
H1556 H 0.92591 0.76171 0.62031 0.0
H1557 H 0.98305 0.75625 0.65172 0.0
H1558 H 0.87341 0.71189 0.66241 0.0
H1559 H 0.90949 0.7509 0.6531 0.0
H1560 H 0.94896 0.71071 0.64036 0.0
H1561 H 0.91277 0.67154 0.65017 0.0
C1562 C 0.96415 0.78899 0.61518 0.0
C1563 C 0.98974 0.79796 0.61937 0.0
C1564 C 0.94549 0.76846 0.62409 0.0
C1565 C 0.95199 0.75632 0.63729 0.0
C1566 C 0.97756 0.76526 0.64155 0.0
C1567 C 0.9963 0.78601 0.63274 0.0
C1568 C 0.89 0.71149 0.65814 0.0
C1569 C 0.89046 0.68879 0.65722 0.0
C1570 C 0.91057 0.73379 0.65263 0.0
C1571 C 0.9319 0.73375 0.64584 0.0
C1572 C 0.93282 0.7113 0.64567 0.0
C1573 C 0.91214 0.68892 0.65118 0.0
H1574 H 0.22654 0.25276 0.64324 0.0
H1575 H 0.19004 0.18012 0.60883 0.0
H1576 H 0.26199 0.24739 0.65096 0.0
H1577 H 0.22568 0.175 0.61625 0.0
H1578 H 0.2818 0.16235 0.64956 0.0
H1579 H 0.24599 0.16743 0.64267 0.0
H1580 H 0.2972 0.24704 0.63551 0.0
H1581 H 0.333 0.24191 0.6429 0.0
C1582 C 0.22609 0.23568 0.63726 0.0
C1583 C 0.2054 0.21689 0.62539 0.0
C1584 C 0.24651 0.23267 0.6416 0.0
C1585 C 0.24678 0.21079 0.63419 0.0
C1586 C 0.22602 0.19195 0.62239 0.0
C1587 C 0.20562 0.19497 0.61803 0.0
C1588 C 0.28537 0.18099 0.64679 0.0
C1589 C 0.31014 0.20195 0.64739 0.0
C1590 C 0.26485 0.18385 0.64257 0.0
C1591 C 0.26865 0.2077 0.63864 0.0
C1592 C 0.29353 0.22852 0.63882 0.0
C1593 C 0.31405 0.22559 0.64295 0.0
H1594 H 0.80182 0.97098 0.6314 0.0
H1595 H 0.77433 0.98237 0.57822 0.0
H1596 H 0.81454 0.01419 0.64417 0.0
H1597 H 0.78771 0.0259 0.59082 0.0
H1598 H 0.78233 0.08694 0.62892 0.0
H1599 H 0.77362 0.04558 0.61484 0.0
H1600 H 0.84308 0.0591 0.6417 0.0
H1601 H 0.85165 0.10049 0.65613 0.0
C1602 C 0.79883 0.98283 0.6223 0.0
C1603 C 0.7868 0.97312 0.60385 0.0
C1604 C 0.80626 0.00769 0.62961 0.0
C1605 C 0.80192 0.02345 0.61861 0.0
C1606 C 0.79086 0.01408 0.59983 0.0
C1607 C 0.78334 0.98918 0.59255 0.0
C1608 C 0.7958 0.08117 0.63185 0.0
C1609 C 0.81762 0.09701 0.64378 0.0
C1610 C 0.79089 0.05748 0.62362 0.0
C1611 C 0.80771 0.04904 0.62703 0.0
C1612 C 0.82959 0.0649 0.63894 0.0
C1613 C 0.83449 0.08863 0.64722 0.0
H1614 H 0.52136 0.35381 0.73331 0.0
H1615 H 0.48934 0.38838 0.70046 0.0
H1616 H 0.48606 0.31154 0.72196 0.0
H1617 H 0.45422 0.34609 0.68904 0.0
H1618 H 0.41216 0.26452 0.6572 0.0
H1619 H 0.4477 0.30682 0.66803 0.0
H1620 H 0.43804 0.28692 0.72678 0.0
H1621 H 0.40251 0.24435 0.71576 0.0
C1622 C 0.50694 0.35239 0.72353 0.0
C1623 C 0.50811 0.37442 0.71778 0.0
C1624 C 0.48666 0.32822 0.71718 0.0
C1625 C 0.46738 0.32561 0.70474 0.0
C1626 C 0.46888 0.34759 0.69858 0.0
C1627 C 0.48896 0.37177 0.70515 0.0
C1628 C 0.41786 0.2691 0.67235 0.0
C1629 C 0.40501 0.25114 0.68561 0.0
C1630 C 0.43796 0.29337 0.67859 0.0
C1631 C 0.44572 0.30003 0.69821 0.0
C1632 C 0.43261 0.28213 0.71153 0.0
C1633 C 0.41223 0.25794 0.70529 0.0
H1634 H 0.67629 0.15961 0.73465 0.0
H1635 H 0.63558 0.08625 0.70138 0.0
H1636 H 0.71575 0.1662 0.72201 0.0
H1637 H 0.675 0.09304 0.68849 0.0
H1638 H 0.7537 0.10132 0.68924 0.0
H1639 H 0.71324 0.0949 0.69941 0.0
H1640 H 0.73923 0.17394 0.69276 0.0
H1641 H 0.77994 0.18036 0.68305 0.0
C1642 C 0.67572 0.1449 0.7246 0.0
C1643 C 0.65272 0.12233 0.71913 0.0
C1644 C 0.69836 0.14879 0.71721 0.0
C1645 C 0.69862 0.13018 0.70418 0.0
C1646 C 0.67558 0.10766 0.69865 0.0
C1647 C 0.65294 0.1038 0.70602 0.0
C1648 C 0.75059 0.11721 0.68975 0.0
C1649 C 0.76975 0.14119 0.68502 0.0
C1650 C 0.72738 0.11354 0.69549 0.0
C1651 C 0.72289 0.13389 0.69692 0.0
C1652 C 0.74209 0.1579 0.69202 0.0
C1653 C 0.76532 0.16153 0.68622 0.0
H1654 H 0.86716 0.48932 0.7015 0.0
H1655 H 0.8483 0.50965 0.75709 0.0
H1656 H 0.86198 0.52199 0.68765 0.0
H1657 H 0.84372 0.54261 0.74329 0.0
H1658 H 0.86972 0.61764 0.71391 0.0
H1659 H 0.87553 0.58514 0.727 0.0
H1660 H 0.82236 0.52861 0.68347 0.0
H1661 H 0.81557 0.56069 0.67079 0.0
C1662 C 0.86202 0.50082 0.71075 0.0
C1663 C 0.85809 0.49694 0.73036 0.0
C1664 C 0.85899 0.5194 0.70282 0.0
C1665 C 0.85254 0.53475 0.71446 0.0
C1666 C 0.84886 0.53107 0.73408 0.0
C1667 C 0.85136 0.51215 0.74192 0.0
C1668 C 0.85924 0.59833 0.70706 0.0
C1669 C 0.84232 0.59188 0.69113 0.0
C1670 C 0.86259 0.57975 0.7146 0.0
C1671 C 0.84945 0.55449 0.70617 0.0
C1672 C 0.83289 0.54806 0.69008 0.0
C1673 C 0.82912 0.56649 0.68279 0.0
H1674 H 0.50699 0.92203 0.22297 0.0
H1675 H 0.44196 0.93067 0.22031 0.0
H1676 H 0.5201 0.94116 0.19253 0.0
H1677 H 0.45539 0.95034 0.19031 0.0
H1678 H 0.47338 0.96568 0.12834 0.0
H1679 H 0.4598 0.94232 0.15689 0.0
H1680 H 0.53707 0.98137 0.17951 0.0
H1681 H 0.55074 0.00368 0.15056 0.0
C1682 C 0.49551 0.92805 0.21595 0.0
C1683 C 0.47342 0.92478 0.22418 0.0
C1684 C 0.5031 0.93915 0.19851 0.0
C1685 C 0.48882 0.94733 0.18887 0.0
C1686 C 0.46667 0.94391 0.19708 0.0
C1687 C 0.45905 0.93276 0.21444 0.0
C1688 C 0.48753 0.96896 0.13923 0.0
C1689 C 0.51317 0.98675 0.13714 0.0
C1690 C 0.4797 0.95579 0.15576 0.0
C1691 C 0.49728 0.96008 0.17067 0.0
C1692 C 0.52298 0.97737 0.16832 0.0
C1693 C 0.5308 0.99046 0.15179 0.0
H1694 H 0.10753 0.51401 0.21188 0.0
H1695 H 0.06387 0.54427 0.23758 0.0
H1696 H 0.08103 0.50031 0.18225 0.0
H1697 H 0.03892 0.53307 0.20767 0.0
H1698 H 0.98613 0.49852 0.15634 0.0
H1699 H 0.00865 0.50438 0.18638 0.0
H1700 H 0.07254 0.51289 0.15518 0.0
H1701 H 0.04859 0.50325 0.12515 0.0
C1702 C 0.09226 0.51778 0.21109 0.0
C1703 C 0.08758 0.52999 0.22699 0.0
C1704 C 0.07719 0.51025 0.19402 0.0
C1705 C 0.0577 0.51565 0.19222 0.0
C1706 C 0.05313 0.52783 0.20836 0.0
C1707 C 0.0676 0.53449 0.22559 0.0
C1708 C 0.00468 0.50087 0.15575 0.0
C1709 C 0.01531 0.50037 0.138 0.0
C1710 C 0.01799 0.50488 0.17318 0.0
C1711 C 0.04279 0.50951 0.17353 0.0
C1712 C 0.05343 0.50904 0.15578 0.0
C1713 C 0.03977 0.50411 0.13834 0.0
H1714 H 0.43764 0.48039 0.222 0.0
H1715 H 0.51311 0.54563 0.23236 0.0
H1716 H 0.45052 0.46751 0.19211 0.0
H1717 H 0.52561 0.53327 0.20253 0.0
H1718 H 0.54892 0.49524 0.15726 0.0
H1719 H 0.53395 0.50204 0.18804 0.0
H1720 H 0.46252 0.48106 0.16006 0.0
H1721 H 0.47698 0.47272 0.12937 0.0
C1722 C 0.45694 0.49193 0.21795 0.0
C1723 C 0.47434 0.51399 0.22961 0.0
C1724 C 0.46428 0.48464 0.20078 0.0
C1725 C 0.48914 0.49929 0.19496 0.0
C1726 C 0.50647 0.52123 0.20673 0.0
C1727 C 0.4992 0.52843 0.22382 0.0
C1728 C 0.52983 0.49154 0.15769 0.0
C1729 C 0.51422 0.48354 0.14078 0.0
C1730 C 0.52134 0.49577 0.17533 0.0
C1731 C 0.49712 0.49237 0.1765 0.0
C1732 C 0.48122 0.4837 0.15971 0.0
C1733 C 0.48966 0.47928 0.14205 0.0
H1734 H 0.97536 0.49187 0.77864 0.0
H1735 H 0.9139 0.47492 0.81586 0.0
H1736 H 0.00404 0.50422 0.8069 0.0
H1737 H 0.94266 0.48765 0.844 0.0
H1738 H 0.99118 0.47568 0.88656 0.0
H1739 H 0.96432 0.46821 0.85825 0.0
H1740 H 0.02451 0.53535 0.8356 0.0
H1741 H 0.05152 0.54295 0.86415 0.0
C1742 C 0.96804 0.49119 0.79283 0.0
C1743 C 0.94227 0.48212 0.79499 0.0
C1744 C 0.98451 0.49835 0.80901 0.0
C1745 C 0.97552 0.49656 0.82766 0.0
C1746 C 0.95003 0.48873 0.8298 0.0
C1747 C 0.93359 0.48159 0.81366 0.0
C1748 C 0.99865 0.48899 0.87563 0.0
C1749 C 0.02342 0.51002 0.87766 0.0
C1750 C 0.98323 0.48474 0.85943 0.0
C1751 C 0.9922 0.50137 0.8448 0.0
C1752 C 0.01713 0.52215 0.8466 0.0
C1753 C 0.0326 0.52645 0.8629 0.0
H1754 H 0.57892 0.47372 0.81356 0.0
H1755 H 0.54553 0.50774 0.78157 0.0
H1756 H 0.56543 0.48541 0.84349 0.0
H1757 H 0.53223 0.51953 0.81154 0.0
H1758 H 0.48113 0.49813 0.864 0.0
H1759 H 0.49983 0.49376 0.83432 0.0
H1760 H 0.57095 0.52207 0.86574 0.0
H1761 H 0.55243 0.52696 0.89545 0.0
C1762 C 0.56909 0.48407 0.81293 0.0
C1763 C 0.56312 0.48958 0.79514 0.0
C1764 C 0.56145 0.49085 0.8301 0.0
C1765 C 0.54755 0.50316 0.82982 0.0
C1766 C 0.54259 0.50972 0.81215 0.0
C1767 C 0.55038 0.5031 0.795 0.0
C1768 C 0.50088 0.50389 0.86456 0.0
C1769 C 0.51523 0.51282 0.88214 0.0
C1770 C 0.51159 0.50137 0.84754 0.0
C1771 C 0.53686 0.50759 0.84771 0.0
C1772 C 0.55135 0.51688 0.86521 0.0
C1773 C 0.54069 0.51957 0.88222 0.0
H1774 H 0.50465 0.07254 0.79744 0.0
H1775 H 0.57106 0.06608 0.79699 0.0
H1776 H 0.49098 0.04872 0.82555 0.0
H1777 H 0.55698 0.0417 0.82521 0.0
H1778 H 0.53334 0.01853 0.88712 0.0
H1779 H 0.54942 0.04479 0.86002 0.0
H1780 H 0.47444 0.00525 0.83282 0.0
H1781 H 0.45834 0.97975 0.86001 0.0
C1782 C 0.5164 0.06604 0.8033 0.0
C1783 C 0.53895 0.07118 0.79478 0.0
C1784 C 0.50843 0.05221 0.81943 0.0
C1785 C 0.52272 0.04304 0.82758 0.0
C1786 C 0.54558 0.0486 0.81937 0.0
C1787 C 0.55358 0.06247 0.80313 0.0
C1788 C 0.52028 0.01564 0.87542 0.0
C1789 C 0.49453 0.99696 0.87575 0.0
C1790 C 0.52955 0.0305 0.85979 0.0
C1791 C 0.51325 0.02718 0.84421 0.0
C1792 C 0.48752 0.00857 0.84464 0.0
C1793 C 0.47831 0.99371 0.86017 0.0
H1794 H 0.177 0.26442 0.55506 0.0
H1795 H 0.11476 0.27762 0.55363 0.0
H1796 H 0.19276 0.28705 0.52635 0.0
H1797 H 0.13091 0.30085 0.52535 0.0
H1798 H 0.15269 0.32118 0.46451 0.0
H1799 H 0.13649 0.29575 0.49178 0.0
H1800 H 0.21249 0.32898 0.51602 0.0
H1801 H 0.22876 0.35331 0.48823 0.0
C1802 C 0.16672 0.27222 0.54869 0.0
C1803 C 0.14459 0.26915 0.55672 0.0
C1804 C 0.17584 0.28534 0.53226 0.0
C1805 C 0.16315 0.29584 0.52347 0.0
C1806 C 0.14099 0.29269 0.53149 0.0
C1807 C 0.1318 0.27949 0.54785 0.0
C1808 C 0.166 0.32278 0.47549 0.0
C1809 C 0.19207 0.33941 0.47413 0.0
C1810 C 0.15667 0.30842 0.4913 0.0
C1811 C 0.17314 0.31038 0.50623 0.0
C1812 C 0.19922 0.32675 0.50475 0.0
C1813 C 0.20856 0.34102 0.4889 0.0
H1814 H 0.66575 0.81808 0.58638 0.0
H1815 H 0.74346 0.85939 0.57101 0.0
H1816 H 0.65246 0.82351 0.55492 0.0
H1817 H 0.73003 0.86453 0.53931 0.0
H1818 H 0.68364 0.83121 0.47808 0.0
H1819 H 0.70099 0.83094 0.50953 0.0
H1820 H 0.66031 0.86356 0.53708 0.0
H1821 H 0.64392 0.86519 0.5057 0.0
C1822 C 0.67998 0.82837 0.57627 0.0
C1823 C 0.70564 0.83855 0.58117 0.0
C1824 C 0.67239 0.83157 0.55834 0.0
C1825 C 0.69026 0.84454 0.5448 0.0
C1826 C 0.71594 0.8545 0.54957 0.0
C1827 C 0.7236 0.85174 0.56771 0.0
C1828 C 0.67882 0.83892 0.49074 0.0
C1829 C 0.66215 0.84805 0.48926 0.0
C1830 C 0.68871 0.83864 0.50876 0.0
C1831 C 0.68182 0.84708 0.52565 0.0
C1832 C 0.66566 0.85669 0.52423 0.0
C1833 C 0.65613 0.85741 0.50624 0.0
H1834 H 0.07509 0.8481 0.52905 0.0
H1835 H 0.13323 0.86154 0.57098 0.0
H1836 H 0.09966 0.84413 0.50322 0.0
H1837 H 0.15782 0.85739 0.54518 0.0
H1838 H 0.20635 0.87838 0.4918 0.0
H1839 H 0.18185 0.87995 0.5187 0.0
H1840 H 0.11412 0.817 0.48962 0.0
H1841 H 0.13858 0.81575 0.46266 0.0
C1842 C 0.0931 0.85009 0.53274 0.0
C1843 C 0.10252 0.85571 0.55199 0.0
C1844 C 0.10714 0.8477 0.51795 0.0
C1845 C 0.13079 0.85057 0.52211 0.0
C1846 C 0.13993 0.85563 0.54144 0.0
C1847 C 0.12592 0.85814 0.55623 0.0
C1848 C 0.18628 0.86468 0.49131 0.0
C1849 C 0.17435 0.84705 0.4751 0.0
C1850 C 0.17223 0.86555 0.50672 0.0
C1851 C 0.14598 0.84871 0.50627 0.0
C1852 C 0.13421 0.83059 0.49026 0.0
C1853 C 0.14822 0.82982 0.47484 0.0
H1854 H 0.60464 0.80261 0.13146 0.0
H1855 H 0.55297 0.80373 0.17249 0.0
H1856 H 0.63478 0.81093 0.1579 0.0
H1857 H 0.58329 0.8126 0.19889 0.0
H1858 H 0.62926 0.79585 0.24049 0.0
H1859 H 0.60048 0.78823 0.21342 0.0
H1860 H 0.66231 0.84548 0.18383 0.0
H1861 H 0.6912 0.85354 0.21115 0.0
C1862 C 0.59965 0.8044 0.14613 0.0
C1863 C 0.57624 0.80193 0.14996 0.0
C1864 C 0.61704 0.80952 0.16124 0.0
C1865 C 0.61126 0.81214 0.18046 0.0
C1866 C 0.58808 0.81026 0.18423 0.0
C1867 C 0.57081 0.80537 0.16913 0.0
C1868 C 0.63674 0.80698 0.2283 0.0
C1869 C 0.66252 0.82549 0.22808 0.0
C1870 C 0.62023 0.80258 0.21279 0.0
C1871 C 0.62911 0.81642 0.1966 0.0
C1872 C 0.65498 0.83443 0.19608 0.0
C1873 C 0.67152 0.83897 0.2117 0.0
H1874 H 0.25094 0.81685 0.15132 0.0
H1875 H 0.20692 0.83623 0.11576 0.0
H1876 H 0.23235 0.82445 0.17996 0.0
H1877 H 0.18844 0.84394 0.14449 0.0
H1878 H 0.13454 0.81156 0.19502 0.0
H1879 H 0.15799 0.81361 0.16656 0.0
H1880 H 0.22798 0.85689 0.20088 0.0
H1881 H 0.20459 0.85542 0.22939 0.0
C1882 C 0.2377 0.82325 0.14964 0.0
C1883 C 0.23023 0.82568 0.13122 0.0
C1884 C 0.22712 0.82769 0.16607 0.0
C1885 C 0.20873 0.83451 0.16443 0.0
C1886 C 0.20232 0.83836 0.14615 0.0
C1887 C 0.21306 0.83412 0.12971 0.0
C1888 C 0.15494 0.82199 0.19648 0.0
C1889 C 0.16763 0.83322 0.21455 0.0
C1890 C 0.16838 0.82315 0.18014 0.0
C1891 C 0.19483 0.83544 0.18149 0.0
C1892 C 0.20759 0.8471 0.19945 0.0
C1893 C 0.19416 0.84611 0.21578 0.0
H1894 H 0.24507 0.39845 0.12801 0.0
H1895 H 0.19218 0.42424 0.13607 0.0
H1896 H 0.23185 0.37703 0.15765 0.0
H1897 H 0.17897 0.40278 0.16536 0.0
H1898 H 0.17612 0.38091 0.22624 0.0
H1899 H 0.19425 0.40493 0.19841 0.0
H1900 H 0.19372 0.33994 0.16905 0.0
H1901 H 0.1762 0.31614 0.19709 0.0
C1902 C 0.23075 0.39968 0.13611 0.0
C1903 C 0.21967 0.41304 0.12959 0.0
C1904 C 0.22309 0.38729 0.15304 0.0
C1905 C 0.20437 0.38822 0.16389 0.0
C1906 C 0.19366 0.40195 0.15752 0.0
C1907 C 0.20114 0.41412 0.14059 0.0
C1908 C 0.1802 0.37187 0.21396 0.0
C1909 C 0.17456 0.34654 0.21385 0.0
C1910 C 0.19039 0.38555 0.19794 0.0
C1911 C 0.19531 0.37431 0.18146 0.0
C1912 C 0.19033 0.34923 0.18155 0.0
C1913 C 0.18001 0.33549 0.19753 0.0
H1914 H 0.85065 0.59282 0.89237 0.0
H1915 H 0.7825 0.59603 0.88954 0.0
H1916 H 0.86139 0.60973 0.861 0.0
H1917 H 0.79356 0.61353 0.85859 0.0
H1918 H 0.80929 0.62686 0.79625 0.0
H1919 H 0.79786 0.60446 0.8253 0.0
H1920 H 0.87545 0.64918 0.84722 0.0
H1921 H 0.88708 0.67057 0.81777 0.0
C1922 C 0.83792 0.59706 0.88507 0.0
C1923 C 0.81573 0.59309 0.89356 0.0
C1924 C 0.84415 0.60691 0.86711 0.0
C1925 C 0.82839 0.61309 0.85724 0.0
C1926 C 0.80599 0.60865 0.86559 0.0
C1927 C 0.79972 0.59875 0.88347 0.0
C1928 C 0.824 0.63159 0.8071 0.0
C1929 C 0.84909 0.65068 0.80468 0.0
C1930 C 0.81739 0.61895 0.82389 0.0
C1931 C 0.83568 0.62511 0.83872 0.0
C1932 C 0.86088 0.64373 0.83607 0.0
C1933 C 0.8675 0.65629 0.81926 0.0
H1934 H 0.37532 0.20429 0.89814 0.0
H1935 H 0.35469 0.12675 0.88029 0.0
H1936 H 0.3649 0.20935 0.8659 0.0
H1937 H 0.34213 0.13103 0.8482 0.0
H1938 H 0.34206 0.15376 0.7875 0.0
H1939 H 0.3568 0.15024 0.81894 0.0
H1940 H 0.32923 0.19667 0.84591 0.0
H1941 H 0.31628 0.20173 0.8145 0.0
C1942 C 0.36914 0.18849 0.88723 0.0
C1943 C 0.36673 0.16543 0.89165 0.0
C1944 C 0.36247 0.19115 0.86878 0.0
C1945 C 0.35259 0.17059 0.85436 0.0
C1946 C 0.35006 0.14742 0.85881 0.0
C1947 C 0.35705 0.14488 0.87725 0.0
C1948 C 0.33953 0.16357 0.80011 0.0
C1949 C 0.32796 0.17804 0.79841 0.0
C1950 C 0.34766 0.16124 0.81819 0.0
C1951 C 0.34424 0.17316 0.83503 0.0
C1952 C 0.3326 0.18755 0.83329 0.0
C1953 C 0.32475 0.19011 0.81524 0.0
H1954 H 0.81633 0.20369 0.89544 0.0
H1955 H 0.74882 0.17914 0.86021 0.0
H1956 H 0.83748 0.20007 0.867 0.0
H1957 H 0.77008 0.17625 0.83157 0.0
H1958 H 0.80738 0.15151 0.78602 0.0
H1959 H 0.78604 0.15305 0.81501 0.0
H1960 H 0.85515 0.21973 0.83886 0.0
H1961 H 0.87654 0.21746 0.81014 0.0
C1962 C 0.80617 0.19796 0.88154 0.0
C1963 C 0.78109 0.19212 0.87998 0.0
C1964 C 0.81828 0.19584 0.8652 0.0
C1965 C 0.80563 0.18806 0.84687 0.0
C1966 C 0.78037 0.18196 0.84543 0.0
C1967 C 0.76819 0.18375 0.86182 0.0
C1968 C 0.81795 0.16645 0.79751 0.0
C1969 C 0.84362 0.18433 0.79587 0.0
C1970 C 0.80571 0.16745 0.8141 0.0
C1971 C 0.81879 0.18656 0.82936 0.0
C1972 C 0.84453 0.20443 0.82763 0.0
C1973 C 0.85682 0.20323 0.81114 0.0
H1974 H 0.30719 0.15554 0.43704 0.0
H1975 H 0.24717 0.14978 0.472 0.0
H1976 H 0.33351 0.16451 0.46607 0.0
H1977 H 0.27339 0.15824 0.50107 0.0
H1978 H 0.33417 0.19122 0.54988 0.0
H1979 H 0.31129 0.18926 0.52053 0.0
H1980 H 0.33299 0.13913 0.49125 0.0
H1981 H 0.35581 0.14111 0.52052 0.0
C1982 C 0.29968 0.15644 0.45091 0.0
C1983 C 0.27497 0.15171 0.45218 0.0
C1984 C 0.31473 0.16141 0.46756 0.0
C1985 C 0.30543 0.16173 0.48589 0.0
C1986 C 0.28119 0.15828 0.48717 0.0
C1987 C 0.26612 0.15335 0.47049 0.0
C1988 C 0.334 0.17975 0.53717 0.0
C1989 C 0.34678 0.16628 0.53753 0.0
C1990 C 0.32091 0.17865 0.52036 0.0
C1991 C 0.32035 0.1641 0.50353 0.0
C1992 C 0.33343 0.15092 0.50385 0.0
C1993 C 0.3465 0.15202 0.52064 0.0
H1994 H 0.85521 0.19905 0.43896 0.0
H1995 H 0.89115 0.15742 0.45323 0.0
H1996 H 0.83554 0.19165 0.47 0.0
H1997 H 0.8717 0.15041 0.48461 0.0
H1998 H 0.85598 0.1812 0.54636 0.0
H1999 H 0.87527 0.18364 0.51546 0.0
H2000 H 0.80215 0.14841 0.48583 0.0
H2001 H 0.78247 0.14446 0.51661 0.0
C2002 C 0.85892 0.18835 0.44876 0.0
C2003 C 0.8745 0.1786 0.44365 0.0
C2004 C 0.84758 0.18403 0.46645 0.0
C2005 C 0.85205 0.17037 0.47956 0.0
C2006 C 0.86796 0.16095 0.47466 0.0
C2007 C 0.8789 0.16479 0.45671 0.0
C2008 C 0.84384 0.17334 0.53336 0.0
C2009 C 0.81758 0.16282 0.53409 0.0
C2010 C 0.85498 0.17488 0.51567 0.0
C2011 C 0.84016 0.16636 0.49836 0.0
C2012 C 0.81397 0.15534 0.49902 0.0
C2013 C 0.80277 0.15332 0.51668 0.0
H2014 H 0.90168 0.72386 0.46447 0.0
H2015 H 0.83646 0.73231 0.46682 0.0
H2016 H 0.88832 0.6999 0.49293 0.0
H2017 H 0.82343 0.70876 0.49512 0.0
H2018 H 0.79049 0.63778 0.5279 0.0
H2019 H 0.80646 0.6642 0.50114 0.0
H2020 H 0.88147 0.70336 0.52825 0.0
H2021 H 0.86549 0.67637 0.55498 0.0
C2022 C 0.88469 0.72088 0.47113 0.0
C2023 C 0.87008 0.72989 0.46319 0.0
C2024 C 0.87708 0.70723 0.48748 0.0
C2025 C 0.85465 0.70217 0.49617 0.0
C2026 C 0.84055 0.71189 0.48858 0.0
C2027 C 0.84816 0.72556 0.47236 0.0
C2028 C 0.81043 0.6519 0.52812 0.0
C2029 C 0.82671 0.65488 0.54356 0.0
C2030 C 0.81955 0.66724 0.51287 0.0
C2031 C 0.84525 0.68598 0.51257 0.0
C2032 C 0.86161 0.68899 0.52798 0.0
C2033 C 0.85242 0.6737 0.54337 0.0
loop_
_geom_bond_atom_site_label_1
_geom_bond_atom_site_label_2
_geom_bond_distance
_geom_bond_site_symmetry_2
_ccdc_geom_bond_type
O0 Cd1 2.300 . S
O0 C7 1.275 . S
Cd1 O0 2.300 . S
Cd1 O9 2.381 . S
Cd1 O10 2.378 . S
O2 Cd3 2.385 . S
O2 C7 1.255 . S
Cd3 O2 2.385 . S
Cd3 O4 2.317 . S
O4 Cd3 2.317 . S
O4 C5 1.232 . S
C5 O4 1.232 . S
C5 O6 1.218 . S
O6 C5 1.218 . S
C7 O0 1.275 . S
C7 O2 1.255 . S
C8 O9 1.258 . S
C8 O10 1.256 . S
O9 Cd1 2.381 . S
O9 C8 1.258 . S
O10 Cd1 2.378 . S
O10 C8 1.256 . S
O11 Cd12 2.300 . S
O11 C18 1.275 . S
Cd12 O11 2.300 . S
Cd12 O20 2.381 . S
Cd12 O21 2.378 . S
O13 Cd14 2.385 . S
O13 C18 1.255 . S
Cd14 O13 2.385 . S
Cd14 O15 2.317 . S
O15 Cd14 2.317 . S
O15 C16 1.232 . S
C16 O15 1.232 . S
C16 O17 1.218 . S
O17 C16 1.218 . S
C18 O11 1.275 . S
C18 O13 1.255 . S
C19 O20 1.258 . S
C19 O21 1.256 . S
O20 Cd12 2.381 . S
O20 C19 1.258 . S
O21 Cd12 2.378 . S
O21 C19 1.256 . S
O22 Cd23 2.300 . S
O22 C29 1.275 . S
Cd23 O22 2.300 . S
Cd23 O31 2.381 . S
Cd23 O32 2.378 . S
O24 Cd25 2.385 . S
O24 C29 1.255 . S
Cd25 O24 2.385 . S
Cd25 O26 2.317 . S
O26 Cd25 2.317 . S
O26 C27 1.232 . S
C27 O26 1.232 . S
C27 O28 1.218 . S
O28 C27 1.218 . S
C29 O22 1.275 . S
C29 O24 1.255 . S
C30 O31 1.258 . S
C30 O32 1.256 . S
O31 Cd23 2.381 . S
O31 C30 1.258 . S
O32 Cd23 2.378 . S
O32 C30 1.256 . S
O33 Cd34 2.300 . S
O33 C40 1.275 . S
Cd34 O33 2.300 . S
Cd34 O42 2.381 . S
Cd34 O43 2.378 . S
O35 Cd36 2.385 . S
O35 C40 1.255 . S
Cd36 O35 2.385 . S
Cd36 O37 2.317 . S
O37 Cd36 2.317 . S
O37 C38 1.232 . S
C38 O37 1.232 . S
C38 O39 1.218 . S
O39 C38 1.218 . S
C40 O33 1.275 . S
C40 O35 1.255 . S
C41 O42 1.258 . S
C41 O43 1.256 . S
O42 Cd34 2.381 . S
O42 C41 1.258 . S
O43 Cd34 2.378 . S
O43 C41 1.256 . S
O44 Cd45 2.300 . S
O44 C51 1.275 . S
Cd45 O44 2.300 . S
Cd45 O53 2.381 . S
Cd45 O54 2.378 . S
O46 Cd47 2.385 . S
O46 C51 1.255 . S
Cd47 O46 2.385 . S
Cd47 O48 2.317 . S
O48 Cd47 2.317 . S
O48 C49 1.232 . S
C49 O48 1.232 . S
C49 O50 1.218 . S
O50 C49 1.218 . S
C51 O44 1.275 . S
C51 O46 1.255 . S
C52 O53 1.258 . S
C52 O54 1.256 . S
O53 Cd45 2.381 . S
O53 C52 1.258 . S
O54 Cd45 2.378 . S
O54 C52 1.256 . S
O55 Cd56 2.300 . S
O55 C62 1.275 . S
Cd56 O55 2.300 . S
Cd56 O64 2.381 . S
Cd56 O65 2.378 . S
O57 Cd58 2.385 . S
O57 C62 1.255 . S
Cd58 O57 2.385 . S
Cd58 O59 2.317 . S
O59 Cd58 2.317 . S
O59 C60 1.232 . S
C60 O59 1.232 . S
C60 O61 1.218 . S
O61 C60 1.218 . S
C62 O55 1.275 . S
C62 O57 1.255 . S
C63 O64 1.258 . S
C63 O65 1.256 . S
O64 Cd56 2.381 . S
O64 C63 1.258 . S
O65 Cd56 2.378 . S
O65 C63 1.256 . S
O66 Cd67 2.300 . S
O66 C73 1.275 . S
Cd67 O66 2.300 . S
Cd67 O75 2.381 . S
Cd67 O76 2.378 . S
O68 Cd69 2.385 . S
O68 C73 1.255 . S
Cd69 O68 2.385 . S
Cd69 O70 2.317 . S
O70 Cd69 2.317 . S
O70 C71 1.232 . S
C71 O70 1.232 . S
C71 O72 1.218 . S
O72 C71 1.218 . S
C73 O66 1.275 . S
C73 O68 1.255 . S
C74 O75 1.258 . S
C74 O76 1.256 . S
O75 Cd67 2.381 . S
O75 C74 1.258 . S
O76 Cd67 2.378 . S
O76 C74 1.256 . S
O77 Cd78 2.300 . S
O77 C84 1.275 . S
Cd78 O77 2.300 . S
Cd78 O86 2.381 . S
Cd78 O87 2.378 . S
O79 Cd80 2.385 . S
O79 C84 1.255 . S
Cd80 O79 2.385 . S
Cd80 O81 2.317 . S
O81 Cd80 2.317 . S
O81 C82 1.232 . S
C82 O81 1.232 . S
C82 O83 1.218 . S
O83 C82 1.218 . S
C84 O77 1.275 . S
C84 O79 1.255 . S
C85 O86 1.258 . S
C85 O87 1.256 . S
O86 Cd78 2.381 . S
O86 C85 1.258 . S
O87 Cd78 2.378 . S
O87 C85 1.256 . S
O88 Cd89 2.300 . S
O88 C95 1.275 . S
Cd89 O88 2.300 . S
Cd89 O97 2.381 . S
Cd89 O98 2.378 . S
O90 Cd91 2.385 . S
O90 C95 1.255 . S
Cd91 O90 2.385 . S
Cd91 O92 2.317 . S
O92 Cd91 2.317 . S
O92 C93 1.232 . S
C93 O92 1.232 . S
C93 O94 1.218 . S
O94 C93 1.218 . S
C95 O88 1.275 . S
C95 O90 1.255 . S
C96 O97 1.258 . S
C96 O98 1.256 . S
O97 Cd89 2.381 . S
O97 C96 1.258 . S
O98 Cd89 2.378 . S
O98 C96 1.256 . S
O99 Cd100 2.300 . S
O99 C106 1.275 . S
Cd100 O99 2.300 . S
Cd100 O108 2.381 . S
Cd100 O109 2.378 . S
O101 Cd102 2.385 . S
O101 C106 1.255 . S
Cd102 O101 2.385 . S
Cd102 O103 2.317 . S
O103 Cd102 2.317 . S
O103 C104 1.232 . S
C104 O103 1.232 . S
C104 O105 1.218 . S
O105 C104 1.218 . S
C106 O99 1.275 . S
C106 O101 1.255 . S
C107 O108 1.258 . S
C107 O109 1.256 . S
O108 Cd100 2.381 . S
O108 C107 1.258 . S
O109 Cd100 2.378 . S
O109 C107 1.256 . S
O110 Cd111 2.300 . S
O110 C117 1.275 . S
Cd111 O110 2.300 . S
Cd111 O119 2.381 . S
Cd111 O120 2.378 . S
O112 Cd113 2.385 . S
O112 C117 1.255 . S
Cd113 O112 2.385 . S
Cd113 O114 2.317 . S
O114 Cd113 2.317 . S
O114 C115 1.232 . S
C115 O114 1.232 . S
C115 O116 1.218 . S
O116 C115 1.218 . S
C117 O110 1.275 . S
C117 O112 1.255 . S
C118 O119 1.258 . S
C118 O120 1.256 . S
O119 Cd111 2.381 . S
O119 C118 1.258 . S
O120 Cd111 2.378 . S
O120 C118 1.256 . S
O121 Cd122 2.300 . S
O121 C128 1.275 . S
Cd122 O121 2.300 . S
Cd122 O130 2.381 . S
Cd122 O131 2.378 . S
O123 Cd124 2.385 . S
O123 C128 1.255 . S
Cd124 O123 2.385 . S
Cd124 O125 2.317 . S
O125 Cd124 2.317 . S
O125 C126 1.232 . S
C126 O125 1.232 . S
C126 O127 1.218 . S
O127 C126 1.218 . S
C128 O121 1.275 . S
C128 O123 1.255 . S
C129 O130 1.258 . S
C129 O131 1.256 . S
O130 Cd122 2.381 . S
O130 C129 1.258 . S
O131 Cd122 2.378 . S
O131 C129 1.256 . S
O132 Cd133 2.300 . S
O132 C139 1.275 . S
Cd133 O132 2.300 . S
Cd133 O141 2.381 . S
Cd133 O142 2.378 . S
O134 Cd135 2.385 . S
O134 C139 1.255 . S
Cd135 O134 2.385 . S
Cd135 O136 2.317 . S
O136 Cd135 2.317 . S
O136 C137 1.232 . S
C137 O136 1.232 . S
C137 O138 1.218 . S
O138 C137 1.218 . S
C139 O132 1.275 . S
C139 O134 1.255 . S
C140 O141 1.258 . S
C140 O142 1.256 . S
O141 Cd133 2.381 . S
O141 C140 1.258 . S
O142 Cd133 2.378 . S
O142 C140 1.256 . S
O143 Cd144 2.300 . S
O143 C150 1.275 . S
Cd144 O143 2.300 . S
Cd144 O152 2.381 . S
Cd144 O153 2.378 . S
O145 Cd146 2.385 . S
O145 C150 1.255 . S
Cd146 O145 2.385 . S
Cd146 O147 2.317 . S
O147 Cd146 2.317 . S
O147 C148 1.232 . S
C148 O147 1.232 . S
C148 O149 1.218 . S
O149 C148 1.218 . S
C150 O143 1.275 . S
C150 O145 1.255 . S
C151 O152 1.258 . S
C151 O153 1.256 . S
O152 Cd144 2.381 . S
O152 C151 1.258 . S
O153 Cd144 2.378 . S
O153 C151 1.256 . S
O154 Cd155 2.300 . S
O154 C161 1.275 . S
Cd155 O154 2.300 . S
Cd155 O163 2.381 . S
Cd155 O164 2.378 . S
O156 Cd157 2.385 . S
O156 C161 1.255 . S
Cd157 O156 2.385 . S
Cd157 O158 2.317 . S
O158 Cd157 2.317 . S
O158 C159 1.232 . S
C159 O158 1.232 . S
C159 O160 1.218 . S
O160 C159 1.218 . S
C161 O154 1.275 . S
C161 O156 1.255 . S
C162 O163 1.258 . S
C162 O164 1.256 . S
O163 Cd155 2.381 . S
O163 C162 1.258 . S
O164 Cd155 2.378 . S
O164 C162 1.256 . S
O165 Cd166 2.300 . S
O165 C172 1.275 . S
Cd166 O165 2.300 . S
Cd166 O174 2.381 . S
Cd166 O175 2.378 . S
O167 Cd168 2.385 . S
O167 C172 1.255 . S
Cd168 O167 2.385 . S
Cd168 O169 2.317 . S
O169 Cd168 2.317 . S
O169 C170 1.232 . S
C170 O169 1.232 . S
C170 O171 1.218 . S
O171 C170 1.218 . S
C172 O165 1.275 . S
C172 O167 1.255 . S
C173 O174 1.258 . S
C173 O175 1.256 . S
O174 Cd166 2.381 . S
O174 C173 1.258 . S
O175 Cd166 2.378 . S
O175 C173 1.256 . S
O176 Cd177 2.300 . S
O176 C183 1.275 . S
Cd177 O176 2.300 . S
Cd177 O185 2.381 . S
Cd177 O186 2.378 . S
O178 Cd179 2.385 . S
O178 C183 1.255 . S
Cd179 O178 2.385 . S
Cd179 O180 2.317 . S
O180 Cd179 2.317 . S
O180 C181 1.232 . S
C181 O180 1.232 . S
C181 O182 1.218 . S
O182 C181 1.218 . S
C183 O176 1.275 . S
C183 O178 1.255 . S
C184 O185 1.258 . S
C184 O186 1.256 . S
O185 Cd177 2.381 . S
O185 C184 1.258 . S
O186 Cd177 2.378 . S
O186 C184 1.256 . S
O187 Cd188 2.300 . S
O187 C194 1.275 . S
Cd188 O187 2.300 . S
Cd188 O196 2.381 . S
Cd188 O197 2.378 . S
O189 Cd190 2.385 . S
O189 C194 1.255 . S
Cd190 O189 2.385 . S
Cd190 O191 2.317 . S
O191 Cd190 2.317 . S
O191 C192 1.232 . S
C192 O191 1.232 . S
C192 O193 1.218 . S
O193 C192 1.218 . S
C194 O187 1.275 . S
C194 O189 1.255 . S
C195 O196 1.258 . S
C195 O197 1.256 . S
O196 Cd188 2.381 . S
O196 C195 1.258 . S
O197 Cd188 2.378 . S
O197 C195 1.256 . S
Eu198 N229 2.657 . S
Eu198 N236 2.609 . S
Eu198 O242 2.558 . S
Eu198 O243 2.612 1_566 S
Eu198 O245 2.339 1_565 S
Eu198 O246 2.563 1_565 S
Eu198 O247 2.419 1_565 S
Eu198 O249 2.380 1_556 S
Eu198 O250 2.432 . S
Eu198 C262 2.848 . S
C199 C202 1.429 . S
C199 C203 1.411 . S
C199 N206 1.377 . S
C200 C202 1.420 . S
C200 C204 1.423 . S
C200 C212 1.392 . S
C201 C203 1.420 . S
C201 C204 1.351 . S
C201 H224 0.931 . S
C202 C199 1.429 . S
C202 C200 1.420 . S
C202 N210 1.362 . S
C203 C199 1.411 . S
C203 C201 1.420 . S
C203 C208 1.395 . S
C204 C200 1.423 . S
C204 C201 1.351 . S
C204 H216 0.930 . S
C205 C207 1.400 . S
C205 C208 1.386 . S
C205 H217 0.930 . S
N206 C199 1.377 . S
N206 C207 1.321 . S
N206 Eu209 2.609 . S
C207 C205 1.400 . S
C207 N206 1.321 . S
C207 H214 0.930 . S
C208 C203 1.395 . S
C208 C205 1.386 . S
C208 H227 0.930 . S
Eu209 N206 2.609 . S
Eu209 N210 2.657 . S
Eu209 O243 2.380 . S
Eu209 O244 2.432 . S
Eu209 O248 2.558 . S
Eu209 O249 2.612 1_545 S
Eu209 O251 2.339 1_545 S
Eu209 O252 2.563 1_545 S
Eu209 O253 2.419 . S
Eu209 C273 2.848 . S
N210 C202 1.362 . S
N210 Eu209 2.657 . S
N210 C211 1.334 . S
C211 N210 1.334 . S
C211 C213 1.413 . S
C211 H218 0.929 . S
C212 C200 1.392 . S
C212 C213 1.367 . S
C212 H220 0.930 . S
C213 C211 1.413 . S
C213 C212 1.367 . S
C213 H215 0.930 . S
H214 C207 0.930 . S
H215 C213 0.930 . S
H216 C204 0.930 . S
H217 C205 0.930 . S
H218 C211 0.929 . S
H219 C233 0.930 . S
H220 C212 0.930 . S
H221 C239 0.930 . S
H222 C230 0.929 . S
H223 C237 0.930 . S
H224 C201 0.931 . S
H225 C231 0.930 . S
H226 C264 0.930 . S
H227 C208 0.930 . S
H228 C263 0.931 . S
N229 Eu198 2.657 . S
N229 C230 1.334 . S
N229 C234 1.362 . S
C230 H222 0.929 . S
C230 N229 1.334 . S
C230 C233 1.413 . S
C231 H225 0.930 . S
C231 C232 1.392 . S
C231 C233 1.367 . S
C232 C231 1.392 . S
C232 C234 1.420 . S
C232 C264 1.423 . S
C233 H219 0.930 . S
C233 C230 1.413 . S
C233 C231 1.367 . S
C234 N229 1.362 . S
C234 C232 1.420 . S
C234 C238 1.429 . S
H235 C240 0.930 . S
N236 Eu198 2.609 . S
N236 C238 1.377 . S
N236 C239 1.321 . S
C237 H223 0.930 . S
C237 C239 1.400 . S
C237 C240 1.386 . S
C238 C234 1.429 . S
C238 N236 1.377 . S
C238 C241 1.411 . S
C239 H221 0.930 . S
C239 N236 1.321 . S
C239 C237 1.400 . S
C240 H235 0.930 . S
C240 C237 1.386 . S
C240 C241 1.395 . S
C241 C238 1.411 . S
C241 C240 1.395 . S
C241 C263 1.420 . S
O242 Eu198 2.558 . S
O242 C262 1.257 . S
O243 Eu198 2.612 1_544 S
O243 Eu209 2.380 . S
O243 C254 1.276 1_554 S
O244 Eu209 2.432 . S
O244 C261 1.270 . S
O245 Eu198 2.339 1_545 S
O245 C261 1.250 1_556 S
O246 Eu198 2.563 1_545 S
O246 C254 1.235 . S
O247 Eu198 2.419 1_545 S
O247 C262 1.249 1_545 S
O248 Eu209 2.558 . S
O248 C273 1.257 . S
O249 Eu198 2.380 1_554 S
O249 Eu209 2.612 1_565 S
O249 C265 1.276 . S
O250 Eu198 2.432 . S
O250 C272 1.264 1_556 S
O251 Eu209 2.339 1_565 S
O251 C272 1.254 . S
O252 Eu209 2.563 1_565 S
O252 C265 1.235 . S
O253 Eu209 2.419 . S
O253 C273 1.249 . S
C254 O243 1.276 1_556 S
C254 O246 1.235 . S
C255 C257 1.393 1_565 S
C255 C259 1.395 . S
C255 C262 1.492 . S
C256 C257 1.392 . S
C256 C258 1.386 . S
C257 C255 1.393 1_545 S
C257 C256 1.392 . S
C257 H274 0.930 . S
C258 C256 1.386 . S
C258 C260 1.395 1_545 S
C258 H275 0.930 . S
C259 C255 1.395 . S
C259 C260 1.379 . S
C259 H276 0.930 . S
C260 C258 1.395 1_565 S
C260 C259 1.379 . S
C260 H277 0.930 . S
C261 O244 1.270 . S
C261 O245 1.250 1_554 S
C262 Eu198 2.848 . S
C262 O242 1.257 . S
C262 O247 1.249 1_565 S
C262 C255 1.492 . S
C263 H228 0.931 . S
C263 C241 1.420 . S
C263 C264 1.351 . S
C264 H226 0.930 . S
C264 C232 1.423 . S
C264 C263 1.351 . S
C265 O249 1.276 . S
C265 O252 1.235 . S
C266 C267 1.393 1_545 S
C266 C270 1.395 . S
C266 C273 1.492 . S
C267 C266 1.393 1_565 S
C267 C268 1.392 . S
C267 H278 0.930 . S
C268 C267 1.392 . S
C268 C269 1.386 . S
C269 C268 1.386 . S
C269 C271 1.395 1_565 S
C269 H279 0.930 . S
C270 C266 1.395 . S
C270 C271 1.379 . S
C270 H280 0.930 . S
C271 C269 1.395 1_545 S
C271 C270 1.379 . S
C271 H281 0.930 . S
C272 O250 1.264 1_554 S
C272 O251 1.254 . S
C273 Eu209 2.848 . S
C273 O248 1.257 . S
C273 O253 1.249 . S
C273 C266 1.492 . S
H274 C257 0.930 . S
H275 C258 0.930 . S
H276 C259 0.930 . S
H277 C260 0.930 . S
H278 C267 0.930 . S
H279 C269 0.930 . S
H280 C270 0.930 . S
H281 C271 0.930 . S
Eu282 N313 2.657 . S
Eu282 N320 2.609 . S
Eu282 O326 2.558 . S
Eu282 O327 2.612 1_456 S
Eu282 O329 2.339 1_455 S
Eu282 O330 2.563 1_455 S
Eu282 O331 2.419 1_455 S
Eu282 O333 2.380 1_556 S
Eu282 O334 2.432 1_556 S
Eu282 C346 2.848 . S
C283 C286 1.429 . S
C283 C287 1.411 . S
C283 N290 1.377 . S
C284 C286 1.420 . S
C284 C288 1.423 . S
C284 C296 1.392 . S
C285 C287 1.420 . S
C285 C288 1.351 . S
C285 H308 0.931 . S
C286 C283 1.429 . S
C286 C284 1.420 . S
C286 N294 1.362 . S
C287 C283 1.411 . S
C287 C285 1.420 . S
C287 C292 1.395 . S
C288 C284 1.423 . S
C288 C285 1.351 . S
C288 H300 0.930 . S
C289 C291 1.400 . S
C289 C292 1.386 . S
C289 H301 0.930 . S
N290 C283 1.377 . S
N290 C291 1.321 . S
N290 Eu293 2.609 . S
C291 C289 1.400 . S
C291 N290 1.321 . S
C291 H298 0.930 . S
C292 C287 1.395 . S
C292 C289 1.386 . S
C292 H311 0.930 . S
Eu293 N290 2.609 . S
Eu293 N294 2.657 . S
Eu293 O327 2.380 . S
Eu293 O328 2.432 . S
Eu293 O332 2.558 . S
Eu293 O333 2.612 1_655 S
Eu293 O335 2.339 1_655 S
Eu293 O336 2.563 1_655 S
Eu293 O337 2.419 1_655 S
Eu293 C357 2.848 1_655 S
N294 C286 1.362 . S
N294 Eu293 2.657 . S
N294 C295 1.334 . S
C295 N294 1.334 . S
C295 C297 1.413 . S
C295 H302 0.929 1_655 S
C296 C284 1.392 . S
C296 C297 1.367 . S
C296 H304 0.930 . S
C297 C295 1.413 . S
C297 C296 1.367 . S
C297 H299 0.930 . S
H298 C291 0.930 . S
H299 C297 0.930 . S
H300 C288 0.930 . S
H301 C289 0.930 . S
H302 C295 0.929 1_455 S
H303 C317 0.930 . S
H304 C296 0.930 . S
H305 C323 0.930 . S
H306 C314 0.939 . S
H307 C321 0.930 . S
H308 C285 0.931 . S
H309 C315 0.930 . S
H310 C348 0.930 . S
H311 C292 0.930 . S
H312 C347 0.931 . S
N313 Eu282 2.657 . S
N313 C314 1.334 . S
N313 C318 1.362 . S
C314 H306 0.939 . S
C314 N313 1.334 . S
C314 C317 1.413 . S
C315 H309 0.930 . S
C315 C316 1.392 . S
C315 C317 1.367 . S
C316 C315 1.392 . S
C316 C318 1.420 . S
C316 C348 1.423 . S
C317 H303 0.930 . S
C317 C314 1.413 . S
C317 C315 1.367 . S
C318 N313 1.362 . S
C318 C316 1.420 . S
C318 C322 1.429 . S
H319 C324 0.930 . S
N320 Eu282 2.609 . S
N320 C322 1.377 . S
N320 C323 1.321 . S
C321 H307 0.930 . S
C321 C323 1.400 . S
C321 C324 1.386 . S
C322 C318 1.429 . S
C322 N320 1.377 . S
C322 C325 1.411 . S
C323 H305 0.930 . S
C323 N320 1.321 . S
C323 C321 1.400 . S
C324 H319 0.930 . S
C324 C321 1.386 . S
C324 C325 1.395 . S
C325 C322 1.411 . S
C325 C324 1.395 . S
C325 C347 1.420 . S
O326 Eu282 2.558 . S
O326 C346 1.257 . S
O327 Eu282 2.612 1_654 S
O327 Eu293 2.380 . S
O327 C338 1.276 1_554 S
O328 Eu293 2.432 . S
O328 C345 1.264 . S
O329 Eu282 2.339 1_655 S
O329 C345 1.254 1_556 S
O330 Eu282 2.563 1_655 S
O330 C338 1.235 . S
O331 Eu282 2.419 1_655 S
O331 C346 1.249 1_655 S
O332 Eu293 2.558 . S
O332 C357 1.257 1_655 S
O333 Eu282 2.380 1_554 S
O333 Eu293 2.612 1_455 S
O333 C349 1.276 . S
O334 Eu282 2.432 1_554 S
O334 C356 1.264 . S
O335 Eu293 2.339 1_455 S
O335 C356 1.254 . S
O336 Eu293 2.563 1_455 S
O336 C349 1.235 . S
O337 Eu293 2.419 1_455 S
O337 C357 1.249 . S
C338 O327 1.276 1_556 S
C338 O330 1.235 . S
C339 C341 1.393 . S
C339 C343 1.395 1_655 S
C339 C346 1.492 1_655 S
C340 C341 1.392 . S
C340 C342 1.386 . S
C341 C339 1.393 . S
C341 C340 1.392 . S
C341 H358 0.930 . S
C342 C340 1.386 . S
C342 C344 1.395 1_655 S
C342 H359 0.930 . S
C343 C339 1.395 1_455 S
C343 C344 1.379 . S
C343 H360 0.930 . S
C344 C342 1.395 1_455 S
C344 C343 1.379 . S
C344 H361 0.930 . S
C345 O328 1.264 . S
C345 O329 1.254 1_554 S
C346 Eu282 2.848 . S
C346 O326 1.257 . S
C346 O331 1.249 1_455 S
C346 C339 1.492 1_455 S
C347 H312 0.931 . S
C347 C325 1.420 . S
C347 C348 1.351 . S
C348 H310 0.930 . S
C348 C316 1.423 . S
C348 C347 1.351 . S
C349 O333 1.276 . S
C349 O336 1.235 . S
C350 C351 1.393 . S
C350 C354 1.395 1_455 S
C350 C357 1.492 . S
C351 C350 1.393 . S
C351 C352 1.392 . S
C351 H362 0.930 . S
C352 C351 1.392 . S
C352 C353 1.386 . S
C353 C352 1.386 . S
C353 C355 1.405 . S
C353 H363 0.930 . S
C354 C350 1.395 1_655 S
C354 C355 1.374 1_655 S
C354 H364 0.930 . S
C355 C353 1.405 . S
C355 C354 1.374 1_455 S
C355 H365 0.924 1_455 S
C356 O334 1.264 . S
C356 O335 1.254 . S
C357 Eu293 2.848 1_455 S
C357 O332 1.257 1_455 S
C357 O337 1.249 . S
C357 C350 1.492 . S
H358 C341 0.930 . S
H359 C342 0.930 . S
H360 C343 0.930 . S
H361 C344 0.930 . S
H362 C351 0.930 . S
H363 C353 0.930 . S
H364 C354 0.930 . S
H365 C355 0.924 1_655 S
Eu366 N397 2.657 . S
Eu366 N404 2.609 . S
Eu366 O410 2.558 . S
Eu366 O411 2.612 . S
Eu366 O413 2.339 . S
Eu366 O414 2.563 . S
Eu366 O415 2.419 . S
Eu366 O417 2.380 . S
Eu366 O418 2.432 . S
Eu366 C430 2.848 . S
C367 C370 1.429 . S
C367 C371 1.411 . S
C367 N374 1.377 . S
C368 C370 1.420 . S
C368 C372 1.423 . S
C368 C380 1.392 . S
C369 C371 1.420 . S
C369 C372 1.351 . S
C369 H392 0.931 . S
C370 C367 1.429 . S
C370 C368 1.420 . S
C370 N378 1.362 . S
C371 C367 1.411 . S
C371 C369 1.420 . S
C371 C376 1.395 . S
C372 C368 1.423 . S
C372 C369 1.351 . S
C372 H384 0.930 . S
C373 C375 1.400 . S
C373 C376 1.386 . S
C373 H385 0.930 . S
N374 C367 1.377 . S
N374 C375 1.321 . S
N374 Eu377 2.609 . S
C375 C373 1.400 . S
C375 N374 1.321 . S
C375 H382 0.930 . S
C376 C371 1.395 . S
C376 C373 1.386 . S
C376 H395 0.930 . S
Eu377 N374 2.609 . S
Eu377 N378 2.657 . S
Eu377 O411 2.380 1_556 S
Eu377 O412 2.432 . S
Eu377 O416 2.558 . S
Eu377 O417 2.612 1_556 S
Eu377 O419 2.339 . S
Eu377 O420 2.563 . S
Eu377 O421 2.419 . S
Eu377 C441 2.848 . S
N378 C370 1.362 . S
N378 Eu377 2.657 . S
N378 C379 1.334 . S
C379 N378 1.334 . S
C379 C381 1.413 . S
C379 H386 0.929 . S
C380 C368 1.392 . S
C380 C381 1.367 . S
C380 H388 0.930 . S
C381 C379 1.413 . S
C381 C380 1.367 . S
C381 H383 0.930 . S
H382 C375 0.930 . S
H383 C381 0.930 . S
H384 C372 0.930 . S
H385 C373 0.930 . S
H386 C379 0.929 . S
H387 C401 0.930 . S
H388 C380 0.930 . S
H389 C407 0.930 . S
H390 C398 0.929 . S
H391 C405 0.930 . S
H392 C369 0.931 . S
H393 C399 0.930 . S
H394 C432 0.930 . S
H395 C376 0.930 . S
H396 C431 0.931 . S
N397 Eu366 2.657 . S
N397 C398 1.334 . S
N397 C402 1.362 . S
C398 H390 0.929 . S
C398 N397 1.334 . S
C398 C401 1.413 . S
C399 H393 0.930 . S
C399 C400 1.392 . S
C399 C401 1.367 . S
C400 C399 1.392 . S
C400 C402 1.420 . S
C400 C432 1.423 . S
C401 H387 0.930 . S
C401 C398 1.413 . S
C401 C399 1.367 . S
C402 N397 1.362 . S
C402 C400 1.420 . S
C402 C406 1.429 . S
H403 C408 0.930 . S
N404 Eu366 2.609 . S
N404 C406 1.377 . S
N404 C407 1.321 . S
C405 H391 0.930 . S
C405 C407 1.400 . S
C405 C408 1.386 . S
C406 C402 1.429 . S
C406 N404 1.377 . S
C406 C409 1.411 . S
C407 H389 0.930 . S
C407 N404 1.321 . S
C407 C405 1.400 . S
C408 H403 0.930 . S
C408 C405 1.386 . S
C408 C409 1.395 . S
C409 C406 1.411 . S
C409 C408 1.395 . S
C409 C431 1.420 . S
O410 Eu366 2.558 . S
O410 C430 1.257 . S
O411 Eu366 2.612 . S
O411 Eu377 2.380 1_554 S
O411 C422 1.276 . S
O412 Eu377 2.432 . S
O412 C429 1.264 1_556 S
O413 Eu366 2.339 . S
O413 C429 1.254 . S
O414 Eu366 2.563 . S
O414 C422 1.235 . S
O415 Eu366 2.419 . S
O415 C430 1.249 . S
O416 Eu377 2.558 . S
O416 C441 1.257 . S
O417 Eu366 2.380 . S
O417 Eu377 2.612 1_554 S
O417 C433 1.276 1_554 S
O418 Eu366 2.432 . S
O418 C440 1.264 1_554 S
O419 Eu377 2.339 . S
O419 C440 1.254 . S
O420 Eu377 2.563 . S
O420 C433 1.235 . S
O421 Eu377 2.419 . S
O421 C441 1.249 . S
C422 O411 1.276 . S
C422 O414 1.235 . S
C423 C425 1.393 . S
C423 C427 1.395 . S
C423 C430 1.492 . S
C424 C425 1.392 . S
C424 C426 1.386 . S
C425 C423 1.393 . S
C425 C424 1.392 . S
C425 H442 0.930 . S
C426 C424 1.386 . S
C426 C428 1.395 . S
C426 H443 0.930 . S
C427 C423 1.395 . S
C427 C428 1.379 . S
C427 H444 0.930 . S
C428 C426 1.395 . S
C428 C427 1.379 . S
C428 H445 0.930 . S
C429 O412 1.264 1_554 S
C429 O413 1.254 . S
C430 Eu366 2.848 . S
C430 O410 1.257 . S
C430 O415 1.249 . S
C430 C423 1.492 . S
C431 H396 0.931 . S
C431 C409 1.420 . S
C431 C432 1.351 . S
C432 H394 0.930 . S
C432 C400 1.423 . S
C432 C431 1.351 . S
C433 O417 1.276 1_556 S
C433 O420 1.235 . S
C434 C435 1.393 . S
C434 C438 1.395 . S
C434 C441 1.492 . S
C435 C434 1.393 . S
C435 C436 1.392 . S
C435 H446 0.930 . S
C436 C435 1.392 . S
C436 C437 1.386 . S
C437 C436 1.386 . S
C437 C439 1.395 . S
C437 H447 0.930 . S
C438 C434 1.395 . S
C438 C439 1.379 . S
C438 H448 0.930 . S
C439 C437 1.395 . S
C439 C438 1.379 . S
C439 H449 0.930 . S
C440 O418 1.264 1_556 S
C440 O419 1.254 . S
C441 Eu377 2.848 . S
C441 O416 1.257 . S
C441 O421 1.249 . S
C441 C434 1.492 . S
H442 C425 0.930 . S
H443 C426 0.930 . S
H444 C427 0.930 . S
H445 C428 0.930 . S
H446 C435 0.930 . S
H447 C437 0.930 . S
H448 C438 0.930 . S
H449 C439 0.930 . S
Eu450 N481 2.657 . S
Eu450 N488 2.609 . S
Eu450 O494 2.558 . S
Eu450 O495 2.612 . S
Eu450 O497 2.339 . S
Eu450 O498 2.563 . S
Eu450 O499 2.419 . S
Eu450 O501 2.380 . S
Eu450 O502 2.432 . S
Eu450 C514 2.848 . S
C451 C454 1.429 . S
C451 C455 1.411 . S
C451 N458 1.377 . S
C452 C454 1.420 . S
C452 C456 1.423 . S
C452 C464 1.392 . S
C453 C455 1.420 . S
C453 C456 1.351 . S
C453 H476 0.931 . S
C454 C451 1.429 . S
C454 C452 1.420 . S
C454 N462 1.362 . S
C455 C451 1.411 . S
C455 C453 1.420 . S
C455 C460 1.395 . S
C456 C452 1.423 . S
C456 C453 1.351 . S
C456 H468 0.930 . S
C457 C459 1.400 . S
C457 C460 1.386 . S
C457 H469 0.930 . S
N458 C451 1.377 . S
N458 C459 1.321 . S
N458 Eu461 2.609 . S
C459 C457 1.400 . S
C459 N458 1.321 . S
C459 H466 0.930 . S
C460 C455 1.395 . S
C460 C457 1.386 . S
C460 H479 0.930 . S
Eu461 N458 2.609 . S
Eu461 N462 2.657 . S
Eu461 O495 2.380 . S
Eu461 O496 2.432 . S
Eu461 O500 2.558 . S
Eu461 O501 2.612 . S
Eu461 O503 2.339 . S
Eu461 O504 2.563 . S
Eu461 O505 2.419 . S
Eu461 C525 2.848 . S
N462 C454 1.362 . S
N462 Eu461 2.657 . S
N462 C463 1.334 . S
C463 N462 1.334 . S
C463 C465 1.413 . S
C463 H470 0.929 . S
C464 C452 1.392 . S
C464 C465 1.367 . S
C464 H472 0.930 . S
C465 C463 1.413 . S
C465 C464 1.367 . S
C465 H467 0.930 . S
H466 C459 0.930 . S
H467 C465 0.930 . S
H468 C456 0.930 . S
H469 C457 0.930 . S
H470 C463 0.929 . S
H471 C485 0.930 . S
H472 C464 0.930 . S
H473 C491 0.930 . S
H474 C482 0.929 . S
H475 C489 0.930 . S
H476 C453 0.931 . S
H477 C483 0.930 . S
H478 C516 0.930 . S
H479 C460 0.930 . S
H480 C515 0.931 . S
N481 Eu450 2.657 . S
N481 C482 1.334 . S
N481 C486 1.362 . S
C482 H474 0.929 . S
C482 N481 1.334 . S
C482 C485 1.413 . S
C483 H477 0.930 . S
C483 C484 1.392 . S
C483 C485 1.367 . S
C484 C483 1.392 . S
C484 C486 1.420 . S
C484 C516 1.423 . S
C485 H471 0.930 . S
C485 C482 1.413 . S
C485 C483 1.367 . S
C486 N481 1.362 . S
C486 C484 1.420 . S
C486 C490 1.429 . S
H487 C492 0.930 . S
N488 Eu450 2.609 . S
N488 C490 1.377 . S
N488 C491 1.321 . S
C489 H475 0.930 . S
C489 C491 1.400 . S
C489 C492 1.386 . S
C490 C486 1.429 . S
C490 N488 1.377 . S
C490 C493 1.411 . S
C491 H473 0.930 . S
C491 N488 1.321 . S
C491 C489 1.400 . S
C492 H487 0.930 . S
C492 C489 1.386 . S
C492 C493 1.395 . S
C493 C490 1.411 . S
C493 C492 1.395 . S
C493 C515 1.420 . S
O494 Eu450 2.558 . S
O494 C514 1.257 . S
O495 Eu450 2.612 . S
O495 Eu461 2.380 . S
O495 C506 1.276 . S
O496 Eu461 2.432 . S
O496 C513 1.264 . S
O497 Eu450 2.339 . S
O497 C513 1.254 . S
O498 Eu450 2.563 . S
O498 C506 1.235 . S
O499 Eu450 2.419 . S
O499 C514 1.249 . S
O500 Eu461 2.558 . S
O500 C525 1.257 . S
O501 Eu450 2.380 . S
O501 Eu461 2.612 . S
O501 C517 1.276 . S
O502 Eu450 2.432 . S
O502 C524 1.264 . S
O503 Eu461 2.339 . S
O503 C524 1.254 . S
O504 Eu461 2.563 . S
O504 C517 1.235 . S
O505 Eu461 2.419 . S
O505 C525 1.249 . S
C506 O495 1.276 . S
C506 O498 1.235 . S
C507 C509 1.393 . S
C507 C511 1.395 . S
C507 C514 1.492 . S
C508 C509 1.392 . S
C508 C510 1.386 . S
C509 C507 1.393 . S
C509 C508 1.392 . S
C509 H526 0.930 . S
C510 C508 1.386 . S
C510 C512 1.395 . S
C510 H527 0.930 . S
C511 C507 1.395 . S
C511 C512 1.379 . S
C511 H528 0.930 . S
C512 C510 1.395 . S
C512 C511 1.379 . S
C512 H529 0.930 . S
C513 O496 1.264 . S
C513 O497 1.254 . S
C514 Eu450 2.848 . S
C514 O494 1.257 . S
C514 O499 1.249 . S
C514 C507 1.492 . S
C515 H480 0.931 . S
C515 C493 1.420 . S
C515 C516 1.351 . S
C516 H478 0.930 . S
C516 C484 1.423 . S
C516 C515 1.351 . S
C517 O501 1.276 . S
C517 O504 1.235 . S
C518 C519 1.393 . S
C518 C522 1.395 . S
C518 C525 1.492 . S
C519 C518 1.393 . S
C519 C520 1.392 . S
C519 H530 0.930 . S
C520 C519 1.392 . S
C520 C521 1.386 . S
C521 C520 1.386 . S
C521 C523 1.395 . S
C521 H531 0.930 . S
C522 C518 1.395 . S
C522 C523 1.379 . S
C522 H532 0.930 . S
C523 C521 1.395 . S
C523 C522 1.379 . S
C523 H533 0.930 . S
C524 O502 1.264 . S
C524 O503 1.254 . S
C525 Eu461 2.848 . S
C525 O500 1.257 . S
C525 O505 1.249 . S
C525 C518 1.492 . S
H526 C509 0.930 . S
H527 C510 0.930 . S
H528 C511 0.930 . S
H529 C512 0.930 . S
H530 C519 0.930 . S
H531 C521 0.930 . S
H532 C522 0.930 . S
H533 C523 0.930 . S
Eu534 N565 2.657 . S
Eu534 N572 2.609 . S
Eu534 O578 2.558 . S
Eu534 O579 2.612 . S
Eu534 O581 2.339 . S
Eu534 O582 2.563 . S
Eu534 O583 2.419 . S
Eu534 O585 2.380 . S
Eu534 O586 2.432 . S
Eu534 C598 2.848 . S
C535 C538 1.429 . S
C535 C539 1.411 . S
C535 N542 1.377 . S
C536 C538 1.420 . S
C536 C540 1.423 . S
C536 C548 1.392 . S
C537 C539 1.420 . S
C537 C540 1.351 . S
C537 H560 0.931 . S
C538 C535 1.429 . S
C538 C536 1.420 . S
C538 N546 1.362 . S
C539 C535 1.411 . S
C539 C537 1.420 . S
C539 C544 1.395 . S
C540 C536 1.423 . S
C540 C537 1.351 . S
C540 H552 0.930 . S
C541 C543 1.400 . S
C541 C544 1.386 . S
C541 H553 0.930 . S
N542 C535 1.377 . S
N542 C543 1.321 . S
N542 Eu545 2.609 . S
C543 C541 1.400 . S
C543 N542 1.321 . S
C543 H550 0.930 . S
C544 C539 1.395 . S
C544 C541 1.386 . S
C544 H563 0.930 . S
Eu545 N542 2.609 . S
Eu545 N546 2.657 . S
Eu545 O579 2.380 . S
Eu545 O580 2.432 . S
Eu545 O584 2.558 . S
Eu545 O585 2.612 . S
Eu545 O587 2.339 . S
Eu545 O588 2.563 . S
Eu545 O589 2.419 . S
Eu545 C609 2.848 . S
N546 C538 1.362 . S
N546 Eu545 2.657 . S
N546 C547 1.334 . S
C547 N546 1.334 . S
C547 C549 1.413 . S
C547 H554 0.929 . S
C548 C536 1.392 . S
C548 C549 1.367 . S
C548 H556 0.930 . S
C549 C547 1.413 . S
C549 C548 1.367 . S
C549 H551 0.930 . S
H550 C543 0.930 . S
H551 C549 0.930 . S
H552 C540 0.930 . S
H553 C541 0.930 . S
H554 C547 0.929 . S
H555 C569 0.930 . S
H556 C548 0.930 . S
H557 C575 0.930 . S
H558 C566 0.929 . S
H559 C573 0.930 . S
H560 C537 0.931 . S
H561 C567 0.930 . S
H562 C600 0.930 . S
H563 C544 0.930 . S
H564 C599 0.931 . S
N565 Eu534 2.657 . S
N565 C566 1.334 . S
N565 C570 1.362 . S
C566 H558 0.929 . S
C566 N565 1.334 . S
C566 C569 1.413 . S
C567 H561 0.930 . S
C567 C568 1.392 . S
C567 C569 1.367 . S
C568 C567 1.392 . S
C568 C570 1.420 . S
C568 C600 1.423 . S
C569 H555 0.930 . S
C569 C566 1.413 . S
C569 C567 1.367 . S
C570 N565 1.362 . S
C570 C568 1.420 . S
C570 C574 1.429 . S
H571 C576 0.930 . S
N572 Eu534 2.609 . S
N572 C574 1.377 . S
N572 C575 1.321 . S
C573 H559 0.930 . S
C573 C575 1.400 . S
C573 C576 1.386 . S
C574 C570 1.429 . S
C574 N572 1.377 . S
C574 C577 1.411 . S
C575 H557 0.930 . S
C575 N572 1.321 . S
C575 C573 1.400 . S
C576 H571 0.930 . S
C576 C573 1.386 . S
C576 C577 1.395 . S
C577 C574 1.411 . S
C577 C576 1.395 . S
C577 C599 1.420 . S
O578 Eu534 2.558 . S
O578 C598 1.257 . S
O579 Eu534 2.612 . S
O579 Eu545 2.380 . S
O579 C590 1.276 . S
O580 Eu545 2.432 . S
O580 C597 1.264 . S
O581 Eu534 2.339 . S
O581 C597 1.254 . S
O582 Eu534 2.563 . S
O582 C590 1.235 . S
O583 Eu534 2.419 . S
O583 C598 1.249 . S
O584 Eu545 2.558 . S
O584 C609 1.257 . S
O585 Eu534 2.380 . S
O585 Eu545 2.612 . S
O585 C601 1.276 . S
O586 Eu534 2.432 . S
O586 C608 1.264 . S
O587 Eu545 2.339 . S
O587 C608 1.254 . S
O588 Eu545 2.563 . S
O588 C601 1.235 . S
O589 Eu545 2.419 . S
O589 C609 1.249 . S
C590 O579 1.276 . S
C590 O582 1.235 . S
C591 C593 1.393 . S
C591 C595 1.395 . S
C591 C598 1.492 . S
C592 C593 1.392 . S
C592 C594 1.386 . S
C593 C591 1.393 . S
C593 C592 1.392 . S
C593 H610 0.930 . S
C594 C592 1.386 . S
C594 C596 1.395 . S
C594 H611 0.930 . S
C595 C591 1.395 . S
C595 C596 1.379 . S
C595 H612 0.930 . S
C596 C594 1.395 . S
C596 C595 1.379 . S
C596 H613 0.930 . S
C597 O580 1.264 . S
C597 O581 1.254 . S
C598 Eu534 2.848 . S
C598 O578 1.257 . S
C598 O583 1.249 . S
C598 C591 1.492 . S
C599 H564 0.931 . S
C599 C577 1.420 . S
C599 C600 1.351 . S
C600 H562 0.930 . S
C600 C568 1.423 . S
C600 C599 1.351 . S
C601 O585 1.276 . S
C601 O588 1.235 . S
C602 C603 1.393 . S
C602 C606 1.395 . S
C602 C609 1.492 . S
C603 C602 1.393 . S
C603 C604 1.392 . S
C603 H614 0.930 . S
C604 C603 1.392 . S
C604 C605 1.386 . S
C605 C604 1.386 . S
C605 C607 1.395 . S
C605 H615 0.930 . S
C606 C602 1.395 . S
C606 C607 1.379 . S
C606 H616 0.930 . S
C607 C605 1.395 . S
C607 C606 1.379 . S
C607 H617 0.930 . S
C608 O586 1.264 . S
C608 O587 1.254 . S
C609 Eu545 2.848 . S
C609 O584 1.257 . S
C609 O589 1.249 . S
C609 C602 1.492 . S
H610 C593 0.930 . S
H611 C594 0.930 . S
H612 C595 0.930 . S
H613 C596 0.930 . S
H614 C603 0.930 . S
H615 C605 0.930 . S
H616 C606 0.930 . S
H617 C607 0.930 . S
Eu618 N649 2.657 . S
Eu618 N656 2.609 . S
Eu618 O662 2.558 . S
Eu618 O663 2.612 . S
Eu618 O665 2.339 . S
Eu618 O666 2.563 . S
Eu618 O667 2.419 . S
Eu618 O669 2.380 . S
Eu618 O670 2.432 . S
Eu618 C682 2.848 . S
C619 C622 1.429 . S
C619 C623 1.411 . S
C619 N626 1.377 . S
C620 C622 1.420 . S
C620 C624 1.423 . S
C620 C632 1.392 . S
C621 C623 1.420 . S
C621 C624 1.351 . S
C621 H644 0.931 . S
C622 C619 1.429 . S
C622 C620 1.420 . S
C622 N630 1.362 . S
C623 C619 1.411 . S
C623 C621 1.420 . S
C623 C628 1.395 . S
C624 C620 1.423 . S
C624 C621 1.351 . S
C624 H636 0.930 . S
C625 C627 1.400 . S
C625 C628 1.386 . S
C625 H637 0.930 . S
N626 C619 1.377 . S
N626 C627 1.321 . S
N626 Eu629 2.609 . S
C627 C625 1.400 . S
C627 N626 1.321 . S
C627 H634 0.930 . S
C628 C623 1.395 . S
C628 C625 1.386 . S
C628 H647 0.930 . S
Eu629 N626 2.609 . S
Eu629 N630 2.657 . S
Eu629 O663 2.380 . S
Eu629 O664 2.432 . S
Eu629 O668 2.558 . S
Eu629 O669 2.612 . S
Eu629 O671 2.339 . S
Eu629 O672 2.563 . S
Eu629 O673 2.419 . S
Eu629 C693 2.848 . S
N630 C622 1.362 . S
N630 Eu629 2.657 . S
N630 C631 1.334 . S
C631 N630 1.334 . S
C631 C633 1.413 . S
C631 H638 0.929 . S
C632 C620 1.392 . S
C632 C633 1.367 . S
C632 H640 0.930 . S
C633 C631 1.413 . S
C633 C632 1.367 . S
C633 H635 0.930 . S
H634 C627 0.930 . S
H635 C633 0.930 . S
H636 C624 0.930 . S
H637 C625 0.930 . S
H638 C631 0.929 . S
H639 C653 0.930 . S
H640 C632 0.930 . S
H641 C659 0.930 . S
H642 C650 0.929 . S
H643 C657 0.930 . S
H644 C621 0.931 . S
H645 C651 0.930 . S
H646 C684 0.930 . S
H647 C628 0.930 . S
H648 C683 0.931 . S
N649 Eu618 2.657 . S
N649 C650 1.334 . S
N649 C654 1.362 . S
C650 H642 0.929 . S
C650 N649 1.334 . S
C650 C653 1.413 . S
C651 H645 0.930 . S
C651 C652 1.392 . S
C651 C653 1.367 . S
C652 C651 1.392 . S
C652 C654 1.420 . S
C652 C684 1.423 . S
C653 H639 0.930 . S
C653 C650 1.413 . S
C653 C651 1.367 . S
C654 N649 1.362 . S
C654 C652 1.420 . S
C654 C658 1.429 . S
H655 C660 0.930 . S
N656 Eu618 2.609 . S
N656 C658 1.377 . S
N656 C659 1.321 . S
C657 H643 0.930 . S
C657 C659 1.400 . S
C657 C660 1.386 . S
C658 C654 1.429 . S
C658 N656 1.377 . S
C658 C661 1.411 . S
C659 H641 0.930 . S
C659 N656 1.321 . S
C659 C657 1.400 . S
C660 H655 0.930 . S
C660 C657 1.386 . S
C660 C661 1.395 . S
C661 C658 1.411 . S
C661 C660 1.395 . S
C661 C683 1.420 . S
O662 Eu618 2.558 . S
O662 C682 1.257 . S
O663 Eu618 2.612 . S
O663 Eu629 2.380 . S
O663 C674 1.276 . S
O664 Eu629 2.432 . S
O664 C681 1.264 . S
O665 Eu618 2.339 . S
O665 C681 1.254 . S
O666 Eu618 2.563 . S
O666 C674 1.235 . S
O667 Eu618 2.419 . S
O667 C682 1.249 . S
O668 Eu629 2.558 . S
O668 C693 1.257 . S
O669 Eu618 2.380 . S
O669 Eu629 2.612 . S
O669 C685 1.276 . S
O670 Eu618 2.432 . S
O670 C692 1.264 . S
O671 Eu629 2.339 . S
O671 C692 1.254 . S
O672 Eu629 2.563 . S
O672 C685 1.235 . S
O673 Eu629 2.419 . S
O673 C693 1.249 . S
C674 O663 1.276 . S
C674 O666 1.235 . S
C675 C677 1.393 . S
C675 C679 1.395 . S
C675 C682 1.492 . S
C676 C677 1.392 . S
C676 C678 1.386 . S
C677 C675 1.393 . S
C677 C676 1.392 . S
C677 H694 0.930 . S
C678 C676 1.386 . S
C678 C680 1.395 . S
C678 H695 0.930 . S
C679 C675 1.395 . S
C679 C680 1.379 . S
C679 H696 0.930 . S
C680 C678 1.395 . S
C680 C679 1.379 . S
C680 H697 0.930 . S
C681 O664 1.264 . S
C681 O665 1.254 . S
C682 Eu618 2.848 . S
C682 O662 1.257 . S
C682 O667 1.249 . S
C682 C675 1.492 . S
C683 H648 0.931 . S
C683 C661 1.420 . S
C683 C684 1.351 . S
C684 H646 0.930 . S
C684 C652 1.423 . S
C684 C683 1.351 . S
C685 O669 1.276 . S
C685 O672 1.235 . S
C686 C687 1.393 . S
C686 C690 1.395 . S
C686 C693 1.492 . S
C687 C686 1.393 . S
C687 C688 1.392 . S
C687 H698 0.930 . S
C688 C687 1.392 . S
C688 C689 1.386 . S
C689 C688 1.386 . S
C689 C691 1.395 . S
C689 H699 0.930 . S
C690 C686 1.395 . S
C690 C691 1.379 . S
C690 H700 0.930 . S
C691 C689 1.395 . S
C691 C690 1.379 . S
C691 H701 0.930 . S
C692 O670 1.264 . S
C692 O671 1.254 . S
C693 Eu629 2.848 . S
C693 O668 1.257 . S
C693 O673 1.249 . S
C693 C686 1.492 . S
H694 C677 0.930 . S
H695 C678 0.930 . S
H696 C679 0.930 . S
H697 C680 0.930 . S
H698 C687 0.930 . S
H699 C689 0.930 . S
H700 C690 0.930 . S
H701 C691 0.930 . S
Eu702 N733 2.657 . S
Eu702 N740 2.609 . S
Eu702 O746 2.558 . S
Eu702 O747 2.612 . S
Eu702 O749 2.339 . S
Eu702 O750 2.563 . S
Eu702 O751 2.419 . S
Eu702 O753 2.380 . S
Eu702 O754 2.432 . S
Eu702 C766 2.848 . S
C703 C706 1.429 . S
C703 C707 1.411 . S
C703 N710 1.377 . S
C704 C706 1.420 . S
C704 C708 1.423 . S
C704 C716 1.392 . S
C705 C707 1.420 . S
C705 C708 1.351 . S
C705 H728 0.931 . S
C706 C703 1.429 . S
C706 C704 1.420 . S
C706 N714 1.362 . S
C707 C703 1.411 . S
C707 C705 1.420 . S
C707 C712 1.395 . S
C708 C704 1.423 . S
C708 C705 1.351 . S
C708 H720 0.930 . S
C709 C711 1.400 . S
C709 C712 1.386 . S
C709 H721 0.930 . S
N710 C703 1.377 . S
N710 C711 1.321 . S
N710 Eu713 2.609 . S
C711 C709 1.400 . S
C711 N710 1.321 . S
C711 H718 0.930 . S
C712 C707 1.395 . S
C712 C709 1.386 . S
C712 H731 0.930 . S
Eu713 N710 2.609 . S
Eu713 N714 2.657 . S
Eu713 O747 2.380 . S
Eu713 O748 2.432 . S
Eu713 O752 2.558 . S
Eu713 O753 2.612 . S
Eu713 O755 2.339 . S
Eu713 O756 2.563 . S
Eu713 O757 2.419 . S
Eu713 C777 2.848 . S
N714 C706 1.362 . S
N714 Eu713 2.657 . S
N714 C715 1.334 . S
C715 N714 1.334 . S
C715 C717 1.413 . S
C715 H722 0.929 . S
C716 C704 1.392 . S
C716 C717 1.367 . S
C716 H724 0.930 . S
C717 C715 1.413 . S
C717 C716 1.367 . S
C717 H719 0.930 . S
H718 C711 0.930 . S
H719 C717 0.930 . S
H720 C708 0.930 . S
H721 C709 0.930 . S
H722 C715 0.929 . S
H723 C737 0.930 . S
H724 C716 0.930 . S
H725 C743 0.930 . S
H726 C734 0.929 . S
H727 C741 0.930 . S
H728 C705 0.931 . S
H729 C735 0.930 . S
H730 C768 0.930 . S
H731 C712 0.930 . S
H732 C767 0.931 . S
N733 Eu702 2.657 . S
N733 C734 1.334 . S
N733 C738 1.362 . S
C734 H726 0.929 . S
C734 N733 1.334 . S
C734 C737 1.413 . S
C735 H729 0.930 . S
C735 C736 1.392 . S
C735 C737 1.367 . S
C736 C735 1.392 . S
C736 C738 1.420 . S
C736 C768 1.423 . S
C737 H723 0.930 . S
C737 C734 1.413 . S
C737 C735 1.367 . S
C738 N733 1.362 . S
C738 C736 1.420 . S
C738 C742 1.429 . S
H739 C744 0.930 . S
N740 Eu702 2.609 . S
N740 C742 1.377 . S
N740 C743 1.321 . S
C741 H727 0.930 . S
C741 C743 1.400 . S
C741 C744 1.386 . S
C742 C738 1.429 . S
C742 N740 1.377 . S
C742 C745 1.411 . S
C743 H725 0.930 . S
C743 N740 1.321 . S
C743 C741 1.400 . S
C744 H739 0.930 . S
C744 C741 1.386 . S
C744 C745 1.395 . S
C745 C742 1.411 . S
C745 C744 1.395 . S
C745 C767 1.420 . S
O746 Eu702 2.558 . S
O746 C766 1.257 . S
O747 Eu702 2.612 . S
O747 Eu713 2.380 . S
O747 C758 1.276 . S
O748 Eu713 2.432 . S
O748 C765 1.264 . S
O749 Eu702 2.339 . S
O749 C765 1.254 . S
O750 Eu702 2.563 . S
O750 C758 1.235 . S
O751 Eu702 2.419 . S
O751 C766 1.249 . S
O752 Eu713 2.558 . S
O752 C777 1.257 . S
O753 Eu702 2.380 . S
O753 Eu713 2.612 . S
O753 C769 1.276 . S
O754 Eu702 2.432 . S
O754 C776 1.264 . S
O755 Eu713 2.339 . S
O755 C776 1.254 . S
O756 Eu713 2.563 . S
O756 C769 1.235 . S
O757 Eu713 2.419 . S
O757 C777 1.249 . S
C758 O747 1.276 . S
C758 O750 1.235 . S
C759 C761 1.393 . S
C759 C763 1.395 . S
C759 C766 1.492 . S
C760 C761 1.392 . S
C760 C762 1.386 . S
C761 C759 1.393 . S
C761 C760 1.392 . S
C761 H778 0.930 . S
C762 C760 1.386 . S
C762 C764 1.395 . S
C762 H779 0.930 . S
C763 C759 1.395 . S
C763 C764 1.379 . S
C763 H780 0.930 . S
C764 C762 1.395 . S
C764 C763 1.379 . S
C764 H781 0.930 . S
C765 O748 1.264 . S
C765 O749 1.254 . S
C766 Eu702 2.848 . S
C766 O746 1.257 . S
C766 O751 1.249 . S
C766 C759 1.492 . S
C767 H732 0.931 . S
C767 C745 1.420 . S
C767 C768 1.351 . S
C768 H730 0.930 . S
C768 C736 1.423 . S
C768 C767 1.351 . S
C769 O753 1.276 . S
C769 O756 1.235 . S
C770 C771 1.393 . S
C770 C774 1.395 . S
C770 C777 1.492 . S
C771 C770 1.393 . S
C771 C772 1.392 . S
C771 H782 0.930 . S
C772 C771 1.392 . S
C772 C773 1.386 . S
C773 C772 1.386 . S
C773 C775 1.395 . S
C773 H783 0.930 . S
C774 C770 1.395 . S
C774 C775 1.379 . S
C774 H784 0.930 . S
C775 C773 1.395 . S
C775 C774 1.379 . S
C775 H785 0.930 . S
C776 O754 1.264 . S
C776 O755 1.254 . S
C777 Eu713 2.848 . S
C777 O752 1.257 . S
C777 O757 1.249 . S
C777 C770 1.492 . S
H778 C761 0.930 . S
H779 C762 0.930 . S
H780 C763 0.930 . S
H781 C764 0.930 . S
H782 C771 0.930 . S
H783 C773 0.930 . S
H784 C774 0.930 . S
H785 C775 0.930 . S
Eu786 N817 2.657 . S
Eu786 N824 2.609 . S
Eu786 O830 2.558 . S
Eu786 O831 2.612 . S
Eu786 O833 2.339 . S
Eu786 O834 2.563 . S
Eu786 O835 2.419 . S
Eu786 O837 2.380 . S
Eu786 O838 2.432 . S
Eu786 C850 2.848 . S
C787 C790 1.429 . S
C787 C791 1.411 . S
C787 N794 1.377 . S
C788 C790 1.420 . S
C788 C792 1.423 . S
C788 C800 1.392 . S
C789 C791 1.420 . S
C789 C792 1.351 . S
C789 H812 0.931 . S
C790 C787 1.429 . S
C790 C788 1.420 . S
C790 N798 1.362 . S
C791 C787 1.411 . S
C791 C789 1.420 . S
C791 C796 1.395 . S
C792 C788 1.423 . S
C792 C789 1.351 . S
C792 H804 0.930 . S
C793 C795 1.400 . S
C793 C796 1.386 . S
C793 H805 0.930 . S
N794 C787 1.377 . S
N794 C795 1.321 . S
N794 Eu797 2.609 . S
C795 C793 1.400 . S
C795 N794 1.321 . S
C795 H802 0.930 . S
C796 C791 1.395 . S
C796 C793 1.386 . S
C796 H815 0.930 . S
Eu797 N794 2.609 . S
Eu797 N798 2.657 . S
Eu797 O831 2.380 . S
Eu797 O832 2.432 . S
Eu797 O836 2.558 . S
Eu797 O837 2.612 . S
Eu797 O839 2.339 . S
Eu797 O840 2.563 . S
Eu797 O841 2.419 . S
Eu797 C861 2.848 . S
N798 C790 1.362 . S
N798 Eu797 2.657 . S
N798 C799 1.334 . S
C799 N798 1.334 . S
C799 C801 1.413 . S
C799 H806 0.929 . S
C800 C788 1.392 . S
C800 C801 1.367 . S
C800 H808 0.930 . S
C801 C799 1.413 . S
C801 C800 1.367 . S
C801 H803 0.930 . S
H802 C795 0.930 . S
H803 C801 0.930 . S
H804 C792 0.930 . S
H805 C793 0.930 . S
H806 C799 0.929 . S
H807 C821 0.930 . S
H808 C800 0.930 . S
H809 C827 0.930 . S
H810 C818 0.929 . S
H811 C825 0.930 . S
H812 C789 0.931 . S
H813 C819 0.930 . S
H814 C852 0.930 . S
H815 C796 0.930 . S
H816 C851 0.931 . S
N817 Eu786 2.657 . S
N817 C818 1.334 . S
N817 C822 1.362 . S
C818 H810 0.929 . S
C818 N817 1.334 . S
C818 C821 1.413 . S
C819 H813 0.930 . S
C819 C820 1.392 . S
C819 C821 1.367 . S
C820 C819 1.392 . S
C820 C822 1.420 . S
C820 C852 1.423 . S
C821 H807 0.930 . S
C821 C818 1.413 . S
C821 C819 1.367 . S
C822 N817 1.362 . S
C822 C820 1.420 . S
C822 C826 1.429 . S
H823 C828 0.930 . S
N824 Eu786 2.609 . S
N824 C826 1.377 . S
N824 C827 1.321 . S
C825 H811 0.930 . S
C825 C827 1.400 . S
C825 C828 1.386 . S
C826 C822 1.429 . S
C826 N824 1.377 . S
C826 C829 1.411 . S
C827 H809 0.930 . S
C827 N824 1.321 . S
C827 C825 1.400 . S
C828 H823 0.930 . S
C828 C825 1.386 . S
C828 C829 1.395 . S
C829 C826 1.411 . S
C829 C828 1.395 . S
C829 C851 1.420 . S
O830 Eu786 2.558 . S
O830 C850 1.257 . S
O831 Eu786 2.612 . S
O831 Eu797 2.380 . S
O831 C842 1.276 . S
O832 Eu797 2.432 . S
O832 C849 1.264 . S
O833 Eu786 2.339 . S
O833 C849 1.254 . S
O834 Eu786 2.563 . S
O834 C842 1.235 . S
O835 Eu786 2.419 . S
O835 C850 1.249 . S
O836 Eu797 2.558 . S
O836 C861 1.257 . S
O837 Eu786 2.380 . S
O837 Eu797 2.612 . S
O837 C853 1.276 . S
O838 Eu786 2.432 . S
O838 C860 1.264 . S
O839 Eu797 2.339 . S
O839 C860 1.254 . S
O840 Eu797 2.563 . S
O840 C853 1.235 . S
O841 Eu797 2.419 . S
O841 C861 1.249 . S
C842 O831 1.276 . S
C842 O834 1.235 . S
C843 C845 1.393 . S
C843 C847 1.395 . S
C843 C850 1.492 . S
C844 C845 1.392 . S
C844 C846 1.386 . S
C845 C843 1.393 . S
C845 C844 1.392 . S
C845 H862 0.930 . S
C846 C844 1.386 . S
C846 C848 1.395 . S
C846 H863 0.930 . S
C847 C843 1.395 . S
C847 C848 1.379 . S
C847 H864 0.930 . S
C848 C846 1.395 . S
C848 C847 1.379 . S
C848 H865 0.930 . S
C849 O832 1.264 . S
C849 O833 1.254 . S
C850 Eu786 2.848 . S
C850 O830 1.257 . S
C850 O835 1.249 . S
C850 C843 1.492 . S
C851 H816 0.931 . S
C851 C829 1.420 . S
C851 C852 1.351 . S
C852 H814 0.930 . S
C852 C820 1.423 . S
C852 C851 1.351 . S
C853 O837 1.276 . S
C853 O840 1.235 . S
C854 C855 1.393 . S
C854 C858 1.395 . S
C854 C861 1.492 . S
C855 C854 1.393 . S
C855 C856 1.392 . S
C855 H866 0.930 . S
C856 C855 1.392 . S
C856 C857 1.386 . S
C857 C856 1.386 . S
C857 C859 1.395 . S
C857 H867 0.930 . S
C858 C854 1.395 . S
C858 C859 1.379 . S
C858 H868 0.930 . S
C859 C857 1.395 . S
C859 C858 1.379 . S
C859 H869 0.930 . S
C860 O838 1.264 . S
C860 O839 1.254 . S
C861 Eu797 2.848 . S
C861 O836 1.257 . S
C861 O841 1.249 . S
C861 C854 1.492 . S
H862 C845 0.930 . S
H863 C846 0.930 . S
H864 C847 0.930 . S
H865 C848 0.930 . S
H866 C855 0.930 . S
H867 C857 0.930 . S
H868 C858 0.930 . S
H869 C859 0.930 . S
Eu870 N901 2.657 . S
Eu870 N908 2.609 . S
Eu870 O914 2.558 . S
Eu870 O915 2.612 . S
Eu870 O917 2.339 . S
Eu870 O918 2.563 . S
Eu870 O919 2.419 . S
Eu870 O921 2.380 . S
Eu870 O922 2.432 . S
Eu870 C934 2.848 . S
C871 C874 1.429 . S
C871 C875 1.411 . S
C871 N878 1.377 . S
C872 C874 1.420 . S
C872 C876 1.423 . S
C872 C884 1.392 . S
C873 C875 1.420 . S
C873 C876 1.351 . S
C873 H896 0.931 . S
C874 C871 1.429 . S
C874 C872 1.420 . S
C874 N882 1.362 . S
C875 C871 1.411 . S
C875 C873 1.420 . S
C875 C880 1.395 . S
C876 C872 1.423 . S
C876 C873 1.351 . S
C876 H888 0.930 . S
C877 C879 1.400 . S
C877 C880 1.386 . S
C877 H889 0.930 . S
N878 C871 1.377 . S
N878 C879 1.321 . S
N878 Eu881 2.609 . S
C879 C877 1.400 . S
C879 N878 1.321 . S
C879 H886 0.930 . S
C880 C875 1.395 . S
C880 C877 1.386 . S
C880 H899 0.930 . S
Eu881 N878 2.609 . S
Eu881 N882 2.657 . S
Eu881 O915 2.380 . S
Eu881 O916 2.432 . S
Eu881 O920 2.558 . S
Eu881 O921 2.612 . S
Eu881 O923 2.339 . S
Eu881 O924 2.563 . S
Eu881 O925 2.419 . S
Eu881 C945 2.848 . S
N882 C874 1.362 . S
N882 Eu881 2.657 . S
N882 C883 1.334 . S
C883 N882 1.334 . S
C883 C885 1.413 . S
C883 H890 0.929 . S
C884 C872 1.392 . S
C884 C885 1.367 . S
C884 H892 0.930 . S
C885 C883 1.413 . S
C885 C884 1.367 . S
C885 H887 0.930 . S
H886 C879 0.930 . S
H887 C885 0.930 . S
H888 C876 0.930 . S
H889 C877 0.930 . S
H890 C883 0.929 . S
H891 C905 0.930 . S
H892 C884 0.930 . S
H893 C911 0.930 . S
H894 C902 0.929 . S
H895 C909 0.930 . S
H896 C873 0.931 . S
H897 C903 0.930 . S
H898 C936 0.930 . S
H899 C880 0.930 . S
H900 C935 0.931 . S
N901 Eu870 2.657 . S
N901 C902 1.334 . S
N901 C906 1.362 . S
C902 H894 0.929 . S
C902 N901 1.334 . S
C902 C905 1.413 . S
C903 H897 0.930 . S
C903 C904 1.392 . S
C903 C905 1.367 . S
C904 C903 1.392 . S
C904 C906 1.420 . S
C904 C936 1.423 . S
C905 H891 0.930 . S
C905 C902 1.413 . S
C905 C903 1.367 . S
C906 N901 1.362 . S
C906 C904 1.420 . S
C906 C910 1.429 . S
H907 C912 0.930 . S
N908 Eu870 2.609 . S
N908 C910 1.377 . S
N908 C911 1.321 . S
C909 H895 0.930 . S
C909 C911 1.400 . S
C909 C912 1.386 . S
C910 C906 1.429 . S
C910 N908 1.377 . S
C910 C913 1.411 . S
C911 H893 0.930 . S
C911 N908 1.321 . S
C911 C909 1.400 . S
C912 H907 0.930 . S
C912 C909 1.386 . S
C912 C913 1.395 . S
C913 C910 1.411 . S
C913 C912 1.395 . S
C913 C935 1.420 . S
O914 Eu870 2.558 . S
O914 C934 1.257 . S
O915 Eu870 2.612 . S
O915 Eu881 2.380 . S
O915 C926 1.276 . S
O916 Eu881 2.432 . S
O916 C933 1.264 . S
O917 Eu870 2.339 . S
O917 C933 1.254 . S
O918 Eu870 2.563 . S
O918 C926 1.235 . S
O919 Eu870 2.419 . S
O919 C934 1.249 . S
O920 Eu881 2.558 . S
O920 C945 1.257 . S
O921 Eu870 2.380 . S
O921 Eu881 2.612 . S
O921 C937 1.276 . S
O922 Eu870 2.432 . S
O922 C944 1.264 . S
O923 Eu881 2.339 . S
O923 C944 1.254 . S
O924 Eu881 2.563 . S
O924 C937 1.235 . S
O925 Eu881 2.419 . S
O925 C945 1.249 . S
C926 O915 1.276 . S
C926 O918 1.235 . S
C927 C929 1.393 . S
C927 C931 1.395 . S
C927 C934 1.492 . S
C928 C929 1.392 . S
C928 C930 1.386 . S
C929 C927 1.393 . S
C929 C928 1.392 . S
C929 H946 0.930 . S
C930 C928 1.386 . S
C930 C932 1.395 . S
C930 H947 0.930 . S
C931 C927 1.395 . S
C931 C932 1.379 . S
C931 H948 0.930 . S
C932 C930 1.395 . S
C932 C931 1.379 . S
C932 H949 0.930 . S
C933 O916 1.264 . S
C933 O917 1.254 . S
C934 Eu870 2.848 . S
C934 O914 1.257 . S
C934 O919 1.249 . S
C934 C927 1.492 . S
C935 H900 0.931 . S
C935 C913 1.420 . S
C935 C936 1.351 . S
C936 H898 0.930 . S
C936 C904 1.423 . S
C936 C935 1.351 . S
C937 O921 1.276 . S
C937 O924 1.235 . S
C938 C939 1.393 . S
C938 C942 1.395 . S
C938 C945 1.492 . S
C939 C938 1.393 . S
C939 C940 1.392 . S
C939 H950 0.930 . S
C940 C939 1.392 . S
C940 C941 1.386 . S
C941 C940 1.386 . S
C941 C943 1.395 . S
C941 H951 0.930 . S
C942 C938 1.395 . S
C942 C943 1.379 . S
C942 H952 0.930 . S
C943 C941 1.395 . S
C943 C942 1.379 . S
C943 H953 0.930 . S
C944 O922 1.264 . S
C944 O923 1.254 . S
C945 Eu881 2.848 . S
C945 O920 1.257 . S
C945 O925 1.249 . S
C945 C938 1.492 . S
H946 C929 0.930 . S
H947 C930 0.930 . S
H948 C931 0.930 . S
H949 C932 0.930 . S
H950 C939 0.930 . S
H951 C941 0.930 . S
H952 C942 0.930 . S
H953 C943 0.930 . S
H954 C962 0.950 . S
H955 C967 0.950 . S
H956 C964 0.950 . S
H957 C966 0.950 . S
H958 C968 0.950 . S
H959 C970 0.950 . S
H960 C972 0.950 . S
H961 C973 0.950 1_556 S
C962 H954 0.950 . S
C962 C963 1.386 . S
C962 C964 1.391 . S
C963 C962 1.386 . S
C963 C967 1.393 . S
C964 H956 0.950 . S
C964 C962 1.391 . S
C964 C965 1.400 . S
C965 C964 1.400 . S
C965 C966 1.398 . S
C965 C971 1.491 . S
C966 H957 0.950 . S
C966 C965 1.398 . S
C966 C967 1.391 . S
C967 H955 0.950 . S
C967 C963 1.393 . S
C967 C966 1.391 . S
C968 H958 0.950 . S
C968 C969 1.386 . S
C968 C970 1.391 . S
C969 C968 1.386 . S
C969 C973 1.393 . S
C970 H959 0.950 . S
C970 C968 1.391 . S
C970 C971 1.400 . S
C971 C965 1.491 . S
C971 C970 1.400 . S
C971 C972 1.398 . S
C972 H960 0.950 . S
C972 C971 1.398 . S
C972 C973 1.391 . S
C973 H961 0.950 1_554 S
C973 C969 1.393 . S
C973 C972 1.391 . S
H974 C982 0.950 . S
H975 C987 0.950 . S
H976 C984 0.950 . S
H977 C986 0.950 . S
H978 C988 0.950 . S
H979 C990 0.950 . S
H980 C992 0.950 . S
H981 C993 0.950 . S
C982 H974 0.950 . S
C982 C983 1.386 . S
C982 C984 1.391 . S
C983 C982 1.386 . S
C983 C987 1.393 . S
C984 H976 0.950 . S
C984 C982 1.391 . S
C984 C985 1.400 . S
C985 C984 1.400 . S
C985 C986 1.398 . S
C985 C991 1.491 . S
C986 H977 0.950 . S
C986 C985 1.398 . S
C986 C987 1.391 . S
C987 H975 0.950 . S
C987 C983 1.393 . S
C987 C986 1.391 . S
C988 H978 0.950 . S
C988 C989 1.386 . S
C988 C990 1.391 . S
C989 C988 1.386 . S
C989 C993 1.393 . S
C990 H979 0.950 . S
C990 C988 1.391 . S
C990 C991 1.400 . S
C991 C985 1.491 . S
C991 C990 1.400 . S
C991 C992 1.398 . S
C992 H980 0.950 . S
C992 C991 1.398 . S
C992 C993 1.391 . S
C993 H981 0.950 . S
C993 C989 1.393 . S
C993 C992 1.391 . S
H994 C1002 0.950 . S
H995 C1007 0.950 . S
H996 C1004 0.950 . S
H997 C1006 0.950 . S
H998 C1008 0.950 . S
H999 C1010 0.950 . S
H1000 C1012 0.950 . S
H1001 C1013 0.950 . S
C1002 H994 0.950 . S
C1002 C1003 1.386 . S
C1002 C1004 1.391 . S
C1003 C1002 1.386 . S
C1003 C1007 1.393 . S
C1004 H996 0.950 . S
C1004 C1002 1.391 . S
C1004 C1005 1.400 . S
C1005 C1004 1.400 . S
C1005 C1006 1.398 . S
C1005 C1011 1.491 . S
C1006 H997 0.950 . S
C1006 C1005 1.398 . S
C1006 C1007 1.391 . S
C1007 H995 0.950 . S
C1007 C1003 1.393 . S
C1007 C1006 1.391 . S
C1008 H998 0.950 . S
C1008 C1009 1.386 . S
C1008 C1010 1.391 . S
C1009 C1008 1.386 . S
C1009 C1013 1.393 . S
C1010 H999 0.950 . S
C1010 C1008 1.391 . S
C1010 C1011 1.400 . S
C1011 C1005 1.491 . S
C1011 C1010 1.400 . S
C1011 C1012 1.398 . S
C1012 H1000 0.950 . S
C1012 C1011 1.398 . S
C1012 C1013 1.391 . S
C1013 H1001 0.950 . S
C1013 C1009 1.393 . S
C1013 C1012 1.391 . S
H1014 C1022 0.950 . S
H1015 C1027 0.950 . S
H1016 C1024 0.950 . S
H1017 C1026 0.950 . S
H1018 C1028 0.950 . S
H1019 C1030 0.950 . S
H1020 C1032 0.950 . S
H1021 C1033 0.950 . S
C1022 H1014 0.950 . S
C1022 C1023 1.386 . S
C1022 C1024 1.391 . S
C1023 C1022 1.386 . S
C1023 C1027 1.393 . S
C1024 H1016 0.950 . S
C1024 C1022 1.391 . S
C1024 C1025 1.400 . S
C1025 C1024 1.400 . S
C1025 C1026 1.398 . S
C1025 C1031 1.491 . S
C1026 H1017 0.950 . S
C1026 C1025 1.398 . S
C1026 C1027 1.391 . S
C1027 H1015 0.950 . S
C1027 C1023 1.393 . S
C1027 C1026 1.391 . S
C1028 H1018 0.950 . S
C1028 C1029 1.386 . S
C1028 C1030 1.391 . S
C1029 C1028 1.386 . S
C1029 C1033 1.393 . S
C1030 H1019 0.950 . S
C1030 C1028 1.391 . S
C1030 C1031 1.400 . S
C1031 C1025 1.491 . S
C1031 C1030 1.400 . S
C1031 C1032 1.398 . S
C1032 H1020 0.950 . S
C1032 C1031 1.398 . S
C1032 C1033 1.391 . S
C1033 H1021 0.950 . S
C1033 C1029 1.393 . S
C1033 C1032 1.391 . S
H1034 C1042 0.950 . S
H1035 C1047 0.950 . S
H1036 C1044 0.950 . S
H1037 C1046 0.950 . S
H1038 C1048 0.950 . S
H1039 C1050 0.950 . S
H1040 C1052 0.950 1_554 S
H1041 C1053 0.950 . S
C1042 H1034 0.950 . S
C1042 C1043 1.386 . S
C1042 C1044 1.391 . S
C1043 C1042 1.386 . S
C1043 C1047 1.393 . S
C1044 H1036 0.950 . S
C1044 C1042 1.391 . S
C1044 C1045 1.400 . S
C1045 C1044 1.400 . S
C1045 C1046 1.398 . S
C1045 C1051 1.491 . S
C1046 H1037 0.950 . S
C1046 C1045 1.398 . S
C1046 C1047 1.391 . S
C1047 H1035 0.950 . S
C1047 C1043 1.393 . S
C1047 C1046 1.391 . S
C1048 H1038 0.950 . S
C1048 C1049 1.386 . S
C1048 C1050 1.391 . S
C1049 C1048 1.386 . S
C1049 C1053 1.393 1_556 S
C1050 H1039 0.950 . S
C1050 C1048 1.391 . S
C1050 C1051 1.400 . S
C1051 C1045 1.491 . S
C1051 C1050 1.400 . S
C1051 C1052 1.398 . S
C1052 H1040 0.950 1_556 S
C1052 C1051 1.398 . S
C1052 C1053 1.391 1_556 S
C1053 H1041 0.950 . S
C1053 C1049 1.393 1_554 S
C1053 C1052 1.391 1_554 S
H1054 C1062 0.950 . S
H1055 C1067 0.950 . S
H1056 C1064 0.950 . S
H1057 C1066 0.950 . S
H1058 C1068 0.950 . S
H1059 C1070 0.950 1_554 S
H1060 C1072 0.950 . S
H1061 C1073 0.950 . S
C1062 H1054 0.950 . S
C1062 C1063 1.386 . S
C1062 C1064 1.391 . S
C1063 C1062 1.386 . S
C1063 C1067 1.393 . S
C1064 H1056 0.950 . S
C1064 C1062 1.391 . S
C1064 C1065 1.400 . S
C1065 C1064 1.400 . S
C1065 C1066 1.398 . S
C1065 C1071 1.491 . S
C1066 H1057 0.950 . S
C1066 C1065 1.398 . S
C1066 C1067 1.391 . S
C1067 H1055 0.950 . S
C1067 C1063 1.393 . S
C1067 C1066 1.391 . S
C1068 H1058 0.950 . S
C1068 C1069 1.386 1_554 S
C1068 C1070 1.391 1_554 S
C1069 C1068 1.386 1_556 S
C1069 C1073 1.393 . S
C1070 H1059 0.950 1_556 S
C1070 C1068 1.391 1_556 S
C1070 C1071 1.400 . S
C1071 C1065 1.491 . S
C1071 C1070 1.400 . S
C1071 C1072 1.398 . S
C1072 H1060 0.950 . S
C1072 C1071 1.398 . S
C1072 C1073 1.391 . S
C1073 H1061 0.950 . S
C1073 C1069 1.393 . S
C1073 C1072 1.391 . S
H1074 C1082 0.950 . S
H1075 C1087 0.950 . S
H1076 C1084 0.950 . S
H1077 C1086 0.950 . S
H1078 C1088 0.950 . S
H1079 C1090 0.950 . S
H1080 C1092 0.944 1_554 S
H1081 C1093 0.969 . S
C1082 H1074 0.950 . S
C1082 C1083 1.386 . S
C1082 C1084 1.391 . S
C1083 C1082 1.386 . S
C1083 C1087 1.393 . S
C1084 H1076 0.950 . S
C1084 C1082 1.391 . S
C1084 C1085 1.400 . S
C1085 C1084 1.400 . S
C1085 C1086 1.398 . S
C1085 C1091 1.491 . S
C1086 H1077 0.950 . S
C1086 C1085 1.398 . S
C1086 C1087 1.391 . S
C1087 H1075 0.950 . S
C1087 C1083 1.393 . S
C1087 C1086 1.391 . S
C1088 H1078 0.950 . S
C1088 C1089 1.386 . S
C1088 C1090 1.391 . S
C1089 C1088 1.386 . S
C1089 C1093 1.383 1_556 S
C1090 H1079 0.950 . S
C1090 C1088 1.391 . S
C1090 C1091 1.400 . S
C1091 C1085 1.491 . S
C1091 C1090 1.400 . S
C1091 C1092 1.398 . S
C1092 H1080 0.944 1_556 S
C1092 C1091 1.398 . S
C1092 C1093 1.382 1_556 S
C1093 H1081 0.969 . S
C1093 C1089 1.383 1_554 S
C1093 C1092 1.382 1_554 S
H1094 C1102 0.950 . S
H1095 C1107 0.950 . S
H1096 C1104 0.950 . S
H1097 C1106 0.950 . S
H1098 C1108 0.950 1_554 S
H1099 C1110 0.950 . S
H1100 C1112 0.950 . S
H1101 C1113 0.950 . S
C1102 H1094 0.950 . S
C1102 C1103 1.386 . S
C1102 C1104 1.391 . S
C1103 C1102 1.386 . S
C1103 C1107 1.393 . S
C1104 H1096 0.950 . S
C1104 C1102 1.391 . S
C1104 C1105 1.400 . S
C1105 C1104 1.400 . S
C1105 C1106 1.398 . S
C1105 C1111 1.491 . S
C1106 H1097 0.950 . S
C1106 C1105 1.398 . S
C1106 C1107 1.391 . S
C1107 H1095 0.950 . S
C1107 C1103 1.393 . S
C1107 C1106 1.391 . S
C1108 H1098 0.950 1_556 S
C1108 C1109 1.386 . S
C1108 C1110 1.391 . S
C1109 C1108 1.386 . S
C1109 C1113 1.393 . S
C1110 H1099 0.950 . S
C1110 C1108 1.391 . S
C1110 C1111 1.400 . S
C1111 C1105 1.491 . S
C1111 C1110 1.400 . S
C1111 C1112 1.398 . S
C1112 H1100 0.950 . S
C1112 C1111 1.398 . S
C1112 C1113 1.391 . S
C1113 H1101 0.950 . S
C1113 C1109 1.393 . S
C1113 C1112 1.391 . S
H1114 C1122 0.950 . S
H1115 C1127 0.950 . S
H1116 C1124 0.950 . S
H1117 C1126 0.950 . S
H1118 C1128 0.905 1_554 S
H1119 C1130 0.950 1_554 S
H1120 C1132 0.950 . S
H1121 C1133 0.950 . S
C1122 H1114 0.950 . S
C1122 C1123 1.386 . S
C1122 C1124 1.391 . S
C1123 C1122 1.386 . S
C1123 C1127 1.393 . S
C1124 H1116 0.950 . S
C1124 C1122 1.391 . S
C1124 C1125 1.400 . S
C1125 C1124 1.400 . S
C1125 C1126 1.398 . S
C1125 C1131 1.491 . S
C1126 H1117 0.950 . S
C1126 C1125 1.398 . S
C1126 C1127 1.391 . S
C1127 H1115 0.950 . S
C1127 C1123 1.393 . S
C1127 C1126 1.391 . S
C1128 H1118 0.905 1_556 S
C1128 C1129 1.424 . S
C1128 C1130 1.400 . S
C1129 C1128 1.424 . S
C1129 C1133 1.393 . S
C1130 H1119 0.950 1_556 S
C1130 C1128 1.400 . S
C1130 C1131 1.400 . S
C1131 C1125 1.491 . S
C1131 C1130 1.400 . S
C1131 C1132 1.398 . S
C1132 H1120 0.950 . S
C1132 C1131 1.398 . S
C1132 C1133 1.391 . S
C1133 H1121 0.950 . S
C1133 C1129 1.393 . S
C1133 C1132 1.391 . S
H1134 C1142 0.950 . S
H1135 C1147 0.950 . S
H1136 C1144 0.950 . S
H1137 C1146 0.950 . S
H1138 C1148 0.950 . S
H1139 C1150 0.950 . S
H1140 C1152 0.950 . S
H1141 C1153 0.950 . S
C1142 H1134 0.950 . S
C1142 C1143 1.386 . S
C1142 C1144 1.391 . S
C1143 C1142 1.386 . S
C1143 C1147 1.393 . S
C1144 H1136 0.950 . S
C1144 C1142 1.391 . S
C1144 C1145 1.400 . S
C1145 C1144 1.400 . S
C1145 C1146 1.398 . S
C1145 C1151 1.491 . S
C1146 H1137 0.950 . S
C1146 C1145 1.398 . S
C1146 C1147 1.391 . S
C1147 H1135 0.950 . S
C1147 C1143 1.393 . S
C1147 C1146 1.391 . S
C1148 H1138 0.950 . S
C1148 C1149 1.386 . S
C1148 C1150 1.391 . S
C1149 C1148 1.386 . S
C1149 C1153 1.393 . S
C1150 H1139 0.950 . S
C1150 C1148 1.391 . S
C1150 C1151 1.400 . S
C1151 C1145 1.491 . S
C1151 C1150 1.400 . S
C1151 C1152 1.398 . S
C1152 H1140 0.950 . S
C1152 C1151 1.398 . S
C1152 C1153 1.391 . S
C1153 H1141 0.950 . S
C1153 C1149 1.393 . S
C1153 C1152 1.391 . S
H1154 C1162 0.950 . S
H1155 C1167 0.950 . S
H1156 C1164 0.950 . S
H1157 C1166 0.950 . S
H1158 C1168 0.950 . S
H1159 C1170 0.950 . S
H1160 C1172 0.950 . S
H1161 C1173 0.950 1_556 S
C1162 H1154 0.950 . S
C1162 C1163 1.386 . S
C1162 C1164 1.391 . S
C1163 C1162 1.386 . S
C1163 C1167 1.393 . S
C1164 H1156 0.950 . S
C1164 C1162 1.391 . S
C1164 C1165 1.400 . S
C1165 C1164 1.400 . S
C1165 C1166 1.398 . S
C1165 C1171 1.491 . S
C1166 H1157 0.950 . S
C1166 C1165 1.398 . S
C1166 C1167 1.391 . S
C1167 H1155 0.950 . S
C1167 C1163 1.393 . S
C1167 C1166 1.391 . S
C1168 H1158 0.950 . S
C1168 C1169 1.386 . S
C1168 C1170 1.391 . S
C1169 C1168 1.386 . S
C1169 C1173 1.393 . S
C1170 H1159 0.950 . S
C1170 C1168 1.391 . S
C1170 C1171 1.400 . S
C1171 C1165 1.491 . S
C1171 C1170 1.400 . S
C1171 C1172 1.398 . S
C1172 H1160 0.950 . S
C1172 C1171 1.398 . S
C1172 C1173 1.391 . S
C1173 H1161 0.950 1_554 S
C1173 C1169 1.393 . S
C1173 C1172 1.391 . S
H1174 C1182 0.950 . S
H1175 C1187 0.950 . S
H1176 C1184 0.950 . S
H1177 C1186 0.950 . S
H1178 C1188 0.950 . S
H1179 C1190 0.950 . S
H1180 C1192 0.950 . S
H1181 C1193 0.950 . S
C1182 H1174 0.950 . S
C1182 C1183 1.386 . S
C1182 C1184 1.391 . S
C1183 C1182 1.386 . S
C1183 C1187 1.393 . S
C1184 H1176 0.950 . S
C1184 C1182 1.391 . S
C1184 C1185 1.400 . S
C1185 C1184 1.400 . S
C1185 C1186 1.398 . S
C1185 C1191 1.491 . S
C1186 H1177 0.950 . S
C1186 C1185 1.398 . S
C1186 C1187 1.391 . S
C1187 H1175 0.950 . S
C1187 C1183 1.393 . S
C1187 C1186 1.391 . S
C1188 H1178 0.950 . S
C1188 C1189 1.386 . S
C1188 C1190 1.391 . S
C1189 C1188 1.386 . S
C1189 C1193 1.393 . S
C1190 H1179 0.950 . S
C1190 C1188 1.391 . S
C1190 C1191 1.400 . S
C1191 C1185 1.491 . S
C1191 C1190 1.400 . S
C1191 C1192 1.398 . S
C1192 H1180 0.950 . S
C1192 C1191 1.398 . S
C1192 C1193 1.391 . S
C1193 H1181 0.950 . S
C1193 C1189 1.393 . S
C1193 C1192 1.391 . S
H1194 C1202 0.950 1_655 S
H1195 C1207 0.950 . S
H1196 C1204 0.950 . S
H1197 C1206 0.950 . S
H1198 C1208 0.950 . S
H1199 C1210 0.950 . S
H1200 C1212 0.950 . S
H1201 C1213 0.950 . S
C1202 H1194 0.950 1_455 S
C1202 C1203 1.386 1_455 S
C1202 C1204 1.391 . S
C1203 C1202 1.386 1_655 S
C1203 C1207 1.393 . S
C1204 H1196 0.950 . S
C1204 C1202 1.391 . S
C1204 C1205 1.400 . S
C1205 C1204 1.400 . S
C1205 C1206 1.398 . S
C1205 C1211 1.491 . S
C1206 H1197 0.950 . S
C1206 C1205 1.398 . S
C1206 C1207 1.391 1_455 S
C1207 H1195 0.950 . S
C1207 C1203 1.393 . S
C1207 C1206 1.391 1_655 S
C1208 H1198 0.950 . S
C1208 C1209 1.386 . S
C1208 C1210 1.391 . S
C1209 C1208 1.386 . S
C1209 C1213 1.393 . S
C1210 H1199 0.950 . S
C1210 C1208 1.391 . S
C1210 C1211 1.400 . S
C1211 C1205 1.491 . S
C1211 C1210 1.400 . S
C1211 C1212 1.398 . S
C1212 H1200 0.950 . S
C1212 C1211 1.398 . S
C1212 C1213 1.391 . S
C1213 H1201 0.950 . S
C1213 C1209 1.393 . S
C1213 C1212 1.391 . S
H1214 C1222 0.950 . S
H1215 C1227 0.950 . S
H1216 C1224 0.950 . S
H1217 C1226 0.950 . S
H1218 C1228 0.950 . S
H1219 C1230 0.950 . S
H1220 C1232 0.950 . S
H1221 C1233 0.950 . S
C1222 H1214 0.950 . S
C1222 C1223 1.386 . S
C1222 C1224 1.391 . S
C1223 C1222 1.386 . S
C1223 C1227 1.393 . S
C1224 H1216 0.950 . S
C1224 C1222 1.391 . S
C1224 C1225 1.400 . S
C1225 C1224 1.400 . S
C1225 C1226 1.398 . S
C1225 C1231 1.491 . S
C1226 H1217 0.950 . S
C1226 C1225 1.398 . S
C1226 C1227 1.391 . S
C1227 H1215 0.950 . S
C1227 C1223 1.393 . S
C1227 C1226 1.391 . S
C1228 H1218 0.950 . S
C1228 C1229 1.386 . S
C1228 C1230 1.391 . S
C1229 C1228 1.386 . S
C1229 C1233 1.393 . S
C1230 H1219 0.950 . S
C1230 C1228 1.391 . S
C1230 C1231 1.400 . S
C1231 C1225 1.491 . S
C1231 C1230 1.400 . S
C1231 C1232 1.398 . S
C1232 H1220 0.950 . S
C1232 C1231 1.398 . S
C1232 C1233 1.391 . S
C1233 H1221 0.950 . S
C1233 C1229 1.393 . S
C1233 C1232 1.391 . S
H1234 C1242 0.950 . S
H1235 C1247 0.950 . S
H1236 C1244 0.950 1_565 S
H1237 C1246 0.950 . S
H1238 C1248 0.950 . S
H1239 C1250 0.950 . S
H1240 C1252 0.950 . S
H1241 C1253 0.950 . S
C1242 H1234 0.950 . S
C1242 C1243 1.386 . S
C1242 C1244 1.391 . S
C1243 C1242 1.386 . S
C1243 C1247 1.393 . S
C1244 H1236 0.950 1_545 S
C1244 C1242 1.391 . S
C1244 C1245 1.400 1_545 S
C1245 C1244 1.400 1_565 S
C1245 C1246 1.398 . S
C1245 C1251 1.491 . S
C1246 H1237 0.950 . S
C1246 C1245 1.398 . S
C1246 C1247 1.391 1_565 S
C1247 H1235 0.950 . S
C1247 C1243 1.393 . S
C1247 C1246 1.391 1_545 S
C1248 H1238 0.950 . S
C1248 C1249 1.386 . S
C1248 C1250 1.391 . S
C1249 C1248 1.386 . S
C1249 C1253 1.393 . S
C1250 H1239 0.950 . S
C1250 C1248 1.391 . S
C1250 C1251 1.400 . S
C1251 C1245 1.491 . S
C1251 C1250 1.400 . S
C1251 C1252 1.398 . S
C1252 H1240 0.950 . S
C1252 C1251 1.398 . S
C1252 C1253 1.391 . S
C1253 H1241 0.950 . S
C1253 C1249 1.393 . S
C1253 C1252 1.391 . S
H1254 C1262 0.950 . S
H1255 C1267 0.950 . S
H1256 C1264 0.950 . S
H1257 C1266 0.950 . S
H1258 C1268 0.950 . S
H1259 C1270 0.950 . S
H1260 C1272 0.950 . S
H1261 C1273 0.950 . S
C1262 H1254 0.950 . S
C1262 C1263 1.386 . S
C1262 C1264 1.391 . S
C1263 C1262 1.386 . S
C1263 C1267 1.393 . S
C1264 H1256 0.950 . S
C1264 C1262 1.391 . S
C1264 C1265 1.400 . S
C1265 C1264 1.400 . S
C1265 C1266 1.398 . S
C1265 C1271 1.491 . S
C1266 H1257 0.950 . S
C1266 C1265 1.398 . S
C1266 C1267 1.391 . S
C1267 H1255 0.950 . S
C1267 C1263 1.393 . S
C1267 C1266 1.391 . S
C1268 H1258 0.950 . S
C1268 C1269 1.386 . S
C1268 C1270 1.391 . S
C1269 C1268 1.386 . S
C1269 C1273 1.393 . S
C1270 H1259 0.950 . S
C1270 C1268 1.391 . S
C1270 C1271 1.400 . S
C1271 C1265 1.491 . S
C1271 C1270 1.400 . S
C1271 C1272 1.398 . S
C1272 H1260 0.950 . S
C1272 C1271 1.398 . S
C1272 C1273 1.391 . S
C1273 H1261 0.950 . S
C1273 C1269 1.393 . S
C1273 C1272 1.391 . S
H1274 C1282 0.950 . S
H1275 C1287 0.950 . S
H1276 C1284 0.950 . S
H1277 C1286 0.950 . S
H1278 C1288 0.950 . S
H1279 C1290 0.950 . S
H1280 C1292 0.950 . S
H1281 C1293 0.950 . S
C1282 H1274 0.950 . S
C1282 C1283 1.386 . S
C1282 C1284 1.391 . S
C1283 C1282 1.386 . S
C1283 C1287 1.393 . S
C1284 H1276 0.950 . S
C1284 C1282 1.391 . S
C1284 C1285 1.400 . S
C1285 C1284 1.400 . S
C1285 C1286 1.398 . S
C1285 C1291 1.491 . S
C1286 H1277 0.950 . S
C1286 C1285 1.398 . S
C1286 C1287 1.391 . S
C1287 H1275 0.950 . S
C1287 C1283 1.393 . S
C1287 C1286 1.391 . S
C1288 H1278 0.950 . S
C1288 C1289 1.386 . S
C1288 C1290 1.391 . S
C1289 C1288 1.386 . S
C1289 C1293 1.393 . S
C1290 H1279 0.950 . S
C1290 C1288 1.391 . S
C1290 C1291 1.400 . S
C1291 C1285 1.491 . S
C1291 C1290 1.400 . S
C1291 C1292 1.398 . S
C1292 H1280 0.950 . S
C1292 C1291 1.398 . S
C1292 C1293 1.391 . S
C1293 H1281 0.950 . S
C1293 C1289 1.393 . S
C1293 C1292 1.391 . S
H1294 C1302 0.950 . S
H1295 C1307 0.950 . S
H1296 C1304 0.950 . S
H1297 C1306 0.950 . S
H1298 C1308 0.950 . S
H1299 C1310 0.950 . S
H1300 C1312 0.950 . S
H1301 C1313 0.950 . S
C1302 H1294 0.950 . S
C1302 C1303 1.386 . S
C1302 C1304 1.391 . S
C1303 C1302 1.386 . S
C1303 C1307 1.393 . S
C1304 H1296 0.950 . S
C1304 C1302 1.391 . S
C1304 C1305 1.400 . S
C1305 C1304 1.400 . S
C1305 C1306 1.398 . S
C1305 C1311 1.491 . S
C1306 H1297 0.950 . S
C1306 C1305 1.398 . S
C1306 C1307 1.391 . S
C1307 H1295 0.950 . S
C1307 C1303 1.393 . S
C1307 C1306 1.391 . S
C1308 H1298 0.950 . S
C1308 C1309 1.386 . S
C1308 C1310 1.391 . S
C1309 C1308 1.386 . S
C1309 C1313 1.393 . S
C1310 H1299 0.950 . S
C1310 C1308 1.391 . S
C1310 C1311 1.400 . S
C1311 C1305 1.491 . S
C1311 C1310 1.400 . S
C1311 C1312 1.398 . S
C1312 H1300 0.950 . S
C1312 C1311 1.398 . S
C1312 C1313 1.391 . S
C1313 H1301 0.950 . S
C1313 C1309 1.393 . S
C1313 C1312 1.391 . S
H1314 C1322 0.950 . S
H1315 C1327 0.950 . S
H1316 C1324 0.950 . S
H1317 C1326 0.950 . S
H1318 C1328 0.950 . S
H1319 C1330 0.950 . S
H1320 C1332 0.950 . S
H1321 C1333 0.950 . S
C1322 H1314 0.950 . S
C1322 C1323 1.386 . S
C1322 C1324 1.391 . S
C1323 C1322 1.386 . S
C1323 C1327 1.393 . S
C1324 H1316 0.950 . S
C1324 C1322 1.391 . S
C1324 C1325 1.400 . S
C1325 C1324 1.400 . S
C1325 C1326 1.398 . S
C1325 C1331 1.491 . S
C1326 H1317 0.950 . S
C1326 C1325 1.398 . S
C1326 C1327 1.391 . S
C1327 H1315 0.950 . S
C1327 C1323 1.393 . S
C1327 C1326 1.391 . S
C1328 H1318 0.950 . S
C1328 C1329 1.386 . S
C1328 C1330 1.391 . S
C1329 C1328 1.386 . S
C1329 C1333 1.393 . S
C1330 H1319 0.950 . S
C1330 C1328 1.391 . S
C1330 C1331 1.400 . S
C1331 C1325 1.491 . S
C1331 C1330 1.400 . S
C1331 C1332 1.398 . S
C1332 H1320 0.950 . S
C1332 C1331 1.398 . S
C1332 C1333 1.391 . S
C1333 H1321 0.950 . S
C1333 C1329 1.393 . S
C1333 C1332 1.391 . S
H1334 C1342 0.950 . S
H1335 C1347 0.950 . S
H1336 C1344 0.950 . S
H1337 C1346 0.950 . S
H1338 C1348 0.950 . S
H1339 C1350 0.950 . S
H1340 C1352 0.950 . S
H1341 C1353 0.950 . S
C1342 H1334 0.950 . S
C1342 C1343 1.386 . S
C1342 C1344 1.391 . S
C1343 C1342 1.386 . S
C1343 C1347 1.393 . S
C1344 H1336 0.950 . S
C1344 C1342 1.391 . S
C1344 C1345 1.400 . S
C1345 C1344 1.400 . S
C1345 C1346 1.398 . S
C1345 C1351 1.491 . S
C1346 H1337 0.950 . S
C1346 C1345 1.398 . S
C1346 C1347 1.391 . S
C1347 H1335 0.950 . S
C1347 C1343 1.393 . S
C1347 C1346 1.391 . S
C1348 H1338 0.950 . S
C1348 C1349 1.386 . S
C1348 C1350 1.391 . S
C1349 C1348 1.386 . S
C1349 C1353 1.393 . S
C1350 H1339 0.950 . S
C1350 C1348 1.391 . S
C1350 C1351 1.400 . S
C1351 C1345 1.491 . S
C1351 C1350 1.400 . S
C1351 C1352 1.398 . S
C1352 H1340 0.950 . S
C1352 C1351 1.398 . S
C1352 C1353 1.391 . S
C1353 H1341 0.950 . S
C1353 C1349 1.393 . S
C1353 C1352 1.391 . S
H1354 C1362 0.950 . S
H1355 C1367 0.950 . S
H1356 C1364 0.950 . S
H1357 C1366 0.950 . S
H1358 C1368 0.950 . S
H1359 C1370 0.950 . S
H1360 C1372 0.950 . S
H1361 C1373 0.950 . S
C1362 H1354 0.950 . S
C1362 C1363 1.386 . S
C1362 C1364 1.391 . S
C1363 C1362 1.386 . S
C1363 C1367 1.393 . S
C1364 H1356 0.950 . S
C1364 C1362 1.391 . S
C1364 C1365 1.400 . S
C1365 C1364 1.400 . S
C1365 C1366 1.398 . S
C1365 C1371 1.491 . S
C1366 H1357 0.950 . S
C1366 C1365 1.398 . S
C1366 C1367 1.391 . S
C1367 H1355 0.950 . S
C1367 C1363 1.393 . S
C1367 C1366 1.391 . S
C1368 H1358 0.950 . S
C1368 C1369 1.386 . S
C1368 C1370 1.391 . S
C1369 C1368 1.386 . S
C1369 C1373 1.393 . S
C1370 H1359 0.950 . S
C1370 C1368 1.391 . S
C1370 C1371 1.400 . S
C1371 C1365 1.491 . S
C1371 C1370 1.400 . S
C1371 C1372 1.398 . S
C1372 H1360 0.950 . S
C1372 C1371 1.398 . S
C1372 C1373 1.391 . S
C1373 H1361 0.950 . S
C1373 C1369 1.393 . S
C1373 C1372 1.391 . S
H1374 C1382 0.950 . S
H1375 C1387 0.950 . S
H1376 C1384 0.950 . S
H1377 C1386 0.950 . S
H1378 C1388 0.950 . S
H1379 C1390 0.950 . S
H1380 C1392 0.950 . S
H1381 C1393 0.950 . S
C1382 H1374 0.950 . S
C1382 C1383 1.386 . S
C1382 C1384 1.391 1_545 S
C1383 C1382 1.386 . S
C1383 C1387 1.393 . S
C1384 H1376 0.950 . S
C1384 C1382 1.391 1_565 S
C1384 C1385 1.400 . S
C1385 C1384 1.400 . S
C1385 C1386 1.398 . S
C1385 C1391 1.491 . S
C1386 H1377 0.950 . S
C1386 C1385 1.398 . S
C1386 C1387 1.391 1_565 S
C1387 H1375 0.950 . S
C1387 C1383 1.393 . S
C1387 C1386 1.391 1_545 S
C1388 H1378 0.950 . S
C1388 C1389 1.386 . S
C1388 C1390 1.391 . S
C1389 C1388 1.386 . S
C1389 C1393 1.393 . S
C1390 H1379 0.950 . S
C1390 C1388 1.391 . S
C1390 C1391 1.400 . S
C1391 C1385 1.491 . S
C1391 C1390 1.400 . S
C1391 C1392 1.398 . S
C1392 H1380 0.950 . S
C1392 C1391 1.398 . S
C1392 C1393 1.391 . S
C1393 H1381 0.950 . S
C1393 C1389 1.393 . S
C1393 C1392 1.391 . S
H1394 C1402 0.950 . S
H1395 C1407 0.950 . S
H1396 C1404 0.950 . S
H1397 C1406 0.950 . S
H1398 C1408 0.950 . S
H1399 C1410 0.950 . S
H1400 C1412 0.950 . S
H1401 C1413 0.950 . S
C1402 H1394 0.950 . S
C1402 C1403 1.386 . S
C1402 C1404 1.391 1_655 S
C1403 C1402 1.386 . S
C1403 C1407 1.393 . S
C1404 H1396 0.950 . S
C1404 C1402 1.391 1_455 S
C1404 C1405 1.400 . S
C1405 C1404 1.400 . S
C1405 C1406 1.398 . S
C1405 C1411 1.491 . S
C1406 H1397 0.950 . S
C1406 C1405 1.398 . S
C1406 C1407 1.391 1_455 S
C1407 H1395 0.950 . S
C1407 C1403 1.393 . S
C1407 C1406 1.391 1_655 S
C1408 H1398 0.950 . S
C1408 C1409 1.386 . S
C1408 C1410 1.391 . S
C1409 C1408 1.386 . S
C1409 C1413 1.393 . S
C1410 H1399 0.950 . S
C1410 C1408 1.391 . S
C1410 C1411 1.400 . S
C1411 C1405 1.491 . S
C1411 C1410 1.400 . S
C1411 C1412 1.398 . S
C1412 H1400 0.950 . S
C1412 C1411 1.398 . S
C1412 C1413 1.391 . S
C1413 H1401 0.950 . S
C1413 C1409 1.393 . S
C1413 C1412 1.391 . S
H1414 C1422 0.950 . S
H1415 C1427 0.950 . S
H1416 C1424 0.950 . S
H1417 C1426 0.950 . S
H1418 C1428 0.950 . S
H1419 C1430 0.950 . S
H1420 C1432 0.950 . S
H1421 C1433 0.950 . S
C1422 H1414 0.950 . S
C1422 C1423 1.386 . S
C1422 C1424 1.391 . S
C1423 C1422 1.386 . S
C1423 C1427 1.393 . S
C1424 H1416 0.950 . S
C1424 C1422 1.391 . S
C1424 C1425 1.400 . S
C1425 C1424 1.400 . S
C1425 C1426 1.398 . S
C1425 C1431 1.491 . S
C1426 H1417 0.950 . S
C1426 C1425 1.398 . S
C1426 C1427 1.391 . S
C1427 H1415 0.950 . S
C1427 C1423 1.393 . S
C1427 C1426 1.391 . S
C1428 H1418 0.950 . S
C1428 C1429 1.386 . S
C1428 C1430 1.391 . S
C1429 C1428 1.386 . S
C1429 C1433 1.393 . S
C1430 H1419 0.950 . S
C1430 C1428 1.391 . S
C1430 C1431 1.400 . S
C1431 C1425 1.491 . S
C1431 C1430 1.400 . S
C1431 C1432 1.398 . S
C1432 H1420 0.950 . S
C1432 C1431 1.398 . S
C1432 C1433 1.391 . S
C1433 H1421 0.950 . S
C1433 C1429 1.393 . S
C1433 C1432 1.391 . S
H1434 C1442 0.950 . S
H1435 C1447 0.950 . S
H1436 C1444 0.950 . S
H1437 C1446 0.950 . S
H1438 C1448 0.950 . S
H1439 C1450 0.950 . S
H1440 C1452 0.950 . S
H1441 C1453 0.950 . S
C1442 H1434 0.950 . S
C1442 C1443 1.386 . S
C1442 C1444 1.391 . S
C1443 C1442 1.386 . S
C1443 C1447 1.393 . S
C1444 H1436 0.950 . S
C1444 C1442 1.391 . S
C1444 C1445 1.400 . S
C1445 C1444 1.400 . S
C1445 C1446 1.398 . S
C1445 C1451 1.491 . S
C1446 H1437 0.950 . S
C1446 C1445 1.398 . S
C1446 C1447 1.391 . S
C1447 H1435 0.950 . S
C1447 C1443 1.393 . S
C1447 C1446 1.391 . S
C1448 H1438 0.950 . S
C1448 C1449 1.386 . S
C1448 C1450 1.391 . S
C1449 C1448 1.386 . S
C1449 C1453 1.393 . S
C1450 H1439 0.950 . S
C1450 C1448 1.391 . S
C1450 C1451 1.400 . S
C1451 C1445 1.491 . S
C1451 C1450 1.400 . S
C1451 C1452 1.398 . S
C1452 H1440 0.950 . S
C1452 C1451 1.398 . S
C1452 C1453 1.391 . S
C1453 H1441 0.950 . S
C1453 C1449 1.393 . S
C1453 C1452 1.391 . S
H1454 C1462 0.950 . S
H1455 C1467 0.950 . S
H1456 C1464 0.950 . S
H1457 C1466 0.950 . S
H1458 C1468 0.950 . S
H1459 C1470 0.950 . S
H1460 C1472 0.950 . S
H1461 C1473 0.950 . S
C1462 H1454 0.950 . S
C1462 C1463 1.386 . S
C1462 C1464 1.391 . S
C1463 C1462 1.386 . S
C1463 C1467 1.393 . S
C1464 H1456 0.950 . S
C1464 C1462 1.391 . S
C1464 C1465 1.400 . S
C1465 C1464 1.400 . S
C1465 C1466 1.398 . S
C1465 C1471 1.491 . S
C1466 H1457 0.950 . S
C1466 C1465 1.398 . S
C1466 C1467 1.391 . S
C1467 H1455 0.950 . S
C1467 C1463 1.393 . S
C1467 C1466 1.391 . S
C1468 H1458 0.950 . S
C1468 C1469 1.386 . S
C1468 C1470 1.391 . S
C1469 C1468 1.386 . S
C1469 C1473 1.393 . S
C1470 H1459 0.950 . S
C1470 C1468 1.391 . S
C1470 C1471 1.400 . S
C1471 C1465 1.491 . S
C1471 C1470 1.400 . S
C1471 C1472 1.398 . S
C1472 H1460 0.950 . S
C1472 C1471 1.398 . S
C1472 C1473 1.391 . S
C1473 H1461 0.950 . S
C1473 C1469 1.393 . S
C1473 C1472 1.391 . S
H1474 C1482 0.950 . S
H1475 C1487 0.950 . S
H1476 C1484 0.950 . S
H1477 C1486 0.950 . S
H1478 C1488 0.950 . S
H1479 C1490 0.950 . S
H1480 C1492 0.950 . S
H1481 C1493 0.950 . S
C1482 H1474 0.950 . S
C1482 C1483 1.386 . S
C1482 C1484 1.391 . S
C1483 C1482 1.386 . S
C1483 C1487 1.393 . S
C1484 H1476 0.950 . S
C1484 C1482 1.391 . S
C1484 C1485 1.400 . S
C1485 C1484 1.400 . S
C1485 C1486 1.398 . S
C1485 C1491 1.491 . S
C1486 H1477 0.950 . S
C1486 C1485 1.398 . S
C1486 C1487 1.391 . S
C1487 H1475 0.950 . S
C1487 C1483 1.393 . S
C1487 C1486 1.391 . S
C1488 H1478 0.950 . S
C1488 C1489 1.386 . S
C1488 C1490 1.391 . S
C1489 C1488 1.386 . S
C1489 C1493 1.393 . S
C1490 H1479 0.950 . S
C1490 C1488 1.391 . S
C1490 C1491 1.400 . S
C1491 C1485 1.491 . S
C1491 C1490 1.400 . S
C1491 C1492 1.398 . S
C1492 H1480 0.950 . S
C1492 C1491 1.398 . S
C1492 C1493 1.391 . S
C1493 H1481 0.950 . S
C1493 C1489 1.393 . S
C1493 C1492 1.391 . S
H1494 C1502 0.950 . S
H1495 C1507 0.950 . S
H1496 C1504 0.954 1_545 S
H1497 C1506 0.950 . S
H1498 C1508 0.950 . S
H1499 C1510 0.950 . S
H1500 C1512 0.950 . S
H1501 C1513 0.950 . S
C1502 H1494 0.950 . S
C1502 C1503 1.386 . S
C1502 C1504 1.398 . S
C1503 C1502 1.386 . S
C1503 C1507 1.393 . S
C1504 H1496 0.954 1_565 S
C1504 C1502 1.398 . S
C1504 C1505 1.390 1_565 S
C1505 C1504 1.390 1_545 S
C1505 C1506 1.398 . S
C1505 C1511 1.491 . S
C1506 H1497 0.950 . S
C1506 C1505 1.398 . S
C1506 C1507 1.391 1_545 S
C1507 H1495 0.950 . S
C1507 C1503 1.393 . S
C1507 C1506 1.391 1_565 S
C1508 H1498 0.950 . S
C1508 C1509 1.386 . S
C1508 C1510 1.391 . S
C1509 C1508 1.386 . S
C1509 C1513 1.393 . S
C1510 H1499 0.950 . S
C1510 C1508 1.391 . S
C1510 C1511 1.400 . S
C1511 C1505 1.491 . S
C1511 C1510 1.400 . S
C1511 C1512 1.398 . S
C1512 H1500 0.950 . S
C1512 C1511 1.398 . S
C1512 C1513 1.391 . S
C1513 H1501 0.950 . S
C1513 C1509 1.393 . S
C1513 C1512 1.391 . S
H1514 C1522 0.950 . S
H1515 C1527 0.950 . S
H1516 C1524 0.942 1_655 S
H1517 C1526 0.950 . S
H1518 C1528 0.950 . S
H1519 C1530 0.950 . S
H1520 C1532 0.950 . S
H1521 C1533 0.950 . S
C1522 H1514 0.950 . S
C1522 C1523 1.386 . S
C1522 C1524 1.391 . S
C1523 C1522 1.386 . S
C1523 C1527 1.393 . S
C1524 H1516 0.942 1_455 S
C1524 C1522 1.391 . S
C1524 C1525 1.400 1_455 S
C1525 C1524 1.400 1_655 S
C1525 C1526 1.398 . S
C1525 C1531 1.491 . S
C1526 H1517 0.950 . S
C1526 C1525 1.398 . S
C1526 C1527 1.391 1_655 S
C1527 H1515 0.950 . S
C1527 C1523 1.393 . S
C1527 C1526 1.391 1_455 S
C1528 H1518 0.950 . S
C1528 C1529 1.386 . S
C1528 C1530 1.391 . S
C1529 C1528 1.386 . S
C1529 C1533 1.393 . S
C1530 H1519 0.950 . S
C1530 C1528 1.391 . S
C1530 C1531 1.400 . S
C1531 C1525 1.491 . S
C1531 C1530 1.400 . S
C1531 C1532 1.398 . S
C1532 H1520 0.950 . S
C1532 C1531 1.398 . S
C1532 C1533 1.391 . S
C1533 H1521 0.950 . S
C1533 C1529 1.393 . S
C1533 C1532 1.391 . S
H1534 C1542 0.950 . S
H1535 C1547 0.950 . S
H1536 C1544 0.950 . S
H1537 C1546 0.950 . S
H1538 C1548 0.950 . S
H1539 C1550 0.950 . S
H1540 C1552 0.950 . S
H1541 C1553 0.950 . S
C1542 H1534 0.950 . S
C1542 C1543 1.386 . S
C1542 C1544 1.391 . S
C1543 C1542 1.386 . S
C1543 C1547 1.393 . S
C1544 H1536 0.950 . S
C1544 C1542 1.391 . S
C1544 C1545 1.400 . S
C1545 C1544 1.400 . S
C1545 C1546 1.398 . S
C1545 C1551 1.491 . S
C1546 H1537 0.950 . S
C1546 C1545 1.398 . S
C1546 C1547 1.391 . S
C1547 H1535 0.950 . S
C1547 C1543 1.393 . S
C1547 C1546 1.391 . S
C1548 H1538 0.950 . S
C1548 C1549 1.386 . S
C1548 C1550 1.391 . S
C1549 C1548 1.386 . S
C1549 C1553 1.393 . S
C1550 H1539 0.950 . S
C1550 C1548 1.391 . S
C1550 C1551 1.400 . S
C1551 C1545 1.491 . S
C1551 C1550 1.400 . S
C1551 C1552 1.398 . S
C1552 H1540 0.950 . S
C1552 C1551 1.398 . S
C1552 C1553 1.391 . S
C1553 H1541 0.950 . S
C1553 C1549 1.393 . S
C1553 C1552 1.391 . S
H1554 C1562 0.950 . S
H1555 C1567 0.950 . S
H1556 C1564 0.950 . S
H1557 C1566 0.950 . S
H1558 C1568 0.950 . S
H1559 C1570 0.950 . S
H1560 C1572 0.950 . S
H1561 C1573 0.950 . S
C1562 H1554 0.950 . S
C1562 C1563 1.386 1_655 S
C1562 C1564 1.391 . S
C1563 C1562 1.386 1_455 S
C1563 C1567 1.393 . S
C1564 H1556 0.950 . S
C1564 C1562 1.391 . S
C1564 C1565 1.400 . S
C1565 C1564 1.400 . S
C1565 C1566 1.398 . S
C1565 C1571 1.491 . S
C1566 H1557 0.950 . S
C1566 C1565 1.398 . S
C1566 C1567 1.391 1_655 S
C1567 H1555 0.950 . S
C1567 C1563 1.393 . S
C1567 C1566 1.391 1_455 S
C1568 H1558 0.950 . S
C1568 C1569 1.386 . S
C1568 C1570 1.391 . S
C1569 C1568 1.386 . S
C1569 C1573 1.393 . S
C1570 H1559 0.950 . S
C1570 C1568 1.391 . S
C1570 C1571 1.400 . S
C1571 C1565 1.491 . S
C1571 C1570 1.400 . S
C1571 C1572 1.398 . S
C1572 H1560 0.950 . S
C1572 C1571 1.398 . S
C1572 C1573 1.391 . S
C1573 H1561 0.950 . S
C1573 C1569 1.393 . S
C1573 C1572 1.391 . S
H1574 C1582 0.950 . S
H1575 C1587 0.950 . S
H1576 C1584 0.950 . S
H1577 C1586 0.950 . S
H1578 C1588 0.950 . S
H1579 C1590 0.950 . S
H1580 C1592 0.950 . S
H1581 C1593 0.950 . S
C1582 H1574 0.950 . S
C1582 C1583 1.386 . S
C1582 C1584 1.391 . S
C1583 C1582 1.386 . S
C1583 C1587 1.393 . S
C1584 H1576 0.950 . S
C1584 C1582 1.391 . S
C1584 C1585 1.400 . S
C1585 C1584 1.400 . S
C1585 C1586 1.398 . S
C1585 C1591 1.491 . S
C1586 H1577 0.950 . S
C1586 C1585 1.398 . S
C1586 C1587 1.391 . S
C1587 H1575 0.950 . S
C1587 C1583 1.393 . S
C1587 C1586 1.391 . S
C1588 H1578 0.950 . S
C1588 C1589 1.386 . S
C1588 C1590 1.391 . S
C1589 C1588 1.386 . S
C1589 C1593 1.393 . S
C1590 H1579 0.950 . S
C1590 C1588 1.391 . S
C1590 C1591 1.400 . S
C1591 C1585 1.491 . S
C1591 C1590 1.400 . S
C1591 C1592 1.398 . S
C1592 H1580 0.950 . S
C1592 C1591 1.398 . S
C1592 C1593 1.391 . S
C1593 H1581 0.950 . S
C1593 C1589 1.393 . S
C1593 C1592 1.391 . S
H1594 C1602 0.950 . S
H1595 C1607 0.950 . S
H1596 C1604 0.950 . S
H1597 C1606 0.950 . S
H1598 C1608 0.950 . S
H1599 C1610 0.950 . S
H1600 C1612 0.950 . S
H1601 C1613 0.950 . S
C1602 H1594 0.950 . S
C1602 C1603 1.386 . S
C1602 C1604 1.391 1_565 S
C1603 C1602 1.386 . S
C1603 C1607 1.393 . S
C1604 H1596 0.950 . S
C1604 C1602 1.391 1_545 S
C1604 C1605 1.400 . S
C1605 C1604 1.400 . S
C1605 C1606 1.398 . S
C1605 C1611 1.491 . S
C1606 H1597 0.950 . S
C1606 C1605 1.398 . S
C1606 C1607 1.391 1_545 S
C1607 H1595 0.950 . S
C1607 C1603 1.393 . S
C1607 C1606 1.391 1_565 S
C1608 H1598 0.950 . S
C1608 C1609 1.386 . S
C1608 C1610 1.391 . S
C1609 C1608 1.386 . S
C1609 C1613 1.393 . S
C1610 H1599 0.950 . S
C1610 C1608 1.391 . S
C1610 C1611 1.400 . S
C1611 C1605 1.491 . S
C1611 C1610 1.400 . S
C1611 C1612 1.398 . S
C1612 H1600 0.950 . S
C1612 C1611 1.398 . S
C1612 C1613 1.391 . S
C1613 H1601 0.950 . S
C1613 C1609 1.393 . S
C1613 C1612 1.391 . S
H1614 C1622 0.950 . S
H1615 C1627 0.950 . S
H1616 C1624 0.950 . S
H1617 C1626 0.950 . S
H1618 C1628 0.950 . S
H1619 C1630 0.950 . S
H1620 C1632 0.950 . S
H1621 C1633 0.950 . S
C1622 H1614 0.950 . S
C1622 C1623 1.386 . S
C1622 C1624 1.391 . S
C1623 C1622 1.386 . S
C1623 C1627 1.393 . S
C1624 H1616 0.950 . S
C1624 C1622 1.391 . S
C1624 C1625 1.400 . S
C1625 C1624 1.400 . S
C1625 C1626 1.398 . S
C1625 C1631 1.491 . S
C1626 H1617 0.950 . S
C1626 C1625 1.398 . S
C1626 C1627 1.391 . S
C1627 H1615 0.950 . S
C1627 C1623 1.393 . S
C1627 C1626 1.391 . S
C1628 H1618 0.950 . S
C1628 C1629 1.386 . S
C1628 C1630 1.391 . S
C1629 C1628 1.386 . S
C1629 C1633 1.393 . S
C1630 H1619 0.950 . S
C1630 C1628 1.391 . S
C1630 C1631 1.400 . S
C1631 C1625 1.491 . S
C1631 C1630 1.400 . S
C1631 C1632 1.398 . S
C1632 H1620 0.950 . S
C1632 C1631 1.398 . S
C1632 C1633 1.391 . S
C1633 H1621 0.950 . S
C1633 C1629 1.393 . S
C1633 C1632 1.391 . S
H1634 C1642 0.950 . S
H1635 C1647 0.950 . S
H1636 C1644 0.950 . S
H1637 C1646 0.950 . S
H1638 C1648 0.950 . S
H1639 C1650 0.950 . S
H1640 C1652 0.950 . S
H1641 C1653 0.950 . S
C1642 H1634 0.950 . S
C1642 C1643 1.386 . S
C1642 C1644 1.391 . S
C1643 C1642 1.386 . S
C1643 C1647 1.393 . S
C1644 H1636 0.950 . S
C1644 C1642 1.391 . S
C1644 C1645 1.400 . S
C1645 C1644 1.400 . S
C1645 C1646 1.398 . S
C1645 C1651 1.491 . S
C1646 H1637 0.950 . S
C1646 C1645 1.398 . S
C1646 C1647 1.391 . S
C1647 H1635 0.950 . S
C1647 C1643 1.393 . S
C1647 C1646 1.391 . S
C1648 H1638 0.950 . S
C1648 C1649 1.386 . S
C1648 C1650 1.391 . S
C1649 C1648 1.386 . S
C1649 C1653 1.393 . S
C1650 H1639 0.950 . S
C1650 C1648 1.391 . S
C1650 C1651 1.400 . S
C1651 C1645 1.491 . S
C1651 C1650 1.400 . S
C1651 C1652 1.398 . S
C1652 H1640 0.950 . S
C1652 C1651 1.398 . S
C1652 C1653 1.391 . S
C1653 H1641 0.950 . S
C1653 C1649 1.393 . S
C1653 C1652 1.391 . S
H1654 C1662 0.950 . S
H1655 C1667 0.950 . S
H1656 C1664 0.950 . S
H1657 C1666 0.950 . S
H1658 C1668 0.950 . S
H1659 C1670 0.950 . S
H1660 C1672 0.950 . S
H1661 C1673 0.950 . S
C1662 H1654 0.950 . S
C1662 C1663 1.386 . S
C1662 C1664 1.391 . S
C1663 C1662 1.386 . S
C1663 C1667 1.393 . S
C1664 H1656 0.950 . S
C1664 C1662 1.391 . S
C1664 C1665 1.400 . S
C1665 C1664 1.400 . S
C1665 C1666 1.398 . S
C1665 C1671 1.491 . S
C1666 H1657 0.950 . S
C1666 C1665 1.398 . S
C1666 C1667 1.391 . S
C1667 H1655 0.950 . S
C1667 C1663 1.393 . S
C1667 C1666 1.391 . S
C1668 H1658 0.950 . S
C1668 C1669 1.386 . S
C1668 C1670 1.391 . S
C1669 C1668 1.386 . S
C1669 C1673 1.393 . S
C1670 H1659 0.950 . S
C1670 C1668 1.391 . S
C1670 C1671 1.400 . S
C1671 C1665 1.491 . S
C1671 C1670 1.400 . S
C1671 C1672 1.398 . S
C1672 H1660 0.950 . S
C1672 C1671 1.398 . S
C1672 C1673 1.391 . S
C1673 H1661 0.950 . S
C1673 C1669 1.393 . S
C1673 C1672 1.391 . S
H1674 C1682 0.950 . S
H1675 C1687 0.950 . S
H1676 C1684 0.950 . S
H1677 C1686 0.950 . S
H1678 C1688 0.950 . S
H1679 C1690 0.950 . S
H1680 C1692 0.950 . S
H1681 C1693 0.950 . S
C1682 H1674 0.950 . S
C1682 C1683 1.386 . S
C1682 C1684 1.391 . S
C1683 C1682 1.386 . S
C1683 C1687 1.393 . S
C1684 H1676 0.950 . S
C1684 C1682 1.391 . S
C1684 C1685 1.400 . S
C1685 C1684 1.400 . S
C1685 C1686 1.398 . S
C1685 C1691 1.491 . S
C1686 H1677 0.950 . S
C1686 C1685 1.398 . S
C1686 C1687 1.391 . S
C1687 H1675 0.950 . S
C1687 C1683 1.393 . S
C1687 C1686 1.391 . S
C1688 H1678 0.950 . S
C1688 C1689 1.386 . S
C1688 C1690 1.391 . S
C1689 C1688 1.386 . S
C1689 C1693 1.393 . S
C1690 H1679 0.950 . S
C1690 C1688 1.391 . S
C1690 C1691 1.400 . S
C1691 C1685 1.491 . S
C1691 C1690 1.400 . S
C1691 C1692 1.398 . S
C1692 H1680 0.950 . S
C1692 C1691 1.398 . S
C1692 C1693 1.391 . S
C1693 H1681 0.950 . S
C1693 C1689 1.393 . S
C1693 C1692 1.391 . S
H1694 C1702 0.950 . S
H1695 C1707 0.950 . S
H1696 C1704 0.950 . S
H1697 C1706 0.950 . S
H1698 C1708 0.950 . S
H1699 C1710 0.950 . S
H1700 C1712 0.950 . S
H1701 C1713 0.950 . S
C1702 H1694 0.950 . S
C1702 C1703 1.386 . S
C1702 C1704 1.391 . S
C1703 C1702 1.386 . S
C1703 C1707 1.393 . S
C1704 H1696 0.950 . S
C1704 C1702 1.391 . S
C1704 C1705 1.400 . S
C1705 C1704 1.400 . S
C1705 C1706 1.398 . S
C1705 C1711 1.491 . S
C1706 H1697 0.950 . S
C1706 C1705 1.398 . S
C1706 C1707 1.391 . S
C1707 H1695 0.950 . S
C1707 C1703 1.393 . S
C1707 C1706 1.391 . S
C1708 H1698 0.950 . S
C1708 C1709 1.386 . S
C1708 C1710 1.391 . S
C1709 C1708 1.386 . S
C1709 C1713 1.393 . S
C1710 H1699 0.950 . S
C1710 C1708 1.391 . S
C1710 C1711 1.400 . S
C1711 C1705 1.491 . S
C1711 C1710 1.400 . S
C1711 C1712 1.398 . S
C1712 H1700 0.950 . S
C1712 C1711 1.398 . S
C1712 C1713 1.391 . S
C1713 H1701 0.950 . S
C1713 C1709 1.393 . S
C1713 C1712 1.391 . S
H1714 C1722 0.950 . S
H1715 C1727 0.950 . S
H1716 C1724 0.950 . S
H1717 C1726 0.950 . S
H1718 C1728 0.950 . S
H1719 C1730 0.950 . S
H1720 C1732 0.950 . S
H1721 C1733 0.950 . S
C1722 H1714 0.950 . S
C1722 C1723 1.386 . S
C1722 C1724 1.391 . S
C1723 C1722 1.386 . S
C1723 C1727 1.393 . S
C1724 H1716 0.950 . S
C1724 C1722 1.391 . S
C1724 C1725 1.400 . S
C1725 C1724 1.400 . S
C1725 C1726 1.398 . S
C1725 C1731 1.491 . S
C1726 H1717 0.950 . S
C1726 C1725 1.398 . S
C1726 C1727 1.391 . S
C1727 H1715 0.950 . S
C1727 C1723 1.393 . S
C1727 C1726 1.391 . S
C1728 H1718 0.950 . S
C1728 C1729 1.386 . S
C1728 C1730 1.391 . S
C1729 C1728 1.386 . S
C1729 C1733 1.393 . S
C1730 H1719 0.950 . S
C1730 C1728 1.391 . S
C1730 C1731 1.400 . S
C1731 C1725 1.491 . S
C1731 C1730 1.400 . S
C1731 C1732 1.398 . S
C1732 H1720 0.950 . S
C1732 C1731 1.398 . S
C1732 C1733 1.391 . S
C1733 H1721 0.950 . S
C1733 C1729 1.393 . S
C1733 C1732 1.391 . S
H1734 C1742 0.950 . S
H1735 C1747 0.950 . S
H1736 C1744 0.950 . S
H1737 C1746 0.950 . S
H1738 C1748 0.950 . S
H1739 C1750 0.950 . S
H1740 C1752 0.950 . S
H1741 C1753 0.950 . S
C1742 H1734 0.950 . S
C1742 C1743 1.386 . S
C1742 C1744 1.391 . S
C1743 C1742 1.386 . S
C1743 C1747 1.393 . S
C1744 H1736 0.950 . S
C1744 C1742 1.391 . S
C1744 C1745 1.400 . S
C1745 C1744 1.400 . S
C1745 C1746 1.398 . S
C1745 C1751 1.491 . S
C1746 H1737 0.950 . S
C1746 C1745 1.398 . S
C1746 C1747 1.391 . S
C1747 H1735 0.950 . S
C1747 C1743 1.393 . S
C1747 C1746 1.391 . S
C1748 H1738 0.950 . S
C1748 C1749 1.386 . S
C1748 C1750 1.391 . S
C1749 C1748 1.386 . S
C1749 C1753 1.393 . S
C1750 H1739 0.950 . S
C1750 C1748 1.391 . S
C1750 C1751 1.400 . S
C1751 C1745 1.491 . S
C1751 C1750 1.400 . S
C1751 C1752 1.398 . S
C1752 H1740 0.950 . S
C1752 C1751 1.398 . S
C1752 C1753 1.391 . S
C1753 H1741 0.950 . S
C1753 C1749 1.393 . S
C1753 C1752 1.391 . S
H1754 C1762 0.950 . S
H1755 C1767 0.950 . S
H1756 C1764 0.950 . S
H1757 C1766 0.950 . S
H1758 C1768 0.950 . S
H1759 C1770 0.950 . S
H1760 C1772 0.950 . S
H1761 C1773 0.950 . S
C1762 H1754 0.950 . S
C1762 C1763 1.386 . S
C1762 C1764 1.391 . S
C1763 C1762 1.386 . S
C1763 C1767 1.393 . S
C1764 H1756 0.950 . S
C1764 C1762 1.391 . S
C1764 C1765 1.400 . S
C1765 C1764 1.400 . S
C1765 C1766 1.398 . S
C1765 C1771 1.491 . S
C1766 H1757 0.950 . S
C1766 C1765 1.398 . S
C1766 C1767 1.391 . S
C1767 H1755 0.950 . S
C1767 C1763 1.393 . S
C1767 C1766 1.391 . S
C1768 H1758 0.950 . S
C1768 C1769 1.386 . S
C1768 C1770 1.391 . S
C1769 C1768 1.386 . S
C1769 C1773 1.393 . S
C1770 H1759 0.950 . S
C1770 C1768 1.391 . S
C1770 C1771 1.400 . S
C1771 C1765 1.491 . S
C1771 C1770 1.400 . S
C1771 C1772 1.398 . S
C1772 H1760 0.950 . S
C1772 C1771 1.398 . S
C1772 C1773 1.391 . S
C1773 H1761 0.950 . S
C1773 C1769 1.393 . S
C1773 C1772 1.391 . S
H1774 C1782 0.950 . S
H1775 C1787 0.950 . S
H1776 C1784 0.950 . S
H1777 C1786 0.950 . S
H1778 C1788 0.950 . S
H1779 C1790 0.950 . S
H1780 C1792 0.950 . S
H1781 C1793 0.950 . S
C1782 H1774 0.950 . S
C1782 C1783 1.386 . S
C1782 C1784 1.391 . S
C1783 C1782 1.386 . S
C1783 C1787 1.393 . S
C1784 H1776 0.950 . S
C1784 C1782 1.391 . S
C1784 C1785 1.400 . S
C1785 C1784 1.400 . S
C1785 C1786 1.398 . S
C1785 C1791 1.491 . S
C1786 H1777 0.950 . S
C1786 C1785 1.398 . S
C1786 C1787 1.391 . S
C1787 H1775 0.950 . S
C1787 C1783 1.393 . S
C1787 C1786 1.391 . S
C1788 H1778 0.950 . S
C1788 C1789 1.386 . S
C1788 C1790 1.391 . S
C1789 C1788 1.386 . S
C1789 C1793 1.393 . S
C1790 H1779 0.950 . S
C1790 C1788 1.391 . S
C1790 C1791 1.400 . S
C1791 C1785 1.491 . S
C1791 C1790 1.400 . S
C1791 C1792 1.398 . S
C1792 H1780 0.950 . S
C1792 C1791 1.398 . S
C1792 C1793 1.391 . S
C1793 H1781 0.950 . S
C1793 C1789 1.393 . S
C1793 C1792 1.391 . S
H1794 C1802 0.950 . S
H1795 C1807 0.950 . S
H1796 C1804 0.950 . S
H1797 C1806 0.950 . S
H1798 C1808 0.950 . S
H1799 C1810 0.950 . S
H1800 C1812 0.950 . S
H1801 C1813 0.950 . S
C1802 H1794 0.950 . S
C1802 C1803 1.386 . S
C1802 C1804 1.391 . S
C1803 C1802 1.386 . S
C1803 C1807 1.393 . S
C1804 H1796 0.950 . S
C1804 C1802 1.391 . S
C1804 C1805 1.400 . S
C1805 C1804 1.400 . S
C1805 C1806 1.398 . S
C1805 C1811 1.491 . S
C1806 H1797 0.950 . S
C1806 C1805 1.398 . S
C1806 C1807 1.391 . S
C1807 H1795 0.950 . S
C1807 C1803 1.393 . S
C1807 C1806 1.391 . S
C1808 H1798 0.950 . S
C1808 C1809 1.386 . S
C1808 C1810 1.391 . S
C1809 C1808 1.386 . S
C1809 C1813 1.393 . S
C1810 H1799 0.950 . S
C1810 C1808 1.391 . S
C1810 C1811 1.400 . S
C1811 C1805 1.491 . S
C1811 C1810 1.400 . S
C1811 C1812 1.398 . S
C1812 H1800 0.950 . S
C1812 C1811 1.398 . S
C1812 C1813 1.391 . S
C1813 H1801 0.950 . S
C1813 C1809 1.393 . S
C1813 C1812 1.391 . S
H1814 C1822 0.950 . S
H1815 C1827 0.950 . S
H1816 C1824 0.950 . S
H1817 C1826 0.950 . S
H1818 C1828 0.950 . S
H1819 C1830 0.950 . S
H1820 C1832 0.950 . S
H1821 C1833 0.950 . S
C1822 H1814 0.950 . S
C1822 C1823 1.386 . S
C1822 C1824 1.391 . S
C1823 C1822 1.386 . S
C1823 C1827 1.393 . S
C1824 H1816 0.950 . S
C1824 C1822 1.391 . S
C1824 C1825 1.400 . S
C1825 C1824 1.400 . S
C1825 C1826 1.398 . S
C1825 C1831 1.491 . S
C1826 H1817 0.950 . S
C1826 C1825 1.398 . S
C1826 C1827 1.391 . S
C1827 H1815 0.950 . S
C1827 C1823 1.393 . S
C1827 C1826 1.391 . S
C1828 H1818 0.950 . S
C1828 C1829 1.386 . S
C1828 C1830 1.391 . S
C1829 C1828 1.386 . S
C1829 C1833 1.393 . S
C1830 H1819 0.950 . S
C1830 C1828 1.391 . S
C1830 C1831 1.400 . S
C1831 C1825 1.491 . S
C1831 C1830 1.400 . S
C1831 C1832 1.398 . S
C1832 H1820 0.950 . S
C1832 C1831 1.398 . S
C1832 C1833 1.391 . S
C1833 H1821 0.950 . S
C1833 C1829 1.393 . S
C1833 C1832 1.391 . S
H1834 C1842 0.950 . S
H1835 C1847 0.950 . S
H1836 C1844 0.950 . S
H1837 C1846 0.950 . S
H1838 C1848 0.950 . S
H1839 C1850 0.950 . S
H1840 C1852 0.950 . S
H1841 C1853 0.950 . S
C1842 H1834 0.950 . S
C1842 C1843 1.386 . S
C1842 C1844 1.391 . S
C1843 C1842 1.386 . S
C1843 C1847 1.393 . S
C1844 H1836 0.950 . S
C1844 C1842 1.391 . S
C1844 C1845 1.400 . S
C1845 C1844 1.400 . S
C1845 C1846 1.398 . S
C1845 C1851 1.491 . S
C1846 H1837 0.950 . S
C1846 C1845 1.398 . S
C1846 C1847 1.391 . S
C1847 H1835 0.950 . S
C1847 C1843 1.393 . S
C1847 C1846 1.391 . S
C1848 H1838 0.950 . S
C1848 C1849 1.386 . S
C1848 C1850 1.391 . S
C1849 C1848 1.386 . S
C1849 C1853 1.393 . S
C1850 H1839 0.950 . S
C1850 C1848 1.391 . S
C1850 C1851 1.400 . S
C1851 C1845 1.491 . S
C1851 C1850 1.400 . S
C1851 C1852 1.398 . S
C1852 H1840 0.950 . S
C1852 C1851 1.398 . S
C1852 C1853 1.391 . S
C1853 H1841 0.950 . S
C1853 C1849 1.393 . S
C1853 C1852 1.391 . S
H1854 C1862 0.950 . S
H1855 C1867 0.950 . S
H1856 C1864 0.950 . S
H1857 C1866 0.950 . S
H1858 C1868 0.950 . S
H1859 C1870 0.950 . S
H1860 C1872 0.950 . S
H1861 C1873 0.950 . S
C1862 H1854 0.950 . S
C1862 C1863 1.386 . S
C1862 C1864 1.391 . S
C1863 C1862 1.386 . S
C1863 C1867 1.393 . S
C1864 H1856 0.950 . S
C1864 C1862 1.391 . S
C1864 C1865 1.400 . S
C1865 C1864 1.400 . S
C1865 C1866 1.398 . S
C1865 C1871 1.491 . S
C1866 H1857 0.950 . S
C1866 C1865 1.398 . S
C1866 C1867 1.391 . S
C1867 H1855 0.950 . S
C1867 C1863 1.393 . S
C1867 C1866 1.391 . S
C1868 H1858 0.950 . S
C1868 C1869 1.386 . S
C1868 C1870 1.391 . S
C1869 C1868 1.386 . S
C1869 C1873 1.393 . S
C1870 H1859 0.950 . S
C1870 C1868 1.391 . S
C1870 C1871 1.400 . S
C1871 C1865 1.491 . S
C1871 C1870 1.400 . S
C1871 C1872 1.398 . S
C1872 H1860 0.950 . S
C1872 C1871 1.398 . S
C1872 C1873 1.391 . S
C1873 H1861 0.950 . S
C1873 C1869 1.393 . S
C1873 C1872 1.391 . S
H1874 C1882 0.950 . S
H1875 C1887 0.950 . S
H1876 C1884 0.950 . S
H1877 C1886 0.950 . S
H1878 C1888 0.950 . S
H1879 C1890 0.950 . S
H1880 C1892 0.950 . S
H1881 C1893 0.950 . S
C1882 H1874 0.950 . S
C1882 C1883 1.386 . S
C1882 C1884 1.391 . S
C1883 C1882 1.386 . S
C1883 C1887 1.393 . S
C1884 H1876 0.950 . S
C1884 C1882 1.391 . S
C1884 C1885 1.400 . S
C1885 C1884 1.400 . S
C1885 C1886 1.398 . S
C1885 C1891 1.491 . S
C1886 H1877 0.950 . S
C1886 C1885 1.398 . S
C1886 C1887 1.391 . S
C1887 H1875 0.950 . S
C1887 C1883 1.393 . S
C1887 C1886 1.391 . S
C1888 H1878 0.950 . S
C1888 C1889 1.386 . S
C1888 C1890 1.391 . S
C1889 C1888 1.386 . S
C1889 C1893 1.393 . S
C1890 H1879 0.950 . S
C1890 C1888 1.391 . S
C1890 C1891 1.400 . S
C1891 C1885 1.491 . S
C1891 C1890 1.400 . S
C1891 C1892 1.398 . S
C1892 H1880 0.950 . S
C1892 C1891 1.398 . S
C1892 C1893 1.391 . S
C1893 H1881 0.950 . S
C1893 C1889 1.393 . S
C1893 C1892 1.391 . S
H1894 C1902 0.950 . S
H1895 C1907 0.950 . S
H1896 C1904 0.950 . S
H1897 C1906 0.950 . S
H1898 C1908 0.950 . S
H1899 C1910 0.950 . S
H1900 C1912 0.950 . S
H1901 C1913 0.950 . S
C1902 H1894 0.950 . S
C1902 C1903 1.386 . S
C1902 C1904 1.391 . S
C1903 C1902 1.386 . S
C1903 C1907 1.393 . S
C1904 H1896 0.950 . S
C1904 C1902 1.391 . S
C1904 C1905 1.400 . S
C1905 C1904 1.400 . S
C1905 C1906 1.398 . S
C1905 C1911 1.491 . S
C1906 H1897 0.950 . S
C1906 C1905 1.398 . S
C1906 C1907 1.391 . S
C1907 H1895 0.950 . S
C1907 C1903 1.393 . S
C1907 C1906 1.391 . S
C1908 H1898 0.950 . S
C1908 C1909 1.386 . S
C1908 C1910 1.391 . S
C1909 C1908 1.386 . S
C1909 C1913 1.393 . S
C1910 H1899 0.950 . S
C1910 C1908 1.391 . S
C1910 C1911 1.400 . S
C1911 C1905 1.491 . S
C1911 C1910 1.400 . S
C1911 C1912 1.398 . S
C1912 H1900 0.950 . S
C1912 C1911 1.398 . S
C1912 C1913 1.391 . S
C1913 H1901 0.950 . S
C1913 C1909 1.393 . S
C1913 C1912 1.391 . S
H1914 C1922 0.950 . S
H1915 C1927 0.950 . S
H1916 C1924 0.950 . S
H1917 C1926 0.950 . S
H1918 C1928 0.950 . S
H1919 C1930 0.950 . S
H1920 C1932 0.950 . S
H1921 C1933 0.950 . S
C1922 H1914 0.950 . S
C1922 C1923 1.386 . S
C1922 C1924 1.391 . S
C1923 C1922 1.386 . S
C1923 C1927 1.393 . S
C1924 H1916 0.950 . S
C1924 C1922 1.391 . S
C1924 C1925 1.400 . S
C1925 C1924 1.400 . S
C1925 C1926 1.398 . S
C1925 C1931 1.491 . S
C1926 H1917 0.950 . S
C1926 C1925 1.398 . S
C1926 C1927 1.391 . S
C1927 H1915 0.950 . S
C1927 C1923 1.393 . S
C1927 C1926 1.391 . S
C1928 H1918 0.950 . S
C1928 C1929 1.386 . S
C1928 C1930 1.391 . S
C1929 C1928 1.386 . S
C1929 C1933 1.393 . S
C1930 H1919 0.950 . S
C1930 C1928 1.391 . S
C1930 C1931 1.400 . S
C1931 C1925 1.491 . S
C1931 C1930 1.400 . S
C1931 C1932 1.398 . S
C1932 H1920 0.950 . S
C1932 C1931 1.398 . S
C1932 C1933 1.391 . S
C1933 H1921 0.950 . S
C1933 C1929 1.393 . S
C1933 C1932 1.391 . S
H1934 C1942 0.950 . S
H1935 C1947 0.950 . S
H1936 C1944 0.950 . S
H1937 C1946 0.950 . S
H1938 C1948 0.950 . S
H1939 C1950 0.950 . S
H1940 C1952 0.950 . S
H1941 C1953 0.950 . S
C1942 H1934 0.950 . S
C1942 C1943 1.386 . S
C1942 C1944 1.391 . S
C1943 C1942 1.386 . S
C1943 C1947 1.393 . S
C1944 H1936 0.950 . S
C1944 C1942 1.391 . S
C1944 C1945 1.400 . S
C1945 C1944 1.400 . S
C1945 C1946 1.398 . S
C1945 C1951 1.491 . S
C1946 H1937 0.950 . S
C1946 C1945 1.398 . S
C1946 C1947 1.391 . S
C1947 H1935 0.950 . S
C1947 C1943 1.393 . S
C1947 C1946 1.391 . S
C1948 H1938 0.950 . S
C1948 C1949 1.386 . S
C1948 C1950 1.391 . S
C1949 C1948 1.386 . S
C1949 C1953 1.393 . S
C1950 H1939 0.950 . S
C1950 C1948 1.391 . S
C1950 C1951 1.400 . S
C1951 C1945 1.491 . S
C1951 C1950 1.400 . S
C1951 C1952 1.398 . S
C1952 H1940 0.950 . S
C1952 C1951 1.398 . S
C1952 C1953 1.391 . S
C1953 H1941 0.950 . S
C1953 C1949 1.393 . S
C1953 C1952 1.391 . S
H1954 C1962 0.950 . S
H1955 C1967 0.950 . S
H1956 C1964 0.950 . S
H1957 C1966 0.950 . S
H1958 C1968 0.950 . S
H1959 C1970 0.950 . S
H1960 C1972 0.950 . S
H1961 C1973 0.950 . S
C1962 H1954 0.950 . S
C1962 C1963 1.386 . S
C1962 C1964 1.391 . S
C1963 C1962 1.386 . S
C1963 C1967 1.393 . S
C1964 H1956 0.950 . S
C1964 C1962 1.391 . S
C1964 C1965 1.400 . S
C1965 C1964 1.400 . S
C1965 C1966 1.398 . S
C1965 C1971 1.491 . S
C1966 H1957 0.950 . S
C1966 C1965 1.398 . S
C1966 C1967 1.391 . S
C1967 H1955 0.950 . S
C1967 C1963 1.393 . S
C1967 C1966 1.391 . S
C1968 H1958 0.950 . S
C1968 C1969 1.386 . S
C1968 C1970 1.391 . S
C1969 C1968 1.386 . S
C1969 C1973 1.393 . S
C1970 H1959 0.950 . S
C1970 C1968 1.391 . S
C1970 C1971 1.400 . S
C1971 C1965 1.491 . S
C1971 C1970 1.400 . S
C1971 C1972 1.398 . S
C1972 H1960 0.950 . S
C1972 C1971 1.398 . S
C1972 C1973 1.391 . S
C1973 H1961 0.950 . S
C1973 C1969 1.393 . S
C1973 C1972 1.391 . S
H1974 C1982 0.950 . S
H1975 C1987 0.950 . S
H1976 C1984 0.950 . S
H1977 C1986 0.950 . S
H1978 C1988 0.950 . S
H1979 C1990 0.950 . S
H1980 C1992 0.950 . S
H1981 C1993 0.950 . S
C1982 H1974 0.950 . S
C1982 C1983 1.386 . S
C1982 C1984 1.391 . S
C1983 C1982 1.386 . S
C1983 C1987 1.393 . S
C1984 H1976 0.950 . S
C1984 C1982 1.391 . S
C1984 C1985 1.400 . S
C1985 C1984 1.400 . S
C1985 C1986 1.398 . S
C1985 C1991 1.491 . S
C1986 H1977 0.950 . S
C1986 C1985 1.398 . S
C1986 C1987 1.391 . S
C1987 H1975 0.950 . S
C1987 C1983 1.393 . S
C1987 C1986 1.391 . S
C1988 H1978 0.950 . S
C1988 C1989 1.386 . S
C1988 C1990 1.391 . S
C1989 C1988 1.386 . S
C1989 C1993 1.393 . S
C1990 H1979 0.950 . S
C1990 C1988 1.391 . S
C1990 C1991 1.400 . S
C1991 C1985 1.491 . S
C1991 C1990 1.400 . S
C1991 C1992 1.398 . S
C1992 H1980 0.950 . S
C1992 C1991 1.398 . S
C1992 C1993 1.391 . S
C1993 H1981 0.950 . S
C1993 C1989 1.393 . S
C1993 C1992 1.391 . S
H1994 C2002 0.950 . S
H1995 C2007 0.950 . S
H1996 C2004 0.950 . S
H1997 C2006 0.950 . S
H1998 C2008 0.950 . S
H1999 C2010 0.950 . S
H2000 C2012 0.950 . S
H2001 C2013 0.950 . S
C2002 H1994 0.950 . S
C2002 C2003 1.386 . S
C2002 C2004 1.391 . S
C2003 C2002 1.386 . S
C2003 C2007 1.393 . S
C2004 H1996 0.950 . S
C2004 C2002 1.391 . S
C2004 C2005 1.400 . S
C2005 C2004 1.400 . S
C2005 C2006 1.398 . S
C2005 C2011 1.491 . S
C2006 H1997 0.950 . S
C2006 C2005 1.398 . S
C2006 C2007 1.391 . S
C2007 H1995 0.950 . S
C2007 C2003 1.393 . S
C2007 C2006 1.391 . S
C2008 H1998 0.950 . S
C2008 C2009 1.386 . S
C2008 C2010 1.391 . S
C2009 C2008 1.386 . S
C2009 C2013 1.393 . S
C2010 H1999 0.950 . S
C2010 C2008 1.391 . S
C2010 C2011 1.400 . S
C2011 C2005 1.491 . S
C2011 C2010 1.400 . S
C2011 C2012 1.398 . S
C2012 H2000 0.950 . S
C2012 C2011 1.398 . S
C2012 C2013 1.391 . S
C2013 H2001 0.950 . S
C2013 C2009 1.393 . S
C2013 C2012 1.391 . S
H2014 C2022 0.950 . S
H2015 C2027 0.950 . S
H2016 C2024 0.950 . S
H2017 C2026 0.950 . S
H2018 C2028 0.950 . S
H2019 C2030 0.950 . S
H2020 C2032 0.950 . S
H2021 C2033 0.950 . S
C2022 H2014 0.950 . S
C2022 C2023 1.386 . S
C2022 C2024 1.391 . S
C2023 C2022 1.386 . S
C2023 C2027 1.393 . S
C2024 H2016 0.950 . S
C2024 C2022 1.391 . S
C2024 C2025 1.400 . S
C2025 C2024 1.400 . S
C2025 C2026 1.398 . S
C2025 C2031 1.491 . S
C2026 H2017 0.950 . S
C2026 C2025 1.398 . S
C2026 C2027 1.391 . S
C2027 H2015 0.950 . S
C2027 C2023 1.393 . S
C2027 C2026 1.391 . S
C2028 H2018 0.950 . S
C2028 C2029 1.386 . S
C2028 C2030 1.391 . S
C2029 C2028 1.386 . S
C2029 C2033 1.393 . S
C2030 H2019 0.950 . S
C2030 C2028 1.391 . S
C2030 C2031 1.400 . S
C2031 C2025 1.491 . S
C2031 C2030 1.400 . S
C2031 C2032 1.398 . S
C2032 H2020 0.950 . S
C2032 C2031 1.398 . S
C2032 C2033 1.391 . S
C2033 H2021 0.950 . S
C2033 C2029 1.393 . S
C2033 C2032 1.391 . S
C963 C151 1.121 . S
C969 C265 1.105 . S
C983 C159 1.680 . S
C989 C349 1.780 . S
C1003 C137 1.296 . S
C1009 C429 1.445 . S
C1023 C126 1.270 . S
C1029 C345 1.413 1_556 S
C1049 C433 1.752 . S
C1043 C104 1.636 . S
C1063 C118 1.088 . S
C1069 C261 1.080 1_556 S
C1089 C254 1.340 . S
C1083 C129 1.415 . S
C1109 C338 1.541 . S
C1103 C107 1.622 . S
C1123 C115 1.261 . S
C1129 C440 1.448 . S
C1143 C148 1.219 . S
C1149 C356 1.401 . S
C1163 C162 1.575 . S
C1169 C422 1.486 . S
C1189 C272 1.358 . S
C1183 C140 1.375 . S
C1209 C517 1.086 . S
C1203 C19 1.130 . S
C1223 C27 1.698 . S
C1229 C601 1.778 . S
C1243 C5 1.323 . S
C1249 C681 1.435 . S
C1263 C192 1.290 . S
C1269 C597 1.407 . S
C1283 C170 1.666 . S
C1289 C685 1.736 . S
C1303 C184 1.079 . S
C1309 C513 1.074 . S
C1323 C195 1.404 . S
C1329 C506 1.369 . S
C1343 C173 1.621 . S
C1349 C590 1.550 . S
C1369 C692 1.432 . S
C1363 C181 1.239 . S
C1383 C16 1.229 . S
C1389 C608 1.409 . S
C1409 C674 1.506 . S
C1403 C30 1.571 . S
C1423 C8 1.373 . S
C1429 C524 1.344 . S
C1449 C769 1.081 . S
C1443 C85 1.131 . S
C1463 C93 1.704 . S
C1469 C853 1.782 . S
C1489 C933 1.452 . S
C1483 C71 1.285 . S
C1509 C849 1.411 . S
C1503 C60 1.275 . S
C1529 C937 1.742 . S
C1523 C38 1.632 . S
C1543 C52 1.092 . S
C1549 C765 1.092 . S
C1563 C63 1.404 . S
C1569 C758 1.358 . S
C1583 C41 1.622 . S
C1589 C842 1.539 . S
C1609 C944 1.436 . S
C1603 C49 1.236 . S
C1623 C82 1.239 . S
C1629 C860 1.413 . S
C1643 C96 1.570 . S
C1649 C926 1.512 . S
C1663 C74 1.378 . S
C1669 C776 1.339 . S
C1683 C172 1.610 . S
C1689 C268 1.481 . S
C1709 C352 1.239 . S
C1703 C183 1.309 . S
C1723 C194 1.475 . S
C1729 C424 1.320 . S
C1743 C73 1.505 . S
C1749 C340 1.352 . S
C1763 C84 1.275 . S
C1769 C436 1.214 . S
C1789 C256 1.491 . S
C1783 C95 1.583 . S
C1803 C40 1.601 . S
C1809 C520 1.474 . S
C1823 C51 1.314 . S
C1829 C604 1.206 . S
C1843 C62 1.477 . S
C1849 C676 1.336 . S
C1863 C139 1.506 . S
C1869 C592 1.347 . S
C1889 C688 1.214 . S
C1883 C150 1.277 . S
C1903 C161 1.599 . S
C1909 C508 1.456 . S
C1923 C106 1.603 . S
C1929 C772 1.473 . S
C1943 C117 1.287 . S
C1949 C856 1.207 . S
C1969 C928 1.349 . S
C1963 C128 1.460 . S
C1983 C7 1.496 . S
C1989 C844 1.371 . S
C2003 C18 1.281 . S
C2009 C940 1.173 . S
C2023 C29 1.586 . S
C2029 C760 1.467 . S
