# Generated by pormake.
# Topology pth, (4,4)-cn, num edge types: 1
# Building blocks:
#     Node 0, Type 0, BuildingBlock: GALJAG_clean_sbu_0, # of connection points: 4
#     Node 1, Type 0, BuildingBlock: GALJAG_clean_sbu_0, # of connection points: 4
#     Node 2, Type 0, BuildingBlock: GALJAG_clean_sbu_0, # of connection points: 4
#     Node 3, Type 1, BuildingBlock: KOZSID_clean_sbu_0, # of connection points: 4
#     Node 4, Type 1, BuildingBlock: KOZSID_clean_sbu_0, # of connection points: 4
#     Node 5, Type 1, BuildingBlock: KOZSID_clean_sbu_0, # of connection points: 4
#     Edge 6, Type (0, 1), BuildingBlock: CIFDUS_clean_linker_0, # of connection points: 2
#     Edge 7, Type (0, 1), BuildingBlock: CIFDUS_clean_linker_0, # of connection points: 2
#     Edge 8, Type (0, 1), BuildingBlock: CIFDUS_clean_linker_0, # of connection points: 2
#     Edge 9, Type (0, 1), BuildingBlock: CIFDUS_clean_linker_0, # of connection points: 2
#     Edge 10, Type (0, 1), BuildingBlock: CIFDUS_clean_linker_0, # of connection points: 2
#     Edge 11, Type (0, 1), BuildingBlock: CIFDUS_clean_linker_0, # of connection points: 2
#     Edge 12, Type (0, 1), BuildingBlock: CIFDUS_clean_linker_0, # of connection points: 2
#     Edge 13, Type (0, 1), BuildingBlock: CIFDUS_clean_linker_0, # of connection points: 2
#     Edge 14, Type (0, 1), BuildingBlock: CIFDUS_clean_linker_0, # of connection points: 2
#     Edge 15, Type (0, 1), BuildingBlock: CIFDUS_clean_linker_0, # of connection points: 2
#     Edge 16, Type (0, 1), BuildingBlock: CIFDUS_clean_linker_0, # of connection points: 2
#     Edge 17, Type (0, 1), BuildingBlock: CIFDUS_clean_linker_0, # of connection points: 2
# Relax obj value: 0.002
# Max RMSD: 0.045
# Mean RMSD: 0.026
data_MOF--net-pth--node1-GALJAG_clean_sbu_0--node2-KOZSID_clean_sbu_0--edge1-CIFDUS_clean_linker_0
_symmetry_space_group_name_H-M    P1
_symmetry_Int_Tables_number       1
_symmetry_cell_setting            triclinic
loop_
_symmetry_equiv_pos_as_xyz
'x, y, z'
_cell_length_a     24.005394
_cell_length_b     24.008592
_cell_length_c     52.176574
_cell_angle_alpha  87.227693
_cell_angle_beta   87.247382
_cell_angle_gamma 120.04438
loop_
_atom_site_label
_atom_site_type_symbol
_atom_site_fract_x
_atom_site_fract_y
_atom_site_fract_z
_atom_type_partial_charge
In0 In 0.06906 0.04826 0.04081 0.0
O1 O 0.02386 0.1087 0.05396 0.0
O2 O 0.09731 0.10797 0.07497 0.0
C3 C 0.98438 0.97031 0.00814 0.0
C4 C 0.17667 0.14306 0.01338 0.0
C5 C 0.06276 0.9539 0.07343 0.0
O6 O 0.96787 0.99532 0.02558 0.0
O7 O 0.04318 0.98628 0.00689 0.0
O8 O 0.10301 0.97815 0.05387 0.0
O9 O 0.02616 0.97708 0.07638 0.0
C10 C 0.0593 0.12938 0.07248 0.0
O11 O 0.17874 0.10746 0.03149 0.0
O12 O 0.1204 0.1291 0.0084 0.0
In13 In 0.04768 0.07025 0.37382 0.0
O14 O 0.09441 0.18029 0.36619 0.0
O15 O 0.04363 0.12275 0.33665 0.0
C16 C 0.13104 0.06588 0.40591 0.0
C17 C 0.94232 0.05384 0.4025 0.0
C18 C 0.0399 0.97711 0.34431 0.0
O19 O 0.14877 0.10961 0.38775 0.0
O20 O 0.07126 0.02523 0.4081 0.0
O21 O 0.99125 0.97246 0.35688 0.0
O22 O 0.09207 0.0289 0.34632 0.0
C23 C 0.07464 0.17862 0.34414 0.0
O24 O 0.99887 0.08606 0.40932 0.0
O25 O 0.93861 0.02831 0.3816 0.0
In26 In 0.06986 0.05132 0.70848 0.0
O27 O 1.00113 0.94273 0.7173 0.0
O28 O 0.99502 0.00525 0.74327 0.0
C29 C 0.16055 0.04043 0.67954 0.0
C30 C 0.99128 0.07427 0.67968 0.0
C31 C 0.15206 0.13742 0.73955 0.0
O32 O 0.13124 0.00499 0.69991 0.0
O33 O 0.14288 0.08028 0.67326 0.0
O34 O 0.13643 0.15521 0.71926 0.0
O35 O 0.12501 0.07708 0.74424 0.0
C36 C 0.97339 0.94799 0.73746 0.0
O37 O 0.01927 0.10807 0.69785 0.0
O38 O 0.00477 0.03084 0.67561 0.0
C39 C 0.1257 0.67059 0.16258 0.0
C40 C 0.18534 0.71615 0.15028 0.0
C41 C 0.23073 0.70765 0.16169 0.0
C42 C 0.19664 0.65792 0.18031 0.0
N43 N 0.13209 0.63401 0.18157 0.0
Co44 Co 0.06529 0.56235 0.20644 0.0
N45 N 0.13282 0.55223 0.22387 0.0
C46 C 0.19752 0.59047 0.21939 0.0
C47 C 0.23185 0.57081 0.23372 0.0
C48 C 0.18643 0.51631 0.24805 0.0
C49 C 0.12661 0.50593 0.24169 0.0
N50 N 0.99846 0.48817 0.23034 0.0
C51 C 0.00474 0.4467 0.24691 0.0
C52 C 0.94542 0.39933 0.25873 0.0
C53 C 0.89985 0.41018 0.24876 0.0
C54 C 0.93381 0.46336 0.23155 0.0
N55 N 0.99795 0.57426 0.18979 0.0
C56 C 0.93379 0.54191 0.19681 0.0
C57 C 0.89953 0.56139 0.18233 0.0
C58 C 0.94455 0.60975 0.16526 0.0
C59 C 1.00408 0.61732 0.17042 0.0
N60 N 0.05796 0.49928 0.18168 0.0
C61 C 0.04635 0.4051 0.1486 0.0
C62 C 0.99227 0.40829 0.1575 0.0
C63 C 0.99907 0.45527 0.17391 0.0
C64 C 0.10657 0.45086 0.15614 0.0
C65 C 0.1113 0.4973 0.17246 0.0
N66 N 0.07225 0.62593 0.23131 0.0
C67 C 0.02237 0.66128 0.26322 0.0
C68 C 0.07889 0.72128 0.26318 0.0
C69 C 0.1326 0.73156 0.24742 0.0
C70 C 0.12856 0.68354 0.23217 0.0
C71 C 0.02 0.61512 0.24723 0.0
H72 H 0.1717 0.69491 0.22099 0.0
H73 H 0.97493 0.57135 0.24806 0.0
H74 H 0.95586 0.45452 0.18037 0.0
H75 H 0.1585 0.53084 0.17757 0.0
C76 C 0.22425 0.63749 0.19872 0.0
C77 C 0.06492 0.66635 0.15648 0.0
C78 C 0.06544 0.44927 0.25164 0.0
C79 C 0.90668 0.49088 0.21601 0.0
H80 H 0.1956 0.75318 0.13515 0.0
H81 H 0.2826 0.73602 0.15756 0.0
H82 H 0.28371 0.59141 0.23274 0.0
H83 H 0.19662 0.48642 0.26088 0.0
H84 H 0.93605 0.36041 0.27282 0.0
H85 H 0.84806 0.38198 0.25319 0.0
H86 H 0.84787 0.54222 0.18382 0.0
H87 H 0.93457 0.63637 0.15065 0.0
H88 H 0.94452 0.37365 0.15238 0.0
H89 H 0.15008 0.45106 0.14942 0.0
H90 H 0.97969 0.64944 0.27555 0.0
H91 H 0.17769 0.77703 0.24629 0.0
C92 C 0.44298 0.00495 0.57959 0.0
C93 C 0.39062 0.94495 0.58836 0.0
C94 C 0.39864 0.89999 0.57637 0.0
C95 C 0.45471 0.93473 0.56081 0.0
N96 N 0.4839 0.99928 0.56243 0.0
Co97 Co 0.56257 0.06773 0.54087 0.0
N98 N 0.56982 1.00159 0.52105 0.0
C99 C 0.53044 0.93677 0.52434 0.0
C100 C 0.55009 0.90325 0.50953 0.0
C101 C 0.60609 0.9492 0.49625 0.0
C102 C 0.61717 0.00857 0.50359 0.0
N103 N 0.64058 0.13618 0.51913 0.0
C104 C 0.68009 0.13053 0.50129 0.0
C105 C 0.72938 0.1905 0.49082 0.0
C106 C 0.72199 0.23563 0.50305 0.0
C107 C 0.66855 0.20086 0.52008 0.0
N108 N 0.55588 0.13376 0.56086 0.0
C109 C 0.59675 0.19839 0.55835 0.0
C110 C 0.57927 0.2314 0.5745 0.0
C111 C 0.52323 0.18529 0.58781 0.0
C112 C 0.50941 0.1266 0.57879 0.0
N113 N 0.62013 0.06229 0.56591 0.0
C114 C 0.7113 0.05435 0.59595 0.0
C115 C 0.71961 0.11406 0.58702 0.0
C116 C 0.67374 0.11688 0.57233 0.0
C117 C 0.65475 0.99876 0.59064 0.0
C118 C 0.61015 0.00379 0.57582 0.0
N119 N 0.50536 0.07345 0.51574 0.0
C120 C 0.47137 0.13738 0.4909 0.0
C121 C 0.41961 0.082 0.48261 0.0
C122 C 0.4122 0.02221 0.49089 0.0
C123 C 0.45541 0.01908 0.50719 0.0
C124 C 0.51318 0.13206 0.50725 0.0
H125 H 0.44711 0.97211 0.51278 0.0
H126 H 0.55093 0.17615 0.51305 0.0
H127 H 0.68374 0.16388 0.56581 0.0
H128 H 0.56863 0.95959 0.5722 0.0
C129 C 0.47817 0.90853 0.54294 0.0
C130 C 0.4498 0.06607 0.58684 0.0
C131 C 0.67518 0.06984 0.49473 0.0
C132 C 0.64729 0.22713 0.53889 0.0
H133 H 0.34948 0.93433 0.60136 0.0
H134 H 0.36595 0.84828 0.57795 0.0
H135 H 0.5278 0.8514 0.50923 0.0
H136 H 0.63618 0.93948 0.48333 0.0
H137 H 0.76787 0.2005 0.4764 0.0
H138 H 0.75332 0.28753 0.50055 0.0
H139 H 0.60304 0.28309 0.57574 0.0
H140 H 0.49467 0.19406 0.60197 0.0
H141 H 0.76247 0.15868 0.59053 0.0
H142 H 0.64501 0.95129 0.59768 0.0
H143 H 0.47897 0.18487 0.48528 0.0
H144 H 0.37347 0.97787 0.48469 0.0
C145 C 0.68336 0.62052 0.84012 0.0
C146 C 0.73163 0.60917 0.83075 0.0
C147 C 0.71379 0.54749 0.83964 0.0
C148 C 0.65636 0.52494 0.85415 0.0
N149 N 0.63679 0.56849 0.85501 0.0
Co150 Co 0.55897 0.55737 0.87533 0.0
N151 N 0.54932 0.4815 0.8969 0.0
C152 C 0.57964 0.44841 0.89157 0.0
C153 C 0.56193 0.39638 0.9088 0.0
C154 C 0.51641 0.39534 0.92583 0.0
C155 C 0.50878 0.44724 0.91806 0.0
N156 N 0.48106 0.54658 0.89553 0.0
C157 C 0.44805 0.5086 0.91734 0.0
C158 C 0.39708 0.51754 0.9251 0.0
C159 C 0.39626 0.56003 0.90691 0.0
C160 C 0.44709 0.5754 0.88928 0.0
N161 N 0.56875 0.63275 0.85369 0.0
C162 C 0.52329 0.64931 0.85109 0.0
C163 C 0.54412 0.70382 0.83476 0.0
C164 C 0.60666 0.72281 0.82657 0.0
C165 C 0.62052 0.67879 0.83854 0.0
N166 N 0.50338 0.49927 0.85062 0.0
C167 C 0.41972 0.4182 0.81578 0.0
C168 C 0.47753 0.47467 0.80693 0.0
C169 C 0.51869 0.51438 0.82464 0.0
C170 C 0.40524 0.40336 0.8424 0.0
C171 C 0.44749 0.444 0.85931 0.0
N172 N 0.61442 0.61608 0.89986 0.0
C173 C 0.64561 0.70964 0.92359 0.0
C174 C 0.69806 0.70606 0.93237 0.0
C175 C 0.7071 0.65565 0.92475 0.0
C176 C 0.66468 0.61113 0.90864 0.0
C177 C 0.60468 0.66451 0.90744 0.0
H178 H 0.67313 0.57322 0.90303 0.0
H179 H 0.56577 0.66977 0.90073 0.0
H180 H 0.56267 0.55756 0.81729 0.0
H181 H 0.43401 0.4306 0.87946 0.0
C182 C 0.62712 0.4696 0.87115 0.0
C183 C 0.68191 0.68009 0.834 0.0
C184 C 0.45535 0.45531 0.92848 0.0
C185 C 0.46735 0.62046 0.8679 0.0
H186 H 0.77574 0.64201 0.8191 0.0
H187 H 0.74142 0.52347 0.8371 0.0
H188 H 0.57953 0.36275 0.90883 0.0
H189 H 0.49009 0.3585 0.94145 0.0
H190 H 0.36208 0.49318 0.94152 0.0
H191 H 0.36255 0.57749 0.90657 0.0
H192 H 0.51809 0.7286 0.83028 0.0
H193 H 0.63847 0.76437 0.8134 0.0
H194 H 0.49121 0.4879 0.78652 0.0
H195 H 0.36076 0.36105 0.8503 0.0
H196 H 0.63697 0.74806 0.92863 0.0
H197 H 0.74648 0.65036 0.93128 0.0
H198 H 0.99293 0.19485 0.06924 0.0
H199 H 0.12742 0.17159 0.11418 0.0
H200 H 0.13501 0.25401 0.14147 0.0
H201 H 0.10537 0.33408 0.15242 0.0
H202 H 0.97196 0.35974 0.10785 0.0
H203 H 0.9616 0.27494 0.08087 0.0
C204 C 0.0235 0.20761 0.08511 0.0
C205 C 0.05957 0.17705 0.08959 0.0
C206 C 0.02803 0.25568 0.10082 0.0
C207 C 0.09914 0.19428 0.11022 0.0
C208 C 0.10366 0.24158 0.12587 0.0
C209 C 0.07446 0.32159 0.13666 0.0
C210 C 0.03988 0.35358 0.13209 0.0
C211 C 0.06881 0.27297 0.12124 0.0
C212 C 0.9989 0.33566 0.11191 0.0
C213 C 0.99312 0.28731 0.0964 0.0
H214 H 0.93652 0.09308 0.45014 0.0
H215 H 0.82074 0.00578 0.38719 0.0
H216 H 0.72843 0.00446 0.40976 0.0
H217 H 0.681 0.03032 0.4471 0.0
H218 H 0.79464 0.11213 0.51097 0.0
H219 H 0.88774 0.11458 0.48825 0.0
C220 C 0.89098 0.0735 0.44143 0.0
C221 C 0.88556 0.04966 0.417 0.0
C222 C 0.8379 0.07244 0.45461 0.0
C223 C 0.82617 0.02426 0.406 0.0
C224 C 0.7734 0.02371 0.41885 0.0
C225 C 0.72611 0.04813 0.45603 0.0
C226 C 0.73117 0.07066 0.48066 0.0
C227 C 0.77878 0.04797 0.44309 0.0
C228 C 0.7899 0.09448 0.49201 0.0
C229 C 0.84292 0.09569 0.47907 0.0
H230 H 0.91998 0.94421 0.78527 0.0
H231 H 0.90318 0.82545 0.72329 0.0
H232 H 0.81025 0.73292 0.74718 0.0
H233 H 0.73281 0.68575 0.78554 0.0
H234 H 0.75307 0.80166 0.84873 0.0
H235 H 0.84458 0.89578 0.82439 0.0
C236 C 0.89602 0.89801 0.77704 0.0
C237 C 0.91843 0.89174 0.75252 0.0
C238 C 0.84303 0.84467 0.79106 0.0
C239 C 0.88705 0.83152 0.74215 0.0
C240 C 0.83376 0.77861 0.75576 0.0
C241 C 0.75802 0.73147 0.79406 0.0
C242 C 0.73747 0.73677 0.81904 0.0
C243 C 0.81134 0.78461 0.78021 0.0
C244 C 0.76889 0.79657 0.82963 0.0
C245 C 0.8211 0.85018 0.81574 0.0
H246 H 0.09697 0.864 0.06414 0.0
H247 H 0.01894 0.9297 0.1239 0.0
H248 H 0.01284 0.84681 0.15492 0.0
H249 H 0.03126 0.75639 0.16527 0.0
H250 H 0.10038 0.68441 0.10495 0.0
H251 H 0.10853 0.76871 0.07389 0.0
C252 C 0.07879 0.86009 0.08397 0.0
C253 C 0.05897 0.90312 0.09182 0.0
C254 C 0.07378 0.81114 0.10156 0.0
C255 C 0.03453 0.89707 0.11744 0.0
C256 C 0.03107 0.84975 0.13519 0.0
C257 C 0.04751 0.75903 0.14525 0.0
C258 C 0.06577 0.71495 0.13733 0.0
C259 C 0.05062 0.80658 0.12748 0.0
C260 C 0.08658 0.71837 0.11139 0.0
C261 C 0.09125 0.76648 0.0937 0.0
H262 H 0.26195 0.14278 0.40301 0.0
H263 H 0.10267 0.97779 0.44663 0.0
H264 H 0.17753 0.96764 0.47392 0.0
H265 H 0.28831 0.00576 0.48558 0.0
H266 H 0.44774 0.16978 0.44154 0.0
H267 H 0.37286 0.18036 0.41446 0.0
C268 C 0.24362 0.10472 0.41854 0.0
C269 C 0.17677 0.0612 0.42278 0.0
C270 C 0.28701 0.09895 0.43413 0.0
C271 C 0.15386 0.01202 0.44294 0.0
C272 C 0.19667 0.0061 0.45856 0.0
C273 C 0.30676 0.0434 0.46988 0.0
C274 C 0.37369 0.08691 0.46567 0.0
C275 C 0.26337 0.04917 0.4543 0.0
C276 C 0.3965 0.13606 0.44547 0.0
C277 C 0.3537 0.14201 0.42987 0.0
H278 H 0.22363 0.26958 0.73267 0.0
H279 H 0.18917 0.10655 0.78373 0.0
H280 H 0.27032 0.1785 0.81091 0.0
H281 H 0.35126 0.28694 0.8203 0.0
H282 H 0.38511 0.45166 0.77058 0.0
H283 H 0.30546 0.37985 0.74248 0.0
C284 C 0.23378 0.24995 0.7498 0.0
C285 C 0.20014 0.18272 0.75617 0.0
C286 C 0.28093 0.29181 0.76547 0.0
C287 C 0.21411 0.15802 0.77837 0.0
C288 C 0.26069 0.19914 0.79394 0.0
C289 C 0.34092 0.30739 0.80345 0.0
C290 C 0.37403 0.37478 0.79772 0.0
C291 C 0.29437 0.26601 0.78769 0.0
C292 C 0.36095 0.40001 0.77539 0.0
C293 C 0.31494 0.35896 0.75941 0.0
H294 H 0.91891 0.99973 0.64329 0.0
H295 H 0.95497 0.16503 0.68418 0.0
H296 H 0.87152 0.17348 0.66205 0.0
H297 H 0.78637 0.13208 0.63182 0.0
H298 H 0.75183 0.96716 0.5908 0.0
H299 H 0.83568 0.95978 0.61262 0.0
C300 C 0.90884 0.03789 0.64727 0.0
C301 C 0.94329 0.0818 0.66532 0.0
C302 C 0.86045 0.04207 0.63466 0.0
C303 C 0.9293 0.1307 0.67033 0.0
C304 C 0.88145 0.13544 0.65773 0.0
C305 C 0.79748 0.09482 0.62748 0.0
C306 C 0.76223 0.04999 0.60975 0.0
C307 C 0.84643 0.09115 0.63995 0.0
C308 C 0.77703 1.00158 0.60468 0.0
C309 C 0.82548 0.99762 0.617 0.0
H310 H 0.85273 0.91483 0.01055 0.0
H311 H 0.01348 0.91934 0.96776 0.0
H312 H 0.93976 0.83811 0.94091 0.0
H313 H 0.8296 0.76491 0.92955 0.0
H314 H 0.66816 0.75844 0.97258 0.0
H315 H 0.74187 0.84113 0.99908 0.0
C316 C 0.87158 0.8983 0.99524 0.0
C317 C 0.93864 0.92337 0.99119 0.0
C318 C 0.8287 0.85093 0.97988 0.0
C319 C 0.96217 0.90105 0.97134 0.0
C320 C 0.91999 0.85439 0.95596 0.0
C321 C 0.81043 0.78106 0.9449 0.0
C322 C 0.74327 0.75524 0.949 0.0
C323 C 0.85314 0.82866 0.96014 0.0
C324 C 0.71958 0.77779 0.96874 0.0
C325 C 0.76175 0.825 0.98401 0.0
H326 H 0.13752 0.95619 0.32987 0.0
H327 H 0.93406 0.88203 0.3243 0.0
H328 H 0.92826 0.79724 0.29837 0.0
H329 H 0.98145 0.74558 0.27677 0.0
H330 H 0.18293 0.81363 0.28617 0.0
H331 H 0.18912 0.9 0.31058 0.0
C332 C 0.09197 0.92152 0.32291 0.0
C333 C 0.03641 0.92563 0.32879 0.0
C334 C 0.08868 0.87201 0.30854 0.0
C335 C 0.97751 0.87987 0.31998 0.0
C336 C 0.97421 0.83145 0.30514 0.0
C337 C 0.0266 0.77836 0.28447 0.0
C338 C 0.08174 0.77271 0.2792 0.0
C339 C 0.02951 0.82702 0.29931 0.0
C340 C 0.13989 0.8171 0.28915 0.0
C341 C 0.14346 0.86645 0.3034 0.0
H342 H 0.21666 0.09569 0.63144 0.0
H343 H 0.22446 0.97983 0.69545 0.0
H344 H 0.31594 0.9795 0.67298 0.0
H345 H 0.39517 0.01354 0.63532 0.0
H346 H 0.38289 0.12257 0.57005 0.0
H347 H 0.29279 0.12545 0.59289 0.0
C348 C 0.23829 0.0702 0.6404 0.0
C349 C 0.21384 0.03792 0.6651 0.0
C350 C 0.29045 0.06947 0.6272 0.0
C351 C 0.24218 0.00485 0.67642 0.0
C352 C 0.29468 0.00485 0.66363 0.0
C353 C 0.37221 0.03736 0.6261 0.0
C354 C 0.39505 0.06739 0.60104 0.0
C355 C 0.31936 0.03713 0.63906 0.0
C356 C 0.3658 0.09902 0.58934 0.0
C357 C 0.31428 0.10048 0.60236 0.0
H358 H 0.18815 0.20612 0.96706 0.0
H359 H 0.29636 0.20805 0.03094 0.0
H360 H 0.391 0.30702 0.01131 0.0
H361 H 0.44276 0.39454 0.97605 0.0
H362 H 0.33712 0.38527 0.91032 0.0
H363 H 0.24169 0.289 0.93073 0.0
C364 C 0.23259 0.22807 0.97659 0.0
C365 C 0.23523 0.19992 1.00042 0.0
C366 C 0.28713 0.2843 0.96498 0.0
C367 C 0.29323 0.22861 0.01249 0.0
C368 C 0.34726 0.28544 1.00135 0.0
C369 C 0.39877 0.37121 0.96626 0.0
C370 C 0.39689 0.39745 0.94185 0.0
C371 C 0.34471 0.31398 0.97765 0.0
C372 C 0.33966 0.36661 0.92928 0.0
C373 C 0.28514 0.31125 0.94085 0.0
H374 H 0.03676 0.18573 0.29634 0.0
H375 H 0.12858 0.30147 0.35876 0.0
H376 H 0.13339 0.39525 0.33586 0.0
H377 H 0.10814 0.44371 0.29861 0.0
H378 H 0.01938 0.3291 0.23575 0.0
H379 H 0.01568 0.23525 0.25838 0.0
C380 C 0.0583 0.23162 0.30484 0.0
C381 C 0.08226 0.23655 0.32924 0.0
C382 C 0.06084 0.28537 0.29157 0.0
C383 C 0.10994 0.29636 0.33998 0.0
C384 C 0.11248 0.34998 0.32695 0.0
C385 C 0.08858 0.39821 0.28987 0.0
C386 C 0.06445 0.39306 0.26556 0.0
C387 C 0.08758 0.34493 0.30284 0.0
C388 C 0.03835 0.33389 0.25445 0.0
C389 C 0.03639 0.28043 0.26735 0.0
loop_
_geom_bond_atom_site_label_1
_geom_bond_atom_site_label_2
_geom_bond_distance
_geom_bond_site_symmetry_2
_ccdc_geom_bond_type
In0 O1 2.294 . S
In0 O2 2.326 . S
In0 O6 2.266 1_445 S
In0 O7 2.326 1_545 S
In0 O8 2.266 1_545 S
In0 O9 2.326 1_545 S
In0 O11 2.294 . S
In0 O12 2.326 . S
O1 In0 2.294 . S
O1 C10 1.240 . S
O2 In0 2.326 . S
O2 C10 1.252 . S
C3 O6 1.252 . S
C3 O7 1.260 1_655 S
C4 O11 1.240 . S
C4 O12 1.252 . S
C5 O8 1.252 . S
C5 O9 1.260 . S
O6 In0 2.266 1_665 S
O6 C3 1.252 . S
O7 In0 2.326 1_565 S
O7 C3 1.260 1_455 S
O8 In0 2.266 1_565 S
O8 C5 1.252 . S
O9 In0 2.326 1_565 S
O9 C5 1.260 . S
C10 O1 1.240 . S
C10 O2 1.252 . S
O11 In0 2.294 . S
O11 C4 1.240 . S
O12 In0 2.326 . S
O12 C4 1.252 . S
In13 O14 2.294 . S
In13 O15 2.326 1_455 S
In13 O19 2.266 . S
In13 O20 2.326 . S
In13 O21 2.266 1_445 S
In13 O22 2.326 . S
In13 O24 2.294 1_455 S
In13 O25 2.332 . S
O14 In13 2.294 . S
O14 C23 1.240 . S
O15 In13 2.326 1_655 S
O15 C23 1.252 1_655 S
C16 O19 1.252 . S
C16 O20 1.260 . S
C17 O24 1.240 . S
C17 O25 1.246 1_655 S
C18 O21 1.252 1_455 S
C18 O22 1.260 1_565 S
O19 In13 2.266 . S
O19 C16 1.252 . S
O20 In13 2.326 . S
O20 C16 1.260 . S
O21 In13 2.266 1_665 S
O21 C18 1.252 1_655 S
O22 In13 2.326 . S
O22 C18 1.260 1_545 S
C23 O14 1.240 . S
C23 O15 1.252 1_455 S
O24 In13 2.294 1_655 S
O24 C17 1.240 . S
O25 In13 2.332 . S
O25 C17 1.246 1_455 S
In26 O27 2.294 1_545 S
In26 O28 2.326 1_455 S
In26 O32 2.266 . S
In26 O33 2.326 . S
In26 O34 2.266 . S
In26 O35 2.326 . S
In26 O37 2.294 . S
In26 O38 2.326 1_445 S
O27 In26 2.294 1_565 S
O27 C36 1.240 1_455 S
O28 In26 2.326 1_655 S
O28 C36 1.252 1_545 S
C29 O32 1.252 . S
C29 O33 1.260 . S
C30 O37 1.240 1_655 S
C30 O38 1.252 1_545 S
C31 O34 1.252 . S
C31 O35 1.260 . S
O32 In26 2.266 . S
O32 C29 1.252 . S
O33 In26 2.326 . S
O33 C29 1.260 . S
O34 In26 2.266 . S
O34 C31 1.252 . S
O35 In26 2.326 . S
O35 C31 1.260 . S
C36 O27 1.240 1_655 S
C36 O28 1.252 1_565 S
O37 In26 2.294 . S
O37 C30 1.240 1_455 S
O38 In26 2.326 1_665 S
O38 C30 1.252 1_565 S
C39 C40 1.443 . S
C39 N43 1.376 . S
C39 C77 1.389 . S
C40 C39 1.443 . S
C40 C41 1.340 . S
C40 H80 0.951 . S
C41 C40 1.340 . S
C41 C42 1.439 . S
C41 H81 0.950 . S
C42 C41 1.439 . S
C42 N43 1.374 . S
C42 C76 1.395 . S
N43 C39 1.376 . S
N43 C42 1.374 . S
N43 Co44 2.008 . S
Co44 N43 2.008 . S
Co44 N45 1.995 . S
Co44 N50 2.008 1_455 S
Co44 N55 1.995 1_455 S
Co44 N60 2.282 . S
Co44 N66 2.282 . S
N45 Co44 1.995 . S
N45 C46 1.376 . S
N45 C49 1.383 . S
C46 N45 1.376 . S
C46 C47 1.446 . S
C46 C76 1.391 . S
C47 C46 1.446 . S
C47 C48 1.339 . S
C47 H82 0.949 . S
C48 C47 1.339 . S
C48 C49 1.439 . S
C48 H83 0.950 . S
C49 N45 1.383 . S
C49 C48 1.439 . S
C49 C78 1.392 . S
N50 Co44 2.008 1_655 S
N50 C51 1.376 . S
N50 C54 1.374 . S
C51 N50 1.376 . S
C51 C52 1.443 . S
C51 C78 1.389 1_655 S
C52 C51 1.443 . S
C52 C53 1.340 . S
C52 H84 0.951 . S
C53 C52 1.340 . S
C53 C54 1.439 . S
C53 H85 0.950 . S
C54 N50 1.374 . S
C54 C53 1.439 . S
C54 C79 1.395 . S
N55 Co44 1.995 1_655 S
N55 C56 1.376 . S
N55 C59 1.383 . S
C56 N55 1.376 . S
C56 C57 1.446 . S
C56 C79 1.391 . S
C57 C56 1.446 . S
C57 C58 1.339 . S
C57 H86 0.949 . S
C58 C57 1.339 . S
C58 C59 1.439 . S
C58 H87 0.950 . S
C59 N55 1.383 . S
C59 C58 1.439 . S
C59 C77 1.392 1_655 S
N60 Co44 2.282 . S
N60 C63 1.332 . S
N60 C65 1.332 . S
C61 C62 1.406 . S
C61 C64 1.388 . S
C62 C61 1.406 . S
C62 C63 1.374 . S
C62 H88 0.937 1_455 S
C63 N60 1.332 . S
C63 C62 1.374 . S
C63 H74 0.952 1_455 S
C64 C61 1.388 . S
C64 C65 1.382 . S
C64 H89 0.950 . S
C65 N60 1.332 . S
C65 C64 1.382 . S
C65 H75 0.948 . S
N66 Co44 2.282 . S
N66 C70 1.332 . S
N66 C71 1.332 1_455 S
C67 C68 1.388 1_655 S
C67 C71 1.382 . S
C67 H90 0.950 . S
C68 C67 1.388 1_455 S
C68 C69 1.386 . S
C69 C68 1.386 . S
C69 C70 1.382 . S
C69 H91 0.950 . S
C70 N66 1.332 . S
C70 C69 1.382 . S
C70 H72 0.952 . S
C71 N66 1.332 1_655 S
C71 C67 1.382 . S
C71 H73 0.948 . S
H72 C70 0.952 . S
H73 C71 0.948 . S
H74 C63 0.952 1_655 S
H75 C65 0.948 . S
C76 C42 1.395 . S
C76 C46 1.391 . S
C77 C39 1.389 . S
C77 C59 1.392 1_455 S
C78 C49 1.392 . S
C78 C51 1.389 1_455 S
C79 C54 1.395 . S
C79 C56 1.391 . S
H80 C40 0.951 . S
H81 C41 0.950 . S
H82 C47 0.949 . S
H83 C48 0.950 . S
H84 C52 0.951 . S
H85 C53 0.950 . S
H86 C57 0.949 . S
H87 C58 0.950 . S
H88 C62 0.937 1_655 S
H89 C64 0.950 . S
H90 C67 0.950 . S
H91 C69 0.950 . S
C92 C93 1.443 1_545 S
C92 N96 1.376 1_545 S
C92 C130 1.389 . S
C93 C92 1.443 1_565 S
C93 C94 1.340 . S
C93 H133 0.951 . S
C94 C93 1.340 . S
C94 C95 1.439 . S
C94 H134 0.950 . S
C95 C94 1.439 . S
C95 N96 1.374 . S
C95 C129 1.395 . S
N96 C92 1.376 1_565 S
N96 C95 1.374 . S
N96 Co97 2.008 1_565 S
Co97 N96 2.008 1_545 S
Co97 N98 1.995 . S
Co97 N103 2.008 . S
Co97 N108 1.995 . S
Co97 N113 2.282 . S
Co97 N119 2.282 . S
N98 Co97 1.995 . S
N98 C99 1.376 1_545 S
N98 C102 1.383 . S
C99 N98 1.376 1_565 S
C99 C100 1.446 . S
C99 C129 1.391 . S
C100 C99 1.446 . S
C100 C101 1.339 . S
C100 H135 0.949 . S
C101 C100 1.339 . S
C101 C102 1.439 1_565 S
C101 H136 0.950 . S
C102 N98 1.383 . S
C102 C101 1.439 1_545 S
C102 C131 1.392 . S
N103 Co97 2.008 . S
N103 C104 1.376 . S
N103 C107 1.374 . S
C104 N103 1.376 . S
C104 C105 1.443 . S
C104 C131 1.389 . S
C105 C104 1.443 . S
C105 C106 1.340 . S
C105 H137 0.951 . S
C106 C105 1.340 . S
C106 C107 1.439 . S
C106 H138 0.950 . S
C107 N103 1.374 . S
C107 C106 1.439 . S
C107 C132 1.395 . S
N108 Co97 1.995 . S
N108 C109 1.376 . S
N108 C112 1.383 . S
C109 N108 1.376 . S
C109 C110 1.446 . S
C109 C132 1.391 . S
C110 C109 1.446 . S
C110 C111 1.339 . S
C110 H139 0.949 . S
C111 C110 1.339 . S
C111 C112 1.439 . S
C111 H140 0.950 . S
C112 N108 1.383 . S
C112 C111 1.439 . S
C112 C130 1.392 . S
N113 Co97 2.282 . S
N113 C116 1.332 . S
N113 C118 1.332 . S
C114 C115 1.386 . S
C114 C117 1.388 . S
C115 C114 1.386 . S
C115 C116 1.382 . S
C115 H141 0.950 . S
C116 N113 1.332 . S
C116 C115 1.382 . S
C116 H127 0.952 . S
C117 C114 1.388 . S
C117 C118 1.382 . S
C117 H142 0.950 1_545 S
C118 N113 1.332 . S
C118 C117 1.382 . S
C118 H128 0.948 1_545 S
N119 Co97 2.282 . S
N119 C123 1.332 . S
N119 C124 1.332 . S
C120 C121 1.388 . S
C120 C124 1.382 . S
C120 H143 0.950 . S
C121 C120 1.388 . S
C121 C122 1.386 . S
C122 C121 1.386 . S
C122 C123 1.382 . S
C122 H144 0.950 1_545 S
C123 N119 1.332 . S
C123 C122 1.382 . S
C123 H125 0.952 1_545 S
C124 N119 1.332 . S
C124 C120 1.382 . S
C124 H126 0.948 . S
H125 C123 0.952 1_565 S
H126 C124 0.948 . S
H127 C116 0.952 . S
H128 C118 0.948 1_565 S
C129 C95 1.395 . S
C129 C99 1.391 . S
C130 C92 1.389 . S
C130 C112 1.392 . S
C131 C102 1.392 . S
C131 C104 1.389 . S
C132 C107 1.395 . S
C132 C109 1.391 . S
H133 C93 0.951 . S
H134 C94 0.950 . S
H135 C100 0.949 . S
H136 C101 0.950 . S
H137 C105 0.951 . S
H138 C106 0.950 . S
H139 C110 0.949 . S
H140 C111 0.950 . S
H141 C115 0.950 . S
H142 C117 0.950 1_565 S
H143 C120 0.950 . S
H144 C122 0.950 1_565 S
C145 C146 1.443 . S
C145 N149 1.376 . S
C145 C183 1.389 . S
C146 C145 1.443 . S
C146 C147 1.340 . S
C146 H186 0.951 . S
C147 C146 1.340 . S
C147 C148 1.439 . S
C147 H187 0.950 . S
C148 C147 1.439 . S
C148 N149 1.374 . S
C148 C182 1.395 . S
N149 C145 1.376 . S
N149 C148 1.374 . S
N149 Co150 2.008 . S
Co150 N149 2.008 . S
Co150 N151 1.995 . S
Co150 N156 2.008 . S
Co150 N161 1.995 . S
Co150 N166 2.282 . S
Co150 N172 2.282 . S
N151 Co150 1.995 . S
N151 C152 1.376 . S
N151 C155 1.383 . S
C152 N151 1.376 . S
C152 C153 1.446 . S
C152 C182 1.391 . S
C153 C152 1.446 . S
C153 C154 1.339 . S
C153 H188 0.949 . S
C154 C153 1.339 . S
C154 C155 1.439 . S
C154 H189 0.950 . S
C155 N151 1.383 . S
C155 C154 1.439 . S
C155 C184 1.392 . S
N156 Co150 2.008 . S
N156 C157 1.376 . S
N156 C160 1.374 . S
C157 N156 1.376 . S
C157 C158 1.443 . S
C157 C184 1.389 . S
C158 C157 1.443 . S
C158 C159 1.340 . S
C158 H190 0.951 . S
C159 C158 1.340 . S
C159 C160 1.439 . S
C159 H191 0.950 . S
C160 N156 1.374 . S
C160 C159 1.439 . S
C160 C185 1.395 . S
N161 Co150 1.995 . S
N161 C162 1.376 . S
N161 C165 1.383 . S
C162 N161 1.376 . S
C162 C163 1.446 . S
C162 C185 1.391 . S
C163 C162 1.446 . S
C163 C164 1.339 . S
C163 H192 0.949 . S
C164 C163 1.339 . S
C164 C165 1.439 . S
C164 H193 0.950 . S
C165 N161 1.383 . S
C165 C164 1.439 . S
C165 C183 1.392 . S
N166 Co150 2.282 . S
N166 C169 1.332 . S
N166 C171 1.332 . S
C167 C168 1.386 . S
C167 C170 1.388 . S
C168 C167 1.386 . S
C168 C169 1.382 . S
C168 H194 0.950 . S
C169 N166 1.332 . S
C169 C168 1.382 . S
C169 H180 0.952 . S
C170 C167 1.388 . S
C170 C171 1.382 . S
C170 H195 0.950 . S
C171 N166 1.332 . S
C171 C170 1.382 . S
C171 H181 0.948 . S
N172 Co150 2.282 . S
N172 C176 1.332 . S
N172 C177 1.332 . S
C173 C174 1.388 . S
C173 C177 1.382 . S
C173 H196 0.950 . S
C174 C173 1.388 . S
C174 C175 1.386 . S
C175 C174 1.386 . S
C175 C176 1.382 . S
C175 H197 0.950 . S
C176 N172 1.332 . S
C176 C175 1.382 . S
C176 H178 0.952 . S
C177 N172 1.332 . S
C177 C173 1.382 . S
C177 H179 0.948 . S
H178 C176 0.952 . S
H179 C177 0.948 . S
H180 C169 0.952 . S
H181 C171 0.948 . S
C182 C148 1.395 . S
C182 C152 1.391 . S
C183 C145 1.389 . S
C183 C165 1.392 . S
C184 C155 1.392 . S
C184 C157 1.389 . S
C185 C160 1.395 . S
C185 C162 1.391 . S
H186 C146 0.951 . S
H187 C147 0.950 . S
H188 C153 0.949 . S
H189 C154 0.950 . S
H190 C158 0.951 . S
H191 C159 0.950 . S
H192 C163 0.949 . S
H193 C164 0.950 . S
H194 C168 0.950 . S
H195 C170 0.950 . S
H196 C173 0.950 . S
H197 C175 0.950 . S
H198 C204 0.930 . S
H199 C207 0.930 . S
H200 C208 0.930 . S
H201 C209 0.930 . S
H202 C212 0.930 . S
H203 C213 0.930 . S
C204 H198 0.930 . S
C204 C205 1.355 . S
C204 C206 1.415 . S
C205 C204 1.355 . S
C205 C207 1.419 . S
C206 C204 1.415 . S
C206 C211 1.425 . S
C206 C213 1.409 . S
C207 H199 0.930 . S
C207 C205 1.419 . S
C207 C208 1.362 . S
C208 H200 0.930 . S
C208 C207 1.362 . S
C208 C211 1.409 . S
C209 H201 0.930 . S
C209 C210 1.355 . S
C209 C211 1.415 . S
C210 C209 1.355 . S
C210 C212 1.419 . S
C211 C206 1.425 . S
C211 C208 1.409 . S
C211 C209 1.415 . S
C212 H202 0.930 . S
C212 C210 1.419 . S
C212 C213 1.362 . S
C213 H203 0.930 . S
C213 C206 1.409 . S
C213 C212 1.362 . S
H214 C220 0.925 1_565 S
H215 C223 0.930 . S
H216 C224 0.930 . S
H217 C225 0.930 . S
H218 C228 0.930 1_565 S
H219 C229 0.941 . S
C220 H214 0.925 1_545 S
C220 C221 1.355 . S
C220 C222 1.415 . S
C221 C220 1.355 . S
C221 C223 1.419 . S
C222 C220 1.415 . S
C222 C227 1.425 . S
C222 C229 1.405 1_545 S
C223 H215 0.930 . S
C223 C221 1.419 . S
C223 C224 1.362 . S
C224 H216 0.930 . S
C224 C223 1.362 . S
C224 C227 1.409 . S
C225 H217 0.930 . S
C225 C226 1.355 . S
C225 C227 1.415 . S
C226 C225 1.355 . S
C226 C228 1.419 . S
C227 C222 1.425 . S
C227 C224 1.409 . S
C227 C225 1.415 . S
C228 H218 0.930 1_545 S
C228 C226 1.419 . S
C228 C229 1.356 1_545 S
C229 H219 0.941 . S
C229 C222 1.405 1_565 S
C229 C228 1.356 1_565 S
H230 C236 0.930 . S
H231 C239 0.930 . S
H232 C240 0.930 . S
H233 C241 0.930 . S
H234 C244 0.930 . S
H235 C245 0.930 . S
C236 H230 0.930 . S
C236 C237 1.355 . S
C236 C238 1.415 . S
C237 C236 1.355 . S
C237 C239 1.419 . S
C238 C236 1.415 . S
C238 C243 1.425 . S
C238 C245 1.409 . S
C239 H231 0.930 . S
C239 C237 1.419 . S
C239 C240 1.362 . S
C240 H232 0.930 . S
C240 C239 1.362 . S
C240 C243 1.409 . S
C241 H233 0.930 . S
C241 C242 1.355 . S
C241 C243 1.415 . S
C242 C241 1.355 . S
C242 C244 1.419 . S
C243 C238 1.425 . S
C243 C240 1.409 . S
C243 C241 1.415 . S
C244 H234 0.930 . S
C244 C242 1.419 . S
C244 C245 1.362 . S
C245 H235 0.930 . S
C245 C238 1.409 . S
C245 C244 1.362 . S
H246 C252 0.930 . S
H247 C255 0.930 . S
H248 C256 0.930 1_655 S
H249 C257 0.930 . S
H250 C260 0.930 . S
H251 C261 0.930 . S
C252 H246 0.930 . S
C252 C253 1.355 . S
C252 C254 1.415 . S
C253 C252 1.355 . S
C253 C255 1.419 . S
C254 C252 1.415 . S
C254 C259 1.425 . S
C254 C261 1.409 . S
C255 H247 0.930 . S
C255 C253 1.419 . S
C255 C256 1.362 . S
C256 H248 0.930 1_455 S
C256 C255 1.362 . S
C256 C259 1.409 . S
C257 H249 0.930 . S
C257 C258 1.355 . S
C257 C259 1.415 . S
C258 C257 1.355 . S
C258 C260 1.419 . S
C259 C254 1.425 . S
C259 C256 1.409 . S
C259 C257 1.415 . S
C260 H250 0.930 . S
C260 C258 1.419 . S
C260 C261 1.362 . S
C261 H251 0.930 . S
C261 C254 1.409 . S
C261 C260 1.362 . S
H262 C268 0.930 . S
H263 C271 0.930 . S
H264 C272 0.930 . S
H265 C273 0.930 . S
H266 C276 0.930 . S
H267 C277 0.930 . S
C268 H262 0.930 . S
C268 C269 1.355 . S
C268 C270 1.415 . S
C269 C268 1.355 . S
C269 C271 1.419 . S
C270 C268 1.415 . S
C270 C275 1.425 . S
C270 C277 1.409 . S
C271 H263 0.930 . S
C271 C269 1.419 . S
C271 C272 1.362 . S
C272 H264 0.930 . S
C272 C271 1.362 . S
C272 C275 1.409 . S
C273 H265 0.930 . S
C273 C274 1.355 . S
C273 C275 1.415 . S
C274 C273 1.355 . S
C274 C276 1.419 . S
C275 C270 1.425 . S
C275 C272 1.409 . S
C275 C273 1.415 . S
C276 H266 0.930 . S
C276 C274 1.419 . S
C276 C277 1.362 . S
C277 H267 0.930 . S
C277 C270 1.409 . S
C277 C276 1.362 . S
H278 C284 0.930 . S
H279 C287 0.930 . S
H280 C288 0.930 . S
H281 C289 0.930 . S
H282 C292 0.930 . S
H283 C293 0.930 . S
C284 H278 0.930 . S
C284 C285 1.355 . S
C284 C286 1.415 . S
C285 C284 1.355 . S
C285 C287 1.419 . S
C286 C284 1.415 . S
C286 C291 1.425 . S
C286 C293 1.409 . S
C287 H279 0.930 . S
C287 C285 1.419 . S
C287 C288 1.362 . S
C288 H280 0.930 . S
C288 C287 1.362 . S
C288 C291 1.409 . S
C289 H281 0.930 . S
C289 C290 1.355 . S
C289 C291 1.415 . S
C290 C289 1.355 . S
C290 C292 1.419 . S
C291 C286 1.425 . S
C291 C288 1.409 . S
C291 C289 1.415 . S
C292 H282 0.930 . S
C292 C290 1.419 . S
C292 C293 1.362 . S
C293 H283 0.930 . S
C293 C286 1.409 . S
C293 C292 1.362 . S
H294 C300 0.930 . S
H295 C303 0.930 . S
H296 C304 0.930 . S
H297 C305 0.930 . S
H298 C308 0.930 . S
H299 C309 0.930 . S
C300 H294 0.930 . S
C300 C301 1.355 . S
C300 C302 1.415 . S
C301 C300 1.355 . S
C301 C303 1.419 . S
C302 C300 1.415 . S
C302 C307 1.425 . S
C302 C309 1.409 . S
C303 H295 0.930 . S
C303 C301 1.419 . S
C303 C304 1.362 . S
C304 H296 0.930 . S
C304 C303 1.362 . S
C304 C307 1.409 . S
C305 H297 0.930 . S
C305 C306 1.355 . S
C305 C307 1.415 . S
C306 C305 1.355 . S
C306 C308 1.419 . S
C307 C302 1.425 . S
C307 C304 1.409 . S
C307 C305 1.415 . S
C308 H298 0.930 . S
C308 C306 1.419 . S
C308 C309 1.362 . S
C309 H299 0.930 . S
C309 C302 1.409 . S
C309 C308 1.362 . S
H310 C316 0.930 1_554 S
H311 C319 0.930 1_455 S
H312 C320 0.930 . S
H313 C321 0.930 . S
H314 C324 0.930 . S
H315 C325 0.930 . S
C316 H310 0.930 1_556 S
C316 C317 1.355 . S
C316 C318 1.415 . S
C317 C316 1.355 . S
C317 C319 1.419 . S
C318 C316 1.415 . S
C318 C323 1.425 . S
C318 C325 1.409 . S
C319 H311 0.930 1_655 S
C319 C317 1.419 . S
C319 C320 1.362 . S
C320 H312 0.930 . S
C320 C319 1.362 . S
C320 C323 1.409 . S
C321 H313 0.930 . S
C321 C322 1.355 . S
C321 C323 1.415 . S
C322 C321 1.355 . S
C322 C324 1.419 . S
C323 C318 1.425 . S
C323 C320 1.409 . S
C323 C321 1.415 . S
C324 H314 0.930 . S
C324 C322 1.419 . S
C324 C325 1.362 . S
C325 H315 0.930 . S
C325 C318 1.409 . S
C325 C324 1.362 . S
H326 C332 0.930 . S
H327 C335 0.930 1_655 S
H328 C336 0.930 . S
H329 C337 0.930 1_655 S
H330 C340 0.930 . S
H331 C341 0.930 . S
C332 H326 0.930 . S
C332 C333 1.355 . S
C332 C334 1.415 . S
C333 C332 1.355 . S
C333 C335 1.419 . S
C334 C332 1.415 . S
C334 C339 1.425 . S
C334 C341 1.409 . S
C335 H327 0.930 1_455 S
C335 C333 1.419 . S
C335 C336 1.362 1_455 S
C336 H328 0.930 . S
C336 C335 1.362 1_655 S
C336 C339 1.409 1_655 S
C337 H329 0.930 1_455 S
C337 C338 1.355 . S
C337 C339 1.415 . S
C338 C337 1.355 . S
C338 C340 1.419 . S
C339 C334 1.425 . S
C339 C336 1.409 1_455 S
C339 C337 1.415 . S
C340 H330 0.930 . S
C340 C338 1.419 . S
C340 C341 1.362 . S
C341 H331 0.930 . S
C341 C334 1.409 . S
C341 C340 1.362 . S
H342 C348 0.930 . S
H343 C351 0.930 . S
H344 C352 0.930 . S
H345 C353 0.930 . S
H346 C356 0.930 . S
H347 C357 0.930 . S
C348 H342 0.930 . S
C348 C349 1.355 . S
C348 C350 1.415 . S
C349 C348 1.355 . S
C349 C351 1.419 . S
C350 C348 1.415 . S
C350 C355 1.425 . S
C350 C357 1.409 . S
C351 H343 0.930 . S
C351 C349 1.419 . S
C351 C352 1.362 . S
C352 H344 0.930 . S
C352 C351 1.362 . S
C352 C355 1.409 . S
C353 H345 0.930 . S
C353 C354 1.355 . S
C353 C355 1.415 . S
C354 C353 1.355 . S
C354 C356 1.419 . S
C355 C350 1.425 . S
C355 C352 1.409 . S
C355 C353 1.415 . S
C356 H346 0.930 . S
C356 C354 1.419 . S
C356 C357 1.362 . S
C357 H347 0.930 . S
C357 C350 1.409 . S
C357 C356 1.362 . S
H358 C364 0.930 . S
H359 C367 0.930 . S
H360 C368 0.907 1_554 S
H361 C369 0.930 . S
H362 C372 0.930 . S
H363 C373 0.930 . S
C364 H358 0.930 . S
C364 C365 1.355 . S
C364 C366 1.415 . S
C365 C364 1.355 . S
C365 C367 1.419 1_556 S
C366 C364 1.415 . S
C366 C371 1.425 . S
C366 C373 1.409 . S
C367 H359 0.930 . S
C367 C365 1.419 1_554 S
C367 C368 1.362 1_554 S
C368 H360 0.907 1_556 S
C368 C367 1.362 1_556 S
C368 C371 1.409 . S
C369 H361 0.930 . S
C369 C370 1.355 . S
C369 C371 1.415 . S
C370 C369 1.355 . S
C370 C372 1.419 . S
C371 C366 1.425 . S
C371 C368 1.409 . S
C371 C369 1.415 . S
C372 H362 0.930 . S
C372 C370 1.419 . S
C372 C373 1.362 . S
C373 H363 0.930 . S
C373 C366 1.409 . S
C373 C372 1.362 . S
H374 C380 0.930 1_655 S
H375 C383 0.930 . S
H376 C384 0.930 . S
H377 C385 0.930 . S
H378 C388 0.930 1_655 S
H379 C389 0.930 . S
C380 H374 0.930 1_455 S
C380 C381 1.355 . S
C380 C382 1.415 . S
C381 C380 1.355 . S
C381 C383 1.419 . S
C382 C380 1.415 . S
C382 C387 1.425 . S
C382 C389 1.409 1_455 S
C383 H375 0.930 . S
C383 C381 1.419 . S
C383 C384 1.362 . S
C384 H376 0.930 . S
C384 C383 1.362 . S
C384 C387 1.409 . S
C385 H377 0.930 . S
C385 C386 1.355 . S
C385 C387 1.415 . S
C386 C385 1.355 . S
C386 C388 1.419 . S
C387 C382 1.425 . S
C387 C384 1.409 . S
C387 C385 1.415 . S
C388 H378 0.930 1_455 S
C388 C386 1.419 . S
C388 C389 1.362 1_455 S
C389 H379 0.930 . S
C389 C382 1.409 1_655 S
C389 C388 1.362 1_655 S
C210 C61 1.509 . S
C205 C10 1.513 . S
C221 C17 1.509 . S
C226 C131 1.513 . S
C237 C36 1.513 . S
C242 C183 1.511 . S
C253 C5 1.513 . S
C258 C77 1.509 . S
C274 C121 1.510 . S
C269 C16 1.512 . S
C285 C31 1.511 . S
C290 C167 1.513 . S
C306 C114 1.508 . S
C301 C30 1.505 . S
C317 C3 1.512 1_556 S
C322 C174 1.508 . S
C338 C68 1.509 . S
C333 C18 1.512 . S
C354 C130 1.515 . S
C349 C29 1.511 . S
C370 C184 1.512 . S
C365 C4 1.510 1_556 S
C381 C23 1.508 . S
C386 C78 1.511 . S
