# Generated by pormake.
# Topology dag, (6,3)-cn, num edge types: 1
# Building blocks:
#     Node 0, Type 0, BuildingBlock: OJICUG_clean_sbu_0, # of connection points: 6
#     Node 1, Type 0, BuildingBlock: OJICUG_clean_sbu_0, # of connection points: 6
#     Node 2, Type 0, BuildingBlock: OJICUG_clean_sbu_0, # of connection points: 6
#     Node 3, Type 0, BuildingBlock: OJICUG_clean_sbu_0, # of connection points: 6
#     Node 4, Type 1, BuildingBlock: WUSLED_clean_sbu_0, # of connection points: 3
#     Node 5, Type 1, BuildingBlock: WUSLED_clean_sbu_0, # of connection points: 3
#     Node 6, Type 1, BuildingBlock: WUSLED_clean_sbu_0, # of connection points: 3
#     Node 7, Type 1, BuildingBlock: WUSLED_clean_sbu_0, # of connection points: 3
#     Node 8, Type 1, BuildingBlock: WUSLED_clean_sbu_0, # of connection points: 3
#     Node 9, Type 1, BuildingBlock: WUSLED_clean_sbu_0, # of connection points: 3
#     Node 10, Type 1, BuildingBlock: WUSLED_clean_sbu_0, # of connection points: 3
#     Node 11, Type 1, BuildingBlock: WUSLED_clean_sbu_0, # of connection points: 3
#     Edge 12, Type (0, 1), BuildingBlock: AJUNOK_clean_linker_0, # of connection points: 2
#     Edge 13, Type (0, 1), BuildingBlock: AJUNOK_clean_linker_0, # of connection points: 2
#     Edge 14, Type (0, 1), BuildingBlock: AJUNOK_clean_linker_0, # of connection points: 2
#     Edge 15, Type (0, 1), BuildingBlock: AJUNOK_clean_linker_0, # of connection points: 2
#     Edge 16, Type (0, 1), BuildingBlock: AJUNOK_clean_linker_0, # of connection points: 2
#     Edge 17, Type (0, 1), BuildingBlock: AJUNOK_clean_linker_0, # of connection points: 2
#     Edge 18, Type (0, 1), BuildingBlock: AJUNOK_clean_linker_0, # of connection points: 2
#     Edge 19, Type (0, 1), BuildingBlock: AJUNOK_clean_linker_0, # of connection points: 2
#     Edge 20, Type (0, 1), BuildingBlock: AJUNOK_clean_linker_0, # of connection points: 2
#     Edge 21, Type (0, 1), BuildingBlock: AJUNOK_clean_linker_0, # of connection points: 2
#     Edge 22, Type (0, 1), BuildingBlock: AJUNOK_clean_linker_0, # of connection points: 2
#     Edge 23, Type (0, 1), BuildingBlock: AJUNOK_clean_linker_0, # of connection points: 2
#     Edge 24, Type (0, 1), BuildingBlock: AJUNOK_clean_linker_0, # of connection points: 2
#     Edge 25, Type (0, 1), BuildingBlock: AJUNOK_clean_linker_0, # of connection points: 2
#     Edge 26, Type (0, 1), BuildingBlock: AJUNOK_clean_linker_0, # of connection points: 2
#     Edge 27, Type (0, 1), BuildingBlock: AJUNOK_clean_linker_0, # of connection points: 2
#     Edge 28, Type (0, 1), BuildingBlock: AJUNOK_clean_linker_0, # of connection points: 2
#     Edge 29, Type (0, 1), BuildingBlock: AJUNOK_clean_linker_0, # of connection points: 2
#     Edge 30, Type (0, 1), BuildingBlock: AJUNOK_clean_linker_0, # of connection points: 2
#     Edge 31, Type (0, 1), BuildingBlock: AJUNOK_clean_linker_0, # of connection points: 2
#     Edge 32, Type (0, 1), BuildingBlock: AJUNOK_clean_linker_0, # of connection points: 2
#     Edge 33, Type (0, 1), BuildingBlock: AJUNOK_clean_linker_0, # of connection points: 2
#     Edge 34, Type (0, 1), BuildingBlock: AJUNOK_clean_linker_0, # of connection points: 2
#     Edge 35, Type (0, 1), BuildingBlock: AJUNOK_clean_linker_0, # of connection points: 2
# Relax obj value: 0.244
# Max RMSD: 0.198
# Mean RMSD: 0.163
data_MOF--net-dag--node1-OJICUG_clean_sbu_0--node2-WUSLED_clean_sbu_0--edge1-AJUNOK_clean_linker_0
_symmetry_space_group_name_H-M    P1
_symmetry_Int_Tables_number       1
_symmetry_cell_setting            triclinic
loop_
_symmetry_equiv_pos_as_xyz
'x, y, z'
_cell_length_a     37.856501
_cell_length_b     39.712421
_cell_length_c     38.952628
_cell_angle_alpha  95.054121
_cell_angle_beta   90.230703
_cell_angle_gamma 90.08164
loop_
_atom_site_label
_atom_site_type_symbol
_atom_site_fract_x
_atom_site_fract_y
_atom_site_fract_z
_atom_type_partial_charge
Sc0 Sc 0.11479 0.86412 0.03634 0.0
Sc1 Sc 0.1372 0.77965 0.04624 0.0
Sc2 Sc 0.19457 0.84683 0.07678 0.0
O3 O 0.14891 0.83009 0.05323 0.0
C4 C 0.18796 0.89876 0.01911 0.0
C5 C 0.11177 0.80661 0.97519 0.0
C6 C 0.21909 0.78318 0.02638 0.0
C7 C 0.06178 0.81057 0.06552 0.0
C8 C 0.13732 0.89845 0.11028 0.0
C9 C 0.17414 0.78496 0.12043 0.0
O10 O 0.15497 0.89428 0.01579 0.0
O11 O 0.11779 0.78259 0.99395 0.0
O12 O 0.22498 0.81085 0.04461 0.0
O13 O 0.06935 0.83849 0.05381 0.0
O14 O 0.16732 0.88405 0.11075 0.0
O15 O 0.15508 0.76949 0.09715 0.0
O16 O 0.11582 0.89358 0.08514 0.0
O17 O 0.08418 0.78681 0.06714 0.0
O18 O 0.18943 0.81285 0.11656 0.0
O19 O 0.11148 0.8375 0.98655 0.0
O20 O 0.2064 0.88368 0.04036 0.0
O21 O 0.189 0.76859 0.02468 0.0
Sc22 Sc 0.71424 0.64952 0.4891 0.0
Sc23 Sc 0.64943 0.70958 0.51927 0.0
Sc24 Sc 0.63304 0.62275 0.52037 0.0
O25 O 0.66568 0.66069 0.50966 0.0
C26 C 0.66435 0.5951 0.44784 0.0
C27 C 0.69012 0.71124 0.44751 0.0
C28 C 0.57864 0.67477 0.4907 0.0
C29 C 0.73016 0.71298 0.54358 0.0
C30 C 0.70787 0.59312 0.54167 0.0
C31 C 0.6204 0.67551 0.58503 0.0
O32 O 0.69366 0.61075 0.45154 0.0
O33 O 0.66883 0.72343 0.4705 0.0
O34 O 0.58741 0.64609 0.49993 0.0
O35 O 0.73972 0.68714 0.52418 0.0
O36 O 0.67435 0.59382 0.54151 0.0
O37 O 0.62726 0.7013 0.56901 0.0
O38 O 0.72644 0.61267 0.52495 0.0
O39 O 0.69849 0.72369 0.5448 0.0
O40 O 0.6231 0.64533 0.5715 0.0
O41 O 0.70791 0.6846 0.45066 0.0
O42 O 0.63988 0.59752 0.47008 0.0
O43 O 0.59857 0.7006 0.49478 0.0
Sc44 Sc 0.86828 0.2249 0.00758 0.0
Sc45 Sc 0.80464 0.16143 0.98433 0.0
Sc46 Sc 0.89047 0.13887 0.00779 0.0
O47 O 0.85442 0.17506 0.99994 0.0
C48 C 0.93863 0.19346 0.97426 0.0
C49 C 0.82001 0.22473 0.94071 0.0
C50 C 0.85278 0.1097 0.93779 0.0
C51 C 0.79001 0.22381 0.03949 0.0
C52 C 0.9038 0.19315 0.07189 0.0
C53 C 0.8213 0.10323 0.0333 0.0
O54 O 0.91816 0.21848 0.98094 0.0
O55 O 0.80265 0.19882 0.94771 0.0
O56 O 0.87918 0.11196 0.9583 0.0
O57 O 0.81999 0.2373 0.03507 0.0
O58 O 0.90391 0.16295 0.0579 0.0
O59 O 0.79981 0.12114 0.01769 0.0
O60 O 0.89294 0.21827 0.05666 0.0
O61 O 0.78084 0.19561 0.02385 0.0
O62 O 0.85444 0.10756 0.03282 0.0
O63 O 0.84535 0.23682 0.95941 0.0
O64 O 0.93194 0.16428 0.98334 0.0
O65 O 0.82418 0.12601 0.94365 0.0
Sc66 Sc 0.37441 0.37401 0.54366 0.0
Sc67 Sc 0.291 0.34681 0.56962 0.0
Sc68 Sc 0.35672 0.28695 0.54266 0.0
O69 O 0.34069 0.33589 0.55199 0.0
C70 C 0.38996 0.32035 0.47881 0.0
C71 C 0.30166 0.40168 0.51502 0.0
C72 C 0.27645 0.28282 0.51626 0.0
C73 C 0.33617 0.40361 0.61297 0.0
C74 C 0.42679 0.32212 0.57498 0.0
C75 C 0.31429 0.28539 0.61313 0.0
O76 O 0.39114 0.34992 0.4944 0.0
O77 O 0.28176 0.38414 0.53289 0.0
O78 O 0.30775 0.27144 0.51761 0.0
O79 O 0.36185 0.40238 0.59194 0.0
O80 O 0.40825 0.29608 0.56601 0.0
O81 O 0.29516 0.31095 0.60829 0.0
O82 O 0.41726 0.35187 0.56974 0.0
O83 O 0.30899 0.38503 0.60821 0.0
O84 O 0.33761 0.27394 0.59177 0.0
O85 O 0.33514 0.40034 0.51664 0.0
O86 O 0.37744 0.29512 0.49267 0.0
O87 O 0.26683 0.30994 0.53328 0.0
C88 C 0.00334 0.20132 0.27067 0.0
C89 C 0.99476 0.17182 0.24987 0.0
C90 C 0.96286 0.20459 0.21008 0.0
C91 C 0.97499 0.17341 0.21991 0.0
C92 C 0.97007 0.23413 0.23184 0.0
C93 C 0.99053 0.23252 0.26182 0.0
U94 U 0.06657 0.14499 0.30738 0.0
O95 O 0.12262 0.14911 0.32128 0.0
O96 O 0.08405 0.13444 0.35939 0.0
C97 C 0.1171 0.14206 0.35317 0.0
C98 C 0.02915 0.19877 0.2986 0.0
C99 C 0.13526 0.16407 0.3798 0.0
C100 C 0.15635 0.21936 0.40249 0.0
C101 C 0.13558 0.19932 0.37896 0.0
C102 C 0.17551 0.16916 0.4285 0.0
C103 C 0.17686 0.20436 0.42717 0.0
C104 C 0.15485 0.14919 0.40498 0.0
C105 C 0.06866 0.05832 0.25435 0.0
C106 C 0.11698 0.02331 0.23111 0.0
C107 C 0.05723 0.00123 0.22951 0.0
C108 C 0.04515 0.03151 0.24624 0.0
C109 C 0.09298 0.99747 0.22035 0.0
C110 C 0.10494 0.05348 0.24819 0.0
C111 C 0.0542 0.09215 0.26393 0.0
O112 O 0.02062 0.17736 0.32118 0.0
O113 O 0.06175 0.19492 0.2875 0.0
O114 O 0.07424 0.11763 0.25682 0.0
O115 O 0.03814 0.09698 0.29382 0.0
H116 H 0.00464 0.14751 0.25606 0.0
H117 H 0.97043 0.15021 0.20372 0.0
H118 H 0.96044 0.25846 0.22544 0.0
H119 H 0.99707 0.25559 0.2775 0.0
H120 H 0.15734 0.24639 0.4006 0.0
H121 H 0.12067 0.21117 0.35952 0.0
H122 H 0.19092 0.15704 0.44741 0.0
H123 H 0.1549 0.12199 0.40589 0.0
H124 H 0.14458 0.02134 0.22402 0.0
H125 H 0.03825 0.98154 0.22174 0.0
H126 H 0.0171 0.03473 0.25087 0.0
H127 H 0.12367 0.07377 0.25441 0.0
C128 C 0.34945 0.56262 0.77869 0.0
C129 C 0.36538 0.56409 0.74637 0.0
C130 C 0.34441 0.50747 0.72813 0.0
C131 C 0.36272 0.53691 0.72133 0.0
C132 C 0.3288 0.50581 0.76071 0.0
C133 C 0.33125 0.53328 0.78581 0.0
U134 U 0.40399 0.63657 0.81045 0.0
O135 O 0.39176 0.68952 0.82675 0.0
O136 O 0.41934 0.65847 0.86237 0.0
C137 C 0.40303 0.68711 0.85842 0.0
C138 C 0.35373 0.59116 0.8051 0.0
C139 C 0.37767 0.69832 0.88554 0.0
C140 C 0.31749 0.70179 0.90698 0.0
C141 C 0.3419 0.68915 0.88232 0.0
C142 C 0.36458 0.73158 0.93926 0.0
C143 C 0.32845 0.72365 0.93539 0.0
C144 C 0.38896 0.71915 0.9144 0.0
C145 C 0.48575 0.64214 0.74925 0.0
C146 C 0.51857 0.68819 0.7271 0.0
C147 C 0.53599 0.63013 0.71187 0.0
C148 C 0.50907 0.61901 0.73237 0.0
C149 C 0.54032 0.66475 0.70793 0.0
C150 C 0.49122 0.67693 0.74744 0.0
C151 C 0.45343 0.62855 0.76357 0.0
O152 O 0.38122 0.58893 0.82549 0.0
O153 O 0.35047 0.62115 0.79358 0.0
O154 O 0.42402 0.64525 0.75929 0.0
O155 O 0.45572 0.61574 0.79348 0.0
H156 H 0.38001 0.58631 0.74047 0.0
H157 H 0.37484 0.53904 0.69646 0.0
H158 H 0.31516 0.48317 0.76694 0.0
H159 H 0.31931 0.5315 0.81081 0.0
H160 H 0.28986 0.69525 0.90329 0.0
H161 H 0.33273 0.67282 0.86033 0.0
H162 H 0.37395 0.74765 0.96133 0.0
H163 H 0.41653 0.72617 0.91747 0.0
H164 H 0.52179 0.71507 0.7253 0.0
H165 H 0.55195 0.61131 0.69735 0.0
H166 H 0.50512 0.59206 0.73329 0.0
H167 H 0.47348 0.69522 0.76041 0.0
C168 C 0.76024 0.92445 0.1283 0.0
C169 C 0.796 0.93096 0.12238 0.0
C170 C 0.77957 0.97991 0.09216 0.0
C171 C 0.80561 0.95849 0.10427 0.0
C172 C 0.74382 0.97241 0.09728 0.0
C173 C 0.7343 0.94481 0.11496 0.0
U174 U 0.76322 0.84899 0.18778 0.0
O175 O 0.7402 0.85595 0.23933 0.0
O176 O 0.71686 0.81879 0.20064 0.0
C177 C 0.71652 0.83205 0.23276 0.0
C178 C 0.74882 0.90063 0.15267 0.0
C179 C 0.71278 0.80865 0.25955 0.0
C180 C 0.67488 0.78466 0.30107 0.0
C181 C 0.67898 0.80234 0.27195 0.0
C182 C 0.73842 0.778 0.30471 0.0
C183 C 0.70462 0.7733 0.31834 0.0
C184 C 0.74249 0.79563 0.27546 0.0
C185 C 0.85651 0.8145 0.16163 0.0
C186 C 0.90632 0.78119 0.13863 0.0
C187 C 0.90448 0.84144 0.13306 0.0
C188 C 0.87192 0.84357 0.15007 0.0
C189 C 0.922 0.81019 0.12709 0.0
C190 C 0.87387 0.78336 0.15568 0.0
C191 C 0.82318 0.8158 0.18109 0.0
O192 O 0.74167 0.86927 0.14093 0.0
O193 O 0.76443 0.90342 0.18296 0.0
O194 O 0.8184 0.84212 0.20355 0.0
O195 O 0.79452 0.80674 0.16345 0.0
H196 H 0.81638 0.91567 0.13288 0.0
H197 H 0.83338 0.9636 0.10055 0.0
H198 H 0.72316 0.98883 0.08915 0.0
H199 H 0.70657 0.94046 0.11988 0.0
H200 H 0.64851 0.78062 0.31063 0.0
H201 H 0.65579 0.81219 0.25987 0.0
H202 H 0.76173 0.76934 0.31752 0.0
H203 H 0.76883 0.80031 0.26615 0.0
H204 H 0.91909 0.7568 0.13433 0.0
H205 H 0.91624 0.86437 0.1251 0.0
H206 H 0.85906 0.8679 0.15456 0.0
H207 H 0.8624 0.76065 0.16452 0.0
C208 C 0.78476 0.42936 0.65039 0.0
C209 C 0.77123 0.42409 0.6167 0.0
C210 C 0.77159 0.48456 0.61154 0.0
C211 C 0.76483 0.45142 0.59746 0.0
C212 C 0.78755 0.48975 0.64421 0.0
C213 C 0.79406 0.46226 0.66356 0.0
U214 U 0.73104 0.35859 0.67781 0.0
O215 O 0.7426 0.30764 0.69314 0.0
O216 O 0.71408 0.34446 0.72834 0.0
C217 C 0.72898 0.3145 0.72397 0.0
C218 C 0.78236 0.4021 0.67363 0.0
C219 C 0.74955 0.30366 0.75317 0.0
C220 C 0.77673 0.31518 0.80968 0.0
C221 C 0.76178 0.32681 0.78001 0.0
C222 C 0.76906 0.25737 0.78519 0.0
C223 C 0.77975 0.28031 0.8128 0.0
C224 C 0.75406 0.26896 0.75569 0.0
C225 C 0.64299 0.3455 0.62943 0.0
C226 C 0.58566 0.3299 0.65112 0.0
C227 C 0.59599 0.32691 0.58957 0.0
C228 C 0.63076 0.33779 0.59564 0.0
C229 C 0.57289 0.32378 0.61726 0.0
C230 C 0.62055 0.34042 0.6572 0.0
C231 C 0.67778 0.36176 0.63503 0.0
O232 O 0.75685 0.40646 0.69636 0.0
O233 O 0.78379 0.37103 0.65878 0.0
O234 O 0.7056 0.34268 0.62787 0.0
O235 O 0.68121 0.38169 0.66361 0.0
H236 H 0.76333 0.3991 0.60601 0.0
H237 H 0.75258 0.44682 0.57229 0.0
H238 H 0.79261 0.51513 0.65575 0.0
H239 H 0.80405 0.46692 0.68965 0.0
H240 H 0.78437 0.33337 0.83076 0.0
H241 H 0.75861 0.35376 0.77867 0.0
H242 H 0.77136 0.23038 0.78688 0.0
H243 H 0.74478 0.25071 0.73531 0.0
H244 H 0.56827 0.32771 0.67283 0.0
H245 H 0.58659 0.32288 0.56322 0.0
H246 H 0.64762 0.34161 0.5739 0.0
H247 H 0.62946 0.34595 0.68355 0.0
C248 C 0.50528 0.29663 0.28782 0.0
C249 C 0.48206 0.32411 0.29413 0.0
C250 C 0.45928 0.3002 0.34499 0.0
C251 C 0.45927 0.32579 0.32231 0.0
C252 C 0.48113 0.27185 0.3377 0.0
C253 C 0.50387 0.27007 0.30931 0.0
U254 U 0.579 0.34839 0.25926 0.0
O255 O 0.63475 0.33853 0.24691 0.0
O256 O 0.60013 0.36025 0.20907 0.0
C257 C 0.63158 0.34823 0.2156 0.0
C258 C 0.53467 0.29847 0.26311 0.0
C259 C 0.64863 0.32697 0.18744 0.0
C260 C 0.67984 0.27594 0.16584 0.0
C261 C 0.6592 0.29355 0.19121 0.0
C262 C 0.67807 0.32422 0.13197 0.0
C263 C 0.69033 0.29154 0.13649 0.0
C264 C 0.65756 0.3418 0.15727 0.0
C265 C 0.58495 0.43338 0.31548 0.0
C266 C 0.63584 0.47067 0.32338 0.0
C267 C 0.5804 0.48608 0.35143 0.0
C268 C 0.56499 0.45644 0.33649 0.0
C269 C 0.61608 0.49339 0.3454 0.0
C270 C 0.62032 0.44082 0.30841 0.0
C271 C 0.56902 0.4006 0.3042 0.0
O272 O 0.53119 0.32091 0.24037 0.0
O273 O 0.56625 0.2988 0.27732 0.0
O274 O 0.58757 0.37398 0.31079 0.0
O275 O 0.55411 0.39777 0.27356 0.0
H276 H 0.48268 0.34525 0.27837 0.0
H277 H 0.44258 0.34782 0.32716 0.0
H278 H 0.48216 0.25199 0.35503 0.0
H279 H 0.52182 0.24888 0.3053 0.0
H280 H 0.68887 0.25071 0.16986 0.0
H281 H 0.65258 0.28147 0.21421 0.0
H282 H 0.68517 0.33654 0.10924 0.0
H283 H 0.64966 0.3675 0.15379 0.0
H284 H 0.66342 0.47561 0.31846 0.0
H285 H 0.56475 0.50247 0.36909 0.0
H286 H 0.53777 0.45087 0.34248 0.0
H287 H 0.63614 0.42311 0.2923 0.0
C288 C 0.14342 0.20633 0.88204 0.0
C289 C 0.13619 0.1863 0.90907 0.0
C290 C 0.07647 0.2084 0.91292 0.0
C291 C 0.10298 0.18737 0.92442 0.0
C292 C 0.08426 0.2298 0.88711 0.0
C293 C 0.1176 0.22862 0.87157 0.0
U294 U 0.22468 0.15396 0.86434 0.0
O295 O 0.24789 0.13305 0.81547 0.0
O296 O 0.27905 0.16753 0.85085 0.0
C297 C 0.27631 0.15205 0.81967 0.0
C298 C 0.17628 0.20096 0.86254 0.0
C299 C 0.28321 0.1733 0.79134 0.0
C300 C 0.26249 0.21428 0.75305 0.0
C301 C 0.25674 0.19489 0.78074 0.0
C302 C 0.32162 0.19136 0.74664 0.0
C303 C 0.29501 0.21279 0.73568 0.0
C304 C 0.31574 0.17177 0.77428 0.0
C305 C 0.22848 0.07818 0.9234 0.0
C306 C 0.23856 0.01749 0.9153 0.0
C307 C 0.22896 0.04455 0.97263 0.0
C308 C 0.22654 0.07589 0.95907 0.0
C309 C 0.23329 0.01481 0.95072 0.0
C310 C 0.23597 0.04892 0.90168 0.0
C311 C 0.21598 0.10959 0.90976 0.0
O312 O 0.20557 0.20524 0.88066 0.0
O313 O 0.17634 0.17316 0.84163 0.0
O314 O 0.20143 0.10677 0.87894 0.0
O315 O 0.23488 0.13727 0.91619 0.0
H316 H 0.15578 0.16881 0.91733 0.0
H317 H 0.09756 0.17086 0.94449 0.0
H318 H 0.06408 0.24613 0.87787 0.0
H319 H 0.12275 0.24407 0.85057 0.0
H320 H 0.24116 0.22984 0.74476 0.0
H321 H 0.23139 0.19635 0.79358 0.0
H322 H 0.34696 0.18974 0.7338 0.0
H323 H 0.33647 0.15527 0.78215 0.0
H324 H 0.24273 0.99507 0.89788 0.0
H325 H 0.22473 0.04337 0.99999 0.0
H326 H 0.22057 0.09808 0.97629 0.0
H327 H 0.23772 0.05 0.87405 0.0
C328 C 0.23061 0.56351 0.3995 0.0
C329 C 0.25337 0.56686 0.42819 0.0
C330 C 0.24459 0.50784 0.43757 0.0
C331 C 0.26027 0.53931 0.44702 0.0
C332 C 0.22055 0.50468 0.4099 0.0
C333 C 0.21369 0.5324 0.39083 0.0
U334 U 0.27714 0.63746 0.37035 0.0
O335 O 0.28937 0.65431 0.31945 0.0
O336 O 0.26206 0.68861 0.35806 0.0
C337 C 0.27486 0.68415 0.32666 0.0
C338 C 0.22911 0.59097 0.37639 0.0
C339 C 0.25421 0.69791 0.29909 0.0
C340 C 0.20799 0.69441 0.25532 0.0
C341 C 0.22556 0.68062 0.28266 0.0
C342 C 0.24755 0.7426 0.26095 0.0
C343 C 0.21879 0.72565 0.24427 0.0
C344 C 0.26488 0.72896 0.28813 0.0
C345 C 0.36694 0.65211 0.41785 0.0
C346 C 0.42767 0.66241 0.40146 0.0
C347 C 0.40949 0.67494 0.46074 0.0
C348 C 0.37514 0.66449 0.45182 0.0
C349 C 0.4363 0.67296 0.43584 0.0
C350 C 0.39326 0.65221 0.39247 0.0
C351 C 0.33259 0.6352 0.41072 0.0
O352 O 0.22662 0.6217 0.39189 0.0
O353 O 0.25318 0.58855 0.35207 0.0
O354 O 0.32934 0.61694 0.38105 0.0
O355 O 0.30406 0.65258 0.41969 0.0
H356 H 0.26719 0.59041 0.43508 0.0
H357 H 0.27911 0.54216 0.4681 0.0
H358 H 0.20854 0.48044 0.40201 0.0
H359 H 0.19648 0.52915 0.3685 0.0
H360 H 0.18605 0.68069 0.24279 0.0
H361 H 0.21711 0.65647 0.29071 0.0
H362 H 0.2573 0.76612 0.25243 0.0
H363 H 0.2872 0.74246 0.30026 0.0
H364 H 0.44795 0.66064 0.38183 0.0
H365 H 0.41557 0.6824 0.48754 0.0
H366 H 0.35539 0.66439 0.47188 0.0
H367 H 0.38778 0.64287 0.36602 0.0
C368 C 0.87412 0.95371 0.771 0.0
C369 C 0.89738 0.95805 0.79916 0.0
C370 C 0.86703 0.00961 0.82031 0.0
C371 C 0.89385 0.98566 0.8236 0.0
C372 C 0.84453 0.00587 0.79132 0.0
C373 C 0.84794 0.97795 0.76691 0.0
U374 U 0.92126 0.8728 0.74837 0.0
O375 O 0.90252 0.82052 0.73823 0.0
O376 O 0.93457 0.8435 0.69957 0.0
C377 C 0.91534 0.81744 0.70683 0.0
C378 C 0.87628 0.92273 0.74755 0.0
C379 C 0.89015 0.80453 0.68018 0.0
C380 C 0.83918 0.81251 0.6438 0.0
C381 C 0.86466 0.82579 0.66733 0.0
C382 C 0.86479 0.75675 0.64553 0.0
C383 C 0.83867 0.77774 0.63312 0.0
C384 C 0.89029 0.77006 0.66893 0.0
C385 C 6e-05 0.85919 0.80886 0.0
C386 C 0.02224 0.80696 0.82897 0.0
C387 C 0.05256 0.85993 0.84458 0.0
C388 C 0.02825 0.8768 0.82537 0.0
C389 C 0.04924 0.825 0.84748 0.0
C390 C 0.9978 0.82395 0.80969 0.0
C391 C 0.9712 0.87883 0.79525 0.0
O392 O 0.90447 0.92026 0.72786 0.0
O393 O 0.86966 0.89499 0.76245 0.0
O394 O 0.93913 0.86816 0.80124 0.0
O395 O 0.97526 0.88864 0.76415 0.0
H396 H 0.91774 0.93952 0.80275 0.0
H397 H 0.91144 0.98767 0.84569 0.0
H398 H 0.8241 0.0243 0.78771 0.0
H399 H 0.82984 0.97501 0.74524 0.0
H400 H 0.81977 0.82936 0.63414 0.0
H401 H 0.86417 0.8525 0.67589 0.0
H402 H 0.86491 0.72986 0.63785 0.0
H403 H 0.90971 0.75331 0.6788 0.0
H404 H 0.019 0.78008 0.83086 0.0
H405 H 0.07235 0.87482 0.85925 0.0
H406 H 0.03022 0.90402 0.8252 0.0
H407 H 0.97614 0.80991 0.79702 0.0
C408 C 0.0948 0.94048 0.1376 0.0
C409 C 0.12644 0.92217 0.13994 0.0
C410 C 0.08381 0.96373 0.16431 0.0
C411 C 0.10382 0.96974 0.19467 0.0
H412 H 0.07848 0.93742 0.11463 0.0
H413 H 0.05992 0.97798 0.16057 0.0
S414 S 0.18719 0.92694 0.21543 0.0
N415 N 0.17682 0.91052 0.17625 0.0
N416 N 0.1557 0.95441 0.22668 0.0
C417 C 0.135 0.95113 0.198 0.0
C418 C 0.14636 0.9273 0.17064 0.0
C419 C 0.61691 0.66081 0.64564 0.0
C420 C 0.60472 0.68023 0.61963 0.0
C421 C 0.59754 0.65868 0.67593 0.0
C422 C 0.56471 0.67508 0.68083 0.0
H423 H 0.64074 0.64589 0.64182 0.0
H424 H 0.60728 0.64234 0.6947 0.0
S425 S 0.52252 0.73073 0.62073 0.0
N426 N 0.55964 0.71831 0.60148 0.0
N427 N 0.52213 0.71312 0.65758 0.0
C428 C 0.55342 0.69635 0.65581 0.0
C429 C 0.57366 0.6991 0.62532 0.0
C430 C 0.82499 0.06311 0.07895 0.0
C431 C 0.80804 0.07349 0.04949 0.0
C432 C 0.81571 0.03278 0.09243 0.0
C433 C 0.78952 0.01142 0.07664 0.0
H434 H 0.84574 0.07848 0.09157 0.0
H435 H 0.82904 0.02612 0.11554 0.0
S436 S 0.73931 0.02587 0.99721 0.0
N437 N 0.76479 0.05958 0.00414 0.0
N438 N 0.74802 0.00206 0.02888 0.0
C439 C 0.77258 0.0214 0.04695 0.0
C440 C 0.78166 0.05256 0.03354 0.0
C441 C 0.4755 0.34353 0.61413 0.0
C442 C 0.46229 0.31815 0.58998 0.0
C443 C 0.51094 0.34379 0.62449 0.0
C444 C 0.5346 0.31901 0.61064 0.0
H445 H 0.45859 0.36404 0.6242 0.0
H446 H 0.52031 0.36464 0.642 0.0
S447 S 0.5128 0.24562 0.54872 0.0
N448 N 0.47509 0.26622 0.55434 0.0
N449 N 0.54205 0.26713 0.57349 0.0
C450 C 0.52146 0.2926 0.58775 0.0
C451 C 0.48516 0.29201 0.57757 0.0
C452 C 0.67617 0.54289 0.40945 0.0
C453 C 0.65738 0.57315 0.41625 0.0
C454 C 0.66413 0.51794 0.38433 0.0
C455 C 0.63306 0.5227 0.36528 0.0
H456 H 0.69874 0.5375 0.42525 0.0
H457 H 0.6778 0.49391 0.38159 0.0
S458 S 0.57855 0.6005 0.36953 0.0
N459 N 0.60911 0.60844 0.39955 0.0
N460 N 0.58706 0.56215 0.35155 0.0
C461 C 0.61605 0.55422 0.36989 0.0
C462 C 0.62804 0.5793 0.39566 0.0
C463 C 0.9892 0.22971 0.95756 0.0
C464 C 0.97216 0.19803 0.9557 0.0
C465 C 0.02268 0.23336 0.94282 0.0
C466 C 0.04006 0.20543 0.92587 0.0
H467 H 0.97718 0.25156 0.97145 0.0
H468 H 0.03552 0.25785 0.94563 0.0
S469 S 0.00475 0.11841 0.90925 0.0
N470 N 0.97381 0.13914 0.93209 0.0
N471 N 0.03655 0.14615 0.90481 0.0
C472 C 0.02261 0.17413 0.92233 0.0
C473 C 0.9887 0.17039 0.93713 0.0
C474 C 0.25057 0.43717 0.49721 0.0
C475 C 0.28569 0.42592 0.49229 0.0
C476 C 0.23657 0.46281 0.47841 0.0
C477 C 0.25721 0.47792 0.45408 0.0
H478 H 0.23417 0.42702 0.51657 0.0
H479 H 0.20995 0.47171 0.48379 0.0
S480 S 0.34877 0.45533 0.42823 0.0
N481 N 0.33942 0.4302 0.45853 0.0
N482 N 0.31305 0.4784 0.42396 0.0
C483 C 0.29157 0.46594 0.44774 0.0
C484 C 0.30581 0.43993 0.46661 0.0
C485 C 0.06715 0.78755 0.93126 0.0
C486 C 0.10148 0.79929 0.93901 0.0
C487 C 0.05146 0.79257 0.89946 0.0
C488 C 0.06973 0.80946 0.87456 0.0
H489 H 0.05113 0.77764 0.95107 0.0
H490 H 0.02377 0.78624 0.89586 0.0
S491 S 0.16313 0.8377 0.88007 0.0
N492 N 0.15519 0.82346 0.91788 0.0
N493 N 0.12623 0.83188 0.85752 0.0
C494 C 0.10555 0.81744 0.88062 0.0
C495 C 0.12129 0.81268 0.9131 0.0
C496 C 0.88828 0.079 0.89092 0.0
C497 C 0.85522 0.08616 0.90619 0.0
C498 C 0.89162 0.05522 0.86233 0.0
C499 C 0.86209 0.03739 0.84807 0.0
H500 H 0.91187 0.09171 0.90127 0.0
H501 H 0.91768 0.05039 0.85161 0.0
S502 S 0.76972 0.04605 0.87919 0.0
N503 N 0.79231 0.07347 0.90498 0.0
N504 N 0.79875 0.0282 0.85181 0.0
C505 C 0.82878 0.04465 0.8628 0.0
C506 C 0.82532 0.06913 0.89172 0.0
C507 C 0.42584 0.34061 0.4307 0.0
C508 C 0.40537 0.31492 0.4436 0.0
C509 C 0.4425 0.33572 0.39862 0.0
C510 C 0.43939 0.30498 0.37791 0.0
H511 H 0.42978 0.36457 0.44578 0.0
H512 H 0.45874 0.35597 0.39038 0.0
S513 S 0.38641 0.23062 0.39781 0.0
N514 N 0.38128 0.25808 0.43178 0.0
N515 N 0.41256 0.24921 0.37138 0.0
C516 C 0.41831 0.27937 0.38988 0.0
C517 C 0.40128 0.28427 0.42265 0.0
C518 C 0.23153 0.94552 0.01239 0.0
C519 C 0.20444 0.92416 0.99841 0.0
C520 C 0.2424 0.97383 0.99581 0.0
C521 C 0.22697 0.98145 0.96441 0.0
H522 H 0.2429 0.94156 0.03728 0.0
H523 H 0.26202 0.99065 0.00832 0.0
S524 S 0.15783 0.93103 0.91528 0.0
N525 N 0.16487 0.91066 0.9498 0.0
N526 N 0.18492 0.96376 0.91895 0.0
C527 C 0.20154 0.95893 0.94913 0.0
C528 C 0.19038 0.93034 0.96605 0.0
C529 C 0.53119 0.64974 0.45226 0.0
C530 C 0.54374 0.67732 0.47406 0.0
C531 C 0.49699 0.64953 0.43859 0.0
C532 C 0.47377 0.67663 0.44667 0.0
H533 H 0.54773 0.62778 0.44624 0.0
H534 H 0.48813 0.62725 0.42281 0.0
S535 S 0.49418 0.75549 0.50134 0.0
N536 N 0.53092 0.73313 0.50191 0.0
N537 N 0.46605 0.73242 0.47665 0.0
C538 C 0.48623 0.70481 0.46765 0.0
C539 C 0.5214 0.70527 0.48116 0.0
C540 C 0.37009 0.44379 0.65401 0.0
C541 C 0.33775 0.42829 0.64397 0.0
C542 C 0.37211 0.4685 0.68191 0.0
C543 C 0.34189 0.4789 0.70088 0.0
H544 H 0.39411 0.43702 0.64007 0.0
H545 H 0.39758 0.47984 0.68845 0.0
S546 S 0.2508 0.44629 0.68567 0.0
N547 N 0.27475 0.42481 0.65597 0.0
N548 N 0.27867 0.47174 0.70795 0.0
C549 C 0.30951 0.46319 0.69172 0.0
C550 C 0.30741 0.43783 0.66338 0.0
C551 C 0.01894 0.79011 0.10829 0.0
C552 C 0.02537 0.80691 0.07863 0.0
C553 C 0.98526 0.79067 0.12347 0.0
C554 C 0.95683 0.80791 0.10941 0.0
H555 H 0.04036 0.77769 0.12068 0.0
H556 H 0.98176 0.77846 0.14702 0.0
S557 S 0.95871 0.85128 0.02891 0.0
N558 N 0.99967 0.83826 0.03379 0.0
N559 N 0.93656 0.83883 0.06197 0.0
C560 C 0.96257 0.82322 0.07875 0.0
C561 C 0.99674 0.8228 0.06344 0.0
C562 C 0.70529 0.53906 0.56959 0.0
C563 C 0.72539 0.56681 0.56057 0.0
C564 C 0.7207 0.51284 0.58596 0.0
C565 C 0.75682 0.51322 0.59433 0.0
H566 H 0.67738 0.53715 0.56349 0.0
H567 H 0.70406 0.49204 0.59229 0.0
S568 S 0.82122 0.58016 0.57776 0.0
N569 N 0.78354 0.59331 0.56211 0.0
N570 N 0.81237 0.5437 0.59333 0.0
C571 C 0.77728 0.54092 0.58622 0.0
C572 C 0.76163 0.56771 0.56915 0.0
C573 C 0.90672 0.17635 0.13186 0.0
C574 C 0.91642 0.199 0.10782 0.0
C575 C 0.92011 0.17978 0.16552 0.0
C576 C 0.94447 0.20549 0.17627 0.0
H577 H 0.88885 0.1556 0.12449 0.0
H578 H 0.91204 0.16149 0.18301 0.0
S579 S 0.97789 0.27153 0.12275 0.0
N580 N 0.95046 0.2488 0.09703 0.0
N581 N 0.97723 0.25437 0.15986 0.0
C582 C 0.95359 0.22894 0.15263 0.0
C583 C 0.93925 0.22583 0.11849 0.0
C584 C 0.18615 0.73438 0.15293 0.0
C585 C 0.18033 0.76938 0.15309 0.0
C586 C 0.1969 0.71999 0.18298 0.0
C587 C 0.20184 0.74009 0.21428 0.0
H588 H 0.18415 0.71826 0.12907 0.0
H589 H 0.20305 0.69327 0.18127 0.0
S590 S 0.18342 0.83197 0.22954 0.0
N591 N 0.17608 0.82305 0.18791 0.0
N592 N 0.19517 0.79597 0.24448 0.0
C593 C 0.19352 0.7747 0.2152 0.0
C594 C 0.18308 0.78935 0.1846 0.0
C595 C 0.79336 0.72497 0.55972 0.0
C596 C 0.7572 0.73102 0.56607 0.0
C597 C 0.81948 0.74063 0.58114 0.0
C598 C 0.81055 0.76297 0.60978 0.0
H599 H 0.80168 0.7079 0.53805 0.0
H600 H 0.84693 0.73515 0.57526 0.0
S601 S 0.72 0.78662 0.63878 0.0
N602 N 0.71397 0.76073 0.60371 0.0
N603 N 0.7632 0.78978 0.64406 0.0
C604 C 0.77462 0.76944 0.61645 0.0
C605 C 0.74794 0.75356 0.5946 0.0
C606 C 0.73356 0.22546 0.07355 0.0
C607 C 0.76481 0.24167 0.06413 0.0
C608 C 0.70962 0.24159 0.09702 0.0
C609 C 0.71577 0.27469 0.11169 0.0
H610 H 0.72753 0.19997 0.06292 0.0
H611 H 0.68595 0.22818 0.10349 0.0
S612 S 0.79366 0.32824 0.09692 0.0
N613 N 0.80054 0.29295 0.07223 0.0
N614 N 0.75565 0.32283 0.11628 0.0
C615 C 0.74683 0.29118 0.10275 0.0
C616 C 0.77129 0.27481 0.07903 0.0
C617 C 0.31936 0.23373 0.64535 0.0
C618 C 0.30927 0.26782 0.64491 0.0
C619 C 0.31499 0.21634 0.67484 0.0
C620 C 0.30055 0.23235 0.70524 0.0
H621 H 0.33029 0.22009 0.62252 0.0
H622 H 0.32242 0.18993 0.6736 0.0
S623 S 0.2729 0.32219 0.7188 0.0
N624 N 0.28587 0.31746 0.67825 0.0
N625 N 0.27825 0.28492 0.73384 0.0
C626 C 0.29103 0.26663 0.70547 0.0
C627 C 0.29524 0.28431 0.67531 0.0
C628 C 0.71373 0.71251 0.38761 0.0
C629 C 0.69378 0.72808 0.41511 0.0
C630 C 0.71711 0.72724 0.35643 0.0
C631 C 0.70055 0.75802 0.35141 0.0
H632 H 0.72673 0.68853 0.38996 0.0
H633 H 0.73249 0.71424 0.33595 0.0
S634 S 0.64712 0.81042 0.41532 0.0
N635 N 0.65824 0.77699 0.43527 0.0
N636 N 0.66494 0.80459 0.37667 0.0
C637 C 0.68091 0.77417 0.37862 0.0
C638 C 0.67746 0.75925 0.41044 0.0
C639 C 0.77911 0.23032 0.89108 0.0
C640 C 0.81029 0.24069 0.90888 0.0
C641 C 0.76961 0.24343 0.86025 0.0
C642 C 0.79081 0.26751 0.84578 0.0
H643 H 0.76172 0.21176 0.90091 0.0
H644 H 0.74527 0.23472 0.84769 0.0
S645 S 0.8752 0.30318 0.88136 0.0
N646 N 0.86249 0.27678 0.90939 0.0
N647 N 0.84439 0.3013 0.85112 0.0
C648 C 0.82184 0.27852 0.86324 0.0
C649 C 0.83164 0.26513 0.89481 0.0
C650 C 0.26075 0.23391 0.47394 0.0
C651 C 0.2502 0.26352 0.49382 0.0
C652 C 0.23681 0.21501 0.45263 0.0
C653 C 0.20134 0.22493 0.4502 0.0
H654 H 0.2878 0.22513 0.47466 0.0
H655 H 0.24627 0.19259 0.43761 0.0
S656 S 0.1595 0.29962 0.49716 0.0
N657 N 0.20119 0.3015 0.50981 0.0
N658 N 0.15634 0.26559 0.46976 0.0
C659 C 0.19022 0.25431 0.46981 0.0
C660 C 0.21458 0.27365 0.49163 0.0
C661 C 0.24874 0.73329 0.99469 0.0
C662 C 0.24822 0.76821 0.00473 0.0
C663 C 0.27516 0.71896 0.97288 0.0
C664 C 0.30193 0.73902 0.96008 0.0
H665 H 0.22856 0.71687 0.00372 0.0
H666 H 0.27455 0.69195 0.96589 0.0
S667 S 0.31108 0.83212 0.97655 0.0
N668 N 0.27624 0.82268 0.99917 0.0
N669 N 0.32532 0.79582 0.95775 0.0
C670 C 0.30165 0.77398 0.9698 0.0
C671 C 0.27495 0.78854 0.9922 0.0
loop_
_geom_bond_atom_site_label_1
_geom_bond_atom_site_label_2
_geom_bond_distance
_geom_bond_site_symmetry_2
_ccdc_geom_bond_type
Sc0 O3 2.025 . S
Sc0 O10 2.105 . S
Sc0 O13 2.105 . S
Sc0 O16 2.105 . S
Sc0 O19 2.105 1_554 S
Sc1 O3 2.025 . S
Sc1 O11 2.105 1_554 S
Sc1 O15 2.105 . S
Sc1 O17 2.105 . S
Sc1 O21 2.105 . S
Sc2 O3 2.025 . S
Sc2 O12 2.105 . S
Sc2 O14 2.105 . S
Sc2 O18 2.105 . S
Sc2 O20 2.105 . S
O3 Sc0 2.025 . S
O3 Sc1 2.025 . S
O3 Sc2 2.025 . S
C4 O10 1.268 . S
C4 O20 1.268 . S
C5 O11 1.268 . S
C5 O19 1.268 . S
C6 O12 1.268 . S
C6 O21 1.268 . S
C7 O13 1.268 . S
C7 O17 1.268 . S
C8 O14 1.268 . S
C8 O16 1.268 . S
C9 O15 1.268 . S
C9 O18 1.268 . S
O10 Sc0 2.105 . S
O10 C4 1.268 . S
O11 Sc1 2.105 1_556 S
O11 C5 1.268 . S
O12 Sc2 2.105 . S
O12 C6 1.268 . S
O13 Sc0 2.105 . S
O13 C7 1.268 . S
O14 Sc2 2.105 . S
O14 C8 1.268 . S
O15 Sc1 2.105 . S
O15 C9 1.268 . S
O16 Sc0 2.105 . S
O16 C8 1.268 . S
O17 Sc1 2.105 . S
O17 C7 1.268 . S
O18 Sc2 2.105 . S
O18 C9 1.268 . S
O19 Sc0 2.105 1_556 S
O19 C5 1.268 . S
O20 Sc2 2.105 . S
O20 C4 1.268 . S
O21 Sc1 2.105 . S
O21 C6 1.268 . S
Sc22 O25 2.025 . S
Sc22 O32 2.105 . S
Sc22 O35 2.105 . S
Sc22 O38 2.105 . S
Sc22 O41 2.105 . S
Sc23 O25 2.025 . S
Sc23 O33 2.105 . S
Sc23 O37 2.105 . S
Sc23 O39 2.105 . S
Sc23 O43 2.105 . S
Sc24 O25 2.025 . S
Sc24 O34 2.105 . S
Sc24 O36 2.105 . S
Sc24 O40 2.105 . S
Sc24 O42 2.105 . S
O25 Sc22 2.025 . S
O25 Sc23 2.025 . S
O25 Sc24 2.025 . S
C26 O32 1.268 . S
C26 O42 1.268 . S
C27 O33 1.268 . S
C27 O41 1.268 . S
C28 O34 1.268 . S
C28 O43 1.268 . S
C29 O35 1.268 . S
C29 O39 1.268 . S
C30 O36 1.268 . S
C30 O38 1.268 . S
C31 O37 1.268 . S
C31 O40 1.268 . S
O32 Sc22 2.105 . S
O32 C26 1.268 . S
O33 Sc23 2.105 . S
O33 C27 1.268 . S
O34 Sc24 2.105 . S
O34 C28 1.268 . S
O35 Sc22 2.105 . S
O35 C29 1.268 . S
O36 Sc24 2.105 . S
O36 C30 1.268 . S
O37 Sc23 2.105 . S
O37 C31 1.268 . S
O38 Sc22 2.105 . S
O38 C30 1.268 . S
O39 Sc23 2.105 . S
O39 C29 1.268 . S
O40 Sc24 2.105 . S
O40 C31 1.268 . S
O41 Sc22 2.105 . S
O41 C27 1.268 . S
O42 Sc24 2.105 . S
O42 C26 1.268 . S
O43 Sc23 2.105 . S
O43 C28 1.268 . S
Sc44 O47 2.025 . S
Sc44 O54 2.105 1_554 S
Sc44 O57 2.105 . S
Sc44 O60 2.105 . S
Sc44 O63 2.105 1_554 S
Sc45 O47 2.025 1_556 S
Sc45 O55 2.105 . S
Sc45 O59 2.105 1_556 S
Sc45 O61 2.105 1_556 S
Sc45 O65 2.105 . S
Sc46 O47 2.025 . S
Sc46 O56 2.105 1_554 S
Sc46 O58 2.105 . S
Sc46 O62 2.105 . S
Sc46 O64 2.105 1_554 S
O47 Sc44 2.025 . S
O47 Sc45 2.025 1_554 S
O47 Sc46 2.025 . S
C48 O54 1.268 . S
C48 O64 1.268 . S
C49 O55 1.268 . S
C49 O63 1.268 . S
C50 O56 1.268 . S
C50 O65 1.268 . S
C51 O57 1.268 . S
C51 O61 1.268 . S
C52 O58 1.268 . S
C52 O60 1.268 . S
C53 O59 1.268 . S
C53 O62 1.268 . S
O54 Sc44 2.105 1_556 S
O54 C48 1.268 . S
O55 Sc45 2.105 . S
O55 C49 1.268 . S
O56 Sc46 2.105 1_556 S
O56 C50 1.268 . S
O57 Sc44 2.105 . S
O57 C51 1.268 . S
O58 Sc46 2.105 . S
O58 C52 1.268 . S
O59 Sc45 2.105 1_554 S
O59 C53 1.268 . S
O60 Sc44 2.105 . S
O60 C52 1.268 . S
O61 Sc45 2.105 1_554 S
O61 C51 1.268 . S
O62 Sc46 2.105 . S
O62 C53 1.268 . S
O63 Sc44 2.105 1_556 S
O63 C49 1.268 . S
O64 Sc46 2.105 1_556 S
O64 C48 1.268 . S
O65 Sc45 2.105 . S
O65 C50 1.268 . S
Sc66 O69 2.025 . S
Sc66 O76 2.105 . S
Sc66 O79 2.105 . S
Sc66 O82 2.105 . S
Sc66 O85 2.105 . S
Sc67 O69 2.025 . S
Sc67 O77 2.105 . S
Sc67 O81 2.105 . S
Sc67 O83 2.105 . S
Sc67 O87 2.105 . S
Sc68 O69 2.025 . S
Sc68 O78 2.105 . S
Sc68 O80 2.105 . S
Sc68 O84 2.105 . S
Sc68 O86 2.105 . S
O69 Sc66 2.025 . S
O69 Sc67 2.025 . S
O69 Sc68 2.025 . S
C70 O76 1.268 . S
C70 O86 1.268 . S
C71 O77 1.268 . S
C71 O85 1.268 . S
C72 O78 1.268 . S
C72 O87 1.268 . S
C73 O79 1.268 . S
C73 O83 1.268 . S
C74 O80 1.268 . S
C74 O82 1.268 . S
C75 O81 1.268 . S
C75 O84 1.268 . S
O76 Sc66 2.105 . S
O76 C70 1.268 . S
O77 Sc67 2.105 . S
O77 C71 1.268 . S
O78 Sc68 2.105 . S
O78 C72 1.268 . S
O79 Sc66 2.105 . S
O79 C73 1.268 . S
O80 Sc68 2.105 . S
O80 C74 1.268 . S
O81 Sc67 2.105 . S
O81 C75 1.268 . S
O82 Sc66 2.105 . S
O82 C74 1.268 . S
O83 Sc67 2.105 . S
O83 C73 1.268 . S
O84 Sc68 2.105 . S
O84 C75 1.268 . S
O85 Sc66 2.105 . S
O85 C71 1.268 . S
O86 Sc68 2.105 . S
O86 C70 1.268 . S
O87 Sc67 2.105 . S
O87 C72 1.268 . S
C88 C89 1.264 . S
C88 C93 1.479 . S
C88 C98 1.465 1_655 S
C89 C88 1.264 . S
C89 C91 1.339 . S
C89 H116 0.931 . S
C90 C91 1.395 . S
C90 C92 1.320 . S
C91 C89 1.339 . S
C91 C90 1.395 . S
C91 H117 0.929 . S
C92 C90 1.320 . S
C92 C93 1.405 . S
C92 H118 0.930 . S
C93 C88 1.479 . S
C93 C92 1.405 . S
C93 H119 0.931 . S
U94 O95 2.454 . S
U94 O96 2.458 . S
U94 C97 2.984 . S
U94 C98 2.847 . S
U94 C111 2.882 . S
U94 O112 2.441 . S
U94 O113 2.420 . S
U94 O114 2.455 . S
U94 O115 2.449 . S
O95 U94 2.454 . S
O95 C97 1.353 . S
O96 U94 2.458 . S
O96 C97 1.286 . S
C97 U94 2.984 . S
C97 O95 1.353 . S
C97 O96 1.286 . S
C97 C99 1.363 . S
C98 C88 1.465 1_455 S
C98 U94 2.847 . S
C98 O112 1.249 . S
C98 O113 1.202 . S
C99 C97 1.363 . S
C99 C101 1.408 . S
C99 C104 1.342 . S
C100 C101 1.310 . S
C100 C103 1.461 . S
C100 H120 0.932 . S
C101 C99 1.408 . S
C101 C100 1.310 . S
C101 H121 0.930 . S
C102 C103 1.474 . S
C102 C104 1.285 . S
C102 H122 0.929 . S
C103 C100 1.461 . S
C103 C102 1.474 . S
C104 C99 1.342 . S
C104 C102 1.285 . S
C104 H123 0.930 . S
C105 C108 1.424 . S
C105 C110 1.245 . S
C105 C111 1.428 . S
C106 C109 1.260 . S
C106 C110 1.477 1_565 S
C106 H124 0.932 . S
C107 C108 1.384 1_565 S
C107 C109 1.479 . S
C107 H125 0.929 . S
C108 C105 1.424 . S
C108 C107 1.384 1_545 S
C108 H126 0.928 . S
C109 C106 1.260 . S
C109 C107 1.479 . S
C110 C105 1.245 . S
C110 C106 1.477 1_545 S
C110 H127 0.932 . S
C111 U94 2.882 . S
C111 C105 1.428 . S
C111 O114 1.301 . S
C111 O115 1.282 . S
O112 U94 2.441 . S
O112 C98 1.249 . S
O113 U94 2.420 . S
O113 C98 1.202 . S
O114 U94 2.455 . S
O114 C111 1.301 . S
O115 U94 2.449 . S
O115 C111 1.282 . S
H116 C89 0.931 . S
H117 C91 0.929 . S
H118 C92 0.930 . S
H119 C93 0.931 . S
H120 C100 0.932 . S
H121 C101 0.930 . S
H122 C102 0.929 . S
H123 C104 0.930 . S
H124 C106 0.932 . S
H125 C107 0.929 . S
H126 C108 0.928 . S
H127 C110 0.932 . S
C128 C129 1.264 . S
C128 C133 1.479 . S
C128 C138 1.465 . S
C129 C128 1.264 . S
C129 C131 1.339 . S
C129 H156 0.931 . S
C130 C131 1.395 . S
C130 C132 1.320 . S
C131 C129 1.339 . S
C131 C130 1.395 . S
C131 H157 0.929 . S
C132 C130 1.320 . S
C132 C133 1.405 . S
C132 H158 0.930 . S
C133 C128 1.479 . S
C133 C132 1.405 . S
C133 H159 0.931 . S
U134 O135 2.454 . S
U134 O136 2.458 . S
U134 C137 2.984 . S
U134 C138 2.847 . S
U134 C151 2.882 . S
U134 O152 2.441 . S
U134 O153 2.420 . S
U134 O154 2.455 . S
U134 O155 2.449 . S
O135 U134 2.454 . S
O135 C137 1.353 . S
O136 U134 2.458 . S
O136 C137 1.286 . S
C137 U134 2.984 . S
C137 O135 1.353 . S
C137 O136 1.286 . S
C137 C139 1.363 . S
C138 C128 1.465 . S
C138 U134 2.847 . S
C138 O152 1.249 . S
C138 O153 1.202 . S
C139 C137 1.363 . S
C139 C141 1.408 . S
C139 C144 1.342 . S
C140 C141 1.310 . S
C140 C143 1.461 . S
C140 H160 0.932 . S
C141 C139 1.408 . S
C141 C140 1.310 . S
C141 H161 0.930 . S
C142 C143 1.474 . S
C142 C144 1.285 . S
C142 H162 0.929 . S
C143 C140 1.461 . S
C143 C142 1.474 . S
C144 C139 1.342 . S
C144 C142 1.285 . S
C144 H163 0.930 . S
C145 C148 1.424 . S
C145 C150 1.245 . S
C145 C151 1.428 . S
C146 C149 1.260 . S
C146 C150 1.477 . S
C146 H164 0.932 . S
C147 C148 1.384 . S
C147 C149 1.479 . S
C147 H165 0.929 . S
C148 C145 1.424 . S
C148 C147 1.384 . S
C148 H166 0.928 . S
C149 C146 1.260 . S
C149 C147 1.479 . S
C150 C145 1.245 . S
C150 C146 1.477 . S
C150 H167 0.932 . S
C151 U134 2.882 . S
C151 C145 1.428 . S
C151 O154 1.301 . S
C151 O155 1.282 . S
O152 U134 2.441 . S
O152 C138 1.249 . S
O153 U134 2.420 . S
O153 C138 1.202 . S
O154 U134 2.455 . S
O154 C151 1.301 . S
O155 U134 2.449 . S
O155 C151 1.282 . S
H156 C129 0.931 . S
H157 C131 0.929 . S
H158 C132 0.930 . S
H159 C133 0.931 . S
H160 C140 0.932 . S
H161 C141 0.930 . S
H162 C142 0.929 . S
H163 C144 0.930 . S
H164 C146 0.932 . S
H165 C147 0.929 . S
H166 C148 0.928 . S
H167 C150 0.932 . S
C168 C169 1.264 . S
C168 C173 1.479 . S
C168 C178 1.465 . S
C169 C168 1.264 . S
C169 C171 1.339 . S
C169 H196 0.931 . S
C170 C171 1.395 . S
C170 C172 1.320 . S
C171 C169 1.339 . S
C171 C170 1.395 . S
C171 H197 0.929 . S
C172 C170 1.320 . S
C172 C173 1.405 . S
C172 H198 0.930 . S
C173 C168 1.479 . S
C173 C172 1.405 . S
C173 H199 0.931 . S
U174 O175 2.454 . S
U174 O176 2.458 . S
U174 C177 2.984 . S
U174 C178 2.847 . S
U174 C191 2.882 . S
U174 O192 2.441 . S
U174 O193 2.420 . S
U174 O194 2.455 . S
U174 O195 2.449 . S
O175 U174 2.454 . S
O175 C177 1.353 . S
O176 U174 2.458 . S
O176 C177 1.286 . S
C177 U174 2.984 . S
C177 O175 1.353 . S
C177 O176 1.286 . S
C177 C179 1.363 . S
C178 C168 1.465 . S
C178 U174 2.847 . S
C178 O192 1.249 . S
C178 O193 1.202 . S
C179 C177 1.363 . S
C179 C181 1.408 . S
C179 C184 1.342 . S
C180 C181 1.310 . S
C180 C183 1.461 . S
C180 H200 0.932 . S
C181 C179 1.408 . S
C181 C180 1.310 . S
C181 H201 0.930 . S
C182 C183 1.474 . S
C182 C184 1.285 . S
C182 H202 0.929 . S
C183 C180 1.461 . S
C183 C182 1.474 . S
C184 C179 1.342 . S
C184 C182 1.285 . S
C184 H203 0.930 . S
C185 C188 1.424 . S
C185 C190 1.245 . S
C185 C191 1.428 . S
C186 C189 1.260 . S
C186 C190 1.477 . S
C186 H204 0.932 . S
C187 C188 1.384 . S
C187 C189 1.479 . S
C187 H205 0.929 . S
C188 C185 1.424 . S
C188 C187 1.384 . S
C188 H206 0.928 . S
C189 C186 1.260 . S
C189 C187 1.479 . S
C190 C185 1.245 . S
C190 C186 1.477 . S
C190 H207 0.932 . S
C191 U174 2.882 . S
C191 C185 1.428 . S
C191 O194 1.301 . S
C191 O195 1.282 . S
O192 U174 2.441 . S
O192 C178 1.249 . S
O193 U174 2.420 . S
O193 C178 1.202 . S
O194 U174 2.455 . S
O194 C191 1.301 . S
O195 U174 2.449 . S
O195 C191 1.282 . S
H196 C169 0.931 . S
H197 C171 0.929 . S
H198 C172 0.930 . S
H199 C173 0.931 . S
H200 C180 0.932 . S
H201 C181 0.930 . S
H202 C182 0.929 . S
H203 C184 0.930 . S
H204 C186 0.932 . S
H205 C187 0.929 . S
H206 C188 0.928 . S
H207 C190 0.932 . S
C208 C209 1.264 . S
C208 C213 1.479 . S
C208 C218 1.465 . S
C209 C208 1.264 . S
C209 C211 1.339 . S
C209 H236 0.931 . S
C210 C211 1.395 . S
C210 C212 1.320 . S
C211 C209 1.339 . S
C211 C210 1.395 . S
C211 H237 0.929 . S
C212 C210 1.320 . S
C212 C213 1.405 . S
C212 H238 0.930 . S
C213 C208 1.479 . S
C213 C212 1.405 . S
C213 H239 0.931 . S
U214 O215 2.454 . S
U214 O216 2.458 . S
U214 C217 2.984 . S
U214 C218 2.847 . S
U214 C231 2.882 . S
U214 O232 2.441 . S
U214 O233 2.420 . S
U214 O234 2.455 . S
U214 O235 2.449 . S
O215 U214 2.454 . S
O215 C217 1.353 . S
O216 U214 2.458 . S
O216 C217 1.286 . S
C217 U214 2.984 . S
C217 O215 1.353 . S
C217 O216 1.286 . S
C217 C219 1.363 . S
C218 C208 1.465 . S
C218 U214 2.847 . S
C218 O232 1.249 . S
C218 O233 1.202 . S
C219 C217 1.363 . S
C219 C221 1.408 . S
C219 C224 1.342 . S
C220 C221 1.310 . S
C220 C223 1.461 . S
C220 H240 0.932 . S
C221 C219 1.408 . S
C221 C220 1.310 . S
C221 H241 0.930 . S
C222 C223 1.474 . S
C222 C224 1.285 . S
C222 H242 0.929 . S
C223 C220 1.461 . S
C223 C222 1.474 . S
C224 C219 1.342 . S
C224 C222 1.285 . S
C224 H243 0.930 . S
C225 C228 1.424 . S
C225 C230 1.245 . S
C225 C231 1.428 . S
C226 C229 1.260 . S
C226 C230 1.477 . S
C226 H244 0.932 . S
C227 C228 1.384 . S
C227 C229 1.479 . S
C227 H245 0.929 . S
C228 C225 1.424 . S
C228 C227 1.384 . S
C228 H246 0.928 . S
C229 C226 1.260 . S
C229 C227 1.479 . S
C230 C225 1.245 . S
C230 C226 1.477 . S
C230 H247 0.932 . S
C231 U214 2.882 . S
C231 C225 1.428 . S
C231 O234 1.301 . S
C231 O235 1.282 . S
O232 U214 2.441 . S
O232 C218 1.249 . S
O233 U214 2.420 . S
O233 C218 1.202 . S
O234 U214 2.455 . S
O234 C231 1.301 . S
O235 U214 2.449 . S
O235 C231 1.282 . S
H236 C209 0.931 . S
H237 C211 0.929 . S
H238 C212 0.930 . S
H239 C213 0.931 . S
H240 C220 0.932 . S
H241 C221 0.930 . S
H242 C222 0.929 . S
H243 C224 0.930 . S
H244 C226 0.932 . S
H245 C227 0.929 . S
H246 C228 0.928 . S
H247 C230 0.932 . S
C248 C249 1.264 . S
C248 C253 1.479 . S
C248 C258 1.465 . S
C249 C248 1.264 . S
C249 C251 1.339 . S
C249 H276 0.931 . S
C250 C251 1.395 . S
C250 C252 1.320 . S
C251 C249 1.339 . S
C251 C250 1.395 . S
C251 H277 0.929 . S
C252 C250 1.320 . S
C252 C253 1.405 . S
C252 H278 0.930 . S
C253 C248 1.479 . S
C253 C252 1.405 . S
C253 H279 0.931 . S
U254 O255 2.454 . S
U254 O256 2.458 . S
U254 C257 2.984 . S
U254 C258 2.847 . S
U254 C271 2.882 . S
U254 O272 2.441 . S
U254 O273 2.420 . S
U254 O274 2.455 . S
U254 O275 2.449 . S
O255 U254 2.454 . S
O255 C257 1.353 . S
O256 U254 2.458 . S
O256 C257 1.286 . S
C257 U254 2.984 . S
C257 O255 1.353 . S
C257 O256 1.286 . S
C257 C259 1.363 . S
C258 C248 1.465 . S
C258 U254 2.847 . S
C258 O272 1.249 . S
C258 O273 1.202 . S
C259 C257 1.363 . S
C259 C261 1.408 . S
C259 C264 1.342 . S
C260 C261 1.310 . S
C260 C263 1.461 . S
C260 H280 0.932 . S
C261 C259 1.408 . S
C261 C260 1.310 . S
C261 H281 0.930 . S
C262 C263 1.474 . S
C262 C264 1.285 . S
C262 H282 0.929 . S
C263 C260 1.461 . S
C263 C262 1.474 . S
C264 C259 1.342 . S
C264 C262 1.285 . S
C264 H283 0.930 . S
C265 C268 1.424 . S
C265 C270 1.245 . S
C265 C271 1.428 . S
C266 C269 1.260 . S
C266 C270 1.477 . S
C266 H284 0.932 . S
C267 C268 1.384 . S
C267 C269 1.479 . S
C267 H285 0.929 . S
C268 C265 1.424 . S
C268 C267 1.384 . S
C268 H286 0.928 . S
C269 C266 1.260 . S
C269 C267 1.479 . S
C270 C265 1.245 . S
C270 C266 1.477 . S
C270 H287 0.932 . S
C271 U254 2.882 . S
C271 C265 1.428 . S
C271 O274 1.301 . S
C271 O275 1.282 . S
O272 U254 2.441 . S
O272 C258 1.249 . S
O273 U254 2.420 . S
O273 C258 1.202 . S
O274 U254 2.455 . S
O274 C271 1.301 . S
O275 U254 2.449 . S
O275 C271 1.282 . S
H276 C249 0.931 . S
H277 C251 0.929 . S
H278 C252 0.930 . S
H279 C253 0.931 . S
H280 C260 0.932 . S
H281 C261 0.930 . S
H282 C262 0.929 . S
H283 C264 0.930 . S
H284 C266 0.932 . S
H285 C267 0.929 . S
H286 C268 0.928 . S
H287 C270 0.932 . S
C288 C289 1.264 . S
C288 C293 1.479 . S
C288 C298 1.465 . S
C289 C288 1.264 . S
C289 C291 1.339 . S
C289 H316 0.931 . S
C290 C291 1.395 . S
C290 C292 1.320 . S
C291 C289 1.339 . S
C291 C290 1.395 . S
C291 H317 0.929 . S
C292 C290 1.320 . S
C292 C293 1.405 . S
C292 H318 0.930 . S
C293 C288 1.479 . S
C293 C292 1.405 . S
C293 H319 0.931 . S
U294 O295 2.454 . S
U294 O296 2.458 . S
U294 C297 2.984 . S
U294 C298 2.847 . S
U294 C311 2.882 . S
U294 O312 2.441 . S
U294 O313 2.420 . S
U294 O314 2.455 . S
U294 O315 2.449 . S
O295 U294 2.454 . S
O295 C297 1.353 . S
O296 U294 2.458 . S
O296 C297 1.286 . S
C297 U294 2.984 . S
C297 O295 1.353 . S
C297 O296 1.286 . S
C297 C299 1.363 . S
C298 C288 1.465 . S
C298 U294 2.847 . S
C298 O312 1.249 . S
C298 O313 1.202 . S
C299 C297 1.363 . S
C299 C301 1.408 . S
C299 C304 1.342 . S
C300 C301 1.310 . S
C300 C303 1.461 . S
C300 H320 0.932 . S
C301 C299 1.408 . S
C301 C300 1.310 . S
C301 H321 0.930 . S
C302 C303 1.474 . S
C302 C304 1.285 . S
C302 H322 0.929 . S
C303 C300 1.461 . S
C303 C302 1.474 . S
C304 C299 1.342 . S
C304 C302 1.285 . S
C304 H323 0.930 . S
C305 C308 1.424 . S
C305 C310 1.245 . S
C305 C311 1.428 . S
C306 C309 1.260 . S
C306 C310 1.477 . S
C306 H324 0.932 . S
C307 C308 1.384 . S
C307 C309 1.479 . S
C307 H325 0.929 . S
C308 C305 1.424 . S
C308 C307 1.384 . S
C308 H326 0.928 . S
C309 C306 1.260 . S
C309 C307 1.479 . S
C310 C305 1.245 . S
C310 C306 1.477 . S
C310 H327 0.932 . S
C311 U294 2.882 . S
C311 C305 1.428 . S
C311 O314 1.301 . S
C311 O315 1.282 . S
O312 U294 2.441 . S
O312 C298 1.249 . S
O313 U294 2.420 . S
O313 C298 1.202 . S
O314 U294 2.455 . S
O314 C311 1.301 . S
O315 U294 2.449 . S
O315 C311 1.282 . S
H316 C289 0.931 . S
H317 C291 0.929 . S
H318 C292 0.930 . S
H319 C293 0.931 . S
H320 C300 0.932 . S
H321 C301 0.930 . S
H322 C302 0.929 . S
H323 C304 0.930 . S
H324 C306 0.932 . S
H325 C307 0.929 . S
H326 C308 0.928 . S
H327 C310 0.932 . S
C328 C329 1.264 . S
C328 C333 1.479 . S
C328 C338 1.465 . S
C329 C328 1.264 . S
C329 C331 1.339 . S
C329 H356 0.931 . S
C330 C331 1.395 . S
C330 C332 1.320 . S
C331 C329 1.339 . S
C331 C330 1.395 . S
C331 H357 0.929 . S
C332 C330 1.320 . S
C332 C333 1.405 . S
C332 H358 0.930 . S
C333 C328 1.479 . S
C333 C332 1.405 . S
C333 H359 0.931 . S
U334 O335 2.454 . S
U334 O336 2.458 . S
U334 C337 2.984 . S
U334 C338 2.847 . S
U334 C351 2.882 . S
U334 O352 2.441 . S
U334 O353 2.420 . S
U334 O354 2.455 . S
U334 O355 2.449 . S
O335 U334 2.454 . S
O335 C337 1.353 . S
O336 U334 2.458 . S
O336 C337 1.286 . S
C337 U334 2.984 . S
C337 O335 1.353 . S
C337 O336 1.286 . S
C337 C339 1.363 . S
C338 C328 1.465 . S
C338 U334 2.847 . S
C338 O352 1.249 . S
C338 O353 1.202 . S
C339 C337 1.363 . S
C339 C341 1.408 . S
C339 C344 1.342 . S
C340 C341 1.310 . S
C340 C343 1.461 . S
C340 H360 0.932 . S
C341 C339 1.408 . S
C341 C340 1.310 . S
C341 H361 0.930 . S
C342 C343 1.474 . S
C342 C344 1.285 . S
C342 H362 0.929 . S
C343 C340 1.461 . S
C343 C342 1.474 . S
C344 C339 1.342 . S
C344 C342 1.285 . S
C344 H363 0.930 . S
C345 C348 1.424 . S
C345 C350 1.245 . S
C345 C351 1.428 . S
C346 C349 1.260 . S
C346 C350 1.477 . S
C346 H364 0.932 . S
C347 C348 1.384 . S
C347 C349 1.479 . S
C347 H365 0.929 . S
C348 C345 1.424 . S
C348 C347 1.384 . S
C348 H366 0.928 . S
C349 C346 1.260 . S
C349 C347 1.479 . S
C350 C345 1.245 . S
C350 C346 1.477 . S
C350 H367 0.932 . S
C351 U334 2.882 . S
C351 C345 1.428 . S
C351 O354 1.301 . S
C351 O355 1.282 . S
O352 U334 2.441 . S
O352 C338 1.249 . S
O353 U334 2.420 . S
O353 C338 1.202 . S
O354 U334 2.455 . S
O354 C351 1.301 . S
O355 U334 2.449 . S
O355 C351 1.282 . S
H356 C329 0.931 . S
H357 C331 0.929 . S
H358 C332 0.930 . S
H359 C333 0.931 . S
H360 C340 0.932 . S
H361 C341 0.930 . S
H362 C342 0.929 . S
H363 C344 0.930 . S
H364 C346 0.932 . S
H365 C347 0.929 . S
H366 C348 0.928 . S
H367 C350 0.932 . S
C368 C369 1.264 . S
C368 C373 1.479 . S
C368 C378 1.465 . S
C369 C368 1.264 . S
C369 C371 1.339 1_565 S
C369 H396 0.931 . S
C370 C371 1.395 . S
C370 C372 1.320 . S
C371 C369 1.339 1_545 S
C371 C370 1.395 . S
C371 H397 0.929 . S
C372 C370 1.320 . S
C372 C373 1.405 1_545 S
C372 H398 0.930 . S
C373 C368 1.479 . S
C373 C372 1.405 1_565 S
C373 H399 0.931 . S
U374 O375 2.454 . S
U374 O376 2.458 . S
U374 C377 2.984 . S
U374 C378 2.847 . S
U374 C391 2.882 . S
U374 O392 2.441 . S
U374 O393 2.420 . S
U374 O394 2.455 . S
U374 O395 2.449 . S
O375 U374 2.454 . S
O375 C377 1.353 . S
O376 U374 2.458 . S
O376 C377 1.286 . S
C377 U374 2.984 . S
C377 O375 1.353 . S
C377 O376 1.286 . S
C377 C379 1.363 . S
C378 C368 1.465 . S
C378 U374 2.847 . S
C378 O392 1.249 . S
C378 O393 1.202 . S
C379 C377 1.363 . S
C379 C381 1.408 . S
C379 C384 1.342 . S
C380 C381 1.310 . S
C380 C383 1.461 . S
C380 H400 0.932 . S
C381 C379 1.408 . S
C381 C380 1.310 . S
C381 H401 0.930 . S
C382 C383 1.474 . S
C382 C384 1.285 . S
C382 H402 0.929 . S
C383 C380 1.461 . S
C383 C382 1.474 . S
C384 C379 1.342 . S
C384 C382 1.285 . S
C384 H403 0.930 . S
C385 C388 1.424 . S
C385 C390 1.245 . S
C385 C391 1.428 1_455 S
C386 C389 1.260 . S
C386 C390 1.477 . S
C386 H404 0.932 . S
C387 C388 1.384 . S
C387 C389 1.479 . S
C387 H405 0.929 . S
C388 C385 1.424 . S
C388 C387 1.384 . S
C388 H406 0.928 . S
C389 C386 1.260 . S
C389 C387 1.479 . S
C390 C385 1.245 . S
C390 C386 1.477 . S
C390 H407 0.932 . S
C391 U374 2.882 . S
C391 C385 1.428 1_655 S
C391 O394 1.301 . S
C391 O395 1.282 . S
O392 U374 2.441 . S
O392 C378 1.249 . S
O393 U374 2.420 . S
O393 C378 1.202 . S
O394 U374 2.455 . S
O394 C391 1.301 . S
O395 U374 2.449 . S
O395 C391 1.282 . S
H396 C369 0.931 . S
H397 C371 0.929 . S
H398 C372 0.930 . S
H399 C373 0.931 . S
H400 C380 0.932 . S
H401 C381 0.930 . S
H402 C382 0.929 . S
H403 C384 0.930 . S
H404 C386 0.932 . S
H405 C387 0.929 . S
H406 C388 0.928 . S
H407 C390 0.932 . S
C408 C409 1.369 . S
C408 C410 1.419 . S
C408 H412 0.930 . S
C409 C408 1.369 . S
C409 C418 1.429 . S
C410 C408 1.419 . S
C410 C411 1.363 . S
C410 H413 0.929 . S
C411 C410 1.363 . S
C411 C417 1.428 . S
H412 C408 0.930 . S
H413 C410 0.929 . S
S414 N415 1.613 . S
S414 N416 1.610 . S
N415 S414 1.613 . S
N415 C418 1.350 . S
N416 S414 1.610 . S
N416 C417 1.351 . S
C417 C411 1.428 . S
C417 N416 1.351 . S
C417 C418 1.434 . S
C418 C409 1.429 . S
C418 N415 1.350 . S
C418 C417 1.434 . S
C419 C420 1.369 . S
C419 C421 1.419 . S
C419 H423 0.930 . S
C420 C419 1.369 . S
C420 C429 1.429 . S
C421 C419 1.419 . S
C421 C422 1.363 . S
C421 H424 0.929 . S
C422 C421 1.363 . S
C422 C428 1.428 . S
H423 C419 0.930 . S
H424 C421 0.929 . S
S425 N426 1.613 . S
S425 N427 1.610 . S
N426 S425 1.613 . S
N426 C429 1.350 . S
N427 S425 1.610 . S
N427 C428 1.351 . S
C428 C422 1.428 . S
C428 N427 1.351 . S
C428 C429 1.434 . S
C429 C420 1.429 . S
C429 N426 1.350 . S
C429 C428 1.434 . S
C430 C431 1.369 . S
C430 C432 1.419 . S
C430 H434 0.930 . S
C431 C430 1.369 . S
C431 C440 1.429 . S
C432 C430 1.419 . S
C432 C433 1.363 . S
C432 H435 0.929 . S
C433 C432 1.363 . S
C433 C439 1.428 . S
H434 C430 0.930 . S
H435 C432 0.929 . S
S436 N437 1.613 . S
S436 N438 1.610 . S
N437 S436 1.613 . S
N437 C440 1.350 . S
N438 S436 1.610 . S
N438 C439 1.351 . S
C439 C433 1.428 . S
C439 N438 1.351 . S
C439 C440 1.434 . S
C440 C431 1.429 . S
C440 N437 1.350 . S
C440 C439 1.434 . S
C441 C442 1.369 . S
C441 C443 1.419 . S
C441 H445 0.930 . S
C442 C441 1.369 . S
C442 C451 1.429 . S
C443 C441 1.419 . S
C443 C444 1.363 . S
C443 H446 0.929 . S
C444 C443 1.363 . S
C444 C450 1.428 . S
H445 C441 0.930 . S
H446 C443 0.929 . S
S447 N448 1.613 . S
S447 N449 1.610 . S
N448 S447 1.613 . S
N448 C451 1.350 . S
N449 S447 1.610 . S
N449 C450 1.351 . S
C450 C444 1.428 . S
C450 N449 1.351 . S
C450 C451 1.434 . S
C451 C442 1.429 . S
C451 N448 1.350 . S
C451 C450 1.434 . S
C452 C453 1.369 . S
C452 C454 1.419 . S
C452 H456 0.930 . S
C453 C452 1.369 . S
C453 C462 1.429 . S
C454 C452 1.419 . S
C454 C455 1.363 . S
C454 H457 0.929 . S
C455 C454 1.363 . S
C455 C461 1.428 . S
H456 C452 0.930 . S
H457 C454 0.929 . S
S458 N459 1.613 . S
S458 N460 1.610 . S
N459 S458 1.613 . S
N459 C462 1.350 . S
N460 S458 1.610 . S
N460 C461 1.351 . S
C461 C455 1.428 . S
C461 N460 1.351 . S
C461 C462 1.434 . S
C462 C453 1.429 . S
C462 N459 1.350 . S
C462 C461 1.434 . S
C463 C464 1.369 . S
C463 C465 1.419 1_655 S
C463 H467 0.930 . S
C464 C463 1.369 . S
C464 C473 1.429 . S
C465 C463 1.419 1_455 S
C465 C466 1.363 . S
C465 H468 0.929 . S
C466 C465 1.363 . S
C466 C472 1.428 . S
H467 C463 0.930 . S
H468 C465 0.929 . S
S469 N470 1.613 1_455 S
S469 N471 1.610 . S
N470 S469 1.613 1_655 S
N470 C473 1.350 . S
N471 S469 1.610 . S
N471 C472 1.351 . S
C472 C466 1.428 . S
C472 N471 1.351 . S
C472 C473 1.434 1_455 S
C473 C464 1.429 . S
C473 N470 1.350 . S
C473 C472 1.434 1_655 S
C474 C475 1.369 . S
C474 C476 1.419 . S
C474 H478 0.930 . S
C475 C474 1.369 . S
C475 C484 1.429 . S
C476 C474 1.419 . S
C476 C477 1.363 . S
C476 H479 0.929 . S
C477 C476 1.363 . S
C477 C483 1.428 . S
H478 C474 0.930 . S
H479 C476 0.929 . S
S480 N481 1.613 . S
S480 N482 1.610 . S
N481 S480 1.613 . S
N481 C484 1.350 . S
N482 S480 1.610 . S
N482 C483 1.351 . S
C483 C477 1.428 . S
C483 N482 1.351 . S
C483 C484 1.434 . S
C484 C475 1.429 . S
C484 N481 1.350 . S
C484 C483 1.434 . S
C485 C486 1.369 . S
C485 C487 1.419 . S
C485 H489 0.930 . S
C486 C485 1.369 . S
C486 C495 1.429 . S
C487 C485 1.419 . S
C487 C488 1.363 . S
C487 H490 0.929 . S
C488 C487 1.363 . S
C488 C494 1.428 . S
H489 C485 0.930 . S
H490 C487 0.929 . S
S491 N492 1.613 . S
S491 N493 1.610 . S
N492 S491 1.613 . S
N492 C495 1.350 . S
N493 S491 1.610 . S
N493 C494 1.351 . S
C494 C488 1.428 . S
C494 N493 1.351 . S
C494 C495 1.434 . S
C495 C486 1.429 . S
C495 N492 1.350 . S
C495 C494 1.434 . S
C496 C497 1.369 . S
C496 C498 1.419 . S
C496 H500 0.930 . S
C497 C496 1.369 . S
C497 C506 1.429 . S
C498 C496 1.419 . S
C498 C499 1.363 . S
C498 H501 0.929 . S
C499 C498 1.363 . S
C499 C505 1.428 . S
H500 C496 0.930 . S
H501 C498 0.929 . S
S502 N503 1.613 . S
S502 N504 1.610 . S
N503 S502 1.613 . S
N503 C506 1.350 . S
N504 S502 1.610 . S
N504 C505 1.351 . S
C505 C499 1.428 . S
C505 N504 1.351 . S
C505 C506 1.434 . S
C506 C497 1.429 . S
C506 N503 1.350 . S
C506 C505 1.434 . S
C507 C508 1.369 . S
C507 C509 1.419 . S
C507 H511 0.930 . S
C508 C507 1.369 . S
C508 C517 1.429 . S
C509 C507 1.419 . S
C509 C510 1.363 . S
C509 H512 0.929 . S
C510 C509 1.363 . S
C510 C516 1.428 . S
H511 C507 0.930 . S
H512 C509 0.929 . S
S513 N514 1.613 . S
S513 N515 1.610 . S
N514 S513 1.613 . S
N514 C517 1.350 . S
N515 S513 1.610 . S
N515 C516 1.351 . S
C516 C510 1.428 . S
C516 N515 1.351 . S
C516 C517 1.434 . S
C517 C508 1.429 . S
C517 N514 1.350 . S
C517 C516 1.434 . S
C518 C519 1.369 . S
C518 C520 1.419 . S
C518 H522 0.930 1_556 S
C519 C518 1.369 . S
C519 C528 1.429 . S
C520 C518 1.419 . S
C520 C521 1.363 . S
C520 H523 0.929 . S
C521 C520 1.363 . S
C521 C527 1.428 . S
H522 C518 0.930 1_554 S
H523 C520 0.929 . S
S524 N525 1.613 1_545 S
S524 N526 1.610 . S
N525 S524 1.613 1_565 S
N525 C528 1.350 . S
N526 S524 1.610 . S
N526 C527 1.351 1_545 S
C527 C521 1.428 . S
C527 N526 1.351 1_565 S
C527 C528 1.434 . S
C528 C519 1.429 . S
C528 N525 1.350 . S
C528 C527 1.434 . S
C529 C530 1.369 . S
C529 C531 1.419 . S
C529 H533 0.930 . S
C530 C529 1.369 . S
C530 C539 1.429 . S
C531 C529 1.419 . S
C531 C532 1.363 . S
C531 H534 0.929 . S
C532 C531 1.363 . S
C532 C538 1.428 . S
H533 C529 0.930 . S
H534 C531 0.929 . S
S535 N536 1.613 . S
S535 N537 1.610 . S
N536 S535 1.613 . S
N536 C539 1.350 . S
N537 S535 1.610 . S
N537 C538 1.351 . S
C538 C532 1.428 . S
C538 N537 1.351 . S
C538 C539 1.434 . S
C539 C530 1.429 . S
C539 N536 1.350 . S
C539 C538 1.434 . S
C540 C541 1.369 . S
C540 C542 1.419 . S
C540 H544 0.930 . S
C541 C540 1.369 . S
C541 C550 1.429 . S
C542 C540 1.419 . S
C542 C543 1.363 . S
C542 H545 0.929 . S
C543 C542 1.363 . S
C543 C549 1.428 . S
H544 C540 0.930 . S
H545 C542 0.929 . S
S546 N547 1.613 . S
S546 N548 1.610 . S
N547 S546 1.613 . S
N547 C550 1.350 . S
N548 S546 1.610 . S
N548 C549 1.351 . S
C549 C543 1.428 . S
C549 N548 1.351 . S
C549 C550 1.434 . S
C550 C541 1.429 . S
C550 N547 1.350 . S
C550 C549 1.434 . S
C551 C552 1.369 . S
C551 C553 1.419 1_455 S
C551 H555 0.930 . S
C552 C551 1.369 . S
C552 C561 1.429 . S
C553 C551 1.419 1_655 S
C553 C554 1.363 . S
C553 H556 0.929 . S
C554 C553 1.363 . S
C554 C560 1.428 . S
H555 C551 0.930 . S
H556 C553 0.929 . S
S557 N558 1.613 1_655 S
S557 N559 1.610 . S
N558 S557 1.613 1_455 S
N558 C561 1.350 . S
N559 S557 1.610 . S
N559 C560 1.351 . S
C560 C554 1.428 . S
C560 N559 1.351 . S
C560 C561 1.434 1_655 S
C561 C552 1.429 . S
C561 N558 1.350 . S
C561 C560 1.434 1_455 S
C562 C563 1.369 . S
C562 C564 1.419 . S
C562 H566 0.930 . S
C563 C562 1.369 . S
C563 C572 1.429 . S
C564 C562 1.419 . S
C564 C565 1.363 . S
C564 H567 0.929 . S
C565 C564 1.363 . S
C565 C571 1.428 . S
H566 C562 0.930 . S
H567 C564 0.929 . S
S568 N569 1.613 . S
S568 N570 1.610 . S
N569 S568 1.613 . S
N569 C572 1.350 . S
N570 S568 1.610 . S
N570 C571 1.351 . S
C571 C565 1.428 . S
C571 N570 1.351 . S
C571 C572 1.434 . S
C572 C563 1.429 . S
C572 N569 1.350 . S
C572 C571 1.434 . S
C573 C574 1.369 . S
C573 C575 1.419 . S
C573 H577 0.930 . S
C574 C573 1.369 . S
C574 C583 1.429 . S
C575 C573 1.419 . S
C575 C576 1.363 . S
C575 H578 0.929 . S
C576 C575 1.363 . S
C576 C582 1.428 . S
H577 C573 0.930 . S
H578 C575 0.929 . S
S579 N580 1.613 . S
S579 N581 1.610 . S
N580 S579 1.613 . S
N580 C583 1.350 . S
N581 S579 1.610 . S
N581 C582 1.351 . S
C582 C576 1.428 . S
C582 N581 1.351 . S
C582 C583 1.434 . S
C583 C574 1.429 . S
C583 N580 1.350 . S
C583 C582 1.434 . S
C584 C585 1.369 . S
C584 C586 1.419 . S
C584 H588 0.930 . S
C585 C584 1.369 . S
C585 C594 1.429 . S
C586 C584 1.419 . S
C586 C587 1.363 . S
C586 H589 0.929 . S
C587 C586 1.363 . S
C587 C593 1.428 . S
H588 C584 0.930 . S
H589 C586 0.929 . S
S590 N591 1.613 . S
S590 N592 1.610 . S
N591 S590 1.613 . S
N591 C594 1.350 . S
N592 S590 1.610 . S
N592 C593 1.351 . S
C593 C587 1.428 . S
C593 N592 1.351 . S
C593 C594 1.434 . S
C594 C585 1.429 . S
C594 N591 1.350 . S
C594 C593 1.434 . S
C595 C596 1.369 . S
C595 C597 1.419 . S
C595 H599 0.930 . S
C596 C595 1.369 . S
C596 C605 1.429 . S
C597 C595 1.419 . S
C597 C598 1.363 . S
C597 H600 0.929 . S
C598 C597 1.363 . S
C598 C604 1.428 . S
H599 C595 0.930 . S
H600 C597 0.929 . S
S601 N602 1.613 . S
S601 N603 1.610 . S
N602 S601 1.613 . S
N602 C605 1.350 . S
N603 S601 1.610 . S
N603 C604 1.351 . S
C604 C598 1.428 . S
C604 N603 1.351 . S
C604 C605 1.434 . S
C605 C596 1.429 . S
C605 N602 1.350 . S
C605 C604 1.434 . S
C606 C607 1.369 . S
C606 C608 1.419 . S
C606 H610 0.930 . S
C607 C606 1.369 . S
C607 C616 1.429 . S
C608 C606 1.419 . S
C608 C609 1.363 . S
C608 H611 0.929 . S
C609 C608 1.363 . S
C609 C615 1.428 . S
H610 C606 0.930 . S
H611 C608 0.929 . S
S612 N613 1.613 . S
S612 N614 1.610 . S
N613 S612 1.613 . S
N613 C616 1.350 . S
N614 S612 1.610 . S
N614 C615 1.351 . S
C615 C609 1.428 . S
C615 N614 1.351 . S
C615 C616 1.434 . S
C616 C607 1.429 . S
C616 N613 1.350 . S
C616 C615 1.434 . S
C617 C618 1.369 . S
C617 C619 1.419 . S
C617 H621 0.930 . S
C618 C617 1.369 . S
C618 C627 1.429 . S
C619 C617 1.419 . S
C619 C620 1.363 . S
C619 H622 0.929 . S
C620 C619 1.363 . S
C620 C626 1.428 . S
H621 C617 0.930 . S
H622 C619 0.929 . S
S623 N624 1.613 . S
S623 N625 1.610 . S
N624 S623 1.613 . S
N624 C627 1.350 . S
N625 S623 1.610 . S
N625 C626 1.351 . S
C626 C620 1.428 . S
C626 N625 1.351 . S
C626 C627 1.434 . S
C627 C618 1.429 . S
C627 N624 1.350 . S
C627 C626 1.434 . S
C628 C629 1.369 . S
C628 C630 1.419 . S
C628 H632 0.930 . S
C629 C628 1.369 . S
C629 C638 1.429 . S
C630 C628 1.419 . S
C630 C631 1.363 . S
C630 H633 0.929 . S
C631 C630 1.363 . S
C631 C637 1.428 . S
H632 C628 0.930 . S
H633 C630 0.929 . S
S634 N635 1.613 . S
S634 N636 1.610 . S
N635 S634 1.613 . S
N635 C638 1.350 . S
N636 S634 1.610 . S
N636 C637 1.351 . S
C637 C631 1.428 . S
C637 N636 1.351 . S
C637 C638 1.434 . S
C638 C629 1.429 . S
C638 N635 1.350 . S
C638 C637 1.434 . S
C639 C640 1.369 . S
C639 C641 1.419 . S
C639 H643 0.930 . S
C640 C639 1.369 . S
C640 C649 1.429 . S
C641 C639 1.419 . S
C641 C642 1.363 . S
C641 H644 0.929 . S
C642 C641 1.363 . S
C642 C648 1.428 . S
H643 C639 0.930 . S
H644 C641 0.929 . S
S645 N646 1.613 . S
S645 N647 1.610 . S
N646 S645 1.613 . S
N646 C649 1.350 . S
N647 S645 1.610 . S
N647 C648 1.351 . S
C648 C642 1.428 . S
C648 N647 1.351 . S
C648 C649 1.434 . S
C649 C640 1.429 . S
C649 N646 1.350 . S
C649 C648 1.434 . S
C650 C651 1.369 . S
C650 C652 1.419 . S
C650 H654 0.930 . S
C651 C650 1.369 . S
C651 C660 1.429 . S
C652 C650 1.419 . S
C652 C653 1.363 . S
C652 H655 0.929 . S
C653 C652 1.363 . S
C653 C659 1.428 . S
H654 C650 0.930 . S
H655 C652 0.929 . S
S656 N657 1.613 . S
S656 N658 1.610 . S
N657 S656 1.613 . S
N657 C660 1.350 . S
N658 S656 1.610 . S
N658 C659 1.351 . S
C659 C653 1.428 . S
C659 N658 1.351 . S
C659 C660 1.434 . S
C660 C651 1.429 . S
C660 N657 1.350 . S
C660 C659 1.434 . S
C661 C662 1.369 1_554 S
C661 C663 1.419 . S
C661 H665 0.930 . S
C662 C661 1.369 1_556 S
C662 C671 1.429 . S
C663 C661 1.419 . S
C663 C664 1.363 1_554 S
C663 H666 0.929 . S
C664 C663 1.363 1_556 S
C664 C670 1.428 . S
H665 C661 0.930 . S
H666 C663 0.929 . S
S667 N668 1.613 . S
S667 N669 1.610 . S
N668 S667 1.613 . S
N668 C671 1.350 . S
N669 S667 1.610 . S
N669 C670 1.351 . S
C670 C664 1.428 . S
C670 N669 1.351 . S
C670 C671 1.434 . S
C671 C662 1.429 . S
C671 N668 1.350 . S
C671 C670 1.434 . S
C409 C8 1.931 . S
C411 C109 1.662 . S
C420 C31 1.995 . S
C422 C149 1.640 . S
C431 C53 2.163 . S
C433 C170 1.929 1_545 S
C444 C229 1.620 . S
C442 C74 1.617 . S
C455 C269 1.648 . S
C453 C26 1.907 . S
C464 C48 1.620 . S
C466 C290 1.524 . S
C475 C71 2.208 . S
C477 C330 1.960 . S
C486 C5 1.999 . S
C488 C389 1.642 . S
C497 C50 1.879 . S
C499 C370 1.649 . S
C510 C250 1.638 . S
C508 C70 1.923 . S
C521 C309 1.891 1_565 S
C519 C4 2.221 1_556 S
C530 C28 1.618 . S
C532 C349 1.508 . S
C543 C130 1.639 . S
C541 C73 1.855 . S
C552 C7 1.687 . S
C554 C189 1.553 . S
C565 C210 2.061 . S
C563 C30 2.182 . S
C576 C90 1.647 . S
C574 C52 1.940 . S
C587 C343 1.693 . S
C585 C9 1.828 . S
C598 C383 1.544 . S
C596 C29 1.584 . S
C607 C51 1.529 . S
C609 C263 1.492 . S
C620 C303 1.715 . S
C618 C75 1.867 . S
C631 C183 1.701 . S
C629 C27 1.841 . S
C640 C49 1.816 . S
C642 C223 1.691 . S
C653 C103 1.526 . S
C651 C72 1.548 . S
C664 C143 1.534 . S
C662 C6 1.579 1_556 S
