# Generated by pormake.
# Topology ocu, (6,8)-cn, num edge types: 1
# Building blocks:
#     Node 0, Type 0, BuildingBlock: KUMBUR_clean_sbu_1, # of connection points: 6
#     Node 1, Type 0, BuildingBlock: KUMBUR_clean_sbu_1, # of connection points: 6
#     Node 2, Type 0, BuildingBlock: KUMBUR_clean_sbu_1, # of connection points: 6
#     Node 3, Type 0, BuildingBlock: KUMBUR_clean_sbu_1, # of connection points: 6
#     Node 4, Type 0, BuildingBlock: KUMBUR_clean_sbu_1, # of connection points: 6
#     Node 5, Type 0, BuildingBlock: KUMBUR_clean_sbu_1, # of connection points: 6
#     Node 6, Type 0, BuildingBlock: KUMBUR_clean_sbu_1, # of connection points: 6
#     Node 7, Type 0, BuildingBlock: KUMBUR_clean_sbu_1, # of connection points: 6
#     Node 8, Type 1, BuildingBlock: TAGTUT_clean_sbu_1, # of connection points: 8
#     Node 9, Type 1, BuildingBlock: TAGTUT_clean_sbu_1, # of connection points: 8
#     Node 10, Type 1, BuildingBlock: TAGTUT_clean_sbu_1, # of connection points: 8
#     Node 11, Type 1, BuildingBlock: TAGTUT_clean_sbu_1, # of connection points: 8
#     Node 12, Type 1, BuildingBlock: TAGTUT_clean_sbu_1, # of connection points: 8
#     Node 13, Type 1, BuildingBlock: TAGTUT_clean_sbu_1, # of connection points: 8
#     Edge 14, Type (0, 1), BuildingBlock: CIFDUS_clean_linker_0, # of connection points: 2
#     Edge 15, Type (0, 1), BuildingBlock: CIFDUS_clean_linker_0, # of connection points: 2
#     Edge 16, Type (0, 1), BuildingBlock: CIFDUS_clean_linker_0, # of connection points: 2
#     Edge 17, Type (0, 1), BuildingBlock: CIFDUS_clean_linker_0, # of connection points: 2
#     Edge 18, Type (0, 1), BuildingBlock: CIFDUS_clean_linker_0, # of connection points: 2
#     Edge 19, Type (0, 1), BuildingBlock: CIFDUS_clean_linker_0, # of connection points: 2
#     Edge 20, Type (0, 1), BuildingBlock: CIFDUS_clean_linker_0, # of connection points: 2
#     Edge 21, Type (0, 1), BuildingBlock: CIFDUS_clean_linker_0, # of connection points: 2
#     Edge 22, Type (0, 1), BuildingBlock: CIFDUS_clean_linker_0, # of connection points: 2
#     Edge 23, Type (0, 1), BuildingBlock: CIFDUS_clean_linker_0, # of connection points: 2
#     Edge 24, Type (0, 1), BuildingBlock: CIFDUS_clean_linker_0, # of connection points: 2
#     Edge 25, Type (0, 1), BuildingBlock: CIFDUS_clean_linker_0, # of connection points: 2
#     Edge 26, Type (0, 1), BuildingBlock: CIFDUS_clean_linker_0, # of connection points: 2
#     Edge 27, Type (0, 1), BuildingBlock: CIFDUS_clean_linker_0, # of connection points: 2
#     Edge 28, Type (0, 1), BuildingBlock: CIFDUS_clean_linker_0, # of connection points: 2
#     Edge 29, Type (0, 1), BuildingBlock: CIFDUS_clean_linker_0, # of connection points: 2
#     Edge 30, Type (0, 1), BuildingBlock: CIFDUS_clean_linker_0, # of connection points: 2
#     Edge 31, Type (0, 1), BuildingBlock: CIFDUS_clean_linker_0, # of connection points: 2
#     Edge 32, Type (0, 1), BuildingBlock: CIFDUS_clean_linker_0, # of connection points: 2
#     Edge 33, Type (0, 1), BuildingBlock: CIFDUS_clean_linker_0, # of connection points: 2
#     Edge 34, Type (0, 1), BuildingBlock: CIFDUS_clean_linker_0, # of connection points: 2
#     Edge 35, Type (0, 1), BuildingBlock: CIFDUS_clean_linker_0, # of connection points: 2
#     Edge 36, Type (0, 1), BuildingBlock: CIFDUS_clean_linker_0, # of connection points: 2
#     Edge 37, Type (0, 1), BuildingBlock: CIFDUS_clean_linker_0, # of connection points: 2
#     Edge 38, Type (0, 1), BuildingBlock: CIFDUS_clean_linker_0, # of connection points: 2
#     Edge 39, Type (0, 1), BuildingBlock: CIFDUS_clean_linker_0, # of connection points: 2
#     Edge 40, Type (0, 1), BuildingBlock: CIFDUS_clean_linker_0, # of connection points: 2
#     Edge 41, Type (0, 1), BuildingBlock: CIFDUS_clean_linker_0, # of connection points: 2
#     Edge 42, Type (0, 1), BuildingBlock: CIFDUS_clean_linker_0, # of connection points: 2
#     Edge 43, Type (0, 1), BuildingBlock: CIFDUS_clean_linker_0, # of connection points: 2
#     Edge 44, Type (0, 1), BuildingBlock: CIFDUS_clean_linker_0, # of connection points: 2
#     Edge 45, Type (0, 1), BuildingBlock: CIFDUS_clean_linker_0, # of connection points: 2
#     Edge 46, Type (0, 1), BuildingBlock: CIFDUS_clean_linker_0, # of connection points: 2
#     Edge 47, Type (0, 1), BuildingBlock: CIFDUS_clean_linker_0, # of connection points: 2
#     Edge 48, Type (0, 1), BuildingBlock: CIFDUS_clean_linker_0, # of connection points: 2
#     Edge 49, Type (0, 1), BuildingBlock: CIFDUS_clean_linker_0, # of connection points: 2
#     Edge 50, Type (0, 1), BuildingBlock: CIFDUS_clean_linker_0, # of connection points: 2
#     Edge 51, Type (0, 1), BuildingBlock: CIFDUS_clean_linker_0, # of connection points: 2
#     Edge 52, Type (0, 1), BuildingBlock: CIFDUS_clean_linker_0, # of connection points: 2
#     Edge 53, Type (0, 1), BuildingBlock: CIFDUS_clean_linker_0, # of connection points: 2
#     Edge 54, Type (0, 1), BuildingBlock: CIFDUS_clean_linker_0, # of connection points: 2
#     Edge 55, Type (0, 1), BuildingBlock: CIFDUS_clean_linker_0, # of connection points: 2
#     Edge 56, Type (0, 1), BuildingBlock: CIFDUS_clean_linker_0, # of connection points: 2
#     Edge 57, Type (0, 1), BuildingBlock: CIFDUS_clean_linker_0, # of connection points: 2
#     Edge 58, Type (0, 1), BuildingBlock: CIFDUS_clean_linker_0, # of connection points: 2
#     Edge 59, Type (0, 1), BuildingBlock: CIFDUS_clean_linker_0, # of connection points: 2
#     Edge 60, Type (0, 1), BuildingBlock: CIFDUS_clean_linker_0, # of connection points: 2
#     Edge 61, Type (0, 1), BuildingBlock: CIFDUS_clean_linker_0, # of connection points: 2
# Relax obj value: 0.079
# Max RMSD: 0.175
# Mean RMSD: 0.096
data_MOF--net-ocu--node1-KUMBUR_clean_sbu_1--node2-TAGTUT_clean_sbu_1--edge1-CIFDUS_clean_linker_0
_symmetry_space_group_name_H-M    P1
_symmetry_Int_Tables_number       1
_symmetry_cell_setting            triclinic
loop_
_symmetry_equiv_pos_as_xyz
'x, y, z'
_cell_length_a     35.864992
_cell_length_b     34.841376
_cell_length_c     37.817491
_cell_angle_alpha  101.43426
_cell_angle_beta   80.89368
_cell_angle_gamma 115.31237
loop_
_atom_site_label
_atom_site_type_symbol
_atom_site_fract_x
_atom_site_fract_y
_atom_site_fract_z
_atom_type_partial_charge
Tb0 Tb 0.22775 0.22757 0.22564 0.0
C1 C 0.34325 0.36306 0.34059 0.0
N2 N 0.35494 0.34472 0.3081 0.0
C3 C 0.40898 0.41296 0.29752 0.0
C4 C 0.36347 0.40741 0.3525 0.0
C5 C 0.38794 0.36879 0.28688 0.0
C6 C 0.39651 0.43243 0.33034 0.0
C7 C 0.29784 0.35464 0.39603 0.0
C8 C 0.31093 0.33705 0.36211 0.0
C9 C 0.31746 0.39893 0.4078 0.0
C10 C 0.35022 0.42525 0.3861 0.0
Tb11 Tb 0.31725 0.27263 0.29345 0.0
N12 N 0.29183 0.29453 0.3493 0.0
C13 C 0.26545 0.32712 0.41705 0.0
C14 C 0.26191 0.26729 0.37055 0.0
C15 C 0.24776 0.28316 0.40442 0.0
H16 H 0.39882 0.35397 0.26211 0.0
H17 H 0.22348 0.26142 0.42089 0.0
H18 H 0.14631 0.14669 0.25812 0.0
H19 H 0.31956 0.23709 0.09704 0.0
H20 H 0.24932 0.23339 0.36185 0.0
H21 H 0.25439 0.33934 0.44326 0.0
H22 H 0.29523 0.26586 0.15633 0.0
H23 H 0.435 0.43189 0.28051 0.0
H24 H 0.30768 0.41311 0.4337 0.0
H25 H 0.36524 0.45931 0.39563 0.0
H26 H 0.10899 0.06896 0.23977 0.0
H27 H 0.41291 0.46664 0.33851 0.0
H28 H 0.2869 0.15932 0.07462 0.0
N29 N 0.18882 0.15563 0.21105 0.0
C30 C 0.19946 0.13707 0.1782 0.0
C31 C 0.1346 0.0877 0.22232 0.0
C32 C 0.17851 0.09278 0.1664 0.0
C33 C 0.15631 0.13177 0.23288 0.0
C34 C 0.14589 0.06804 0.18905 0.0
N35 N 0.25199 0.20502 0.16936 0.0
C36 C 0.28197 0.23189 0.14783 0.0
C37 C 0.24397 0.14477 0.12225 0.0
C38 C 0.23178 0.16268 0.15644 0.0
C39 C 0.27652 0.17181 0.10103 0.0
C40 C 0.29523 0.21567 0.11371 0.0
H41 H 0.129 0.03389 0.18097 0.0
H42 H 0.17515 0.04065 0.123 0.0
H43 H 0.23248 0.08618 0.08435 0.0
O44 O 0.21622 0.2702 0.20093 0.0
O45 O 0.2683 0.19315 0.21982 0.0
O46 O 0.33182 0.242 0.23941 0.0
O47 O 0.16799 0.20914 0.21007 0.0
O48 O 0.2792 0.29213 0.22163 0.0
O49 O 0.33762 0.29199 0.24017 0.0
O50 O 0.32765 0.23316 0.32285 0.0
O51 O 0.27531 0.30629 0.29844 0.0
O52 O 0.21275 0.25449 0.28028 0.0
O53 O 0.37824 0.28813 0.30391 0.0
O54 O 0.26951 0.20673 0.2921 0.0
O55 O 0.20854 0.20562 0.27906 0.0
C56 C 0.30865 0.20641 0.21946 0.0
C57 C 0.14776 0.26542 0.2113 0.0
C58 C 0.10367 0.29707 0.19731 0.0
C59 C 0.09207 0.30431 0.23449 0.0
C60 C 0.13534 0.27242 0.24817 0.0
C61 C 0.10777 0.29191 0.25969 0.0
C62 C 0.13168 0.27754 0.18593 0.0
C63 C 0.31991 0.30595 0.22086 0.0
C64 C 0.17711 0.24521 0.19885 0.0
C65 C 0.19077 0.07466 0.13249 0.0
C66 C 0.22341 0.10059 0.11046 0.0
C67 C 0.23456 0.29082 0.29985 0.0
C68 C 0.38694 0.26577 0.35604 0.0
C69 C 0.41976 0.24385 0.39554 0.0
C70 C 0.42853 0.28346 0.41812 0.0
C71 C 0.39577 0.30498 0.37901 0.0
C72 C 0.39867 0.2352 0.36456 0.0
C73 C 0.41642 0.31366 0.40993 0.0
C74 C 0.22898 0.19216 0.29621 0.0
C75 C 0.36733 0.25656 0.32221 0.0
H76 H 0.07044 0.31903 0.24402 0.0
H77 H 0.14675 0.26254 0.26794 0.0
H78 H 0.09841 0.29728 0.28824 0.0
H79 H 0.14138 0.27225 0.15741 0.0
H80 H 0.44422 0.29084 0.44242 0.0
H81 H 0.38719 0.32901 0.37289 0.0
H82 H 0.39211 0.20503 0.34665 0.0
H83 H 0.42319 0.34396 0.42756 0.0
Tb84 Tb 0.72825 0.26211 0.27247 0.0
C85 C 0.89797 0.27068 0.20609 0.0
N86 N 0.8605 0.23731 0.20197 0.0
C87 C 0.87779 0.22524 0.13807 0.0
C88 C 0.92601 0.28437 0.17597 0.0
C89 C 0.85057 0.21344 0.16882 0.0
C90 C 0.91547 0.26122 0.14159 0.0
C91 C 0.94712 0.32473 0.2464 0.0
C92 C 0.90819 0.29045 0.24081 0.0
C93 C 0.97431 0.34036 0.21638 0.0
C94 C 0.96365 0.32025 0.18122 0.0
Tb95 Tb 0.8191 0.21919 0.25352 0.0
N96 N 0.88119 0.27397 0.26906 0.0
C97 C 0.9581 0.34113 0.28192 0.0
C98 C 0.8937 0.28696 0.30339 0.0
C99 C 0.9316 0.32152 0.31049 0.0
H100 H 0.82152 0.18558 0.16615 0.0
H101 H 0.94072 0.33239 0.33792 0.0
H102 H 0.74997 0.32914 0.35122 0.0
H103 H 0.58804 0.12588 0.23499 0.0
H104 H 0.87516 0.27015 0.32536 0.0
H105 H 0.98771 0.36748 0.28742 0.0
H106 H 0.65684 0.18457 0.22387 0.0
H107 H 0.86963 0.20674 0.11171 0.0
H108 H 1.00408 0.36717 0.22007 0.0
H109 H 0.98482 0.33222 0.15831 0.0
H110 H 0.72474 0.32624 0.41542 0.0
H111 H 0.93637 0.27052 0.11774 0.0
H112 H 0.55746 0.11645 0.29784 0.0
N113 N 0.70593 0.26635 0.33292 0.0
C114 C 0.66942 0.23397 0.34186 0.0
C115 C 0.7093 0.29961 0.39508 0.0
C116 C 0.65269 0.23186 0.37811 0.0
C117 C 0.72421 0.30059 0.35863 0.0
C118 C 0.67387 0.26459 0.40499 0.0
N119 N 0.66516 0.20682 0.27982 0.0
C120 C 0.6436 0.18045 0.25132 0.0
C121 C 0.60885 0.17092 0.32202 0.0
C122 C 0.64778 0.20385 0.31432 0.0
C123 C 0.58745 0.14225 0.29308 0.0
C124 C 0.60469 0.14738 0.25755 0.0
H125 H 0.66213 0.26409 0.43319 0.0
H126 H 0.6022 0.19519 0.41394 0.0
H127 H 0.56327 0.14215 0.36484 0.0
O128 O 0.70551 0.27872 0.2324 0.0
O129 O 0.7167 0.19551 0.27643 0.0
O130 O 0.77279 0.19759 0.29944 0.0
O131 O 0.69809 0.30371 0.28831 0.0
O132 O 0.73819 0.2321 0.21716 0.0
O133 O 0.7652 0.18335 0.22206 0.0
O134 O 0.86117 0.19598 0.26375 0.0
O135 O 0.81885 0.26452 0.21994 0.0
O136 O 0.79121 0.30827 0.25738 0.0
O137 O 0.80828 0.15478 0.23434 0.0
O138 O 0.80653 0.24798 0.30834 0.0
O139 O 0.7844 0.29928 0.30147 0.0
C140 C 0.73242 0.18424 0.29957 0.0
C141 C 0.69958 0.34501 0.24537 0.0
C142 C 0.67454 0.38793 0.21968 0.0
C143 C 0.71323 0.42296 0.22431 0.0
C144 C 0.73761 0.38029 0.25008 0.0
C145 C 0.74433 0.41913 0.2396 0.0
C146 C 0.66809 0.34909 0.23077 0.0
C147 C 0.74583 0.19772 0.20469 0.0
C148 C 0.69163 0.3035 0.25549 0.0
C149 C 0.61489 0.19788 0.38619 0.0
C150 C 0.59279 0.16767 0.35821 0.0
C151 C 0.81616 0.30182 0.22951 0.0
C152 C 0.83226 0.12237 0.27017 0.0
C153 C 0.8585 0.09154 0.30797 0.0
C154 C 0.82067 0.0551 0.30702 0.0
C155 C 0.7947 0.08561 0.26964 0.0
C156 C 0.86406 0.12504 0.28939 0.0
C157 C 0.78906 0.05228 0.28801 0.0
C158 C 0.80186 0.28397 0.3199 0.0
C159 C 0.83952 0.15698 0.24932 0.0
H160 H 0.71995 0.45309 0.21541 0.0
H161 H 0.76188 0.37771 0.26187 0.0
H162 H 0.77389 0.44626 0.24297 0.0
H163 H 0.63849 0.32178 0.22813 0.0
H164 H 0.81525 0.02907 0.32152 0.0
H165 H 0.76973 0.08239 0.25489 0.0
H166 H 0.89335 0.15295 0.28952 0.0
H167 H 0.76002 0.02414 0.28755 0.0
Tb168 Tb 0.7498 0.71064 0.30154 0.0
C169 C 0.88112 0.83886 0.19872 0.0
N170 N 0.86071 0.84968 0.22981 0.0
C171 C 0.92248 0.91178 0.24582 0.0
C172 C 0.92342 0.86373 0.19029 0.0
C173 C 0.88044 0.88624 0.25291 0.0
C174 C 0.94417 0.90029 0.21455 0.0
C175 C 0.87872 0.79183 0.14159 0.0
C176 C 0.85915 0.8034 0.17466 0.0
C177 C 0.92112 0.81583 0.13348 0.0
C178 C 0.94342 0.85169 0.15777 0.0
Tb179 Tb 0.79273 0.80418 0.2385 0.0
N180 N 0.81836 0.78035 0.18373 0.0
C181 C 0.85491 0.75675 0.11756 0.0
C182 C 0.7945 0.74784 0.15956 0.0
C183 C 0.8125 0.73501 0.12641 0.0
H184 H 0.86372 0.89621 0.27659 0.0
H185 H 0.79363 0.70849 0.10766 0.0
H186 H 0.68216 0.61863 0.26051 0.0
H187 H 0.74482 0.79636 0.43646 0.0
H188 H 0.76182 0.73155 0.16603 0.0
H189 H 0.8688 0.74673 0.09188 0.0
H190 H 0.77835 0.77826 0.37707 0.0
H191 H 0.93803 0.94052 0.26433 0.0
H192 H 0.93684 0.80725 0.10832 0.0
H193 H 0.97599 0.87024 0.15093 0.0
H194 H 0.60832 0.57112 0.27108 0.0
H195 H 0.97669 0.92027 0.20905 0.0
H196 H 0.66968 0.75564 0.45055 0.0
N197 N 0.68266 0.6624 0.3088 0.0
C198 C 0.66117 0.67072 0.34012 0.0
C199 C 0.62273 0.59926 0.29056 0.0
C200 C 0.61918 0.64402 0.34759 0.0
C201 C 0.66446 0.62654 0.28448 0.0
C202 C 0.59986 0.60825 0.32207 0.0
N203 N 0.72253 0.72985 0.35731 0.0
C204 C 0.74563 0.76083 0.38294 0.0
C205 C 0.66147 0.71392 0.39901 0.0
C206 C 0.68193 0.70517 0.36547 0.0
C207 C 0.68428 0.74777 0.42448 0.0
C208 C 0.72669 0.7709 0.41659 0.0
H209 H 0.56761 0.58691 0.32679 0.0
H210 H 0.56577 0.63343 0.38664 0.0
H211 H 0.60282 0.69467 0.43165 0.0
O212 O 0.7986 0.70799 0.32416 0.0
O213 O 0.72427 0.76055 0.31639 0.0
O214 O 0.76738 0.82351 0.29224 0.0
O215 O 0.74055 0.65316 0.31872 0.0
O216 O 0.81297 0.76194 0.3025 0.0
O217 O 0.81636 0.82569 0.2917 0.0
O218 O 0.75006 0.80619 0.20746 0.0
O219 O 0.82053 0.75607 0.22937 0.0
O220 O 0.77081 0.692 0.24628 0.0
O221 O 0.80122 0.86408 0.22704 0.0
O222 O 0.72855 0.75738 0.24443 0.0
O223 O 0.72437 0.69174 0.24812 0.0
C224 C 0.73666 0.80195 0.31473 0.0
C225 C 0.80094 0.63969 0.31305 0.0
C226 C 0.85332 0.61422 0.32055 0.0
C227 C 0.83871 0.58217 0.29043 0.0
C228 C 0.78858 0.60847 0.28252 0.0
C229 C 0.80742 0.58 0.27136 0.0
C230 C 0.83394 0.64321 0.33133 0.0
C231 C 0.82436 0.8035 0.31147 0.0
C232 C 0.77849 0.66747 0.32702 0.0
C233 C 0.59814 0.65339 0.3805 0.0
C234 C 0.61925 0.68825 0.40615 0.0
C235 C 0.80554 0.71386 0.22811 0.0
C236 C 0.77362 0.86403 0.17437 0.0
C237 C 0.74831 0.89606 0.13741 0.0
C238 C 0.78292 0.90093 0.11242 0.0
C239 C 0.8079 0.86869 0.14915 0.0
C240 C 0.74358 0.87712 0.16814 0.0
C241 C 0.81233 0.8869 0.11815 0.0
C242 C 0.71503 0.71651 0.23228 0.0
C243 C 0.76911 0.84759 0.20825 0.0
H244 H 0.85045 0.55769 0.2816 0.0
H245 H 0.76377 0.60547 0.26766 0.0
H246 H 0.79704 0.55537 0.24823 0.0
H247 H 0.84389 0.66853 0.354 0.0
H248 H 0.78712 0.91557 0.08852 0.0
H249 H 0.83139 0.85892 0.15362 0.0
H250 H 0.71723 0.87387 0.18778 0.0
H251 H 0.8389 0.89068 0.09879 0.0
Tb252 Tb 0.25135 0.78768 0.25545 0.0
C253 C 0.33685 0.68775 0.31192 0.0
N254 N 0.34556 0.72988 0.31377 0.0
C255 C 0.36289 0.74322 0.375 0.0
C256 C 0.33854 0.67098 0.3423 0.0
C257 C 0.36067 0.75815 0.34397 0.0
C258 C 0.35091 0.69925 0.3744 0.0
C259 C 0.32285 0.61892 0.2747 0.0
C260 C 0.32946 0.66239 0.27865 0.0
C261 C 0.32164 0.60106 0.30533 0.0
C262 C 0.32959 0.62711 0.3391 0.0
Tb263 Tb 0.34047 0.75164 0.26262 0.0
N264 N 0.33239 0.68141 0.24968 0.0
C265 C 0.31947 0.59534 0.23992 0.0
C266 C 0.33218 0.65931 0.21544 0.0
C267 C 0.32483 0.61584 0.21012 0.0
H268 H 0.37077 0.79213 0.34412 0.0
H269 H 0.32371 0.59826 0.18301 0.0
H270 H 0.20954 0.72419 0.18021 0.0
H271 H 0.32956 0.95998 0.2859 0.0
H272 H 0.33751 0.67492 0.19202 0.0
H273 H 0.31433 0.56183 0.23568 0.0
H274 H 0.29592 0.88592 0.30015 0.0
H275 H 0.37388 0.76557 0.39924 0.0
H276 H 0.31615 0.56759 0.30294 0.0
H277 H 0.33014 0.61336 0.36222 0.0
H278 H 0.21357 0.73058 0.11599 0.0
H279 H 0.35275 0.68772 0.39837 0.0
H280 H 0.33605 0.97323 0.22285 0.0
N281 N 0.25148 0.78884 0.19498 0.0
C282 C 0.26999 0.82867 0.18475 0.0
C283 C 0.23053 0.75826 0.13485 0.0
C284 C 0.27148 0.83437 0.14859 0.0
C285 C 0.22956 0.75433 0.17111 0.0
C286 C 0.25231 0.7983 0.12336 0.0
N287 N 0.28545 0.85734 0.2454 0.0
C288 C 0.29942 0.89119 0.27243 0.0
C289 C 0.30547 0.90587 0.20158 0.0
C290 C 0.28665 0.86412 0.2109 0.0
C291 C 0.32144 0.94061 0.22889 0.0
C292 C 0.31807 0.93325 0.2645 0.0
H293 H 0.25268 0.8013 0.09532 0.0
H294 H 0.29273 0.88079 0.11127 0.0
H295 H 0.32257 0.94334 0.15764 0.0
O296 O 0.21343 0.81195 0.292 0.0
O297 O 0.31778 0.82057 0.23793 0.0
O298 O 0.33461 0.76615 0.21128 0.0
O299 O 0.19364 0.77799 0.23993 0.0
O300 O 0.27479 0.80914 0.30924 0.0
O301 O 0.34132 0.8124 0.29499 0.0
O302 O 0.39833 0.74821 0.25236 0.0
O303 O 0.28992 0.736 0.30539 0.0
O304 O 0.23058 0.73112 0.28365 0.0
O305 O 0.39414 0.80919 0.2616 0.0
O306 O 0.30118 0.71886 0.21649 0.0
O307 O 0.23677 0.71975 0.23448 0.0
C308 C 0.336 0.80384 0.21054 0.0
C309 C 0.18734 0.84384 0.25853 0.0
C310 C 0.20741 0.92065 0.27718 0.0
C311 C 0.20664 0.92578 0.2415 0.0
C312 C 0.18635 0.84915 0.22277 0.0
C313 C 0.19555 0.8899 0.21449 0.0
C314 C 0.19547 0.87929 0.28552 0.0
C315 C 0.31302 0.82146 0.31737 0.0
C316 C 0.18886 0.805 0.26726 0.0
C317 C 0.29104 0.87587 0.13898 0.0
C318 C 0.3079 0.91152 0.16542 0.0
C319 C 0.24936 0.72186 0.3061 0.0
C320 C 0.44311 0.79976 0.21643 0.0
C321 C 0.44948 0.78184 0.15071 0.0
C322 C 0.48961 0.81506 0.14996 0.0
C323 C 0.48288 0.83275 0.21544 0.0
C324 C 0.42628 0.77598 0.18417 0.0
C325 C 0.50586 0.8407 0.18211 0.0
C326 C 0.26058 0.70192 0.21485 0.0
C327 C 0.41814 0.78912 0.25056 0.0
H328 H 0.21481 0.95726 0.23456 0.0
H329 H 0.18031 0.82238 0.20102 0.0
H330 H 0.19538 0.89385 0.18685 0.0
H331 H 0.19448 0.87474 0.31327 0.0
H332 H 0.50913 0.82034 0.12497 0.0
H333 H 0.49614 0.85197 0.24023 0.0
H334 H 0.39501 0.75179 0.18555 0.0
H335 H 0.53681 0.86595 0.18124 0.0
Tb336 Tb 0.24068 0.77222 0.78054 0.0
C337 C 0.39466 0.75307 0.69106 0.0
N338 N 0.35462 0.72415 0.69344 0.0
C339 C 0.35774 0.7038 0.62905 0.0
C340 C 0.41749 0.75969 0.65722 0.0
C341 C 0.3363 0.69859 0.66327 0.0
C342 C 0.39842 0.73472 0.62596 0.0
C343 C 0.45366 0.80738 0.72142 0.0
C344 C 0.41232 0.77663 0.72278 0.0
C345 C 0.47617 0.81513 0.68772 0.0
C346 C 0.45821 0.79126 0.65569 0.0
Tb347 Tb 0.32272 0.71732 0.75021 0.0
N348 N 0.38946 0.76825 0.7549 0.0
C349 C 0.47146 0.82868 0.75396 0.0
C350 C 0.40796 0.78651 0.78663 0.0
C351 C 0.44871 0.81764 0.78668 0.0
H352 H 0.30526 0.67399 0.66555 0.0
H353 H 0.46283 0.83246 0.81197 0.0
H354 H 0.27129 0.83743 0.85825 0.0
H355 H 0.09207 0.64888 0.74639 0.0
H356 H 0.39232 0.7764 0.81203 0.0
H357 H 0.50317 0.85248 0.75407 0.0
H358 H 0.1648 0.699 0.73377 0.0
H359 H 0.34295 0.68387 0.60511 0.0
H360 H 0.50765 0.83913 0.68628 0.0
H361 H 0.47604 0.79729 0.62991 0.0
H362 H 0.2471 0.83845 0.92286 0.0
H363 H 0.41487 0.73887 0.59942 0.0
H364 H 0.06099 0.64564 0.80965 0.0
N365 N 0.22103 0.77888 0.84127 0.0
C366 C 0.18219 0.75081 0.85099 0.0
C367 C 0.22887 0.81301 0.90302 0.0
C368 C 0.16586 0.75153 0.88743 0.0
C369 C 0.24324 0.81152 0.86639 0.0
C370 C 0.19029 0.78237 0.91371 0.0
N371 N 0.175 0.72223 0.78934 0.0
C372 C 0.15161 0.69725 0.76143 0.0
C373 C 0.1166 0.69471 0.83251 0.0
C374 C 0.15789 0.72259 0.82402 0.0
C375 C 0.09286 0.66759 0.80422 0.0
C376 C 0.11037 0.66915 0.76849 0.0
H377 H 0.17893 0.78397 0.94203 0.0
H378 H 0.11263 0.72203 0.92422 0.0
H379 H 0.0695 0.67198 0.87585 0.0
O380 O 0.21487 0.78951 0.74333 0.0
O381 O 0.22297 0.70452 0.78749 0.0
O382 O 0.28225 0.70192 0.79976 0.0
O383 O 0.22106 0.82239 0.79789 0.0
O384 O 0.24563 0.74397 0.72455 0.0
O385 O 0.26384 0.6874 0.72392 0.0
O386 O 0.36359 0.69158 0.75893 0.0
O387 O 0.32591 0.76686 0.71987 0.0
O388 O 0.30459 0.81289 0.76177 0.0
O389 O 0.3068 0.65116 0.73471 0.0
O390 O 0.32092 0.75015 0.80603 0.0
O391 O 0.29962 0.80435 0.80568 0.0
C392 C 0.24215 0.69096 0.80577 0.0
C393 C 0.22089 0.86069 0.75255 0.0
C394 C 0.20358 0.90003 0.71562 0.0
C395 C 0.23894 0.93697 0.72605 0.0
C396 C 0.25598 0.89781 0.76269 0.0
C397 C 0.2649 0.93575 0.7494 0.0
C398 C 0.19488 0.86202 0.72915 0.0
C399 C 0.247 0.70721 0.70944 0.0
C400 C 0.20973 0.82023 0.76633 0.0
C401 C 0.12535 0.72241 0.89629 0.0
C402 C 0.1007 0.69427 0.86884 0.0
C403 C 0.32571 0.80508 0.7314 0.0
C404 C 0.32938 0.6216 0.77433 0.0
C405 C 0.3525 0.58278 0.80737 0.0
C406 C 0.31166 0.56322 0.82272 0.0
C407 C 0.28902 0.60171 0.79045 0.0
C408 C 0.36128 0.6124 0.78327 0.0
C409 C 0.28036 0.57281 0.81445 0.0
C410 C 0.31813 0.7867 0.82045 0.0
C411 C 0.33828 0.65232 0.74876 0.0
H412 H 0.2469 0.96662 0.71575 0.0
H413 H 0.27628 0.89751 0.78089 0.0
H414 H 0.29209 0.96431 0.75717 0.0
H415 H 0.16746 0.83339 0.72187 0.0
H416 H 0.30402 0.54086 0.8417 0.0
H417 H 0.26403 0.60851 0.78461 0.0
H418 H 0.39259 0.6278 0.77126 0.0
H419 H 0.2492 0.5578 0.82678 0.0
Tb420 Tb 0.24932 0.2145 0.79592 0.0
C421 C 0.38102 0.35449 0.69768 0.0
N422 N 0.35753 0.36253 0.72762 0.0
C423 C 0.4135 0.42982 0.7452 0.0
C424 C 0.42219 0.38366 0.69059 0.0
C425 C 0.3727 0.39999 0.75094 0.0
C426 C 0.43848 0.42148 0.71506 0.0
C427 C 0.38595 0.30871 0.64129 0.0
C428 C 0.36324 0.31747 0.67339 0.0
C429 C 0.42737 0.33711 0.63454 0.0
C430 C 0.44546 0.37448 0.65914 0.0
Tb431 Tb 0.29252 0.31048 0.7345 0.0
N432 N 0.32336 0.29029 0.68111 0.0
C433 C 0.36607 0.27205 0.61672 0.0
C434 C 0.30294 0.25612 0.65623 0.0
C435 C 0.32422 0.24598 0.62401 0.0
H436 H 0.35316 0.40704 0.77376 0.0
H437 H 0.30837 0.2181 0.60484 0.0
H438 H 0.17342 0.13098 0.75266 0.0
H439 H 0.25378 0.2938 0.93389 0.0
H440 H 0.27069 0.23604 0.66189 0.0
H441 H 0.38248 0.2641 0.59176 0.0
H442 H 0.28324 0.27538 0.87264 0.0
H443 H 0.42555 0.45934 0.76387 0.0
H444 H 0.44549 0.33081 0.61014 0.0
H445 H 0.47725 0.39638 0.65331 0.0
H446 H 0.09824 0.0912 0.76362 0.0
H447 H 0.47001 0.44474 0.7106 0.0
H448 H 0.17816 0.25912 0.9494 0.0
N449 N 0.17965 0.17273 0.80312 0.0
C450 C 0.16036 0.18097 0.83582 0.0
C451 C 0.11528 0.11674 0.78401 0.0
C452 C 0.11745 0.15828 0.84352 0.0
C453 C 0.15796 0.13998 0.7777 0.0
C454 C 0.09482 0.12624 0.81688 0.0
N455 N 0.22523 0.23273 0.85344 0.0
C456 C 0.25044 0.26068 0.87912 0.0
C457 C 0.16566 0.2206 0.89664 0.0
C458 C 0.18403 0.21148 0.86208 0.0
C459 C 0.19106 0.25111 0.92253 0.0
C460 C 0.23374 0.27085 0.91384 0.0
H461 H 0.06179 0.10803 0.82173 0.0
H462 H 0.0657 0.15094 0.88399 0.0
H463 H 0.10794 0.20569 0.93047 0.0
O464 O 0.29418 0.20249 0.81731 0.0
O465 O 0.22657 0.26616 0.81384 0.0
O466 O 0.26804 0.32938 0.78905 0.0
O467 O 0.23361 0.15197 0.80537 0.0
O468 O 0.31254 0.26574 0.80023 0.0
O469 O 0.31793 0.33013 0.7868 0.0
O470 O 0.25354 0.30615 0.69663 0.0
O471 O 0.32313 0.26463 0.72566 0.0
O472 O 0.2724 0.20042 0.74019 0.0
O473 O 0.29195 0.36765 0.72438 0.0
O474 O 0.22885 0.26466 0.74314 0.0
O475 O 0.22623 0.19914 0.74235 0.0
C476 C 0.23875 0.3076 0.81258 0.0
C477 C 0.27963 0.1298 0.82825 0.0
C478 C 0.3277 0.10922 0.85108 0.0
C479 C 0.29838 0.06626 0.84672 0.0
C480 C 0.25117 0.0866 0.82412 0.0
C481 C 0.26056 0.05516 0.8333 0.0
C482 C 0.31795 0.14105 0.84187 0.0
C483 C 0.32567 0.3079 0.80689 0.0
C484 C 0.26944 0.16205 0.81661 0.0
C485 C 0.09869 0.16781 0.87766 0.0
C486 C 0.12274 0.19893 0.90416 0.0
C487 C 0.30872 0.22248 0.72443 0.0
C488 C 0.2249 0.35671 0.71271 0.0
C489 C 0.17417 0.37714 0.69518 0.0
C490 C 0.15006 0.36676 0.72772 0.0
C491 C 0.20048 0.34683 0.74529 0.0
C492 C 0.21178 0.37234 0.68777 0.0
C493 C 0.1634 0.35198 0.7528 0.0
C494 C 0.21559 0.22462 0.72909 0.0
C495 C 0.26172 0.34695 0.70342 0.0
H496 H 0.30427 0.04113 0.85436 0.0
H497 H 0.22161 0.07693 0.81351 0.0
H498 H 0.23835 0.022 0.83009 0.0
H499 H 0.34024 0.17422 0.84484 0.0
H500 H 0.12107 0.37038 0.73377 0.0
H501 H 0.20938 0.33406 0.76455 0.0
H502 H 0.23012 0.37968 0.66235 0.0
H503 H 0.14475 0.34397 0.77792 0.0
Tb504 Tb 0.72919 0.27107 0.76255 0.0
C505 C 0.83602 0.20901 0.82459 0.0
N506 N 0.84581 0.25042 0.82126 0.0
C507 C 0.86784 0.27386 0.8813 0.0
C508 C 0.8395 0.19812 0.85748 0.0
C509 C 0.86363 0.283 0.84812 0.0
C510 C 0.85503 0.23117 0.88623 0.0
C511 C 0.81367 0.13465 0.79694 0.0
C512 C 0.82315 0.1778 0.79459 0.0
C513 C 0.81518 0.12324 0.83016 0.0
C514 C 0.82812 0.15491 0.86034 0.0
Tb515 Tb 0.83741 0.26205 0.76677 0.0
N516 N 0.82258 0.19018 0.7627 0.0
C517 C 0.80452 0.10451 0.76555 0.0
C518 C 0.81748 0.16137 0.73145 0.0
C519 C 0.8073 0.11812 0.73258 0.0
H520 H 0.87447 0.31589 0.84382 0.0
H521 H 0.80232 0.09542 0.70784 0.0
H522 H 0.66949 0.1841 0.71076 0.0
H523 H 0.7679 0.43899 0.76536 0.0
H524 H 0.82192 0.17107 0.70523 0.0
H525 H 0.79711 0.07106 0.76621 0.0
H526 H 0.7643 0.37557 0.78834 0.0
H527 H 0.8811 0.2997 0.90295 0.0
H528 H 0.80756 0.09017 0.83252 0.0
H529 H 0.83009 0.14575 0.88551 0.0
H530 H 0.63409 0.16745 0.65524 0.0
H531 H 0.85826 0.22415 0.91195 0.0
H532 H 0.73908 0.42977 0.70738 0.0
N533 N 0.69656 0.25162 0.71047 0.0
C534 C 0.69782 0.28423 0.69514 0.0
C535 C 0.65257 0.20046 0.66578 0.0
C536 C 0.67802 0.27632 0.66346 0.0
C537 C 0.67314 0.21001 0.69699 0.0
C538 C 0.65575 0.23372 0.64846 0.0
N539 N 0.73543 0.33157 0.74303 0.0
C540 C 0.75195 0.37146 0.76291 0.0
C541 C 0.71854 0.36068 0.69821 0.0
C542 C 0.71747 0.32567 0.71229 0.0
C543 C 0.73756 0.40197 0.71729 0.0
C544 C 0.75393 0.40731 0.75001 0.0
H545 H 0.63986 0.2262 0.62425 0.0
H546 H 0.66521 0.30572 0.62407 0.0
H547 H 0.70093 0.37969 0.65444 0.0
O548 O 0.69976 0.29381 0.80856 0.0
O549 O 0.78505 0.31458 0.73289 0.0
O550 O 0.83127 0.282 0.71759 0.0
O551 O 0.66402 0.24018 0.77126 0.0
O552 O 0.76398 0.30714 0.81023 0.0
O553 O 0.83207 0.3231 0.78904 0.0
O554 O 0.89232 0.2526 0.75715 0.0
O555 O 0.78955 0.24771 0.81222 0.0
O556 O 0.7332 0.21721 0.78023 0.0
O557 O 0.89454 0.31595 0.76339 0.0
O558 O 0.80507 0.22965 0.71681 0.0
O559 O 0.73686 0.21181 0.73795 0.0
C560 C 0.8178 0.31057 0.71381 0.0
C561 C 0.64344 0.23769 0.83376 0.0
C562 C 0.64071 0.23435 0.89833 0.0
C563 C 0.60092 0.2003 0.89543 0.0
C564 C 0.60365 0.20475 0.83184 0.0
C565 C 0.58312 0.18519 0.86231 0.0
C566 C 0.66271 0.24951 0.8661 0.0
C567 C 0.80397 0.32914 0.81362 0.0
C568 C 0.66394 0.26211 0.80324 0.0
C569 C 0.67997 0.31109 0.64856 0.0
C570 C 0.70021 0.35321 0.6659 0.0
C571 C 0.75052 0.22184 0.80952 0.0
C572 C 0.93404 0.29531 0.71433 0.0
C573 C 0.92994 0.26433 0.65053 0.0
C574 C 0.969 0.29697 0.64272 0.0
C575 C 0.97294 0.32739 0.70647 0.0
C576 C 0.91219 0.26546 0.68612 0.0
C577 C 0.99002 0.32856 0.67058 0.0
C578 C 0.76519 0.20878 0.71226 0.0
C579 C 0.9145 0.29182 0.75131 0.0
H580 H 0.58213 0.18627 0.91863 0.0
H581 H 0.58834 0.19453 0.80701 0.0
H582 H 0.55238 0.15963 0.86075 0.0
H583 H 0.69446 0.27244 0.86611 0.0
H584 H 0.98388 0.2973 0.61551 0.0
H585 H 0.98987 0.35132 0.72786 0.0
H586 H 0.88142 0.24176 0.69222 0.0
H587 H 1.01994 0.35365 0.66457 0.0
Tb588 Tb 0.73144 0.72476 0.73455 0.0
C589 C 0.84108 0.87169 0.84768 0.0
N590 N 0.85439 0.85374 0.81573 0.0
C591 C 0.90449 0.92338 0.80389 0.0
C592 C 0.85842 0.91648 0.85857 0.0
C593 C 0.88638 0.8788 0.7942 0.0
C594 C 0.89027 0.94235 0.83606 0.0
C595 C 0.79501 0.86233 0.9028 0.0
C596 C 0.8098 0.84499 0.86959 0.0
C597 C 0.81192 0.90696 0.91357 0.0
C598 C 0.84353 0.93395 0.89152 0.0
Tb599 Tb 0.82143 0.78067 0.80325 0.0
N600 N 0.79289 0.80206 0.85761 0.0
C601 C 0.76339 0.83427 0.924 0.0
C602 C 0.76349 0.77446 0.87894 0.0
C603 C 0.74787 0.79011 0.91216 0.0
H604 H 0.89881 0.86461 0.76993 0.0
H605 H 0.72396 0.76808 0.92866 0.0
H606 H 0.64678 0.64853 0.76766 0.0
H607 H 0.82111 0.72651 0.60547 0.0
H608 H 0.75203 0.7405 0.87049 0.0
H609 H 0.75106 0.84632 0.94965 0.0
H610 H 0.79855 0.75848 0.66446 0.0
H611 H 0.92966 0.94307 0.78666 0.0
H612 H 0.80076 0.92092 0.93889 0.0
H613 H 0.85635 0.96831 0.90024 0.0
H614 H 0.60794 0.57015 0.75275 0.0
H615 H 0.90443 0.9769 0.84347 0.0
H616 H 0.78764 0.64803 0.58613 0.0
N617 N 0.69122 0.65293 0.7225 0.0
C618 C 0.70195 0.63224 0.69091 0.0
C619 C 0.63465 0.58713 0.73533 0.0
C620 C 0.67997 0.58778 0.68064 0.0
C621 C 0.65722 0.63137 0.74414 0.0
C622 C 0.64633 0.56512 0.70363 0.0
N623 N 0.75487 0.69882 0.67939 0.0
C624 C 0.78443 0.72434 0.65665 0.0
C625 C 0.74569 0.63633 0.63462 0.0
C626 C 0.73431 0.65609 0.66823 0.0
C627 C 0.77783 0.66197 0.61213 0.0
C628 C 0.79692 0.70626 0.62303 0.0
H629 H 0.62862 0.53091 0.69673 0.0
H630 H 0.67548 0.53341 0.63931 0.0
H631 H 0.7331 0.57596 0.59903 0.0
O632 O 0.72248 0.76704 0.70729 0.0
O633 O 0.78085 0.70027 0.72489 0.0
O634 O 0.84066 0.75162 0.75079 0.0
O635 O 0.67245 0.7076 0.71756 0.0
O636 O 0.77737 0.79201 0.73583 0.0
O637 O 0.84072 0.80072 0.74962 0.0
O638 O 0.83458 0.74605 0.83577 0.0
O639 O 0.77285 0.80561 0.80732 0.0
O640 O 0.71263 0.7487 0.7893 0.0
O641 O 0.88181 0.80426 0.81908 0.0
O642 O 0.77972 0.71207 0.80064 0.0
O643 O 0.71528 0.70122 0.78734 0.0
C644 C 0.82115 0.71672 0.72818 0.0
C645 C 0.65511 0.76538 0.71558 0.0
C646 C 0.615 0.80044 0.69933 0.0
C647 C 0.60281 0.8087 0.73625 0.0
C648 C 0.64201 0.77358 0.7521 0.0
C649 C 0.61616 0.79523 0.76236 0.0
C650 C 0.64127 0.77858 0.68917 0.0
C651 C 0.81788 0.80713 0.72936 0.0
C652 C 0.68318 0.74322 0.70489 0.0
C653 C 0.69182 0.56761 0.64758 0.0
C654 C 0.72458 0.59184 0.6246 0.0
C655 C 0.73207 0.78646 0.80832 0.0
C656 C 0.90287 0.75015 0.82493 0.0
C657 C 0.93595 0.70819 0.84096 0.0
C658 C 0.96021 0.71261 0.80782 0.0
C659 C 0.9271 0.75371 0.79166 0.0
C660 C 0.9071 0.72683 0.84936 0.0
C661 C 0.95551 0.73496 0.78322 0.0
C662 C 0.73917 0.69335 0.80556 0.0
C663 C 0.87383 0.77125 0.83474 0.0
H664 H 0.58238 0.82502 0.7449 0.0
H665 H 0.65162 0.76297 0.7726 0.0
H666 H 0.6063 0.80144 0.79068 0.0
H667 H 0.65135 0.77234 0.66088 0.0
H668 H 0.98252 0.69841 0.8009 0.0
H669 H 0.92435 0.77129 0.77232 0.0
H670 H 0.88847 0.72372 0.87504 0.0
H671 H 0.97411 0.73797 0.75758 0.0
C672 C 0.90928 0.06049 0.54283 0.0
C673 C 0.97636 0.05134 0.44394 0.0
C674 C 0.97819 0.90815 0.46851 0.0
Mg675 Mg 1.0028 0.08377 0.52176 0.0
O676 O 0.98474 0.0269 0.53016 0.0
Mg677 Mg 0.93801 0.98032 0.5036 0.0
Mg678 Mg 1.02666 1.00262 0.51583 0.0
O679 O 0.06999 0.97991 0.50152 0.0
Mg680 Mg 0.06285 0.92342 0.50102 0.0
Mg681 Mg 0.11723 0.02869 0.52578 0.0
C682 C 0.07875 0.0966 0.56315 0.0
C683 C 0.09826 0.06307 0.45954 0.0
O684 O 0.89885 0.02029 0.53063 0.0
O685 O 0.94683 0.08829 0.54318 0.0
O686 O 0.95358 0.01523 0.45456 0.0
O687 O 1.00047 0.08292 0.46477 0.0
O688 O 0.05766 0.11467 0.55409 0.0
O689 O 0.0703 0.05672 0.55268 0.0
C690 C 0.95282 0.94444 0.57122 0.0
O691 O 0.99219 0.96113 0.56253 0.0
O692 O 0.92723 0.94797 0.55324 0.0
O693 O 0.16051 0.99965 0.49376 0.0
O694 O 0.12068 0.93289 0.46873 0.0
O695 O 0.10774 0.99074 0.57225 0.0
C696 C 0.15565 0.96536 0.47161 0.0
O697 O 0.07015 0.92056 0.55633 0.0
O698 O 1.00373 0.89341 0.47452 0.0
C699 C 0.09063 0.95221 0.57933 0.0
O700 O 0.98333 0.94732 0.47987 0.0
O701 O 0.05923 0.04372 0.46813 0.0
O702 O 0.12488 0.06269 0.4781 0.0
C703 C 0.44894 0.11053 0.07428 0.0
C704 C 0.48304 0.08779 0.95881 0.0
C705 C 0.46014 0.93167 0.97445 0.0
Mg706 Mg 0.52943 0.11232 0.02667 0.0
O707 O 0.5063 0.0549 0.0352 0.0
Mg708 Mg 0.4488 0.01882 0.0205 0.0
Mg709 Mg 0.5348 0.01698 1.01024 0.0
O710 O 0.56373 0.97951 0.98475 0.0
Mg711 Mg 0.54153 0.92094 0.98963 0.0
Mg712 Mg 0.62077 0.01591 1.00044 0.0
C713 C 0.61067 0.1028 0.04251 0.0
C714 C 0.60195 0.0665 0.94742 0.0
O715 O 0.42932 0.07086 0.0606 0.0
O716 O 0.48754 0.13169 0.06554 0.0
O717 O 0.45787 0.05474 0.97294 0.0
O718 O 0.51563 0.11504 0.9736 0.0
O719 O 0.59218 0.12632 0.03901 0.0
O720 O 0.5931 0.06154 0.03715 0.0
C721 C 0.46857 0.97031 0.07542 0.0
O722 O 0.50462 0.97799 0.05866 0.0
O723 O 0.4433 0.98307 0.06639 0.0
O724 O 0.64223 0.96644 0.9599 0.0
O725 O 0.58625 0.90401 0.95109 0.0
O726 O 0.61124 0.97688 0.04527 0.0
C727 C 0.62501 0.9271 0.94466 0.0
O728 O 0.55413 0.91615 0.0426 0.0
O729 O 0.47924 0.90789 0.9757 0.0
C730 C 0.58677 0.94253 0.05795 0.0
O731 O 0.47653 0.9726 0.98376 0.0
O732 O 0.56474 0.05624 0.96213 0.0
O733 O 0.62721 0.05429 0.95714 0.0
C734 C 0.9495 0.61242 0.09462 0.0
C735 C 0.99653 0.60724 0.98363 0.0
C736 C 0.94576 0.43821 0.97526 0.0
Mg737 Mg 0.03156 0.60855 0.05349 0.0
O738 O 0.9996 0.54928 0.05148 0.0
Mg739 Mg 0.94367 0.52456 0.03231 0.0
Mg740 Mg 1.02268 0.5081 0.02279 0.0
O741 O 0.04574 0.46685 0.9946 0.0
Mg742 Mg 1.01347 0.40746 0.99341 0.0
Mg743 Mg 0.10126 0.49224 0.01506 0.0
C744 C 0.09997 0.57881 0.07048 0.0
C745 C 0.09954 0.55751 0.96451 0.0
O746 O 0.92825 0.57576 0.07649 0.0
O747 O 0.98923 0.62984 0.09079 0.0
O748 O 0.96526 0.57343 0.99167 0.0
O749 O 0.02842 0.62442 1.00182 0.0
O750 O 0.08768 0.60889 0.07168 0.0
O751 O 0.07927 0.54005 0.05575 0.0
C752 C 0.94569 0.45678 0.08038 0.0
O753 O 0.98195 0.46237 0.06493 0.0
O754 O 0.92561 0.47678 0.07312 0.0
O755 O 0.11705 0.44072 0.97167 0.0
O756 O 0.0564 0.38647 0.95663 0.0
O757 O 0.07828 0.44558 0.05682 0.0
C758 C 0.09616 0.40413 0.95327 0.0
O759 O 1.01647 0.39214 0.04572 0.0
O760 O 0.95768 0.4079 0.97455 0.0
C761 C 0.04729 0.41185 0.06509 0.0
O762 O 0.96615 0.47685 0.99041 0.0
O763 O 0.06289 0.55207 0.97897 0.0
O764 O 0.11969 0.53893 0.97404 0.0
C765 C 0.43077 0.58689 0.024 0.0
C766 C 0.49447 0.56094 0.9308 0.0
C767 C 0.46285 0.40881 0.97556 0.0
Mg768 Mg 0.52099 0.59276 1.00875 0.0
O769 O 0.49214 0.53716 0.02152 0.0
Mg770 Mg 0.44298 0.49543 0.99476 0.0
Mg771 Mg 0.52455 0.50176 0.01461 0.0
O772 O 0.55811 0.46714 1.00729 0.0
Mg773 Mg 0.53102 0.41431 0.02434 0.0
Mg774 Mg 0.60854 0.5106 0.03173 0.0
C775 C 0.5869 0.59475 0.05812 0.0
C776 C 0.60555 0.54476 0.95772 0.0
O777 O 0.41453 0.54582 0.0152 0.0
O778 O 0.46983 0.60934 0.02472 0.0
O779 O 0.46682 0.52752 0.94311 0.0
O780 O 0.52272 0.58945 0.95035 0.0
O781 O 0.57245 0.61685 0.04525 0.0
O782 O 0.57274 0.55383 0.04972 0.0
C783 C 0.44011 0.45823 0.06836 0.0
O784 O 0.47944 0.46819 0.06293 0.0
O785 O 0.42099 0.46597 0.04666 0.0
O786 O 0.63721 0.46021 1.01327 0.0
O787 O 0.58178 0.39628 1.01003 0.0
O788 O 0.58717 0.48303 0.08538 0.0
C789 C 0.62096 0.41887 1.00844 0.0
O790 O 0.52881 0.42352 0.08248 0.0
O791 O 0.47771 0.38953 0.99147 0.0
C792 C 0.55819 0.45261 0.10026 0.0
O793 O 0.47772 0.45002 0.97871 0.0
O794 O 0.56665 0.53385 0.96644 0.0
O795 O 0.62814 0.53875 0.9774 0.0
C796 C 0.93378 0.59367 0.57718 0.0
C797 C 0.98166 0.59798 0.46554 0.0
C798 C 0.95757 0.43231 0.46044 0.0
Mg799 Mg 1.02072 0.60681 0.5362 0.0
O800 O 0.99755 0.54657 0.53221 0.0
Mg801 Mg 0.94243 0.51336 0.51185 0.0
Mg802 Mg 1.02833 0.51178 0.50481 0.0
O803 O 0.05948 0.47702 0.47728 0.0
Mg804 Mg 0.03654 0.41729 0.47657 0.0
Mg805 Mg 0.11445 0.51067 0.49812 0.0
C806 C 0.09849 0.5901 0.55295 0.0
C807 C 0.10062 0.56951 0.44874 0.0
O808 O 0.91766 0.55742 0.55647 0.0
O809 O 0.97294 0.61685 0.5751 0.0
O810 O 0.95629 0.56047 0.47187 0.0
O811 O 1.01117 0.6219 0.48565 0.0
O812 O 0.08088 0.61594 0.55407 0.0
O813 O 0.08277 0.5509 0.53772 0.0
C814 C 0.95524 0.4537 0.56089 0.0
O815 O 0.99327 0.46498 0.54793 0.0
O816 O 0.93164 0.468 0.55106 0.0
O817 O 0.13991 0.46578 0.45513 0.0
O818 O 0.08479 0.40448 0.43981 0.0
O819 O 0.1005 0.46516 0.53879 0.0
C820 C 0.12393 0.42788 0.43679 0.0
O821 O 0.04317 0.40551 0.52909 0.0
O822 O 0.97586 0.40738 0.46047 0.0
C823 C 0.07407 0.42924 0.54761 0.0
O824 O 0.97381 0.47267 0.47215 0.0
O825 O 0.06273 0.55829 0.46187 0.0
O826 O 0.12452 0.55534 0.45834 0.0
C827 C 0.45526 0.11731 0.59786 0.0
C828 C 0.50177 0.11226 0.48737 0.0
C829 C 0.45056 0.9412 0.47988 0.0
Mg830 Mg 0.53712 0.11268 0.55649 0.0
O831 O 0.50575 0.05337 0.55396 0.0
Mg832 Mg 0.44953 0.02888 0.53535 0.0
Mg833 Mg 0.52875 0.01208 0.52476 0.0
O834 O 0.55142 0.97018 0.49668 0.0
Mg835 Mg 0.51901 0.91111 0.4981 0.0
Mg836 Mg 0.60738 0.99536 0.5164 0.0
C837 C 0.60748 0.08332 0.56932 0.0
C838 C 0.60598 0.06153 0.46674 0.0
O839 O 0.43413 0.08054 0.57972 0.0
O840 O 0.49505 0.13447 0.59427 0.0
O841 O 0.47051 0.07824 0.49507 0.0
O842 O 0.53374 0.12889 0.50536 0.0
O843 O 0.59482 0.11327 0.57118 0.0
O844 O 0.58595 0.04406 0.55638 0.0
C845 C 0.45238 0.96097 0.58271 0.0
O846 O 0.48851 0.9666 0.56693 0.0
O847 O 0.43211 0.98104 0.57593 0.0
O848 O 0.62173 0.94252 0.47338 0.0
O849 O 0.56016 0.88838 0.46064 0.0
O850 O 0.58629 0.94978 0.55902 0.0
C851 C 0.59988 0.90545 0.45613 0.0
O852 O 0.52421 0.89622 0.55015 0.0
O853 O 0.46245 0.91118 0.48059 0.0
C854 C 0.55602 0.91613 0.56831 0.0
O855 O 0.47153 0.98063 0.4931 0.0
O856 O 0.56951 0.05681 0.48131 0.0
O857 O 0.62546 0.04176 0.47538 0.0
H858 H 0.14869 0.16779 0.3269 0.0
H859 H 0.25954 0.14722 0.32525 0.0
H860 H 0.22871 0.10566 0.37491 0.0
H861 H 0.17287 0.07964 0.42176 0.0
H862 H 0.06008 0.0952 0.42212 0.0
H863 H 0.08887 0.13404 0.37037 0.0
C864 C 0.16577 0.15351 0.33691 0.0
C865 C 0.20665 0.16119 0.32242 0.0
C866 C 0.14774 0.12923 0.36574 0.0
C867 C 0.22826 0.14241 0.33596 0.0
C868 C 0.2107 0.11865 0.36455 0.0
C869 C 0.15427 0.09118 0.41051 0.0
C870 C 0.1142 0.08478 0.42653 0.0
C871 C 0.17089 0.1127 0.38018 0.0
C872 C 0.0908 0.09969 0.41091 0.0
C873 C 0.10744 0.12203 0.38111 0.0
H874 H 0.88624 0.03054 0.30953 0.0
H875 H 0.90424 0.16038 0.35488 0.0
H876 H 0.95073 0.16263 0.3968 0.0
H877 H 0.97694 0.12361 0.42682 0.0
H878 H 0.95524 0.99234 0.38356 0.0
H879 H 0.92036 0.99491 0.33419 0.0
C880 C 0.9007 0.05945 0.32837 0.0
C881 C 0.89129 0.09496 0.32953 0.0
C882 C 0.92677 0.06023 0.35279 0.0
C883 C 0.91094 0.13258 0.35349 0.0
C884 C 0.93739 0.13382 0.37758 0.0
C885 C 0.96591 0.09615 0.40582 0.0
C886 C 0.96827 0.05772 0.40895 0.0
C887 C 0.9444 0.09734 0.37831 0.0
C888 C 0.95348 0.02218 0.38179 0.0
C889 C 0.93324 0.02352 0.35373 0.0
H890 H 0.86343 0.77491 0.35023 0.0
H891 H 0.84253 0.88611 0.34252 0.0
H892 H 0.88463 0.92675 0.39273 0.0
H893 H 0.93024 0.93217 0.43674 0.0
H894 H 0.95227 0.82186 0.44472 0.0
H895 H 0.90601 0.77923 0.39721 0.0
C896 C 0.8679 0.80793 0.3596 0.0
C897 C 0.8502 0.82745 0.34216 0.0
C898 C 0.89214 0.8313 0.38879 0.0
C899 C 0.85636 0.87036 0.35486 0.0
C900 C 0.88025 0.89367 0.38382 0.0
C901 C 0.92447 0.89867 0.42863 0.0
C902 C 0.94493 0.88047 0.44431 0.0
C903 C 0.89862 0.87462 0.40075 0.0
C904 C 0.93708 0.83688 0.43312 0.0
C905 C 0.91078 0.81247 0.40577 0.0
H906 H 0.25752 0.9369 0.32957 0.0
H907 H 0.17965 0.98458 0.29301 0.0
H908 H 0.16599 0.01462 0.35514 0.0
H909 H 0.1564 1.00366 0.4184 0.0
H910 H 0.21878 0.93825 0.45396 0.0
H911 H 0.25698 0.93647 0.39402 0.0
C912 C 0.23874 0.95525 0.33522 0.0
C913 C 0.21781 0.95668 0.30732 0.0
C914 C 0.22651 0.96686 0.37114 0.0
C915 C 0.19518 0.98209 0.31424 0.0
C916 C 0.18666 0.9984 0.34988 0.0
C917 C 0.17951 0.99041 0.41315 0.0
C918 C 0.185 0.9708 0.43974 0.0
C919 C 0.1989 0.98721 0.37842 0.0
C920 C 0.21422 0.95307 0.43335 0.0
C921 C 0.23593 0.95224 0.39927 0.0
H922 H 0.17745 0.96279 0.71465 0.0
H923 H 0.1682 0.8386 0.65914 0.0
H924 H 0.12598 0.84063 0.61554 0.0
H925 H 0.0976 0.88067 0.58952 0.0
H926 H 0.11092 1.00696 0.64248 0.0
H927 H 0.14498 1.00086 0.69086 0.0
C928 C 0.16623 0.93619 0.69299 0.0
C929 C 0.17625 0.90073 0.69013 0.0
C930 C 0.14245 0.93784 0.66757 0.0
C931 C 0.16075 0.86617 0.66225 0.0
C932 C 0.13669 0.86736 0.63716 0.0
C933 C 0.1069 0.90634 0.61217 0.0
C934 C 0.10167 0.94416 0.61241 0.0
C935 C 0.12793 0.90332 0.63917 0.0
C936 C 0.11453 0.97746 0.64169 0.0
C937 C 0.13433 0.97415 0.66921 0.0
H938 H 0.20787 0.15604 0.67871 0.0
H939 H 0.16502 0.25704 0.71099 0.0
H940 H 0.12146 0.22916 0.6601 0.0
H941 H 0.09273 0.17298 0.60803 0.0
H942 H 0.13827 0.07369 0.57713 0.0
H943 H 0.18364 0.10417 0.62511 0.0
C944 C 0.18891 0.17187 0.67463 0.0
C945 C 0.18939 0.20825 0.69852 0.0
C946 C 0.1645 0.15607 0.64526 0.0
C947 C 0.16522 0.22895 0.69272 0.0
C948 C 0.1403 0.21301 0.66366 0.0
C949 C 0.11315 0.15853 0.61136 0.0
C950 C 0.11147 0.12059 0.5887 0.0
C951 C 0.13944 0.17627 0.63981 0.0
C952 C 0.13818 0.10241 0.59378 0.0
C953 C 0.16434 0.11983 0.62158 0.0
H954 H 0.88637 0.18162 0.66273 0.0
H955 H 0.92825 0.26017 0.57712 0.0
H956 H 0.90735 0.19531 0.53225 0.0
H957 H 0.89425 0.119 0.51861 0.0
H958 H 0.85987 0.04352 0.60511 0.0
H959 H 0.85597 0.10396 0.64856 0.0
C960 C 0.88926 0.18507 0.63446 0.0
C961 C 0.90972 0.22606 0.62341 0.0
C962 C 0.87758 0.14784 0.609 0.0
C963 C 0.91385 0.22915 0.58639 0.0
C964 C 0.90149 0.19205 0.56075 0.0
C965 C 0.88338 0.11517 0.5467 0.0
C966 C 0.87871 0.07769 0.55908 0.0
C967 C 0.88557 0.1514 0.57178 0.0
C968 C 0.86404 0.07231 0.59513 0.0
C969 C 0.86307 0.10735 0.62011 0.0
H970 H 0.8989 0.83527 0.70108 0.0
H971 H 0.7837 0.84389 0.69419 0.0
H972 H 0.81559 0.88707 0.64554 0.0
H973 H 0.87497 0.92079 0.60389 0.0
H974 H 0.99126 0.91437 0.61008 0.0
H975 H 0.96025 0.87244 0.66034 0.0
C976 C 0.8809 0.84704 0.68924 0.0
C977 C 0.83876 0.83609 0.70141 0.0
C978 C 0.89958 0.87217 0.66105 0.0
C979 C 0.81596 0.85138 0.6854 0.0
C980 C 0.83423 0.8762 0.65751 0.0
C981 C 0.89376 0.91032 0.6161 0.0
C982 C 0.93542 0.92054 0.60284 0.0
C983 C 0.87582 0.88644 0.64491 0.0
C984 C 0.95916 0.90699 0.61956 0.0
C985 C 0.94137 0.88292 0.6483 0.0
H986 H 0.38863 0.23535 0.19019 0.0
H987 H 0.27427 0.12183 0.18926 0.0
H988 H 0.30641 0.08219 0.14388 0.0
H989 H 0.36773 0.07951 0.10422 0.0
H990 H 0.48169 0.19409 0.10609 0.0
H991 H 0.44916 0.23285 0.15102 0.0
C992 C 0.3708 0.20182 0.18034 0.0
C993 C 0.32901 0.18176 0.19319 0.0
C994 C 0.38951 0.17913 0.15415 0.0
C995 C 0.30639 0.13833 0.1797 0.0
C996 C 0.32482 0.11552 0.15374 0.0
C997 C 0.38545 0.11294 0.11438 0.0
C998 C 0.42734 0.13346 0.10148 0.0
C999 C 0.36644 0.13556 0.14063 0.0
C1000 C 0.44953 0.177 0.11524 0.0
C1001 C 0.43094 0.19945 0.14113 0.0
H1002 H 0.85255 0.29425 0.16085 0.0
H1003 H 0.83182 0.38765 0.24529 0.0
H1004 H 0.86871 0.44358 0.20666 0.0
H1005 H 0.90785 0.46619 0.14837 0.0
H1006 H 0.93595 0.37382 0.06785 0.0
H1007 H 0.89697 0.31769 0.10581 0.0
C1008 C 0.85717 0.32696 0.17141 0.0
C1009 C 0.83952 0.33639 0.20628 0.0
C1010 C 0.8803 0.35937 0.1497 0.0
C1011 C 0.84442 0.37901 0.21852 0.0
C1012 C 0.86595 0.4112 0.19649 0.0
C1013 C 0.90576 0.43383 0.13942 0.0
C1014 C 0.92499 0.4242 0.10536 0.0
C1015 C 0.88411 0.40181 0.16198 0.0
C1016 C 0.92208 0.38219 0.09412 0.0
C1017 C 0.89953 0.35001 0.11577 0.0
H1018 H 0.66662 0.85055 0.12709 0.0
H1019 H 0.76329 0.97853 0.13592 0.0
H1020 H 0.71641 1.0062 0.12096 0.0
H1021 H 0.65238 0.99229 0.09674 0.0
H1022 H 0.55828 0.86311 0.07953 0.0
H1023 H 0.59847 0.83782 0.10823 0.0
C1024 C 0.67696 0.88453 0.12621 0.0
C1025 C 0.71827 0.91257 0.13205 0.0
C1026 C 0.65019 0.8999 0.11632 0.0
C1027 C 0.7317 0.95651 0.13097 0.0
C1028 C 0.70491 0.97226 0.12257 0.0
C1029 C 0.64009 0.95869 0.09992 0.0
C1030 C 0.60266 0.92953 0.08538 0.0
C1031 C 0.66464 0.94402 0.11395 0.0
C1032 C 0.58698 0.88629 0.09041 0.0
C1033 C 0.61033 0.87169 0.10629 0.0
H1034 H 0.18659 0.63306 0.21358 0.0
H1035 H 0.29297 0.70091 0.14454 0.0
H1036 H 0.2537 0.66538 0.09124 0.0
H1037 H 0.18463 0.62474 0.06611 0.0
H1038 H 0.08086 0.55172 0.13494 0.0
H1039 H 0.12337 0.57899 0.18628 0.0
C1040 C 0.20158 0.63881 0.18671 0.0
C1041 C 0.24232 0.67009 0.18305 0.0
C1042 C 0.17893 0.61787 0.15616 0.0
C1043 C 0.26162 0.67696 0.14809 0.0
C1044 C 0.23896 0.657 0.11759 0.0
C1045 C 0.1719 0.61374 0.09205 0.0
C1046 C 0.12965 0.58643 0.09687 0.0
C1047 C 0.19694 0.62891 0.12149 0.0
C1048 C 0.11336 0.57253 0.13062 0.0
C1049 C 0.13758 0.58835 0.16006 0.0
H1050 H 0.34733 0.8719 0.84794 0.0
H1051 H 0.3301 0.74864 0.87091 0.0
H1052 H 0.36546 0.78266 0.92585 0.0
H1053 H 0.40896 0.84766 0.96275 0.0
H1054 H 0.42887 0.97156 0.9393 0.0
H1055 H 0.38294 0.93706 0.89049 0.0
C1056 C 0.3506 0.85251 0.86541 0.0
C1057 C 0.33636 0.80785 0.85525 0.0
C1058 C 0.37115 0.87237 0.89708 0.0
C1059 C 0.34105 0.78309 0.87796 0.0
C1060 C 0.36116 0.80249 0.90949 0.0
C1061 C 0.40241 0.86712 0.94757 0.0
C1062 C 0.42286 0.91202 0.9542 0.0
C1063 C 0.37736 0.84716 0.91872 0.0
C1064 C 0.41357 0.93687 0.93475 0.0
C1065 C 0.38775 0.91715 0.90643 0.0
H1066 H 0.16075 0.27655 0.84614 0.0
H1067 H 0.27095 0.39329 0.83905 0.0
H1068 H 0.23751 0.43345 0.88236 0.0
H1069 H 0.17626 0.43567 0.92211 0.0
H1070 H 0.0656 0.31868 0.92709 0.0
H1071 H 0.10003 0.27861 0.8855 0.0
C1072 C 0.17769 0.31065 0.85446 0.0
C1073 C 0.21851 0.33167 0.8396 0.0
C1074 C 0.15807 0.33369 0.87912 0.0
C1075 C 0.23951 0.37619 0.85 0.0
C1076 C 0.2204 0.39922 0.87487 0.0
C1077 C 0.15972 0.40141 0.91418 0.0
C1078 C 0.11824 0.38044 0.92786 0.0
C1079 C 0.17958 0.37837 0.88958 0.0
C1080 C 0.09735 0.33595 0.91695 0.0
C1081 C 0.11706 0.31284 0.89313 0.0
H1082 H 0.67215 0.15883 0.8097 0.0
H1083 H 0.77312 0.23286 0.87744 0.0
H1084 H 0.7336 0.1939 0.92711 0.0
H1085 H 0.67234 0.13639 0.95031 0.0
H1086 H 0.57015 0.06214 0.88447 0.0
H1087 H 0.60775 0.1043 0.83506 0.0
C1088 C 0.68547 0.16644 0.83535 0.0
C1089 C 0.72584 0.19843 0.83967 0.0
C1090 C 0.66227 0.14408 0.86408 0.0
C1091 C 0.74245 0.20813 0.87316 0.0
C1092 C 0.71976 0.18603 0.9017 0.0
C1093 C 0.65809 0.12994 0.92527 0.0
C1094 C 0.61892 0.09625 0.92062 0.0
C1095 C 0.67992 0.15374 0.89731 0.0
C1096 C 0.60032 0.08816 0.88846 0.0
C1097 C 0.62202 0.11185 0.86019 0.0
H1098 H 1.00035 0.7329 0.88146 0.0
H1099 H 0.88297 0.62924 0.85689 0.0
H1100 H 0.89272 0.58714 0.89674 0.0
H1101 H 0.93439 0.58046 0.93905 0.0
H1102 H 0.05008 0.68627 0.96643 0.0
H1103 H 0.04082 0.72719 0.92567 0.0
C1104 C 0.97693 0.70116 0.8851 0.0
C1105 C 0.941 0.684 0.86652 0.0
C1106 C 0.98248 0.67758 0.90848 0.0
C1107 C 0.91072 0.64297 0.87123 0.0
C1108 C 0.91641 0.61893 0.89383 0.0
C1109 C 0.95796 0.61222 0.93576 0.0
C1110 C 0.99322 0.6299 0.95556 0.0
C1111 C 0.95224 0.63589 0.91255 0.0
C1112 C 1.02298 0.67144 0.95121 0.0
C1113 C 1.01757 0.69507 0.92809 0.0
H1114 H 0.09819 0.3732 0.20098 0.0
H1115 H 0.07181 0.25076 0.13358 0.0
H1116 H 0.04683 0.27364 0.0884 0.0
H1117 H 0.03662 0.33035 0.06632 0.0
H1118 H 0.06734 0.45409 0.13224 0.0
H1119 H 0.08543 0.42862 0.18015 0.0
C1120 C 0.0866 0.35139 0.17655 0.0
C1121 C 0.08705 0.31043 0.17054 0.0
C1122 C 0.07297 0.36504 0.15048 0.0
C1123 C 0.07228 0.28267 0.1386 0.0
C1124 C 0.05784 0.29566 0.11284 0.0
C1125 C 0.04636 0.35127 0.09156 0.0
C1126 C 0.05013 0.39376 0.09613 0.0
C1127 C 0.05854 0.33698 0.11825 0.0
C1128 C 0.06381 0.42108 0.12846 0.0
C1129 C 0.07453 0.40668 0.15564 0.0
H1130 H 0.15814 0.64354 0.82078 0.0
H1131 H 0.27708 0.67917 0.85915 0.0
H1132 H 0.24389 0.64282 0.91134 0.0
H1133 H 0.18136 0.6018 0.94728 0.0
H1134 H 0.06132 0.57083 0.91336 0.0
H1135 H 0.09422 0.60588 0.85951 0.0
C1136 C 0.17663 0.64507 0.84138 0.0
C1137 C 0.22013 0.66636 0.83662 0.0
C1138 C 0.15705 0.62506 0.87248 0.0
C1139 C 0.24363 0.6644 0.86221 0.0
C1140 C 0.22463 0.64353 0.89231 0.0
C1141 C 0.16232 0.6032 0.92838 0.0
C1142 C 0.1189 0.58363 0.93443 0.0
C1143 C 0.18142 0.62416 0.89797 0.0
C1144 C 0.09479 0.58592 0.90962 0.0
C1145 C 0.11365 0.60582 0.87868 0.0
H1146 H 0.37659 0.06507 0.83624 0.0
H1147 H 0.36759 0.17773 0.90169 0.0
H1148 H 0.42383 0.18695 0.93609 0.0
H1149 H 0.46573 0.15483 0.95496 0.0
H1150 H 0.46754 0.03722 0.89401 0.0
H1151 H 0.42452 0.03814 0.85032 0.0
C1152 C 0.38717 0.0919 0.85783 0.0
C1153 C 0.36718 0.12007 0.86688 0.0
C1154 C 0.41828 0.09594 0.87844 0.0
C1155 C 0.38222 0.15544 0.89417 0.0
C1156 C 0.41422 0.16054 0.91408 0.0
C1157 C 0.45802 0.13048 0.93123 0.0
C1158 C 0.46999 0.09625 0.92728 0.0
C1159 C 0.43122 0.12993 0.90747 0.0
C1160 C 0.459 0.0641 0.89715 0.0
C1161 C 0.43403 0.0644 0.87247 0.0
H1162 H 0.86842 0.40619 0.82973 0.0
H1163 H 0.77087 0.30243 0.87875 0.0
H1164 H 0.80418 0.32844 0.93558 0.0
H1165 H 0.86735 0.37496 0.96801 0.0
H1166 H 0.95967 0.48426 0.92157 0.0
H1167 H 0.92204 0.46253 0.86749 0.0
C1168 C 0.85389 0.3901 0.85323 0.0
C1169 C 0.8178 0.35189 0.84985 0.0
C1170 C 0.8726 0.40608 0.88622 0.0
C1171 C 0.79886 0.33167 0.88061 0.0
C1172 C 0.81807 0.34643 0.91309 0.0
C1173 C 0.87837 0.39472 0.94654 0.0
C1174 C 0.91635 0.43101 0.94867 0.0
C1175 C 0.85587 0.38269 0.91578 0.0
C1176 C 0.93037 0.45636 0.92067 0.0
C1177 C 0.90906 0.44373 0.88955 0.0
H1178 H 0.75533 0.87129 0.838 0.0
H1179 H 0.65218 0.74748 0.83628 0.0
H1180 H 0.6102 0.7798 0.87716 0.0
H1181 H 0.60239 0.84299 0.91384 0.0
H1182 H 0.70618 0.96658 0.91806 0.0
H1183 H 0.74819 0.93446 0.87658 0.0
C1184 C 0.72377 0.85129 0.84677 0.0
C1185 C 0.70702 0.8069 0.83369 0.0
C1186 C 0.69979 0.87007 0.87097 0.0
C1187 C 0.6659 0.78174 0.84537 0.0
C1188 C 0.64182 0.8002 0.86896 0.0
C1189 C 0.63415 0.8631 0.90568 0.0
C1190 C 0.65076 0.90741 0.91914 0.0
C1191 C 0.65836 0.84435 0.88192 0.0
C1192 C 0.69226 0.93251 0.90827 0.0
C1193 C 0.71641 0.91413 0.88444 0.0
H1194 H 0.88602 0.74306 0.19889 0.0
H1195 H 0.77264 0.62853 0.20093 0.0
H1196 H 0.80641 0.58713 0.16013 0.0
H1197 H 0.86836 0.58303 0.12331 0.0
H1198 H 0.98206 0.6975 0.12257 0.0
H1199 H 0.94792 0.73891 0.16263 0.0
C1200 C 0.8686 0.70913 0.1902 0.0
C1201 C 0.82673 0.68918 0.20298 0.0
C1202 C 0.88832 0.68524 0.16673 0.0
C1203 C 0.80493 0.64491 0.19176 0.0
C1204 C 0.82421 0.6211 0.16826 0.0
C1205 C 0.8857 0.61701 0.13191 0.0
C1206 C 0.92789 0.63683 0.11979 0.0
C1207 C 0.86594 0.64085 0.15551 0.0
C1208 C 0.94971 0.68102 0.1315 0.0
C1209 C 0.93017 0.70493 0.15445 0.0
H1210 H 0.38086 0.89022 0.21677 0.0
H1211 H 0.35208 0.77361 0.14071 0.0
H1212 H 0.39547 0.81453 0.09275 0.0
H1213 H 0.43809 0.88425 0.07141 0.0
H1214 H 0.46326 1.00102 0.14655 0.0
H1215 H 0.42536 0.95962 0.19598 0.0
C1216 C 0.38413 0.87389 0.18966 0.0
C1217 C 0.36311 0.82907 0.18214 0.0
C1218 C 0.4089 0.89772 0.16217 0.0
C1219 C 0.36795 0.80815 0.14707 0.0
C1220 C 0.39278 0.83152 0.11966 0.0
C1221 C 0.43622 0.90037 0.09888 0.0
C1222 C 0.45419 0.94539 0.10577 0.0
C1223 C 0.41315 0.87636 0.1268 0.0
C1224 C 0.45045 0.96628 0.14104 0.0
C1225 C 0.42844 0.94265 0.16913 0.0
H1226 H 0.73971 0.22916 0.14749 0.0
H1227 H 0.71682 0.11112 0.18456 0.0
H1228 H 0.67964 0.06968 0.13117 0.0
H1229 H 0.64345 0.0679 0.0805 0.0
H1230 H 0.66493 0.18658 0.04496 0.0
H1231 H 0.71421 0.22691 0.09046 0.0
C1232 C 0.72701 0.19435 0.14353 0.0
C1233 C 0.72979 0.17302 0.17011 0.0
C1234 C 0.70558 0.17094 0.11306 0.0
C1235 C 0.71446 0.12806 0.16446 0.0
C1236 C 0.69319 0.10441 0.13403 0.0
C1237 C 0.65995 0.10244 0.08187 0.0
C1238 C 0.64975 0.12439 0.06014 0.0
C1239 C 0.6871 0.12557 0.10896 0.0
C1240 C 0.67169 0.16908 0.06196 0.0
C1241 C 0.69962 0.1922 0.08812 0.0
H1242 H 0.65669 0.64818 0.82537 0.0
H1243 H 0.77887 0.66911 0.84751 0.0
H1244 H 0.7491 0.62527 0.89596 0.0
H1245 H 0.68819 0.58331 0.93435 0.0
H1246 H 0.56624 0.55373 0.90573 0.0
H1247 H 0.59591 0.59783 0.85748 0.0
C1248 C 0.67693 0.64242 0.83998 0.0
C1249 C 0.72016 0.66246 0.83247 0.0
C1250 C 0.65953 0.61581 0.86722 0.0
C1251 C 0.74554 0.65471 0.85257 0.0
C1252 C 0.72851 0.62946 0.88044 0.0
C1253 C 0.66805 0.58616 0.9174 0.0
C1254 C 0.62474 0.56675 0.92507 0.0
C1255 C 0.68551 0.61023 0.88837 0.0
C1256 C 0.59946 0.57013 0.90198 0.0
C1257 C 0.6165 0.59495 0.87391 0.0
H1258 H 0.42748 0.63767 0.83317 0.0
H1259 H 0.34985 0.5033 0.8056 0.0
H1260 H 0.39377 0.48399 0.83522 0.0
H1261 H 0.44608 0.50553 0.87818 0.0
H1262 H 0.52229 0.63976 0.90855 0.0
H1263 H 0.48852 0.6587 0.86766 0.0
C1264 C 0.42097 0.6042 0.83277 0.0
C1265 C 0.38498 0.572 0.81775 0.0
C1266 C 0.44603 0.59325 0.85067 0.0
C1267 C 0.37693 0.52872 0.81749 0.0
C1268 C 0.40204 0.51763 0.83447 0.0
C1269 C 0.45621 0.5389 0.8751 0.0
C1270 C 0.48614 0.57113 0.89713 0.0
C1271 C 0.43552 0.54965 0.85258 0.0
C1272 C 0.49927 0.61415 0.8922 0.0
C1273 C 0.4795 0.62509 0.8691 0.0
H1274 H 0.35838 0.27825 0.85046 0.0
H1275 H 0.3489 0.39274 0.83361 0.0
H1276 H 0.38784 0.43316 0.88553 0.0
H1277 H 0.42575 0.43681 0.93515 0.0
H1278 H 0.43228 0.32186 0.9546 0.0
H1279 H 0.39207 0.28076 0.90313 0.0
C1280 C 0.36499 0.31207 0.85802 0.0
C1281 C 0.35126 0.3324 0.83759 0.0
C1282 C 0.38628 0.33505 0.88884 0.0
C1283 C 0.35979 0.37624 0.84814 0.0
C1284 C 0.38172 0.39945 0.87819 0.0
C1285 C 0.41797 0.40268 0.92853 0.0
C1286 C 0.43239 0.3827 0.94866 0.0
C1287 C 0.39515 0.37922 0.89872 0.0
C1288 C 0.4217 0.33827 0.93963 0.0
C1289 C 0.39896 0.3147 0.90996 0.0
H1290 H 0.70715 0.31478 0.91364 0.0
H1291 H 0.61031 0.21562 0.96918 0.0
H1292 H 0.60278 0.27036 0.01686 0.0
H1293 H 0.60549 0.34365 0.02909 0.0
H1294 H 0.69545 0.44061 0.96785 0.0
H1295 H 0.72362 0.38926 0.93585 0.0
C1296 C 0.68398 0.304 0.93562 0.0
C1297 C 0.65454 0.2608 0.93436 0.0
C1298 C 0.67803 0.33581 0.96175 0.0
C1299 C 0.6299 0.24881 0.96663 0.0
C1300 C 0.62568 0.28022 0.99428 0.0
C1301 C 0.63205 0.3538 1.00941 0.0
C1302 C 0.64728 0.39497 0.99937 0.0
C1303 C 0.64632 0.32359 0.98981 0.0
C1304 C 0.68271 0.40866 0.97523 0.0
C1305 C 0.69856 0.3792 0.95684 0.0
H1306 H 0.65602 0.45759 0.22368 0.0
H1307 H 0.61948 0.32516 0.17418 0.0
H1308 H 0.57086 0.33135 0.14019 0.0
H1309 H 0.54725 0.37682 0.11675 0.0
H1310 H 0.59163 0.51171 0.15849 0.0
H1311 H 0.62783 0.50205 0.2035 0.0
C1312 C 0.6375 0.43003 0.20547 0.0
C1313 C 0.64198 0.39105 0.20156 0.0
C1314 C 0.61069 0.43425 0.18455 0.0
C1315 C 0.61667 0.35549 0.1784 0.0
C1316 C 0.5889 0.35903 0.15858 0.0
C1317 C 0.56345 0.40376 0.13667 0.0
C1318 C 0.5665 0.44483 0.13456 0.0
C1319 C 0.58659 0.39854 0.16058 0.0
C1320 C 0.58849 0.47969 0.15992 0.0
C1321 C 0.6097 0.47426 0.18526 0.0
H1322 H 0.70309 0.64347 0.18442 0.0
H1323 H 0.66735 0.74992 0.21089 0.0
H1324 H 0.62749 0.72407 0.15786 0.0
H1325 H 0.60159 0.67029 0.10409 0.0
H1326 H 0.63971 0.56549 0.0771 0.0
H1327 H 0.6797 0.59164 0.12945 0.0
C1328 C 0.68617 0.66069 0.17878 0.0
C1329 C 0.68808 0.69844 0.20173 0.0
C1330 C 0.66395 0.64616 0.14772 0.0
C1331 C 0.66655 0.72082 0.19365 0.0
C1332 C 0.6438 0.70612 0.16322 0.0
C1333 C 0.61924 0.6536 0.10925 0.0
C1334 C 0.61706 0.61554 0.08645 0.0
C1335 C 0.64239 0.6689 0.13988 0.0
C1336 C 0.63999 0.59433 0.09406 0.0
C1337 C 0.66305 0.60932 0.12423 0.0
H1338 H 0.39554 0.69739 0.14844 0.0
H1339 H 0.46659 0.79327 0.07852 0.0
H1340 H 0.45354 0.73664 0.02643 0.0
H1341 H 0.4376 0.66014 1.00537 0.0
H1342 H 0.36832 0.56698 0.07718 0.0
H1343 H 0.3605 0.62322 0.12355 0.0
C1344 C 0.40639 0.70712 0.12198 0.0
C1345 C 0.43328 0.75 0.11802 0.0
C1346 C 0.39824 0.6747 0.09229 0.0
C1347 C 0.44752 0.76046 0.08286 0.0
C1348 C 0.43955 0.72813 0.05292 0.0
C1349 C 0.41879 0.65203 0.0305 0.0
C1350 C 0.40488 0.61021 0.03875 0.0
C1351 C 0.41724 0.68498 0.05782 0.0
C1352 C 0.37975 0.59921 0.07065 0.0
C1353 C 0.37619 0.63157 0.09744 0.0
H1354 H 0.3028 0.35656 0.18399 0.0
H1355 H 0.40032 0.32093 0.19828 0.0
H1356 H 0.44687 0.36714 0.15538 0.0
H1357 H 0.45962 0.4155 0.11142 0.0
H1358 H 0.36191 0.44928 0.09482 0.0
H1359 H 0.31644 0.40665 0.14069 0.0
C1360 C 0.33427 0.35909 0.17785 0.0
C1361 C 0.34787 0.33553 0.19495 0.0
C1362 C 0.36116 0.3855 0.15246 0.0
C1363 C 0.38886 0.33913 0.18628 0.0
C1364 C 0.41568 0.36547 0.16145 0.0
C1365 C 0.42866 0.41394 0.11798 0.0
C1366 C 0.41456 0.43556 0.09924 0.0
C1367 C 0.40217 0.38863 0.14414 0.0
C1368 C 0.37388 0.43284 0.10841 0.0
C1369 C 0.34763 0.40833 0.13473 0.0
H1370 H 0.79769 0.6364 0.68709 0.0
H1371 H 0.90403 0.75572 0.70987 0.0
H1372 H 0.94759 0.72806 0.66653 0.0
H1373 H 0.95595 0.67113 0.62094 0.0
H1374 H 0.84986 0.55264 0.59502 0.0
H1375 H 0.80589 0.57932 0.63974 0.0
C1376 C 0.83026 0.65654 0.68227 0.0
C1377 C 0.84725 0.69826 0.70198 0.0
C1378 C 0.85533 0.64071 0.65638 0.0
C1379 C 0.88988 0.72336 0.69573 0.0
C1380 C 0.91494 0.70767 0.6706 0.0
C1381 C 0.92324 0.6509 0.62498 0.0
C1382 C 0.90653 0.6097 0.60444 0.0
C1383 C 0.89804 0.66651 0.65065 0.0
C1384 C 0.86384 0.5844 0.61026 0.0
C1385 C 0.83859 0.59966 0.63596 0.0
H1386 H 0.36299 0.79837 0.663 0.0
H1387 H 0.33834 0.89012 0.74681 0.0
H1388 H 0.37412 0.94618 0.70821 0.0
H1389 H 0.41337 0.96939 0.6502 0.0
H1390 H 0.44491 0.87879 0.5703 0.0
H1391 H 0.40762 0.82255 0.60848 0.0
C1392 C 0.36665 0.83081 0.67355 0.0
C1393 C 0.34841 0.83976 0.70826 0.0
C1394 C 0.38903 0.86333 0.65188 0.0
C1395 C 0.3518 0.88194 0.7203 0.0
C1396 C 0.37255 0.91419 0.69826 0.0
C1397 C 0.41229 0.93738 0.6414 0.0
C1398 C 0.43213 0.92829 0.60754 0.0
C1399 C 0.39139 0.9053 0.66396 0.0
C1400 C 0.4306 0.88676 0.59647 0.0
C1401 C 0.40892 0.8545 0.61817 0.0
H1402 H 0.10916 0.33238 0.65447 0.0
H1403 H 0.20703 0.45776 0.67867 0.0
H1404 H 0.18164 0.486 0.63775 0.0
H1405 H 0.13302 0.47446 0.59445 0.0
H1406 H 0.03744 0.34807 0.56647 0.0
H1407 H 0.06102 0.32046 0.60922 0.0
C1408 C 0.12484 0.3658 0.6505 0.0
C1409 C 0.15983 0.39316 0.66919 0.0
C1410 C 0.11051 0.38148 0.62648 0.0
C1411 C 0.18019 0.43633 0.66417 0.0
C1412 C 0.16558 0.45241 0.64101 0.0
C1413 C 0.11676 0.44095 0.59799 0.0
C1414 C 0.08332 0.41343 0.57731 0.0
C1415 C 0.1308 0.42524 0.62205 0.0
C1416 C 0.06295 0.37009 0.58226 0.0
C1417 C 0.07661 0.35421 0.60648 0.0
H1418 H 0.71582 0.12466 0.69569 0.0
H1419 H 0.78296 0.24156 0.64956 0.0
H1420 H 0.74368 0.2098 0.59603 0.0
H1421 H 0.68035 0.15414 0.56933 0.0
H1422 H 0.6151 0.03607 0.61431 0.0
H1423 H 0.66388 0.06227 0.66087 0.0
C1424 C 0.7228 0.14241 0.6732 0.0
C1425 C 0.75161 0.18539 0.67649 0.0
C1426 C 0.70004 0.12387 0.64258 0.0
C1427 C 0.76083 0.20836 0.6474 0.0
C1428 C 0.73814 0.19029 0.61694 0.0
C1429 C 0.67786 0.13361 0.58852 0.0
C1430 C 0.64391 0.09357 0.58883 0.0
C1431 C 0.7062 0.14886 0.61515 0.0
C1432 C 0.64099 0.06704 0.61361 0.0
C1433 C 0.66867 0.08217 0.64046 0.0
H1434 H 0.83525 0.37057 0.34106 0.0
H1435 H 0.80539 0.2498 0.37672 0.0
H1436 H 0.84536 0.28679 0.42874 0.0
H1437 H 0.89896 0.35162 0.45714 0.0
H1438 H 0.93144 0.47291 0.42153 0.0
H1439 H 0.87972 0.43795 0.37712 0.0
C1440 C 0.83663 0.35263 0.36085 0.0
C1441 C 0.81814 0.3076 0.35482 0.0
C1442 C 0.86058 0.37415 0.39045 0.0
C1443 C 0.81979 0.28452 0.38065 0.0
C1444 C 0.8428 0.3056 0.41034 0.0
C1445 C 0.8939 0.37051 0.44028 0.0
C1446 C 0.91933 0.41437 0.44192 0.0
C1447 C 0.8649 0.35015 0.41447 0.0
C1448 C 0.91219 0.43889 0.42053 0.0
C1449 C 0.88293 0.41886 0.39491 0.0
H1450 H 0.65919 0.77272 0.35024 0.0
H1451 H 0.77019 0.88794 0.33937 0.0
H1452 H 0.73878 0.92991 0.38256 0.0
H1453 H 0.67911 0.9345 0.4231 0.0
H1454 H 0.56741 0.81936 0.43221 0.0
H1455 H 0.59983 0.77717 0.39079 0.0
C1456 C 0.67666 0.80692 0.35758 0.0
C1457 C 0.71711 0.82693 0.34155 0.0
C1458 C 0.65819 0.83114 0.38227 0.0
C1459 C 0.73894 0.87153 0.35103 0.0
C1460 C 0.72102 0.89566 0.37588 0.0
C1461 C 0.66188 0.90019 0.41609 0.0
C1462 C 0.62071 0.8804 0.43084 0.0
C1463 C 0.68054 0.87591 0.3916 0.0
C1464 C 0.59896 0.83577 0.42118 0.0
C1465 C 0.61751 0.81144 0.39746 0.0
H1466 H 0.16415 0.67551 0.31653 0.0
H1467 H 0.27848 0.71465 0.36505 0.0
H1468 H 0.24235 0.67354 0.41325 0.0
H1469 H 0.17968 0.62432 0.44113 0.0
H1470 H 0.06292 0.58343 0.39673 0.0
H1471 H 0.09808 0.62815 0.34837 0.0
C1472 C 0.18102 0.6751 0.33774 0.0
C1473 C 0.22458 0.69756 0.33622 0.0
C1474 C 0.15948 0.65126 0.36644 0.0
C1475 C 0.24556 0.69689 0.36436 0.0
C1476 C 0.22474 0.67359 0.39246 0.0
C1477 C 0.16171 0.62516 0.42096 0.0
C1478 C 0.11894 0.60011 0.42215 0.0
C1479 C 0.18196 0.65027 0.39351 0.0
C1480 C 0.09601 0.6024 0.39632 0.0
C1481 C 0.11619 0.62774 0.36856 0.0
H1482 H 0.49395 0.25674 0.41645 0.0
H1483 H 0.37264 0.1581 0.39547 0.0
H1484 H 0.38981 0.10627 0.41683 0.0
H1485 H 0.43632 0.09136 0.44795 0.0
H1486 H 0.55671 0.1912 0.47108 0.0
H1487 H 0.54329 0.23956 0.44153 0.0
C1488 C 0.47138 0.22382 0.41639 0.0
C1489 C 0.43188 0.21145 0.40489 0.0
C1490 C 0.48135 0.19429 0.42899 0.0
C1491 C 0.40325 0.16846 0.4042 0.0
C1492 C 0.41301 0.13884 0.41655 0.0
C1493 C 0.46002 0.1234 0.44593 0.0
C1494 C 0.4974 0.13754 0.46209 0.0
C1495 C 0.45159 0.15168 0.42988 0.0
C1496 C 0.52767 0.17922 0.45895 0.0
C1497 C 0.51987 0.20718 0.44234 0.0
H1498 H 0.61395 0.8785 0.70134 0.0
H1499 H 0.58226 0.75444 0.63565 0.0
H1500 H 0.55649 0.77756 0.59114 0.0
H1501 H 0.54541 0.83434 0.56967 0.0
H1502 H 0.58093 0.95934 0.63414 0.0
H1503 H 0.60179 0.93444 0.68067 0.0
C1504 C 0.60125 0.85646 0.67734 0.0
C1505 C 0.60014 0.81481 0.67181 0.0
C1506 C 0.58695 0.87015 0.65171 0.0
C1507 C 0.58393 0.78681 0.64037 0.0
C1508 C 0.56895 0.79995 0.61502 0.0
C1509 C 0.55685 0.85572 0.59433 0.0
C1510 C 0.561 0.8984 0.59884 0.0
C1511 C 0.57044 0.84162 0.6203 0.0
C1512 C 0.57698 0.92621 0.63036 0.0
C1513 C 0.58929 0.9121 0.65678 0.0
H1514 H 0.73726 0.19739 0.37214 0.0
H1515 H 0.66348 0.11025 0.28712 0.0
H1516 H 0.61493 0.06629 0.33161 0.0
H1517 H 0.59477 0.0513 0.39513 0.0
H1518 H 0.66923 0.13891 0.4797 0.0
H1519 H 0.7156 0.18451 0.43547 0.0
C1520 C 0.71088 0.16847 0.3634 0.0
C1521 C 0.70432 0.15665 0.3264 0.0
C1522 C 0.68276 0.14388 0.38926 0.0
C1523 C 0.66935 0.11971 0.31546 0.0
C1524 C 0.6415 0.09471 0.34093 0.0
C1525 C 0.62063 0.0809 0.40381 0.0
C1526 C 0.62827 0.09223 0.44066 0.0
C1527 C 0.64785 0.10643 0.37797 0.0
C1528 C 0.66245 0.13003 0.45155 0.0
C1529 C 0.68918 0.15583 0.42622 0.0
H1530 H 0.87279 0.65163 0.39132 0.0
H1531 H 0.91296 0.58141 0.29673 0.0
H1532 H 0.95811 0.57218 0.33225 0.0
H1533 H 0.98148 0.5776 0.39207 0.0
H1534 H 0.94992 0.65706 0.48344 0.0
H1535 H 0.90801 0.67089 0.4466 0.0
C1536 C 0.89191 0.63526 0.37764 0.0
C1537 C 0.88687 0.61545 0.34118 0.0
C1538 C 0.92018 0.63207 0.39773 0.0
C1539 C 0.91316 0.59479 0.32506 0.0
C1540 C 0.93999 0.59004 0.34528 0.0
C1541 C 0.96669 0.59926 0.40341 0.0
C1542 C 0.96904 0.61665 0.44026 0.0
C1543 C 0.94291 0.60748 0.38191 0.0
C1544 C 0.9492 0.64406 0.45491 0.0
C1545 C 0.92473 0.65145 0.43397 0.0
H1546 H 0.36871 0.90326 0.33585 0.0
H1547 H 0.28466 0.78933 0.3805 0.0
H1548 H 0.31739 0.81779 0.4377 0.0
H1549 H 0.37703 0.87102 0.47135 0.0
H1550 H 0.45568 0.98873 0.42927 0.0
H1551 H 0.41735 0.96378 0.37534 0.0
C1552 C 0.35681 0.8854 0.35858 0.0
C1553 C 0.32488 0.84399 0.35396 0.0
C1554 C 0.37496 0.90268 0.39179 0.0
C1555 C 0.30939 0.82115 0.38351 0.0
C1556 C 0.32825 0.83737 0.41614 0.0
C1557 C 0.38478 0.89176 0.45094 0.0
C1558 C 0.41935 0.93152 0.4542 0.0
C1559 C 0.36208 0.87749 0.42014 0.0
C1560 C 0.42905 0.95812 0.42757 0.0
C1561 C 0.40742 0.94366 0.39646 0.0
H1562 H 0.25929 0.37578 0.33294 0.0
H1563 H 0.15629 0.25159 0.32938 0.0
H1564 H 0.11371 0.28273 0.36997 0.0
H1565 H 0.10409 0.34477 0.40562 0.0
H1566 H 0.20625 0.4694 0.41272 0.0
H1567 H 0.25035 0.43863 0.37231 0.0
C1568 C 0.22763 0.35557 0.34126 0.0
C1569 C 0.21098 0.31138 0.32721 0.0
C1570 C 0.20286 0.37379 0.36534 0.0
C1571 C 0.16991 0.28578 0.33879 0.0
C1572 C 0.14537 0.30354 0.36226 0.0
C1573 C 0.13594 0.36546 0.39833 0.0
C1574 C 0.15141 0.40961 0.41211 0.0
C1575 C 0.16124 0.34752 0.37538 0.0
C1576 C 0.19316 0.4354 0.40253 0.0
C1577 C 0.21851 0.41777 0.37934 0.0
H1578 H 0.3908 0.25083 0.69779 0.0
H1579 H 0.27582 0.13775 0.69567 0.0
H1580 H 0.31 0.09565 0.6568 0.0
H1581 H 0.37282 0.08992 0.62329 0.0
H1582 H 0.48852 0.20217 0.62724 0.0
H1583 H 0.45403 0.24479 0.66496 0.0
C1584 C 0.37321 0.21701 0.68876 0.0
C1585 C 0.33065 0.19777 0.69994 0.0
C1586 C 0.39331 0.19241 0.66658 0.0
C1587 C 0.3086 0.1537 0.68792 0.0
C1588 C 0.32815 0.1294 0.6655 0.0
C1589 C 0.39059 0.12366 0.63245 0.0
C1590 C 0.43346 0.1424 0.62223 0.0
C1591 C 0.37057 0.14825 0.65472 0.0
C1592 C 0.45565 0.18638 0.63465 0.0
C1593 C 0.43588 0.21104 0.65626 0.0
H1594 H 0.9002 0.34758 0.69256 0.0
H1595 H 0.78052 0.3275 0.66533 0.0
H1596 H 0.81246 0.36878 0.61557 0.0
H1597 H 0.87403 0.41089 0.5801 0.0
H1598 H 0.99503 0.43071 0.60464 0.0
H1599 H 0.96309 0.38831 0.65452 0.0
C1600 C 0.88124 0.35219 0.6756 0.0
C1601 C 0.83791 0.33573 0.68352 0.0
C1602 C 0.90012 0.37538 0.64627 0.0
C1603 C 0.81376 0.3417 0.66119 0.0
C1604 C 0.8321 0.36463 0.6322 0.0
C1605 C 0.89367 0.40592 0.59617 0.0
C1606 C 0.93701 0.42441 0.58874 0.0
C1607 C 0.8752 0.38184 0.62468 0.0
C1608 C 0.96164 0.41687 0.60964 0.0
C1609 C 0.94334 0.39268 0.63825 0.0
H1610 H 0.21096 0.62316 0.67691 0.0
H1611 H 0.2462 0.75388 0.66087 0.0
H1612 H 0.2074 0.72906 0.60778 0.0
H1613 H 0.15543 0.67109 0.57114 0.0
H1614 H 0.11973 0.53998 0.5856 0.0
H1615 H 0.16712 0.56381 0.63303 0.0
C1616 C 0.21084 0.64602 0.66125 0.0
C1617 C 0.23046 0.69023 0.67345 0.0
C1618 C 0.18806 0.63151 0.63046 0.0
C1619 C 0.2304 0.71958 0.65267 0.0
C1620 C 0.20827 0.7055 0.62217 0.0
C1621 C 0.15872 0.64771 0.58412 0.0
C1622 C 0.13384 0.60396 0.57507 0.0
C1623 C 0.18564 0.66165 0.61167 0.0
C1624 C 0.13873 0.57394 0.59188 0.0
C1625 C 0.16556 0.58757 0.61935 0.0
loop_
_geom_bond_atom_site_label_1
_geom_bond_atom_site_label_2
_geom_bond_distance
_geom_bond_site_symmetry_2
_ccdc_geom_bond_type
Tb0 N29 2.617 . S
Tb0 N35 2.572 . S
Tb0 O44 2.465 . S
Tb0 O45 2.387 . S
Tb0 O47 2.428 . S
Tb0 O48 2.308 . S
Tb0 O52 2.349 . S
Tb0 O55 2.393 . S
Tb0 C64 2.802 . S
C1 N2 1.379 . S
C1 C4 1.416 . S
C1 C8 1.424 . S
N2 C1 1.379 . S
N2 C5 1.334 . S
N2 Tb11 2.617 . S
C3 C5 1.390 . S
C3 C6 1.339 . S
C3 H23 0.930 . S
C4 C1 1.416 . S
C4 C6 1.416 . S
C4 C10 1.448 . S
C5 N2 1.334 . S
C5 C3 1.390 . S
C5 H16 0.930 . S
C6 C3 1.339 . S
C6 C4 1.416 . S
C6 H27 0.930 . S
C7 C8 1.413 . S
C7 C9 1.427 . S
C7 C13 1.416 . S
C8 C1 1.424 . S
C8 C7 1.413 . S
C8 N12 1.361 . S
C9 C7 1.427 . S
C9 C10 1.328 . S
C9 H24 0.929 . S
C10 C4 1.448 . S
C10 C9 1.328 . S
C10 H25 0.930 . S
Tb11 N2 2.617 . S
Tb11 N12 2.572 . S
Tb11 O46 2.349 . S
Tb11 O49 2.393 . S
Tb11 O50 2.465 . S
Tb11 O51 2.387 . S
Tb11 O53 2.428 . S
Tb11 O54 2.308 . S
Tb11 C75 2.802 . S
N12 C8 1.361 . S
N12 Tb11 2.572 . S
N12 C14 1.340 . S
C13 C7 1.416 . S
C13 C15 1.332 . S
C13 H21 0.931 . S
C14 N12 1.340 . S
C14 C15 1.407 . S
C14 H20 0.930 . S
C15 C13 1.332 . S
C15 C14 1.407 . S
C15 H17 0.929 . S
H16 C5 0.930 . S
H17 C15 0.929 . S
H18 C33 0.930 . S
H19 C40 0.929 . S
H20 C14 0.930 . S
H21 C13 0.931 . S
H22 C36 0.930 . S
H23 C3 0.930 . S
H24 C9 0.929 . S
H25 C10 0.930 . S
H26 C31 0.930 . S
H27 C6 0.930 . S
H28 C39 0.931 . S
N29 Tb0 2.617 . S
N29 C30 1.379 . S
N29 C33 1.334 . S
C30 N29 1.379 . S
C30 C32 1.416 . S
C30 C38 1.424 . S
C31 H26 0.930 . S
C31 C33 1.390 . S
C31 C34 1.339 . S
C32 C30 1.416 . S
C32 C34 1.416 . S
C32 C65 1.448 . S
C33 H18 0.930 . S
C33 N29 1.334 . S
C33 C31 1.390 . S
C34 C31 1.339 . S
C34 C32 1.416 . S
C34 H41 0.930 . S
N35 Tb0 2.572 . S
N35 C36 1.340 . S
N35 C38 1.361 . S
C36 H22 0.930 . S
C36 N35 1.340 . S
C36 C40 1.407 . S
C37 C38 1.413 . S
C37 C39 1.416 . S
C37 C66 1.427 . S
C38 C30 1.424 . S
C38 N35 1.361 . S
C38 C37 1.413 . S
C39 H28 0.931 . S
C39 C37 1.416 . S
C39 C40 1.332 . S
C40 H19 0.929 . S
C40 C36 1.407 . S
C40 C39 1.332 . S
H41 C34 0.930 . S
H42 C65 0.930 . S
H43 C66 0.929 . S
O44 Tb0 2.465 . S
O44 C64 1.264 . S
O45 Tb0 2.387 . S
O45 C56 1.264 . S
O46 Tb11 2.349 . S
O46 C56 1.243 . S
O47 Tb0 2.428 . S
O47 C64 1.256 . S
O48 Tb0 2.308 . S
O48 C63 1.266 . S
O49 Tb11 2.393 . S
O49 C63 1.248 . S
O50 Tb11 2.465 . S
O50 C75 1.264 . S
O51 Tb11 2.387 . S
O51 C67 1.264 . S
O52 Tb0 2.349 . S
O52 C67 1.243 . S
O53 Tb11 2.428 . S
O53 C75 1.256 . S
O54 Tb11 2.308 . S
O54 C74 1.266 . S
O55 Tb0 2.393 . S
O55 C74 1.248 . S
C56 O45 1.264 . S
C56 O46 1.243 . S
C57 C60 1.399 . S
C57 C62 1.383 . S
C57 C64 1.496 . S
C58 C59 1.399 . S
C58 C62 1.389 . S
C59 C58 1.399 . S
C59 C61 1.380 . S
C59 H76 0.929 . S
C60 C57 1.399 . S
C60 C61 1.392 . S
C60 H77 0.929 . S
C61 C59 1.380 . S
C61 C60 1.392 . S
C61 H78 0.929 . S
C62 C57 1.383 . S
C62 C58 1.389 . S
C62 H79 0.931 . S
C63 O48 1.266 . S
C63 O49 1.248 . S
C64 Tb0 2.802 . S
C64 O44 1.264 . S
C64 O47 1.256 . S
C64 C57 1.496 . S
C65 C32 1.448 . S
C65 H42 0.930 . S
C65 C66 1.328 . S
C66 C37 1.427 . S
C66 H43 0.929 . S
C66 C65 1.328 . S
C67 O51 1.264 . S
C67 O52 1.243 . S
C68 C71 1.399 . S
C68 C72 1.383 . S
C68 C75 1.496 . S
C69 C70 1.399 . S
C69 C72 1.389 . S
C70 C69 1.399 . S
C70 C73 1.380 . S
C70 H80 0.929 . S
C71 C68 1.399 . S
C71 C73 1.392 . S
C71 H81 0.929 . S
C72 C68 1.383 . S
C72 C69 1.389 . S
C72 H82 0.931 . S
C73 C70 1.380 . S
C73 C71 1.392 . S
C73 H83 0.929 . S
C74 O54 1.266 . S
C74 O55 1.248 . S
C75 Tb11 2.802 . S
C75 O50 1.264 . S
C75 O53 1.256 . S
C75 C68 1.496 . S
H76 C59 0.929 . S
H77 C60 0.929 . S
H78 C61 0.929 . S
H79 C62 0.931 . S
H80 C70 0.929 . S
H81 C71 0.929 . S
H82 C72 0.931 . S
H83 C73 0.929 . S
Tb84 N113 2.617 . S
Tb84 N119 2.572 . S
Tb84 O128 2.465 . S
Tb84 O129 2.387 . S
Tb84 O131 2.428 . S
Tb84 O132 2.308 . S
Tb84 O136 2.349 . S
Tb84 O139 2.393 . S
Tb84 C148 2.802 . S
C85 N86 1.379 . S
C85 C88 1.416 . S
C85 C92 1.424 . S
N86 C85 1.379 . S
N86 C89 1.334 . S
N86 Tb95 2.617 . S
C87 C89 1.390 . S
C87 C90 1.339 . S
C87 H107 0.930 . S
C88 C85 1.416 . S
C88 C90 1.416 . S
C88 C94 1.448 . S
C89 N86 1.334 . S
C89 C87 1.390 . S
C89 H100 0.930 . S
C90 C87 1.339 . S
C90 C88 1.416 . S
C90 H111 0.930 . S
C91 C92 1.413 . S
C91 C93 1.427 . S
C91 C97 1.416 . S
C92 C85 1.424 . S
C92 C91 1.413 . S
C92 N96 1.361 . S
C93 C91 1.427 . S
C93 C94 1.328 . S
C93 H108 0.929 . S
C94 C88 1.448 . S
C94 C93 1.328 . S
C94 H109 0.930 . S
Tb95 N86 2.617 . S
Tb95 N96 2.572 . S
Tb95 O130 2.349 . S
Tb95 O133 2.393 . S
Tb95 O134 2.465 . S
Tb95 O135 2.387 . S
Tb95 O137 2.428 . S
Tb95 O138 2.308 . S
Tb95 C159 2.802 . S
N96 C92 1.361 . S
N96 Tb95 2.572 . S
N96 C98 1.340 . S
C97 C91 1.416 . S
C97 C99 1.332 . S
C97 H105 0.931 . S
C98 N96 1.340 . S
C98 C99 1.407 . S
C98 H104 0.930 . S
C99 C97 1.332 . S
C99 C98 1.407 . S
C99 H101 0.929 . S
H100 C89 0.930 . S
H101 C99 0.929 . S
H102 C117 0.930 . S
H103 C124 0.929 . S
H104 C98 0.930 . S
H105 C97 0.931 . S
H106 C120 0.930 . S
H107 C87 0.930 . S
H108 C93 0.929 . S
H109 C94 0.930 . S
H110 C115 0.930 . S
H111 C90 0.930 . S
H112 C123 0.931 . S
N113 Tb84 2.617 . S
N113 C114 1.379 . S
N113 C117 1.334 . S
C114 N113 1.379 . S
C114 C116 1.416 . S
C114 C122 1.424 . S
C115 H110 0.930 . S
C115 C117 1.390 . S
C115 C118 1.339 . S
C116 C114 1.416 . S
C116 C118 1.416 . S
C116 C149 1.448 . S
C117 H102 0.930 . S
C117 N113 1.334 . S
C117 C115 1.390 . S
C118 C115 1.339 . S
C118 C116 1.416 . S
C118 H125 0.930 . S
N119 Tb84 2.572 . S
N119 C120 1.340 . S
N119 C122 1.361 . S
C120 H106 0.930 . S
C120 N119 1.340 . S
C120 C124 1.407 . S
C121 C122 1.413 . S
C121 C123 1.416 . S
C121 C150 1.427 . S
C122 C114 1.424 . S
C122 N119 1.361 . S
C122 C121 1.413 . S
C123 H112 0.931 . S
C123 C121 1.416 . S
C123 C124 1.332 . S
C124 H103 0.929 . S
C124 C120 1.407 . S
C124 C123 1.332 . S
H125 C118 0.930 . S
H126 C149 0.930 . S
H127 C150 0.929 . S
O128 Tb84 2.465 . S
O128 C148 1.264 . S
O129 Tb84 2.387 . S
O129 C140 1.264 . S
O130 Tb95 2.349 . S
O130 C140 1.243 . S
O131 Tb84 2.428 . S
O131 C148 1.256 . S
O132 Tb84 2.308 . S
O132 C147 1.266 . S
O133 Tb95 2.393 . S
O133 C147 1.248 . S
O134 Tb95 2.465 . S
O134 C159 1.264 . S
O135 Tb95 2.387 . S
O135 C151 1.264 . S
O136 Tb84 2.349 . S
O136 C151 1.243 . S
O137 Tb95 2.428 . S
O137 C159 1.256 . S
O138 Tb95 2.308 . S
O138 C158 1.266 . S
O139 Tb84 2.393 . S
O139 C158 1.248 . S
C140 O129 1.264 . S
C140 O130 1.243 . S
C141 C144 1.399 . S
C141 C146 1.383 . S
C141 C148 1.496 . S
C142 C143 1.399 . S
C142 C146 1.389 . S
C143 C142 1.399 . S
C143 C145 1.380 . S
C143 H160 0.929 . S
C144 C141 1.399 . S
C144 C145 1.392 . S
C144 H161 0.929 . S
C145 C143 1.380 . S
C145 C144 1.392 . S
C145 H162 0.929 . S
C146 C141 1.383 . S
C146 C142 1.389 . S
C146 H163 0.931 . S
C147 O132 1.266 . S
C147 O133 1.248 . S
C148 Tb84 2.802 . S
C148 O128 1.264 . S
C148 O131 1.256 . S
C148 C141 1.496 . S
C149 C116 1.448 . S
C149 H126 0.930 . S
C149 C150 1.328 . S
C150 C121 1.427 . S
C150 H127 0.929 . S
C150 C149 1.328 . S
C151 O135 1.264 . S
C151 O136 1.243 . S
C152 C155 1.399 . S
C152 C156 1.383 . S
C152 C159 1.496 . S
C153 C154 1.399 . S
C153 C156 1.389 . S
C154 C153 1.399 . S
C154 C157 1.380 . S
C154 H164 0.929 . S
C155 C152 1.399 . S
C155 C157 1.392 . S
C155 H165 0.929 . S
C156 C152 1.383 . S
C156 C153 1.389 . S
C156 H166 0.931 . S
C157 C154 1.380 . S
C157 C155 1.392 . S
C157 H167 0.929 . S
C158 O138 1.266 . S
C158 O139 1.248 . S
C159 Tb95 2.802 . S
C159 O134 1.264 . S
C159 O137 1.256 . S
C159 C152 1.496 . S
H160 C143 0.929 . S
H161 C144 0.929 . S
H162 C145 0.929 . S
H163 C146 0.931 . S
H164 C154 0.929 . S
H165 C155 0.929 . S
H166 C156 0.931 . S
H167 C157 0.929 . S
Tb168 N197 2.617 . S
Tb168 N203 2.572 . S
Tb168 O212 2.465 . S
Tb168 O213 2.387 . S
Tb168 O215 2.428 . S
Tb168 O216 2.308 . S
Tb168 O220 2.349 . S
Tb168 O223 2.393 . S
Tb168 C232 2.802 . S
C169 N170 1.379 . S
C169 C172 1.416 . S
C169 C176 1.424 . S
N170 C169 1.379 . S
N170 C173 1.334 . S
N170 Tb179 2.617 . S
C171 C173 1.390 . S
C171 C174 1.339 . S
C171 H191 0.930 . S
C172 C169 1.416 . S
C172 C174 1.416 . S
C172 C178 1.448 . S
C173 N170 1.334 . S
C173 C171 1.390 . S
C173 H184 0.930 . S
C174 C171 1.339 . S
C174 C172 1.416 . S
C174 H195 0.930 . S
C175 C176 1.413 . S
C175 C177 1.427 . S
C175 C181 1.416 . S
C176 C169 1.424 . S
C176 C175 1.413 . S
C176 N180 1.361 . S
C177 C175 1.427 . S
C177 C178 1.328 . S
C177 H192 0.929 . S
C178 C172 1.448 . S
C178 C177 1.328 . S
C178 H193 0.930 . S
Tb179 N170 2.617 . S
Tb179 N180 2.572 . S
Tb179 O214 2.349 . S
Tb179 O217 2.393 . S
Tb179 O218 2.465 . S
Tb179 O219 2.387 . S
Tb179 O221 2.428 . S
Tb179 O222 2.308 . S
Tb179 C243 2.802 . S
N180 C176 1.361 . S
N180 Tb179 2.572 . S
N180 C182 1.340 . S
C181 C175 1.416 . S
C181 C183 1.332 . S
C181 H189 0.931 . S
C182 N180 1.340 . S
C182 C183 1.407 . S
C182 H188 0.930 . S
C183 C181 1.332 . S
C183 C182 1.407 . S
C183 H185 0.929 . S
H184 C173 0.930 . S
H185 C183 0.929 . S
H186 C201 0.930 . S
H187 C208 0.929 . S
H188 C182 0.930 . S
H189 C181 0.931 . S
H190 C204 0.930 . S
H191 C171 0.930 . S
H192 C177 0.929 . S
H193 C178 0.930 . S
H194 C199 0.930 . S
H195 C174 0.930 . S
H196 C207 0.931 . S
N197 Tb168 2.617 . S
N197 C198 1.379 . S
N197 C201 1.334 . S
C198 N197 1.379 . S
C198 C200 1.416 . S
C198 C206 1.424 . S
C199 H194 0.930 . S
C199 C201 1.390 . S
C199 C202 1.339 . S
C200 C198 1.416 . S
C200 C202 1.416 . S
C200 C233 1.448 . S
C201 H186 0.930 . S
C201 N197 1.334 . S
C201 C199 1.390 . S
C202 C199 1.339 . S
C202 C200 1.416 . S
C202 H209 0.930 . S
N203 Tb168 2.572 . S
N203 C204 1.340 . S
N203 C206 1.361 . S
C204 H190 0.930 . S
C204 N203 1.340 . S
C204 C208 1.407 . S
C205 C206 1.413 . S
C205 C207 1.416 . S
C205 C234 1.427 . S
C206 C198 1.424 . S
C206 N203 1.361 . S
C206 C205 1.413 . S
C207 H196 0.931 . S
C207 C205 1.416 . S
C207 C208 1.332 . S
C208 H187 0.929 . S
C208 C204 1.407 . S
C208 C207 1.332 . S
H209 C202 0.930 . S
H210 C233 0.930 . S
H211 C234 0.929 . S
O212 Tb168 2.465 . S
O212 C232 1.264 . S
O213 Tb168 2.387 . S
O213 C224 1.264 . S
O214 Tb179 2.349 . S
O214 C224 1.243 . S
O215 Tb168 2.428 . S
O215 C232 1.256 . S
O216 Tb168 2.308 . S
O216 C231 1.266 . S
O217 Tb179 2.393 . S
O217 C231 1.248 . S
O218 Tb179 2.465 . S
O218 C243 1.264 . S
O219 Tb179 2.387 . S
O219 C235 1.264 . S
O220 Tb168 2.349 . S
O220 C235 1.243 . S
O221 Tb179 2.428 . S
O221 C243 1.256 . S
O222 Tb179 2.308 . S
O222 C242 1.266 . S
O223 Tb168 2.393 . S
O223 C242 1.248 . S
C224 O213 1.264 . S
C224 O214 1.243 . S
C225 C228 1.399 . S
C225 C230 1.383 . S
C225 C232 1.496 . S
C226 C227 1.399 . S
C226 C230 1.389 . S
C227 C226 1.399 . S
C227 C229 1.380 . S
C227 H244 0.929 . S
C228 C225 1.399 . S
C228 C229 1.392 . S
C228 H245 0.929 . S
C229 C227 1.380 . S
C229 C228 1.392 . S
C229 H246 0.929 . S
C230 C225 1.383 . S
C230 C226 1.389 . S
C230 H247 0.931 . S
C231 O216 1.266 . S
C231 O217 1.248 . S
C232 Tb168 2.802 . S
C232 O212 1.264 . S
C232 O215 1.256 . S
C232 C225 1.496 . S
C233 C200 1.448 . S
C233 H210 0.930 . S
C233 C234 1.328 . S
C234 C205 1.427 . S
C234 H211 0.929 . S
C234 C233 1.328 . S
C235 O219 1.264 . S
C235 O220 1.243 . S
C236 C239 1.399 . S
C236 C240 1.383 . S
C236 C243 1.496 . S
C237 C238 1.399 . S
C237 C240 1.389 . S
C238 C237 1.399 . S
C238 C241 1.380 . S
C238 H248 0.929 . S
C239 C236 1.399 . S
C239 C241 1.392 . S
C239 H249 0.929 . S
C240 C236 1.383 . S
C240 C237 1.389 . S
C240 H250 0.931 . S
C241 C238 1.380 . S
C241 C239 1.392 . S
C241 H251 0.929 . S
C242 O222 1.266 . S
C242 O223 1.248 . S
C243 Tb179 2.802 . S
C243 O218 1.264 . S
C243 O221 1.256 . S
C243 C236 1.496 . S
H244 C227 0.929 . S
H245 C228 0.929 . S
H246 C229 0.929 . S
H247 C230 0.931 . S
H248 C238 0.929 . S
H249 C239 0.929 . S
H250 C240 0.931 . S
H251 C241 0.929 . S
Tb252 N281 2.617 . S
Tb252 N287 2.572 . S
Tb252 O296 2.465 . S
Tb252 O297 2.387 . S
Tb252 O299 2.428 . S
Tb252 O300 2.308 . S
Tb252 O304 2.349 . S
Tb252 O307 2.393 . S
Tb252 C316 2.802 . S
C253 N254 1.379 . S
C253 C256 1.416 . S
C253 C260 1.424 . S
N254 C253 1.379 . S
N254 C257 1.334 . S
N254 Tb263 2.617 . S
C255 C257 1.390 . S
C255 C258 1.339 . S
C255 H275 0.930 . S
C256 C253 1.416 . S
C256 C258 1.416 . S
C256 C262 1.448 . S
C257 N254 1.334 . S
C257 C255 1.390 . S
C257 H268 0.930 . S
C258 C255 1.339 . S
C258 C256 1.416 . S
C258 H279 0.930 . S
C259 C260 1.413 . S
C259 C261 1.427 . S
C259 C265 1.416 . S
C260 C253 1.424 . S
C260 C259 1.413 . S
C260 N264 1.361 . S
C261 C259 1.427 . S
C261 C262 1.328 . S
C261 H276 0.929 . S
C262 C256 1.448 . S
C262 C261 1.328 . S
C262 H277 0.930 . S
Tb263 N254 2.617 . S
Tb263 N264 2.572 . S
Tb263 O298 2.349 . S
Tb263 O301 2.393 . S
Tb263 O302 2.465 . S
Tb263 O303 2.387 . S
Tb263 O305 2.428 . S
Tb263 O306 2.308 . S
Tb263 C327 2.802 . S
N264 C260 1.361 . S
N264 Tb263 2.572 . S
N264 C266 1.340 . S
C265 C259 1.416 . S
C265 C267 1.332 . S
C265 H273 0.931 . S
C266 N264 1.340 . S
C266 C267 1.407 . S
C266 H272 0.930 . S
C267 C265 1.332 . S
C267 C266 1.407 . S
C267 H269 0.929 . S
H268 C257 0.930 . S
H269 C267 0.929 . S
H270 C285 0.930 . S
H271 C292 0.929 . S
H272 C266 0.930 . S
H273 C265 0.931 . S
H274 C288 0.930 . S
H275 C255 0.930 . S
H276 C261 0.929 . S
H277 C262 0.930 . S
H278 C283 0.930 . S
H279 C258 0.930 . S
H280 C291 0.931 . S
N281 Tb252 2.617 . S
N281 C282 1.379 . S
N281 C285 1.334 . S
C282 N281 1.379 . S
C282 C284 1.416 . S
C282 C290 1.424 . S
C283 H278 0.930 . S
C283 C285 1.390 . S
C283 C286 1.339 . S
C284 C282 1.416 . S
C284 C286 1.416 . S
C284 C317 1.448 . S
C285 H270 0.930 . S
C285 N281 1.334 . S
C285 C283 1.390 . S
C286 C283 1.339 . S
C286 C284 1.416 . S
C286 H293 0.930 . S
N287 Tb252 2.572 . S
N287 C288 1.340 . S
N287 C290 1.361 . S
C288 H274 0.930 . S
C288 N287 1.340 . S
C288 C292 1.407 . S
C289 C290 1.413 . S
C289 C291 1.416 . S
C289 C318 1.427 . S
C290 C282 1.424 . S
C290 N287 1.361 . S
C290 C289 1.413 . S
C291 H280 0.931 . S
C291 C289 1.416 . S
C291 C292 1.332 . S
C292 H271 0.929 . S
C292 C288 1.407 . S
C292 C291 1.332 . S
H293 C286 0.930 . S
H294 C317 0.930 . S
H295 C318 0.929 . S
O296 Tb252 2.465 . S
O296 C316 1.264 . S
O297 Tb252 2.387 . S
O297 C308 1.264 . S
O298 Tb263 2.349 . S
O298 C308 1.243 . S
O299 Tb252 2.428 . S
O299 C316 1.256 . S
O300 Tb252 2.308 . S
O300 C315 1.266 . S
O301 Tb263 2.393 . S
O301 C315 1.248 . S
O302 Tb263 2.465 . S
O302 C327 1.264 . S
O303 Tb263 2.387 . S
O303 C319 1.264 . S
O304 Tb252 2.349 . S
O304 C319 1.243 . S
O305 Tb263 2.428 . S
O305 C327 1.256 . S
O306 Tb263 2.308 . S
O306 C326 1.266 . S
O307 Tb252 2.393 . S
O307 C326 1.248 . S
C308 O297 1.264 . S
C308 O298 1.243 . S
C309 C312 1.399 . S
C309 C314 1.383 . S
C309 C316 1.496 . S
C310 C311 1.399 . S
C310 C314 1.389 . S
C311 C310 1.399 . S
C311 C313 1.380 . S
C311 H328 0.929 . S
C312 C309 1.399 . S
C312 C313 1.392 . S
C312 H329 0.929 . S
C313 C311 1.380 . S
C313 C312 1.392 . S
C313 H330 0.929 . S
C314 C309 1.383 . S
C314 C310 1.389 . S
C314 H331 0.931 . S
C315 O300 1.266 . S
C315 O301 1.248 . S
C316 Tb252 2.802 . S
C316 O296 1.264 . S
C316 O299 1.256 . S
C316 C309 1.496 . S
C317 C284 1.448 . S
C317 H294 0.930 . S
C317 C318 1.328 . S
C318 C289 1.427 . S
C318 H295 0.929 . S
C318 C317 1.328 . S
C319 O303 1.264 . S
C319 O304 1.243 . S
C320 C323 1.399 . S
C320 C324 1.383 . S
C320 C327 1.496 . S
C321 C322 1.399 . S
C321 C324 1.389 . S
C322 C321 1.399 . S
C322 C325 1.380 . S
C322 H332 0.929 . S
C323 C320 1.399 . S
C323 C325 1.392 . S
C323 H333 0.929 . S
C324 C320 1.383 . S
C324 C321 1.389 . S
C324 H334 0.931 . S
C325 C322 1.380 . S
C325 C323 1.392 . S
C325 H335 0.929 . S
C326 O306 1.266 . S
C326 O307 1.248 . S
C327 Tb263 2.802 . S
C327 O302 1.264 . S
C327 O305 1.256 . S
C327 C320 1.496 . S
H328 C311 0.929 . S
H329 C312 0.929 . S
H330 C313 0.929 . S
H331 C314 0.931 . S
H332 C322 0.929 . S
H333 C323 0.929 . S
H334 C324 0.931 . S
H335 C325 0.929 . S
Tb336 N365 2.617 . S
Tb336 N371 2.572 . S
Tb336 O380 2.465 . S
Tb336 O381 2.387 . S
Tb336 O383 2.428 . S
Tb336 O384 2.308 . S
Tb336 O388 2.349 . S
Tb336 O391 2.393 . S
Tb336 C400 2.802 . S
C337 N338 1.379 . S
C337 C340 1.416 . S
C337 C344 1.424 . S
N338 C337 1.379 . S
N338 C341 1.334 . S
N338 Tb347 2.617 . S
C339 C341 1.390 . S
C339 C342 1.339 . S
C339 H359 0.930 . S
C340 C337 1.416 . S
C340 C342 1.416 . S
C340 C346 1.448 . S
C341 N338 1.334 . S
C341 C339 1.390 . S
C341 H352 0.930 . S
C342 C339 1.339 . S
C342 C340 1.416 . S
C342 H363 0.930 . S
C343 C344 1.413 . S
C343 C345 1.427 . S
C343 C349 1.416 . S
C344 C337 1.424 . S
C344 C343 1.413 . S
C344 N348 1.361 . S
C345 C343 1.427 . S
C345 C346 1.328 . S
C345 H360 0.929 . S
C346 C340 1.448 . S
C346 C345 1.328 . S
C346 H361 0.930 . S
Tb347 N338 2.617 . S
Tb347 N348 2.572 . S
Tb347 O382 2.349 . S
Tb347 O385 2.393 . S
Tb347 O386 2.465 . S
Tb347 O387 2.387 . S
Tb347 O389 2.428 . S
Tb347 O390 2.308 . S
Tb347 C411 2.802 . S
N348 C344 1.361 . S
N348 Tb347 2.572 . S
N348 C350 1.340 . S
C349 C343 1.416 . S
C349 C351 1.332 . S
C349 H357 0.931 . S
C350 N348 1.340 . S
C350 C351 1.407 . S
C350 H356 0.930 . S
C351 C349 1.332 . S
C351 C350 1.407 . S
C351 H353 0.929 . S
H352 C341 0.930 . S
H353 C351 0.929 . S
H354 C369 0.930 . S
H355 C376 0.929 . S
H356 C350 0.930 . S
H357 C349 0.931 . S
H358 C372 0.930 . S
H359 C339 0.930 . S
H360 C345 0.929 . S
H361 C346 0.930 . S
H362 C367 0.930 . S
H363 C342 0.930 . S
H364 C375 0.931 . S
N365 Tb336 2.617 . S
N365 C366 1.379 . S
N365 C369 1.334 . S
C366 N365 1.379 . S
C366 C368 1.416 . S
C366 C374 1.424 . S
C367 H362 0.930 . S
C367 C369 1.390 . S
C367 C370 1.339 . S
C368 C366 1.416 . S
C368 C370 1.416 . S
C368 C401 1.448 . S
C369 H354 0.930 . S
C369 N365 1.334 . S
C369 C367 1.390 . S
C370 C367 1.339 . S
C370 C368 1.416 . S
C370 H377 0.930 . S
N371 Tb336 2.572 . S
N371 C372 1.340 . S
N371 C374 1.361 . S
C372 H358 0.930 . S
C372 N371 1.340 . S
C372 C376 1.407 . S
C373 C374 1.413 . S
C373 C375 1.416 . S
C373 C402 1.427 . S
C374 C366 1.424 . S
C374 N371 1.361 . S
C374 C373 1.413 . S
C375 H364 0.931 . S
C375 C373 1.416 . S
C375 C376 1.332 . S
C376 H355 0.929 . S
C376 C372 1.407 . S
C376 C375 1.332 . S
H377 C370 0.930 . S
H378 C401 0.930 . S
H379 C402 0.929 . S
O380 Tb336 2.465 . S
O380 C400 1.264 . S
O381 Tb336 2.387 . S
O381 C392 1.264 . S
O382 Tb347 2.349 . S
O382 C392 1.243 . S
O383 Tb336 2.428 . S
O383 C400 1.256 . S
O384 Tb336 2.308 . S
O384 C399 1.266 . S
O385 Tb347 2.393 . S
O385 C399 1.248 . S
O386 Tb347 2.465 . S
O386 C411 1.264 . S
O387 Tb347 2.387 . S
O387 C403 1.264 . S
O388 Tb336 2.349 . S
O388 C403 1.243 . S
O389 Tb347 2.428 . S
O389 C411 1.256 . S
O390 Tb347 2.308 . S
O390 C410 1.266 . S
O391 Tb336 2.393 . S
O391 C410 1.248 . S
C392 O381 1.264 . S
C392 O382 1.243 . S
C393 C396 1.399 . S
C393 C398 1.383 . S
C393 C400 1.496 . S
C394 C395 1.399 . S
C394 C398 1.389 . S
C395 C394 1.399 . S
C395 C397 1.380 . S
C395 H412 0.929 . S
C396 C393 1.399 . S
C396 C397 1.392 . S
C396 H413 0.929 . S
C397 C395 1.380 . S
C397 C396 1.392 . S
C397 H414 0.929 . S
C398 C393 1.383 . S
C398 C394 1.389 . S
C398 H415 0.931 . S
C399 O384 1.266 . S
C399 O385 1.248 . S
C400 Tb336 2.802 . S
C400 O380 1.264 . S
C400 O383 1.256 . S
C400 C393 1.496 . S
C401 C368 1.448 . S
C401 H378 0.930 . S
C401 C402 1.328 . S
C402 C373 1.427 . S
C402 H379 0.929 . S
C402 C401 1.328 . S
C403 O387 1.264 . S
C403 O388 1.243 . S
C404 C407 1.399 . S
C404 C408 1.383 . S
C404 C411 1.496 . S
C405 C406 1.399 . S
C405 C408 1.389 . S
C406 C405 1.399 . S
C406 C409 1.380 . S
C406 H416 0.929 . S
C407 C404 1.399 . S
C407 C409 1.392 . S
C407 H417 0.929 . S
C408 C404 1.383 . S
C408 C405 1.389 . S
C408 H418 0.931 . S
C409 C406 1.380 . S
C409 C407 1.392 . S
C409 H419 0.929 . S
C410 O390 1.266 . S
C410 O391 1.248 . S
C411 Tb347 2.802 . S
C411 O386 1.264 . S
C411 O389 1.256 . S
C411 C404 1.496 . S
H412 C395 0.929 . S
H413 C396 0.929 . S
H414 C397 0.929 . S
H415 C398 0.931 . S
H416 C406 0.929 . S
H417 C407 0.929 . S
H418 C408 0.931 . S
H419 C409 0.929 . S
Tb420 N449 2.617 . S
Tb420 N455 2.572 . S
Tb420 O464 2.465 . S
Tb420 O465 2.387 . S
Tb420 O467 2.428 . S
Tb420 O468 2.308 . S
Tb420 O472 2.349 . S
Tb420 O475 2.393 . S
Tb420 C484 2.802 . S
C421 N422 1.379 . S
C421 C424 1.416 . S
C421 C428 1.424 . S
N422 C421 1.379 . S
N422 C425 1.334 . S
N422 Tb431 2.617 . S
C423 C425 1.390 . S
C423 C426 1.339 . S
C423 H443 0.930 . S
C424 C421 1.416 . S
C424 C426 1.416 . S
C424 C430 1.448 . S
C425 N422 1.334 . S
C425 C423 1.390 . S
C425 H436 0.930 . S
C426 C423 1.339 . S
C426 C424 1.416 . S
C426 H447 0.930 . S
C427 C428 1.413 . S
C427 C429 1.427 . S
C427 C433 1.416 . S
C428 C421 1.424 . S
C428 C427 1.413 . S
C428 N432 1.361 . S
C429 C427 1.427 . S
C429 C430 1.328 . S
C429 H444 0.929 . S
C430 C424 1.448 . S
C430 C429 1.328 . S
C430 H445 0.930 . S
Tb431 N422 2.617 . S
Tb431 N432 2.572 . S
Tb431 O466 2.349 . S
Tb431 O469 2.393 . S
Tb431 O470 2.465 . S
Tb431 O471 2.387 . S
Tb431 O473 2.428 . S
Tb431 O474 2.308 . S
Tb431 C495 2.802 . S
N432 C428 1.361 . S
N432 Tb431 2.572 . S
N432 C434 1.340 . S
C433 C427 1.416 . S
C433 C435 1.332 . S
C433 H441 0.931 . S
C434 N432 1.340 . S
C434 C435 1.407 . S
C434 H440 0.930 . S
C435 C433 1.332 . S
C435 C434 1.407 . S
C435 H437 0.929 . S
H436 C425 0.930 . S
H437 C435 0.929 . S
H438 C453 0.930 . S
H439 C460 0.929 . S
H440 C434 0.930 . S
H441 C433 0.931 . S
H442 C456 0.930 . S
H443 C423 0.930 . S
H444 C429 0.929 . S
H445 C430 0.930 . S
H446 C451 0.930 . S
H447 C426 0.930 . S
H448 C459 0.931 . S
N449 Tb420 2.617 . S
N449 C450 1.379 . S
N449 C453 1.334 . S
C450 N449 1.379 . S
C450 C452 1.416 . S
C450 C458 1.424 . S
C451 H446 0.930 . S
C451 C453 1.390 . S
C451 C454 1.339 . S
C452 C450 1.416 . S
C452 C454 1.416 . S
C452 C485 1.448 . S
C453 H438 0.930 . S
C453 N449 1.334 . S
C453 C451 1.390 . S
C454 C451 1.339 . S
C454 C452 1.416 . S
C454 H461 0.930 . S
N455 Tb420 2.572 . S
N455 C456 1.340 . S
N455 C458 1.361 . S
C456 H442 0.930 . S
C456 N455 1.340 . S
C456 C460 1.407 . S
C457 C458 1.413 . S
C457 C459 1.416 . S
C457 C486 1.427 . S
C458 C450 1.424 . S
C458 N455 1.361 . S
C458 C457 1.413 . S
C459 H448 0.931 . S
C459 C457 1.416 . S
C459 C460 1.332 . S
C460 H439 0.929 . S
C460 C456 1.407 . S
C460 C459 1.332 . S
H461 C454 0.930 . S
H462 C485 0.930 . S
H463 C486 0.929 . S
O464 Tb420 2.465 . S
O464 C484 1.264 . S
O465 Tb420 2.387 . S
O465 C476 1.264 . S
O466 Tb431 2.349 . S
O466 C476 1.243 . S
O467 Tb420 2.428 . S
O467 C484 1.256 . S
O468 Tb420 2.308 . S
O468 C483 1.266 . S
O469 Tb431 2.393 . S
O469 C483 1.248 . S
O470 Tb431 2.465 . S
O470 C495 1.264 . S
O471 Tb431 2.387 . S
O471 C487 1.264 . S
O472 Tb420 2.349 . S
O472 C487 1.243 . S
O473 Tb431 2.428 . S
O473 C495 1.256 . S
O474 Tb431 2.308 . S
O474 C494 1.266 . S
O475 Tb420 2.393 . S
O475 C494 1.248 . S
C476 O465 1.264 . S
C476 O466 1.243 . S
C477 C480 1.399 . S
C477 C482 1.383 . S
C477 C484 1.496 . S
C478 C479 1.399 . S
C478 C482 1.389 . S
C479 C478 1.399 . S
C479 C481 1.380 . S
C479 H496 0.929 . S
C480 C477 1.399 . S
C480 C481 1.392 . S
C480 H497 0.929 . S
C481 C479 1.380 . S
C481 C480 1.392 . S
C481 H498 0.929 . S
C482 C477 1.383 . S
C482 C478 1.389 . S
C482 H499 0.931 . S
C483 O468 1.266 . S
C483 O469 1.248 . S
C484 Tb420 2.802 . S
C484 O464 1.264 . S
C484 O467 1.256 . S
C484 C477 1.496 . S
C485 C452 1.448 . S
C485 H462 0.930 . S
C485 C486 1.328 . S
C486 C457 1.427 . S
C486 H463 0.929 . S
C486 C485 1.328 . S
C487 O471 1.264 . S
C487 O472 1.243 . S
C488 C491 1.399 . S
C488 C492 1.383 . S
C488 C495 1.496 . S
C489 C490 1.399 . S
C489 C492 1.389 . S
C490 C489 1.399 . S
C490 C493 1.380 . S
C490 H500 0.929 . S
C491 C488 1.399 . S
C491 C493 1.392 . S
C491 H501 0.929 . S
C492 C488 1.383 . S
C492 C489 1.389 . S
C492 H502 0.931 . S
C493 C490 1.380 . S
C493 C491 1.392 . S
C493 H503 0.929 . S
C494 O474 1.266 . S
C494 O475 1.248 . S
C495 Tb431 2.802 . S
C495 O470 1.264 . S
C495 O473 1.256 . S
C495 C488 1.496 . S
H496 C479 0.929 . S
H497 C480 0.929 . S
H498 C481 0.929 . S
H499 C482 0.931 . S
H500 C490 0.929 . S
H501 C491 0.929 . S
H502 C492 0.931 . S
H503 C493 0.929 . S
Tb504 N533 2.617 . S
Tb504 N539 2.572 . S
Tb504 O548 2.465 . S
Tb504 O549 2.387 . S
Tb504 O551 2.428 . S
Tb504 O552 2.308 . S
Tb504 O556 2.349 . S
Tb504 O559 2.393 . S
Tb504 C568 2.802 . S
C505 N506 1.379 . S
C505 C508 1.416 . S
C505 C512 1.424 . S
N506 C505 1.379 . S
N506 C509 1.334 . S
N506 Tb515 2.617 . S
C507 C509 1.390 . S
C507 C510 1.339 . S
C507 H527 0.930 . S
C508 C505 1.416 . S
C508 C510 1.416 . S
C508 C514 1.448 . S
C509 N506 1.334 . S
C509 C507 1.390 . S
C509 H520 0.930 . S
C510 C507 1.339 . S
C510 C508 1.416 . S
C510 H531 0.930 . S
C511 C512 1.413 . S
C511 C513 1.427 . S
C511 C517 1.416 . S
C512 C505 1.424 . S
C512 C511 1.413 . S
C512 N516 1.361 . S
C513 C511 1.427 . S
C513 C514 1.328 . S
C513 H528 0.929 . S
C514 C508 1.448 . S
C514 C513 1.328 . S
C514 H529 0.930 . S
Tb515 N506 2.617 . S
Tb515 N516 2.572 . S
Tb515 O550 2.349 . S
Tb515 O553 2.393 . S
Tb515 O554 2.465 . S
Tb515 O555 2.387 . S
Tb515 O557 2.428 . S
Tb515 O558 2.308 . S
Tb515 C579 2.802 . S
N516 C512 1.361 . S
N516 Tb515 2.572 . S
N516 C518 1.340 . S
C517 C511 1.416 . S
C517 C519 1.332 . S
C517 H525 0.931 . S
C518 N516 1.340 . S
C518 C519 1.407 . S
C518 H524 0.930 . S
C519 C517 1.332 . S
C519 C518 1.407 . S
C519 H521 0.929 . S
H520 C509 0.930 . S
H521 C519 0.929 . S
H522 C537 0.930 . S
H523 C544 0.929 . S
H524 C518 0.930 . S
H525 C517 0.931 . S
H526 C540 0.930 . S
H527 C507 0.930 . S
H528 C513 0.929 . S
H529 C514 0.930 . S
H530 C535 0.930 . S
H531 C510 0.930 . S
H532 C543 0.931 . S
N533 Tb504 2.617 . S
N533 C534 1.379 . S
N533 C537 1.334 . S
C534 N533 1.379 . S
C534 C536 1.416 . S
C534 C542 1.424 . S
C535 H530 0.930 . S
C535 C537 1.390 . S
C535 C538 1.339 . S
C536 C534 1.416 . S
C536 C538 1.416 . S
C536 C569 1.448 . S
C537 H522 0.930 . S
C537 N533 1.334 . S
C537 C535 1.390 . S
C538 C535 1.339 . S
C538 C536 1.416 . S
C538 H545 0.930 . S
N539 Tb504 2.572 . S
N539 C540 1.340 . S
N539 C542 1.361 . S
C540 H526 0.930 . S
C540 N539 1.340 . S
C540 C544 1.407 . S
C541 C542 1.413 . S
C541 C543 1.416 . S
C541 C570 1.427 . S
C542 C534 1.424 . S
C542 N539 1.361 . S
C542 C541 1.413 . S
C543 H532 0.931 . S
C543 C541 1.416 . S
C543 C544 1.332 . S
C544 H523 0.929 . S
C544 C540 1.407 . S
C544 C543 1.332 . S
H545 C538 0.930 . S
H546 C569 0.930 . S
H547 C570 0.929 . S
O548 Tb504 2.465 . S
O548 C568 1.264 . S
O549 Tb504 2.387 . S
O549 C560 1.264 . S
O550 Tb515 2.349 . S
O550 C560 1.243 . S
O551 Tb504 2.428 . S
O551 C568 1.256 . S
O552 Tb504 2.308 . S
O552 C567 1.266 . S
O553 Tb515 2.393 . S
O553 C567 1.248 . S
O554 Tb515 2.465 . S
O554 C579 1.264 . S
O555 Tb515 2.387 . S
O555 C571 1.264 . S
O556 Tb504 2.349 . S
O556 C571 1.243 . S
O557 Tb515 2.428 . S
O557 C579 1.256 . S
O558 Tb515 2.308 . S
O558 C578 1.266 . S
O559 Tb504 2.393 . S
O559 C578 1.248 . S
C560 O549 1.264 . S
C560 O550 1.243 . S
C561 C564 1.399 . S
C561 C566 1.383 . S
C561 C568 1.496 . S
C562 C563 1.399 . S
C562 C566 1.389 . S
C563 C562 1.399 . S
C563 C565 1.380 . S
C563 H580 0.929 . S
C564 C561 1.399 . S
C564 C565 1.392 . S
C564 H581 0.929 . S
C565 C563 1.380 . S
C565 C564 1.392 . S
C565 H582 0.929 . S
C566 C561 1.383 . S
C566 C562 1.389 . S
C566 H583 0.931 . S
C567 O552 1.266 . S
C567 O553 1.248 . S
C568 Tb504 2.802 . S
C568 O548 1.264 . S
C568 O551 1.256 . S
C568 C561 1.496 . S
C569 C536 1.448 . S
C569 H546 0.930 . S
C569 C570 1.328 . S
C570 C541 1.427 . S
C570 H547 0.929 . S
C570 C569 1.328 . S
C571 O555 1.264 . S
C571 O556 1.243 . S
C572 C575 1.399 . S
C572 C576 1.383 . S
C572 C579 1.496 . S
C573 C574 1.399 . S
C573 C576 1.389 . S
C574 C573 1.399 . S
C574 C577 1.380 . S
C574 H584 0.929 . S
C575 C572 1.399 . S
C575 C577 1.392 . S
C575 H585 0.929 . S
C576 C572 1.383 . S
C576 C573 1.389 . S
C576 H586 0.931 . S
C577 C574 1.380 . S
C577 C575 1.392 . S
C577 H587 0.929 . S
C578 O558 1.266 . S
C578 O559 1.248 . S
C579 Tb515 2.802 . S
C579 O554 1.264 . S
C579 O557 1.256 . S
C579 C572 1.496 . S
H580 C563 0.929 . S
H581 C564 0.929 . S
H582 C565 0.929 . S
H583 C566 0.931 . S
H584 C574 0.929 . S
H585 C575 0.929 . S
H586 C576 0.931 . S
H587 C577 0.929 . S
Tb588 N617 2.617 . S
Tb588 N623 2.572 . S
Tb588 O632 2.465 . S
Tb588 O633 2.387 . S
Tb588 O635 2.428 . S
Tb588 O636 2.308 . S
Tb588 O640 2.349 . S
Tb588 O643 2.393 . S
Tb588 C652 2.802 . S
C589 N590 1.379 . S
C589 C592 1.416 . S
C589 C596 1.424 . S
N590 C589 1.379 . S
N590 C593 1.334 . S
N590 Tb599 2.617 . S
C591 C593 1.390 . S
C591 C594 1.339 . S
C591 H611 0.930 . S
C592 C589 1.416 . S
C592 C594 1.416 . S
C592 C598 1.448 . S
C593 N590 1.334 . S
C593 C591 1.390 . S
C593 H604 0.930 . S
C594 C591 1.339 . S
C594 C592 1.416 . S
C594 H615 0.930 . S
C595 C596 1.413 . S
C595 C597 1.427 . S
C595 C601 1.416 . S
C596 C589 1.424 . S
C596 C595 1.413 . S
C596 N600 1.361 . S
C597 C595 1.427 . S
C597 C598 1.328 . S
C597 H612 0.929 . S
C598 C592 1.448 . S
C598 C597 1.328 . S
C598 H613 0.930 . S
Tb599 N590 2.617 . S
Tb599 N600 2.572 . S
Tb599 O634 2.349 . S
Tb599 O637 2.393 . S
Tb599 O638 2.465 . S
Tb599 O639 2.387 . S
Tb599 O641 2.428 . S
Tb599 O642 2.308 . S
Tb599 C663 2.802 . S
N600 C596 1.361 . S
N600 Tb599 2.572 . S
N600 C602 1.340 . S
C601 C595 1.416 . S
C601 C603 1.332 . S
C601 H609 0.931 . S
C602 N600 1.340 . S
C602 C603 1.407 . S
C602 H608 0.930 . S
C603 C601 1.332 . S
C603 C602 1.407 . S
C603 H605 0.929 . S
H604 C593 0.930 . S
H605 C603 0.929 . S
H606 C621 0.930 . S
H607 C628 0.929 . S
H608 C602 0.930 . S
H609 C601 0.931 . S
H610 C624 0.930 . S
H611 C591 0.930 . S
H612 C597 0.929 . S
H613 C598 0.930 . S
H614 C619 0.930 . S
H615 C594 0.930 . S
H616 C627 0.931 . S
N617 Tb588 2.617 . S
N617 C618 1.379 . S
N617 C621 1.334 . S
C618 N617 1.379 . S
C618 C620 1.416 . S
C618 C626 1.424 . S
C619 H614 0.930 . S
C619 C621 1.390 . S
C619 C622 1.339 . S
C620 C618 1.416 . S
C620 C622 1.416 . S
C620 C653 1.448 . S
C621 H606 0.930 . S
C621 N617 1.334 . S
C621 C619 1.390 . S
C622 C619 1.339 . S
C622 C620 1.416 . S
C622 H629 0.930 . S
N623 Tb588 2.572 . S
N623 C624 1.340 . S
N623 C626 1.361 . S
C624 H610 0.930 . S
C624 N623 1.340 . S
C624 C628 1.407 . S
C625 C626 1.413 . S
C625 C627 1.416 . S
C625 C654 1.427 . S
C626 C618 1.424 . S
C626 N623 1.361 . S
C626 C625 1.413 . S
C627 H616 0.931 . S
C627 C625 1.416 . S
C627 C628 1.332 . S
C628 H607 0.929 . S
C628 C624 1.407 . S
C628 C627 1.332 . S
H629 C622 0.930 . S
H630 C653 0.930 . S
H631 C654 0.929 . S
O632 Tb588 2.465 . S
O632 C652 1.264 . S
O633 Tb588 2.387 . S
O633 C644 1.264 . S
O634 Tb599 2.349 . S
O634 C644 1.243 . S
O635 Tb588 2.428 . S
O635 C652 1.256 . S
O636 Tb588 2.308 . S
O636 C651 1.266 . S
O637 Tb599 2.393 . S
O637 C651 1.248 . S
O638 Tb599 2.465 . S
O638 C663 1.264 . S
O639 Tb599 2.387 . S
O639 C655 1.264 . S
O640 Tb588 2.349 . S
O640 C655 1.243 . S
O641 Tb599 2.428 . S
O641 C663 1.256 . S
O642 Tb599 2.308 . S
O642 C662 1.266 . S
O643 Tb588 2.393 . S
O643 C662 1.248 . S
C644 O633 1.264 . S
C644 O634 1.243 . S
C645 C648 1.399 . S
C645 C650 1.383 . S
C645 C652 1.496 . S
C646 C647 1.399 . S
C646 C650 1.389 . S
C647 C646 1.399 . S
C647 C649 1.380 . S
C647 H664 0.929 . S
C648 C645 1.399 . S
C648 C649 1.392 . S
C648 H665 0.929 . S
C649 C647 1.380 . S
C649 C648 1.392 . S
C649 H666 0.929 . S
C650 C645 1.383 . S
C650 C646 1.389 . S
C650 H667 0.931 . S
C651 O636 1.266 . S
C651 O637 1.248 . S
C652 Tb588 2.802 . S
C652 O632 1.264 . S
C652 O635 1.256 . S
C652 C645 1.496 . S
C653 C620 1.448 . S
C653 H630 0.930 . S
C653 C654 1.328 . S
C654 C625 1.427 . S
C654 H631 0.929 . S
C654 C653 1.328 . S
C655 O639 1.264 . S
C655 O640 1.243 . S
C656 C659 1.399 . S
C656 C660 1.383 . S
C656 C663 1.496 . S
C657 C658 1.399 . S
C657 C660 1.389 . S
C658 C657 1.399 . S
C658 C661 1.380 . S
C658 H668 0.929 . S
C659 C656 1.399 . S
C659 C661 1.392 . S
C659 H669 0.929 . S
C660 C656 1.383 . S
C660 C657 1.389 . S
C660 H670 0.931 . S
C661 C658 1.380 . S
C661 C659 1.392 . S
C661 H671 0.929 . S
C662 O642 1.266 . S
C662 O643 1.248 . S
C663 Tb599 2.802 . S
C663 O638 1.264 . S
C663 O641 1.256 . S
C663 C656 1.496 . S
H664 C647 0.929 . S
H665 C648 0.929 . S
H666 C649 0.929 . S
H667 C650 0.931 . S
H668 C658 0.929 . S
H669 C659 0.929 . S
H670 C660 0.931 . S
H671 C661 0.929 . S
C672 O684 1.241 . S
C672 O685 1.280 . S
C673 O686 1.277 . S
C673 O687 1.245 . S
C674 O698 1.247 . S
C674 O700 1.289 . S
Mg675 O676 1.926 . S
Mg675 O685 1.984 . S
Mg675 O687 1.988 . S
Mg675 O688 2.061 1_655 S
O676 Mg675 1.926 . S
O676 Mg677 1.986 1_545 S
O676 Mg678 1.909 1_655 S
Mg677 O676 1.986 1_565 S
Mg677 O684 2.042 1_565 S
Mg677 O686 2.041 1_565 S
Mg677 O692 2.038 . S
Mg677 O700 2.238 . S
Mg678 O676 1.909 1_455 S
Mg678 O679 1.925 1_545 S
Mg678 O689 2.114 . S
Mg678 O691 2.077 1_445 S
Mg678 O700 2.099 1_445 S
Mg678 O701 2.081 . S
O679 Mg678 1.925 1_565 S
O679 Mg680 1.926 . S
O679 Mg681 1.986 1_565 S
Mg680 O679 1.926 . S
Mg680 O694 1.984 . S
Mg680 O697 1.988 . S
Mg680 O698 2.061 1_455 S
Mg681 O679 1.986 1_545 S
Mg681 O689 2.238 . S
Mg681 O693 2.042 1_545 S
Mg681 O695 2.041 1_545 S
Mg681 O702 2.038 . S
C682 O688 1.247 . S
C682 O689 1.289 . S
C683 O701 1.245 . S
C683 O702 1.274 . S
O684 C672 1.241 . S
O684 Mg677 2.042 1_545 S
O685 C672 1.280 . S
O685 Mg675 1.984 . S
O686 C673 1.277 . S
O686 Mg677 2.041 1_545 S
O687 C673 1.245 . S
O687 Mg675 1.988 . S
O688 Mg675 2.061 1_455 S
O688 C682 1.247 . S
O689 Mg678 2.114 . S
O689 Mg681 2.238 . S
O689 C682 1.289 . S
C690 O691 1.245 . S
C690 O692 1.274 . S
O691 Mg678 2.077 1_665 S
O691 C690 1.245 . S
O692 Mg677 2.038 . S
O692 C690 1.274 . S
O693 Mg681 2.042 1_565 S
O693 C696 1.241 . S
O694 Mg680 1.984 . S
O694 C696 1.280 . S
O695 Mg681 2.041 1_565 S
O695 C699 1.277 . S
C696 O693 1.241 . S
C696 O694 1.280 . S
O697 Mg680 1.988 . S
O697 C699 1.245 . S
O698 C674 1.247 . S
O698 Mg680 2.061 1_655 S
C699 O695 1.277 . S
C699 O697 1.245 . S
O700 C674 1.289 . S
O700 Mg677 2.238 . S
O700 Mg678 2.099 1_665 S
O701 Mg678 2.081 . S
O701 C683 1.245 . S
O702 Mg681 2.038 . S
O702 C683 1.274 . S
C703 O715 1.241 . S
C703 O716 1.280 . S
C704 O717 1.277 . S
C704 O718 1.245 . S
C705 O729 1.247 . S
C705 O731 1.289 . S
Mg706 O707 1.926 . S
Mg706 O716 1.984 . S
Mg706 O718 1.988 1_554 S
Mg706 O719 2.061 . S
O707 Mg706 1.926 . S
O707 Mg708 1.986 1_545 S
O707 Mg709 1.920 . S
Mg708 O707 1.986 1_565 S
Mg708 O715 2.042 1_565 S
Mg708 O717 2.041 1_564 S
Mg708 O723 2.038 . S
Mg708 O731 2.238 1_554 S
Mg709 O707 1.920 . S
Mg709 O710 1.913 1_544 S
Mg709 O720 2.112 . S
Mg709 O722 2.086 1_545 S
Mg709 O731 2.101 1_544 S
Mg709 O732 2.071 1_554 S
O710 Mg709 1.913 1_566 S
O710 Mg711 1.926 . S
O710 Mg712 1.986 1_565 S
Mg711 O710 1.926 . S
Mg711 O725 1.984 . S
Mg711 O728 1.988 1_556 S
Mg711 O729 2.061 . S
Mg712 O710 1.986 1_545 S
Mg712 O720 2.238 1_556 S
Mg712 O724 2.042 1_545 S
Mg712 O726 2.041 1_546 S
Mg712 O733 2.038 . S
C713 O719 1.247 . S
C713 O720 1.289 . S
C714 O732 1.245 . S
C714 O733 1.274 . S
O715 C703 1.241 . S
O715 Mg708 2.042 1_545 S
O716 C703 1.280 . S
O716 Mg706 1.984 . S
O717 C704 1.277 . S
O717 Mg708 2.041 1_546 S
O718 C704 1.245 . S
O718 Mg706 1.988 1_556 S
O719 Mg706 2.061 . S
O719 C713 1.247 . S
O720 Mg709 2.112 . S
O720 Mg712 2.238 1_554 S
O720 C713 1.289 . S
C721 O722 1.245 . S
C721 O723 1.274 . S
O722 Mg709 2.086 1_565 S
O722 C721 1.245 . S
O723 Mg708 2.038 . S
O723 C721 1.274 . S
O724 Mg712 2.042 1_565 S
O724 C727 1.241 . S
O725 Mg711 1.984 . S
O725 C727 1.280 . S
O726 Mg712 2.041 1_564 S
O726 C730 1.277 . S
C727 O724 1.241 . S
C727 O725 1.280 . S
O728 Mg711 1.988 1_554 S
O728 C730 1.245 . S
O729 C705 1.247 . S
O729 Mg711 2.061 . S
C730 O726 1.277 . S
C730 O728 1.245 . S
O731 C705 1.289 . S
O731 Mg708 2.238 1_556 S
O731 Mg709 2.101 1_566 S
O732 Mg709 2.071 1_556 S
O732 C714 1.245 . S
O733 Mg712 2.038 . S
O733 C714 1.274 . S
C734 O746 1.241 . S
C734 O747 1.280 . S
C735 O748 1.277 . S
C735 O749 1.245 . S
C736 O760 1.247 . S
C736 O762 1.289 . S
Mg737 O738 1.926 . S
Mg737 O747 1.984 . S
Mg737 O749 1.988 1_554 S
Mg737 O750 2.061 1_655 S
O738 Mg737 1.926 . S
O738 Mg739 1.986 . S
O738 Mg740 1.910 1_655 S
Mg739 O738 1.986 . S
Mg739 O746 2.042 . S
Mg739 O748 2.041 1_554 S
Mg739 O754 2.038 . S
Mg739 O762 2.238 1_554 S
Mg740 O738 1.910 1_455 S
Mg740 O741 1.924 1_554 S
Mg740 O751 2.120 . S
Mg740 O753 2.086 1_455 S
Mg740 O762 2.093 1_454 S
Mg740 O763 2.072 1_554 S
O741 Mg740 1.924 1_556 S
O741 Mg742 1.926 . S
O741 Mg743 1.986 . S
Mg742 O741 1.926 . S
Mg742 O756 1.984 . S
Mg742 O759 1.988 1_556 S
Mg742 O760 2.061 1_455 S
Mg743 O741 1.986 . S
Mg743 O751 2.238 1_556 S
Mg743 O755 2.042 . S
Mg743 O757 2.041 1_556 S
Mg743 O764 2.038 . S
C744 O750 1.247 . S
C744 O751 1.289 . S
C745 O763 1.245 . S
C745 O764 1.274 . S
O746 C734 1.241 . S
O746 Mg739 2.042 . S
O747 C734 1.280 . S
O747 Mg737 1.984 . S
O748 C735 1.277 . S
O748 Mg739 2.041 1_556 S
O749 C735 1.245 . S
O749 Mg737 1.988 1_556 S
O750 Mg737 2.061 1_455 S
O750 C744 1.247 . S
O751 Mg740 2.120 . S
O751 Mg743 2.238 1_554 S
O751 C744 1.289 . S
C752 O753 1.245 . S
C752 O754 1.274 . S
O753 Mg740 2.086 1_655 S
O753 C752 1.245 . S
O754 Mg739 2.038 . S
O754 C752 1.274 . S
O755 Mg743 2.042 . S
O755 C758 1.241 . S
O756 Mg742 1.984 . S
O756 C758 1.280 . S
O757 Mg743 2.041 1_554 S
O757 C761 1.277 . S
C758 O755 1.241 . S
C758 O756 1.280 . S
O759 Mg742 1.988 1_554 S
O759 C761 1.245 . S
O760 C736 1.247 . S
O760 Mg742 2.061 1_655 S
C761 O757 1.277 . S
C761 O759 1.245 . S
O762 C736 1.289 . S
O762 Mg739 2.238 1_556 S
O762 Mg740 2.093 1_656 S
O763 Mg740 2.072 1_556 S
O763 C745 1.245 . S
O764 Mg743 2.038 . S
O764 C745 1.274 . S
C765 O777 1.241 . S
C765 O778 1.280 . S
C766 O779 1.277 . S
C766 O780 1.245 . S
C767 O791 1.247 . S
C767 O793 1.289 . S
Mg768 O769 1.926 . S
Mg768 O778 1.984 . S
Mg768 O780 1.988 1_554 S
Mg768 O781 2.061 . S
O769 Mg768 1.926 . S
O769 Mg770 1.986 . S
O769 Mg771 1.919 . S
Mg770 O769 1.986 . S
Mg770 O777 2.042 . S
Mg770 O779 2.041 1_554 S
Mg770 O785 2.038 . S
Mg770 O793 2.238 1_554 S
Mg771 O769 1.919 . S
Mg771 O772 1.915 1_554 S
Mg771 O782 2.112 . S
Mg771 O784 2.087 . S
Mg771 O793 2.101 1_554 S
Mg771 O794 2.070 1_554 S
O772 Mg771 1.915 1_556 S
O772 Mg773 1.926 . S
O772 Mg774 1.986 . S
Mg773 O772 1.926 . S
Mg773 O787 1.984 . S
Mg773 O790 1.988 1_556 S
Mg773 O791 2.061 . S
Mg774 O772 1.986 . S
Mg774 O782 2.238 1_556 S
Mg774 O786 2.042 . S
Mg774 O788 2.041 1_556 S
Mg774 O795 2.038 . S
C775 O781 1.247 . S
C775 O782 1.289 . S
C776 O794 1.245 . S
C776 O795 1.274 . S
O777 C765 1.241 . S
O777 Mg770 2.042 . S
O778 C765 1.280 . S
O778 Mg768 1.984 . S
O779 C766 1.277 . S
O779 Mg770 2.041 1_556 S
O780 C766 1.245 . S
O780 Mg768 1.988 1_556 S
O781 Mg768 2.061 . S
O781 C775 1.247 . S
O782 Mg771 2.112 . S
O782 Mg774 2.238 1_554 S
O782 C775 1.289 . S
C783 O784 1.245 . S
C783 O785 1.274 . S
O784 Mg771 2.087 . S
O784 C783 1.245 . S
O785 Mg770 2.038 . S
O785 C783 1.274 . S
O786 Mg774 2.042 . S
O786 C789 1.241 . S
O787 Mg773 1.984 . S
O787 C789 1.280 . S
O788 Mg774 2.041 1_554 S
O788 C792 1.277 . S
C789 O786 1.241 . S
C789 O787 1.280 . S
O790 Mg773 1.988 1_554 S
O790 C792 1.245 . S
O791 C767 1.247 . S
O791 Mg773 2.061 . S
C792 O788 1.277 . S
C792 O790 1.245 . S
O793 C767 1.289 . S
O793 Mg770 2.238 1_556 S
O793 Mg771 2.101 1_556 S
O794 Mg771 2.070 1_556 S
O794 C776 1.245 . S
O795 Mg774 2.038 . S
O795 C776 1.274 . S
C796 O808 1.241 . S
C796 O809 1.280 . S
C797 O810 1.277 . S
C797 O811 1.245 . S
C798 O822 1.247 . S
C798 O824 1.289 . S
Mg799 O800 1.926 . S
Mg799 O809 1.984 . S
Mg799 O811 1.988 . S
Mg799 O812 2.061 1_655 S
O800 Mg799 1.926 . S
O800 Mg801 1.986 . S
O800 Mg802 1.908 1_655 S
Mg801 O800 1.986 . S
Mg801 O808 2.042 . S
Mg801 O810 2.041 . S
Mg801 O816 2.038 . S
Mg801 O824 2.238 . S
Mg802 O800 1.908 1_455 S
Mg802 O803 1.926 . S
Mg802 O813 2.114 . S
Mg802 O815 2.077 1_455 S
Mg802 O824 2.099 1_455 S
Mg802 O825 2.080 . S
O803 Mg802 1.926 . S
O803 Mg804 1.926 . S
O803 Mg805 1.986 . S
Mg804 O803 1.926 . S
Mg804 O818 1.984 . S
Mg804 O821 1.988 . S
Mg804 O822 2.061 1_455 S
Mg805 O803 1.986 . S
Mg805 O813 2.238 . S
Mg805 O817 2.042 . S
Mg805 O819 2.041 . S
Mg805 O826 2.038 . S
C806 O812 1.247 . S
C806 O813 1.289 . S
C807 O825 1.245 . S
C807 O826 1.274 . S
O808 C796 1.241 . S
O808 Mg801 2.042 . S
O809 C796 1.280 . S
O809 Mg799 1.984 . S
O810 C797 1.277 . S
O810 Mg801 2.041 . S
O811 C797 1.245 . S
O811 Mg799 1.988 . S
O812 Mg799 2.061 1_455 S
O812 C806 1.247 . S
O813 Mg802 2.114 . S
O813 Mg805 2.238 . S
O813 C806 1.289 . S
C814 O815 1.245 . S
C814 O816 1.274 . S
O815 Mg802 2.077 1_655 S
O815 C814 1.245 . S
O816 Mg801 2.038 . S
O816 C814 1.274 . S
O817 Mg805 2.042 . S
O817 C820 1.241 . S
O818 Mg804 1.984 . S
O818 C820 1.280 . S
O819 Mg805 2.041 . S
O819 C823 1.277 . S
C820 O817 1.241 . S
C820 O818 1.280 . S
O821 Mg804 1.988 . S
O821 C823 1.245 . S
O822 C798 1.247 . S
O822 Mg804 2.061 1_655 S
C823 O819 1.277 . S
C823 O821 1.245 . S
O824 C798 1.289 . S
O824 Mg801 2.238 . S
O824 Mg802 2.099 1_655 S
O825 Mg802 2.080 . S
O825 C807 1.245 . S
O826 Mg805 2.038 . S
O826 C807 1.274 . S
C827 O839 1.241 . S
C827 O840 1.280 . S
C828 O841 1.277 . S
C828 O842 1.245 . S
C829 O853 1.247 . S
C829 O855 1.289 . S
Mg830 O831 1.926 . S
Mg830 O840 1.984 . S
Mg830 O842 1.988 . S
Mg830 O843 2.061 . S
O831 Mg830 1.926 . S
O831 Mg832 1.986 1_545 S
O831 Mg833 1.919 . S
Mg832 O831 1.986 1_565 S
Mg832 O839 2.042 1_565 S
Mg832 O841 2.041 1_565 S
Mg832 O847 2.038 . S
Mg832 O855 2.238 . S
Mg833 O831 1.919 . S
Mg833 O834 1.915 1_545 S
Mg833 O844 2.107 . S
Mg833 O846 2.078 1_545 S
Mg833 O855 2.106 1_545 S
Mg833 O856 2.080 . S
O834 Mg833 1.915 1_565 S
O834 Mg835 1.926 . S
O834 Mg836 1.986 1_565 S
Mg835 O834 1.926 . S
Mg835 O849 1.984 . S
Mg835 O852 1.988 . S
Mg835 O853 2.061 . S
Mg836 O834 1.986 1_545 S
Mg836 O844 2.238 . S
Mg836 O848 2.042 1_545 S
Mg836 O850 2.041 1_545 S
Mg836 O857 2.038 . S
C837 O843 1.247 . S
C837 O844 1.289 . S
C838 O856 1.245 . S
C838 O857 1.274 . S
O839 C827 1.241 . S
O839 Mg832 2.042 1_545 S
O840 C827 1.280 . S
O840 Mg830 1.984 . S
O841 C828 1.277 . S
O841 Mg832 2.041 1_545 S
O842 C828 1.245 . S
O842 Mg830 1.988 . S
O843 Mg830 2.061 . S
O843 C837 1.247 . S
O844 Mg833 2.107 . S
O844 Mg836 2.238 . S
O844 C837 1.289 . S
C845 O846 1.245 . S
C845 O847 1.274 . S
O846 Mg833 2.078 1_565 S
O846 C845 1.245 . S
O847 Mg832 2.038 . S
O847 C845 1.274 . S
O848 Mg836 2.042 1_565 S
O848 C851 1.241 . S
O849 Mg835 1.984 . S
O849 C851 1.280 . S
O850 Mg836 2.041 1_565 S
O850 C854 1.277 . S
C851 O848 1.241 . S
C851 O849 1.280 . S
O852 Mg835 1.988 . S
O852 C854 1.245 . S
O853 C829 1.247 . S
O853 Mg835 2.061 . S
C854 O850 1.277 . S
C854 O852 1.245 . S
O855 C829 1.289 . S
O855 Mg832 2.238 . S
O855 Mg833 2.106 1_565 S
O856 Mg833 2.080 . S
O856 C838 1.245 . S
O857 Mg836 2.038 . S
O857 C838 1.274 . S
H858 C864 0.930 . S
H859 C867 0.930 . S
H860 C868 0.930 . S
H861 C869 0.930 . S
H862 C872 0.930 . S
H863 C873 0.930 . S
C864 H858 0.930 . S
C864 C865 1.355 . S
C864 C866 1.415 . S
C865 C864 1.355 . S
C865 C867 1.419 . S
C866 C864 1.415 . S
C866 C871 1.425 . S
C866 C873 1.409 . S
C867 H859 0.930 . S
C867 C865 1.419 . S
C867 C868 1.362 . S
C868 H860 0.930 . S
C868 C867 1.362 . S
C868 C871 1.409 . S
C869 H861 0.930 . S
C869 C870 1.355 . S
C869 C871 1.415 . S
C870 C869 1.355 . S
C870 C872 1.419 . S
C871 C866 1.425 . S
C871 C868 1.409 . S
C871 C869 1.415 . S
C872 H862 0.930 . S
C872 C870 1.419 . S
C872 C873 1.362 . S
C873 H863 0.930 . S
C873 C866 1.409 . S
C873 C872 1.362 . S
H874 C880 0.930 . S
H875 C883 0.930 . S
H876 C884 0.930 . S
H877 C885 0.930 . S
H878 C888 0.930 . S
H879 C889 0.930 . S
C880 H874 0.930 . S
C880 C881 1.355 . S
C880 C882 1.415 . S
C881 C880 1.355 . S
C881 C883 1.419 . S
C882 C880 1.415 . S
C882 C887 1.425 . S
C882 C889 1.409 . S
C883 H875 0.930 . S
C883 C881 1.419 . S
C883 C884 1.362 . S
C884 H876 0.930 . S
C884 C883 1.362 . S
C884 C887 1.409 . S
C885 H877 0.930 . S
C885 C886 1.355 . S
C885 C887 1.415 . S
C886 C885 1.355 . S
C886 C888 1.419 . S
C887 C882 1.425 . S
C887 C884 1.409 . S
C887 C885 1.415 . S
C888 H878 0.930 . S
C888 C886 1.419 . S
C888 C889 1.362 . S
C889 H879 0.930 . S
C889 C882 1.409 . S
C889 C888 1.362 . S
H890 C896 0.930 . S
H891 C899 0.930 . S
H892 C900 0.930 . S
H893 C901 0.930 . S
H894 C904 0.930 . S
H895 C905 0.930 . S
C896 H890 0.930 . S
C896 C897 1.355 . S
C896 C898 1.415 . S
C897 C896 1.355 . S
C897 C899 1.419 . S
C898 C896 1.415 . S
C898 C903 1.425 . S
C898 C905 1.409 . S
C899 H891 0.930 . S
C899 C897 1.419 . S
C899 C900 1.362 . S
C900 H892 0.930 . S
C900 C899 1.362 . S
C900 C903 1.409 . S
C901 H893 0.930 . S
C901 C902 1.355 . S
C901 C903 1.415 . S
C902 C901 1.355 . S
C902 C904 1.419 . S
C903 C898 1.425 . S
C903 C900 1.409 . S
C903 C901 1.415 . S
C904 H894 0.930 . S
C904 C902 1.419 . S
C904 C905 1.362 . S
C905 H895 0.930 . S
C905 C898 1.409 . S
C905 C904 1.362 . S
H906 C912 0.930 . S
H907 C915 0.930 . S
H908 C916 0.930 . S
H909 C917 0.930 . S
H910 C920 0.930 1_545 S
H911 C921 0.930 . S
C912 H906 0.930 . S
C912 C913 1.355 . S
C912 C914 1.415 . S
C913 C912 1.355 . S
C913 C915 1.419 . S
C914 C912 1.415 . S
C914 C919 1.425 . S
C914 C921 1.409 . S
C915 H907 0.930 . S
C915 C913 1.419 . S
C915 C916 1.362 . S
C916 H908 0.930 . S
C916 C915 1.362 . S
C916 C919 1.409 . S
C917 H909 0.930 . S
C917 C918 1.355 . S
C917 C919 1.415 . S
C918 C917 1.355 . S
C918 C920 1.419 . S
C919 C914 1.425 . S
C919 C916 1.409 . S
C919 C917 1.415 . S
C920 H910 0.930 1_565 S
C920 C918 1.419 . S
C920 C921 1.362 . S
C921 H911 0.930 . S
C921 C914 1.409 . S
C921 C920 1.362 . S
H922 C928 0.930 . S
H923 C931 0.930 . S
H924 C932 0.930 . S
H925 C933 0.930 . S
H926 C936 0.930 . S
H927 C937 0.930 . S
C928 H922 0.930 . S
C928 C929 1.355 . S
C928 C930 1.415 . S
C929 C928 1.355 . S
C929 C931 1.419 . S
C930 C928 1.415 . S
C930 C935 1.425 . S
C930 C937 1.409 . S
C931 H923 0.930 . S
C931 C929 1.419 . S
C931 C932 1.362 . S
C932 H924 0.930 . S
C932 C931 1.362 . S
C932 C935 1.409 . S
C933 H925 0.930 . S
C933 C934 1.355 . S
C933 C935 1.415 . S
C934 C933 1.355 . S
C934 C936 1.419 . S
C935 C930 1.425 . S
C935 C932 1.409 . S
C935 C933 1.415 . S
C936 H926 0.930 . S
C936 C934 1.419 . S
C936 C937 1.362 . S
C937 H927 0.930 . S
C937 C930 1.409 . S
C937 C936 1.362 . S
H938 C944 0.930 . S
H939 C947 0.930 . S
H940 C948 0.930 . S
H941 C949 0.930 . S
H942 C952 0.930 . S
H943 C953 0.930 . S
C944 H938 0.930 . S
C944 C945 1.355 . S
C944 C946 1.415 . S
C945 C944 1.355 . S
C945 C947 1.419 . S
C946 C944 1.415 . S
C946 C951 1.425 . S
C946 C953 1.409 . S
C947 H939 0.930 . S
C947 C945 1.419 . S
C947 C948 1.362 . S
C948 H940 0.930 . S
C948 C947 1.362 . S
C948 C951 1.409 . S
C949 H941 0.930 . S
C949 C950 1.355 . S
C949 C951 1.415 . S
C950 C949 1.355 . S
C950 C952 1.419 . S
C951 C946 1.425 . S
C951 C948 1.409 . S
C951 C949 1.415 . S
C952 H942 0.930 . S
C952 C950 1.419 . S
C952 C953 1.362 . S
C953 H943 0.930 . S
C953 C946 1.409 . S
C953 C952 1.362 . S
H954 C960 0.930 . S
H955 C963 0.930 . S
H956 C964 0.930 . S
H957 C965 0.930 . S
H958 C968 0.930 . S
H959 C969 0.930 . S
C960 H954 0.930 . S
C960 C961 1.355 . S
C960 C962 1.415 . S
C961 C960 1.355 . S
C961 C963 1.419 . S
C962 C960 1.415 . S
C962 C967 1.425 . S
C962 C969 1.409 . S
C963 H955 0.930 . S
C963 C961 1.419 . S
C963 C964 1.362 . S
C964 H956 0.930 . S
C964 C963 1.362 . S
C964 C967 1.409 . S
C965 H957 0.930 . S
C965 C966 1.355 . S
C965 C967 1.415 . S
C966 C965 1.355 . S
C966 C968 1.419 . S
C967 C962 1.425 . S
C967 C964 1.409 . S
C967 C965 1.415 . S
C968 H958 0.930 . S
C968 C966 1.419 . S
C968 C969 1.362 . S
C969 H959 0.930 . S
C969 C962 1.409 . S
C969 C968 1.362 . S
H970 C976 0.930 . S
H971 C979 0.930 . S
H972 C980 0.930 . S
H973 C981 0.930 . S
H974 C984 0.930 . S
H975 C985 0.930 . S
C976 H970 0.930 . S
C976 C977 1.355 . S
C976 C978 1.415 . S
C977 C976 1.355 . S
C977 C979 1.419 . S
C978 C976 1.415 . S
C978 C983 1.425 . S
C978 C985 1.409 . S
C979 H971 0.930 . S
C979 C977 1.419 . S
C979 C980 1.362 . S
C980 H972 0.930 . S
C980 C979 1.362 . S
C980 C983 1.409 . S
C981 H973 0.930 . S
C981 C982 1.355 . S
C981 C983 1.415 . S
C982 C981 1.355 . S
C982 C984 1.419 . S
C983 C978 1.425 . S
C983 C980 1.409 . S
C983 C981 1.415 . S
C984 H974 0.930 . S
C984 C982 1.419 . S
C984 C985 1.362 . S
C985 H975 0.930 . S
C985 C978 1.409 . S
C985 C984 1.362 . S
H986 C992 0.930 . S
H987 C995 0.930 . S
H988 C996 0.930 . S
H989 C997 0.930 . S
H990 C1000 0.930 . S
H991 C1001 0.930 . S
C992 H986 0.930 . S
C992 C993 1.355 . S
C992 C994 1.415 . S
C993 C992 1.355 . S
C993 C995 1.419 . S
C994 C992 1.415 . S
C994 C999 1.425 . S
C994 C1001 1.409 . S
C995 H987 0.930 . S
C995 C993 1.419 . S
C995 C996 1.362 . S
C996 H988 0.930 . S
C996 C995 1.362 . S
C996 C999 1.409 . S
C997 H989 0.930 . S
C997 C998 1.355 . S
C997 C999 1.415 . S
C998 C997 1.355 . S
C998 C1000 1.419 . S
C999 C994 1.425 . S
C999 C996 1.409 . S
C999 C997 1.415 . S
C1000 H990 0.930 . S
C1000 C998 1.419 . S
C1000 C1001 1.362 . S
C1001 H991 0.930 . S
C1001 C994 1.409 . S
C1001 C1000 1.362 . S
H1002 C1008 0.930 . S
H1003 C1011 0.930 . S
H1004 C1012 0.930 . S
H1005 C1013 0.930 . S
H1006 C1016 0.930 . S
H1007 C1017 0.930 . S
C1008 H1002 0.930 . S
C1008 C1009 1.355 . S
C1008 C1010 1.415 . S
C1009 C1008 1.355 . S
C1009 C1011 1.419 . S
C1010 C1008 1.415 . S
C1010 C1015 1.425 . S
C1010 C1017 1.409 . S
C1011 H1003 0.930 . S
C1011 C1009 1.419 . S
C1011 C1012 1.362 . S
C1012 H1004 0.930 . S
C1012 C1011 1.362 . S
C1012 C1015 1.409 . S
C1013 H1005 0.930 . S
C1013 C1014 1.355 . S
C1013 C1015 1.415 . S
C1014 C1013 1.355 . S
C1014 C1016 1.419 . S
C1015 C1010 1.425 . S
C1015 C1012 1.409 . S
C1015 C1013 1.415 . S
C1016 H1006 0.930 . S
C1016 C1014 1.419 . S
C1016 C1017 1.362 . S
C1017 H1007 0.930 . S
C1017 C1010 1.409 . S
C1017 C1016 1.362 . S
H1018 C1024 0.930 . S
H1019 C1027 0.930 . S
H1020 C1028 0.930 . S
H1021 C1029 0.930 . S
H1022 C1032 0.930 . S
H1023 C1033 0.930 . S
C1024 H1018 0.930 . S
C1024 C1025 1.355 . S
C1024 C1026 1.415 . S
C1025 C1024 1.355 . S
C1025 C1027 1.419 . S
C1026 C1024 1.415 . S
C1026 C1031 1.425 . S
C1026 C1033 1.409 . S
C1027 H1019 0.930 . S
C1027 C1025 1.419 . S
C1027 C1028 1.362 . S
C1028 H1020 0.930 . S
C1028 C1027 1.362 . S
C1028 C1031 1.409 . S
C1029 H1021 0.930 . S
C1029 C1030 1.355 . S
C1029 C1031 1.415 . S
C1030 C1029 1.355 . S
C1030 C1032 1.419 . S
C1031 C1026 1.425 . S
C1031 C1028 1.409 . S
C1031 C1029 1.415 . S
C1032 H1022 0.930 . S
C1032 C1030 1.419 . S
C1032 C1033 1.362 . S
C1033 H1023 0.930 . S
C1033 C1026 1.409 . S
C1033 C1032 1.362 . S
H1034 C1040 0.930 . S
H1035 C1043 0.930 . S
H1036 C1044 0.930 . S
H1037 C1045 0.930 . S
H1038 C1048 0.930 . S
H1039 C1049 0.930 . S
C1040 H1034 0.930 . S
C1040 C1041 1.355 . S
C1040 C1042 1.415 . S
C1041 C1040 1.355 . S
C1041 C1043 1.419 . S
C1042 C1040 1.415 . S
C1042 C1047 1.425 . S
C1042 C1049 1.409 . S
C1043 H1035 0.930 . S
C1043 C1041 1.419 . S
C1043 C1044 1.362 . S
C1044 H1036 0.930 . S
C1044 C1043 1.362 . S
C1044 C1047 1.409 . S
C1045 H1037 0.930 . S
C1045 C1046 1.355 . S
C1045 C1047 1.415 . S
C1046 C1045 1.355 . S
C1046 C1048 1.419 . S
C1047 C1042 1.425 . S
C1047 C1044 1.409 . S
C1047 C1045 1.415 . S
C1048 H1038 0.930 . S
C1048 C1046 1.419 . S
C1048 C1049 1.362 . S
C1049 H1039 0.930 . S
C1049 C1042 1.409 . S
C1049 C1048 1.362 . S
H1050 C1056 0.930 . S
H1051 C1059 0.930 . S
H1052 C1060 0.930 . S
H1053 C1061 0.930 . S
H1054 C1064 0.930 . S
H1055 C1065 0.930 . S
C1056 H1050 0.930 . S
C1056 C1057 1.355 . S
C1056 C1058 1.415 . S
C1057 C1056 1.355 . S
C1057 C1059 1.419 . S
C1058 C1056 1.415 . S
C1058 C1063 1.425 . S
C1058 C1065 1.409 . S
C1059 H1051 0.930 . S
C1059 C1057 1.419 . S
C1059 C1060 1.362 . S
C1060 H1052 0.930 . S
C1060 C1059 1.362 . S
C1060 C1063 1.409 . S
C1061 H1053 0.930 . S
C1061 C1062 1.355 . S
C1061 C1063 1.415 . S
C1062 C1061 1.355 . S
C1062 C1064 1.419 . S
C1063 C1058 1.425 . S
C1063 C1060 1.409 . S
C1063 C1061 1.415 . S
C1064 H1054 0.930 . S
C1064 C1062 1.419 . S
C1064 C1065 1.362 . S
C1065 H1055 0.930 . S
C1065 C1058 1.409 . S
C1065 C1064 1.362 . S
H1066 C1072 0.930 . S
H1067 C1075 0.930 . S
H1068 C1076 0.930 . S
H1069 C1077 0.930 . S
H1070 C1080 0.930 . S
H1071 C1081 0.930 . S
C1072 H1066 0.930 . S
C1072 C1073 1.355 . S
C1072 C1074 1.415 . S
C1073 C1072 1.355 . S
C1073 C1075 1.419 . S
C1074 C1072 1.415 . S
C1074 C1079 1.425 . S
C1074 C1081 1.409 . S
C1075 H1067 0.930 . S
C1075 C1073 1.419 . S
C1075 C1076 1.362 . S
C1076 H1068 0.930 . S
C1076 C1075 1.362 . S
C1076 C1079 1.409 . S
C1077 H1069 0.930 . S
C1077 C1078 1.355 . S
C1077 C1079 1.415 . S
C1078 C1077 1.355 . S
C1078 C1080 1.419 . S
C1079 C1074 1.425 . S
C1079 C1076 1.409 . S
C1079 C1077 1.415 . S
C1080 H1070 0.930 . S
C1080 C1078 1.419 . S
C1080 C1081 1.362 . S
C1081 H1071 0.930 . S
C1081 C1074 1.409 . S
C1081 C1080 1.362 . S
H1082 C1088 0.930 . S
H1083 C1091 0.930 . S
H1084 C1092 0.930 . S
H1085 C1093 0.930 . S
H1086 C1096 0.930 . S
H1087 C1097 0.930 . S
C1088 H1082 0.930 . S
C1088 C1089 1.355 . S
C1088 C1090 1.415 . S
C1089 C1088 1.355 . S
C1089 C1091 1.419 . S
C1090 C1088 1.415 . S
C1090 C1095 1.425 . S
C1090 C1097 1.409 . S
C1091 H1083 0.930 . S
C1091 C1089 1.419 . S
C1091 C1092 1.362 . S
C1092 H1084 0.930 . S
C1092 C1091 1.362 . S
C1092 C1095 1.409 . S
C1093 H1085 0.930 . S
C1093 C1094 1.355 . S
C1093 C1095 1.415 . S
C1094 C1093 1.355 . S
C1094 C1096 1.419 . S
C1095 C1090 1.425 . S
C1095 C1092 1.409 . S
C1095 C1093 1.415 . S
C1096 H1086 0.930 . S
C1096 C1094 1.419 . S
C1096 C1097 1.362 . S
C1097 H1087 0.930 . S
C1097 C1090 1.409 . S
C1097 C1096 1.362 . S
H1098 C1104 0.930 . S
H1099 C1107 0.930 . S
H1100 C1108 0.930 . S
H1101 C1109 0.930 . S
H1102 C1112 0.930 . S
H1103 C1113 0.930 . S
C1104 H1098 0.930 . S
C1104 C1105 1.355 . S
C1104 C1106 1.415 . S
C1105 C1104 1.355 . S
C1105 C1107 1.419 . S
C1106 C1104 1.415 . S
C1106 C1111 1.425 . S
C1106 C1113 1.409 . S
C1107 H1099 0.930 . S
C1107 C1105 1.419 . S
C1107 C1108 1.362 . S
C1108 H1100 0.930 . S
C1108 C1107 1.362 . S
C1108 C1111 1.409 . S
C1109 H1101 0.930 . S
C1109 C1110 1.355 . S
C1109 C1111 1.415 . S
C1110 C1109 1.355 . S
C1110 C1112 1.419 . S
C1111 C1106 1.425 . S
C1111 C1108 1.409 . S
C1111 C1109 1.415 . S
C1112 H1102 0.930 . S
C1112 C1110 1.419 . S
C1112 C1113 1.362 . S
C1113 H1103 0.930 . S
C1113 C1106 1.409 . S
C1113 C1112 1.362 . S
H1114 C1120 0.930 . S
H1115 C1123 0.930 . S
H1116 C1124 0.930 . S
H1117 C1125 0.930 . S
H1118 C1128 0.930 . S
H1119 C1129 0.930 . S
C1120 H1114 0.930 . S
C1120 C1121 1.355 . S
C1120 C1122 1.415 . S
C1121 C1120 1.355 . S
C1121 C1123 1.419 . S
C1122 C1120 1.415 . S
C1122 C1127 1.425 . S
C1122 C1129 1.409 . S
C1123 H1115 0.930 . S
C1123 C1121 1.419 . S
C1123 C1124 1.362 . S
C1124 H1116 0.930 . S
C1124 C1123 1.362 . S
C1124 C1127 1.409 . S
C1125 H1117 0.930 . S
C1125 C1126 1.355 . S
C1125 C1127 1.415 . S
C1126 C1125 1.355 . S
C1126 C1128 1.419 . S
C1127 C1122 1.425 . S
C1127 C1124 1.409 . S
C1127 C1125 1.415 . S
C1128 H1118 0.930 . S
C1128 C1126 1.419 . S
C1128 C1129 1.362 . S
C1129 H1119 0.930 . S
C1129 C1122 1.409 . S
C1129 C1128 1.362 . S
H1130 C1136 0.930 . S
H1131 C1139 0.930 . S
H1132 C1140 0.930 . S
H1133 C1141 0.930 . S
H1134 C1144 0.930 . S
H1135 C1145 0.930 . S
C1136 H1130 0.930 . S
C1136 C1137 1.355 . S
C1136 C1138 1.415 . S
C1137 C1136 1.355 . S
C1137 C1139 1.419 . S
C1138 C1136 1.415 . S
C1138 C1143 1.425 . S
C1138 C1145 1.409 . S
C1139 H1131 0.930 . S
C1139 C1137 1.419 . S
C1139 C1140 1.362 . S
C1140 H1132 0.930 . S
C1140 C1139 1.362 . S
C1140 C1143 1.409 . S
C1141 H1133 0.930 . S
C1141 C1142 1.355 . S
C1141 C1143 1.415 . S
C1142 C1141 1.355 . S
C1142 C1144 1.419 . S
C1143 C1138 1.425 . S
C1143 C1140 1.409 . S
C1143 C1141 1.415 . S
C1144 H1134 0.930 . S
C1144 C1142 1.419 . S
C1144 C1145 1.362 . S
C1145 H1135 0.930 . S
C1145 C1138 1.409 . S
C1145 C1144 1.362 . S
H1146 C1152 0.930 . S
H1147 C1155 0.930 . S
H1148 C1156 0.930 . S
H1149 C1157 0.930 . S
H1150 C1160 0.930 . S
H1151 C1161 0.930 . S
C1152 H1146 0.930 . S
C1152 C1153 1.355 . S
C1152 C1154 1.415 . S
C1153 C1152 1.355 . S
C1153 C1155 1.419 . S
C1154 C1152 1.415 . S
C1154 C1159 1.425 . S
C1154 C1161 1.409 . S
C1155 H1147 0.930 . S
C1155 C1153 1.419 . S
C1155 C1156 1.362 . S
C1156 H1148 0.930 . S
C1156 C1155 1.362 . S
C1156 C1159 1.409 . S
C1157 H1149 0.930 . S
C1157 C1158 1.355 . S
C1157 C1159 1.415 . S
C1158 C1157 1.355 . S
C1158 C1160 1.419 . S
C1159 C1154 1.425 . S
C1159 C1156 1.409 . S
C1159 C1157 1.415 . S
C1160 H1150 0.930 . S
C1160 C1158 1.419 . S
C1160 C1161 1.362 . S
C1161 H1151 0.930 . S
C1161 C1154 1.409 . S
C1161 C1160 1.362 . S
H1162 C1168 0.930 . S
H1163 C1171 0.930 . S
H1164 C1172 0.930 . S
H1165 C1173 0.930 . S
H1166 C1176 0.930 . S
H1167 C1177 0.930 . S
C1168 H1162 0.930 . S
C1168 C1169 1.355 . S
C1168 C1170 1.415 . S
C1169 C1168 1.355 . S
C1169 C1171 1.419 . S
C1170 C1168 1.415 . S
C1170 C1175 1.425 . S
C1170 C1177 1.409 . S
C1171 H1163 0.930 . S
C1171 C1169 1.419 . S
C1171 C1172 1.362 . S
C1172 H1164 0.930 . S
C1172 C1171 1.362 . S
C1172 C1175 1.409 . S
C1173 H1165 0.930 . S
C1173 C1174 1.355 . S
C1173 C1175 1.415 . S
C1174 C1173 1.355 . S
C1174 C1176 1.419 . S
C1175 C1170 1.425 . S
C1175 C1172 1.409 . S
C1175 C1173 1.415 . S
C1176 H1166 0.930 . S
C1176 C1174 1.419 . S
C1176 C1177 1.362 . S
C1177 H1167 0.930 . S
C1177 C1170 1.409 . S
C1177 C1176 1.362 . S
H1178 C1184 0.930 . S
H1179 C1187 0.930 . S
H1180 C1188 0.930 . S
H1181 C1189 0.930 . S
H1182 C1192 0.930 . S
H1183 C1193 0.930 . S
C1184 H1178 0.930 . S
C1184 C1185 1.355 . S
C1184 C1186 1.415 . S
C1185 C1184 1.355 . S
C1185 C1187 1.419 . S
C1186 C1184 1.415 . S
C1186 C1191 1.425 . S
C1186 C1193 1.409 . S
C1187 H1179 0.930 . S
C1187 C1185 1.419 . S
C1187 C1188 1.362 . S
C1188 H1180 0.930 . S
C1188 C1187 1.362 . S
C1188 C1191 1.409 . S
C1189 H1181 0.930 . S
C1189 C1190 1.355 . S
C1189 C1191 1.415 . S
C1190 C1189 1.355 . S
C1190 C1192 1.419 . S
C1191 C1186 1.425 . S
C1191 C1188 1.409 . S
C1191 C1189 1.415 . S
C1192 H1182 0.930 . S
C1192 C1190 1.419 . S
C1192 C1193 1.362 . S
C1193 H1183 0.930 . S
C1193 C1186 1.409 . S
C1193 C1192 1.362 . S
H1194 C1200 0.930 . S
H1195 C1203 0.930 . S
H1196 C1204 0.930 . S
H1197 C1205 0.930 . S
H1198 C1208 0.930 . S
H1199 C1209 0.930 . S
C1200 H1194 0.930 . S
C1200 C1201 1.355 . S
C1200 C1202 1.415 . S
C1201 C1200 1.355 . S
C1201 C1203 1.419 . S
C1202 C1200 1.415 . S
C1202 C1207 1.425 . S
C1202 C1209 1.409 . S
C1203 H1195 0.930 . S
C1203 C1201 1.419 . S
C1203 C1204 1.362 . S
C1204 H1196 0.930 . S
C1204 C1203 1.362 . S
C1204 C1207 1.409 . S
C1205 H1197 0.930 . S
C1205 C1206 1.355 . S
C1205 C1207 1.415 . S
C1206 C1205 1.355 . S
C1206 C1208 1.419 . S
C1207 C1202 1.425 . S
C1207 C1204 1.409 . S
C1207 C1205 1.415 . S
C1208 H1198 0.930 . S
C1208 C1206 1.419 . S
C1208 C1209 1.362 . S
C1209 H1199 0.930 . S
C1209 C1202 1.409 . S
C1209 C1208 1.362 . S
H1210 C1216 0.930 . S
H1211 C1219 0.930 . S
H1212 C1220 0.930 . S
H1213 C1221 0.930 . S
H1214 C1224 0.930 . S
H1215 C1225 0.930 . S
C1216 H1210 0.930 . S
C1216 C1217 1.355 . S
C1216 C1218 1.415 . S
C1217 C1216 1.355 . S
C1217 C1219 1.419 . S
C1218 C1216 1.415 . S
C1218 C1223 1.425 . S
C1218 C1225 1.409 . S
C1219 H1211 0.930 . S
C1219 C1217 1.419 . S
C1219 C1220 1.362 . S
C1220 H1212 0.930 . S
C1220 C1219 1.362 . S
C1220 C1223 1.409 . S
C1221 H1213 0.930 . S
C1221 C1222 1.355 . S
C1221 C1223 1.415 . S
C1222 C1221 1.355 . S
C1222 C1224 1.419 . S
C1223 C1218 1.425 . S
C1223 C1220 1.409 . S
C1223 C1221 1.415 . S
C1224 H1214 0.930 . S
C1224 C1222 1.419 . S
C1224 C1225 1.362 . S
C1225 H1215 0.930 . S
C1225 C1218 1.409 . S
C1225 C1224 1.362 . S
H1226 C1232 0.930 . S
H1227 C1235 0.930 . S
H1228 C1236 0.930 . S
H1229 C1237 0.930 . S
H1230 C1240 0.930 . S
H1231 C1241 0.930 . S
C1232 H1226 0.930 . S
C1232 C1233 1.355 . S
C1232 C1234 1.415 . S
C1233 C1232 1.355 . S
C1233 C1235 1.419 . S
C1234 C1232 1.415 . S
C1234 C1239 1.425 . S
C1234 C1241 1.409 . S
C1235 H1227 0.930 . S
C1235 C1233 1.419 . S
C1235 C1236 1.362 . S
C1236 H1228 0.930 . S
C1236 C1235 1.362 . S
C1236 C1239 1.409 . S
C1237 H1229 0.930 . S
C1237 C1238 1.355 . S
C1237 C1239 1.415 . S
C1238 C1237 1.355 . S
C1238 C1240 1.419 . S
C1239 C1234 1.425 . S
C1239 C1236 1.409 . S
C1239 C1237 1.415 . S
C1240 H1230 0.930 . S
C1240 C1238 1.419 . S
C1240 C1241 1.362 . S
C1241 H1231 0.930 . S
C1241 C1234 1.409 . S
C1241 C1240 1.362 . S
H1242 C1248 0.930 . S
H1243 C1251 0.930 . S
H1244 C1252 0.930 . S
H1245 C1253 0.930 . S
H1246 C1256 0.930 . S
H1247 C1257 0.930 . S
C1248 H1242 0.930 . S
C1248 C1249 1.355 . S
C1248 C1250 1.415 . S
C1249 C1248 1.355 . S
C1249 C1251 1.419 . S
C1250 C1248 1.415 . S
C1250 C1255 1.425 . S
C1250 C1257 1.409 . S
C1251 H1243 0.930 . S
C1251 C1249 1.419 . S
C1251 C1252 1.362 . S
C1252 H1244 0.930 . S
C1252 C1251 1.362 . S
C1252 C1255 1.409 . S
C1253 H1245 0.930 . S
C1253 C1254 1.355 . S
C1253 C1255 1.415 . S
C1254 C1253 1.355 . S
C1254 C1256 1.419 . S
C1255 C1250 1.425 . S
C1255 C1252 1.409 . S
C1255 C1253 1.415 . S
C1256 H1246 0.930 . S
C1256 C1254 1.419 . S
C1256 C1257 1.362 . S
C1257 H1247 0.930 . S
C1257 C1250 1.409 . S
C1257 C1256 1.362 . S
H1258 C1264 0.930 . S
H1259 C1267 0.930 . S
H1260 C1268 0.930 . S
H1261 C1269 0.930 . S
H1262 C1272 0.930 . S
H1263 C1273 0.930 . S
C1264 H1258 0.930 . S
C1264 C1265 1.355 . S
C1264 C1266 1.415 . S
C1265 C1264 1.355 . S
C1265 C1267 1.419 . S
C1266 C1264 1.415 . S
C1266 C1271 1.425 . S
C1266 C1273 1.409 . S
C1267 H1259 0.930 . S
C1267 C1265 1.419 . S
C1267 C1268 1.362 . S
C1268 H1260 0.930 . S
C1268 C1267 1.362 . S
C1268 C1271 1.409 . S
C1269 H1261 0.930 . S
C1269 C1270 1.355 . S
C1269 C1271 1.415 . S
C1270 C1269 1.355 . S
C1270 C1272 1.419 . S
C1271 C1266 1.425 . S
C1271 C1268 1.409 . S
C1271 C1269 1.415 . S
C1272 H1262 0.930 . S
C1272 C1270 1.419 . S
C1272 C1273 1.362 . S
C1273 H1263 0.930 . S
C1273 C1266 1.409 . S
C1273 C1272 1.362 . S
H1274 C1280 0.930 . S
H1275 C1283 0.930 . S
H1276 C1284 0.930 . S
H1277 C1285 0.930 . S
H1278 C1288 0.930 . S
H1279 C1289 0.930 . S
C1280 H1274 0.930 . S
C1280 C1281 1.355 . S
C1280 C1282 1.415 . S
C1281 C1280 1.355 . S
C1281 C1283 1.419 . S
C1282 C1280 1.415 . S
C1282 C1287 1.425 . S
C1282 C1289 1.409 . S
C1283 H1275 0.930 . S
C1283 C1281 1.419 . S
C1283 C1284 1.362 . S
C1284 H1276 0.930 . S
C1284 C1283 1.362 . S
C1284 C1287 1.409 . S
C1285 H1277 0.930 . S
C1285 C1286 1.355 . S
C1285 C1287 1.415 . S
C1286 C1285 1.355 . S
C1286 C1288 1.419 . S
C1287 C1282 1.425 . S
C1287 C1284 1.409 . S
C1287 C1285 1.415 . S
C1288 H1278 0.930 . S
C1288 C1286 1.419 . S
C1288 C1289 1.362 . S
C1289 H1279 0.930 . S
C1289 C1282 1.409 . S
C1289 C1288 1.362 . S
H1290 C1296 0.930 . S
H1291 C1299 0.930 . S
H1292 C1300 0.930 . S
H1293 C1301 0.930 . S
H1294 C1304 0.930 . S
H1295 C1305 0.930 . S
C1296 H1290 0.930 . S
C1296 C1297 1.355 . S
C1296 C1298 1.415 . S
C1297 C1296 1.355 . S
C1297 C1299 1.419 . S
C1298 C1296 1.415 . S
C1298 C1303 1.425 . S
C1298 C1305 1.409 . S
C1299 H1291 0.930 . S
C1299 C1297 1.419 . S
C1299 C1300 1.362 . S
C1300 H1292 0.930 . S
C1300 C1299 1.362 . S
C1300 C1303 1.409 . S
C1301 H1293 0.930 . S
C1301 C1302 1.355 . S
C1301 C1303 1.415 . S
C1302 C1301 1.355 . S
C1302 C1304 1.419 . S
C1303 C1298 1.425 . S
C1303 C1300 1.409 . S
C1303 C1301 1.415 . S
C1304 H1294 0.930 . S
C1304 C1302 1.419 . S
C1304 C1305 1.362 . S
C1305 H1295 0.930 . S
C1305 C1298 1.409 . S
C1305 C1304 1.362 . S
H1306 C1312 0.930 . S
H1307 C1315 0.930 . S
H1308 C1316 0.930 . S
H1309 C1317 0.930 . S
H1310 C1320 0.930 . S
H1311 C1321 0.930 . S
C1312 H1306 0.930 . S
C1312 C1313 1.355 . S
C1312 C1314 1.415 . S
C1313 C1312 1.355 . S
C1313 C1315 1.419 . S
C1314 C1312 1.415 . S
C1314 C1319 1.425 . S
C1314 C1321 1.409 . S
C1315 H1307 0.930 . S
C1315 C1313 1.419 . S
C1315 C1316 1.362 . S
C1316 H1308 0.930 . S
C1316 C1315 1.362 . S
C1316 C1319 1.409 . S
C1317 H1309 0.930 . S
C1317 C1318 1.355 . S
C1317 C1319 1.415 . S
C1318 C1317 1.355 . S
C1318 C1320 1.419 . S
C1319 C1314 1.425 . S
C1319 C1316 1.409 . S
C1319 C1317 1.415 . S
C1320 H1310 0.930 . S
C1320 C1318 1.419 . S
C1320 C1321 1.362 . S
C1321 H1311 0.930 . S
C1321 C1314 1.409 . S
C1321 C1320 1.362 . S
H1322 C1328 0.930 . S
H1323 C1331 0.930 . S
H1324 C1332 0.930 . S
H1325 C1333 0.930 . S
H1326 C1336 0.930 . S
H1327 C1337 0.930 . S
C1328 H1322 0.930 . S
C1328 C1329 1.355 . S
C1328 C1330 1.415 . S
C1329 C1328 1.355 . S
C1329 C1331 1.419 . S
C1330 C1328 1.415 . S
C1330 C1335 1.425 . S
C1330 C1337 1.409 . S
C1331 H1323 0.930 . S
C1331 C1329 1.419 . S
C1331 C1332 1.362 . S
C1332 H1324 0.930 . S
C1332 C1331 1.362 . S
C1332 C1335 1.409 . S
C1333 H1325 0.930 . S
C1333 C1334 1.355 . S
C1333 C1335 1.415 . S
C1334 C1333 1.355 . S
C1334 C1336 1.419 . S
C1335 C1330 1.425 . S
C1335 C1332 1.409 . S
C1335 C1333 1.415 . S
C1336 H1326 0.930 . S
C1336 C1334 1.419 . S
C1336 C1337 1.362 . S
C1337 H1327 0.930 . S
C1337 C1330 1.409 . S
C1337 C1336 1.362 . S
H1338 C1344 0.930 . S
H1339 C1347 0.930 . S
H1340 C1348 0.930 . S
H1341 C1349 0.930 . S
H1342 C1352 0.930 . S
H1343 C1353 0.930 . S
C1344 H1338 0.930 . S
C1344 C1345 1.355 . S
C1344 C1346 1.415 . S
C1345 C1344 1.355 . S
C1345 C1347 1.419 . S
C1346 C1344 1.415 . S
C1346 C1351 1.425 . S
C1346 C1353 1.409 . S
C1347 H1339 0.930 . S
C1347 C1345 1.419 . S
C1347 C1348 1.362 . S
C1348 H1340 0.930 . S
C1348 C1347 1.362 . S
C1348 C1351 1.409 . S
C1349 H1341 0.930 . S
C1349 C1350 1.355 . S
C1349 C1351 1.415 . S
C1350 C1349 1.355 . S
C1350 C1352 1.419 . S
C1351 C1346 1.425 . S
C1351 C1348 1.409 . S
C1351 C1349 1.415 . S
C1352 H1342 0.930 . S
C1352 C1350 1.419 . S
C1352 C1353 1.362 . S
C1353 H1343 0.930 . S
C1353 C1346 1.409 . S
C1353 C1352 1.362 . S
H1354 C1360 0.930 . S
H1355 C1363 0.930 . S
H1356 C1364 0.930 . S
H1357 C1365 0.930 . S
H1358 C1368 0.930 . S
H1359 C1369 0.930 . S
C1360 H1354 0.930 . S
C1360 C1361 1.355 . S
C1360 C1362 1.415 . S
C1361 C1360 1.355 . S
C1361 C1363 1.419 . S
C1362 C1360 1.415 . S
C1362 C1367 1.425 . S
C1362 C1369 1.409 . S
C1363 H1355 0.930 . S
C1363 C1361 1.419 . S
C1363 C1364 1.362 . S
C1364 H1356 0.930 . S
C1364 C1363 1.362 . S
C1364 C1367 1.409 . S
C1365 H1357 0.930 . S
C1365 C1366 1.355 . S
C1365 C1367 1.415 . S
C1366 C1365 1.355 . S
C1366 C1368 1.419 . S
C1367 C1362 1.425 . S
C1367 C1364 1.409 . S
C1367 C1365 1.415 . S
C1368 H1358 0.930 . S
C1368 C1366 1.419 . S
C1368 C1369 1.362 . S
C1369 H1359 0.930 . S
C1369 C1362 1.409 . S
C1369 C1368 1.362 . S
H1370 C1376 0.930 . S
H1371 C1379 0.930 . S
H1372 C1380 0.930 . S
H1373 C1381 0.930 . S
H1374 C1384 0.930 . S
H1375 C1385 0.930 . S
C1376 H1370 0.930 . S
C1376 C1377 1.355 . S
C1376 C1378 1.415 . S
C1377 C1376 1.355 . S
C1377 C1379 1.419 . S
C1378 C1376 1.415 . S
C1378 C1383 1.425 . S
C1378 C1385 1.409 . S
C1379 H1371 0.930 . S
C1379 C1377 1.419 . S
C1379 C1380 1.362 . S
C1380 H1372 0.930 . S
C1380 C1379 1.362 . S
C1380 C1383 1.409 . S
C1381 H1373 0.930 . S
C1381 C1382 1.355 . S
C1381 C1383 1.415 . S
C1382 C1381 1.355 . S
C1382 C1384 1.419 . S
C1383 C1378 1.425 . S
C1383 C1380 1.409 . S
C1383 C1381 1.415 . S
C1384 H1374 0.930 . S
C1384 C1382 1.419 . S
C1384 C1385 1.362 . S
C1385 H1375 0.930 . S
C1385 C1378 1.409 . S
C1385 C1384 1.362 . S
H1386 C1392 0.930 . S
H1387 C1395 0.930 . S
H1388 C1396 0.930 . S
H1389 C1397 0.930 . S
H1390 C1400 0.930 . S
H1391 C1401 0.930 . S
C1392 H1386 0.930 . S
C1392 C1393 1.355 . S
C1392 C1394 1.415 . S
C1393 C1392 1.355 . S
C1393 C1395 1.419 . S
C1394 C1392 1.415 . S
C1394 C1399 1.425 . S
C1394 C1401 1.409 . S
C1395 H1387 0.930 . S
C1395 C1393 1.419 . S
C1395 C1396 1.362 . S
C1396 H1388 0.930 . S
C1396 C1395 1.362 . S
C1396 C1399 1.409 . S
C1397 H1389 0.930 . S
C1397 C1398 1.355 . S
C1397 C1399 1.415 . S
C1398 C1397 1.355 . S
C1398 C1400 1.419 . S
C1399 C1394 1.425 . S
C1399 C1396 1.409 . S
C1399 C1397 1.415 . S
C1400 H1390 0.930 . S
C1400 C1398 1.419 . S
C1400 C1401 1.362 . S
C1401 H1391 0.930 . S
C1401 C1394 1.409 . S
C1401 C1400 1.362 . S
H1402 C1408 0.930 . S
H1403 C1411 0.930 . S
H1404 C1412 0.930 . S
H1405 C1413 0.930 . S
H1406 C1416 0.930 . S
H1407 C1417 0.930 . S
C1408 H1402 0.930 . S
C1408 C1409 1.355 . S
C1408 C1410 1.415 . S
C1409 C1408 1.355 . S
C1409 C1411 1.419 . S
C1410 C1408 1.415 . S
C1410 C1415 1.425 . S
C1410 C1417 1.409 . S
C1411 H1403 0.930 . S
C1411 C1409 1.419 . S
C1411 C1412 1.362 . S
C1412 H1404 0.930 . S
C1412 C1411 1.362 . S
C1412 C1415 1.409 . S
C1413 H1405 0.930 . S
C1413 C1414 1.355 . S
C1413 C1415 1.415 . S
C1414 C1413 1.355 . S
C1414 C1416 1.419 . S
C1415 C1410 1.425 . S
C1415 C1412 1.409 . S
C1415 C1413 1.415 . S
C1416 H1406 0.930 . S
C1416 C1414 1.419 . S
C1416 C1417 1.362 . S
C1417 H1407 0.930 . S
C1417 C1410 1.409 . S
C1417 C1416 1.362 . S
H1418 C1424 0.930 . S
H1419 C1427 0.930 . S
H1420 C1428 0.930 . S
H1421 C1429 0.930 . S
H1422 C1432 0.930 . S
H1423 C1433 0.930 . S
C1424 H1418 0.930 . S
C1424 C1425 1.355 . S
C1424 C1426 1.415 . S
C1425 C1424 1.355 . S
C1425 C1427 1.419 . S
C1426 C1424 1.415 . S
C1426 C1431 1.425 . S
C1426 C1433 1.409 . S
C1427 H1419 0.930 . S
C1427 C1425 1.419 . S
C1427 C1428 1.362 . S
C1428 H1420 0.930 . S
C1428 C1427 1.362 . S
C1428 C1431 1.409 . S
C1429 H1421 0.930 . S
C1429 C1430 1.355 . S
C1429 C1431 1.415 . S
C1430 C1429 1.355 . S
C1430 C1432 1.419 . S
C1431 C1426 1.425 . S
C1431 C1428 1.409 . S
C1431 C1429 1.415 . S
C1432 H1422 0.930 . S
C1432 C1430 1.419 . S
C1432 C1433 1.362 . S
C1433 H1423 0.930 . S
C1433 C1426 1.409 . S
C1433 C1432 1.362 . S
H1434 C1440 0.930 . S
H1435 C1443 0.930 . S
H1436 C1444 0.930 . S
H1437 C1445 0.930 . S
H1438 C1448 0.930 . S
H1439 C1449 0.930 . S
C1440 H1434 0.930 . S
C1440 C1441 1.355 . S
C1440 C1442 1.415 . S
C1441 C1440 1.355 . S
C1441 C1443 1.419 . S
C1442 C1440 1.415 . S
C1442 C1447 1.425 . S
C1442 C1449 1.409 . S
C1443 H1435 0.930 . S
C1443 C1441 1.419 . S
C1443 C1444 1.362 . S
C1444 H1436 0.930 . S
C1444 C1443 1.362 . S
C1444 C1447 1.409 . S
C1445 H1437 0.930 . S
C1445 C1446 1.355 . S
C1445 C1447 1.415 . S
C1446 C1445 1.355 . S
C1446 C1448 1.419 . S
C1447 C1442 1.425 . S
C1447 C1444 1.409 . S
C1447 C1445 1.415 . S
C1448 H1438 0.930 . S
C1448 C1446 1.419 . S
C1448 C1449 1.362 . S
C1449 H1439 0.930 . S
C1449 C1442 1.409 . S
C1449 C1448 1.362 . S
H1450 C1456 0.930 . S
H1451 C1459 0.930 . S
H1452 C1460 0.930 . S
H1453 C1461 0.930 . S
H1454 C1464 0.930 . S
H1455 C1465 0.930 . S
C1456 H1450 0.930 . S
C1456 C1457 1.355 . S
C1456 C1458 1.415 . S
C1457 C1456 1.355 . S
C1457 C1459 1.419 . S
C1458 C1456 1.415 . S
C1458 C1463 1.425 . S
C1458 C1465 1.409 . S
C1459 H1451 0.930 . S
C1459 C1457 1.419 . S
C1459 C1460 1.362 . S
C1460 H1452 0.930 . S
C1460 C1459 1.362 . S
C1460 C1463 1.409 . S
C1461 H1453 0.930 . S
C1461 C1462 1.355 . S
C1461 C1463 1.415 . S
C1462 C1461 1.355 . S
C1462 C1464 1.419 . S
C1463 C1458 1.425 . S
C1463 C1460 1.409 . S
C1463 C1461 1.415 . S
C1464 H1454 0.930 . S
C1464 C1462 1.419 . S
C1464 C1465 1.362 . S
C1465 H1455 0.930 . S
C1465 C1458 1.409 . S
C1465 C1464 1.362 . S
H1466 C1472 0.930 . S
H1467 C1475 0.930 . S
H1468 C1476 0.930 . S
H1469 C1477 0.930 . S
H1470 C1480 0.930 . S
H1471 C1481 0.930 . S
C1472 H1466 0.930 . S
C1472 C1473 1.355 . S
C1472 C1474 1.415 . S
C1473 C1472 1.355 . S
C1473 C1475 1.419 . S
C1474 C1472 1.415 . S
C1474 C1479 1.425 . S
C1474 C1481 1.409 . S
C1475 H1467 0.930 . S
C1475 C1473 1.419 . S
C1475 C1476 1.362 . S
C1476 H1468 0.930 . S
C1476 C1475 1.362 . S
C1476 C1479 1.409 . S
C1477 H1469 0.930 . S
C1477 C1478 1.355 . S
C1477 C1479 1.415 . S
C1478 C1477 1.355 . S
C1478 C1480 1.419 . S
C1479 C1474 1.425 . S
C1479 C1476 1.409 . S
C1479 C1477 1.415 . S
C1480 H1470 0.930 . S
C1480 C1478 1.419 . S
C1480 C1481 1.362 . S
C1481 H1471 0.930 . S
C1481 C1474 1.409 . S
C1481 C1480 1.362 . S
H1482 C1488 0.930 . S
H1483 C1491 0.930 . S
H1484 C1492 0.930 . S
H1485 C1493 0.930 . S
H1486 C1496 0.930 . S
H1487 C1497 0.930 . S
C1488 H1482 0.930 . S
C1488 C1489 1.355 . S
C1488 C1490 1.415 . S
C1489 C1488 1.355 . S
C1489 C1491 1.419 . S
C1490 C1488 1.415 . S
C1490 C1495 1.425 . S
C1490 C1497 1.409 . S
C1491 H1483 0.930 . S
C1491 C1489 1.419 . S
C1491 C1492 1.362 . S
C1492 H1484 0.930 . S
C1492 C1491 1.362 . S
C1492 C1495 1.409 . S
C1493 H1485 0.930 . S
C1493 C1494 1.355 . S
C1493 C1495 1.415 . S
C1494 C1493 1.355 . S
C1494 C1496 1.419 . S
C1495 C1490 1.425 . S
C1495 C1492 1.409 . S
C1495 C1493 1.415 . S
C1496 H1486 0.930 . S
C1496 C1494 1.419 . S
C1496 C1497 1.362 . S
C1497 H1487 0.930 . S
C1497 C1490 1.409 . S
C1497 C1496 1.362 . S
H1498 C1504 0.930 . S
H1499 C1507 0.930 . S
H1500 C1508 0.930 . S
H1501 C1509 0.930 . S
H1502 C1512 0.930 . S
H1503 C1513 0.930 . S
C1504 H1498 0.930 . S
C1504 C1505 1.355 . S
C1504 C1506 1.415 . S
C1505 C1504 1.355 . S
C1505 C1507 1.419 . S
C1506 C1504 1.415 . S
C1506 C1511 1.425 . S
C1506 C1513 1.409 . S
C1507 H1499 0.930 . S
C1507 C1505 1.419 . S
C1507 C1508 1.362 . S
C1508 H1500 0.930 . S
C1508 C1507 1.362 . S
C1508 C1511 1.409 . S
C1509 H1501 0.930 . S
C1509 C1510 1.355 . S
C1509 C1511 1.415 . S
C1510 C1509 1.355 . S
C1510 C1512 1.419 . S
C1511 C1506 1.425 . S
C1511 C1508 1.409 . S
C1511 C1509 1.415 . S
C1512 H1502 0.930 . S
C1512 C1510 1.419 . S
C1512 C1513 1.362 . S
C1513 H1503 0.930 . S
C1513 C1506 1.409 . S
C1513 C1512 1.362 . S
H1514 C1520 0.930 . S
H1515 C1523 0.930 . S
H1516 C1524 0.930 . S
H1517 C1525 0.930 . S
H1518 C1528 0.930 . S
H1519 C1529 0.930 . S
C1520 H1514 0.930 . S
C1520 C1521 1.355 . S
C1520 C1522 1.415 . S
C1521 C1520 1.355 . S
C1521 C1523 1.419 . S
C1522 C1520 1.415 . S
C1522 C1527 1.425 . S
C1522 C1529 1.409 . S
C1523 H1515 0.930 . S
C1523 C1521 1.419 . S
C1523 C1524 1.362 . S
C1524 H1516 0.930 . S
C1524 C1523 1.362 . S
C1524 C1527 1.409 . S
C1525 H1517 0.930 . S
C1525 C1526 1.355 . S
C1525 C1527 1.415 . S
C1526 C1525 1.355 . S
C1526 C1528 1.419 . S
C1527 C1522 1.425 . S
C1527 C1524 1.409 . S
C1527 C1525 1.415 . S
C1528 H1518 0.930 . S
C1528 C1526 1.419 . S
C1528 C1529 1.362 . S
C1529 H1519 0.930 . S
C1529 C1522 1.409 . S
C1529 C1528 1.362 . S
H1530 C1536 0.930 . S
H1531 C1539 0.930 . S
H1532 C1540 0.930 . S
H1533 C1541 0.930 . S
H1534 C1544 0.930 . S
H1535 C1545 0.930 . S
C1536 H1530 0.930 . S
C1536 C1537 1.355 . S
C1536 C1538 1.415 . S
C1537 C1536 1.355 . S
C1537 C1539 1.419 . S
C1538 C1536 1.415 . S
C1538 C1543 1.425 . S
C1538 C1545 1.409 . S
C1539 H1531 0.930 . S
C1539 C1537 1.419 . S
C1539 C1540 1.362 . S
C1540 H1532 0.930 . S
C1540 C1539 1.362 . S
C1540 C1543 1.409 . S
C1541 H1533 0.930 . S
C1541 C1542 1.355 . S
C1541 C1543 1.415 . S
C1542 C1541 1.355 . S
C1542 C1544 1.419 . S
C1543 C1538 1.425 . S
C1543 C1540 1.409 . S
C1543 C1541 1.415 . S
C1544 H1534 0.930 . S
C1544 C1542 1.419 . S
C1544 C1545 1.362 . S
C1545 H1535 0.930 . S
C1545 C1538 1.409 . S
C1545 C1544 1.362 . S
H1546 C1552 0.930 . S
H1547 C1555 0.930 . S
H1548 C1556 0.930 . S
H1549 C1557 0.930 . S
H1550 C1560 0.930 . S
H1551 C1561 0.930 . S
C1552 H1546 0.930 . S
C1552 C1553 1.355 . S
C1552 C1554 1.415 . S
C1553 C1552 1.355 . S
C1553 C1555 1.419 . S
C1554 C1552 1.415 . S
C1554 C1559 1.425 . S
C1554 C1561 1.409 . S
C1555 H1547 0.930 . S
C1555 C1553 1.419 . S
C1555 C1556 1.362 . S
C1556 H1548 0.930 . S
C1556 C1555 1.362 . S
C1556 C1559 1.409 . S
C1557 H1549 0.930 . S
C1557 C1558 1.355 . S
C1557 C1559 1.415 . S
C1558 C1557 1.355 . S
C1558 C1560 1.419 . S
C1559 C1554 1.425 . S
C1559 C1556 1.409 . S
C1559 C1557 1.415 . S
C1560 H1550 0.930 . S
C1560 C1558 1.419 . S
C1560 C1561 1.362 . S
C1561 H1551 0.930 . S
C1561 C1554 1.409 . S
C1561 C1560 1.362 . S
H1562 C1568 0.930 . S
H1563 C1571 0.930 . S
H1564 C1572 0.930 . S
H1565 C1573 0.930 . S
H1566 C1576 0.930 . S
H1567 C1577 0.930 . S
C1568 H1562 0.930 . S
C1568 C1569 1.355 . S
C1568 C1570 1.415 . S
C1569 C1568 1.355 . S
C1569 C1571 1.419 . S
C1570 C1568 1.415 . S
C1570 C1575 1.425 . S
C1570 C1577 1.409 . S
C1571 H1563 0.930 . S
C1571 C1569 1.419 . S
C1571 C1572 1.362 . S
C1572 H1564 0.930 . S
C1572 C1571 1.362 . S
C1572 C1575 1.409 . S
C1573 H1565 0.930 . S
C1573 C1574 1.355 . S
C1573 C1575 1.415 . S
C1574 C1573 1.355 . S
C1574 C1576 1.419 . S
C1575 C1570 1.425 . S
C1575 C1572 1.409 . S
C1575 C1573 1.415 . S
C1576 H1566 0.930 . S
C1576 C1574 1.419 . S
C1576 C1577 1.362 . S
C1577 H1567 0.930 . S
C1577 C1570 1.409 . S
C1577 C1576 1.362 . S
H1578 C1584 0.930 . S
H1579 C1587 0.930 . S
H1580 C1588 0.930 . S
H1581 C1589 0.930 . S
H1582 C1592 0.930 . S
H1583 C1593 0.930 . S
C1584 H1578 0.930 . S
C1584 C1585 1.355 . S
C1584 C1586 1.415 . S
C1585 C1584 1.355 . S
C1585 C1587 1.419 . S
C1586 C1584 1.415 . S
C1586 C1591 1.425 . S
C1586 C1593 1.409 . S
C1587 H1579 0.930 . S
C1587 C1585 1.419 . S
C1587 C1588 1.362 . S
C1588 H1580 0.930 . S
C1588 C1587 1.362 . S
C1588 C1591 1.409 . S
C1589 H1581 0.930 . S
C1589 C1590 1.355 . S
C1589 C1591 1.415 . S
C1590 C1589 1.355 . S
C1590 C1592 1.419 . S
C1591 C1586 1.425 . S
C1591 C1588 1.409 . S
C1591 C1589 1.415 . S
C1592 H1582 0.930 . S
C1592 C1590 1.419 . S
C1592 C1593 1.362 . S
C1593 H1583 0.930 . S
C1593 C1586 1.409 . S
C1593 C1592 1.362 . S
H1594 C1600 0.930 . S
H1595 C1603 0.930 . S
H1596 C1604 0.930 . S
H1597 C1605 0.930 . S
H1598 C1608 0.930 . S
H1599 C1609 0.930 . S
C1600 H1594 0.930 . S
C1600 C1601 1.355 . S
C1600 C1602 1.415 . S
C1601 C1600 1.355 . S
C1601 C1603 1.419 . S
C1602 C1600 1.415 . S
C1602 C1607 1.425 . S
C1602 C1609 1.409 . S
C1603 H1595 0.930 . S
C1603 C1601 1.419 . S
C1603 C1604 1.362 . S
C1604 H1596 0.930 . S
C1604 C1603 1.362 . S
C1604 C1607 1.409 . S
C1605 H1597 0.930 . S
C1605 C1606 1.355 . S
C1605 C1607 1.415 . S
C1606 C1605 1.355 . S
C1606 C1608 1.419 . S
C1607 C1602 1.425 . S
C1607 C1604 1.409 . S
C1607 C1605 1.415 . S
C1608 H1598 0.930 . S
C1608 C1606 1.419 . S
C1608 C1609 1.362 . S
C1609 H1599 0.930 . S
C1609 C1602 1.409 . S
C1609 C1608 1.362 . S
H1610 C1616 0.930 . S
H1611 C1619 0.930 . S
H1612 C1620 0.930 . S
H1613 C1621 0.930 . S
H1614 C1624 0.930 . S
H1615 C1625 0.930 . S
C1616 H1610 0.930 . S
C1616 C1617 1.355 . S
C1616 C1618 1.415 . S
C1617 C1616 1.355 . S
C1617 C1619 1.419 . S
C1618 C1616 1.415 . S
C1618 C1623 1.425 . S
C1618 C1625 1.409 . S
C1619 H1611 0.930 . S
C1619 C1617 1.419 . S
C1619 C1620 1.362 . S
C1620 H1612 0.930 . S
C1620 C1619 1.362 . S
C1620 C1623 1.409 . S
C1621 H1613 0.930 . S
C1621 C1622 1.355 . S
C1621 C1623 1.415 . S
C1622 C1621 1.355 . S
C1622 C1624 1.419 . S
C1623 C1618 1.425 . S
C1623 C1620 1.409 . S
C1623 C1621 1.415 . S
C1624 H1614 0.930 . S
C1624 C1622 1.419 . S
C1624 C1625 1.362 . S
C1625 H1615 0.930 . S
C1625 C1618 1.409 . S
C1625 C1624 1.362 . S
C870 C683 1.711 . S
C865 C74 1.691 . S
C886 C673 1.367 . S
C881 C153 1.267 . S
C902 C674 1.296 . S
C897 C231 1.287 . S
C913 C310 0.773 . S
C918 C696 0.714 . S
C929 C394 1.226 . S
C934 C699 1.319 . S
C950 C682 1.336 . S
C945 C494 1.349 . S
C961 C573 0.920 . S
C966 C672 0.687 . S
C977 C651 1.682 . S
C982 C690 1.709 . S
C998 C703 2.455 . S
C993 C56 2.525 . S
C1009 C151 1.640 . S
C1014 C752 1.614 . S
C1030 C730 1.370 . S
C1025 C237 1.315 . S
C1046 C744 1.334 . S
C1041 C326 1.306 . S
C1057 C410 1.328 . S
C1062 C705 1.324 . S
C1078 C758 2.411 . S
C1073 C476 2.529 . S
C1089 C571 1.635 . S
C1094 C714 1.642 . S
C1105 C657 1.275 . S
C1110 C735 1.310 . S
C1121 C58 1.339 . S
C1126 C761 1.380 . S
C1137 C392 1.633 . S
C1142 C745 1.627 . S
C1158 C704 1.416 . S
C1153 C478 1.371 . S
C1174 C736 1.331 . S
C1169 C567 1.313 . S
C1185 C655 2.519 . S
C1190 C727 2.420 . S
C1201 C235 2.534 . S
C1206 C734 2.442 . S
C1222 C721 1.642 . S
C1217 C308 1.635 . S
C1233 C147 1.298 . S
C1238 C713 1.282 . S
C1249 C662 1.700 . S
C1254 C776 1.692 . S
C1265 C405 1.230 . S
C1270 C766 1.313 . S
C1286 C767 1.345 . S
C1281 C483 1.317 . S
C1302 C789 0.767 . S
C1297 C562 0.841 . S
C1313 C142 1.335 . S
C1318 C792 1.366 . S
C1334 C775 1.339 . S
C1329 C242 1.350 . S
C1345 C321 0.758 . S
C1350 C765 0.698 . S
C1361 C63 1.659 . S
C1366 C783 1.694 . S
C1377 C644 2.518 . S
C1382 C796 2.430 . S
C1398 C845 1.618 . S
C1393 C403 1.638 . S
C1409 C489 1.392 . S
C1414 C823 1.406 . S
C1425 C578 1.310 . S
C1430 C837 1.332 . S
C1446 C798 1.324 . S
C1441 C158 1.328 . S
C1457 C224 2.533 . S
C1462 C851 2.409 . S
C1478 C807 1.641 . S
C1473 C319 1.635 . S
C1494 C828 1.369 . S
C1489 C69 1.347 . S
C1510 C854 1.361 . S
C1505 C646 1.257 . S
C1521 C140 1.646 . S
C1526 C838 1.577 . S
C1537 C226 1.355 . S
C1542 C797 1.339 . S
C1558 C829 1.328 . S
C1553 C315 1.269 . S
C1569 C67 2.518 . S
C1574 C820 2.434 . S
C1585 C487 2.539 . S
C1590 C827 2.455 . S
C1606 C814 1.623 . S
C1601 C560 1.640 . S
C1622 C806 1.305 . S
C1617 C399 1.314 . S
