# Generated by pormake.
# Topology nia, (6,6)-cn, num edge types: 1
# Building blocks:
#     Node 0, Type 0, BuildingBlock: KUMBUR_clean_sbu_0, # of connection points: 6
#     Node 1, Type 0, BuildingBlock: KUMBUR_clean_sbu_0, # of connection points: 6
#     Node 2, Type 1, BuildingBlock: MIDCAF_clean_sbu_0, # of connection points: 6
#     Node 3, Type 1, BuildingBlock: MIDCAF_clean_sbu_0, # of connection points: 6
#     Edge 4, Type (0, 1), BuildingBlock: AJUNOK_clean_linker_0, # of connection points: 2
#     Edge 5, Type (0, 1), BuildingBlock: AJUNOK_clean_linker_0, # of connection points: 2
#     Edge 6, Type (0, 1), BuildingBlock: AJUNOK_clean_linker_0, # of connection points: 2
#     Edge 7, Type (0, 1), BuildingBlock: AJUNOK_clean_linker_0, # of connection points: 2
#     Edge 8, Type (0, 1), BuildingBlock: AJUNOK_clean_linker_0, # of connection points: 2
#     Edge 9, Type (0, 1), BuildingBlock: AJUNOK_clean_linker_0, # of connection points: 2
#     Edge 10, Type (0, 1), BuildingBlock: AJUNOK_clean_linker_0, # of connection points: 2
#     Edge 11, Type (0, 1), BuildingBlock: AJUNOK_clean_linker_0, # of connection points: 2
#     Edge 12, Type (0, 1), BuildingBlock: AJUNOK_clean_linker_0, # of connection points: 2
#     Edge 13, Type (0, 1), BuildingBlock: AJUNOK_clean_linker_0, # of connection points: 2
#     Edge 14, Type (0, 1), BuildingBlock: AJUNOK_clean_linker_0, # of connection points: 2
#     Edge 15, Type (0, 1), BuildingBlock: AJUNOK_clean_linker_0, # of connection points: 2
# Relax obj value: 0.176
# Max RMSD: 0.299
# Mean RMSD: 0.210
data_MOF--net-nia--node1-KUMBUR_clean_sbu_0--node2-MIDCAF_clean_sbu_0--edge1-AJUNOK_clean_linker_0
_symmetry_space_group_name_H-M    P1
_symmetry_Int_Tables_number       1
_symmetry_cell_setting            triclinic
loop_
_symmetry_equiv_pos_as_xyz
'x, y, z'
_cell_length_a     21.807317
_cell_length_b     21.922875
_cell_length_c     25.253479
_cell_angle_alpha  89.987219
_cell_angle_beta   90.160063
_cell_angle_gamma 141.1132
loop_
_atom_site_label
_atom_site_type_symbol
_atom_site_fract_x
_atom_site_fract_y
_atom_site_fract_z
_atom_type_partial_charge
Tb0 Tb 0.02856 0.96362 0.03357 0.0
C1 C 0.01618 0.06536 0.82042 0.0
C2 C 0.27642 0.27645 0.81421 0.0
C3 C 0.18463 0.13933 0.69359 0.0
C4 C 0.14518 0.18869 0.84907 0.0
C5 C 0.99028 0.00707 0.74906 0.0
C6 C 0.29498 0.25305 0.7417 0.0
C7 C 0.82586 0.87767 0.78465 0.0
N8 N 0.94389 0.00468 0.85534 0.0
C9 C 0.85139 0.91685 0.83725 0.0
C10 C 0.88871 0.91557 0.74135 0.0
Tb11 Tb 1.00024 0.06512 0.94289 0.0
N12 N 0.14882 0.19969 0.90133 0.0
C13 C 0.23631 0.28326 0.92444 0.0
C14 C 0.35102 0.35163 0.84719 0.0
C15 C 0.32939 0.35559 0.89875 0.0
H16 H 0.79312 0.86851 0.86588 0.0
H17 H 0.39129 0.41733 0.92271 0.0
H18 H 0.36885 0.3057 0.7273 0.0
H19 H 0.74971 0.80798 0.77807 0.0
H20 H 0.23824 0.29664 0.96577 0.0
H21 H 0.6611 0.60812 0.08814 0.0
H22 H 0.42585 0.40701 0.83377 0.0
H23 H 0.22575 0.15153 0.10685 0.0
H24 H 0.78078 0.74393 0.02796 0.0
H25 H 0.28289 0.16954 0.19632 0.0
H26 H 0.19766 0.13328 0.65578 0.0
H27 H 0.70915 0.61567 0.1789 0.0
H28 H 0.84092 0.70634 0.24671 0.0
H29 H 0.96149 0.9797 0.74422 0.0
H30 H 0.00818 0.85475 0.2746 0.0
N31 N 0.89763 0.83585 0.08488 0.0
C32 C 0.80429 0.75208 0.06769 0.0
C33 C 0.76218 0.67806 0.15309 0.0
C34 C 0.8579 0.76251 0.17014 0.0
C35 C 0.73495 0.67345 0.10188 0.0
C36 C 0.92372 0.84288 0.13569 0.0
H37 H 0.17482 0.03053 0.25666 0.0
N38 N 0.08027 0.00658 0.11936 0.0
C39 C 0.20845 0.10187 0.18462 0.0
C40 C 0.01849 0.92945 0.15274 0.0
C41 C 0.1748 0.09218 0.13461 0.0
C42 C 0.14737 0.02196 0.21812 0.0
C43 C 0.05101 0.93459 0.20274 0.0
O44 O 0.16272 0.02239 0.03736 0.0
O45 O 0.10381 0.07766 0.97368 0.0
O46 O 0.95924 0.94683 0.90451 0.0
O47 O 0.91729 0.85135 0.97538 0.0
O48 O 0.09021 0.97432 0.96267 0.0
O49 O 0.02763 0.86725 0.04713 0.0
O50 O 0.92462 0.08228 0.974 0.0
O51 O 0.9486 0.9836 0.01544 0.0
O52 O 0.0733 0.08264 0.07448 0.0
O53 O 0.08975 0.16898 0.00857 0.0
O54 O 0.84584 0.93223 0.96221 0.0
O55 O 0.01298 0.16034 0.90514 0.0
C56 C 0.13088 0.05393 0.94509 0.0
C57 C 0.17333 0.94089 0.08942 0.0
C58 C 0.19369 0.86298 0.14143 0.0
C59 C 0.14108 0.85673 0.10339 0.0
C60 C 0.27499 0.95232 0.16664 0.0
C61 C 0.26138 0.03066 0.11151 0.0
C62 C 0.30898 0.03549 0.15134 0.0
C63 C 0.91363 0.86362 0.9246 0.0
C64 C 0.12348 0.939 0.04778 0.0
C65 C 0.9863 0.85289 0.23587 0.0
C66 C 0.89006 0.76775 0.21997 0.0
C67 C 0.85763 0.91888 0.00902 0.0
C68 C 0.86966 0.10647 0.90843 0.0
C69 C 0.86462 0.16621 0.90737 0.0
C70 C 0.78926 0.13585 0.87879 0.0
C71 C 0.7228 0.04939 0.8492 0.0
C72 C 0.79793 0.01656 0.88233 0.0
C73 C 0.72693 0.9895 0.85125 0.0
C74 C 0.10195 0.15909 0.05772 0.0
C75 C 0.94985 0.13763 0.93572 0.0
H76 H 0.0788 0.78847 0.08327 0.0
H77 H 0.31757 0.95972 0.19531 0.0
H78 H 0.29461 0.09836 0.09811 0.0
H79 H 0.37502 0.10489 0.1689 0.0
H80 H 0.91744 0.2344 0.92901 0.0
H81 H 0.66607 0.02715 0.82576 0.0
H82 H 0.79572 0.96665 0.88704 0.0
H83 H 0.67385 0.92124 0.82986 0.0
Tb84 Tb 0.9971 0.05588 0.56697 0.0
C85 C 0.94221 0.92286 0.3511 0.0
C86 C 0.77616 0.75698 0.35429 0.0
C87 C 0.83601 0.85175 0.27456 0.0
C88 C 0.86785 0.83798 0.37858 0.0
C89 C 0.92829 0.93068 0.29837 0.0
C90 C 0.75987 0.76527 0.30259 0.0
C91 C 0.10115 0.08637 0.29443 0.0
N92 N 0.03082 0.99512 0.37471 0.0
C93 C 0.11167 0.07093 0.34533 0.0
C94 C 0.00903 0.01591 0.27082 0.0
Tb95 Tb 0.03847 0.9776 0.4626 0.0
N96 N 0.88769 0.83307 0.42803 0.0
C97 C 0.82146 0.74424 0.45254 0.0
C98 C 0.70529 0.66913 0.38175 0.0
C99 C 0.72903 0.66224 0.43067 0.0
H100 H 0.18358 0.12355 0.36308 0.0
H101 H 0.67702 0.59323 0.45108 0.0
H102 H 0.69016 0.704 0.28312 0.0
H103 H 0.1646 0.15066 0.27266 0.0
H104 H 0.83901 0.73307 0.48788 0.0
H105 H 0.356 0.4436 0.61324 0.0
H106 H 0.63405 0.60528 0.36449 0.0
H107 H 0.00755 0.92478 0.63795 0.0
H108 H 0.24032 0.30701 0.55075 0.0
H109 H 0.05842 0.91625 0.72134 0.0
H110 H 0.82385 0.85395 0.2336 0.0
H111 H 0.3187 0.41713 0.70961 0.0
H112 H 0.18687 0.28659 0.77682 0.0
H113 H 0.00393 0.02517 0.22991 0.0
H114 H 0.18567 0.13155 0.82988 0.0
N115 N 0.12857 0.2067 0.60896 0.0
C116 C 0.21754 0.29569 0.59122 0.0
C117 C 0.26244 0.3608 0.68149 0.0
C118 C 0.17217 0.26868 0.69912 0.0
C119 C 0.28471 0.37438 0.62707 0.0
C120 C 0.10821 0.19798 0.66089 0.0
H121 H 0.13481 0.01576 0.7908 0.0
N122 N 0.02875 0.04014 0.65157 0.0
C123 C 0.06536 0.97076 0.71853 0.0
C124 C 0.06478 0.11884 0.68376 0.0
C125 C 0.0258 0.97183 0.66671 0.0
C126 C 0.1196 0.04951 0.76578 0.0
C127 C 0.13107 0.15651 0.75369 0.0
O128 O 0.88104 0.98831 0.61743 0.0
O129 O 0.94059 0.96827 0.49564 0.0
O130 O 0.08394 0.10529 0.43324 0.0
O131 O 0.09152 0.17309 0.50863 0.0
O132 O 0.89484 0.01902 0.51034 0.0
O133 O 0.96507 0.1243 0.57569 0.0
O134 O 0.16412 0.02265 0.4447 0.0
O135 O 0.08115 0.04173 0.54133 0.0
O136 O 0.89228 0.9023 0.58053 0.0
O137 O 0.96396 0.88034 0.53128 0.0
O138 O 0.18779 0.11492 0.48527 0.0
O139 O 0.03017 0.87404 0.4582 0.0
C140 C 0.88743 0.9697 0.47689 0.0
C141 C 0.834 0.05731 0.63294 0.0
C142 C 0.79645 0.13474 0.64908 0.0
C143 C 0.85386 0.13489 0.62427 0.0
C144 C 0.71917 0.0572 0.68198 0.0
C145 C 0.75693 0.98061 0.66637 0.0
C146 C 0.69969 0.98063 0.6906 0.0
C147 C 0.10814 0.17609 0.45769 0.0
C148 C 0.89442 0.05682 0.6085 0.0
C149 C 0.14789 0.12112 0.78137 0.0
C150 C 0.15636 0.21692 0.75554 0.0
C151 C 0.173 0.11253 0.53496 0.0
C152 C 0.14806 0.91278 0.40436 0.0
C153 C 0.18876 0.88508 0.41477 0.0
C154 C 0.22279 0.8741 0.37214 0.0
C155 C 0.21393 0.89014 0.32056 0.0
C156 C 0.13958 0.92539 0.35178 0.0
C157 C 0.17133 0.91315 0.3104 0.0
C158 C 0.89765 0.84907 0.56533 0.0
C159 C 0.12174 0.93702 0.44706 0.0
H160 H 0.91339 0.19494 0.59878 0.0
H161 H 0.67396 0.05621 0.70109 0.0
H162 H 0.7409 0.92059 0.6739 0.0
H163 H 0.64025 0.9213 0.71624 0.0
H164 H 0.19677 0.87555 0.4552 0.0
H165 H 0.242 0.88642 0.28745 0.0
H166 H 0.11009 0.94695 0.34297 0.0
H167 H 0.16471 0.92264 0.26979 0.0
Zn168 Zn 0.35782 0.63731 0.16714 0.0
Zn169 Zn 0.4017 0.67592 0.43599 0.0
Zn170 Zn 0.40724 0.67114 0.24936 0.0
C171 C 0.55414 0.76883 0.33768 0.0
C172 C 0.31378 0.52924 0.33772 0.0
O173 O 0.33309 0.70617 0.2272 0.0
O174 O 0.34777 0.7106 0.14107 0.0
C175 C 0.54554 0.74342 0.15646 0.0
O176 O 0.55334 0.76949 0.28668 0.0
O177 O 0.47367 0.72073 0.3606 0.0
O178 O 0.36052 0.60888 0.36044 0.0
O179 O 0.32118 0.53214 0.28716 0.0
O180 O 0.46372 0.67718 0.13391 0.0
O181 O 0.54887 0.76457 0.205 0.0
O182 O 0.31226 0.5156 0.22857 0.0
O183 O 0.23479 0.49816 0.16179 0.0
C184 C 0.24748 0.46244 0.19125 0.0
O185 O 0.35861 0.72222 0.28135 0.0
O186 O 0.37673 0.69903 0.36103 0.0
C187 C 0.3192 0.71834 0.18034 0.0
C188 C 0.35486 0.7279 0.33172 0.0
Zn189 Zn 0.70156 0.39769 0.87747 0.0
Zn190 Zn 0.61767 0.33556 0.66172 0.0
Zn191 Zn 0.63199 0.35447 0.75062 0.0
C192 C 0.69501 0.50567 0.67799 0.0
C193 C 0.43743 0.1987 0.68277 0.0
O194 O 0.68378 0.30642 0.77403 0.0
O195 O 0.60983 0.26292 0.84918 0.0
C196 C 0.79349 0.55638 0.81384 0.0
O197 O 0.71491 0.49366 0.72128 0.0
O198 O 0.63547 0.43652 0.64558 0.0
O199 O 0.48452 0.19662 0.65616 0.0
O200 O 0.48055 0.25745 0.72246 0.0
O201 O 0.81601 0.52859 0.84247 0.0
O202 O 0.72403 0.4985 0.77979 0.0
O203 O 0.5015 0.27058 0.79553 0.0
O204 O 0.57 0.33491 0.87575 0.0
C205 C 0.49733 0.2834 0.84465 0.0
O206 O 0.70084 0.32111 0.71929 0.0
O207 O 0.72582 0.36944 0.63688 0.0
C208 C 0.65542 0.2636 0.81877 0.0
C209 C 0.7388 0.34107 0.67315 0.0
C210 C 0.18161 0.76176 0.19947 0.0
C211 C 0.18213 0.78714 0.14805 0.0
C212 C 0.2246 0.73806 0.21039 0.0
C213 C 0.26522 0.7344 0.1695 0.0
H214 H 0.15387 0.76711 0.23182 0.0
H215 H 0.22864 0.72572 0.25103 0.0
S216 S 0.24829 0.75672 0.02508 0.0
N217 N 0.20338 0.78283 0.05462 0.0
N218 N 0.27721 0.73155 0.07325 0.0
C219 C 0.25019 0.74316 0.11668 0.0
C220 C 0.20897 0.76975 0.10624 0.0
C221 C 0.32912 0.22777 0.58602 0.0
C222 C 0.24006 0.13167 0.57132 0.0
C223 C 0.38767 0.24755 0.62624 0.0
C224 C 0.36128 0.17255 0.65223 0.0
H225 H 0.35161 0.28771 0.56794 0.0
H226 H 0.45546 0.32263 0.6362 0.0
S227 S 0.14291 0.90949 0.6229 0.0
N228 N 0.13336 0.9608 0.58212 0.0
N229 N 0.24479 -0.00071 0.65689 0.0
C230 C 0.27534 0.07661 0.63574 0.0
C231 C 0.21495 0.0559 0.5951 0.0
C232 C 0.23065 0.29958 0.11962 0.0
C233 C 0.13614 0.23 0.09774 0.0
C234 C 0.26407 0.36957 0.15613 0.0
C235 C 0.20302 0.37038 0.17276 0.0
H236 H 0.28055 0.30309 0.10639 0.0
H237 H 0.34014 0.42764 0.16813 0.0
S238 S 0.94825 0.20054 0.12916 0.0
N239 N 0.98282 0.1667 0.09523 0.0
N240 N 0.0422 0.29158 0.16714 0.0
C241 C 0.10679 0.29729 0.15343 0.0
C242 C 0.07438 0.22919 0.11483 0.0
C243 C 0.86386 0.28494 0.68089 0.0
C244 C 0.81323 0.21319 0.64148 0.0
C245 C 0.84646 0.33387 0.68836 0.0
C246 C 0.77601 0.30966 0.65783 0.0
H247 H 0.91097 0.29761 0.70859 0.0
H248 H 0.88578 0.38839 0.71896 0.0
S249 S 0.64376 0.14527 0.54119 0.0
N250 N 0.70667 0.13555 0.56466 0.0
N251 N 0.67063 0.22438 0.57998 0.0
C252 C 0.73497 0.24755 0.61402 0.0
C253 C 0.75429 0.19961 0.60567 0.0
C254 C 0.68548 0.80015 0.03462 0.0
C255 C 0.7833 0.87366 0.05075 0.0
C256 C 0.61162 0.76047 0.06933 0.0
C257 C 0.63088 0.79222 0.12254 0.0
H258 H 0.66545 0.77339 0.9942 0.0
H259 H 0.53812 0.70431 0.05334 0.0
S260 S 0.87685 -0.00103 0.18065 0.0
N261 N 0.89747 0.9849 0.12182 0.0
N262 N 0.75745 0.91295 0.18649 0.0
C263 C 0.72887 0.86906 0.13867 0.0
C264 C 0.80507 0.90872 0.10313 0.0
C265 C 0.87524 0.72429 0.59388 0.0
C266 C 0.84542 0.76257 0.59715 0.0
C267 C 0.83114 0.64538 0.62452 0.0
C268 C 0.75564 0.60187 0.65924 0.0
H269 H 0.93236 0.75441 0.56701 0.0
H270 H 0.85297 0.61514 0.61913 0.0
S271 S 0.6519 0.67384 0.68516 0.0
N272 N 0.73715 0.75184 0.64021 0.0
N273 N 0.65395 0.60152 0.6977 0.0
C274 C 0.72679 0.64015 0.66477 0.0
C275 C 0.77171 0.72105 0.63359 0.0
C276 C 0.21648 0.7556 0.39494 0.0
C277 C 0.26968 0.84805 0.37709 0.0
C278 C 0.24756 0.71905 0.38371 0.0
C279 C 0.33194 0.77264 0.35324 0.0
H280 H 0.14703 0.70853 0.41447 0.0
H281 H 0.20177 0.6459 0.39593 0.0
S282 S 0.50157 0.02136 0.30129 0.0
N283 N 0.41661 -0.00464 0.33203 0.0
N284 N 0.47083 0.92524 0.30875 0.0
C285 C 0.38784 0.8666 0.33768 0.0
C286 C 0.3581 0.90463 0.35031 0.0
C287 C 0.23163 0.07766 0.88028 0.0
C288 C 0.22572 0.11762 0.92026 0.0
C289 C 0.31789 0.13471 0.85243 0.0
C290 C 0.40482 0.22861 0.87 0.0
H291 H 0.16799 0.00257 0.86903 0.0
H292 H 0.31736 0.10309 0.81916 0.0
S293 S 0.43672 0.33668 0.99753 0.0
N294 N 0.31734 0.23885 0.98974 0.0
N295 N 0.48468 0.34108 0.94483 0.0
C296 C 0.40308 0.26088 0.91793 0.0
C297 C 0.31278 0.20584 0.94245 0.0
C298 C 0.19933 0.28721 0.3767 0.0
C299 C 0.15764 0.26537 0.4269 0.0
C300 C 0.24739 0.37075 0.34793 0.0
C301 C 0.25907 0.43908 0.36847 0.0
H302 H 0.19763 0.24125 0.35959 0.0
H303 H 0.27799 0.38305 0.30969 0.0
S304 S 0.15884 0.41643 0.49617 0.0
N305 N 0.12712 0.31926 0.49409 0.0
N306 N 0.21991 0.47671 0.44109 0.0
C307 C 0.21711 0.41849 0.41822 0.0
C308 C 0.1663 0.3322 0.4471 0.0
C309 C 0.82853 0.26749 0.84334 0.0
C310 C 0.77545 0.19082 0.87913 0.0
C311 C 0.79096 0.29403 0.82585 0.0
C312 C 0.69848 0.24216 0.84205 0.0
H313 H 0.89527 0.30194 0.82594 0.0
H314 H 0.83324 0.35411 0.799 0.0
S315 S 0.54534 0.0533 0.94664 0.0
N316 N 0.63831 0.07807 0.93937 0.0
N317 N 0.56471 0.12467 0.90453 0.0
C318 C 0.65084 0.17344 0.88285 0.0
C319 C 0.69039 0.1485 0.9018 0.0
C320 C 0.71087 0.81944 0.44962 0.0
C321 C 0.80807 0.90885 0.43553 0.0
C322 C 0.6302 0.77462 0.41757 0.0
C323 C 0.64239 0.81649 0.36958 0.0
H324 H 0.69659 0.78618 0.48713 0.0
H325 H 0.55727 0.70713 0.43105 0.0
S326 S 0.88108 0.05367 0.31705 0.0
N327 N 0.91026 0.0403 0.37231 0.0
N328 N 0.76123 0.95468 0.31079 0.0
C329 C 0.73935 0.905 0.35479 0.0
C330 C 0.82098 0.95158 0.38816 0.0
C331 C 0.9403 0.80862 0.8529 0.0
C332 C 0.87644 0.7884 0.88813 0.0
C333 C 0.91275 0.73348 0.82678 0.0
C334 C 0.81883 0.63676 0.83362 0.0
H335 H 0.01329 0.88214 0.84782 0.0
H336 H 0.96559 0.75071 0.80247 0.0
S337 S 0.619 0.55015 0.91247 0.0
N338 N 0.71314 0.6682 0.92336 0.0
N339 N 0.65771 0.52625 0.87188 0.0
C340 C 0.75163 0.61698 0.8649 0.0
C341 C 0.7812 0.69315 0.89274 0.0
loop_
_geom_bond_atom_site_label_1
_geom_bond_atom_site_label_2
_geom_bond_distance
_geom_bond_site_symmetry_2
_ccdc_geom_bond_type
Tb0 N31 2.660 1_455 S
Tb0 N38 2.600 . S
Tb0 O44 2.546 1_565 S
Tb0 O45 2.610 1_564 S
Tb0 O47 2.320 1_454 S
Tb0 O48 2.552 1_565 S
Tb0 O49 2.413 . S
Tb0 O51 2.362 1_455 S
Tb0 O52 2.421 1_565 S
Tb0 C64 2.833 . S
C1 C4 1.432 . S
C1 C5 1.414 . S
C1 N8 1.359 1_455 S
C2 C4 1.417 . S
C2 C6 1.432 . S
C2 C14 1.410 . S
C3 C5 1.444 . S
C3 C6 1.317 . S
C3 H26 0.929 . S
C4 C1 1.432 . S
C4 C2 1.417 . S
C4 N12 1.360 . S
C5 C1 1.414 . S
C5 C3 1.444 . S
C5 C10 1.385 1_455 S
C6 C2 1.432 . S
C6 C3 1.317 . S
C6 H18 0.930 . S
C7 C9 1.392 . S
C7 C10 1.370 1_565 S
C7 H19 0.931 . S
N8 C1 1.359 1_655 S
N8 C9 1.327 1_545 S
N8 Tb11 2.600 . S
C9 C7 1.392 . S
C9 N8 1.327 1_565 S
C9 H16 0.930 . S
C10 C5 1.385 1_655 S
C10 C7 1.370 1_545 S
C10 H29 0.930 . S
Tb11 N8 2.600 . S
Tb11 N12 2.660 1_655 S
Tb11 O45 2.362 1_655 S
Tb11 O46 2.421 1_545 S
Tb11 O50 2.546 1_545 S
Tb11 O51 2.610 1_546 S
Tb11 O53 2.320 1_656 S
Tb11 O54 2.562 1_545 S
Tb11 O55 2.413 . S
Tb11 C75 2.833 . S
N12 C4 1.360 . S
N12 Tb11 2.660 1_455 S
N12 C13 1.305 . S
C13 N12 1.305 . S
C13 C15 1.407 . S
C13 H20 0.930 . S
C14 C2 1.410 . S
C14 C15 1.345 . S
C14 H22 0.930 . S
C15 C13 1.407 . S
C15 C14 1.345 . S
C15 H17 0.930 . S
H16 C9 0.930 . S
H17 C15 0.930 . S
H18 C6 0.930 . S
H19 C7 0.931 . S
H20 C13 0.930 . S
H21 C35 0.930 . S
H22 C14 0.930 . S
H23 C41 0.930 . S
H24 C32 0.930 . S
H25 C39 0.931 . S
H26 C3 0.929 . S
H27 C33 0.930 . S
H28 C66 0.930 . S
H29 C10 0.930 . S
H30 C65 0.929 . S
N31 Tb0 2.660 1_655 S
N31 C32 1.305 . S
N31 C36 1.360 . S
C32 H24 0.930 . S
C32 N31 1.305 . S
C32 C35 1.407 . S
C33 H27 0.930 . S
C33 C34 1.410 . S
C33 C35 1.345 . S
C34 C33 1.410 . S
C34 C36 1.417 . S
C34 C66 1.432 . S
C35 H21 0.930 . S
C35 C32 1.407 . S
C35 C33 1.345 . S
C36 N31 1.360 . S
C36 C34 1.417 . S
C36 C40 1.432 . S
H37 C42 0.930 . S
N38 Tb0 2.600 . S
N38 C40 1.359 1_455 S
N38 C41 1.327 1_565 S
C39 H25 0.931 . S
C39 C41 1.392 . S
C39 C42 1.370 1_545 S
C40 C36 1.432 . S
C40 N38 1.359 1_655 S
C40 C43 1.414 . S
C41 H23 0.930 . S
C41 N38 1.327 1_545 S
C41 C39 1.392 . S
C42 H37 0.930 . S
C42 C39 1.370 1_565 S
C42 C43 1.385 1_455 S
C43 C40 1.414 . S
C43 C42 1.385 1_655 S
C43 C65 1.444 . S
O44 Tb0 2.546 1_545 S
O44 C64 1.251 1_545 S
O45 Tb0 2.610 1_546 S
O45 Tb11 2.362 1_455 S
O45 C56 1.283 . S
O46 Tb11 2.421 1_565 S
O46 C63 1.262 . S
O47 Tb0 2.320 1_656 S
O47 C63 1.260 . S
O48 Tb0 2.552 1_545 S
O48 C56 1.243 1_554 S
O49 Tb0 2.413 . S
O49 C64 1.256 . S
O50 Tb11 2.546 1_565 S
O50 C75 1.251 1_565 S
O51 Tb0 2.362 1_655 S
O51 Tb11 2.610 1_564 S
O51 C67 1.283 . S
O52 Tb0 2.421 1_545 S
O52 C74 1.262 . S
O53 Tb11 2.320 1_454 S
O53 C74 1.260 . S
O54 Tb11 2.562 1_565 S
O54 C67 1.228 1_556 S
O55 Tb11 2.413 . S
O55 C75 1.256 . S
C56 O45 1.283 . S
C56 O48 1.243 1_556 S
C57 C59 1.382 . S
C57 C61 1.393 . S
C57 C64 1.500 . S
C58 C59 1.400 . S
C58 C60 1.384 . S
C59 C57 1.382 . S
C59 C58 1.400 . S
C59 H76 0.930 . S
C60 C58 1.384 . S
C60 C62 1.392 . S
C60 H77 0.931 . S
C61 C57 1.393 . S
C61 C62 1.401 . S
C61 H78 0.930 . S
C62 C60 1.392 . S
C62 C61 1.401 . S
C62 H79 0.930 . S
C63 O46 1.262 . S
C63 O47 1.260 . S
C64 Tb0 2.833 . S
C64 O44 1.251 1_565 S
C64 O49 1.256 . S
C64 C57 1.500 . S
C65 H30 0.929 . S
C65 C43 1.444 . S
C65 C66 1.317 . S
C66 H28 0.930 . S
C66 C34 1.432 . S
C66 C65 1.317 . S
C67 O51 1.283 . S
C67 O54 1.228 1_554 S
C68 C69 1.382 . S
C68 C72 1.393 . S
C68 C75 1.500 . S
C69 C68 1.382 . S
C69 C70 1.400 . S
C69 H80 0.930 . S
C70 C69 1.400 . S
C70 C71 1.384 . S
C71 C70 1.384 . S
C71 C73 1.392 . S
C71 H81 0.931 . S
C72 C68 1.393 . S
C72 C73 1.401 . S
C72 H82 0.930 . S
C73 C71 1.392 . S
C73 C72 1.401 . S
C73 H83 0.930 . S
C74 O52 1.262 . S
C74 O53 1.260 . S
C75 Tb11 2.833 . S
C75 O50 1.251 1_545 S
C75 O55 1.256 . S
C75 C68 1.500 . S
H76 C59 0.930 . S
H77 C60 0.931 . S
H78 C61 0.930 . S
H79 C62 0.930 . S
H80 C69 0.930 . S
H81 C71 0.931 . S
H82 C72 0.930 . S
H83 C73 0.930 . S
Tb84 N115 2.660 1_655 S
Tb84 N122 2.600 1_655 S
Tb84 O128 2.546 . S
Tb84 O129 2.610 1_545 S
Tb84 O131 2.320 1_655 S
Tb84 O132 2.552 1_545 S
Tb84 O133 2.413 . S
Tb84 O135 2.362 1_655 S
Tb84 O136 2.421 1_545 S
Tb84 C148 2.833 . S
C85 C88 1.432 . S
C85 C89 1.414 . S
C85 N92 1.359 1_665 S
C86 C88 1.417 . S
C86 C90 1.432 . S
C86 C98 1.410 . S
C87 C89 1.444 . S
C87 C90 1.317 . S
C87 H110 0.929 . S
C88 C85 1.432 . S
C88 C86 1.417 . S
C88 N96 1.360 . S
C89 C85 1.414 . S
C89 C87 1.444 . S
C89 C94 1.385 1_665 S
C90 C86 1.432 . S
C90 C87 1.317 . S
C90 H102 0.930 . S
C91 C93 1.392 . S
C91 C94 1.370 . S
C91 H103 0.931 . S
N92 C85 1.359 1_445 S
N92 C93 1.327 . S
N92 Tb95 2.600 1_545 S
C93 C91 1.392 . S
C93 N92 1.327 . S
C93 H100 0.930 . S
C94 C89 1.385 1_445 S
C94 C91 1.370 . S
C94 H113 0.930 . S
Tb95 N92 2.600 1_565 S
Tb95 N96 2.660 1_455 S
Tb95 O129 2.362 1_455 S
Tb95 O130 2.421 1_565 S
Tb95 O134 2.546 1_565 S
Tb95 O135 2.610 1_565 S
Tb95 O137 2.320 1_455 S
Tb95 O138 2.552 1_565 S
Tb95 O139 2.413 . S
Tb95 C159 2.833 . S
N96 C88 1.360 . S
N96 Tb95 2.660 1_655 S
N96 C97 1.305 . S
C97 N96 1.305 . S
C97 C99 1.407 . S
C97 H104 0.930 . S
C98 C86 1.410 . S
C98 C99 1.345 . S
C98 H106 0.930 . S
C99 C97 1.407 . S
C99 C98 1.345 . S
C99 H101 0.930 . S
H100 C93 0.930 . S
H101 C99 0.930 . S
H102 C90 0.930 . S
H103 C91 0.931 . S
H104 C97 0.930 . S
H105 C119 0.930 . S
H106 C98 0.930 . S
H107 C125 0.930 . S
H108 C116 0.930 . S
H109 C123 0.931 . S
H110 C87 0.929 . S
H111 C117 0.930 . S
H112 C150 0.930 . S
H113 C94 0.930 . S
H114 C149 0.929 . S
N115 Tb84 2.660 1_455 S
N115 C116 1.305 . S
N115 C120 1.360 . S
C116 H108 0.930 . S
C116 N115 1.305 . S
C116 C119 1.407 . S
C117 H111 0.930 . S
C117 C118 1.410 . S
C117 C119 1.345 . S
C118 C117 1.410 . S
C118 C120 1.417 . S
C118 C150 1.432 . S
C119 H105 0.930 . S
C119 C116 1.407 . S
C119 C117 1.345 . S
C120 N115 1.360 . S
C120 C118 1.417 . S
C120 C124 1.432 . S
H121 C126 0.930 . S
N122 Tb84 2.600 1_455 S
N122 C124 1.359 . S
N122 C125 1.327 1_445 S
C123 H109 0.931 . S
C123 C125 1.392 . S
C123 C126 1.370 1_665 S
C124 C120 1.432 . S
C124 N122 1.359 . S
C124 C127 1.414 . S
C125 H107 0.930 . S
C125 N122 1.327 1_665 S
C125 C123 1.392 . S
C126 H121 0.930 . S
C126 C123 1.370 1_445 S
C126 C127 1.385 . S
C127 C124 1.414 . S
C127 C126 1.385 . S
C127 C149 1.444 . S
O128 Tb84 2.546 . S
O128 C148 1.251 . S
O129 Tb84 2.610 1_565 S
O129 Tb95 2.362 1_655 S
O129 C140 1.283 . S
O130 Tb95 2.421 1_545 S
O130 C147 1.262 . S
O131 Tb84 2.320 1_455 S
O131 C147 1.260 . S
O132 Tb84 2.552 1_565 S
O132 C140 1.243 . S
O133 Tb84 2.413 . S
O133 C148 1.256 . S
O134 Tb95 2.546 1_545 S
O134 C159 1.251 1_545 S
O135 Tb84 2.362 1_455 S
O135 Tb95 2.610 1_545 S
O135 C151 1.283 . S
O136 Tb84 2.421 1_565 S
O136 C158 1.262 . S
O137 Tb95 2.320 1_655 S
O137 C158 1.260 . S
O138 Tb95 2.552 1_545 S
O138 C151 1.243 . S
O139 Tb95 2.413 . S
O139 C159 1.256 . S
C140 O129 1.283 . S
C140 O132 1.243 . S
C141 C143 1.382 . S
C141 C145 1.393 . S
C141 C148 1.500 . S
C142 C143 1.400 . S
C142 C144 1.384 . S
C143 C141 1.382 . S
C143 C142 1.400 . S
C143 H160 0.930 . S
C144 C142 1.384 . S
C144 C146 1.392 . S
C144 H161 0.931 . S
C145 C141 1.393 . S
C145 C146 1.401 . S
C145 H162 0.930 . S
C146 C144 1.392 . S
C146 C145 1.401 . S
C146 H163 0.930 . S
C147 O130 1.262 . S
C147 O131 1.260 . S
C148 Tb84 2.833 . S
C148 O128 1.251 . S
C148 O133 1.256 . S
C148 C141 1.500 . S
C149 H114 0.929 . S
C149 C127 1.444 . S
C149 C150 1.317 . S
C150 H112 0.930 . S
C150 C118 1.432 . S
C150 C149 1.317 . S
C151 O135 1.283 . S
C151 O138 1.243 . S
C152 C153 1.382 . S
C152 C156 1.393 . S
C152 C159 1.500 . S
C153 C152 1.382 . S
C153 C154 1.400 . S
C153 H164 0.930 . S
C154 C153 1.400 . S
C154 C155 1.384 . S
C155 C154 1.384 . S
C155 C157 1.392 . S
C155 H165 0.931 . S
C156 C152 1.393 . S
C156 C157 1.401 . S
C156 H166 0.930 1_565 S
C157 C155 1.392 . S
C157 C156 1.401 . S
C157 H167 0.930 . S
C158 O136 1.262 . S
C158 O137 1.260 . S
C159 Tb95 2.833 . S
C159 O134 1.251 1_565 S
C159 O139 1.256 . S
C159 C152 1.500 . S
H160 C143 0.930 . S
H161 C144 0.931 . S
H162 C145 0.930 . S
H163 C146 0.930 . S
H164 C153 0.930 . S
H165 C155 0.931 . S
H166 C156 0.930 1_545 S
H167 C157 0.930 . S
Zn168 O174 1.920 . S
Zn168 O180 1.898 . S
Zn168 O183 1.905 . S
Zn169 O177 1.905 . S
Zn169 O178 1.898 . S
Zn169 O186 1.920 . S
Zn170 O173 2.080 . S
Zn170 O176 2.114 . S
Zn170 O179 2.120 . S
Zn170 O181 2.120 . S
Zn170 O182 2.114 . S
Zn170 O185 2.080 . S
C171 O176 1.166 . S
C171 O177 1.182 . S
C172 O178 1.167 . S
C172 O179 1.299 . S
O173 Zn170 2.080 . S
O173 C187 1.305 . S
O174 Zn168 1.920 . S
O174 C187 1.234 . S
C175 O180 1.167 . S
C175 O181 1.299 . S
O176 Zn170 2.114 . S
O176 C171 1.166 . S
O177 Zn169 1.905 . S
O177 C171 1.182 . S
O178 Zn169 1.898 . S
O178 C172 1.167 . S
O179 Zn170 2.120 . S
O179 C172 1.299 . S
O180 Zn168 1.898 . S
O180 C175 1.167 . S
O181 Zn170 2.120 . S
O181 C175 1.299 . S
O182 Zn170 2.114 . S
O182 C184 1.166 . S
O183 Zn168 1.905 . S
O183 C184 1.182 . S
C184 O182 1.166 . S
C184 O183 1.182 . S
O185 Zn170 2.080 . S
O185 C188 1.305 . S
O186 Zn169 1.920 . S
O186 C188 1.234 . S
C187 O173 1.305 . S
C187 O174 1.234 . S
C188 O185 1.305 . S
C188 O186 1.234 . S
Zn189 O195 1.920 . S
Zn189 O201 1.898 . S
Zn189 O204 1.905 . S
Zn190 O198 1.905 . S
Zn190 O199 1.898 . S
Zn190 O207 1.920 . S
Zn191 O194 2.080 . S
Zn191 O197 2.114 . S
Zn191 O200 2.120 . S
Zn191 O202 2.120 . S
Zn191 O203 2.114 . S
Zn191 O206 2.080 . S
C192 O197 1.166 . S
C192 O198 1.182 . S
C193 O199 1.167 . S
C193 O200 1.299 . S
O194 Zn191 2.080 . S
O194 C208 1.305 . S
O195 Zn189 1.920 . S
O195 C208 1.234 . S
C196 O201 1.167 . S
C196 O202 1.299 . S
O197 Zn191 2.114 . S
O197 C192 1.166 . S
O198 Zn190 1.905 . S
O198 C192 1.182 . S
O199 Zn190 1.898 . S
O199 C193 1.167 . S
O200 Zn191 2.120 . S
O200 C193 1.299 . S
O201 Zn189 1.898 . S
O201 C196 1.167 . S
O202 Zn191 2.120 . S
O202 C196 1.299 . S
O203 Zn191 2.114 . S
O203 C205 1.166 . S
O204 Zn189 1.905 . S
O204 C205 1.182 . S
C205 O203 1.166 . S
C205 O204 1.182 . S
O206 Zn191 2.080 . S
O206 C209 1.305 . S
O207 Zn190 1.920 . S
O207 C209 1.234 . S
C208 O194 1.305 . S
C208 O195 1.234 . S
C209 O206 1.305 . S
C209 O207 1.234 . S
C210 C211 1.369 . S
C210 C212 1.419 . S
C210 H214 0.930 . S
C211 C210 1.369 . S
C211 C220 1.429 . S
C212 C210 1.419 . S
C212 C213 1.363 . S
C212 H215 0.929 . S
C213 C212 1.363 . S
C213 C219 1.428 . S
H214 C210 0.930 . S
H215 C212 0.929 . S
S216 N217 1.613 . S
S216 N218 1.610 . S
N217 S216 1.613 . S
N217 C220 1.350 . S
N218 S216 1.610 . S
N218 C219 1.351 . S
C219 C213 1.428 . S
C219 N218 1.351 . S
C219 C220 1.434 . S
C220 C211 1.429 . S
C220 N217 1.350 . S
C220 C219 1.434 . S
C221 C222 1.369 . S
C221 C223 1.419 . S
C221 H225 0.930 . S
C222 C221 1.369 . S
C222 C231 1.429 . S
C223 C221 1.419 . S
C223 C224 1.363 . S
C223 H226 0.929 . S
C224 C223 1.363 . S
C224 C230 1.428 . S
H225 C221 0.930 . S
H226 C223 0.929 . S
S227 N228 1.623 . S
S227 N229 1.610 1_565 S
N228 S227 1.623 . S
N228 C231 1.351 1_565 S
N229 S227 1.610 1_545 S
N229 C230 1.351 . S
C230 C224 1.428 . S
C230 N229 1.351 . S
C230 C231 1.434 . S
C231 C222 1.429 . S
C231 N228 1.351 1_545 S
C231 C230 1.434 . S
C232 C233 1.369 . S
C232 C234 1.419 . S
C232 H236 0.930 . S
C233 C232 1.369 . S
C233 C242 1.429 . S
C234 C232 1.419 . S
C234 C235 1.363 . S
C234 H237 0.929 . S
C235 C234 1.363 . S
C235 C241 1.428 . S
H236 C232 0.930 . S
H237 C234 0.929 . S
S238 N239 1.613 . S
S238 N240 1.610 1_655 S
N239 S238 1.613 . S
N239 C242 1.350 1_655 S
N240 S238 1.610 1_455 S
N240 C241 1.351 . S
C241 C235 1.428 . S
C241 N240 1.351 . S
C241 C242 1.434 . S
C242 C233 1.429 . S
C242 N239 1.350 1_455 S
C242 C241 1.434 . S
C243 C244 1.369 . S
C243 C245 1.419 . S
C243 H247 0.930 . S
C244 C243 1.369 . S
C244 C253 1.429 . S
C245 C243 1.419 . S
C245 C246 1.363 . S
C245 H248 0.929 . S
C246 C245 1.363 . S
C246 C252 1.428 . S
H247 C243 0.930 . S
H248 C245 0.929 . S
S249 N250 1.613 . S
S249 N251 1.610 . S
N250 S249 1.613 . S
N250 C253 1.350 . S
N251 S249 1.610 . S
N251 C252 1.351 . S
C252 C246 1.428 . S
C252 N251 1.351 . S
C252 C253 1.434 . S
C253 C244 1.429 . S
C253 N250 1.350 . S
C253 C252 1.434 . S
C254 C255 1.369 . S
C254 C256 1.419 . S
C254 H258 0.930 . S
C255 C254 1.369 . S
C255 C264 1.429 . S
C256 C254 1.419 . S
C256 C257 1.363 . S
C256 H259 0.929 . S
C257 C256 1.363 . S
C257 C263 1.428 . S
H258 C254 0.930 . S
H259 C256 0.929 . S
S260 N261 1.613 . S
S260 N262 1.610 . S
N261 S260 1.613 . S
N261 C264 1.350 . S
N262 S260 1.610 . S
N262 C263 1.351 . S
C263 C257 1.428 . S
C263 N262 1.351 . S
C263 C264 1.434 . S
C264 C255 1.429 . S
C264 N261 1.350 . S
C264 C263 1.434 . S
C265 C266 1.369 . S
C265 C267 1.419 . S
C265 H269 0.930 . S
C266 C265 1.369 . S
C266 C275 1.429 . S
C267 C265 1.419 . S
C267 C268 1.363 . S
C267 H270 0.929 . S
C268 C267 1.363 . S
C268 C274 1.428 . S
H269 C265 0.930 . S
H270 C267 0.929 . S
S271 N272 1.613 . S
S271 N273 1.610 . S
N272 S271 1.613 . S
N272 C275 1.350 . S
N273 S271 1.610 . S
N273 C274 1.351 . S
C274 C268 1.428 . S
C274 N273 1.351 . S
C274 C275 1.434 . S
C275 C266 1.429 . S
C275 N272 1.350 . S
C275 C274 1.434 . S
C276 C277 1.369 . S
C276 C278 1.419 . S
C276 H280 0.930 . S
C277 C276 1.369 . S
C277 C286 1.429 . S
C278 C276 1.419 . S
C278 C279 1.363 . S
C278 H281 0.929 . S
C279 C278 1.363 . S
C279 C285 1.428 . S
H280 C276 0.930 . S
H281 C278 0.929 . S
S282 N283 1.613 . S
S282 N284 1.611 . S
N283 S282 1.613 . S
N283 C286 1.350 . S
N284 S282 1.611 . S
N284 C285 1.351 . S
C285 C279 1.428 . S
C285 N284 1.351 . S
C285 C286 1.434 . S
C286 C277 1.429 . S
C286 N283 1.350 . S
C286 C285 1.434 . S
C287 C288 1.369 . S
C287 C289 1.419 . S
C287 H291 0.930 . S
C288 C287 1.369 . S
C288 C297 1.429 . S
C289 C287 1.419 . S
C289 C290 1.363 . S
C289 H292 0.929 . S
C290 C289 1.363 . S
C290 C296 1.428 . S
H291 C287 0.930 . S
H292 C289 0.929 . S
S293 N294 1.613 . S
S293 N295 1.610 . S
N294 S293 1.613 . S
N294 C297 1.350 . S
N295 S293 1.610 . S
N295 C296 1.351 . S
C296 C290 1.428 . S
C296 N295 1.351 . S
C296 C297 1.434 . S
C297 C288 1.429 . S
C297 N294 1.350 . S
C297 C296 1.434 . S
C298 C299 1.369 . S
C298 C300 1.419 . S
C298 H302 0.930 . S
C299 C298 1.369 . S
C299 C308 1.429 . S
C300 C298 1.419 . S
C300 C301 1.363 . S
C300 H303 0.929 . S
C301 C300 1.363 . S
C301 C307 1.428 . S
H302 C298 0.930 . S
H303 C300 0.929 . S
S304 N305 1.613 . S
S304 N306 1.610 . S
N305 S304 1.613 . S
N305 C308 1.350 . S
N306 S304 1.610 . S
N306 C307 1.351 . S
C307 C301 1.428 . S
C307 N306 1.351 . S
C307 C308 1.434 . S
C308 C299 1.429 . S
C308 N305 1.350 . S
C308 C307 1.434 . S
C309 C310 1.369 . S
C309 C311 1.419 . S
C309 H313 0.930 . S
C310 C309 1.369 . S
C310 C319 1.429 . S
C311 C309 1.419 . S
C311 C312 1.363 . S
C311 H314 0.929 . S
C312 C311 1.363 . S
C312 C318 1.428 . S
H313 C309 0.930 . S
H314 C311 0.929 . S
S315 N316 1.613 . S
S315 N317 1.610 . S
N316 S315 1.613 . S
N316 C319 1.350 . S
N317 S315 1.610 . S
N317 C318 1.351 . S
C318 C312 1.428 . S
C318 N317 1.351 . S
C318 C319 1.434 . S
C319 C310 1.429 . S
C319 N316 1.350 . S
C319 C318 1.434 . S
C320 C321 1.369 . S
C320 C322 1.419 . S
C320 H324 0.930 . S
C321 C320 1.369 . S
C321 C330 1.429 . S
C322 C320 1.419 . S
C322 C323 1.363 . S
C322 H325 0.929 . S
C323 C322 1.363 . S
C323 C329 1.428 . S
H324 C320 0.930 . S
H325 C322 0.929 . S
S326 N327 1.613 . S
S326 N328 1.610 . S
N327 S326 1.613 . S
N327 C330 1.350 . S
N328 S326 1.610 . S
N328 C329 1.351 . S
C329 C323 1.428 . S
C329 N328 1.351 . S
C329 C330 1.434 . S
C330 C321 1.429 . S
C330 N327 1.350 . S
C330 C329 1.434 . S
C331 C332 1.369 . S
C331 C333 1.419 . S
C331 H335 0.930 1_655 S
C332 C331 1.369 . S
C332 C341 1.429 . S
C333 C331 1.419 . S
C333 C334 1.363 . S
C333 H336 0.929 . S
C334 C333 1.363 . S
C334 C340 1.428 . S
H335 C331 0.930 1_455 S
H336 C333 0.929 . S
S337 N338 1.613 . S
S337 N339 1.610 . S
N338 S337 1.613 . S
N338 C341 1.350 . S
N339 S337 1.610 . S
N339 C340 1.351 . S
C340 C334 1.428 . S
C340 N339 1.351 . S
C340 C341 1.434 . S
C341 C332 1.429 . S
C341 N338 1.350 . S
C341 C340 1.434 . S
C211 C58 1.193 . S
C213 C187 1.288 . S
C222 C151 1.617 . S
C224 C193 1.466 . S
C233 C74 1.582 . S
C235 C184 1.488 . S
C244 C142 1.192 . S
C246 C209 1.286 . S
C255 C67 1.618 . S
C257 C175 1.463 . S
C268 C192 1.494 . S
C266 C158 1.577 . S
C277 C154 1.134 . S
C279 C188 1.302 . S
C290 C205 1.497 . S
C288 C56 1.630 . S
C301 C172 1.431 . S
C299 C147 1.625 . S
C312 C208 1.296 . S
C310 C70 1.146 . S
C323 C171 1.505 . S
C321 C140 1.636 . S
C334 C196 1.426 . S
C332 C63 1.623 . S
