# Generated by pormake.
# Topology zzz, (3,6)-cn, num edge types: 1
# Building blocks:
#     Node 0, Type 0, BuildingBlock: OLANEW_clean_sbu_2, # of connection points: 3
#     Node 1, Type 0, BuildingBlock: OLANEW_clean_sbu_2, # of connection points: 3
#     Node 2, Type 0, BuildingBlock: OLANEW_clean_sbu_2, # of connection points: 3
#     Node 3, Type 0, BuildingBlock: OLANEW_clean_sbu_2, # of connection points: 3
#     Node 4, Type 0, BuildingBlock: OLANEW_clean_sbu_2, # of connection points: 3
#     Node 5, Type 0, BuildingBlock: OLANEW_clean_sbu_2, # of connection points: 3
#     Node 6, Type 0, BuildingBlock: OLANEW_clean_sbu_2, # of connection points: 3
#     Node 7, Type 0, BuildingBlock: OLANEW_clean_sbu_2, # of connection points: 3
#     Node 8, Type 1, BuildingBlock: CUWYAW_clean_sbu_0, # of connection points: 6
#     Node 9, Type 1, BuildingBlock: CUWYAW_clean_sbu_0, # of connection points: 6
#     Node 10, Type 1, BuildingBlock: CUWYAW_clean_sbu_0, # of connection points: 6
#     Node 11, Type 1, BuildingBlock: CUWYAW_clean_sbu_0, # of connection points: 6
#     Edge 12, Type (0, 1), BuildingBlock: ZUJKAS_clean_linker_0, # of connection points: 2
#     Edge 13, Type (0, 1), BuildingBlock: ZUJKAS_clean_linker_0, # of connection points: 2
#     Edge 14, Type (0, 1), BuildingBlock: ZUJKAS_clean_linker_0, # of connection points: 2
#     Edge 15, Type (0, 1), BuildingBlock: ZUJKAS_clean_linker_0, # of connection points: 2
#     Edge 16, Type (0, 1), BuildingBlock: ZUJKAS_clean_linker_0, # of connection points: 2
#     Edge 17, Type (0, 1), BuildingBlock: ZUJKAS_clean_linker_0, # of connection points: 2
#     Edge 18, Type (0, 1), BuildingBlock: ZUJKAS_clean_linker_0, # of connection points: 2
#     Edge 19, Type (0, 1), BuildingBlock: ZUJKAS_clean_linker_0, # of connection points: 2
#     Edge 20, Type (0, 1), BuildingBlock: ZUJKAS_clean_linker_0, # of connection points: 2
#     Edge 21, Type (0, 1), BuildingBlock: ZUJKAS_clean_linker_0, # of connection points: 2
#     Edge 22, Type (0, 1), BuildingBlock: ZUJKAS_clean_linker_0, # of connection points: 2
#     Edge 23, Type (0, 1), BuildingBlock: ZUJKAS_clean_linker_0, # of connection points: 2
#     Edge 24, Type (0, 1), BuildingBlock: ZUJKAS_clean_linker_0, # of connection points: 2
#     Edge 25, Type (0, 1), BuildingBlock: ZUJKAS_clean_linker_0, # of connection points: 2
#     Edge 26, Type (0, 1), BuildingBlock: ZUJKAS_clean_linker_0, # of connection points: 2
#     Edge 27, Type (0, 1), BuildingBlock: ZUJKAS_clean_linker_0, # of connection points: 2
#     Edge 28, Type (0, 1), BuildingBlock: ZUJKAS_clean_linker_0, # of connection points: 2
#     Edge 29, Type (0, 1), BuildingBlock: ZUJKAS_clean_linker_0, # of connection points: 2
#     Edge 30, Type (0, 1), BuildingBlock: ZUJKAS_clean_linker_0, # of connection points: 2
#     Edge 31, Type (0, 1), BuildingBlock: ZUJKAS_clean_linker_0, # of connection points: 2
#     Edge 32, Type (0, 1), BuildingBlock: ZUJKAS_clean_linker_0, # of connection points: 2
#     Edge 33, Type (0, 1), BuildingBlock: ZUJKAS_clean_linker_0, # of connection points: 2
#     Edge 34, Type (0, 1), BuildingBlock: ZUJKAS_clean_linker_0, # of connection points: 2
#     Edge 35, Type (0, 1), BuildingBlock: ZUJKAS_clean_linker_0, # of connection points: 2
# Relax obj value: 0.201
# Max RMSD: 0.151
# Mean RMSD: 0.142
data_MOF--net-zzz--node1-OLANEW_clean_sbu_2--node2-CUWYAW_clean_sbu_0--edge1-ZUJKAS_clean_linker_0
_symmetry_space_group_name_H-M    P1
_symmetry_Int_Tables_number       1
_symmetry_cell_setting            triclinic
loop_
_symmetry_equiv_pos_as_xyz
'x, y, z'
_cell_length_a     71.165714
_cell_length_b     71.141043
_cell_length_c     20.260984
_cell_angle_alpha  89.985809
_cell_angle_beta   89.953825
_cell_angle_gamma 90.00044
loop_
_atom_site_label
_atom_site_type_symbol
_atom_site_fract_x
_atom_site_fract_y
_atom_site_fract_z
_atom_type_partial_charge
O0 O 0.73196 0.51909 0.21537 0.0
Cd1 Cd 0.70242 0.52024 0.27622 0.0
O2 O 0.73612 0.49278 0.26926 0.0
Cd3 Cd 0.75489 0.47155 0.30957 0.0
O4 O 0.78285 0.47218 0.35186 0.0
C5 C 0.78865 0.48883 0.36188 0.0
O6 O 0.77747 0.50295 0.34761 0.0
C7 C 0.74216 0.50492 0.22829 0.0
C8 C 0.67175 0.51724 0.19248 0.0
O9 O 0.6773 0.53336 0.2129 0.0
O10 O 0.68067 0.50261 0.2119 0.0
O11 O 0.9451 0.74322 0.21163 0.0
Cd12 Cd 0.93843 0.71192 0.25494 0.0
O13 O 0.97273 0.74152 0.25912 0.0
Cd14 Cd 0.00019 0.75315 0.28509 0.0
O15 O 0.01436 0.77774 0.32509 0.0
C16 C 0.01069 0.78157 0.38493 0.0
O17 O 0.00076 0.76951 0.41957 0.0
C18 C 0.96077 0.75078 0.22554 0.0
C19 C 0.95022 0.68398 0.16826 0.0
O20 O 0.93344 0.69051 0.16581 0.0
O21 O 0.9614 0.69066 0.21192 0.0
O22 O 0.76729 0.94254 0.17716 0.0
Cd23 Cd 0.79944 0.93912 0.21759 0.0
O24 O 0.76391 0.96541 0.24888 0.0
Cd25 Cd 0.74633 0.98744 0.29145 0.0
O26 O 0.71971 0.99942 0.32366 0.0
C27 C 0.71489 0.99698 0.38337 0.0
O28 O 0.72659 0.98844 0.42357 0.0
C29 C 0.757 0.95491 0.20429 0.0
C30 C 0.82622 0.94824 0.12259 0.0
O31 O 0.82052 0.93127 0.12968 0.0
O32 O 0.81918 0.96089 0.16027 0.0
O33 O 0.5437 0.76908 0.18632 0.0
Cd34 Cd 0.54879 0.79982 0.2365 0.0
O35 O 0.51809 0.76725 0.24613 0.0
Cd36 Cd 0.49597 0.74991 0.28876 0.0
O37 O 0.48935 0.72258 0.33053 0.0
C38 C 0.49498 0.7194 0.38892 0.0
O39 O 0.50305 0.73305 0.42211 0.0
C40 C 0.52918 0.76 0.20398 0.0
C41 C 0.53679 0.82845 0.15308 0.0
O42 O 0.55383 0.82263 0.15188 0.0
O43 O 0.52542 0.82077 0.19415 0.0
O44 O 0.27427 0.52132 0.07833 0.0
Cd45 Cd 0.30505 0.52285 0.02633 0.0
O46 O 0.27632 0.49071 0.06809 0.0
Cd47 Cd 0.26242 0.46342 0.06238 0.0
O48 O 0.23495 0.45684 0.02174 0.0
C49 C 0.22873 0.47062 0.98843 0.0
O50 O 0.23949 0.48546 0.98061 0.0
C51 C 0.26721 0.50512 0.08721 0.0
C52 C 0.3314 0.51352 0.12158 0.0
O53 O 0.32686 0.53069 0.11093 0.0
O54 O 0.32386 0.50078 0.08563 0.0
O55 O 0.9585 0.27889 0.13712 0.0
Cd56 Cd 0.95232 0.30922 0.08535 0.0
O57 O 0.98264 0.27635 0.0708 0.0
Cd58 Cd 0.00725 0.26266 0.02806 0.0
O59 O 0.02057 0.23985 0.97416 0.0
C60 C 0.02852 0.22656 0.00529 0.0
O61 O 0.0301 0.22774 0.06975 0.0
C62 C 0.97246 0.26945 0.11645 0.0
C63 C 0.96138 0.33811 0.17197 0.0
O64 O 0.94467 0.33142 0.16952 0.0
O65 O 0.97375 0.33129 0.1327 0.0
O66 O 0.23247 0.95458 0.10167 0.0
Cd67 Cd 0.20086 0.95124 0.05647 0.0
O68 O 0.22768 0.98493 0.11274 0.0
Cd69 Cd 0.24008 0.01274 0.1262 0.0
O70 O 0.26779 0.02336 0.10027 0.0
C71 C 0.27413 0.01551 0.04854 0.0
O72 O 0.26332 0.00352 0.01707 0.0
C73 C 0.2384 0.9707 0.1187 0.0
C74 C 0.17344 0.96012 0.14947 0.0
O75 O 0.17969 0.9433 0.14371 0.0
O76 O 0.18016 0.97276 0.11105 0.0
O77 O 0.53228 0.22654 0.09394 0.0
Cd78 Cd 0.53292 0.19506 0.04652 0.0
O79 O 0.50159 0.22571 0.08547 0.0
Cd80 Cd 0.47465 0.24028 0.08263 0.0
O81 O 0.46386 0.26711 0.04856 0.0
C82 C 0.47052 0.27194 0.99291 0.0
O83 O 0.48169 0.26019 0.96181 0.0
C84 C 0.51645 0.23442 0.10237 0.0
C85 C 0.52398 0.16909 0.1441 0.0
O86 O 0.54105 0.17399 0.1334 0.0
O87 O 0.51112 0.17622 0.10762 0.0
C88 C 0.0006 0.03284 0.49172 0.0
Eu89 Eu 0.00211 0.01528 0.60444 0.0
C90 C 0.0038 0.05171 0.46428 0.0
C91 C 0.00121 0.06783 0.50316 0.0
C92 C 0.00177 0.08569 0.47445 0.0
C93 C 0.00484 0.08774 0.4062 0.0
C94 C 0.0082 0.07157 0.368 0.0
C95 C 0.00769 0.05371 0.39685 0.0
C96 C 0.97153 0.00499 0.67526 0.0
C97 C 0.01343 0.04394 0.72403 0.0
C98 C 0.00616 0.98766 0.86594 0.0
Eu99 Eu 0.00942 0.99901 0.74439 0.0
C100 C 0.00576 0.96967 0.90159 0.0
C101 C 0.01549 0.95386 0.87807 0.0
C102 C 0.01337 0.93644 0.90934 0.0
C103 C 0.0013 0.93452 0.96403 0.0
C104 C 0.99182 0.95048 0.98781 0.0
C105 C 0.99405 0.96788 0.95687 0.0
C106 C 0.03881 0.9968 0.66041 0.0
C107 C 0.00326 0.97085 0.62236 0.0
O108 O 0.01534 0.0232 0.51075 0.0
O109 O 0.98639 0.03132 0.53239 0.0
O110 O 0.97326 0.00168 0.61265 0.0
O111 O 0.98575 0.01345 0.69673 0.0
O112 O 0.00887 0.04185 0.6611 0.0
O113 O 0.01454 0.02963 0.76552 0.0
O114 O 0.99185 0.99047 0.82665 0.0
O115 O 0.0222 0.99303 0.84008 0.0
O116 O 0.0353 0.9842 0.70531 0.0
O117 O 0.02744 0.01033 0.66488 0.0
O118 O -0.00036 0.9737 0.68581 0.0
O119 O 0.00749 0.98483 0.58193 0.0
H120 H 0.99799 0.06657 0.55518 0.0
H121 H 0.99893 0.09782 0.50519 0.0
H122 H 0.01088 0.07268 0.31551 0.0
H123 H 0.00969 0.04142 0.36605 0.0
H124 H 0.02433 0.95488 0.83467 0.0
H125 H 0.02066 0.92435 0.88938 0.0
H126 H 0.98257 0.9495 0.03014 0.0
H127 H 0.98627 0.97989 0.97522 0.0
C128 C 0.47065 0.00956 0.51996 0.0
Eu129 Eu 0.48348 0.00982 0.64053 0.0
C130 C 0.4529 0.00616 0.48467 0.0
C131 C 0.45344 0.99881 0.42055 0.0
C132 C 0.43681 0.99564 0.38562 0.0
C133 C 0.41926 -0.00016 0.41415 0.0
C134 C 0.41881 0.00717 0.47875 0.0
C135 C 0.43547 0.01024 0.51376 0.0
C136 C 0.48839 0.97922 0.71751 0.0
C137 C 0.45766 0.01709 0.76652 0.0
C138 C 0.51794 0.01395 0.89149 0.0
Eu139 Eu 0.50394 0.01641 0.77311 0.0
C140 C 0.53594 0.00828 0.922 0.0
C141 C 0.5466 0.02166 0.95647 0.0
C142 C 0.56385 0.01677 0.98452 0.0
C143 C 0.57077 0.99832 0.97911 0.0
C144 C 0.55995 0.98484 0.94546 0.0
C145 C 0.54273 0.98976 0.91712 0.0
C146 C 0.49999 0.04717 0.69642 0.0
C147 C 0.52934 0.01103 0.64716 0.0
O148 O 0.47149 0.02467 0.55667 0.0
O149 O 0.47848 0.99495 0.54791 0.0
O150 O 0.47332 0.98204 0.6828 0.0
O151 O 0.50021 0.99205 0.70784 0.0
O152 O 0.45802 0.01662 0.70128 0.0
O153 O 0.47312 0.01607 0.80278 0.0
O154 O 0.50769 0.00072 0.86445 0.0
O155 O 0.5182 0.02943 0.85659 0.0
O156 O 0.51441 0.0443 0.73429 0.0
O157 O 0.48788 0.03446 0.70457 0.0
O158 O 0.52845 0.00755 0.7111 0.0
O159 O 0.51408 0.01487 0.61226 0.0
H160 H 0.46677 0.99549 0.39745 0.0
H161 H 0.4377 0.98969 0.33653 0.0
H162 H 0.4056 0.01078 0.50202 0.0
H163 H 0.43474 0.0159 0.56335 0.0
H164 H 0.5416 0.03598 0.96146 0.0
H165 H 0.57173 0.02741 0.01091 0.0
H166 H 0.56497 0.97055 0.93992 0.0
H167 H 0.53486 0.97909 0.89107 0.0
C168 C 0.50292 0.46931 0.51114 0.0
Eu169 Eu 0.4986 0.48652 0.6237 0.0
C170 C 0.505 0.45039 0.48254 0.0
C171 C 0.51719 0.44791 0.42892 0.0
C172 C 0.51861 0.43046 0.39776 0.0
C173 C 0.50778 0.4151 0.41944 0.0
C174 C 0.49585 0.41754 0.47427 0.0
C175 C 0.49448 0.43503 0.50561 0.0
C176 C 0.52472 0.49367 0.71671 0.0
C177 C 0.48205 0.45873 0.74027 0.0
C178 C 0.47752 0.52189 0.86243 0.0
Eu179 Eu 0.48322 0.50328 0.75344 0.0
C180 C 0.48231 0.54047 0.88931 0.0
C181 C 0.47068 0.54857 0.93729 0.0
C182 C 0.47485 0.5663 0.96309 0.0
C183 C 0.49078 0.57625 0.94135 0.0
C184 C 0.50245 0.56804 0.89319 0.0
C185 C 0.49822 0.55032 0.86725 0.0
C186 C 0.45764 0.496 0.65848 0.0
C187 C 0.49943 0.53084 0.63876 0.0
O188 O 0.48651 0.47359 0.53632 0.0
O189 O 0.51699 0.47575 0.546 0.0
O190 O 0.52788 0.4954 0.65388 0.0
O191 O 0.50857 0.48707 0.72714 0.0
O192 O 0.48719 0.46082 0.67771 0.0
O193 O 0.48114 0.47299 0.78186 0.0
O194 O 0.49148 0.51018 0.85392 0.0
O195 O 0.46562 0.52175 0.81327 0.0
O196 O 0.45423 0.4935 0.72085 0.0
O197 O 0.47367 0.50297 0.65022 0.0
O198 O 0.49769 0.52794 0.70301 0.0
O199 O 0.49742 0.51701 0.59586 0.0
H200 H 0.52546 0.45958 0.41053 0.0
H201 H 0.52822 0.42901 0.35659 0.0
H202 H 0.4872 0.40608 0.49199 0.0
H203 H 0.48498 0.43661 0.54704 0.0
H204 H 0.45834 0.54116 0.95486 0.0
H205 H 0.46571 0.57213 0.00063 0.0
H206 H 0.51469 0.57544 0.87486 0.0
H207 H 0.50733 0.54433 0.8299 0.0
C208 C 0.03664 0.52006 0.50933 0.0
Eu209 Eu 0.01769 0.51571 0.61808 0.0
C210 C 0.05356 0.51338 0.47489 0.0
C211 C 0.05422 0.5145 0.40593 0.0
C212 C 0.07083 0.51043 0.37207 0.0
C213 C 0.08714 0.50519 0.40665 0.0
C214 C 0.08619 0.50326 0.47576 0.0
C215 C 0.06952 0.50733 0.50964 0.0
C216 C 0.00887 0.54368 0.70311 0.0
C217 C 0.04341 0.4982 0.73673 0.0
C218 C 0.98356 0.5076 0.87408 0.0
Eu219 Eu 0.9993 0.5043 0.75899 0.0
C220 C 0.96502 0.50342 0.90236 0.0
C221 C 0.96203 0.50546 0.97031 0.0
C222 C 0.94404 0.50303 0.99688 0.0
C223 C 0.92874 0.49865 0.95572 0.0
C224 C 0.93193 0.49619 0.88772 0.0
C225 C 0.94994 0.49851 0.86131 0.0
C226 C -0.00049 0.47486 0.67264 0.0
C227 C 0.97286 0.51393 0.631 0.0
O228 O 0.02251 0.50833 0.51469 0.0
O229 O 0.03937 0.53017 0.56256 0.0
O230 O 0.00712 0.5452 0.63961 0.0
O231 O 0.01572 0.52797 0.71813 0.0
O232 O 0.04094 0.50031 0.67223 0.0
O233 O 0.03007 0.50151 0.78082 0.0
O234 O 0.98372 0.52103 0.82969 0.0
O235 O 0.99399 0.49311 0.85754 0.0
O236 O 0.99236 0.47368 0.73162 0.0
O237 O 0.00587 0.49113 0.66559 0.0
O238 O 0.97456 0.51348 0.69627 0.0
O239 O 0.98735 0.513 0.59002 0.0
H240 H 0.04202 0.51908 0.3783 0.0
H241 H 0.07098 0.5117 0.3188 0.0
H242 H 0.09852 0.49936 0.50392 0.0
H243 H 0.06928 0.50636 0.563 0.0
H244 H 0.97352 0.50935 0.0026 0.0
H245 H 0.94201 0.5052 0.04932 0.0
H246 H 0.92048 0.49259 0.85487 0.0
H247 H 0.95204 0.49683 0.80867 0.0
H248 H 0.15716 0.93654 0.23922 0.0
H249 H 0.13342 0.94426 0.322 0.0
H250 H 0.13297 0.00181 0.25501 0.0
H251 H 0.15697 0.99427 0.17245 0.0
H252 H 0.13516 0.99835 0.39143 0.0
H253 H 0.07761 0.95419 0.29178 0.0
H254 H 0.09904 0.94144 0.30492 0.0
H255 H 0.09833 0.95994 0.24442 0.0
C256 C 0.15197 0.95081 0.24181 0.0
C257 C 0.1589 0.96477 0.19908 0.0
C258 C 0.13831 0.95519 0.28889 0.0
C259 C 0.13121 0.97353 0.29381 0.0
C260 C 0.13818 0.98753 0.25163 0.0
H261 H 0.05037 0.02293 0.5705 0.0
H262 H 0.0726 0.01829 0.47923 0.0
C263 C 0.15188 0.98319 0.20453 0.0
C264 C 0.11698 0.97818 0.3446 0.0
H265 H 0.0734 0.96609 0.40094 0.0
C266 C 0.12157 0.99147 0.39319 0.0
C267 C 0.09925 0.96919 0.34656 0.0
C268 C 0.09315 0.95553 0.29378 0.0
C269 C 0.10916 0.9955 0.44517 0.0
C270 C 0.09164 0.98615 0.44797 0.0
C271 C 0.08689 0.97316 0.39868 0.0
C272 C 0.07829 0.98917 0.50291 0.0
C273 C 0.1151 0.00924 0.49789 0.0
C274 C 0.07395 0.97426 0.54558 0.0
C275 C 0.06127 0.97685 0.59736 0.0
C276 C 0.0526 0.99437 0.60691 0.0
C277 C 0.05688 0.00928 0.56403 0.0
C278 C 0.06962 0.00669 0.51227 0.0
H279 H 0.1304 0.01232 0.4957 0.0
H280 H 0.10738 0.02265 0.49104 0.0
H281 H 0.11165 0.00374 0.54773 0.0
H282 H 0.08045 0.96061 0.5389 0.0
H283 H 0.0581 0.96509 0.62945 0.0
H284 H 0.54798 0.15338 0.23337 0.0
H285 H 0.54005 0.13317 0.32682 0.0
H286 H 0.48152 0.13529 0.27247 0.0
H287 H 0.4893 0.15553 0.17844 0.0
H288 H 0.51356 0.14337 0.43124 0.0
H289 H 0.49383 0.07802 0.29642 0.0
H290 H 0.50805 0.0962 0.25915 0.0
H291 H 0.48327 0.09971 0.2696 0.0
C292 C 0.53343 0.14944 0.24085 0.0
C293 C 0.51926 0.15605 0.19847 0.0
C294 C 0.52894 0.13793 0.29432 0.0
C295 C 0.51024 0.13268 0.30611 0.0
C296 C 0.49606 0.13903 0.26359 0.0
H297 H 0.47002 0.0578 0.62084 0.0
H298 H 0.47031 0.0798 0.52729 0.0
C299 C 0.50053 0.15062 0.21009 0.0
C300 C 0.50568 0.12116 0.36461 0.0
H301 H 0.49225 0.07718 0.41244 0.0
C302 C 0.50878 0.12893 0.42726 0.0
C303 C 0.49925 0.10244 0.35896 0.0
C304 C 0.49597 0.09346 0.29253 0.0
C305 C 0.50601 0.1183 0.48468 0.0
C306 C 0.50038 0.09931 0.47904 0.0
C307 C 0.49659 0.09174 0.41647 0.0
C308 C 0.4998 0.08669 0.537 0.0
C309 C 0.50924 0.12748 0.55085 0.0
C310 C 0.51628 0.08325 0.57294 0.0
C311 C 0.51615 0.07073 0.62586 0.0
C312 C 0.49958 0.06126 0.64328 0.0
C313 C 0.48301 0.06481 0.60781 0.0
C314 C 0.48315 0.07738 0.55468 0.0
H315 H 0.50761 0.14299 0.54787 0.0
H316 H 0.49935 0.12197 0.58861 0.0
H317 H 0.52379 0.12446 0.56744 0.0
H318 H 0.52937 0.08998 0.55918 0.0
H319 H 0.52916 0.06812 0.65209 0.0
H320 H 0.34097 0.47837 0.16492 0.0
H321 H 0.36073 0.47039 0.2598 0.0
H322 H 0.37092 0.52931 0.29482 0.0
H323 H 0.351 0.53744 0.20106 0.0
H324 H 0.39794 0.47814 0.28547 0.0
H325 H 0.35218 0.51102 0.47373 0.0
H326 H 0.34437 0.50654 0.39045 0.0
H327 H 0.35817 0.52709 0.4088 0.0
C328 C 0.34745 0.48962 0.19276 0.0
C329 C 0.34432 0.50855 0.17584 0.0
C330 C 0.3587 0.48503 0.24696 0.0
C331 C 0.3669 0.49928 0.2851 0.0
C332 C 0.36428 0.51813 0.26703 0.0
H333 H 0.46197 0.50586 0.53028 0.0
H334 H 0.43917 0.50286 0.44133 0.0
C335 C 0.35301 0.52274 0.21312 0.0
C336 C 0.37853 0.49457 0.34323 0.0
H337 H 0.38409 0.50492 0.50633 0.0
C338 C 0.39479 0.48374 0.33403 0.0
C339 C 0.37414 0.50149 0.40684 0.0
C340 C 0.35615 0.512 0.42079 0.0
C341 C 0.40742 0.48065 0.38603 0.0
C342 C 0.40381 0.48895 0.44822 0.0
C343 C 0.38696 0.49876 0.4584 0.0
C344 C 0.41803 0.48918 0.5014 0.0
C345 C 0.42463 0.46878 0.37353 0.0
C346 C 0.41356 0.48285 0.56521 0.0
C347 C 0.42656 0.48475 0.61655 0.0
C348 C 0.44411 0.49309 0.60464 0.0
C349 C 0.4486 0.49922 0.54068 0.0
C350 C 0.43564 0.49737 0.48964 0.0
H351 H 0.42205 0.45836 0.33372 0.0
H352 H 0.43633 0.47799 0.35726 0.0
H353 H 0.42909 0.46119 0.41877 0.0
H354 H 0.39995 0.47667 0.57538 0.0
H355 H 0.4228 0.47994 0.66554 0.0
H356 H 0.9961 0.35305 0.19634 0.0
H357 H 0.00437 0.37674 0.279 0.0
H358 H 0.94631 0.38039 0.33855 0.0
H359 H 0.93786 0.35676 0.25606 0.0
H360 H 0.96556 0.41606 0.31859 0.0
H361 H 0.00416 0.36656 0.4825 0.0
H362 H 0.01095 0.3666 0.39695 0.0
H363 H 0.98792 0.35864 0.41996 0.0
C364 C 0.98508 0.35893 0.22686 0.0
C365 C 0.96634 0.35297 0.21989 0.0
C366 C 0.98985 0.3724 0.27418 0.0
C367 C 0.97596 0.3801 0.31518 0.0
C368 C 0.95721 0.37452 0.3074 0.0
H369 H 0.98042 0.44188 0.67934 0.0
H370 H 0.97578 0.41892 0.59073 0.0
C371 C 0.95243 0.36101 0.26034 0.0
C372 C 0.98095 0.39392 0.3667 0.0
H373 H 0.00393 0.39855 0.51362 0.0
C374 C 0.97402 0.4123 0.36111 0.0
C375 C 0.99183 0.38882 0.42224 0.0
C376 C 0.99907 0.36906 0.43142 0.0
C377 C 0.97771 0.4258 0.40986 0.0
C378 C 0.98871 0.42074 0.46515 0.0
C379 C 0.99563 0.40236 0.47077 0.0
C380 C 0.99244 0.43416 0.51917 0.0
C381 C 0.96946 0.44524 0.4028 0.0
C382 C 0.0037 0.45005 0.50845 0.0
C383 C 0.00642 0.46311 0.55904 0.0
C384 C 0.99788 0.46049 0.62078 0.0
C385 C 0.9871 0.44427 0.63201 0.0
C386 C 0.98443 0.43117 0.58156 0.0
H387 H 0.95857 0.44586 0.36359 0.0
H388 H 0.96311 0.44993 0.45011 0.0
H389 H 0.9808 0.45529 0.38982 0.0
H390 H 0.01025 0.4524 0.46089 0.0
H391 H 0.0151 0.47528 0.54982 0.0
H392 H 0.83856 0.98323 0.08769 0.0
H393 H 0.86267 0.9912 0.00624 0.0
H394 H 0.87075 0.93237 0.96382 0.0
H395 H 0.8466 0.92421 0.04517 0.0
H396 H 0.90482 0.95442 0.98862 0.0
H397 H 0.85761 0.98618 0.80077 0.0
H398 H 0.85444 0.99461 0.88371 0.0
H399 H 0.84919 0.97054 0.86454 0.0
C400 C 0.8454 0.97198 0.06091 0.0
C401 C 0.84063 0.95309 0.07275 0.0
C402 C 0.85911 0.97656 0.01423 0.0
C403 C 0.86831 0.96236 0.9787 0.0
C404 C 0.86371 0.9435 0.99063 0.0
H405 H 0.94399 0.97984 0.64366 0.0
H406 H 0.9188 0.96822 0.71601 0.0
C407 C 0.8499 0.9389 0.037 0.0
C408 C 0.88305 0.96725 0.93022 0.0
H409 H 0.89043 0.99047 0.78505 0.0
C410 C 0.9017 0.96218 0.94386 0.0
C411 C 0.87884 0.9772 0.87167 0.0
C412 C 0.85892 0.98235 0.85373 0.0
C413 C 0.91639 0.96736 0.90131 0.0
C414 C 0.91223 0.97792 0.84402 0.0
C415 C 0.89352 0.98246 0.82929 0.0
C416 C 0.92722 0.98498 0.80004 0.0
C417 C 0.93624 0.96157 0.91797 0.0
C418 C 0.93993 0.99852 0.8231 0.0
C419 C 0.95413 0.00525 0.7819 0.0
C420 C 0.95593 0.99845 0.71715 0.0
C421 C 0.94294 0.98521 0.69354 0.0
C422 C 0.92862 0.97855 0.73473 0.0
H423 H 0.93656 0.94991 0.95447 0.0
H424 H 0.94395 0.9571 0.87295 0.0
H425 H 0.94381 0.97374 0.93956 0.0
H426 H 0.93882 0.00392 0.87294 0.0
H427 H 0.96376 0.01573 0.80086 0.0
H428 H 0.50108 0.84198 0.13703 0.0
H429 H 0.4906 0.86651 0.06067 0.0
H430 H 0.54755 0.87372 0.99229 0.0
H431 H 0.5581 0.84904 0.06741 0.0
H432 H 0.50133 0.90382 0.05308 0.0
H433 H 0.51875 0.86651 0.82075 0.0
H434 H 0.51783 0.85473 0.89963 0.0
H435 H 0.53827 0.8681 0.87646 0.0
C436 C 0.51136 0.84874 0.10557 0.0
C437 C 0.53041 0.84348 0.10794 0.0
C438 C 0.50535 0.86275 0.06201 0.0
C439 C 0.51825 0.87167 0.02001 0.0
C440 C 0.5373 0.86668 0.02313 0.0
H441 H 0.52108 0.96954 0.77728 0.0
H442 H 0.52669 0.94294 0.85137 0.0
C443 C 0.54331 0.85265 0.0664 0.0
C444 C 0.51193 0.88655 0.97402 0.0
H445 H 0.51228 0.89943 0.81161 0.0
C446 C 0.5035 0.90277 0.00022 0.0
C447 C 0.51469 0.88508 0.90501 0.0
C448 C 0.52271 0.86759 0.87365 0.0
C449 C 0.49842 0.91786 0.95934 0.0
C450 C 0.50184 0.91661 0.89089 0.0
C451 C 0.50978 0.90026 0.86436 0.0
C452 C 0.49816 0.93259 0.84653 0.0
C453 C 0.48992 0.9353 0.98929 0.0
C454 C 0.48026 0.9354 0.8194 0.0
C455 C 0.47701 0.95057 0.77696 0.0
C456 C 0.49163 0.96309 0.76152 0.0
C457 C 0.50954 0.96015 0.78872 0.0
C458 C 0.51278 0.94498 0.83085 0.0
H459 H 0.48816 0.93408 0.04361 0.0
H460 H 0.49901 0.94761 0.97843 0.0
H461 H 0.47599 0.93804 0.96665 0.0
H462 H 0.46886 0.92587 0.83107 0.0
H463 H 0.46308 0.95257 0.75659 0.0
H464 H 0.64308 0.5422 0.1749 0.0
H465 H 0.61606 0.53903 0.101 0.0
H466 H 0.63778 0.48594 0.03153 0.0
H467 H 0.66418 0.48857 0.10783 0.0
H468 H 0.61335 0.53784 0.97444 0.0
H469 H 0.58542 0.47074 0.06978 0.0
H470 H 0.60368 0.48355 0.11192 0.0
H471 H 0.60938 0.46798 0.04456 0.0
C472 C 0.64196 0.52979 0.14421 0.0
C473 C 0.65558 0.51554 0.14747 0.0
C474 C 0.62654 0.52799 0.10201 0.0
C475 C 0.62463 0.51203 0.06175 0.0
C476 C 0.63854 0.49804 0.0638 0.0
H477 H 0.56063 0.50599 0.70069 0.0
H478 H 0.58413 0.51128 0.78656 0.0
C479 C 0.65372 0.49963 0.10701 0.0
C480 C 0.60851 0.51033 0.01573 0.0
H481 H 0.57493 0.47982 0.96165 0.0
C482 C 0.60479 0.52524 0.97222 0.0
C483 C 0.59703 0.49409 0.01371 0.0
C484 C 0.59895 0.47831 0.06307 0.0
C485 C 0.59033 0.52411 0.92537 0.0
C486 C 0.57984 0.50728 0.91996 0.0
C487 C 0.58316 0.49262 0.96492 0.0
C488 C 0.56552 0.50439 0.86776 0.0
C489 C 0.58633 0.54111 0.88304 0.0
C490 C 0.54747 0.49794 0.88439 0.0
C491 C 0.53426 0.49428 0.83519 0.0
C492 C 0.53871 0.49736 0.76857 0.0
C493 C 0.55675 0.50375 0.75181 0.0
C494 C 0.57012 0.507 0.80093 0.0
H495 H 0.59058 0.55429 0.90836 0.0
H496 H 0.59458 0.54011 0.83669 0.0
H497 H 0.57119 0.54212 0.8703 0.0
H498 H 0.54364 0.49559 0.9355 0.0
H499 H 0.52063 0.48887 0.84931 0.0
H500 H 0.92918 0.66545 0.0761 0.0
H501 H 0.9397 0.6412 0.99888 0.0
H502 H 0.99582 0.64486 0.07783 0.0
H503 H 0.98548 0.66918 0.15523 0.0
H504 H 0.9932 0.64601 0.93605 0.0
H505 H 0.95403 0.58607 0.04598 0.0
H506 H 0.94022 0.60669 0.02931 0.0
H507 H 0.95846 0.60763 0.0904 0.0
C508 C 0.94376 0.66107 0.07724 0.0
C509 C 0.9565 0.6692 0.12192 0.0
C510 C 0.9497 0.64715 0.0333 0.0
C511 C 0.96846 0.64113 0.03332 0.0
C512 C 0.98126 0.64929 0.07742 0.0
H513 H 0.01596 0.54401 0.83507 0.0
H514 H 0.0065 0.56795 0.91544 0.0
C515 C 0.97531 0.66315 0.1216 0.0
C516 C 0.97484 0.62662 0.98614 0.0
H517 H 0.96893 0.58064 0.94295 0.0
C518 C 0.98796 0.6317 0.93756 0.0
C519 C 0.96808 0.60796 0.98887 0.0
C520 C 0.95453 0.60164 0.04173 0.0
C521 C 0.99425 0.61862 0.89068 0.0
C522 C 0.98709 0.60009 0.8923 0.0
C523 C 0.97425 0.59492 0.94164 0.0
C524 C 0.99288 0.58579 0.84345 0.0
C525 C 0.00865 0.62464 0.84023 0.0
C526 C 0.9882 0.5879 0.77659 0.0
C527 C 0.99348 0.57421 0.73073 0.0
C528 C 0.00343 0.5582 0.75122 0.0
C529 C 0.00816 0.55617 0.81813 0.0
C530 C 0.0028 0.5698 0.86398 0.0
H531 H 0.01577 0.63791 0.85466 0.0
H532 H 0.01945 0.61354 0.83319 0.0
H533 H 0.00157 0.62698 0.79214 0.0
H534 H 0.98031 0.60003 0.76005 0.0
H535 H 0.98964 0.57608 0.67941 0.0
H536 H 0.96671 0.25863 0.24348 0.0
H537 H 0.97338 0.22796 0.29334 0.0
H538 H 0.99367 0.20758 0.106 0.0
H539 H 0.98646 0.23799 0.05546 0.0
H540 H 0.95879 0.19199 0.25179 0.0
H541 H 0.03675 0.19568 0.24112 0.0
H542 H 0.02197 0.21626 0.2345 0.0
H543 H 0.02467 0.20076 0.16532 0.0
C544 C 0.97266 0.24762 0.213 0.0
C545 C 0.97666 0.25091 0.14604 0.0
C546 C 0.97648 0.23015 0.24155 0.0
C547 C 0.98438 0.21566 0.20366 0.0
C548 C 0.98805 0.21876 0.13648 0.0
H549 H 0.98733 0.09647 0.29013 0.0
H550 H 0.98292 0.12754 0.24106 0.0
C551 C 0.98414 0.23622 0.10783 0.0
C552 C 0.98816 0.1971 0.23398 0.0
H553 H 0.02342 0.16655 0.27359 0.0
C554 C 0.97291 0.18642 0.25671 0.0
C555 C 0.00662 0.19003 0.24103 0.0
C556 C 0.02351 0.2013 0.21981 0.0
C557 C 0.9756 0.16864 0.28527 0.0
C558 C 0.99402 0.16131 0.29049 0.0
C559 C 0.00931 0.17216 0.26895 0.0
C560 C 0.99764 0.14242 0.31844 0.0
C561 C 0.95873 0.15795 0.31036 0.0
C562 C 0.00792 0.14044 0.3771 0.0
C563 C 0.01062 0.12266 0.40506 0.0
C564 C 0.00322 0.10653 0.37447 0.0
C565 C 0.99339 0.10856 0.31464 0.0
C566 C 0.99067 0.12633 0.28688 0.0
H567 H 0.94635 0.16726 0.31723 0.0
H568 H 0.9549 0.14692 0.27404 0.0
H569 H 0.96192 0.15093 0.35803 0.0
H570 H 0.01353 0.1527 0.40192 0.0
H571 H 0.01843 0.12155 0.45075 0.0
H572 H 0.27004 0.9534 0.07276 0.0
H573 H 0.30246 0.95786 0.11148 0.0
H574 H 0.28283 0.99738 0.25747 0.0
H575 H 0.25054 0.99293 0.21916 0.0
H576 H 0.31476 0.0097 0.18735 0.0
H577 H 0.32369 0.93732 0.28619 0.0
H578 H 0.31672 0.93897 0.20113 0.0
H579 H 0.30099 0.94683 0.26474 0.0
C580 C 0.2727 0.96297 0.11327 0.0
C581 C 0.25787 0.97303 0.14246 0.0
C582 C 0.29118 0.96551 0.1353 0.0
C583 C 0.29502 0.97788 0.18756 0.0
C584 C 0.28018 0.98785 0.21682 0.0
H585 H 0.3858 0.98626 0.46136 0.0
H586 H 0.3566 0.9813 0.4007 0.0
C587 C 0.26177 0.98536 0.19475 0.0
C588 C 0.31439 0.98038 0.21294 0.0
H589 H 0.34948 0.95785 0.29616 0.0
C590 C 0.32247 0.99835 0.21049 0.0
C591 C 0.32427 0.96555 0.24381 0.0
C592 C 0.31599 0.94609 0.24978 0.0
C593 C 0.34005 0.00202 0.2392 0.0
C594 C 0.34987 0.98722 0.2707 0.0
C595 C 0.34194 0.96915 0.27188 0.0
C596 C 0.36776 0.9904 0.3066 0.0
C597 C 0.34755 0.02186 0.23799 0.0
C598 C 0.38381 0.99705 0.27377 0.0
C599 C 0.4005 0.00017 0.30859 0.0
C600 C 0.40153 0.99651 0.37684 0.0
C601 C 0.38546 0.98957 0.4092 0.0
C602 C 0.36879 0.98656 0.37445 0.0
H603 H 0.3365 0.03223 0.22464 0.0
H604 H 0.3535 0.02578 0.28672 0.0
H605 H 0.35892 0.02289 0.20071 0.0
H606 H 0.38346 -0.00022 0.2212 0.0
H607 H 0.41253 0.00565 0.28209 0.0
H608 H 0.48949 0.24925 0.183 0.0
H609 H 0.48802 0.28105 0.22827 0.0
H610 H 0.54064 0.29449 0.13377 0.0
H611 H 0.5419 0.26275 0.08654 0.0
H612 H 0.53861 0.30366 0.27047 0.0
H613 H 0.47738 0.33149 0.13154 0.0
H614 H 0.47388 0.30874 0.16816 0.0
H615 H 0.49098 0.31157 0.1037 0.0
C616 C 0.50041 0.25916 0.16993 0.0
C617 C 0.51548 0.25371 0.12938 0.0
C618 C 0.49964 0.27728 0.19632 0.0
C619 C 0.51402 0.29023 0.18324 0.0
C620 C 0.52929 0.28475 0.14379 0.0
H621 H 0.50992 0.40905 0.28609 0.0
H622 H 0.51227 0.37904 0.22811 0.0
C623 C 0.53001 0.26663 0.11703 0.0
C624 C 0.5136 0.30912 0.21396 0.0
H625 H 0.48779 0.34948 0.2234 0.0
C626 C 0.52758 0.31374 0.25996 0.0
C627 C 0.49934 0.32231 0.19938 0.0
C628 C 0.48461 0.31843 0.14759 0.0
C629 C 0.52739 0.33105 0.29323 0.0
C630 C 0.51262 0.34391 0.281 0.0
C631 C 0.49895 0.3395 0.23347 0.0
C632 C 0.51119 0.36208 0.31667 0.0
C633 C 0.54314 0.33547 0.34057 0.0
C634 C 0.50956 0.36252 0.38573 0.0
C635 C 0.50844 0.37969 0.41917 0.0
C636 C 0.50876 0.39676 0.38413 0.0
C637 C 0.51002 0.39621 0.31479 0.0
C638 C 0.5112 0.37905 0.28146 0.0
H639 H 0.5558 0.32679 0.33037 0.0
H640 H 0.54714 0.35054 0.33794 0.0
H641 H 0.53846 0.33236 0.39167 0.0
H642 H 0.50913 0.34958 0.41383 0.0
H643 H 0.50757 0.37957 0.47253 0.0
H644 H 0.25444 0.47747 0.16914 0.0
H645 H 0.22312 0.47459 0.21845 0.0
H646 H 0.20626 0.52615 0.1236 0.0
H647 H 0.23747 0.52892 0.07314 0.0
H648 H 0.20611 0.50279 0.30291 0.0
H649 H 0.16316 0.48859 0.07894 0.0
H650 H 0.18778 0.4826 0.08426 0.0
H651 H 0.18079 0.50659 0.07226 0.0
C652 C 0.24392 0.48795 0.15757 0.0
C653 C 0.24825 0.50322 0.11629 0.0
C654 C 0.2261 0.48636 0.18615 0.0
C655 C 0.2123 0.49998 0.1737 0.0
C656 C 0.21661 0.5153 0.13272 0.0
H657 H 0.10117 0.5271 0.30748 0.0
H658 H 0.1314 0.52424 0.25143 0.0
C659 C 0.23446 0.51695 0.10445 0.0
C660 C 0.1938 0.49885 0.20695 0.0
H661 H 0.14673 0.49475 0.17791 0.0
C662 C 0.19312 0.50087 0.27578 0.0
C663 C 0.17694 0.49636 0.17124 0.0
C664 C 0.17705 0.49328 0.0976 0.0
C665 C 0.17592 0.50109 0.30978 0.0
C666 C 0.159 0.49885 0.27399 0.0
C667 C 0.15972 0.49649 0.2052 0.0
C668 C 0.14036 0.49982 0.30664 0.0
C669 C 0.17598 0.50442 0.38335 0.0
C670 C 0.13522 0.48682 0.35563 0.0
C671 C 0.11787 0.48839 0.3878 0.0
C672 C 0.10529 0.50288 0.37106 0.0
C673 C 0.11038 0.51561 0.32097 0.0
C674 C 0.1277 0.51406 0.28904 0.0
H675 H 0.18963 0.51017 0.40069 0.0
H676 H 0.16463 0.51432 0.39776 0.0
H677 H 0.1735 0.4909 0.4092 0.0
H678 H 0.14463 0.47549 0.36905 0.0
H679 H 0.11427 0.47821 0.42551 0.0
H680 H 0.97846 0.77879 0.29303 0.0
H681 H 0.98729 0.80993 0.25223 0.0
H682 H 0.95862 0.79837 0.06898 0.0
H683 H 0.95128 0.76659 0.10793 0.0
H684 H 0.99153 0.8142 0.04544 0.0
H685 H 0.95536 0.85556 0.23973 0.0
H686 H 0.97253 0.83959 0.27202 0.0
H687 H 0.95202 0.83056 0.23081 0.0
C688 C 0.97466 0.78271 0.24329 0.0
C689 C 0.96493 0.77005 0.20262 0.0
C690 C 0.97922 0.8007 0.22063 0.0
C691 C 0.97347 0.80663 0.15766 0.0
C692 C 0.96327 0.79412 0.11765 0.0
H693 H 0.96778 0.91926 0.00177 0.0
H694 H 0.96211 0.8883 0.05021 0.0
C695 C 0.959 0.77602 0.14 0.0
C696 C 0.97841 0.82563 0.13247 0.0
H697 H 0.97468 0.87259 0.16527 0.0
C698 C 0.9878 0.82696 0.07162 0.0
C699 C 0.97349 0.84231 0.16651 0.0
C700 C 0.96264 0.84199 0.23055 0.0
C701 C 0.99226 0.84445 0.04357 0.0
C702 C 0.98761 0.8611 0.07808 0.0
C703 C 0.97835 0.8598 0.13914 0.0
C704 C 0.99138 0.88003 0.05018 0.0
C705 C 0.00138 0.84491 0.9763 0.0
C706 C 0.00975 0.88577 0.0348 0.0
C707 C 0.01302 0.90346 0.00684 0.0
C708 C 0.998 0.91582 0.99463 0.0
C709 C 0.97967 0.91014 0.01125 0.0
C710 C 0.9764 0.89244 0.03875 0.0
H711 H -0.00035 0.83137 0.94968 0.0
H712 H 0.99539 0.85634 0.94546 0.0
H713 H 0.01665 0.84755 0.98207 0.0
H714 H 0.02156 0.87659 0.04456 0.0
H715 H 0.02732 0.90755 0.99542 0.0
H716 H 0.7265 0.9589 0.28392 0.0
H717 H 0.69392 0.9646 0.25071 0.0
H718 H 0.71045 0.96167 0.04593 0.0
H719 H 0.74304 0.95576 0.07929 0.0
H720 H 0.67961 0.99324 0.18312 0.0
H721 H 0.66567 0.92732 0.04678 0.0
H722 H 0.68606 0.93033 0.09857 0.0
H723 H 0.68592 0.93942 0.0156 0.0
C724 C 0.72314 0.95954 0.23183 0.0
C725 C 0.73725 0.95722 0.18404 0.0
C726 C 0.70453 0.96267 0.21292 0.0
C727 C 0.69967 0.96337 0.14582 0.0
C728 C 0.71376 0.96077 0.09798 0.0
H729 H 0.60346 0.01841 0.97322 0.0
H730 H 0.63413 0.00983 0.01822 0.0
C731 C 0.73237 0.95749 0.11698 0.0
C732 C 0.68006 0.96768 0.12605 0.0
H733 H 0.64377 0.9524 0.02988 0.0
C734 C 0.67172 0.98423 0.15 0.0
C735 C 0.66962 0.95576 0.08387 0.0
C736 C 0.6772 0.93712 0.0603 0.0
C737 C 0.65347 0.98947 0.13133 0.0
C738 C 0.64346 0.97809 0.08613 0.0
C739 C 0.65156 0.96125 0.06381 0.0
C740 C 0.62471 0.98352 0.06048 0.0
C741 C 0.64504 0.00703 0.1608 0.0
C742 C 0.6093 0.97137 0.06783 0.0
C743 C 0.59176 0.97619 0.04172 0.0
C744 C 0.58931 0.99324 0.00766 0.0
C745 C 0.6048 0.00535 0.00025 0.0
C746 C 0.62233 0.00048 0.02607 0.0
H747 H 0.65186 0.01075 0.20835 0.0
H748 H 0.64716 0.01894 0.12624 0.0
H749 H 0.62972 0.00534 0.16939 0.0
H750 H 0.61083 0.95817 0.09395 0.0
H751 H 0.58007 0.96664 0.0487 0.0
H752 H 0.49557 0.74477 0.16874 0.0
H753 H 0.48957 0.71298 0.12731 0.0
H754 H 0.54887 0.70079 0.13586 0.0
H755 H 0.55493 0.73257 0.17826 0.0
H756 H 0.50641 0.69665 0.00872 0.0
H757 H 0.52198 0.65654 0.23806 0.0
H758 H 0.51626 0.68128 0.23859 0.0
H759 H 0.53922 0.67369 0.21345 0.0
C760 C 0.50728 0.73519 0.16293 0.0
C761 C 0.52566 0.74094 0.17804 0.0
C762 C 0.50385 0.71712 0.13881 0.0
C763 C 0.51875 0.70448 0.12959 0.0
C764 C 0.53717 0.71026 0.14374 0.0
H765 H 0.52501 0.5901 0.97959 0.0
H766 H 0.53198 0.62133 0.02445 0.0
C767 C 0.54062 0.72841 0.16747 0.0
C768 C 0.51503 0.68551 0.1027 0.0
H769 H 0.51606 0.6388 0.14135 0.0
C770 C 0.50848 0.68399 0.03766 0.0
C771 C 0.51775 0.66909 0.14079 0.0
C772 C 0.52405 0.6701 0.2118 0.0
C773 C 0.50478 0.66639 0.00924 0.0
C774 C 0.50746 0.64994 0.04728 0.0
C775 C 0.51408 0.65146 0.11233 0.0
C776 C 0.50321 0.63104 0.02051 0.0
C777 C 0.49829 0.6655 0.93841 0.0
C778 C 0.4847 0.62615 0.00405 0.0
C779 C 0.48068 0.60839 0.97831 0.0
C780 C 0.49511 0.59514 0.96865 0.0
C781 C 0.51363 0.60006 0.98564 0.0
C782 C 0.51762 0.61783 0.01167 0.0
H783 H 0.50116 0.67883 0.91163 0.0
H784 H 0.50528 0.65378 0.9118 0.0
H785 H 0.48291 0.66296 0.93729 0.0
H786 H 0.47335 0.63609 0.01125 0.0
H787 H 0.4663 0.60509 0.96526 0.0
H788 H 0.76062 0.47296 0.19139 0.0
H789 H 0.79272 0.47025 0.14874 0.0
H790 H 0.79845 0.53058 0.15436 0.0
H791 H 0.7665 0.53332 0.19881 0.0
H792 H 0.80777 0.48539 0.03329 0.0
H793 H 0.84518 0.51162 0.25484 0.0
H794 H 0.82096 0.50409 0.25617 0.0
H795 H 0.82694 0.52709 0.22615 0.0
C796 C 0.76886 0.48561 0.18475 0.0
C797 C 0.76125 0.50332 0.19994 0.0
C798 C 0.78711 0.48406 0.15978 0.0
C799 C 0.79809 0.50018 0.14955 0.0
C800 C 0.79036 0.51793 0.16321 0.0
H801 H 0.89654 0.51356 0.90445 0.0
H802 H 0.86493 0.51265 0.95139 0.0
C803 C 0.77207 0.51949 0.188 0.0
C804 C 0.81743 0.49848 0.12285 0.0
H805 H 0.86329 0.5088 0.15633 0.0
C806 C 0.81993 0.49042 0.06025 0.0
C807 C 0.8333 0.50469 0.15868 0.0
C808 C 0.83158 0.51221 0.22799 0.0
C809 C 0.83786 0.48892 0.03166 0.0
C810 C 0.85363 0.49604 0.06607 0.0
C811 C 0.85117 0.50357 0.12956 0.0
C812 C 0.87277 0.49611 0.03674 0.0
C813 C 0.83971 0.4795 0.96525 0.0
C814 C 0.88782 0.48752 0.06987 0.0
C815 C 0.90597 0.48815 0.04336 0.0
C816 C 0.9094 0.4974 0.98319 0.0
C817 C 0.89429 0.50599 0.95018 0.0
C818 C 0.8762 0.50546 0.97691 0.0
H819 H 0.82775 0.46984 0.95554 0.0
H820 H 0.83971 0.49038 0.92602 0.0
H821 H 0.853 0.47139 0.96164 0.0
H822 H 0.88551 0.4803 0.11628 0.0
H823 H 0.91729 0.48132 0.06978 0.0
H824 H 0.02746 0.21977 0.87261 0.0
H825 H 0.0291 0.18922 0.8178 0.0
H826 H 0.04012 0.16242 0.00471 0.0
H827 H 0.03899 0.19295 0.0598 0.0
H828 H 0.0607 0.14697 0.89854 0.0
H829 H 0.98458 0.15327 0.84103 0.0
H830 H 0.99883 0.17215 0.81012 0.0
H831 H 0.99636 0.16886 0.89768 0.0
C832 C 0.03055 0.20743 0.90197 0.0
C833 C 0.03273 0.20874 0.9708 0.0
C834 C 0.03139 0.18998 0.87058 0.0
C835 C 0.03424 0.17356 0.90753 0.0
C836 C 0.03773 0.17495 0.97547 0.0
H837 H 0.02341 0.05412 0.84952 0.0
H838 H 0.03002 0.08568 0.89067 0.0
C839 C 0.03704 0.19241 0.00688 0.0
C840 C 0.03219 0.15488 0.87639 0.0
H841 H 0.00021 0.12644 0.80042 0.0
C842 C 0.04751 0.14246 0.87692 0.0
C843 C 0.0149 0.14905 0.84863 0.0
C844 C 0.99766 0.16143 0.8497 0.0
C845 C 0.04602 0.12436 0.84981 0.0
C846 C 0.02871 0.11855 0.82236 0.0
C847 C 0.01348 0.13103 0.82125 0.0
C848 C 0.0258 0.09936 0.79647 0.0
C849 C 0.06299 0.11165 0.85028 0.0
C850 C 0.02092 0.09667 0.73011 0.0
C851 C 0.01704 0.07866 0.7064 0.0
C852 C 0.01778 0.06302 0.74885 0.0
C853 C 0.02273 0.06581 0.81536 0.0
C854 C 0.02666 0.08382 0.83894 0.0
H855 H 0.07621 0.11968 0.85755 0.0
H856 H 0.06164 0.10144 0.89143 0.0
H857 H 0.06402 0.10359 0.80346 0.0
H858 H 0.02005 0.10854 0.69673 0.0
H859 H 0.01336 0.07705 0.65492 0.0
H860 H 0.29007 0.00281 0.93509 0.0
H861 H 0.32248 0.00676 0.89839 0.0
H862 H 0.33488 0.03902 0.07308 0.0
H863 H 0.30219 0.03539 0.11017 0.0
H864 H 0.34338 0.04647 0.89032 0.0
H865 H 0.37374 0.99112 0.05366 0.0
H866 H 0.3496 0.98971 0.02659 0.0
H867 H 0.35639 0.00737 0.08474 0.0
C868 C 0.29961 0.01085 0.96569 0.0
C869 C 0.29357 0.01878 0.0256 0.0
C870 C 0.31811 0.01308 0.94459 0.0
C871 C 0.33097 0.02311 0.98319 0.0
C872 C 0.32507 0.03121 0.0428 0.0
H873 H 0.45149 0.02474 0.8971 0.0
H874 H 0.42131 0.02835 0.95325 0.0
C875 C 0.30643 0.02915 0.06375 0.0
C876 C 0.35054 0.02486 0.96019 0.0
H877 H 0.39338 0.00364 0.971 0.0
C878 C 0.35444 0.03732 0.90843 0.0
C879 C 0.36483 0.01299 0.98455 0.0
C880 C 0.36111 0.99948 0.04047 0.0
C881 C 0.37225 0.03787 0.87883 0.0
C882 C 0.38628 0.02516 0.90032 0.0
C883 C 0.38256 0.01325 0.95416 0.0
C884 C 0.40458 0.02342 0.86582 0.0
C885 C 0.3758 0.05203 0.82478 0.0
C886 C 0.40522 0.01919 0.79814 0.0
C887 C 0.42244 0.01728 0.7657 0.0
C888 C 0.43938 0.01923 0.80062 0.0
C889 C 0.43871 0.02315 0.86866 0.0
C890 C 0.42147 0.02523 0.90091 0.0
H891 H 0.36638 0.06441 0.82972 0.0
H892 H 0.39059 0.05698 0.82512 0.0
H893 H 0.37289 0.04542 0.77625 0.0
H894 H 0.39237 0.01717 0.77044 0.0
H895 H 0.42245 0.01404 0.71346 0.0
H896 H 0.48152 0.28544 0.87325 0.0
H897 H 0.4793 0.31771 0.83306 0.0
H898 H 0.45045 0.33395 0.0114 0.0
H899 H 0.45264 0.3016 0.05236 0.0
H900 H 0.44706 0.34185 0.81438 0.0
H901 H 0.4976 0.36846 0.00211 0.0
H902 H 0.49471 0.34371 0.98528 0.0
H903 H 0.47743 0.35606 0.03307 0.0
C904 C 0.47454 0.29581 0.90379 0.0
C905 C 0.46739 0.29101 0.96625 0.0
C906 C 0.47326 0.31422 0.88064 0.0
C907 C 0.46492 0.32819 0.91964 0.0
C908 C 0.45713 0.32336 0.98098 0.0
H909 H 0.46678 0.44935 0.85955 0.0
H910 H 0.46053 0.41792 0.90255 0.0
C911 C 0.45832 0.30488 0.00412 0.0
C912 C 0.46519 0.34789 0.89669 0.0
H913 H 0.48569 0.3904 0.92597 0.0
C914 C 0.45539 0.35254 0.8389 0.0
C915 C 0.47606 0.36172 0.92904 0.0
C916 C 0.48719 0.35731 0.99056 0.0
C917 C 0.45626 0.37072 0.8122 0.0
C918 C 0.46761 0.38441 0.84339 0.0
C919 C 0.47705 0.37985 0.90208 0.0
C920 C 0.47035 0.40343 0.81523 0.0
C921 C 0.44492 0.37509 0.7512 0.0
C922 C 0.47801 0.40571 0.75184 0.0
C923 C 0.48152 0.42369 0.72685 0.0
C924 C 0.47768 0.43969 0.76527 0.0
C925 C 0.46996 0.43733 0.82869 0.0
C926 C 0.46635 0.41938 0.85339 0.0
H927 H 0.43284 0.36532 0.7458 0.0
H928 H 0.43951 0.38973 0.75227 0.0
H929 H 0.454 0.37347 0.707 0.0
H930 H 0.48166 0.39358 0.72219 0.0
H931 H 0.48758 0.42499 0.67801 0.0
H932 H 0.2085 0.50102 0.95093 0.0
H933 H 0.17671 0.50175 0.90695 0.0
H934 H 0.17385 0.44123 0.9184 0.0
H935 H 0.20559 0.44048 0.96554 0.0
H936 H 0.16359 0.48784 0.79647 0.0
H937 H 0.12555 0.45531 0.00679 0.0
H938 H 0.14991 0.46206 0.01205 0.0
H939 H 0.14338 0.44051 0.97178 0.0
C940 C 0.20112 0.48784 0.94417 0.0
C941 C 0.20951 0.47068 0.96149 0.0
C942 C 0.18293 0.48828 0.91907 0.0
C943 C 0.17282 0.47157 0.90989 0.0
C944 C 0.18122 0.45433 0.92649 0.0
H945 H 0.07069 0.47954 0.66798 0.0
H946 H 0.10186 0.47038 0.70737 0.0
C947 C 0.19938 0.45391 0.95292 0.0
C948 C 0.15369 0.47248 0.88127 0.0
H949 H 0.10761 0.46242 0.91174 0.0
C950 C 0.15134 0.48224 0.82159 0.0
C951 C 0.13774 0.46523 0.91433 0.0
C952 C 0.13919 0.45535 0.98006 0.0
C953 C 0.13347 0.48554 0.79511 0.0
C954 C 0.11751 0.4782 0.8279 0.0
C955 C 0.11988 0.46794 0.88654 0.0
C956 C 0.09817 0.48224 0.80498 0.0
C957 C 0.13188 0.49765 0.73412 0.0
C958 C 0.08544 0.49114 0.84769 0.0
C959 C 0.0675 0.49598 0.82584 0.0
C960 C 0.06204 0.49219 0.76059 0.0
C961 C 0.07463 0.48289 0.71826 0.0
C962 C 0.09246 0.47773 0.74058 0.0
H963 H 0.14476 0.50617 0.72588 0.0
H964 H 0.12991 0.48852 0.6903 0.0
H965 H 0.11969 0.50734 0.73759 0.0
H966 H 0.08953 0.49472 0.89764 0.0
H967 H 0.05811 0.50314 0.8596 0.0
H968 H 0.0045 0.7942 0.51018 0.0
H969 H 0.00551 0.82672 0.54875 0.0
H970 H 0.02567 0.84464 0.35808 0.0
H971 H 0.02449 0.81216 0.31861 0.0
H972 H 0.03454 0.85402 0.55389 0.0
H973 H 0.97671 0.87466 0.38404 0.0
H974 H 0.9825 0.85042 0.40068 0.0
H975 H 0.99678 0.86403 0.34528 0.0
C976 C 0.00939 0.80501 0.47664 0.0
C977 C 0.01424 0.80063 0.41114 0.0
C978 C 0.00996 0.82358 0.4988 0.0
C979 C 0.0153 0.83807 0.45582 0.0
C980 C 0.02117 0.83365 0.39156 0.0
H981 H 0.01323 0.95938 0.49852 0.0
H982 H 0.01663 0.9272 0.45856 0.0
C983 C 0.02062 0.81507 0.36931 0.0
C984 C 0.01385 0.85785 0.47763 0.0
H985 H 0.98993 0.89866 0.44969 0.0
C986 C 0.02482 0.86382 0.53114 0.0
C987 C 0.00111 0.87052 0.44776 0.0
C988 C 0.98847 0.86462 0.39161 0.0
C989 C 0.02351 0.88225 0.55538 0.0
C990 C 0.0106 0.89484 0.52605 0.0
C991 C -0.00023 0.88892 0.47209 0.0
C992 C 0.00813 0.91428 0.5505 0.0
C993 C 0.03614 0.88815 0.61146 0.0
C994 C 0.00183 0.91765 0.61507 0.0
C995 C -0.00015 0.93605 0.63821 0.0
C996 C 0.00401 0.95139 0.59689 0.0
C997 C 0.00987 0.94792 0.53167 0.0
C998 C 0.01186 0.92953 0.5087 0.0
H999 H 0.0484 0.87861 0.61671 0.0
H1000 H 0.04134 0.90272 0.60415 0.0
H1001 H 0.02807 0.88773 0.65832 0.0
H1002 H 0.99849 0.90604 0.64763 0.0
H1003 H 0.99526 0.93822 0.68861 0.0
H1004 H 0.68518 0.00903 0.30848 0.0
H1005 H 0.65301 0.01519 0.34577 0.0
H1006 H 0.6692 0.00211 0.54567 0.0
H1007 H 0.70133 0.99613 0.50919 0.0
H1008 H 0.62948 0.98926 0.40757 0.0
H1009 H 0.64048 0.05145 0.56726 0.0
H1010 H 0.65764 0.04379 0.50728 0.0
H1011 H 0.65611 0.03242 0.58646 0.0
C1012 C 0.68196 0.00777 0.36056 0.0
C1013 C 0.69582 0.00216 0.406 0.0
C1014 C 0.66357 0.01125 0.38169 0.0
C1015 C 0.65881 0.00938 0.44859 0.0
C1016 C 0.67268 0.00404 0.49406 0.0
H1017 H 0.5635 0.00305 0.70192 0.0
H1018 H 0.5942 0.00359 0.64807 0.0
C1019 C 0.69101 0.00051 0.47302 0.0
C1020 C 0.63911 0.01162 0.47066 0.0
H1021 H 0.61171 0.03447 0.58328 0.0
C1022 C 0.62549 0.99933 0.44523 0.0
C1023 C 0.63399 0.02479 0.51972 0.0
C1024 C 0.64778 0.03899 0.54633 0.0
C1025 C 0.60706 0.99923 0.47 0.0
C1026 C 0.60214 0.01194 0.52081 0.0
C1027 C 0.61559 0.02466 0.5446 0.0
C1028 C 0.58339 0.01162 0.55238 0.0
C1029 C 0.59325 0.98499 0.44374 0.0
C1030 C 0.56717 0.01607 0.51636 0.0
C1031 C 0.54955 0.01573 0.54694 0.0
C1032 C 0.5479 0.01102 0.61416 0.0
C1033 C 0.56423 0.00668 0.65006 0.0
C1034 C 0.58181 0.00702 0.61945 0.0
H1035 H 0.60028 0.97383 0.41435 0.0
H1036 H 0.58537 0.97826 0.48478 0.0
H1037 H 0.58294 0.99219 0.41136 0.0
H1038 H 0.56815 0.01996 0.46479 0.0
H1039 H 0.53727 0.0193 0.51799 0.0
H1040 H 0.50282 0.70854 0.51513 0.0
H1041 H 0.50425 0.67647 0.55844 0.0
H1042 H 0.48737 0.65478 0.36883 0.0
H1043 H 0.48591 0.68679 0.32489 0.0
H1044 H 0.47495 0.64786 0.56014 0.0
H1045 H 0.53772 0.62739 0.41301 0.0
H1046 H 0.53108 0.65162 0.42599 0.0
H1047 H 0.51856 0.63748 0.36729 0.0
C1048 C 0.4993 0.69696 0.48272 0.0
C1049 C 0.49431 0.70019 0.41654 0.0
C1050 C 0.50013 0.67867 0.50756 0.0
C1051 C 0.49618 0.66332 0.46651 0.0
C1052 C 0.49072 0.66648 0.40094 0.0
H1053 H 0.49739 0.54295 0.5111 0.0
H1054 H 0.49731 0.57534 0.47163 0.0
C1055 C 0.48977 0.68477 0.37611 0.0
C1056 C 0.4979 0.64398 0.49232 0.0
H1057 H 0.52315 0.60348 0.47607 0.0
C1058 C 0.48551 0.63814 0.54209 0.0
C1059 C 0.5117 0.63143 0.46835 0.0
C1060 C 0.52565 0.63726 0.41606 0.0
C1061 C 0.48627 0.61983 0.56765 0.0
C1062 C 0.50015 0.60725 0.54393 0.0
C1063 C 0.5126 0.61318 0.49434 0.0
C1064 C 0.5015 0.58766 0.56814 0.0
C1065 C 0.47183 0.61396 0.61825 0.0
C1066 C 0.50446 0.58382 0.63529 0.0
C1067 C 0.50439 0.56528 0.65821 0.0
C1068 C 0.50159 0.55028 0.61412 0.0
C1069 C 0.49955 0.55416 0.54644 0.0
C1070 C 0.49948 0.57268 0.52373 0.0
H1071 H 0.4594 0.62342 0.61798 0.0
H1072 H 0.46698 0.59935 0.60935 0.0
H1073 H 0.47821 0.61459 0.66816 0.0
H1074 H 0.50655 0.59516 0.67014 0.0
H1075 H 0.50618 0.56277 0.71055 0.0
H1076 H 0.80556 0.52282 0.37911 0.0
H1077 H 0.83729 0.529 0.41898 0.0
H1078 H 0.84632 0.46949 0.44509 0.0
H1079 H 0.81476 0.46312 0.403 0.0
H1080 H 0.85261 0.52185 0.53577 0.0
H1081 H 0.89244 0.48416 0.34193 0.0
H1082 H 0.86768 0.48919 0.33454 0.0
H1083 H 0.87557 0.46928 0.38192 0.0
C1084 C 0.8143 0.51102 0.39316 0.0
C1085 C 0.80769 0.49246 0.38766 0.0
C1086 C 0.83244 0.51459 0.41584 0.0
C1087 C 0.84427 0.49969 0.4339 0.0
C1088 C 0.8376 0.48116 0.42969 0.0
H1089 H 0.93992 0.50501 0.69226 0.0
H1090 H 0.90877 0.50304 0.64294 0.0
C1091 C 0.8195 0.47755 0.40623 0.0
C1092 C 0.86332 0.50364 0.45955 0.0
H1093 H 0.90958 0.49258 0.43913 0.0
C1094 C 0.8651 0.51559 0.5143 0.0
C1095 C 0.87962 0.49579 0.43059 0.0
C1096 C 0.87878 0.48407 0.36857 0.0
C1097 C 0.88269 0.51947 0.54218 0.0
C1098 C 0.89886 0.51065 0.51584 0.0
C1099 C 0.89715 0.49915 0.45982 0.0
C1100 C 0.91763 0.51273 0.54647 0.0
C1101 C 0.88374 0.53314 0.59901 0.0
C1102 C 0.93309 0.5184 0.50826 0.0
C1103 C 0.95103 0.51918 0.53604 0.0
C1104 C 0.95378 0.51442 0.60266 0.0
C1105 C 0.93823 0.50904 0.64107 0.0
C1106 C 0.92037 0.508 0.61301 0.0
H1107 H 0.8718 0.5432 0.59805 0.0
H1108 H 0.88295 0.52526 0.64619 0.0
H1109 H 0.89707 0.54125 0.59818 0.0
H1110 H 0.93131 0.52204 0.45672 0.0
H1111 H 0.96274 0.52337 0.50518 0.0
loop_
_geom_bond_atom_site_label_1
_geom_bond_atom_site_label_2
_geom_bond_distance
_geom_bond_site_symmetry_2
_ccdc_geom_bond_type
O0 Cd1 2.300 . S
O0 C7 1.275 . S
Cd1 O0 2.300 . S
Cd1 O9 2.381 . S
Cd1 O10 2.378 . S
O2 Cd3 2.385 . S
O2 C7 1.255 . S
Cd3 O2 2.385 . S
Cd3 O4 2.317 . S
O4 Cd3 2.317 . S
O4 C5 1.232 . S
C5 O4 1.232 . S
C5 O6 1.218 . S
O6 C5 1.218 . S
C7 O0 1.275 . S
C7 O2 1.255 . S
C8 O9 1.258 . S
C8 O10 1.256 . S
O9 Cd1 2.381 . S
O9 C8 1.258 . S
O10 Cd1 2.378 . S
O10 C8 1.256 . S
O11 Cd12 2.300 1_655 S
O11 C18 1.275 1_655 S
Cd12 O11 2.300 1_455 S
Cd12 O20 2.381 1_455 S
Cd12 O21 2.378 . S
O13 Cd14 2.385 . S
O13 C18 1.255 . S
Cd14 O13 2.385 . S
Cd14 O15 2.317 . S
O15 Cd14 2.317 . S
O15 C16 1.232 . S
C16 O15 1.232 . S
C16 O17 1.218 . S
O17 C16 1.218 . S
C18 O11 1.275 1_455 S
C18 O13 1.255 . S
C19 O20 1.258 1_455 S
C19 O21 1.256 . S
O20 Cd12 2.381 1_655 S
O20 C19 1.258 1_655 S
O21 Cd12 2.378 . S
O21 C19 1.256 . S
O22 Cd23 2.300 1_565 S
O22 C29 1.275 1_565 S
Cd23 O22 2.300 1_545 S
Cd23 O31 2.381 1_545 S
Cd23 O32 2.378 . S
O24 Cd25 2.385 . S
O24 C29 1.255 . S
Cd25 O24 2.385 . S
Cd25 O26 2.317 . S
O26 Cd25 2.317 . S
O26 C27 1.232 . S
C27 O26 1.232 . S
C27 O28 1.218 . S
O28 C27 1.218 . S
C29 O22 1.275 1_545 S
C29 O24 1.255 . S
C30 O31 1.258 1_545 S
C30 O32 1.256 . S
O31 Cd23 2.381 1_565 S
O31 C30 1.258 1_565 S
O32 Cd23 2.378 . S
O32 C30 1.256 . S
O33 Cd34 2.300 . S
O33 C40 1.275 . S
Cd34 O33 2.300 . S
Cd34 O42 2.381 . S
Cd34 O43 2.378 . S
O35 Cd36 2.385 . S
O35 C40 1.255 . S
Cd36 O35 2.385 . S
Cd36 O37 2.317 . S
O37 Cd36 2.317 . S
O37 C38 1.232 . S
C38 O37 1.232 . S
C38 O39 1.218 . S
O39 C38 1.218 . S
C40 O33 1.275 . S
C40 O35 1.255 . S
C41 O42 1.258 . S
C41 O43 1.256 . S
O42 Cd34 2.381 . S
O42 C41 1.258 . S
O43 Cd34 2.378 . S
O43 C41 1.256 . S
O44 Cd45 2.300 . S
O44 C51 1.275 . S
Cd45 O44 2.300 . S
Cd45 O53 2.381 . S
Cd45 O54 2.378 . S
O46 Cd47 2.385 . S
O46 C51 1.255 . S
Cd47 O46 2.385 . S
Cd47 O48 2.317 1_554 S
O48 Cd47 2.317 1_556 S
O48 C49 1.232 . S
C49 O48 1.232 . S
C49 O50 1.218 . S
O50 C49 1.218 . S
C51 O44 1.275 . S
C51 O46 1.255 . S
C52 O53 1.258 . S
C52 O54 1.256 . S
O53 Cd45 2.381 . S
O53 C52 1.258 . S
O54 Cd45 2.378 . S
O54 C52 1.256 . S
O55 Cd56 2.300 1_655 S
O55 C62 1.275 1_655 S
Cd56 O55 2.300 1_455 S
Cd56 O64 2.381 1_455 S
Cd56 O65 2.378 . S
O57 Cd58 2.385 . S
O57 C62 1.255 . S
Cd58 O57 2.385 . S
Cd58 O59 2.317 1_554 S
O59 Cd58 2.317 1_556 S
O59 C60 1.232 . S
C60 O59 1.232 . S
C60 O61 1.218 . S
O61 C60 1.218 . S
C62 O55 1.275 1_455 S
C62 O57 1.255 . S
C63 O64 1.258 1_455 S
C63 O65 1.256 . S
O64 Cd56 2.381 1_655 S
O64 C63 1.258 1_655 S
O65 Cd56 2.378 . S
O65 C63 1.256 . S
O66 Cd67 2.300 1_565 S
O66 C73 1.275 1_565 S
Cd67 O66 2.300 1_545 S
Cd67 O75 2.381 1_545 S
Cd67 O76 2.378 . S
O68 Cd69 2.385 . S
O68 C73 1.255 . S
Cd69 O68 2.385 . S
Cd69 O70 2.317 1_554 S
O70 Cd69 2.317 1_556 S
O70 C71 1.232 . S
C71 O70 1.232 . S
C71 O72 1.218 . S
O72 C71 1.218 . S
C73 O66 1.275 1_545 S
C73 O68 1.255 . S
C74 O75 1.258 1_545 S
C74 O76 1.256 . S
O75 Cd67 2.381 1_565 S
O75 C74 1.258 1_565 S
O76 Cd67 2.378 . S
O76 C74 1.256 . S
O77 Cd78 2.300 . S
O77 C84 1.275 . S
Cd78 O77 2.300 . S
Cd78 O86 2.381 . S
Cd78 O87 2.378 . S
O79 Cd80 2.385 . S
O79 C84 1.255 . S
Cd80 O79 2.385 . S
Cd80 O81 2.317 1_554 S
O81 Cd80 2.317 1_556 S
O81 C82 1.232 . S
C82 O81 1.232 . S
C82 O83 1.218 . S
O83 C82 1.218 . S
C84 O77 1.275 . S
C84 O79 1.255 . S
C85 O86 1.258 . S
C85 O87 1.256 . S
O86 Cd78 2.381 . S
O86 C85 1.258 . S
O87 Cd78 2.378 . S
O87 C85 1.256 . S
C88 Eu89 2.835 . S
C88 C90 1.500 . S
C88 O108 1.252 . S
C88 O109 1.260 . S
Eu89 C88 2.835 . S
Eu89 O108 2.470 . S
Eu89 O109 2.480 . S
Eu89 O110 2.430 . S
Eu89 O111 2.670 1_545 S
Eu89 O112 2.394 . S
Eu89 O117 2.355 1_655 S
Eu89 O119 2.374 1_545 S
C90 C88 1.500 . S
C90 C91 1.377 . S
C90 C95 1.407 . S
C91 C90 1.377 . S
C91 C92 1.395 . S
C91 H120 0.931 . S
C92 C91 1.395 . S
C92 C93 1.383 . S
C92 H121 0.931 . S
C93 C92 1.383 . S
C93 C94 1.394 . S
C94 C93 1.394 . S
C94 C95 1.380 . S
C94 H122 0.931 1_655 S
C95 C90 1.407 . S
C95 C94 1.380 . S
C95 H123 0.899 1_655 S
C96 O110 1.280 . S
C96 O111 1.256 1_545 S
C97 O112 1.251 1_455 S
C97 O113 1.251 . S
C98 Eu99 2.835 . S
C98 C100 1.500 . S
C98 O114 1.264 . S
C98 O115 1.260 . S
Eu99 C98 2.835 . S
Eu99 O111 2.355 1_455 S
Eu99 O113 2.374 1_565 S
Eu99 O114 2.476 . S
Eu99 O115 2.480 . S
Eu99 O116 2.430 . S
Eu99 O117 2.670 1_565 S
Eu99 O118 2.394 . S
C100 C98 1.500 . S
C100 C101 1.377 . S
C100 C105 1.419 . S
C101 C100 1.377 . S
C101 C102 1.395 . S
C101 H124 0.931 . S
C102 C101 1.395 . S
C102 C103 1.383 . S
C102 H125 0.931 . S
C103 C102 1.383 . S
C103 C104 1.394 . S
C104 C103 1.394 . S
C104 C105 1.382 . S
C104 H126 0.931 1_455 S
C105 C100 1.419 . S
C105 C104 1.382 . S
C105 H127 0.887 1_455 S
C106 O116 1.272 . S
C106 O117 1.261 1_565 S
C107 O118 1.251 1_655 S
C107 O119 1.251 . S
O108 C88 1.252 . S
O108 Eu89 2.470 . S
O109 C88 1.260 . S
O109 Eu89 2.480 . S
O110 Eu89 2.430 . S
O110 C96 1.280 . S
O111 Eu89 2.670 1_565 S
O111 C96 1.256 1_565 S
O111 Eu99 2.355 1_655 S
O112 Eu89 2.394 . S
O112 C97 1.251 1_655 S
O113 C97 1.251 . S
O113 Eu99 2.374 1_545 S
O114 C98 1.264 . S
O114 Eu99 2.476 . S
O115 C98 1.260 . S
O115 Eu99 2.480 . S
O116 Eu99 2.430 . S
O116 C106 1.272 . S
O117 Eu89 2.355 1_455 S
O117 Eu99 2.670 1_545 S
O117 C106 1.261 1_545 S
O118 Eu99 2.394 . S
O118 C107 1.251 1_455 S
O119 Eu89 2.374 1_565 S
O119 C107 1.251 . S
H120 C91 0.931 . S
H121 C92 0.931 . S
H122 C94 0.931 1_455 S
H123 C95 0.899 1_455 S
H124 C101 0.931 . S
H125 C102 0.931 . S
H126 C104 0.931 1_655 S
H127 C105 0.887 1_655 S
C128 Eu129 2.835 . S
C128 C130 1.500 . S
C128 O148 1.263 1_565 S
C128 O149 1.260 . S
Eu129 C128 2.835 . S
Eu129 O148 2.475 1_565 S
Eu129 O149 2.480 . S
Eu129 O150 2.430 . S
Eu129 O151 2.670 . S
Eu129 O152 2.394 . S
Eu129 O157 2.355 1_565 S
Eu129 O159 2.374 . S
C130 C128 1.500 . S
C130 C131 1.377 . S
C130 C135 1.405 . S
C131 C130 1.377 . S
C131 C132 1.395 . S
C131 H160 0.931 . S
C132 C131 1.395 . S
C132 C133 1.383 . S
C132 H161 0.931 . S
C133 C132 1.383 . S
C133 C134 1.394 . S
C134 C133 1.394 . S
C134 C135 1.380 . S
C134 H162 0.931 1_565 S
C135 C130 1.405 . S
C135 C134 1.380 . S
C135 H163 0.901 1_565 S
C136 O150 1.259 . S
C136 O151 1.270 . S
C137 O152 1.251 1_545 S
C137 O153 1.251 . S
C138 Eu139 2.835 . S
C138 C140 1.500 . S
C138 O154 1.263 . S
C138 O155 1.260 . S
Eu139 C138 2.835 . S
Eu139 O151 2.355 1_545 S
Eu139 O153 2.374 . S
Eu139 O154 2.475 . S
Eu139 O155 2.480 . S
Eu139 O156 2.430 . S
Eu139 O157 2.670 . S
Eu139 O158 2.394 . S
C140 C138 1.500 . S
C140 C141 1.377 . S
C140 C145 1.417 . S
C141 C140 1.377 . S
C141 C142 1.395 . S
C141 H164 0.931 . S
C142 C141 1.395 . S
C142 C143 1.383 . S
C142 H165 0.931 . S
C143 C142 1.383 . S
C143 C144 1.394 . S
C144 C143 1.394 . S
C144 C145 1.381 . S
C144 H166 0.931 1_545 S
C145 C140 1.417 . S
C145 C144 1.381 . S
C145 H167 0.888 1_545 S
C146 O156 1.259 . S
C146 O157 1.270 . S
C147 O158 1.251 1_565 S
C147 O159 1.251 . S
O148 C128 1.263 1_545 S
O148 Eu129 2.475 1_545 S
O149 C128 1.260 . S
O149 Eu129 2.480 . S
O150 Eu129 2.430 . S
O150 C136 1.259 . S
O151 Eu129 2.670 . S
O151 C136 1.270 . S
O151 Eu139 2.355 1_565 S
O152 Eu129 2.394 . S
O152 C137 1.251 1_565 S
O153 C137 1.251 . S
O153 Eu139 2.374 . S
O154 C138 1.263 . S
O154 Eu139 2.475 . S
O155 C138 1.260 . S
O155 Eu139 2.480 . S
O156 Eu139 2.430 . S
O156 C146 1.259 . S
O157 Eu129 2.355 1_545 S
O157 Eu139 2.670 . S
O157 C146 1.270 . S
O158 Eu139 2.394 . S
O158 C147 1.251 1_545 S
O159 Eu129 2.374 . S
O159 C147 1.251 . S
H160 C131 0.931 . S
H161 C132 0.931 . S
H162 C134 0.931 1_545 S
H163 C135 0.901 1_545 S
H164 C141 0.931 . S
H165 C142 0.931 . S
H166 C144 0.931 1_565 S
H167 C145 0.888 1_565 S
C168 Eu169 2.835 . S
C168 C170 1.500 . S
C168 O188 1.257 . S
C168 O189 1.260 . S
Eu169 C168 2.835 . S
Eu169 O188 2.473 . S
Eu169 O189 2.480 . S
Eu169 O190 2.430 . S
Eu169 O191 2.670 . S
Eu169 O192 2.394 . S
Eu169 O197 2.355 . S
Eu169 O199 2.374 . S
C170 C168 1.500 . S
C170 C171 1.377 . S
C170 C175 1.377 . S
C171 C170 1.377 . S
C171 C172 1.395 . S
C171 H200 0.931 . S
C172 C171 1.395 . S
C172 C173 1.383 . S
C172 H201 0.931 . S
C173 C172 1.383 . S
C173 C174 1.394 . S
C174 C173 1.394 . S
C174 C175 1.378 . S
C174 H202 0.931 . S
C175 C170 1.377 . S
C175 C174 1.378 . S
C175 H203 0.931 . S
C176 O190 1.259 . S
C176 O191 1.270 . S
C177 O192 1.251 . S
C177 O193 1.251 . S
C178 Eu179 2.835 . S
C178 C180 1.500 . S
C178 O194 1.257 . S
C178 O195 1.260 . S
Eu179 C178 2.835 . S
Eu179 O191 2.355 . S
Eu179 O193 2.374 . S
Eu179 O194 2.473 . S
Eu179 O195 2.480 . S
Eu179 O196 2.430 . S
Eu179 O197 2.670 . S
Eu179 O198 2.394 . S
C180 C178 1.500 . S
C180 C181 1.377 . S
C180 C185 1.377 . S
C181 C180 1.377 . S
C181 C182 1.395 . S
C181 H204 0.931 . S
C182 C181 1.395 . S
C182 C183 1.383 . S
C182 H205 0.931 . S
C183 C182 1.383 . S
C183 C184 1.394 . S
C184 C183 1.394 . S
C184 C185 1.378 . S
C184 H206 0.931 . S
C185 C180 1.377 . S
C185 C184 1.378 . S
C185 H207 0.931 . S
C186 O196 1.259 . S
C186 O197 1.270 . S
C187 O198 1.251 . S
C187 O199 1.251 . S
O188 C168 1.257 . S
O188 Eu169 2.473 . S
O189 C168 1.260 . S
O189 Eu169 2.480 . S
O190 Eu169 2.430 . S
O190 C176 1.259 . S
O191 Eu169 2.670 . S
O191 C176 1.270 . S
O191 Eu179 2.355 . S
O192 Eu169 2.394 . S
O192 C177 1.251 . S
O193 C177 1.251 . S
O193 Eu179 2.374 . S
O194 C178 1.257 . S
O194 Eu179 2.473 . S
O195 C178 1.260 . S
O195 Eu179 2.480 . S
O196 Eu179 2.430 . S
O196 C186 1.259 . S
O197 Eu169 2.355 . S
O197 Eu179 2.670 . S
O197 C186 1.270 . S
O198 Eu179 2.394 . S
O198 C187 1.251 . S
O199 Eu169 2.374 . S
O199 C187 1.251 . S
H200 C171 0.931 . S
H201 C172 0.931 . S
H202 C174 0.931 . S
H203 C175 0.931 . S
H204 C181 0.931 . S
H205 C182 0.931 . S
H206 C184 0.931 . S
H207 C185 0.931 . S
C208 Eu209 2.835 . S
C208 C210 1.500 . S
C208 O228 1.257 . S
C208 O229 1.260 . S
Eu209 C208 2.835 . S
Eu209 O228 2.473 . S
Eu209 O229 2.480 . S
Eu209 O230 2.430 . S
Eu209 O231 2.670 1_455 S
Eu209 O232 2.394 . S
Eu209 O237 2.355 . S
Eu209 O239 2.374 1_455 S
C210 C208 1.500 . S
C210 C211 1.377 . S
C210 C215 1.377 . S
C211 C210 1.377 . S
C211 C212 1.395 . S
C211 H240 0.931 . S
C212 C211 1.395 . S
C212 C213 1.383 . S
C212 H241 0.931 . S
C213 C212 1.383 . S
C213 C214 1.394 . S
C214 C213 1.394 . S
C214 C215 1.378 . S
C214 H242 0.931 . S
C215 C210 1.377 . S
C215 C214 1.378 . S
C215 H243 0.931 . S
C216 O230 1.280 . S
C216 O231 1.255 1_455 S
C217 O232 1.251 . S
C217 O233 1.251 . S
C218 Eu219 2.835 . S
C218 C220 1.500 . S
C218 O234 1.257 . S
C218 O235 1.260 . S
Eu219 C218 2.835 . S
Eu219 O231 2.355 . S
Eu219 O233 2.374 1_655 S
Eu219 O234 2.473 . S
Eu219 O235 2.480 . S
Eu219 O236 2.430 . S
Eu219 O237 2.670 1_655 S
Eu219 O238 2.394 . S
C220 C218 1.500 . S
C220 C221 1.377 . S
C220 C225 1.377 . S
C221 C220 1.377 . S
C221 C222 1.395 . S
C221 H244 0.931 . S
C222 C221 1.395 . S
C222 C223 1.383 . S
C222 H245 0.931 . S
C223 C222 1.383 . S
C223 C224 1.394 . S
C224 C223 1.394 . S
C224 C225 1.378 . S
C224 H246 0.931 . S
C225 C220 1.377 . S
C225 C224 1.378 . S
C225 H247 0.931 . S
C226 O236 1.273 . S
C226 O237 1.260 1_655 S
C227 O238 1.251 . S
C227 O239 1.251 . S
O228 C208 1.257 . S
O228 Eu209 2.473 . S
O229 C208 1.260 . S
O229 Eu209 2.480 . S
O230 Eu209 2.430 . S
O230 C216 1.280 . S
O231 Eu209 2.670 1_655 S
O231 C216 1.255 1_655 S
O231 Eu219 2.355 . S
O232 Eu209 2.394 . S
O232 C217 1.251 . S
O233 C217 1.251 . S
O233 Eu219 2.374 1_455 S
O234 C218 1.257 . S
O234 Eu219 2.473 . S
O235 C218 1.260 . S
O235 Eu219 2.480 . S
O236 Eu219 2.430 . S
O236 C226 1.273 . S
O237 Eu209 2.355 . S
O237 Eu219 2.670 1_455 S
O237 C226 1.260 1_455 S
O238 Eu219 2.394 . S
O238 C227 1.251 . S
O239 Eu209 2.374 1_655 S
O239 C227 1.251 . S
H240 C211 0.931 . S
H241 C212 0.931 . S
H242 C214 0.931 . S
H243 C215 0.931 . S
H244 C221 0.931 . S
H245 C222 0.931 . S
H246 C224 0.931 . S
H247 C225 0.931 . S
H248 C256 0.929 . S
H249 C258 0.930 . S
H250 C260 0.930 . S
H251 C263 0.929 . S
H252 C266 0.930 . S
H253 C268 0.960 . S
H254 C268 0.960 . S
H255 C268 0.960 . S
C256 H248 0.929 . S
C256 C257 1.372 1_565 S
C256 C258 1.384 . S
C257 C256 1.372 1_545 S
C257 C263 1.395 . S
C258 H249 0.930 . S
C258 C256 1.384 . S
C258 C259 1.372 . S
C259 C258 1.372 . S
C259 C260 1.399 1_565 S
C259 C264 1.490 1_565 S
C260 H250 0.930 . S
C260 C259 1.399 1_545 S
C260 C263 1.386 . S
H261 C277 0.930 . S
H262 C278 0.931 . S
C263 H251 0.929 . S
C263 C257 1.395 . S
C263 C260 1.386 . S
C264 C259 1.490 1_545 S
C264 C266 1.399 . S
C264 C267 1.399 1_545 S
H265 C271 0.930 . S
C266 H252 0.930 . S
C266 C264 1.399 . S
C266 C269 1.403 . S
C267 C264 1.399 1_565 S
C267 C268 1.524 . S
C267 C271 1.400 . S
C268 H253 0.960 . S
C268 H254 0.960 . S
C268 H255 0.960 . S
C268 C267 1.524 . S
C269 C266 1.403 . S
C269 C270 1.392 . S
C269 C273 1.495 . S
C270 C269 1.392 . S
C270 C271 1.385 1_545 S
C270 C272 1.478 . S
C271 H265 0.930 . S
C271 C267 1.400 . S
C271 C270 1.385 1_565 S
C272 C270 1.478 . S
C272 C274 1.381 1_545 S
C272 C278 1.383 . S
C273 C269 1.495 . S
C273 H279 0.959 . S
C273 H280 0.961 . S
C273 H281 0.960 . S
C274 C272 1.381 1_565 S
C274 C275 1.394 . S
C274 H282 0.930 . S
C275 C274 1.394 . S
C275 C276 1.383 1_565 S
C275 H283 0.929 . S
C276 C275 1.383 1_545 S
C276 C277 1.377 . S
C277 H261 0.930 . S
C277 C276 1.377 . S
C277 C278 1.379 . S
C278 H262 0.931 . S
C278 C272 1.383 . S
C278 C277 1.379 . S
H279 C273 0.959 . S
H280 C273 0.961 . S
H281 C273 0.960 . S
H282 C274 0.930 . S
H283 C275 0.929 . S
H284 C292 0.929 . S
H285 C294 0.930 . S
H286 C296 0.930 . S
H287 C299 0.929 . S
H288 C302 0.930 . S
H289 C304 0.960 . S
H290 C304 0.960 . S
H291 C304 0.960 . S
C292 H284 0.929 . S
C292 C293 1.377 . S
C292 C294 1.384 . S
C293 C292 1.377 . S
C293 C299 1.390 . S
C294 H285 0.930 . S
C294 C292 1.384 . S
C294 C295 1.372 . S
C295 C294 1.372 . S
C295 C296 1.400 . S
C295 C300 1.490 . S
C296 H286 0.930 . S
C296 C295 1.400 . S
C296 C299 1.386 . S
H297 C313 0.930 . S
H298 C314 0.931 . S
C299 H287 0.929 . S
C299 C293 1.390 . S
C299 C296 1.386 . S
C300 C295 1.490 . S
C300 C302 1.395 . S
C300 C303 1.403 . S
H301 C307 0.930 . S
C302 H288 0.930 . S
C302 C300 1.395 . S
C302 C305 1.403 . S
C303 C300 1.403 . S
C303 C304 1.524 . S
C303 C307 1.400 . S
C304 H289 0.960 . S
C304 H290 0.960 . S
C304 H291 0.960 . S
C304 C303 1.524 . S
C305 C302 1.403 . S
C305 C306 1.392 . S
C305 C309 1.495 . S
C306 C305 1.392 . S
C306 C307 1.385 . S
C306 C308 1.478 . S
C307 H301 0.930 . S
C307 C303 1.400 . S
C307 C306 1.385 . S
C308 C306 1.478 . S
C308 C310 1.381 . S
C308 C314 1.383 . S
C309 C305 1.495 . S
C309 H315 0.959 . S
C309 H316 0.961 . S
C309 H317 0.960 . S
C310 C308 1.381 . S
C310 C311 1.394 . S
C310 H318 0.930 . S
C311 C310 1.394 . S
C311 C312 1.383 . S
C311 H319 0.929 . S
C312 C311 1.383 . S
C312 C313 1.377 . S
C313 H297 0.930 . S
C313 C312 1.377 . S
C313 C314 1.379 . S
C314 H298 0.931 . S
C314 C308 1.383 . S
C314 C313 1.379 . S
H315 C309 0.959 . S
H316 C309 0.961 . S
H317 C309 0.960 . S
H318 C310 0.930 . S
H319 C311 0.929 . S
H320 C328 0.929 . S
H321 C330 0.930 . S
H322 C332 0.930 . S
H323 C335 0.929 . S
H324 C338 0.930 . S
H325 C340 0.960 . S
H326 C340 0.960 . S
H327 C340 0.960 . S
C328 H320 0.929 . S
C328 C329 1.377 . S
C328 C330 1.384 . S
C329 C328 1.377 . S
C329 C335 1.390 . S
C330 H321 0.930 . S
C330 C328 1.384 . S
C330 C331 1.372 . S
C331 C330 1.372 . S
C331 C332 1.400 . S
C331 C336 1.490 . S
C332 H322 0.930 . S
C332 C331 1.400 . S
C332 C335 1.386 . S
H333 C349 0.930 . S
H334 C350 0.931 . S
C335 H323 0.929 . S
C335 C329 1.390 . S
C335 C332 1.386 . S
C336 C331 1.490 . S
C336 C338 1.395 . S
C336 C339 1.403 . S
H337 C343 0.930 . S
C338 H324 0.930 . S
C338 C336 1.395 . S
C338 C341 1.403 . S
C339 C336 1.403 . S
C339 C340 1.524 . S
C339 C343 1.400 . S
C340 H325 0.960 . S
C340 H326 0.960 . S
C340 H327 0.960 . S
C340 C339 1.524 . S
C341 C338 1.403 . S
C341 C342 1.392 . S
C341 C345 1.495 . S
C342 C341 1.392 . S
C342 C343 1.385 . S
C342 C344 1.478 . S
C343 H337 0.930 . S
C343 C339 1.400 . S
C343 C342 1.385 . S
C344 C342 1.478 . S
C344 C346 1.381 . S
C344 C350 1.383 . S
C345 C341 1.495 . S
C345 H351 0.959 . S
C345 H352 0.961 . S
C345 H353 0.960 . S
C346 C344 1.381 . S
C346 C347 1.394 . S
C346 H354 0.930 . S
C347 C346 1.394 . S
C347 C348 1.383 . S
C347 H355 0.929 . S
C348 C347 1.383 . S
C348 C349 1.377 . S
C349 H333 0.930 . S
C349 C348 1.377 . S
C349 C350 1.379 . S
C350 H334 0.931 . S
C350 C344 1.383 . S
C350 C349 1.379 . S
H351 C345 0.959 . S
H352 C345 0.961 . S
H353 C345 0.960 . S
H354 C346 0.930 . S
H355 C347 0.929 . S
H356 C364 0.929 . S
H357 C366 0.930 . S
H358 C368 0.930 . S
H359 C371 0.929 . S
H360 C374 0.929 1_655 S
H361 C376 0.960 . S
H362 C376 0.960 . S
H363 C376 0.960 1_655 S
C364 H356 0.929 . S
C364 C365 1.413 . S
C364 C366 1.384 . S
C365 C364 1.413 . S
C365 C371 1.356 1_455 S
C366 H357 0.930 . S
C366 C364 1.384 . S
C366 C367 1.372 . S
C367 C366 1.372 . S
C367 C368 1.400 1_455 S
C367 C372 1.490 . S
C368 H358 0.930 . S
C368 C367 1.400 1_655 S
C368 C371 1.386 . S
H369 C385 0.930 . S
H370 C386 0.931 . S
C371 H359 0.929 . S
C371 C365 1.356 1_655 S
C371 C368 1.386 . S
C372 C367 1.490 . S
C372 C374 1.396 . S
C372 C375 1.403 . S
H373 C379 0.930 . S
C374 H360 0.929 1_455 S
C374 C372 1.396 . S
C374 C377 1.403 . S
C375 C372 1.403 . S
C375 C376 1.524 . S
C375 C379 1.400 . S
C376 H361 0.960 . S
C376 H362 0.960 . S
C376 H363 0.960 1_455 S
C376 C375 1.524 . S
C377 C374 1.403 . S
C377 C378 1.391 . S
C377 C381 1.495 1_455 S
C378 C377 1.391 . S
C378 C379 1.390 . S
C378 C380 1.477 . S
C379 H373 0.930 . S
C379 C375 1.400 . S
C379 C378 1.390 . S
C380 C378 1.477 . S
C380 C382 1.403 . S
C380 C386 1.361 1_455 S
C381 C377 1.495 1_655 S
C381 H387 0.959 . S
C381 H388 0.961 . S
C381 H389 0.960 1_655 S
C382 C380 1.403 . S
C382 C383 1.394 . S
C382 H390 0.930 . S
C383 C382 1.394 . S
C383 C384 1.408 . S
C383 H391 0.929 . S
C384 C383 1.408 . S
C384 C385 1.352 1_455 S
C385 H369 0.930 . S
C385 C384 1.352 1_655 S
C385 C386 1.379 . S
C386 H370 0.931 . S
C386 C380 1.361 1_655 S
C386 C385 1.379 . S
H387 C381 0.959 . S
H388 C381 0.961 . S
H389 C381 0.960 1_455 S
H390 C382 0.930 . S
H391 C383 0.929 . S
H392 C400 0.929 . S
H393 C402 0.930 . S
H394 C404 0.930 . S
H395 C407 0.929 . S
H396 C410 0.930 . S
H397 C412 0.960 . S
H398 C412 0.960 . S
H399 C412 0.960 1_565 S
C400 H392 0.929 . S
C400 C401 1.378 1_545 S
C400 C402 1.384 . S
C401 C400 1.378 1_565 S
C401 C407 1.390 . S
C402 H393 0.930 . S
C402 C400 1.384 . S
C402 C403 1.389 . S
C403 C402 1.389 . S
C403 C404 1.382 1_545 S
C403 C408 1.490 . S
C404 H394 0.930 . S
C404 C403 1.382 1_565 S
C404 C407 1.386 . S
H405 C421 0.930 . S
H406 C422 0.931 . S
C407 H395 0.929 . S
C407 C401 1.390 . S
C407 C404 1.386 . S
C408 C403 1.490 . S
C408 C410 1.392 1_545 S
C408 C411 1.405 1_554 S
H409 C415 0.930 . S
C410 H396 0.930 . S
C410 C408 1.392 1_565 S
C410 C413 1.403 . S
C411 C408 1.405 1_556 S
C411 C412 1.524 . S
C411 C415 1.400 . S
C412 H397 0.960 . S
C412 H398 0.960 . S
C412 H399 0.960 1_545 S
C412 C411 1.524 . S
C413 C410 1.403 . S
C413 C414 1.399 1_554 S
C413 C417 1.495 . S
C414 C413 1.399 1_556 S
C414 C415 1.378 1_565 S
C414 C416 1.479 . S
C415 H409 0.930 . S
C415 C411 1.400 . S
C415 C414 1.378 1_545 S
C416 C414 1.479 . S
C416 C418 1.381 1_565 S
C416 C422 1.383 . S
C417 C413 1.495 . S
C417 H423 0.959 . S
C417 H424 0.961 . S
C417 H425 0.960 1_565 S
C418 C416 1.381 1_545 S
C418 C419 1.394 . S
C418 H426 0.930 . S
C419 C418 1.394 . S
C419 C420 1.383 1_545 S
C419 H427 0.929 . S
C420 C419 1.383 1_565 S
C420 C421 1.377 . S
C421 H405 0.930 . S
C421 C420 1.377 . S
C421 C422 1.379 . S
C422 H406 0.931 . S
C422 C416 1.383 . S
C422 C421 1.379 . S
H423 C417 0.959 . S
H424 C417 0.961 . S
H425 C417 0.960 1_545 S
H426 C418 0.930 . S
H427 C419 0.929 . S
H428 C436 0.929 . S
H429 C438 0.930 . S
H430 C440 0.930 . S
H431 C443 0.929 . S
H432 C446 0.930 . S
H433 C448 0.960 1_556 S
H434 C448 0.958 1_556 S
H435 C448 0.960 . S
C436 H428 0.929 . S
C436 C437 1.377 . S
C436 C438 1.384 . S
C437 C436 1.377 . S
C437 C443 1.390 . S
C438 H429 0.930 . S
C438 C436 1.384 . S
C438 C439 1.372 . S
C439 C438 1.372 . S
C439 C440 1.400 . S
C439 C444 1.490 . S
C440 H430 0.930 . S
C440 C439 1.400 . S
C440 C443 1.386 . S
H441 C457 0.930 . S
H442 C458 0.931 . S
C443 H431 0.929 . S
C443 C437 1.390 . S
C443 C440 1.386 . S
C444 C439 1.490 . S
C444 C446 1.395 . S
C444 C447 1.405 . S
H445 C451 0.930 . S
C446 H432 0.930 . S
C446 C444 1.395 . S
C446 C449 1.403 1_554 S
C447 C444 1.405 . S
C447 C448 1.524 . S
C447 C451 1.397 1_554 S
C448 H433 0.960 1_554 S
C448 H434 0.958 1_554 S
C448 H435 0.960 . S
C448 C447 1.524 . S
C449 C446 1.403 1_556 S
C449 C450 1.392 . S
C449 C453 1.495 . S
C450 C449 1.392 . S
C450 C451 1.385 . S
C450 C452 1.478 . S
C451 H445 0.930 . S
C451 C447 1.397 1_556 S
C451 C450 1.385 . S
C452 C450 1.478 . S
C452 C454 1.381 . S
C452 C458 1.383 . S
C453 C449 1.495 . S
C453 H459 0.959 . S
C453 H460 0.961 . S
C453 H461 0.960 . S
C454 C452 1.381 . S
C454 C455 1.394 . S
C454 H462 0.930 . S
C455 C454 1.394 . S
C455 C456 1.383 . S
C455 H463 0.929 . S
C456 C455 1.383 . S
C456 C457 1.377 . S
C457 H441 0.930 . S
C457 C456 1.377 . S
C457 C458 1.379 . S
C458 H442 0.931 . S
C458 C452 1.383 . S
C458 C457 1.379 . S
H459 C453 0.959 . S
H460 C453 0.961 . S
H461 C453 0.960 . S
H462 C454 0.930 . S
H463 C455 0.929 . S
H464 C472 0.929 . S
H465 C474 0.930 . S
H466 C476 0.930 . S
H467 C479 0.929 . S
H468 C482 0.930 . S
H469 C484 0.960 1_556 S
H470 C484 0.960 . S
H471 C484 0.960 . S
C472 H464 0.929 . S
C472 C473 1.377 . S
C472 C474 1.384 . S
C473 C472 1.377 . S
C473 C479 1.390 . S
C474 H465 0.930 . S
C474 C472 1.384 . S
C474 C475 1.372 . S
C475 C474 1.372 . S
C475 C476 1.400 . S
C475 C480 1.490 . S
C476 H466 0.930 . S
C476 C475 1.400 . S
C476 C479 1.386 . S
H477 C493 0.930 . S
H478 C494 0.931 . S
C479 H467 0.929 . S
C479 C473 1.390 . S
C479 C476 1.386 . S
C480 C475 1.490 . S
C480 C482 1.395 . S
C480 C483 1.403 . S
H481 C487 0.930 . S
C482 H468 0.930 . S
C482 C480 1.395 . S
C482 C485 1.403 1_554 S
C483 C480 1.403 . S
C483 C484 1.524 . S
C483 C487 1.400 1_554 S
C484 H469 0.960 1_554 S
C484 H470 0.960 . S
C484 H471 0.960 . S
C484 C483 1.524 . S
C485 C482 1.403 1_556 S
C485 C486 1.392 . S
C485 C489 1.495 . S
C486 C485 1.392 . S
C486 C487 1.385 . S
C486 C488 1.478 . S
C487 H481 0.930 . S
C487 C483 1.400 1_556 S
C487 C486 1.385 . S
C488 C486 1.478 . S
C488 C490 1.381 . S
C488 C494 1.383 . S
C489 C485 1.495 . S
C489 H495 0.959 1_556 S
C489 H496 0.961 . S
C489 H497 0.960 . S
C490 C488 1.381 . S
C490 C491 1.394 . S
C490 H498 0.930 . S
C491 C490 1.394 . S
C491 C492 1.383 . S
C491 H499 0.929 . S
C492 C491 1.383 . S
C492 C493 1.377 . S
C493 H477 0.930 . S
C493 C492 1.377 . S
C493 C494 1.379 . S
C494 H478 0.931 . S
C494 C488 1.383 . S
C494 C493 1.379 . S
H495 C489 0.959 1_554 S
H496 C489 0.961 . S
H497 C489 0.960 . S
H498 C490 0.930 . S
H499 C491 0.929 . S
H500 C508 0.929 . S
H501 C510 0.930 . S
H502 C512 0.930 . S
H503 C515 0.929 . S
H504 C518 0.930 . S
H505 C520 0.960 . S
H506 C520 0.960 . S
H507 C520 0.960 . S
C508 H500 0.929 . S
C508 C509 1.382 . S
C508 C510 1.384 . S
C509 C508 1.382 . S
C509 C515 1.386 1_655 S
C510 H501 0.930 . S
C510 C508 1.384 . S
C510 C511 1.378 . S
C511 C510 1.378 . S
C511 C512 1.395 1_655 S
C511 C516 1.489 . S
C512 H502 0.930 . S
C512 C511 1.395 1_455 S
C512 C515 1.386 . S
H513 C529 0.930 . S
H514 C530 0.931 . S
C515 H503 0.929 . S
C515 C509 1.386 1_455 S
C515 C512 1.386 . S
C516 C511 1.489 . S
C516 C518 1.387 1_654 S
C516 C519 1.410 . S
H517 C523 0.930 . S
C518 H504 0.930 . S
C518 C516 1.387 1_456 S
C518 C521 1.403 . S
C519 C516 1.410 . S
C519 C520 1.524 . S
C519 C523 1.400 1_554 S
C520 H505 0.960 . S
C520 H506 0.960 . S
C520 H507 0.960 . S
C520 C519 1.524 . S
C521 C518 1.403 . S
C521 C522 1.392 . S
C521 C525 1.495 . S
C522 C521 1.392 . S
C522 C523 1.385 1_455 S
C522 C524 1.478 . S
C523 H517 0.930 . S
C523 C519 1.400 1_556 S
C523 C522 1.385 1_655 S
C524 C522 1.478 . S
C524 C526 1.381 1_455 S
C524 C530 1.383 . S
C525 C521 1.495 . S
C525 H531 0.959 . S
C525 H532 0.961 . S
C525 H533 0.960 . S
C526 C524 1.381 1_655 S
C526 C527 1.394 . S
C526 H534 0.930 . S
C527 C526 1.394 . S
C527 C528 1.377 1_655 S
C527 H535 0.929 . S
C528 C527 1.377 1_455 S
C528 C529 1.385 . S
C529 H513 0.930 . S
C529 C528 1.385 . S
C529 C530 1.379 . S
C530 H514 0.931 . S
C530 C524 1.383 . S
C530 C529 1.379 . S
H531 C525 0.959 . S
H532 C525 0.961 . S
H533 C525 0.960 . S
H534 C526 0.930 . S
H535 C527 0.929 . S
H536 C544 0.929 . S
H537 C546 0.930 . S
H538 C548 0.940 . S
H539 C551 0.929 . S
H540 C554 0.930 . S
H541 C556 0.960 . S
H542 C556 0.960 . S
H543 C556 0.960 . S
C544 H536 0.929 . S
C544 C545 1.377 1_655 S
C544 C546 1.384 . S
C545 C544 1.377 1_455 S
C545 C551 1.390 . S
C546 H537 0.930 . S
C546 C544 1.384 . S
C546 C547 1.372 . S
C547 C546 1.372 . S
C547 C548 1.384 1_655 S
C547 C552 1.490 . S
C548 H538 0.940 . S
C548 C547 1.384 1_455 S
C548 C551 1.395 . S
H549 C565 0.930 . S
H550 C566 0.931 . S
C551 H539 0.929 . S
C551 C545 1.390 . S
C551 C548 1.395 . S
C552 C547 1.490 . S
C552 C554 1.395 . S
C552 C555 1.403 1_655 S
H553 C559 0.930 . S
C554 H540 0.930 . S
C554 C552 1.395 . S
C554 C557 1.403 . S
C555 C552 1.403 1_455 S
C555 C556 1.524 . S
C555 C559 1.400 . S
C556 H541 0.960 . S
C556 H542 0.960 . S
C556 H543 0.960 . S
C556 C555 1.524 . S
C557 C554 1.403 . S
C557 C558 1.392 . S
C557 C561 1.495 . S
C558 C557 1.392 . S
C558 C559 1.385 1_655 S
C558 C560 1.478 . S
C559 H553 0.930 . S
C559 C555 1.400 . S
C559 C558 1.385 1_455 S
C560 C558 1.478 . S
C560 C562 1.381 . S
C560 C566 1.383 . S
C561 C557 1.495 . S
C561 H567 0.959 . S
C561 H568 0.961 . S
C561 H569 0.960 . S
C562 C560 1.381 . S
C562 C563 1.394 . S
C562 H570 0.930 . S
C563 C562 1.394 . S
C563 C564 1.383 . S
C563 H571 0.929 . S
C564 C563 1.383 . S
C564 C565 1.377 . S
C565 H549 0.930 . S
C565 C564 1.377 . S
C565 C566 1.379 . S
C566 H550 0.931 . S
C566 C560 1.383 . S
C566 C565 1.379 . S
H567 C561 0.959 . S
H568 C561 0.961 . S
H569 C561 0.960 . S
H570 C562 0.930 . S
H571 C563 0.929 . S
H572 C580 0.929 . S
H573 C582 0.930 . S
H574 C584 0.930 . S
H575 C587 0.929 . S
H576 C590 0.930 . S
H577 C592 0.960 . S
H578 C592 0.960 . S
H579 C592 0.960 . S
C580 H572 0.929 . S
C580 C581 1.352 1_565 S
C580 C582 1.384 . S
C581 C580 1.352 1_545 S
C581 C587 1.408 . S
C582 H573 0.930 . S
C582 C580 1.384 . S
C582 C583 1.372 . S
C583 C582 1.372 . S
C583 C584 1.400 1_565 S
C583 C588 1.490 . S
C584 H574 0.930 . S
C584 C583 1.400 1_545 S
C584 C587 1.386 . S
H585 C601 0.930 . S
H586 C602 0.914 1_545 S
C587 H575 0.929 . S
C587 C581 1.408 . S
C587 C584 1.386 . S
C588 C583 1.490 . S
C588 C590 1.395 1_565 S
C588 C591 1.403 . S
H589 C595 0.930 . S
C590 H576 0.930 . S
C590 C588 1.395 1_545 S
C590 C593 1.404 . S
C591 C588 1.403 . S
C591 C592 1.524 . S
C591 C595 1.400 . S
C592 H577 0.960 . S
C592 H578 0.960 . S
C592 H579 0.960 . S
C592 C591 1.524 . S
C593 C590 1.404 . S
C593 C594 1.390 1_545 S
C593 C597 1.497 . S
C594 C593 1.390 1_565 S
C594 C595 1.385 . S
C594 C596 1.478 . S
C595 H589 0.930 . S
C595 C591 1.400 . S
C595 C594 1.385 . S
C596 C594 1.478 . S
C596 C598 1.381 . S
C596 C602 1.383 . S
C597 C593 1.497 . S
C597 H603 0.959 . S
C597 H604 0.961 . S
C597 H605 0.960 . S
C598 C596 1.381 . S
C598 C599 1.394 . S
C598 H606 0.930 . S
C599 C598 1.394 . S
C599 C600 1.383 . S
C599 H607 0.929 . S
C600 C599 1.383 . S
C600 C601 1.377 . S
C601 H585 0.930 . S
C601 C600 1.377 . S
C601 C602 1.379 . S
C602 H586 0.914 1_565 S
C602 C596 1.383 . S
C602 C601 1.379 . S
H603 C597 0.959 . S
H604 C597 0.961 . S
H605 C597 0.960 . S
H606 C598 0.930 . S
H607 C599 0.929 . S
H608 C616 0.929 . S
H609 C618 0.930 . S
H610 C620 0.930 . S
H611 C623 0.929 . S
H612 C626 0.930 . S
H613 C628 0.960 . S
H614 C628 0.960 . S
H615 C628 0.960 . S
C616 H608 0.929 . S
C616 C617 1.377 . S
C616 C618 1.384 . S
C617 C616 1.377 . S
C617 C623 1.390 . S
C618 H609 0.930 . S
C618 C616 1.384 . S
C618 C619 1.372 . S
C619 C618 1.372 . S
C619 C620 1.400 . S
C619 C624 1.490 . S
C620 H610 0.930 . S
C620 C619 1.400 . S
C620 C623 1.386 . S
H621 C637 0.930 . S
H622 C638 0.931 . S
C623 H611 0.929 . S
C623 C617 1.390 . S
C623 C620 1.386 . S
C624 C619 1.490 . S
C624 C626 1.395 . S
C624 C627 1.403 . S
H625 C631 0.930 . S
C626 H612 0.930 . S
C626 C624 1.395 . S
C626 C629 1.403 . S
C627 C624 1.403 . S
C627 C628 1.524 . S
C627 C631 1.400 . S
C628 H613 0.960 . S
C628 H614 0.960 . S
C628 H615 0.960 . S
C628 C627 1.524 . S
C629 C626 1.403 . S
C629 C630 1.392 . S
C629 C633 1.495 . S
C630 C629 1.392 . S
C630 C631 1.385 . S
C630 C632 1.478 . S
C631 H625 0.930 . S
C631 C627 1.400 . S
C631 C630 1.385 . S
C632 C630 1.478 . S
C632 C634 1.381 . S
C632 C638 1.383 . S
C633 C629 1.495 . S
C633 H639 0.959 . S
C633 H640 0.961 . S
C633 H641 0.960 . S
C634 C632 1.381 . S
C634 C635 1.394 . S
C634 H642 0.930 . S
C635 C634 1.394 . S
C635 C636 1.383 . S
C635 H643 0.929 . S
C636 C635 1.383 . S
C636 C637 1.377 . S
C637 H621 0.930 . S
C637 C636 1.377 . S
C637 C638 1.379 . S
C638 H622 0.931 . S
C638 C632 1.383 . S
C638 C637 1.379 . S
H639 C633 0.959 . S
H640 C633 0.961 . S
H641 C633 0.960 . S
H642 C634 0.930 . S
H643 C635 0.929 . S
H644 C652 0.929 . S
H645 C654 0.930 . S
H646 C656 0.930 . S
H647 C659 0.929 . S
H648 C662 0.930 . S
H649 C664 0.960 . S
H650 C664 0.960 . S
H651 C664 0.960 . S
C652 H644 0.929 . S
C652 C653 1.377 . S
C652 C654 1.384 . S
C653 C652 1.377 . S
C653 C659 1.390 . S
C654 H645 0.930 . S
C654 C652 1.384 . S
C654 C655 1.372 . S
C655 C654 1.372 . S
C655 C656 1.400 . S
C655 C660 1.490 . S
C656 H646 0.930 . S
C656 C655 1.400 . S
C656 C659 1.386 . S
H657 C673 0.930 . S
H658 C674 0.931 . S
C659 H647 0.929 . S
C659 C653 1.390 . S
C659 C656 1.386 . S
C660 C655 1.490 . S
C660 C662 1.395 . S
C660 C663 1.403 . S
H661 C667 0.930 . S
C662 H648 0.930 . S
C662 C660 1.395 . S
C662 C665 1.403 . S
C663 C660 1.403 . S
C663 C664 1.524 . S
C663 C667 1.400 . S
C664 H649 0.960 . S
C664 H650 0.960 . S
C664 H651 0.960 . S
C664 C663 1.524 . S
C665 C662 1.403 . S
C665 C666 1.392 . S
C665 C669 1.495 . S
C666 C665 1.392 . S
C666 C667 1.385 . S
C666 C668 1.478 . S
C667 H661 0.930 . S
C667 C663 1.400 . S
C667 C666 1.385 . S
C668 C666 1.478 . S
C668 C670 1.381 . S
C668 C674 1.383 . S
C669 C665 1.495 . S
C669 H675 0.959 . S
C669 H676 0.961 . S
C669 H677 0.960 . S
C670 C668 1.381 . S
C670 C671 1.394 . S
C670 H678 0.930 . S
C671 C670 1.394 . S
C671 C672 1.383 . S
C671 H679 0.929 . S
C672 C671 1.383 . S
C672 C673 1.377 . S
C673 H657 0.930 . S
C673 C672 1.377 . S
C673 C674 1.379 . S
C674 H658 0.931 . S
C674 C668 1.383 . S
C674 C673 1.379 . S
H675 C669 0.959 . S
H676 C669 0.961 . S
H677 C669 0.960 . S
H678 C670 0.930 . S
H679 C671 0.929 . S
H680 C688 0.929 . S
H681 C690 0.930 . S
H682 C692 0.930 . S
H683 C695 0.929 . S
H684 C698 0.930 . S
H685 C700 0.960 . S
H686 C700 0.960 . S
H687 C700 0.960 . S
C688 H680 0.929 . S
C688 C689 1.377 1_455 S
C688 C690 1.384 . S
C689 C688 1.377 1_655 S
C689 C695 1.390 . S
C690 H681 0.930 . S
C690 C688 1.384 . S
C690 C691 1.372 . S
C691 C690 1.372 . S
C691 C692 1.400 1_455 S
C691 C696 1.490 . S
C692 H682 0.930 . S
C692 C691 1.400 1_655 S
C692 C695 1.386 . S
H693 C709 0.930 . S
H694 C710 0.935 1_655 S
C695 H683 0.929 . S
C695 C689 1.390 . S
C695 C692 1.386 . S
C696 C691 1.490 . S
C696 C698 1.395 . S
C696 C699 1.403 1_455 S
H697 C703 0.961 . S
C698 H684 0.930 . S
C698 C696 1.395 . S
C698 C701 1.403 . S
C699 C696 1.403 1_655 S
C699 C700 1.524 . S
C699 C703 1.410 . S
C700 H685 0.960 . S
C700 H686 0.960 . S
C700 H687 0.960 . S
C700 C699 1.524 . S
C701 C698 1.403 . S
C701 C702 1.392 . S
C701 C705 1.495 1_554 S
C702 C701 1.392 . S
C702 C703 1.346 1_455 S
C702 C704 1.478 1_554 S
C703 H697 0.961 . S
C703 C699 1.410 . S
C703 C702 1.346 1_655 S
C704 C702 1.478 1_556 S
C704 C706 1.381 1_556 S
C704 C710 1.383 . S
C705 C701 1.495 1_556 S
C705 H711 0.959 1_556 S
C705 H712 0.961 . S
C705 H713 0.960 1_556 S
C706 C704 1.381 1_554 S
C706 C707 1.394 1_554 S
C706 H714 0.930 . S
C707 C706 1.394 1_556 S
C707 C708 1.383 . S
C707 H715 0.929 . S
C708 C707 1.383 . S
C708 C709 1.377 . S
C709 H693 0.930 . S
C709 C708 1.377 . S
C709 C710 1.379 . S
C710 H694 0.935 1_455 S
C710 C704 1.383 . S
C710 C709 1.379 . S
H711 C705 0.959 1_554 S
H712 C705 0.961 . S
H713 C705 0.960 1_554 S
H714 C706 0.930 . S
H715 C707 0.929 . S
H716 C724 0.929 . S
H717 C726 0.930 . S
H718 C728 0.930 . S
H719 C731 0.929 . S
H720 C734 0.930 . S
H721 C736 0.960 1_556 S
H722 C736 0.960 . S
H723 C736 0.960 . S
C724 H716 0.929 . S
C724 C725 1.377 . S
C724 C726 1.384 . S
C725 C724 1.377 . S
C725 C731 1.390 1_565 S
C726 H717 0.930 . S
C726 C724 1.384 . S
C726 C727 1.372 1_565 S
C727 C726 1.372 1_545 S
C727 C728 1.400 . S
C727 C732 1.490 . S
C728 H718 0.930 . S
C728 C727 1.400 . S
C728 C731 1.386 . S
H729 C745 0.930 . S
H730 C746 0.931 . S
C731 H719 0.929 . S
C731 C725 1.390 1_545 S
C731 C728 1.386 . S
C732 C727 1.490 . S
C732 C734 1.395 . S
C732 C735 1.403 1_545 S
H733 C739 0.930 1_566 S
C734 H720 0.930 . S
C734 C732 1.395 . S
C734 C737 1.403 . S
C735 C732 1.403 1_565 S
C735 C736 1.524 . S
C735 C739 1.400 1_565 S
C736 H721 0.960 1_554 S
C736 H722 0.960 . S
C736 H723 0.960 . S
C736 C735 1.524 . S
C737 C734 1.403 . S
C737 C738 1.392 . S
C737 C741 1.495 . S
C738 C737 1.392 . S
C738 C739 1.385 . S
C738 C740 1.478 1_554 S
C739 H733 0.930 1_544 S
C739 C735 1.400 1_545 S
C739 C738 1.385 . S
C740 C738 1.478 1_556 S
C740 C742 1.381 1_556 S
C740 C746 1.383 . S
C741 C737 1.495 . S
C741 H747 0.959 . S
C741 H748 0.961 . S
C741 H749 0.960 . S
C742 C740 1.381 1_554 S
C742 C743 1.394 1_554 S
C742 H750 0.930 . S
C743 C742 1.394 1_556 S
C743 C744 1.383 . S
C743 H751 0.929 . S
C744 C743 1.383 . S
C744 C745 1.377 . S
C745 H729 0.930 . S
C745 C744 1.377 . S
C745 C746 1.379 . S
C746 H730 0.931 . S
C746 C740 1.383 . S
C746 C745 1.379 . S
H747 C741 0.959 . S
H748 C741 0.961 . S
H749 C741 0.960 . S
H750 C742 0.930 . S
H751 C743 0.929 . S
H752 C760 0.929 . S
H753 C762 0.930 . S
H754 C764 0.930 . S
H755 C767 0.929 . S
H756 C770 0.930 . S
H757 C772 0.960 . S
H758 C772 0.960 . S
H759 C772 0.960 . S
C760 H752 0.929 . S
C760 C761 1.377 . S
C760 C762 1.384 . S
C761 C760 1.377 . S
C761 C767 1.390 . S
C762 H753 0.930 . S
C762 C760 1.384 . S
C762 C763 1.372 . S
C763 C762 1.372 . S
C763 C764 1.400 . S
C763 C768 1.490 . S
C764 H754 0.930 . S
C764 C763 1.400 . S
C764 C767 1.386 . S
H765 C781 0.930 . S
H766 C782 0.931 1_554 S
C767 H755 0.929 . S
C767 C761 1.390 . S
C767 C764 1.386 . S
C768 C763 1.490 . S
C768 C770 1.395 . S
C768 C771 1.403 . S
H769 C775 0.930 . S
C770 H756 0.930 . S
C770 C768 1.395 . S
C770 C773 1.403 1_554 S
C771 C768 1.403 . S
C771 C772 1.524 . S
C771 C775 1.400 . S
C772 H757 0.960 . S
C772 H758 0.960 . S
C772 H759 0.960 . S
C772 C771 1.524 . S
C773 C770 1.403 1_556 S
C773 C774 1.392 1_556 S
C773 C777 1.495 . S
C774 C773 1.392 1_554 S
C774 C775 1.385 . S
C774 C776 1.478 1_554 S
C775 H769 0.930 . S
C775 C771 1.400 . S
C775 C774 1.385 . S
C776 C774 1.478 1_556 S
C776 C778 1.381 . S
C776 C782 1.383 . S
C777 C773 1.495 . S
C777 H783 0.959 . S
C777 H784 0.961 . S
C777 H785 0.960 . S
C778 C776 1.381 . S
C778 C779 1.394 . S
C778 H786 0.930 . S
C779 C778 1.394 . S
C779 C780 1.383 . S
C779 H787 0.929 . S
C780 C779 1.383 . S
C780 C781 1.377 . S
C781 H765 0.930 . S
C781 C780 1.377 . S
C781 C782 1.379 . S
C782 H766 0.931 1_556 S
C782 C776 1.383 . S
C782 C781 1.379 . S
H783 C777 0.959 . S
H784 C777 0.961 . S
H785 C777 0.960 . S
H786 C778 0.930 . S
H787 C779 0.929 . S
H788 C796 0.929 . S
H789 C798 0.930 . S
H790 C800 0.930 . S
H791 C803 0.929 . S
H792 C806 0.930 . S
H793 C808 0.960 . S
H794 C808 0.960 . S
H795 C808 0.960 . S
C796 H788 0.929 . S
C796 C797 1.377 . S
C796 C798 1.384 . S
C797 C796 1.377 . S
C797 C803 1.390 . S
C798 H789 0.930 . S
C798 C796 1.384 . S
C798 C799 1.372 . S
C799 C798 1.372 . S
C799 C800 1.400 . S
C799 C804 1.490 . S
C800 H790 0.930 . S
C800 C799 1.400 . S
C800 C803 1.386 . S
H801 C817 0.930 . S
H802 C818 0.931 . S
C803 H791 0.929 . S
C803 C797 1.390 . S
C803 C800 1.386 . S
C804 C799 1.490 . S
C804 C806 1.395 . S
C804 C807 1.403 . S
H805 C811 0.930 . S
C806 H792 0.930 . S
C806 C804 1.395 . S
C806 C809 1.403 1_554 S
C807 C804 1.403 . S
C807 C808 1.524 . S
C807 C811 1.400 . S
C808 H793 0.960 . S
C808 H794 0.960 . S
C808 H795 0.960 . S
C808 C807 1.524 . S
C809 C806 1.403 1_556 S
C809 C810 1.392 1_556 S
C809 C813 1.495 . S
C810 C809 1.392 1_554 S
C810 C811 1.385 . S
C810 C812 1.478 1_554 S
C811 H805 0.930 . S
C811 C807 1.400 . S
C811 C810 1.385 . S
C812 C810 1.478 1_556 S
C812 C814 1.381 . S
C812 C818 1.383 . S
C813 C809 1.495 . S
C813 H819 0.959 . S
C813 H820 0.961 . S
C813 H821 0.960 . S
C814 C812 1.381 . S
C814 C815 1.394 . S
C814 H822 0.930 . S
C815 C814 1.394 . S
C815 C816 1.383 . S
C815 H823 0.929 . S
C816 C815 1.383 . S
C816 C817 1.377 . S
C817 H801 0.930 . S
C817 C816 1.377 . S
C817 C818 1.379 . S
C818 H802 0.931 . S
C818 C812 1.383 . S
C818 C817 1.379 . S
H819 C813 0.959 . S
H820 C813 0.961 . S
H821 C813 0.960 . S
H822 C814 0.930 . S
H823 C815 0.929 . S
H824 C832 0.929 . S
H825 C834 0.930 . S
H826 C836 0.930 . S
H827 C839 0.929 . S
H828 C842 0.930 . S
H829 C844 0.960 . S
H830 C844 0.960 . S
H831 C844 0.960 . S
C832 H824 0.929 . S
C832 C833 1.377 . S
C832 C834 1.384 . S
C833 C832 1.377 . S
C833 C839 1.390 1_455 S
C834 H825 0.930 . S
C834 C832 1.384 . S
C834 C835 1.372 . S
C835 C834 1.372 . S
C835 C836 1.400 1_455 S
C835 C840 1.490 . S
C836 H826 0.930 . S
C836 C835 1.400 1_655 S
C836 C839 1.386 . S
H837 C853 0.930 . S
H838 C854 0.931 . S
C839 H827 0.929 . S
C839 C833 1.390 1_655 S
C839 C836 1.386 . S
C840 C835 1.490 . S
C840 C842 1.395 . S
C840 C843 1.403 1_455 S
H841 C847 0.930 . S
C842 H828 0.930 . S
C842 C840 1.395 . S
C842 C845 1.403 . S
C843 C840 1.403 1_655 S
C843 C844 1.524 . S
C843 C847 1.400 . S
C844 H829 0.960 . S
C844 H830 0.960 . S
C844 H831 0.960 . S
C844 C843 1.524 . S
C845 C842 1.403 . S
C845 C846 1.392 . S
C845 C849 1.495 . S
C846 C845 1.392 . S
C846 C847 1.385 1_455 S
C846 C848 1.478 . S
C847 H841 0.930 . S
C847 C843 1.400 . S
C847 C846 1.385 1_655 S
C848 C846 1.478 . S
C848 C850 1.381 . S
C848 C854 1.383 1_455 S
C849 C845 1.495 . S
C849 H855 0.959 . S
C849 H856 0.961 . S
C849 H857 0.960 . S
C850 C848 1.381 . S
C850 C851 1.394 . S
C850 H858 0.930 . S
C851 C850 1.394 . S
C851 C852 1.383 . S
C851 H859 0.929 . S
C852 C851 1.383 . S
C852 C853 1.377 1_455 S
C853 H837 0.930 . S
C853 C852 1.377 1_655 S
C853 C854 1.379 . S
C854 H838 0.931 . S
C854 C848 1.383 1_655 S
C854 C853 1.379 . S
H855 C849 0.959 . S
H856 C849 0.961 . S
H857 C849 0.960 . S
H858 C850 0.930 . S
H859 C851 0.929 . S
H860 C868 0.929 . S
H861 C870 0.930 . S
H862 C872 0.930 . S
H863 C875 0.929 . S
H864 C878 0.930 . S
H865 C880 0.960 . S
H866 C880 0.960 . S
H867 C880 0.960 . S
C868 H860 0.929 . S
C868 C869 1.324 1_565 S
C868 C870 1.384 . S
C869 C868 1.324 1_545 S
C869 C875 1.445 . S
C870 H861 0.930 . S
C870 C868 1.384 . S
C870 C871 1.372 1_565 S
C871 C870 1.372 1_545 S
C871 C872 1.400 . S
C871 C876 1.490 . S
C872 H862 0.930 . S
C872 C871 1.400 . S
C872 C875 1.386 . S
H873 C889 0.930 . S
H874 C890 0.931 . S
C875 H863 0.929 . S
C875 C869 1.445 . S
C875 C872 1.386 . S
C876 C871 1.490 . S
C876 C878 1.395 1_545 S
C876 C879 1.403 . S
H877 C883 0.930 . S
C878 H864 0.930 . S
C878 C876 1.395 1_565 S
C878 C881 1.403 . S
C879 C876 1.403 . S
C879 C880 1.524 . S
C879 C883 1.400 . S
C880 H865 0.960 . S
C880 H866 0.960 . S
C880 H867 0.960 . S
C880 C879 1.524 . S
C881 C878 1.403 . S
C881 C882 1.392 1_565 S
C881 C885 1.495 . S
C882 C881 1.392 1_545 S
C882 C883 1.385 . S
C882 C884 1.478 . S
C883 H877 0.930 . S
C883 C879 1.400 . S
C883 C882 1.385 . S
C884 C882 1.478 . S
C884 C886 1.381 1_545 S
C884 C890 1.383 . S
C885 C881 1.495 . S
C885 H891 0.959 . S
C885 H892 0.961 . S
C885 H893 0.960 . S
C886 C884 1.381 1_565 S
C886 C887 1.394 . S
C886 H894 0.930 . S
C887 C886 1.394 . S
C887 C888 1.383 1_565 S
C887 H895 0.929 . S
C888 C887 1.383 1_545 S
C888 C889 1.377 . S
C889 H873 0.930 . S
C889 C888 1.377 . S
C889 C890 1.379 . S
C890 H874 0.931 . S
C890 C884 1.383 . S
C890 C889 1.379 . S
H891 C885 0.959 . S
H892 C885 0.961 . S
H893 C885 0.960 . S
H894 C886 0.930 . S
H895 C887 0.929 . S
H896 C904 0.929 . S
H897 C906 0.930 . S
H898 C908 0.930 . S
H899 C911 0.929 . S
H900 C914 0.930 . S
H901 C916 0.960 . S
H902 C916 0.960 . S
H903 C916 0.960 . S
C904 H896 0.929 . S
C904 C905 1.377 . S
C904 C906 1.384 . S
C905 C904 1.377 . S
C905 C911 1.390 . S
C906 H897 0.930 . S
C906 C904 1.384 . S
C906 C907 1.372 . S
C907 C906 1.372 . S
C907 C908 1.400 . S
C907 C912 1.490 . S
C908 H898 0.930 . S
C908 C907 1.400 . S
C908 C911 1.386 . S
H909 C925 0.930 . S
H910 C926 0.931 . S
C911 H899 0.929 . S
C911 C905 1.390 . S
C911 C908 1.386 . S
C912 C907 1.490 . S
C912 C914 1.395 . S
C912 C915 1.403 . S
H913 C919 0.930 . S
C914 H900 0.930 . S
C914 C912 1.395 . S
C914 C917 1.403 . S
C915 C912 1.403 . S
C915 C916 1.524 . S
C915 C919 1.400 . S
C916 H901 0.960 . S
C916 H902 0.960 . S
C916 H903 0.960 . S
C916 C915 1.524 . S
C917 C914 1.403 . S
C917 C918 1.392 . S
C917 C921 1.495 . S
C918 C917 1.392 . S
C918 C919 1.385 . S
C918 C920 1.478 . S
C919 H913 0.930 . S
C919 C915 1.400 . S
C919 C918 1.385 . S
C920 C918 1.478 . S
C920 C922 1.381 . S
C920 C926 1.383 . S
C921 C917 1.495 . S
C921 H927 0.959 . S
C921 H928 0.961 . S
C921 H929 0.960 . S
C922 C920 1.381 . S
C922 C923 1.394 . S
C922 H930 0.930 . S
C923 C922 1.394 . S
C923 C924 1.383 . S
C923 H931 0.929 . S
C924 C923 1.383 . S
C924 C925 1.377 . S
C925 H909 0.930 . S
C925 C924 1.377 . S
C925 C926 1.379 . S
C926 H910 0.931 . S
C926 C920 1.383 . S
C926 C925 1.379 . S
H927 C921 0.959 . S
H928 C921 0.961 . S
H929 C921 0.960 . S
H930 C922 0.930 . S
H931 C923 0.929 . S
H932 C940 0.929 . S
H933 C942 0.930 . S
H934 C944 0.930 . S
H935 C947 0.929 . S
H936 C950 0.930 . S
H937 C952 0.960 . S
H938 C952 0.960 . S
H939 C952 0.960 . S
C940 H932 0.929 . S
C940 C941 1.377 . S
C940 C942 1.384 . S
C941 C940 1.377 . S
C941 C947 1.390 . S
C942 H933 0.930 . S
C942 C940 1.384 . S
C942 C943 1.372 . S
C943 C942 1.372 . S
C943 C944 1.400 . S
C943 C948 1.490 . S
C944 H934 0.930 . S
C944 C943 1.400 . S
C944 C947 1.386 . S
H945 C961 0.930 . S
H946 C962 0.931 . S
C947 H935 0.929 . S
C947 C941 1.390 . S
C947 C944 1.386 . S
C948 C943 1.490 . S
C948 C950 1.395 . S
C948 C951 1.403 . S
H949 C955 0.930 . S
C950 H936 0.930 . S
C950 C948 1.395 . S
C950 C953 1.403 . S
C951 C948 1.403 . S
C951 C952 1.524 . S
C951 C955 1.400 . S
C952 H937 0.960 . S
C952 H938 0.960 . S
C952 H939 0.960 . S
C952 C951 1.524 . S
C953 C950 1.403 . S
C953 C954 1.392 . S
C953 C957 1.495 . S
C954 C953 1.392 . S
C954 C955 1.385 . S
C954 C956 1.478 . S
C955 H949 0.930 . S
C955 C951 1.400 . S
C955 C954 1.385 . S
C956 C954 1.478 . S
C956 C958 1.381 . S
C956 C962 1.383 . S
C957 C953 1.495 . S
C957 H963 0.959 . S
C957 H964 0.961 . S
C957 H965 0.960 . S
C958 C956 1.381 . S
C958 C959 1.394 . S
C958 H966 0.930 . S
C959 C958 1.394 . S
C959 C960 1.383 . S
C959 H967 0.929 . S
C960 C959 1.383 . S
C960 C961 1.377 . S
C961 H945 0.930 . S
C961 C960 1.377 . S
C961 C962 1.379 . S
C962 H946 0.931 . S
C962 C956 1.383 . S
C962 C961 1.379 . S
H963 C957 0.959 . S
H964 C957 0.961 . S
H965 C957 0.960 . S
H966 C958 0.930 . S
H967 C959 0.929 . S
H968 C976 0.929 . S
H969 C978 0.930 . S
H970 C980 0.930 . S
H971 C983 0.929 . S
H972 C986 0.930 . S
H973 C988 0.960 . S
H974 C988 0.960 . S
H975 C988 0.960 . S
C976 H968 0.929 . S
C976 C977 1.377 . S
C976 C978 1.384 . S
C977 C976 1.377 . S
C977 C983 1.390 1_655 S
C978 H969 0.930 . S
C978 C976 1.384 . S
C978 C979 1.372 . S
C979 C978 1.372 . S
C979 C980 1.400 1_655 S
C979 C984 1.490 . S
C980 H970 0.930 . S
C980 C979 1.400 1_455 S
C980 C983 1.386 . S
H981 C997 0.930 . S
H982 C998 0.931 . S
C983 H971 0.929 . S
C983 C977 1.390 1_455 S
C983 C980 1.386 . S
C984 C979 1.490 . S
C984 C986 1.395 1_655 S
C984 C987 1.403 . S
H985 C991 0.930 . S
C986 H972 0.930 . S
C986 C984 1.395 1_455 S
C986 C989 1.403 . S
C987 C984 1.403 . S
C987 C988 1.524 . S
C987 C991 1.400 . S
C988 H973 0.960 . S
C988 H974 0.960 . S
C988 H975 0.960 . S
C988 C987 1.524 . S
C989 C986 1.403 . S
C989 C990 1.392 1_455 S
C989 C993 1.495 . S
C990 C989 1.392 1_655 S
C990 C991 1.385 . S
C990 C992 1.478 . S
C991 H985 0.930 . S
C991 C987 1.400 . S
C991 C990 1.385 . S
C992 C990 1.478 . S
C992 C994 1.381 . S
C992 C998 1.383 1_655 S
C993 C989 1.495 . S
C993 H999 0.959 . S
C993 H1000 0.961 . S
C993 H1001 0.960 . S
C994 C992 1.381 . S
C994 C995 1.394 . S
C994 H1002 0.930 . S
C995 C994 1.394 . S
C995 C996 1.383 . S
C995 H1003 0.929 . S
C996 C995 1.383 . S
C996 C997 1.377 1_655 S
C997 H981 0.930 . S
C997 C996 1.377 1_455 S
C997 C998 1.379 . S
C998 H982 0.931 . S
C998 C992 1.383 1_455 S
C998 C997 1.379 . S
H999 C993 0.959 . S
H1000 C993 0.961 . S
H1001 C993 0.960 . S
H1002 C994 0.930 . S
H1003 C995 0.929 . S
H1004 C1012 0.929 . S
H1005 C1014 0.930 . S
H1006 C1016 0.930 . S
H1007 C1019 0.929 . S
H1008 C1022 0.927 1_545 S
H1009 C1024 0.960 . S
H1010 C1024 0.960 1_545 S
H1011 C1024 0.960 . S
C1012 H1004 0.929 . S
C1012 C1013 1.341 1_545 S
C1012 C1014 1.384 . S
C1013 C1012 1.341 1_565 S
C1013 C1019 1.428 . S
C1014 H1005 0.930 . S
C1014 C1012 1.384 . S
C1014 C1015 1.372 1_545 S
C1015 C1014 1.372 1_565 S
C1015 C1016 1.400 . S
C1015 C1020 1.490 . S
C1016 H1006 0.930 . S
C1016 C1015 1.400 . S
C1016 C1019 1.386 . S
H1017 C1033 0.930 . S
H1018 C1034 0.931 . S
C1019 H1007 0.929 . S
C1019 C1013 1.428 . S
C1019 C1016 1.386 . S
C1020 C1015 1.490 . S
C1020 C1022 1.397 . S
C1020 C1023 1.403 . S
H1021 C1027 0.930 . S
C1022 H1008 0.927 1_565 S
C1022 C1020 1.397 . S
C1022 C1025 1.405 . S
C1023 C1020 1.403 . S
C1023 C1024 1.524 . S
C1023 C1027 1.400 . S
C1024 H1009 0.960 . S
C1024 H1010 0.960 1_565 S
C1024 H1011 0.960 . S
C1024 C1023 1.524 . S
C1025 C1022 1.405 . S
C1025 C1026 1.392 . S
C1025 C1029 1.496 1_565 S
C1026 C1025 1.392 . S
C1026 C1027 1.385 . S
C1026 C1028 1.478 . S
C1027 H1021 0.930 . S
C1027 C1023 1.400 . S
C1027 C1026 1.385 . S
C1028 C1026 1.478 . S
C1028 C1030 1.381 1_565 S
C1028 C1034 1.383 . S
C1029 C1025 1.496 1_545 S
C1029 H1035 0.959 . S
C1029 H1036 0.965 1_545 S
C1029 H1037 0.956 . S
C1030 C1028 1.381 1_545 S
C1030 C1031 1.394 . S
C1030 H1038 0.930 . S
C1031 C1030 1.394 . S
C1031 C1032 1.383 1_545 S
C1031 H1039 0.929 . S
C1032 C1031 1.383 1_565 S
C1032 C1033 1.377 . S
C1033 H1017 0.930 . S
C1033 C1032 1.377 . S
C1033 C1034 1.379 . S
C1034 H1018 0.931 . S
C1034 C1028 1.383 . S
C1034 C1033 1.379 . S
H1035 C1029 0.959 . S
H1036 C1029 0.965 1_565 S
H1037 C1029 0.956 . S
H1038 C1030 0.930 . S
H1039 C1031 0.929 . S
H1040 C1048 0.929 . S
H1041 C1050 0.930 . S
H1042 C1052 0.930 . S
H1043 C1055 0.929 . S
H1044 C1058 0.930 . S
H1045 C1060 0.960 . S
H1046 C1060 0.960 . S
H1047 C1060 0.960 . S
C1048 H1040 0.929 . S
C1048 C1049 1.377 . S
C1048 C1050 1.384 . S
C1049 C1048 1.377 . S
C1049 C1055 1.390 . S
C1050 H1041 0.930 . S
C1050 C1048 1.384 . S
C1050 C1051 1.372 . S
C1051 C1050 1.372 . S
C1051 C1052 1.400 . S
C1051 C1056 1.490 . S
C1052 H1042 0.930 . S
C1052 C1051 1.400 . S
C1052 C1055 1.386 . S
H1053 C1069 0.930 . S
H1054 C1070 0.931 . S
C1055 H1043 0.929 . S
C1055 C1049 1.390 . S
C1055 C1052 1.386 . S
C1056 C1051 1.490 . S
C1056 C1058 1.395 . S
C1056 C1059 1.403 . S
H1057 C1063 0.930 . S
C1058 H1044 0.930 . S
C1058 C1056 1.395 . S
C1058 C1061 1.403 . S
C1059 C1056 1.403 . S
C1059 C1060 1.524 . S
C1059 C1063 1.400 . S
C1060 H1045 0.960 . S
C1060 H1046 0.960 . S
C1060 H1047 0.960 . S
C1060 C1059 1.524 . S
C1061 C1058 1.403 . S
C1061 C1062 1.392 . S
C1061 C1065 1.495 . S
C1062 C1061 1.392 . S
C1062 C1063 1.385 . S
C1062 C1064 1.478 . S
C1063 H1057 0.930 . S
C1063 C1059 1.400 . S
C1063 C1062 1.385 . S
C1064 C1062 1.478 . S
C1064 C1066 1.381 . S
C1064 C1070 1.383 . S
C1065 C1061 1.495 . S
C1065 H1071 0.959 . S
C1065 H1072 0.961 . S
C1065 H1073 0.960 . S
C1066 C1064 1.381 . S
C1066 C1067 1.394 . S
C1066 H1074 0.930 . S
C1067 C1066 1.394 . S
C1067 C1068 1.383 . S
C1067 H1075 0.929 . S
C1068 C1067 1.383 . S
C1068 C1069 1.377 . S
C1069 H1053 0.930 . S
C1069 C1068 1.377 . S
C1069 C1070 1.379 . S
C1070 H1054 0.931 . S
C1070 C1064 1.383 . S
C1070 C1069 1.379 . S
H1071 C1065 0.959 . S
H1072 C1065 0.961 . S
H1073 C1065 0.960 . S
H1074 C1066 0.930 . S
H1075 C1067 0.929 . S
H1076 C1084 0.929 . S
H1077 C1086 0.930 . S
H1078 C1088 0.930 . S
H1079 C1091 0.929 . S
H1080 C1094 0.930 . S
H1081 C1096 0.960 . S
H1082 C1096 0.960 . S
H1083 C1096 0.960 . S
C1084 H1076 0.929 . S
C1084 C1085 1.377 . S
C1084 C1086 1.384 . S
C1085 C1084 1.377 . S
C1085 C1091 1.390 . S
C1086 H1077 0.930 . S
C1086 C1084 1.384 . S
C1086 C1087 1.372 . S
C1087 C1086 1.372 . S
C1087 C1088 1.400 . S
C1087 C1092 1.490 . S
C1088 H1078 0.930 . S
C1088 C1087 1.400 . S
C1088 C1091 1.386 . S
H1089 C1105 0.930 . S
H1090 C1106 0.931 . S
C1091 H1079 0.929 . S
C1091 C1085 1.390 . S
C1091 C1088 1.386 . S
C1092 C1087 1.490 . S
C1092 C1094 1.395 . S
C1092 C1095 1.403 . S
H1093 C1099 0.930 . S
C1094 H1080 0.930 . S
C1094 C1092 1.395 . S
C1094 C1097 1.403 . S
C1095 C1092 1.403 . S
C1095 C1096 1.524 . S
C1095 C1099 1.400 . S
C1096 H1081 0.960 . S
C1096 H1082 0.960 . S
C1096 H1083 0.960 . S
C1096 C1095 1.524 . S
C1097 C1094 1.403 . S
C1097 C1098 1.392 . S
C1097 C1101 1.495 . S
C1098 C1097 1.392 . S
C1098 C1099 1.385 . S
C1098 C1100 1.478 . S
C1099 H1093 0.930 . S
C1099 C1095 1.400 . S
C1099 C1098 1.385 . S
C1100 C1098 1.478 . S
C1100 C1102 1.381 . S
C1100 C1106 1.383 . S
C1101 C1097 1.495 . S
C1101 H1107 0.959 . S
C1101 H1108 0.961 . S
C1101 H1109 0.960 . S
C1102 C1100 1.381 . S
C1102 C1103 1.394 . S
C1102 H1110 0.930 . S
C1103 C1102 1.394 . S
C1103 C1104 1.383 . S
C1103 H1111 0.929 . S
C1104 C1103 1.383 . S
C1104 C1105 1.377 . S
C1105 H1089 0.930 . S
C1105 C1104 1.377 . S
C1105 C1106 1.379 . S
C1106 H1090 0.931 . S
C1106 C1100 1.383 . S
C1106 C1105 1.379 . S
H1107 C1101 0.959 . S
H1108 C1101 0.961 . S
H1109 C1101 0.960 . S
H1110 C1102 0.930 . S
H1111 C1103 0.929 . S
C257 C74 1.706 . S
C276 C106 1.753 1_545 S
C312 C146 1.755 . S
C293 C85 1.704 . S
C348 C186 1.773 . S
C329 C52 1.699 . S
C384 C226 1.769 1_455 S
C365 C63 1.704 . S
C420 C96 1.770 1_565 S
C401 C30 1.705 1_565 S
C437 C41 1.700 . S
C456 C136 1.762 . S
C473 C8 1.706 . S
C492 C176 1.769 . S
C509 C19 1.700 1_655 S
C528 C216 1.754 . S
C564 C93 0.460 . S
C545 C62 0.405 . S
C600 C133 0.394 . S
C581 C73 0.461 . S
C636 C173 0.423 . S
C617 C84 0.416 . S
C653 C51 0.425 . S
C672 C213 0.382 . S
C689 C18 0.480 1_655 S
C708 C103 0.456 . S
C744 C143 0.451 . S
C725 C29 0.487 1_565 S
C780 C183 0.403 . S
C761 C40 0.459 . S
C797 C7 0.463 . S
C816 C223 0.421 . S
C833 C60 1.590 . S
C852 C97 2.031 . S
C869 C71 1.612 . S
C888 C137 2.023 . S
C924 C177 2.036 . S
C905 C82 1.595 . S
C960 C217 2.015 . S
C941 C49 1.578 . S
C977 C16 1.630 1_655 S
C996 C107 2.024 . S
C1032 C147 2.024 . S
C1013 C27 1.599 1_565 S
C1068 C187 2.013 . S
C1049 C38 1.631 . S
C1085 C5 1.618 . S
C1104 C227 2.040 . S
