# Generated by pormake.
# Topology nia, (6,6)-cn, num edge types: 1
# Building blocks:
#     Node 0, Type 0, BuildingBlock: BETFAJ_clean_sbu_0, # of connection points: 6
#     Node 1, Type 0, BuildingBlock: BETFAJ_clean_sbu_0, # of connection points: 6
#     Node 2, Type 1, BuildingBlock: MIDCAF_clean_sbu_0, # of connection points: 6
#     Node 3, Type 1, BuildingBlock: MIDCAF_clean_sbu_0, # of connection points: 6
#     Edge 4, Type (0, 1), BuildingBlock: EZIPEK_clean_linker_0, # of connection points: 2
#     Edge 5, Type (0, 1), BuildingBlock: EZIPEK_clean_linker_0, # of connection points: 2
#     Edge 6, Type (0, 1), BuildingBlock: EZIPEK_clean_linker_0, # of connection points: 2
#     Edge 7, Type (0, 1), BuildingBlock: EZIPEK_clean_linker_0, # of connection points: 2
#     Edge 8, Type (0, 1), BuildingBlock: EZIPEK_clean_linker_0, # of connection points: 2
#     Edge 9, Type (0, 1), BuildingBlock: EZIPEK_clean_linker_0, # of connection points: 2
#     Edge 10, Type (0, 1), BuildingBlock: EZIPEK_clean_linker_0, # of connection points: 2
#     Edge 11, Type (0, 1), BuildingBlock: EZIPEK_clean_linker_0, # of connection points: 2
#     Edge 12, Type (0, 1), BuildingBlock: EZIPEK_clean_linker_0, # of connection points: 2
#     Edge 13, Type (0, 1), BuildingBlock: EZIPEK_clean_linker_0, # of connection points: 2
#     Edge 14, Type (0, 1), BuildingBlock: EZIPEK_clean_linker_0, # of connection points: 2
#     Edge 15, Type (0, 1), BuildingBlock: EZIPEK_clean_linker_0, # of connection points: 2
# Relax obj value: 0.383
# Max RMSD: 0.283
# Mean RMSD: 0.266
data_MOF--net-nia--node1-BETFAJ_clean_sbu_0--node2-MIDCAF_clean_sbu_0--edge1-EZIPEK_clean_linker_0
_symmetry_space_group_name_H-M    P1
_symmetry_Int_Tables_number       1
_symmetry_cell_setting            triclinic
loop_
_symmetry_equiv_pos_as_xyz
'x, y, z'
_cell_length_a     19.431155
_cell_length_b     22.323306
_cell_length_c     26.85106
_cell_angle_alpha  66.699393
_cell_angle_beta   105.2142
_cell_angle_gamma 128.80781
loop_
_atom_site_label
_atom_site_type_symbol
_atom_site_fract_x
_atom_site_fract_y
_atom_site_fract_z
_atom_type_partial_charge
Sm0 Sm 0.08768 0.06325 0.04535 0.0
Sm1 Sm 0.97915 0.94524 0.99712 0.0
C2 C 0.20525 0.2002 0.06708 0.0
C3 C 0.20332 0.25741 0.07824 0.0
C4 C 0.14489 0.27744 0.05016 0.0
C5 C 0.1437 0.33144 0.06294 0.0
C6 C 0.19993 0.36397 0.10417 0.0
C7 C 0.2557 0.34158 0.13331 0.0
C8 C 0.25768 0.28873 0.12019 0.0
C9 C 0.93197 0.94388 0.10387 0.0
C10 C 0.94 0.07779 0.95686 0.0
C11 C 0.86338 0.80604 0.97717 0.0
C12 C 0.87177 0.75107 0.96812 0.0
C13 C 0.79979 0.68969 0.94706 0.0
C14 C 0.81089 0.64355 0.93184 0.0
C15 C 0.89415 0.6593 0.93727 0.0
C16 C 0.96568 0.71925 0.95974 0.0
C17 C 0.95421 0.76465 0.9756 0.0
C18 C 0.13668 0.06636 0.93954 0.0
C19 C 0.12589 0.93058 0.08699 0.0
O20 O 0.18476 0.19601 0.0175 0.0
O21 O 0.17009 0.13 0.10444 0.0
O22 O 0.9378 0.97216 0.05279 0.0
O23 O 0.01053 0.97873 0.12554 0.0
O24 O 0.01533 0.11751 0.98307 0.0
O25 O 0.90664 0.00442 0.95888 0.0
O26 O 0.88368 0.8121 0.02621 0.0
O27 O 0.89706 0.87572 0.93922 0.0
O28 O 0.12923 0.03606 0.99043 0.0
O29 O 0.05852 0.03152 0.91717 0.0
O30 O 0.05132 0.89123 0.06016 0.0
O31 O 0.15889 0.00367 0.08503 0.0
H32 H 0.10123 0.25221 0.01824 0.0
H33 H 0.10122 0.34942 0.04006 0.0
H34 H 0.29976 0.36722 0.16507 0.0
H35 H 0.30185 0.27253 0.14259 0.0
H36 H 0.73605 0.67913 0.94097 0.0
H37 H 0.75534 0.59706 0.91446 0.0
H38 H 0.03009 0.73154 0.96407 0.0
H39 H 0.01003 0.8117 0.99225 0.0
Sm40 Sm 0.97128 0.01612 0.5427 0.0
Sm41 Sm 0.09958 -0.00169 0.50494 0.0
C42 C 0.8856 0.06668 0.5538 0.0
C43 C 0.84775 0.06497 0.5953 0.0
C44 C 0.79077 0.0879 0.57868 0.0
C45 C 0.76965 0.10504 0.6146 0.0
C46 C 0.80548 0.09958 0.66749 0.0
C47 C 0.85699 0.0705 0.6856 0.0
C48 C 0.87821 0.05332 0.64951 0.0
C49 C 0.93129 0.86206 0.60177 0.0
C50 C 0.91189 0.94542 0.43959 0.0
C51 C 0.17564 0.93792 0.49596 0.0
C52 C 0.20392 0.92841 0.45581 0.0
C53 C 0.24644 0.8908 0.47426 0.0
C54 C 0.26686 0.87363 0.43799 0.0
C55 C 0.24495 0.89374 0.38273 0.0
C56 C 0.20477 0.93377 0.36369 0.0
C57 C 0.1841 0.95093 0.40023 0.0
C58 C 0.13511 0.15148 0.44321 0.0
C59 C 0.16207 0.07124 0.60654 0.0
O60 O 0.84536 -0.00012 0.54219 0.0
O61 O 0.9714 0.10757 0.55583 0.0
O62 O 0.99075 0.91799 0.56645 0.0
O63 O 0.89792 0.89229 0.61044 0.0
O64 O 0.90145 0.97973 0.46467 0.0
O65 O 0.98011 0.94264 0.44886 0.0
O66 O 0.22049 0.01065 0.49968 0.0
O67 O 0.0903 0.89685 0.50007 0.0
O68 O 0.07781 0.09537 0.47985 0.0
O69 O 0.17488 0.12432 0.43809 0.0
O70 O 0.1701 0.03398 0.58291 0.0
O71 O 0.09598 0.07756 0.59536 0.0
H72 H 0.76708 0.09745 0.53698 0.0
H73 H 0.72974 0.12738 0.60016 0.0
H74 H 0.88506 0.0661 0.72635 0.0
H75 H 0.92257 0.03579 0.6629 0.0
H76 H 0.2618 0.87279 0.51703 0.0
H77 H 0.29782 0.84268 0.45325 0.0
H78 H 0.1875 0.94962 0.3211 0.0
H79 H 0.15092 0.97983 0.38547 0.0
Zn80 Zn 0.43586 0.78817 0.12224 0.0
Zn81 Zn 0.40445 0.65363 0.36348 0.0
Zn82 Zn 0.41438 0.69835 0.25932 0.0
C83 C 0.58645 0.763 0.33245 0.0
C84 C 0.30881 0.50393 0.34934 0.0
O85 O 0.34905 0.7654 0.21467 0.0
O86 O 0.38043 0.8353 0.12672 0.0
C87 C 0.59893 0.81715 0.18089 0.0
O88 O 0.55409 0.76037 0.28432 0.0
O89 O 0.53579 0.72218 0.37225 0.0
O90 O 0.33749 0.53312 0.38813 0.0
O91 O 0.32848 0.55398 0.30004 0.0
O92 O 0.5637 0.83591 0.13624 0.0
O93 O 0.55438 0.77127 0.22574 0.0
O94 O 0.33377 0.58702 0.24528 0.0
O95 O 0.37066 0.67633 0.16599 0.0
C96 C 0.32825 0.60373 0.19399 0.0
O97 O 0.36168 0.7521 0.27271 0.0
O98 O 0.34572 0.70292 0.36172 0.0
C99 C 0.3409 0.81141 0.16865 0.0
C100 C 0.33893 0.74639 0.31607 0.0
Zn101 Zn 0.64449 0.25196 0.88741 0.0
Zn102 Zn 0.67101 0.36146 0.68186 0.0
Zn103 Zn 0.66208 0.32021 0.78691 0.0
C104 C 0.76634 0.51092 0.69758 0.0
C105 C 0.48937 0.25666 0.71191 0.0
O106 O 0.72609 0.25113 0.82622 0.0
O107 O 0.68245 0.18049 0.91077 0.0
C108 C 0.78614 0.42657 0.8568 0.0
O109 O 0.74548 0.4624 0.74731 0.0
O110 O 0.74104 0.48133 0.65941 0.0
O111 O 0.5398 0.29539 0.67226 0.0
O112 O 0.5221 0.26105 0.75986 0.0
O113 O 0.74587 0.35978 0.89377 0.0
O114 O 0.75719 0.43068 0.80752 0.0
O115 O 0.51836 0.25115 0.8151 0.0
O116 O 0.52477 0.20813 0.90456 0.0
C117 C 0.48069 0.2153 0.86173 0.0
O118 O 0.70878 0.26353 0.76939 0.0
O119 O 0.72559 0.31107 0.68049 0.0
C120 C 0.72778 0.20246 0.87274 0.0
C121 C 0.72947 0.26637 0.72635 0.0
C122 C 0.27293 0.95041 0.10573 0.0
C123 C 0.17993 0.89822 0.11361 0.0
C124 C 0.1923 0.78586 0.16604 0.0
C125 C 0.28586 0.84023 0.1617 0.0
N126 N 0.41505 0.97802 0.14132 0.0
N127 N 0.05554 0.76953 0.16326 0.0
C128 C 0.32577 0.92381 0.13656 0.0
C129 C 0.14085 0.81683 0.14749 0.0
N130 N 0.31077 0.02304 0.06563 0.0
N131 N 0.15176 0.70453 0.18488 0.0
H132 H 0.0168 0.79051 0.15188 0.0
H133 H 0.02658 0.71248 0.19199 0.0
H134 H 0.18668 0.67956 0.19905 0.0
H135 H 0.08352 0.66213 0.18309 0.0
H136 H 0.37684 0.05937 0.05529 0.0
H137 H 0.2746 0.04228 0.0379 0.0
H138 H 0.44704 0.04031 0.12752 0.0
H139 H 0.45517 0.96016 0.16439 0.0
C140 C 0.28883 0.20237 0.62463 0.0
C141 C 0.23671 0.11664 0.6419 0.0
C142 C 0.34185 0.12075 0.71775 0.0
C143 C 0.39262 0.20648 0.70022 0.0
N144 N 0.39805 0.32515 0.64943 0.0
N145 N 0.20221 0.99347 0.71173 0.0
C146 C 0.35945 0.24558 0.65825 0.0
C147 C 0.25937 0.07549 0.69095 0.0
N148 N 0.27695 0.2432 0.57376 0.0
N149 N 0.37474 0.08297 0.7575 0.0
H150 H 0.14195 0.95918 0.6927 0.0
H151 H 0.21092 0.96052 0.74979 0.0
H152 H 0.43344 0.11387 0.77874 0.0
H153 H 0.34615 0.02175 0.76762 0.0
H154 H 0.31809 0.30587 0.55741 0.0
H155 H 0.23338 0.21402 0.54547 0.0
H156 H 0.37241 0.35555 0.62202 0.0
H157 H 0.45011 0.35769 0.67393 0.0
C158 C 0.16442 0.41174 0.15583 0.0
C159 C 0.2113 0.42955 0.11374 0.0
C160 C 0.33376 0.55875 0.1256 0.0
C161 C 0.28658 0.54292 0.16701 0.0
N162 N 0.14816 0.46525 0.21117 0.0
N163 N 0.32314 0.52803 0.04608 0.0
C164 C 0.19879 0.47274 0.17901 0.0
C165 C 0.28925 0.50684 0.0937 0.0
N166 N 0.08975 0.33581 0.17503 0.0
N167 N 0.42264 0.61857 0.11982 0.0
H168 H 0.29144 0.48926 0.02251 0.0
H169 H 0.37685 0.58633 0.02766 0.0
H170 H 0.46128 0.65254 0.14653 0.0
H171 H 0.46035 0.62755 0.09276 0.0
H172 H 0.05876 0.31651 0.21008 0.0
H173 H 0.0614 0.29117 0.15687 0.0
H174 H 0.0813 0.41799 0.21731 0.0
H175 H 0.17075 0.51005 0.22768 0.0
C176 C 0.86341 0.21764 0.69625 0.0
C177 C 0.79751 0.13485 0.70025 0.0
C178 C 0.69451 0.13278 0.73837 0.0
C179 C 0.75779 0.21715 0.72969 0.0
N180 N 0.90926 0.33346 0.7186 0.0
N181 N 0.66251 0.00822 0.73893 0.0
C182 C 0.84489 0.2573 0.71492 0.0
C183 C 0.71713 0.09044 0.72646 0.0
N184 N 0.94116 0.25949 0.67134 0.0
N185 N 0.61146 0.09457 0.75452 0.0
H186 H 0.67847 0.97669 0.73017 0.0
H187 H 0.60592 0.97104 0.76182 0.0
H188 H 0.59349 0.12338 0.76488 0.0
H189 H 0.55917 0.03532 0.75567 0.0
H190 H 0.98705 0.322 0.66102 0.0
H191 H 0.95824 0.23207 0.65846 0.0
H192 H 0.97603 0.36372 0.71317 0.0
H193 H 0.89649 0.36328 0.73234 0.0
C194 C 0.83743 0.96583 0.13342 0.0
C195 C 0.85281 0.91173 0.13261 0.0
C196 C 0.71502 0.79698 0.18337 0.0
C197 C 0.69374 0.84998 0.17753 0.0
N198 N 0.73575 0.98524 0.14922 0.0
N199 N 0.8082 0.7762 0.15719 0.0
C200 C 0.75618 0.9347 0.15384 0.0
C201 C 0.79263 0.82744 0.15844 0.0
N202 N 0.90116 0.04731 0.11504 0.0
N203 N 0.66037 0.71727 0.21225 0.0
H204 H 0.86525 0.79669 0.14094 0.0
H205 H 0.76343 0.71359 0.16964 0.0
H206 H 0.60308 0.69311 0.23015 0.0
H207 H 0.67464 0.67603 0.22232 0.0
H208 H 0.89906 0.09051 0.11922 0.0
H209 H 0.9601 0.07237 0.09857 0.0
H210 H 0.77085 0.04581 0.12605 0.0
H211 H 0.68081 0.96539 0.16757 0.0
C212 C 0.94448 0.74251 0.63906 0.0
C213 C 0.89272 0.77204 0.62598 0.0
C214 C 0.76705 0.6333 0.67322 0.0
C215 C 0.81522 0.60204 0.68106 0.0
N216 N 0.94655 0.62672 0.66129 0.0
N217 N 0.74362 0.73397 0.61486 0.0
C218 C 0.90276 0.65669 0.66043 0.0
C219 C 0.80101 0.71427 0.63909 0.0
N220 N 0.03388 0.79581 0.63334 0.0
N221 N 0.687 0.58495 0.697 0.0
H222 H 0.76201 0.78769 0.58395 0.0
H223 H 0.67542 0.69237 0.6194 0.0
H224 H 0.65935 0.52522 0.72122 0.0
H225 H 0.65263 0.6067 0.69691 0.0
H226 H 0.07593 0.77828 0.6473 0.0
H227 H 0.06691 0.85818 0.61919 0.0
H228 H 1.00593 0.66162 0.64159 0.0
H229 H 0.92063 0.56569 0.67908 0.0
C230 C 0.19489 0.78985 0.34073 0.0
C231 C 0.26094 0.86786 0.34656 0.0
C232 C 0.37328 0.87561 0.31369 0.0
C233 C 0.30928 0.79414 0.31404 0.0
N234 N 0.15728 0.68146 0.31231 0.0
N235 N 0.40483 0.99374 0.32499 0.0
C236 C 0.21904 0.75407 0.32202 0.0
C237 C 0.34754 0.91394 0.32793 0.0
N238 N 0.11061 0.7485 0.35632 0.0
N239 N 0.45929 0.91416 0.30296 0.0
H240 H 0.38655 0.02235 0.33538 0.0
H241 H 0.4674 0.03304 0.30851 0.0
H242 H 0.47928 0.88853 0.2905 0.0
H243 H 0.51149 0.9703 0.30774 0.0
H244 H 0.06108 0.68813 0.35898 0.0
H245 H 0.0905 0.77446 0.36825 0.0
H246 H 0.08945 0.65153 0.31271 0.0
H247 H 0.17441 0.65396 0.29948 0.0
C248 C 0.24323 0.05428 0.91324 0.0
C249 C 0.21883 0.10349 0.91114 0.0
C250 C 0.35424 0.2231 0.8593 0.0
C251 C 0.38423 0.17559 0.86814 0.0
N252 N 0.3564 0.04512 0.90206 0.0
N253 N 0.25013 0.23483 0.88197 0.0
C254 C 0.32778 0.09074 0.89426 0.0
C255 C 0.27364 0.18787 0.88339 0.0
N256 N 0.18439 0.97215 0.93243 0.0
N257 N 0.40332 0.30213 0.82806 0.0
H258 H 0.191 0.21075 0.89773 0.0
H259 H 0.29048 0.29763 0.86781 0.0
H260 H 0.46233 0.32915 0.81068 0.0
H261 H 0.38283 0.33924 0.81573 0.0
H262 H 0.19314 0.93167 0.93051 0.0
H263 H 0.1226 0.94386 0.9466 0.0
H264 H 0.32556 0.98561 0.92706 0.0
H265 H 0.41376 0.06811 0.88472 0.0
C266 C 0.20857 0.28219 0.36254 0.0
C267 C 0.16386 0.23884 0.41306 0.0
C268 C 0.18699 0.3649 0.40553 0.0
C269 C 0.2496 0.41165 0.36367 0.0
N270 N 0.32447 0.41097 0.30522 0.0
N271 N 0.12236 0.2491 0.48513 0.0
C272 C 0.26106 0.36917 0.34256 0.0
C273 C 0.15532 0.28278 0.43484 0.0
N274 N 0.19815 0.24041 0.33202 0.0
N275 N 0.15606 0.39855 0.41699 0.0
H276 H 0.10435 0.19229 0.5094 0.0
H277 H 0.12339 0.28131 0.50511 0.0
H278 H 0.17414 0.4567 0.39484 0.0
H279 H 0.10461 0.36541 0.4436 0.0
H280 H 0.22289 0.26832 0.29306 0.0
H281 H 0.1548 0.17759 0.3424 0.0
H282 H 0.34165 0.38326 0.29278 0.0
H283 H 0.36505 0.47375 0.29019 0.0
C284 C 0.92464 0.19065 0.89449 0.0
C285 C 0.8862 0.11065 0.93078 0.0
C286 C 0.74128 0.08752 0.91194 0.0
C287 C 0.78161 0.17072 0.88379 0.0
N288 N 0.91668 0.30463 0.85385 0.0
N289 N 0.75825 0.9895 0.98317 0.0
C290 C 0.87466 0.2232 0.87602 0.0
C291 C 0.79441 0.06061 0.94169 0.0
N292 N 0.00801 0.23503 0.87632 0.0
N293 N 0.65151 0.0335 0.90988 0.0
H294 H 0.79501 0.96969 0.0092 0.0
H295 H 0.69383 0.95512 0.99595 0.0
H296 H 0.61089 0.05078 0.8869 0.0
H297 H 0.61895 0.97117 0.92567 0.0
H298 H 0.03601 0.29026 0.84564 0.0
H299 H 0.04573 0.21297 0.888 0.0
H300 H 0.98521 0.34623 0.85291 0.0
H301 H 0.88367 0.33133 0.84015 0.0
C302 C 0.79081 0.81599 0.41722 0.0
C303 C 0.83917 0.90128 0.40319 0.0
C304 C 0.73296 0.89855 0.32835 0.0
C305 C 0.68301 0.81298 0.34447 0.0
N306 N 0.67454 0.6925 0.39606 0.0
N307 N 0.87057 0.02562 0.33675 0.0
C308 C 0.71675 0.77327 0.38534 0.0
C309 C 0.81481 0.94324 0.35579 0.0
N310 N 0.81022 0.77225 0.46257 0.0
N311 N 0.69939 0.93651 0.28959 0.0
H312 H 0.93079 0.05949 0.35597 0.0
H313 H 0.86121 0.05974 0.29965 0.0
H314 H 0.64104 0.90613 0.26795 0.0
H315 H 0.72692 -0.00273 0.2806 0.0
H316 H 0.86025 0.7964 0.49076 0.0
H317 H 0.86025 0.7964 0.49076 0.0
H318 H 0.69598 0.66036 0.42659 0.0
H319 H 0.62099 0.65926 0.37251 0.0
C320 C 0.89842 0.54419 0.9527 0.0
C321 C 0.90566 0.61438 0.91678 0.0
C322 C 0.8929 0.57709 0.83941 0.0
C323 C 0.85883 0.49863 0.87446 0.0
N324 N 0.88863 0.42692 0.96067 0.0
N325 N 0.92585 0.70621 0.82598 0.0
C326 C 0.88133 0.48831 0.93031 0.0
C327 C 0.91021 0.63462 0.86002 0.0
N328 N 0.90131 0.5284 0.00753 0.0
N329 N 0.91766 0.59818 0.789 0.0
H330 H 0.94216 0.75102 0.84025 0.0
H331 H 0.9193 0.71924 0.78391 0.0
H332 H 0.91312 0.55711 0.77643 0.0
H333 H 0.95433 0.658 0.76434 0.0
H334 H 0.88602 0.47352 0.03542 0.0
H335 H 0.91558 0.56935 0.02504 0.0
H336 H 0.91043 0.41919 1.00099 0.0
H337 H 0.88287 0.3898 0.94299 0.0
loop_
_geom_bond_atom_site_label_1
_geom_bond_atom_site_label_2
_geom_bond_distance
_geom_bond_site_symmetry_2
_ccdc_geom_bond_type
Sm0 C2 2.846 . S
Sm0 O20 2.543 . S
Sm0 O21 2.450 . S
Sm0 O22 2.681 1_445 S
Sm0 O23 2.464 1_445 S
Sm0 O24 2.396 . S
Sm0 O28 2.386 1_554 S
Sm0 O31 2.408 1_545 S
Sm1 C11 2.846 . S
Sm1 O22 2.386 1_556 S
Sm1 O25 2.408 1_565 S
Sm1 O26 2.543 . S
Sm1 O27 2.450 . S
Sm1 O28 2.681 1_665 S
Sm1 O29 2.464 1_665 S
Sm1 O30 2.396 1_656 S
C2 Sm0 2.846 . S
C2 C3 1.506 . S
C2 O20 1.261 . S
C2 O21 1.242 . S
C3 C2 1.506 . S
C3 C4 1.358 . S
C3 C8 1.382 . S
C4 C3 1.358 . S
C4 C5 1.385 . S
C4 H32 0.930 . S
C5 C4 1.385 . S
C5 C6 1.395 . S
C5 H33 0.929 . S
C6 C5 1.395 . S
C6 C7 1.335 . S
C7 C6 1.335 . S
C7 C8 1.398 . S
C7 H34 0.930 . S
C8 C3 1.382 . S
C8 C7 1.398 . S
C8 H35 0.929 . S
C9 O22 1.271 . S
C9 O23 1.251 . S
C10 O24 1.252 1_656 S
C10 O25 1.272 . S
C11 Sm1 2.846 . S
C11 C12 1.506 . S
C11 O26 1.261 . S
C11 O27 1.242 . S
C12 C11 1.506 . S
C12 C13 1.358 . S
C12 C17 1.382 . S
C13 C12 1.358 . S
C13 C14 1.385 . S
C13 H36 0.930 1_556 S
C14 C13 1.385 . S
C14 C15 1.395 . S
C14 H37 0.929 1_556 S
C15 C14 1.395 . S
C15 C16 1.335 . S
C16 C15 1.335 . S
C16 C17 1.398 . S
C16 H38 0.930 . S
C17 C12 1.382 . S
C17 C16 1.398 . S
C17 H39 0.929 . S
C18 O28 1.271 . S
C18 O29 1.251 . S
C19 O30 1.252 . S
C19 O31 1.272 . S
O20 Sm0 2.543 . S
O20 C2 1.261 . S
O21 Sm0 2.450 . S
O21 C2 1.242 . S
O22 Sm0 2.681 1_665 S
O22 Sm1 2.386 1_554 S
O22 C9 1.271 . S
O23 Sm0 2.464 1_665 S
O23 C9 1.251 . S
O24 Sm0 2.396 . S
O24 C10 1.252 1_454 S
O25 Sm1 2.408 1_545 S
O25 C10 1.272 . S
O26 Sm1 2.543 . S
O26 C11 1.261 . S
O27 Sm1 2.450 . S
O27 C11 1.242 . S
O28 Sm0 2.386 1_556 S
O28 Sm1 2.681 1_445 S
O28 C18 1.271 . S
O29 Sm1 2.464 1_445 S
O29 C18 1.251 . S
O30 Sm1 2.396 1_454 S
O30 C19 1.252 . S
O31 Sm0 2.408 1_565 S
O31 C19 1.272 . S
H32 C4 0.930 . S
H33 C5 0.929 . S
H34 C7 0.930 . S
H35 C8 0.929 . S
H36 C13 0.930 1_554 S
H37 C14 0.929 1_554 S
H38 C16 0.930 . S
H39 C17 0.929 . S
Sm40 C42 2.846 1_455 S
Sm40 O60 2.543 1_455 S
Sm40 O61 2.450 1_455 S
Sm40 O62 2.681 1_545 S
Sm40 O63 2.464 1_445 S
Sm40 O64 2.396 1_445 S
Sm40 O68 2.386 . S
Sm40 O71 2.408 . S
Sm41 C51 2.846 . S
Sm41 O62 2.386 . S
Sm41 O65 2.408 1_455 S
Sm41 O66 2.543 . S
Sm41 O67 2.450 1_565 S
Sm41 O68 2.681 1_565 S
Sm41 O69 2.464 1_565 S
Sm41 O70 2.396 1_565 S
C42 Sm40 2.846 1_655 S
C42 C43 1.506 . S
C42 O60 1.261 . S
C42 O61 1.242 . S
C43 C42 1.506 . S
C43 C44 1.358 . S
C43 C48 1.382 . S
C44 C43 1.358 . S
C44 C45 1.385 . S
C44 H72 0.930 . S
C45 C44 1.385 . S
C45 C46 1.395 . S
C45 H73 0.929 . S
C46 C45 1.395 . S
C46 C47 1.335 . S
C47 C46 1.335 . S
C47 C48 1.398 . S
C47 H74 0.930 1_545 S
C48 C43 1.382 . S
C48 C47 1.398 . S
C48 H75 0.929 1_545 S
C49 O62 1.271 1_655 S
C49 O63 1.251 . S
C50 O64 1.252 . S
C50 O65 1.272 . S
C51 Sm41 2.846 . S
C51 C52 1.506 . S
C51 O66 1.261 . S
C51 O67 1.242 1_565 S
C52 C51 1.506 . S
C52 C53 1.358 . S
C52 C57 1.382 1_565 S
C53 C52 1.358 . S
C53 C54 1.385 . S
C53 H76 0.930 . S
C54 C53 1.385 . S
C54 C55 1.395 . S
C54 H77 0.929 . S
C55 C54 1.395 . S
C55 C56 1.335 1_565 S
C56 C55 1.335 1_545 S
C56 C57 1.398 . S
C56 H78 0.930 . S
C57 C52 1.382 1_545 S
C57 C56 1.398 . S
C57 H79 0.929 . S
C58 O68 1.271 . S
C58 O69 1.251 . S
C59 O70 1.252 . S
C59 O71 1.272 . S
O60 Sm40 2.543 1_655 S
O60 C42 1.261 . S
O61 Sm40 2.450 1_655 S
O61 C42 1.242 . S
O62 Sm40 2.681 1_565 S
O62 Sm41 2.386 . S
O62 C49 1.271 1_455 S
O63 Sm40 2.464 1_665 S
O63 C49 1.251 . S
O64 Sm40 2.396 1_665 S
O64 C50 1.252 . S
O65 Sm41 2.408 1_655 S
O65 C50 1.272 . S
O66 Sm41 2.543 . S
O66 C51 1.261 . S
O67 Sm41 2.450 1_545 S
O67 C51 1.242 1_545 S
O68 Sm40 2.386 . S
O68 Sm41 2.681 1_545 S
O68 C58 1.271 . S
O69 Sm41 2.464 1_545 S
O69 C58 1.251 . S
O70 Sm41 2.396 1_545 S
O70 C59 1.252 . S
O71 Sm40 2.408 . S
O71 C59 1.272 . S
H72 C44 0.930 . S
H73 C45 0.929 . S
H74 C47 0.930 1_565 S
H75 C48 0.929 1_565 S
H76 C53 0.930 . S
H77 C54 0.929 . S
H78 C56 0.930 . S
H79 C57 0.929 . S
Zn80 O86 1.920 . S
Zn80 O92 1.898 . S
Zn80 O95 1.905 . S
Zn81 O89 1.905 . S
Zn81 O90 1.898 . S
Zn81 O98 1.920 . S
Zn82 O85 2.080 . S
Zn82 O88 2.114 . S
Zn82 O91 2.120 . S
Zn82 O93 2.120 . S
Zn82 O94 2.114 . S
Zn82 O97 2.080 . S
C83 O88 1.166 . S
C83 O89 1.182 . S
C84 O90 1.167 . S
C84 O91 1.299 . S
O85 Zn82 2.080 . S
O85 C99 1.305 . S
O86 Zn80 1.920 . S
O86 C99 1.234 . S
C87 O92 1.167 . S
C87 O93 1.299 . S
O88 Zn82 2.114 . S
O88 C83 1.166 . S
O89 Zn81 1.905 . S
O89 C83 1.182 . S
O90 Zn81 1.898 . S
O90 C84 1.167 . S
O91 Zn82 2.120 . S
O91 C84 1.299 . S
O92 Zn80 1.898 . S
O92 C87 1.167 . S
O93 Zn82 2.120 . S
O93 C87 1.299 . S
O94 Zn82 2.114 . S
O94 C96 1.166 . S
O95 Zn80 1.905 . S
O95 C96 1.182 . S
C96 O94 1.166 . S
C96 O95 1.182 . S
O97 Zn82 2.080 . S
O97 C100 1.305 . S
O98 Zn81 1.920 . S
O98 C100 1.234 . S
C99 O85 1.305 . S
C99 O86 1.234 . S
C100 O97 1.305 . S
C100 O98 1.234 . S
Zn101 O107 1.920 . S
Zn101 O113 1.898 . S
Zn101 O116 1.905 . S
Zn102 O110 1.905 . S
Zn102 O111 1.898 . S
Zn102 O119 1.920 . S
Zn103 O106 2.080 . S
Zn103 O109 2.114 . S
Zn103 O112 2.120 . S
Zn103 O114 2.120 . S
Zn103 O115 2.114 . S
Zn103 O118 2.080 . S
C104 O109 1.166 . S
C104 O110 1.182 . S
C105 O111 1.167 . S
C105 O112 1.299 . S
O106 Zn103 2.080 . S
O106 C120 1.305 . S
O107 Zn101 1.920 . S
O107 C120 1.234 . S
C108 O113 1.167 . S
C108 O114 1.299 . S
O109 Zn103 2.114 . S
O109 C104 1.166 . S
O110 Zn102 1.905 . S
O110 C104 1.182 . S
O111 Zn102 1.898 . S
O111 C105 1.167 . S
O112 Zn103 2.120 . S
O112 C105 1.299 . S
O113 Zn101 1.898 . S
O113 C108 1.167 . S
O114 Zn103 2.120 . S
O114 C108 1.299 . S
O115 Zn103 2.114 . S
O115 C117 1.166 . S
O116 Zn101 1.905 . S
O116 C117 1.182 . S
C117 O115 1.166 . S
C117 O116 1.182 . S
O118 Zn103 2.080 . S
O118 C121 1.305 . S
O119 Zn102 1.920 . S
O119 C121 1.234 . S
C120 O106 1.305 . S
C120 O107 1.234 . S
C121 O118 1.305 . S
C121 O119 1.234 . S
C122 C123 1.363 . S
C122 C128 1.379 . S
C122 N130 1.356 . S
C123 C122 1.363 . S
C123 C129 1.363 . S
C124 C125 1.363 . S
C124 C129 1.379 . S
C124 N131 1.356 . S
C125 C124 1.363 . S
C125 C128 1.363 . S
N126 C128 1.356 . S
N126 H138 0.984 . S
N126 H139 0.985 . S
N127 C129 1.356 . S
N127 H132 0.984 . S
N127 H133 0.985 1_455 S
C128 C122 1.379 . S
C128 C125 1.363 . S
C128 N126 1.356 . S
C129 C123 1.363 . S
C129 C124 1.379 . S
C129 N127 1.356 . S
N130 C122 1.356 . S
N130 H136 0.984 1_565 S
N130 H137 0.984 . S
N131 C124 1.356 . S
N131 H134 0.984 . S
N131 H135 0.985 . S
H132 N127 0.984 . S
H133 N127 0.985 1_655 S
H134 N131 0.984 . S
H135 N131 0.985 . S
H136 N130 0.984 1_545 S
H137 N130 0.984 . S
H138 N126 0.984 . S
H139 N126 0.985 . S
C140 C141 1.363 . S
C140 C146 1.379 . S
C140 N148 1.356 . S
C141 C140 1.363 . S
C141 C147 1.363 . S
C142 C143 1.363 . S
C142 C147 1.379 . S
C142 N149 1.356 . S
C143 C142 1.363 . S
C143 C146 1.363 . S
N144 C146 1.356 . S
N144 H156 0.984 . S
N144 H157 0.985 . S
N145 C147 1.356 1_565 S
N145 H150 0.984 . S
N145 H151 0.985 . S
C146 C140 1.379 . S
C146 C143 1.363 . S
C146 N144 1.356 . S
C147 C141 1.363 . S
C147 C142 1.379 . S
C147 N145 1.356 1_545 S
N148 C140 1.356 . S
N148 H154 0.984 . S
N148 H155 0.984 . S
N149 C142 1.356 . S
N149 H152 0.984 . S
N149 H153 0.985 . S
H150 N145 0.984 . S
H151 N145 0.985 . S
H152 N149 0.984 . S
H153 N149 0.985 . S
H154 N148 0.984 . S
H155 N148 0.984 . S
H156 N144 0.984 . S
H157 N144 0.985 . S
C158 C159 1.363 . S
C158 C164 1.379 . S
C158 N166 1.356 . S
C159 C158 1.363 . S
C159 C165 1.363 . S
C160 C161 1.363 . S
C160 C165 1.379 . S
C160 N167 1.356 . S
C161 C160 1.363 . S
C161 C164 1.363 . S
N162 C164 1.356 . S
N162 H174 0.984 . S
N162 H175 0.985 . S
N163 C165 1.356 . S
N163 H168 0.984 . S
N163 H169 0.985 . S
C164 C158 1.379 . S
C164 C161 1.363 . S
C164 N162 1.356 . S
C165 C159 1.363 . S
C165 C160 1.379 . S
C165 N163 1.356 . S
N166 C158 1.356 . S
N166 H172 0.984 . S
N166 H173 0.984 . S
N167 C160 1.356 . S
N167 H170 0.984 . S
N167 H171 0.985 . S
H168 N163 0.984 . S
H169 N163 0.985 . S
H170 N167 0.984 . S
H171 N167 0.985 . S
H172 N166 0.984 . S
H173 N166 0.984 . S
H174 N162 0.984 . S
H175 N162 0.985 . S
C176 C177 1.363 . S
C176 C182 1.379 . S
C176 N184 1.356 . S
C177 C176 1.363 . S
C177 C183 1.363 . S
C178 C179 1.363 . S
C178 C183 1.379 . S
C178 N185 1.356 . S
C179 C178 1.363 . S
C179 C182 1.363 . S
N180 C182 1.356 . S
N180 H192 0.984 . S
N180 H193 0.985 . S
N181 C183 1.356 . S
N181 H186 0.984 . S
N181 H187 0.985 1_545 S
C182 C176 1.379 . S
C182 C179 1.363 . S
C182 N180 1.356 . S
C183 C177 1.363 . S
C183 C178 1.379 . S
C183 N181 1.356 . S
N184 C176 1.356 . S
N184 H190 0.984 . S
N184 H191 0.984 . S
N185 C178 1.356 . S
N185 H188 0.984 . S
N185 H189 0.985 . S
H186 N181 0.984 . S
H187 N181 0.985 1_565 S
H188 N185 0.984 . S
H189 N185 0.985 . S
H190 N184 0.984 . S
H191 N184 0.984 . S
H192 N180 0.984 . S
H193 N180 0.985 . S
C194 C195 1.363 . S
C194 C200 1.379 . S
C194 N202 1.356 1_565 S
C195 C194 1.363 . S
C195 C201 1.363 . S
C196 C197 1.363 . S
C196 C201 1.379 . S
C196 N203 1.356 . S
C197 C196 1.363 . S
C197 C200 1.363 . S
N198 C200 1.356 1_545 S
N198 H210 0.984 . S
N198 H211 0.985 1_545 S
N199 C201 1.356 . S
N199 H204 0.984 . S
N199 H205 0.985 . S
C200 C194 1.379 . S
C200 C197 1.363 . S
C200 N198 1.356 1_565 S
C201 C195 1.363 . S
C201 C196 1.379 . S
C201 N199 1.356 . S
N202 C194 1.356 1_545 S
N202 H208 0.984 . S
N202 H209 0.984 . S
N203 C196 1.356 . S
N203 H206 0.984 . S
N203 H207 0.985 . S
H204 N199 0.984 . S
H205 N199 0.985 . S
H206 N203 0.984 . S
H207 N203 0.985 . S
H208 N202 0.984 . S
H209 N202 0.984 . S
H210 N198 0.984 . S
H211 N198 0.985 1_565 S
C212 C213 1.363 . S
C212 C218 1.379 . S
C212 N220 1.356 . S
C213 C212 1.363 . S
C213 C219 1.363 . S
C214 C215 1.363 . S
C214 C219 1.379 . S
C214 N221 1.356 . S
C215 C214 1.363 . S
C215 C218 1.363 . S
N216 C218 1.356 . S
N216 H228 0.984 . S
N216 H229 0.985 . S
N217 C219 1.356 . S
N217 H222 0.984 . S
N217 H223 0.985 . S
C218 C212 1.379 . S
C218 C215 1.363 . S
C218 N216 1.356 . S
C219 C213 1.363 . S
C219 C214 1.379 . S
C219 N217 1.356 . S
N220 C212 1.356 . S
N220 H226 0.984 1_655 S
N220 H227 0.984 1_655 S
N221 C214 1.356 . S
N221 H224 0.984 . S
N221 H225 0.985 . S
H222 N217 0.984 . S
H223 N217 0.985 . S
H224 N221 0.984 . S
H225 N221 0.985 . S
H226 N220 0.984 1_455 S
H227 N220 0.984 1_455 S
H228 N216 0.984 . S
H229 N216 0.985 . S
C230 C231 1.363 . S
C230 C236 1.379 . S
C230 N238 1.356 . S
C231 C230 1.363 . S
C231 C237 1.363 . S
C232 C233 1.363 . S
C232 C237 1.379 . S
C232 N239 1.356 . S
C233 C232 1.363 . S
C233 C236 1.363 . S
N234 C236 1.356 . S
N234 H246 0.984 . S
N234 H247 0.985 . S
N235 C237 1.356 1_545 S
N235 H240 0.984 . S
N235 H241 0.985 . S
C236 C230 1.379 . S
C236 C233 1.363 . S
C236 N234 1.356 . S
C237 C231 1.363 . S
C237 C232 1.379 . S
C237 N235 1.356 1_565 S
N238 C230 1.356 . S
N238 H244 0.984 . S
N238 H245 0.984 . S
N239 C232 1.356 . S
N239 H242 0.984 . S
N239 H243 0.985 . S
H240 N235 0.984 . S
H241 N235 0.985 . S
H242 N239 0.984 . S
H243 N239 0.985 . S
H244 N238 0.984 . S
H245 N238 0.984 . S
H246 N234 0.984 . S
H247 N234 0.985 . S
C248 C249 1.363 . S
C248 C254 1.379 . S
C248 N256 1.356 . S
C249 C248 1.363 . S
C249 C255 1.363 . S
C250 C251 1.363 . S
C250 C255 1.379 . S
C250 N257 1.356 . S
C251 C250 1.363 . S
C251 C254 1.363 . S
N252 C254 1.356 . S
N252 H264 0.984 . S
N252 H265 0.985 . S
N253 C255 1.356 . S
N253 H258 0.984 . S
N253 H259 0.985 . S
C254 C248 1.379 . S
C254 C251 1.363 . S
C254 N252 1.356 . S
C255 C249 1.363 . S
C255 C250 1.379 . S
C255 N253 1.356 . S
N256 C248 1.356 . S
N256 H262 0.984 1_545 S
N256 H263 0.984 . S
N257 C250 1.356 . S
N257 H260 0.984 . S
N257 H261 0.985 . S
H258 N253 0.984 . S
H259 N253 0.985 . S
H260 N257 0.984 . S
H261 N257 0.985 . S
H262 N256 0.984 1_565 S
H263 N256 0.984 . S
H264 N252 0.984 . S
H265 N252 0.985 . S
C266 C267 1.363 . S
C266 C272 1.379 . S
C266 N274 1.356 . S
C267 C266 1.363 . S
C267 C273 1.363 . S
C268 C269 1.363 . S
C268 C273 1.379 . S
C268 N275 1.356 . S
C269 C268 1.363 . S
C269 C272 1.363 . S
N270 C272 1.356 . S
N270 H282 0.984 . S
N270 H283 0.985 . S
N271 C273 1.356 . S
N271 H276 0.984 . S
N271 H277 0.985 . S
C272 C266 1.379 . S
C272 C269 1.363 . S
C272 N270 1.356 . S
C273 C267 1.363 . S
C273 C268 1.379 . S
C273 N271 1.356 . S
N274 C266 1.356 . S
N274 H280 0.984 . S
N274 H281 0.984 . S
N275 C268 1.356 . S
N275 H278 0.984 . S
N275 H279 0.985 . S
H276 N271 0.984 . S
H277 N271 0.985 . S
H278 N275 0.984 . S
H279 N275 0.985 . S
H280 N274 0.984 . S
H281 N274 0.984 . S
H282 N270 0.984 . S
H283 N270 0.985 . S
C284 C285 1.363 . S
C284 C290 1.379 . S
C284 N292 1.356 . S
C285 C284 1.363 . S
C285 C291 1.363 . S
C286 C287 1.363 . S
C286 C291 1.379 . S
C286 N293 1.356 . S
C287 C286 1.363 . S
C287 C290 1.363 . S
N288 C290 1.356 . S
N288 H300 0.984 . S
N288 H301 0.985 . S
N289 C291 1.356 1_554 S
N289 H294 0.984 . S
N289 H295 0.985 . S
C290 C284 1.379 . S
C290 C287 1.363 . S
C290 N288 1.356 . S
C291 C285 1.363 . S
C291 C286 1.379 . S
C291 N289 1.356 1_556 S
N292 C284 1.356 . S
N292 H298 0.984 . S
N292 H299 0.984 . S
N293 C286 1.356 . S
N293 H296 0.984 . S
N293 H297 0.985 . S
H294 N289 0.984 . S
H295 N289 0.985 . S
H296 N293 0.984 . S
H297 N293 0.985 . S
H298 N292 0.984 . S
H299 N292 0.984 . S
H300 N288 0.984 . S
H301 N288 0.985 . S
C302 C303 1.363 . S
C302 C308 1.379 . S
C302 N310 1.356 . S
C303 C302 1.363 . S
C303 C309 1.363 . S
C304 C305 1.363 . S
C304 C309 1.379 . S
C304 N311 1.356 . S
C305 C304 1.363 . S
C305 C308 1.363 . S
N306 C308 1.356 . S
N306 H318 0.984 . S
N306 H319 0.985 . S
N307 C309 1.356 1_545 S
N307 H312 0.984 . S
N307 H313 0.985 . S
C308 C302 1.379 . S
C308 C305 1.363 . S
C308 N306 1.356 . S
C309 C303 1.363 . S
C309 C304 1.379 . S
C309 N307 1.356 1_565 S
N310 C302 1.356 . S
N310 H316 0.984 . S
N310 H317 0.984 . S
N311 C304 1.356 . S
N311 H314 0.984 . S
N311 H315 0.985 . S
H312 N307 0.984 . S
H313 N307 0.985 . S
H314 N311 0.984 . S
H315 N311 0.985 . S
H316 N310 0.984 . S
H317 N310 0.984 . S
H318 N306 0.984 . S
H319 N306 0.985 . S
C320 C321 1.363 . S
C320 C326 1.379 . S
C320 N328 1.356 . S
C321 C320 1.363 . S
C321 C327 1.363 . S
C322 C323 1.363 . S
C322 C327 1.379 . S
C322 N329 1.356 . S
C323 C322 1.363 . S
C323 C326 1.363 . S
N324 C326 1.356 . S
N324 H336 0.984 . S
N324 H337 0.985 . S
N325 C327 1.356 . S
N325 H330 0.984 . S
N325 H331 0.985 . S
C326 C320 1.379 . S
C326 C323 1.363 . S
C326 N324 1.356 . S
C327 C321 1.363 . S
C327 C322 1.379 . S
C327 N325 1.356 . S
N328 C320 1.356 . S
N328 H334 0.984 1_556 S
N328 H335 0.984 1_556 S
N329 C322 1.356 . S
N329 H332 0.984 . S
N329 H333 0.985 . S
H330 N325 0.984 . S
H331 N325 0.985 . S
H332 N329 0.984 . S
H333 N329 0.985 . S
H334 N328 0.984 1_554 S
H335 N328 0.984 1_554 S
H336 N324 0.984 . S
H337 N324 0.985 . S
C123 C19 1.898 . S
C125 C99 1.902 . S
C141 C59 1.301 . S
C143 C105 1.219 . S
C159 C6 1.101 . S
C161 C96 0.970 . S
C177 C46 1.650 . S
C179 C121 1.483 . S
C195 C9 2.165 . S
C197 C87 2.062 . S
C215 C104 2.315 . S
C213 C49 2.362 . S
C231 C55 1.419 . S
C233 C100 1.330 . S
C251 C117 1.745 . S
C249 C18 1.785 . S
C269 C84 2.104 . S
C267 C58 2.175 . S
C287 C120 2.183 . S
C285 C10 2.170 . S
C305 C83 1.558 . S
C303 C50 1.632 . S
C323 C108 0.936 . S
C321 C15 1.067 . S
