# Generated by pormake.
# Topology wbl, (4,4)-cn, num edge types: 1
# Building blocks:
#     Node 0, Type 0, BuildingBlock: MUDLON_clean_sbu_0, # of connection points: 4
#     Node 1, Type 0, BuildingBlock: MUDLON_clean_sbu_0, # of connection points: 4
#     Node 2, Type 0, BuildingBlock: MUDLON_clean_sbu_0, # of connection points: 4
#     Node 3, Type 0, BuildingBlock: MUDLON_clean_sbu_0, # of connection points: 4
#     Node 4, Type 0, BuildingBlock: MUDLON_clean_sbu_0, # of connection points: 4
#     Node 5, Type 0, BuildingBlock: MUDLON_clean_sbu_0, # of connection points: 4
#     Node 6, Type 0, BuildingBlock: MUDLON_clean_sbu_0, # of connection points: 4
#     Node 7, Type 0, BuildingBlock: MUDLON_clean_sbu_0, # of connection points: 4
#     Node 8, Type 1, BuildingBlock: QUQFOY_clean_sbu_1, # of connection points: 4
#     Node 9, Type 1, BuildingBlock: QUQFOY_clean_sbu_1, # of connection points: 4
#     Node 10, Type 1, BuildingBlock: QUQFOY_clean_sbu_1, # of connection points: 4
#     Node 11, Type 1, BuildingBlock: QUQFOY_clean_sbu_1, # of connection points: 4
#     Node 12, Type 1, BuildingBlock: QUQFOY_clean_sbu_1, # of connection points: 4
#     Node 13, Type 1, BuildingBlock: QUQFOY_clean_sbu_1, # of connection points: 4
#     Node 14, Type 1, BuildingBlock: QUQFOY_clean_sbu_1, # of connection points: 4
#     Node 15, Type 1, BuildingBlock: QUQFOY_clean_sbu_1, # of connection points: 4
#     Edge 16, Type (0, 1), BuildingBlock: KIFKEQ_clean_linker_1, # of connection points: 2
#     Edge 17, Type (0, 1), BuildingBlock: KIFKEQ_clean_linker_1, # of connection points: 2
#     Edge 18, Type (0, 1), BuildingBlock: KIFKEQ_clean_linker_1, # of connection points: 2
#     Edge 19, Type (0, 1), BuildingBlock: KIFKEQ_clean_linker_1, # of connection points: 2
#     Edge 20, Type (0, 1), BuildingBlock: KIFKEQ_clean_linker_1, # of connection points: 2
#     Edge 21, Type (0, 1), BuildingBlock: KIFKEQ_clean_linker_1, # of connection points: 2
#     Edge 22, Type (0, 1), BuildingBlock: KIFKEQ_clean_linker_1, # of connection points: 2
#     Edge 23, Type (0, 1), BuildingBlock: KIFKEQ_clean_linker_1, # of connection points: 2
#     Edge 24, Type (0, 1), BuildingBlock: KIFKEQ_clean_linker_1, # of connection points: 2
#     Edge 25, Type (0, 1), BuildingBlock: KIFKEQ_clean_linker_1, # of connection points: 2
#     Edge 26, Type (0, 1), BuildingBlock: KIFKEQ_clean_linker_1, # of connection points: 2
#     Edge 27, Type (0, 1), BuildingBlock: KIFKEQ_clean_linker_1, # of connection points: 2
#     Edge 28, Type (0, 1), BuildingBlock: KIFKEQ_clean_linker_1, # of connection points: 2
#     Edge 29, Type (0, 1), BuildingBlock: KIFKEQ_clean_linker_1, # of connection points: 2
#     Edge 30, Type (0, 1), BuildingBlock: KIFKEQ_clean_linker_1, # of connection points: 2
#     Edge 31, Type (0, 1), BuildingBlock: KIFKEQ_clean_linker_1, # of connection points: 2
#     Edge 32, Type (0, 1), BuildingBlock: KIFKEQ_clean_linker_1, # of connection points: 2
#     Edge 33, Type (0, 1), BuildingBlock: KIFKEQ_clean_linker_1, # of connection points: 2
#     Edge 34, Type (0, 1), BuildingBlock: KIFKEQ_clean_linker_1, # of connection points: 2
#     Edge 35, Type (0, 1), BuildingBlock: KIFKEQ_clean_linker_1, # of connection points: 2
#     Edge 36, Type (0, 1), BuildingBlock: KIFKEQ_clean_linker_1, # of connection points: 2
#     Edge 37, Type (0, 1), BuildingBlock: KIFKEQ_clean_linker_1, # of connection points: 2
#     Edge 38, Type (0, 1), BuildingBlock: KIFKEQ_clean_linker_1, # of connection points: 2
#     Edge 39, Type (0, 1), BuildingBlock: KIFKEQ_clean_linker_1, # of connection points: 2
#     Edge 40, Type (0, 1), BuildingBlock: KIFKEQ_clean_linker_1, # of connection points: 2
#     Edge 41, Type (0, 1), BuildingBlock: KIFKEQ_clean_linker_1, # of connection points: 2
#     Edge 42, Type (0, 1), BuildingBlock: KIFKEQ_clean_linker_1, # of connection points: 2
#     Edge 43, Type (0, 1), BuildingBlock: KIFKEQ_clean_linker_1, # of connection points: 2
#     Edge 44, Type (0, 1), BuildingBlock: KIFKEQ_clean_linker_1, # of connection points: 2
#     Edge 45, Type (0, 1), BuildingBlock: KIFKEQ_clean_linker_1, # of connection points: 2
#     Edge 46, Type (0, 1), BuildingBlock: KIFKEQ_clean_linker_1, # of connection points: 2
#     Edge 47, Type (0, 1), BuildingBlock: KIFKEQ_clean_linker_1, # of connection points: 2
# Relax obj value: 0.235
# Max RMSD: 0.253
# Mean RMSD: 0.183
data_MOF--net-wbl--node1-MUDLON_clean_sbu_0--node2-QUQFOY_clean_sbu_1--edge1-KIFKEQ_clean_linker_1
_symmetry_space_group_name_H-M    P1
_symmetry_Int_Tables_number       1
_symmetry_cell_setting            triclinic
loop_
_symmetry_equiv_pos_as_xyz
'x, y, z'
_cell_length_a     35.463795
_cell_length_b     35.455692
_cell_length_c     77.652538
_cell_angle_alpha  92.516974
_cell_angle_beta   92.796748
_cell_angle_gamma 90.696845
loop_
_atom_site_label
_atom_site_type_symbol
_atom_site_fract_x
_atom_site_fract_y
_atom_site_fract_z
_atom_type_partial_charge
Mg0 Mg 0.20208 0.20062 0.37711 0.0
C1 C 0.16822 0.16825 0.40821 0.0
O2 O 0.14821 0.19911 0.40738 0.0
C3 C 0.12848 0.18629 0.35727 0.0
O4 O 0.14028 0.15152 0.35865 0.0
C5 C 0.24286 0.13913 0.35945 0.0
O6 O 0.219 0.12121 0.36871 0.0
O7 O 0.24291 0.17508 0.36006 0.0
O8 O 0.1907 0.16031 0.39636 0.0
O9 O 0.22157 0.24717 0.39445 0.0
C10 C 0.1968 0.27081 0.39894 0.0
O11 O 0.16687 0.2746 0.38853 0.0
O12 O 0.14936 0.21337 0.36351 0.0
Mg13 Mg 0.05257 0.68613 0.61779 0.0
C14 C 0.10927 0.70184 0.64753 0.0
O15 O 0.11359 0.73328 0.63948 0.0
C16 C 0.07569 0.61314 0.59979 0.0
O17 O 0.10715 0.62051 0.60903 0.0
C18 C 0.10772 0.73333 0.60028 0.0
O19 O 0.12674 0.70217 0.60243 0.0
O20 O 0.07406 0.7349 0.60519 0.0
O21 O 0.08787 0.67582 0.64065 0.0
O22 O 0.99997 0.69488 0.63029 0.0
C23 C 0.98 0.66552 0.6323 0.0
O24 O 0.98565 0.63531 0.6224 0.0
O25 O 0.04866 0.63624 0.60063 0.0
Mg26 Mg 0.56102 0.52831 0.86005 0.0
C27 C 0.60144 0.56468 0.89176 0.0
O28 O 0.6194 0.5325 0.89148 0.0
C29 C 0.62412 0.54018 0.83616 0.0
O30 O 0.61634 0.5755 0.84021 0.0
C31 C 0.50902 0.58592 0.84683 0.0
O32 O 0.53908 0.606 0.85213 0.0
O33 O 0.51008 0.55018 0.84763 0.0
O34 O 0.57933 0.57207 0.87902 0.0
O35 O 0.54904 0.48409 0.87744 0.0
C36 C 0.57328 0.4592 0.8811 0.0
O37 O 0.6012 0.45352 0.87082 0.0
O38 O 0.60496 0.51406 0.84246 0.0
Mg39 Mg 0.65949 0.08109 0.11832 0.0
C40 C 0.73169 0.09994 0.13922 0.0
O41 O 0.73124 0.12938 0.12952 0.0
C42 C 0.65046 0.99753 0.11036 0.0
O43 O 0.66565 0.99693 0.12612 0.0
C44 C 0.69588 0.12677 0.09158 0.0
O45 O 0.71709 0.09665 0.09102 0.0
O46 O 0.66882 0.12798 0.10175 0.0
O47 O 0.70786 0.07334 0.13576 0.0
O48 O 0.6179 0.09304 0.13743 0.0
C49 C 0.59221 0.06925 0.14046 0.0
O50 O 0.58597 0.04005 0.12966 0.0
O51 O 0.64512 0.02916 0.1036 0.0
Mg52 Mg 0.0634 0.70904 0.96068 0.0
C53 C 0.03611 0.78827 0.95054 0.0
O54 O 0.01777 0.81978 0.95321 0.0
C55 C 0.99486 0.68014 0.978 0.0
O56 O 0.98411 0.71488 0.9755 0.0
C57 C 0.13492 0.73582 0.98064 0.0
O58 O 0.11459 0.76621 0.98289 0.0
O59 O 0.12063 0.70764 0.97184 0.0
O60 O 0.04002 0.76556 0.96273 0.0
O61 O 0.06153 0.68879 0.93401 0.0
C62 C 0.02915 0.68717 0.92626 0.0
O63 O 0.99971 0.69819 0.9347 0.0
O64 O 0.02742 0.67011 0.97355 0.0
Mg65 Mg 0.5583 0.54178 0.20468 0.0
C66 C 0.4904 0.55837 0.18139 0.0
O67 O 0.4936 0.59135 0.18972 0.0
C68 C 0.58588 0.49981 0.23635 0.0
O69 O 0.58176 0.5329 0.24428 0.0
C70 C 0.52586 0.60454 0.22687 0.0
O71 O 0.49739 0.58047 0.22679 0.0
O72 O 0.55526 0.59536 0.21904 0.0
O73 O 0.50946 0.53092 0.18699 0.0
O74 O 0.60053 0.54438 0.18558 0.0
C75 C 0.59836 0.51508 0.17552 0.0
O76 O 0.575 0.4877 0.17901 0.0
O77 O 0.57571 0.49541 0.22045 0.0
Mg78 Mg 0.65867 0.09018 0.4607 0.0
C79 C 0.66932 0.15427 0.43706 0.0
O80 O 0.70221 0.15603 0.4456 0.0
C81 C 0.59056 0.10405 0.48299 0.0
O82 O 0.59047 0.13713 0.47599 0.0
C83 C 0.71664 0.13444 0.48247 0.0
O84 O 0.68714 0.15625 0.48384 0.0
O85 O 0.71303 0.10345 0.47365 0.0
O86 O 0.64392 0.13208 0.44195 0.0
O87 O 0.66083 0.04097 0.44334 0.0
C88 C 0.62896 0.02557 0.43917 0.0
O89 O 0.5995 0.03648 0.44763 0.0
O90 O 0.6158 0.08044 0.47913 0.0
Mg91 Mg 0.19586 0.16183 0.72562 0.0
C92 C 0.2604 0.1348 0.70646 0.0
O93 O 0.2431 0.1032 0.70988 0.0
C94 C 0.15035 0.21602 0.74667 0.0
O95 O 0.13613 0.18384 0.75132 0.0
C96 C 0.22348 0.10441 0.75059 0.0
O97 O 0.25554 0.12118 0.74751 0.0
O98 O 0.19304 0.11588 0.74335 0.0
O99 O 0.2504 0.16523 0.71413 0.0
O100 O 0.16076 0.1523 0.70205 0.0
C101 C 0.17011 0.17555 0.69092 0.0
O102 O 0.19524 0.20207 0.69554 0.0
O103 O 0.17764 0.21546 0.73665 0.0
O104 O 0.50493 0.70605 0.00517 0.0
Cd105 Cd 0.47495 0.72796 0.02527 0.0
Cd106 Cd 0.5181 0.6811 0.04335 0.0
O107 O 0.5315 0.65983 0.01921 0.0
O108 O 0.43195 0.7547 0.01402 0.0
O109 O 0.42433 0.7051 0.02985 0.0
C110 C 0.40955 0.73067 0.02039 0.0
C111 C 0.49345 0.64288 0.06374 0.0
C112 C 0.52516 0.67674 0.00529 0.0
C113 C 0.53126 0.76335 0.05125 0.0
O114 O 0.54474 0.73054 0.0529 0.0
O115 O 0.50164 0.76787 0.04174 0.0
O116 O 0.52847 0.64094 0.06004 0.0
O117 O 0.47192 0.66576 0.05543 0.0
O118 O 0.51374 0.93339 0.317 0.0
Cd119 Cd 0.478 0.93429 0.29544 0.0
Cd120 Cd 0.54056 0.95128 0.28063 0.0
O121 O 0.56094 0.96323 0.30584 0.0
O122 O 0.42642 0.94022 0.30413 0.0
O123 O 0.4553 0.98451 0.2902 0.0
C124 C 0.42658 0.97389 0.29848 0.0
C125 C 0.54545 0.99341 0.2586 0.0
C126 C 0.54596 0.94948 0.31878 0.0
C127 C 0.50642 0.87448 0.27219 0.0
O128 O 0.53597 0.89518 0.27225 0.0
O129 O 0.47723 0.88647 0.27943 0.0
O130 O 0.57458 0.97594 0.26467 0.0
O131 O 0.51368 0.98838 0.2657 0.0
O132 O 0.25621 0.02705 0.52059 0.0
Cd133 Cd 0.29081 0.00829 0.54028 0.0
Cd134 Cd 0.24725 0.05121 0.5591 0.0
O135 O 0.2321 0.07412 0.53569 0.0
O136 O 0.33771 0.99156 0.52924 0.0
O137 O 0.33598 0.04077 0.54772 0.0
C138 C 0.35485 0.02008 0.53717 0.0
C139 C 0.26765 0.08778 0.58352 0.0
C140 C 0.2363 0.05654 0.5213 0.0
C141 C 0.23963 0.96727 0.56191 0.0
O142 O 0.22429 0.9992 0.56428 0.0
O143 O 0.26991 0.96471 0.55384 0.0
O144 O 0.23267 0.087 0.57807 0.0
O145 O 0.29152 0.06919 0.57452 0.0
O146 O 0.20338 0.76483 0.7778 0.0
Cd147 Cd 0.22519 0.7857 0.80136 0.0
Cd148 Cd 0.18358 0.72681 0.81157 0.0
O149 O 0.1632 0.72209 0.78613 0.0
O150 O 0.25203 0.83267 0.79521 0.0
O151 O 0.20106 0.83355 0.81048 0.0
C152 C 0.22654 0.8518 0.80278 0.0
C153 C 0.14751 0.74246 0.83491 0.0
C154 C 0.17762 0.74013 0.77422 0.0
C155 C 0.26654 0.72115 0.81758 0.0
O156 O 0.23522 0.70322 0.8171 0.0
O157 O 0.26788 0.75529 0.81319 0.0
O158 O 0.14572 0.70891 0.82768 0.0
O159 O 0.16854 0.7676 0.82832 0.0
O160 O 0.0412 0.24998 0.57348 0.0
Cd161 Cd 0.0207 0.28054 0.5533 0.0
Cd162 Cd 0.05703 0.22855 0.53469 0.0
O163 O 0.07723 0.21159 0.55863 0.0
O164 O 0.0032 0.32848 0.56433 0.0
O165 O 0.04978 0.32618 0.54642 0.0
C166 C 0.02888 0.34592 0.55645 0.0
C167 C 0.09824 0.24648 0.5139 0.0
C168 C 0.06495 0.22349 0.57298 0.0
C169 C 0.97276 0.22936 0.52944 0.0
O170 O 0.00282 0.21187 0.52606 0.0
O171 O 0.97418 0.25874 0.53942 0.0
O172 O 0.09251 0.21139 0.5169 0.0
O173 O 0.08111 0.27161 0.52308 0.0
O174 O 0.96326 0.52532 0.80925 0.0
Cd175 Cd 0.94088 0.49447 0.78797 0.0
Cd176 Cd 0.99161 0.53735 0.77247 0.0
O177 O 0.99944 0.56497 0.79625 0.0
O178 O 0.89607 0.46973 0.79734 0.0
O179 O 0.89147 0.51244 0.77749 0.0
C180 C 0.87505 0.49069 0.78785 0.0
C181 C 0.9757 0.57218 0.74852 0.0
C182 C 0.98545 0.5538 0.8099 0.0
C183 C 0.0041 0.45384 0.77111 0.0
O184 O 0.01799 0.48625 0.7686 0.0
O185 O 0.97208 0.4508 0.77767 0.0
O186 O 0.00975 0.57215 0.7552 0.0
O187 O 0.95032 0.55233 0.75557 0.0
O188 O 0.75396 0.46655 0.06241 0.0
Cd189 Cd 0.77512 0.43771 0.04159 0.0
Cd190 Cd 0.72185 0.47291 0.02369 0.0
O191 O 0.7013 0.48074 0.04809 0.0
O192 O 0.79634 0.38968 0.05004 0.0
O193 O 0.7446 0.39237 0.03295 0.0
C194 C 0.76756 0.3726 0.0422 0.0
C195 C 0.68124 0.45339 1.00035 0.0
C196 C 0.72071 0.47944 0.06225 0.0
C197 C 0.80283 0.49574 0.01909 0.0
O198 O 0.76821 0.50459 0.01742 0.0
O199 O 0.81237 0.46662 0.02717 0.0
O200 O 0.67936 0.4868 0.00747 0.0
O201 O 0.70559 0.43044 0.00677 0.0
O202 O 0.80192 0.22312 0.26279 0.0
Cd203 Cd 0.80509 0.2571 0.28498 0.0
Cd204 Cd 0.78626 0.19231 0.29857 0.0
O205 O 0.77758 0.17201 0.27332 0.0
O206 O 0.80061 0.30909 0.27637 0.0
O207 O 0.7576 0.28286 0.29191 0.0
C208 C 0.76804 0.31081 0.28306 0.0
C209 C 0.74083 0.19003 0.31916 0.0
C210 C 0.78855 0.18977 0.26056 0.0
C211 C 0.86362 0.22438 0.30833 0.0
O212 O 0.84128 0.19605 0.30827 0.0
O213 O 0.85374 0.25395 0.30066 0.0
O214 O 0.75812 0.15998 0.31411 0.0
O215 O 0.74805 0.22112 0.31181 0.0
H216 H 0.25985 0.06525 0.36192 0.0
H217 H 0.28529 0.16296 0.33303 0.0
H218 H 0.30192 0.02768 0.34487 0.0
H219 H 0.32675 0.12458 0.31522 0.0
H220 H 0.43123 0.05083 0.30225 0.0
H221 H 0.38554 0.09269 0.31546 0.0
H222 H 0.30775 0.99836 0.31771 0.0
H223 H 0.35423 0.9565 0.30545 0.0
C224 C 0.27415 0.07866 0.35175 0.0
C225 C 0.26909 0.1171 0.3488 0.0
C226 C 0.29812 0.05693 0.3418 0.0
C227 C 0.31739 0.07277 0.32839 0.0
C228 C 0.31254 0.11141 0.32547 0.0
C229 C 0.28873 0.13341 0.33564 0.0
C230 C 0.40405 0.03929 0.3053 0.0
C231 C 0.39641 1.00036 0.30303 0.0
C232 C 0.37779 0.0633 0.31286 0.0
C233 C 0.34317 0.04886 0.31805 0.0
C234 C 0.33457 0.01034 0.31445 0.0
C235 C 0.36105 0.98633 0.30724 0.0
H236 H 0.07585 0.80026 0.59151 0.0
H237 H 0.18252 0.7428 0.59481 0.0
H238 H 0.10781 0.85642 0.582 0.0
H239 H 0.21462 0.79917 0.58597 0.0
H240 H 0.256 0.89372 0.55366 0.0
H241 H 0.22343 0.83719 0.56216 0.0
H242 H 0.14949 0.90629 0.59252 0.0
H243 H 0.18121 0.96288 0.58349 0.0
C244 C 0.10611 0.79964 0.59023 0.0
C245 C 0.12661 0.76705 0.59388 0.0
C246 C 0.12452 0.83194 0.58492 0.0
C247 C 0.16388 0.83247 0.58327 0.0
C248 C 0.18424 0.79968 0.58682 0.0
C249 C 0.16581 0.76734 0.59198 0.0
C250 C 0.23289 0.89685 0.5622 0.0
C251 C 0.2212 0.93283 0.56788 0.0
C252 C 0.21426 0.86439 0.56714 0.0
C253 C 0.18371 0.86708 0.57801 0.0
C254 C 0.1724 0.90311 0.58388 0.0
C255 C 0.19082 0.93559 0.57881 0.0
H256 H 0.44259 0.55443 0.83291 0.0
H257 H 0.49549 0.66125 0.8494 0.0
H258 H 0.38398 0.58697 0.82564 0.0
H259 H 0.43695 0.6934 0.84282 0.0
H260 H 0.33877 0.74552 0.81366 0.0
H261 H 0.39697 0.7121 0.81973 0.0
H262 H 0.33303 0.61928 0.83861 0.0
H263 H 0.27455 0.65224 0.83189 0.0
C264 C 0.44171 0.5848 0.83499 0.0
C265 C 0.47374 0.60524 0.84166 0.0
C266 C 0.40804 0.60345 0.83096 0.0
C267 C 0.40564 0.64287 0.83366 0.0
C268 C 0.43784 0.66316 0.84027 0.0
C269 C 0.47146 0.64463 0.84413 0.0
C270 C 0.33709 0.71806 0.81919 0.0
C271 C 0.30198 0.70161 0.82232 0.0
C272 C 0.37054 0.6989 0.82273 0.0
C273 C 0.36981 0.66294 0.82969 0.0
C274 C 0.33467 0.64663 0.83299 0.0
C275 C 0.30113 0.66568 0.82928 0.0
H276 H 0.61952 0.98882 0.07749 0.0
H277 H 0.65028 0.9262 0.12246 0.0
H278 H 0.59311 0.93143 0.06304 0.0
H279 H 0.62301 0.86891 0.10812 0.0
H280 H 0.59813 0.76638 0.07071 0.0
H281 H 0.62976 0.82229 0.08447 0.0
H282 H 0.53838 0.89152 0.06583 0.0
H283 H 0.50732 0.83616 0.05184 0.0
C284 C 0.62073 0.96279 0.08428 0.0
C285 C 0.63678 0.96215 0.10117 0.0
C286 C 0.60538 0.92992 0.07604 0.0
C287 C 0.60558 0.89565 0.0845 0.0
C288 C 0.62264 0.89476 0.1012 0.0
C289 C 0.63811 0.92767 0.10944 0.0
C290 C 0.58482 0.79355 0.06956 0.0
C291 C 0.55025 0.79678 0.06012 0.0
C292 C 0.60288 0.82556 0.0775 0.0
C293 C 0.58673 0.86142 0.07614 0.0
C294 C 0.55199 0.86447 0.06684 0.0
C295 C 0.53403 0.83261 0.05891 0.0
H296 H 0.17593 0.79315 0.9975 0.0
H297 H 0.18281 0.67585 0.98045 0.0
H298 H 0.24129 0.79188 0.00878 0.0
H299 H 0.2483 0.67476 0.99162 0.0
H300 H 0.35538 0.67842 0.02737 0.0
H301 H 0.2879 0.67951 0.01915 0.0
H302 H 0.3036 0.78676 0.99598 0.0
H303 H 0.37065 0.78584 0.00424 0.0
C304 C 0.19131 0.76706 0.9962 0.0
C305 C 0.1742 0.73466 0.98799 0.0
C306 C 0.2288 0.76639 0.00261 0.0
C307 C 0.24996 0.73325 1.00105 0.0
C308 C 0.23261 0.70061 0.99318 0.0
C309 C 0.19517 0.70134 0.98667 0.0
C310 C 0.34432 0.70234 0.02065 0.0
C311 C 0.36836 0.73199 0.01642 0.0
C312 C 0.30576 0.70286 0.01586 0.0
C313 C 0.29046 0.73321 0.0069 0.0
C314 C 0.31442 0.76319 0.00303 0.0
C315 C 0.35292 0.76253 0.00768 0.0
H316 H 0.58258 0.65521 0.23596 0.0
H317 H 0.46129 0.64148 0.2345 0.0
H318 H 0.57683 0.72014 0.24692 0.0
H319 H 0.45524 0.70698 0.24464 0.0
H320 H 0.4595 0.81558 0.27851 0.0
H321 H 0.46415 0.75001 0.26829 0.0
H322 H 0.55868 0.7799 0.23822 0.0
H323 H 0.55509 0.84505 0.24916 0.0
C324 C 0.55466 0.66617 0.23793 0.0
C325 C 0.5224 0.64328 0.23438 0.0
C326 C 0.55129 0.70354 0.24407 0.0
C327 C 0.51552 0.71913 0.24652 0.0
C328 C 0.48328 0.69594 0.24314 0.0
C329 C 0.48671 0.65836 0.23727 0.0
C330 C 0.4811 0.80814 0.26962 0.0
C331 C 0.50701 0.83545 0.26468 0.0
C332 C 0.48372 0.77051 0.26369 0.0
C333 C 0.51198 0.7594 0.25249 0.0
C334 C 0.53714 0.7871 0.24716 0.0
C335 C 0.53488 0.82458 0.2533 0.0
H336 H 0.58156 0.03701 0.49851 0.0
H337 H 0.52985 0.14572 0.49258 0.0
H338 H 0.52834 0.01648 0.51462 0.0
H339 H 0.4763 0.12489 0.50848 0.0
H340 H 0.39464 0.08484 0.54704 0.0
H341 H 0.45504 0.10568 0.53658 0.0
H342 H 0.46253 1.0005 0.50677 0.0
H343 H 0.40269 0.97956 0.51735 0.0
C344 C 0.55899 0.05666 0.50074 0.0
C345 C 0.55983 0.09293 0.49411 0.0
C346 C 0.5284 0.04481 0.50993 0.0
C347 C 0.49793 0.06892 0.51274 0.0
C348 C 0.49947 0.10572 0.5067 0.0
C349 C 0.53007 0.11759 0.49747 0.0
C350 C 0.40955 0.06591 0.53851 0.0
C351 C 0.39377 0.03061 0.53296 0.0
C352 C 0.44399 0.07798 0.53241 0.0
C353 C 0.46348 0.05488 0.52074 0.0
C354 C 0.44849 0.01888 0.51587 0.0
C355 C 0.41404 0.00692 0.52188 0.0
H356 H 0.1664 0.07719 0.76935 0.0
H357 H 0.28063 0.05535 0.75545 0.0
H358 H 0.16675 0.02055 0.78613 0.0
H359 H 0.28038 0.99763 0.77091 0.0
H360 H 0.28457 0.90268 0.80497 0.0
H361 H 0.28331 0.96753 0.79595 0.0
H362 H 0.16289 0.9562 0.78439 0.0
H363 H 0.16421 0.8926 0.79496 0.0
C364 C 0.19151 0.06009 0.76983 0.0
C365 C 0.2235 0.07068 0.76113 0.0
C366 C 0.19171 0.0274 0.77936 0.0
C367 C 0.22361 0.00401 0.78004 0.0
C368 C 0.25557 0.01504 0.77128 0.0
C369 C 0.25567 0.04813 0.76218 0.0
C370 C 0.25775 0.91467 0.80098 0.0
C371 C 0.22452 0.89283 0.80066 0.0
C372 C 0.25699 0.95169 0.7955 0.0
C373 C 0.22316 0.96724 0.78886 0.0
C374 C 0.18952 0.94578 0.78948 0.0
C375 C 0.19017 0.90914 0.79553 0.0
H376 H 0.64688 0.47037 0.82463 0.0
H377 H 0.67468 0.58918 0.82339 0.0
H378 H 0.70321 0.45516 0.80907 0.0
H379 H 0.73142 0.57397 0.80829 0.0
H380 H 0.8238 0.53971 0.77399 0.0
H381 H 0.75891 0.54931 0.78234 0.0
H382 H 0.76955 0.45656 0.81647 0.0
H383 H 0.8336 0.44645 0.80784 0.0
C384 C 0.66488 0.49326 0.82095 0.0
C385 C 0.65648 0.53098 0.82542 0.0
C386 C 0.69725 0.48453 0.81207 0.0
C387 C 0.72207 0.5133 0.80751 0.0
C388 C 0.71278 0.55109 0.81138 0.0
C389 C 0.68034 0.55982 0.82019 0.0
C390 C 0.81192 0.52085 0.78296 0.0
C391 C 0.83397 0.49254 0.79036 0.0
C392 C 0.77485 0.52655 0.78787 0.0
C393 C 0.7591 0.504 0.80024 0.0
C394 C 0.78051 0.47427 0.8068 0.0
C395 C 0.81744 0.4686 0.80191 0.0
H396 H 0.75837 0.13777 0.07302 0.0
H397 H 0.65489 0.19099 0.08748 0.0
H398 H 0.77608 0.19415 0.05817 0.0
H399 H 0.67272 0.24733 0.07266 0.0
H400 H 0.70201 0.33313 0.0338 0.0
H401 H 0.6841 0.271 0.0434 0.0
H402 H 0.79505 0.25999 0.06797 0.0
H403 H 0.81301 0.32199 0.05839 0.0
C404 C 0.73922 0.16134 0.07291 0.0
C405 C 0.70529 0.15994 0.08153 0.0
C406 C 0.74948 0.19367 0.06445 0.0
C407 C 0.72584 0.22519 0.06426 0.0
C408 C 0.69135 0.22335 0.07241 0.0
C409 C 0.68126 0.19115 0.08101 0.0
C410 C 0.72284 0.31715 0.04095 0.0
C411 C 0.7589 0.3326 0.0454 0.0
C412 C 0.71245 0.28169 0.04656 0.0
C413 C 0.73804 0.26076 0.05657 0.0
C414 C 0.77476 0.27531 0.06019 0.0
C415 C 0.78502 0.31091 0.05473 0.0
H416 H 0.07899 0.1352 0.34117 0.0
H417 H 0.0919 0.25378 0.35592 0.0
H418 H 0.01531 0.14631 0.32959 0.0
H419 H 0.02768 0.26475 0.34468 0.0
H420 H 0.92366 0.27345 0.3066 0.0
H421 H 0.98825 0.26539 0.31812 0.0
H422 H 0.95456 0.1614 0.3404 0.0
H423 H 0.89053 0.16892 0.32861 0.0
C424 C 0.06823 0.16365 0.34196 0.0
C425 C 0.09047 0.19357 0.34952 0.0
C426 C 0.0316 0.16999 0.33543 0.0
C427 C 0.01623 0.20636 0.33637 0.0
C428 C 0.03875 0.23645 0.34363 0.0
C429 C 0.07551 0.23013 0.35013 0.0
C430 C 0.93001 0.24904 0.31407 0.0
C431 C 0.90198 0.2217 0.31657 0.0
C432 C 0.96701 0.24446 0.32071 0.0
C433 C 0.97667 0.21251 0.33001 0.0
C434 C 0.9483 0.18589 0.33296 0.0
C435 C 0.91147 0.19037 0.3263 0.0
H436 H 0.01207 0.58682 0.58165 0.0
H437 H 0.1269 0.55672 0.5957 0.0
H438 H 1.00087 0.52407 0.56815 0.0
H439 H 0.11544 0.49378 0.58235 0.0
H440 H 0.08834 0.3895 0.54716 0.0
H441 H 0.10035 0.4565 0.55475 0.0
H442 H 0.99527 0.46157 0.58059 0.0
H443 H 0.9832 0.39515 0.57297 0.0
C444 C 0.03506 0.56698 0.5817 0.0
C445 C 0.07027 0.57664 0.58993 0.0
C446 C 0.02857 0.53099 0.57402 0.0
C447 C 0.05716 0.5039 0.57433 0.0
C448 C 0.09294 0.51413 0.58179 0.0
C449 C 0.09941 0.55013 0.58954 0.0
C450 C 0.06763 0.40511 0.55426 0.0
C451 C 0.03492 0.38703 0.55954 0.0
C452 C 0.07459 0.44337 0.55868 0.0
C453 C 0.04876 0.46427 0.56827 0.0
C454 C 0.0155 0.44639 0.57301 0.0
C455 C 0.00871 0.40822 0.56874 0.0
H456 H 0.73711 0.20536 0.49457 0.0
H457 H 0.78104 0.09322 0.48642 0.0
H458 H 0.7992 0.228 0.5052 0.0
H459 H 0.84309 0.1155 0.4978 0.0
H460 H 0.95794 0.17643 0.50304 0.0
H461 H 0.89621 0.15326 0.49155 0.0
H462 H 0.8422 0.22546 0.52902 0.0
H463 H 0.90345 0.2496 0.53991 0.0
C464 C 0.75996 0.1854 0.49527 0.0
C465 C 0.75413 0.14748 0.4897 0.0
C466 C 0.79561 0.19835 0.50145 0.0
C467 C 0.82627 0.17359 0.50245 0.0
C468 C 0.82033 0.13552 0.49698 0.0
C469 C 0.78469 0.12266 0.49058 0.0
C470 C 0.93282 0.1874 0.50874 0.0
C471 C 0.9356 0.21502 0.5223 0.0
C472 C 0.89742 0.17394 0.50225 0.0
C473 C 0.86409 0.18753 0.50931 0.0
C474 C 0.8671 0.21489 0.52299 0.0
C475 C 0.90234 0.22863 0.52931 0.0
H476 H 0.09783 0.22838 0.77079 0.0
H477 H 0.16054 0.28493 0.73293 0.0
H478 H 0.06371 0.28623 0.77692 0.0
H479 H 0.12543 0.34239 0.73854 0.0
H480 H 0.07847 0.44959 0.76346 0.0
H481 H 0.11544 0.39307 0.75854 0.0
H482 H 0.01607 0.3238 0.7643 0.0
H483 H 0.97952 0.3803 0.76988 0.0
C484 C 0.10437 0.2532 0.76379 0.0
C485 C 0.13188 0.25202 0.75137 0.0
C486 C 0.08454 0.28633 0.76718 0.0
C487 C 0.09143 0.31901 0.7581 0.0
C488 C 0.1196 0.31799 0.74594 0.0
C489 C 0.1397 0.28495 0.74267 0.0
C490 C 0.06447 0.42229 0.76362 0.0
C491 C 0.02603 0.41949 0.7671 0.0
C492 C 0.08568 0.38982 0.76073 0.0
C493 C 0.06888 0.35372 0.76109 0.0
C494 C 0.03023 0.35102 0.76429 0.0
C495 C 0.00913 0.38348 0.76734 0.0
H496 H 0.00373 0.60382 0.98051 0.0
H497 H 0.92574 0.69383 0.99072 0.0
H498 H 0.958 0.55802 0.98993 0.0
H499 H 0.88059 0.64834 1.00055 0.0
H500 H 0.79191 0.55563 0.99858 0.0
H501 H 0.83912 0.59894 0.98877 0.0
H502 H 0.92711 0.53659 0.01486 0.0
H503 H 0.8798 0.49249 0.02433 0.0
C504 C 0.97701 0.61389 0.98494 0.0
C505 C 0.96833 0.65248 0.98478 0.0
C506 C 0.95084 0.58764 0.9904 0.0
C507 C 0.91545 0.59941 0.99588 0.0
C508 C 0.90722 0.63814 0.99607 0.0
C509 C 0.93326 0.66431 0.99055 0.0
C510 C 0.82133 0.55097 0.00217 0.0
C511 C 0.83201 0.52064 0.01231 0.0
C512 C 0.84843 0.57603 0.99664 0.0
C513 C 0.88694 0.57157 0.00118 0.0
C514 C 0.89775 0.54072 0.01101 0.0
C515 C 0.87059 0.5155 0.01649 0.0
H516 H 0.61694 0.43765 0.22109 0.0
H517 H 0.60585 0.49518 0.2708 0.0
H518 H 0.6607 0.39361 0.23426 0.0
H519 H 0.64941 0.45022 0.28401 0.0
H520 H 0.70049 0.32728 0.29736 0.0
H521 H 0.65382 0.3732 0.28746 0.0
H522 H 0.72934 0.40876 0.24921 0.0
H523 H 0.77609 0.3638 0.25917 0.0
C524 C 0.62328 0.44054 0.23488 0.0
C525 C 0.60806 0.47011 0.24488 0.0
C526 C 0.64852 0.41543 0.24237 0.0
C527 C 0.65864 0.41887 0.26008 0.0
C528 C 0.64202 0.4471 0.27031 0.0
C529 C 0.61717 0.47276 0.26275 0.0
C530 C 0.70736 0.34541 0.28705 0.0
C531 C 0.74193 0.34182 0.27901 0.0
C532 C 0.68068 0.3716 0.28141 0.0
C533 C 0.68793 0.39404 0.26746 0.0
C534 C 0.72297 0.39143 0.25987 0.0
C535 C 0.7498 0.36584 0.26567 0.0
H536 H 0.12945 0.18125 0.43753 0.0
H537 H 0.21183 0.10746 0.41512 0.0
H538 H 0.13918 0.15114 0.46505 0.0
H539 H 0.22269 0.07874 0.44265 0.0
H540 H 0.21152 0.12781 0.51511 0.0
H541 H 0.18908 0.1516 0.48747 0.0
H542 H 0.19776 0.03982 0.46363 0.0
H543 H 0.22178 0.01653 0.49098 0.0
C544 C 0.14926 0.15832 0.4384 0.0
C545 C 0.16996 0.14683 0.42414 0.0
C546 C 0.15511 0.14135 0.45422 0.0
C547 C 0.182 0.11282 0.45613 0.0
C548 C 0.20144 0.10032 0.44163 0.0
C549 C 0.19536 0.11698 0.42583 0.0
C550 C 0.20824 0.1083 0.50399 0.0
C551 C 0.21889 0.07045 0.50515 0.0
C552 C 0.19507 0.12185 0.48818 0.0
C553 C 0.19176 0.09766 0.4733 0.0
C554 C 0.20068 0.05939 0.47473 0.0
C555 C 0.21434 0.04601 0.49043 0.0
H556 H 0.17167 0.73628 0.66293 0.0
H557 H 0.07665 0.66489 0.67319 0.0
H558 H 0.189 0.74185 0.69366 0.0
H559 H 0.09246 0.67216 0.70408 0.0
H560 H 0.14656 0.67475 0.75912 0.0
H561 H 0.13282 0.66067 0.72831 0.0
H562 H 0.16662 0.77458 0.71758 0.0
H563 H 0.18196 0.78768 0.74801 0.0
C564 C 0.15468 0.72156 0.6718 0.0
C565 C 0.12288 0.70023 0.66572 0.0
C566 C 0.16427 0.72508 0.68944 0.0
C567 C 0.14164 0.7082 0.70147 0.0
C568 C 0.11073 0.68537 0.69526 0.0
C569 C 0.10163 0.68119 0.67754 0.0
C570 C 0.15084 0.69669 0.75011 0.0
C571 C 0.16562 0.73218 0.75592 0.0
C572 C 0.14295 0.68869 0.73245 0.0
C573 C 0.14923 0.71625 0.72033 0.0
C574 C 0.16264 0.75216 0.72637 0.0
C575 C 0.17107 0.75988 0.74389 0.0
H576 H 0.55866 0.62682 0.89788 0.0
H577 H 0.63748 0.55239 0.92299 0.0
H578 H 0.54433 0.65538 0.92563 0.0
H579 H 0.62445 0.58234 0.95089 0.0
H580 H 0.53696 0.71617 0.9767 0.0
H581 H 0.56284 0.69342 0.94982 0.0
H582 H 0.5752 0.58243 0.97023 0.0
H583 H 0.5511 0.60595 0.99747 0.0
C584 C 0.57376 0.61723 0.9093 0.0
C585 C 0.59903 0.5871 0.9082 0.0
C586 C 0.56565 0.6338 0.9253 0.0
C587 C 0.58293 0.62102 0.94062 0.0
C588 C 0.60996 0.59239 0.93942 0.0
C589 C 0.61783 0.57552 0.92338 0.0
C590 C 0.54538 0.68695 0.97546 0.0
C591 C 0.54168 0.66275 0.98914 0.0
C592 C 0.56013 0.67382 0.96001 0.0
C593 C 0.5709 0.63594 0.95771 0.0
C594 C 0.56782 0.61192 0.97156 0.0
C595 C 0.55365 0.62527 0.98715 0.0
H596 H 0.53541 0.0246 0.15131 0.0
H597 H 0.61479 0.11294 0.16916 0.0
H598 H 0.5197 0.01493 0.18105 0.0
H599 H 0.599 0.10314 0.19888 0.0
H600 H 0.48774 0.0153 0.23671 0.0
H601 H 0.4932 0.0424 0.20846 0.0
H602 H 0.61446 0.0476 0.21679 0.0
H603 H 0.60909 0.02046 0.24486 0.0
C604 C 0.5488 0.04261 0.16152 0.0
C605 C 0.57664 0.06925 0.15785 0.0
C606 C 0.53968 0.03716 0.17857 0.0
C607 C 0.55843 0.058 0.19231 0.0
C608 C 0.5844 0.08638 0.18856 0.0
C609 C 0.59325 0.09211 0.1715 0.0
C610 C 0.51548 0.023 0.23265 0.0
C611 C 0.54802 0.01553 0.24296 0.0
C612 C 0.51859 0.03831 0.21645 0.0
C613 C 0.55424 0.047 0.21038 0.0
C614 C 0.58656 0.04157 0.22115 0.0
C615 C 0.5835 0.02581 0.23721 0.0
H616 H 0.107 0.76616 0.94338 0.0
H617 H 0.99867 0.79185 0.91935 0.0
H618 H 0.13264 0.75563 0.91478 0.0
H619 H 0.02395 0.78028 0.89075 0.0
H620 H 0.0827 0.71031 0.84557 0.0
H621 H 0.05391 0.72124 0.87343 0.0
H622 H 0.14187 0.80256 0.88896 0.0
H623 H 0.16966 0.79303 0.86088 0.0
C624 C 0.08867 0.76912 0.93196 0.0
C625 C 0.05092 0.77957 0.93346 0.0
C626 C 0.1033 0.7633 0.91565 0.0
C627 C 0.08022 0.76727 0.90062 0.0
C628 C 0.04223 0.77696 0.90216 0.0
C629 C 0.02786 0.78365 0.91845 0.0
C630 C 0.09558 0.7308 0.85488 0.0
C631 C 0.12834 0.75089 0.85108 0.0
C632 C 0.07922 0.73692 0.8708 0.0
C633 C 0.0961 0.76223 0.88339 0.0
C634 C 0.1286 0.78258 0.87951 0.0
C635 C 0.14427 0.77734 0.86342 0.0
H636 H 0.42983 0.59403 0.16679 0.0
H637 H 0.52326 0.52268 0.15456 0.0
H638 H 0.41861 0.60558 0.13629 0.0
H639 H 0.51524 0.53696 0.12461 0.0
H640 H 0.50577 0.56959 0.07111 0.0
H641 H 0.49223 0.5391 0.09764 0.0
H642 H 0.44166 0.6425 0.11675 0.0
H643 H 0.45173 0.67071 0.0895 0.0
C644 C 0.44755 0.58034 0.15748 0.0
C645 C 0.4774 0.55757 0.16303 0.0
C646 C 0.44169 0.58748 0.13997 0.0
C647 C 0.46669 0.57342 0.12769 0.0
C648 C 0.49486 0.54831 0.13328 0.0
C649 C 0.49971 0.54006 0.15066 0.0
C650 C 0.49074 0.58513 0.08089 0.0
C651 C 0.47986 0.62242 0.07837 0.0
C652 C 0.4834 0.56794 0.09628 0.0
C653 C 0.4667 0.58834 0.10988 0.0
C654 C 0.45408 0.62518 0.10678 0.0
C655 C 0.46007 0.64173 0.09111 0.0
H656 H 0.67931 0.01285 0.41385 0.0
H657 H 0.56485 0.98857 0.42707 0.0
H658 H 0.66482 0.98708 0.38455 0.0
H659 H 0.55013 0.96404 0.39789 0.0
H660 H 0.53228 0.90779 0.34644 0.0
H661 H 0.55863 0.91703 0.37584 0.0
H662 H 0.62821 0.00901 0.36001 0.0
H663 H 0.60278 0.9987 0.33037 0.0
C664 C 0.65131 0.00132 0.41063 0.0
C665 C 0.6231 0.0031 0.42274 0.0
C666 C 0.64291 0.98692 0.39378 0.0
C667 C 0.60619 0.97393 0.38877 0.0
C668 C 0.57881 0.97344 0.40127 0.0
C669 C 0.5872 0.98775 0.41804 0.0
C670 C 0.55354 0.92971 0.34919 0.0
C671 C 0.56505 0.95292 0.33614 0.0
C672 C 0.56859 0.93506 0.36606 0.0
C673 C 0.59514 0.96411 0.37037 0.0
C674 C 0.60807 0.98612 0.35714 0.0
C675 C 0.59331 0.98044 0.34016 0.0
H676 H 0.26994 0.19561 0.6864 0.0
H677 H 0.29361 0.07676 0.68916 0.0
H678 H 0.28267 0.19251 0.65575 0.0
H679 H 0.30686 0.07386 0.65866 0.0
H680 H 0.33217 0.07669 0.60328 0.0
H681 H 0.34403 0.09585 0.63374 0.0
H682 H 0.24005 0.15796 0.63278 0.0
H683 H 0.22804 0.13872 0.6025 0.0
C684 C 0.27926 0.16916 0.68066 0.0
C685 C 0.28005 0.13621 0.69012 0.0
C686 C 0.28637 0.16739 0.66308 0.0
C687 C 0.2952 0.13284 0.65477 0.0
C688 C 0.30021 0.10093 0.6647 0.0
C689 C 0.29253 0.10256 0.68219 0.0
C690 C 0.31239 0.0953 0.60945 0.0
C691 C 0.27894 0.10583 0.60056 0.0
C692 C 0.31915 0.10615 0.62689 0.0
C693 C 0.2929 0.12823 0.63565 0.0
C694 C 0.261 0.14125 0.62635 0.0
C695 C 0.25398 0.13 0.60902 0.0
H696 H 0.60798 0.39659 0.89346 0.0
H697 H 0.55063 0.49779 0.90965 0.0
H698 H 0.62651 0.38566 0.92349 0.0
H699 H 0.57167 0.48929 0.93912 0.0
H700 H 0.60847 0.47215 0.99262 0.0
H701 H 0.57367 0.46328 0.96492 0.0
H702 H 0.67013 0.40675 0.94401 0.0
H703 H 0.70292 0.41268 0.9722 0.0
C704 C 0.59891 0.41617 0.90349 0.0
C705 C 0.57784 0.44794 0.89919 0.0
C706 C 0.61 0.41032 0.92072 0.0
C707 C 0.60139 0.43687 0.93398 0.0
C708 C 0.5785 0.46758 0.9296 0.0
C709 C 0.56642 0.47266 0.91251 0.0
C710 C 0.62165 0.45701 0.98213 0.0
C711 C 0.65834 0.44325 0.98445 0.0
C712 C 0.60195 0.45227 0.96613 0.0
C713 C 0.61914 0.43509 0.95184 0.0
C714 C 0.65536 0.41971 0.95455 0.0
C715 C 0.67447 0.42329 0.97074 0.0
H716 H 0.71359 0.06321 0.16788 0.0
H717 H 0.79221 0.14482 0.14983 0.0
H718 H 0.73306 0.08102 0.1975 0.0
H719 H 0.81352 0.16123 0.17956 0.0
H720 H 0.79196 0.22506 0.23032 0.0
H721 H 0.7861 0.19738 0.20127 0.0
H722 H 0.77536 0.08633 0.22163 0.0
H723 H 0.77947 0.11465 0.25094 0.0
C724 C 0.73613 0.08398 0.17022 0.0
C725 C 0.75094 0.10313 0.15653 0.0
C726 C 0.74741 0.09418 0.18729 0.0
C727 C 0.77426 0.12329 0.19102 0.0
C728 C 0.79183 0.13962 0.1772 0.0
C729 C 0.77997 0.12994 0.16014 0.0
C730 C 0.78851 0.1947 0.22863 0.0
C731 C 0.78591 0.17208 0.24294 0.0
C732 C 0.7856 0.17867 0.21191 0.0
C733 C 0.78058 0.13945 0.20899 0.0
C734 C 0.77878 0.11666 0.22334 0.0
C735 C 0.78116 0.13285 0.24015 0.0
H736 H 0.14374 0.31479 0.41397 0.0
H737 H 0.24212 0.24849 0.42621 0.0
H738 H 0.12731 0.31524 0.444 0.0
H739 H 0.22605 0.24964 0.45636 0.0
H740 H 0.14354 0.2009 0.4951 0.0
H741 H 0.1763 0.21595 0.46943 0.0
H742 H 0.13911 0.33129 0.47449 0.0
H743 H 0.1062 0.31611 0.50032 0.0
C744 C 0.16261 0.3014 0.42316 0.0
C745 C 0.19384 0.281 0.41757 0.0
C746 C 0.15322 0.30175 0.44045 0.0
C747 C 0.17493 0.2818 0.45256 0.0
C748 C 0.20826 0.26459 0.44729 0.0
C749 C 0.21768 0.26427 0.43 0.0
C750 C 0.14284 0.22962 0.49091 0.0
C751 C 0.12195 0.25717 0.49964 0.0
C752 C 0.16183 0.23834 0.47622 0.0
C753 C 0.1601 0.27477 0.46977 0.0
C754 C 0.14065 0.30284 0.47899 0.0
C755 C 0.12191 0.29417 0.49382 0.0
H756 H 0.93909 0.60509 0.64215 0.0
H757 H 0.98255 0.71469 0.66062 0.0
H758 H 0.92899 0.58869 0.67168 0.0
H759 H 0.97192 0.69836 0.69016 0.0
H760 H 0.02039 0.62372 0.73404 0.0
H761 H 0.00958 0.65328 0.70666 0.0
H762 H 0.90014 0.59828 0.69991 0.0
H763 H 0.91117 0.5682 0.72747 0.0
C764 C 0.94525 0.62621 0.65244 0.0
C765 C 0.96249 0.66084 0.64903 0.0
C766 C 0.93932 0.61682 0.66941 0.0
C767 C 0.9505 0.64191 0.68328 0.0
C768 C 0.96378 0.67814 0.67973 0.0
C769 C 0.96959 0.68759 0.66277 0.0
C770 C 0.99376 0.61828 0.72687 0.0
C771 C 0.96681 0.59328 0.73284 0.0
C772 C 0.98737 0.63559 0.71122 0.0
C773 C 0.95393 0.62821 0.7011 0.0
C774 C 0.92625 0.60438 0.70739 0.0
C775 C 0.93254 0.58723 0.72317 0.0
H776 H 0.62114 0.13108 0.40994 0.0
H777 H 0.71127 0.21087 0.42463 0.0
H778 H 0.62749 0.14484 0.37964 0.0
H779 H 0.71744 0.22467 0.39442 0.0
H780 H 0.71697 0.25028 0.33874 0.0
H781 H 0.68822 0.24845 0.3667 0.0
H782 H 0.68238 0.12673 0.36159 0.0
H783 H 0.71119 0.12848 0.33379 0.0
C784 C 0.64142 0.15249 0.40678 0.0
C785 C 0.66603 0.16962 0.41965 0.0
C786 C 0.64519 0.16015 0.38941 0.0
C787 C 0.67322 0.1855 0.38465 0.0
C788 C 0.69543 0.20516 0.39768 0.0
C789 C 0.69201 0.19714 0.41499 0.0
C790 C 0.70867 0.22319 0.3434 0.0
C791 C 0.71674 0.18948 0.33417 0.0
C792 C 0.69234 0.22218 0.35942 0.0
C793 C 0.68327 0.18747 0.36637 0.0
C794 C 0.68874 0.15394 0.35652 0.0
C795 C 0.70549 0.15493 0.34063 0.0
H796 H 0.10171 0.14617 0.67823 0.0
H797 H 0.20438 0.19914 0.66291 0.0
H798 H 0.07496 0.14912 0.64852 0.0
H799 H 0.1781 0.20165 0.63349 0.0
H800 H 0.12909 0.18275 0.57921 0.0
H801 H 0.15408 0.16192 0.60714 0.0
H802 H 0.05628 0.20675 0.63149 0.0
H803 H 0.03146 0.22768 0.60378 0.0
C804 C 0.11872 0.15778 0.66848 0.0
C805 C 0.15485 0.17288 0.67288 0.0
C806 C 0.10347 0.15954 0.65154 0.0
C807 C 0.12449 0.17564 0.63873 0.0
C808 C 0.16138 0.18875 0.64302 0.0
C809 C 0.17626 0.18763 0.65992 0.0
C810 C 0.11271 0.18763 0.59049 0.0
C811 C 0.07857 0.20728 0.58934 0.0
C812 C 0.12701 0.17575 0.60645 0.0
C813 C 0.10708 0.18274 0.62146 0.0
C814 C 0.07204 0.2006 0.62012 0.0
C815 C 0.05805 0.21294 0.60426 0.0
H816 H 0.08388 0.6626 0.90486 0.0
H817 H 0.96328 0.67687 0.90705 0.0
H818 H 0.07455 0.63198 0.87607 0.0
H819 H 0.95419 0.64666 0.87837 0.0
H820 H 0.95107 0.54469 0.84007 0.0
H821 H 0.96298 0.57962 0.86747 0.0
H822 H 0.05035 0.64495 0.84526 0.0
H823 H 0.03848 0.60988 0.8176 0.0
C824 C 0.05546 0.65941 0.89917 0.0
C825 C 0.02425 0.6716 0.90832 0.0
C826 C 0.05018 0.64208 0.88268 0.0
C827 C 0.01362 0.63658 0.87513 0.0
C828 C 0.98263 0.65003 0.88403 0.0
C829 C 0.98788 0.66745 0.90042 0.0
C830 C 0.97292 0.56641 0.84097 0.0
C831 C 0.99379 0.57454 0.82663 0.0
C832 C 0.97953 0.58659 0.85665 0.0
C833 C 0.00735 0.61518 0.85842 0.0
C834 C 0.02878 0.62299 0.84422 0.0
C835 C 0.02188 0.603 0.82841 0.0
H836 H 0.58158 0.46789 0.14776 0.0
H837 H 0.65852 0.55795 0.16612 0.0
H838 H 0.6116 0.46457 0.12029 0.0
H839 H 0.68908 0.55419 0.13837 0.0
H840 H 0.75647 0.48979 0.09418 0.0
H841 H 0.72749 0.50289 0.1217 0.0
H842 H 0.61809 0.50799 0.09506 0.0
H843 H 0.64684 0.49507 0.06755 0.0
C844 C 0.60508 0.48688 0.14597 0.0
C845 C 0.61785 0.51307 0.15914 0.0
C846 C 0.62201 0.48519 0.13016 0.0
C847 C 0.65243 0.5093 0.1272 0.0
C848 C 0.66563 0.5353 0.14038 0.0
C849 C 0.64819 0.53745 0.1562 0.0
C850 C 0.72629 0.49413 0.09417 0.0
C851 C 0.70389 0.49099 0.0787 0.0
C852 C 0.70981 0.50187 0.1099 0.0
C853 C 0.6706 0.50617 0.11046 0.0
C854 C 0.64839 0.50443 0.09496 0.0
C855 C 0.66488 0.49713 0.07922 0.0
loop_
_geom_bond_atom_site_label_1
_geom_bond_atom_site_label_2
_geom_bond_distance
_geom_bond_site_symmetry_2
_ccdc_geom_bond_type
Mg0 O7 2.141 . S
Mg0 O8 2.048 . S
Mg0 O9 2.048 . S
Mg0 O12 2.141 . S
C1 O2 1.313 . S
C1 O8 1.195 . S
O2 C1 1.313 . S
C3 O4 1.245 . S
C3 O12 1.289 . S
O4 C3 1.245 . S
C5 O6 1.245 . S
C5 O7 1.289 . S
O6 C5 1.245 . S
O7 Mg0 2.141 . S
O7 C5 1.289 . S
O8 Mg0 2.048 . S
O8 C1 1.195 . S
O9 Mg0 2.048 . S
O9 C10 1.195 . S
C10 O9 1.195 . S
C10 O11 1.313 . S
O11 C10 1.313 . S
O12 Mg0 2.141 . S
O12 C3 1.289 . S
Mg13 O20 2.141 . S
Mg13 O21 2.048 . S
Mg13 O22 2.048 . S
Mg13 O25 2.141 . S
C14 O15 1.313 . S
C14 O21 1.195 . S
O15 C14 1.313 . S
C16 O17 1.245 . S
C16 O25 1.289 . S
O17 C16 1.245 . S
C18 O19 1.245 . S
C18 O20 1.289 . S
O19 C18 1.245 . S
O20 Mg13 2.141 . S
O20 C18 1.289 . S
O21 Mg13 2.048 . S
O21 C14 1.195 . S
O22 Mg13 2.048 . S
O22 C23 1.195 . S
C23 O22 1.195 . S
C23 O24 1.313 . S
O24 C23 1.313 . S
O25 Mg13 2.141 . S
O25 C16 1.289 . S
Mg26 O33 2.141 . S
Mg26 O34 2.048 . S
Mg26 O35 2.048 . S
Mg26 O38 2.141 . S
C27 O28 1.313 . S
C27 O34 1.195 . S
O28 C27 1.313 . S
C29 O30 1.245 . S
C29 O38 1.289 . S
O30 C29 1.245 . S
C31 O32 1.245 . S
C31 O33 1.289 . S
O32 C31 1.245 . S
O33 Mg26 2.141 . S
O33 C31 1.289 . S
O34 Mg26 2.048 . S
O34 C27 1.195 . S
O35 Mg26 2.048 . S
O35 C36 1.195 . S
C36 O35 1.195 . S
C36 O37 1.313 . S
O37 C36 1.313 . S
O38 Mg26 2.141 . S
O38 C29 1.289 . S
Mg39 O46 2.141 . S
Mg39 O47 2.048 . S
Mg39 O48 2.048 1_545 S
Mg39 O51 2.141 1_545 S
C40 O41 1.313 . S
C40 O47 1.195 . S
O41 C40 1.313 . S
C42 O43 1.245 . S
C42 O51 1.289 . S
O43 C42 1.245 . S
C44 O45 1.245 . S
C44 O46 1.289 . S
O45 C44 1.245 . S
O46 Mg39 2.141 . S
O46 C44 1.289 . S
O47 Mg39 2.048 . S
O47 C40 1.195 . S
O48 Mg39 2.048 1_565 S
O48 C49 1.195 . S
C49 O48 1.195 . S
C49 O50 1.313 . S
O50 C49 1.313 . S
O51 Mg39 2.141 1_565 S
O51 C42 1.289 . S
Mg52 O59 2.141 . S
Mg52 O60 2.048 . S
Mg52 O61 2.048 1_455 S
Mg52 O64 2.141 1_455 S
C53 O54 1.313 . S
C53 O60 1.195 . S
O54 C53 1.313 . S
C55 O56 1.245 . S
C55 O64 1.289 . S
O56 C55 1.245 . S
C57 O58 1.245 . S
C57 O59 1.289 . S
O58 C57 1.245 . S
O59 Mg52 2.141 . S
O59 C57 1.289 . S
O60 Mg52 2.048 . S
O60 C53 1.195 . S
O61 Mg52 2.048 1_655 S
O61 C62 1.195 . S
C62 O61 1.195 . S
C62 O63 1.313 . S
O63 C62 1.313 . S
O64 Mg52 2.141 1_655 S
O64 C55 1.289 . S
Mg65 O72 2.141 . S
Mg65 O73 2.048 . S
Mg65 O74 2.048 . S
Mg65 O77 2.141 . S
C66 O67 1.313 . S
C66 O73 1.195 . S
O67 C66 1.313 . S
C68 O69 1.245 . S
C68 O77 1.289 . S
O69 C68 1.245 . S
C70 O71 1.245 . S
C70 O72 1.289 . S
O71 C70 1.245 . S
O72 Mg65 2.141 . S
O72 C70 1.289 . S
O73 Mg65 2.048 . S
O73 C66 1.195 . S
O74 Mg65 2.048 . S
O74 C75 1.195 . S
C75 O74 1.195 . S
C75 O76 1.313 . S
O76 C75 1.313 . S
O77 Mg65 2.141 . S
O77 C68 1.289 . S
Mg78 O85 2.141 . S
Mg78 O86 2.048 . S
Mg78 O87 2.048 1_545 S
Mg78 O90 2.141 . S
C79 O80 1.313 . S
C79 O86 1.195 . S
O80 C79 1.313 . S
C81 O82 1.245 . S
C81 O90 1.289 . S
O82 C81 1.245 . S
C83 O84 1.245 . S
C83 O85 1.289 . S
O84 C83 1.245 . S
O85 Mg78 2.141 . S
O85 C83 1.289 . S
O86 Mg78 2.048 . S
O86 C79 1.195 . S
O87 Mg78 2.048 1_565 S
O87 C88 1.195 . S
C88 O87 1.195 . S
C88 O89 1.313 1_565 S
O89 C88 1.313 1_545 S
O90 Mg78 2.141 . S
O90 C81 1.289 . S
Mg91 O98 2.141 . S
Mg91 O99 2.048 . S
Mg91 O100 2.048 . S
Mg91 O103 2.141 . S
C92 O93 1.313 . S
C92 O99 1.195 . S
O93 C92 1.313 . S
C94 O95 1.245 . S
C94 O103 1.289 . S
O95 C94 1.245 . S
C96 O97 1.245 . S
C96 O98 1.289 . S
O97 C96 1.245 . S
O98 Mg91 2.141 . S
O98 C96 1.289 . S
O99 Mg91 2.048 . S
O99 C92 1.195 . S
O100 Mg91 2.048 . S
O100 C101 1.195 . S
C101 O100 1.195 . S
C101 O102 1.313 . S
O102 C101 1.313 . S
O103 Mg91 2.141 . S
O103 C94 1.289 . S
O104 Cd105 2.223 . S
O104 C112 1.315 . S
Cd105 O104 2.223 . S
Cd105 O108 2.297 . S
Cd105 O109 2.439 . S
Cd105 O115 2.240 . S
Cd106 O107 2.240 . S
Cd106 O114 2.223 . S
Cd106 O116 2.297 . S
Cd106 O117 2.439 . S
O107 Cd106 2.240 . S
O107 C112 1.279 . S
O108 Cd105 2.297 . S
O108 C110 1.247 . S
O109 Cd105 2.439 . S
O109 C110 1.208 . S
C110 O108 1.247 . S
C110 O109 1.208 . S
C111 O116 1.247 . S
C111 O117 1.208 . S
C112 O104 1.315 . S
C112 O107 1.279 . S
C113 O114 1.315 . S
C113 O115 1.279 . S
O114 Cd106 2.223 . S
O114 C113 1.315 . S
O115 Cd105 2.240 . S
O115 C113 1.279 . S
O116 Cd106 2.297 . S
O116 C111 1.247 . S
O117 Cd106 2.439 . S
O117 C111 1.208 . S
O118 Cd119 2.223 . S
O118 C126 1.315 . S
Cd119 O118 2.223 . S
Cd119 O122 2.297 . S
Cd119 O123 2.439 . S
Cd119 O129 2.240 . S
Cd120 O121 2.240 . S
Cd120 O128 2.223 . S
Cd120 O130 2.297 . S
Cd120 O131 2.439 . S
O121 Cd120 2.240 . S
O121 C126 1.279 . S
O122 Cd119 2.297 . S
O122 C124 1.247 . S
O123 Cd119 2.439 . S
O123 C124 1.208 . S
C124 O122 1.247 . S
C124 O123 1.208 . S
C125 O130 1.247 . S
C125 O131 1.208 . S
C126 O118 1.315 . S
C126 O121 1.279 . S
C127 O128 1.315 . S
C127 O129 1.279 . S
O128 Cd120 2.223 . S
O128 C127 1.315 . S
O129 Cd119 2.240 . S
O129 C127 1.279 . S
O130 Cd120 2.297 . S
O130 C125 1.247 . S
O131 Cd120 2.439 . S
O131 C125 1.208 . S
O132 Cd133 2.223 . S
O132 C140 1.315 . S
Cd133 O132 2.223 . S
Cd133 O136 2.297 . S
Cd133 O137 2.439 1_565 S
Cd133 O143 2.240 . S
Cd134 O135 2.240 . S
Cd134 O142 2.223 1_545 S
Cd134 O144 2.297 . S
Cd134 O145 2.439 . S
O135 Cd134 2.240 . S
O135 C140 1.279 1_545 S
O136 Cd133 2.297 . S
O136 C138 1.247 . S
O137 Cd133 2.439 1_545 S
O137 C138 1.208 1_545 S
C138 O136 1.247 . S
C138 O137 1.208 1_565 S
C139 O144 1.247 . S
C139 O145 1.208 . S
C140 O132 1.315 . S
C140 O135 1.279 1_565 S
C141 O142 1.315 . S
C141 O143 1.279 . S
O142 Cd134 2.223 1_565 S
O142 C141 1.315 . S
O143 Cd133 2.240 . S
O143 C141 1.279 . S
O144 Cd134 2.297 . S
O144 C139 1.247 . S
O145 Cd134 2.439 . S
O145 C139 1.208 . S
O146 Cd147 2.223 . S
O146 C154 1.315 . S
Cd147 O146 2.223 . S
Cd147 O150 2.297 . S
Cd147 O151 2.439 . S
Cd147 O157 2.240 . S
Cd148 O149 2.240 . S
Cd148 O156 2.223 . S
Cd148 O158 2.297 . S
Cd148 O159 2.439 . S
O149 Cd148 2.240 . S
O149 C154 1.279 . S
O150 Cd147 2.297 . S
O150 C152 1.247 . S
O151 Cd147 2.439 . S
O151 C152 1.208 . S
C152 O150 1.247 . S
C152 O151 1.208 . S
C153 O158 1.247 . S
C153 O159 1.208 . S
C154 O146 1.315 . S
C154 O149 1.279 . S
C155 O156 1.315 . S
C155 O157 1.279 . S
O156 Cd148 2.223 . S
O156 C155 1.315 . S
O157 Cd147 2.240 . S
O157 C155 1.279 . S
O158 Cd148 2.297 . S
O158 C153 1.247 . S
O159 Cd148 2.439 . S
O159 C153 1.208 . S
O160 Cd161 2.223 . S
O160 C168 1.315 1_655 S
Cd161 O160 2.223 . S
Cd161 O164 2.297 . S
Cd161 O165 2.439 1_655 S
Cd161 O171 2.240 . S
Cd162 O163 2.240 . S
Cd162 O170 2.223 1_455 S
Cd162 O172 2.297 . S
Cd162 O173 2.439 . S
O163 Cd162 2.240 . S
O163 C168 1.279 . S
O164 Cd161 2.297 . S
O164 C166 1.225 1_655 S
O165 Cd161 2.439 1_455 S
O165 C166 1.219 . S
C166 O164 1.225 1_455 S
C166 O165 1.219 . S
C167 O172 1.247 . S
C167 O173 1.208 . S
C168 O160 1.315 1_455 S
C168 O163 1.279 . S
C169 O170 1.315 . S
C169 O171 1.279 . S
O170 Cd162 2.223 1_655 S
O170 C169 1.315 . S
O171 Cd161 2.240 . S
O171 C169 1.279 . S
O172 Cd162 2.297 . S
O172 C167 1.247 . S
O173 Cd162 2.439 . S
O173 C167 1.208 . S
O174 Cd175 2.223 . S
O174 C182 1.315 . S
Cd175 O174 2.223 . S
Cd175 O178 2.297 . S
Cd175 O179 2.439 . S
Cd175 O185 2.240 . S
Cd176 O177 2.240 . S
Cd176 O184 2.223 . S
Cd176 O186 2.297 . S
Cd176 O187 2.439 . S
O177 Cd176 2.240 . S
O177 C182 1.279 . S
O178 Cd175 2.297 . S
O178 C180 1.247 . S
O179 Cd175 2.439 . S
O179 C180 1.208 . S
C180 O178 1.247 . S
C180 O179 1.208 . S
C181 O186 1.247 . S
C181 O187 1.208 . S
C182 O174 1.315 . S
C182 O177 1.279 . S
C183 O184 1.315 . S
C183 O185 1.279 . S
O184 Cd176 2.223 . S
O184 C183 1.315 . S
O185 Cd175 2.240 . S
O185 C183 1.279 . S
O186 Cd176 2.297 . S
O186 C181 1.247 . S
O187 Cd176 2.439 . S
O187 C181 1.208 . S
O188 Cd189 2.223 . S
O188 C196 1.315 . S
Cd189 O188 2.223 . S
Cd189 O192 2.297 . S
Cd189 O193 2.439 . S
Cd189 O199 2.240 . S
Cd190 O191 2.240 . S
Cd190 O198 2.223 . S
Cd190 O200 2.297 1_554 S
Cd190 O201 2.439 1_554 S
O191 Cd190 2.240 . S
O191 C196 1.279 . S
O192 Cd189 2.297 . S
O192 C194 1.247 . S
O193 Cd189 2.439 . S
O193 C194 1.208 . S
C194 O192 1.247 . S
C194 O193 1.208 . S
C195 O200 1.247 . S
C195 O201 1.208 . S
C196 O188 1.315 . S
C196 O191 1.279 . S
C197 O198 1.315 . S
C197 O199 1.279 . S
O198 Cd190 2.223 . S
O198 C197 1.315 . S
O199 Cd189 2.240 . S
O199 C197 1.279 . S
O200 Cd190 2.297 1_556 S
O200 C195 1.247 . S
O201 Cd190 2.439 1_556 S
O201 C195 1.208 . S
O202 Cd203 2.223 . S
O202 C210 1.315 . S
Cd203 O202 2.223 . S
Cd203 O206 2.297 . S
Cd203 O207 2.439 . S
Cd203 O213 2.240 . S
Cd204 O205 2.240 . S
Cd204 O212 2.223 . S
Cd204 O214 2.297 . S
Cd204 O215 2.439 . S
O205 Cd204 2.240 . S
O205 C210 1.279 . S
O206 Cd203 2.297 . S
O206 C208 1.247 . S
O207 Cd203 2.439 . S
O207 C208 1.208 . S
C208 O206 1.247 . S
C208 O207 1.208 . S
C209 O214 1.247 . S
C209 O215 1.208 . S
C210 O202 1.315 . S
C210 O205 1.279 . S
C211 O212 1.315 . S
C211 O213 1.279 . S
O212 Cd204 2.223 . S
O212 C211 1.315 . S
O213 Cd203 2.240 . S
O213 C211 1.279 . S
O214 Cd204 2.297 . S
O214 C209 1.247 . S
O215 Cd204 2.439 . S
O215 C209 1.208 . S
H216 C224 0.950 . S
H217 C229 0.950 . S
H218 C226 0.950 1_565 S
H219 C228 0.950 . S
H220 C230 0.950 . S
H221 C232 0.950 . S
H222 C234 0.950 . S
H223 C235 0.950 . S
C224 H216 0.950 . S
C224 C225 1.386 . S
C224 C226 1.391 . S
C225 C224 1.386 . S
C225 C229 1.393 . S
C226 H218 0.950 1_545 S
C226 C224 1.391 . S
C226 C227 1.401 . S
C227 C226 1.401 . S
C227 C228 1.408 . S
C227 C233 1.481 1_545 S
C228 H219 0.950 . S
C228 C227 1.408 . S
C228 C229 1.391 . S
C229 H217 0.950 . S
C229 C225 1.393 . S
C229 C228 1.391 . S
C230 H220 0.950 . S
C230 C231 1.386 . S
C230 C232 1.391 . S
C231 C230 1.386 . S
C231 C235 1.393 . S
C232 H221 0.950 . S
C232 C230 1.391 . S
C232 C233 1.400 . S
C233 C227 1.481 1_565 S
C233 C232 1.400 . S
C233 C234 1.398 . S
C234 H222 0.950 . S
C234 C233 1.398 . S
C234 C235 1.391 . S
C235 H223 0.950 . S
C235 C231 1.393 . S
C235 C234 1.391 . S
H236 C244 0.950 . S
H237 C249 0.950 . S
H238 C246 0.950 . S
H239 C248 0.950 . S
H240 C250 0.950 . S
H241 C252 0.950 . S
H242 C254 0.950 . S
H243 C255 0.950 . S
C244 H236 0.950 . S
C244 C245 1.386 . S
C244 C246 1.391 . S
C245 C244 1.386 . S
C245 C249 1.393 . S
C246 H238 0.950 . S
C246 C244 1.391 . S
C246 C247 1.400 . S
C247 C246 1.400 . S
C247 C248 1.398 . S
C247 C253 1.491 . S
C248 H239 0.950 . S
C248 C247 1.398 . S
C248 C249 1.391 . S
C249 H237 0.950 . S
C249 C245 1.393 . S
C249 C248 1.391 . S
C250 H240 0.950 . S
C250 C251 1.386 . S
C250 C252 1.391 . S
C251 C250 1.386 . S
C251 C255 1.393 . S
C252 H241 0.950 . S
C252 C250 1.391 . S
C252 C253 1.400 . S
C253 C247 1.491 . S
C253 C252 1.400 . S
C253 C254 1.398 . S
C254 H242 0.950 . S
C254 C253 1.398 . S
C254 C255 1.391 . S
C255 H243 0.950 . S
C255 C251 1.393 . S
C255 C254 1.391 . S
H256 C264 0.950 . S
H257 C269 0.950 . S
H258 C266 0.950 . S
H259 C268 0.950 . S
H260 C270 0.950 . S
H261 C272 0.950 . S
H262 C274 0.950 . S
H263 C275 0.950 . S
C264 H256 0.950 . S
C264 C265 1.386 . S
C264 C266 1.391 . S
C265 C264 1.386 . S
C265 C269 1.393 . S
C266 H258 0.950 . S
C266 C264 1.391 . S
C266 C267 1.400 . S
C267 C266 1.400 . S
C267 C268 1.398 . S
C267 C273 1.491 . S
C268 H259 0.950 . S
C268 C267 1.398 . S
C268 C269 1.391 . S
C269 H257 0.950 . S
C269 C265 1.393 . S
C269 C268 1.391 . S
C270 H260 0.950 . S
C270 C271 1.386 . S
C270 C272 1.391 . S
C271 C270 1.386 . S
C271 C275 1.393 . S
C272 H261 0.950 . S
C272 C270 1.391 . S
C272 C273 1.400 . S
C273 C267 1.491 . S
C273 C272 1.400 . S
C273 C274 1.398 . S
C274 H262 0.950 . S
C274 C273 1.398 . S
C274 C275 1.391 . S
C275 H263 0.950 . S
C275 C271 1.393 . S
C275 C274 1.391 . S
H276 C284 0.950 . S
H277 C289 0.950 . S
H278 C286 0.950 . S
H279 C288 0.950 . S
H280 C290 0.950 . S
H281 C292 0.950 . S
H282 C294 0.950 . S
H283 C295 0.950 . S
C284 H276 0.950 . S
C284 C285 1.386 . S
C284 C286 1.391 . S
C285 C284 1.386 . S
C285 C289 1.393 . S
C286 H278 0.950 . S
C286 C284 1.391 . S
C286 C287 1.400 . S
C287 C286 1.400 . S
C287 C288 1.398 . S
C287 C293 1.491 . S
C288 H279 0.950 . S
C288 C287 1.398 . S
C288 C289 1.391 . S
C289 H277 0.950 . S
C289 C285 1.393 . S
C289 C288 1.391 . S
C290 H280 0.950 . S
C290 C291 1.386 . S
C290 C292 1.391 . S
C291 C290 1.386 . S
C291 C295 1.393 . S
C292 H281 0.950 . S
C292 C290 1.391 . S
C292 C293 1.400 . S
C293 C287 1.491 . S
C293 C292 1.400 . S
C293 C294 1.398 . S
C294 H282 0.950 . S
C294 C293 1.398 . S
C294 C295 1.391 . S
C295 H283 0.950 . S
C295 C291 1.393 . S
C295 C294 1.391 . S
H296 C304 0.950 . S
H297 C309 0.950 . S
H298 C306 0.950 . S
H299 C308 0.950 . S
H300 C310 0.950 . S
H301 C312 0.950 . S
H302 C314 0.950 . S
H303 C315 0.950 . S
C304 H296 0.950 . S
C304 C305 1.386 . S
C304 C306 1.391 . S
C305 C304 1.386 . S
C305 C309 1.393 1_556 S
C306 H298 0.950 . S
C306 C304 1.391 . S
C306 C307 1.400 1_556 S
C307 C306 1.400 1_554 S
C307 C308 1.398 . S
C307 C313 1.491 . S
C308 H299 0.950 . S
C308 C307 1.398 . S
C308 C309 1.391 . S
C309 H297 0.950 . S
C309 C305 1.393 1_554 S
C309 C308 1.391 . S
C310 H300 0.950 . S
C310 C311 1.386 . S
C310 C312 1.391 . S
C311 C310 1.386 . S
C311 C315 1.393 . S
C312 H301 0.950 . S
C312 C310 1.391 . S
C312 C313 1.400 . S
C313 C307 1.491 . S
C313 C312 1.400 . S
C313 C314 1.398 . S
C314 H302 0.950 . S
C314 C313 1.398 . S
C314 C315 1.391 . S
C315 H303 0.950 . S
C315 C311 1.393 . S
C315 C314 1.391 . S
H316 C324 0.950 . S
H317 C329 0.950 . S
H318 C326 0.950 . S
H319 C328 0.950 . S
H320 C330 0.950 . S
H321 C332 0.950 . S
H322 C334 0.950 . S
H323 C335 0.950 . S
C324 H316 0.950 . S
C324 C325 1.386 . S
C324 C326 1.391 . S
C325 C324 1.386 . S
C325 C329 1.393 . S
C326 H318 0.950 . S
C326 C324 1.391 . S
C326 C327 1.400 . S
C327 C326 1.400 . S
C327 C328 1.398 . S
C327 C333 1.491 . S
C328 H319 0.950 . S
C328 C327 1.398 . S
C328 C329 1.391 . S
C329 H317 0.950 . S
C329 C325 1.393 . S
C329 C328 1.391 . S
C330 H320 0.950 . S
C330 C331 1.386 . S
C330 C332 1.391 . S
C331 C330 1.386 . S
C331 C335 1.393 . S
C332 H321 0.950 . S
C332 C330 1.391 . S
C332 C333 1.400 . S
C333 C327 1.491 . S
C333 C332 1.400 . S
C333 C334 1.398 . S
C334 H322 0.950 . S
C334 C333 1.398 . S
C334 C335 1.391 . S
C335 H323 0.950 . S
C335 C331 1.393 . S
C335 C334 1.391 . S
H336 C344 0.950 . S
H337 C349 0.950 . S
H338 C346 0.950 . S
H339 C348 0.950 . S
H340 C350 0.950 . S
H341 C352 0.950 . S
H342 C354 0.950 . S
H343 C355 0.950 . S
C344 H336 0.950 . S
C344 C345 1.386 1_565 S
C344 C346 1.391 . S
C345 C344 1.386 1_545 S
C345 C349 1.393 . S
C346 H338 0.950 . S
C346 C344 1.391 . S
C346 C347 1.400 1_565 S
C347 C346 1.400 1_545 S
C347 C348 1.398 . S
C347 C353 1.491 . S
C348 H339 0.950 . S
C348 C347 1.398 . S
C348 C349 1.391 . S
C349 H337 0.950 . S
C349 C345 1.393 . S
C349 C348 1.391 . S
C350 H340 0.950 . S
C350 C351 1.386 . S
C350 C352 1.391 . S
C351 C350 1.386 . S
C351 C355 1.393 1_545 S
C352 H341 0.950 . S
C352 C350 1.391 . S
C352 C353 1.400 . S
C353 C347 1.491 . S
C353 C352 1.400 . S
C353 C354 1.398 1_545 S
C354 H342 0.950 . S
C354 C353 1.398 1_565 S
C354 C355 1.391 . S
C355 H343 0.950 . S
C355 C351 1.393 1_565 S
C355 C354 1.391 . S
H356 C364 0.950 . S
H357 C369 0.950 . S
H358 C366 0.950 . S
H359 C368 0.950 . S
H360 C370 0.950 . S
H361 C372 0.950 . S
H362 C374 0.950 . S
H363 C375 0.950 . S
C364 H356 0.950 . S
C364 C365 1.386 . S
C364 C366 1.391 . S
C365 C364 1.386 . S
C365 C369 1.393 . S
C366 H358 0.950 . S
C366 C364 1.391 . S
C366 C367 1.400 . S
C367 C366 1.400 . S
C367 C368 1.398 . S
C367 C373 1.491 . S
C368 H359 0.950 . S
C368 C367 1.398 . S
C368 C369 1.391 . S
C369 H357 0.950 . S
C369 C365 1.393 . S
C369 C368 1.391 . S
C370 H360 0.950 . S
C370 C371 1.386 . S
C370 C372 1.391 . S
C371 C370 1.386 . S
C371 C375 1.393 . S
C372 H361 0.950 . S
C372 C370 1.391 . S
C372 C373 1.400 . S
C373 C367 1.491 . S
C373 C372 1.400 . S
C373 C374 1.398 . S
C374 H362 0.950 . S
C374 C373 1.398 . S
C374 C375 1.391 . S
C375 H363 0.950 . S
C375 C371 1.393 . S
C375 C374 1.391 . S
H376 C384 0.950 . S
H377 C389 0.950 . S
H378 C386 0.950 . S
H379 C388 0.950 . S
H380 C390 0.950 . S
H381 C392 0.950 . S
H382 C394 0.950 . S
H383 C395 0.950 . S
C384 H376 0.950 . S
C384 C385 1.386 . S
C384 C386 1.391 . S
C385 C384 1.386 . S
C385 C389 1.393 . S
C386 H378 0.950 . S
C386 C384 1.391 . S
C386 C387 1.400 . S
C387 C386 1.400 . S
C387 C388 1.398 . S
C387 C393 1.491 . S
C388 H379 0.950 . S
C388 C387 1.398 . S
C388 C389 1.391 . S
C389 H377 0.950 . S
C389 C385 1.393 . S
C389 C388 1.391 . S
C390 H380 0.950 . S
C390 C391 1.386 . S
C390 C392 1.391 . S
C391 C390 1.386 . S
C391 C395 1.393 . S
C392 H381 0.950 . S
C392 C390 1.391 . S
C392 C393 1.400 . S
C393 C387 1.491 . S
C393 C392 1.400 . S
C393 C394 1.398 . S
C394 H382 0.950 . S
C394 C393 1.398 . S
C394 C395 1.391 . S
C395 H383 0.950 . S
C395 C391 1.393 . S
C395 C394 1.391 . S
H396 C404 0.950 . S
H397 C409 0.950 . S
H398 C406 0.950 . S
H399 C408 0.950 . S
H400 C410 0.950 . S
H401 C412 0.950 . S
H402 C414 0.950 . S
H403 C415 0.950 . S
C404 H396 0.950 . S
C404 C405 1.386 . S
C404 C406 1.391 . S
C405 C404 1.386 . S
C405 C409 1.393 . S
C406 H398 0.950 . S
C406 C404 1.391 . S
C406 C407 1.400 . S
C407 C406 1.400 . S
C407 C408 1.398 . S
C407 C413 1.491 . S
C408 H399 0.950 . S
C408 C407 1.398 . S
C408 C409 1.391 . S
C409 H397 0.950 . S
C409 C405 1.393 . S
C409 C408 1.391 . S
C410 H400 0.950 . S
C410 C411 1.386 . S
C410 C412 1.391 . S
C411 C410 1.386 . S
C411 C415 1.393 . S
C412 H401 0.950 . S
C412 C410 1.391 . S
C412 C413 1.400 . S
C413 C407 1.491 . S
C413 C412 1.400 . S
C413 C414 1.398 . S
C414 H402 0.950 . S
C414 C413 1.398 . S
C414 C415 1.391 . S
C415 H403 0.950 . S
C415 C411 1.393 . S
C415 C414 1.391 . S
H416 C424 0.950 . S
H417 C429 0.950 . S
H418 C426 0.950 . S
H419 C428 0.950 . S
H420 C430 0.950 . S
H421 C432 0.950 . S
H422 C434 0.950 . S
H423 C435 0.950 . S
C424 H416 0.950 . S
C424 C425 1.386 . S
C424 C426 1.391 . S
C425 C424 1.386 . S
C425 C429 1.393 . S
C426 H418 0.950 . S
C426 C424 1.391 . S
C426 C427 1.400 . S
C427 C426 1.400 . S
C427 C428 1.398 . S
C427 C433 1.491 . S
C428 H419 0.950 . S
C428 C427 1.398 . S
C428 C429 1.391 . S
C429 H417 0.950 . S
C429 C425 1.393 . S
C429 C428 1.391 . S
C430 H420 0.950 . S
C430 C431 1.386 . S
C430 C432 1.391 1_655 S
C431 C430 1.386 . S
C431 C435 1.393 . S
C432 H421 0.950 . S
C432 C430 1.391 1_455 S
C432 C433 1.400 . S
C433 C427 1.491 . S
C433 C432 1.400 . S
C433 C434 1.398 . S
C434 H422 0.950 . S
C434 C433 1.398 . S
C434 C435 1.391 1_455 S
C435 H423 0.950 . S
C435 C431 1.393 . S
C435 C434 1.391 1_655 S
H436 C444 0.950 1_655 S
H437 C449 0.950 . S
H438 C446 0.950 1_655 S
H439 C448 0.950 . S
H440 C450 0.950 . S
H441 C452 0.950 . S
H442 C454 0.950 . S
H443 C455 0.950 . S
C444 H436 0.950 1_455 S
C444 C445 1.386 . S
C444 C446 1.391 . S
C445 C444 1.386 . S
C445 C449 1.393 . S
C446 H438 0.950 1_455 S
C446 C444 1.391 . S
C446 C447 1.400 . S
C447 C446 1.400 . S
C447 C448 1.398 . S
C447 C453 1.491 . S
C448 H439 0.950 . S
C448 C447 1.398 . S
C448 C449 1.391 . S
C449 H437 0.950 . S
C449 C445 1.393 . S
C449 C448 1.391 . S
C450 H440 0.950 . S
C450 C451 1.386 . S
C450 C452 1.391 . S
C451 C450 1.386 . S
C451 C455 1.393 1_455 S
C452 H441 0.950 . S
C452 C450 1.391 . S
C452 C453 1.400 . S
C453 C447 1.491 . S
C453 C452 1.400 . S
C453 C454 1.398 1_455 S
C454 H442 0.950 . S
C454 C453 1.398 1_655 S
C454 C455 1.391 . S
C455 H443 0.950 . S
C455 C451 1.393 1_655 S
C455 C454 1.391 . S
H456 C464 0.950 . S
H457 C469 0.950 . S
H458 C466 0.950 . S
H459 C468 0.950 . S
H460 C470 0.950 . S
H461 C472 0.950 . S
H462 C474 0.950 . S
H463 C475 0.950 . S
C464 H456 0.950 . S
C464 C465 1.386 . S
C464 C466 1.391 . S
C465 C464 1.386 . S
C465 C469 1.393 . S
C466 H458 0.950 . S
C466 C464 1.391 . S
C466 C467 1.400 . S
C467 C466 1.400 . S
C467 C468 1.398 . S
C467 C473 1.491 . S
C468 H459 0.950 . S
C468 C467 1.398 . S
C468 C469 1.391 . S
C469 H457 0.950 . S
C469 C465 1.393 . S
C469 C468 1.391 . S
C470 H460 0.950 . S
C470 C471 1.386 . S
C470 C472 1.391 . S
C471 C470 1.386 . S
C471 C475 1.393 . S
C472 H461 0.950 . S
C472 C470 1.391 . S
C472 C473 1.400 . S
C473 C467 1.491 . S
C473 C472 1.400 . S
C473 C474 1.398 . S
C474 H462 0.950 . S
C474 C473 1.398 . S
C474 C475 1.391 . S
C475 H463 0.950 . S
C475 C471 1.393 . S
C475 C474 1.391 . S
H476 C484 0.950 . S
H477 C489 0.950 . S
H478 C486 0.950 . S
H479 C488 0.950 . S
H480 C490 0.950 . S
H481 C492 0.950 . S
H482 C494 0.950 . S
H483 C495 0.950 . S
C484 H476 0.950 . S
C484 C485 1.386 . S
C484 C486 1.391 . S
C485 C484 1.386 . S
C485 C489 1.393 . S
C486 H478 0.950 . S
C486 C484 1.391 . S
C486 C487 1.400 . S
C487 C486 1.400 . S
C487 C488 1.398 . S
C487 C493 1.491 1_455 S
C488 H479 0.950 . S
C488 C487 1.398 . S
C488 C489 1.391 . S
C489 H477 0.950 . S
C489 C485 1.393 . S
C489 C488 1.391 . S
C490 H480 0.950 . S
C490 C491 1.386 . S
C490 C492 1.391 . S
C491 C490 1.386 . S
C491 C495 1.393 . S
C492 H481 0.950 . S
C492 C490 1.391 . S
C492 C493 1.400 . S
C493 C487 1.491 1_655 S
C493 C492 1.400 . S
C493 C494 1.398 . S
C494 H482 0.950 . S
C494 C493 1.398 . S
C494 C495 1.391 . S
C495 H483 0.950 . S
C495 C491 1.393 . S
C495 C494 1.391 . S
H496 C504 0.950 . S
H497 C509 0.950 . S
H498 C506 0.950 1_554 S
H499 C508 0.950 . S
H500 C510 0.950 . S
H501 C512 0.950 . S
H502 C514 0.950 . S
H503 C515 0.950 . S
C504 H496 0.950 . S
C504 C505 1.386 . S
C504 C506 1.391 . S
C505 C504 1.386 . S
C505 C509 1.393 . S
C506 H498 0.950 1_556 S
C506 C504 1.391 . S
C506 C507 1.400 . S
C507 C506 1.400 . S
C507 C508 1.398 . S
C507 C513 1.491 . S
C508 H499 0.950 . S
C508 C507 1.398 . S
C508 C509 1.391 . S
C509 H497 0.950 . S
C509 C505 1.393 . S
C509 C508 1.391 . S
C510 H500 0.950 . S
C510 C511 1.386 1_556 S
C510 C512 1.391 . S
C511 C510 1.386 1_554 S
C511 C515 1.393 . S
C512 H501 0.950 . S
C512 C510 1.391 . S
C512 C513 1.400 . S
C513 C507 1.491 . S
C513 C512 1.400 . S
C513 C514 1.398 1_556 S
C514 H502 0.950 . S
C514 C513 1.398 1_554 S
C514 C515 1.391 . S
C515 H503 0.950 . S
C515 C511 1.393 . S
C515 C514 1.391 . S
H516 C524 0.950 . S
H517 C529 0.950 . S
H518 C526 0.950 . S
H519 C528 0.950 . S
H520 C530 0.950 . S
H521 C532 0.950 . S
H522 C534 0.950 . S
H523 C535 0.950 . S
C524 H516 0.950 . S
C524 C525 1.386 . S
C524 C526 1.391 . S
C525 C524 1.386 . S
C525 C529 1.393 . S
C526 H518 0.950 . S
C526 C524 1.391 . S
C526 C527 1.400 . S
C527 C526 1.400 . S
C527 C528 1.398 . S
C527 C533 1.491 . S
C528 H519 0.950 . S
C528 C527 1.398 . S
C528 C529 1.391 . S
C529 H517 0.950 . S
C529 C525 1.393 . S
C529 C528 1.391 . S
C530 H520 0.950 . S
C530 C531 1.386 . S
C530 C532 1.391 . S
C531 C530 1.386 . S
C531 C535 1.393 . S
C532 H521 0.950 . S
C532 C530 1.391 . S
C532 C533 1.400 . S
C533 C527 1.491 . S
C533 C532 1.400 . S
C533 C534 1.398 . S
C534 H522 0.950 . S
C534 C533 1.398 . S
C534 C535 1.391 . S
C535 H523 0.950 . S
C535 C531 1.393 . S
C535 C534 1.391 . S
H536 C544 0.950 . S
H537 C549 0.950 . S
H538 C546 0.950 . S
H539 C548 0.950 . S
H540 C550 0.950 . S
H541 C552 0.950 . S
H542 C554 0.950 . S
H543 C555 0.950 . S
C544 H536 0.950 . S
C544 C545 1.386 . S
C544 C546 1.391 . S
C545 C544 1.386 . S
C545 C549 1.393 . S
C546 H538 0.950 . S
C546 C544 1.391 . S
C546 C547 1.400 . S
C547 C546 1.400 . S
C547 C548 1.398 . S
C547 C553 1.491 . S
C548 H539 0.950 . S
C548 C547 1.398 . S
C548 C549 1.391 . S
C549 H537 0.950 . S
C549 C545 1.393 . S
C549 C548 1.391 . S
C550 H540 0.950 . S
C550 C551 1.386 . S
C550 C552 1.391 . S
C551 C550 1.386 . S
C551 C555 1.393 1_545 S
C552 H541 0.950 . S
C552 C550 1.391 . S
C552 C553 1.400 . S
C553 C547 1.491 . S
C553 C552 1.400 . S
C553 C554 1.398 . S
C554 H542 0.950 . S
C554 C553 1.398 . S
C554 C555 1.391 1_545 S
C555 H543 0.950 . S
C555 C551 1.393 1_565 S
C555 C554 1.391 1_565 S
H556 C564 0.950 . S
H557 C569 0.950 . S
H558 C566 0.950 . S
H559 C568 0.950 . S
H560 C570 0.950 . S
H561 C572 0.950 . S
H562 C574 0.950 . S
H563 C575 0.950 . S
C564 H556 0.950 . S
C564 C565 1.386 . S
C564 C566 1.391 . S
C565 C564 1.386 . S
C565 C569 1.393 . S
C566 H558 0.950 . S
C566 C564 1.391 . S
C566 C567 1.400 . S
C567 C566 1.400 . S
C567 C568 1.398 . S
C567 C573 1.491 . S
C568 H559 0.950 . S
C568 C567 1.398 . S
C568 C569 1.391 . S
C569 H557 0.950 . S
C569 C565 1.393 . S
C569 C568 1.391 . S
C570 H560 0.950 . S
C570 C571 1.386 . S
C570 C572 1.391 . S
C571 C570 1.386 . S
C571 C575 1.393 . S
C572 H561 0.950 . S
C572 C570 1.391 . S
C572 C573 1.400 . S
C573 C567 1.491 . S
C573 C572 1.400 . S
C573 C574 1.398 . S
C574 H562 0.950 . S
C574 C573 1.398 . S
C574 C575 1.391 . S
C575 H563 0.950 . S
C575 C571 1.393 . S
C575 C574 1.391 . S
H576 C584 0.950 . S
H577 C589 0.950 . S
H578 C586 0.950 . S
H579 C588 0.950 . S
H580 C590 0.950 1_554 S
H581 C592 0.950 . S
H582 C594 0.950 . S
H583 C595 0.950 . S
C584 H576 0.950 . S
C584 C585 1.386 . S
C584 C586 1.391 . S
C585 C584 1.386 . S
C585 C589 1.393 . S
C586 H578 0.950 . S
C586 C584 1.391 . S
C586 C587 1.400 . S
C587 C586 1.400 . S
C587 C588 1.398 . S
C587 C593 1.491 . S
C588 H579 0.950 . S
C588 C587 1.398 . S
C588 C589 1.391 . S
C589 H577 0.950 . S
C589 C585 1.393 . S
C589 C588 1.391 . S
C590 H580 0.950 1_556 S
C590 C591 1.386 1_556 S
C590 C592 1.391 . S
C591 C590 1.386 1_554 S
C591 C595 1.393 1_554 S
C592 H581 0.950 . S
C592 C590 1.391 . S
C592 C593 1.400 . S
C593 C587 1.491 . S
C593 C592 1.400 . S
C593 C594 1.398 . S
C594 H582 0.950 . S
C594 C593 1.398 . S
C594 C595 1.391 . S
C595 H583 0.950 . S
C595 C591 1.393 1_556 S
C595 C594 1.391 . S
H596 C604 0.950 . S
H597 C609 0.950 . S
H598 C606 0.950 . S
H599 C608 0.950 . S
H600 C610 0.950 . S
H601 C612 0.950 . S
H602 C614 0.950 . S
H603 C615 0.950 . S
C604 H596 0.950 . S
C604 C605 1.386 . S
C604 C606 1.391 . S
C605 C604 1.386 . S
C605 C609 1.393 . S
C606 H598 0.950 . S
C606 C604 1.391 . S
C606 C607 1.400 . S
C607 C606 1.400 . S
C607 C608 1.398 . S
C607 C613 1.491 . S
C608 H599 0.950 . S
C608 C607 1.398 . S
C608 C609 1.391 . S
C609 H597 0.950 . S
C609 C605 1.393 . S
C609 C608 1.391 . S
C610 H600 0.950 . S
C610 C611 1.386 . S
C610 C612 1.391 . S
C611 C610 1.386 . S
C611 C615 1.393 . S
C612 H601 0.950 . S
C612 C610 1.391 . S
C612 C613 1.400 . S
C613 C607 1.491 . S
C613 C612 1.400 . S
C613 C614 1.398 . S
C614 H602 0.950 . S
C614 C613 1.398 . S
C614 C615 1.391 . S
C615 H603 0.950 . S
C615 C611 1.393 . S
C615 C614 1.391 . S
H616 C624 0.950 . S
H617 C629 0.950 . S
H618 C626 0.950 . S
H619 C628 0.950 . S
H620 C630 0.950 . S
H621 C632 0.950 . S
H622 C634 0.950 . S
H623 C635 0.950 . S
C624 H616 0.950 . S
C624 C625 1.386 . S
C624 C626 1.391 . S
C625 C624 1.386 . S
C625 C629 1.393 . S
C626 H618 0.950 . S
C626 C624 1.391 . S
C626 C627 1.400 . S
C627 C626 1.400 . S
C627 C628 1.398 . S
C627 C633 1.491 . S
C628 H619 0.950 . S
C628 C627 1.398 . S
C628 C629 1.391 . S
C629 H617 0.950 . S
C629 C625 1.393 . S
C629 C628 1.391 . S
C630 H620 0.950 . S
C630 C631 1.386 . S
C630 C632 1.391 . S
C631 C630 1.386 . S
C631 C635 1.393 . S
C632 H621 0.950 . S
C632 C630 1.391 . S
C632 C633 1.400 . S
C633 C627 1.491 . S
C633 C632 1.400 . S
C633 C634 1.398 . S
C634 H622 0.950 . S
C634 C633 1.398 . S
C634 C635 1.391 . S
C635 H623 0.950 . S
C635 C631 1.393 . S
C635 C634 1.391 . S
H636 C644 0.950 . S
H637 C649 0.950 . S
H638 C646 0.950 . S
H639 C648 0.950 . S
H640 C650 0.950 . S
H641 C652 0.950 . S
H642 C654 0.950 . S
H643 C655 0.950 . S
C644 H636 0.950 . S
C644 C645 1.386 . S
C644 C646 1.391 . S
C645 C644 1.386 . S
C645 C649 1.393 . S
C646 H638 0.950 . S
C646 C644 1.391 . S
C646 C647 1.400 . S
C647 C646 1.400 . S
C647 C648 1.398 . S
C647 C653 1.491 . S
C648 H639 0.950 . S
C648 C647 1.398 . S
C648 C649 1.391 . S
C649 H637 0.950 . S
C649 C645 1.393 . S
C649 C648 1.391 . S
C650 H640 0.950 . S
C650 C651 1.386 . S
C650 C652 1.391 . S
C651 C650 1.386 . S
C651 C655 1.393 . S
C652 H641 0.950 . S
C652 C650 1.391 . S
C652 C653 1.400 . S
C653 C647 1.491 . S
C653 C652 1.400 . S
C653 C654 1.398 . S
C654 H642 0.950 . S
C654 C653 1.398 . S
C654 C655 1.391 . S
C655 H643 0.950 . S
C655 C651 1.393 . S
C655 C654 1.391 . S
H656 C664 0.950 . S
H657 C669 0.950 . S
H658 C666 0.950 . S
H659 C668 0.950 . S
H660 C670 0.950 . S
H661 C672 0.950 . S
H662 C674 0.950 . S
H663 C675 0.950 . S
C664 H656 0.950 . S
C664 C665 1.386 . S
C664 C666 1.391 . S
C665 C664 1.386 . S
C665 C669 1.393 . S
C666 H658 0.950 . S
C666 C664 1.391 . S
C666 C667 1.400 . S
C667 C666 1.400 . S
C667 C668 1.398 . S
C667 C673 1.491 . S
C668 H659 0.950 . S
C668 C667 1.398 . S
C668 C669 1.391 . S
C669 H657 0.950 . S
C669 C665 1.393 . S
C669 C668 1.391 . S
C670 H660 0.950 . S
C670 C671 1.386 . S
C670 C672 1.391 . S
C671 C670 1.386 . S
C671 C675 1.393 . S
C672 H661 0.950 . S
C672 C670 1.391 . S
C672 C673 1.400 . S
C673 C667 1.491 . S
C673 C672 1.400 . S
C673 C674 1.398 . S
C674 H662 0.950 . S
C674 C673 1.398 . S
C674 C675 1.391 . S
C675 H663 0.950 . S
C675 C671 1.393 . S
C675 C674 1.391 . S
H676 C684 0.950 . S
H677 C689 0.950 . S
H678 C686 0.950 . S
H679 C688 0.950 . S
H680 C690 0.950 . S
H681 C692 0.950 . S
H682 C694 0.950 . S
H683 C695 0.950 . S
C684 H676 0.950 . S
C684 C685 1.386 . S
C684 C686 1.391 . S
C685 C684 1.386 . S
C685 C689 1.393 . S
C686 H678 0.950 . S
C686 C684 1.391 . S
C686 C687 1.400 . S
C687 C686 1.400 . S
C687 C688 1.398 . S
C687 C693 1.491 . S
C688 H679 0.950 . S
C688 C687 1.398 . S
C688 C689 1.391 . S
C689 H677 0.950 . S
C689 C685 1.393 . S
C689 C688 1.391 . S
C690 H680 0.950 . S
C690 C691 1.386 . S
C690 C692 1.391 . S
C691 C690 1.386 . S
C691 C695 1.393 . S
C692 H681 0.950 . S
C692 C690 1.391 . S
C692 C693 1.400 . S
C693 C687 1.491 . S
C693 C692 1.400 . S
C693 C694 1.398 . S
C694 H682 0.950 . S
C694 C693 1.398 . S
C694 C695 1.391 . S
C695 H683 0.950 . S
C695 C691 1.393 . S
C695 C694 1.391 . S
H696 C704 0.950 . S
H697 C709 0.950 . S
H698 C706 0.950 . S
H699 C708 0.950 . S
H700 C710 0.950 . S
H701 C712 0.950 . S
H702 C714 0.950 . S
H703 C715 0.950 . S
C704 H696 0.950 . S
C704 C705 1.386 . S
C704 C706 1.391 . S
C705 C704 1.386 . S
C705 C709 1.393 . S
C706 H698 0.950 . S
C706 C704 1.391 . S
C706 C707 1.400 . S
C707 C706 1.400 . S
C707 C708 1.398 . S
C707 C713 1.491 . S
C708 H699 0.950 . S
C708 C707 1.398 . S
C708 C709 1.391 . S
C709 H697 0.950 . S
C709 C705 1.393 . S
C709 C708 1.391 . S
C710 H700 0.950 . S
C710 C711 1.386 . S
C710 C712 1.391 . S
C711 C710 1.386 . S
C711 C715 1.393 . S
C712 H701 0.950 . S
C712 C710 1.391 . S
C712 C713 1.400 . S
C713 C707 1.491 . S
C713 C712 1.400 . S
C713 C714 1.398 . S
C714 H702 0.950 . S
C714 C713 1.398 . S
C714 C715 1.391 . S
C715 H703 0.950 . S
C715 C711 1.393 . S
C715 C714 1.391 . S
H716 C724 0.950 . S
H717 C729 0.950 . S
H718 C726 0.950 . S
H719 C728 0.950 . S
H720 C730 0.950 . S
H721 C732 0.950 . S
H722 C734 0.950 . S
H723 C735 0.950 . S
C724 H716 0.950 . S
C724 C725 1.386 . S
C724 C726 1.391 . S
C725 C724 1.386 . S
C725 C729 1.393 . S
C726 H718 0.950 . S
C726 C724 1.391 . S
C726 C727 1.400 . S
C727 C726 1.400 . S
C727 C728 1.398 . S
C727 C733 1.491 . S
C728 H719 0.950 . S
C728 C727 1.398 . S
C728 C729 1.391 . S
C729 H717 0.950 . S
C729 C725 1.393 . S
C729 C728 1.391 . S
C730 H720 0.950 . S
C730 C731 1.386 . S
C730 C732 1.391 . S
C731 C730 1.386 . S
C731 C735 1.393 . S
C732 H721 0.950 . S
C732 C730 1.391 . S
C732 C733 1.400 . S
C733 C727 1.491 . S
C733 C732 1.400 . S
C733 C734 1.398 . S
C734 H722 0.950 . S
C734 C733 1.398 . S
C734 C735 1.391 . S
C735 H723 0.950 . S
C735 C731 1.393 . S
C735 C734 1.391 . S
H736 C744 0.950 . S
H737 C749 0.950 . S
H738 C746 0.950 . S
H739 C748 0.950 . S
H740 C750 0.950 . S
H741 C752 0.950 . S
H742 C754 0.950 . S
H743 C755 0.950 . S
C744 H736 0.950 . S
C744 C745 1.386 . S
C744 C746 1.391 . S
C745 C744 1.386 . S
C745 C749 1.393 . S
C746 H738 0.950 . S
C746 C744 1.391 . S
C746 C747 1.400 . S
C747 C746 1.400 . S
C747 C748 1.398 . S
C747 C753 1.491 . S
C748 H739 0.950 . S
C748 C747 1.398 . S
C748 C749 1.391 . S
C749 H737 0.950 . S
C749 C745 1.393 . S
C749 C748 1.391 . S
C750 H740 0.950 . S
C750 C751 1.386 . S
C750 C752 1.391 . S
C751 C750 1.386 . S
C751 C755 1.393 . S
C752 H741 0.950 . S
C752 C750 1.391 . S
C752 C753 1.400 . S
C753 C747 1.491 . S
C753 C752 1.400 . S
C753 C754 1.398 . S
C754 H742 0.950 . S
C754 C753 1.398 . S
C754 C755 1.391 . S
C755 H743 0.950 . S
C755 C751 1.393 . S
C755 C754 1.391 . S
H756 C764 0.950 . S
H757 C769 0.950 . S
H758 C766 0.950 . S
H759 C768 0.950 . S
H760 C770 0.950 . S
H761 C772 0.950 . S
H762 C774 0.950 . S
H763 C775 0.950 . S
C764 H756 0.950 . S
C764 C765 1.386 . S
C764 C766 1.391 . S
C765 C764 1.386 . S
C765 C769 1.393 1_655 S
C766 H758 0.950 . S
C766 C764 1.391 . S
C766 C767 1.400 . S
C767 C766 1.400 . S
C767 C768 1.398 . S
C767 C773 1.491 . S
C768 H759 0.950 . S
C768 C767 1.398 . S
C768 C769 1.391 1_655 S
C769 H757 0.950 . S
C769 C765 1.393 1_455 S
C769 C768 1.391 1_455 S
C770 H760 0.950 . S
C770 C771 1.386 . S
C770 C772 1.391 . S
C771 C770 1.386 . S
C771 C775 1.393 . S
C772 H761 0.950 . S
C772 C770 1.391 . S
C772 C773 1.400 . S
C773 C767 1.491 . S
C773 C772 1.400 . S
C773 C774 1.398 . S
C774 H762 0.950 . S
C774 C773 1.398 . S
C774 C775 1.391 . S
C775 H763 0.950 . S
C775 C771 1.393 . S
C775 C774 1.391 . S
H776 C784 0.950 . S
H777 C789 0.950 . S
H778 C786 0.950 . S
H779 C788 0.950 . S
H780 C790 0.950 . S
H781 C792 0.950 . S
H782 C794 0.950 . S
H783 C795 0.950 . S
C784 H776 0.950 . S
C784 C785 1.386 . S
C784 C786 1.391 . S
C785 C784 1.386 . S
C785 C789 1.393 . S
C786 H778 0.950 . S
C786 C784 1.391 . S
C786 C787 1.400 . S
C787 C786 1.400 . S
C787 C788 1.398 . S
C787 C793 1.491 . S
C788 H779 0.950 . S
C788 C787 1.398 . S
C788 C789 1.391 . S
C789 H777 0.950 . S
C789 C785 1.393 . S
C789 C788 1.391 . S
C790 H780 0.950 . S
C790 C791 1.386 . S
C790 C792 1.391 . S
C791 C790 1.386 . S
C791 C795 1.393 . S
C792 H781 0.950 . S
C792 C790 1.391 . S
C792 C793 1.400 . S
C793 C787 1.491 . S
C793 C792 1.400 . S
C793 C794 1.398 . S
C794 H782 0.950 . S
C794 C793 1.398 . S
C794 C795 1.391 . S
C795 H783 0.950 . S
C795 C791 1.393 . S
C795 C794 1.391 . S
H796 C804 0.950 . S
H797 C809 0.950 . S
H798 C806 0.950 . S
H799 C808 0.950 . S
H800 C810 0.950 . S
H801 C812 0.950 . S
H802 C814 0.950 . S
H803 C815 0.950 1_655 S
C804 H796 0.950 . S
C804 C805 1.386 . S
C804 C806 1.391 . S
C805 C804 1.386 . S
C805 C809 1.393 . S
C806 H798 0.950 . S
C806 C804 1.391 . S
C806 C807 1.400 . S
C807 C806 1.400 . S
C807 C808 1.398 . S
C807 C813 1.491 . S
C808 H799 0.950 . S
C808 C807 1.398 . S
C808 C809 1.391 . S
C809 H797 0.950 . S
C809 C805 1.393 . S
C809 C808 1.391 . S
C810 H800 0.950 . S
C810 C811 1.386 . S
C810 C812 1.391 . S
C811 C810 1.386 . S
C811 C815 1.393 . S
C812 H801 0.950 . S
C812 C810 1.391 . S
C812 C813 1.400 . S
C813 C807 1.491 . S
C813 C812 1.400 . S
C813 C814 1.398 . S
C814 H802 0.950 . S
C814 C813 1.398 . S
C814 C815 1.391 . S
C815 H803 0.950 1_455 S
C815 C811 1.393 . S
C815 C814 1.391 . S
H816 C824 0.950 . S
H817 C829 0.950 . S
H818 C826 0.950 . S
H819 C828 0.950 . S
H820 C830 0.950 . S
H821 C832 0.950 . S
H822 C834 0.950 . S
H823 C835 0.950 . S
C824 H816 0.950 . S
C824 C825 1.386 . S
C824 C826 1.391 . S
C825 C824 1.386 . S
C825 C829 1.393 . S
C826 H818 0.950 . S
C826 C824 1.391 . S
C826 C827 1.400 . S
C827 C826 1.400 . S
C827 C828 1.398 . S
C827 C833 1.491 . S
C828 H819 0.950 . S
C828 C827 1.398 . S
C828 C829 1.391 . S
C829 H817 0.950 . S
C829 C825 1.393 . S
C829 C828 1.391 . S
C830 H820 0.950 . S
C830 C831 1.386 . S
C830 C832 1.391 . S
C831 C830 1.386 . S
C831 C835 1.393 . S
C832 H821 0.950 . S
C832 C830 1.391 . S
C832 C833 1.400 . S
C833 C827 1.491 . S
C833 C832 1.400 . S
C833 C834 1.398 . S
C834 H822 0.950 . S
C834 C833 1.398 . S
C834 C835 1.391 . S
C835 H823 0.950 . S
C835 C831 1.393 . S
C835 C834 1.391 . S
H836 C844 0.950 . S
H837 C849 0.950 . S
H838 C846 0.950 . S
H839 C848 0.950 . S
H840 C850 0.950 . S
H841 C852 0.950 . S
H842 C854 0.950 . S
H843 C855 0.950 . S
C844 H836 0.950 . S
C844 C845 1.386 . S
C844 C846 1.391 . S
C845 C844 1.386 . S
C845 C849 1.393 . S
C846 H838 0.950 . S
C846 C844 1.391 . S
C846 C847 1.400 . S
C847 C846 1.400 . S
C847 C848 1.398 . S
C847 C853 1.491 . S
C848 H839 0.950 . S
C848 C847 1.398 . S
C848 C849 1.391 . S
C849 H837 0.950 . S
C849 C845 1.393 . S
C849 C848 1.391 . S
C850 H840 0.950 . S
C850 C851 1.386 . S
C850 C852 1.391 . S
C851 C850 1.386 . S
C851 C855 1.393 . S
C852 H841 0.950 . S
C852 C850 1.391 . S
C852 C853 1.400 . S
C853 C847 1.491 . S
C853 C852 1.400 . S
C853 C854 1.398 . S
C854 H842 0.950 . S
C854 C853 1.398 . S
C854 C855 1.391 . S
C855 H843 0.950 . S
C855 C851 1.393 . S
C855 C854 1.391 . S
C231 C124 1.316 . S
C225 C5 1.299 . S
C251 C141 1.458 . S
C245 C18 1.478 . S
C271 C155 1.582 . S
C265 C31 1.601 . S
C285 C42 1.437 . S
C291 C113 1.361 . S
C305 C57 1.148 . S
C311 C110 1.112 . S
C325 C70 1.064 . S
C331 C127 1.005 . S
C351 C138 1.448 1_545 S
C345 C81 1.436 . S
C371 C152 1.229 1_545 S
C365 C96 1.254 . S
C385 C29 1.195 . S
C391 C180 1.211 . S
C411 C194 1.431 . S
C405 C44 1.489 . S
C425 C3 1.028 . S
C431 C211 1.037 . S
C451 C166 1.132 . S
C445 C16 1.125 . S
C465 C83 1.401 . S
C471 C169 1.380 . S
C485 C94 1.644 . S
C491 C183 1.598 . S
C511 C197 1.457 . S
C505 C55 1.514 . S
C525 C68 1.299 . S
C531 C208 1.301 . S
C551 C140 1.750 1_545 S
C545 C1 1.728 . S
C571 C154 1.861 . S
C565 C14 1.805 . S
C585 C27 1.732 . S
C591 C112 1.787 . S
C605 C49 1.697 . S
C611 C125 1.593 . S
C625 C53 1.400 . S
C631 C153 1.301 . S
C651 C111 1.229 . S
C645 C66 1.313 . S
C671 C126 1.573 . S
C665 C88 1.607 . S
C691 C139 1.399 . S
C685 C92 1.506 . S
C711 C195 1.404 . S
C705 C36 1.502 . S
C731 C210 1.566 . S
C725 C40 1.607 . S
C745 C10 1.331 . S
C751 C167 1.235 . S
C771 C181 1.277 . S
C765 C23 1.396 1_655 S
C791 C209 1.614 . S
C785 C79 1.626 . S
C805 C101 1.820 . S
C811 C168 1.802 . S
C831 C182 1.849 . S
C825 C62 1.869 . S
C851 C196 1.740 . S
C845 C75 1.765 . S
