# Generated by pormake.
# Topology pyr, (3,6)-cn, num edge types: 1
# Building blocks:
#     Node 0, Type 0, BuildingBlock: WUSLED_clean_sbu_0, # of connection points: 3
#     Node 1, Type 0, BuildingBlock: WUSLED_clean_sbu_0, # of connection points: 3
#     Node 2, Type 0, BuildingBlock: WUSLED_clean_sbu_0, # of connection points: 3
#     Node 3, Type 0, BuildingBlock: WUSLED_clean_sbu_0, # of connection points: 3
#     Node 4, Type 0, BuildingBlock: WUSLED_clean_sbu_0, # of connection points: 3
#     Node 5, Type 0, BuildingBlock: WUSLED_clean_sbu_0, # of connection points: 3
#     Node 6, Type 0, BuildingBlock: WUSLED_clean_sbu_0, # of connection points: 3
#     Node 7, Type 0, BuildingBlock: WUSLED_clean_sbu_0, # of connection points: 3
#     Node 8, Type 1, BuildingBlock: MIDCAF_clean_sbu_0, # of connection points: 6
#     Node 9, Type 1, BuildingBlock: MIDCAF_clean_sbu_0, # of connection points: 6
#     Node 10, Type 1, BuildingBlock: MIDCAF_clean_sbu_0, # of connection points: 6
#     Node 11, Type 1, BuildingBlock: MIDCAF_clean_sbu_0, # of connection points: 6
#     Edge 12, Type (0, 1), BuildingBlock: ZUJKAS_clean_linker_0, # of connection points: 2
#     Edge 13, Type (0, 1), BuildingBlock: ZUJKAS_clean_linker_0, # of connection points: 2
#     Edge 14, Type (0, 1), BuildingBlock: ZUJKAS_clean_linker_0, # of connection points: 2
#     Edge 15, Type (0, 1), BuildingBlock: ZUJKAS_clean_linker_0, # of connection points: 2
#     Edge 16, Type (0, 1), BuildingBlock: ZUJKAS_clean_linker_0, # of connection points: 2
#     Edge 17, Type (0, 1), BuildingBlock: ZUJKAS_clean_linker_0, # of connection points: 2
#     Edge 18, Type (0, 1), BuildingBlock: ZUJKAS_clean_linker_0, # of connection points: 2
#     Edge 19, Type (0, 1), BuildingBlock: ZUJKAS_clean_linker_0, # of connection points: 2
#     Edge 20, Type (0, 1), BuildingBlock: ZUJKAS_clean_linker_0, # of connection points: 2
#     Edge 21, Type (0, 1), BuildingBlock: ZUJKAS_clean_linker_0, # of connection points: 2
#     Edge 22, Type (0, 1), BuildingBlock: ZUJKAS_clean_linker_0, # of connection points: 2
#     Edge 23, Type (0, 1), BuildingBlock: ZUJKAS_clean_linker_0, # of connection points: 2
#     Edge 24, Type (0, 1), BuildingBlock: ZUJKAS_clean_linker_0, # of connection points: 2
#     Edge 25, Type (0, 1), BuildingBlock: ZUJKAS_clean_linker_0, # of connection points: 2
#     Edge 26, Type (0, 1), BuildingBlock: ZUJKAS_clean_linker_0, # of connection points: 2
#     Edge 27, Type (0, 1), BuildingBlock: ZUJKAS_clean_linker_0, # of connection points: 2
#     Edge 28, Type (0, 1), BuildingBlock: ZUJKAS_clean_linker_0, # of connection points: 2
#     Edge 29, Type (0, 1), BuildingBlock: ZUJKAS_clean_linker_0, # of connection points: 2
#     Edge 30, Type (0, 1), BuildingBlock: ZUJKAS_clean_linker_0, # of connection points: 2
#     Edge 31, Type (0, 1), BuildingBlock: ZUJKAS_clean_linker_0, # of connection points: 2
#     Edge 32, Type (0, 1), BuildingBlock: ZUJKAS_clean_linker_0, # of connection points: 2
#     Edge 33, Type (0, 1), BuildingBlock: ZUJKAS_clean_linker_0, # of connection points: 2
#     Edge 34, Type (0, 1), BuildingBlock: ZUJKAS_clean_linker_0, # of connection points: 2
#     Edge 35, Type (0, 1), BuildingBlock: ZUJKAS_clean_linker_0, # of connection points: 2
# Relax obj value: 0.020
# Max RMSD: 0.063
# Mean RMSD: 0.028
data_MOF--net-pry--node1-WUSLED_clean_sbu_0--node2-MIDCAF_clean_sbu_0--edge1-ZUJKAS_clean_linker_0
_symmetry_space_group_name_H-M    P1
_symmetry_Int_Tables_number       1
_symmetry_cell_setting            triclinic
loop_
_symmetry_equiv_pos_as_xyz
'x, y, z'
_cell_length_a     57.120771
_cell_length_b     57.285007
_cell_length_c     57.2707
_cell_angle_alpha  89.681655
_cell_angle_beta   90.280929
_cell_angle_gamma 90.632835
loop_
_atom_site_label
_atom_site_type_symbol
_atom_site_fract_x
_atom_site_fract_y
_atom_site_fract_z
_atom_type_partial_charge
C0 C 0.21258 0.26854 0.16964 0.0
C1 C 0.19651 0.28064 0.18338 0.0
C2 C 0.18967 0.30833 0.15151 0.0
C3 C 0.1852 0.3004 0.17442 0.0
C4 C 0.20575 0.29601 0.13786 0.0
C5 C 0.21708 0.27636 0.14685 0.0
U6 U 0.22107 0.21777 0.21328 0.0
O7 O 0.23191 0.1817 0.20665 0.0
O8 O 0.25382 0.20441 0.22865 0.0
C9 C 0.25184 0.18422 0.218 0.0
C10 C 0.22507 0.24794 0.17867 0.0
C11 C 0.27301 0.17589 0.20603 0.0
C12 C 0.29556 0.16898 0.17079 0.0
C13 C 0.27575 0.17804 0.18175 0.0
C14 C 0.31038 0.15597 0.20828 0.0
C15 C 0.31309 0.15766 0.1839 0.0
C16 C 0.29055 0.16494 0.21917 0.0
C17 C 0.1773 0.20882 0.26392 0.0
C18 C 0.18325 0.18713 0.30014 0.0
C19 C 0.14408 0.19784 0.28822 0.0
C20 C 0.15315 0.20859 0.26816 0.0
C21 C 0.15899 0.1871 0.30461 0.0
C22 C 0.19231 0.19785 0.27998 0.0
C23 C 0.18628 0.2211 0.24298 0.0
O24 O 0.23567 0.25049 0.19894 0.0
O25 O 0.21395 0.22782 0.17674 0.0
O26 O 0.1846 0.20966 0.2232 0.0
O27 O 0.2063 0.23242 0.24536 0.0
H28 H 0.19272 0.27482 0.20101 0.0
H29 H 0.1727 0.30926 0.18532 0.0
H30 H 0.20985 0.30174 0.12028 0.0
H31 H 0.22949 0.26729 0.13599 0.0
H32 H 0.29687 0.17042 0.15199 0.0
H33 H 0.26245 0.18646 0.17122 0.0
H34 H 0.32364 0.14778 0.21903 0.0
H35 H 0.28884 0.16317 0.23794 0.0
H36 H 0.19532 0.17925 0.31241 0.0
H37 H 0.1253 0.19781 0.29076 0.0
H38 H 0.14125 0.21687 0.25595 0.0
H39 H 0.21103 0.19776 0.27706 0.0
C40 C 0.27445 0.84231 0.6797 0.0
C41 C 0.27023 0.86323 0.69152 0.0
C42 C 0.23504 0.86958 0.66799 0.0
C43 C 0.25072 0.87679 0.68568 0.0
C44 C 0.23938 0.84848 0.65637 0.0
C45 C 0.25887 0.83502 0.66217 0.0
U46 U 0.32791 0.8261 0.71736 0.0
O47 O 0.34117 0.79145 0.72702 0.0
O48 O 0.3631 0.81536 0.70627 0.0
C49 C 0.36065 0.79427 0.71514 0.0
C50 C 0.29509 0.82795 0.68504 0.0
C51 C 0.36747 0.77475 0.69993 0.0
C52 C 0.35788 0.74218 0.67426 0.0
C53 C 0.35085 0.7614 0.68751 0.0
C54 C 0.39821 0.74981 0.68523 0.0
C55 C 0.38166 0.73596 0.67317 0.0
C56 C 0.39117 0.76892 0.69847 0.0
C57 C 0.3413 0.86228 0.77287 0.0
C58 C 0.37648 0.85999 0.79694 0.0
C59 C 0.34442 0.88449 0.80881 0.0
C60 C 0.33173 0.87776 0.78898 0.0
C61 C 0.36707 0.8759 0.81298 0.0
C62 C 0.3637 0.85325 0.77703 0.0
C63 C 0.32764 0.85633 0.75178 0.0
O64 O 0.31553 0.83852 0.68309 0.0
O65 O 0.29355 0.81462 0.70373 0.0
O66 O 0.31607 0.83638 0.75236 0.0
O67 O 0.33794 0.86037 0.73166 0.0
H68 H 0.28206 0.86911 0.70518 0.0
H69 H 0.24782 0.89281 0.69513 0.0
H70 H 0.22797 0.84255 0.6424 0.0
H71 H 0.26188 0.81896 0.65279 0.0
H72 H 0.34462 0.73187 0.66535 0.0
H73 H 0.33243 0.76561 0.68832 0.0
H74 H 0.4167 0.74592 0.68445 0.0
H75 H 0.4043 0.77905 0.7078 0.0
H76 H 0.39391 0.85316 0.79949 0.0
H77 H 0.33642 0.8964 0.82094 0.0
H78 H 0.31442 0.88482 0.78614 0.0
H79 H 0.37138 0.84124 0.76477 0.0
C80 C 0.67804 0.33666 0.77688 0.0
C81 C 0.66568 0.35765 0.77904 0.0
C82 C 0.65806 0.35861 0.73708 0.0
C83 C 0.65584 0.36847 0.7594 0.0
C84 C 0.6706 0.33775 0.73489 0.0
C85 C 0.68035 0.32685 0.75456 0.0
U86 U 0.72238 0.32819 0.82736 0.0
O87 O 0.71608 0.3181 0.86403 0.0
O88 O 0.73754 0.29599 0.84166 0.0
C89 C 0.72724 0.29828 0.862 0.0
C90 C 0.68724 0.32413 0.79775 0.0
C91 C 0.71516 0.27735 0.87143 0.0
C92 C 0.69334 0.24097 0.86628 0.0
C93 C 0.70384 0.26112 0.85682 0.0
C94 C 0.70495 0.25325 0.90506 0.0
C95 C 0.69386 0.23669 0.89054 0.0
C96 C 0.7155 0.2733 0.89559 0.0
C97 C 0.77403 0.37167 0.83382 0.0
C98 C 0.79811 0.37766 0.8685 0.0
C99 C 0.81044 0.39395 0.83138 0.0
C100 C 0.79042 0.3845 0.82072 0.0
C101 C 0.81449 0.39085 0.85547 0.0
C102 C 0.77809 0.36813 0.85777 0.0
C103 C 0.7527 0.36269 0.82216 0.0
O104 O 0.70719 0.31319 0.79522 0.0
O105 O 0.68569 0.33486 0.81792 0.0
O106 O 0.73303 0.3646 0.8338 0.0
O107 O 0.75466 0.3425 0.8116 0.0
H108 H 0.66337 0.36567 0.79594 0.0
H109 H 0.64655 0.38467 0.7617 0.0
H110 H 0.67242 0.32954 0.71801 0.0
H111 H 0.68945 0.31053 0.75233 0.0
H112 H 0.68519 0.22855 0.85451 0.0
H113 H 0.70331 0.26389 0.8381 0.0
H114 H 0.70533 0.25085 0.92383 0.0
H115 H 0.72406 0.28565 0.90718 0.0
H116 H 0.80047 0.3751 0.8871 0.0
H117 H 0.82281 0.40361 0.82069 0.0
H118 H 0.78766 0.38733 0.80219 0.0
H119 H 0.76568 0.35823 0.86821 0.0
C120 C 0.77997 0.67414 0.3318 0.0
C121 C 0.77598 0.67839 0.35556 0.0
C122 C 0.7396 0.6556 0.35392 0.0
C123 C 0.75602 0.66916 0.36653 0.0
C124 C 0.74365 0.65167 0.33004 0.0
C125 C 0.76363 0.66082 0.31914 0.0
U126 U 0.831 0.71798 0.32545 0.0
O127 O 0.86756 0.7121 0.31544 0.0
O128 O 0.8453 0.73434 0.29355 0.0
C129 C 0.86554 0.72385 0.29576 0.0
C130 C 0.801 0.6833 0.31988 0.0
C131 C 0.87427 0.71219 0.27466 0.0
C132 C 0.87903 0.67757 0.25079 0.0
C133 C 0.8699 0.68839 0.2706 0.0
C134 C 0.89658 0.71431 0.23864 0.0
C135 C 0.8926 0.69037 0.23458 0.0
C136 C 0.88754 0.72506 0.25849 0.0
C137 C 0.83827 0.76776 0.36993 0.0
C138 C 0.8608 0.80368 0.36457 0.0
C139 C 0.84791 0.79227 0.40323 0.0
C140 C 0.83731 0.77222 0.39394 0.0
C141 C 0.85967 0.80838 0.38867 0.0
C142 C 0.85026 0.78354 0.3553 0.0
C143 C 0.82626 0.74684 0.3606 0.0
O144 O 0.79871 0.7037 0.30958 0.0
O145 O 0.82091 0.68125 0.3313 0.0
O146 O 0.83784 0.72719 0.36221 0.0
O147 O 0.81544 0.74943 0.34045 0.0
H148 H 0.78837 0.6887 0.36565 0.0
H149 H 0.75368 0.67234 0.38498 0.0
H150 H 0.73126 0.64169 0.31965 0.0
H151 H 0.76634 0.65747 0.30075 0.0
H152 H 0.8758 0.65907 0.24843 0.0
H153 H 0.85965 0.67812 0.28286 0.0
H154 H 0.90657 0.72484 0.2264 0.0
H155 H 0.891 0.74348 0.26125 0.0
H156 H 0.86949 0.81576 0.35277 0.0
H157 H 0.84703 0.79501 0.4219 0.0
H158 H 0.82824 0.7602 0.40554 0.0
H159 H 0.85128 0.78041 0.3367 0.0
C160 C 0.88946 0.83587 0.92916 0.0
C161 C 0.90967 0.82593 0.91979 0.0
C162 C 0.90848 0.7951 0.94942 0.0
C163 C 0.91912 0.80574 0.92985 0.0
C164 C 0.88828 0.80529 0.95874 0.0
C165 C 0.87889 0.82547 0.9487 0.0
U166 U 0.88685 0.88443 0.88265 0.0
O167 O 0.85614 0.89922 0.86483 0.0
O168 O 0.87846 0.92161 0.8867 0.0
C169 C 0.85902 0.91984 0.87444 0.0
C170 C 0.87897 0.85688 0.91872 0.0
C171 C 0.83801 0.92972 0.88525 0.0
C172 C 0.80772 0.92895 0.91496 0.0
C173 C 0.82792 0.91947 0.90516 0.0
C174 C 0.80756 0.95904 0.88508 0.0
C175 C 0.79723 0.94883 0.90499 0.0
C176 C 0.82774 0.94956 0.87533 0.0
C177 C 0.93237 0.88659 0.83338 0.0
C178 C 0.93332 0.91649 0.80306 0.0
C179 C 0.96097 0.88476 0.80217 0.0
C180 C 0.95117 0.8755 0.82261 0.0
C181 C 0.95216 0.90535 0.79208 0.0
C182 C 0.92349 0.90716 0.82352 0.0
C183 C 0.92223 0.87627 0.85473 0.0
O184 O 0.89168 0.87611 0.91993 0.0
O185 O 0.86892 0.85397 0.89824 0.0
O186 O 0.90149 0.86641 0.85226 0.0
O187 O 0.92408 0.88897 0.87372 0.0
H188 H 0.91802 0.83371 0.90464 0.0
H189 H 0.93452 0.79823 0.92205 0.0
H190 H 0.87982 0.79781 0.97396 0.0
H191 H 0.86331 0.83294 0.95619 0.0
H192 H 0.80011 0.92046 0.93011 0.0
H193 H 0.83559 0.90408 0.91302 0.0
H194 H 0.80019 0.97452 0.87713 0.0
H195 H 0.83533 0.95774 0.85999 0.0
H196 H 0.92591 0.9322 0.79565 0.0
H197 H 0.97564 0.8759 0.79441 0.0
H198 H 0.95829 0.85963 0.83001 0.0
H199 H 0.9089 0.91592 0.83157 0.0
C200 C 0.61802 0.16469 0.33301 0.0
C201 C 0.63183 0.15105 0.31829 0.0
C202 C 0.599 0.14632 0.2912 0.0
C203 C 0.62243 0.14202 0.29755 0.0
C204 C 0.58518 0.15973 0.30621 0.0
C205 C 0.59464 0.16886 0.32688 0.0
U206 U 0.66333 0.16647 0.3826 0.0
O207 O 0.68135 0.19656 0.39862 0.0
O208 O 0.65872 0.17393 0.41997 0.0
C209 C 0.67143 0.19318 0.41903 0.0
C210 C 0.62778 0.17492 0.35459 0.0
C211 C 0.66102 0.21398 0.42965 0.0
C212 C 0.63154 0.24427 0.43042 0.0
C213 C 0.64082 0.22419 0.42027 0.0
C214 C 0.66251 0.24402 0.45945 0.0
C215 C 0.64234 0.25451 0.45009 0.0
C216 C 0.67173 0.22396 0.44932 0.0
C217 C 0.71219 0.1208 0.38412 0.0
C218 C 0.74239 0.11927 0.41417 0.0
C219 C 0.74282 0.09175 0.38222 0.0
C220 C 0.72262 0.1019 0.37294 0.0
C221 C 0.75302 0.10032 0.40293 0.0
C222 C 0.72216 0.12944 0.40482 0.0
C223 C 0.69108 0.13129 0.3738 0.0
O224 O 0.62602 0.16189 0.37348 0.0
O225 O 0.64835 0.18523 0.35256 0.0
O226 O 0.69393 0.15219 0.36461 0.0
O227 O 0.67183 0.12922 0.38615 0.0
H228 H 0.64988 0.14747 0.32279 0.0
H229 H 0.63345 0.13146 0.28658 0.0
H230 H 0.56716 0.16352 0.30179 0.0
H231 H 0.58372 0.17935 0.33802 0.0
H232 H 0.61615 0.25201 0.42259 0.0
H233 H 0.63236 0.21675 0.40502 0.0
H234 H 0.6711 0.2512 0.47475 0.0
H235 H 0.68731 0.21627 0.45683 0.0
H236 H 0.74991 0.1265 0.42998 0.0
H237 H 0.7503 0.07701 0.37328 0.0
H238 H 0.71511 0.09496 0.35697 0.0
H239 H 0.71437 0.14409 0.41366 0.0
C240 C 0.34376 0.61029 0.15446 0.0
C241 C 0.33294 0.61981 0.13459 0.0
C242 C 0.30179 0.59034 0.13694 0.0
C243 C 0.31214 0.60991 0.12589 0.0
C244 C 0.31292 0.58083 0.15674 0.0
C245 C 0.33368 0.59072 0.16539 0.0
U246 U 0.39422 0.65531 0.15427 0.0
O247 O 0.40993 0.67455 0.18362 0.0
O248 O 0.43137 0.65037 0.16353 0.0
C249 C 0.43008 0.66381 0.18199 0.0
C250 C 0.36533 0.62066 0.16427 0.0
C251 C 0.43937 0.6539 0.20393 0.0
C252 C 0.43358 0.63403 0.24113 0.0
C253 C 0.42459 0.64252 0.21998 0.0
C254 C 0.47233 0.64759 0.23019 0.0
C255 C 0.45754 0.63658 0.24655 0.0
C256 C 0.4633 0.65623 0.20912 0.0
C257 C 0.39848 0.7022 0.10654 0.0
C258 C 0.42995 0.73109 0.10546 0.0
C259 C 0.3979 0.73352 0.07773 0.0
C260 C 0.38772 0.71348 0.08762 0.0
C261 C 0.41909 0.7427 0.0866 0.0
C262 C 0.41971 0.71106 0.11535 0.0
C263 C 0.38705 0.68163 0.11722 0.0
O264 O 0.38438 0.61813 0.1518 0.0
O265 O 0.36328 0.64176 0.17287 0.0
O266 O 0.37709 0.68529 0.13748 0.0
O267 O 0.39901 0.66216 0.11671 0.0
H268 H 0.34047 0.63498 0.12595 0.0
H269 H 0.30392 0.61786 0.11078 0.0
H270 H 0.30567 0.56559 0.16549 0.0
H271 H 0.34186 0.58311 0.18071 0.0
H272 H 0.42178 0.62531 0.25318 0.0
H273 H 0.40609 0.64035 0.21624 0.0
H274 H 0.49082 0.64996 0.23389 0.0
H275 H 0.47498 0.66495 0.19694 0.0
H276 H 0.44642 0.73744 0.11254 0.0
H277 H 0.38887 0.74213 0.06347 0.0
H278 H 0.37125 0.70693 0.08066 0.0
H279 H 0.42828 0.70255 0.12997 0.0
C280 C 0.12645 0.33367 0.63894 0.0
C281 C 0.14196 0.32881 0.62071 0.0
C282 C 0.11793 0.29524 0.60927 0.0
C283 C 0.13776 0.30971 0.60601 0.0
C284 C 0.10243 0.30039 0.62753 0.0
C285 C 0.10667 0.31941 0.64218 0.0
U286 U 0.1612 0.38771 0.65875 0.0
O287 O 0.14877 0.42057 0.67372 0.0
O288 O 0.17206 0.39802 0.69422 0.0
C289 C 0.15878 0.41661 0.69407 0.0
C290 C 0.13078 0.35319 0.65503 0.0
C291 C 0.14406 0.41971 0.71489 0.0
C292 C 0.10657 0.41744 0.73489 0.0
C293 C 0.12014 0.41369 0.71494 0.0
C294 C 0.14078 0.43274 0.75501 0.0
C295 C 0.11676 0.42702 0.75517 0.0
C296 C 0.15424 0.42914 0.73508 0.0
C297 C 0.21431 0.40879 0.62331 0.0
C298 C 0.23938 0.44138 0.63484 0.0
C299 C 0.24741 0.42026 0.59928 0.0
C300 C 0.22809 0.40569 0.60346 0.0
C301 C 0.25335 0.4383 0.6149 0.0
C302 C 0.21999 0.42675 0.63899 0.0
C303 C 0.19436 0.39285 0.62745 0.0
O304 O 0.15008 0.35188 0.66753 0.0
O305 O 0.12711 0.37417 0.64646 0.0
O306 O 0.17349 0.40204 0.62518 0.0
O307 O 0.19624 0.37913 0.64581 0.0
H308 H 0.15734 0.3397 0.61794 0.0
H309 H 0.14993 0.30638 0.59201 0.0
H310 H 0.08723 0.28943 0.63083 0.0
H311 H 0.09457 0.32286 0.65624 0.0
H312 H 0.08816 0.4127 0.73451 0.0
H313 H 0.11194 0.40623 0.69956 0.0
H314 H 0.14912 0.4405 0.77016 0.0
H315 H 0.17265 0.43393 0.73537 0.0
H316 H 0.24333 0.45519 0.64712 0.0
H317 H 0.25798 0.41708 0.58399 0.0
H318 H 0.22402 0.39184 0.59123 0.0
H319 H 0.20948 0.42938 0.65443 0.0
Zn320 Zn 0.99433 0.05363 0.55062 0.0
Zn321 Zn 0.04619 1.00121 0.4966 0.0
Zn322 Zn 0.02042 0.02742 0.52381 0.0
C323 C 0.05912 0.04737 0.48667 0.0
C324 C 0.99963 0.99121 0.48502 0.0
O325 O 0.02336 0.01385 0.56045 0.0
O326 O 0.99976 0.03669 0.58031 0.0
C327 C 0.02824 0.08319 0.53121 0.0
O328 O 0.04433 0.05098 0.50323 0.0
O329 O 0.06322 0.02678 0.48021 0.0
O330 O 0.02016 0.98511 0.47998 0.0
O331 O 0.99637 0.0073 0.50034 0.0
O332 O 0.01124 0.08348 0.5452 0.0
O333 O 0.0339 0.064 0.52107 0.0
O334 O 0.98342 0.02518 0.51082 0.0
O335 O 0.96415 0.04874 0.53419 0.0
C336 C 0.96427 0.03529 0.51681 0.0
O337 O 0.04089 1.0034 0.54692 0.0
O338 O 0.06265 0.9841 0.52187 0.0
C339 C 0.01342 0.01952 0.57979 0.0
C340 C 0.05694 0.98831 0.54269 0.0
Zn341 Zn 0.50536 0.04532 0.99837 0.0
Zn342 Zn 0.55454 0.99263 0.05477 0.0
Zn343 Zn 0.52989 0.01847 0.02611 0.0
C344 C 0.5853 0.00861 0.02 0.0
C345 C 0.51995 0.96355 0.03589 0.0
O346 O 0.50901 0.04231 0.04844 0.0
O347 O 0.48642 0.06062 0.02296 0.0
C348 C 0.55207 0.05596 0.98911 0.0
O349 O 0.56688 0.02004 0.01387 0.0
O350 O 0.5845 0.99487 0.03732 0.0
O351 O 0.53506 0.96403 0.05202 0.0
O352 O 0.51635 0.98182 0.02314 0.0
O353 O 0.53172 0.06306 0.98447 0.0
O354 O 0.55488 0.03864 1.00336 0.0
O355 O 0.50593 0.99517 1.00547 0.0
O356 O 0.49141 0.01977 0.97938 0.0
C357 C 0.49352 0.99917 0.98701 0.0
O358 O 0.52654 0.03254 0.06242 0.0
O359 O 0.55087 0.01106 0.08342 0.0
C360 C 0.49226 0.05664 0.0439 0.0
C361 C 0.53675 0.0278 0.08204 0.0
Zn362 Zn 0.55043 0.54752 0.54445 0.0
Zn363 Zn 0.49529 0.49268 0.49252 0.0
Zn364 Zn 0.52268 0.5201 0.51836 0.0
C365 C 0.52889 0.46378 0.51266 0.0
C366 C 0.51534 0.52559 0.46217 0.0
O367 O 0.49998 0.54085 0.54199 0.0
O368 O 0.52489 0.56323 0.56167 0.0
C369 C 0.56205 0.50102 0.5549 0.0
O370 O 0.53528 0.48343 0.52177 0.0
O371 O 0.51124 0.46283 0.49931 0.0
O372 O 0.50152 0.50823 0.46215 0.0
O373 O 0.52522 0.53225 0.48136 0.0
O374 O 0.56747 0.52174 0.56035 0.0
O375 O 0.54625 0.49712 0.53916 0.0
O376 O 0.54307 0.54333 0.49445 0.0
O377 O 0.56578 0.56423 0.51799 0.0
C378 C 0.55931 0.55888 0.49756 0.0
O379 O 0.48615 0.52349 0.53123 0.0
O380 O 0.46556 0.49957 0.50868 0.0
C381 C 0.50408 0.557 0.55716 0.0
C382 C 0.46648 0.5138 0.52543 0.0
Zn383 Zn 0.05723 0.55743 0.99414 0.0
Zn384 Zn 1.00164 0.50215 0.04568 0.0
Zn385 Zn 0.02979 0.52968 0.01976 0.0
C386 C 0.04823 0.49211 0.05837 0.0
C387 C 0.99314 0.49104 0.99867 0.0
O388 O 0.01724 0.56634 0.02298 0.0
O389 O 0.04138 0.58721 1.00089 0.0
C390 C 0.08608 0.53582 0.02727 0.0
O391 O 0.05249 0.50846 0.04331 0.0
O392 O 0.02735 0.48616 0.06281 0.0
O393 O 0.98636 0.48568 0.01899 0.0
O394 O 0.00942 0.50658 0.99578 0.0
O395 O 0.08701 0.55021 0.01051 0.0
O396 O 0.06639 0.5261 0.03289 0.0
O397 O 0.02688 0.51817 0.98282 0.0
O398 O 0.05054 0.54234 0.96371 0.0
C399 C 0.03655 0.52513 0.96366 0.0
O400 O 0.0064 0.55246 0.04041 0.0
O401 O 0.98486 0.52794 0.06147 0.0
C402 C 0.02366 0.58609 0.01396 0.0
C403 C 0.99058 0.54863 0.05603 0.0
H404 H 0.12284 0.20233 0.33197 0.0
H405 H 0.10611 0.18347 0.36658 0.0
H406 H 0.15619 0.12806 0.36116 0.0
H407 H 0.17277 0.14651 0.32629 0.0
H408 H 0.08616 0.13847 0.36998 0.0
H409 H 0.16212 0.14794 0.42987 0.0
H410 H 0.15938 0.16469 0.4032 0.0
H411 H 0.16923 0.13501 0.40234 0.0
C412 C 0.13027 0.18606 0.33802 0.0
C413 C 0.14922 0.17599 0.32622 0.0
C414 C 0.12075 0.17539 0.35794 0.0
C415 C 0.1301 0.15453 0.3667 0.0
C416 C 0.14902 0.14443 0.35505 0.0
H417 H 0.10089 0.04642 0.4644 0.0
H418 H 0.11726 0.0755 0.43769 0.0
C419 C 0.1585 0.15504 0.33508 0.0
C420 C 0.11941 0.14272 0.38734 0.0
H421 H 0.13198 0.12122 0.44171 0.0
C422 C 0.09604 0.13497 0.38581 0.0
C423 C 0.1323 0.13824 0.40801 0.0
C424 C 0.15708 0.14708 0.41113 0.0
C425 C 0.08562 0.12181 0.40388 0.0
C426 C 0.09876 0.11669 0.42429 0.0
C427 C 0.12187 0.12517 0.42612 0.0
C428 C 0.08972 0.10056 0.44273 0.0
C429 C 0.06103 0.11249 0.4004 0.0
C430 C 0.06913 0.10524 0.45519 0.0
C431 C 0.05959 0.08846 0.47049 0.0
C432 C 0.07064 0.06687 0.47378 0.0
C433 C 0.09188 0.06285 0.46223 0.0
C434 C 0.10132 0.0795 0.44696 0.0
H435 H 0.05516 0.114 0.38194 0.0
H436 H 0.05977 0.09387 0.40581 0.0
H437 H 0.04882 0.12259 0.41134 0.0
H438 H 0.06007 0.12155 0.45255 0.0
H439 H 0.04304 0.09195 0.47884 0.0
H440 H 0.39552 0.85024 0.8422 0.0
H441 H 0.41742 0.86397 0.87655 0.0
H442 H 0.39177 0.93357 0.86484 0.0
H443 H 0.37008 0.92013 0.83062 0.0
H444 H 0.45221 0.89722 0.88027 0.0
H445 H 0.37645 0.92329 0.93336 0.0
H446 H 0.3734 0.90508 0.90786 0.0
H447 H 0.37562 0.93633 0.90483 0.0
C448 C 0.3946 0.86848 0.84691 0.0
C449 C 0.38079 0.88401 0.83373 0.0
C450 C 0.40702 0.87627 0.86663 0.0
C451 C 0.4058 0.8997 0.87365 0.0
C452 C 0.39242 0.91527 0.86026 0.0
H453 H 0.49461 0.99511 0.94029 0.0
H454 H 0.4747 0.96632 0.91586 0.0
C455 C 0.38002 0.90754 0.84062 0.0
C456 C 0.41925 0.90834 0.89427 0.0
H457 H 0.41366 0.94097 0.94369 0.0
C458 C 0.44373 0.90641 0.89436 0.0
C459 C 0.40825 0.91988 0.91302 0.0
C460 C 0.38196 0.92105 0.91493 0.0
C461 C 0.45754 0.91717 0.91171 0.0
C462 C 0.44663 0.93051 0.92923 0.0
C463 C 0.42209 0.93098 0.93013 0.0
C464 C 0.46026 0.94645 0.94473 0.0
C465 C 0.48378 0.91467 0.91076 0.0
C466 C 0.45854 0.94515 0.96923 0.0
C467 C 0.46997 0.96179 0.98333 0.0
C468 C 0.48305 0.98002 0.97309 0.0
C469 C 0.48479 0.98112 0.94865 0.0
C470 C 0.47358 0.96455 0.93466 0.0
H471 H 0.48871 0.89815 0.90208 0.0
H472 H 0.49133 0.92934 0.90044 0.0
H473 H 0.49167 0.91503 0.92852 0.0
H474 H 0.44807 0.93152 0.97737 0.0
H475 H 0.46789 0.96093 1.0021 0.0
H476 H 0.61464 0.37824 0.73375 0.0
H477 H 0.59717 0.39806 0.70013 0.0
H478 H 0.65909 0.38476 0.65976 0.0
H479 H 0.67665 0.36478 0.69332 0.0
H480 H 0.61275 0.43681 0.67877 0.0
H481 H 0.60812 0.36525 0.6142 0.0
H482 H 0.61352 0.36009 0.64489 0.0
H483 H 0.63696 0.36959 0.62611 0.0
C484 C 0.62456 0.37949 0.71771 0.0
C485 C 0.64709 0.36995 0.71628 0.0
C486 C 0.61447 0.39071 0.69844 0.0
C487 C 0.62663 0.39263 0.67724 0.0
C488 C 0.64907 0.38298 0.67568 0.0
H489 H 0.60534 0.50081 0.57463 0.0
H490 H 0.62092 0.47258 0.60261 0.0
C491 C 0.65914 0.37164 0.69494 0.0
C492 C 0.6165 0.40625 0.65746 0.0
H493 H 0.60213 0.40392 0.59939 0.0
C494 C 0.6103 0.42952 0.66148 0.0
C495 C 0.613 0.39671 0.6349 0.0
C496 C 0.61802 0.37147 0.62977 0.0
C497 C 0.60128 0.44365 0.64356 0.0
C498 C 0.59882 0.43448 0.62076 0.0
C499 C 0.60435 0.41102 0.61679 0.0
C500 C 0.59086 0.44936 0.60098 0.0
C501 C 0.59432 0.46831 0.64927 0.0
C502 C 0.56933 0.445 0.58974 0.0
C503 C 0.56041 0.46111 0.57352 0.0
C504 C 0.57297 0.48172 0.56826 0.0
C505 C 0.59517 0.48519 0.57845 0.0
C506 C 0.60407 0.46911 0.5945 0.0
H507 H 0.59135 0.47058 0.66828 0.0
H508 H 0.60859 0.48051 0.64397 0.0
H509 H 0.57815 0.47328 0.63971 0.0
H510 H 0.5589 0.42979 0.59441 0.0
H511 H 0.54316 0.45808 0.56615 0.0
H512 H 0.93586 0.69782 0.21496 0.0
H513 H 0.95253 0.67883 0.18086 0.0
H514 H 0.88988 0.6368 0.17348 0.0
H515 H 0.87263 0.65643 0.2069 0.0
H516 H 0.96264 0.63351 0.17492 0.0
H517 H 0.89846 0.65999 0.1074 0.0
H518 H 0.89983 0.67344 0.13581 0.0
H519 H 0.88477 0.64595 0.13193 0.0
C520 C 0.92539 0.68487 0.20584 0.0
C521 C 0.90278 0.67881 0.21369 0.0
C522 C 0.93505 0.6739 0.1864 0.0
C523 C 0.92233 0.65667 0.17428 0.0
C524 C 0.89984 0.65044 0.18215 0.0
H525 H 0.94745 0.54918 0.07582 0.0
H526 H 0.93179 0.57831 0.10238 0.0
C527 C 0.89013 0.66146 0.20153 0.0
C528 C 0.93305 0.64431 0.15425 0.0
H529 H 0.92365 0.62829 0.0975 0.0
C530 C 0.95429 0.63267 0.15789 0.0
C531 C 0.92222 0.64327 0.13197 0.0
C532 C 0.90019 0.65653 0.12644 0.0
C533 C 0.96441 0.61919 0.14025 0.0
C534 C 0.95314 0.6175 0.11826 0.0
C535 C 0.93226 0.62963 0.11438 0.0
C536 C 0.96175 0.60158 0.09989 0.0
C537 C 0.98657 0.60603 0.14558 0.0
C538 C 0.9835 0.60536 0.08906 0.0
C539 C 0.99252 0.58869 0.07379 0.0
C540 C 0.97986 0.56804 0.06907 0.0
C541 C 0.95763 0.56489 0.07913 0.0
C542 C 0.94863 0.58154 0.09428 0.0
H543 H 0.99097 0.60618 0.16449 0.0
H544 H 0.98489 0.58762 0.13977 0.0
H545 H 1.00136 0.61421 0.13593 0.0
H546 H 0.99381 0.62084 0.09299 0.0
H547 H 0.00981 0.59146 0.06657 0.0
H548 H 0.33529 0.11656 0.19444 0.0
H549 H 0.36941 0.09982 0.17548 0.0
H550 H 0.3716 0.1578 0.12719 0.0
H551 H 0.33814 0.1752 0.14667 0.0
H552 H 0.37422 0.0852 0.1312 0.0
H553 H 0.43914 0.15556 0.14803 0.0
H554 H 0.41133 0.15401 0.16282 0.0
H555 H 0.41328 0.16618 0.13383 0.0
C556 C 0.34327 0.12603 0.18007 0.0
C557 C 0.33395 0.14739 0.17225 0.0
C558 C 0.36272 0.11632 0.16913 0.0
C559 C 0.37342 0.12772 0.15015 0.0
C560 C 0.36407 0.14891 0.14214 0.0
H561 H 0.46922 0.09779 0.04142 0.0
H562 H 0.44265 0.1143 0.07007 0.0
C563 C 0.34465 0.15869 0.15312 0.0
C564 C 0.3936 0.1169 0.13801 0.0
H565 H 0.44924 0.12778 0.11864 0.0
C566 C 0.39074 0.09438 0.12875 0.0
C567 C 0.41525 0.1288 0.13491 0.0
C568 C 0.42006 0.15237 0.14563 0.0
C569 C 0.40846 0.08392 0.11559 0.0
C570 C 0.42975 0.09618 0.11177 0.0
C571 C 0.43291 0.1184 0.12158 0.0
C572 C 0.44796 0.08712 0.09583 0.0
C573 C 0.40391 0.06023 0.10499 0.0
C574 C 0.46036 0.06666 0.10106 0.0
C575 C 0.47569 0.05714 0.08465 0.0
C576 C 0.47884 0.06798 0.06277 0.0
C577 C 0.46712 0.08897 0.05807 0.0
C578 C 0.45196 0.09848 0.07445 0.0
H579 H 0.38529 0.05468 0.10658 0.0
H580 H 0.40874 0.06031 0.08623 0.0
H581 H 0.41488 0.04708 0.11403 0.0
H582 H 0.45771 0.05773 0.11757 0.0
H583 H 0.48418 0.0408 0.08867 0.0
H584 H 0.23311 0.91729 0.66334 0.0
H585 H 0.20027 0.94071 0.64931 0.0
H586 H 0.15812 0.87824 0.64204 0.0
H587 H 0.19053 0.85484 0.65677 0.0
H588 H 0.18045 0.93771 0.60659 0.0
H589 H 0.11215 0.92142 0.673 0.0
H590 H 0.14257 0.91461 0.678 0.0
H591 H 0.12395 0.89482 0.66191 0.0
C592 C 0.21668 0.90858 0.6593 0.0
C593 C 0.21454 0.88413 0.66116 0.0
C594 C 0.19793 0.922 0.65116 0.0
C595 C 0.17655 0.91132 0.6449 0.0
C596 C 0.17421 0.887 0.64722 0.0
H597 H 0.07734 0.94592 0.54078 0.0
H598 H 0.10504 0.92902 0.56849 0.0
C599 C 0.19292 0.87358 0.65534 0.0
C600 C 0.15755 0.9252 0.6338 0.0
H601 H 0.09871 0.93586 0.63561 0.0
C602 C 0.16269 0.9376 0.6132 0.0
C603 C 0.13434 0.92529 0.64245 0.0
C604 C 0.12795 0.91352 0.66519 0.0
C605 C 0.14512 0.94904 0.60046 0.0
C606 C 0.12171 0.9479 0.60834 0.0
C607 C 0.11666 0.93652 0.6295 0.0
C608 C 0.1023 0.95685 0.59361 0.0
C609 C 0.15161 0.96178 0.57824 0.0
C610 C 0.09084 0.97772 0.599 0.0
C611 C 0.07488 0.98752 0.58307 0.0
C612 C 0.07013 0.97648 0.56165 0.0
C613 C 0.08069 0.95492 0.55707 0.0
C614 C 0.09654 0.94522 0.57287 0.0
H615 H 0.17072 0.96548 0.57729 0.0
H616 H 0.14662 0.95084 0.56304 0.0
H617 H 0.14205 0.9785 0.57678 0.0
H618 H 0.09508 0.98695 0.61495 0.0
H619 H 0.06726 1.00427 0.58696 0.0
H620 H 0.84233 0.37233 0.89006 0.0
H621 H 0.87597 0.39066 0.90955 0.0
H622 H 0.86865 0.4516 0.86573 0.0
H623 H 0.83445 0.43387 0.84683 0.0
H624 H 0.91862 0.40688 0.8919 0.0
H625 H 0.86845 0.47944 0.93087 0.0
H626 H 0.85432 0.45423 0.91809 0.0
H627 H 0.86584 0.47712 0.89972 0.0
C628 C 0.84768 0.38975 0.88473 0.0
C629 C 0.83549 0.40164 0.86694 0.0
C630 C 0.86707 0.40012 0.89575 0.0
C631 C 0.87467 0.42264 0.88933 0.0
C632 C 0.86289 0.43438 0.87127 0.0
H633 H 0.98291 0.51069 0.95609 0.0
H634 H 0.95708 0.49435 0.9257 0.0
C635 C 0.84346 0.42406 0.86028 0.0
C636 C 0.89472 0.43388 0.90179 0.0
H637 H 0.90928 0.47983 0.93703 0.0
C638 C 0.9166 0.42289 0.90167 0.0
C639 C 0.89213 0.45486 0.91446 0.0
C640 C 0.8689 0.46705 0.91603 0.0
C641 C 0.93582 0.43213 0.91414 0.0
C642 C 0.93302 0.45273 0.92726 0.0
C643 C 0.9114 0.46411 0.92681 0.0
C644 C 0.95139 0.46141 0.94356 0.0
C645 C 0.95895 0.41974 0.91336 0.0
C646 C 0.95702 0.44818 0.96345 0.0
C647 C 0.9716 0.45748 0.98078 0.0
C648 C 0.98102 0.48015 0.97852 0.0
C649 C 0.97624 0.49303 0.95811 0.0
C650 C 0.96139 0.48378 0.94083 0.0
H651 H 0.96015 0.40822 0.89787 0.0
H652 H 0.97377 0.43245 0.91302 0.0
H653 H 0.96082 0.40873 0.92925 0.0
H654 H 0.94924 0.43104 0.9661 0.0
H655 H 0.9749 0.44719 0.99636 0.0
H656 H 0.71921 0.6125 0.34712 0.0
H657 H 0.68452 0.59602 0.36613 0.0
H658 H 0.67804 0.65854 0.40707 0.0
H659 H 0.71205 0.67559 0.3874 0.0
H660 H 0.67797 0.58597 0.41154 0.0
H661 H 0.6118 0.65026 0.38351 0.0
H662 H 0.64037 0.64878 0.3703 0.0
H663 H 0.63655 0.66384 0.39751 0.0
C664 C 0.71017 0.62297 0.35984 0.0
C665 C 0.71843 0.64549 0.36558 0.0
C666 C 0.69039 0.61343 0.37081 0.0
C667 C 0.67835 0.62618 0.38773 0.0
C668 C 0.68664 0.64856 0.39366 0.0
H669 H 0.57976 0.60185 0.49588 0.0
H670 H 0.60627 0.61731 0.46606 0.0
C671 C 0.70636 0.65816 0.38263 0.0
C672 C 0.65795 0.61558 0.40012 0.0
H673 H 0.60118 0.62533 0.41572 0.0
C674 C 0.66107 0.5944 0.41214 0.0
C675 C 0.63583 0.6265 0.40084 0.0
C676 C 0.63083 0.64848 0.38715 0.0
C677 C 0.64309 0.58443 0.42572 0.0
C678 C 0.6213 0.59582 0.42714 0.0
C679 C 0.61791 0.61663 0.41459 0.0
C680 C 0.60271 0.58748 0.44329 0.0
C681 C 0.64788 0.56233 0.43932 0.0
C682 C 0.59126 0.5659 0.43999 0.0
C683 C 0.57598 0.55702 0.45705 0.0
C684 C 0.57194 0.56962 0.47761 0.0
C685 C 0.58255 0.59172 0.48023 0.0
C686 C 0.59767 0.60061 0.4632 0.0
H687 H 0.66671 0.5577 0.43916 0.0
H688 H 0.64221 0.56418 0.45773 0.0
H689 H 0.63773 0.54768 0.43153 0.0
H690 H 0.59476 0.55559 0.42463 0.0
H691 H 0.56834 0.53981 0.45468 0.0
H692 H 0.18045 0.34983 0.17331 0.0
H693 H 0.1596 0.38361 0.15738 0.0
H694 H 0.15106 0.34817 0.09166 0.0
H695 H 0.1714 0.3142 0.10752 0.0
H696 H 0.16915 0.41218 0.11559 0.0
H697 H 0.08361 0.36505 0.11221 0.0
H698 H 0.10809 0.35459 0.12918 0.0
H699 H 0.10746 0.35067 0.09809 0.0
C700 C 0.17401 0.34916 0.15551 0.0
C701 C 0.1775 0.32919 0.14177 0.0
C702 C 0.1623 0.36857 0.14637 0.0
C703 C 0.15366 0.36836 0.12338 0.0
C704 C 0.15745 0.34866 0.10949 0.0
H705 H 0.09139 0.48126 0.04063 0.0
H706 H 0.11934 0.45319 0.05695 0.0
C707 C 0.16921 0.3293 0.11857 0.0
C708 C 0.13983 0.38828 0.11422 0.0
H709 H 0.08497 0.40285 0.09573 0.0
C710 C 0.15074 0.41021 0.11125 0.0
C711 C 0.11578 0.38569 0.10873 0.0
C712 C 0.10291 0.36281 0.11236 0.0
C713 C 0.13822 0.42958 0.10275 0.0
C714 C 0.11422 0.42687 0.09701 0.0
C715 C 0.10338 0.40493 0.10008 0.0
C716 C 0.09954 0.4465 0.08849 0.0
C717 C 0.15063 0.45285 0.10035 0.0
C718 C 0.07933 0.45238 0.10087 0.0
C719 C 0.06341 0.46829 0.09158 0.0
C720 C 0.06732 0.47878 0.06968 0.0
C721 C 0.08812 0.47379 0.05773 0.0
C722 C 0.10409 0.45772 0.06704 0.0
H723 H 0.16723 0.4534 0.11052 0.0
H724 H 0.15491 0.45594 0.0817 0.0
H725 H 0.13928 0.46728 0.1062 0.0
H726 H 0.07544 0.444 0.11743 0.0
H727 H 0.04755 0.47176 0.10121 0.0
H728 H 0.7099 0.20968 0.927 0.0
H729 H 0.69138 0.17497 0.94423 0.0
H730 H 0.63484 0.17978 0.8944 0.0
H731 H 0.6529 0.21474 0.87735 0.0
H732 H 0.64631 0.17116 0.96418 0.0
H733 H 0.65546 0.11129 0.88922 0.0
H734 H 0.67222 0.13809 0.89181 0.0
H735 H 0.64241 0.13869 0.88161 0.0
C736 C 0.69344 0.20348 0.91975 0.0
C737 C 0.68294 0.21511 0.90071 0.0
C738 C 0.68298 0.18351 0.92955 0.0
C739 C 0.66192 0.17455 0.92039 0.0
C740 C 0.65137 0.18606 0.90142 0.0
H741 H 0.55224 0.07916 0.94783 0.0
H742 H 0.58242 0.10524 0.93241 0.0
C743 C 0.66176 0.20607 0.89167 0.0
C744 C 0.65035 0.15382 0.93125 0.0
H745 H 0.62839 0.09954 0.9189 0.0
C746 C 0.64269 0.15533 0.95444 0.0
C747 C 0.64579 0.13314 0.91855 0.0
C748 C 0.65459 0.13003 0.89399 0.0
C749 C 0.62937 0.13729 0.96482 0.0
C750 C 0.62398 0.11697 0.95178 0.0
C751 C 0.63254 0.11507 0.92892 0.0
C752 C 0.60713 0.09893 0.96041 0.0
C753 C 0.62006 0.14072 0.98916 0.0
C754 C 0.61122 0.086 0.98098 0.0
C755 C 0.5938 0.071 0.98997 0.0
C756 C 0.57214 0.06862 0.9784 0.0
C757 C 0.56868 0.08069 0.95723 0.0
C758 C 0.58597 0.09558 0.94834 0.0
H759 H 0.62229 0.15903 0.99516 0.0
H760 H 0.60119 0.13595 0.98998 0.0
H761 H 0.62964 0.12923 1.00149 0.0
H762 H 0.6276 0.08799 0.9904 0.0
H763 H 0.5969 0.0621 0.00641 0.0
H764 H 0.90132 0.82947 0.37638 0.0
H765 H 0.91945 0.86448 0.39315 0.0
H766 H 0.86154 0.87106 0.44051 0.0
H767 H 0.84294 0.83638 0.42353 0.0
H768 H 0.89964 0.91153 0.39751 0.0
H769 H 0.92129 0.87009 0.48301 0.0
H770 H 0.91454 0.85314 0.4573 0.0
H771 H 0.89154 0.86726 0.47288 0.0
C772 C 0.89225 0.83847 0.39016 0.0
C773 C 0.87067 0.82994 0.39863 0.0
C774 C 0.90271 0.85844 0.39981 0.0
C775 C 0.89196 0.87022 0.41823 0.0
C776 C 0.87031 0.86202 0.42654 0.0
H777 H 0.95585 0.98212 0.50292 0.0
H778 H 0.92572 0.95595 0.48645 0.0
C779 C 0.85976 0.84211 0.41686 0.0
C780 C 0.90361 0.89094 0.4288 0.0
H781 H 0.93248 0.90935 0.47784 0.0
C782 C 0.90668 0.91114 0.41513 0.0
C783 C 0.91252 0.89049 0.45189 0.0
C784 C 0.91001 0.86908 0.46718 0.0
C785 C 0.91888 0.93074 0.42377 0.0
C786 C 0.92875 0.92991 0.44648 0.0
C787 C 0.92489 0.91002 0.46046 0.0
C788 C 0.94519 0.94827 0.45513 0.0
C789 C 0.92117 0.95213 0.40842 0.0
C790 C 0.96597 0.95289 0.44291 0.0
C791 C 0.98302 0.96785 0.45217 0.0
C792 C 0.97978 0.97851 0.47395 0.0
C793 C 0.95866 0.97452 0.48591 0.0
C794 C 0.94153 0.95944 0.4766 0.0
H795 H 0.90641 0.95323 0.39577 0.0
H796 H 0.92173 0.96836 0.41894 0.0
H797 H 0.93762 0.9511 0.39827 0.0
H798 H 0.9695 0.9441 0.42662 0.0
H799 H 0.99916 0.97046 0.4426 0.0
H800 H 0.41508 0.70426 0.68574 0.0
H801 H 0.42892 0.6709 0.66362 0.0
H802 H 0.37878 0.68559 0.60914 0.0
H803 H 0.36539 0.71969 0.63078 0.0
H804 H 0.4058 0.63116 0.64837 0.0
H805 H 0.43981 0.68267 0.57291 0.0
H806 H 0.43154 0.69615 0.6 0.0
H807 H 0.40944 0.68672 0.5796 0.0
C808 C 0.40715 0.70064 0.66891 0.0
C809 C 0.3893 0.71495 0.65995 0.0
C810 C 0.41495 0.68137 0.65638 0.0
C811 C 0.40516 0.67587 0.63454 0.0
C812 C 0.38692 0.6897 0.62574 0.0
H813 H 0.46098 0.56882 0.53939 0.0
H814 H 0.43231 0.59498 0.55728 0.0
C815 C 0.37911 0.70908 0.63828 0.0
C816 C 0.41445 0.6558 0.62111 0.0
H817 H 0.44488 0.64204 0.57186 0.0
C818 C 0.41412 0.63352 0.63152 0.0
C819 C 0.4252 0.65878 0.59903 0.0
C820 C 0.42675 0.68236 0.58723 0.0
C821 C 0.42488 0.61439 0.62085 0.0
C822 C 0.4365 0.61763 0.59932 0.0
C823 C 0.43587 0.63959 0.58834 0.0
C824 C 0.45189 0.59943 0.58943 0.0
C825 C 0.42413 0.59092 0.6329 0.0
C826 C 0.47219 0.59304 0.60165 0.0
C827 C 0.48851 0.5783 0.59148 0.0
C828 C 0.48486 0.56946 0.56889 0.0
C829 C 0.46407 0.57508 0.55696 0.0
C830 C 0.44778 0.59012 0.56709 0.0
H831 H 0.4092 0.58954 0.64521 0.0
H832 H 0.42272 0.57654 0.62002 0.0
H833 H 0.44053 0.58857 0.64307 0.0
H834 H 0.47594 0.60028 0.61871 0.0
H835 H 0.50441 0.57437 0.60105 0.0
H836 H 0.96642 0.88141 0.75338 0.0
H837 H 0.98342 0.8973 0.71743 0.0
H838 H 0.97763 0.96699 0.74467 0.0
H839 H 0.96125 0.95123 0.78093 0.0
H840 H 0.96318 0.92801 0.68617 0.0
H841 H 0.04525 0.96616 0.72186 0.0
H842 H 0.02757 0.94536 0.73798 0.0
H843 H 0.01959 0.97564 0.73692 0.0
C844 C 0.96909 0.90011 0.7519 0.0
C845 C 0.96254 0.91503 0.77015 0.0
C846 C 0.97872 0.90916 0.73127 0.0
C847 C 0.9822 0.93331 0.72848 0.0
C848 C 0.9756 0.94826 0.7466 0.0
H849 H 0.01 0.03467 0.62437 0.0
H850 H 0.00614 0.01105 0.65971 0.0
C851 C 0.96592 0.93924 0.76722 0.0
C852 C 0.99151 0.94299 0.70617 0.0
H853 H 0.03398 0.97887 0.68353 0.0
C854 C 0.97887 0.93883 0.6855 0.0
C855 C 0.01203 0.95703 0.7053 0.0
C856 C 0.02704 0.96115 0.72666 0.0
C857 C 0.98546 0.94933 0.66424 0.0
C858 C 1.00553 0.96406 0.66353 0.0
C859 C 0.01865 0.96753 0.68405 0.0
C860 C 0.01149 0.97809 0.64239 0.0
C861 C 0.97014 0.94558 0.64301 0.0
C862 C 0.0168 0.96752 0.62097 0.0
C863 C 0.01899 0.98108 0.60058 0.0
C864 C 0.01604 1.0054 0.60139 0.0
C865 C 0.01226 0.01596 0.62314 0.0
C866 C 0.01009 1.00248 0.6434 0.0
H867 H 0.95308 0.93726 0.64752 0.0
H868 H 0.96672 0.96241 0.63398 0.0
H869 H 0.97923 0.93401 0.63059 0.0
H870 H 0.01837 0.94874 0.61985 0.0
H871 H 0.02169 0.97242 0.58407 0.0
H872 H 0.55584 0.12596 0.28393 0.0
H873 H 0.5405 0.10873 0.2478 0.0
H874 H 0.60412 0.1283 0.21217 0.0
H875 H 0.61961 0.14543 0.24817 0.0
H876 H 0.5325 0.12627 0.20228 0.0
H877 H 0.60042 0.05775 0.20309 0.0
H878 H 0.59512 0.07616 0.22791 0.0
H879 H 0.61217 0.08693 0.20373 0.0
C880 C 0.56648 0.1268 0.26834 0.0
C881 C 0.5891 0.13682 0.26903 0.0
C882 C 0.55768 0.11695 0.2477 0.0
C883 C 0.57129 0.11691 0.22736 0.0
C884 C 0.59349 0.12769 0.22777 0.0
H885 H 0.53365 0.07548 0.0851 0.0
H886 H 0.5385 0.09865 0.12084 0.0
C887 C 0.60235 0.13742 0.24839 0.0
C888 C 0.56286 0.10458 0.20608 0.0
H889 H 0.5766 0.06017 0.16933 0.0
C890 C 0.54207 0.11176 0.19506 0.0
C891 C 0.57517 0.08544 0.19688 0.0
C892 C 0.59683 0.07593 0.2086 0.0
C893 C 0.53347 0.10049 0.17489 0.0
C894 C 0.54618 0.08177 0.16538 0.0
C895 C 0.56686 0.07457 0.17654 0.0
C896 C 0.53848 0.06876 0.1442 0.0
C897 C 0.51068 0.1084 0.16422 0.0
C898 C 0.53623 0.04436 0.1454 0.0
C899 C 0.53388 0.03121 0.12509 0.0
C900 C 0.53343 0.04215 0.1031 0.0
C901 C 0.53374 0.06666 0.10188 0.0
C902 C 0.53646 0.07989 0.12231 0.0
H903 H 0.50012 0.11845 0.17685 0.0
H904 H 0.51445 0.11991 0.14903 0.0
H905 H 0.5001 0.09329 0.15797 0.0
H906 H 0.5376 0.03536 0.16204 0.0
H907 H 0.53358 0.01234 0.12652 0.0
H908 H 0.43835 0.64118 0.28991 0.0
H909 H 0.45304 0.62592 0.32707 0.0
H910 H 0.51248 0.59686 0.29181 0.0
H911 H 0.49799 0.61235 0.25458 0.0
H912 H 0.45889 0.5814 0.33872 0.0
H913 H 0.54426 0.62752 0.34709 0.0
H914 H 0.52219 0.63622 0.3262 0.0
H915 H 0.54109 0.61212 0.32003 0.0
C916 C 0.45459 0.6316 0.29007 0.0
C917 C 0.46696 0.62794 0.26926 0.0
C918 C 0.46305 0.623 0.31135 0.0
C919 C 0.48407 0.61053 0.31236 0.0
C920 C 0.49657 0.60697 0.29164 0.0
H921 H 0.5149 0.50827 0.41825 0.0
H922 H 0.51042 0.53014 0.3818 0.0
C923 C 0.48819 0.61572 0.27033 0.0
C924 C 0.49178 0.5997 0.33477 0.0
H925 H 0.5377 0.59525 0.37314 0.0
C926 C 0.47608 0.5846 0.34628 0.0
C927 C 0.51413 0.60402 0.34484 0.0
C928 C 0.53131 0.62104 0.33404 0.0
C929 C 0.48219 0.57336 0.3672 0.0
C930 C 0.50487 0.57684 0.37673 0.0
C931 C 0.52045 0.59237 0.36563 0.0
C932 C 0.51243 0.56408 0.39806 0.0
C933 C 0.46418 0.55791 0.37904 0.0
C934 C 0.51659 0.57596 0.41912 0.0
C935 C 0.51944 0.56343 0.44006 0.0
C936 C 0.51812 0.53891 0.44012 0.0
C937 C 0.51579 0.52717 0.41874 0.0
C938 C 0.51316 0.53963 0.39791 0.0
H939 H 0.44613 0.56189 0.37301 0.0
H940 H 0.46772 0.5394 0.37483 0.0
H941 H 0.46497 0.5599 0.39831 0.0
H942 H 0.51622 0.59485 0.41957 0.0
H943 H 0.52107 0.57292 0.4563 0.0
H944 H 0.07297 0.44617 0.7573 0.0
H945 H 0.05203 0.45863 0.79232 0.0
H946 H 0.10743 0.43149 0.83564 0.0
H947 H 0.12835 0.41884 0.80085 0.0
H948 H 0.03761 0.43437 0.83742 0.0
H949 H 0.10548 0.50411 0.84655 0.0
H950 H 0.10113 0.4881 0.81981 0.0
H951 H 0.11647 0.47498 0.84389 0.0
C952 C 0.08043 0.44237 0.7743 0.0
C953 C 0.1025 0.43182 0.77628 0.0
C954 C 0.06844 0.4495 0.79428 0.0
C955 C 0.0783 0.44616 0.81652 0.0
C956 C 0.09963 0.4344 0.8186 0.0
H957 H 0.03331 0.47784 0.95729 0.0
H958 H 0.03878 0.45727 0.92025 0.0
C959 C 0.11163 0.42733 0.7987 0.0
C960 C 0.06782 0.4572 0.83731 0.0
H961 H 0.07832 0.50008 0.87715 0.0
C962 C 0.04638 0.44881 0.84612 0.0
C963 C 0.07918 0.47619 0.8484 0.0
C964 C 0.10174 0.48657 0.83914 0.0
C965 C 0.03625 0.45874 0.86611 0.0
C966 C 0.048 0.47736 0.87752 0.0
C967 C 0.06927 0.48583 0.86842 0.0
C968 C 0.03904 0.48865 0.89896 0.0
C969 C 0.01301 0.44943 0.87467 0.0
C970 C 0.03662 0.513 0.89929 0.0
C971 C 0.03391 0.52471 0.92037 0.0
C972 C 0.03326 0.5123 0.94156 0.0
C973 C 0.03355 0.48778 0.94114 0.0
C974 C 0.03661 0.47602 0.91997 0.0
H975 H 1.00336 0.43987 0.86074 0.0
H976 H 0.01608 0.43709 0.88935 0.0
H977 H 1.00186 0.46375 0.88115 0.0
H978 H 0.03836 0.52312 0.88333 0.0
H979 H 0.03363 0.54362 0.92021 0.0
H980 H 0.75886 0.96597 0.88179 0.0
H981 H 0.72325 0.98219 0.8985 0.0
H982 H 0.75029 0.96968 0.96781 0.0
H983 H 0.78624 0.95411 0.95127 0.0
H984 H 0.69126 0.9602 0.92717 0.0
H985 H 0.72935 0.03729 0.97187 0.0
H986 H 0.74511 0.02118 0.95009 0.0
H987 H 0.74357 0.01056 0.97968 0.0
C988 C 0.75743 0.96701 0.90059 0.0
C989 C 0.77553 0.95881 0.91517 0.0
C990 C 0.73698 0.97618 0.91012 0.0
C991 C 0.73423 0.97754 0.93441 0.0
C992 C 0.7522 0.96929 0.94902 0.0
H993 H 0.62933 1.0002 0.03573 0.0
H994 H 0.66484 0.99601 0.01272 0.0
C995 C 0.77263 0.96009 0.93951 0.0
C996 C 0.71211 0.98641 0.94453 0.0
H997 H 0.69051 0.02591 0.98317 0.0
C998 C 0.69102 0.97479 0.93914 0.0
C999 C 0.7118 1.00552 0.96009 0.0
C1000 C 0.73363 0.01953 0.96562 0.0
C1001 C 0.66985 0.98096 0.94977 0.0
C1002 C 0.66968 0.99956 0.96595 0.0
C1003 C 0.69064 0.0117 0.97075 0.0
C1004 C 0.64849 1.00504 0.97979 0.0
C1005 C 0.64807 0.96675 0.94449 0.0
C1006 C 0.62759 0.01233 0.96907 0.0
C1007 C 0.60711 0.0147 0.98225 0.0
C1008 C 0.6073 0.00997 0.00638 0.0
C1009 C 0.62856 1.00389 0.01715 0.0
C1010 C 0.64892 1.00153 1.00404 0.0
H1011 H 0.65209 0.95039 0.93506 0.0
H1012 H 0.63867 0.96215 0.96084 0.0
H1013 H 0.63612 0.97721 0.93338 0.0
H1014 H 0.62695 0.0155 0.95042 0.0
H1015 H 0.59099 0.01919 0.97341 0.0
H1016 H 0.79158 0.08547 0.37904 0.0
H1017 H 0.82714 0.06788 0.39496 0.0
H1018 H 0.79967 0.07406 0.4646 0.0
H1019 H 0.76378 0.09102 0.44881 0.0
H1020 H 0.85879 0.08748 0.42583 0.0
H1021 H 0.82099 0.0063 0.4635 0.0
H1022 H 0.80529 0.02421 0.44277 0.0
H1023 H 0.80649 0.03215 0.47311 0.0
C1024 C 0.79292 0.08275 0.39773 0.0
C1025 C 0.77471 0.08959 0.41263 0.0
C1026 C 0.81333 0.07279 0.4068 0.0
C1027 C 0.81593 0.06926 0.43094 0.0
C1028 C 0.79787 0.07613 0.44588 0.0
H1029 H 0.9197 0.03952 0.53216 0.0
H1030 H 0.88431 0.04408 0.50866 0.0
C1031 C 0.77747 0.08614 0.43683 0.0
C1032 C 0.83804 0.0596 0.44064 0.0
H1033 H 0.85966 0.01684 0.47631 0.0
C1034 C 0.85907 0.07183 0.43657 0.0
C1035 C 0.83839 0.03912 0.45458 0.0
C1036 C 0.81662 0.02453 0.45859 0.0
C1037 C 0.8802 0.06488 0.44706 0.0
C1038 C 0.88041 0.04485 0.46167 0.0
C1039 C 0.85952 0.03214 0.46506 0.0
C1040 C 0.90146 0.03848 0.4756 0.0
C1041 C 0.90186 0.07978 0.4434 0.0
C1042 C 0.92277 0.0328 0.46493 0.0
C1043 C 0.94318 0.03024 0.47841 0.0
C1044 C 0.9425 0.03314 0.50276 0.0
C1045 C 0.92082 0.03728 0.51343 0.0
C1046 C 0.90054 0.03985 0.50001 0.0
H1047 H 0.89774 0.0969 0.43524 0.0
H1048 H 0.91101 0.08297 0.46026 0.0
H1049 H 0.91407 0.07052 0.43173 0.0
H1050 H 0.92379 0.03124 0.44613 0.0
H1051 H 0.95963 0.02726 0.46967 0.0
H1052 H 0.28833 0.58326 0.09143 0.0
H1053 H 0.25099 0.56749 0.07703 0.0
H1054 H 0.22743 0.55765 0.14783 0.0
H1055 H 0.26441 0.57402 0.1624 0.0
H1056 H 0.22877 0.52316 0.08588 0.0
H1057 H 0.17576 0.59742 0.11758 0.0
H1058 H 0.20725 0.59903 0.11552 0.0
H1059 H 0.19372 0.58318 0.13909 0.0
C1060 C 0.27514 0.57793 0.10396 0.0
C1061 C 0.27935 0.58008 0.12809 0.0
C1062 C 0.25389 0.56872 0.0957 0.0
C1063 C 0.23634 0.56161 0.11135 0.0
C1064 C 0.24061 0.56329 0.13543 0.0
H1065 H 0.09037 0.52711 0.07428 0.0
H1066 H 0.12674 0.52796 0.0974 0.0
C1067 C 0.26187 0.57247 0.14372 0.0
C1068 C 0.2134 0.55299 0.10236 0.0
H1069 H 0.15564 0.56729 0.09808 0.0
C1070 C 0.21274 0.5327 0.0887 0.0
C1071 C 0.19245 0.56532 0.10622 0.0
C1072 C 0.1922 0.58754 0.12024 0.0
C1073 C 0.19177 0.52473 0.07836 0.0
C1074 C 0.17104 0.53762 0.08141 0.0
C1075 C 0.17152 0.55735 0.09584 0.0
C1076 C 0.14945 0.53282 0.06758 0.0
C1077 C 0.19207 0.50272 0.06405 0.0
C1078 C 0.15018 0.53477 0.04317 0.0
C1079 C 0.12955 0.53428 0.03003 0.0
C1080 C 0.1077 0.5318 0.04099 0.0
C1081 C 0.10698 0.52868 0.06534 0.0
C1082 C 0.12772 0.52931 0.07856 0.0
H1083 H 0.20612 0.49081 0.07007 0.0
H1084 H 0.17502 0.49326 0.06488 0.0
H1085 H 0.19561 0.50734 0.04555 0.0
H1086 H 0.16664 0.53797 0.03432 0.0
H1087 H 0.13064 0.53682 0.0113 0.0
H1088 H 0.26824 0.45654 0.57317 0.0
H1089 H 0.3046 0.47786 0.56521 0.0
H1090 H 0.32204 0.47648 0.63853 0.0
H1091 H 0.28602 0.45432 0.64659 0.0
H1092 H 0.32328 0.52042 0.5814 0.0
H1093 H 0.37831 0.4452 0.6085 0.0
H1094 H 0.34716 0.44232 0.60386 0.0
H1095 H 0.35826 0.45584 0.62994 0.0
C1096 C 0.27982 0.46067 0.58763 0.0
C1097 C 0.27434 0.45336 0.61048 0.0
C1098 C 0.30052 0.47307 0.58307 0.0
C1099 C 0.31623 0.47846 0.60121 0.0
C1100 C 0.31036 0.47217 0.6242 0.0
H1101 H 0.46215 0.52027 0.57264 0.0
H1102 H 0.42572 0.51782 0.59526 0.0
C1103 C 0.28964 0.45969 0.6288 0.0
C1104 C 0.33921 0.48948 0.59558 0.0
H1105 H 0.39762 0.47777 0.59264 0.0
C1106 C 0.33959 0.51126 0.58417 0.0
C1107 C 0.36052 0.4776 0.59933 0.0
C1108 C 0.3612 0.45388 0.61092 0.0
C1109 C 0.36055 0.52099 0.57556 0.0
C1110 C 0.38162 0.50847 0.57814 0.0
C1111 C 0.38146 0.48739 0.59076 0.0
C1112 C 0.40311 0.51485 0.56496 0.0
C1113 C 0.35989 0.54431 0.56325 0.0
C1114 C 0.40243 0.51456 0.54048 0.0
C1115 C 0.42309 0.51586 0.52763 0.0
C1116 C 0.4449 0.51756 0.53898 0.0
C1117 C 0.44556 0.51929 0.56344 0.0
C1118 C 0.42479 0.51777 0.57637 0.0
H1119 H 0.34519 0.55505 0.56964 0.0
H1120 H 0.37655 0.55419 0.5657 0.0
H1121 H 0.35716 0.54147 0.54427 0.0
H1122 H 0.38602 0.51182 0.53128 0.0
H1123 H 0.42208 0.5144 0.5088 0.0
H1124 H 0.9546 0.78429 0.95706 0.0
H1125 H 0.97048 0.74827 0.97368 0.0
H1126 H 0.90048 0.72104 0.98301 0.0
H1127 H 0.88445 0.7567 0.96585 0.0
H1128 H 0.96209 0.72705 0.01848 0.0
H1129 H 0.93334 0.66999 0.94519 0.0
H1130 H 0.93422 0.70142 0.94273 0.0
H1131 H 0.91089 0.68717 0.95838 0.0
C1132 C 0.94257 0.77056 0.96244 0.0
C1133 C 0.91824 0.77338 0.95996 0.0
C1134 C 0.95168 0.75006 0.97212 0.0
C1135 C 0.93668 0.73187 0.97937 0.0
C1136 C 0.91239 0.73473 0.97727 0.0
H1137 H 0.97615 0.58939 0.02 0.0
H1138 H 0.95263 0.62489 0.01649 0.0
C1139 C 0.90326 0.75523 0.96763 0.0
C1140 C 0.94656 0.70983 0.98879 0.0
H1141 H 0.95276 0.65192 0.97662 0.0
C1142 C 0.95994 0.71059 0.00941 0.0
C1143 C 0.94357 0.68831 0.97707 0.0
C1144 C 0.92989 0.68655 0.95452 0.0
C1145 C 0.97073 0.69048 0.01841 0.0
C1146 C 0.96845 0.66914 0.00622 0.0
C1147 C 0.95441 0.66824 0.98603 0.0
C1148 C 0.98242 0.64823 0.01249 0.0
C1149 C 0.98454 0.69229 0.04086 0.0
C1150 C 0.00694 0.6496 0.01195 0.0
C1151 C 0.02034 0.62945 0.01404 0.0
C1152 C 0.00953 0.60743 0.01668 0.0
C1153 C 0.985 0.60614 0.01838 0.0
C1154 C 0.97154 0.62638 0.0162 0.0
H1155 H 0.97814 0.70677 0.05188 0.0
H1156 H 0.98356 0.67578 0.05108 0.0
H1157 H 1.00317 0.696 0.03672 0.0
H1158 H 0.01576 0.66611 0.0086 0.0
H1159 H 0.03919 0.631 0.01254 0.0
H1160 H 0.42128 0.75644 0.0405 0.0
H1161 H 0.43785 0.79279 0.02453 0.0
H1162 H 0.45691 0.81478 0.09399 0.0
H1163 H 0.44016 0.77882 0.11011 0.0
H1164 H 0.42602 0.83978 0.03454 0.0
H1165 H 0.51838 0.82174 0.05753 0.0
H1166 H 0.49601 0.7992 0.05715 0.0
H1167 H 0.49895 0.81828 0.08187 0.0
C1168 C 0.42891 0.76905 0.0524 0.0
C1169 C 0.42951 0.76456 0.07662 0.0
C1170 C 0.43845 0.78977 0.04321 0.0
C1171 C 0.44896 0.80632 0.05802 0.0
C1172 C 0.44938 0.80201 0.08217 0.0
H1173 H 0.4937 0.94404 0.06953 0.0
H1174 H 0.47506 0.90541 0.06953 0.0
C1175 C 0.43983 0.78138 0.09137 0.0
C1176 C 0.4591 0.82839 0.04853 0.0
H1177 H 0.509 0.86178 0.04934 0.0
C1178 C 0.44427 0.84442 0.03732 0.0
C1179 C 0.48298 0.83435 0.05192 0.0
C1180 C 0.50007 0.8174 0.06256 0.0
C1181 C 0.45241 0.86682 0.03089 0.0
C1182 C 0.47585 0.87321 0.03574 0.0
C1183 C 0.49099 0.85677 0.04568 0.0
C1184 C 0.48419 0.89769 0.03384 0.0
C1185 C 0.43578 0.88402 0.01999 0.0
C1186 C 0.49506 0.9063 0.01352 0.0
C1187 C 0.50564 0.92856 0.01345 0.0
C1188 C 0.50543 0.94227 0.0337 0.0
C1189 C 0.49383 0.93385 0.05364 0.0
C1190 C 0.48323 0.91183 0.05367 0.0
H1191 H 0.41863 0.87583 0.01548 0.0
H1192 H 0.43278 0.89855 0.03234 0.0
H1193 H 0.44363 0.89167 1.00394 0.0
H1194 H 0.49608 0.8955 0.99811 0.0
H1195 H 0.51485 0.9346 0.99802 0.0
H1196 H 0.07606 0.27986 0.5913 0.0
H1197 H 0.06817 0.24392 0.56976 0.0
H1198 H 0.14179 0.22811 0.57059 0.0
H1199 H 0.14978 0.2637 0.59291 0.0
H1200 H 0.08464 0.22685 0.52679 0.0
H1201 H 0.11184 0.17053 0.60153 0.0
H1202 H 0.10693 0.20139 0.60474 0.0
H1203 H 0.13318 0.19133 0.59114 0.0
C1204 C 0.0906 0.26872 0.58699 0.0
C1205 C 0.11352 0.27453 0.59416 0.0
C1206 C 0.08608 0.24828 0.57448 0.0
C1207 C 0.10433 0.23315 0.56886 0.0
C1208 C 0.12738 0.23934 0.57506 0.0
H1209 H 0.07571 0.08822 0.52542 0.0
H1210 H 0.09853 0.12476 0.52868 0.0
C1211 C 0.13194 0.25982 0.58764 0.0
C1212 C 0.09878 0.21042 0.55762 0.0
H1213 H 0.09588 0.15184 0.56882 0.0
C1214 C 0.08741 0.2104 0.53581 0.0
C1215 C 0.10255 0.18894 0.56931 0.0
C1216 C 0.11414 0.18788 0.59304 0.0
C1217 C 0.07886 0.1896 0.52587 0.0
C1218 C 0.08141 0.16832 0.53822 0.0
C1219 C 0.094 0.16816 0.55933 0.0
C1220 C 0.0682 0.14686 0.53162 0.0
C1221 C 0.0666 0.19066 0.50251 0.0
C1222 C 0.04365 0.14722 0.53171 0.0
C1223 C 0.03072 0.12651 0.52999 0.0
C1224 C 0.04202 0.10496 0.52808 0.0
C1225 C 0.06657 0.10464 0.52661 0.0
C1226 C 0.07959 0.12546 0.52856 0.0
H1227 H 0.07316 0.20561 0.49188 0.0
H1228 H 0.06899 0.17429 0.49253 0.0
H1229 H 0.04759 0.19315 0.5053 0.0
H1230 H 0.03445 0.16339 0.53456 0.0
H1231 H 0.01182 0.12726 0.53124 0.0
H1232 H 0.59636 0.26564 0.45756 0.0
H1233 H 0.5809 0.30165 0.47407 0.0
H1234 H 0.65119 0.32811 0.48376 0.0
H1235 H 0.6668 0.29247 0.46672 0.0
H1236 H 0.58975 0.32251 0.51894 0.0
H1237 H 0.61861 0.37969 0.44543 0.0
H1238 H 0.61738 0.34829 0.44311 0.0
H1239 H 0.64094 0.36218 0.45881 0.0
C1240 C 0.60855 0.27919 0.46301 0.0
C1241 C 0.63284 0.27618 0.46065 0.0
C1242 C 0.59968 0.29968 0.47263 0.0
C1243 C 0.61488 0.31766 0.47994 0.0
C1244 C 0.63913 0.31459 0.47798 0.0
H1245 H 0.57634 0.46022 0.51947 0.0
H1246 H 0.59972 0.42463 0.51649 0.0
C1247 C 0.64802 0.29409 0.46841 0.0
C1248 C 0.60525 0.33974 0.4892 0.0
H1249 H 0.59938 0.39774 0.47657 0.0
C1250 C 0.59197 0.339 0.50977 0.0
C1251 C 0.60834 0.36129 0.47734 0.0
C1252 C 0.62193 0.36304 0.45485 0.0
C1253 C 0.58136 0.35915 0.51857 0.0
C1254 C 0.58371 0.38051 0.50621 0.0
C1255 C 0.59767 0.3814 0.4861 0.0
C1256 C 0.56984 0.40145 0.5122 0.0
C1257 C 0.56765 0.35737 0.54096 0.0
C1258 C 0.54531 0.4002 0.51131 0.0
C1259 C 0.53201 0.42041 0.51305 0.0
C1260 C 0.54291 0.44236 0.51572 0.0
C1261 C 0.56743 0.44353 0.5178 0.0
C1262 C 0.5808 0.42323 0.51594 0.0
H1263 H 0.57393 0.34275 0.55209 0.0
H1264 H 0.56886 0.37382 0.55109 0.0
H1265 H 0.54895 0.3539 0.53674 0.0
H1266 H 0.53644 0.38375 0.50794 0.0
H1267 H 0.51316 0.41896 0.51127 0.0
loop_
_geom_bond_atom_site_label_1
_geom_bond_atom_site_label_2
_geom_bond_distance
_geom_bond_site_symmetry_2
_ccdc_geom_bond_type
C0 C1 1.264 . S
C0 C5 1.479 . S
C0 C10 1.465 . S
C1 C0 1.264 . S
C1 C3 1.339 . S
C1 H28 0.931 . S
C2 C3 1.395 . S
C2 C4 1.320 . S
C3 C1 1.339 . S
C3 C2 1.395 . S
C3 H29 0.929 . S
C4 C2 1.320 . S
C4 C5 1.405 . S
C4 H30 0.930 . S
C5 C0 1.479 . S
C5 C4 1.405 . S
C5 H31 0.931 . S
U6 O7 2.454 . S
U6 O8 2.458 . S
U6 C9 2.984 . S
U6 C10 2.847 . S
U6 C23 2.882 . S
U6 O24 2.441 . S
U6 O25 2.420 . S
U6 O26 2.455 . S
U6 O27 2.449 . S
O7 U6 2.454 . S
O7 C9 1.353 . S
O8 U6 2.458 . S
O8 C9 1.286 . S
C9 U6 2.984 . S
C9 O7 1.353 . S
C9 O8 1.286 . S
C9 C11 1.363 . S
C10 C0 1.465 . S
C10 U6 2.847 . S
C10 O24 1.249 . S
C10 O25 1.202 . S
C11 C9 1.363 . S
C11 C13 1.408 . S
C11 C16 1.342 . S
C12 C13 1.310 . S
C12 C15 1.461 . S
C12 H32 0.932 . S
C13 C11 1.408 . S
C13 C12 1.310 . S
C13 H33 0.930 . S
C14 C15 1.474 . S
C14 C16 1.285 . S
C14 H34 0.929 . S
C15 C12 1.461 . S
C15 C14 1.474 . S
C16 C11 1.342 . S
C16 C14 1.285 . S
C16 H35 0.930 . S
C17 C20 1.424 . S
C17 C22 1.245 . S
C17 C23 1.428 . S
C18 C21 1.260 . S
C18 C22 1.477 . S
C18 H36 0.932 . S
C19 C20 1.384 . S
C19 C21 1.479 . S
C19 H37 0.929 . S
C20 C17 1.424 . S
C20 C19 1.384 . S
C20 H38 0.928 . S
C21 C18 1.260 . S
C21 C19 1.479 . S
C22 C17 1.245 . S
C22 C18 1.477 . S
C22 H39 0.932 . S
C23 U6 2.882 . S
C23 C17 1.428 . S
C23 O26 1.301 . S
C23 O27 1.282 . S
O24 U6 2.441 . S
O24 C10 1.249 . S
O25 U6 2.420 . S
O25 C10 1.202 . S
O26 U6 2.455 . S
O26 C23 1.301 . S
O27 U6 2.449 . S
O27 C23 1.282 . S
H28 C1 0.931 . S
H29 C3 0.929 . S
H30 C4 0.930 . S
H31 C5 0.931 . S
H32 C12 0.932 . S
H33 C13 0.930 . S
H34 C14 0.929 . S
H35 C16 0.930 . S
H36 C18 0.932 . S
H37 C19 0.929 . S
H38 C20 0.928 . S
H39 C22 0.932 . S
C40 C41 1.264 . S
C40 C45 1.479 . S
C40 C50 1.465 . S
C41 C40 1.264 . S
C41 C43 1.339 . S
C41 H68 0.931 . S
C42 C43 1.395 . S
C42 C44 1.320 . S
C43 C41 1.339 . S
C43 C42 1.395 . S
C43 H69 0.929 . S
C44 C42 1.320 . S
C44 C45 1.405 . S
C44 H70 0.930 . S
C45 C40 1.479 . S
C45 C44 1.405 . S
C45 H71 0.931 . S
U46 O47 2.454 . S
U46 O48 2.458 . S
U46 C49 2.984 . S
U46 C50 2.847 . S
U46 C63 2.882 . S
U46 O64 2.441 . S
U46 O65 2.420 . S
U46 O66 2.455 . S
U46 O67 2.449 . S
O47 U46 2.454 . S
O47 C49 1.353 . S
O48 U46 2.458 . S
O48 C49 1.286 . S
C49 U46 2.984 . S
C49 O47 1.353 . S
C49 O48 1.286 . S
C49 C51 1.363 . S
C50 C40 1.465 . S
C50 U46 2.847 . S
C50 O64 1.249 . S
C50 O65 1.202 . S
C51 C49 1.363 . S
C51 C53 1.408 . S
C51 C56 1.342 . S
C52 C53 1.310 . S
C52 C55 1.461 . S
C52 H72 0.932 . S
C53 C51 1.408 . S
C53 C52 1.310 . S
C53 H73 0.930 . S
C54 C55 1.474 . S
C54 C56 1.285 . S
C54 H74 0.929 . S
C55 C52 1.461 . S
C55 C54 1.474 . S
C56 C51 1.342 . S
C56 C54 1.285 . S
C56 H75 0.930 . S
C57 C60 1.424 . S
C57 C62 1.245 . S
C57 C63 1.428 . S
C58 C61 1.260 . S
C58 C62 1.477 . S
C58 H76 0.932 . S
C59 C60 1.384 . S
C59 C61 1.479 . S
C59 H77 0.929 . S
C60 C57 1.424 . S
C60 C59 1.384 . S
C60 H78 0.928 . S
C61 C58 1.260 . S
C61 C59 1.479 . S
C62 C57 1.245 . S
C62 C58 1.477 . S
C62 H79 0.932 . S
C63 U46 2.882 . S
C63 C57 1.428 . S
C63 O66 1.301 . S
C63 O67 1.282 . S
O64 U46 2.441 . S
O64 C50 1.249 . S
O65 U46 2.420 . S
O65 C50 1.202 . S
O66 U46 2.455 . S
O66 C63 1.301 . S
O67 U46 2.449 . S
O67 C63 1.282 . S
H68 C41 0.931 . S
H69 C43 0.929 . S
H70 C44 0.930 . S
H71 C45 0.931 . S
H72 C52 0.932 . S
H73 C53 0.930 . S
H74 C54 0.929 . S
H75 C56 0.930 . S
H76 C58 0.932 . S
H77 C59 0.929 . S
H78 C60 0.928 . S
H79 C62 0.932 . S
C80 C81 1.264 . S
C80 C85 1.479 . S
C80 C90 1.465 . S
C81 C80 1.264 . S
C81 C83 1.339 . S
C81 H108 0.931 . S
C82 C83 1.395 . S
C82 C84 1.320 . S
C83 C81 1.339 . S
C83 C82 1.395 . S
C83 H109 0.929 . S
C84 C82 1.320 . S
C84 C85 1.405 . S
C84 H110 0.930 . S
C85 C80 1.479 . S
C85 C84 1.405 . S
C85 H111 0.931 . S
U86 O87 2.454 . S
U86 O88 2.458 . S
U86 C89 2.984 . S
U86 C90 2.847 . S
U86 C103 2.882 . S
U86 O104 2.441 . S
U86 O105 2.420 . S
U86 O106 2.455 . S
U86 O107 2.449 . S
O87 U86 2.454 . S
O87 C89 1.353 . S
O88 U86 2.458 . S
O88 C89 1.286 . S
C89 U86 2.984 . S
C89 O87 1.353 . S
C89 O88 1.286 . S
C89 C91 1.363 . S
C90 C80 1.465 . S
C90 U86 2.847 . S
C90 O104 1.249 . S
C90 O105 1.202 . S
C91 C89 1.363 . S
C91 C93 1.408 . S
C91 C96 1.342 . S
C92 C93 1.310 . S
C92 C95 1.461 . S
C92 H112 0.932 . S
C93 C91 1.408 . S
C93 C92 1.310 . S
C93 H113 0.930 . S
C94 C95 1.474 . S
C94 C96 1.285 . S
C94 H114 0.929 . S
C95 C92 1.461 . S
C95 C94 1.474 . S
C96 C91 1.342 . S
C96 C94 1.285 . S
C96 H115 0.930 . S
C97 C100 1.424 . S
C97 C102 1.245 . S
C97 C103 1.428 . S
C98 C101 1.260 . S
C98 C102 1.477 . S
C98 H116 0.932 . S
C99 C100 1.384 . S
C99 C101 1.479 . S
C99 H117 0.929 . S
C100 C97 1.424 . S
C100 C99 1.384 . S
C100 H118 0.928 . S
C101 C98 1.260 . S
C101 C99 1.479 . S
C102 C97 1.245 . S
C102 C98 1.477 . S
C102 H119 0.932 . S
C103 U86 2.882 . S
C103 C97 1.428 . S
C103 O106 1.301 . S
C103 O107 1.282 . S
O104 U86 2.441 . S
O104 C90 1.249 . S
O105 U86 2.420 . S
O105 C90 1.202 . S
O106 U86 2.455 . S
O106 C103 1.301 . S
O107 U86 2.449 . S
O107 C103 1.282 . S
H108 C81 0.931 . S
H109 C83 0.929 . S
H110 C84 0.930 . S
H111 C85 0.931 . S
H112 C92 0.932 . S
H113 C93 0.930 . S
H114 C94 0.929 . S
H115 C96 0.930 . S
H116 C98 0.932 . S
H117 C99 0.929 . S
H118 C100 0.928 . S
H119 C102 0.932 . S
C120 C121 1.264 . S
C120 C125 1.479 . S
C120 C130 1.465 . S
C121 C120 1.264 . S
C121 C123 1.339 . S
C121 H148 0.931 . S
C122 C123 1.395 . S
C122 C124 1.320 . S
C123 C121 1.339 . S
C123 C122 1.395 . S
C123 H149 0.929 . S
C124 C122 1.320 . S
C124 C125 1.405 . S
C124 H150 0.930 . S
C125 C120 1.479 . S
C125 C124 1.405 . S
C125 H151 0.931 . S
U126 O127 2.454 . S
U126 O128 2.458 . S
U126 C129 2.984 . S
U126 C130 2.847 . S
U126 C143 2.882 . S
U126 O144 2.441 . S
U126 O145 2.420 . S
U126 O146 2.455 . S
U126 O147 2.449 . S
O127 U126 2.454 . S
O127 C129 1.353 . S
O128 U126 2.458 . S
O128 C129 1.286 . S
C129 U126 2.984 . S
C129 O127 1.353 . S
C129 O128 1.286 . S
C129 C131 1.363 . S
C130 C120 1.465 . S
C130 U126 2.847 . S
C130 O144 1.249 . S
C130 O145 1.202 . S
C131 C129 1.363 . S
C131 C133 1.408 . S
C131 C136 1.342 . S
C132 C133 1.310 . S
C132 C135 1.461 . S
C132 H152 0.932 . S
C133 C131 1.408 . S
C133 C132 1.310 . S
C133 H153 0.930 . S
C134 C135 1.474 . S
C134 C136 1.285 . S
C134 H154 0.929 . S
C135 C132 1.461 . S
C135 C134 1.474 . S
C136 C131 1.342 . S
C136 C134 1.285 . S
C136 H155 0.930 . S
C137 C140 1.424 . S
C137 C142 1.245 . S
C137 C143 1.428 . S
C138 C141 1.260 . S
C138 C142 1.477 . S
C138 H156 0.932 . S
C139 C140 1.384 . S
C139 C141 1.479 . S
C139 H157 0.929 . S
C140 C137 1.424 . S
C140 C139 1.384 . S
C140 H158 0.928 . S
C141 C138 1.260 . S
C141 C139 1.479 . S
C142 C137 1.245 . S
C142 C138 1.477 . S
C142 H159 0.932 . S
C143 U126 2.882 . S
C143 C137 1.428 . S
C143 O146 1.301 . S
C143 O147 1.282 . S
O144 U126 2.441 . S
O144 C130 1.249 . S
O145 U126 2.420 . S
O145 C130 1.202 . S
O146 U126 2.455 . S
O146 C143 1.301 . S
O147 U126 2.449 . S
O147 C143 1.282 . S
H148 C121 0.931 . S
H149 C123 0.929 . S
H150 C124 0.930 . S
H151 C125 0.931 . S
H152 C132 0.932 . S
H153 C133 0.930 . S
H154 C134 0.929 . S
H155 C136 0.930 . S
H156 C138 0.932 . S
H157 C139 0.929 . S
H158 C140 0.928 . S
H159 C142 0.932 . S
C160 C161 1.264 . S
C160 C165 1.479 . S
C160 C170 1.465 . S
C161 C160 1.264 . S
C161 C163 1.339 . S
C161 H188 0.931 . S
C162 C163 1.395 . S
C162 C164 1.320 . S
C163 C161 1.339 . S
C163 C162 1.395 . S
C163 H189 0.929 1_655 S
C164 C162 1.320 . S
C164 C165 1.405 . S
C164 H190 0.930 . S
C165 C160 1.479 . S
C165 C164 1.405 . S
C165 H191 0.931 . S
U166 O167 2.454 . S
U166 O168 2.458 . S
U166 C169 2.984 . S
U166 C170 2.847 . S
U166 C183 2.882 . S
U166 O184 2.441 . S
U166 O185 2.420 . S
U166 O186 2.455 . S
U166 O187 2.449 . S
O167 U166 2.454 . S
O167 C169 1.353 . S
O168 U166 2.458 . S
O168 C169 1.286 . S
C169 U166 2.984 . S
C169 O167 1.353 . S
C169 O168 1.286 . S
C169 C171 1.363 . S
C170 C160 1.465 . S
C170 U166 2.847 . S
C170 O184 1.249 . S
C170 O185 1.202 . S
C171 C169 1.363 . S
C171 C173 1.408 . S
C171 C176 1.342 . S
C172 C173 1.310 . S
C172 C175 1.461 . S
C172 H192 0.932 1_556 S
C173 C171 1.408 . S
C173 C172 1.310 . S
C173 H193 0.930 . S
C174 C175 1.474 . S
C174 C176 1.285 . S
C174 H194 0.917 1_565 S
C175 C172 1.461 . S
C175 C174 1.474 . S
C176 C171 1.342 . S
C176 C174 1.285 . S
C176 H195 0.930 . S
C177 C180 1.424 . S
C177 C182 1.245 . S
C177 C183 1.428 . S
C178 C181 1.260 . S
C178 C182 1.477 . S
C178 H196 0.932 . S
C179 C180 1.384 . S
C179 C181 1.479 . S
C179 H197 0.929 . S
C180 C177 1.424 . S
C180 C179 1.384 . S
C180 H198 0.928 . S
C181 C178 1.260 . S
C181 C179 1.479 . S
C182 C177 1.245 . S
C182 C178 1.477 . S
C182 H199 0.932 . S
C183 U166 2.882 . S
C183 C177 1.428 . S
C183 O186 1.301 . S
C183 O187 1.282 . S
O184 U166 2.441 . S
O184 C170 1.249 . S
O185 U166 2.420 . S
O185 C170 1.202 . S
O186 U166 2.455 . S
O186 C183 1.301 . S
O187 U166 2.449 . S
O187 C183 1.282 . S
H188 C161 0.931 . S
H189 C163 0.929 1_455 S
H190 C164 0.930 . S
H191 C165 0.931 . S
H192 C172 0.932 1_554 S
H193 C173 0.930 . S
H194 C174 0.917 1_545 S
H195 C176 0.930 . S
H196 C178 0.932 . S
H197 C179 0.929 . S
H198 C180 0.928 . S
H199 C182 0.932 . S
C200 C201 1.264 . S
C200 C205 1.479 . S
C200 C210 1.465 . S
C201 C200 1.264 . S
C201 C203 1.339 . S
C201 H228 0.931 . S
C202 C203 1.395 . S
C202 C204 1.320 . S
C203 C201 1.339 . S
C203 C202 1.395 . S
C203 H229 0.929 . S
C204 C202 1.320 . S
C204 C205 1.405 . S
C204 H230 0.930 . S
C205 C200 1.479 . S
C205 C204 1.405 . S
C205 H231 0.931 . S
U206 O207 2.454 . S
U206 O208 2.458 . S
U206 C209 2.984 . S
U206 C210 2.847 . S
U206 C223 2.882 . S
U206 O224 2.441 . S
U206 O225 2.420 . S
U206 O226 2.455 . S
U206 O227 2.449 . S
O207 U206 2.454 . S
O207 C209 1.353 . S
O208 U206 2.458 . S
O208 C209 1.286 . S
C209 U206 2.984 . S
C209 O207 1.353 . S
C209 O208 1.286 . S
C209 C211 1.363 . S
C210 C200 1.465 . S
C210 U206 2.847 . S
C210 O224 1.249 . S
C210 O225 1.202 . S
C211 C209 1.363 . S
C211 C213 1.408 . S
C211 C216 1.342 . S
C212 C213 1.310 . S
C212 C215 1.461 . S
C212 H232 0.932 . S
C213 C211 1.408 . S
C213 C212 1.310 . S
C213 H233 0.930 . S
C214 C215 1.474 . S
C214 C216 1.285 . S
C214 H234 0.929 . S
C215 C212 1.461 . S
C215 C214 1.474 . S
C216 C211 1.342 . S
C216 C214 1.285 . S
C216 H235 0.930 . S
C217 C220 1.424 . S
C217 C222 1.245 . S
C217 C223 1.428 . S
C218 C221 1.260 . S
C218 C222 1.477 . S
C218 H236 0.932 . S
C219 C220 1.384 . S
C219 C221 1.479 . S
C219 H237 0.929 . S
C220 C217 1.424 . S
C220 C219 1.384 . S
C220 H238 0.928 . S
C221 C218 1.260 . S
C221 C219 1.479 . S
C222 C217 1.245 . S
C222 C218 1.477 . S
C222 H239 0.932 . S
C223 U206 2.882 . S
C223 C217 1.428 . S
C223 O226 1.301 . S
C223 O227 1.282 . S
O224 U206 2.441 . S
O224 C210 1.249 . S
O225 U206 2.420 . S
O225 C210 1.202 . S
O226 U206 2.455 . S
O226 C223 1.301 . S
O227 U206 2.449 . S
O227 C223 1.282 . S
H228 C201 0.931 . S
H229 C203 0.929 . S
H230 C204 0.930 . S
H231 C205 0.931 . S
H232 C212 0.932 . S
H233 C213 0.930 . S
H234 C214 0.929 . S
H235 C216 0.930 . S
H236 C218 0.932 . S
H237 C219 0.929 . S
H238 C220 0.928 . S
H239 C222 0.932 . S
C240 C241 1.264 . S
C240 C245 1.479 . S
C240 C250 1.465 . S
C241 C240 1.264 . S
C241 C243 1.339 . S
C241 H268 0.931 . S
C242 C243 1.395 . S
C242 C244 1.320 . S
C243 C241 1.339 . S
C243 C242 1.395 . S
C243 H269 0.929 . S
C244 C242 1.320 . S
C244 C245 1.405 . S
C244 H270 0.930 . S
C245 C240 1.479 . S
C245 C244 1.405 . S
C245 H271 0.931 . S
U246 O247 2.454 . S
U246 O248 2.458 . S
U246 C249 2.984 . S
U246 C250 2.847 . S
U246 C263 2.882 . S
U246 O264 2.441 . S
U246 O265 2.420 . S
U246 O266 2.455 . S
U246 O267 2.449 . S
O247 U246 2.454 . S
O247 C249 1.353 . S
O248 U246 2.458 . S
O248 C249 1.286 . S
C249 U246 2.984 . S
C249 O247 1.353 . S
C249 O248 1.286 . S
C249 C251 1.363 . S
C250 C240 1.465 . S
C250 U246 2.847 . S
C250 O264 1.249 . S
C250 O265 1.202 . S
C251 C249 1.363 . S
C251 C253 1.408 . S
C251 C256 1.342 . S
C252 C253 1.310 . S
C252 C255 1.461 . S
C252 H272 0.932 . S
C253 C251 1.408 . S
C253 C252 1.310 . S
C253 H273 0.930 . S
C254 C255 1.474 . S
C254 C256 1.285 . S
C254 H274 0.929 . S
C255 C252 1.461 . S
C255 C254 1.474 . S
C256 C251 1.342 . S
C256 C254 1.285 . S
C256 H275 0.930 . S
C257 C260 1.424 . S
C257 C262 1.245 . S
C257 C263 1.428 . S
C258 C261 1.260 . S
C258 C262 1.477 . S
C258 H276 0.932 . S
C259 C260 1.384 . S
C259 C261 1.479 . S
C259 H277 0.929 . S
C260 C257 1.424 . S
C260 C259 1.384 . S
C260 H278 0.928 . S
C261 C258 1.260 . S
C261 C259 1.479 . S
C262 C257 1.245 . S
C262 C258 1.477 . S
C262 H279 0.932 . S
C263 U246 2.882 . S
C263 C257 1.428 . S
C263 O266 1.301 . S
C263 O267 1.282 . S
O264 U246 2.441 . S
O264 C250 1.249 . S
O265 U246 2.420 . S
O265 C250 1.202 . S
O266 U246 2.455 . S
O266 C263 1.301 . S
O267 U246 2.449 . S
O267 C263 1.282 . S
H268 C241 0.931 . S
H269 C243 0.929 . S
H270 C244 0.930 . S
H271 C245 0.931 . S
H272 C252 0.932 . S
H273 C253 0.930 . S
H274 C254 0.929 . S
H275 C256 0.930 . S
H276 C258 0.932 . S
H277 C259 0.929 . S
H278 C260 0.928 . S
H279 C262 0.932 . S
C280 C281 1.264 . S
C280 C285 1.479 . S
C280 C290 1.465 . S
C281 C280 1.264 . S
C281 C283 1.339 . S
C281 H308 0.931 . S
C282 C283 1.395 . S
C282 C284 1.320 . S
C283 C281 1.339 . S
C283 C282 1.395 . S
C283 H309 0.929 . S
C284 C282 1.320 . S
C284 C285 1.405 . S
C284 H310 0.930 . S
C285 C280 1.479 . S
C285 C284 1.405 . S
C285 H311 0.931 . S
U286 O287 2.454 . S
U286 O288 2.458 . S
U286 C289 2.984 . S
U286 C290 2.847 . S
U286 C303 2.882 . S
U286 O304 2.441 . S
U286 O305 2.420 . S
U286 O306 2.455 . S
U286 O307 2.449 . S
O287 U286 2.454 . S
O287 C289 1.353 . S
O288 U286 2.458 . S
O288 C289 1.286 . S
C289 U286 2.984 . S
C289 O287 1.353 . S
C289 O288 1.286 . S
C289 C291 1.363 . S
C290 C280 1.465 . S
C290 U286 2.847 . S
C290 O304 1.249 . S
C290 O305 1.202 . S
C291 C289 1.363 . S
C291 C293 1.408 . S
C291 C296 1.342 . S
C292 C293 1.310 . S
C292 C295 1.461 . S
C292 H312 0.932 . S
C293 C291 1.408 . S
C293 C292 1.310 . S
C293 H313 0.930 . S
C294 C295 1.474 . S
C294 C296 1.285 . S
C294 H314 0.929 . S
C295 C292 1.461 . S
C295 C294 1.474 . S
C296 C291 1.342 . S
C296 C294 1.285 . S
C296 H315 0.930 . S
C297 C300 1.424 . S
C297 C302 1.245 . S
C297 C303 1.428 . S
C298 C301 1.260 . S
C298 C302 1.477 . S
C298 H316 0.932 . S
C299 C300 1.384 . S
C299 C301 1.479 . S
C299 H317 0.929 . S
C300 C297 1.424 . S
C300 C299 1.384 . S
C300 H318 0.928 . S
C301 C298 1.260 . S
C301 C299 1.479 . S
C302 C297 1.245 . S
C302 C298 1.477 . S
C302 H319 0.932 . S
C303 U286 2.882 . S
C303 C297 1.428 . S
C303 O306 1.301 . S
C303 O307 1.282 . S
O304 U286 2.441 . S
O304 C290 1.249 . S
O305 U286 2.420 . S
O305 C290 1.202 . S
O306 U286 2.455 . S
O306 C303 1.301 . S
O307 U286 2.449 . S
O307 C303 1.282 . S
H308 C281 0.931 . S
H309 C283 0.929 . S
H310 C284 0.930 . S
H311 C285 0.931 . S
H312 C292 0.932 . S
H313 C293 0.930 . S
H314 C294 0.929 . S
H315 C296 0.930 . S
H316 C298 0.932 . S
H317 C299 0.929 . S
H318 C300 0.928 . S
H319 C302 0.932 . S
Zn320 O326 1.920 . S
Zn320 O332 1.898 . S
Zn320 O335 1.905 . S
Zn321 O329 1.905 1_565 S
Zn321 O330 1.898 . S
Zn321 O338 1.920 . S
Zn322 O325 2.080 1_455 S
Zn322 O328 2.114 . S
Zn322 O331 2.120 1_445 S
Zn322 O333 2.120 . S
Zn322 O334 2.114 1_455 S
Zn322 O337 2.080 . S
C323 O328 1.166 . S
C323 O329 1.182 . S
C324 O330 1.167 1_655 S
C324 O331 1.299 . S
O325 Zn322 2.080 1_655 S
O325 C339 1.305 . S
O326 Zn320 1.920 . S
O326 C339 1.234 . S
C327 O332 1.167 1_455 S
C327 O333 1.299 . S
O328 Zn322 2.114 . S
O328 C323 1.166 . S
O329 Zn321 1.905 1_545 S
O329 C323 1.182 . S
O330 Zn321 1.898 . S
O330 C324 1.167 1_455 S
O331 Zn322 2.120 1_665 S
O331 C324 1.299 . S
O332 Zn320 1.898 . S
O332 C327 1.167 1_655 S
O333 Zn322 2.120 . S
O333 C327 1.299 . S
O334 Zn322 2.114 1_655 S
O334 C336 1.166 . S
O335 Zn320 1.905 . S
O335 C336 1.182 . S
C336 O334 1.166 . S
C336 O335 1.182 . S
O337 Zn322 2.080 . S
O337 C340 1.305 . S
O338 Zn321 1.920 . S
O338 C340 1.234 1_565 S
C339 O325 1.305 . S
C339 O326 1.234 . S
C340 O337 1.305 . S
C340 O338 1.234 1_545 S
Zn341 O347 1.920 1_556 S
Zn341 O353 1.898 . S
Zn341 O356 1.905 . S
Zn342 O350 1.905 . S
Zn342 O351 1.898 . S
Zn342 O359 1.920 . S
Zn343 O346 2.080 . S
Zn343 O349 2.114 1_545 S
Zn343 O352 2.120 1_545 S
Zn343 O354 2.120 . S
Zn343 O355 2.114 1_544 S
Zn343 O358 2.080 . S
C344 O349 1.166 . S
C344 O350 1.182 . S
C345 O351 1.167 . S
C345 O352 1.299 . S
O346 Zn343 2.080 . S
O346 C360 1.305 . S
O347 Zn341 1.920 1_554 S
O347 C360 1.234 . S
C348 O353 1.167 . S
C348 O354 1.299 1_556 S
O349 Zn343 2.114 1_565 S
O349 C344 1.166 . S
O350 Zn342 1.905 . S
O350 C344 1.182 . S
O351 Zn342 1.898 . S
O351 C345 1.167 . S
O352 Zn343 2.120 1_565 S
O352 C345 1.299 . S
O353 Zn341 1.898 . S
O353 C348 1.167 . S
O354 Zn343 2.120 . S
O354 C348 1.299 1_554 S
O355 Zn343 2.114 1_566 S
O355 C357 1.166 . S
O356 Zn341 1.905 . S
O356 C357 1.182 1_545 S
C357 O355 1.166 . S
C357 O356 1.182 1_565 S
O358 Zn343 2.080 . S
O358 C361 1.305 . S
O359 Zn342 1.920 . S
O359 C361 1.234 1_565 S
C360 O346 1.305 . S
C360 O347 1.234 . S
C361 O358 1.305 . S
C361 O359 1.234 1_545 S
Zn362 O368 1.920 . S
Zn362 O374 1.898 . S
Zn362 O377 1.905 . S
Zn363 O371 1.905 . S
Zn363 O372 1.898 . S
Zn363 O380 1.920 . S
Zn364 O367 2.080 . S
Zn364 O370 2.114 . S
Zn364 O373 2.120 . S
Zn364 O375 2.120 . S
Zn364 O376 2.114 . S
Zn364 O379 2.080 . S
C365 O370 1.166 . S
C365 O371 1.182 . S
C366 O372 1.167 . S
C366 O373 1.299 . S
O367 Zn364 2.080 . S
O367 C381 1.305 . S
O368 Zn362 1.920 . S
O368 C381 1.234 . S
C369 O374 1.167 . S
C369 O375 1.299 . S
O370 Zn364 2.114 . S
O370 C365 1.166 . S
O371 Zn363 1.905 . S
O371 C365 1.182 . S
O372 Zn363 1.898 . S
O372 C366 1.167 . S
O373 Zn364 2.120 . S
O373 C366 1.299 . S
O374 Zn362 1.898 . S
O374 C369 1.167 . S
O375 Zn364 2.120 . S
O375 C369 1.299 . S
O376 Zn364 2.114 . S
O376 C378 1.166 . S
O377 Zn362 1.905 . S
O377 C378 1.182 . S
C378 O376 1.166 . S
C378 O377 1.182 . S
O379 Zn364 2.080 . S
O379 C382 1.305 . S
O380 Zn363 1.920 . S
O380 C382 1.234 . S
C381 O367 1.305 . S
C381 O368 1.234 . S
C382 O379 1.305 . S
C382 O380 1.234 . S
Zn383 O389 1.920 . S
Zn383 O395 1.898 . S
Zn383 O398 1.905 . S
Zn384 O392 1.905 1_655 S
Zn384 O393 1.898 . S
Zn384 O401 1.920 . S
Zn385 O388 2.080 1_554 S
Zn385 O391 2.114 . S
Zn385 O394 2.094 1_454 S
Zn385 O396 2.120 . S
Zn385 O397 2.114 1_554 S
Zn385 O400 2.080 . S
C386 O391 1.166 . S
C386 O392 1.182 . S
C387 O393 1.167 1_556 S
C387 O394 1.312 . S
O388 Zn385 2.080 1_556 S
O388 C402 1.305 . S
O389 Zn383 1.920 . S
O389 C402 1.234 . S
C390 O395 1.167 1_554 S
C390 O396 1.299 . S
O391 Zn385 2.114 . S
O391 C386 1.166 . S
O392 Zn384 1.905 1_455 S
O392 C386 1.182 . S
O393 Zn384 1.898 . S
O393 C387 1.167 1_554 S
O394 Zn385 2.094 1_656 S
O394 C387 1.312 . S
O395 Zn383 1.898 . S
O395 C390 1.167 1_556 S
O396 Zn385 2.120 . S
O396 C390 1.299 . S
O397 Zn385 2.114 1_556 S
O397 C399 1.166 . S
O398 Zn383 1.905 . S
O398 C399 1.182 . S
C399 O397 1.166 . S
C399 O398 1.182 . S
O400 Zn385 2.080 . S
O400 C403 1.305 . S
O401 Zn384 1.920 . S
O401 C403 1.234 1_655 S
C402 O388 1.305 . S
C402 O389 1.234 . S
C403 O400 1.305 . S
C403 O401 1.234 1_455 S
H404 C412 0.929 . S
H405 C414 0.930 . S
H406 C416 0.930 . S
H407 C419 0.929 . S
H408 C422 0.930 . S
H409 C424 0.960 . S
H410 C424 0.960 . S
H411 C424 0.960 . S
C412 H404 0.929 . S
C412 C413 1.377 . S
C412 C414 1.384 . S
C413 C412 1.377 . S
C413 C419 1.390 . S
C414 H405 0.930 . S
C414 C412 1.384 . S
C414 C415 1.372 . S
C415 C414 1.372 . S
C415 C416 1.400 . S
C415 C420 1.490 . S
C416 H406 0.930 . S
C416 C415 1.400 . S
C416 C419 1.386 . S
H417 C433 0.930 . S
H418 C434 0.931 . S
C419 H407 0.929 . S
C419 C413 1.390 . S
C419 C416 1.386 . S
C420 C415 1.490 . S
C420 C422 1.395 . S
C420 C423 1.403 . S
H421 C427 0.930 . S
C422 H408 0.930 . S
C422 C420 1.395 . S
C422 C425 1.403 . S
C423 C420 1.403 . S
C423 C424 1.524 . S
C423 C427 1.400 . S
C424 H409 0.960 . S
C424 H410 0.960 . S
C424 H411 0.960 . S
C424 C423 1.524 . S
C425 C422 1.403 . S
C425 C426 1.392 . S
C425 C429 1.495 . S
C426 C425 1.392 . S
C426 C427 1.385 . S
C426 C428 1.478 . S
C427 H421 0.930 . S
C427 C423 1.400 . S
C427 C426 1.385 . S
C428 C426 1.478 . S
C428 C430 1.381 . S
C428 C434 1.383 . S
C429 C425 1.495 . S
C429 H435 0.959 . S
C429 H436 0.961 . S
C429 H437 0.960 . S
C430 C428 1.381 . S
C430 C431 1.394 . S
C430 H438 0.930 . S
C431 C430 1.394 . S
C431 C432 1.383 . S
C431 H439 0.929 . S
C432 C431 1.383 . S
C432 C433 1.377 . S
C433 H417 0.930 . S
C433 C432 1.377 . S
C433 C434 1.379 . S
C434 H418 0.931 . S
C434 C428 1.383 . S
C434 C433 1.379 . S
H435 C429 0.959 . S
H436 C429 0.961 . S
H437 C429 0.960 . S
H438 C430 0.930 . S
H439 C431 0.929 . S
H440 C448 0.929 . S
H441 C450 0.930 . S
H442 C452 0.930 . S
H443 C455 0.929 . S
H444 C458 0.930 . S
H445 C460 0.960 . S
H446 C460 0.960 . S
H447 C460 0.960 . S
C448 H440 0.929 . S
C448 C449 1.377 . S
C448 C450 1.384 . S
C449 C448 1.377 . S
C449 C455 1.390 . S
C450 H441 0.930 . S
C450 C448 1.384 . S
C450 C451 1.372 . S
C451 C450 1.372 . S
C451 C452 1.400 . S
C451 C456 1.490 . S
C452 H442 0.930 . S
C452 C451 1.400 . S
C452 C455 1.386 . S
H453 C469 0.930 1_545 S
H454 C470 0.931 . S
C455 H443 0.929 . S
C455 C449 1.390 . S
C455 C452 1.386 . S
C456 C451 1.490 . S
C456 C458 1.395 . S
C456 C459 1.403 . S
H457 C463 0.930 . S
C458 H444 0.930 . S
C458 C456 1.395 . S
C458 C461 1.403 . S
C459 C456 1.403 . S
C459 C460 1.524 . S
C459 C463 1.400 . S
C460 H445 0.960 . S
C460 H446 0.960 . S
C460 H447 0.960 . S
C460 C459 1.524 . S
C461 C458 1.403 . S
C461 C462 1.392 . S
C461 C465 1.495 . S
C462 C461 1.392 . S
C462 C463 1.385 . S
C462 C464 1.478 . S
C463 H457 0.930 . S
C463 C459 1.400 . S
C463 C462 1.385 . S
C464 C462 1.478 . S
C464 C466 1.381 . S
C464 C470 1.383 . S
C465 C461 1.495 . S
C465 H471 0.959 . S
C465 H472 0.961 . S
C465 H473 0.960 . S
C466 C464 1.381 . S
C466 C467 1.394 . S
C466 H474 0.930 . S
C467 C466 1.394 . S
C467 C468 1.383 . S
C467 H475 0.929 . S
C468 C467 1.383 . S
C468 C469 1.377 . S
C469 H453 0.930 1_565 S
C469 C468 1.377 . S
C469 C470 1.379 . S
C470 H454 0.931 . S
C470 C464 1.383 . S
C470 C469 1.379 . S
H471 C465 0.959 . S
H472 C465 0.961 . S
H473 C465 0.960 . S
H474 C466 0.930 . S
H475 C467 0.929 . S
H476 C484 0.929 . S
H477 C486 0.930 . S
H478 C488 0.930 . S
H479 C491 0.929 . S
H480 C494 0.930 . S
H481 C496 0.960 . S
H482 C496 0.960 . S
H483 C496 0.960 . S
C484 H476 0.929 . S
C484 C485 1.377 . S
C484 C486 1.384 . S
C485 C484 1.377 . S
C485 C491 1.390 . S
C486 H477 0.930 . S
C486 C484 1.384 . S
C486 C487 1.372 . S
C487 C486 1.372 . S
C487 C488 1.400 . S
C487 C492 1.490 . S
C488 H478 0.930 . S
C488 C487 1.400 . S
C488 C491 1.386 . S
H489 C505 0.930 . S
H490 C506 0.931 . S
C491 H479 0.929 . S
C491 C485 1.390 . S
C491 C488 1.386 . S
C492 C487 1.490 . S
C492 C494 1.395 . S
C492 C495 1.403 . S
H493 C499 0.930 . S
C494 H480 0.930 . S
C494 C492 1.395 . S
C494 C497 1.403 . S
C495 C492 1.403 . S
C495 C496 1.524 . S
C495 C499 1.400 . S
C496 H481 0.960 . S
C496 H482 0.960 . S
C496 H483 0.960 . S
C496 C495 1.524 . S
C497 C494 1.403 . S
C497 C498 1.392 . S
C497 C501 1.495 . S
C498 C497 1.392 . S
C498 C499 1.385 . S
C498 C500 1.478 . S
C499 H493 0.930 . S
C499 C495 1.400 . S
C499 C498 1.385 . S
C500 C498 1.478 . S
C500 C502 1.381 . S
C500 C506 1.383 . S
C501 C497 1.495 . S
C501 H507 0.959 . S
C501 H508 0.961 . S
C501 H509 0.960 . S
C502 C500 1.381 . S
C502 C503 1.394 . S
C502 H510 0.930 . S
C503 C502 1.394 . S
C503 C504 1.383 . S
C503 H511 0.929 . S
C504 C503 1.383 . S
C504 C505 1.377 . S
C505 H489 0.930 . S
C505 C504 1.377 . S
C505 C506 1.379 . S
C506 H490 0.931 . S
C506 C500 1.383 . S
C506 C505 1.379 . S
H507 C501 0.959 . S
H508 C501 0.961 . S
H509 C501 0.960 . S
H510 C502 0.930 . S
H511 C503 0.929 . S
H512 C520 0.929 . S
H513 C522 0.930 . S
H514 C524 0.930 . S
H515 C527 0.929 . S
H516 C530 0.930 . S
H517 C532 0.960 . S
H518 C532 0.960 . S
H519 C532 0.960 . S
C520 H512 0.929 . S
C520 C521 1.377 . S
C520 C522 1.384 . S
C521 C520 1.377 . S
C521 C527 1.390 . S
C522 H513 0.930 . S
C522 C520 1.384 . S
C522 C523 1.372 . S
C523 C522 1.372 . S
C523 C524 1.400 . S
C523 C528 1.490 . S
C524 H514 0.930 . S
C524 C523 1.400 . S
C524 C527 1.386 . S
H525 C541 0.930 . S
H526 C542 0.931 . S
C527 H515 0.929 . S
C527 C521 1.390 . S
C527 C524 1.386 . S
C528 C523 1.490 . S
C528 C530 1.395 . S
C528 C531 1.403 . S
H529 C535 0.930 . S
C530 H516 0.930 . S
C530 C528 1.395 . S
C530 C533 1.403 . S
C531 C528 1.403 . S
C531 C532 1.524 . S
C531 C535 1.400 . S
C532 H517 0.960 . S
C532 H518 0.960 . S
C532 H519 0.960 . S
C532 C531 1.524 . S
C533 C530 1.403 . S
C533 C534 1.392 . S
C533 C537 1.495 1_655 S
C534 C533 1.392 . S
C534 C535 1.385 . S
C534 C536 1.478 . S
C535 H529 0.930 . S
C535 C531 1.400 . S
C535 C534 1.385 . S
C536 C534 1.478 . S
C536 C538 1.403 . S
C536 C542 1.383 . S
C537 C533 1.495 1_455 S
C537 H543 0.959 . S
C537 H544 0.961 . S
C537 H545 0.960 . S
C538 C536 1.403 . S
C538 C539 1.384 1_655 S
C538 H546 0.919 1_655 S
C539 C538 1.384 1_455 S
C539 C540 1.383 1_455 S
C539 H547 0.929 . S
C540 C539 1.383 1_655 S
C540 C541 1.377 . S
C541 H525 0.930 . S
C541 C540 1.377 . S
C541 C542 1.379 . S
C542 H526 0.931 . S
C542 C536 1.383 . S
C542 C541 1.379 . S
H543 C537 0.959 . S
H544 C537 0.961 . S
H545 C537 0.960 . S
H546 C538 0.919 1_455 S
H547 C539 0.929 . S
H548 C556 0.929 . S
H549 C558 0.930 . S
H550 C560 0.930 . S
H551 C563 0.929 . S
H552 C566 0.930 . S
H553 C568 0.960 . S
H554 C568 0.960 . S
H555 C568 0.960 . S
C556 H548 0.929 . S
C556 C557 1.377 . S
C556 C558 1.384 . S
C557 C556 1.377 . S
C557 C563 1.390 . S
C558 H549 0.930 . S
C558 C556 1.384 . S
C558 C559 1.372 . S
C559 C558 1.372 . S
C559 C560 1.400 . S
C559 C564 1.490 . S
C560 H550 0.930 . S
C560 C559 1.400 . S
C560 C563 1.386 . S
H561 C577 0.930 . S
H562 C578 0.931 . S
C563 H551 0.929 . S
C563 C557 1.390 . S
C563 C560 1.386 . S
C564 C559 1.490 . S
C564 C566 1.395 . S
C564 C567 1.403 . S
H565 C571 0.930 . S
C566 H552 0.930 . S
C566 C564 1.395 . S
C566 C569 1.403 . S
C567 C564 1.403 . S
C567 C568 1.524 . S
C567 C571 1.400 . S
C568 H553 0.960 . S
C568 H554 0.960 . S
C568 H555 0.960 . S
C568 C567 1.524 . S
C569 C566 1.403 . S
C569 C570 1.392 . S
C569 C573 1.495 . S
C570 C569 1.392 . S
C570 C571 1.385 . S
C570 C572 1.478 . S
C571 H565 0.930 . S
C571 C567 1.400 . S
C571 C570 1.385 . S
C572 C570 1.478 . S
C572 C574 1.381 . S
C572 C578 1.383 . S
C573 C569 1.495 . S
C573 H579 0.959 . S
C573 H580 0.961 . S
C573 H581 0.960 . S
C574 C572 1.381 . S
C574 C575 1.394 . S
C574 H582 0.930 . S
C575 C574 1.394 . S
C575 C576 1.383 . S
C575 H583 0.929 . S
C576 C575 1.383 . S
C576 C577 1.377 . S
C577 H561 0.930 . S
C577 C576 1.377 . S
C577 C578 1.379 . S
C578 H562 0.931 . S
C578 C572 1.383 . S
C578 C577 1.379 . S
H579 C573 0.959 . S
H580 C573 0.961 . S
H581 C573 0.960 . S
H582 C574 0.930 . S
H583 C575 0.929 . S
H584 C592 0.929 . S
H585 C594 0.930 . S
H586 C596 0.930 . S
H587 C599 0.929 . S
H588 C602 0.930 . S
H589 C604 0.960 . S
H590 C604 0.960 . S
H591 C604 0.960 . S
C592 H584 0.929 . S
C592 C593 1.377 . S
C592 C594 1.384 . S
C593 C592 1.377 . S
C593 C599 1.390 . S
C594 H585 0.930 . S
C594 C592 1.384 . S
C594 C595 1.372 . S
C595 C594 1.372 . S
C595 C596 1.400 . S
C595 C600 1.490 . S
C596 H586 0.930 . S
C596 C595 1.400 . S
C596 C599 1.386 . S
H597 C613 0.930 . S
H598 C614 0.931 . S
C599 H587 0.929 . S
C599 C593 1.390 . S
C599 C596 1.386 . S
C600 C595 1.490 . S
C600 C602 1.395 . S
C600 C603 1.403 . S
H601 C607 0.930 . S
C602 H588 0.930 . S
C602 C600 1.395 . S
C602 C605 1.403 . S
C603 C600 1.403 . S
C603 C604 1.524 . S
C603 C607 1.400 . S
C604 H589 0.960 . S
C604 H590 0.960 . S
C604 H591 0.960 . S
C604 C603 1.524 . S
C605 C602 1.403 . S
C605 C606 1.392 . S
C605 C609 1.495 . S
C606 C605 1.392 . S
C606 C607 1.385 . S
C606 C608 1.478 . S
C607 H601 0.930 . S
C607 C603 1.400 . S
C607 C606 1.385 . S
C608 C606 1.478 . S
C608 C610 1.381 . S
C608 C614 1.383 . S
C609 C605 1.495 . S
C609 H615 0.959 . S
C609 H616 0.961 . S
C609 H617 0.960 . S
C610 C608 1.381 . S
C610 C611 1.394 1_565 S
C610 H618 0.930 1_565 S
C611 C610 1.394 1_545 S
C611 C612 1.383 1_545 S
C611 H619 0.929 . S
C612 C611 1.383 1_565 S
C612 C613 1.377 . S
C613 H597 0.930 . S
C613 C612 1.377 . S
C613 C614 1.379 . S
C614 H598 0.931 . S
C614 C608 1.383 . S
C614 C613 1.379 . S
H615 C609 0.959 . S
H616 C609 0.961 . S
H617 C609 0.960 . S
H618 C610 0.930 1_545 S
H619 C611 0.929 . S
H620 C628 0.929 . S
H621 C630 0.930 . S
H622 C632 0.930 . S
H623 C635 0.929 . S
H624 C638 0.930 . S
H625 C640 0.960 . S
H626 C640 0.960 . S
H627 C640 0.960 . S
C628 H620 0.929 . S
C628 C629 1.377 . S
C628 C630 1.384 . S
C629 C628 1.377 . S
C629 C635 1.390 . S
C630 H621 0.930 . S
C630 C628 1.384 . S
C630 C631 1.372 . S
C631 C630 1.372 . S
C631 C632 1.400 . S
C631 C636 1.490 . S
C632 H622 0.930 . S
C632 C631 1.400 . S
C632 C635 1.386 . S
H633 C649 0.930 . S
H634 C650 0.931 . S
C635 H623 0.929 . S
C635 C629 1.390 . S
C635 C632 1.386 . S
C636 C631 1.490 . S
C636 C638 1.395 . S
C636 C639 1.403 . S
H637 C643 0.930 . S
C638 H624 0.930 . S
C638 C636 1.395 . S
C638 C641 1.403 . S
C639 C636 1.403 . S
C639 C640 1.524 . S
C639 C643 1.400 . S
C640 H625 0.960 . S
C640 H626 0.960 . S
C640 H627 0.960 . S
C640 C639 1.524 . S
C641 C638 1.403 . S
C641 C642 1.392 . S
C641 C645 1.495 . S
C642 C641 1.392 . S
C642 C643 1.385 . S
C642 C644 1.478 . S
C643 H637 0.930 . S
C643 C639 1.400 . S
C643 C642 1.385 . S
C644 C642 1.478 . S
C644 C646 1.381 . S
C644 C650 1.383 . S
C645 C641 1.495 . S
C645 H651 0.959 . S
C645 H652 0.961 . S
C645 H653 0.960 . S
C646 C644 1.381 . S
C646 C647 1.394 . S
C646 H654 0.930 . S
C647 C646 1.394 . S
C647 C648 1.383 . S
C647 H655 0.929 . S
C648 C647 1.383 . S
C648 C649 1.377 . S
C649 H633 0.930 . S
C649 C648 1.377 . S
C649 C650 1.379 . S
C650 H634 0.931 . S
C650 C644 1.383 . S
C650 C649 1.379 . S
H651 C645 0.959 . S
H652 C645 0.961 . S
H653 C645 0.960 . S
H654 C646 0.930 . S
H655 C647 0.929 . S
H656 C664 0.929 . S
H657 C666 0.930 . S
H658 C668 0.930 . S
H659 C671 0.929 . S
H660 C674 0.930 . S
H661 C676 0.960 . S
H662 C676 0.960 . S
H663 C676 0.960 . S
C664 H656 0.929 . S
C664 C665 1.377 . S
C664 C666 1.384 . S
C665 C664 1.377 . S
C665 C671 1.390 . S
C666 H657 0.930 . S
C666 C664 1.384 . S
C666 C667 1.372 . S
C667 C666 1.372 . S
C667 C668 1.400 . S
C667 C672 1.490 . S
C668 H658 0.930 . S
C668 C667 1.400 . S
C668 C671 1.386 . S
H669 C685 0.930 . S
H670 C686 0.931 . S
C671 H659 0.929 . S
C671 C665 1.390 . S
C671 C668 1.386 . S
C672 C667 1.490 . S
C672 C674 1.395 . S
C672 C675 1.403 . S
H673 C679 0.930 . S
C674 H660 0.930 . S
C674 C672 1.395 . S
C674 C677 1.403 . S
C675 C672 1.403 . S
C675 C676 1.524 . S
C675 C679 1.400 . S
C676 H661 0.960 . S
C676 H662 0.960 . S
C676 H663 0.960 . S
C676 C675 1.524 . S
C677 C674 1.403 . S
C677 C678 1.392 . S
C677 C681 1.495 . S
C678 C677 1.392 . S
C678 C679 1.385 . S
C678 C680 1.478 . S
C679 H673 0.930 . S
C679 C675 1.400 . S
C679 C678 1.385 . S
C680 C678 1.478 . S
C680 C682 1.381 . S
C680 C686 1.383 . S
C681 C677 1.495 . S
C681 H687 0.959 . S
C681 H688 0.961 . S
C681 H689 0.960 . S
C682 C680 1.381 . S
C682 C683 1.394 . S
C682 H690 0.930 . S
C683 C682 1.394 . S
C683 C684 1.383 . S
C683 H691 0.929 . S
C684 C683 1.383 . S
C684 C685 1.377 . S
C685 H669 0.930 . S
C685 C684 1.377 . S
C685 C686 1.379 . S
C686 H670 0.931 . S
C686 C680 1.383 . S
C686 C685 1.379 . S
H687 C681 0.959 . S
H688 C681 0.961 . S
H689 C681 0.960 . S
H690 C682 0.930 . S
H691 C683 0.929 . S
H692 C700 0.929 . S
H693 C702 0.930 . S
H694 C704 0.930 . S
H695 C707 0.929 . S
H696 C710 0.930 . S
H697 C712 0.960 . S
H698 C712 0.960 . S
H699 C712 0.960 . S
C700 H692 0.929 . S
C700 C701 1.377 . S
C700 C702 1.384 . S
C701 C700 1.377 . S
C701 C707 1.390 . S
C702 H693 0.930 . S
C702 C700 1.384 . S
C702 C703 1.372 . S
C703 C702 1.372 . S
C703 C704 1.400 . S
C703 C708 1.490 . S
C704 H694 0.930 . S
C704 C703 1.400 . S
C704 C707 1.386 . S
H705 C721 0.930 . S
H706 C722 0.931 . S
C707 H695 0.929 . S
C707 C701 1.390 . S
C707 C704 1.386 . S
C708 C703 1.490 . S
C708 C710 1.395 . S
C708 C711 1.403 . S
H709 C715 0.930 . S
C710 H696 0.930 . S
C710 C708 1.395 . S
C710 C713 1.403 . S
C711 C708 1.403 . S
C711 C712 1.524 . S
C711 C715 1.400 . S
C712 H697 0.960 . S
C712 H698 0.960 . S
C712 H699 0.960 . S
C712 C711 1.524 . S
C713 C710 1.403 . S
C713 C714 1.392 . S
C713 C717 1.495 . S
C714 C713 1.392 . S
C714 C715 1.385 . S
C714 C716 1.478 . S
C715 H709 0.930 . S
C715 C711 1.400 . S
C715 C714 1.385 . S
C716 C714 1.478 . S
C716 C718 1.381 . S
C716 C722 1.383 . S
C717 C713 1.495 . S
C717 H723 0.959 . S
C717 H724 0.961 . S
C717 H725 0.960 . S
C718 C716 1.381 . S
C718 C719 1.394 . S
C718 H726 0.930 . S
C719 C718 1.394 . S
C719 C720 1.383 . S
C719 H727 0.929 . S
C720 C719 1.383 . S
C720 C721 1.377 . S
C721 H705 0.930 . S
C721 C720 1.377 . S
C721 C722 1.379 . S
C722 H706 0.931 . S
C722 C716 1.383 . S
C722 C721 1.379 . S
H723 C717 0.959 . S
H724 C717 0.961 . S
H725 C717 0.960 . S
H726 C718 0.930 . S
H727 C719 0.929 . S
H728 C736 0.929 . S
H729 C738 0.930 . S
H730 C740 0.930 . S
H731 C743 0.929 . S
H732 C746 0.930 . S
H733 C748 0.960 . S
H734 C748 0.960 . S
H735 C748 0.960 . S
C736 H728 0.929 . S
C736 C737 1.377 . S
C736 C738 1.384 . S
C737 C736 1.377 . S
C737 C743 1.390 . S
C738 H729 0.930 . S
C738 C736 1.384 . S
C738 C739 1.372 . S
C739 C738 1.372 . S
C739 C740 1.400 . S
C739 C744 1.490 . S
C740 H730 0.930 . S
C740 C739 1.400 . S
C740 C743 1.386 . S
H741 C757 0.930 . S
H742 C758 0.931 . S
C743 H731 0.929 . S
C743 C737 1.390 . S
C743 C740 1.386 . S
C744 C739 1.490 . S
C744 C746 1.395 . S
C744 C747 1.403 . S
H745 C751 0.930 . S
C746 H732 0.930 . S
C746 C744 1.395 . S
C746 C749 1.403 . S
C747 C744 1.403 . S
C747 C748 1.524 . S
C747 C751 1.400 . S
C748 H733 0.960 . S
C748 H734 0.960 . S
C748 H735 0.960 . S
C748 C747 1.524 . S
C749 C746 1.403 . S
C749 C750 1.392 . S
C749 C753 1.495 1_556 S
C750 C749 1.392 . S
C750 C751 1.385 . S
C750 C752 1.478 . S
C751 H745 0.930 . S
C751 C747 1.400 . S
C751 C750 1.385 . S
C752 C750 1.478 . S
C752 C754 1.381 . S
C752 C758 1.383 . S
C753 C749 1.495 1_554 S
C753 H759 0.959 . S
C753 H760 0.961 . S
C753 H761 0.960 . S
C754 C752 1.381 . S
C754 C755 1.391 1_556 S
C754 H762 0.930 . S
C755 C754 1.391 1_554 S
C755 C756 1.381 1_554 S
C755 H763 0.934 . S
C756 C755 1.381 1_556 S
C756 C757 1.377 . S
C757 H741 0.930 . S
C757 C756 1.377 . S
C757 C758 1.379 . S
C758 H742 0.931 . S
C758 C752 1.383 . S
C758 C757 1.379 . S
H759 C753 0.959 . S
H760 C753 0.961 . S
H761 C753 0.960 . S
H762 C754 0.930 . S
H763 C755 0.934 . S
H764 C772 0.929 . S
H765 C774 0.930 . S
H766 C776 0.930 . S
H767 C779 0.929 . S
H768 C782 0.930 . S
H769 C784 0.960 . S
H770 C784 0.960 . S
H771 C784 0.960 . S
C772 H764 0.929 . S
C772 C773 1.377 . S
C772 C774 1.384 . S
C773 C772 1.377 . S
C773 C779 1.390 . S
C774 H765 0.930 . S
C774 C772 1.384 . S
C774 C775 1.372 . S
C775 C774 1.372 . S
C775 C776 1.400 . S
C775 C780 1.490 . S
C776 H766 0.930 . S
C776 C775 1.400 . S
C776 C779 1.386 . S
H777 C793 0.930 . S
H778 C794 0.931 . S
C779 H767 0.929 . S
C779 C773 1.390 . S
C779 C776 1.386 . S
C780 C775 1.490 . S
C780 C782 1.395 . S
C780 C783 1.403 . S
H781 C787 0.930 . S
C782 H768 0.930 . S
C782 C780 1.395 . S
C782 C785 1.403 . S
C783 C780 1.403 . S
C783 C784 1.524 . S
C783 C787 1.400 . S
C784 H769 0.960 . S
C784 H770 0.960 . S
C784 H771 0.960 . S
C784 C783 1.524 . S
C785 C782 1.403 . S
C785 C786 1.392 . S
C785 C789 1.495 . S
C786 C785 1.392 . S
C786 C787 1.385 . S
C786 C788 1.478 . S
C787 H781 0.930 . S
C787 C783 1.400 . S
C787 C786 1.385 . S
C788 C786 1.478 . S
C788 C790 1.381 . S
C788 C794 1.383 . S
C789 C785 1.495 . S
C789 H795 0.959 . S
C789 H796 0.961 . S
C789 H797 0.960 . S
C790 C788 1.381 . S
C790 C791 1.394 . S
C790 H798 0.930 . S
C791 C790 1.394 . S
C791 C792 1.383 . S
C791 H799 0.929 1_655 S
C792 C791 1.383 . S
C792 C793 1.377 . S
C793 H777 0.930 . S
C793 C792 1.377 . S
C793 C794 1.379 . S
C794 H778 0.931 . S
C794 C788 1.383 . S
C794 C793 1.379 . S
H795 C789 0.959 . S
H796 C789 0.961 . S
H797 C789 0.960 . S
H798 C790 0.930 . S
H799 C791 0.929 1_455 S
H800 C808 0.929 . S
H801 C810 0.930 . S
H802 C812 0.930 . S
H803 C815 0.929 . S
H804 C818 0.930 . S
H805 C820 0.960 . S
H806 C820 0.960 . S
H807 C820 0.960 . S
C808 H800 0.929 . S
C808 C809 1.377 . S
C808 C810 1.384 . S
C809 C808 1.377 . S
C809 C815 1.390 . S
C810 H801 0.930 . S
C810 C808 1.384 . S
C810 C811 1.372 . S
C811 C810 1.372 . S
C811 C812 1.400 . S
C811 C816 1.490 . S
C812 H802 0.930 . S
C812 C811 1.400 . S
C812 C815 1.386 . S
H813 C829 0.930 . S
H814 C830 0.931 . S
C815 H803 0.929 . S
C815 C809 1.390 . S
C815 C812 1.386 . S
C816 C811 1.490 . S
C816 C818 1.395 . S
C816 C819 1.403 . S
H817 C823 0.930 . S
C818 H804 0.930 . S
C818 C816 1.395 . S
C818 C821 1.403 . S
C819 C816 1.403 . S
C819 C820 1.524 . S
C819 C823 1.400 . S
C820 H805 0.960 . S
C820 H806 0.960 . S
C820 H807 0.960 . S
C820 C819 1.524 . S
C821 C818 1.403 . S
C821 C822 1.392 . S
C821 C825 1.495 . S
C822 C821 1.392 . S
C822 C823 1.385 . S
C822 C824 1.478 . S
C823 H817 0.930 . S
C823 C819 1.400 . S
C823 C822 1.385 . S
C824 C822 1.478 . S
C824 C826 1.381 . S
C824 C830 1.383 . S
C825 C821 1.495 . S
C825 H831 0.959 . S
C825 H832 0.961 . S
C825 H833 0.960 . S
C826 C824 1.381 . S
C826 C827 1.394 . S
C826 H834 0.930 . S
C827 C826 1.394 . S
C827 C828 1.383 . S
C827 H835 0.929 . S
C828 C827 1.383 . S
C828 C829 1.377 . S
C829 H813 0.930 . S
C829 C828 1.377 . S
C829 C830 1.379 . S
C830 H814 0.931 . S
C830 C824 1.383 . S
C830 C829 1.379 . S
H831 C825 0.959 . S
H832 C825 0.961 . S
H833 C825 0.960 . S
H834 C826 0.930 . S
H835 C827 0.929 . S
H836 C844 0.929 . S
H837 C846 0.930 . S
H838 C848 0.930 . S
H839 C851 0.929 . S
H840 C854 0.930 . S
H841 C856 0.960 . S
H842 C856 0.960 . S
H843 C856 0.960 . S
C844 H836 0.929 . S
C844 C845 1.377 . S
C844 C846 1.384 . S
C845 C844 1.377 . S
C845 C851 1.390 1_565 S
C846 H837 0.930 . S
C846 C844 1.384 . S
C846 C847 1.372 . S
C847 C846 1.372 . S
C847 C848 1.400 1_565 S
C847 C852 1.490 . S
C848 H838 0.930 . S
C848 C847 1.400 1_545 S
C848 C851 1.386 . S
H849 C865 0.930 . S
H850 C866 0.931 . S
C851 H839 0.929 . S
C851 C845 1.390 1_545 S
C851 C848 1.386 . S
C852 C847 1.490 . S
C852 C854 1.395 . S
C852 C855 1.403 1_665 S
H853 C859 0.930 . S
C854 H840 0.930 . S
C854 C852 1.395 . S
C854 C857 1.403 . S
C855 C852 1.403 1_445 S
C855 C856 1.524 . S
C855 C859 1.400 . S
C856 H841 0.960 . S
C856 H842 0.960 . S
C856 H843 0.960 . S
C856 C855 1.524 . S
C857 C854 1.403 . S
C857 C858 1.392 1_565 S
C857 C861 1.495 . S
C858 C857 1.392 1_545 S
C858 C859 1.385 1_655 S
C858 C860 1.478 . S
C859 H853 0.930 . S
C859 C855 1.400 . S
C859 C858 1.385 1_455 S
C860 C858 1.478 . S
C860 C862 1.381 1_545 S
C860 C866 1.383 . S
C861 C857 1.495 . S
C861 H867 0.959 . S
C861 H868 0.961 . S
C861 H869 0.960 . S
C862 C860 1.381 1_565 S
C862 C863 1.394 . S
C862 H870 0.930 . S
C863 C862 1.394 . S
C863 C864 1.383 1_565 S
C863 H871 0.929 1_655 S
C864 C863 1.383 1_545 S
C864 C865 1.377 . S
C865 H849 0.930 . S
C865 C864 1.377 . S
C865 C866 1.379 . S
C866 H850 0.931 . S
C866 C860 1.383 . S
C866 C865 1.379 . S
H867 C861 0.959 . S
H868 C861 0.961 . S
H869 C861 0.960 . S
H870 C862 0.930 . S
H871 C863 0.929 1_455 S
H872 C880 0.929 . S
H873 C882 0.930 . S
H874 C884 0.930 . S
H875 C887 0.929 . S
H876 C890 0.930 . S
H877 C892 0.960 . S
H878 C892 0.960 . S
H879 C892 0.960 1_545 S
C880 H872 0.929 . S
C880 C881 1.377 . S
C880 C882 1.384 . S
C881 C880 1.377 . S
C881 C887 1.390 . S
C882 H873 0.930 . S
C882 C880 1.384 . S
C882 C883 1.372 . S
C883 C882 1.372 . S
C883 C884 1.400 . S
C883 C888 1.490 . S
C884 H874 0.930 . S
C884 C883 1.400 . S
C884 C887 1.386 . S
H885 C901 0.930 . S
H886 C902 0.931 . S
C887 H875 0.929 . S
C887 C881 1.390 . S
C887 C884 1.386 . S
C888 C883 1.490 . S
C888 C890 1.395 . S
C888 C891 1.403 . S
H889 C895 0.930 . S
C890 H876 0.930 . S
C890 C888 1.395 . S
C890 C893 1.403 . S
C891 C888 1.403 . S
C891 C892 1.524 1_545 S
C891 C895 1.400 . S
C892 H877 0.960 . S
C892 H878 0.960 . S
C892 H879 0.960 1_565 S
C892 C891 1.524 1_565 S
C893 C890 1.403 . S
C893 C894 1.392 . S
C893 C897 1.495 . S
C894 C893 1.392 . S
C894 C895 1.385 . S
C894 C896 1.478 . S
C895 H889 0.930 . S
C895 C891 1.400 . S
C895 C894 1.385 . S
C896 C894 1.478 . S
C896 C898 1.381 . S
C896 C902 1.383 . S
C897 C893 1.495 . S
C897 H903 0.959 . S
C897 H904 0.961 . S
C897 H905 0.960 . S
C898 C896 1.381 . S
C898 C899 1.394 . S
C898 H906 0.930 . S
C899 C898 1.394 . S
C899 C900 1.383 . S
C899 H907 0.929 . S
C900 C899 1.383 . S
C900 C901 1.377 . S
C901 H885 0.930 . S
C901 C900 1.377 . S
C901 C902 1.379 . S
C902 H886 0.931 . S
C902 C896 1.383 . S
C902 C901 1.379 . S
H903 C897 0.959 . S
H904 C897 0.961 . S
H905 C897 0.960 . S
H906 C898 0.930 . S
H907 C899 0.929 . S
H908 C916 0.929 . S
H909 C918 0.930 . S
H910 C920 0.930 . S
H911 C923 0.929 . S
H912 C926 0.930 . S
H913 C928 0.960 . S
H914 C928 0.960 . S
H915 C928 0.960 . S
C916 H908 0.929 . S
C916 C917 1.377 . S
C916 C918 1.384 . S
C917 C916 1.377 . S
C917 C923 1.390 . S
C918 H909 0.930 . S
C918 C916 1.384 . S
C918 C919 1.372 . S
C919 C918 1.372 . S
C919 C920 1.400 . S
C919 C924 1.490 . S
C920 H910 0.930 . S
C920 C919 1.400 . S
C920 C923 1.386 . S
H921 C937 0.930 . S
H922 C938 0.931 . S
C923 H911 0.929 . S
C923 C917 1.390 . S
C923 C920 1.386 . S
C924 C919 1.490 . S
C924 C926 1.395 . S
C924 C927 1.403 . S
H925 C931 0.930 . S
C926 H912 0.930 . S
C926 C924 1.395 . S
C926 C929 1.403 . S
C927 C924 1.403 . S
C927 C928 1.524 . S
C927 C931 1.400 . S
C928 H913 0.960 . S
C928 H914 0.960 . S
C928 H915 0.960 . S
C928 C927 1.524 . S
C929 C926 1.403 . S
C929 C930 1.392 . S
C929 C933 1.495 . S
C930 C929 1.392 . S
C930 C931 1.385 . S
C930 C932 1.478 . S
C931 H925 0.930 . S
C931 C927 1.400 . S
C931 C930 1.385 . S
C932 C930 1.478 . S
C932 C934 1.381 . S
C932 C938 1.383 . S
C933 C929 1.495 . S
C933 H939 0.959 . S
C933 H940 0.961 . S
C933 H941 0.960 . S
C934 C932 1.381 . S
C934 C935 1.394 . S
C934 H942 0.930 . S
C935 C934 1.394 . S
C935 C936 1.383 . S
C935 H943 0.929 . S
C936 C935 1.383 . S
C936 C937 1.377 . S
C937 H921 0.930 . S
C937 C936 1.377 . S
C937 C938 1.379 . S
C938 H922 0.931 . S
C938 C932 1.383 . S
C938 C937 1.379 . S
H939 C933 0.959 . S
H940 C933 0.961 . S
H941 C933 0.960 . S
H942 C934 0.930 . S
H943 C935 0.929 . S
H944 C952 0.929 . S
H945 C954 0.930 . S
H946 C956 0.930 . S
H947 C959 0.929 . S
H948 C962 0.930 . S
H949 C964 0.960 . S
H950 C964 0.960 . S
H951 C964 0.960 . S
C952 H944 0.929 . S
C952 C953 1.377 . S
C952 C954 1.384 . S
C953 C952 1.377 . S
C953 C959 1.390 . S
C954 H945 0.930 . S
C954 C952 1.384 . S
C954 C955 1.372 . S
C955 C954 1.372 . S
C955 C956 1.400 . S
C955 C960 1.490 . S
C956 H946 0.930 . S
C956 C955 1.400 . S
C956 C959 1.386 . S
H957 C973 0.930 . S
H958 C974 0.931 . S
C959 H947 0.929 . S
C959 C953 1.390 . S
C959 C956 1.386 . S
C960 C955 1.490 . S
C960 C962 1.395 . S
C960 C963 1.403 . S
H961 C967 0.930 . S
C962 H948 0.930 . S
C962 C960 1.395 . S
C962 C965 1.403 . S
C963 C960 1.403 . S
C963 C964 1.524 . S
C963 C967 1.400 . S
C964 H949 0.960 . S
C964 H950 0.960 . S
C964 H951 0.960 . S
C964 C963 1.524 . S
C965 C962 1.403 . S
C965 C966 1.392 . S
C965 C969 1.495 . S
C966 C965 1.392 . S
C966 C967 1.385 . S
C966 C968 1.478 . S
C967 H961 0.930 . S
C967 C963 1.400 . S
C967 C966 1.385 . S
C968 C966 1.478 . S
C968 C970 1.381 . S
C968 C974 1.383 . S
C969 C965 1.495 . S
C969 H975 0.959 . S
C969 H976 0.961 . S
C969 H977 0.960 . S
C970 C968 1.381 . S
C970 C971 1.394 . S
C970 H978 0.930 . S
C971 C970 1.394 . S
C971 C972 1.383 . S
C971 H979 0.929 . S
C972 C971 1.383 . S
C972 C973 1.377 . S
C973 H957 0.930 . S
C973 C972 1.377 . S
C973 C974 1.379 . S
C974 H958 0.931 . S
C974 C968 1.383 . S
C974 C973 1.379 . S
H975 C969 0.959 . S
H976 C969 0.961 . S
H977 C969 0.960 . S
H978 C970 0.930 . S
H979 C971 0.929 . S
H980 C988 0.916 1_545 S
H981 C990 0.930 1_545 S
H982 C992 0.930 . S
H983 C995 0.929 . S
H984 C998 0.930 . S
H985 C1000 0.960 . S
H986 C1000 0.960 . S
H987 C1000 0.977 . S
C988 H980 0.916 1_565 S
C988 C989 1.377 . S
C988 C990 1.384 . S
C989 C988 1.377 . S
C989 C995 1.390 1_556 S
C990 H981 0.930 1_565 S
C990 C988 1.384 . S
C990 C991 1.372 . S
C991 C990 1.372 . S
C991 C992 1.400 1_556 S
C991 C996 1.490 . S
C992 H982 0.930 . S
C992 C991 1.400 1_554 S
C992 C995 1.386 . S
H993 C1009 0.930 . S
H994 C1010 0.931 . S
C995 H983 0.929 . S
C995 C989 1.390 1_554 S
C995 C992 1.386 . S
C996 C991 1.490 . S
C996 C998 1.395 . S
C996 C999 1.403 1_556 S
H997 C1003 0.930 1_545 S
C998 H984 0.930 . S
C998 C996 1.395 . S
C998 C1001 1.403 . S
C999 C996 1.403 1_554 S
C999 C1000 1.524 1_565 S
C999 C1003 1.400 . S
C1000 H985 0.960 . S
C1000 H986 0.960 . S
C1000 H987 0.977 . S
C1000 C999 1.524 1_545 S
C1001 C998 1.403 . S
C1001 C1002 1.392 1_556 S
C1001 C1005 1.495 . S
C1002 C1001 1.392 1_554 S
C1002 C1003 1.385 . S
C1002 C1004 1.478 . S
C1003 H997 0.930 1_565 S
C1003 C999 1.400 . S
C1003 C1002 1.385 . S
C1004 C1002 1.478 . S
C1004 C1006 1.375 1_564 S
C1004 C1010 1.383 . S
C1005 C1001 1.495 . S
C1005 H1011 0.959 . S
C1005 H1012 0.961 . S
C1005 H1013 0.960 . S
C1006 C1004 1.375 1_546 S
C1006 C1007 1.395 . S
C1006 H1014 0.935 . S
C1007 C1006 1.395 . S
C1007 C1008 1.383 1_546 S
C1007 H1015 0.929 . S
C1008 C1007 1.383 1_564 S
C1008 C1009 1.377 . S
C1009 H993 0.930 . S
C1009 C1008 1.377 . S
C1009 C1010 1.379 . S
C1010 H994 0.931 . S
C1010 C1004 1.383 . S
C1010 C1009 1.379 . S
H1011 C1005 0.959 . S
H1012 C1005 0.961 . S
H1013 C1005 0.960 . S
H1014 C1006 0.935 . S
H1015 C1007 0.929 . S
H1016 C1024 0.929 . S
H1017 C1026 0.930 . S
H1018 C1028 0.930 . S
H1019 C1031 0.929 . S
H1020 C1034 0.930 . S
H1021 C1036 0.960 . S
H1022 C1036 0.960 . S
H1023 C1036 0.960 . S
C1024 H1016 0.929 . S
C1024 C1025 1.377 . S
C1024 C1026 1.384 . S
C1025 C1024 1.377 . S
C1025 C1031 1.390 . S
C1026 H1017 0.930 . S
C1026 C1024 1.384 . S
C1026 C1027 1.372 . S
C1027 C1026 1.372 . S
C1027 C1028 1.400 . S
C1027 C1032 1.490 . S
C1028 H1018 0.930 . S
C1028 C1027 1.400 . S
C1028 C1031 1.386 . S
H1029 C1045 0.930 . S
H1030 C1046 0.931 . S
C1031 H1019 0.929 . S
C1031 C1025 1.390 . S
C1031 C1028 1.386 . S
C1032 C1027 1.490 . S
C1032 C1034 1.395 . S
C1032 C1035 1.403 . S
H1033 C1039 0.930 . S
C1034 H1020 0.930 . S
C1034 C1032 1.395 . S
C1034 C1037 1.403 . S
C1035 C1032 1.403 . S
C1035 C1036 1.524 . S
C1035 C1039 1.400 . S
C1036 H1021 0.960 . S
C1036 H1022 0.960 . S
C1036 H1023 0.960 . S
C1036 C1035 1.524 . S
C1037 C1034 1.403 . S
C1037 C1038 1.392 . S
C1037 C1041 1.495 . S
C1038 C1037 1.392 . S
C1038 C1039 1.385 . S
C1038 C1040 1.478 . S
C1039 H1033 0.930 . S
C1039 C1035 1.400 . S
C1039 C1038 1.385 . S
C1040 C1038 1.478 . S
C1040 C1042 1.381 . S
C1040 C1046 1.383 . S
C1041 C1037 1.495 . S
C1041 H1047 0.959 . S
C1041 H1048 0.961 . S
C1041 H1049 0.960 . S
C1042 C1040 1.381 . S
C1042 C1043 1.394 . S
C1042 H1050 0.930 . S
C1043 C1042 1.394 . S
C1043 C1044 1.383 . S
C1043 H1051 0.929 . S
C1044 C1043 1.383 . S
C1044 C1045 1.377 . S
C1045 H1029 0.930 . S
C1045 C1044 1.377 . S
C1045 C1046 1.379 . S
C1046 H1030 0.931 . S
C1046 C1040 1.383 . S
C1046 C1045 1.379 . S
H1047 C1041 0.959 . S
H1048 C1041 0.961 . S
H1049 C1041 0.960 . S
H1050 C1042 0.930 . S
H1051 C1043 0.929 . S
H1052 C1060 0.929 . S
H1053 C1062 0.930 1_556 S
H1054 C1064 0.930 . S
H1055 C1067 0.929 . S
H1056 C1070 0.930 . S
H1057 C1072 0.960 . S
H1058 C1072 0.960 . S
H1059 C1072 0.960 . S
C1060 H1052 0.929 . S
C1060 C1061 1.377 . S
C1060 C1062 1.384 . S
C1061 C1060 1.377 . S
C1061 C1067 1.390 . S
C1062 H1053 0.930 1_554 S
C1062 C1060 1.384 . S
C1062 C1063 1.372 . S
C1063 C1062 1.372 . S
C1063 C1064 1.400 . S
C1063 C1068 1.490 . S
C1064 H1054 0.930 . S
C1064 C1063 1.400 . S
C1064 C1067 1.386 . S
H1065 C1081 0.930 . S
H1066 C1082 0.931 . S
C1067 H1055 0.929 . S
C1067 C1061 1.390 . S
C1067 C1064 1.386 . S
C1068 C1063 1.490 . S
C1068 C1070 1.395 . S
C1068 C1071 1.403 . S
H1069 C1075 0.930 . S
C1070 H1056 0.930 . S
C1070 C1068 1.395 . S
C1070 C1073 1.403 . S
C1071 C1068 1.403 . S
C1071 C1072 1.524 . S
C1071 C1075 1.400 . S
C1072 H1057 0.960 . S
C1072 H1058 0.960 . S
C1072 H1059 0.960 . S
C1072 C1071 1.524 . S
C1073 C1070 1.403 . S
C1073 C1074 1.392 . S
C1073 C1077 1.495 . S
C1074 C1073 1.392 . S
C1074 C1075 1.385 . S
C1074 C1076 1.478 . S
C1075 H1069 0.930 . S
C1075 C1071 1.400 . S
C1075 C1074 1.385 . S
C1076 C1074 1.478 . S
C1076 C1078 1.381 1_554 S
C1076 C1082 1.383 . S
C1077 C1073 1.495 . S
C1077 H1083 0.961 . S
C1077 H1084 0.961 . S
C1077 H1085 0.960 1_554 S
C1078 C1076 1.381 1_556 S
C1078 C1079 1.394 . S
C1078 H1086 0.930 . S
C1079 C1078 1.394 . S
C1079 C1080 1.383 1_556 S
C1079 H1087 0.929 . S
C1080 C1079 1.383 1_554 S
C1080 C1081 1.377 . S
C1081 H1065 0.930 . S
C1081 C1080 1.377 . S
C1081 C1082 1.379 . S
C1082 H1066 0.931 . S
C1082 C1076 1.383 . S
C1082 C1081 1.379 . S
H1083 C1077 0.961 . S
H1084 C1077 0.961 . S
H1085 C1077 0.960 1_556 S
H1086 C1078 0.930 . S
H1087 C1079 0.929 . S
H1088 C1096 0.929 . S
H1089 C1098 0.930 . S
H1090 C1100 0.930 . S
H1091 C1103 0.929 . S
H1092 C1106 0.930 . S
H1093 C1108 0.960 . S
H1094 C1108 0.960 . S
H1095 C1108 0.960 . S
C1096 H1088 0.929 . S
C1096 C1097 1.377 . S
C1096 C1098 1.384 . S
C1097 C1096 1.377 . S
C1097 C1103 1.390 . S
C1098 H1089 0.930 . S
C1098 C1096 1.384 . S
C1098 C1099 1.372 . S
C1099 C1098 1.372 . S
C1099 C1100 1.400 . S
C1099 C1104 1.490 . S
C1100 H1090 0.930 . S
C1100 C1099 1.400 . S
C1100 C1103 1.386 . S
H1101 C1117 0.930 . S
H1102 C1118 0.931 . S
C1103 H1091 0.929 . S
C1103 C1097 1.390 . S
C1103 C1100 1.386 . S
C1104 C1099 1.490 . S
C1104 C1106 1.395 . S
C1104 C1107 1.403 . S
H1105 C1111 0.930 . S
C1106 H1092 0.930 . S
C1106 C1104 1.395 . S
C1106 C1109 1.403 . S
C1107 C1104 1.403 . S
C1107 C1108 1.524 . S
C1107 C1111 1.400 . S
C1108 H1093 0.960 . S
C1108 H1094 0.960 . S
C1108 H1095 0.960 . S
C1108 C1107 1.524 . S
C1109 C1106 1.403 . S
C1109 C1110 1.392 . S
C1109 C1113 1.495 . S
C1110 C1109 1.392 . S
C1110 C1111 1.385 . S
C1110 C1112 1.478 . S
C1111 H1105 0.930 . S
C1111 C1107 1.400 . S
C1111 C1110 1.385 . S
C1112 C1110 1.478 . S
C1112 C1114 1.381 . S
C1112 C1118 1.383 . S
C1113 C1109 1.495 . S
C1113 H1119 0.959 . S
C1113 H1120 0.961 . S
C1113 H1121 0.960 . S
C1114 C1112 1.381 . S
C1114 C1115 1.394 . S
C1114 H1122 0.930 . S
C1115 C1114 1.394 . S
C1115 C1116 1.383 . S
C1115 H1123 0.929 . S
C1116 C1115 1.383 . S
C1116 C1117 1.377 . S
C1117 H1101 0.930 . S
C1117 C1116 1.377 . S
C1117 C1118 1.379 . S
C1118 H1102 0.931 . S
C1118 C1112 1.383 . S
C1118 C1117 1.379 . S
H1119 C1113 0.959 . S
H1120 C1113 0.961 . S
H1121 C1113 0.960 . S
H1122 C1114 0.930 . S
H1123 C1115 0.929 . S
H1124 C1132 0.929 . S
H1125 C1134 0.930 . S
H1126 C1136 0.928 1_554 S
H1127 C1139 0.929 . S
H1128 C1142 0.930 . S
H1129 C1144 0.960 . S
H1130 C1144 0.960 . S
H1131 C1144 0.960 . S
C1132 H1124 0.929 . S
C1132 C1133 1.377 1_455 S
C1132 C1134 1.384 . S
C1133 C1132 1.377 1_655 S
C1133 C1139 1.390 . S
C1134 H1125 0.930 . S
C1134 C1132 1.384 . S
C1134 C1135 1.372 . S
C1135 C1134 1.372 . S
C1135 C1136 1.400 1_455 S
C1135 C1140 1.490 . S
C1136 H1126 0.928 1_556 S
C1136 C1135 1.400 1_655 S
C1136 C1139 1.386 . S
H1137 C1153 0.930 1_655 S
H1138 C1154 0.931 1_655 S
C1139 H1127 0.929 . S
C1139 C1133 1.390 . S
C1139 C1136 1.386 . S
C1140 C1135 1.490 . S
C1140 C1142 1.395 . S
C1140 C1143 1.403 1_455 S
H1141 C1147 0.930 . S
C1142 H1128 0.930 . S
C1142 C1140 1.395 . S
C1142 C1145 1.403 . S
C1143 C1140 1.403 1_655 S
C1143 C1144 1.524 . S
C1143 C1147 1.400 . S
C1144 H1129 0.960 . S
C1144 H1130 0.960 . S
C1144 H1131 0.960 . S
C1144 C1143 1.524 . S
C1145 C1142 1.403 . S
C1145 C1146 1.392 . S
C1145 C1149 1.495 1_556 S
C1146 C1145 1.392 . S
C1146 C1147 1.385 1_455 S
C1146 C1148 1.478 . S
C1147 H1141 0.930 . S
C1147 C1143 1.400 . S
C1147 C1146 1.385 1_655 S
C1148 C1146 1.478 . S
C1148 C1150 1.381 . S
C1148 C1154 1.383 1_556 S
C1149 C1145 1.495 1_554 S
C1149 H1155 0.959 . S
C1149 H1156 0.961 . S
C1149 H1157 0.960 1_554 S
C1150 C1148 1.381 . S
C1150 C1151 1.394 . S
C1150 H1158 0.930 . S
C1151 C1150 1.394 . S
C1151 C1152 1.383 . S
C1151 H1159 0.929 . S
C1152 C1151 1.383 . S
C1152 C1153 1.377 1_556 S
C1153 H1137 0.930 1_455 S
C1153 C1152 1.377 1_554 S
C1153 C1154 1.379 . S
C1154 H1138 0.931 1_455 S
C1154 C1148 1.383 1_554 S
C1154 C1153 1.379 . S
H1155 C1149 0.959 . S
H1156 C1149 0.961 . S
H1157 C1149 0.960 1_556 S
H1158 C1150 0.930 . S
H1159 C1151 0.929 . S
H1160 C1168 0.929 . S
H1161 C1170 0.930 . S
H1162 C1172 0.930 . S
H1163 C1175 0.929 . S
H1164 C1178 0.930 . S
H1165 C1180 0.960 . S
H1166 C1180 0.960 . S
H1167 C1180 0.960 . S
C1168 H1160 0.929 . S
C1168 C1169 1.377 . S
C1168 C1170 1.384 . S
C1169 C1168 1.377 . S
C1169 C1175 1.390 . S
C1170 H1161 0.930 . S
C1170 C1168 1.384 . S
C1170 C1171 1.372 . S
C1171 C1170 1.372 . S
C1171 C1172 1.400 . S
C1171 C1176 1.490 . S
C1172 H1162 0.930 . S
C1172 C1171 1.400 . S
C1172 C1175 1.386 . S
H1173 C1189 0.930 . S
H1174 C1190 0.931 . S
C1175 H1163 0.929 . S
C1175 C1169 1.390 . S
C1175 C1172 1.386 . S
C1176 C1171 1.490 . S
C1176 C1178 1.395 . S
C1176 C1179 1.403 . S
H1177 C1183 0.930 . S
C1178 H1164 0.930 . S
C1178 C1176 1.395 . S
C1178 C1181 1.403 . S
C1179 C1176 1.403 . S
C1179 C1180 1.524 . S
C1179 C1183 1.400 . S
C1180 H1165 0.960 . S
C1180 H1166 0.960 . S
C1180 H1167 0.960 . S
C1180 C1179 1.524 . S
C1181 C1178 1.403 . S
C1181 C1182 1.392 . S
C1181 C1185 1.495 . S
C1182 C1181 1.392 . S
C1182 C1183 1.385 . S
C1182 C1184 1.478 . S
C1183 H1177 0.930 . S
C1183 C1179 1.400 . S
C1183 C1182 1.385 . S
C1184 C1182 1.478 . S
C1184 C1186 1.381 . S
C1184 C1190 1.383 . S
C1185 C1181 1.495 . S
C1185 H1191 0.959 . S
C1185 H1192 0.961 . S
C1185 H1193 0.960 . S
C1186 C1184 1.381 . S
C1186 C1187 1.394 . S
C1186 H1194 0.930 . S
C1187 C1186 1.394 . S
C1187 C1188 1.383 . S
C1187 H1195 0.929 . S
C1188 C1187 1.383 . S
C1188 C1189 1.377 . S
C1189 H1173 0.930 . S
C1189 C1188 1.377 . S
C1189 C1190 1.379 . S
C1190 H1174 0.931 . S
C1190 C1184 1.383 . S
C1190 C1189 1.379 . S
H1191 C1185 0.959 . S
H1192 C1185 0.961 . S
H1193 C1185 0.960 . S
H1194 C1186 0.930 . S
H1195 C1187 0.929 . S
H1196 C1204 0.929 . S
H1197 C1206 0.930 . S
H1198 C1208 0.930 . S
H1199 C1211 0.929 . S
H1200 C1214 0.930 . S
H1201 C1216 0.960 . S
H1202 C1216 0.960 . S
H1203 C1216 0.960 . S
C1204 H1196 0.929 . S
C1204 C1205 1.377 . S
C1204 C1206 1.384 . S
C1205 C1204 1.377 . S
C1205 C1211 1.390 . S
C1206 H1197 0.930 . S
C1206 C1204 1.384 . S
C1206 C1207 1.372 . S
C1207 C1206 1.372 . S
C1207 C1208 1.400 . S
C1207 C1212 1.490 . S
C1208 H1198 0.930 . S
C1208 C1207 1.400 . S
C1208 C1211 1.386 . S
H1209 C1225 0.930 . S
H1210 C1226 0.931 . S
C1211 H1199 0.929 . S
C1211 C1205 1.390 . S
C1211 C1208 1.386 . S
C1212 C1207 1.490 . S
C1212 C1214 1.395 . S
C1212 C1215 1.403 . S
H1213 C1219 0.930 . S
C1214 H1200 0.930 . S
C1214 C1212 1.395 . S
C1214 C1217 1.403 . S
C1215 C1212 1.403 . S
C1215 C1216 1.524 . S
C1215 C1219 1.400 . S
C1216 H1201 0.960 . S
C1216 H1202 0.960 . S
C1216 H1203 0.960 . S
C1216 C1215 1.524 . S
C1217 C1214 1.403 . S
C1217 C1218 1.392 . S
C1217 C1221 1.495 . S
C1218 C1217 1.392 . S
C1218 C1219 1.385 . S
C1218 C1220 1.478 . S
C1219 H1213 0.930 . S
C1219 C1215 1.400 . S
C1219 C1218 1.385 . S
C1220 C1218 1.478 . S
C1220 C1222 1.381 . S
C1220 C1226 1.383 . S
C1221 C1217 1.495 . S
C1221 H1227 0.959 . S
C1221 H1228 0.961 . S
C1221 H1229 0.960 1_455 S
C1222 C1220 1.381 . S
C1222 C1223 1.394 . S
C1222 H1230 0.930 1_455 S
C1223 C1222 1.394 . S
C1223 C1224 1.383 . S
C1223 H1231 0.929 1_455 S
C1224 C1223 1.383 . S
C1224 C1225 1.377 . S
C1225 H1209 0.930 . S
C1225 C1224 1.377 . S
C1225 C1226 1.379 . S
C1226 H1210 0.931 . S
C1226 C1220 1.383 . S
C1226 C1225 1.379 . S
H1227 C1221 0.959 . S
H1228 C1221 0.961 . S
H1229 C1221 0.960 1_655 S
H1230 C1222 0.930 1_655 S
H1231 C1223 0.929 1_655 S
H1232 C1240 0.929 . S
H1233 C1242 0.930 . S
H1234 C1244 0.930 . S
H1235 C1247 0.929 . S
H1236 C1250 0.930 . S
H1237 C1252 0.960 . S
H1238 C1252 0.960 . S
H1239 C1252 0.960 . S
C1240 H1232 0.929 . S
C1240 C1241 1.377 . S
C1240 C1242 1.384 . S
C1241 C1240 1.377 . S
C1241 C1247 1.390 . S
C1242 H1233 0.930 . S
C1242 C1240 1.384 . S
C1242 C1243 1.372 . S
C1243 C1242 1.372 . S
C1243 C1244 1.400 . S
C1243 C1248 1.490 . S
C1244 H1234 0.930 . S
C1244 C1243 1.400 . S
C1244 C1247 1.386 . S
H1245 C1261 0.930 . S
H1246 C1262 0.931 . S
C1247 H1235 0.929 . S
C1247 C1241 1.390 . S
C1247 C1244 1.386 . S
C1248 C1243 1.490 . S
C1248 C1250 1.395 . S
C1248 C1251 1.403 . S
H1249 C1255 0.930 . S
C1250 H1236 0.930 . S
C1250 C1248 1.395 . S
C1250 C1253 1.403 . S
C1251 C1248 1.403 . S
C1251 C1252 1.524 . S
C1251 C1255 1.400 . S
C1252 H1237 0.960 . S
C1252 H1238 0.960 . S
C1252 H1239 0.960 . S
C1252 C1251 1.524 . S
C1253 C1250 1.403 . S
C1253 C1254 1.392 . S
C1253 C1257 1.495 . S
C1254 C1253 1.392 . S
C1254 C1255 1.385 . S
C1254 C1256 1.478 . S
C1255 H1249 0.930 . S
C1255 C1251 1.400 . S
C1255 C1254 1.385 . S
C1256 C1254 1.478 . S
C1256 C1258 1.381 . S
C1256 C1262 1.383 . S
C1257 C1253 1.495 . S
C1257 H1263 0.959 . S
C1257 H1264 0.961 . S
C1257 H1265 0.960 . S
C1258 C1256 1.381 . S
C1258 C1259 1.394 . S
C1258 H1266 0.930 . S
C1259 C1258 1.394 . S
C1259 C1260 1.383 . S
C1259 H1267 0.929 . S
C1260 C1259 1.383 . S
C1260 C1261 1.377 . S
C1261 H1245 0.930 . S
C1261 C1260 1.377 . S
C1261 C1262 1.379 . S
C1262 H1246 0.931 . S
C1262 C1256 1.383 . S
C1262 C1261 1.379 . S
H1263 C1257 0.959 . S
H1264 C1257 0.961 . S
H1265 C1257 0.960 . S
H1266 C1258 0.930 . S
H1267 C1259 0.929 . S
C413 C21 1.568 . S
C432 C323 1.460 . S
C449 C61 1.525 . S
C468 C357 1.444 . S
C504 C369 1.296 . S
C485 C82 1.425 . S
C521 C135 1.525 . S
C540 C403 1.410 1_655 S
C576 C360 1.412 . S
C557 C15 1.544 . S
C612 C340 1.396 1_565 S
C593 C42 1.530 . S
C648 C387 1.396 . S
C629 C101 1.481 . S
C684 C378 1.349 . S
C665 C122 1.467 . S
C701 C2 1.566 . S
C720 C386 1.494 . S
C756 C348 1.349 . S
C737 C95 1.454 . S
C773 C141 1.516 . S
C792 C324 1.387 . S
C809 C55 1.510 . S
C828 C381 1.409 . S
C864 C339 1.707 . S
C845 C181 1.745 . S
C881 C202 1.701 . S
C900 C361 1.691 . S
C917 C255 1.746 . S
C936 C366 1.622 . S
C953 C295 1.771 . S
C972 C399 1.696 . S
C989 C175 1.772 . S
C1008 C344 1.698 . S
C1044 C336 1.740 . S
C1025 C221 1.764 . S
C1080 C390 1.653 . S
C1061 C242 1.682 . S
C1116 C382 1.711 . S
C1097 C301 1.831 . S
C1133 C162 1.669 . S
C1152 C402 1.621 . S
C1188 C345 1.706 . S
C1169 C261 1.713 . S
C1224 C327 1.671 . S
C1205 C282 1.793 . S
C1241 C215 1.785 . S
C1260 C365 1.694 . S
