# Generated by pormake.
# Topology ocu, (6,8)-cn, num edge types: 1
# Building blocks:
#     Node 0, Type 0, BuildingBlock: VOLQOD_clean_sbu_1, # of connection points: 6
#     Node 1, Type 0, BuildingBlock: VOLQOD_clean_sbu_1, # of connection points: 6
#     Node 2, Type 0, BuildingBlock: VOLQOD_clean_sbu_1, # of connection points: 6
#     Node 3, Type 0, BuildingBlock: VOLQOD_clean_sbu_1, # of connection points: 6
#     Node 4, Type 0, BuildingBlock: VOLQOD_clean_sbu_1, # of connection points: 6
#     Node 5, Type 0, BuildingBlock: VOLQOD_clean_sbu_1, # of connection points: 6
#     Node 6, Type 0, BuildingBlock: VOLQOD_clean_sbu_1, # of connection points: 6
#     Node 7, Type 0, BuildingBlock: VOLQOD_clean_sbu_1, # of connection points: 6
#     Node 8, Type 1, BuildingBlock: VETTIZ_charged_sbu_0, # of connection points: 8
#     Node 9, Type 1, BuildingBlock: VETTIZ_charged_sbu_0, # of connection points: 8
#     Node 10, Type 1, BuildingBlock: VETTIZ_charged_sbu_0, # of connection points: 8
#     Node 11, Type 1, BuildingBlock: VETTIZ_charged_sbu_0, # of connection points: 8
#     Node 12, Type 1, BuildingBlock: VETTIZ_charged_sbu_0, # of connection points: 8
#     Node 13, Type 1, BuildingBlock: VETTIZ_charged_sbu_0, # of connection points: 8
#     Edge 14, Type (0, 1), BuildingBlock: CIFDUS_clean_linker_0, # of connection points: 2
#     Edge 15, Type (0, 1), BuildingBlock: CIFDUS_clean_linker_0, # of connection points: 2
#     Edge 16, Type (0, 1), BuildingBlock: CIFDUS_clean_linker_0, # of connection points: 2
#     Edge 17, Type (0, 1), BuildingBlock: CIFDUS_clean_linker_0, # of connection points: 2
#     Edge 18, Type (0, 1), BuildingBlock: CIFDUS_clean_linker_0, # of connection points: 2
#     Edge 19, Type (0, 1), BuildingBlock: CIFDUS_clean_linker_0, # of connection points: 2
#     Edge 20, Type (0, 1), BuildingBlock: CIFDUS_clean_linker_0, # of connection points: 2
#     Edge 21, Type (0, 1), BuildingBlock: CIFDUS_clean_linker_0, # of connection points: 2
#     Edge 22, Type (0, 1), BuildingBlock: CIFDUS_clean_linker_0, # of connection points: 2
#     Edge 23, Type (0, 1), BuildingBlock: CIFDUS_clean_linker_0, # of connection points: 2
#     Edge 24, Type (0, 1), BuildingBlock: CIFDUS_clean_linker_0, # of connection points: 2
#     Edge 25, Type (0, 1), BuildingBlock: CIFDUS_clean_linker_0, # of connection points: 2
#     Edge 26, Type (0, 1), BuildingBlock: CIFDUS_clean_linker_0, # of connection points: 2
#     Edge 27, Type (0, 1), BuildingBlock: CIFDUS_clean_linker_0, # of connection points: 2
#     Edge 28, Type (0, 1), BuildingBlock: CIFDUS_clean_linker_0, # of connection points: 2
#     Edge 29, Type (0, 1), BuildingBlock: CIFDUS_clean_linker_0, # of connection points: 2
#     Edge 30, Type (0, 1), BuildingBlock: CIFDUS_clean_linker_0, # of connection points: 2
#     Edge 31, Type (0, 1), BuildingBlock: CIFDUS_clean_linker_0, # of connection points: 2
#     Edge 32, Type (0, 1), BuildingBlock: CIFDUS_clean_linker_0, # of connection points: 2
#     Edge 33, Type (0, 1), BuildingBlock: CIFDUS_clean_linker_0, # of connection points: 2
#     Edge 34, Type (0, 1), BuildingBlock: CIFDUS_clean_linker_0, # of connection points: 2
#     Edge 35, Type (0, 1), BuildingBlock: CIFDUS_clean_linker_0, # of connection points: 2
#     Edge 36, Type (0, 1), BuildingBlock: CIFDUS_clean_linker_0, # of connection points: 2
#     Edge 37, Type (0, 1), BuildingBlock: CIFDUS_clean_linker_0, # of connection points: 2
#     Edge 38, Type (0, 1), BuildingBlock: CIFDUS_clean_linker_0, # of connection points: 2
#     Edge 39, Type (0, 1), BuildingBlock: CIFDUS_clean_linker_0, # of connection points: 2
#     Edge 40, Type (0, 1), BuildingBlock: CIFDUS_clean_linker_0, # of connection points: 2
#     Edge 41, Type (0, 1), BuildingBlock: CIFDUS_clean_linker_0, # of connection points: 2
#     Edge 42, Type (0, 1), BuildingBlock: CIFDUS_clean_linker_0, # of connection points: 2
#     Edge 43, Type (0, 1), BuildingBlock: CIFDUS_clean_linker_0, # of connection points: 2
#     Edge 44, Type (0, 1), BuildingBlock: CIFDUS_clean_linker_0, # of connection points: 2
#     Edge 45, Type (0, 1), BuildingBlock: CIFDUS_clean_linker_0, # of connection points: 2
#     Edge 46, Type (0, 1), BuildingBlock: CIFDUS_clean_linker_0, # of connection points: 2
#     Edge 47, Type (0, 1), BuildingBlock: CIFDUS_clean_linker_0, # of connection points: 2
#     Edge 48, Type (0, 1), BuildingBlock: CIFDUS_clean_linker_0, # of connection points: 2
#     Edge 49, Type (0, 1), BuildingBlock: CIFDUS_clean_linker_0, # of connection points: 2
#     Edge 50, Type (0, 1), BuildingBlock: CIFDUS_clean_linker_0, # of connection points: 2
#     Edge 51, Type (0, 1), BuildingBlock: CIFDUS_clean_linker_0, # of connection points: 2
#     Edge 52, Type (0, 1), BuildingBlock: CIFDUS_clean_linker_0, # of connection points: 2
#     Edge 53, Type (0, 1), BuildingBlock: CIFDUS_clean_linker_0, # of connection points: 2
#     Edge 54, Type (0, 1), BuildingBlock: CIFDUS_clean_linker_0, # of connection points: 2
#     Edge 55, Type (0, 1), BuildingBlock: CIFDUS_clean_linker_0, # of connection points: 2
#     Edge 56, Type (0, 1), BuildingBlock: CIFDUS_clean_linker_0, # of connection points: 2
#     Edge 57, Type (0, 1), BuildingBlock: CIFDUS_clean_linker_0, # of connection points: 2
#     Edge 58, Type (0, 1), BuildingBlock: CIFDUS_clean_linker_0, # of connection points: 2
#     Edge 59, Type (0, 1), BuildingBlock: CIFDUS_clean_linker_0, # of connection points: 2
#     Edge 60, Type (0, 1), BuildingBlock: CIFDUS_clean_linker_0, # of connection points: 2
#     Edge 61, Type (0, 1), BuildingBlock: CIFDUS_clean_linker_0, # of connection points: 2
# Relax obj value: 0.154
# Max RMSD: 0.302
# Mean RMSD: 0.175
data_MOF--net-ocu--node1-VOLQOD_clean_sbu_1--node2-VETTIZ_charged_sbu_0--edge1-CIFDUS_clean_linker_0
_symmetry_space_group_name_H-M    P1
_symmetry_Int_Tables_number       1
_symmetry_cell_setting            triclinic
loop_
_symmetry_equiv_pos_as_xyz
'x, y, z'
_cell_length_a     34.384682
_cell_length_b     34.426496
_cell_length_c     34.186128
_cell_angle_alpha  90.11474
_cell_angle_beta   90.329047
_cell_angle_gamma 89.702421
loop_
_atom_site_label
_atom_site_type_symbol
_atom_site_fract_x
_atom_site_fract_y
_atom_site_fract_z
_atom_type_partial_charge
O0 O 0.32426 0.31425 0.26526 0.0
Zn1 Zn 0.29025 0.27619 0.29753 0.0
O2 O 0.25748 0.24408 0.26182 0.0
Zn3 Zn 0.2025 0.25751 0.26647 0.0
Zn4 Zn 0.27156 0.25257 0.20795 0.0
Zn5 Zn 0.26543 0.18846 0.27197 0.0
O6 O 0.17244 0.21039 0.28534 0.0
O7 O 0.21459 0.16119 0.28267 0.0
O8 O 0.25515 0.30947 0.33294 0.0
O9 O 0.19637 0.29898 0.30736 0.0
O10 O 0.17985 0.28033 0.21585 0.0
O11 O 0.22716 0.2694 0.17341 0.0
O12 O 0.30156 0.20829 0.1862 0.0
O13 O 0.32328 0.24018 0.3333 0.0
O14 O 0.29955 0.16154 0.23059 0.0
O15 O 0.29596 0.18274 0.32145 0.0
C16 C 0.32755 0.31754 0.22813 0.0
C17 C 0.18061 0.1744 0.28983 0.0
C18 C 0.19328 0.28226 0.18118 0.0
C19 C 0.21856 0.31602 0.33183 0.0
C20 C 0.31196 0.17489 0.19823 0.0
C21 C 0.31893 0.2041 0.34114 0.0
O22 O 0.30872 0.29581 0.20487 0.0
O23 O 0.75892 0.19562 0.19236 0.0
Zn24 Zn 0.7932 0.22641 0.23084 0.0
O25 O 0.75956 0.25213 0.26845 0.0
Zn26 Zn 0.76501 0.3073 0.27303 0.0
Zn27 Zn 0.70592 0.24279 0.25834 0.0
Zn28 Zn 0.77299 0.23284 0.31847 0.0
O29 O 0.78004 0.32427 0.32755 0.0
O30 O 0.80666 0.26906 0.34771 0.0
O31 O 0.82562 0.26798 0.20443 0.0
O32 O 0.80918 0.32049 0.23918 0.0
O33 O 0.71838 0.33717 0.25228 0.0
O34 O 0.68076 0.28861 0.233 0.0
O35 O 0.67749 0.23328 0.3081 0.0
O36 O 0.83091 0.189 0.25929 0.0
O37 O 0.72648 0.2273 0.35014 0.0
O38 O 0.80105 0.18297 0.31633 0.0
C39 C 0.7234 0.18496 0.19511 0.0
C40 C 0.80136 0.30533 0.3515 0.0
C41 C 0.68799 0.32474 0.23494 0.0
C42 C 0.82988 0.30381 0.21331 0.0
C43 C 0.69036 0.22854 0.34272 0.0
C44 C 0.82705 0.17237 0.29238 0.0
O45 O 0.70099 0.19833 0.22151 0.0
O46 O 0.70251 0.68605 0.2312 0.0
Zn47 Zn 0.72688 0.72102 0.27322 0.0
O48 O 0.76442 0.75634 0.24851 0.0
Zn49 Zn 0.81331 0.75655 0.27649 0.0
Zn50 Zn 0.77455 0.74142 0.1951 0.0
Zn51 Zn 0.74376 0.80867 0.24898 0.0
O52 O 0.82103 0.80562 0.3061 0.0
O53 O 0.77096 0.84262 0.28812 0.0
O54 O 0.75406 0.68718 0.31455 0.0
O55 O 0.81106 0.71713 0.31737 0.0
O56 O 0.85952 0.74092 0.24357 0.0
O57 O 0.82998 0.72644 0.18752 0.0
O58 O 0.7626 0.78443 0.15769 0.0
O59 O 0.68444 0.75298 0.3002 0.0
O60 O 0.74506 0.8332 0.19628 0.0
O61 O 0.68905 0.80853 0.26744 0.0
C62 C 0.71303 0.67871 0.19614 0.0
C63 C 0.8013 0.8368 0.30865 0.0
C64 C 0.86054 0.72848 0.20851 0.0
C65 C 0.78777 0.69158 0.32972 0.0
C66 C 0.75216 0.81959 0.16244 0.0
C67 C 0.67145 0.78667 0.29142 0.0
O68 O 0.74105 0.69657 0.18013 0.0
O69 O 0.31391 0.77568 0.33842 0.0
Zn70 Zn 0.28494 0.73498 0.30551 0.0
O71 O 0.25684 0.75971 0.26084 0.0
Zn72 Zn 0.20155 0.74981 0.26338 0.0
Zn73 Zn 0.26466 0.8154 0.26251 0.0
Zn74 Zn 0.27443 0.74036 0.21065 0.0
O75 O 0.1797 0.72352 0.21549 0.0
O76 O 0.23286 0.70884 0.1821 0.0
O77 O 0.24767 0.70398 0.33962 0.0
O78 O 0.19268 0.71192 0.30589 0.0
O79 O 0.1713 0.79788 0.27733 0.0
O80 O 0.21686 0.84328 0.27942 0.0
O81 O 0.28367 0.83696 0.21179 0.0
O82 O 0.32537 0.69672 0.28468 0.0
O83 O 0.2943 0.78377 0.17652 0.0
O84 O 0.31915 0.70515 0.22029 0.0
C85 C 0.31992 0.81167 0.33187 0.0
C86 C 0.19623 0.7062 0.18711 0.0
C87 C 0.18185 0.8327 0.28392 0.0
C88 C 0.21175 0.69666 0.33392 0.0
C89 C 0.29568 0.82055 0.18074 0.0
C90 C 0.33592 0.68968 0.24967 0.0
O91 O 0.30413 0.82877 0.30289 0.0
O92 O 0.23805 0.71815 0.69609 0.0
Zn93 Zn 0.27295 0.74925 0.73233 0.0
O94 O 0.24211 0.78522 0.76542 0.0
Zn95 Zn 0.25404 0.83975 0.75628 0.0
Zn96 Zn 0.18756 0.77733 0.755 0.0
Zn97 Zn 0.2521 0.77478 0.81978 0.0
O98 O 0.2855 0.86386 0.8012 0.0
O99 O 0.27711 0.81909 0.84685 0.0
O100 O 0.30606 0.78033 0.69553 0.0
O101 O 0.2866 0.84075 0.70898 0.0
O102 O 0.20632 0.87169 0.74072 0.0
O103 O 0.16119 0.82603 0.73937 0.0
O104 O 0.16083 0.75361 0.80049 0.0
O105 O 0.30693 0.71231 0.76479 0.0
O106 O 0.20449 0.75845 0.84837 0.0
O107 O 0.29076 0.73176 0.82453 0.0
C108 C 0.20168 0.72063 0.68906 0.0
C109 C 0.2908 0.85151 0.83602 0.0
C110 C 0.17153 0.86091 0.73372 0.0
C111 C 0.30558 0.81659 0.68827 0.0
C112 C 0.17076 0.74941 0.8361 0.0
C113 C 0.31035 0.70989 0.80188 0.0
O114 O 0.17975 0.74252 0.70926 0.0
O115 O 0.20162 0.1654 0.76147 0.0
Zn116 Zn 0.22253 0.20747 0.79718 0.0
O117 O 0.25581 0.24456 0.76868 0.0
Zn118 Zn 0.30797 0.24613 0.79031 0.0
Zn119 Zn 0.25921 0.22803 0.71466 0.0
Zn120 Zn 0.23432 0.29683 0.77071 0.0
O121 O 0.32163 0.29872 0.81211 0.0
O122 O 0.26925 0.33467 0.80029 0.0
O123 O 0.25242 0.18172 0.84072 0.0
O124 O 0.30953 0.21164 0.83645 0.0
O125 O 0.34846 0.22683 0.7518 0.0
O126 O 0.31384 0.22048 0.69722 0.0
O127 O 0.23125 0.26443 0.67896 0.0
O128 O 0.17715 0.23514 0.82235 0.0
O129 O 0.22049 0.31601 0.71675 0.0
O130 O 0.18458 0.29544 0.80055 0.0
C131 C 0.21029 0.15656 0.72637 0.0
C132 C 0.30306 0.33066 0.81532 0.0
C133 C 0.34614 0.21886 0.71542 0.0
C134 C 0.2867 0.18809 0.85316 0.0
C135 C 0.21868 0.29883 0.68373 0.0
C136 C 0.16567 0.27026 0.81981 0.0
O137 O 0.23318 0.17746 0.70653 0.0
O138 O 0.81553 0.29833 0.81055 0.0
Zn139 Zn 0.78153 0.25978 0.78075 0.0
O140 O 0.74523 0.28665 0.7442 0.0
Zn141 Zn 0.69221 0.27467 0.75687 0.0
Zn142 Zn 0.75309 0.34235 0.7488 0.0
Zn143 Zn 0.75231 0.27065 0.68966 0.0
O144 O 0.66501 0.24489 0.71473 0.0
O145 O 0.70507 0.24403 0.66434 0.0
O146 O 0.75201 0.22708 0.82034 0.0
O147 O 0.69102 0.23904 0.80216 0.0
O148 O 0.66194 0.32246 0.7697 0.0
O149 O 0.7028 0.37104 0.7594 0.0
O150 O 0.77981 0.36183 0.70071 0.0
O151 O 0.8154 0.22191 0.75082 0.0
O152 O 0.77748 0.31363 0.65739 0.0
O153 O 0.79058 0.22811 0.69086 0.0
C154 C 0.81381 0.33526 0.81363 0.0
C155 C 0.67297 0.23435 0.68003 0.0
C156 C 0.66925 0.35864 0.76878 0.0
C157 C 0.71556 0.2218 0.82406 0.0
C158 C 0.78801 0.34787 0.66718 0.0
C159 C 0.81337 0.21159 0.71506 0.0
O160 O 0.78977 0.35511 0.79331 0.0
O161 O 0.83071 0.81305 0.74852 0.0
Zn162 Zn 0.79503 0.78387 0.78744 0.0
O163 O 0.76072 0.74671 0.75853 0.0
Zn164 Zn 0.70593 0.75574 0.77041 0.0
Zn165 Zn 0.76842 0.75058 0.70182 0.0
Zn166 Zn 0.77141 0.69376 0.77394 0.0
O167 O 0.67948 0.71208 0.80061 0.0
O168 O 0.72585 0.66734 0.79867 0.0
O169 O 0.76137 0.82436 0.81601 0.0
O170 O 0.70161 0.80368 0.80229 0.0
O171 O 0.67593 0.76896 0.72193 0.0
O172 O 0.72003 0.77232 0.67482 0.0
O173 O 0.78799 0.69967 0.67778 0.0
O174 O 0.82901 0.7539 0.82792 0.0
O175 O 0.79156 0.66187 0.73004 0.0
O176 O 0.8134 0.69287 0.81349 0.0
C177 C 0.83299 0.81079 0.71124 0.0
C178 C 0.69186 0.67807 0.8087 0.0
C179 C 0.68529 0.77713 0.68693 0.0
C180 C 0.72443 0.82813 0.81804 0.0
C181 C 0.79711 0.66739 0.69379 0.0
C182 C 0.83322 0.71728 0.8329 0.0
O183 O 0.81118 0.7882 0.69157 0.0
Fe184 Fe 0.00923 0.10102 0.53203 0.0
O185 O 0.00207 0.04435 0.53359 0.0
Fe186 Fe 0.04438 0.0106 0.50522 0.0
Fe187 Fe 0.95492 0.01809 0.51224 0.0
O188 O 0.0059 0.04453 0.5323 0.0
O189 O -0.00291 0.98332 0.48525 0.0
O190 O 0.99339 0.98315 0.48649 0.0
Fe191 Fe 0.99029 0.92656 0.48808 0.0
C192 C 0.93165 0.08283 0.56998 0.0
O193 O 0.96594 0.11078 0.49086 0.0
O194 O 0.95545 0.05293 0.46355 0.0
O195 O 0.03297 0.92892 0.44662 0.0
O196 O 0.07821 0.97106 0.47285 0.0
O197 O 0.04497 0.04599 0.45645 0.0
O198 O 0.04904 0.1029 0.48724 0.0
O199 O 0.91065 0.98658 0.48424 0.0
O200 O 0.94367 0.93738 0.45185 0.0
C201 C 0.05228 0.08222 0.45651 0.0
O202 O 0.03391 0.9178 0.52913 0.0
O203 O 0.04601 0.97643 0.55385 0.0
O204 O 0.96594 0.09817 0.57301 0.0
O205 O 0.92094 0.05823 0.54305 0.0
C206 C 0.95496 0.08983 0.46208 0.0
C207 C 0.91373 0.95979 0.45745 0.0
C208 C 0.94485 0.94689 0.56248 0.0
O209 O 0.95194 0.98316 0.56149 0.0
O210 O 0.95061 0.92501 0.533 0.0
C211 C 0.06682 0.94539 0.44714 0.0
O212 O 0.08891 0.04272 0.53223 0.0
O213 O 0.05547 0.08878 0.56832 0.0
C214 C 0.04622 0.93975 0.55655 0.0
C215 C 0.08562 0.06699 0.56136 0.0
Fe216 Fe 0.53462 0.91533 0.01092 0.0
O217 O 0.53121 0.97099 0.02342 0.0
Fe218 Fe 0.47856 -0.00079 0.0107 0.0
Fe219 Fe 0.56683 0.01054 0.00022 0.0
O220 O 0.52739 0.97067 0.02479 0.0
O221 O 0.51456 0.03909 0.98929 0.0
O222 O 0.51796 0.03926 0.98769 0.0
Fe223 Fe 0.51137 0.09467 -0.00034 0.0
C224 C 0.61408 0.94368 0.03812 0.0
O225 O 0.57133 0.92262 0.96458 0.0
O226 O 0.56601 0.98431 0.94597 0.0
O227 O 0.46033 0.08933 0.96808 0.0
O228 O 0.43199 0.03347 0.9923 0.0
O229 O 0.47789 0.9742 0.9562 0.0
O230 O 0.48694 0.91287 0.97347 0.0
O231 O 0.59789 0.05586 0.97315 0.0
O232 O 0.5497 0.09912 0.95414 0.0
C233 C 0.47224 0.93833 0.95075 0.0
O234 O 0.4769 0.08782 0.04783 0.0
O235 O 0.47589 0.02527 0.06522 0.0
O236 O 0.58488 0.92042 0.04379 0.0
O237 O 0.61345 0.97552 0.01768 0.0
C238 C 0.5766 0.94945 0.93986 0.0
C239 C 0.58449 0.08443 0.95188 0.0
C240 C 0.57523 0.0733 0.05845 0.0
O241 O 0.57065 0.03705 0.05394 0.0
O242 O 0.56018 0.09805 0.03521 0.0
C243 C 0.43117 0.06597 0.97312 0.0
O244 O 0.447 0.95283 0.0348 0.0
O245 O 0.494 0.90868 0.05432 0.0
C246 C 0.46829 0.061 0.07186 0.0
C247 C 0.45855 0.92199 0.0538 0.0
Fe248 Fe 0.02222 0.54814 0.00983 0.0
O249 O 0.98753 0.51017 0.03594 0.0
Fe250 Fe 0.09858 0.49051 0.9764 0.0
Fe251 Fe 0.93129 0.51939 0.04024 0.0
O252 O 0.04306 0.50176 0.98182 0.0
O253 O 0.04233 0.49837 0.98134 0.0
O254 O 0.98677 0.50647 0.03546 0.0
Fe255 Fe 0.00686 0.46021 0.00623 0.0
C256 C 0.97242 0.58976 0.07276 0.0
O257 O 0.98257 0.55635 0.96533 0.0
O258 O 0.9297 0.56566 0.00122 0.0
O259 O 0.03227 0.41662 0.97146 0.0
O260 O 0.07991 0.44906 0.93716 0.0
O261 O 0.09489 0.53823 0.93985 0.0
O262 O 0.06051 0.58203 0.97792 0.0
O263 O 0.91375 0.48255 0.9955 0.0
O264 O 0.96718 0.46763 0.96172 0.0
C265 C 0.08197 0.57286 0.94809 0.0
O266 O 0.04606 0.44969 0.0507 0.0
O267 O 0.1013 0.44561 0.01706 0.0
O268 O 0.99602 0.59213 0.04321 0.0
O269 O 0.95047 0.56009 0.08047 0.0
C270 C 0.94917 0.57143 0.97022 0.0
C271 C 0.93039 0.46905 0.96508 0.0
C272 C 0.94455 0.43519 0.06559 0.0
O273 O 0.93301 0.47012 0.0748 0.0
O274 O 0.96718 0.42626 0.03655 0.0
C275 C 0.0563 0.42023 0.94241 0.0
O276 O 0.11563 0.52988 0.01909 0.0
O277 O 0.06264 0.54274 0.05401 0.0
C278 C 0.08066 0.43706 0.04673 0.0
C279 C 0.09924 0.54456 0.0491 0.0
Fe280 Fe 0.48802 0.51362 0.97167 0.0
O281 O 0.52191 0.48436 0.00911 0.0
Fe282 Fe 0.40645 0.5341 0.02883 0.0
Fe283 Fe 0.57839 0.48106 0.00509 0.0
O284 O 0.46329 0.53469 0.02013 0.0
O285 O 0.46325 0.53337 0.02392 0.0
O286 O 0.52193 0.4832 0.01278 0.0
Fe287 Fe 0.49772 0.50453 0.06116 0.0
C288 C 0.54305 0.45808 0.92666 0.0
O289 O 0.52638 0.55985 0.96876 0.0
O290 O 0.58184 0.5261 0.96593 0.0
O291 O 0.46831 0.53219 0.10724 0.0
O292 O 0.42058 0.5687 0.07612 0.0
O293 O 0.40893 0.57567 0.98563 0.0
O294 O 0.44847 0.54772 0.93872 0.0
O295 O 0.59099 0.51915 0.05056 0.0
O296 O 0.53536 0.55039 0.062 0.0
C297 C 0.42358 0.57385 0.95071 0.0
O298 O 0.46058 0.45804 0.06278 0.0
O299 O 0.40452 0.48954 0.06981 0.0
O300 O 0.51773 0.4863 0.92584 0.0
O301 O 0.5641 0.44782 0.9567 0.0
C302 C 0.56169 0.55621 0.95788 0.0
C303 C 0.57202 0.54728 0.06578 0.0
C304 C 0.56059 0.44338 0.08298 0.0
O305 O 0.57408 0.43905 0.04782 0.0
O306 O 0.53691 0.47081 0.09419 0.0
C307 C 0.44306 0.56048 0.10574 0.0
O308 O 0.39407 0.49507 0.98353 0.0
O309 O 0.4512 0.46723 0.97137 0.0
C310 C 0.42615 0.46 0.07581 0.0
C311 C 0.41447 0.46799 0.96828 0.0
Fe312 Fe 0.02066 0.46223 0.50786 0.0
O313 O 0.03961 0.51016 0.53498 0.0
Fe314 Fe 0.98926 0.49818 0.41786 0.0
Fe315 Fe 0.03702 0.51692 0.59231 0.0
O316 O 0.99145 0.50027 0.47482 0.0
O317 O 0.99093 0.50417 0.47457 0.0
O318 O 0.03868 0.51419 0.53495 0.0
Fe319 Fe 0.01023 0.55196 0.50094 0.0
C320 C 0.97147 0.4589 0.58067 0.0
O321 O 0.05585 0.42968 0.5469 0.0
O322 O 0.08033 0.47642 0.5889 0.0
O323 O 0.0573 0.55473 0.4642 0.0
O324 O 0.02646 0.54373 0.40774 0.0
O325 O 0.03577 0.46085 0.41336 0.0
O326 O 0.06795 0.46219 0.4703 0.0
O327 O 0.07045 0.56466 0.58184 0.0
O328 O 0.03585 0.59733 0.53383 0.0
C329 C 0.06664 0.45576 0.43351 0.0
O330 O 0.97564 0.58499 0.46251 0.0
O331 O 0.94591 0.53902 0.42361 0.0
O332 O 0.97291 0.45918 0.54364 0.0
O333 O -0.00064 0.47144 0.60168 0.0
C334 C 0.08157 0.44271 0.57196 0.0
C335 C 0.06301 0.59496 0.56059 0.0
C336 C 0.96096 0.55968 0.57191 0.0
O337 O 0.98985 0.5546 0.59481 0.0
O338 O 0.96242 0.55129 0.53592 0.0
C339 C 0.05564 0.55634 0.42703 0.0
O340 O 0.95674 0.45034 0.43048 0.0
O341 O 0.99437 0.41718 0.47594 0.0
C342 C 0.94758 0.57317 0.43965 0.0
C343 C 0.96499 0.42023 0.45186 0.0
Fe344 Fe 0.5162 0.95697 0.50778 0.0
O345 O 0.49325 -0.00142 0.54192 0.0
Fe346 Fe 0.54056 0.00852 0.42316 0.0
Fe347 Fe 0.4965 0.99693 0.59941 0.0
O348 O 0.54066 0.00115 0.47987 0.0
O349 O 0.54011 0.00461 0.47996 0.0
O350 O 0.49236 0.00256 0.54191 0.0
Fe351 Fe 0.51841 0.04614 0.51432 0.0
C352 C 0.46162 0.92145 0.56918 0.0
O353 O 0.56503 0.95224 0.54235 0.0
O354 O 0.53724 0.95254 0.60081 0.0
O355 O 0.5498 0.08598 0.48268 0.0
O356 O 0.58254 0.04933 0.43628 0.0
O357 O 0.57441 0.95861 0.42451 0.0
O358 O 0.54294 0.91878 0.46837 0.0
O359 O 0.5391 0.03895 0.60712 0.0
O360 O 0.5669 0.04089 0.54929 0.0
C361 C 0.56672 0.92491 0.43962 0.0
O362 O 0.47077 0.05504 0.4778 0.0
O363 O 0.50319 0.05542 0.42168 0.0
O364 O 0.48717 0.91604 0.54179 0.0
O365 O 0.45727 0.95285 0.59003 0.0
C366 C 0.56423 0.94172 0.57786 0.0
C367 C 0.5663 0.05052 0.58501 0.0
C368 C 0.46697 0.07808 0.58188 0.0
O369 O 0.45977 0.04451 0.59762 0.0
O370 O 0.49188 0.08435 0.55407 0.0
C371 C 0.57787 0.07995 0.45826 0.0
O372 O 0.49416 0.97183 0.41366 0.0
O373 O 0.4679 0.95852 0.47207 0.0
C374 C 0.47491 0.06683 0.44271 0.0
C375 C 0.46685 0.95839 0.43478 0.0
H376 H 0.11635 0.19668 0.33005 0.0
H377 H 0.18277 0.09499 0.29782 0.0
H378 H 0.14521 0.05572 0.3435 0.0
H379 H 0.09929 0.05227 0.39913 0.0
H380 H 0.03786 0.15607 0.43421 0.0
H381 H 0.0672 0.19219 0.38089 0.0
C382 C 0.1221 0.16575 0.33223 0.0
C383 C 0.15259 0.14899 0.31058 0.0
C384 C 0.10149 0.14369 0.35966 0.0
C385 C 0.15961 0.10881 0.31418 0.0
C386 C 0.13826 0.08632 0.34051 0.0
C387 C 0.09188 0.08259 0.39455 0.0
C388 C 0.06663 0.10155 0.42075 0.0
C389 C 0.11004 0.10373 0.36445 0.0
C390 C 0.05745 0.14092 0.41465 0.0
C391 C 0.07424 0.16163 0.38416 0.0
H392 H 0.89005 0.19839 0.32872 0.0
H393 H 0.82986 0.09344 0.29753 0.0
H394 H 0.86808 0.05699 0.3461 0.0
H395 H 0.91061 0.05802 0.40436 0.0
H396 H 0.96508 0.16515 0.43964 0.0
H397 H 0.93688 0.19807 0.38299 0.0
C398 C 0.88668 0.16717 0.33146 0.0
C399 C 0.85818 0.14821 0.30902 0.0
C400 C 0.9068 0.14725 0.36111 0.0
C401 C 0.85257 0.10819 0.31375 0.0
C402 C 0.8739 0.08762 0.342 0.0
C403 C 0.91689 0.08832 0.3992 0.0
C404 C 0.93979 0.10904 0.42631 0.0
C405 C 0.89984 0.10726 0.36697 0.0
C406 C 0.94728 0.14855 0.4195 0.0
C407 C 0.9313 0.16737 0.38699 0.0
H408 H 0.82964 0.91015 0.30624 0.0
H409 H 0.79163 0.81997 0.38413 0.0
H410 H 0.81489 0.85686 0.44063 0.0
H411 H 0.85706 0.90811 0.46595 0.0
H412 H 0.90249 0.99382 0.38744 0.0
H413 H 0.86449 0.9668 0.33339 0.0
C414 C 0.82577 0.89932 0.33574 0.0
C415 C 0.80961 0.86258 0.34151 0.0
C416 C 0.84047 0.92009 0.36791 0.0
C417 C 0.80455 0.84823 0.37949 0.0
C418 C 0.81776 0.86925 0.41166 0.0
C419 C 0.85702 0.92177 0.43735 0.0
C420 C 0.88137 0.95338 0.43058 0.0
C421 C 0.83727 0.90435 0.40607 0.0
C422 C 0.88259 0.97037 0.39336 0.0
C423 C 0.86154 0.95435 0.36231 0.0
H424 H 0.20035 0.8902 0.33455 0.0
H425 H 0.10281 0.83309 0.27944 0.0
H426 H 0.0582 0.86701 0.32329 0.0
H427 H 0.04806 0.90573 0.38159 0.0
H428 H 0.14546 0.95914 0.44086 0.0
H429 H 0.1893 0.93387 0.3905 0.0
C430 C 0.16924 0.88595 0.33149 0.0
C431 C 0.15475 0.85912 0.30396 0.0
C432 C 0.14401 0.90421 0.35789 0.0
C433 C 0.11451 0.85351 0.30054 0.0
C434 C 0.0891 0.8727 0.32571 0.0
C435 C 0.07888 0.912 0.38374 0.0
C436 C 0.09361 0.93349 0.41558 0.0
C437 C 0.10373 0.89685 0.35536 0.0
C438 C 0.13345 0.94219 0.417 0.0
C439 C 0.15848 0.92777 0.38822 0.0
H440 H 0.10494 0.83904 0.69781 0.0
H441 H 0.17966 0.93823 0.71466 0.0
H442 H 0.14451 0.97301 0.66281 0.0
H443 H 0.09836 0.97153 0.60729 0.0
H444 H 0.02919 0.869 0.58708 0.0
H445 H 0.05703 0.83883 0.64549 0.0
C446 C 0.11325 0.86857 0.69086 0.0
C447 C 0.14519 0.88587 0.71004 0.0
C448 C 0.09454 0.88734 0.6597 0.0
C449 C 0.15528 0.92418 0.7004 0.0
C450 C 0.13544 0.9439 0.67048 0.0
C451 C 0.0892 0.94268 0.61587 0.0
C452 C 0.06217 0.92222 0.59262 0.0
C453 C 0.10603 0.92515 0.64898 0.0
C454 C 0.05048 0.88497 0.60408 0.0
C455 C 0.06618 0.86785 0.6376 0.0
H456 H 0.22863 0.1239 0.65657 0.0
H457 H 0.14362 0.12014 0.749 0.0
H458 H 0.09915 0.08469 0.70622 0.0
H459 H 0.07981 0.06766 0.63926 0.0
H460 H 0.1631 0.07425 0.54584 0.0
H461 H 0.21327 0.0955 0.59242 0.0
C462 C 0.20071 0.11455 0.66767 0.0
C463 C 0.18892 0.12565 0.7055 0.0
C464 C 0.17485 0.09537 0.64253 0.0
C465 C 0.15317 0.11244 0.71984 0.0
C466 C 0.1276 0.09245 0.69529 0.0
C467 C 0.10924 0.07303 0.62937 0.0
C468 C 0.11786 0.07052 0.58935 0.0
C469 C 0.13736 0.08582 0.65604 0.0
C470 C 0.15601 0.07646 0.5766 0.0
C471 C 0.18449 0.08877 0.60316 0.0
H472 H 0.79412 0.16139 0.65846 0.0
H473 H 0.88733 0.19177 0.7376 0.0
H474 H 0.93179 0.14891 0.70167 0.0
H475 H 0.94566 0.11157 0.64219 0.0
H476 H 0.85259 0.08385 0.56162 0.0
H477 H 0.80601 0.11669 0.60425 0.0
C478 C 0.82407 0.15813 0.66816 0.0
C479 C 0.83794 0.18018 0.69988 0.0
C480 C 0.84931 0.13438 0.64697 0.0
C481 C 0.87632 0.17516 0.71301 0.0
C482 C 0.90167 0.15096 0.69234 0.0
C483 C 0.9151 0.1124 0.63414 0.0
C484 C 0.90261 0.09635 0.59836 0.0
C485 C 0.88878 0.13184 0.65834 0.0
C486 C 0.86288 0.09645 0.58881 0.0
C487 C 0.83633 0.11532 0.61306 0.0
H488 H 0.84492 0.88973 0.70692 0.0
H489 H 0.88661 0.77933 0.66416 0.0
H490 H 0.92773 0.81204 0.61675 0.0
H491 H 0.94641 0.87102 0.58266 0.0
H492 H 0.90394 0.98239 0.62208 0.0
H493 H 0.86901 0.95061 0.67559 0.0
C494 C 0.86385 0.87307 0.68788 0.0
C495 C 0.863 0.83215 0.68917 0.0
C496 C 0.88678 0.89223 0.65962 0.0
C497 C 0.887 0.81081 0.66381 0.0
C498 C 0.91033 0.82949 0.63652 0.0
C499 C 0.92973 0.8885 0.60307 0.0
C500 C 0.92734 0.92901 0.59789 0.0
C501 C 0.90953 0.87005 0.63335 0.0
C502 C 0.90618 0.95114 0.62519 0.0
C503 C 0.88607 0.93293 0.65574 0.0
H504 H 0.32892 0.09649 0.18683 0.0
H505 H 0.37119 0.21247 0.1654 0.0
H506 H 0.42682 0.18652 0.13097 0.0
H507 H 0.46092 0.13257 0.10214 0.0
H508 H 0.41808 0.01591 0.11555 0.0
H509 H 0.36644 0.04007 0.15886 0.0
C510 C 0.35043 0.11586 0.17462 0.0
C511 C 0.34535 0.15643 0.17803 0.0
C512 C 0.38254 0.10065 0.15367 0.0
C513 C 0.3737 0.1812 0.16239 0.0
C514 C 0.40584 0.16643 0.14293 0.0
C515 C 0.44064 0.11216 0.11485 0.0
C516 C 0.44324 0.07256 0.10525 0.0
C517 C 0.41015 0.1264 0.13773 0.0
C518 C 0.41695 0.0466 0.12256 0.0
C519 C 0.38706 0.06051 0.14692 0.0
H520 H 0.86185 0.29172 0.14129 0.0
H521 H 0.86196 0.37033 0.23997 0.0
H522 H 0.90062 0.41656 0.20366 0.0
H523 H 0.92802 0.43788 0.14209 0.0
H524 H 0.92842 0.36093 0.04242 0.0
H525 H 0.89637 0.31059 0.08102 0.0
C526 C 0.87097 0.31866 0.15496 0.0
C527 C 0.85841 0.32797 0.19286 0.0
C528 C 0.8929 0.34556 0.13369 0.0
C529 C 0.87059 0.36286 0.21045 0.0
C530 C 0.89273 0.38935 0.18979 0.0
C531 C 0.9213 0.40998 0.12892 0.0
C532 C 0.92974 0.40322 0.0895 0.0
C533 C 0.90287 0.38155 0.15105 0.0
C534 C 0.92187 0.36672 0.07285 0.0
C535 C 0.90346 0.33805 0.09481 0.0
H536 H 0.73881 0.89724 0.15987 0.0
H537 H 0.74029 0.79409 0.08774 0.0
H538 H 0.70198 0.8274 0.03783 0.0
H539 H 0.65601 0.8801 0.02248 0.0
H540 H 0.65282 0.98253 0.09492 0.0
H541 H 0.70414 0.95544 0.13702 0.0
C542 C 0.73164 0.88241 0.13275 0.0
C543 C 0.7411 0.84292 0.12806 0.0
C544 C 0.70872 0.90136 0.10468 0.0
C545 C 0.7327 0.82433 0.09237 0.0
C546 C 0.71052 0.84323 0.06391 0.0
C547 C 0.66753 0.89675 0.0469 0.0
C548 C 0.65073 0.93258 0.05649 0.0
C549 C 0.69642 0.88082 0.07096 0.0
C550 C 0.66561 0.95463 0.08756 0.0
C551 C 0.69467 0.93909 0.1116 0.0
H552 H 0.22222 0.64933 0.13766 0.0
H553 H 0.11703 0.70253 0.18124 0.0
H554 H 0.07793 0.65576 0.14472 0.0
H555 H 0.07334 0.59984 0.10022 0.0
H556 H 0.17842 0.54663 0.0564 0.0
H557 H 0.2176 0.59284 0.09365 0.0
C558 C 0.19074 0.65098 0.13888 0.0
C559 C 0.17271 0.6797 0.16205 0.0
C560 C 0.1683 0.62358 0.11818 0.0
C561 C 0.13181 0.68092 0.16361 0.0
C562 C 0.10936 0.65402 0.14284 0.0
C563 C 0.10482 0.59792 0.09923 0.0
C564 C 0.12282 0.56953 0.07561 0.0
C565 C 0.12726 0.62507 0.12022 0.0
C566 C 0.1637 0.56803 0.07435 0.0
C567 C 0.18618 0.59462 0.09551 0.0
H568 H 0.34654 0.9058 0.81931 0.0
H569 H 0.29677 0.84054 0.91436 0.0
H570 H 0.34938 0.86061 0.95746 0.0
H571 H 0.41196 0.89246 0.96731 0.0
H572 H 0.46098 0.96128 0.87503 0.0
H573 H 0.40659 0.94379 0.83154 0.0
C574 C 0.34676 0.89671 0.84966 0.0
C575 C 0.31791 0.87129 0.86334 0.0
C576 C 0.37748 0.90819 0.87454 0.0
C577 C 0.31874 0.85978 0.90283 0.0
C578 C 0.34898 0.87102 0.92756 0.0
C579 C 0.41084 0.90327 0.93751 0.0
C580 C 0.44076 0.92704 0.92378 0.0
C581 C 0.37904 0.89422 0.91342 0.0
C582 C 0.43845 0.94224 0.88575 0.0
C583 C 0.40731 0.93244 0.86108 0.0
H584 H 0.11538 0.3273 0.80107 0.0
H585 H 0.14308 0.24483 0.89184 0.0
H586 H 0.10245 0.28107 0.93799 0.0
H587 H 0.07184 0.34406 0.95537 0.0
H588 H 0.04884 0.42789 0.86461 0.0
H589 H 0.07384 0.38305 0.81534 0.0
C590 C 0.11155 0.31669 0.83067 0.0
C591 C 0.1327 0.28412 0.84342 0.0
C592 C 0.08924 0.33823 0.85711 0.0
C593 C 0.12715 0.27007 0.88152 0.0
C594 C 0.10422 0.29099 0.90799 0.0
C595 C 0.07094 0.35164 0.92459 0.0
C596 C 0.05902 0.38905 0.91334 0.0
C597 C 0.08693 0.32627 0.89663 0.0
C598 C 0.0582 0.39914 0.87362 0.0
C599 C 0.0727 0.37367 0.84556 0.0
H600 H 0.65214 0.17877 0.8133 0.0
H601 H 0.74557 0.19844 0.89547 0.0
H602 H 0.71538 0.15305 0.94173 0.0
H603 H 0.65837 0.11251 0.96058 0.0
H604 H 0.56549 0.09601 0.8769 0.0
H605 H 0.59985 0.13501 0.82901 0.0
C606 C 0.66602 0.17316 0.84134 0.0
C607 C 0.70048 0.19249 0.85144 0.0
C608 C 0.64863 0.14743 0.86733 0.0
C609 C 0.71875 0.18409 0.88732 0.0
C610 C 0.70147 0.15823 0.91368 0.0
C611 C 0.64634 0.11684 0.9315 0.0
C612 C 0.60954 0.10168 0.92205 0.0
C613 C 0.66592 0.1403 0.90428 0.0
C614 C 0.59375 0.10766 0.88462 0.0
C615 C 0.61326 0.13003 0.85735 0.0
H616 H 0.88389 0.65889 0.82195 0.0
H617 H 0.84128 0.7377 0.91003 0.0
H618 H 0.87401 0.69921 0.96112 0.0
H619 H 0.9095 0.63924 0.98076 0.0
H620 H 0.95421 0.56262 0.89156 0.0
H621 H 0.92572 0.60397 0.84069 0.0
C622 C 0.88261 0.66813 0.85229 0.0
C623 C 0.86034 0.70103 0.86236 0.0
C624 C 0.90118 0.64578 0.88122 0.0
C625 C 0.85872 0.71278 0.90163 0.0
C626 C 0.87698 0.69047 0.93081 0.0
C627 C 0.91299 0.63176 0.95014 0.0
C628 C 0.93324 0.59759 0.93979 0.0
C629 C 0.89732 0.65625 0.921 0.0
C630 C 0.93847 0.5886 0.90012 0.0
C631 C 0.92225 0.61224 0.87108 0.0
H632 H 0.12925 0.32947 0.18944 0.0
H633 H 0.2105 0.28663 0.10348 0.0
H634 H 0.18337 0.33089 0.0549 0.0
H635 H 0.13908 0.38425 0.03737 0.0
H636 H 0.05673 0.42668 0.12228 0.0
H637 H 0.08192 0.38042 0.17051 0.0
C638 C 0.14061 0.32931 0.15992 0.0
C639 C 0.17208 0.30466 0.15039 0.0
C640 C 0.1251 0.35531 0.13197 0.0
C641 C 0.18643 0.3052 0.11189 0.0
C642 C 0.17105 0.33072 0.08402 0.0
C643 C 0.12675 0.38357 0.0665 0.0
C644 C 0.09642 0.40938 0.07629 0.0
C645 C 0.14095 0.35646 0.09392 0.0
C646 C 0.08028 0.4074 0.11397 0.0
C647 C 0.09462 0.38085 0.14158 0.0
H648 H 0.13119 0.68637 0.81487 0.0
H649 H 0.15827 0.75876 0.91429 0.0
H650 H 0.12877 0.71111 0.95817 0.0
H651 H 0.10251 0.64559 0.96829 0.0
H652 H 0.0844 0.57013 0.86905 0.0
H653 H 0.10349 0.62218 0.82466 0.0
C654 C 0.12961 0.69214 0.84605 0.0
C655 C 0.14627 0.72594 0.86155 0.0
C656 C 0.11507 0.6637 0.87097 0.0
C657 C 0.14519 0.73288 0.90197 0.0
C658 C 0.12869 0.70559 0.92695 0.0
C659 C 0.10247 0.64085 0.93689 0.0
C660 C 0.09246 0.60437 0.92167 0.0
C661 C 0.11475 0.67035 0.91183 0.0
C662 C 0.09263 0.59804 0.88115 0.0
C663 C 0.10326 0.62775 0.85587 0.0
H664 H 0.29296 0.11062 0.86378 0.0
H665 H 0.31527 0.22153 0.9179 0.0
H666 H 0.35805 0.19079 0.96599 0.0
H667 H 0.39882 0.13542 0.98314 0.0
H668 H 0.38112 0.02476 0.927 0.0
H669 H 0.3264 0.05189 0.88922 0.0
C670 C 0.30614 0.12755 0.88711 0.0
C671 C 0.30155 0.16801 0.88762 0.0
C672 C 0.33208 0.10987 0.91348 0.0
C673 C 0.31881 0.19022 0.91733 0.0
C674 C 0.3434 0.17276 0.94451 0.0
C675 C 0.38234 0.11718 0.96316 0.0
C676 C 0.39399 0.07875 0.95683 0.0
C677 C 0.35186 0.13309 0.94138 0.0
C678 C 0.37243 0.0547 0.93175 0.0
C679 C 0.34142 0.07023 0.91015 0.0
H680 H 0.80307 0.40603 0.84756 0.0
H681 H 0.88477 0.31076 0.84074 0.0
H682 H 0.92952 0.34533 0.88431 0.0
H683 H 0.9448 0.40206 0.92577 0.0
H684 H 0.86059 0.49455 0.93702 0.0
H685 H 0.81764 0.46197 0.89003 0.0
C686 C 0.83071 0.39286 0.85554 0.0
C687 C 0.84056 0.35586 0.84082 0.0
C688 C 0.85593 0.41254 0.88128 0.0
C689 C 0.87634 0.33906 0.8518 0.0
C690 C 0.90203 0.3589 0.8766 0.0
C691 C 0.91723 0.41525 0.91749 0.0
C692 C 0.90597 0.45084 0.93443 0.0
C693 C 0.89209 0.3956 0.89161 0.0
C694 C 0.86986 0.46724 0.92421 0.0
C695 C 0.84531 0.44857 0.89744 0.0
H696 H 0.65542 0.86242 0.80241 0.0
H697 H 0.75282 0.86659 0.88238 0.0
H698 H 0.71667 0.91143 0.92471 0.0
H699 H 0.65373 0.94055 0.94357 0.0
H700 H 0.55591 0.93419 0.86463 0.0
H701 H 0.59603 0.89954 0.8166 0.0
C702 C 0.66898 0.87366 0.82882 0.0
C703 C 0.70643 0.86071 0.83975 0.0
C704 C 0.6479 0.89895 0.85301 0.0
C705 C 0.72399 0.87602 0.87352 0.0
C706 C 0.70324 0.90147 0.89776 0.0
C707 C 0.64179 0.93277 0.91517 0.0
C708 C 0.60228 0.94008 0.9071 0.0
C709 C 0.66472 0.91196 0.88845 0.0
C710 C 0.58649 0.92934 0.87086 0.0
C711 C 0.60929 0.90917 0.84375 0.0
H712 H 0.89249 0.73787 0.13737 0.0
H713 H 0.90542 0.67508 0.24559 0.0
H714 H 0.94764 0.62749 0.21344 0.0
H715 H 0.96884 0.59718 0.1515 0.0
H716 H 0.95757 0.66122 0.0438 0.0
H717 H 0.92727 0.71539 0.07875 0.0
C718 C 0.90588 0.71458 0.15413 0.0
C719 C 0.89574 0.7095 0.19347 0.0
C720 C 0.92977 0.68729 0.13538 0.0
C721 C 0.91312 0.67949 0.21523 0.0
C722 C 0.93682 0.65204 0.19674 0.0
C723 C 0.9608 0.62357 0.13607 0.0
C724 C 0.96469 0.62527 0.09528 0.0
C725 C 0.94355 0.65457 0.15639 0.0
C726 C 0.95471 0.65949 0.07531 0.0
C727 C 0.93715 0.6903 0.09521 0.0
H728 H 0.3543 0.79636 0.13464 0.0
H729 H 0.28671 0.8979 0.16452 0.0
H730 H 0.32996 0.93855 0.12546 0.0
H731 H 0.39041 0.94571 0.08727 0.0
H732 H 0.46024 0.84396 0.06314 0.0
H733 H 0.41288 0.80304 0.09558 0.0
C734 C 0.34851 0.82726 0.13191 0.0
C735 C 0.31726 0.84408 0.15216 0.0
C736 C 0.37437 0.85055 0.11099 0.0
C737 C 0.31058 0.88429 0.14903 0.0
C738 C 0.33541 0.90755 0.12691 0.0
C739 C 0.39505 0.91457 0.08902 0.0
C740 C 0.42898 0.89797 0.07327 0.0
C741 C 0.36799 0.89112 0.10855 0.0
C742 C 0.4347 0.85757 0.07568 0.0
C743 C 0.40751 0.83405 0.09399 0.0
H744 H 0.6677 0.13126 0.20615 0.0
H745 H 0.73838 0.18328 0.11682 0.0
H746 H 0.69878 0.1521 0.066 0.0
H747 H 0.63985 0.11549 0.04734 0.0
H748 H 0.57144 0.06072 0.13664 0.0
H749 H 0.61424 0.08767 0.18747 0.0
C750 C 0.67484 0.13513 0.17553 0.0
C751 C 0.70562 0.15973 0.1651 0.0
C752 C 0.65198 0.1172 0.14667 0.0
C753 C 0.71494 0.16429 0.12546 0.0
C754 C 0.69206 0.14682 0.09646 0.0
C755 C 0.63463 0.10939 0.07799 0.0
C756 C 0.60238 0.08698 0.08867 0.0
C757 C 0.65983 0.12419 0.10676 0.0
C758 C 0.59604 0.07829 0.12813 0.0
C759 C 0.62045 0.09364 0.15703 0.0
H760 H 0.62585 0.69338 0.85203 0.0
H761 H 0.70428 0.60086 0.81822 0.0
H762 H 0.67063 0.55607 0.86082 0.0
H763 H 0.62168 0.54325 0.9094 0.0
H764 H 0.54118 0.63315 0.94443 0.0
H765 H 0.57295 0.67886 0.89963 0.0
C766 C 0.63528 0.66333 0.85371 0.0
C767 C 0.6679 0.65075 0.83202 0.0
C768 C 0.61578 0.63735 0.8788 0.0
C769 C 0.67963 0.61163 0.83468 0.0
C770 C 0.66042 0.58587 0.85913 0.0
C771 C 0.611 0.5729 0.90761 0.0
C772 C 0.57947 0.58489 0.9309 0.0
C773 C 0.62899 0.59855 0.88175 0.0
C774 C 0.56561 0.62322 0.92717 0.0
C775 C 0.58378 0.6493 0.90151 0.0
H776 H 0.34643 0.71821 0.871 0.0
H777 H 0.33554 0.63881 0.77397 0.0
H778 H 0.37402 0.59002 0.80995 0.0
H779 H 0.40488 0.56799 0.87255 0.0
H780 H 0.41282 0.64903 0.96873 0.0
H781 H 0.38177 0.69923 0.92941 0.0
C782 C 0.35266 0.69031 0.85751 0.0
C783 C 0.33763 0.68184 0.82021 0.0
C784 C 0.37424 0.66265 0.87836 0.0
C785 C 0.34668 0.64592 0.80279 0.0
C786 C 0.36852 0.61801 0.82344 0.0
C787 C 0.40044 0.59689 0.88443 0.0
C788 C 0.41068 0.60473 0.9236 0.0
C789 C 0.38166 0.62572 0.86173 0.0
C790 C 0.40469 0.6422 0.93883 0.0
C791 C 0.38692 0.67094 0.9164 0.0
H792 H 0.36953 0.3277 0.85866 0.0
H793 H 0.27289 0.40334 0.83053 0.0
H794 H 0.29721 0.45163 0.87714 0.0
H795 H 0.34625 0.47238 0.92638 0.0
H796 H 0.44255 0.39581 0.95317 0.0
H797 H 0.41764 0.34784 0.90714 0.0
C798 C 0.35382 0.35484 0.86235 0.0
C799 C 0.31945 0.36178 0.84079 0.0
C800 C 0.36766 0.38223 0.88951 0.0
C801 C 0.29952 0.39716 0.84645 0.0
C802 C 0.3133 0.42476 0.87333 0.0
C803 C 0.3614 0.44495 0.92253 0.0
C804 C 0.39611 0.43768 0.94346 0.0
C805 C 0.34723 0.4175 0.89529 0.0
C806 C 0.41576 0.40221 0.93757 0.0
C807 C 0.40163 0.37476 0.91109 0.0
H808 H 0.6006 0.34051 0.80249 0.0
H809 H 0.67326 0.43812 0.77327 0.0
H810 H 0.63414 0.48021 0.81529 0.0
H811 H 0.58758 0.48595 0.86951 0.0
H812 H 0.52059 0.38643 0.90371 0.0
H813 H 0.54883 0.34825 0.85026 0.0
C814 C 0.60745 0.37117 0.80451 0.0
C815 C 0.64036 0.38594 0.78541 0.0
C816 C 0.58602 0.39469 0.83003 0.0
C817 C 0.64841 0.42586 0.78807 0.0
C818 C 0.62618 0.44992 0.81225 0.0
C819 C 0.57845 0.45625 0.86426 0.0
C820 C 0.55221 0.43868 0.88989 0.0
C821 C 0.59617 0.43419 0.83477 0.0
C822 C 0.54071 0.40019 0.88384 0.0
C823 C 0.557 0.37846 0.85354 0.0
H824 H 0.63518 0.30741 0.17882 0.0
H825 H 0.68273 0.40376 0.24405 0.0
H826 H 0.64307 0.44912 0.20556 0.0
H827 H 0.59899 0.46154 0.14952 0.0
H828 H 0.55718 0.36514 0.0809 0.0
H829 H 0.58999 0.3194 0.12495 0.0
C830 C 0.63655 0.33829 0.18504 0.0
C831 C 0.66192 0.35221 0.21421 0.0
C832 C 0.61465 0.36412 0.16213 0.0
C833 C 0.66357 0.39234 0.2216 0.0
C834 C 0.6409 0.41827 0.19963 0.0
C835 C 0.59656 0.43045 0.1449 0.0
C836 C 0.57562 0.41637 0.11253 0.0
C837 C 0.61689 0.40452 0.16934 0.0
C838 C 0.57312 0.37628 0.10593 0.0
C839 C 0.59194 0.35026 0.13094 0.0
H840 H 0.63494 0.66628 0.19241 0.0
H841 H 0.74449 0.62744 0.14521 0.0
H842 H 0.71068 0.58341 0.10058 0.0
H843 H 0.65009 0.55729 0.07363 0.0
H844 H 0.54001 0.59862 0.11787 0.0
H845 H 0.57377 0.64064 0.16439 0.0
C846 C 0.65128 0.64773 0.17269 0.0
C847 C 0.69208 0.64971 0.17229 0.0
C848 C 0.63155 0.62339 0.14613 0.0
C849 C 0.71302 0.62622 0.14607 0.0
C850 C 0.69372 0.60118 0.12046 0.0
C851 C 0.63344 0.57555 0.09335 0.0
C852 C 0.59257 0.57476 0.0921 0.0
C853 C 0.653 0.59983 0.11991 0.0
C854 C 0.57151 0.5988 0.11786 0.0
C855 C 0.59079 0.6227 0.14473 0.0
H856 H 0.39872 0.70202 0.20631 0.0
H857 H 0.33965 0.61375 0.27183 0.0
H858 H 0.37552 0.56298 0.2365 0.0
H859 H 0.41168 0.5449 0.17646 0.0
H860 H 0.46597 0.63462 0.10852 0.0
H861 H 0.44486 0.68379 0.15552 0.0
C862 C 0.39505 0.67166 0.21391 0.0
C863 C 0.36668 0.66132 0.24118 0.0
C864 C 0.41445 0.64299 0.19243 0.0
C865 C 0.3617 0.62213 0.25101 0.0
C866 C 0.38177 0.59318 0.2304 0.0
C867 C 0.41999 0.57506 0.17302 0.0
C868 C 0.44 0.58658 0.13935 0.0
C869 C 0.40646 0.60332 0.19947 0.0
C870 C 0.45044 0.62554 0.13442 0.0
C871 C 0.43824 0.65356 0.16111 0.0
H872 H 0.37382 0.30931 0.1655 0.0
H873 H 0.33296 0.39444 0.2484 0.0
H874 H 0.35963 0.4467 0.20785 0.0
H875 H 0.38966 0.46808 0.14563 0.0
H876 H 0.43336 0.38211 0.06499 0.0
H877 H 0.41014 0.33008 0.10757 0.0
C878 C 0.37153 0.3393 0.1751 0.0
C879 C 0.3515 0.3481 0.20987 0.0
C880 C 0.38666 0.36894 0.15157 0.0
C881 C 0.34871 0.38696 0.22206 0.0
C882 C 0.36348 0.41681 0.19858 0.0
C883 C 0.39392 0.43789 0.13745 0.0
C884 C 0.41232 0.42876 0.10182 0.0
C885 C 0.38153 0.40817 0.16272 0.0
C886 C 0.41882 0.38969 0.092 0.0
C887 C 0.40567 0.36003 0.11639 0.0
H888 H 0.8212 0.66931 0.61741 0.0
H889 H 0.82728 0.59969 0.72234 0.0
H890 H 0.87768 0.55937 0.69343 0.0
H891 H 0.92544 0.5482 0.64138 0.0
H892 H 0.91743 0.61457 0.53486 0.0
H893 H 0.86266 0.65173 0.56132 0.0
C894 C 0.83294 0.64485 0.63366 0.0
C895 C 0.8208 0.6382 0.67231 0.0
C896 C 0.86219 0.62152 0.61686 0.0
C897 C 0.8362 0.60598 0.69269 0.0
C898 C 0.86531 0.5829 0.6763 0.0
C899 C 0.9114 0.57058 0.62395 0.0
C900 C 0.9257 0.57918 0.58665 0.0
C901 C 0.87946 0.59122 0.63898 0.0
C902 C 0.90693 0.60767 0.56385 0.0
C903 C 0.87568 0.62894 0.57896 0.0
H904 H 0.37581 0.79314 0.66027 0.0
H905 H 0.2817 0.87448 0.64126 0.0
H906 H 0.32058 0.90997 0.59422 0.0
H907 H 0.38471 0.9252 0.56941 0.0
H908 H 0.48116 0.84793 0.59125 0.0
H909 H 0.43807 0.80278 0.62554 0.0
C910 C 0.36371 0.81803 0.64497 0.0
C911 C 0.32659 0.83196 0.65467 0.0
C912 C 0.38674 0.8391 0.61885 0.0
C913 C 0.31073 0.86399 0.63473 0.0
C914 C 0.33283 0.88422 0.60784 0.0
C915 C 0.39584 0.89782 0.5807 0.0
C916 C 0.43557 0.88968 0.57859 0.0
C917 C 0.37141 0.87319 0.60131 0.0
C918 C 0.45032 0.85435 0.59278 0.0
C919 C 0.42583 0.82889 0.61266 0.0
H920 H 0.22429 0.3728 0.65994 0.0
H921 H 0.16339 0.26601 0.63752 0.0
H922 H 0.1167 0.30033 0.5954 0.0
H923 H 0.08784 0.36302 0.57368 0.0
H924 H 0.15182 0.46869 0.59509 0.0
H925 H 0.20293 0.43248 0.62795 0.0
C926 C 0.20129 0.35703 0.64502 0.0
C927 C 0.19669 0.31739 0.65199 0.0
C928 C 0.17485 0.37681 0.62096 0.0
C929 C 0.16725 0.29679 0.63236 0.0
C930 C 0.14044 0.31641 0.60855 0.0
C931 C 0.1134 0.37785 0.58473 0.0
C932 C 0.1153 0.41854 0.58329 0.0
C933 C 0.14308 0.35677 0.60386 0.0
C934 C 0.14897 0.43742 0.59708 0.0
C935 C 0.17837 0.41681 0.61583 0.0
H936 H 0.68902 0.18358 0.6198 0.0
H937 H 0.59782 0.2193 0.69864 0.0
H938 H 0.55808 0.16477 0.67765 0.0
H939 H 0.55007 0.10506 0.63977 0.0
H940 H 0.63885 0.0697 0.55839 0.0
H941 H 0.6787 0.12551 0.57777 0.0
C942 C 0.66014 0.1799 0.63178 0.0
C943 C 0.64664 0.20565 0.66094 0.0
C944 C 0.63729 0.14794 0.61981 0.0
C945 C 0.60917 0.20005 0.67629 0.0
C946 C 0.58642 0.16863 0.66451 0.0
C947 C 0.57838 0.10921 0.62661 0.0
C948 C 0.59191 0.08261 0.59843 0.0
C949 C 0.60051 0.14191 0.63702 0.0
C950 C 0.62807 0.08932 0.5807 0.0
C951 C 0.65074 0.1214 0.59159 0.0
H952 H 0.87001 0.28382 0.38402 0.0
H953 H 0.78191 0.37366 0.38628 0.0
H954 H 0.8235 0.41367 0.4279 0.0
H955 H 0.88834 0.42764 0.45235 0.0
H956 H 0.97989 0.34233 0.44258 0.0
H957 H 0.93313 0.29497 0.41649 0.0
C958 C 0.85964 0.31181 0.39438 0.0
C959 C 0.82336 0.32628 0.38169 0.0
C960 C 0.88437 0.33527 0.41678 0.0
C961 C 0.81007 0.36241 0.39522 0.0
C962 C 0.83375 0.38517 0.41902 0.0
C963 C 0.89776 0.3983 0.44533 0.0
C964 C 0.93726 0.38836 0.44836 0.0
C965 C 0.8715 0.3726 0.42831 0.0
C966 C 0.94947 0.35035 0.44016 0.0
C967 C 0.92287 0.32361 0.42485 0.0
H968 H 0.65873 0.78242 0.36976 0.0
H969 H 0.61486 0.83349 0.26308 0.0
H970 H 0.57589 0.87954 0.30062 0.0
H971 H 0.56235 0.91142 0.36294 0.0
H972 H 0.60581 0.86225 0.47045 0.0
H973 H 0.63719 0.80928 0.43363 0.0
C974 C 0.63948 0.80269 0.35489 0.0
C975 C 0.63959 0.8047 0.31376 0.0
C976 C 0.61814 0.83008 0.37677 0.0
C977 C 0.6151 0.83148 0.29471 0.0
C978 C 0.59318 0.85806 0.31614 0.0
C979 C 0.57852 0.88888 0.37825 0.0
C980 C 0.58279 0.89095 0.41901 0.0
C981 C 0.59592 0.85873 0.35702 0.0
C982 C 0.60274 0.86126 0.4389 0.0
C983 C 0.62055 0.83108 0.41787 0.0
H984 H 0.1618 0.64369 0.30786 0.0
H985 H 0.21574 0.68572 0.41371 0.0
H986 H 0.17343 0.64348 0.45276 0.0
H987 H 0.11683 0.59895 0.45611 0.0
H988 H 0.06489 0.55779 0.34832 0.0
H989 H 0.11095 0.59528 0.31072 0.0
C990 C 0.16453 0.64336 0.33952 0.0
C991 C 0.19125 0.66801 0.35807 0.0
C992 C 0.1403 0.61938 0.36135 0.0
C993 C 0.1952 0.66689 0.39893 0.0
C994 C 0.17089 0.64297 0.42115 0.0
C995 C 0.11589 0.59788 0.42441 0.0
C996 C 0.08683 0.57614 0.40515 0.0
C997 C 0.14265 0.61973 0.40264 0.0
C998 C 0.08635 0.57478 0.36403 0.0
C999 C 0.11276 0.59616 0.34238 0.0
H1000 H 0.39736 0.20347 0.34697 0.0
H1001 H 0.294 0.1582 0.40023 0.0
H1002 H 0.33333 0.11392 0.44043 0.0
H1003 H 0.39709 0.08256 0.45471 0.0
H1004 H 0.49877 0.12372 0.39453 0.0
H1005 H 0.46074 0.17473 0.36339 0.0
C1006 C 0.38367 0.18473 0.36829 0.0
C1007 C 0.34303 0.18449 0.3712 0.0
C1008 C 0.40631 0.1579 0.38969 0.0
C1009 C 0.3254 0.15918 0.39796 0.0
C1010 C 0.34785 0.13361 0.42068 0.0
C1011 C 0.41085 0.10304 0.43518 0.0
C1012 C 0.45071 0.09913 0.42694 0.0
C1013 C 0.38833 0.13178 0.41593 0.0
C1014 C 0.4681 0.12581 0.40129 0.0
C1015 C 0.44637 0.15513 0.38338 0.0
H1016 H 0.69916 0.8251 0.62485 0.0
H1017 H 0.60688 0.77966 0.6964 0.0
H1018 H 0.56146 0.82664 0.66851 0.0
H1019 H 0.54924 0.88432 0.6288 0.0
H1020 H 0.63994 0.92987 0.55572 0.0
H1021 H 0.68482 0.8793 0.57939 0.0
C1022 C 0.66891 0.82483 0.63361 0.0
C1023 C 0.65659 0.79904 0.66298 0.0
C1024 C 0.64291 0.85255 0.61792 0.0
C1025 C 0.61726 0.7993 0.67408 0.0
C1026 C 0.59127 0.82636 0.65836 0.0
C1027 C 0.57893 0.88333 0.6182 0.0
C1028 C 0.59167 0.91135 0.59141 0.0
C1029 C 0.6041 0.8539 0.63131 0.0
C1030 C 0.62973 0.90892 0.57686 0.0
C1031 C 0.65528 0.87995 0.59028 0.0
H1032 H 0.70921 0.18836 0.40697 0.0
H1033 H 0.61202 0.2421 0.34709 0.0
H1034 H 0.56679 0.20517 0.38739 0.0
H1035 H 0.55643 0.14702 0.42699 0.0
H1036 H 0.65465 0.08452 0.47444 0.0
H1037 H 0.69861 0.13559 0.45204 0.0
C1038 C 0.67813 0.19286 0.40343 0.0
C1039 C 0.66369 0.21689 0.37356 0.0
C1040 C 0.65281 0.16926 0.42396 0.0
C1041 C 0.62351 0.22298 0.36953 0.0
C1042 C 0.59779 0.20177 0.39232 0.0
C1043 C 0.58742 0.14525 0.43282 0.0
C1044 C 0.60304 0.11245 0.45118 0.0
C1045 C 0.61228 0.17303 0.41755 0.0
C1046 C 0.64279 0.10969 0.45947 0.0
C1047 C 0.66762 0.13874 0.44682 0.0
H1048 H 0.83826 0.70947 0.38683 0.0
H1049 H 0.77356 0.61378 0.33801 0.0
H1050 H 0.81591 0.56776 0.37283 0.0
H1051 H 0.87771 0.5555 0.40693 0.0
H1052 H 0.94478 0.65185 0.45172 0.0
H1053 H 0.89493 0.69711 0.42848 0.0
C1054 C 0.83285 0.6785 0.38462 0.0
C1055 C 0.8034 0.66483 0.35946 0.0
C1056 C 0.85828 0.65252 0.40311 0.0
C1057 C 0.79608 0.62486 0.35724 0.0
C1058 C 0.82064 0.59863 0.37667 0.0
C1059 C 0.88143 0.58639 0.41185 0.0
C1060 C 0.91557 0.60038 0.42998 0.0
C1061 C 0.85297 0.61222 0.39795 0.0
C1062 C 0.9192 0.64036 0.43722 0.0
C1063 C 0.89068 0.66624 0.424 0.0
H1064 H 0.34716 0.88391 0.31821 0.0
H1065 H 0.35067 0.79192 0.40383 0.0
H1066 H 0.39336 0.8313 0.44552 0.0
H1067 H 0.43218 0.89094 0.45593 0.0
H1068 H 0.43108 0.98015 0.3675 0.0
H1069 H 0.38422 0.943 0.32884 0.0
C1070 C 0.357 0.87235 0.34607 0.0
C1071 C 0.3457 0.83488 0.35779 0.0
C1072 C 0.38178 0.89484 0.36948 0.0
C1073 C 0.35906 0.82053 0.39395 0.0
C1074 C 0.38336 0.84311 0.41785 0.0
C1075 C 0.42102 0.90246 0.42853 0.0
C1076 C 0.43468 0.93834 0.41461 0.0
C1077 C 0.39513 0.88022 0.40576 0.0
C1078 C 0.42079 0.95267 0.37875 0.0
C1079 C 0.39418 0.93137 0.35661 0.0
H1080 H 0.17608 0.37769 0.31034 0.0
H1081 H 0.22001 0.31815 0.41207 0.0
H1082 H 0.17957 0.35955 0.4545 0.0
H1083 H 0.12538 0.40778 0.46116 0.0
H1084 H 0.08402 0.46714 0.3577 0.0
H1085 H 0.1302 0.43148 0.3177 0.0
C1086 C 0.17734 0.37438 0.3419 0.0
C1087 C 0.20063 0.34497 0.35818 0.0
C1088 C 0.15423 0.39817 0.36578 0.0
C1089 C 0.20232 0.34086 0.39902 0.0
C1090 C 0.17902 0.36435 0.42318 0.0
C1091 C 0.12721 0.41349 0.43005 0.0
C1092 C 0.10066 0.43954 0.41236 0.0
C1093 C 0.15395 0.39246 0.40677 0.0
C1094 C 0.1035 0.4467 0.37197 0.0
C1095 C 0.12992 0.4263 0.34896 0.0
H1096 H 0.3572 0.2128 0.63709 0.0
H1097 H 0.40923 0.18287 0.74832 0.0
H1098 H 0.45383 0.13813 0.71566 0.0
H1099 H 0.47109 0.10058 0.65685 0.0
H1100 H 0.42027 0.13093 0.54551 0.0
H1101 H 0.38177 0.18248 0.57682 0.0
C1102 C 0.37888 0.19712 0.65409 0.0
C1103 C 0.37944 0.20062 0.69514 0.0
C1104 C 0.40397 0.17099 0.6352 0.0
C1105 C 0.40809 0.18064 0.71672 0.0
C1106 C 0.43333 0.15472 0.69811 0.0
C1107 C 0.45184 0.11889 0.63954 0.0
C1108 C 0.44757 0.11184 0.59932 0.0
C1109 C 0.43035 0.1485 0.65765 0.0
C1110 C 0.42345 0.13592 0.57667 0.0
C1111 C 0.40154 0.16524 0.59455 0.0
H1112 H 0.83399 0.40755 0.68951 0.0
H1113 H 0.8064 0.33564 0.58968 0.0
H1114 H 0.85956 0.36542 0.55297 0.0
H1115 H 0.91709 0.40854 0.55129 0.0
H1116 H 0.94645 0.47579 0.65397 0.0
H1117 H 0.88942 0.45103 0.68747 0.0
C1118 C 0.83901 0.39871 0.65948 0.0
C1119 C 0.81598 0.36943 0.64239 0.0
C1120 C 0.87043 0.41475 0.63924 0.0
C1121 C 0.82353 0.35816 0.60358 0.0
C1122 C 0.85408 0.37503 0.58266 0.0
C1123 C 0.91087 0.41785 0.58095 0.0
C1124 C 0.93625 0.44378 0.6002 0.0
C1125 C 0.8783 0.40276 0.60052 0.0
C1126 C 0.92777 0.45552 0.63863 0.0
C1127 C 0.89503 0.44151 0.65778 0.0
H1128 H 0.13167 0.73296 0.65397 0.0
H1129 H 0.23237 0.65748 0.65151 0.0
H1130 H 0.20002 0.61574 0.60365 0.0
H1131 H 0.14004 0.59588 0.57058 0.0
H1132 H 0.03818 0.66912 0.57517 0.0
H1133 H 0.07457 0.7176 0.61311 0.0
C1134 C 0.14668 0.70753 0.64275 0.0
C1135 C 0.18402 0.69774 0.65701 0.0
C1136 C 0.12782 0.68358 0.61544 0.0
C1137 C 0.20347 0.66533 0.64142 0.0
C1138 C 0.18501 0.6415 0.61404 0.0
C1139 C 0.12624 0.62308 0.57891 0.0
C1140 C 0.08659 0.62905 0.57055 0.0
C1141 C 0.1468 0.64971 0.60189 0.0
C1142 C 0.0688 0.66422 0.58112 0.0
C1143 C 0.08943 0.69153 0.60331 0.0
loop_
_geom_bond_atom_site_label_1
_geom_bond_atom_site_label_2
_geom_bond_distance
_geom_bond_site_symmetry_2
_ccdc_geom_bond_type
O0 Zn1 1.953 . S
O0 C16 1.225 . S
Zn1 O0 1.953 . S
Zn1 O2 1.949 . S
Zn1 O8 1.919 . S
Zn1 O13 1.924 . S
O2 Zn1 1.949 . S
O2 Zn3 1.923 . S
O2 Zn4 1.950 . S
O2 Zn5 1.945 . S
Zn3 O2 1.923 . S
Zn3 O6 1.933 . S
Zn3 O9 1.941 . S
Zn3 O10 1.965 . S
Zn4 O2 1.950 . S
Zn4 O11 1.938 . S
Zn4 O12 1.906 . S
Zn4 O22 1.953 . S
Zn5 O2 1.945 . S
Zn5 O7 1.932 . S
Zn5 O14 1.977 . S
Zn5 O15 1.910 . S
O6 Zn3 1.933 . S
O6 C17 1.226 . S
O7 Zn5 1.932 . S
O7 C17 1.307 . S
O8 Zn1 1.919 . S
O8 C19 1.253 . S
O9 Zn3 1.941 . S
O9 C19 1.283 . S
O10 Zn3 1.965 . S
O10 C18 1.303 . S
O11 Zn4 1.938 . S
O11 C18 1.247 . S
O12 Zn4 1.906 . S
O12 C20 1.304 . S
O13 Zn1 1.924 . S
O13 C21 1.311 . S
O14 Zn5 1.977 . S
O14 C20 1.272 . S
O15 Zn5 1.910 . S
O15 C21 1.231 . S
C16 O0 1.225 . S
C16 O22 1.298 . S
C17 O6 1.226 . S
C17 O7 1.307 . S
C18 O10 1.303 . S
C18 O11 1.247 . S
C19 O8 1.253 . S
C19 O9 1.283 . S
C20 O12 1.304 . S
C20 O14 1.272 . S
C21 O13 1.311 . S
C21 O15 1.231 . S
O22 Zn4 1.953 . S
O22 C16 1.298 . S
O23 Zn24 1.953 . S
O23 C39 1.225 . S
Zn24 O23 1.953 . S
Zn24 O25 1.949 . S
Zn24 O31 1.919 . S
Zn24 O36 1.924 . S
O25 Zn24 1.949 . S
O25 Zn26 1.923 . S
O25 Zn27 1.950 . S
O25 Zn28 1.945 . S
Zn26 O25 1.923 . S
Zn26 O29 1.933 . S
Zn26 O32 1.941 . S
Zn26 O33 1.965 . S
Zn27 O25 1.950 . S
Zn27 O34 1.938 . S
Zn27 O35 1.906 . S
Zn27 O45 1.953 . S
Zn28 O25 1.945 . S
Zn28 O30 1.932 . S
Zn28 O37 1.977 . S
Zn28 O38 1.910 . S
O29 Zn26 1.933 . S
O29 C40 1.226 . S
O30 Zn28 1.932 . S
O30 C40 1.307 . S
O31 Zn24 1.919 . S
O31 C42 1.253 . S
O32 Zn26 1.941 . S
O32 C42 1.283 . S
O33 Zn26 1.965 . S
O33 C41 1.303 . S
O34 Zn27 1.938 . S
O34 C41 1.247 . S
O35 Zn27 1.906 . S
O35 C43 1.304 . S
O36 Zn24 1.924 . S
O36 C44 1.311 . S
O37 Zn28 1.977 . S
O37 C43 1.272 . S
O38 Zn28 1.910 . S
O38 C44 1.231 . S
C39 O23 1.225 . S
C39 O45 1.298 . S
C40 O29 1.226 . S
C40 O30 1.307 . S
C41 O33 1.303 . S
C41 O34 1.247 . S
C42 O31 1.253 . S
C42 O32 1.283 . S
C43 O35 1.304 . S
C43 O37 1.272 . S
C44 O36 1.311 . S
C44 O38 1.231 . S
O45 Zn27 1.953 . S
O45 C39 1.298 . S
O46 Zn47 1.953 . S
O46 C62 1.225 . S
Zn47 O46 1.953 . S
Zn47 O48 1.949 . S
Zn47 O54 1.919 . S
Zn47 O59 1.924 . S
O48 Zn47 1.949 . S
O48 Zn49 1.923 . S
O48 Zn50 1.950 . S
O48 Zn51 1.945 . S
Zn49 O48 1.923 . S
Zn49 O52 1.933 . S
Zn49 O55 1.941 . S
Zn49 O56 1.965 . S
Zn50 O48 1.950 . S
Zn50 O57 1.938 . S
Zn50 O58 1.906 . S
Zn50 O68 1.953 . S
Zn51 O48 1.945 . S
Zn51 O53 1.932 . S
Zn51 O60 1.977 . S
Zn51 O61 1.910 . S
O52 Zn49 1.933 . S
O52 C63 1.226 . S
O53 Zn51 1.932 . S
O53 C63 1.307 . S
O54 Zn47 1.919 . S
O54 C65 1.253 . S
O55 Zn49 1.941 . S
O55 C65 1.283 . S
O56 Zn49 1.965 . S
O56 C64 1.303 . S
O57 Zn50 1.938 . S
O57 C64 1.247 . S
O58 Zn50 1.906 . S
O58 C66 1.304 . S
O59 Zn47 1.924 . S
O59 C67 1.311 . S
O60 Zn51 1.977 . S
O60 C66 1.272 . S
O61 Zn51 1.910 . S
O61 C67 1.231 . S
C62 O46 1.225 . S
C62 O68 1.298 . S
C63 O52 1.226 . S
C63 O53 1.307 . S
C64 O56 1.303 . S
C64 O57 1.247 . S
C65 O54 1.253 . S
C65 O55 1.283 . S
C66 O58 1.304 . S
C66 O60 1.272 . S
C67 O59 1.311 . S
C67 O61 1.231 . S
O68 Zn50 1.953 . S
O68 C62 1.298 . S
O69 Zn70 1.953 . S
O69 C85 1.225 . S
Zn70 O69 1.953 . S
Zn70 O71 1.949 . S
Zn70 O77 1.919 . S
Zn70 O82 1.924 . S
O71 Zn70 1.949 . S
O71 Zn72 1.923 . S
O71 Zn73 1.950 . S
O71 Zn74 1.945 . S
Zn72 O71 1.923 . S
Zn72 O75 1.933 . S
Zn72 O78 1.941 . S
Zn72 O79 1.965 . S
Zn73 O71 1.950 . S
Zn73 O80 1.938 . S
Zn73 O81 1.906 . S
Zn73 O91 1.953 . S
Zn74 O71 1.945 . S
Zn74 O76 1.932 . S
Zn74 O83 1.977 . S
Zn74 O84 1.910 . S
O75 Zn72 1.933 . S
O75 C86 1.226 . S
O76 Zn74 1.932 . S
O76 C86 1.307 . S
O77 Zn70 1.919 . S
O77 C88 1.253 . S
O78 Zn72 1.941 . S
O78 C88 1.283 . S
O79 Zn72 1.965 . S
O79 C87 1.303 . S
O80 Zn73 1.938 . S
O80 C87 1.247 . S
O81 Zn73 1.906 . S
O81 C89 1.304 . S
O82 Zn70 1.924 . S
O82 C90 1.311 . S
O83 Zn74 1.977 . S
O83 C89 1.272 . S
O84 Zn74 1.910 . S
O84 C90 1.231 . S
C85 O69 1.225 . S
C85 O91 1.298 . S
C86 O75 1.226 . S
C86 O76 1.307 . S
C87 O79 1.303 . S
C87 O80 1.247 . S
C88 O77 1.253 . S
C88 O78 1.283 . S
C89 O81 1.304 . S
C89 O83 1.272 . S
C90 O82 1.311 . S
C90 O84 1.231 . S
O91 Zn73 1.953 . S
O91 C85 1.298 . S
O92 Zn93 1.953 . S
O92 C108 1.225 . S
Zn93 O92 1.953 . S
Zn93 O94 1.949 . S
Zn93 O100 1.919 . S
Zn93 O105 1.924 . S
O94 Zn93 1.949 . S
O94 Zn95 1.923 . S
O94 Zn96 1.950 . S
O94 Zn97 1.945 . S
Zn95 O94 1.923 . S
Zn95 O98 1.933 . S
Zn95 O101 1.941 . S
Zn95 O102 1.965 . S
Zn96 O94 1.950 . S
Zn96 O103 1.938 . S
Zn96 O104 1.906 . S
Zn96 O114 1.953 . S
Zn97 O94 1.945 . S
Zn97 O99 1.932 . S
Zn97 O106 1.977 . S
Zn97 O107 1.910 . S
O98 Zn95 1.933 . S
O98 C109 1.226 . S
O99 Zn97 1.932 . S
O99 C109 1.307 . S
O100 Zn93 1.919 . S
O100 C111 1.253 . S
O101 Zn95 1.941 . S
O101 C111 1.283 . S
O102 Zn95 1.965 . S
O102 C110 1.303 . S
O103 Zn96 1.938 . S
O103 C110 1.247 . S
O104 Zn96 1.906 . S
O104 C112 1.304 . S
O105 Zn93 1.924 . S
O105 C113 1.311 . S
O106 Zn97 1.977 . S
O106 C112 1.272 . S
O107 Zn97 1.910 . S
O107 C113 1.231 . S
C108 O92 1.225 . S
C108 O114 1.298 . S
C109 O98 1.226 . S
C109 O99 1.307 . S
C110 O102 1.303 . S
C110 O103 1.247 . S
C111 O100 1.253 . S
C111 O101 1.283 . S
C112 O104 1.304 . S
C112 O106 1.272 . S
C113 O105 1.311 . S
C113 O107 1.231 . S
O114 Zn96 1.953 . S
O114 C108 1.298 . S
O115 Zn116 1.953 . S
O115 C131 1.225 . S
Zn116 O115 1.953 . S
Zn116 O117 1.949 . S
Zn116 O123 1.919 . S
Zn116 O128 1.924 . S
O117 Zn116 1.949 . S
O117 Zn118 1.923 . S
O117 Zn119 1.950 . S
O117 Zn120 1.945 . S
Zn118 O117 1.923 . S
Zn118 O121 1.933 . S
Zn118 O124 1.941 . S
Zn118 O125 1.965 . S
Zn119 O117 1.950 . S
Zn119 O126 1.938 . S
Zn119 O127 1.906 . S
Zn119 O137 1.953 . S
Zn120 O117 1.945 . S
Zn120 O122 1.932 . S
Zn120 O129 1.977 . S
Zn120 O130 1.910 . S
O121 Zn118 1.933 . S
O121 C132 1.226 . S
O122 Zn120 1.932 . S
O122 C132 1.307 . S
O123 Zn116 1.919 . S
O123 C134 1.253 . S
O124 Zn118 1.941 . S
O124 C134 1.283 . S
O125 Zn118 1.965 . S
O125 C133 1.303 . S
O126 Zn119 1.938 . S
O126 C133 1.247 . S
O127 Zn119 1.906 . S
O127 C135 1.304 . S
O128 Zn116 1.924 . S
O128 C136 1.311 . S
O129 Zn120 1.977 . S
O129 C135 1.272 . S
O130 Zn120 1.910 . S
O130 C136 1.231 . S
C131 O115 1.225 . S
C131 O137 1.298 . S
C132 O121 1.226 . S
C132 O122 1.307 . S
C133 O125 1.303 . S
C133 O126 1.247 . S
C134 O123 1.253 . S
C134 O124 1.283 . S
C135 O127 1.304 . S
C135 O129 1.272 . S
C136 O128 1.311 . S
C136 O130 1.231 . S
O137 Zn119 1.953 . S
O137 C131 1.298 . S
O138 Zn139 1.953 . S
O138 C154 1.225 . S
Zn139 O138 1.953 . S
Zn139 O140 1.949 . S
Zn139 O146 1.919 . S
Zn139 O151 1.924 . S
O140 Zn139 1.949 . S
O140 Zn141 1.923 . S
O140 Zn142 1.950 . S
O140 Zn143 1.945 . S
Zn141 O140 1.923 . S
Zn141 O144 1.933 . S
Zn141 O147 1.941 . S
Zn141 O148 1.965 . S
Zn142 O140 1.950 . S
Zn142 O149 1.938 . S
Zn142 O150 1.906 . S
Zn142 O160 1.953 . S
Zn143 O140 1.945 . S
Zn143 O145 1.932 . S
Zn143 O152 1.977 . S
Zn143 O153 1.910 . S
O144 Zn141 1.933 . S
O144 C155 1.226 . S
O145 Zn143 1.932 . S
O145 C155 1.307 . S
O146 Zn139 1.919 . S
O146 C157 1.253 . S
O147 Zn141 1.941 . S
O147 C157 1.283 . S
O148 Zn141 1.965 . S
O148 C156 1.303 . S
O149 Zn142 1.938 . S
O149 C156 1.247 . S
O150 Zn142 1.906 . S
O150 C158 1.304 . S
O151 Zn139 1.924 . S
O151 C159 1.311 . S
O152 Zn143 1.977 . S
O152 C158 1.272 . S
O153 Zn143 1.910 . S
O153 C159 1.231 . S
C154 O138 1.225 . S
C154 O160 1.298 . S
C155 O144 1.226 . S
C155 O145 1.307 . S
C156 O148 1.303 . S
C156 O149 1.247 . S
C157 O146 1.253 . S
C157 O147 1.283 . S
C158 O150 1.304 . S
C158 O152 1.272 . S
C159 O151 1.311 . S
C159 O153 1.231 . S
O160 Zn142 1.953 . S
O160 C154 1.298 . S
O161 Zn162 1.953 . S
O161 C177 1.225 . S
Zn162 O161 1.953 . S
Zn162 O163 1.949 . S
Zn162 O169 1.919 . S
Zn162 O174 1.924 . S
O163 Zn162 1.949 . S
O163 Zn164 1.923 . S
O163 Zn165 1.950 . S
O163 Zn166 1.945 . S
Zn164 O163 1.923 . S
Zn164 O167 1.933 . S
Zn164 O170 1.941 . S
Zn164 O171 1.965 . S
Zn165 O163 1.950 . S
Zn165 O172 1.938 . S
Zn165 O173 1.906 . S
Zn165 O183 1.953 . S
Zn166 O163 1.945 . S
Zn166 O168 1.932 . S
Zn166 O175 1.977 . S
Zn166 O176 1.910 . S
O167 Zn164 1.933 . S
O167 C178 1.226 . S
O168 Zn166 1.932 . S
O168 C178 1.307 . S
O169 Zn162 1.919 . S
O169 C180 1.253 . S
O170 Zn164 1.941 . S
O170 C180 1.283 . S
O171 Zn164 1.965 . S
O171 C179 1.303 . S
O172 Zn165 1.938 . S
O172 C179 1.247 . S
O173 Zn165 1.906 . S
O173 C181 1.304 . S
O174 Zn162 1.924 . S
O174 C182 1.311 . S
O175 Zn166 1.977 . S
O175 C181 1.272 . S
O176 Zn166 1.910 . S
O176 C182 1.231 . S
C177 O161 1.225 . S
C177 O183 1.298 . S
C178 O167 1.226 . S
C178 O168 1.307 . S
C179 O171 1.303 . S
C179 O172 1.247 . S
C180 O169 1.253 . S
C180 O170 1.283 . S
C181 O173 1.304 . S
C181 O175 1.272 . S
C182 O174 1.311 . S
C182 O176 1.231 . S
O183 Zn165 1.953 . S
O183 C177 1.298 . S
Fe184 O185 1.886 1_455 S
Fe184 O188 1.715 . S
Fe184 O193 2.077 1_455 S
Fe184 O198 1.935 . S
Fe184 O204 2.077 1_455 S
Fe184 O213 1.935 . S
O185 Fe184 1.886 1_655 S
O185 Fe187 1.715 . S
Fe186 O188 1.886 . S
Fe186 O189 1.715 1_545 S
Fe186 O196 1.935 1_545 S
Fe186 O197 2.077 . S
Fe186 O203 1.935 1_545 S
Fe186 O212 2.077 . S
Fe187 O185 1.715 . S
Fe187 O190 1.886 1_545 S
Fe187 O194 1.935 . S
Fe187 O199 2.077 1_545 S
Fe187 O205 1.935 . S
Fe187 O209 2.077 1_545 S
O188 Fe184 1.715 . S
O188 Fe186 1.886 . S
O189 Fe186 1.715 1_565 S
O189 Fe191 1.886 . S
O190 Fe187 1.886 1_565 S
O190 Fe191 1.715 1_655 S
Fe191 O189 1.886 . S
Fe191 O190 1.715 1_455 S
Fe191 O195 2.077 . S
Fe191 O200 1.935 1_455 S
Fe191 O202 2.077 . S
Fe191 O210 1.935 1_455 S
C192 O204 1.381 . S
C192 O205 1.421 . S
O193 Fe184 2.077 1_655 S
O193 C206 1.381 . S
O194 Fe187 1.935 . S
O194 C206 1.421 . S
O195 Fe191 2.077 . S
O195 C211 1.381 . S
O196 Fe186 1.935 1_565 S
O196 C211 1.421 . S
O197 Fe186 2.077 . S
O197 C201 1.381 . S
O198 Fe184 1.935 . S
O198 C201 1.421 . S
O199 Fe187 2.077 1_565 S
O199 C207 1.381 . S
O200 Fe191 1.935 1_655 S
O200 C207 1.421 . S
C201 O197 1.381 . S
C201 O198 1.421 . S
O202 Fe191 2.077 . S
O202 C214 1.381 . S
O203 Fe186 1.935 1_565 S
O203 C214 1.421 . S
O204 Fe184 2.077 1_655 S
O204 C192 1.381 . S
O205 Fe187 1.935 . S
O205 C192 1.421 . S
C206 O193 1.381 . S
C206 O194 1.421 . S
C207 O199 1.381 . S
C207 O200 1.421 . S
C208 O209 1.381 . S
C208 O210 1.421 . S
O209 Fe187 2.077 1_565 S
O209 C208 1.381 . S
O210 Fe191 1.935 1_655 S
O210 C208 1.421 . S
C211 O195 1.381 . S
C211 O196 1.421 . S
O212 Fe186 2.077 . S
O212 C215 1.381 . S
O213 Fe184 1.935 . S
O213 C215 1.421 . S
C214 O202 1.381 . S
C214 O203 1.421 . S
C215 O212 1.381 . S
C215 O213 1.421 . S
Fe216 O217 1.886 . S
Fe216 O220 1.715 . S
Fe216 O225 2.077 1_554 S
Fe216 O230 1.935 1_554 S
Fe216 O236 2.077 . S
Fe216 O245 1.935 . S
O217 Fe216 1.886 . S
O217 Fe219 1.715 1_565 S
Fe218 O220 1.886 1_545 S
Fe218 O221 1.715 . S
Fe218 O228 1.935 1_554 S
Fe218 O229 2.077 1_544 S
Fe218 O235 1.935 . S
Fe218 O244 2.077 1_545 S
Fe219 O217 1.715 1_545 S
Fe219 O222 1.886 . S
Fe219 O226 1.935 1_544 S
Fe219 O231 2.077 1_554 S
Fe219 O237 1.935 1_545 S
Fe219 O241 2.077 . S
O220 Fe216 1.715 . S
O220 Fe218 1.886 1_565 S
O221 Fe218 1.715 . S
O221 Fe223 1.886 . S
O222 Fe219 1.886 . S
O222 Fe223 1.715 . S
Fe223 O221 1.886 . S
Fe223 O222 1.715 . S
Fe223 O227 2.077 1_554 S
Fe223 O232 1.935 1_554 S
Fe223 O234 2.077 . S
Fe223 O242 1.935 . S
C224 O236 1.381 . S
C224 O237 1.421 . S
O225 Fe216 2.077 1_556 S
O225 C238 1.381 . S
O226 Fe219 1.935 1_566 S
O226 C238 1.421 . S
O227 Fe223 2.077 1_556 S
O227 C243 1.381 . S
O228 Fe218 1.935 1_556 S
O228 C243 1.421 . S
O229 Fe218 2.077 1_566 S
O229 C233 1.381 . S
O230 Fe216 1.935 1_556 S
O230 C233 1.421 . S
O231 Fe219 2.077 1_556 S
O231 C239 1.381 . S
O232 Fe223 1.935 1_556 S
O232 C239 1.421 . S
C233 O229 1.381 . S
C233 O230 1.421 . S
O234 Fe223 2.077 . S
O234 C246 1.381 . S
O235 Fe218 1.935 . S
O235 C246 1.421 . S
O236 Fe216 2.077 . S
O236 C224 1.381 . S
O237 Fe219 1.935 1_565 S
O237 C224 1.421 . S
C238 O225 1.381 . S
C238 O226 1.421 . S
C239 O231 1.381 . S
C239 O232 1.421 . S
C240 O241 1.381 . S
C240 O242 1.421 . S
O241 Fe219 2.077 . S
O241 C240 1.381 . S
O242 Fe223 1.935 . S
O242 C240 1.421 . S
C243 O227 1.381 . S
C243 O228 1.421 . S
O244 Fe218 2.077 1_565 S
O244 C247 1.381 . S
O245 Fe216 1.935 . S
O245 C247 1.421 . S
C246 O234 1.381 . S
C246 O235 1.421 . S
C247 O244 1.381 . S
C247 O245 1.421 . S
Fe248 O249 1.886 1_455 S
Fe248 O252 1.715 . S
Fe248 O257 2.077 1_454 S
Fe248 O262 1.935 1_554 S
Fe248 O268 2.077 1_455 S
Fe248 O277 1.935 . S
O249 Fe248 1.886 1_655 S
O249 Fe251 1.715 . S
Fe250 O252 1.886 . S
Fe250 O253 1.715 . S
Fe250 O260 1.935 1_554 S
Fe250 O261 2.077 1_554 S
Fe250 O267 1.935 . S
Fe250 O276 2.077 . S
Fe251 O249 1.715 . S
Fe251 O254 1.886 . S
Fe251 O258 1.935 1_554 S
Fe251 O263 2.077 1_554 S
Fe251 O269 1.935 . S
Fe251 O273 2.077 . S
O252 Fe248 1.715 . S
O252 Fe250 1.886 . S
O253 Fe250 1.715 . S
O253 Fe255 1.886 . S
O254 Fe251 1.886 . S
O254 Fe255 1.715 1_655 S
Fe255 O253 1.886 . S
Fe255 O254 1.715 1_455 S
Fe255 O259 2.077 1_554 S
Fe255 O264 1.935 1_454 S
Fe255 O266 2.077 . S
Fe255 O274 1.935 1_455 S
C256 O268 1.381 . S
C256 O269 1.421 . S
O257 Fe248 2.077 1_656 S
O257 C270 1.381 . S
O258 Fe251 1.935 1_556 S
O258 C270 1.421 . S
O259 Fe255 2.077 1_556 S
O259 C275 1.381 . S
O260 Fe250 1.935 1_556 S
O260 C275 1.421 . S
O261 Fe250 2.077 1_556 S
O261 C265 1.381 . S
O262 Fe248 1.935 1_556 S
O262 C265 1.421 . S
O263 Fe251 2.077 1_556 S
O263 C271 1.381 . S
O264 Fe255 1.935 1_656 S
O264 C271 1.421 . S
C265 O261 1.381 . S
C265 O262 1.421 . S
O266 Fe255 2.077 . S
O266 C278 1.381 . S
O267 Fe250 1.935 . S
O267 C278 1.421 . S
O268 Fe248 2.077 1_655 S
O268 C256 1.381 . S
O269 Fe251 1.935 . S
O269 C256 1.421 . S
C270 O257 1.381 . S
C270 O258 1.421 . S
C271 O263 1.381 . S
C271 O264 1.421 . S
C272 O273 1.381 . S
C272 O274 1.421 . S
O273 Fe251 2.077 . S
O273 C272 1.381 . S
O274 Fe255 1.935 1_655 S
O274 C272 1.421 . S
C275 O259 1.381 . S
C275 O260 1.421 . S
O276 Fe250 2.077 . S
O276 C279 1.381 . S
O277 Fe248 1.935 . S
O277 C279 1.421 . S
C278 O266 1.381 . S
C278 O267 1.421 . S
C279 O276 1.381 . S
C279 O277 1.421 . S
Fe280 O281 1.886 . S
Fe280 O284 1.715 . S
Fe280 O289 2.077 . S
Fe280 O294 1.935 . S
Fe280 O300 2.077 . S
Fe280 O309 1.935 . S
O281 Fe280 1.886 . S
O281 Fe283 1.715 1_556 S
Fe282 O284 1.886 1_554 S
Fe282 O285 1.715 . S
Fe282 O292 1.935 . S
Fe282 O293 2.077 1_554 S
Fe282 O299 1.935 . S
Fe282 O308 2.077 1_554 S
Fe283 O281 1.715 1_554 S
Fe283 O286 1.886 . S
Fe283 O290 1.935 1_554 S
Fe283 O295 2.077 . S
Fe283 O301 1.935 1_554 S
Fe283 O305 2.077 . S
O284 Fe280 1.715 . S
O284 Fe282 1.886 1_556 S
O285 Fe282 1.715 . S
O285 Fe287 1.886 . S
O286 Fe283 1.886 . S
O286 Fe287 1.715 . S
Fe287 O285 1.886 . S
Fe287 O286 1.715 . S
Fe287 O291 2.077 . S
Fe287 O296 1.935 . S
Fe287 O298 2.077 . S
Fe287 O306 1.935 . S
C288 O300 1.381 . S
C288 O301 1.421 . S
O289 Fe280 2.077 . S
O289 C302 1.381 . S
O290 Fe283 1.935 1_556 S
O290 C302 1.421 . S
O291 Fe287 2.077 . S
O291 C307 1.381 . S
O292 Fe282 1.935 . S
O292 C307 1.421 . S
O293 Fe282 2.077 1_556 S
O293 C297 1.381 . S
O294 Fe280 1.935 . S
O294 C297 1.421 . S
O295 Fe283 2.077 . S
O295 C303 1.381 . S
O296 Fe287 1.935 . S
O296 C303 1.421 . S
C297 O293 1.381 . S
C297 O294 1.421 . S
O298 Fe287 2.077 . S
O298 C310 1.381 . S
O299 Fe282 1.935 . S
O299 C310 1.421 . S
O300 Fe280 2.077 . S
O300 C288 1.381 . S
O301 Fe283 1.935 1_556 S
O301 C288 1.421 . S
C302 O289 1.381 . S
C302 O290 1.421 . S
C303 O295 1.381 . S
C303 O296 1.421 . S
C304 O305 1.381 . S
C304 O306 1.421 . S
O305 Fe283 2.077 . S
O305 C304 1.381 . S
O306 Fe287 1.935 . S
O306 C304 1.421 . S
C307 O291 1.381 . S
C307 O292 1.421 . S
O308 Fe282 2.077 1_556 S
O308 C311 1.381 . S
O309 Fe280 1.935 . S
O309 C311 1.421 . S
C310 O298 1.381 . S
C310 O299 1.421 . S
C311 O308 1.381 . S
C311 O309 1.421 . S
Fe312 O313 1.886 . S
Fe312 O316 1.715 . S
Fe312 O321 2.077 . S
Fe312 O326 1.935 . S
Fe312 O332 2.077 1_455 S
Fe312 O341 1.935 1_455 S
O313 Fe312 1.886 . S
O313 Fe315 1.715 . S
Fe314 O316 1.886 . S
Fe314 O317 1.715 . S
Fe314 O324 1.935 . S
Fe314 O325 2.077 . S
Fe314 O331 1.935 1_455 S
Fe314 O340 2.077 1_455 S
Fe315 O313 1.715 . S
Fe315 O318 1.886 . S
Fe315 O322 1.935 . S
Fe315 O327 2.077 . S
Fe315 O333 1.935 1_455 S
Fe315 O337 2.077 1_455 S
O316 Fe312 1.715 . S
O316 Fe314 1.886 . S
O317 Fe314 1.715 . S
O317 Fe319 1.886 . S
O318 Fe315 1.886 . S
O318 Fe319 1.715 . S
Fe319 O317 1.886 . S
Fe319 O318 1.715 . S
Fe319 O323 2.077 . S
Fe319 O328 1.935 . S
Fe319 O330 2.077 1_455 S
Fe319 O338 1.935 1_455 S
C320 O332 1.381 . S
C320 O333 1.421 . S
O321 Fe312 2.077 . S
O321 C334 1.381 . S
O322 Fe315 1.935 . S
O322 C334 1.421 . S
O323 Fe319 2.077 . S
O323 C339 1.381 . S
O324 Fe314 1.935 . S
O324 C339 1.421 . S
O325 Fe314 2.077 . S
O325 C329 1.381 . S
O326 Fe312 1.935 . S
O326 C329 1.421 . S
O327 Fe315 2.077 . S
O327 C335 1.381 . S
O328 Fe319 1.935 . S
O328 C335 1.421 . S
C329 O325 1.381 . S
C329 O326 1.421 . S
O330 Fe319 2.077 1_655 S
O330 C342 1.381 . S
O331 Fe314 1.935 1_655 S
O331 C342 1.421 . S
O332 Fe312 2.077 1_655 S
O332 C320 1.381 . S
O333 Fe315 1.935 1_655 S
O333 C320 1.421 . S
C334 O321 1.381 . S
C334 O322 1.421 . S
C335 O327 1.381 . S
C335 O328 1.421 . S
C336 O337 1.381 . S
C336 O338 1.421 . S
O337 Fe315 2.077 1_655 S
O337 C336 1.381 . S
O338 Fe319 1.935 1_655 S
O338 C336 1.421 . S
C339 O323 1.381 . S
C339 O324 1.421 . S
O340 Fe314 2.077 1_655 S
O340 C343 1.381 . S
O341 Fe312 1.935 1_655 S
O341 C343 1.421 . S
C342 O330 1.381 . S
C342 O331 1.421 . S
C343 O340 1.381 . S
C343 O341 1.421 . S
Fe344 O345 1.886 . S
Fe344 O348 1.715 . S
Fe344 O353 2.077 . S
Fe344 O358 1.935 . S
Fe344 O364 2.077 . S
Fe344 O373 1.935 . S
O345 Fe344 1.886 . S
O345 Fe347 1.715 1_565 S
Fe346 O348 1.886 1_545 S
Fe346 O349 1.715 . S
Fe346 O356 1.935 . S
Fe346 O357 2.077 1_545 S
Fe346 O363 1.935 . S
Fe346 O372 2.077 1_545 S
Fe347 O345 1.715 1_545 S
Fe347 O350 1.886 . S
Fe347 O354 1.935 1_545 S
Fe347 O359 2.077 . S
Fe347 O365 1.935 1_545 S
Fe347 O369 2.077 . S
O348 Fe344 1.715 . S
O348 Fe346 1.886 1_565 S
O349 Fe346 1.715 . S
O349 Fe351 1.886 . S
O350 Fe347 1.886 . S
O350 Fe351 1.715 . S
Fe351 O349 1.886 . S
Fe351 O350 1.715 . S
Fe351 O355 2.077 . S
Fe351 O360 1.935 . S
Fe351 O362 2.077 . S
Fe351 O370 1.935 . S
C352 O364 1.381 . S
C352 O365 1.421 . S
O353 Fe344 2.077 . S
O353 C366 1.381 . S
O354 Fe347 1.935 1_565 S
O354 C366 1.421 . S
O355 Fe351 2.077 . S
O355 C371 1.381 . S
O356 Fe346 1.935 . S
O356 C371 1.421 . S
O357 Fe346 2.077 1_565 S
O357 C361 1.381 . S
O358 Fe344 1.935 . S
O358 C361 1.421 . S
O359 Fe347 2.077 . S
O359 C367 1.381 . S
O360 Fe351 1.935 . S
O360 C367 1.421 . S
C361 O357 1.381 . S
C361 O358 1.421 . S
O362 Fe351 2.077 . S
O362 C374 1.381 . S
O363 Fe346 1.935 . S
O363 C374 1.421 . S
O364 Fe344 2.077 . S
O364 C352 1.381 . S
O365 Fe347 1.935 1_565 S
O365 C352 1.421 . S
C366 O353 1.381 . S
C366 O354 1.421 . S
C367 O359 1.381 . S
C367 O360 1.421 . S
C368 O369 1.381 . S
C368 O370 1.421 . S
O369 Fe347 2.077 . S
O369 C368 1.381 . S
O370 Fe351 1.935 . S
O370 C368 1.421 . S
C371 O355 1.381 . S
C371 O356 1.421 . S
O372 Fe346 2.077 1_565 S
O372 C375 1.381 . S
O373 Fe344 1.935 . S
O373 C375 1.421 . S
C374 O362 1.381 . S
C374 O363 1.421 . S
C375 O372 1.381 . S
C375 O373 1.421 . S
H376 C382 0.930 . S
H377 C385 0.930 . S
H378 C386 0.930 . S
H379 C387 0.930 . S
H380 C390 0.930 . S
H381 C391 0.930 . S
C382 H376 0.930 . S
C382 C383 1.355 . S
C382 C384 1.415 . S
C383 C382 1.355 . S
C383 C385 1.419 . S
C384 C382 1.415 . S
C384 C389 1.425 . S
C384 C391 1.409 . S
C385 H377 0.930 . S
C385 C383 1.419 . S
C385 C386 1.362 . S
C386 H378 0.930 . S
C386 C385 1.362 . S
C386 C389 1.409 . S
C387 H379 0.930 . S
C387 C388 1.355 . S
C387 C389 1.415 . S
C388 C387 1.355 . S
C388 C390 1.419 . S
C389 C384 1.425 . S
C389 C386 1.409 . S
C389 C387 1.415 . S
C390 H380 0.930 . S
C390 C388 1.419 . S
C390 C391 1.362 . S
C391 H381 0.930 . S
C391 C384 1.409 . S
C391 C390 1.362 . S
H392 C398 0.930 . S
H393 C401 0.930 . S
H394 C402 0.930 . S
H395 C403 0.930 . S
H396 C406 0.930 . S
H397 C407 0.930 . S
C398 H392 0.930 . S
C398 C399 1.355 . S
C398 C400 1.415 . S
C399 C398 1.355 . S
C399 C401 1.419 . S
C400 C398 1.415 . S
C400 C405 1.425 . S
C400 C407 1.409 . S
C401 H393 0.930 . S
C401 C399 1.419 . S
C401 C402 1.362 . S
C402 H394 0.930 . S
C402 C401 1.362 . S
C402 C405 1.409 . S
C403 H395 0.930 . S
C403 C404 1.355 . S
C403 C405 1.415 . S
C404 C403 1.355 . S
C404 C406 1.419 . S
C405 C400 1.425 . S
C405 C402 1.409 . S
C405 C403 1.415 . S
C406 H396 0.930 . S
C406 C404 1.419 . S
C406 C407 1.362 . S
C407 H397 0.930 . S
C407 C400 1.409 . S
C407 C406 1.362 . S
H408 C414 0.930 . S
H409 C417 0.930 . S
H410 C418 0.930 . S
H411 C419 0.930 . S
H412 C422 0.930 . S
H413 C423 0.930 . S
C414 H408 0.930 . S
C414 C415 1.355 . S
C414 C416 1.415 . S
C415 C414 1.355 . S
C415 C417 1.419 . S
C416 C414 1.415 . S
C416 C421 1.425 . S
C416 C423 1.409 . S
C417 H409 0.930 . S
C417 C415 1.419 . S
C417 C418 1.362 . S
C418 H410 0.930 . S
C418 C417 1.362 . S
C418 C421 1.409 . S
C419 H411 0.930 . S
C419 C420 1.355 . S
C419 C421 1.415 . S
C420 C419 1.355 . S
C420 C422 1.419 . S
C421 C416 1.425 . S
C421 C418 1.409 . S
C421 C419 1.415 . S
C422 H412 0.930 . S
C422 C420 1.419 . S
C422 C423 1.362 . S
C423 H413 0.930 . S
C423 C416 1.409 . S
C423 C422 1.362 . S
H424 C430 0.930 . S
H425 C433 0.930 . S
H426 C434 0.930 . S
H427 C435 0.930 . S
H428 C438 0.930 . S
H429 C439 0.930 . S
C430 H424 0.930 . S
C430 C431 1.355 . S
C430 C432 1.415 . S
C431 C430 1.355 . S
C431 C433 1.419 . S
C432 C430 1.415 . S
C432 C437 1.425 . S
C432 C439 1.409 . S
C433 H425 0.930 . S
C433 C431 1.419 . S
C433 C434 1.362 . S
C434 H426 0.930 . S
C434 C433 1.362 . S
C434 C437 1.409 . S
C435 H427 0.930 . S
C435 C436 1.355 . S
C435 C437 1.415 . S
C436 C435 1.355 . S
C436 C438 1.419 . S
C437 C432 1.425 . S
C437 C434 1.409 . S
C437 C435 1.415 . S
C438 H428 0.930 . S
C438 C436 1.419 . S
C438 C439 1.362 . S
C439 H429 0.930 . S
C439 C432 1.409 . S
C439 C438 1.362 . S
H440 C446 0.930 . S
H441 C449 0.930 . S
H442 C450 0.930 . S
H443 C451 0.930 . S
H444 C454 0.930 . S
H445 C455 0.930 . S
C446 H440 0.930 . S
C446 C447 1.355 . S
C446 C448 1.415 . S
C447 C446 1.355 . S
C447 C449 1.419 . S
C448 C446 1.415 . S
C448 C453 1.425 . S
C448 C455 1.409 . S
C449 H441 0.930 . S
C449 C447 1.419 . S
C449 C450 1.362 . S
C450 H442 0.930 . S
C450 C449 1.362 . S
C450 C453 1.409 . S
C451 H443 0.930 . S
C451 C452 1.355 . S
C451 C453 1.415 . S
C452 C451 1.355 . S
C452 C454 1.419 . S
C453 C448 1.425 . S
C453 C450 1.409 . S
C453 C451 1.415 . S
C454 H444 0.930 . S
C454 C452 1.419 . S
C454 C455 1.362 . S
C455 H445 0.930 . S
C455 C448 1.409 . S
C455 C454 1.362 . S
H456 C462 0.930 . S
H457 C465 0.930 . S
H458 C466 0.930 . S
H459 C467 0.930 . S
H460 C470 0.930 . S
H461 C471 0.930 . S
C462 H456 0.930 . S
C462 C463 1.355 . S
C462 C464 1.415 . S
C463 C462 1.355 . S
C463 C465 1.419 . S
C464 C462 1.415 . S
C464 C469 1.425 . S
C464 C471 1.409 . S
C465 H457 0.930 . S
C465 C463 1.419 . S
C465 C466 1.362 . S
C466 H458 0.930 . S
C466 C465 1.362 . S
C466 C469 1.409 . S
C467 H459 0.930 . S
C467 C468 1.355 . S
C467 C469 1.415 . S
C468 C467 1.355 . S
C468 C470 1.419 . S
C469 C464 1.425 . S
C469 C466 1.409 . S
C469 C467 1.415 . S
C470 H460 0.930 . S
C470 C468 1.419 . S
C470 C471 1.362 . S
C471 H461 0.930 . S
C471 C464 1.409 . S
C471 C470 1.362 . S
H472 C478 0.930 . S
H473 C481 0.930 . S
H474 C482 0.930 . S
H475 C483 0.930 . S
H476 C486 0.930 . S
H477 C487 0.930 . S
C478 H472 0.930 . S
C478 C479 1.355 . S
C478 C480 1.415 . S
C479 C478 1.355 . S
C479 C481 1.419 . S
C480 C478 1.415 . S
C480 C485 1.425 . S
C480 C487 1.409 . S
C481 H473 0.930 . S
C481 C479 1.419 . S
C481 C482 1.362 . S
C482 H474 0.930 . S
C482 C481 1.362 . S
C482 C485 1.409 . S
C483 H475 0.930 . S
C483 C484 1.355 . S
C483 C485 1.415 . S
C484 C483 1.355 . S
C484 C486 1.419 . S
C485 C480 1.425 . S
C485 C482 1.409 . S
C485 C483 1.415 . S
C486 H476 0.930 . S
C486 C484 1.419 . S
C486 C487 1.362 . S
C487 H477 0.930 . S
C487 C480 1.409 . S
C487 C486 1.362 . S
H488 C494 0.930 . S
H489 C497 0.930 . S
H490 C498 0.930 . S
H491 C499 0.930 . S
H492 C502 0.930 . S
H493 C503 0.930 . S
C494 H488 0.930 . S
C494 C495 1.355 . S
C494 C496 1.415 . S
C495 C494 1.355 . S
C495 C497 1.419 . S
C496 C494 1.415 . S
C496 C501 1.425 . S
C496 C503 1.409 . S
C497 H489 0.930 . S
C497 C495 1.419 . S
C497 C498 1.362 . S
C498 H490 0.930 . S
C498 C497 1.362 . S
C498 C501 1.409 . S
C499 H491 0.930 . S
C499 C500 1.355 . S
C499 C501 1.415 . S
C500 C499 1.355 . S
C500 C502 1.419 . S
C501 C496 1.425 . S
C501 C498 1.409 . S
C501 C499 1.415 . S
C502 H492 0.930 . S
C502 C500 1.419 . S
C502 C503 1.362 . S
C503 H493 0.930 . S
C503 C496 1.409 . S
C503 C502 1.362 . S
H504 C510 0.930 . S
H505 C513 0.930 . S
H506 C514 0.930 . S
H507 C515 0.930 . S
H508 C518 0.930 . S
H509 C519 0.930 . S
C510 H504 0.930 . S
C510 C511 1.355 . S
C510 C512 1.415 . S
C511 C510 1.355 . S
C511 C513 1.419 . S
C512 C510 1.415 . S
C512 C517 1.425 . S
C512 C519 1.409 . S
C513 H505 0.930 . S
C513 C511 1.419 . S
C513 C514 1.362 . S
C514 H506 0.930 . S
C514 C513 1.362 . S
C514 C517 1.409 . S
C515 H507 0.930 . S
C515 C516 1.355 . S
C515 C517 1.415 . S
C516 C515 1.355 . S
C516 C518 1.419 . S
C517 C512 1.425 . S
C517 C514 1.409 . S
C517 C515 1.415 . S
C518 H508 0.930 . S
C518 C516 1.419 . S
C518 C519 1.362 . S
C519 H509 0.930 . S
C519 C512 1.409 . S
C519 C518 1.362 . S
H520 C526 0.930 . S
H521 C529 0.930 . S
H522 C530 0.930 . S
H523 C531 0.930 . S
H524 C534 0.930 . S
H525 C535 0.930 . S
C526 H520 0.930 . S
C526 C527 1.355 . S
C526 C528 1.415 . S
C527 C526 1.355 . S
C527 C529 1.419 . S
C528 C526 1.415 . S
C528 C533 1.425 . S
C528 C535 1.409 . S
C529 H521 0.930 . S
C529 C527 1.419 . S
C529 C530 1.362 . S
C530 H522 0.930 . S
C530 C529 1.362 . S
C530 C533 1.409 . S
C531 H523 0.930 . S
C531 C532 1.355 . S
C531 C533 1.415 . S
C532 C531 1.355 . S
C532 C534 1.419 . S
C533 C528 1.425 . S
C533 C530 1.409 . S
C533 C531 1.415 . S
C534 H524 0.930 . S
C534 C532 1.419 . S
C534 C535 1.362 . S
C535 H525 0.930 . S
C535 C528 1.409 . S
C535 C534 1.362 . S
H536 C542 0.930 . S
H537 C545 0.930 . S
H538 C546 0.930 . S
H539 C547 0.930 . S
H540 C550 0.930 . S
H541 C551 0.930 . S
C542 H536 0.930 . S
C542 C543 1.355 . S
C542 C544 1.415 . S
C543 C542 1.355 . S
C543 C545 1.419 . S
C544 C542 1.415 . S
C544 C549 1.425 . S
C544 C551 1.409 . S
C545 H537 0.930 . S
C545 C543 1.419 . S
C545 C546 1.362 . S
C546 H538 0.930 . S
C546 C545 1.362 . S
C546 C549 1.409 . S
C547 H539 0.930 . S
C547 C548 1.355 . S
C547 C549 1.415 . S
C548 C547 1.355 . S
C548 C550 1.419 . S
C549 C544 1.425 . S
C549 C546 1.409 . S
C549 C547 1.415 . S
C550 H540 0.930 . S
C550 C548 1.419 . S
C550 C551 1.362 . S
C551 H541 0.930 . S
C551 C544 1.409 . S
C551 C550 1.362 . S
H552 C558 0.930 . S
H553 C561 0.930 . S
H554 C562 0.930 . S
H555 C563 0.930 . S
H556 C566 0.930 . S
H557 C567 0.930 . S
C558 H552 0.930 . S
C558 C559 1.355 . S
C558 C560 1.415 . S
C559 C558 1.355 . S
C559 C561 1.419 . S
C560 C558 1.415 . S
C560 C565 1.425 . S
C560 C567 1.409 . S
C561 H553 0.930 . S
C561 C559 1.419 . S
C561 C562 1.362 . S
C562 H554 0.930 . S
C562 C561 1.362 . S
C562 C565 1.409 . S
C563 H555 0.930 . S
C563 C564 1.355 . S
C563 C565 1.415 . S
C564 C563 1.355 . S
C564 C566 1.419 . S
C565 C560 1.425 . S
C565 C562 1.409 . S
C565 C563 1.415 . S
C566 H556 0.930 . S
C566 C564 1.419 . S
C566 C567 1.362 . S
C567 H557 0.930 . S
C567 C560 1.409 . S
C567 C566 1.362 . S
H568 C574 0.930 . S
H569 C577 0.930 . S
H570 C578 0.930 . S
H571 C579 0.930 . S
H572 C582 0.930 . S
H573 C583 0.930 . S
C574 H568 0.930 . S
C574 C575 1.355 . S
C574 C576 1.415 . S
C575 C574 1.355 . S
C575 C577 1.419 . S
C576 C574 1.415 . S
C576 C581 1.425 . S
C576 C583 1.409 . S
C577 H569 0.930 . S
C577 C575 1.419 . S
C577 C578 1.362 . S
C578 H570 0.930 . S
C578 C577 1.362 . S
C578 C581 1.409 . S
C579 H571 0.930 . S
C579 C580 1.355 . S
C579 C581 1.415 . S
C580 C579 1.355 . S
C580 C582 1.419 . S
C581 C576 1.425 . S
C581 C578 1.409 . S
C581 C579 1.415 . S
C582 H572 0.930 . S
C582 C580 1.419 . S
C582 C583 1.362 . S
C583 H573 0.930 . S
C583 C576 1.409 . S
C583 C582 1.362 . S
H584 C590 0.930 . S
H585 C593 0.930 . S
H586 C594 0.930 . S
H587 C595 0.930 . S
H588 C598 0.930 . S
H589 C599 0.930 . S
C590 H584 0.930 . S
C590 C591 1.355 . S
C590 C592 1.415 . S
C591 C590 1.355 . S
C591 C593 1.419 . S
C592 C590 1.415 . S
C592 C597 1.425 . S
C592 C599 1.409 . S
C593 H585 0.930 . S
C593 C591 1.419 . S
C593 C594 1.362 . S
C594 H586 0.930 . S
C594 C593 1.362 . S
C594 C597 1.409 . S
C595 H587 0.930 . S
C595 C596 1.355 . S
C595 C597 1.415 . S
C596 C595 1.355 . S
C596 C598 1.419 . S
C597 C592 1.425 . S
C597 C594 1.409 . S
C597 C595 1.415 . S
C598 H588 0.930 . S
C598 C596 1.419 . S
C598 C599 1.362 . S
C599 H589 0.930 . S
C599 C592 1.409 . S
C599 C598 1.362 . S
H600 C606 0.930 . S
H601 C609 0.930 . S
H602 C610 0.930 . S
H603 C611 0.930 . S
H604 C614 0.930 . S
H605 C615 0.930 . S
C606 H600 0.930 . S
C606 C607 1.355 . S
C606 C608 1.415 . S
C607 C606 1.355 . S
C607 C609 1.419 . S
C608 C606 1.415 . S
C608 C613 1.425 . S
C608 C615 1.409 . S
C609 H601 0.930 . S
C609 C607 1.419 . S
C609 C610 1.362 . S
C610 H602 0.930 . S
C610 C609 1.362 . S
C610 C613 1.409 . S
C611 H603 0.930 . S
C611 C612 1.355 . S
C611 C613 1.415 . S
C612 C611 1.355 . S
C612 C614 1.419 . S
C613 C608 1.425 . S
C613 C610 1.409 . S
C613 C611 1.415 . S
C614 H604 0.930 . S
C614 C612 1.419 . S
C614 C615 1.362 . S
C615 H605 0.930 . S
C615 C608 1.409 . S
C615 C614 1.362 . S
H616 C622 0.930 . S
H617 C625 0.930 . S
H618 C626 0.930 . S
H619 C627 0.930 . S
H620 C630 0.930 . S
H621 C631 0.930 . S
C622 H616 0.930 . S
C622 C623 1.355 . S
C622 C624 1.415 . S
C623 C622 1.355 . S
C623 C625 1.419 . S
C624 C622 1.415 . S
C624 C629 1.425 . S
C624 C631 1.409 . S
C625 H617 0.930 . S
C625 C623 1.419 . S
C625 C626 1.362 . S
C626 H618 0.930 . S
C626 C625 1.362 . S
C626 C629 1.409 . S
C627 H619 0.930 . S
C627 C628 1.355 . S
C627 C629 1.415 . S
C628 C627 1.355 . S
C628 C630 1.419 . S
C629 C624 1.425 . S
C629 C626 1.409 . S
C629 C627 1.415 . S
C630 H620 0.930 . S
C630 C628 1.419 . S
C630 C631 1.362 . S
C631 H621 0.930 . S
C631 C624 1.409 . S
C631 C630 1.362 . S
H632 C638 0.930 . S
H633 C641 0.930 . S
H634 C642 0.930 . S
H635 C643 0.930 . S
H636 C646 0.930 . S
H637 C647 0.930 . S
C638 H632 0.930 . S
C638 C639 1.355 . S
C638 C640 1.415 . S
C639 C638 1.355 . S
C639 C641 1.419 . S
C640 C638 1.415 . S
C640 C645 1.425 . S
C640 C647 1.409 . S
C641 H633 0.930 . S
C641 C639 1.419 . S
C641 C642 1.362 . S
C642 H634 0.930 . S
C642 C641 1.362 . S
C642 C645 1.409 . S
C643 H635 0.930 . S
C643 C644 1.355 . S
C643 C645 1.415 . S
C644 C643 1.355 . S
C644 C646 1.419 . S
C645 C640 1.425 . S
C645 C642 1.409 . S
C645 C643 1.415 . S
C646 H636 0.930 . S
C646 C644 1.419 . S
C646 C647 1.362 . S
C647 H637 0.930 . S
C647 C640 1.409 . S
C647 C646 1.362 . S
H648 C654 0.930 . S
H649 C657 0.930 . S
H650 C658 0.930 . S
H651 C659 0.930 . S
H652 C662 0.930 . S
H653 C663 0.930 . S
C654 H648 0.930 . S
C654 C655 1.355 . S
C654 C656 1.415 . S
C655 C654 1.355 . S
C655 C657 1.419 . S
C656 C654 1.415 . S
C656 C661 1.425 . S
C656 C663 1.409 . S
C657 H649 0.930 . S
C657 C655 1.419 . S
C657 C658 1.362 . S
C658 H650 0.930 . S
C658 C657 1.362 . S
C658 C661 1.409 . S
C659 H651 0.930 . S
C659 C660 1.355 . S
C659 C661 1.415 . S
C660 C659 1.355 . S
C660 C662 1.419 . S
C661 C656 1.425 . S
C661 C658 1.409 . S
C661 C659 1.415 . S
C662 H652 0.930 . S
C662 C660 1.419 . S
C662 C663 1.362 . S
C663 H653 0.930 . S
C663 C656 1.409 . S
C663 C662 1.362 . S
H664 C670 0.930 . S
H665 C673 0.930 . S
H666 C674 0.930 . S
H667 C675 0.930 . S
H668 C678 0.930 . S
H669 C679 0.930 . S
C670 H664 0.930 . S
C670 C671 1.355 . S
C670 C672 1.415 . S
C671 C670 1.355 . S
C671 C673 1.419 . S
C672 C670 1.415 . S
C672 C677 1.425 . S
C672 C679 1.409 . S
C673 H665 0.930 . S
C673 C671 1.419 . S
C673 C674 1.362 . S
C674 H666 0.930 . S
C674 C673 1.362 . S
C674 C677 1.409 . S
C675 H667 0.930 . S
C675 C676 1.355 . S
C675 C677 1.415 . S
C676 C675 1.355 . S
C676 C678 1.419 . S
C677 C672 1.425 . S
C677 C674 1.409 . S
C677 C675 1.415 . S
C678 H668 0.930 . S
C678 C676 1.419 . S
C678 C679 1.362 . S
C679 H669 0.930 . S
C679 C672 1.409 . S
C679 C678 1.362 . S
H680 C686 0.930 . S
H681 C689 0.930 . S
H682 C690 0.930 . S
H683 C691 0.930 . S
H684 C694 0.930 . S
H685 C695 0.930 . S
C686 H680 0.930 . S
C686 C687 1.355 . S
C686 C688 1.415 . S
C687 C686 1.355 . S
C687 C689 1.419 . S
C688 C686 1.415 . S
C688 C693 1.425 . S
C688 C695 1.409 . S
C689 H681 0.930 . S
C689 C687 1.419 . S
C689 C690 1.362 . S
C690 H682 0.930 . S
C690 C689 1.362 . S
C690 C693 1.409 . S
C691 H683 0.930 . S
C691 C692 1.355 . S
C691 C693 1.415 . S
C692 C691 1.355 . S
C692 C694 1.419 . S
C693 C688 1.425 . S
C693 C690 1.409 . S
C693 C691 1.415 . S
C694 H684 0.930 . S
C694 C692 1.419 . S
C694 C695 1.362 . S
C695 H685 0.930 . S
C695 C688 1.409 . S
C695 C694 1.362 . S
H696 C702 0.930 . S
H697 C705 0.930 . S
H698 C706 0.930 . S
H699 C707 0.930 . S
H700 C710 0.930 . S
H701 C711 0.930 . S
C702 H696 0.930 . S
C702 C703 1.355 . S
C702 C704 1.415 . S
C703 C702 1.355 . S
C703 C705 1.419 . S
C704 C702 1.415 . S
C704 C709 1.425 . S
C704 C711 1.409 . S
C705 H697 0.930 . S
C705 C703 1.419 . S
C705 C706 1.362 . S
C706 H698 0.930 . S
C706 C705 1.362 . S
C706 C709 1.409 . S
C707 H699 0.930 . S
C707 C708 1.355 . S
C707 C709 1.415 . S
C708 C707 1.355 . S
C708 C710 1.419 . S
C709 C704 1.425 . S
C709 C706 1.409 . S
C709 C707 1.415 . S
C710 H700 0.930 . S
C710 C708 1.419 . S
C710 C711 1.362 . S
C711 H701 0.930 . S
C711 C704 1.409 . S
C711 C710 1.362 . S
H712 C718 0.930 . S
H713 C721 0.930 . S
H714 C722 0.930 . S
H715 C723 0.930 . S
H716 C726 0.930 . S
H717 C727 0.930 . S
C718 H712 0.930 . S
C718 C719 1.355 . S
C718 C720 1.415 . S
C719 C718 1.355 . S
C719 C721 1.419 . S
C720 C718 1.415 . S
C720 C725 1.425 . S
C720 C727 1.409 . S
C721 H713 0.930 . S
C721 C719 1.419 . S
C721 C722 1.362 . S
C722 H714 0.930 . S
C722 C721 1.362 . S
C722 C725 1.409 . S
C723 H715 0.930 . S
C723 C724 1.355 . S
C723 C725 1.415 . S
C724 C723 1.355 . S
C724 C726 1.419 . S
C725 C720 1.425 . S
C725 C722 1.409 . S
C725 C723 1.415 . S
C726 H716 0.930 . S
C726 C724 1.419 . S
C726 C727 1.362 . S
C727 H717 0.930 . S
C727 C720 1.409 . S
C727 C726 1.362 . S
H728 C734 0.930 . S
H729 C737 0.930 . S
H730 C738 0.930 . S
H731 C739 0.930 . S
H732 C742 0.930 . S
H733 C743 0.930 . S
C734 H728 0.930 . S
C734 C735 1.355 . S
C734 C736 1.415 . S
C735 C734 1.355 . S
C735 C737 1.419 . S
C736 C734 1.415 . S
C736 C741 1.425 . S
C736 C743 1.409 . S
C737 H729 0.930 . S
C737 C735 1.419 . S
C737 C738 1.362 . S
C738 H730 0.930 . S
C738 C737 1.362 . S
C738 C741 1.409 . S
C739 H731 0.930 . S
C739 C740 1.355 . S
C739 C741 1.415 . S
C740 C739 1.355 . S
C740 C742 1.419 . S
C741 C736 1.425 . S
C741 C738 1.409 . S
C741 C739 1.415 . S
C742 H732 0.930 . S
C742 C740 1.419 . S
C742 C743 1.362 . S
C743 H733 0.930 . S
C743 C736 1.409 . S
C743 C742 1.362 . S
H744 C750 0.930 . S
H745 C753 0.930 . S
H746 C754 0.930 . S
H747 C755 0.930 . S
H748 C758 0.930 . S
H749 C759 0.930 . S
C750 H744 0.930 . S
C750 C751 1.355 . S
C750 C752 1.415 . S
C751 C750 1.355 . S
C751 C753 1.419 . S
C752 C750 1.415 . S
C752 C757 1.425 . S
C752 C759 1.409 . S
C753 H745 0.930 . S
C753 C751 1.419 . S
C753 C754 1.362 . S
C754 H746 0.930 . S
C754 C753 1.362 . S
C754 C757 1.409 . S
C755 H747 0.930 . S
C755 C756 1.355 . S
C755 C757 1.415 . S
C756 C755 1.355 . S
C756 C758 1.419 . S
C757 C752 1.425 . S
C757 C754 1.409 . S
C757 C755 1.415 . S
C758 H748 0.930 . S
C758 C756 1.419 . S
C758 C759 1.362 . S
C759 H749 0.930 . S
C759 C752 1.409 . S
C759 C758 1.362 . S
H760 C766 0.930 . S
H761 C769 0.930 . S
H762 C770 0.930 . S
H763 C771 0.930 . S
H764 C774 0.930 . S
H765 C775 0.930 . S
C766 H760 0.930 . S
C766 C767 1.355 . S
C766 C768 1.415 . S
C767 C766 1.355 . S
C767 C769 1.419 . S
C768 C766 1.415 . S
C768 C773 1.425 . S
C768 C775 1.409 . S
C769 H761 0.930 . S
C769 C767 1.419 . S
C769 C770 1.362 . S
C770 H762 0.930 . S
C770 C769 1.362 . S
C770 C773 1.409 . S
C771 H763 0.930 . S
C771 C772 1.355 . S
C771 C773 1.415 . S
C772 C771 1.355 . S
C772 C774 1.419 . S
C773 C768 1.425 . S
C773 C770 1.409 . S
C773 C771 1.415 . S
C774 H764 0.930 . S
C774 C772 1.419 . S
C774 C775 1.362 . S
C775 H765 0.930 . S
C775 C768 1.409 . S
C775 C774 1.362 . S
H776 C782 0.930 . S
H777 C785 0.930 . S
H778 C786 0.930 . S
H779 C787 0.930 . S
H780 C790 0.930 . S
H781 C791 0.930 . S
C782 H776 0.930 . S
C782 C783 1.355 . S
C782 C784 1.415 . S
C783 C782 1.355 . S
C783 C785 1.419 . S
C784 C782 1.415 . S
C784 C789 1.425 . S
C784 C791 1.409 . S
C785 H777 0.930 . S
C785 C783 1.419 . S
C785 C786 1.362 . S
C786 H778 0.930 . S
C786 C785 1.362 . S
C786 C789 1.409 . S
C787 H779 0.930 . S
C787 C788 1.355 . S
C787 C789 1.415 . S
C788 C787 1.355 . S
C788 C790 1.419 . S
C789 C784 1.425 . S
C789 C786 1.409 . S
C789 C787 1.415 . S
C790 H780 0.930 . S
C790 C788 1.419 . S
C790 C791 1.362 . S
C791 H781 0.930 . S
C791 C784 1.409 . S
C791 C790 1.362 . S
H792 C798 0.930 . S
H793 C801 0.930 . S
H794 C802 0.930 . S
H795 C803 0.930 . S
H796 C806 0.930 . S
H797 C807 0.930 . S
C798 H792 0.930 . S
C798 C799 1.355 . S
C798 C800 1.415 . S
C799 C798 1.355 . S
C799 C801 1.419 . S
C800 C798 1.415 . S
C800 C805 1.425 . S
C800 C807 1.409 . S
C801 H793 0.930 . S
C801 C799 1.419 . S
C801 C802 1.362 . S
C802 H794 0.930 . S
C802 C801 1.362 . S
C802 C805 1.409 . S
C803 H795 0.930 . S
C803 C804 1.355 . S
C803 C805 1.415 . S
C804 C803 1.355 . S
C804 C806 1.419 . S
C805 C800 1.425 . S
C805 C802 1.409 . S
C805 C803 1.415 . S
C806 H796 0.930 . S
C806 C804 1.419 . S
C806 C807 1.362 . S
C807 H797 0.930 . S
C807 C800 1.409 . S
C807 C806 1.362 . S
H808 C814 0.930 . S
H809 C817 0.930 . S
H810 C818 0.930 . S
H811 C819 0.930 . S
H812 C822 0.930 . S
H813 C823 0.930 . S
C814 H808 0.930 . S
C814 C815 1.355 . S
C814 C816 1.415 . S
C815 C814 1.355 . S
C815 C817 1.419 . S
C816 C814 1.415 . S
C816 C821 1.425 . S
C816 C823 1.409 . S
C817 H809 0.930 . S
C817 C815 1.419 . S
C817 C818 1.362 . S
C818 H810 0.930 . S
C818 C817 1.362 . S
C818 C821 1.409 . S
C819 H811 0.930 . S
C819 C820 1.355 . S
C819 C821 1.415 . S
C820 C819 1.355 . S
C820 C822 1.419 . S
C821 C816 1.425 . S
C821 C818 1.409 . S
C821 C819 1.415 . S
C822 H812 0.930 . S
C822 C820 1.419 . S
C822 C823 1.362 . S
C823 H813 0.930 . S
C823 C816 1.409 . S
C823 C822 1.362 . S
H824 C830 0.930 . S
H825 C833 0.930 . S
H826 C834 0.930 . S
H827 C835 0.930 . S
H828 C838 0.930 . S
H829 C839 0.930 . S
C830 H824 0.930 . S
C830 C831 1.355 . S
C830 C832 1.415 . S
C831 C830 1.355 . S
C831 C833 1.419 . S
C832 C830 1.415 . S
C832 C837 1.425 . S
C832 C839 1.409 . S
C833 H825 0.930 . S
C833 C831 1.419 . S
C833 C834 1.362 . S
C834 H826 0.930 . S
C834 C833 1.362 . S
C834 C837 1.409 . S
C835 H827 0.930 . S
C835 C836 1.355 . S
C835 C837 1.415 . S
C836 C835 1.355 . S
C836 C838 1.419 . S
C837 C832 1.425 . S
C837 C834 1.409 . S
C837 C835 1.415 . S
C838 H828 0.930 . S
C838 C836 1.419 . S
C838 C839 1.362 . S
C839 H829 0.930 . S
C839 C832 1.409 . S
C839 C838 1.362 . S
H840 C846 0.930 . S
H841 C849 0.930 . S
H842 C850 0.930 . S
H843 C851 0.930 . S
H844 C854 0.930 . S
H845 C855 0.930 . S
C846 H840 0.930 . S
C846 C847 1.355 . S
C846 C848 1.415 . S
C847 C846 1.355 . S
C847 C849 1.419 . S
C848 C846 1.415 . S
C848 C853 1.425 . S
C848 C855 1.409 . S
C849 H841 0.930 . S
C849 C847 1.419 . S
C849 C850 1.362 . S
C850 H842 0.930 . S
C850 C849 1.362 . S
C850 C853 1.409 . S
C851 H843 0.930 . S
C851 C852 1.355 . S
C851 C853 1.415 . S
C852 C851 1.355 . S
C852 C854 1.419 . S
C853 C848 1.425 . S
C853 C850 1.409 . S
C853 C851 1.415 . S
C854 H844 0.930 . S
C854 C852 1.419 . S
C854 C855 1.362 . S
C855 H845 0.930 . S
C855 C848 1.409 . S
C855 C854 1.362 . S
H856 C862 0.930 . S
H857 C865 0.930 . S
H858 C866 0.930 . S
H859 C867 0.930 . S
H860 C870 0.930 . S
H861 C871 0.930 . S
C862 H856 0.930 . S
C862 C863 1.355 . S
C862 C864 1.415 . S
C863 C862 1.355 . S
C863 C865 1.419 . S
C864 C862 1.415 . S
C864 C869 1.425 . S
C864 C871 1.409 . S
C865 H857 0.930 . S
C865 C863 1.419 . S
C865 C866 1.362 . S
C866 H858 0.930 . S
C866 C865 1.362 . S
C866 C869 1.409 . S
C867 H859 0.930 . S
C867 C868 1.355 . S
C867 C869 1.415 . S
C868 C867 1.355 . S
C868 C870 1.419 . S
C869 C864 1.425 . S
C869 C866 1.409 . S
C869 C867 1.415 . S
C870 H860 0.930 . S
C870 C868 1.419 . S
C870 C871 1.362 . S
C871 H861 0.930 . S
C871 C864 1.409 . S
C871 C870 1.362 . S
H872 C878 0.930 . S
H873 C881 0.930 . S
H874 C882 0.930 . S
H875 C883 0.930 . S
H876 C886 0.930 . S
H877 C887 0.930 . S
C878 H872 0.930 . S
C878 C879 1.355 . S
C878 C880 1.415 . S
C879 C878 1.355 . S
C879 C881 1.419 . S
C880 C878 1.415 . S
C880 C885 1.425 . S
C880 C887 1.409 . S
C881 H873 0.930 . S
C881 C879 1.419 . S
C881 C882 1.362 . S
C882 H874 0.930 . S
C882 C881 1.362 . S
C882 C885 1.409 . S
C883 H875 0.930 . S
C883 C884 1.355 . S
C883 C885 1.415 . S
C884 C883 1.355 . S
C884 C886 1.419 . S
C885 C880 1.425 . S
C885 C882 1.409 . S
C885 C883 1.415 . S
C886 H876 0.930 . S
C886 C884 1.419 . S
C886 C887 1.362 . S
C887 H877 0.930 . S
C887 C880 1.409 . S
C887 C886 1.362 . S
H888 C894 0.930 . S
H889 C897 0.930 . S
H890 C898 0.930 . S
H891 C899 0.930 . S
H892 C902 0.930 . S
H893 C903 0.930 . S
C894 H888 0.930 . S
C894 C895 1.355 . S
C894 C896 1.415 . S
C895 C894 1.355 . S
C895 C897 1.419 . S
C896 C894 1.415 . S
C896 C901 1.425 . S
C896 C903 1.409 . S
C897 H889 0.930 . S
C897 C895 1.419 . S
C897 C898 1.362 . S
C898 H890 0.930 . S
C898 C897 1.362 . S
C898 C901 1.409 . S
C899 H891 0.930 . S
C899 C900 1.355 . S
C899 C901 1.415 . S
C900 C899 1.355 . S
C900 C902 1.419 . S
C901 C896 1.425 . S
C901 C898 1.409 . S
C901 C899 1.415 . S
C902 H892 0.930 . S
C902 C900 1.419 . S
C902 C903 1.362 . S
C903 H893 0.930 . S
C903 C896 1.409 . S
C903 C902 1.362 . S
H904 C910 0.930 . S
H905 C913 0.930 . S
H906 C914 0.930 . S
H907 C915 0.930 . S
H908 C918 0.930 . S
H909 C919 0.930 . S
C910 H904 0.930 . S
C910 C911 1.355 . S
C910 C912 1.415 . S
C911 C910 1.355 . S
C911 C913 1.419 . S
C912 C910 1.415 . S
C912 C917 1.425 . S
C912 C919 1.409 . S
C913 H905 0.930 . S
C913 C911 1.419 . S
C913 C914 1.362 . S
C914 H906 0.930 . S
C914 C913 1.362 . S
C914 C917 1.409 . S
C915 H907 0.930 . S
C915 C916 1.355 . S
C915 C917 1.415 . S
C916 C915 1.355 . S
C916 C918 1.419 . S
C917 C912 1.425 . S
C917 C914 1.409 . S
C917 C915 1.415 . S
C918 H908 0.930 . S
C918 C916 1.419 . S
C918 C919 1.362 . S
C919 H909 0.930 . S
C919 C912 1.409 . S
C919 C918 1.362 . S
H920 C926 0.930 . S
H921 C929 0.930 . S
H922 C930 0.930 . S
H923 C931 0.930 . S
H924 C934 0.930 . S
H925 C935 0.930 . S
C926 H920 0.930 . S
C926 C927 1.355 . S
C926 C928 1.415 . S
C927 C926 1.355 . S
C927 C929 1.419 . S
C928 C926 1.415 . S
C928 C933 1.425 . S
C928 C935 1.409 . S
C929 H921 0.930 . S
C929 C927 1.419 . S
C929 C930 1.362 . S
C930 H922 0.930 . S
C930 C929 1.362 . S
C930 C933 1.409 . S
C931 H923 0.930 . S
C931 C932 1.355 . S
C931 C933 1.415 . S
C932 C931 1.355 . S
C932 C934 1.419 . S
C933 C928 1.425 . S
C933 C930 1.409 . S
C933 C931 1.415 . S
C934 H924 0.930 . S
C934 C932 1.419 . S
C934 C935 1.362 . S
C935 H925 0.930 . S
C935 C928 1.409 . S
C935 C934 1.362 . S
H936 C942 0.930 . S
H937 C945 0.930 . S
H938 C946 0.930 . S
H939 C947 0.930 . S
H940 C950 0.930 . S
H941 C951 0.930 . S
C942 H936 0.930 . S
C942 C943 1.355 . S
C942 C944 1.415 . S
C943 C942 1.355 . S
C943 C945 1.419 . S
C944 C942 1.415 . S
C944 C949 1.425 . S
C944 C951 1.409 . S
C945 H937 0.930 . S
C945 C943 1.419 . S
C945 C946 1.362 . S
C946 H938 0.930 . S
C946 C945 1.362 . S
C946 C949 1.409 . S
C947 H939 0.930 . S
C947 C948 1.355 . S
C947 C949 1.415 . S
C948 C947 1.355 . S
C948 C950 1.419 . S
C949 C944 1.425 . S
C949 C946 1.409 . S
C949 C947 1.415 . S
C950 H940 0.930 . S
C950 C948 1.419 . S
C950 C951 1.362 . S
C951 H941 0.930 . S
C951 C944 1.409 . S
C951 C950 1.362 . S
H952 C958 0.930 . S
H953 C961 0.930 . S
H954 C962 0.930 . S
H955 C963 0.930 . S
H956 C966 0.930 . S
H957 C967 0.930 . S
C958 H952 0.930 . S
C958 C959 1.355 . S
C958 C960 1.415 . S
C959 C958 1.355 . S
C959 C961 1.419 . S
C960 C958 1.415 . S
C960 C965 1.425 . S
C960 C967 1.409 . S
C961 H953 0.930 . S
C961 C959 1.419 . S
C961 C962 1.362 . S
C962 H954 0.930 . S
C962 C961 1.362 . S
C962 C965 1.409 . S
C963 H955 0.930 . S
C963 C964 1.355 . S
C963 C965 1.415 . S
C964 C963 1.355 . S
C964 C966 1.419 . S
C965 C960 1.425 . S
C965 C962 1.409 . S
C965 C963 1.415 . S
C966 H956 0.930 . S
C966 C964 1.419 . S
C966 C967 1.362 . S
C967 H957 0.930 . S
C967 C960 1.409 . S
C967 C966 1.362 . S
H968 C974 0.930 . S
H969 C977 0.930 . S
H970 C978 0.930 . S
H971 C979 0.930 . S
H972 C982 0.930 . S
H973 C983 0.930 . S
C974 H968 0.930 . S
C974 C975 1.355 . S
C974 C976 1.415 . S
C975 C974 1.355 . S
C975 C977 1.419 . S
C976 C974 1.415 . S
C976 C981 1.425 . S
C976 C983 1.409 . S
C977 H969 0.930 . S
C977 C975 1.419 . S
C977 C978 1.362 . S
C978 H970 0.930 . S
C978 C977 1.362 . S
C978 C981 1.409 . S
C979 H971 0.930 . S
C979 C980 1.355 . S
C979 C981 1.415 . S
C980 C979 1.355 . S
C980 C982 1.419 . S
C981 C976 1.425 . S
C981 C978 1.409 . S
C981 C979 1.415 . S
C982 H972 0.930 . S
C982 C980 1.419 . S
C982 C983 1.362 . S
C983 H973 0.930 . S
C983 C976 1.409 . S
C983 C982 1.362 . S
H984 C990 0.930 . S
H985 C993 0.930 . S
H986 C994 0.930 . S
H987 C995 0.930 . S
H988 C998 0.930 . S
H989 C999 0.930 . S
C990 H984 0.930 . S
C990 C991 1.355 . S
C990 C992 1.415 . S
C991 C990 1.355 . S
C991 C993 1.419 . S
C992 C990 1.415 . S
C992 C997 1.425 . S
C992 C999 1.409 . S
C993 H985 0.930 . S
C993 C991 1.419 . S
C993 C994 1.362 . S
C994 H986 0.930 . S
C994 C993 1.362 . S
C994 C997 1.409 . S
C995 H987 0.930 . S
C995 C996 1.355 . S
C995 C997 1.415 . S
C996 C995 1.355 . S
C996 C998 1.419 . S
C997 C992 1.425 . S
C997 C994 1.409 . S
C997 C995 1.415 . S
C998 H988 0.930 . S
C998 C996 1.419 . S
C998 C999 1.362 . S
C999 H989 0.930 . S
C999 C992 1.409 . S
C999 C998 1.362 . S
H1000 C1006 0.930 . S
H1001 C1009 0.930 . S
H1002 C1010 0.930 . S
H1003 C1011 0.930 . S
H1004 C1014 0.930 . S
H1005 C1015 0.930 . S
C1006 H1000 0.930 . S
C1006 C1007 1.355 . S
C1006 C1008 1.415 . S
C1007 C1006 1.355 . S
C1007 C1009 1.419 . S
C1008 C1006 1.415 . S
C1008 C1013 1.425 . S
C1008 C1015 1.409 . S
C1009 H1001 0.930 . S
C1009 C1007 1.419 . S
C1009 C1010 1.362 . S
C1010 H1002 0.930 . S
C1010 C1009 1.362 . S
C1010 C1013 1.409 . S
C1011 H1003 0.930 . S
C1011 C1012 1.355 . S
C1011 C1013 1.415 . S
C1012 C1011 1.355 . S
C1012 C1014 1.419 . S
C1013 C1008 1.425 . S
C1013 C1010 1.409 . S
C1013 C1011 1.415 . S
C1014 H1004 0.930 . S
C1014 C1012 1.419 . S
C1014 C1015 1.362 . S
C1015 H1005 0.930 . S
C1015 C1008 1.409 . S
C1015 C1014 1.362 . S
H1016 C1022 0.930 . S
H1017 C1025 0.930 . S
H1018 C1026 0.930 . S
H1019 C1027 0.930 . S
H1020 C1030 0.930 . S
H1021 C1031 0.930 . S
C1022 H1016 0.930 . S
C1022 C1023 1.355 . S
C1022 C1024 1.415 . S
C1023 C1022 1.355 . S
C1023 C1025 1.419 . S
C1024 C1022 1.415 . S
C1024 C1029 1.425 . S
C1024 C1031 1.409 . S
C1025 H1017 0.930 . S
C1025 C1023 1.419 . S
C1025 C1026 1.362 . S
C1026 H1018 0.930 . S
C1026 C1025 1.362 . S
C1026 C1029 1.409 . S
C1027 H1019 0.930 . S
C1027 C1028 1.355 . S
C1027 C1029 1.415 . S
C1028 C1027 1.355 . S
C1028 C1030 1.419 . S
C1029 C1024 1.425 . S
C1029 C1026 1.409 . S
C1029 C1027 1.415 . S
C1030 H1020 0.930 . S
C1030 C1028 1.419 . S
C1030 C1031 1.362 . S
C1031 H1021 0.930 . S
C1031 C1024 1.409 . S
C1031 C1030 1.362 . S
H1032 C1038 0.930 . S
H1033 C1041 0.930 . S
H1034 C1042 0.930 . S
H1035 C1043 0.930 . S
H1036 C1046 0.930 . S
H1037 C1047 0.930 . S
C1038 H1032 0.930 . S
C1038 C1039 1.355 . S
C1038 C1040 1.415 . S
C1039 C1038 1.355 . S
C1039 C1041 1.419 . S
C1040 C1038 1.415 . S
C1040 C1045 1.425 . S
C1040 C1047 1.409 . S
C1041 H1033 0.930 . S
C1041 C1039 1.419 . S
C1041 C1042 1.362 . S
C1042 H1034 0.930 . S
C1042 C1041 1.362 . S
C1042 C1045 1.409 . S
C1043 H1035 0.930 . S
C1043 C1044 1.355 . S
C1043 C1045 1.415 . S
C1044 C1043 1.355 . S
C1044 C1046 1.419 . S
C1045 C1040 1.425 . S
C1045 C1042 1.409 . S
C1045 C1043 1.415 . S
C1046 H1036 0.930 . S
C1046 C1044 1.419 . S
C1046 C1047 1.362 . S
C1047 H1037 0.930 . S
C1047 C1040 1.409 . S
C1047 C1046 1.362 . S
H1048 C1054 0.930 . S
H1049 C1057 0.930 . S
H1050 C1058 0.930 . S
H1051 C1059 0.930 . S
H1052 C1062 0.930 . S
H1053 C1063 0.930 . S
C1054 H1048 0.930 . S
C1054 C1055 1.355 . S
C1054 C1056 1.415 . S
C1055 C1054 1.355 . S
C1055 C1057 1.419 . S
C1056 C1054 1.415 . S
C1056 C1061 1.425 . S
C1056 C1063 1.409 . S
C1057 H1049 0.930 . S
C1057 C1055 1.419 . S
C1057 C1058 1.362 . S
C1058 H1050 0.930 . S
C1058 C1057 1.362 . S
C1058 C1061 1.409 . S
C1059 H1051 0.930 . S
C1059 C1060 1.355 . S
C1059 C1061 1.415 . S
C1060 C1059 1.355 . S
C1060 C1062 1.419 . S
C1061 C1056 1.425 . S
C1061 C1058 1.409 . S
C1061 C1059 1.415 . S
C1062 H1052 0.930 . S
C1062 C1060 1.419 . S
C1062 C1063 1.362 . S
C1063 H1053 0.930 . S
C1063 C1056 1.409 . S
C1063 C1062 1.362 . S
H1064 C1070 0.930 . S
H1065 C1073 0.930 . S
H1066 C1074 0.930 . S
H1067 C1075 0.930 . S
H1068 C1078 0.930 . S
H1069 C1079 0.930 . S
C1070 H1064 0.930 . S
C1070 C1071 1.355 . S
C1070 C1072 1.415 . S
C1071 C1070 1.355 . S
C1071 C1073 1.419 . S
C1072 C1070 1.415 . S
C1072 C1077 1.425 . S
C1072 C1079 1.409 . S
C1073 H1065 0.930 . S
C1073 C1071 1.419 . S
C1073 C1074 1.362 . S
C1074 H1066 0.930 . S
C1074 C1073 1.362 . S
C1074 C1077 1.409 . S
C1075 H1067 0.930 . S
C1075 C1076 1.355 . S
C1075 C1077 1.415 . S
C1076 C1075 1.355 . S
C1076 C1078 1.419 . S
C1077 C1072 1.425 . S
C1077 C1074 1.409 . S
C1077 C1075 1.415 . S
C1078 H1068 0.930 . S
C1078 C1076 1.419 . S
C1078 C1079 1.362 . S
C1079 H1069 0.930 . S
C1079 C1072 1.409 . S
C1079 C1078 1.362 . S
H1080 C1086 0.930 . S
H1081 C1089 0.930 . S
H1082 C1090 0.930 . S
H1083 C1091 0.930 . S
H1084 C1094 0.930 . S
H1085 C1095 0.930 . S
C1086 H1080 0.930 . S
C1086 C1087 1.355 . S
C1086 C1088 1.415 . S
C1087 C1086 1.355 . S
C1087 C1089 1.419 . S
C1088 C1086 1.415 . S
C1088 C1093 1.425 . S
C1088 C1095 1.409 . S
C1089 H1081 0.930 . S
C1089 C1087 1.419 . S
C1089 C1090 1.362 . S
C1090 H1082 0.930 . S
C1090 C1089 1.362 . S
C1090 C1093 1.409 . S
C1091 H1083 0.930 . S
C1091 C1092 1.355 . S
C1091 C1093 1.415 . S
C1092 C1091 1.355 . S
C1092 C1094 1.419 . S
C1093 C1088 1.425 . S
C1093 C1090 1.409 . S
C1093 C1091 1.415 . S
C1094 H1084 0.930 . S
C1094 C1092 1.419 . S
C1094 C1095 1.362 . S
C1095 H1085 0.930 . S
C1095 C1088 1.409 . S
C1095 C1094 1.362 . S
H1096 C1102 0.930 . S
H1097 C1105 0.930 . S
H1098 C1106 0.930 . S
H1099 C1107 0.930 . S
H1100 C1110 0.930 . S
H1101 C1111 0.930 . S
C1102 H1096 0.930 . S
C1102 C1103 1.355 . S
C1102 C1104 1.415 . S
C1103 C1102 1.355 . S
C1103 C1105 1.419 . S
C1104 C1102 1.415 . S
C1104 C1109 1.425 . S
C1104 C1111 1.409 . S
C1105 H1097 0.930 . S
C1105 C1103 1.419 . S
C1105 C1106 1.362 . S
C1106 H1098 0.930 . S
C1106 C1105 1.362 . S
C1106 C1109 1.409 . S
C1107 H1099 0.930 . S
C1107 C1108 1.355 . S
C1107 C1109 1.415 . S
C1108 C1107 1.355 . S
C1108 C1110 1.419 . S
C1109 C1104 1.425 . S
C1109 C1106 1.409 . S
C1109 C1107 1.415 . S
C1110 H1100 0.930 . S
C1110 C1108 1.419 . S
C1110 C1111 1.362 . S
C1111 H1101 0.930 . S
C1111 C1104 1.409 . S
C1111 C1110 1.362 . S
H1112 C1118 0.930 . S
H1113 C1121 0.930 . S
H1114 C1122 0.930 . S
H1115 C1123 0.930 . S
H1116 C1126 0.930 . S
H1117 C1127 0.930 . S
C1118 H1112 0.930 . S
C1118 C1119 1.355 . S
C1118 C1120 1.415 . S
C1119 C1118 1.355 . S
C1119 C1121 1.419 . S
C1120 C1118 1.415 . S
C1120 C1125 1.425 . S
C1120 C1127 1.409 . S
C1121 H1113 0.930 . S
C1121 C1119 1.419 . S
C1121 C1122 1.362 . S
C1122 H1114 0.930 . S
C1122 C1121 1.362 . S
C1122 C1125 1.409 . S
C1123 H1115 0.930 . S
C1123 C1124 1.355 . S
C1123 C1125 1.415 . S
C1124 C1123 1.355 . S
C1124 C1126 1.419 . S
C1125 C1120 1.425 . S
C1125 C1122 1.409 . S
C1125 C1123 1.415 . S
C1126 H1116 0.930 . S
C1126 C1124 1.419 . S
C1126 C1127 1.362 . S
C1127 H1117 0.930 . S
C1127 C1120 1.409 . S
C1127 C1126 1.362 . S
H1128 C1134 0.930 . S
H1129 C1137 0.930 . S
H1130 C1138 0.930 . S
H1131 C1139 0.930 . S
H1132 C1142 0.930 . S
H1133 C1143 0.930 . S
C1134 H1128 0.930 . S
C1134 C1135 1.355 . S
C1134 C1136 1.415 . S
C1135 C1134 1.355 . S
C1135 C1137 1.419 . S
C1136 C1134 1.415 . S
C1136 C1141 1.425 . S
C1136 C1143 1.409 . S
C1137 H1129 0.930 . S
C1137 C1135 1.419 . S
C1137 C1138 1.362 . S
C1138 H1130 0.930 . S
C1138 C1137 1.362 . S
C1138 C1141 1.409 . S
C1139 H1131 0.930 . S
C1139 C1140 1.355 . S
C1139 C1141 1.415 . S
C1140 C1139 1.355 . S
C1140 C1142 1.419 . S
C1141 C1136 1.425 . S
C1141 C1138 1.409 . S
C1141 C1139 1.415 . S
C1142 H1132 0.930 . S
C1142 C1140 1.419 . S
C1142 C1143 1.362 . S
C1143 H1133 0.930 . S
C1143 C1136 1.409 . S
C1143 C1142 1.362 . S
C388 C201 1.295 . S
C383 C17 1.328 . S
C404 C206 1.570 . S
C399 C44 1.395 . S
C420 C207 1.365 . S
C415 C63 1.313 . S
C431 C87 1.308 . S
C436 C211 1.270 . S
C447 C110 1.299 . S
C452 C214 1.256 . S
C468 C215 1.359 . S
C463 C131 1.377 . S
C479 C159 1.388 . S
C484 C192 1.542 . S
C495 C177 1.300 . S
C500 C208 1.356 . S
C516 C246 1.363 . S
C511 C20 1.251 . S
C527 C42 1.367 . S
C532 C272 1.315 . S
C548 C224 1.419 . S
C543 C66 1.290 . S
C564 C279 1.225 . S
C559 C86 1.287 . S
C575 C109 1.248 . S
C580 C233 1.214 . S
C596 C275 1.478 . S
C591 C136 1.414 . S
C607 C157 1.341 . S
C612 C239 1.389 . S
C623 C182 1.346 . S
C628 C270 1.444 . S
C639 C18 1.328 . S
C644 C278 1.321 . S
C655 C112 1.333 . S
C660 C265 1.366 . S
C676 C243 1.310 . S
C671 C134 1.312 . S
C692 C271 1.373 . S
C687 C154 1.392 . S
C703 C180 1.270 . S
C708 C238 1.262 . S
C719 C64 1.321 . S
C724 C256 1.227 . S
C740 C247 1.351 . S
C735 C89 1.323 . S
C751 C39 1.430 . S
C756 C240 1.395 . S
C767 C178 1.257 . S
C772 C302 1.224 . S
C783 C113 1.436 . S
C788 C297 1.465 . S
C804 C311 1.252 . S
C799 C132 1.289 . S
C820 C288 1.259 . S
C815 C156 1.307 . S
C831 C41 1.283 . S
C836 C304 1.218 . S
C852 C303 1.246 . S
C847 C62 1.303 . S
C863 C90 1.331 . S
C868 C307 1.475 . S
C879 C16 1.301 . S
C884 C310 1.310 . S
C895 C181 1.340 . S
C900 C336 1.454 . S
C916 C352 1.318 . S
C911 C111 1.344 . S
C927 C135 1.281 . S
C932 C334 1.519 . S
C943 C155 1.320 . S
C948 C367 1.301 . S
C964 C343 1.257 . S
C959 C40 1.301 . S
C975 C67 1.344 . S
C980 C361 1.388 . S
C996 C339 1.399 . S
C991 C88 1.350 . S
C1012 C374 1.380 . S
C1007 C21 1.313 . S
C1028 C366 1.350 . S
C1023 C179 1.340 . S
C1039 C43 1.256 . S
C1044 C371 1.411 . S
C1055 C65 1.274 . S
C1060 C342 1.265 . S
C1076 C375 1.369 . S
C1071 C85 1.424 . S
C1087 C19 1.333 . S
C1092 C329 1.302 . S
C1103 C133 1.334 . S
C1108 C368 1.321 . S
C1124 C320 1.432 . S
C1119 C158 1.347 . S
C1140 C335 1.428 . S
C1135 C108 1.388 . S
