# Generated by pormake.
# Topology iac, (4,6)-cn, num edge types: 1
# Building blocks:
#     Node 0, Type 0, BuildingBlock: QUQFOY_clean_sbu_3, # of connection points: 4
#     Node 1, Type 0, BuildingBlock: QUQFOY_clean_sbu_3, # of connection points: 4
#     Node 2, Type 0, BuildingBlock: QUQFOY_clean_sbu_3, # of connection points: 4
#     Node 3, Type 0, BuildingBlock: QUQFOY_clean_sbu_3, # of connection points: 4
#     Node 4, Type 0, BuildingBlock: QUQFOY_clean_sbu_3, # of connection points: 4
#     Node 5, Type 0, BuildingBlock: QUQFOY_clean_sbu_3, # of connection points: 4
#     Node 6, Type 0, BuildingBlock: QUQFOY_clean_sbu_3, # of connection points: 4
#     Node 7, Type 0, BuildingBlock: QUQFOY_clean_sbu_3, # of connection points: 4
#     Node 8, Type 0, BuildingBlock: QUQFOY_clean_sbu_3, # of connection points: 4
#     Node 9, Type 0, BuildingBlock: QUQFOY_clean_sbu_3, # of connection points: 4
#     Node 10, Type 0, BuildingBlock: QUQFOY_clean_sbu_3, # of connection points: 4
#     Node 11, Type 0, BuildingBlock: QUQFOY_clean_sbu_3, # of connection points: 4
#     Node 12, Type 0, BuildingBlock: QUQFOY_clean_sbu_3, # of connection points: 4
#     Node 13, Type 0, BuildingBlock: QUQFOY_clean_sbu_3, # of connection points: 4
#     Node 14, Type 0, BuildingBlock: QUQFOY_clean_sbu_3, # of connection points: 4
#     Node 15, Type 0, BuildingBlock: QUQFOY_clean_sbu_3, # of connection points: 4
#     Node 16, Type 0, BuildingBlock: QUQFOY_clean_sbu_3, # of connection points: 4
#     Node 17, Type 0, BuildingBlock: QUQFOY_clean_sbu_3, # of connection points: 4
#     Node 18, Type 0, BuildingBlock: QUQFOY_clean_sbu_3, # of connection points: 4
#     Node 19, Type 0, BuildingBlock: QUQFOY_clean_sbu_3, # of connection points: 4
#     Node 20, Type 0, BuildingBlock: QUQFOY_clean_sbu_3, # of connection points: 4
#     Node 21, Type 0, BuildingBlock: QUQFOY_clean_sbu_3, # of connection points: 4
#     Node 22, Type 0, BuildingBlock: QUQFOY_clean_sbu_3, # of connection points: 4
#     Node 23, Type 0, BuildingBlock: QUQFOY_clean_sbu_3, # of connection points: 4
#     Node 24, Type 1, BuildingBlock: LEVNOQ01_clean_sbu_1, # of connection points: 6
#     Node 25, Type 1, BuildingBlock: LEVNOQ01_clean_sbu_1, # of connection points: 6
#     Node 26, Type 1, BuildingBlock: LEVNOQ01_clean_sbu_1, # of connection points: 6
#     Node 27, Type 1, BuildingBlock: LEVNOQ01_clean_sbu_1, # of connection points: 6
#     Node 28, Type 1, BuildingBlock: LEVNOQ01_clean_sbu_1, # of connection points: 6
#     Node 29, Type 1, BuildingBlock: LEVNOQ01_clean_sbu_1, # of connection points: 6
#     Node 30, Type 1, BuildingBlock: LEVNOQ01_clean_sbu_1, # of connection points: 6
#     Node 31, Type 1, BuildingBlock: LEVNOQ01_clean_sbu_1, # of connection points: 6
#     Node 32, Type 1, BuildingBlock: LEVNOQ01_clean_sbu_1, # of connection points: 6
#     Node 33, Type 1, BuildingBlock: LEVNOQ01_clean_sbu_1, # of connection points: 6
#     Node 34, Type 1, BuildingBlock: LEVNOQ01_clean_sbu_1, # of connection points: 6
#     Node 35, Type 1, BuildingBlock: LEVNOQ01_clean_sbu_1, # of connection points: 6
#     Node 36, Type 1, BuildingBlock: LEVNOQ01_clean_sbu_1, # of connection points: 6
#     Node 37, Type 1, BuildingBlock: LEVNOQ01_clean_sbu_1, # of connection points: 6
#     Node 38, Type 1, BuildingBlock: LEVNOQ01_clean_sbu_1, # of connection points: 6
#     Node 39, Type 1, BuildingBlock: LEVNOQ01_clean_sbu_1, # of connection points: 6
#     Edge 40, Type (0, 1), BuildingBlock: XUDNAN_clean_linker_2, # of connection points: 2
#     Edge 41, Type (0, 1), BuildingBlock: XUDNAN_clean_linker_2, # of connection points: 2
#     Edge 42, Type (0, 1), BuildingBlock: XUDNAN_clean_linker_2, # of connection points: 2
#     Edge 43, Type (0, 1), BuildingBlock: XUDNAN_clean_linker_2, # of connection points: 2
#     Edge 44, Type (0, 1), BuildingBlock: XUDNAN_clean_linker_2, # of connection points: 2
#     Edge 45, Type (0, 1), BuildingBlock: XUDNAN_clean_linker_2, # of connection points: 2
#     Edge 46, Type (0, 1), BuildingBlock: XUDNAN_clean_linker_2, # of connection points: 2
#     Edge 47, Type (0, 1), BuildingBlock: XUDNAN_clean_linker_2, # of connection points: 2
#     Edge 48, Type (0, 1), BuildingBlock: XUDNAN_clean_linker_2, # of connection points: 2
#     Edge 49, Type (0, 1), BuildingBlock: XUDNAN_clean_linker_2, # of connection points: 2
#     Edge 50, Type (0, 1), BuildingBlock: XUDNAN_clean_linker_2, # of connection points: 2
#     Edge 51, Type (0, 1), BuildingBlock: XUDNAN_clean_linker_2, # of connection points: 2
#     Edge 52, Type (0, 1), BuildingBlock: XUDNAN_clean_linker_2, # of connection points: 2
#     Edge 53, Type (0, 1), BuildingBlock: XUDNAN_clean_linker_2, # of connection points: 2
#     Edge 54, Type (0, 1), BuildingBlock: XUDNAN_clean_linker_2, # of connection points: 2
#     Edge 55, Type (0, 1), BuildingBlock: XUDNAN_clean_linker_2, # of connection points: 2
#     Edge 56, Type (0, 1), BuildingBlock: XUDNAN_clean_linker_2, # of connection points: 2
#     Edge 57, Type (0, 1), BuildingBlock: XUDNAN_clean_linker_2, # of connection points: 2
#     Edge 58, Type (0, 1), BuildingBlock: XUDNAN_clean_linker_2, # of connection points: 2
#     Edge 59, Type (0, 1), BuildingBlock: XUDNAN_clean_linker_2, # of connection points: 2
#     Edge 60, Type (0, 1), BuildingBlock: XUDNAN_clean_linker_2, # of connection points: 2
#     Edge 61, Type (0, 1), BuildingBlock: XUDNAN_clean_linker_2, # of connection points: 2
#     Edge 62, Type (0, 1), BuildingBlock: XUDNAN_clean_linker_2, # of connection points: 2
#     Edge 63, Type (0, 1), BuildingBlock: XUDNAN_clean_linker_2, # of connection points: 2
#     Edge 64, Type (0, 1), BuildingBlock: XUDNAN_clean_linker_2, # of connection points: 2
#     Edge 65, Type (0, 1), BuildingBlock: XUDNAN_clean_linker_2, # of connection points: 2
#     Edge 66, Type (0, 1), BuildingBlock: XUDNAN_clean_linker_2, # of connection points: 2
#     Edge 67, Type (0, 1), BuildingBlock: XUDNAN_clean_linker_2, # of connection points: 2
#     Edge 68, Type (0, 1), BuildingBlock: XUDNAN_clean_linker_2, # of connection points: 2
#     Edge 69, Type (0, 1), BuildingBlock: XUDNAN_clean_linker_2, # of connection points: 2
#     Edge 70, Type (0, 1), BuildingBlock: XUDNAN_clean_linker_2, # of connection points: 2
#     Edge 71, Type (0, 1), BuildingBlock: XUDNAN_clean_linker_2, # of connection points: 2
#     Edge 72, Type (0, 1), BuildingBlock: XUDNAN_clean_linker_2, # of connection points: 2
#     Edge 73, Type (0, 1), BuildingBlock: XUDNAN_clean_linker_2, # of connection points: 2
#     Edge 74, Type (0, 1), BuildingBlock: XUDNAN_clean_linker_2, # of connection points: 2
#     Edge 75, Type (0, 1), BuildingBlock: XUDNAN_clean_linker_2, # of connection points: 2
#     Edge 76, Type (0, 1), BuildingBlock: XUDNAN_clean_linker_2, # of connection points: 2
#     Edge 77, Type (0, 1), BuildingBlock: XUDNAN_clean_linker_2, # of connection points: 2
#     Edge 78, Type (0, 1), BuildingBlock: XUDNAN_clean_linker_2, # of connection points: 2
#     Edge 79, Type (0, 1), BuildingBlock: XUDNAN_clean_linker_2, # of connection points: 2
#     Edge 80, Type (0, 1), BuildingBlock: XUDNAN_clean_linker_2, # of connection points: 2
#     Edge 81, Type (0, 1), BuildingBlock: XUDNAN_clean_linker_2, # of connection points: 2
#     Edge 82, Type (0, 1), BuildingBlock: XUDNAN_clean_linker_2, # of connection points: 2
#     Edge 83, Type (0, 1), BuildingBlock: XUDNAN_clean_linker_2, # of connection points: 2
#     Edge 84, Type (0, 1), BuildingBlock: XUDNAN_clean_linker_2, # of connection points: 2
#     Edge 85, Type (0, 1), BuildingBlock: XUDNAN_clean_linker_2, # of connection points: 2
#     Edge 86, Type (0, 1), BuildingBlock: XUDNAN_clean_linker_2, # of connection points: 2
#     Edge 87, Type (0, 1), BuildingBlock: XUDNAN_clean_linker_2, # of connection points: 2
#     Edge 88, Type (0, 1), BuildingBlock: XUDNAN_clean_linker_2, # of connection points: 2
#     Edge 89, Type (0, 1), BuildingBlock: XUDNAN_clean_linker_2, # of connection points: 2
#     Edge 90, Type (0, 1), BuildingBlock: XUDNAN_clean_linker_2, # of connection points: 2
#     Edge 91, Type (0, 1), BuildingBlock: XUDNAN_clean_linker_2, # of connection points: 2
#     Edge 92, Type (0, 1), BuildingBlock: XUDNAN_clean_linker_2, # of connection points: 2
#     Edge 93, Type (0, 1), BuildingBlock: XUDNAN_clean_linker_2, # of connection points: 2
#     Edge 94, Type (0, 1), BuildingBlock: XUDNAN_clean_linker_2, # of connection points: 2
#     Edge 95, Type (0, 1), BuildingBlock: XUDNAN_clean_linker_2, # of connection points: 2
#     Edge 96, Type (0, 1), BuildingBlock: XUDNAN_clean_linker_2, # of connection points: 2
#     Edge 97, Type (0, 1), BuildingBlock: XUDNAN_clean_linker_2, # of connection points: 2
#     Edge 98, Type (0, 1), BuildingBlock: XUDNAN_clean_linker_2, # of connection points: 2
#     Edge 99, Type (0, 1), BuildingBlock: XUDNAN_clean_linker_2, # of connection points: 2
#     Edge 100, Type (0, 1), BuildingBlock: XUDNAN_clean_linker_2, # of connection points: 2
#     Edge 101, Type (0, 1), BuildingBlock: XUDNAN_clean_linker_2, # of connection points: 2
#     Edge 102, Type (0, 1), BuildingBlock: XUDNAN_clean_linker_2, # of connection points: 2
#     Edge 103, Type (0, 1), BuildingBlock: XUDNAN_clean_linker_2, # of connection points: 2
#     Edge 104, Type (0, 1), BuildingBlock: XUDNAN_clean_linker_2, # of connection points: 2
#     Edge 105, Type (0, 1), BuildingBlock: XUDNAN_clean_linker_2, # of connection points: 2
#     Edge 106, Type (0, 1), BuildingBlock: XUDNAN_clean_linker_2, # of connection points: 2
#     Edge 107, Type (0, 1), BuildingBlock: XUDNAN_clean_linker_2, # of connection points: 2
#     Edge 108, Type (0, 1), BuildingBlock: XUDNAN_clean_linker_2, # of connection points: 2
#     Edge 109, Type (0, 1), BuildingBlock: XUDNAN_clean_linker_2, # of connection points: 2
#     Edge 110, Type (0, 1), BuildingBlock: XUDNAN_clean_linker_2, # of connection points: 2
#     Edge 111, Type (0, 1), BuildingBlock: XUDNAN_clean_linker_2, # of connection points: 2
#     Edge 112, Type (0, 1), BuildingBlock: XUDNAN_clean_linker_2, # of connection points: 2
#     Edge 113, Type (0, 1), BuildingBlock: XUDNAN_clean_linker_2, # of connection points: 2
#     Edge 114, Type (0, 1), BuildingBlock: XUDNAN_clean_linker_2, # of connection points: 2
#     Edge 115, Type (0, 1), BuildingBlock: XUDNAN_clean_linker_2, # of connection points: 2
#     Edge 116, Type (0, 1), BuildingBlock: XUDNAN_clean_linker_2, # of connection points: 2
#     Edge 117, Type (0, 1), BuildingBlock: XUDNAN_clean_linker_2, # of connection points: 2
#     Edge 118, Type (0, 1), BuildingBlock: XUDNAN_clean_linker_2, # of connection points: 2
#     Edge 119, Type (0, 1), BuildingBlock: XUDNAN_clean_linker_2, # of connection points: 2
#     Edge 120, Type (0, 1), BuildingBlock: XUDNAN_clean_linker_2, # of connection points: 2
#     Edge 121, Type (0, 1), BuildingBlock: XUDNAN_clean_linker_2, # of connection points: 2
#     Edge 122, Type (0, 1), BuildingBlock: XUDNAN_clean_linker_2, # of connection points: 2
#     Edge 123, Type (0, 1), BuildingBlock: XUDNAN_clean_linker_2, # of connection points: 2
#     Edge 124, Type (0, 1), BuildingBlock: XUDNAN_clean_linker_2, # of connection points: 2
#     Edge 125, Type (0, 1), BuildingBlock: XUDNAN_clean_linker_2, # of connection points: 2
#     Edge 126, Type (0, 1), BuildingBlock: XUDNAN_clean_linker_2, # of connection points: 2
#     Edge 127, Type (0, 1), BuildingBlock: XUDNAN_clean_linker_2, # of connection points: 2
#     Edge 128, Type (0, 1), BuildingBlock: XUDNAN_clean_linker_2, # of connection points: 2
#     Edge 129, Type (0, 1), BuildingBlock: XUDNAN_clean_linker_2, # of connection points: 2
#     Edge 130, Type (0, 1), BuildingBlock: XUDNAN_clean_linker_2, # of connection points: 2
#     Edge 131, Type (0, 1), BuildingBlock: XUDNAN_clean_linker_2, # of connection points: 2
#     Edge 132, Type (0, 1), BuildingBlock: XUDNAN_clean_linker_2, # of connection points: 2
#     Edge 133, Type (0, 1), BuildingBlock: XUDNAN_clean_linker_2, # of connection points: 2
#     Edge 134, Type (0, 1), BuildingBlock: XUDNAN_clean_linker_2, # of connection points: 2
#     Edge 135, Type (0, 1), BuildingBlock: XUDNAN_clean_linker_2, # of connection points: 2
# Relax obj value: 0.089
# Max RMSD: 0.169
# Mean RMSD: 0.086
data_MOF--net-iac--node1-QUQFOY_clean_sbu_3--node2-LEVNOQ01_clean_sbu_1--edge1-XUDNAN_clean_linker_2
_symmetry_space_group_name_H-M    P1
_symmetry_Int_Tables_number       1
_symmetry_cell_setting            triclinic
loop_
_symmetry_equiv_pos_as_xyz
'x, y, z'
_cell_length_a     54.110692
_cell_length_b     55.017839
_cell_length_c     54.598538
_cell_angle_alpha  90.972932
_cell_angle_beta   90.009694
_cell_angle_gamma 90.535451
loop_
_atom_site_label
_atom_site_type_symbol
_atom_site_fract_x
_atom_site_fract_y
_atom_site_fract_z
_atom_type_partial_charge
C0 C 0.94348 0.23449 0.14526 0.0
O1 O 0.95531 0.22213 0.16074 0.0
Cd2 Cd -0.00046 0.2212 0.16607 0.0
O3 O 0.95452 0.24823 0.1303 0.0
Cd4 Cd -0.00257 0.25858 0.12044 0.0
C5 C 0.01246 0.19939 0.10856 0.0
O6 O 0.01506 0.26137 0.16175 0.0
O7 O 0.04046 0.26254 0.13134 0.0
O8 O 0.98258 0.29963 0.11495 0.0
C9 C 0.03724 0.2629 0.15434 0.0
O10 O 0.01397 0.19673 0.13164 0.0
C11 C 0.99128 0.30193 0.09352 0.0
O12 O 0.00473 0.21919 0.09952 0.0
O13 O 0.00266 0.2838 0.08437 0.0
C14 C 0.9507 0.77053 0.34588 0.0
O15 O 0.96317 0.77814 0.3278 0.0
Cd16 Cd 0.00635 0.77131 0.32013 0.0
O17 O 0.96064 0.75813 0.3626 0.0
Cd18 Cd 0.00274 0.74567 0.3729 0.0
C19 C 0.0227 0.8046 0.36975 0.0
O20 O 0.0152 0.73058 0.33261 0.0
O21 O 0.04366 0.73306 0.36033 0.0
O22 O 0.98464 0.71164 0.39432 0.0
C23 C 0.03732 0.72658 0.33887 0.0
O24 O 0.02402 0.80298 0.34651 0.0
C25 C -0.00374 0.71571 0.41423 0.0
O26 O 0.01458 0.78698 0.38231 0.0
O27 O 0.01089 0.7339 0.4149 0.0
C28 C 0.43917 0.73363 0.63413 0.0
O29 O 0.44987 0.71671 0.64545 0.0
Cd30 Cd 0.49372 0.71435 0.65333 0.0
O31 O 0.4515 0.75053 0.62415 0.0
Cd32 Cd 0.49534 0.75865 0.61606 0.0
C33 C 0.51169 0.70132 0.59527 0.0
O34 O 0.50928 0.75485 0.65864 0.0
O35 O 0.53716 0.7634 0.63157 0.0
O36 O 0.48917 0.8026 0.61573 0.0
C37 C 0.53167 0.75987 0.65384 0.0
O38 O 0.51089 0.69476 0.61748 0.0
C39 C 0.49121 0.80449 0.59271 0.0
O40 O 0.50533 0.72275 0.5894 0.0
O41 O 0.4955 0.78516 0.58045 0.0
C42 C 0.44548 0.26684 0.83946 0.0
O43 O 0.45655 0.27194 0.8196 0.0
Cd44 Cd 0.50075 0.27045 0.81241 0.0
O45 O 0.45715 0.25867 0.85763 0.0
Cd46 Cd 0.49835 0.2485 0.8702 0.0
C47 C 0.51169 0.30863 0.86102 0.0
O48 O 0.51682 0.23564 0.83205 0.0
O49 O 0.54061 0.23881 0.86373 0.0
O50 O 0.48031 0.21257 0.88594 0.0
C51 C 0.5386 0.23539 0.84078 0.0
O52 O 0.51178 0.30527 0.83789 0.0
C53 C 0.48758 0.21585 0.90789 0.0
O54 O 0.50676 0.2915 0.87579 0.0
O55 O 0.5 0.23514 0.91272 0.0
C56 C 0.10073 0.01564 0.30363 0.0
O57 O 0.08476 0.02583 0.29027 0.0
Cd58 Cd 0.0814 0.02242 0.24663 0.0
O59 O 0.11695 0.0017 0.29438 0.0
Cd60 Cd 0.12975 0.98597 0.25433 0.0
C61 C 0.13985 0.04381 0.23353 0.0
O62 O 0.08891 0.98085 0.23706 0.0
O63 O 0.11928 0.9749 0.21224 0.0
O64 O 0.13339 0.94748 0.27489 0.0
C65 C 0.09609 0.97596 0.21548 0.0
O66 O 0.1165 0.04651 0.23335 0.0
C67 C 0.15595 0.94417 0.26961 0.0
O68 O 0.1497 0.02427 0.24108 0.0
O69 O 0.16659 0.96051 0.25702 0.0
C70 C 0.29641 0.90105 0.48301 0.0
O71 O 0.28687 0.91893 0.4721 0.0
Cd72 Cd 0.24392 0.93 0.47069 0.0
O73 O 0.28335 0.88605 0.49503 0.0
Cd74 Cd 0.2396 0.87697 0.50365 0.0
C75 C 0.23091 0.87653 0.44068 0.0
O76 O 0.22944 0.91906 0.50991 0.0
O77 O 0.19932 0.89436 0.51658 0.0
O78 O 0.25914 0.85806 0.53857 0.0
C79 C 0.20684 0.91616 0.51503 0.0
O80 O 0.23139 0.89967 0.4404 0.0
C81 C 0.24558 0.83907 0.53826 0.0
O82 O 0.23399 0.86495 0.46052 0.0
O83 O 0.22851 0.83787 0.52223 0.0
C84 C 0.41245 0.97184 0.80482 0.0
O85 O 0.42931 0.96166 0.79219 0.0
Cd86 Cd 0.4391 0.96907 0.74935 0.0
O87 O 0.3978 0.98688 0.79525 0.0
Cd88 Cd 0.38909 0.00036 0.75408 0.0
C89 C 0.38717 0.94235 0.73031 0.0
O90 O 0.43148 0.01117 0.7412 0.0
O91 O 0.40169 0.01705 0.71575 0.0
O92 O 0.36752 0.03334 0.77506 0.0
C93 C 0.42459 0.01826 0.72028 0.0
O94 O 0.41052 0.94194 0.72796 0.0
C95 C 0.3489 0.03221 0.76086 0.0
O96 O 0.37626 0.96005 0.74076 0.0
O97 O 0.34902 0.01624 0.74382 0.0
C98 C 0.28438 0.08507 0.99267 0.0
O99 O 0.26791 0.07576 0.00626 0.0
Cd100 Cd 0.22917 0.0942 0.01576 0.0
O101 O 0.28113 0.10558 0.98288 0.0
Cd102 Cd 0.2484 0.13641 0.98369 0.0
C103 C 0.25532 0.14257 0.04519 0.0
O104 O 0.21272 0.11004 0.97826 0.0
O105 O 0.20436 0.14686 0.98938 0.0
O106 O 0.26019 0.14511 0.94195 0.0
C107 C 0.19659 0.12629 0.98175 0.0
O108 O 0.24129 0.12406 0.04762 0.0
C109 C 0.2622 0.16793 0.94541 0.0
O110 O 0.26155 0.1497 0.02403 0.0
O111 O 0.25798 0.17605 0.9669 0.0
C112 C 0.80219 0.40079 0.0035 0.0
O113 O 0.79139 0.41901 0.99455 0.0
Cd114 Cd 0.74887 0.41998 0.98244 0.0
O115 O 0.7904 0.3813 0.00794 0.0
Cd116 Cd 0.74814 0.36543 0.00349 0.0
C117 C 0.76046 0.3735 0.94298 0.0
O118 O 0.72399 0.40122 0.01322 0.0
O119 O 0.70509 0.37297 0.99245 0.0
O120 O 0.75632 0.34635 0.04222 0.0
C121 C 0.70408 0.39334 0.00364 0.0
O122 O 0.75285 0.3953 0.94484 0.0
C123 C 0.74901 0.32526 0.03557 0.0
O124 O 0.7618 0.35984 0.96153 0.0
O125 O 0.7403 0.32267 0.01404 0.0
C126 C 0.91029 0.48639 0.29591 0.0
O127 O 0.92783 0.47894 0.2823 0.0
Cd128 Cd 0.93053 0.48312 0.23832 0.0
O129 O 0.89151 0.49685 0.28717 0.0
Cd130 Cd 0.87354 0.5074 0.24815 0.0
C131 C 0.87951 0.44749 0.22972 0.0
O132 O 0.91155 0.52111 0.23 0.0
O133 O 0.87914 0.52376 0.20751 0.0
O134 O 0.85308 0.53807 0.2729 0.0
C135 C 0.90244 0.52556 0.20919 0.0
O136 O 0.9027 0.45 0.22652 0.0
C137 C 0.83213 0.53504 0.2627 0.0
O138 O 0.86636 0.46496 0.23786 0.0
O139 O 0.83046 0.51913 0.24561 0.0
C140 C 0.79552 0.58411 0.48214 0.0
O141 O 0.78033 0.56838 0.49006 0.0
Cd142 Cd 0.74116 0.58118 0.50666 0.0
O143 O 0.78939 0.6063 0.48133 0.0
Cd144 Cd 0.75361 0.63254 0.48816 0.0
C145 C 0.75945 0.62489 0.54875 0.0
O146 O 0.72025 0.60446 0.4759 0.0
O147 O 0.70913 0.63795 0.49376 0.0
O148 O 0.76938 0.64694 0.44996 0.0
C149 C 0.70287 0.61838 0.48275 0.0
O150 O 0.75014 0.60376 0.54514 0.0
C151 C 0.76681 0.66936 0.45491 0.0
O152 O 0.76381 0.63875 0.53083 0.0
O153 O 0.75776 0.67502 0.4757 0.0
C154 C 0.57565 0.49402 0.78626 0.0
O155 O 0.56069 0.50128 0.77009 0.0
Cd156 Cd 0.57434 0.51092 0.72922 0.0
O157 O 0.59809 0.48976 0.78117 0.0
Cd158 Cd 0.62619 0.48684 0.74649 0.0
C159 C 0.62551 0.5482 0.7384 0.0
O160 O 0.59482 0.47456 0.71657 0.0
O161 O 0.63237 0.47779 0.70327 0.0
O162 O 0.63447 0.44935 0.76732 0.0
C163 C 0.60983 0.47314 0.6988 0.0
O164 O 0.60308 0.54578 0.73155 0.0
C165 C 0.65783 0.45111 0.76637 0.0
O166 O 0.63779 0.52994 0.74551 0.0
O167 O 0.66677 0.46999 0.75637 0.0
C168 C 0.97355 0.75747 0.83054 0.0
O169 O 0.9905 0.76988 0.82047 0.0
Cd170 Cd 0.0294 0.77863 0.83805 0.0
O171 O 0.97679 0.7478 0.85143 0.0
Cd172 Cd 0.01055 0.74498 0.8831 0.0
C173 C 0.00582 0.80602 0.89044 0.0
O174 O 0.04151 0.74005 0.85281 0.0
O175 O 0.05648 0.74571 0.88887 0.0
O176 O -0.00352 0.70342 0.88839 0.0
C177 C 0.06034 0.74075 0.86646 0.0
O178 O 0.0161 0.80757 0.86954 0.0
C179 C -0.0004 0.70326 0.91143 0.0
O180 O 0.00156 0.78548 0.90008 0.0
O181 O 0.00657 0.72308 0.92164 0.0
C182 C 0.98787 0.2416 0.69102 0.0
O183 O 0.00354 0.22566 0.69689 0.0
Cd184 Cd 0.03621 0.2119 0.67018 0.0
O185 O 0.98922 0.25206 0.67041 0.0
Cd186 Cd 0.01363 0.2529 0.63244 0.0
C187 C -0.00114 0.19383 0.62195 0.0
O188 O 0.05348 0.24519 0.6487 0.0
O189 O 0.05044 0.24136 0.60923 0.0
O190 O 0.01923 0.29616 0.62955 0.0
C191 C 0.0638 0.24068 0.62825 0.0
O192 O 0.01387 0.18858 0.63902 0.0
C193 C 0.00702 0.2982 0.60986 0.0
O194 O -0.00584 0.21583 0.61677 0.0
O195 O -0.00375 0.27926 0.60129 0.0
C196 C 0.48261 0.25354 0.31326 0.0
O197 O 0.49951 0.26769 0.30569 0.0
Cd198 Cd 0.53394 0.27787 0.33136 0.0
O199 O 0.48446 0.24339 0.33401 0.0
Cd200 Cd 0.5127 0.23942 0.36954 0.0
C201 C 0.50066 0.29843 0.38208 0.0
O202 O 0.5502 0.24052 0.34614 0.0
O203 O 0.55511 0.24538 0.38521 0.0
O204 O 0.50589 0.19588 0.36537 0.0
C205 C 0.56471 0.24195 0.36429 0.0
O206 O 0.51406 0.30222 0.36332 0.0
C207 C 0.50225 0.19224 0.38796 0.0
O208 O 0.49621 0.27682 0.38907 0.0
O209 O 0.50219 0.21088 0.40207 0.0
C210 C 0.47802 0.75019 0.18309 0.0
O211 O 0.49653 0.7415 0.19413 0.0
Cd212 Cd 0.5349 0.73126 0.17408 0.0
O213 O 0.47919 0.75517 0.16045 0.0
Cd214 Cd 0.50763 0.75464 0.12549 0.0
C215 C 0.5087 0.6936 0.13014 0.0
O216 O 0.54647 0.76158 0.1453 0.0
O217 O 0.5482 0.74786 0.1081 0.0
O218 O 0.49464 0.79499 0.11777 0.0
C219 C 0.55964 0.75437 0.12738 0.0
O220 O 0.5226 0.6963 0.14887 0.0
C221 C 0.49007 0.79166 0.09515 0.0
O222 O 0.49935 0.71179 0.11942 0.0
O223 O 0.49302 0.77035 0.08629 0.0
C224 C 0.92592 0.00033 0.77452 0.0
O225 O 0.93863 0.99164 0.757 0.0
Cd226 Cd 0.91859 0.97969 0.71985 0.0
O227 O 0.90309 0.00499 0.7715 0.0
Cd228 Cd 0.87197 0.0045 0.73797 0.0
C229 C 0.87079 0.94422 0.74212 0.0
O230 O 0.89823 0.0148 0.70396 0.0
O231 O 0.86375 -0.00315 0.69447 0.0
O232 O 0.8625 0.04631 0.74732 0.0
C233 C 0.88224 0.00939 0.68777 0.0
O234 O 0.89161 0.94551 0.7313 0.0
C235 C 0.83922 0.04364 0.7464 0.0
O236 O 0.85905 0.96344 0.74777 0.0
O237 O 0.83091 0.0221 0.74355 0.0
C238 C 0.77014 0.0647 0.49998 0.0
O239 O 0.75023 0.05701 0.50956 0.0
Cd240 Cd 0.71128 0.07758 0.51271 0.0
O241 O 0.77172 0.08599 0.49109 0.0
Cd242 Cd 0.74405 0.12221 0.48835 0.0
C243 C 0.73133 0.12402 0.55 0.0
O244 O 0.70574 0.10207 0.47756 0.0
O245 O 0.703 0.14 0.48749 0.0
O246 O 0.75517 0.13479 0.44768 0.0
C247 C 0.69228 0.12071 0.48011 0.0
O248 O 0.71753 0.1053 0.54714 0.0
C249 C 0.76287 0.15589 0.45388 0.0
O250 O 0.7439 0.13256 0.53225 0.0
O251 O 0.76411 0.16077 0.4767 0.0
C252 C 0.56497 -9e-05 0.27062 0.0
O253 O 0.55305 0.01077 0.25408 0.0
Cd254 Cd 0.57362 0.02782 0.2186 0.0
O255 O 0.58774 0.99504 0.26769 0.0
Cd256 Cd 0.62111 -0.00129 0.23739 0.0
C257 C 0.61945 0.05854 0.24991 0.0
O258 O 0.6002 -0.0005 0.19835 0.0
O259 O 0.63774 0.01388 0.19954 0.0
O260 O 0.63137 0.95624 0.23608 0.0
C261 C 0.61882 0.00806 0.18702 0.0
O262 O 0.60078 0.05949 0.23574 0.0
C263 C 0.65354 0.95938 0.2431 0.0
O264 O 0.62944 0.03844 0.25528 0.0
O265 O 0.66055 0.98085 0.24881 0.0
C266 C 0.78318 0.90147 0.01228 0.0
O267 O 0.77175 0.91794 0.00099 0.0
Cd268 Cd 0.72786 0.91845 0.9935 0.0
O269 O 0.77165 0.88321 0.02075 0.0
Cd270 Cd 0.72854 0.86796 0.02074 0.0
C271 C 0.72554 0.86645 0.95859 0.0
O272 O 0.70572 0.90528 0.02896 0.0
O273 O 0.6847 0.87374 0.0167 0.0
O274 O 0.73598 0.85751 0.06246 0.0
C275 C 0.6848 0.89544 0.02479 0.0
O276 O 0.72228 0.88932 0.96006 0.0
C277 C 0.72928 0.83542 0.06043 0.0
O278 O 0.7302 0.85419 0.97767 0.0
O279 O 0.72243 0.82788 0.03932 0.0
C280 C 0.26434 0.56367 0.98486 0.0
O281 O 0.24574 0.55653 -0.00291 0.0
Cd282 Cd 0.20998 0.58021 0.00776 0.0
O283 O 0.26542 0.58523 0.9766 0.0
Cd284 Cd 0.24081 0.62329 0.97854 0.0
C285 C 0.24212 0.62279 0.04128 0.0
O286 O 0.19994 0.60655 0.97506 0.0
O287 O 0.20179 0.64389 0.98775 0.0
O288 O 0.24486 0.63886 0.93699 0.0
C289 C 0.18858 0.6257 0.98148 0.0
O290 O 0.22568 0.60605 0.041 0.0
C291 C 0.25844 0.65692 0.94309 0.0
O292 O 0.25146 0.6308 0.02149 0.0
O293 O 0.26487 0.65871 0.96544 0.0
C294 C 0.07249 0.50734 0.77234 0.0
O295 O 0.06396 0.52246 0.75725 0.0
Cd296 Cd 0.08734 0.53872 0.72385 0.0
O297 O 0.09433 0.49913 0.76997 0.0
Cd298 Cd 0.13105 0.50103 0.74346 0.0
C299 C 0.13713 0.56069 0.7575 0.0
O300 O 0.10869 0.50521 0.70665 0.0
O301 O 0.14825 0.50941 0.70258 0.0
O302 O 0.13389 0.45775 0.74555 0.0
C303 C 0.12701 0.5092 0.69285 0.0
O304 O 0.11848 0.56449 0.74386 0.0
C305 C 0.15657 0.45733 0.75148 0.0
O306 O 0.14461 0.53925 0.76162 0.0
O307 O 0.16743 0.47769 0.75499 0.0
C308 C 0.29278 0.40274 0.50676 0.0
O309 O 0.28437 0.41381 0.48838 0.0
Cd310 Cd 0.24155 0.41039 0.47616 0.0
O311 O 0.27882 0.38863 0.51888 0.0
Cd312 Cd 0.23592 0.3734 0.51539 0.0
C313 C 0.23944 0.35238 0.45667 0.0
O314 O 0.21437 0.41171 0.51167 0.0
O315 O 0.19283 0.37899 0.50428 0.0
O316 O 0.23118 0.37042 0.55957 0.0
C317 C 0.19334 0.40172 0.50853 0.0
O318 O 0.23725 0.37422 0.44979 0.0
C319 C 0.22963 0.3474 0.55958 0.0
O320 O 0.24125 0.34766 0.47932 0.0
O321 O 0.23094 0.33644 0.53899 0.0
C322 C 0.40758 0.50379 0.29514 0.0
O323 O 0.423 0.48954 0.2851 0.0
Cd324 Cd 0.41848 0.47453 0.24438 0.0
O325 O 0.38912 0.51161 0.28321 0.0
Cd326 Cd 0.37271 0.50592 0.24092 0.0
C327 C 0.36238 0.44704 0.25315 0.0
O328 O 0.41125 0.50884 0.21852 0.0
O329 O 0.37965 0.49459 0.19847 0.0
O330 O 0.36577 0.54895 0.24057 0.0
C331 C 0.40102 0.50423 0.19805 0.0
O332 O 0.38555 0.44479 0.25011 0.0
C333 C 0.34433 0.54777 0.23123 0.0
O334 O 0.35215 0.46765 0.25121 0.0
O335 O 0.33486 0.52671 0.2282 0.0
O336 O 0.94611 0.02339 0.95968 0.0
Mg337 Mg 0.93905 0.02875 -0.0023 0.0
O338 O 0.98303 0.00575 0.9617 0.0
Mg339 Mg -0.005 0.00352 0.00237 0.0
O340 O 0.97269 0.03631 0.01173 0.0
O341 O 0.94318 0.06324 0.0148 0.0
O342 O 0.00698 0.00116 0.04328 0.0
O343 O 0.02734 0.03101 0.99393 0.0
Mg344 Mg 0.05085 0.97938 0.00558 0.0
O345 O 0.01718 0.97051 0.99245 0.0
O346 O 0.04492 0.98545 0.04345 0.0
O347 O 0.06185 0.01055 0.98635 0.0
O348 O 0.0479 0.9447 0.98916 0.0
C349 C 0.93948 0.97722 0.01603 0.0
C350 C 0.96472 0.01357 0.94939 0.0
C351 C 0.96588 0.05762 0.01871 0.0
C352 C 0.02628 0.99419 0.05459 0.0
C353 C 0.04981 0.03026 0.98671 0.0
C354 C 0.0251 0.94972 0.98495 0.0
O355 O 0.92727 -0.00319 0.01535 0.0
O356 O 0.96239 0.9764 0.01037 0.0
O357 O 0.2593 0.74363 0.31251 0.0
Mg358 Mg 0.24807 0.70985 0.29609 0.0
O359 O 0.25208 0.76681 0.28026 0.0
Mg360 Mg 0.24877 0.74406 0.24447 0.0
O361 O 0.26174 0.7115 0.26238 0.0
O362 O 0.27135 0.68055 0.28469 0.0
O363 O 0.24665 0.72098 0.20837 0.0
O364 O 0.28926 0.75257 0.23549 0.0
Mg365 Mg 0.25373 0.77638 0.1934 0.0
O366 O 0.23741 0.77827 0.22659 0.0
O367 O 0.23921 0.74448 0.17649 0.0
O368 O 0.29254 0.77426 0.20155 0.0
O369 O 0.23376 0.80834 0.20105 0.0
C370 C 0.19779 0.71967 0.26987 0.0
C371 C 0.25695 0.76446 0.30298 0.0
C372 C 0.27217 0.69093 0.26378 0.0
C373 C 0.24192 0.7236 0.18566 0.0
C374 C 0.30235 0.76329 0.21944 0.0
C375 C 0.22968 0.79981 0.22252 0.0
O376 O 0.20989 0.70873 0.28637 0.0
O377 O 0.20804 0.73377 0.25429 0.0
O378 O 0.5475 0.98516 0.45671 0.0
Mg379 Mg 0.55664 0.98519 0.49519 0.0
O380 O 0.50781 -0.00376 0.45754 0.0
Mg381 Mg 0.49683 0.00243 0.49815 0.0
O382 O 0.52432 0.97554 0.50972 0.0
O383 O 0.55643 0.95299 0.51676 0.0
O384 O 0.48719 0.00925 0.53947 0.0
O385 O 0.469 0.97057 0.4946 0.0
Mg386 Mg 0.43821 0.02185 0.50631 0.0
O387 O 0.4687 0.02884 0.48644 0.0
O388 O 0.45073 0.02756 0.54276 0.0
O389 O 0.43052 0.9847 0.49776 0.0
O390 O 0.43594 0.0513 0.48168 0.0
C391 C 0.54704 0.03819 0.50774 0.0
C392 C 0.52733 0.99017 0.44579 0.0
C393 C 0.53309 0.95639 0.51927 0.0
C394 C 0.4705 0.01972 0.55234 0.0
C395 C 0.44565 0.96735 0.49467 0.0
C396 C 0.45854 0.04684 0.476 0.0
O397 O 0.56195 0.02064 0.51018 0.0
O398 O 0.52459 0.03481 0.50121 0.0
O399 O 0.30933 0.25258 0.76137 0.0
Mg400 Mg 0.30402 0.23302 0.72763 0.0
O401 O 0.27141 0.25275 0.77793 0.0
Mg402 Mg 0.24468 0.23929 0.7478 0.0
O403 O 0.27171 0.24717 0.7186 0.0
O404 O 0.30233 0.25028 0.69281 0.0
O405 O 0.21875 0.22591 0.71698 0.0
O406 O 0.22973 0.27797 0.74566 0.0
Mg407 Mg 0.18362 0.23958 0.76311 0.0
O408 O 0.2171 0.2321 0.77599 0.0
O409 O 0.18188 0.21566 0.73196 0.0
O410 O 0.18919 0.27703 0.75382 0.0
O411 O 0.18603 0.23017 0.80116 0.0
C412 C 0.27623 0.18669 0.74304 0.0
C413 C 0.29447 0.25766 0.77883 0.0
C414 C 0.27967 0.25487 0.69808 0.0
C415 C 0.19749 0.21603 0.71449 0.0
C416 C 0.20893 0.2885 0.7481 0.0
C417 C 0.20951 0.2291 0.7978 0.0
O418 O 0.29469 0.19551 0.73165 0.0
O419 O 0.25861 0.19989 0.75109 0.0
O420 O 0.00389 0.93218 0.50463 0.0
Mg421 Mg 0.00926 0.95326 0.53729 0.0
O422 O -0.00278 0.96265 0.4791 0.0
Mg423 Mg 0.99233 -0.00084 0.49946 0.0
O424 O 0.98549 0.98041 0.53397 0.0
O425 O 0.98218 0.95672 0.56548 0.0
O426 O 0.98678 0.03643 0.51895 0.0
O427 O 0.94908 -0.0036 0.49497 0.0
Mg428 Mg 0.96583 0.03184 0.46196 0.0
O429 O 0.00025 0.01778 0.46352 0.0
O430 O 0.96271 0.05569 0.49256 0.0
O431 O 0.9378 0.00539 0.45767 0.0
O432 O 0.98792 0.04101 0.43298 0.0
C433 C 0.05037 0.9895 0.52162 0.0
C434 C 0.00085 0.94017 0.48308 0.0
C435 C 0.97422 0.97514 0.55373 0.0
C436 C 0.97338 0.05456 0.51326 0.0
C437 C 0.93233 -0.00268 0.47853 0.0
C438 C 0.00496 0.0283 0.44306 0.0
O439 O 0.04307 0.97304 0.53619 0.0
O440 O 0.03549 -6e-05 0.50682 0.0
O441 O 0.29984 0.75578 0.79419 0.0
Mg442 Mg 0.29982 0.7246 0.77104 0.0
O443 O 0.25965 0.75872 0.78888 0.0
Mg444 Mg 0.25379 0.75558 0.7459 0.0
O445 O 0.29051 0.73975 0.7396 0.0
O446 O 0.32535 0.72013 0.74177 0.0
O447 O 0.24868 0.75171 0.70309 0.0
O448 O 0.27054 0.79344 0.73973 0.0
Mg449 Mg 0.21242 0.79168 0.72133 0.0
O450 O 0.21582 0.77072 0.75127 0.0
O451 O 0.21359 0.76794 0.69059 0.0
O452 O 0.24246 0.81698 0.7221 0.0
O453 O 0.18193 0.79163 0.74479 0.0
C454 C 0.24674 0.70032 0.76641 0.0
C455 C 0.27859 0.75984 0.80298 0.0
C456 C 0.31002 0.73226 0.72889 0.0
C457 C 0.23308 0.75603 0.68607 0.0
C458 C 0.26413 0.81343 0.73022 0.0
C459 C 0.1938 0.7764 0.75795 0.0
O460 O 0.26853 0.70051 0.77547 0.0
O461 O 0.23866 0.71752 0.75317 0.0
O462 O 0.48137 0.9705 0.0601 0.0
Mg463 Mg 0.47936 0.00895 0.06393 0.0
O464 O 0.49397 0.96777 0.02132 0.0
Mg465 Mg 0.49398 0.00614 0.00492 0.0
O466 O 0.46533 0.01909 0.03163 0.0
O467 O 0.44539 0.02678 0.06585 0.0
O468 O 0.49329 0.04439 0.98908 0.0
O469 O 0.46164 0.99216 0.97996 0.0
Mg470 Mg 0.51033 0.0066 0.94539 0.0
O471 O 0.52231 0.99384 0.97768 0.0
O472 O 0.50732 0.04487 0.95069 0.0
O473 O 0.47587 0.98887 0.94158 0.0
O474 O 0.54382 0.98706 0.94432 0.0
C475 C 0.53007 0.02865 0.05101 0.0
C476 C 0.48799 0.95791 0.04149 0.0
C477 C 0.4462 0.02801 0.04231 0.0
C478 C 0.49908 0.05569 0.96973 0.0
C479 C 0.45897 0.98597 0.95746 0.0
C480 C 0.5413 0.98409 0.96754 0.0
O481 O 0.51298 0.0283 0.06694 0.0
O482 O 0.52686 0.01978 0.02946 0.0
O483 O 0.27572 0.25923 0.1946 0.0
Mg484 Mg 0.2485 0.27334 0.21771 0.0
O485 O 0.26111 0.22761 0.21374 0.0
Mg486 Mg 0.25292 0.24055 0.25441 0.0
O487 O 0.2603 0.28302 0.25199 0.0
O488 O 0.25109 0.30955 0.22248 0.0
O489 O 0.24576 0.24982 0.29596 0.0
O490 O 0.29537 0.23797 0.26069 0.0
Mg491 Mg 0.26769 0.19545 0.28902 0.0
O492 O 0.2467 0.19995 0.25867 0.0
O493 O 0.2523 0.21661 0.31757 0.0
O494 O 0.30463 0.20409 0.28003 0.0
O495 O 0.25081 0.16393 0.27573 0.0
C496 C 0.19967 0.2504 0.22829 0.0
C497 C 0.27262 0.23655 0.19557 0.0
C498 C 0.25989 0.3052 0.24391 0.0
C499 C 0.24593 0.23872 0.31639 0.0
C500 C 0.31127 0.22339 0.26933 0.0
C501 C 0.24161 0.17697 0.25865 0.0
O502 O 0.21187 0.26159 0.21219 0.0
O503 O 0.21032 0.24291 0.24752 0.0
O504 O 0.44564 0.53613 0.9644 0.0
Mg505 Mg 0.48287 0.5486 0.96248 0.0
O506 O 0.45063 0.50616 0.99093 0.0
Mg507 Mg 0.49295 0.49819 -0.00466 0.0
O508 O 0.50202 0.51758 0.96122 0.0
O509 O 0.50546 0.54348 0.93129 0.0
O510 O 0.53479 0.48898 -0.00104 0.0
O511 O 0.48782 0.46297 0.97242 0.0
Mg512 Mg 0.50204 0.44752 0.02908 0.0
O513 O 0.48452 0.47921 0.02948 0.0
O514 O 0.53967 0.45882 0.02548 0.0
O515 O 0.48853 0.4306 -0.00341 0.0
O516 O 0.481 0.45534 0.06096 0.0
C517 C 0.4996 0.55637 0.01564 0.0
C518 C 0.43671 0.51975 0.97812 0.0
C519 C 0.51121 0.52284 0.94035 0.0
C520 C 0.54855 0.47475 0.01118 0.0
C521 C 0.48618 0.44007 0.9756 0.0
C522 C 0.47621 0.47581 0.05104 0.0
O523 O 0.49544 0.56583 0.99497 0.0
O524 O 0.49879 0.53339 0.01867 0.0
O525 O 0.79567 0.23479 0.29688 0.0
Mg526 Mg 0.78873 0.2062 0.27114 0.0
O527 O 0.75813 0.24815 0.2896 0.0
Mg528 Mg 0.7524 0.24725 0.24684 0.0
O529 O 0.78513 0.22427 0.23986 0.0
O530 O 0.81432 0.19716 0.24313 0.0
O531 O 0.74688 0.24602 0.2043 0.0
O532 O 0.77647 0.28202 0.24283 0.0
Mg533 Mg 0.71811 0.29211 0.22532 0.0
O534 O 0.71842 0.26927 0.25362 0.0
O535 O 0.71644 0.27023 0.19297 0.0
O536 O 0.75174 0.31162 0.2302 0.0
O537 O 0.68885 0.29607 0.25027 0.0
C538 C 0.73238 0.19367 0.26417 0.0
C539 C 0.77624 0.24524 0.3043 0.0
C540 C 0.8035 0.21324 0.23018 0.0
C541 C 0.73256 0.25428 0.18782 0.0
C542 C 0.77285 0.30407 0.23681 0.0
C543 C 0.69865 0.27877 0.26245 0.0
O544 O 0.75306 0.18886 0.27416 0.0
O545 O 0.72906 0.21264 0.25144 0.0
O546 O 0.97377 0.46212 0.55182 0.0
Mg547 Mg 0.96905 0.49956 0.56246 0.0
O548 O -0.00502 0.46594 0.51676 0.0
Mg549 Mg -0.00496 0.50602 0.50515 0.0
O550 O 0.96488 0.51384 0.52979 0.0
O551 O 0.93468 0.51818 0.55551 0.0
O552 O -0.00453 0.54669 0.49571 0.0
O553 O 0.96574 0.49691 0.4755 0.0
Mg554 Mg 0.01753 0.51657 0.44864 0.0
O555 O 0.02601 0.49825 0.47916 0.0
O556 O 0.01595 0.55341 0.46094 0.0
O557 O 0.98261 0.50208 0.43857 0.0
O558 O 0.05061 0.49627 0.4472 0.0
C559 C 0.02321 0.51837 0.55879 0.0
C560 C 0.98569 0.45302 0.53376 0.0
C561 C 0.94334 0.52182 0.53397 0.0
C562 C 0.00474 0.561 0.48001 0.0
C563 C 0.96454 0.49622 0.4522 0.0
C564 C 0.04609 0.49046 0.46949 0.0
O565 O 0.00394 0.51623 0.57213 0.0
O566 O 0.02307 0.51421 0.53569 0.0
O567 O 0.6936 0.79025 0.2694 0.0
Mg568 Mg 0.68297 0.75435 0.27992 0.0
O569 O 0.73141 0.78453 0.25352 0.0
Mg570 Mg 0.74144 0.74421 0.25916 0.0
O571 O 0.7159 0.74256 0.29055 0.0
O572 O 0.6864 0.74473 0.31761 0.0
O573 O 0.75005 0.70346 0.26466 0.0
O574 O 0.77228 0.75659 0.28589 0.0
Mg575 Mg 0.79786 0.72827 0.23663 0.0
O576 O 0.76691 0.74564 0.2277 0.0
O577 O 0.78377 0.69283 0.24353 0.0
O578 O 0.80888 0.74759 0.26905 0.0
O579 O 0.79669 0.74317 0.20077 0.0
C580 C 0.68864 0.72662 0.23149 0.0
C581 C 0.71315 0.79817 0.25907 0.0
C582 C 0.70927 0.74047 0.31288 0.0
C583 C 0.76506 0.68747 0.25656 0.0
C584 C 0.79584 0.75663 0.28629 0.0
C585 C 0.77463 0.74994 0.20609 0.0
O586 O 0.67429 0.7305 0.24959 0.0
O587 O 0.71142 0.73253 0.23202 0.0
O588 O 0.78194 0.25612 0.81016 0.0
Mg589 Mg 0.75358 0.23234 0.79848 0.0
O590 O 0.7679 0.28019 0.78163 0.0
Mg591 Mg 0.75755 0.25613 0.74745 0.0
O592 O 0.76127 0.21886 0.76477 0.0
O593 O 0.75973 0.19547 0.79766 0.0
O594 O 0.74753 0.23447 0.7117 0.0
O595 O 0.79946 0.25465 0.73873 0.0
Mg596 Mg 0.77205 0.28754 0.69737 0.0
O597 O 0.75422 0.29213 0.72948 0.0
O598 O 0.75322 0.25831 0.67954 0.0
O599 O 0.80868 0.27942 0.70814 0.0
O600 O 0.75741 0.32241 0.70404 0.0
C601 C 0.70523 0.25329 0.77799 0.0
C602 C 0.77995 0.27708 0.80134 0.0
C603 C 0.76339 0.19773 0.77448 0.0
C604 C 0.74642 0.23819 0.68866 0.0
C605 C 0.81522 0.26488 0.72477 0.0
C606 C 0.75011 0.31457 0.72496 0.0
O607 O 0.7169 0.24539 0.79642 0.0
O608 O 0.71603 0.25716 0.7576 0.0
O609 O 0.75752 0.74868 0.68521 0.0
Mg610 Mg 0.74208 0.77764 0.70575 0.0
O611 O 0.75608 0.7241 0.71686 0.0
Mg612 Mg 0.74755 0.74545 0.75314 0.0
O613 O 0.7602 0.78285 0.738 0.0
O614 O 0.75985 0.81052 0.70845 0.0
O615 O 0.73929 0.76554 0.79017 0.0
O616 O 0.78902 0.74124 0.76422 0.0
Mg617 Mg 0.7574 0.71002 0.79931 0.0
O618 O 0.73689 0.70818 0.76797 0.0
O619 O 0.7438 0.73954 0.8206 0.0
O620 O 0.7955 0.71202 0.79092 0.0
O621 O 0.73764 0.6779 0.7943 0.0
C622 C 0.69309 0.76354 0.72755 0.0
C623 C 0.75999 0.72772 0.69415 0.0
C624 C 0.76736 0.80378 0.72968 0.0
C625 C 0.7385 0.76057 0.81297 0.0
C626 C 0.80369 0.72843 0.77698 0.0
C627 C 0.72941 0.68675 0.77418 0.0
O628 O 0.70417 0.7766 0.71206 0.0
O629 O 0.70522 0.7505 0.74255 0.0
O630 O 0.5603 0.50393 0.4636 0.0
Mg631 Mg 0.54852 0.46995 0.47619 0.0
O632 O 0.53266 0.52403 0.48573 0.0
Mg633 Mg 0.50129 0.49716 0.499 0.0
O634 O 0.51144 0.46583 0.47284 0.0
O635 O 0.53778 0.44264 0.45203 0.0
O636 O 0.47004 0.47051 0.51246 0.0
O637 O 0.47591 0.50964 0.46853 0.0
Mg638 Mg 0.45283 0.51936 0.52375 0.0
O639 O 0.48952 0.52831 0.52466 0.0
O640 O 0.45076 0.48718 0.54416 0.0
O641 O 0.43978 0.5168 0.48661 0.0
O642 O 0.46038 0.55545 0.53192 0.0
C643 C 0.54597 0.46993 0.53189 0.0
C644 C 0.55211 0.52374 0.47238 0.0
C645 C 0.51531 0.44767 0.45797 0.0
C646 C 0.45532 0.46875 0.53071 0.0
C647 C 0.45298 0.5145 0.46749 0.0
C648 C 0.48292 0.55087 0.52598 0.0
O649 O 0.55722 0.46202 0.51298 0.0
O650 O 0.52668 0.48306 0.53014 0.0
O651 O 0.05423 0.47927 0.95254 0.0
Mg652 Mg 0.06281 0.48039 0.99105 0.0
O653 O 0.01564 0.49264 0.95573 0.0
Mg654 Mg 0.00279 0.49673 -0.0046 0.0
O655 O 0.03098 0.47019 0.0071 0.0
O656 O 0.06385 0.44791 0.01157 0.0
O657 O 0.98804 0.50113 0.0346 0.0
O658 O 0.97713 0.46272 0.99007 0.0
Mg659 Mg 0.94367 0.50689 0.99007 0.0
O660 O 0.9753 0.52389 0.98228 0.0
O661 O 0.94725 0.50456 0.02919 0.0
O662 O 0.94451 0.47422 0.96921 0.0
O663 O 0.9398 0.54081 0.97323 0.0
C664 C 0.0523 0.53309 0.00688 0.0
C665 C 0.034 0.48586 0.94281 0.0
C666 C 0.04064 0.45094 0.01566 0.0
C667 C 0.96614 0.50329 0.04314 0.0
C668 C 0.9578 0.45747 0.97764 0.0
C669 C 0.96354 0.54221 0.97402 0.0
O670 O 0.068 0.51598 0.00613 0.0
O671 O 0.02946 0.52956 0.00184 0.0
H672 H -0.00626 0.19042 0.06294 0.0
H673 H 0.04022 0.15953 0.11884 0.0
H674 H 0.0405 0.12046 0.09599 0.0
H675 H 0.95508 0.14401 0.05826 0.0
H676 H 0.94962 0.14481 0.02571 0.0
H677 H 0.95912 0.17195 0.04185 0.0
H678 H -0.00333 0.1767 0.01275 0.0
H679 H 0.98708 0.14955 -0.00375 0.0
H680 H 0.01787 0.15186 0.0087 0.0
H681 H 0.02904 0.08287 0.07171 0.0
H682 H 0.00524 0.05064 0.04955 0.0
H683 H 0.96471 0.10582 0.0112 0.0
C684 C 0.00491 0.17577 0.06976 0.0
C685 C 0.01709 0.17803 0.0925 0.0
C686 C 0.03083 0.1582 0.10133 0.0
C687 C 0.03124 0.13597 0.0884 0.0
C688 C 0.0179 0.13388 0.06662 0.0
C689 C 0.00515 0.15338 0.05726 0.0
C690 C 0.98886 0.14553 0.03601 0.0
C691 C 0.96158 0.15194 0.04077 0.0
C692 C -0.00181 0.15657 0.012 0.0
C693 C 0.99292 0.1184 0.03614 0.0
C694 C 0.01047 0.11203 0.0532 0.0
C695 C 0.01565 0.0877 0.05794 0.0
C696 C 0.00206 0.06951 0.04536 0.0
C697 C 0.98316 0.07592 0.02889 0.0
C698 C 0.97912 0.10056 0.02376 0.0
H699 H 0.06726 0.75827 0.31594 0.0
H700 H 0.05067 0.68161 0.32288 0.0
H701 H 0.08744 0.67155 0.29773 0.0
H702 H 0.09503 0.75429 0.2518 0.0
H703 H 0.11791 0.77716 0.25958 0.0
H704 H 0.08767 0.77826 0.27343 0.0
H705 H 0.10779 0.77868 0.31652 0.0
H706 H 0.13793 0.77753 0.30285 0.0
H707 H 0.12872 0.75473 0.32445 0.0
H708 H 0.12939 0.66993 0.27982 0.0
H709 H 0.1734 0.67666 0.26983 0.0
H710 H 0.16253 0.75451 0.2726 0.0
C711 C 0.07098 0.73944 0.31125 0.0
C712 C 0.05622 0.72062 0.32072 0.0
C713 C 0.06171 0.69613 0.3152 0.0
C714 C 0.08245 0.69033 0.30094 0.0
C715 C 0.09714 0.70932 0.29223 0.0
C716 C 0.09149 0.73342 0.29692 0.0
C717 C 0.11178 0.75028 0.28807 0.0
C718 C 0.10254 0.76592 0.26696 0.0
C719 C 0.12216 0.76621 0.30924 0.0
C720 C 0.13045 0.73188 0.27908 0.0
C721 C 0.12143 0.70836 0.28122 0.0
C722 C 0.13637 0.68821 0.27724 0.0
C723 C 0.1613 0.69217 0.2716 0.0
C724 C 0.17093 0.71606 0.26984 0.0
C725 C 0.1552 0.73612 0.27286 0.0
H726 H 0.51093 0.8476 0.60846 0.0
H727 H 0.46808 0.81417 0.54973 0.0
H728 H 0.46724 0.85344 0.52829 0.0
H729 H 0.4852 0.91099 0.60477 0.0
H730 H 0.5152 0.92458 0.61004 0.0
H731 H 0.50745 0.89584 0.62361 0.0
H732 H 0.54607 0.8764 0.60347 0.0
H733 H 0.55394 0.905 0.59002 0.0
H734 H 0.55017 0.87827 0.57078 0.0
H735 H 0.4751 0.89442 0.51109 0.0
H736 H 0.49597 0.93165 0.49663 0.0
H737 H 0.5366 0.93754 0.56478 0.0
C738 C 0.50077 0.84885 0.59144 0.0
C739 C 0.48924 0.82816 0.58081 0.0
C740 C 0.47687 0.83 0.55813 0.0
C741 C 0.4761 0.85224 0.546 0.0
C742 C 0.48811 0.87231 0.55668 0.0
C743 C 0.50047 0.87075 0.57879 0.0
C744 C 0.51535 0.89365 0.58431 0.0
C745 C 0.50518 0.90705 0.60703 0.0
C746 C 0.54301 0.88798 0.5873 0.0
C747 C 0.51048 0.90778 0.5613 0.0
C748 C 0.49389 0.89561 0.54607 0.0
C749 C 0.48772 0.90434 0.52305 0.0
C750 C 0.49944 0.9256 0.51507 0.0
C751 C 0.51727 0.93759 0.52994 0.0
C752 C 0.52255 0.92884 0.55343 0.0
H753 H 0.41788 0.29936 0.81501 0.0
H754 H 0.41327 0.24342 0.86966 0.0
H755 H 0.36792 0.24693 0.87019 0.0
H756 H 0.35721 0.33326 0.83701 0.0
H757 H 0.35046 0.34012 0.80557 0.0
H758 H 0.38206 0.33985 0.8161 0.0
H759 H 0.39318 0.30878 0.78172 0.0
H760 H 0.36207 0.3094 0.77104 0.0
H761 H 0.37567 0.28078 0.77905 0.0
H762 H 0.32546 0.24637 0.8554 0.0
H763 H 0.29255 0.23964 0.8248 0.0
H764 H 0.32243 0.29768 0.78131 0.0
C765 C 0.40723 0.28844 0.82757 0.0
C766 C 0.4188 0.27092 0.84195 0.0
C767 C 0.40461 0.25694 0.85839 0.0
C768 C 0.37886 0.25906 0.85906 0.0
C769 C 0.3677 0.27577 0.84374 0.0
C770 C 0.38156 0.29063 0.82863 0.0
C771 C 0.3654 0.30376 0.81074 0.0
C772 C 0.36368 0.33085 0.81779 0.0
C773 C 0.37461 0.30041 0.78411 0.0
C774 C 0.34104 0.29087 0.81526 0.0
C775 C 0.34226 0.27596 0.83547 0.0
C776 C 0.32387 0.25861 0.84019 0.0
C777 C 0.30511 0.25491 0.8228 0.0
C778 C 0.30527 0.26835 0.80106 0.0
C779 C 0.32203 0.28773 0.79826 0.0
H780 H 0.02652 0.81295 0.41879 0.0
H781 H 0.02661 0.84957 0.34898 0.0
H782 H 0.02297 0.88913 0.3707 0.0
H783 H 0.98086 0.8461 0.44515 0.0
H784 H -0.0064 0.8473 0.47565 0.0
H785 H 0.00101 0.82238 0.45531 0.0
H786 H 0.04785 0.83142 0.46031 0.0
H787 H 0.04068 0.85596 0.48132 0.0
H788 H 0.05956 0.86162 0.45479 0.0
H789 H 0.013 0.92373 0.39977 0.0
H790 H 0.00257 0.95137 0.43428 0.0
H791 H 0.00803 0.89115 0.48442 0.0
C792 C 0.02657 0.82932 0.40805 0.0
C793 C 0.02678 0.82822 0.38223 0.0
C794 C 0.02665 0.85003 0.36882 0.0
C795 C 0.02444 0.87256 0.38098 0.0
C796 C 0.02272 0.87283 0.40645 0.0
C797 C 0.0243 0.8518 0.41984 0.0
C798 C 0.02007 0.85661 0.44682 0.0
C799 C -0.00245 0.84225 0.45626 0.0
C800 C 0.04344 0.85108 0.46168 0.0
C801 C 0.01506 0.88352 0.44646 0.0
C802 C 0.01681 0.89263 0.42309 0.0
C803 C 0.01194 0.91688 0.41821 0.0
C804 C 0.00578 0.93236 0.43789 0.0
C805 C 0.00448 0.92341 0.46207 0.0
C806 C 0.00892 0.8986 0.46621 0.0
H807 H 0.41093 0.77178 0.64739 0.0
H808 H 0.40728 0.69688 0.62253 0.0
H809 H 0.36266 0.69569 0.6312 0.0
H810 H 0.38404 0.76496 0.69718 0.0
H811 H 0.36586 0.79225 0.69955 0.0
H812 H 0.39265 0.79181 0.68052 0.0
H813 H 0.36602 0.80464 0.64363 0.0
H814 H 0.33886 0.80476 0.66281 0.0
H815 H 0.33922 0.78684 0.63489 0.0
H816 H 0.32542 0.69694 0.65445 0.0
H817 H 0.30299 0.69832 0.69357 0.0
H818 H 0.32909 0.77167 0.70713 0.0
C819 C 0.40019 0.7557 0.64259 0.0
C820 C 0.4121 0.73454 0.63408 0.0
C821 C 0.39821 0.71329 0.62887 0.0
C822 C 0.3728 0.71263 0.63347 0.0
C823 C 0.36163 0.73325 0.64365 0.0
C824 C 0.3749 0.7546 0.64802 0.0
C825 C 0.36082 0.77167 0.66496 0.0
C826 C 0.37679 0.78061 0.68684 0.0
C827 C 0.35062 0.79324 0.65071 0.0
C828 C 0.33996 0.75495 0.67273 0.0
C829 C 0.33956 0.7337 0.65865 0.0
C830 C 0.32498 0.71374 0.66503 0.0
C831 C 0.31231 0.71459 0.68731 0.0
C832 C 0.31433 0.73524 0.70278 0.0
C833 C 0.3269 0.75613 0.69487 0.0
H834 H 0.46349 0.17317 0.90043 0.0
H835 H 0.50454 0.2145 0.95546 0.0
H836 H 0.50555 0.1782 0.98161 0.0
H837 H 0.42986 0.13018 0.94297 0.0
H838 H 0.43377 0.10553 0.92119 0.0
H839 H 0.42997 0.13613 0.9106 0.0
H840 H 0.47077 0.13226 0.88599 0.0
H841 H 0.475 0.102 0.89683 0.0
H842 H 0.49884 0.12466 0.90181 0.0
H843 H 0.50822 0.13561 -0.00182 0.0
H844 H 0.51348 0.09107 0.00264 0.0
H845 H 0.47416 0.07841 0.93448 0.0
C846 C 0.4719 0.17492 0.91837 0.0
C847 C 0.48391 0.19658 0.92597 0.0
C848 C 0.49508 0.19805 0.94939 0.0
C849 C 0.49566 0.17755 0.96437 0.0
C850 C 0.48487 0.15595 0.95562 0.0
C851 C 0.473 0.15465 0.93318 0.0
C852 C 0.46652 0.12881 0.92582 0.0
C853 C 0.43836 0.12494 0.92511 0.0
C854 C 0.47852 0.12153 0.90118 0.0
C855 C 0.47792 0.11556 0.94685 0.0
C856 C 0.48765 0.13142 0.96436 0.0
C857 C 0.50034 0.12307 0.98477 0.0
C858 C 0.50336 0.09789 0.98711 0.0
C859 C 0.49441 0.08174 0.96869 0.0
C860 C 0.48126 0.09063 0.94864 0.0
H861 H 0.08468 0.25401 0.14133 0.0
H862 H 0.03765 0.26458 0.20488 0.0
H863 H 0.07373 0.25809 0.23204 0.0
H864 H 0.1225 0.20656 0.16704 0.0
H865 H 0.15004 0.21736 0.152 0.0
H866 H 0.12024 0.22169 0.1381 0.0
H867 H 0.12859 0.26816 0.1362 0.0
H868 H 0.15847 0.26391 0.14974 0.0
H869 H 0.13694 0.28467 0.16383 0.0
H870 H 0.11659 0.25229 0.25193 0.0
H871 H 0.16143 0.25062 0.26186 0.0
H872 H 0.17809 0.24282 0.18452 0.0
C873 C 0.08184 0.25496 0.16096 0.0
C874 C 0.05842 0.25991 0.17102 0.0
C875 C 0.05553 0.26085 0.19682 0.0
C876 C 0.07585 0.25704 0.21234 0.0
C877 C 0.09874 0.25198 0.20171 0.0
C878 C 0.10168 0.25094 0.17655 0.0
C879 C 0.12808 0.24611 0.16932 0.0
C880 C 0.13033 0.22146 0.15582 0.0
C881 C 0.13863 0.26696 0.15388 0.0
C882 C 0.13988 0.24546 0.1943 0.0
C883 C 0.12279 0.24847 0.2129 0.0
C884 C 0.13004 0.24967 0.23749 0.0
C885 C 0.15545 0.24858 0.243 0.0
C886 C 0.17305 0.24666 0.22391 0.0
C887 C 0.16498 0.24432 0.19946 0.0
H888 H 0.1076 -0.0034 0.17245 0.0
H889 H 0.04718 0.96268 0.21164 0.0
H890 H 0.01971 0.96852 0.17573 0.0
H891 H 0.06925 0.04213 0.14212 0.0
H892 H 0.08784 0.04104 0.11474 0.0
H893 H 0.10174 0.03548 0.14411 0.0
H894 H 0.11776 0.9938 0.12815 0.0
H895 H 0.10431 -0.00057 0.09875 0.0
H896 H 0.09618 0.97216 0.11486 0.0
H897 H 0.0004 0.97511 0.13338 0.0
H898 H 0.9921 0.98019 0.08896 0.0
H899 H 0.06517 0.01149 0.07993 0.0
C900 C 0.08858 0.99037 0.17348 0.0
C901 C 0.07947 0.97887 0.19449 0.0
C902 C 0.0544 0.97142 0.19548 0.0
C903 C 0.03871 0.97481 0.1753 0.0
C904 C 0.04834 0.98631 0.15473 0.0
C905 C 0.07269 0.99414 0.15391 0.0
C906 C 0.07905 0.00531 0.12968 0.0
C907 C 0.0848 0.03261 0.13286 0.0
C908 C 0.10057 0.99185 0.11712 0.0
C909 C 0.05496 0.00119 0.1163 0.0
C910 C 0.03718 0.99071 0.13106 0.0
C911 C 0.01404 0.98372 0.12181 0.0
C912 C 0.0094 0.98677 0.09668 0.0
C913 C 0.02801 -0.00366 0.08134 0.0
C914 C 0.05062 0.00433 0.09147 0.0
H915 H 0.24408 0.82929 0.43262 0.0
H916 H 0.21972 0.89384 0.39517 0.0
H917 H 0.22691 0.87322 0.35527 0.0
H918 H 0.29287 0.81497 0.39126 0.0
H919 H 0.28839 0.78255 0.39314 0.0
H920 H 0.28043 0.80197 0.41878 0.0
H921 H 0.23565 0.78468 0.41861 0.0
H922 H 0.24369 0.76476 0.39344 0.0
H923 H 0.21789 0.78502 0.39067 0.0
H924 H 0.23763 0.84555 0.31942 0.0
H925 H 0.24676 0.8116 0.2908 0.0
H926 H 0.26506 0.76615 0.35238 0.0
C927 C 0.23977 0.83899 0.41608 0.0
C928 C 0.23117 0.86312 0.41703 0.0
C929 C 0.2262 0.87527 0.39489 0.0
C930 C 0.23041 0.8638 0.37214 0.0
C931 C 0.23975 0.8403 0.37192 0.0
C932 C 0.24412 0.82797 0.39332 0.0
C933 C 0.2542 0.8029 0.3882 0.0
C934 C 0.28054 0.80047 0.39845 0.0
C935 C 0.23681 0.78318 0.39832 0.0
C936 C 0.25428 0.80278 0.36054 0.0
C937 C 0.24618 0.82459 0.35144 0.0
C938 C 0.24401 0.8284 0.32636 0.0
C939 C 0.2493 0.80902 0.31024 0.0
C940 C 0.25641 0.78612 0.31934 0.0
C941 C 0.25969 0.78337 0.34478 0.0
H942 H 0.41634 0.04771 0.68236 0.0
H943 H 0.47075 -0.00071 0.71236 0.0
H944 H 0.4937 -5e-05 0.67307 0.0
H945 H 0.41048 0.02001 0.62852 0.0
H946 H 0.40657 0.0466 0.61013 0.0
H947 H 0.39844 0.04763 0.64196 0.0
H948 H 0.4279 0.08443 0.64932 0.0
H949 H 0.43589 0.08385 0.61726 0.0
H950 H 0.45983 0.0824 0.64014 0.0
H951 H 0.50487 -0.00127 0.62781 0.0
H952 H 0.50439 -0.00231 0.58242 0.0
H953 H 0.44255 0.04732 0.58315 0.0
C954 C 0.43368 0.0381 0.68097 0.0
C955 C 0.44193 0.02358 0.70026 0.0
C956 C 0.46441 0.01085 0.69783 0.0
C957 C 0.47748 0.01108 0.67555 0.0
C958 C 0.468 0.02451 0.65625 0.0
C959 C 0.44685 0.03826 0.65904 0.0
C960 C 0.43846 0.0486 0.63502 0.0
C961 C 0.41194 0.04018 0.62855 0.0
C962 C 0.44067 0.07647 0.63547 0.0
C963 C 0.45722 0.03734 0.61793 0.0
C964 C 0.47444 0.02386 0.63041 0.0
C965 C 0.49188 0.00976 0.61794 0.0
C966 C 0.49143 0.0092 0.59216 0.0
C967 C 0.47342 0.02241 0.57922 0.0
C968 C 0.45664 0.03709 0.59243 0.0
H969 H 0.27245 0.15533 0.89807 0.0
H970 H 0.25967 0.21749 0.9461 0.0
H971 H 0.25535 0.24356 0.91023 0.0
H972 H 0.30276 0.1935 0.84523 0.0
H973 H 0.28855 0.1735 0.82282 0.0
H974 H 0.29917 0.16159 0.85146 0.0
H975 H 0.25563 0.14364 0.85954 0.0
H976 H 0.24468 0.15548 0.83126 0.0
H977 H 0.22927 0.16348 0.85951 0.0
H978 H 0.23914 0.25894 0.87188 0.0
H979 H 0.21567 0.26318 0.8334 0.0
H980 H 0.23986 0.19224 0.80892 0.0
C981 C 0.26989 0.17465 0.90098 0.0
C982 C 0.2662 0.1844 0.92475 0.0
C983 C 0.26258 0.20966 0.928 0.0
C984 C 0.26025 0.22465 0.9077 0.0
C985 C 0.26215 0.21417 0.88436 0.0
C986 C 0.26761 0.18983 0.88086 0.0
C987 C 0.26486 0.1822 0.8542 0.0
C988 C 0.29034 0.17742 0.84275 0.0
C989 C 0.24757 0.15992 0.85098 0.0
C990 C 0.25363 0.20498 0.84402 0.0
C991 C 0.25323 0.22357 0.86147 0.0
C992 C 0.24021 0.24495 0.85776 0.0
C993 C 0.22676 0.24713 0.83605 0.0
C994 C 0.22656 0.22809 0.81843 0.0
C995 C 0.24071 0.2072 0.822 0.0
H996 H 0.08216 0.05383 0.32907 0.0
H997 H 0.11406 0.98266 0.33798 0.0
H998 H 0.10133 0.98304 0.38139 0.0
H999 H 0.09279 0.07641 0.39648 0.0
H1000 H 0.06369 0.09204 0.39554 0.0
H1001 H 0.08254 0.08978 0.36837 0.0
H1002 H 0.04543 0.07069 0.3447 0.0
H1003 H 0.02668 0.07263 0.3716 0.0
H1004 H 0.03075 0.04365 0.35629 0.0
H1005 H 0.07497 0.98583 0.41872 0.0
H1006 H 0.0388 0.9915 0.44597 0.0
H1007 H 0.02509 0.06121 0.41315 0.0
C1008 C 0.08737 0.03884 0.34053 0.0
C1009 C 0.09888 0.01823 0.33037 0.0
C1010 C 0.10536 -0.00126 0.3456 0.0
C1011 C 0.09828 -0.00115 0.3703 0.0
C1012 C 0.08542 0.01887 0.3795 0.0
C1013 C 0.0806 0.03883 0.36515 0.0
C1014 C 0.06303 0.05616 0.37766 0.0
C1015 C 0.07631 0.08001 0.38495 0.0
C1016 C 0.04014 0.06101 0.36162 0.0
C1017 C 0.05655 0.0416 0.39996 0.0
C1018 C 0.07026 0.02057 0.40132 0.0
C1019 C 0.06471 0.00261 0.41834 0.0
C1020 C 0.04412 0.00589 0.43367 0.0
C1021 C 0.02929 0.02672 0.43136 0.0
C1022 C 0.0363 0.04516 0.41519 0.0
H1023 H 0.21087 0.80875 0.55806 0.0
H1024 H 0.28912 0.82608 0.5591 0.0
H1025 H 0.29552 0.79594 0.59145 0.0
H1026 H 0.20426 0.80865 0.61947 0.0
H1027 H 0.18163 0.78445 0.62081 0.0
H1028 H 0.18441 0.80208 0.59361 0.0
H1029 H 0.19115 0.7625 0.5681 0.0
H1030 H 0.18875 0.74478 0.5955 0.0
H1031 H 0.21569 0.74224 0.57625 0.0
H1032 H 0.2927 0.76938 0.62758 0.0
H1033 H 0.28012 0.75512 0.66813 0.0
H1034 H 0.2034 0.7559 0.64558 0.0
C1035 C 0.22944 0.8055 0.56455 0.0
C1036 C 0.24956 0.81943 0.55593 0.0
C1037 C 0.27349 0.81545 0.56541 0.0
C1038 C 0.27733 0.79816 0.58358 0.0
C1039 C 0.25703 0.78505 0.59219 0.0
C1040 C 0.23348 0.78868 0.58312 0.0
C1041 C 0.21425 0.77578 0.59849 0.0
C1042 C 0.19504 0.79382 0.60871 0.0
C1043 C 0.20172 0.75509 0.5837 0.0
C1044 C 0.23046 0.7658 0.61856 0.0
C1045 C 0.25519 0.77037 0.61397 0.0
C1046 C 0.27345 0.76525 0.63113 0.0
C1047 C 0.26614 0.75687 0.65416 0.0
C1048 C 0.24079 0.75427 0.66005 0.0
C1049 C 0.22293 0.75736 0.64146 0.0
H1050 H 0.39715 0.00241 0.84108 0.0
H1051 H 0.42182 0.92886 0.82717 0.0
H1052 H 0.41998 0.92072 0.87143 0.0
H1053 H 0.43543 0.01447 0.88567 0.0
H1054 H 0.41546 0.03323 0.90434 0.0
H1055 H 0.40973 0.0301 0.87223 0.0
H1056 H 0.36509 0.01548 0.8818 0.0
H1057 H 0.37128 0.01794 0.91423 0.0
H1058 H 0.36022 0.9896 0.90108 0.0
H1059 H 0.42587 0.92324 0.91534 0.0
H1060 H 0.44798 0.93839 0.95187 0.0
H1061 H 0.42101 0.01066 0.93944 0.0
C1062 C 0.40124 0.98435 0.84742 0.0
C1063 C 0.40948 0.9662 0.83091 0.0
C1064 C 0.41549 0.94299 0.83965 0.0
C1065 C 0.41406 0.93812 0.86472 0.0
C1066 C 0.40669 0.95668 0.88081 0.0
C1067 C 0.40053 0.97948 0.87247 0.0
C1068 C 0.39917 -0.00211 0.89335 0.0
C1069 C 0.41598 0.02017 0.88861 0.0
C1070 C 0.37234 0.00567 0.89788 0.0
C1071 C 0.40847 0.98264 0.91424 0.0
C1072 C 0.41099 0.95849 0.90699 0.0
C1073 C 0.42331 0.94184 0.9215 0.0
C1074 C 0.43563 0.95051 0.94246 0.0
C1075 C 0.43577 0.97557 0.94833 0.0
C1076 C 0.42024 0.9913 0.93552 0.0
H1077 H 0.2411 0.13784 0.09336 0.0
H1078 H 0.29106 0.17783 0.04616 0.0
H1079 H 0.3057 0.20198 0.08165 0.0
H1080 H 0.22205 0.18673 0.12864 0.0
H1081 H 0.22075 0.17099 0.15733 0.0
H1082 H 0.21685 0.15431 0.12899 0.0
H1083 H 0.2526 0.12609 0.14122 0.0
H1084 H 0.25722 0.14313 0.16937 0.0
H1085 H 0.28255 0.13896 0.14839 0.0
H1086 H 0.311 0.2253 0.1202 0.0
H1087 H 0.30562 0.24717 0.15957 0.0
H1088 H 0.253 0.1921 0.18265 0.0
C1089 C 0.25545 0.15136 0.0906 0.0
C1090 C 0.26488 0.15596 0.06696 0.0
C1091 C 0.28345 0.17402 0.06405 0.0
C1092 C 0.29207 0.18772 0.08414 0.0
C1093 C 0.28212 0.18306 0.10709 0.0
C1094 C 0.26429 0.16528 0.11051 0.0
C1095 C 0.25512 0.16551 0.13676 0.0
C1096 C 0.22704 0.16965 0.13798 0.0
C1097 C 0.2623 0.14201 0.14969 0.0
C1098 C 0.26951 0.18713 0.14705 0.0
C1099 C 0.28539 0.19659 0.12975 0.0
C1100 C 0.299 0.21783 0.13409 0.0
C1101 C 0.29576 0.23017 0.15646 0.0
C1102 C 0.27899 0.22126 0.17412 0.0
C1103 C 0.2663 0.19907 0.16964 0.0
H1104 H 0.17589 0.08975 0.95476 0.0
H1105 H 0.15758 0.14897 0.00461 0.0
H1106 H 0.1139 0.13494 0.00499 0.0
H1107 H 0.11491 0.08827 0.92081 0.0
H1108 H 0.11597 0.05561 0.91798 0.0
H1109 H 0.14425 0.07321 0.91804 0.0
H1110 H 0.16073 0.04809 0.95426 0.0
H1111 H 0.13272 0.03044 0.9542 0.0
H1112 H 0.14257 0.04607 0.98186 0.0
H1113 H 0.07408 0.10985 0.00539 0.0
H1114 H 0.04351 0.07607 0.00664 0.0
H1115 H 0.08825 0.03452 0.95553 0.0
C1116 C 0.16255 0.10013 0.96525 0.0
C1117 C 0.17 0.12036 0.97967 0.0
C1118 C 0.15213 0.13348 0.99329 0.0
C1119 C 0.12729 0.12569 0.99353 0.0
C1120 C 0.12063 0.10515 0.97957 0.0
C1121 C 0.13779 0.09281 0.96541 0.0
C1122 C 0.12691 0.06989 0.95407 0.0
C1123 C 0.12542 0.07188 0.92606 0.0
C1124 C 0.14159 0.04731 0.96157 0.0
C1125 C 0.10148 0.07024 0.96543 0.0
C1126 C 0.0978 0.09098 0.97958 0.0
C1127 C 0.07656 0.09384 0.99388 0.0
C1128 C 0.05922 0.07462 0.99443 0.0
C1129 C 0.06359 0.05277 0.98112 0.0
C1130 C 0.0844 0.05113 0.96569 0.0
H1131 H 0.67805 0.41821 0.03843 0.0
H1132 H 0.68312 0.40479 0.96022 0.0
H1133 H 0.64795 0.43237 0.95343 0.0
H1134 H 0.61405 0.41411 0.04044 0.0
H1135 H 0.61016 0.43685 0.06426 0.0
H1136 H 0.63845 0.4201 0.06228 0.0
H1137 H 0.66306 0.46072 0.06023 0.0
H1138 H 0.63465 0.47756 0.06174 0.0
H1139 H 0.65583 0.48218 0.03675 0.0
H1140 H 0.6107 0.45907 0.95537 0.0
H1141 H 0.56959 0.47533 0.96604 0.0
H1142 H 0.58638 0.46801 0.04315 0.0
C1143 C 0.67196 0.42154 0.0199 0.0
C1144 C 0.68324 0.40976 -0.00021 0.0
C1145 C 0.67457 0.41382 0.97579 0.0
C1146 C 0.65486 0.42965 0.97178 0.0
C1147 C 0.64391 0.441 0.99201 0.0
C1148 C 0.65185 0.43675 0.01565 0.0
C1149 C 0.63461 0.44806 0.03436 0.0
C1150 C 0.62366 0.42862 0.05131 0.0
C1151 C 0.64783 0.46834 0.04914 0.0
C1152 C 0.61519 0.45841 0.01762 0.0
C1153 C 0.62143 0.45507 0.99324 0.0
C1154 C 0.60573 0.46202 0.97438 0.0
C1155 C 0.58251 0.47143 0.9806 0.0
C1156 C 0.57504 0.47306 0.0054 0.0
C1157 C 0.59191 0.46729 0.02409 0.0
H1158 H 0.83077 0.43613 0.23472 0.0
H1159 H 0.90211 0.40401 0.21867 0.0
H1160 H 0.8829 0.36305 0.21951 0.0
H1161 H 0.81158 0.39246 0.27713 0.0
H1162 H 0.77959 0.39288 0.26794 0.0
H1163 H 0.79866 0.41959 0.26445 0.0
H1164 H 0.78826 0.42056 0.21809 0.0
H1165 H 0.76875 0.39416 0.22152 0.0
H1166 H 0.79335 0.39383 0.19927 0.0
H1167 H 0.85578 0.32532 0.22511 0.0
H1168 H 0.82229 0.29481 0.23049 0.0
H1169 H 0.76984 0.35288 0.2425 0.0
C1170 C 0.84239 0.42058 0.23101 0.0
C1171 C 0.86793 0.42327 0.22667 0.0
C1172 C 0.88244 0.40237 0.22197 0.0
C1173 C 0.87174 0.37904 0.22255 0.0
C1174 C 0.8466 0.37707 0.22778 0.0
C1175 C 0.83212 0.39735 0.2316 0.0
C1176 C 0.80573 0.3906 0.23735 0.0
C1177 C 0.79848 0.3994 0.26325 0.0
C1178 C 0.78798 0.40036 0.21789 0.0
C1179 C 0.80747 0.3633 0.23594 0.0
C1180 C 0.83118 0.3557 0.23069 0.0
C1181 C 0.83711 0.3311 0.22903 0.0
C1182 C 0.81807 0.31391 0.23222 0.0
C1183 C 0.79354 0.32155 0.23658 0.0
C1184 C 0.7884 0.34653 0.23887 0.0
H1185 H 0.8148 0.53845 0.4792 0.0
H1186 H 0.83466 0.61465 0.4735 0.0
H1187 H 0.87866 0.60412 0.47462 0.0
H1188 H 0.85064 0.52403 0.52185 0.0
H1189 H 0.86081 0.49447 0.51145 0.0
H1190 H 0.83218 0.50613 0.50059 0.0
H1191 H 0.847 0.50085 0.45573 0.0
H1192 H 0.87597 0.48897 0.46645 0.0
H1193 H 0.87576 0.51454 0.44631 0.0
H1194 H 0.91818 0.58775 0.48901 0.0
H1195 H 0.94882 0.56677 0.51461 0.0
H1196 H 0.90399 0.50135 0.51166 0.0
C1197 C 0.82847 0.55275 0.47707 0.0
C1198 C 0.82132 0.57731 0.47653 0.0
C1199 C 0.83966 0.59565 0.47395 0.0
C1200 C 0.86479 0.58982 0.47436 0.0
C1201 C 0.87132 0.56553 0.47673 0.0
C1202 C 0.85364 0.54715 0.47735 0.0
C1203 C 0.86503 0.52318 0.48422 0.0
C1204 C 0.85137 0.51132 0.50582 0.0
C1205 C 0.86599 0.50586 0.46185 0.0
C1206 C 0.89073 0.53177 0.49119 0.0
C1207 C 0.89455 0.5559 0.4853 0.0
C1208 C 0.91574 0.56866 0.4929 0.0
C1209 C 0.93294 0.55674 0.50756 0.0
C1210 C 0.9284 0.53263 0.51482 0.0
C1211 C 0.90767 0.51977 0.50589 0.0
H1212 H 0.13138 0.0915 0.24297 0.0
H1213 H 0.18403 0.04261 0.20909 0.0
H1214 H 0.21155 0.07756 0.20032 0.0
H1215 H 0.14619 0.14804 0.20533 0.0
H1216 H 0.14324 0.16734 0.23215 0.0
H1217 H 0.12438 0.14026 0.22895 0.0
H1218 H 0.14027 0.12504 0.27076 0.0
H1219 H 0.15861 0.15215 0.27417 0.0
H1220 H 0.17311 0.12284 0.27579 0.0
H1221 H 0.23623 0.11527 0.2022 0.0
H1222 H 0.25893 0.14976 0.22119 0.0
H1223 H 0.1918 0.17436 0.2561 0.0
C1224 C 0.14832 0.08836 0.23289 0.0
C1225 C 0.15553 0.06454 0.22633 0.0
C1226 C 0.17819 0.06081 0.21408 0.0
C1227 C 0.19373 0.0806 0.20876 0.0
C1228 C 0.1864 0.10392 0.216 0.0
C1229 C 0.16427 0.10784 0.22806 0.0
C1230 C 0.16296 0.13349 0.23855 0.0
C1231 C 0.14301 0.14815 0.22545 0.0
C1232 C 0.15851 0.13335 0.26645 0.0
C1233 C 0.18858 0.14279 0.23224 0.0
C1234 C 0.2013 0.1259 0.21809 0.0
C1235 C 0.2263 0.1289 0.21268 0.0
C1236 C 0.23905 0.14862 0.22341 0.0
C1237 C 0.22683 0.16481 0.23955 0.0
C1238 C 0.20113 0.16268 0.24296 0.0
H1239 H 0.32881 0.90019 0.5206 0.0
H1240 H 0.32357 0.89566 0.44169 0.0
H1241 H 0.36901 0.89706 0.43848 0.0
H1242 H 0.36603 0.9452 0.52284 0.0
H1243 H 0.38488 0.937 0.54864 0.0
H1244 H 0.35439 0.92464 0.54562 0.0
H1245 H 0.37216 0.88114 0.54753 0.0
H1246 H 0.40302 0.89363 0.55023 0.0
H1247 H 0.39583 0.87181 0.52623 0.0
H1248 H 0.41133 0.91092 0.44234 0.0
H1249 H 0.44343 0.94168 0.45202 0.0
H1250 H 0.42251 0.94061 0.52828 0.0
C1251 C 0.33755 0.89828 0.50283 0.0
C1252 C 0.32314 0.89753 0.48142 0.0
C1253 C 0.3346 0.89605 0.45826 0.0
C1254 C 0.36038 0.89651 0.45634 0.0
C1255 C 0.37438 0.89875 0.47776 0.0
C1256 C 0.36331 0.89958 0.50069 0.0
C1257 C 0.38137 0.90838 0.52016 0.0
C1258 C 0.37105 0.9301 0.53512 0.0
C1259 C 0.38852 0.88749 0.53702 0.0
C1260 C 0.40301 0.91562 0.50417 0.0
C1261 C 0.39937 0.9082 0.48004 0.0
C1262 C 0.4148 0.91617 0.46123 0.0
C1263 C 0.43304 0.93361 0.46682 0.0
C1264 C 0.43524 0.94302 0.49087 0.0
C1265 C 0.42127 0.93291 0.50993 0.0
H1266 H 0.80114 0.55508 0.23038 0.0
H1267 H 0.81903 0.5533 0.30752 0.0
H1268 H 0.79098 0.58771 0.31547 0.0
H1269 H 0.80973 0.61314 0.22576 0.0
H1270 H 0.78604 0.61952 0.20361 0.0
H1271 H 0.79855 0.5896 0.20508 0.0
H1272 H 0.75465 0.57159 0.21143 0.0
H1273 H 0.74189 0.6017 0.20985 0.0
H1274 H 0.73554 0.58307 0.23599 0.0
H1275 H 0.76987 0.62711 0.31391 0.0
H1276 H 0.76262 0.66978 0.30259 0.0
H1277 H 0.76243 0.64863 0.22593 0.0
C1278 C 0.79798 0.56118 0.24908 0.0
C1279 C 0.81164 0.55143 0.26844 0.0
C1280 C 0.8083 0.56045 0.29257 0.0
C1281 C 0.79226 0.57984 0.29722 0.0
C1282 C 0.78004 0.59015 0.27748 0.0
C1283 C 0.7828 0.58111 0.25379 0.0
C1284 C 0.773 0.59865 0.23516 0.0
C1285 C 0.79303 0.60564 0.21635 0.0
C1286 C 0.74989 0.58812 0.22236 0.0
C1287 C 0.76642 0.61983 0.25185 0.0
C1288 C 0.76925 0.61409 0.27628 0.0
C1289 C 0.76695 0.63162 0.29492 0.0
C1290 C 0.76283 0.65578 0.28838 0.0
C1291 C 0.76185 0.66208 0.26346 0.0
C1292 C 0.7627 0.64387 0.2451 0.0
H1293 H 0.70649 0.44453 0.75598 0.0
H1294 H 0.64385 0.41085 0.79184 0.0
H1295 H 0.66685 0.37254 0.79464 0.0
H1296 H 0.71693 0.40093 0.71734 0.0
H1297 H 0.75024 0.40207 0.71683 0.0
H1298 H 0.73329 0.42861 0.72553 0.0
H1299 H 0.75686 0.43131 0.76681 0.0
H1300 H 0.77422 0.40468 0.75815 0.0
H1301 H 0.7573 0.4054 0.78657 0.0
H1302 H 0.69163 0.33586 0.78404 0.0
H1303 H 0.71493 0.30515 0.76001 0.0
H1304 H 0.76056 0.3623 0.72986 0.0
C1305 C 0.69812 0.42944 0.76551 0.0
C1306 C 0.67349 0.43062 0.7737 0.0
C1307 C 0.6628 0.41034 0.78549 0.0
C1308 C 0.6758 0.38852 0.78731 0.0
C1309 C 0.69955 0.38736 0.7775 0.0
C1310 C 0.71077 0.40748 0.76715 0.0
C1311 C 0.7342 0.40058 0.75377 0.0
C1312 C 0.73358 0.40849 0.72679 0.0
C1313 C 0.757 0.41111 0.76713 0.0
C1314 C 0.733 0.37325 0.75597 0.0
C1315 C 0.71359 0.36594 0.77068 0.0
C1316 C 0.70725 0.34139 0.77301 0.0
C1317 C 0.72049 0.32404 0.75927 0.0
C1318 C 0.7393 0.33151 0.74304 0.0
C1319 C 0.74618 0.35623 0.74219 0.0
H1320 H 0.00901 0.81633 0.93937 0.0
H1321 H 0.98756 0.84683 0.87002 0.0
H1322 H 0.97981 0.88637 0.89054 0.0
H1323 H 0.96799 0.85585 0.98064 0.0
H1324 H 0.99214 0.85855 0.00329 0.0
H1325 H 0.98908 0.83112 0.98493 0.0
H1326 H 0.03467 0.83557 0.97087 0.0
H1327 H 0.03783 0.86272 0.98927 0.0
H1328 H 0.04469 0.86348 0.95697 0.0
H1329 H 0.98086 0.92386 0.91675 0.0
H1330 H -0.0035 0.95654 0.94458 0.0
H1331 H 0.02033 0.90244 -0.00411 0.0
C1332 C 0.00178 0.83114 0.92879 0.0
C1333 C -0.00145 0.82859 0.90328 0.0
C1334 C 0.99 0.8485 0.88967 0.0
C1335 C 0.98529 0.87092 0.90121 0.0
C1336 C 0.98937 0.87318 0.92635 0.0
C1337 C -0.00242 0.85382 0.93997 0.0
C1338 C 0.00505 0.86201 0.96552 0.0
C1339 C 0.98751 0.85124 0.98473 0.0
C1340 C 0.03216 0.85558 0.97094 0.0
C1341 C 0.00151 0.88916 0.96354 0.0
C1342 C 0.9913 0.89517 0.94126 0.0
C1343 C 0.98838 0.91936 0.93446 0.0
C1344 C -0.0028 0.93781 0.95035 0.0
C1345 C 0.00935 0.93176 0.97226 0.0
C1346 C 0.01068 0.90731 0.97932 0.0
H1347 H 0.95498 0.27838 0.68754 0.0
H1348 H 0.96981 0.21274 0.7277 0.0
H1349 H 0.92786 0.21436 0.74556 0.0
H1350 H 0.91298 0.30775 0.73423 0.0
H1351 H 0.8937 0.31943 0.71029 0.0
H1352 H 0.9264 0.31588 0.70524 0.0
H1353 H 0.91696 0.28939 0.66656 0.0
H1354 H 0.88436 0.29244 0.67168 0.0
H1355 H 0.89775 0.26262 0.66933 0.0
H1356 H 0.8818 0.21927 0.75298 0.0
H1357 H 0.8371 0.22835 0.75083 0.0
H1358 H 0.85348 0.2903 0.7052 0.0
C1359 C 0.94977 0.26481 0.70077 0.0
C1360 C 0.96565 0.24549 0.70626 0.0
C1361 C 0.95802 0.2279 0.72343 0.0
C1362 C 0.93419 0.22863 0.73362 0.0
C1363 C 0.91848 0.24727 0.72673 0.0
C1364 C 0.92618 0.26528 0.71101 0.0
C1365 C 0.90523 0.28178 0.7042 0.0
C1366 C 0.90986 0.30775 0.71409 0.0
C1367 C 0.90083 0.28151 0.6763 0.0
C1368 C 0.88424 0.26961 0.71759 0.0
C1369 C 0.89215 0.24997 0.73083 0.0
C1370 C 0.87551 0.23494 0.74311 0.0
C1371 C 0.85017 0.24017 0.74172 0.0
C1372 C 0.84183 0.26003 0.72784 0.0
C1373 C 0.85923 0.27502 0.716 0.0
H1374 H 0.49396 0.17888 0.43532 0.0
H1375 H 0.50424 0.14936 0.36185 0.0
H1376 H 0.5001 0.10774 0.3777 0.0
H1377 H 0.52636 0.12984 0.46752 0.0
H1378 H 0.50498 0.13043 0.49281 0.0
H1379 H 0.51157 0.15787 0.47632 0.0
H1380 H 0.4649 0.16341 0.46735 0.0
H1381 H 0.4581 0.1364 0.4842 0.0
H1382 H 0.44768 0.13884 0.45298 0.0
H1383 H 0.49222 0.06926 0.40133 0.0
H1384 H 0.47653 0.03807 0.42999 0.0
H1385 H 0.47022 0.09321 0.48708 0.0
C1386 C 0.49557 0.16367 0.42259 0.0
C1387 C 0.49943 0.16735 0.39739 0.0
C1388 C 0.50126 0.14696 0.38128 0.0
C1389 C 0.49916 0.12324 0.39013 0.0
C1390 C 0.49539 0.12023 0.41513 0.0
C1391 C 0.49349 0.13992 0.4311 0.0
C1392 C 0.48738 0.13196 0.45676 0.0
C1393 C 0.50885 0.13788 0.47439 0.0
C1394 C 0.46307 0.14332 0.46583 0.0
C1395 C 0.48477 0.10485 0.45248 0.0
C1396 C 0.49027 0.09825 0.42856 0.0
C1397 C 0.48811 0.07419 0.42016 0.0
C1398 C 0.47928 0.05663 0.43646 0.0
C1399 C 0.47238 0.06353 0.4605 0.0
C1400 C 0.47568 0.08769 0.46874 0.0
H1401 H 0.60277 0.77838 0.13665 0.0
H1402 H 0.56955 0.70677 0.13019 0.0
H1403 H 0.60688 0.68871 0.14797 0.0
H1404 H 0.67145 0.7554 0.12692 0.0
H1405 H 0.68175 0.77894 0.14803 0.0
H1406 H 0.65606 0.78432 0.1279 0.0
H1407 H 0.62992 0.79624 0.1662 0.0
H1408 H 0.65544 0.79001 0.18588 0.0
H1409 H 0.62627 0.77464 0.19046 0.0
H1410 H 0.63881 0.68137 0.17858 0.0
H1411 H 0.6663 0.68473 0.21476 0.0
H1412 H 0.68369 0.75911 0.19661 0.0
C1413 C 0.6041 0.75882 0.13793 0.0
C1414 C 0.58373 0.74382 0.13216 0.0
C1415 C 0.58533 0.71836 0.13441 0.0
C1416 C 0.60648 0.70798 0.14433 0.0
C1417 C 0.62606 0.7233 0.15105 0.0
C1418 C 0.62546 0.74813 0.14711 0.0
C1419 C 0.6474 0.76093 0.15883 0.0
C1420 C 0.66523 0.77043 0.13923 0.0
C1421 C 0.63924 0.78163 0.17639 0.0
C1422 C 0.65861 0.73999 0.17243 0.0
C1423 C 0.64635 0.71827 0.16735 0.0
C1424 C 0.64955 0.69781 0.18181 0.0
C1425 C 0.66502 0.69982 0.20235 0.0
C1426 C 0.67736 0.72193 0.20766 0.0
C1427 C 0.67505 0.74177 0.192 0.0
H1428 H 0.01393 0.14667 0.61921 0.0
H1429 H 0.95965 0.19637 0.59043 0.0
H1430 H 0.94391 0.1638 0.56279 0.0
H1431 H 0.02955 0.12056 0.56369 0.0
H1432 H 0.03384 0.09024 0.57485 0.0
H1433 H 0.03824 0.11599 0.59515 0.0
H1434 H 0.00604 0.09814 0.62528 0.0
H1435 H 0.00161 0.07222 0.60505 0.0
H1436 H 0.9755 0.09025 0.61435 0.0
H1437 H 0.93702 0.12784 0.53578 0.0
H1438 H 0.94006 0.09115 0.50977 0.0
H1439 H -0.00035 0.06491 0.55536 0.0
C1440 C -0.00171 0.15055 0.60756 0.0
C1441 C 0.98785 0.17397 0.60707 0.0
C1442 C 0.96785 0.17851 0.59113 0.0
C1443 C 0.95871 0.16011 0.57549 0.0
C1444 C 0.96977 0.13736 0.57611 0.0
C1445 C 0.9891 0.13248 0.59173 0.0
C1446 C -0.0006 0.10734 0.587 0.0
C1447 C 0.02687 0.10863 0.57973 0.0
C1448 C -0.00461 0.09103 0.60925 0.0
C1449 C 0.98337 0.09916 0.56568 0.0
C1450 C 0.96613 0.1166 0.56003 0.0
C1451 C 0.95022 0.11392 0.54019 0.0
C1452 C 0.95222 0.09304 0.52546 0.0
C1453 C 0.97019 0.07518 0.53051 0.0
C1454 C 0.98561 0.07811 0.55119 0.0
H1455 H 0.58816 0.28313 0.35277 0.0
H1456 H 0.59939 0.20648 0.364 0.0
H1457 H 0.6415 0.20986 0.34638 0.0
H1458 H 0.60977 0.28397 0.29689 0.0
H1459 H 0.62443 0.31353 0.29797 0.0
H1460 H 0.59934 0.30701 0.31828 0.0
H1461 H 0.6267 0.31846 0.35579 0.0
H1462 H 0.65199 0.32537 0.33547 0.0
H1463 H 0.65612 0.30392 0.35969 0.0
H1464 H 0.67796 0.21983 0.31963 0.0
H1465 H 0.70371 0.23492 0.28555 0.0
H1466 H 0.66735 0.30461 0.29083 0.0
C1467 C 0.60014 0.26746 0.35268 0.0
C1468 C 0.59121 0.24477 0.3602 0.0
C1469 C 0.6065 0.22415 0.35886 0.0
C1470 C 0.63037 0.22595 0.34892 0.0
C1471 C 0.63843 0.24851 0.34056 0.0
C1472 C 0.62378 0.269 0.34264 0.0
C1473 C 0.6344 0.28997 0.32847 0.0
C1474 C 0.6159 0.29911 0.30927 0.0
C1475 C 0.64281 0.31065 0.3459 0.0
C1476 C 0.65625 0.27766 0.3166 0.0
C1477 C 0.6589 0.25403 0.32436 0.0
C1478 C 0.67635 0.23847 0.31384 0.0
C1479 C 0.69084 0.24711 0.29442 0.0
C1480 C 0.68724 0.27078 0.28546 0.0
C1481 C 0.67042 0.28639 0.29733 0.0
H1482 H 0.47081 0.83428 0.11064 0.0
H1483 H 0.49722 0.79638 0.04564 0.0
H1484 H 0.49603 0.8349 0.02278 0.0
H1485 H 0.43087 0.8792 0.07857 0.0
H1486 H 0.43909 0.90266 0.10061 0.0
H1487 H 0.43751 0.87138 0.1098 0.0
H1488 H 0.48248 0.8749 0.12598 0.0
H1489 H 0.48447 0.9059 0.11636 0.0
H1490 H 0.50678 0.88414 0.10546 0.0
H1491 H 0.49856 0.87906 0.00958 0.0
H1492 H 0.50092 0.92386 0.00619 0.0
H1493 H 0.47316 0.93142 0.08054 0.0
C1494 C 0.47557 0.83391 0.09136 0.0
C1495 C 0.48409 0.81251 0.07983 0.0
C1496 C 0.49038 0.81266 0.05468 0.0
C1497 C 0.48985 0.83444 0.04162 0.0
C1498 C 0.4826 0.8556 0.05399 0.0
C1499 C 0.47508 0.85532 0.07819 0.0
C1500 C 0.47025 0.88056 0.08816 0.0
C1501 C 0.44279 0.88363 0.09466 0.0
C1502 C 0.487 0.88672 0.11028 0.0
C1503 C 0.47727 0.89528 0.06616 0.0
C1504 C 0.48409 0.88071 0.04648 0.0
C1505 C 0.49279 0.89061 0.02473 0.0
C1506 C 0.49424 0.91604 0.02304 0.0
C1507 C 0.48722 0.93116 0.0431 0.0
C1508 C 0.47861 0.92046 0.06481 0.0
H1509 H 0.94102 0.71875 0.82814 0.0
H1510 H 0.95147 0.79349 0.80594 0.0
H1511 H 0.9104 0.79278 0.78639 0.0
H1512 H 0.9079 0.69965 0.77111 0.0
H1513 H 0.8877 0.679 0.787 0.0
H1514 H 0.91857 0.68478 0.79826 0.0
H1515 H 0.90089 0.69763 0.8406 0.0
H1516 H 0.87006 0.69174 0.82955 0.0
H1517 H 0.878 0.72121 0.84235 0.0
H1518 H 0.86716 0.78566 0.77337 0.0
H1519 H 0.82428 0.7719 0.76655 0.0
H1520 H 0.84227 0.7007 0.79337 0.0
C1521 C 0.93462 0.73484 0.819 0.0
C1522 C 0.94926 0.75618 0.8185 0.0
C1523 C 0.94052 0.77691 0.80631 0.0
C1524 C 0.91727 0.77668 0.79515 0.0
C1525 C 0.90326 0.75537 0.79584 0.0
C1526 C 0.91163 0.73472 0.80717 0.0
C1527 C 0.89261 0.71437 0.80543 0.0
C1528 C 0.90227 0.69319 0.7895 0.0
C1529 C 0.88494 0.70575 0.83101 0.0
C1530 C 0.87173 0.72732 0.7927 0.0
C1531 C 0.87849 0.75085 0.78703 0.0
C1532 C 0.86189 0.76702 0.77692 0.0
C1533 C 0.83765 0.759 0.7727 0.0
C1534 C 0.83018 0.73507 0.77834 0.0
C1535 C 0.84759 0.71895 0.78828 0.0
H1536 H 0.90211 0.00764 0.81803 0.0
H1537 H 0.97525 -0.00026 0.78637 0.0
H1538 H -0.00637 0.00243 0.82782 0.0
H1539 H 0.9182 0.05005 0.86636 0.0
H1540 H 0.89748 0.03631 0.88808 0.0
H1541 H 0.89051 0.03463 0.85585 0.0
H1542 H 0.88759 0.98764 0.85813 0.0
H1543 H 0.89475 0.98917 0.89033 0.0
H1544 H 0.91339 0.97094 0.8699 0.0
H1545 H 0.00368 0.00429 0.8733 0.0
H1546 H 0.0045 0.00719 0.91866 0.0
H1547 H 0.92464 0.0139 0.91938 0.0
C1548 C 0.92202 0.00679 0.81972 0.0
C1549 C 0.93726 0.0036 0.79897 0.0
C1550 C 0.96322 0.0022 0.80205 0.0
C1551 C 0.97383 0.00368 0.82549 0.0
C1552 C 0.95819 0.00643 0.8456 0.0
C1553 C 0.93285 0.00803 0.84289 0.0
C1554 C 0.91997 0.01025 0.86734 0.0
C1555 C 0.90571 0.03425 0.86953 0.0
C1556 C 0.90292 0.98819 0.87167 0.0
C1557 C 0.94204 0.01012 0.88427 0.0
C1558 C 0.96393 0.00765 0.8715 0.0
C1559 C 0.98665 0.00639 0.88348 0.0
C1560 C 0.98694 0.00797 0.90919 0.0
C1561 C 0.96467 0.01103 0.92246 0.0
C1562 C 0.94202 0.01195 0.90973 0.0
H1563 H 0.74883 0.16973 0.56008 0.0
H1564 H 0.71378 0.10749 0.59398 0.0
H1565 H 0.7125 0.13005 0.63354 0.0
H1566 H 0.78652 0.18817 0.61122 0.0
H1567 H 0.78265 0.2201 0.60565 0.0
H1568 H 0.78119 0.19853 0.58053 0.0
H1569 H 0.73792 0.21463 0.56884 0.0
H1570 H 0.73911 0.23608 0.5941 0.0
H1571 H 0.7136 0.21488 0.59142 0.0
H1572 H 0.71626 0.15983 0.66993 0.0
H1573 H 0.72413 0.19413 0.69909 0.0
H1574 H 0.75432 0.23653 0.63957 0.0
C1575 C 0.74107 0.1607 0.57583 0.0
C1576 C 0.73158 0.13682 0.57399 0.0
C1577 C 0.72125 0.12581 0.595 0.0
C1578 C 0.72041 0.13847 0.61753 0.0
C1579 C 0.72974 0.16215 0.61862 0.0
C1580 C 0.73981 0.17311 0.59825 0.0
C1581 C 0.74825 0.19878 0.60392 0.0
C1582 C 0.77631 0.20154 0.60011 0.0
C1583 C 0.73385 0.21717 0.58867 0.0
C1584 C 0.74147 0.20061 0.63068 0.0
C1585 C 0.73096 0.17934 0.63902 0.0
C1586 C 0.72428 0.17666 0.66353 0.0
C1587 C 0.72877 0.19621 0.67994 0.0
C1588 C 0.73957 0.21812 0.67158 0.0
C1589 C 0.74565 0.22024 0.64656 0.0
H1590 H 0.58855 0.00013 0.3143 0.0
H1591 H 0.51578 0.99201 0.28176 0.0
H1592 H 0.49756 0.98788 0.32329 0.0
H1593 H 0.58216 0.95917 0.36348 0.0
H1594 H 0.5988 0.97849 0.38492 0.0
H1595 H 0.6056 0.97991 0.35271 0.0
H1596 H 0.59716 0.02626 0.35363 0.0
H1597 H 0.59031 0.02497 0.38586 0.0
H1598 H 0.56796 0.03716 0.36502 0.0
H1599 H 0.48772 0.98566 0.36938 0.0
H1600 H 0.48729 0.98532 0.41482 0.0
H1601 H 0.56688 -0.00446 0.41555 0.0
C1602 C 0.56881 -0.00296 0.31582 0.0
C1603 C 0.5536 -0.0041 0.29484 0.0
C1604 C 0.52776 0.9927 0.29766 0.0
C1605 C 0.51729 0.99038 0.32113 0.0
C1606 C 0.53292 0.99178 0.34149 0.0
C1607 C 0.55812 0.99521 0.33894 0.0
C1608 C 0.57093 -0.00262 0.36346 0.0
C1609 C 0.59052 0.97754 0.3663 0.0
C1610 C 0.58226 0.02295 0.3672 0.0
C1611 C 0.54924 0.9935 0.38036 0.0
C1612 C 0.52735 0.9907 0.36751 0.0
C1613 C 0.5048 0.98773 0.37956 0.0
C1614 C 0.50472 0.98758 0.40533 0.0
C1615 C 0.5271 0.99007 0.41869 0.0
C1616 C 0.54953 0.9931 0.40589 0.0
H1617 H 0.75037 0.84559 0.10453 0.0
H1618 H 0.70954 0.78937 0.06467 0.0
H1619 H 0.71143 0.76308 0.10102 0.0
H1620 H 0.79197 0.80715 0.13179 0.0
H1621 H 0.79394 0.82421 0.16021 0.0
H1622 H 0.78623 0.83938 0.13239 0.0
H1623 H 0.74598 0.85548 0.15259 0.0
H1624 H 0.75371 0.84017 0.18045 0.0
H1625 H 0.72437 0.83425 0.16573 0.0
H1626 H 0.7201 0.74223 0.14108 0.0
H1627 H 0.7396 0.72675 0.1788 0.0
H1628 H 0.77597 0.7963 0.19088 0.0
C1629 C 0.74142 0.82792 0.10353 0.0
C1630 C 0.72965 0.81955 0.0819 0.0
C1631 C 0.71859 0.79613 0.08115 0.0
C1632 C 0.71939 0.78119 0.10175 0.0
C1633 C 0.73122 0.79006 0.12283 0.0
C1634 C 0.74221 0.81283 0.12372 0.0
C1635 C 0.75605 0.81727 0.14742 0.0
C1636 C 0.78367 0.82228 0.14265 0.0
C1637 C 0.74432 0.83803 0.16243 0.0
C1638 C 0.75193 0.79311 0.15949 0.0
C1639 C 0.73698 0.77785 0.14538 0.0
C1640 C 0.73164 0.75409 0.15233 0.0
C1641 C 0.74264 0.7455 0.17374 0.0
C1642 C 0.75891 0.76058 0.18751 0.0
C1643 C 0.76317 0.78474 0.18069 0.0
H1644 H 0.8731 0.97885 0.64957 0.0
H1645 H 0.90427 0.04931 0.66863 0.0
H1646 H 0.9205 0.05319 0.62667 0.0
H1647 H 0.92235 0.95786 0.62524 0.0
H1648 H 0.90902 0.93966 0.60074 0.0
H1649 H 0.89098 0.94669 0.62727 0.0
H1650 H 0.85754 0.96482 0.59969 0.0
H1651 H 0.87572 0.95906 0.57253 0.0
H1652 H 0.86511 0.98936 0.57955 0.0
H1653 H 0.943 0.04494 0.58901 0.0
H1654 H 0.97289 0.02372 0.56242 0.0
H1655 H 0.93033 0.95725 0.56798 0.0
C1656 C 0.88222 -0.00443 0.64433 0.0
C1657 C 0.88727 0.01391 0.6619 0.0
C1658 C 0.90014 0.03519 0.65513 0.0
C1659 C 0.90916 0.03763 0.63128 0.0
C1660 C 0.90535 0.01849 0.61457 0.0
C1661 C 0.8921 -0.00221 0.62083 0.0
C1662 C 0.89594 0.9774 0.60234 0.0
C1663 C 0.90515 0.95408 0.61464 0.0
C1664 C 0.87217 0.97237 0.58764 0.0
C1665 C 0.91559 0.98885 0.58645 0.0
C1666 C 0.91961 0.01306 0.59277 0.0
C1667 C 0.93943 0.02632 0.58325 0.0
C1668 C 0.95631 0.01421 0.56806 0.0
C1669 C 0.95336 0.98915 0.56301 0.0
C1670 C 0.93236 0.97662 0.57138 0.0
H1671 H 0.74371 0.156 0.40814 0.0
H1672 H 0.79018 0.19846 0.45778 0.0
H1673 H 0.79467 0.23019 0.42617 0.0
H1674 H 0.77711 0.16833 0.35558 0.0
H1675 H 0.75113 0.16978 0.33527 0.0
H1676 H 0.74935 0.1512 0.36197 0.0
H1677 H 0.7107 0.17333 0.37794 0.0
H1678 H 0.71073 0.1918 0.351 0.0
H1679 H 0.711 0.20602 0.38099 0.0
H1680 H 0.79777 0.2545 0.38638 0.0
H1681 H 0.79831 0.26885 0.34344 0.0
H1682 H 0.7453 0.21274 0.32314 0.0
C1683 C 0.75484 0.17197 0.41245 0.0
C1684 C 0.76688 0.17467 0.43524 0.0
C1685 C 0.78099 0.19599 0.44028 0.0
C1686 C 0.78347 0.21414 0.42252 0.0
C1687 C 0.77114 0.21091 0.4002 0.0
C1688 C 0.7569 0.1904 0.39535 0.0
C1689 C 0.74645 0.19036 0.36973 0.0
C1690 C 0.75658 0.16864 0.35476 0.0
C1691 C 0.71803 0.19038 0.36995 0.0
C1692 C 0.75679 0.21417 0.36078 0.0
C1693 C 0.77134 0.22572 0.37837 0.0
C1694 C 0.78573 0.24611 0.37279 0.0
C1695 C 0.78578 0.25431 0.34849 0.0
C1696 C 0.77095 0.24255 0.33046 0.0
C1697 C 0.75572 0.22282 0.33697 0.0
H1698 H 0.59161 0.04503 0.17119 0.0
H1699 H 0.64086 0.98826 0.14668 0.0
H1700 H 0.6324 -0.00143 0.10347 0.0
H1701 H 0.5465 0.03429 0.13399 0.0
H1702 H 0.53769 0.06517 0.12801 0.0
H1703 H 0.55382 0.05849 0.15558 0.0
H1704 H 0.58756 0.09021 0.14441 0.0
H1705 H 0.57151 0.09663 0.11632 0.0
H1706 H 0.60346 0.08769 0.11549 0.0
H1707 H 0.6102 0.0069 0.06508 0.0
H1708 H 0.57451 0.00929 0.0373 0.0
H1709 H 0.54087 0.06247 0.08558 0.0
C1710 C 0.60118 0.03549 0.15656 0.0
C1711 C 0.61668 0.01596 0.16176 0.0
C1712 C 0.62894 0.0034 0.14267 0.0
C1713 C 0.62446 0.00935 0.11819 0.0
C1714 C 0.60824 0.02831 0.11339 0.0
C1715 C 0.59711 0.04148 0.13217 0.0
C1716 C 0.57727 0.05794 0.12261 0.0
C1717 C 0.55238 0.05366 0.1358 0.0
C1718 C 0.58545 0.0847 0.12483 0.0
C1719 C 0.5766 0.04958 0.09608 0.0
C1720 C 0.59547 0.03347 0.09073 0.0
C1721 C 0.59584 0.02002 0.06879 0.0
C1722 C 0.57545 0.02145 0.05302 0.0
C1723 C 0.5549 0.03571 0.05973 0.0
C1724 C 0.55656 0.05154 0.0802 0.0
H1725 H 0.73454 0.81853 0.94727 0.0
H1726 H 0.71399 0.88692 0.91465 0.0
H1727 H 0.71323 0.86703 0.87384 0.0
H1728 H 0.77499 0.7995 0.89962 0.0
H1729 H 0.76652 0.76782 0.90148 0.0
H1730 H 0.76436 0.78728 0.92822 0.0
H1731 H 0.71816 0.77533 0.93305 0.0
H1732 H 0.72017 0.75585 0.90629 0.0
H1733 H 0.69725 0.77939 0.90776 0.0
H1734 H 0.71655 0.83989 0.83612 0.0
H1735 H 0.72352 0.80752 0.80489 0.0
H1736 H 0.74122 0.7573 0.86274 0.0
C1737 C 0.72968 0.82932 0.9316 0.0
C1738 C 0.72431 0.85427 0.93423 0.0
C1739 C 0.71819 0.86774 0.91316 0.0
C1740 C 0.71766 0.85662 0.88987 0.0
C1741 C 0.72322 0.83201 0.88793 0.0
C1742 C 0.72906 0.81853 0.90824 0.0
C1743 C 0.73502 0.79257 0.90117 0.0
C1744 C 0.76181 0.78645 0.90803 0.0
C1745 C 0.71654 0.77474 0.91276 0.0
C1746 C 0.7317 0.79357 0.87371 0.0
C1747 C 0.7249 0.81644 0.86635 0.0
C1748 C 0.72167 0.82184 0.84168 0.0
C1749 C 0.72567 0.80335 0.82409 0.0
C1750 C 0.73275 0.77981 0.83132 0.0
C1751 C 0.73556 0.77498 0.85652 0.0
H1752 H 0.81632 0.91775 0.97902 0.0
H1753 H 0.8105 0.89026 0.05265 0.0
H1754 H 0.85508 0.89887 0.05932 0.0
H1755 H 0.8821 0.89546 0.9679 0.0
H1756 H 0.88917 0.92195 0.95014 0.0
H1757 H 0.85831 0.90929 0.94987 0.0
H1758 H 0.84071 0.95113 0.96337 0.0
H1759 H 0.87133 0.96381 0.96339 0.0
H1760 H 0.85266 0.96592 0.99068 0.0
H1761 H 0.89702 0.91941 0.06074 0.0
H1762 H 0.93211 0.94835 0.05597 0.0
H1763 H 0.91185 0.9583 0.98026 0.0
C1764 C 0.82465 0.913 -0.00369 0.0
C1765 C 0.81016 0.90357 0.0154 0.0
C1766 C 0.82147 0.89747 0.0378 0.0
C1767 C 0.84676 0.90218 0.04168 0.0
C1768 C 0.86052 0.91217 0.02264 0.0
C1769 C 0.8499 0.91695 0.00017 0.0
C1770 C 0.86788 0.92963 0.9834 0.0
C1771 C 0.87477 0.91308 0.96153 0.0
C1772 C 0.85753 0.95406 0.97474 0.0
C1773 C 0.88956 0.9332 0.00059 0.0
C1774 C 0.8853 0.92259 0.02303 0.0
C1775 C 0.90104 0.92695 0.04299 0.0
C1776 C 0.92097 0.94329 0.04017 0.0
C1777 C 0.92486 0.95477 0.01756 0.0
C1778 C 0.90964 0.94886 -0.00261 0.0
H1779 H 0.30226 0.56666 0.952 0.0
H1780 H 0.27697 0.52644 0.015 0.0
H1781 H 0.31746 0.50621 0.01733 0.0
H1782 H 0.34228 0.51667 0.92582 0.0
H1783 H 0.36492 0.5385 0.91562 0.0
H1784 H 0.33267 0.54643 0.91659 0.0
H1785 H 0.34338 0.58401 0.94402 0.0
H1786 H 0.3755 0.57612 0.94336 0.0
H1787 H 0.35987 0.5798 0.97232 0.0
H1788 H 0.36326 0.49586 0.01689 0.0
H1789 H 0.40877 0.49475 0.01199 0.0
H1790 H 0.40284 0.54067 0.94843 0.0
C1791 C 0.30498 0.55304 0.96582 0.0
C1792 C 0.28648 0.54811 0.98325 0.0
C1793 C 0.2908 0.53033 0.00123 0.0
C1794 C 0.31378 0.51876 0.00275 0.0
C1795 C 0.33202 0.52476 0.9858 0.0
C1796 C 0.32762 0.54112 0.96735 0.0
C1797 C 0.35066 0.54586 0.9525 0.0
C1798 C 0.34744 0.53629 0.92606 0.0
C1799 C 0.35776 0.57305 0.95311 0.0
C1800 C 0.36908 0.53083 0.96633 0.0
C1801 C 0.35804 0.51844 0.98527 0.0
C1802 C 0.37197 0.50502 0.00174 0.0
C1803 C 0.39782 0.5045 -0.00117 0.0
C1804 C 0.40942 0.51755 0.97977 0.0
C1805 C 0.39463 0.53038 0.96312 0.0
H1806 H 0.13807 0.60658 0.73966 0.0
H1807 H 0.16958 0.56146 0.79591 0.0
H1808 H 0.19799 0.59498 0.80786 0.0
H1809 H 0.19301 0.62983 0.71965 0.0
H1810 H 0.18198 0.65987 0.7132 0.0
H1811 H 0.16096 0.63439 0.71214 0.0
H1812 H 0.13251 0.65602 0.74359 0.0
H1813 H 0.15342 0.68171 0.74503 0.0
H1814 H 0.145 0.66616 0.77265 0.0
H1815 H 0.22665 0.63046 0.80949 0.0
H1816 H 0.2533 0.66593 0.80128 0.0
H1817 H 0.20319 0.6879 0.74376 0.0
C1818 C 0.15038 0.60403 0.75503 0.0
C1819 C 0.15158 0.58155 0.767 0.0
C1820 C 0.16839 0.57861 0.78655 0.0
C1821 C 0.18449 0.59756 0.79354 0.0
C1822 C 0.18344 0.61923 0.78076 0.0
C1823 C 0.16672 0.62262 0.76201 0.0
C1824 C 0.17125 0.64648 0.74932 0.0
C1825 C 0.17715 0.64238 0.72197 0.0
C1826 C 0.14923 0.66362 0.75286 0.0
C1827 C 0.19365 0.65558 0.76333 0.0
C1828 C 0.2002 0.63975 0.78158 0.0
C1829 C 0.22147 0.64323 0.79557 0.0
C1830 C 0.23657 0.66333 0.79064 0.0
C1831 C 0.23027 0.67968 0.77191 0.0
C1832 C 0.20833 0.67588 0.75838 0.0
H1833 H 0.1506 0.39268 0.48336 0.0
H1834 H 0.18503 0.44295 0.53532 0.0
H1835 H 0.14721 0.4678 0.53579 0.0
H1836 H 0.1246 0.43703 0.44766 0.0
H1837 H 0.09664 0.42039 0.44032 0.0
H1838 H 0.12439 0.40425 0.44743 0.0
H1839 H 0.10123 0.38146 0.48187 0.0
H1840 H 0.07338 0.39765 0.47482 0.0
H1841 H 0.08558 0.39862 0.50554 0.0
H1842 H 0.10841 0.48943 0.52715 0.0
H1843 H 0.07164 0.50787 0.50824 0.0
H1844 H 0.06318 0.44491 0.4603 0.0
C1845 C 0.14989 0.40865 0.49522 0.0
C1846 C 0.17051 0.41594 0.50943 0.0
C1847 C 0.16933 0.43719 0.52428 0.0
C1848 C 0.14789 0.45125 0.52483 0.0
C1849 C 0.12797 0.44383 0.51027 0.0
C1850 C 0.1288 0.42312 0.4956 0.0
C1851 C 0.10616 0.42089 0.47938 0.0
C1852 C 0.11339 0.42064 0.45209 0.0
C1853 C 0.09067 0.39831 0.4858 0.0
C1854 C 0.09292 0.44403 0.48661 0.0
C1855 C 0.10552 0.45666 0.50491 0.0
C1856 C 0.09797 0.47944 0.51333 0.0
C1857 C 0.07711 0.48971 0.50262 0.0
C1858 C 0.06445 0.47735 0.48353 0.0
C1859 C 0.07227 0.45422 0.47549 0.0
H1860 H 0.82249 0.93333 0.75281 0.0
H1861 H 0.89448 0.90056 0.74275 0.0
H1862 H 0.87577 0.8599 0.74755 0.0
H1863 H 0.79654 0.88696 0.79643 0.0
H1864 H 0.76646 0.8882 0.78234 0.0
H1865 H 0.78606 0.91489 0.7833 0.0
H1866 H 0.78273 0.91829 0.73612 0.0
H1867 H 0.76309 0.89182 0.73507 0.0
H1868 H 0.79095 0.89258 0.71699 0.0
H1869 H 0.84889 0.82346 0.74478 0.0
H1870 H 0.81558 0.79423 0.73401 0.0
H1871 H 0.76089 0.84929 0.74808 0.0
C1872 C 0.83442 0.91763 0.75237 0.0
C1873 C 0.85995 0.92011 0.7475 0.0
C1874 C 0.87486 0.8991 0.74644 0.0
C1875 C 0.86443 0.87593 0.74937 0.0
C1876 C 0.83907 0.87404 0.75348 0.0
C1877 C 0.82424 0.89434 0.75509 0.0
C1878 C 0.79715 0.88725 0.75627 0.0
C1879 C 0.7859 0.89477 0.78107 0.0
C1880 C 0.78265 0.89812 0.73484 0.0
C1881 C 0.79899 0.85985 0.7538 0.0
C1882 C 0.82339 0.85256 0.75275 0.0
C1883 C 0.82976 0.82867 0.74686 0.0
C1884 C 0.81078 0.81199 0.7413 0.0
C1885 C 0.78583 0.81906 0.74227 0.0
C1886 C 0.77985 0.84318 0.74883 0.0
H1887 H 0.67063 0.10214 0.51966 0.0
H1888 H 0.6549 0.13313 0.44918 0.0
H1889 H 0.61009 0.12516 0.45541 0.0
H1890 H 0.63395 0.05395 0.51409 0.0
H1891 H 0.62414 0.05285 0.54563 0.0
H1892 H 0.65297 0.06705 0.53812 0.0
H1893 H 0.63869 0.10661 0.56024 0.0
H1894 H 0.60941 0.09248 0.56737 0.0
H1895 H 0.61028 0.12075 0.55116 0.0
H1896 H 0.56931 0.10628 0.46549 0.0
H1897 H 0.53877 0.07428 0.47524 0.0
H1898 H 0.58113 0.05576 0.53937 0.0
C1899 C 0.65755 0.10775 0.5059 0.0
C1900 C 0.66574 0.11806 0.484 0.0
C1901 C 0.64859 0.12519 0.46611 0.0
C1902 C 0.6232 0.12099 0.46967 0.0
C1903 C 0.61554 0.11014 0.49139 0.0
C1904 C 0.63233 0.10374 0.50926 0.0
C1905 C 0.62039 0.08874 0.52895 0.0
C1906 C 0.63363 0.06421 0.53181 0.0
C1907 C 0.61964 0.10301 0.55337 0.0
C1908 C 0.59478 0.08563 0.51826 0.0
C1909 C 0.59189 0.09904 0.4972 0.0
C1910 C 0.57106 0.09625 0.48227 0.0
C1911 C 0.5537 0.07812 0.48801 0.0
C1912 C 0.55783 0.06275 0.50806 0.0
C1913 C 0.57756 0.06769 0.52421 0.0
H1914 H 0.13862 0.41281 0.7383 0.0
H1915 H 0.20452 0.44949 0.76604 0.0
H1916 H 0.22675 0.41028 0.76499 0.0
H1917 H 0.14403 0.359 0.7715 0.0
H1918 H 0.13288 0.33963 0.74685 0.0
H1919 H 0.12306 0.37072 0.74901 0.0
H1920 H 0.1387 0.37779 0.70472 0.0
H1921 H 0.14886 0.34673 0.70257 0.0
H1922 H 0.17039 0.37123 0.69711 0.0
H1923 H 0.24126 0.36647 0.76115 0.0
H1924 H 0.24554 0.3217 0.75861 0.0
H1925 H 0.16963 0.31501 0.73373 0.0
C1926 C 0.15771 0.41268 0.74424 0.0
C1927 C 0.16986 0.43412 0.75233 0.0
C1928 C 0.19489 0.43318 0.75981 0.0
C1929 C 0.20767 0.41107 0.75913 0.0
C1930 C 0.19514 0.39028 0.75071 0.0
C1931 C 0.17068 0.39097 0.7435 0.0
C1932 C 0.16105 0.36617 0.73582 0.0
C1933 C 0.13896 0.35843 0.75176 0.0
C1934 C 0.15436 0.36545 0.70843 0.0
C1935 C 0.18359 0.35113 0.74076 0.0
C1936 C 0.20329 0.36534 0.74879 0.0
C1937 C 0.22597 0.35521 0.7548 0.0
C1938 C 0.22827 0.32984 0.7532 0.0
C1939 C 0.20783 0.31506 0.74609 0.0
C1940 C 0.18547 0.32594 0.73932 0.0
H1941 H 0.36236 0.59382 0.23379 0.0
H1942 H 0.29754 0.55194 0.21213 0.0
H1943 H 0.27551 0.58999 0.20362 0.0
H1944 H 0.33603 0.63299 0.26851 0.0
H1945 H 0.35386 0.65967 0.26077 0.0
H1946 H 0.36683 0.63024 0.25615 0.0
H1947 H 0.37443 0.64013 0.21048 0.0
H1948 H 0.36089 0.66971 0.21512 0.0
H1949 H 0.34904 0.64943 0.19156 0.0
H1950 H 0.2577 0.63075 0.20735 0.0
H1951 H 0.24415 0.66722 0.23026 0.0
H1952 H 0.31955 0.68293 0.25145 0.0
C1953 C 0.34376 0.59267 0.22654 0.0
C1954 C 0.33156 0.57005 0.22378 0.0
C1955 C 0.30721 0.56915 0.21443 0.0
C1956 C 0.29471 0.59069 0.20917 0.0
C1957 C 0.30697 0.61289 0.21301 0.0
C1958 C 0.33111 0.61397 0.2214 0.0
C1959 C 0.33855 0.63957 0.22899 0.0
C1960 C 0.34938 0.64064 0.25516 0.0
C1961 C 0.35681 0.65034 0.21043 0.0
C1962 C 0.31378 0.65192 0.22731 0.0
C1963 C 0.29629 0.63682 0.21612 0.0
C1964 C 0.27132 0.64291 0.21554 0.0
C1965 C 0.26375 0.66369 0.22854 0.0
C1966 C 0.28105 0.6776 0.24227 0.0
C1967 C 0.30637 0.67265 0.24042 0.0
H1968 H 0.53248 0.65706 0.60216 0.0
H1969 H 0.50246 0.70276 0.54574 0.0
H1970 H 0.50346 0.66803 0.51652 0.0
H1971 H 0.56997 0.61487 0.55867 0.0
H1972 H 0.5625 0.58923 0.5775 0.0
H1973 H 0.56682 0.61899 0.59134 0.0
H1974 H 0.52346 0.61576 0.61136 0.0
H1975 H 0.51914 0.58623 0.59769 0.0
H1976 H 0.49689 0.60972 0.59217 0.0
H1977 H 0.49741 0.62721 0.49744 0.0
H1978 H 0.48331 0.58483 0.49123 0.0
H1979 H 0.51739 0.56488 0.55944 0.0
C1980 C 0.52704 0.66002 0.58337 0.0
C1981 C 0.51743 0.68264 0.57623 0.0
C1982 C 0.51016 0.68571 0.55159 0.0
C1983 C 0.51075 0.66604 0.53483 0.0
C1984 C 0.51914 0.64357 0.54284 0.0
C1985 C 0.52752 0.6406 0.56651 0.0
C1986 C 0.53171 0.61401 0.57193 0.0
C1987 C 0.5594 0.60899 0.57504 0.0
C1988 C 0.51689 0.60598 0.59459 0.0
C1989 C 0.52198 0.60223 0.54855 0.0
C1990 C 0.51581 0.61963 0.53157 0.0
C1991 C 0.50305 0.61342 0.51014 0.0
C1992 C 0.49523 0.58925 0.50665 0.0
C1993 C 0.50012 0.57157 0.52447 0.0
C1994 C 0.51464 0.57788 0.54504 0.0
H1995 H 0.58509 0.2443 0.85661 0.0
H1996 H 0.54228 0.23197 0.79025 0.0
H1997 H 0.58013 0.23912 0.76546 0.0
H1998 H 0.6224 0.29298 0.83381 0.0
H1999 H 0.64934 0.28372 0.85055 0.0
H2000 H 0.61894 0.27752 0.86247 0.0
H2001 H 0.62889 0.23154 0.86465 0.0
H2002 H 0.65943 0.23766 0.85325 0.0
H2003 H 0.6398 0.21578 0.83759 0.0
H2004 H 0.62427 0.24651 0.74858 0.0
H2005 H 0.66952 0.25069 0.74185 0.0
H2006 H 0.68026 0.26066 0.82009 0.0
C2007 C 0.58349 0.24296 0.83685 0.0
C2008 C 0.56079 0.23747 0.82532 0.0
C2009 C 0.55961 0.23604 0.79942 0.0
C2010 C 0.58093 0.24026 0.78525 0.0
C2011 C 0.60297 0.24619 0.79737 0.0
C2012 C 0.60421 0.2475 0.82264 0.0
C2013 C 0.62977 0.25383 0.83169 0.0
C2014 C 0.63012 0.27848 0.84544 0.0
C2015 C 0.64007 0.23349 0.84772 0.0
C2016 C 0.64313 0.25533 0.8076 0.0
C2017 C 0.62755 0.25108 0.78788 0.0
C2018 C 0.63653 0.25012 0.7639 0.0
C2019 C 0.66218 0.25267 0.76022 0.0
C2020 C 0.67829 0.25595 0.78048 0.0
C2021 C 0.6684 0.25817 0.80424 0.0
H2022 H 0.01613 0.31502 0.05228 0.0
H2023 H 0.96423 0.34193 0.10662 0.0
H2024 H 0.96693 0.38283 0.08876 0.0
H2025 H 0.0556 0.36295 0.05535 0.0
H2026 H 0.06328 0.36366 0.02324 0.0
H2027 H 0.05336 0.33566 0.0367 0.0
H2028 H 0.01804 0.33132 0.00476 0.0
H2029 H 0.02809 0.35926 0.99095 0.0
H2030 H -0.00343 0.35586 0.00111 0.0
H2031 H 0.97963 0.42193 0.06844 0.0
H2032 H 0.00181 0.45549 0.04766 0.0
H2033 H 0.04652 0.40277 0.00848 0.0
C2034 C 0.00474 0.32932 0.05994 0.0
C2035 C 0.98992 0.32531 0.08074 0.0
C2036 C 0.97567 0.34462 0.0906 0.0
C2037 C 0.97699 0.36788 0.08052 0.0
C2038 C 0.99255 0.37147 0.06055 0.0
C2039 C 0.00602 0.35263 0.05025 0.0
C2040 C 0.02349 0.36165 0.03076 0.0
C2041 C 0.05052 0.35563 0.0369 0.0
C2042 C 0.0161 0.35142 0.00539 0.0
C2043 C 0.01878 0.38863 0.03266 0.0
C2044 C 0.0004 0.39398 0.04941 0.0
C2045 C -0.00619 0.41792 0.05503 0.0
C2046 C 0.00644 0.43683 0.04322 0.0
C2047 C 0.02579 0.43154 0.02666 0.0
C2048 C 0.03178 0.4072 0.02117 0.0
H2049 H 0.9134 0.73949 0.35708 0.0
H2050 H 0.92901 0.81368 0.33667 0.0
H2051 H 0.88437 0.82148 0.33313 0.0
H2052 H 0.87457 0.72818 0.31329 0.0
H2053 H 0.85312 0.70881 0.32929 0.0
H2054 H 0.88427 0.71174 0.33988 0.0
H2055 H 0.86814 0.72509 0.3827 0.0
H2056 H 0.83671 0.72257 0.37186 0.0
H2057 H 0.84771 0.75068 0.38554 0.0
H2058 H 0.84136 0.81865 0.32099 0.0
H2059 H 0.80605 0.80404 0.29603 0.0
H2060 H 0.8173 0.7311 0.32151 0.0
C2061 C 0.90716 0.75762 0.353 0.0
C2062 C 0.9243 0.77609 0.34738 0.0
C2063 C 0.91593 0.79939 0.34112 0.0
C2064 C 0.89062 0.80403 0.33942 0.0
C2065 C 0.87396 0.7851 0.34382 0.0
C2066 C 0.8819 0.76225 0.35049 0.0
C2067 C 0.86124 0.74358 0.34823 0.0
C2068 C 0.86875 0.72185 0.33167 0.0
C2069 C 0.85297 0.73499 0.3736 0.0
C2070 C 0.84146 0.75887 0.33659 0.0
C2071 C 0.84856 0.7831 0.33566 0.0
C2072 C 0.83517 0.79996 0.32231 0.0
C2073 C 0.81511 0.79159 0.30822 0.0
C2074 C 0.80901 0.76664 0.30749 0.0
C2075 C 0.82136 0.7504 0.32274 0.0
H2076 H 0.52983 0.32236 0.90527 0.0
H2077 H 0.49599 0.35015 0.83961 0.0
H2078 H 0.48792 0.38915 0.86112 0.0
H2079 H 0.48883 0.34254 0.94505 0.0
H2080 H 0.50951 0.35128 0.96962 0.0
H2081 H 0.51845 0.32809 0.94794 0.0
H2082 H 0.55826 0.35207 0.93687 0.0
H2083 H 0.55006 0.37497 0.95935 0.0
H2084 H 0.55608 0.38343 0.92815 0.0
H2085 H 0.47606 0.42145 0.89237 0.0
H2086 H 0.46733 0.44689 0.92933 0.0
H2087 H 0.50896 0.39684 0.97352 0.0
C2088 C 0.52166 0.33704 0.89518 0.0
C2089 C 0.51347 0.33344 0.87097 0.0
C2090 C 0.50263 0.35281 0.85819 0.0
C2091 C 0.49785 0.37494 0.87028 0.0
C2092 C 0.5046 0.37734 0.89482 0.0
C2093 C 0.517 0.35917 0.90688 0.0
C2094 C 0.52031 0.36517 0.93371 0.0
C2095 C 0.50856 0.34561 0.95001 0.0
C2096 C 0.54781 0.36916 0.93987 0.0
C2097 C 0.50631 0.38866 0.93523 0.0
C2098 C 0.49772 0.39574 0.91266 0.0
C2099 C 0.48322 0.41639 0.91006 0.0
C2100 C 0.47822 0.4306 0.93105 0.0
C2101 C 0.48752 0.42379 0.95413 0.0
C2102 C 0.50135 0.40238 0.95615 0.0
H2103 H 0.91165 0.26744 0.16377 0.0
H2104 H 0.91563 0.19718 0.12752 0.0
H2105 H 0.87102 0.19068 0.13443 0.0
H2106 H 0.88179 0.25012 0.21058 0.0
H2107 H 0.86185 0.27575 0.21579 0.0
H2108 H 0.89006 0.27976 0.19934 0.0
H2109 H 0.86603 0.29709 0.16267 0.0
H2110 H 0.83744 0.29317 0.1792 0.0
H2111 H 0.84096 0.27977 0.14906 0.0
H2112 H 0.83265 0.18564 0.156 0.0
H2113 H 0.80533 0.18167 0.19181 0.0
H2114 H 0.82368 0.25497 0.215 0.0
C2115 C 0.90258 0.25135 0.15626 0.0
C2116 C 0.91652 0.23292 0.14486 0.0
C2117 C 0.90486 0.21153 0.13602 0.0
C2118 C 0.87953 0.20786 0.13967 0.0
C2119 C 0.86624 0.22576 0.15227 0.0
C2120 C 0.87732 0.24733 0.16023 0.0
C2121 C 0.86083 0.26095 0.1781 0.0
C2122 C 0.87444 0.26693 0.20237 0.0
C2123 C 0.85072 0.28411 0.16655 0.0
C2124 C 0.8404 0.24229 0.18136 0.0
C2125 C 0.84317 0.22271 0.1653 0.0
C2126 C 0.82963 0.2012 0.16797 0.0
C2127 C 0.81419 0.19902 0.18836 0.0
C2128 C 0.81226 0.21832 0.20552 0.0
C2129 C 0.82429 0.24058 0.20131 0.0
H2130 H 0.96308 0.67876 0.41957 0.0
H2131 H 0.02631 0.71374 0.45445 0.0
H2132 H 0.02886 0.68007 0.48354 0.0
H2133 H 0.93817 0.6471 0.47805 0.0
H2134 H 0.9291 0.62116 0.45943 0.0
H2135 H 0.92763 0.6513 0.4471 0.0
H2136 H 0.95501 0.63682 0.41067 0.0
H2137 H 0.9569 0.6071 0.42338 0.0
H2138 H 0.98484 0.62391 0.4169 0.0
H2139 H 0.03184 0.63875 0.50038 0.0
H2140 H 0.03371 0.59401 0.50434 0.0
H2141 H 0.96802 0.58596 0.45976 0.0
C2142 C 0.97682 0.67978 0.43398 0.0
C2143 C -0.00547 0.69871 0.43475 0.0
C2144 C 0.01246 0.69941 0.45362 0.0
C2145 C 0.01397 0.68041 0.47032 0.0
C2146 C -0.00294 0.6612 0.46821 0.0
C2147 C 0.97843 0.66102 0.45081 0.0
C2148 C 0.96503 0.63677 0.4497 0.0
C2149 C 0.93841 0.63924 0.45915 0.0
C2150 C 0.96552 0.62551 0.42363 0.0
C2151 C 0.98061 0.62259 0.46732 0.0
C2152 C -0.00151 0.63717 0.47848 0.0
C2153 C 0.01737 0.62734 0.49256 0.0
C2154 C 0.01838 0.602 0.49468 0.0
C2155 C 0.00069 0.58705 0.4827 0.0
C2156 C 0.98121 0.59739 0.46961 0.0
H2157 H 0.57106 0.79033 0.6565 0.0
H2158 H 0.5358 0.73031 0.69351 0.0
H2159 H 0.57166 0.72789 0.72174 0.0
H2160 H 0.62937 0.76927 0.65582 0.0
H2161 H 0.64466 0.79806 0.66157 0.0
H2162 H 0.61476 0.79724 0.64736 0.0
H2163 H 0.59773 0.82594 0.68143 0.0
H2164 H 0.62775 0.82691 0.69575 0.0
H2165 H 0.60098 0.81781 0.7131 0.0
H2166 H 0.61502 0.72817 0.74112 0.0
H2167 H 0.65981 0.73228 0.75022 0.0
H2168 H 0.66418 0.79368 0.70159 0.0
C2169 C 0.57067 0.77709 0.67096 0.0
C2170 C 0.55091 0.76046 0.67291 0.0
C2171 C 0.55085 0.74331 0.69194 0.0
C2172 C 0.57109 0.74184 0.70802 0.0
C2173 C 0.59077 0.75816 0.70518 0.0
C2174 C 0.59034 0.77582 0.68741 0.0
C2175 C 0.61417 0.79021 0.68684 0.0
C2176 C 0.62645 0.78856 0.66141 0.0
C2177 C 0.60989 0.81679 0.69476 0.0
C2178 C 0.62878 0.7769 0.70588 0.0
C2179 C 0.61505 0.7587 0.71665 0.0
C2180 C 0.62577 0.74269 0.73311 0.0
C2181 C 0.65126 0.74504 0.7381 0.0
C2182 C 0.66568 0.76302 0.72638 0.0
C2183 C 0.65386 0.77961 0.71087 0.0
H2184 H 0.5681 0.48804 0.67564 0.0
H2185 H 0.63367 0.44422 0.66601 0.0
H2186 H 0.62145 0.43495 0.62322 0.0
H2187 H 0.52606 0.45266 0.63482 0.0
H2188 H 0.51207 0.47953 0.6227 0.0
H2189 H 0.52386 0.47984 0.65359 0.0
H2190 H 0.55139 0.51719 0.64373 0.0
H2191 H 0.53973 0.51699 0.61287 0.0
H2192 H 0.57254 0.5155 0.61826 0.0
H2193 H 0.60407 0.43271 0.58141 0.0
H2194 H 0.5844 0.43982 0.54166 0.0
H2195 H 0.53101 0.48728 0.5772 0.0
C2196 C 0.57948 0.47602 0.6646 0.0
C2197 C 0.60158 0.46646 0.67399 0.0
C2198 C 0.61659 0.45151 0.659 0.0
C2199 C 0.60973 0.44607 0.6348 0.0
C2200 C 0.58802 0.45606 0.62587 0.0
C2201 C 0.5732 0.47091 0.64017 0.0
C2202 C 0.5524 0.4815 0.62523 0.0
C2203 C 0.52709 0.47286 0.63465 0.0
C2204 C 0.55413 0.50945 0.62501 0.0
C2205 C 0.55809 0.47053 0.60025 0.0
C2206 C 0.57847 0.45562 0.6012 0.0
C2207 C 0.58801 0.44422 0.5804 0.0
C2208 C 0.5767 0.44847 0.55788 0.0
C2209 C 0.55618 0.46421 0.55624 0.0
C2210 C 0.54655 0.47505 0.57784 0.0
H2211 H 0.74003 0.37442 0.89697 0.0
H2212 H 0.80486 0.3527 0.9374 0.0
H2213 H 0.82239 0.3344 0.89988 0.0
H2214 H 0.73219 0.32166 0.86641 0.0
H2215 H 0.72199 0.3336 0.8376 0.0
H2216 H 0.71774 0.35103 0.86531 0.0
H2217 H 0.74164 0.38707 0.84612 0.0
H2218 H 0.74615 0.36937 0.81841 0.0
H2219 H 0.77239 0.38245 0.83432 0.0
H2220 H 0.82852 0.31091 0.86263 0.0
H2221 H 0.82165 0.28176 0.8285 0.0
H2222 H 0.7535 0.31795 0.81024 0.0
C2223 C 0.75827 0.36651 0.89751 0.0
C2224 C 0.77123 0.36488 0.91981 0.0
C2225 C 0.79471 0.35391 0.92035 0.0
C2226 C 0.80494 0.3438 0.89909 0.0
C2227 C 0.79143 0.34478 0.87743 0.0
C2228 C 0.76859 0.3559 0.87636 0.0
C2229 C 0.75604 0.35057 0.85197 0.0
C2230 C 0.73051 0.33848 0.85556 0.0
C2231 C 0.75395 0.37375 0.83681 0.0
C2232 C 0.77443 0.33313 0.84051 0.0
C2233 C 0.79512 0.33079 0.85516 0.0
C2234 C 0.81287 0.31309 0.85055 0.0
C2235 C 0.80882 0.29657 0.83121 0.0
C2236 C 0.7873 0.298 0.81672 0.0
C2237 C 0.77052 0.31714 0.82065 0.0
H2238 H 0.88588 0.52564 0.1623 0.0
H2239 H 0.9532 0.52502 0.20551 0.0
H2240 H 0.97768 0.51961 0.16743 0.0
H2241 H 0.903 0.47874 0.12181 0.0
H2242 H 0.88815 0.49159 0.09554 0.0
H2243 H 0.87641 0.49791 0.12579 0.0
H2244 H 0.88077 0.54427 0.11875 0.0
H2245 H 0.89209 0.53811 0.08829 0.0
H2246 H 0.91014 0.55666 0.10927 0.0
H2247 H -0.00579 0.51175 0.12409 0.0
H2248 H 0.00132 0.50429 0.07978 0.0
H2249 H 0.92226 0.50854 0.06693 0.0
C2250 C 0.90582 0.52485 0.16383 0.0
C2251 C 0.91768 0.52587 0.18682 0.0
C2252 C 0.94378 0.52444 0.188 0.0
C2253 C 0.95779 0.52126 0.16652 0.0
C2254 C 0.94532 0.51948 0.14418 0.0
C2255 C 0.91991 0.52138 0.14279 0.0
C2256 C 0.9106 0.51764 0.11695 0.0
C2257 C 0.89354 0.49514 0.11492 0.0
C2258 C 0.89765 0.54054 0.10778 0.0
C2259 C 0.93474 0.51344 0.10386 0.0
C2260 C 0.95463 0.51453 0.11972 0.0
C2261 C 0.97876 0.51098 0.11151 0.0
C2262 C 0.9826 0.50666 0.08635 0.0
C2263 C 0.96236 0.50591 0.06985 0.0
C2264 C 0.93819 0.50905 0.07895 0.0
H2265 H 0.74084 0.71039 0.44787 0.0
H2266 H 0.80045 0.66718 0.41802 0.0
H2267 H 0.79838 0.68969 0.37948 0.0
H2268 H 0.70514 0.70475 0.40165 0.0
H2269 H 0.69162 0.73456 0.40108 0.0
H2270 H 0.70381 0.72333 0.42915 0.0
H2271 H 0.7329 0.76075 0.43361 0.0
H2272 H 0.72031 0.77262 0.4057 0.0
H2273 H 0.75319 0.76869 0.40875 0.0
H2274 H 0.78204 0.70661 0.34175 0.0
H2275 H 0.75425 0.71854 0.30844 0.0
H2276 H 0.70368 0.74966 0.36155 0.0
C2277 C 0.7544 0.70681 0.4337 0.0
C2278 C 0.77091 0.68736 0.43578 0.0
C2279 C 0.7878 0.68224 0.41668 0.0
C2280 C 0.7868 0.69501 0.39478 0.0
C2281 C 0.76881 0.71277 0.39237 0.0
C2282 C 0.75314 0.71904 0.41151 0.0
C2283 C 0.7322 0.73478 0.40281 0.0
C2284 C 0.70673 0.72366 0.40903 0.0
C2285 C 0.73482 0.76075 0.41334 0.0
C2286 C 0.73706 0.73418 0.37556 0.0
C2287 C 0.7588 0.72229 0.36999 0.0
C2288 C 0.76549 0.71678 0.34589 0.0
C2289 C 0.74951 0.72345 0.32705 0.0
C2290 C 0.72695 0.73508 0.33245 0.0
C2291 C 0.72095 0.7409 0.35695 0.0
H2292 H 0.59404 0.51397 0.82798 0.0
H2293 H 0.5381 0.46407 0.80008 0.0
H2294 H 0.52394 0.45643 0.84241 0.0
H2295 H 0.60413 0.48471 0.89028 0.0
H2296 H 0.60641 0.51415 0.90512 0.0
H2297 H 0.61724 0.51004 0.87409 0.0
H2298 H 0.58878 0.54475 0.85967 0.0
H2299 H 0.5786 0.54922 0.8906 0.0
H2300 H 0.55623 0.54332 0.86668 0.0
H2301 H 0.51154 0.45929 0.88566 0.0
H2302 H 0.49559 0.47944 0.92308 0.0
H2303 H 0.55717 0.52979 0.92284 0.0
C2304 C 0.57923 0.50098 0.83103 0.0
C2305 C 0.56713 0.48944 0.81117 0.0
C2306 C 0.54742 0.47306 0.81533 0.0
C2307 C 0.53963 0.46831 0.83927 0.0
C2308 C 0.55166 0.48029 0.85868 0.0
C2309 C 0.57081 0.49664 0.85474 0.0
C2310 C 0.57699 0.51115 0.87773 0.0
C2311 C 0.60272 0.50461 0.88737 0.0
C2312 C 0.57499 0.53871 0.87341 0.0
C2313 C 0.55695 0.50194 0.89461 0.0
C2314 C 0.54354 0.48304 0.8838 0.0
C2315 C 0.52225 0.47358 0.8946 0.0
C2316 C 0.5134 0.4849 0.91597 0.0
C2317 C 0.52556 0.50562 0.92576 0.0
C2318 C 0.54817 0.51344 0.91582 0.0
H2319 H 0.71132 0.30105 0.05737 0.0
H2320 H 0.791 0.30562 0.05305 0.0
H2321 H 0.79456 0.27639 0.08677 0.0
H2322 H 0.70865 0.30625 0.11795 0.0
H2323 H 0.68262 0.28622 0.12288 0.0
H2324 H 0.68628 0.30071 0.09396 0.0
H2325 H 0.68501 0.2586 0.07192 0.0
H2326 H 0.68153 0.24392 0.10103 0.0
H2327 H 0.70639 0.2354 0.08075 0.0
H2328 H 0.78979 0.25351 0.12524 0.0
H2329 H 0.77768 0.24473 0.16767 0.0
H2330 H 0.70099 0.25698 0.14913 0.0
C2331 C 0.72941 0.29487 0.06287 0.0
C2332 C 0.75089 0.30484 0.05239 0.0
C2333 C 0.77439 0.2976 0.06066 0.0
C2334 C 0.77654 0.28091 0.07966 0.0
C2335 C 0.75498 0.27184 0.09031 0.0
C2336 C 0.73181 0.27867 0.08225 0.0
C2337 C 0.71181 0.2705 0.09975 0.0
C2338 C 0.69648 0.29221 0.1092 0.0
C2339 C 0.6952 0.25094 0.08763 0.0
C2340 C 0.72743 0.25977 0.11984 0.0
C2341 C 0.75219 0.25962 0.11351 0.0
C2342 C 0.77041 0.25303 0.13017 0.0
C2343 C 0.76334 0.24791 0.15428 0.0
C2344 C 0.73836 0.25015 0.16163 0.0
C2345 C 0.72014 0.25482 0.14384 0.0
H2346 H 0.90296 0.51915 0.33258 0.0
H2347 H 0.91893 0.44339 0.31783 0.0
H2348 H 0.91985 0.43571 0.36229 0.0
H2349 H 0.94637 0.52634 0.37557 0.0
H2350 H 0.92985 0.54766 0.39478 0.0
H2351 H 0.9226 0.54513 0.36287 0.0
H2352 H 0.8767 0.53645 0.37415 0.0
H2353 H 0.88442 0.53855 0.40625 0.0
H2354 H 0.86921 0.51166 0.3941 0.0
H2355 H 0.92706 0.43747 0.40624 0.0
H2356 H 0.94994 0.44995 0.44342 0.0
H2357 H 0.93159 0.52493 0.43088 0.0
C2358 C 0.90593 0.50086 0.33892 0.0
C2359 C 0.9107 0.48177 0.32218 0.0
C2360 C 0.91529 0.45817 0.33066 0.0
C2361 C 0.91536 0.4536 0.3558 0.0
C2362 C 0.911 0.47291 0.37211 0.0
C2363 C 0.90679 0.49622 0.36398 0.0
C2364 C 0.90854 0.51474 0.38471 0.0
C2365 C 0.92801 0.53458 0.37916 0.0
C2366 C 0.8832 0.526 0.39012 0.0
C2367 C 0.91652 0.49849 0.40533 0.0
C2368 C 0.91634 0.47423 0.39804 0.0
C2369 C 0.92665 0.45623 0.41246 0.0
C2370 C 0.93944 0.4634 0.43368 0.0
C2371 C 0.94197 0.48826 0.43985 0.0
C2372 C 0.92896 0.50576 0.42667 0.0
H2373 H 0.77634 0.66998 0.56242 0.0
H2374 H 0.75221 0.60106 0.59219 0.0
H2375 H 0.7558 0.61852 0.63409 0.0
H2376 H 0.81935 0.68801 0.61299 0.0
H2377 H 0.8106 0.71945 0.61106 0.0
H2378 H 0.8102 0.70025 0.58398 0.0
H2379 H 0.7643 0.71108 0.5766 0.0
H2380 H 0.76453 0.73021 0.60358 0.0
H2381 H 0.742 0.706 0.60055 0.0
H2382 H 0.757 0.64525 0.67233 0.0
H2383 H 0.75424 0.67889 0.70281 0.0
H2384 H 0.77707 0.72994 0.64727 0.0
C2385 C 0.77236 0.6583 0.57772 0.0
C2386 C 0.76405 0.63412 0.57399 0.0
C2387 C 0.7587 0.61962 0.59458 0.0
C2388 C 0.76079 0.62936 0.61846 0.0
C2389 C 0.76844 0.65351 0.62141 0.0
C2390 C 0.77425 0.66772 0.60154 0.0
C2391 C 0.77948 0.69378 0.60921 0.0
C2392 C 0.80652 0.70077 0.604 0.0
C2393 C 0.7615 0.71127 0.59676 0.0
C2394 C 0.77467 0.69233 0.6364 0.0
C2395 C 0.76883 0.6689 0.64326 0.0
C2396 C 0.76195 0.66358 0.66723 0.0
C2397 C 0.76045 0.6828 0.68443 0.0
C2398 C 0.76544 0.70704 0.67741 0.0
C2399 C 0.77325 0.71162 0.65324 0.0
H2400 H 0.68399 0.58099 0.45475 0.0
H2401 H 0.66245 0.63939 0.50441 0.0
H2402 H 0.61901 0.62513 0.5022 0.0
H2403 H 0.6266 0.58066 0.41689 0.0
H2404 H 0.627 0.54803 0.41342 0.0
H2405 H 0.65562 0.56484 0.41649 0.0
H2406 H 0.66784 0.53857 0.45351 0.0
H2407 H 0.63942 0.52168 0.45044 0.0
H2408 H 0.64706 0.53645 0.47922 0.0
H2409 H 0.57902 0.60069 0.49914 0.0
H2410 H 0.54697 0.56848 0.49549 0.0
H2411 H 0.59456 0.52792 0.44594 0.0
C2412 C 0.67006 0.59107 0.46478 0.0
C2413 C 0.67658 0.61127 0.47975 0.0
C2414 C 0.65784 0.6239 0.49273 0.0
C2415 C 0.6331 0.61599 0.49152 0.0
C2416 C 0.62734 0.5957 0.47689 0.0
C2417 C 0.64531 0.58361 0.46354 0.0
C2418 C 0.63483 0.56128 0.45067 0.0
C2419 C 0.63609 0.56387 0.42271 0.0
C2420 C 0.64806 0.53814 0.45897 0.0
C2421 C 0.60842 0.56205 0.4597 0.0
C2422 C 0.60426 0.58214 0.47459 0.0
C2423 C 0.5819 0.58519 0.48703 0.0
C2424 C 0.56372 0.56683 0.4848 0.0
C2425 C 0.5681 0.54568 0.47033 0.0
C2426 C 0.59039 0.54393 0.45693 0.0
H2427 H 0.17518 0.9306 0.55077 0.0
H2428 H 0.19797 0.94578 0.47662 0.0
H2429 H 0.1635 0.97482 0.47263 0.0
H2430 H 0.114 0.92891 0.54188 0.0
H2431 H 0.10519 0.94375 0.5702 0.0
H2432 H 0.13403 0.92808 0.56825 0.0
H2433 H 0.15716 0.96743 0.58224 0.0
H2434 H 0.12821 0.98334 0.58402 0.0
H2435 H 0.15303 0.99505 0.56549 0.0
H2436 H 0.12147 0.99494 0.47419 0.0
H2437 H 0.07735 0.00405 0.48146 0.0
H2438 H 0.08459 0.97952 0.5561 0.0
C2439 C 0.17332 0.94074 0.53405 0.0
C2440 C 0.18915 0.93628 0.51408 0.0
C2441 C 0.18614 0.94938 0.49224 0.0
C2442 C 0.16665 0.9659 0.48985 0.0
C2443 C 0.15089 0.96963 0.50978 0.0
C2444 C 0.15444 0.95777 0.53167 0.0
C2445 C 0.13388 0.96318 0.54962 0.0
C2446 C 0.12102 0.93959 0.55794 0.0
C2447 C 0.14366 0.97814 0.57165 0.0
C2448 C 0.11715 0.97826 0.53382 0.0
C2449 C 0.12737 0.98225 0.51101 0.0
C2450 C 0.11362 0.99264 0.49225 0.0
C2451 C 0.08855 -0.00206 0.49656 0.0
C2452 C 0.07754 0.99263 0.5194 0.0
C2453 C 0.09255 0.98408 0.53855 0.0
H2454 H 0.36636 0.9126 0.76273 0.0
H2455 H 0.37494 0.9243 0.68495 0.0
H2456 H 0.3454 0.89037 0.67613 0.0
H2457 H 0.36054 0.84538 0.75859 0.0
H2458 H 0.33833 0.84468 0.78318 0.0
H2459 H 0.36181 0.86811 0.78275 0.0
H2460 H 0.32778 0.90091 0.78547 0.0
H2461 H 0.30419 0.87766 0.78552 0.0
H2462 H 0.3036 0.90099 0.76275 0.0
H2463 H 0.31099 0.85931 0.67661 0.0
H2464 H 0.27741 0.82996 0.68586 0.0
H2465 H 0.29378 0.83692 0.76335 0.0
C2466 C 0.36236 0.90754 0.74386 0.0
C2467 C 0.37267 0.92063 0.72442 0.0
C2468 C 0.36715 0.91407 0.69992 0.0
C2469 C 0.35046 0.89497 0.69483 0.0
C2470 C 0.34004 0.88267 0.71453 0.0
C2471 C 0.34617 0.88839 0.73854 0.0
C2472 C 0.3318 0.87314 0.75645 0.0
C2473 C 0.34916 0.85686 0.7711 0.0
C2474 C 0.31591 0.88913 0.77354 0.0
C2475 C 0.316 0.85837 0.73885 0.0
C2476 C 0.32094 0.86419 0.71475 0.0
C2477 C 0.30726 0.85431 0.69535 0.0
C2478 C 0.28817 0.83792 0.70075 0.0
C2479 C 0.28329 0.83149 0.72525 0.0
C2480 C 0.29746 0.84159 0.74449 0.0
H2481 H 0.30928 0.07413 0.03306 0.0
H2482 H 0.31605 0.07565 0.95409 0.0
H2483 H 0.3597 0.06193 0.95737 0.0
H2484 H 0.36996 0.0992 0.04422 0.0
H2485 H 0.3742 0.08211 0.07174 0.0
H2486 H 0.34362 0.09077 0.06252 0.0
H2487 H 0.32925 0.04562 0.06314 0.0
H2488 H 0.35967 0.03689 0.07265 0.0
H2489 H 0.34606 0.0232 0.04555 0.0
H2490 H 0.40301 0.04703 0.97067 0.0
H2491 H 0.44072 0.03345 0.99223 0.0
H2492 H 0.40405 0.0454 0.06199 0.0
C2493 C 0.31983 0.07111 0.01643 0.0
C2494 C 0.30938 0.07514 0.99332 0.0
C2495 C 0.32386 0.07212 0.97193 0.0
C2496 C 0.34857 0.0645 0.97367 0.0
C2497 C 0.35844 0.06087 -0.00304 0.0
C2498 C 0.34445 0.0644 0.0179 0.0
C2499 C 0.35923 0.06069 0.04086 0.0
C2500 C 0.36191 0.08461 0.0557 0.0
C2501 C 0.34788 0.04038 0.05645 0.0
C2502 C 0.3835 0.05326 0.02973 0.0
C2503 C 0.38302 0.05362 0.00442 0.0
C2504 C 0.40353 0.04678 0.99048 0.0
C2505 C 0.42482 0.03902 0.00284 0.0
C2506 C 0.42519 0.03808 0.02876 0.0
C2507 C 0.40439 0.04579 0.04217 0.0
H2508 H 0.67493 0.55863 0.74112 0.0
H2509 H 0.60331 0.59272 0.73459 0.0
H2510 H 0.62357 0.63321 0.73567 0.0
H2511 H 0.69998 0.59801 0.78344 0.0
H2512 H 0.73077 0.59807 0.77082 0.0
H2513 H 0.7108 0.57224 0.76576 0.0
H2514 H 0.71674 0.57636 0.71883 0.0
H2515 H 0.73654 0.60253 0.72384 0.0
H2516 H 0.70972 0.60473 0.70446 0.0
H2517 H 0.65145 0.67008 0.74249 0.0
H2518 H 0.68383 0.69893 0.75755 0.0
H2519 H 0.73648 0.64047 0.75927 0.0
C2520 C 0.6635 0.57458 0.73956 0.0
C2521 C 0.63755 0.57249 0.73781 0.0
C2522 C 0.62327 0.59385 0.73583 0.0
C2523 C 0.63462 0.61693 0.73628 0.0
C2524 C 0.66029 0.61834 0.73825 0.0
C2525 C 0.67453 0.59766 0.73973 0.0
C2526 C 0.70149 0.60394 0.74381 0.0
C2527 C 0.71131 0.5924 0.76736 0.0
C2528 C 0.71703 0.59644 0.7214 0.0
C2529 C 0.69999 0.6313 0.74622 0.0
C2530 C 0.67626 0.63944 0.74213 0.0
C2531 C 0.67018 0.66394 0.74518 0.0
C2532 C 0.68862 0.68027 0.75352 0.0
C2533 C 0.71249 0.67185 0.75907 0.0
C2534 C 0.71839 0.6473 0.75465 0.0
H2535 H 0.83021 0.40847 0.96416 0.0
H2536 H 0.83439 0.39073 0.04092 0.0
H2537 H 0.88028 0.39107 0.03838 0.0
H2538 H 0.88845 0.37345 0.94512 0.0
H2539 H 0.89574 0.39614 0.92276 0.0
H2540 H 0.86392 0.38885 0.92955 0.0
H2541 H 0.85528 0.43425 0.93986 0.0
H2542 H 0.88662 0.44149 0.9324 0.0
H2543 H 0.87453 0.44998 0.96209 0.0
H2544 H 0.92412 0.4023 0.02946 0.0
H2545 H 0.95919 0.42799 0.01714 0.0
H2546 H 0.92731 0.43523 0.94511 0.0
C2547 C 0.84092 0.40429 0.9803 0.0
C2548 C 0.8292 0.40005 0.0028 0.0
C2549 C 0.84335 0.39424 0.02358 0.0
C2550 C 0.8693 0.39406 0.02216 0.0
C2551 C 0.88049 0.39874 -0.0004 0.0
C2552 C 0.8666 0.40347 0.97897 0.0
C2553 C 0.88259 0.41105 0.95774 0.0
C2554 C 0.88268 0.39118 0.93761 0.0
C2555 C 0.87428 0.43565 0.94748 0.0
C2556 C 0.90741 0.41282 0.97039 0.0
C2557 C 0.90613 0.40447 0.9942 0.0
C2558 C 0.92557 0.40817 0.01069 0.0
C2559 C 0.94566 0.42264 0.00346 0.0
C2560 C 0.94575 0.43356 0.9802 0.0
C2561 C 0.92765 0.42671 0.96284 0.0
H2562 H 0.33027 0.05678 0.72308 0.0
H2563 H 0.32561 0.04985 0.80178 0.0
H2564 H 0.29707 0.0848 0.80385 0.0
H2565 H 0.33892 0.11708 0.72523 0.0
H2566 H 0.32257 0.124 0.69747 0.0
H2567 H 0.3358 0.09451 0.70106 0.0
H2568 H 0.29301 0.07434 0.69303 0.0
H2569 H 0.27959 0.10393 0.68935 0.0
H2570 H 0.26684 0.08327 0.71139 0.0
H2571 H 0.27409 0.12348 0.79803 0.0
H2572 H 0.26462 0.16555 0.78619 0.0
H2573 H 0.28921 0.14977 0.71228 0.0
C2574 C 0.32231 0.06204 0.74057 0.0
C2575 C 0.32943 0.05049 0.7622 0.0
C2576 C 0.31989 0.05841 0.78501 0.0
C2577 C 0.30356 0.07806 0.78629 0.0
C2578 C 0.29744 0.0897 0.76462 0.0
C2579 C 0.3068 0.08211 0.74219 0.0
C2580 C 0.30194 0.10045 0.72248 0.0
C2581 C 0.32625 0.10955 0.71092 0.0
C2582 C 0.28429 0.08986 0.70291 0.0
C2583 C 0.28958 0.12014 0.73755 0.0
C2584 C 0.28609 0.11316 0.76154 0.0
C2585 C 0.27643 0.12899 0.77923 0.0
C2586 C 0.27111 0.15282 0.77241 0.0
C2587 C 0.27635 0.16068 0.74846 0.0
C2588 C 0.28497 0.14399 0.73069 0.0
H2589 H 0.20358 0.93161 0.25988 0.0
H2590 H 0.13587 0.90472 0.29246 0.0
H2591 H 0.15356 0.8637 0.29428 0.0
H2592 H 0.21104 0.88894 0.22004 0.0
H2593 H 0.24416 0.88589 0.22138 0.0
H2594 H 0.23028 0.91394 0.23063 0.0
H2595 H 0.25142 0.91153 0.27308 0.0
H2596 H 0.26556 0.88324 0.26389 0.0
H2597 H 0.24717 0.88484 0.29137 0.0
H2598 H 0.17332 0.82456 0.28207 0.0
H2599 H 0.19283 0.79235 0.25642 0.0
H2600 H 0.24727 0.84449 0.2317 0.0
C2601 C 0.19293 0.91728 0.26836 0.0
C2602 C 0.16837 0.92127 0.27583 0.0
C2603 C 0.15478 0.90207 0.28657 0.0
C2604 C 0.16477 0.8787 0.28788 0.0
C2605 C 0.18853 0.87491 0.27883 0.0
C2606 C 0.20267 0.89389 0.26974 0.0
C2607 C 0.22573 0.88463 0.25723 0.0
C2608 C 0.22787 0.89387 0.23077 0.0
C2609 C 0.24883 0.89146 0.2723 0.0
C2610 C 0.22076 0.85757 0.25792 0.0
C2611 C 0.19993 0.85212 0.27153 0.0
C2612 C 0.19004 0.82852 0.27197 0.0
C2613 C 0.20109 0.81036 0.25732 0.0
C2614 C 0.2213 0.81627 0.24215 0.0
C2615 C 0.23181 0.83974 0.24334 0.0
H2616 H 0.49922 0.34501 0.36651 0.0
H2617 H 0.48006 0.30036 0.42844 0.0
H2618 H 0.46907 0.33742 0.45226 0.0
H2619 H 0.53092 0.38686 0.39702 0.0
H2620 H 0.52156 0.41261 0.37934 0.0
H2621 H 0.52074 0.38281 0.36574 0.0
H2622 H 0.47419 0.38823 0.3555 0.0
H2623 H 0.47521 0.41819 0.36938 0.0
H2624 H 0.45283 0.39614 0.37961 0.0
H2625 H 0.46909 0.37928 0.4718 0.0
H2626 H 0.4851 0.41945 0.48569 0.0
H2627 H 0.50454 0.43652 0.41119 0.0
C2628 C 0.49202 0.34291 0.38486 0.0
C2629 C 0.4906 0.31979 0.39563 0.0
C2630 C 0.48122 0.31787 0.41973 0.0
C2631 C 0.47475 0.33885 0.43333 0.0
C2632 C 0.47729 0.36155 0.4224 0.0
C2633 C 0.48555 0.36357 0.39853 0.0
C2634 C 0.49075 0.38975 0.39208 0.0
C2635 C 0.51757 0.39318 0.38306 0.0
C2636 C 0.47212 0.39859 0.37302 0.0
C2637 C 0.48647 0.40202 0.41669 0.0
C2638 C 0.47755 0.38574 0.43372 0.0
C2639 C 0.47542 0.39229 0.45848 0.0
C2640 C 0.48434 0.41526 0.46624 0.0
C2641 C 0.49567 0.43101 0.44934 0.0
C2642 C 0.49525 0.42494 0.4242 0.0
H2643 H 0.43993 0.77998 0.17134 0.0
H2644 H 0.46171 0.72469 0.22259 0.0
H2645 H 0.41943 0.72424 0.23973 0.0
H2646 H 0.39716 0.81219 0.21403 0.0
H2647 H 0.3759 0.81892 0.18971 0.0
H2648 H 0.4085 0.81664 0.18338 0.0
H2649 H 0.39925 0.78408 0.14968 0.0
H2650 H 0.36672 0.78609 0.15602 0.0
H2651 H 0.38191 0.75713 0.15742 0.0
H2652 H 0.37395 0.72671 0.24811 0.0
H2653 H 0.32898 0.73322 0.24861 0.0
H2654 H 0.33713 0.78751 0.19225 0.0
C2655 C 0.43593 0.76815 0.18652 0.0
C2656 C 0.45406 0.75245 0.19575 0.0
C2657 C 0.44815 0.73711 0.21551 0.0
C2658 C 0.42419 0.73667 0.22529 0.0
C2659 C 0.40658 0.75201 0.21538 0.0
C2660 C 0.41225 0.76773 0.19669 0.0
C2661 C 0.38976 0.78166 0.18863 0.0
C2662 C 0.39303 0.80897 0.19428 0.0
C2663 C 0.38408 0.77693 0.16132 0.0
C2664 C 0.37028 0.7705 0.20493 0.0
C2665 C 0.38041 0.75366 0.22044 0.0
C2666 C 0.36589 0.7402 0.23641 0.0
C2667 C 0.34033 0.74406 0.23656 0.0
C2668 C 0.32952 0.76109 0.22064 0.0
C2669 C 0.34483 0.77456 0.20479 0.0
H2670 H 0.98038 0.65998 0.89489 0.0
H2671 H 0.01318 0.69513 0.95898 0.0
H2672 H 0.01139 0.65611 0.98084 0.0
H2673 H 0.9378 0.62286 0.92681 0.0
H2674 H 0.94068 0.59734 0.90588 0.0
H2675 H 0.94594 0.62771 0.89523 0.0
H2676 H 0.98935 0.615 0.87971 0.0
H2677 H 0.98432 0.58466 0.89072 0.0
H2678 H 0.01098 0.60199 0.90078 0.0
H2679 H 0.0057 0.61309 -0.00435 0.0
H2680 H 0.9919 0.57085 0.00378 0.0
H2681 H 0.96145 0.56497 0.93057 0.0
C2682 C 0.98719 0.65951 0.91353 0.0
C2683 C -0.00305 0.68055 0.92524 0.0
C2684 C 0.00555 0.67921 0.94969 0.0
C2685 C 0.0048 0.65711 0.96217 0.0
C2686 C -0.00464 0.63662 0.94992 0.0
C2687 C 0.98645 0.63772 0.92624 0.0
C2688 C 0.97604 0.61347 0.91756 0.0
C2689 C 0.94848 0.61548 0.911 0.0
C2690 C 0.99107 0.60318 0.89591 0.0
C2691 C 0.97984 0.59868 0.94028 0.0
C2692 C 0.99156 0.61214 0.95858 0.0
C2693 C -0.00338 0.60237 0.98142 0.0
C2694 C 0.98893 0.5784 0.98583 0.0
C2695 C 0.97603 0.56488 0.96761 0.0
C2696 C 0.97169 0.575 0.94455 0.0
H2697 H 0.07834 0.20058 0.65077 0.0
H2698 H 0.1043 0.25851 0.60474 0.0
H2699 H 0.14751 0.2462 0.61201 0.0
H2700 H 0.11343 0.20913 0.69537 0.0
H2701 H 0.12003 0.17825 0.70365 0.0
H2702 H 0.09268 0.18455 0.68683 0.0
H2703 H 0.10591 0.15385 0.65294 0.0
H2704 H 0.13371 0.14751 0.66984 0.0
H2705 H 0.13567 0.15699 0.63846 0.0
H2706 H 0.18508 0.23773 0.63479 0.0
H2707 H 0.21149 0.23619 0.67129 0.0
H2708 H 0.16248 0.18261 0.70277 0.0
C2709 C 0.09326 0.2098 0.6414 0.0
C2710 C 0.08849 0.23032 0.62736 0.0
C2711 C 0.10793 0.2425 0.6154 0.0
C2712 C 0.13244 0.23546 0.61929 0.0
C2713 C 0.13688 0.21591 0.63468 0.0
C2714 C 0.11765 0.20284 0.6451 0.0
C2715 C 0.12678 0.1862 0.66481 0.0
C2716 C 0.11242 0.18982 0.68906 0.0
C2717 C 0.12545 0.15956 0.65597 0.0
C2718 C 0.15331 0.19484 0.66671 0.0
C2719 C 0.15928 0.21079 0.64815 0.0
C2720 C 0.18105 0.22461 0.6488 0.0
C2721 C 0.19599 0.22365 0.6697 0.0
C2722 C 0.18865 0.20939 0.68979 0.0
C2723 C 0.16832 0.19344 0.68741 0.0
H2724 H 0.49043 0.68283 0.08492 0.0
H2725 H 0.52143 0.64957 0.14946 0.0
H2726 H 0.52158 0.60973 0.12771 0.0
H2727 H 0.45179 0.632 0.06429 0.0
H2728 H 0.45849 0.63762 0.03253 0.0
H2729 H 0.45844 0.66248 0.05441 0.0
H2730 H 0.50309 0.67396 0.0413 0.0
H2731 H 0.50346 0.64889 0.01972 0.0
H2732 H 0.52707 0.65151 0.04293 0.0
H2733 H 0.52114 0.57409 0.09713 0.0
H2734 H 0.5186 0.54605 0.06113 0.0
H2735 H 0.48863 0.60426 0.01784 0.0
C2736 C 0.49671 0.66713 0.09479 0.0
C2737 C 0.50575 0.66924 0.11891 0.0
C2738 C 0.51429 0.64829 0.13095 0.0
C2739 C 0.51449 0.62563 0.11876 0.0
C2740 C 0.50616 0.6244 0.09462 0.0
C2741 C 0.49731 0.64463 0.08288 0.0
C2742 C 0.49095 0.63916 0.0565 0.0
C2743 C 0.46327 0.64303 0.05167 0.0
C2744 C 0.50711 0.65428 0.03911 0.0
C2745 C 0.49755 0.61265 0.05514 0.0
C2746 C 0.50626 0.6043 0.0772 0.0
C2747 C 0.51403 0.58038 0.07985 0.0
C2748 C 0.51244 0.56458 0.05942 0.0
C2749 C 0.5031 0.57287 0.03686 0.0
C2750 C 0.49587 0.59728 0.03481 0.0
H2751 H 0.07121 0.73433 0.8186 0.0
H2752 H 0.10559 0.74615 0.88962 0.0
H2753 H 0.14653 0.74967 0.86938 0.0
H2754 H 0.12227 0.7017 0.7882 0.0
H2755 H 0.11716 0.7169 0.75966 0.0
H2756 H 0.09155 0.71079 0.77983 0.0
H2757 H 0.0801 0.75633 0.78114 0.0
H2758 H 0.10511 0.76283 0.76063 0.0
H2759 H 0.10328 0.77863 0.78976 0.0
H2760 H 0.18246 0.75836 0.84023 0.0
H2761 H 0.209 0.77159 0.80566 0.0
H2762 H 0.14931 0.75535 0.75505 0.0
C2763 C 0.08737 0.73705 0.83006 0.0
C2764 C 0.08528 0.73997 0.85564 0.0
C2765 C 0.10686 0.74381 0.86992 0.0
C2766 C 0.13015 0.74572 0.8586 0.0
C2767 C 0.13138 0.7436 0.8331 0.0
C2768 C 0.11044 0.73925 0.81911 0.0
C2769 C 0.11564 0.7408 0.79207 0.0
C2770 C 0.11141 0.71607 0.77917 0.0
C2771 C 0.10013 0.76084 0.78023 0.0
C2772 C 0.14268 0.74752 0.79286 0.0
C2773 C 0.15174 0.74863 0.81656 0.0
C2774 C 0.1758 0.75674 0.82161 0.0
C2775 C 0.19069 0.76428 0.80197 0.0
C2776 C 0.181 0.76424 0.77795 0.0
C2777 C 0.15707 0.75521 0.77335 0.0
H2778 H 0.96983 0.32023 0.58441 0.0
H2779 H 0.04719 0.32689 0.60438 0.0
H2780 H 0.05109 0.36375 0.57954 0.0
H2781 H 0.97473 0.34579 0.52198 0.0
H2782 H 0.94628 0.36235 0.52492 0.0
H2783 H 0.9501 0.33415 0.54079 0.0
H2784 H 0.94004 0.35567 0.58217 0.0
H2785 H 0.9357 0.38368 0.56633 0.0
H2786 H 0.95744 0.38244 0.5913 0.0
H2787 H 0.0469 0.39959 0.55336 0.0
H2788 H 0.03269 0.43843 0.53667 0.0
H2789 H 0.95697 0.41213 0.53824 0.0
C2790 C 0.98759 0.32937 0.58321 0.0
C2791 C 0.00832 0.32073 0.59593 0.0
C2792 C 0.03116 0.33333 0.59463 0.0
C2793 C 0.03363 0.35403 0.58033 0.0
C2794 C 0.01296 0.36206 0.56776 0.0
C2795 C 0.99019 0.35059 0.56959 0.0
C2796 C 0.97023 0.36509 0.55717 0.0
C2797 C 0.95972 0.351 0.53489 0.0
C2798 C 0.94966 0.37215 0.57534 0.0
C2799 C 0.98518 0.387 0.5492 0.0
C2800 C 0.01 0.38419 0.55436 0.0
C2801 C 0.02755 0.40203 0.54912 0.0
C2802 C 0.01937 0.4239 0.53948 0.0
C2803 C -0.00614 0.42792 0.53608 0.0
C2804 C 0.9766 0.40912 0.54038 0.0
H2805 H 0.44841 0.21725 0.31765 0.0
H2806 H 0.46473 0.28255 0.27703 0.0
H2807 H 0.42355 0.27974 0.25744 0.0
H2808 H 0.41133 0.18604 0.26872 0.0
H2809 H 0.3904 0.1733 0.29086 0.0
H2810 H 0.42231 0.17879 0.29888 0.0
H2811 H 0.40846 0.20499 0.33628 0.0
H2812 H 0.37661 0.19973 0.32831 0.0
H2813 H 0.3883 0.2304 0.33157 0.0
H2814 H 0.37821 0.27294 0.24718 0.0
H2815 H 0.33393 0.26129 0.24537 0.0
H2816 H 0.34879 0.19976 0.29173 0.0
C2817 C 0.44356 0.23066 0.30422 0.0
C2818 C 0.4597 0.25011 0.29887 0.0
C2819 C 0.45267 0.26738 0.28126 0.0
C2820 C 0.42933 0.26594 0.27006 0.0
C2821 C 0.41352 0.24689 0.27635 0.0
C2822 C 0.42056 0.22934 0.29273 0.0
C2823 C 0.39977 0.21161 0.2977 0.0
C2824 C 0.40635 0.18591 0.28848 0.0
C2825 C 0.39289 0.21171 0.32508 0.0
C2826 C 0.37959 0.22246 0.28236 0.0
C2827 C 0.3878 0.24269 0.27 0.0
C2828 C 0.37172 0.25681 0.25636 0.0
C2829 C 0.3466 0.25011 0.2555 0.0
C2830 C 0.33791 0.2295 0.26826 0.0
C2831 C 0.35482 0.21539 0.28146 0.0
H2832 H 0.42501 0.47445 0.3304 0.0
H2833 H 0.39607 0.54656 0.3187 0.0
H2834 H 0.40207 0.55656 0.3628 0.0
H2835 H 0.39638 0.46756 0.39153 0.0
H2836 H 0.42205 0.45033 0.40277 0.0
H2837 H 0.41391 0.44861 0.37077 0.0
H2838 H 0.45857 0.46144 0.35909 0.0
H2839 H 0.46671 0.46298 0.391 0.0
H2840 H 0.47159 0.48909 0.37201 0.0
H2841 H 0.41329 0.55903 0.40774 0.0
H2842 H 0.42957 0.55401 0.44986 0.0
H2843 H 0.45118 0.48036 0.43132 0.0
C2844 C 0.41991 0.49234 0.33717 0.0
C2845 C 0.41033 0.50989 0.32131 0.0
C2846 C 0.40343 0.53294 0.33072 0.0
C2847 C 0.40672 0.53871 0.35567 0.0
C2848 C 0.41636 0.52099 0.37085 0.0
C2849 C 0.4226 0.49818 0.36197 0.0
C2850 C 0.43285 0.48242 0.38192 0.0
C2851 C 0.41525 0.46097 0.38705 0.0
C2852 C 0.45899 0.47348 0.37562 0.0
C2853 C 0.43306 0.50048 0.40306 0.0
C2854 C 0.42282 0.5224 0.39654 0.0
C2855 C 0.42114 0.54191 0.4131 0.0
C2856 C 0.43036 0.53894 0.43687 0.0
C2857 C 0.44153 0.51689 0.44344 0.0
C2858 C 0.44274 0.49741 0.42647 0.0
H2859 H 0.217 0.62221 0.08486 0.0
H2860 H 0.28401 0.6492 0.05062 0.0
H2861 H 0.29467 0.67169 0.08856 0.0
H2862 H 0.20008 0.67463 0.11174 0.0
H2863 H 0.18843 0.66261 0.14006 0.0
H2864 H 0.18882 0.64371 0.11292 0.0
H2865 H 0.21461 0.61157 0.13556 0.0
H2866 H 0.21414 0.6304 0.16293 0.0
H2867 H 0.24318 0.62056 0.15025 0.0
H2868 H 0.29512 0.6958 0.12625 0.0
H2869 H 0.28399 0.72278 0.16082 0.0
H2870 H 0.21586 0.68225 0.17123 0.0
C2871 C 0.23433 0.6322 0.08569 0.0
C2872 C 0.2498 0.63386 0.06489 0.0
C2873 C 0.27195 0.64764 0.06636 0.0
C2874 C 0.27828 0.66028 0.08791 0.0
C2875 C 0.26232 0.65885 0.10787 0.0
C2876 C 0.24081 0.64515 0.10706 0.0
C2877 C 0.22525 0.64954 0.12983 0.0
C2878 C 0.19912 0.65815 0.12322 0.0
C2879 C 0.22423 0.62665 0.14557 0.0
C2880 C 0.24032 0.66946 0.14242 0.0
C2881 C 0.26216 0.67368 0.12987 0.0
C2882 C 0.2784 0.69235 0.13654 0.0
C2883 C 0.27188 0.70761 0.15607 0.0
C2884 C 0.24922 0.70432 0.16849 0.0
C2885 C 0.23347 0.68468 0.16213 0.0
H2886 H 0.08528 0.47561 0.80793 0.0
H2887 H 0.02777 0.52573 0.78707 0.0
H2888 H 0.00791 0.52058 0.82734 0.0
H2889 H 0.04509 0.43598 0.84805 0.0
H2890 H 0.07012 0.4322 0.86939 0.0
H2891 H 0.07656 0.43561 0.83722 0.0
H2892 H 0.10578 0.47193 0.84758 0.0
H2893 H 0.09923 0.46892 0.87962 0.0
H2894 H 0.09405 0.49752 0.86492 0.0
H2895 H -0.00165 0.51533 0.87164 0.0
H2896 H -0.00045 0.51021 0.91636 0.0
H2897 H 0.06407 0.4644 0.90852 0.0
C2898 C 0.06808 0.48493 0.81149 0.0
C2899 C 0.05808 0.50106 0.79435 0.0
C2900 C 0.03571 0.51315 0.79986 0.0
C2901 C 0.02425 0.51029 0.82267 0.0
C2902 C 0.03524 0.49505 0.83957 0.0
C2903 C 0.0565 0.48233 0.83412 0.0
C2904 C 0.06624 0.46935 0.85629 0.0
C2905 C 0.06438 0.44164 0.85251 0.0
C2906 C 0.09289 0.47743 0.86245 0.0
C2907 C 0.04812 0.4781 0.87547 0.0
C2908 C 0.02996 0.49233 0.86533 0.0
C2909 C 0.01215 0.50381 0.8797 0.0
C2910 C 0.01304 0.50083 0.90511 0.0
C2911 C 0.03192 0.48687 0.9159 0.0
C2912 C 0.04939 0.47509 0.90078 0.0
H2913 H 0.24468 0.30118 0.56734 0.0
H2914 H 0.21278 0.36403 0.60388 0.0
H2915 H 0.21568 0.34331 0.64358 0.0
H2916 H 0.21902 0.25336 0.60875 0.0
H2917 H 0.24735 0.23641 0.60785 0.0
H2918 H 0.23796 0.25355 0.58163 0.0
H2919 H 0.27962 0.27695 0.58204 0.0
H2920 H 0.28948 0.25987 0.60796 0.0
H2921 H 0.28947 0.29262 0.60968 0.0
H2922 H 0.22805 0.31894 0.67947 0.0
H2923 H 0.25071 0.29364 0.70871 0.0
H2924 H 0.27551 0.24714 0.64916 0.0
C2925 C 0.23749 0.31019 0.58359 0.0
C2926 C 0.22823 0.33401 0.58263 0.0
C2927 C 0.21979 0.34567 0.60432 0.0
C2928 C 0.22122 0.33399 0.62688 0.0
C2929 C 0.23122 0.31074 0.62735 0.0
C2930 C 0.23923 0.29897 0.60626 0.0
C2931 C 0.25262 0.27575 0.61204 0.0
C2932 C 0.23838 0.25344 0.60198 0.0
C2933 C 0.27937 0.27636 0.60237 0.0
C2934 C 0.25187 0.27685 0.63971 0.0
C2935 C 0.23886 0.29681 0.6482 0.0
C2936 C 0.23759 0.30283 0.67307 0.0
C2937 C 0.25023 0.28825 0.68962 0.0
C2938 C 0.26397 0.26811 0.68115 0.0
C2939 C 0.26461 0.26222 0.65598 0.0
H2940 H 0.38364 0.49539 0.15195 0.0
H2941 H 0.44511 0.52802 0.19189 0.0
H2942 H 0.46609 0.53659 0.15291 0.0
H2943 H 0.41555 0.46269 0.11359 0.0
H2944 H 0.39662 0.46615 0.08668 0.0
H2945 H 0.38323 0.47004 0.11641 0.0
H2946 H 0.3686 0.51301 0.10446 0.0
H2947 H 0.38251 0.50925 0.07462 0.0
H2948 H 0.39075 0.53507 0.09377 0.0
H2949 H 0.48457 0.53217 0.11259 0.0
H2950 H 0.50052 0.51052 0.07618 0.0
H2951 H 0.42786 0.48112 0.0609 0.0
C2952 C 0.40119 0.50499 0.1524 0.0
C2953 C 0.41284 0.51094 0.17482 0.0
C2954 C 0.43591 0.52322 0.17484 0.0
C2955 C 0.44778 0.52851 0.15277 0.0
C2956 C 0.43617 0.52171 0.13086 0.0
C2957 C 0.41327 0.51028 0.1305 0.0
C2958 C 0.4069 0.5006 0.10516 0.0
C2959 C 0.40024 0.47327 0.10551 0.0
C2960 C 0.38595 0.51537 0.09384 0.0
C2961 C 0.43107 0.50547 0.09216 0.0
C2962 C 0.44716 0.51905 0.10684 0.0
C2963 C 0.4719 0.52243 0.10053 0.0
C2964 C 0.48083 0.5103 0.07971 0.0
C2965 C 0.46504 0.49513 0.0656 0.0
C2966 C 0.43976 0.49359 0.0711 0.0
H2967 H 0.23032 0.67296 0.90532 0.0
H2968 H 0.30098 0.68398 0.94144 0.0
H2969 H 0.31121 0.71683 0.91253 0.0
H2970 H 0.24867 0.68194 0.84495 0.0
H2971 H 0.22167 0.69866 0.8361 0.0
H2972 H 0.21965 0.67713 0.86041 0.0
H2973 H 0.20302 0.71068 0.88982 0.0
H2974 H 0.20494 0.73224 0.86545 0.0
H2975 H 0.22045 0.73853 0.89408 0.0
H2976 H 0.31464 0.7464 0.87816 0.0
H2977 H 0.3129 0.76761 0.83882 0.0
H2978 H 0.23901 0.73879 0.82621 0.0
C2979 C 0.24796 0.6823 0.90707 0.0
C2980 C 0.26499 0.67593 0.92542 0.0
C2981 C 0.28772 0.6887 0.92748 0.0
C2982 C 0.29359 0.70744 0.91126 0.0
C2983 C 0.2762 0.71359 0.89358 0.0
C2984 C 0.25383 0.70143 0.89144 0.0
C2985 C 0.23857 0.71126 0.87062 0.0
C2986 C 0.23176 0.69105 0.8519 0.0
C2987 C 0.21537 0.72393 0.8806 0.0
C2988 C 0.25661 0.72959 0.86014 0.0
C2989 C 0.27791 0.73115 0.87412 0.0
C2990 C 0.29792 0.74561 0.86729 0.0
C2991 C 0.29668 0.75775 0.84496 0.0
C2992 C 0.27575 0.75507 0.82948 0.0
C2993 C 0.255 0.74175 0.83783 0.0
H2994 H 0.09687 0.54395 0.67715 0.0
H2995 H 0.14725 0.48827 0.65215 0.0
H2996 H 0.13171 0.49254 0.6098 0.0
H2997 H 0.04837 0.52538 0.64896 0.0
H2998 H 0.03539 0.55402 0.64018 0.0
H2999 H 0.05583 0.55292 0.6659 0.0
H3000 H 0.08476 0.58494 0.64635 0.0
H3001 H 0.06408 0.58655 0.62051 0.0
H3002 H 0.0963 0.57995 0.61573 0.0
H3003 H 0.10256 0.49327 0.57545 0.0
H3004 H 0.06448 0.49273 0.55079 0.0
H3005 H 0.03384 0.54972 0.59644 0.0
C3006 C 0.10536 0.53358 0.66242 0.0
C3007 C 0.12314 0.51593 0.66745 0.0
C3008 C 0.13381 0.50216 0.64825 0.0
C3009 C 0.12512 0.50455 0.62424 0.0
C3010 C 0.10636 0.52123 0.61995 0.0
C3011 C 0.09708 0.53604 0.63845 0.0
C3012 C 0.07446 0.5496 0.63021 0.0
C3013 C 0.05223 0.54517 0.64732 0.0
C3014 C 0.08025 0.57688 0.62807 0.0
C3015 C 0.07065 0.53795 0.60526 0.0
C3016 C 0.08975 0.52231 0.59928 0.0
C3017 C 0.08828 0.50648 0.57914 0.0
C3018 C 0.06673 0.50644 0.56502 0.0
C3019 C 0.04705 0.5221 0.57101 0.0
C3020 C 0.04918 0.53831 0.59107 0.0
H3021 H 0.23431 0.35456 0.40636 0.0
H3022 H 0.24481 0.30421 0.46592 0.0
H3023 H 0.2444 0.27002 0.43642 0.0
H3024 H 0.19339 0.31488 0.36993 0.0
H3025 H 0.20627 0.32405 0.34104 0.0
H3026 H 0.20625 0.34501 0.36678 0.0
H3027 H 0.25366 0.35062 0.36286 0.0
H3028 H 0.2538 0.32985 0.33703 0.0
H3029 H 0.27323 0.32427 0.36312 0.0
H3030 H 0.24332 0.24145 0.40148 0.0
H3031 H 0.24527 0.21964 0.36207 0.0
H3032 H 0.23654 0.28778 0.3239 0.0
C3033 C 0.23644 0.33633 0.41319 0.0
C3034 C 0.23946 0.3321 0.43852 0.0
C3035 C 0.24233 0.30798 0.44667 0.0
C3036 C 0.24204 0.28838 0.43006 0.0
C3037 C 0.23883 0.29313 0.40534 0.0
C3038 C 0.23623 0.31644 0.3968 0.0
C3039 C 0.23391 0.31632 0.36906 0.0
C3040 C 0.20844 0.32562 0.36125 0.0
C3041 C 0.25491 0.33114 0.35733 0.0
C3042 C 0.23636 0.28934 0.36344 0.0
C3043 C 0.23869 0.27639 0.38476 0.0
C3044 C 0.24149 0.25133 0.38461 0.0
C3045 C 0.24254 0.23911 0.36203 0.0
C3046 C 0.24114 0.25195 0.33975 0.0
C3047 C 0.23754 0.27741 0.34054 0.0
H3048 H 0.33169 0.41724 0.47826 0.0
H3049 H 0.31262 0.39621 0.55216 0.0
H3050 H 0.3557 0.40407 0.56527 0.0
H3051 H 0.39548 0.39148 0.47877 0.0
H3052 H 0.40775 0.41609 0.46097 0.0
H3053 H 0.37616 0.40618 0.45668 0.0
H3054 H 0.3609 0.45005 0.46548 0.0
H3055 H 0.39238 0.46002 0.46928 0.0
H3056 H 0.37029 0.46545 0.49342 0.0
H3057 H 0.39832 0.42102 0.57172 0.0
H3058 H 0.43728 0.44493 0.5705 0.0
H3059 H 0.4303 0.45055 0.49181 0.0
C3060 C 0.3367 0.41395 0.49711 0.0
C3061 C 0.31885 0.40619 0.51422 0.0
C3062 C 0.32606 0.40206 0.53873 0.0
C3063 C 0.35049 0.40637 0.54632 0.0
C3064 C 0.36764 0.41419 0.52903 0.0
C3065 C 0.36113 0.41763 0.50485 0.0
C3066 C 0.38263 0.42761 0.49027 0.0
C3067 C 0.391 0.40923 0.4705 0.0
C3068 C 0.37616 0.45223 0.47897 0.0
C3069 C 0.40184 0.43046 0.5103 0.0
C3070 C 0.39293 0.42244 0.53252 0.0
C3071 C 0.40589 0.42657 0.55432 0.0
C3072 C 0.42802 0.44005 0.5535 0.0
C3073 C 0.43706 0.44881 0.53099 0.0
C3074 C 0.42433 0.44306 0.50908 0.0
H3075 H 0.79874 0.04847 0.4619 0.0
H3076 H 0.79109 0.04668 0.54079 0.0
H3077 H 0.82944 0.02263 0.54363 0.0
H3078 H 0.82418 0.985 0.45634 0.0
H3079 H 0.84412 0.99323 0.43132 0.0
H3080 H 0.81484 0.00816 0.43539 0.0
H3081 H 0.83701 0.05019 0.43659 0.0
H3082 H 0.86615 0.03541 0.43216 0.0
H3083 H 0.86178 0.05553 0.45818 0.0
H3084 H 0.87128 0.00382 0.53804 0.0
H3085 H 0.91311 0.9923 0.5247 0.0
H3086 H 0.89198 0.00334 0.44908 0.0
C3087 C 0.80507 0.04268 0.47967 0.0
C3088 C 0.79223 0.04938 0.50115 0.0
C3089 C 0.80078 0.04153 0.52416 0.0
C3090 C 0.82242 0.0278 0.52592 0.0
C3091 C 0.83479 0.02145 0.50438 0.0
C3092 C 0.82623 0.02833 0.48166 0.0
C3093 C 0.84347 0.01998 0.46144 0.0
C3094 C 0.8309 0.00044 0.44516 0.0
C3095 C 0.85265 0.04157 0.44622 0.0
C3096 C 0.86404 0.00912 0.47644 0.0
C3097 C 0.85844 0.00959 0.50114 0.0
C3098 C 0.8756 0.00272 0.51872 0.0
C3099 C 0.89937 -0.00388 0.51094 0.0
C3100 C 0.90591 -0.00322 0.48582 0.0
C3101 C 0.88754 0.00229 0.46838 0.0
H3102 H 0.62988 0.09834 0.22322 0.0
H3103 H 0.63636 0.06858 0.29587 0.0
H3104 H 0.66076 0.10466 0.30924 0.0
H3105 H 0.69044 0.11625 0.21993 0.0
H3106 H 0.68551 0.14334 0.20254 0.0
H3107 H 0.66391 0.1184 0.20014 0.0
H3108 H 0.62808 0.14699 0.21257 0.0
H3109 H 0.64959 0.17215 0.21486 0.0
H3110 H 0.63025 0.1647 0.24059 0.0
H3111 H 0.68881 0.14015 0.31304 0.0
H3112 H 0.72052 0.17188 0.30659 0.0
H3113 H 0.69776 0.17792 0.23093 0.0
C3114 C 0.63568 0.09999 0.24217 0.0
C3115 C 0.63099 0.08117 0.25876 0.0
C3116 C 0.63967 0.08312 0.28311 0.0
C3117 C 0.65336 0.10355 0.29084 0.0
C3118 C 0.65837 0.12157 0.27385 0.0
C3119 C 0.64988 0.11997 0.24997 0.0
C3120 C 0.66106 0.13974 0.23437 0.0
C3121 C 0.67612 0.12877 0.213 0.0
C3122 C 0.64104 0.15692 0.22506 0.0
C3123 C 0.67764 0.15232 0.25304 0.0
C3124 C 0.67545 0.14178 0.27578 0.0
C3125 C 0.69045 0.14874 0.29543 0.0
C3126 C 0.70856 0.16653 0.29157 0.0
C3127 C 0.71156 0.17701 0.2683 0.0
C3128 C 0.69549 0.17034 0.24898 0.0
H3129 H 0.6636 0.90734 0.98231 0.0
H3130 H 0.65656 0.91604 0.06096 0.0
H3131 H 0.61726 0.93843 0.05528 0.0
H3132 H 0.64187 0.96674 0.96754 0.0
H3133 H 0.62644 0.95636 0.93998 0.0
H3134 H 0.6532 0.94059 0.95082 0.0
H3135 H 0.62793 0.90032 0.95107 0.0
H3136 H 0.601 0.916 0.94048 0.0
H3137 H 0.59953 0.89882 0.96827 0.0
H3138 H 0.57746 0.95788 0.04022 0.0
H3139 H 0.54401 0.97786 0.01739 0.0
H3140 H 0.57998 0.95867 0.94887 0.0
C3141 C 0.65373 0.91407 -0.00172 0.0
C3142 C 0.66269 0.91012 0.02202 0.0
C3143 C 0.64972 0.91914 0.04264 0.0
C3144 C 0.62743 0.93165 0.03956 0.0
C3145 C 0.61883 0.93505 0.01576 0.0
C3146 C 0.63186 0.92685 -0.0045 0.0
C3147 C 0.61944 0.93364 0.97187 0.0
C3148 C 0.63624 0.95033 0.95667 0.0
C3149 C 0.61151 0.91083 0.95706 0.0
C3150 C 0.59737 0.94707 0.9819 0.0
C3151 C 0.597 0.94735 0.00722 0.0
C3152 C 0.57781 0.9581 0.0204 0.0
C3153 C 0.55893 0.96947 0.00731 0.0
C3154 C 0.55978 0.97044 0.98144 0.0
C3155 C 0.57903 0.95866 0.96869 0.0
H3156 H 0.31397 0.43717 0.24202 0.0
H3157 H 0.37785 0.40819 0.27907 0.0
H3158 H 0.35409 0.3711 0.28886 0.0
H3159 H 0.26498 0.40837 0.28119 0.0
H3160 H 0.24549 0.40208 0.25502 0.0
H3161 H 0.26558 0.42842 0.25542 0.0
H3162 H 0.28555 0.41399 0.21458 0.0
H3163 H 0.26535 0.38792 0.21395 0.0
H3164 H 0.29834 0.38388 0.21241 0.0
H3165 H 0.3255 0.33533 0.29023 0.0
H3166 H 0.29692 0.30206 0.27786 0.0
H3167 H 0.25216 0.35358 0.2387 0.0
C3168 C 0.32267 0.42327 0.25277 0.0
C3169 C 0.3476 0.42556 0.25999 0.0
C3170 C 0.35871 0.40673 0.27338 0.0
C3171 C 0.34528 0.38574 0.27928 0.0
C3172 C 0.32079 0.38379 0.27158 0.0
C3173 C 0.30964 0.40198 0.25841 0.0
C3174 C 0.28454 0.39391 0.249 0.0
C3175 C 0.26393 0.4091 0.26088 0.0
C3176 C 0.2834 0.39497 0.22083 0.0
C3177 C 0.28384 0.36799 0.25788 0.0
C3178 C 0.30452 0.36273 0.2716 0.0
C3179 C 0.30902 0.33931 0.27987 0.0
C3180 C 0.29263 0.32052 0.27287 0.0
C3181 C 0.27239 0.3253 0.25733 0.0
C3182 C 0.2674 0.34948 0.25077 0.0
H3183 H 0.17163 0.60371 0.02155 0.0
H3184 H 0.14816 0.64314 0.95801 0.0
H3185 H 0.10451 0.63282 0.96722 0.0
H3186 H 0.13889 0.55562 0.01205 0.0
H3187 H 0.13074 0.5487 0.04321 0.0
H3188 H 0.15781 0.56647 0.03724 0.0
H3189 H 0.14141 0.60089 0.06564 0.0
H3190 H 0.11398 0.58307 0.07164 0.0
H3191 H 0.1113 0.61348 0.06021 0.0
H3192 H 0.06692 0.60899 0.97561 0.0
H3193 H 0.04079 0.57248 0.98011 0.0
H3194 H 0.08757 0.5481 0.03874 0.0
C3195 C 0.15706 0.61093 0.01029 0.0
C3196 C 0.1628 0.62418 0.98925 0.0
C3197 C 0.14376 0.63316 0.9744 0.0
C3198 C 0.119 0.62753 0.97965 0.0
C3199 C 0.1138 0.61322 -3e-05 0.0
C3200 C 0.13239 0.60533 0.0153 0.0
C3201 C 0.123 0.58632 0.03277 0.0
C3202 C 0.13851 0.56292 0.03116 0.0
C3203 C 0.12238 0.59656 0.05913 0.0
C3204 C 0.09712 0.58249 0.02288 0.0
C3205 C 0.09165 0.59907 0.00487 0.0
C3206 C 0.07054 0.59654 0.9903 0.0
C3207 C 0.05559 0.57584 0.99309 0.0
C3208 C 0.062 0.55794 0.01013 0.0
C3209 C 0.08213 0.56199 0.02605 0.0
H3210 H 0.66785 0.93153 0.28103 0.0
H3211 H 0.67601 0.94105 0.20295 0.0
H3212 H 0.70014 0.90312 0.1999 0.0
H3213 H 0.72939 0.90001 0.29139 0.0
H3214 H 0.71553 0.87994 0.31335 0.0
H3215 H 0.70427 0.91049 0.31037 0.0
H3216 H 0.66 0.89355 0.30275 0.0
H3217 H 0.67109 0.8631 0.30569 0.0
H3218 H 0.65487 0.87159 0.27833 0.0
H3219 H 0.71763 0.86174 0.20433 0.0
H3220 H 0.72442 0.8187 0.2153 0.0
H3221 H 0.70282 0.83537 0.29004 0.0
C3222 C 0.67564 0.92598 0.26356 0.0
C3223 C 0.67081 0.93916 0.2423 0.0
C3224 C 0.68017 0.93119 0.21944 0.0
C3225 C 0.69393 0.9098 0.21758 0.0
C3226 C 0.69805 0.89673 0.23882 0.0
C3227 C 0.68921 0.90454 0.26141 0.0
C3228 C 0.69296 0.88553 0.2807 0.0
C3229 C 0.71165 0.89453 0.3001 0.0
C3230 C 0.66826 0.878 0.29253 0.0
C3231 C 0.70365 0.86524 0.26511 0.0
C3232 C 0.70735 0.87232 0.24121 0.0
C3233 C 0.7154 0.85606 0.22307 0.0
C3234 C 0.71921 0.83176 0.22941 0.0
C3235 C 0.71423 0.82409 0.25347 0.0
C3236 C 0.70696 0.84108 0.27158 0.0
H3237 H 0.85314 0.09133 0.74828 0.0
H3238 H 0.78854 0.04406 0.74426 0.0
H3239 H 0.7617 0.08014 0.74282 0.0
H3240 H 0.82879 0.13433 0.78793 0.0
H3241 H 0.84371 0.16001 0.7739 0.0
H3242 H 0.85742 0.13048 0.77148 0.0
H3243 H 0.85754 0.13393 0.72412 0.0
H3244 H 0.8433 0.16337 0.72653 0.0
H3245 H 0.829 0.13956 0.70824 0.0
H3246 H 0.74202 0.12085 0.74693 0.0
H3247 H 0.73111 0.16274 0.75979 0.0
H3248 H 0.80841 0.18342 0.75946 0.0
C3249 C 0.83335 0.08852 0.7469 0.0
C3250 C 0.82288 0.06493 0.74649 0.0
C3251 C 0.79692 0.06201 0.74471 0.0
C3252 C 0.78158 0.08238 0.7436 0.0
C3253 C 0.79255 0.10542 0.74393 0.0
C3254 C 0.81786 0.10857 0.74559 0.0
C3255 C 0.82498 0.13515 0.74792 0.0
C3256 C 0.83956 0.14028 0.77172 0.0
C3257 C 0.83957 0.14349 0.72535 0.0
C3258 C 0.79965 0.14645 0.74869 0.0
C3259 C 0.78116 0.12906 0.74574 0.0
C3260 C 0.75627 0.13472 0.7486 0.0
C3261 C 0.75021 0.15849 0.75577 0.0
C3262 C 0.76898 0.1761 0.75983 0.0
C3263 C 0.79383 0.17032 0.75543 0.0
loop_
_geom_bond_atom_site_label_1
_geom_bond_atom_site_label_2
_geom_bond_distance
_geom_bond_site_symmetry_2
_ccdc_geom_bond_type
C0 O1 1.306 . S
C0 O3 1.160 . S
O1 C0 1.306 . S
O1 Cd2 2.228 1_655 S
Cd2 O1 2.228 1_455 S
Cd2 O6 2.273 . S
Cd2 O10 2.277 . S
O3 C0 1.160 . S
O3 Cd4 2.203 1_655 S
Cd4 O3 2.203 1_455 S
Cd4 O6 2.411 . S
Cd4 O7 2.333 . S
Cd4 O8 2.352 . S
Cd4 O12 2.277 . S
Cd4 O13 2.356 . S
C5 O10 1.209 . S
C5 O12 1.226 . S
O6 Cd2 2.273 . S
O6 Cd4 2.411 . S
O6 C9 1.320 . S
O7 Cd4 2.333 . S
O7 C9 1.214 . S
O8 Cd4 2.352 . S
O8 C11 1.258 . S
C9 O6 1.320 . S
C9 O7 1.214 . S
O10 Cd2 2.277 . S
O10 C5 1.209 . S
C11 O8 1.258 . S
C11 O13 1.282 . S
O12 Cd4 2.277 . S
O12 C5 1.226 . S
O13 Cd4 2.356 . S
O13 C11 1.282 . S
C14 O15 1.306 . S
C14 O17 1.160 . S
O15 C14 1.306 . S
O15 Cd16 2.228 1_655 S
Cd16 O15 2.228 1_455 S
Cd16 O20 2.273 . S
Cd16 O24 2.277 . S
O17 C14 1.160 . S
O17 Cd18 2.203 1_655 S
Cd18 O17 2.203 1_455 S
Cd18 O20 2.411 . S
Cd18 O21 2.333 . S
Cd18 O22 2.352 . S
Cd18 O26 2.277 . S
Cd18 O27 2.356 . S
C19 O24 1.209 . S
C19 O26 1.226 . S
O20 Cd16 2.273 . S
O20 Cd18 2.411 . S
O20 C23 1.320 . S
O21 Cd18 2.333 . S
O21 C23 1.214 . S
O22 Cd18 2.352 . S
O22 C25 1.258 . S
C23 O20 1.320 . S
C23 O21 1.214 . S
O24 Cd16 2.277 . S
O24 C19 1.209 . S
C25 O22 1.258 . S
C25 O27 1.282 . S
O26 Cd18 2.277 . S
O26 C19 1.226 . S
O27 Cd18 2.356 . S
O27 C25 1.282 . S
C28 O29 1.306 . S
C28 O31 1.160 . S
O29 C28 1.306 . S
O29 Cd30 2.228 . S
Cd30 O29 2.228 . S
Cd30 O34 2.273 . S
Cd30 O38 2.277 . S
O31 C28 1.160 . S
O31 Cd32 2.203 . S
Cd32 O31 2.203 . S
Cd32 O34 2.411 . S
Cd32 O35 2.333 . S
Cd32 O36 2.352 . S
Cd32 O40 2.277 . S
Cd32 O41 2.356 . S
C33 O38 1.209 . S
C33 O40 1.226 . S
O34 Cd30 2.273 . S
O34 Cd32 2.411 . S
O34 C37 1.320 . S
O35 Cd32 2.333 . S
O35 C37 1.214 . S
O36 Cd32 2.352 . S
O36 C39 1.258 . S
C37 O34 1.320 . S
C37 O35 1.214 . S
O38 Cd30 2.277 . S
O38 C33 1.209 . S
C39 O36 1.258 . S
C39 O41 1.282 . S
O40 Cd32 2.277 . S
O40 C33 1.226 . S
O41 Cd32 2.356 . S
O41 C39 1.282 . S
C42 O43 1.306 . S
C42 O45 1.160 . S
O43 C42 1.306 . S
O43 Cd44 2.228 . S
Cd44 O43 2.228 . S
Cd44 O48 2.273 . S
Cd44 O52 2.277 . S
O45 C42 1.160 . S
O45 Cd46 2.203 . S
Cd46 O45 2.203 . S
Cd46 O48 2.411 . S
Cd46 O49 2.333 . S
Cd46 O50 2.352 . S
Cd46 O54 2.277 . S
Cd46 O55 2.356 . S
C47 O52 1.209 . S
C47 O54 1.226 . S
O48 Cd44 2.273 . S
O48 Cd46 2.411 . S
O48 C51 1.320 . S
O49 Cd46 2.333 . S
O49 C51 1.214 . S
O50 Cd46 2.352 . S
O50 C53 1.258 . S
C51 O48 1.320 . S
C51 O49 1.214 . S
O52 Cd44 2.277 . S
O52 C47 1.209 . S
C53 O50 1.258 . S
C53 O55 1.282 . S
O54 Cd46 2.277 . S
O54 C47 1.226 . S
O55 Cd46 2.356 . S
O55 C53 1.282 . S
C56 O57 1.306 . S
C56 O59 1.165 . S
O57 C56 1.306 . S
O57 Cd58 2.228 . S
Cd58 O57 2.228 . S
Cd58 O62 2.273 . S
Cd58 O66 2.277 . S
O59 C56 1.165 . S
O59 Cd60 2.203 1_545 S
Cd60 O59 2.203 1_565 S
Cd60 O62 2.411 1_565 S
Cd60 O63 2.333 . S
Cd60 O64 2.352 . S
Cd60 O68 2.277 1_565 S
Cd60 O69 2.356 . S
C61 O66 1.209 . S
C61 O68 1.226 . S
O62 Cd58 2.273 . S
O62 Cd60 2.411 1_545 S
O62 C65 1.320 . S
O63 Cd60 2.333 . S
O63 C65 1.214 1_565 S
O64 Cd60 2.352 . S
O64 C67 1.258 . S
C65 O62 1.320 . S
C65 O63 1.214 1_545 S
O66 Cd58 2.277 . S
O66 C61 1.209 . S
C67 O64 1.258 . S
C67 O69 1.282 . S
O68 Cd60 2.277 1_545 S
O68 C61 1.226 . S
O69 Cd60 2.356 . S
O69 C67 1.282 . S
C70 O71 1.306 . S
C70 O73 1.160 . S
O71 C70 1.306 . S
O71 Cd72 2.228 . S
Cd72 O71 2.228 . S
Cd72 O76 2.273 . S
Cd72 O80 2.277 . S
O73 C70 1.160 . S
O73 Cd74 2.203 . S
Cd74 O73 2.203 . S
Cd74 O76 2.411 . S
Cd74 O77 2.333 . S
Cd74 O78 2.352 . S
Cd74 O82 2.277 . S
Cd74 O83 2.356 . S
C75 O80 1.209 . S
C75 O82 1.226 . S
O76 Cd72 2.273 . S
O76 Cd74 2.411 . S
O76 C79 1.320 . S
O77 Cd74 2.333 . S
O77 C79 1.214 . S
O78 Cd74 2.352 . S
O78 C81 1.258 . S
C79 O76 1.320 . S
C79 O77 1.214 . S
O80 Cd72 2.277 . S
O80 C75 1.209 . S
C81 O78 1.258 . S
C81 O83 1.282 . S
O82 Cd74 2.277 . S
O82 C75 1.226 . S
O83 Cd74 2.356 . S
O83 C81 1.282 . S
C84 O85 1.306 1_545 S
C84 O87 1.160 . S
O85 C84 1.306 1_565 S
O85 Cd86 2.228 . S
Cd86 O85 2.228 . S
Cd86 O90 2.273 1_565 S
Cd86 O94 2.277 . S
O87 C84 1.160 . S
O87 Cd88 2.203 . S
Cd88 O87 2.203 . S
Cd88 O90 2.411 . S
Cd88 O91 2.333 . S
Cd88 O92 2.352 . S
Cd88 O96 2.277 1_545 S
Cd88 O97 2.356 . S
C89 O94 1.209 . S
C89 O96 1.226 . S
O90 Cd86 2.273 1_545 S
O90 Cd88 2.411 . S
O90 C93 1.320 . S
O91 Cd88 2.333 . S
O91 C93 1.214 . S
O92 Cd88 2.352 . S
O92 C95 1.258 . S
C93 O90 1.320 . S
C93 O91 1.214 . S
O94 Cd86 2.277 . S
O94 C89 1.209 . S
C95 O92 1.258 . S
C95 O97 1.282 . S
O96 Cd88 2.277 1_565 S
O96 C89 1.226 . S
O97 Cd88 2.356 . S
O97 C95 1.282 . S
C98 O99 1.306 . S
C98 O101 1.160 . S
O99 C98 1.306 . S
O99 Cd100 2.228 . S
Cd100 O99 2.228 . S
Cd100 O104 2.273 . S
Cd100 O108 2.277 . S
O101 C98 1.160 . S
O101 Cd102 2.204 . S
Cd102 O101 2.204 . S
Cd102 O104 2.412 . S
Cd102 O105 2.333 . S
Cd102 O106 2.345 1_554 S
Cd102 O110 2.282 . S
Cd102 O111 2.352 1_554 S
C103 O108 1.209 . S
C103 O110 1.226 . S
O104 Cd100 2.273 . S
O104 Cd102 2.412 . S
O104 C107 1.320 . S
O105 Cd102 2.333 . S
O105 C107 1.215 . S
O106 Cd102 2.345 1_556 S
O106 C109 1.258 . S
C107 O104 1.320 . S
C107 O105 1.215 . S
O108 Cd100 2.277 . S
O108 C103 1.209 . S
C109 O106 1.258 . S
C109 O111 1.282 . S
O110 Cd102 2.282 . S
O110 C103 1.226 . S
O111 Cd102 2.352 1_556 S
O111 C109 1.282 . S
C112 O113 1.291 1_554 S
C112 O115 1.172 . S
O113 C112 1.291 1_556 S
O113 Cd114 2.228 . S
Cd114 O113 2.228 . S
Cd114 O118 2.273 1_556 S
Cd114 O122 2.277 . S
O115 C112 1.172 . S
O115 Cd116 2.203 . S
Cd116 O115 2.203 . S
Cd116 O118 2.411 . S
Cd116 O119 2.333 . S
Cd116 O120 2.352 . S
Cd116 O124 2.277 1_554 S
Cd116 O125 2.356 . S
C117 O122 1.209 . S
C117 O124 1.226 . S
O118 Cd114 2.273 1_554 S
O118 Cd116 2.411 . S
O118 C121 1.320 . S
O119 Cd116 2.333 . S
O119 C121 1.214 . S
O120 Cd116 2.352 . S
O120 C123 1.258 . S
C121 O118 1.320 . S
C121 O119 1.214 . S
O122 Cd114 2.277 . S
O122 C117 1.209 . S
C123 O120 1.258 . S
C123 O125 1.282 . S
O124 Cd116 2.277 1_556 S
O124 C117 1.226 . S
O125 Cd116 2.356 . S
O125 C123 1.282 . S
C126 O127 1.306 . S
C126 O129 1.160 . S
O127 C126 1.306 . S
O127 Cd128 2.228 . S
Cd128 O127 2.228 . S
Cd128 O132 2.273 . S
Cd128 O136 2.277 . S
O129 C126 1.160 . S
O129 Cd130 2.203 . S
Cd130 O129 2.203 . S
Cd130 O132 2.411 . S
Cd130 O133 2.333 . S
Cd130 O134 2.352 . S
Cd130 O138 2.277 . S
Cd130 O139 2.356 . S
C131 O136 1.209 . S
C131 O138 1.226 . S
O132 Cd128 2.273 . S
O132 Cd130 2.411 . S
O132 C135 1.320 . S
O133 Cd130 2.333 . S
O133 C135 1.214 . S
O134 Cd130 2.352 . S
O134 C137 1.258 . S
C135 O132 1.320 . S
C135 O133 1.214 . S
O136 Cd128 2.277 . S
O136 C131 1.209 . S
C137 O134 1.258 . S
C137 O139 1.282 . S
O138 Cd130 2.277 . S
O138 C131 1.226 . S
O139 Cd130 2.356 . S
O139 C137 1.282 . S
C140 O141 1.306 . S
C140 O143 1.160 . S
O141 C140 1.306 . S
O141 Cd142 2.228 . S
Cd142 O141 2.228 . S
Cd142 O146 2.273 . S
Cd142 O150 2.277 . S
O143 C140 1.160 . S
O143 Cd144 2.203 . S
Cd144 O143 2.203 . S
Cd144 O146 2.411 . S
Cd144 O147 2.333 . S
Cd144 O148 2.352 . S
Cd144 O152 2.277 . S
Cd144 O153 2.356 . S
C145 O150 1.209 . S
C145 O152 1.226 . S
O146 Cd142 2.273 . S
O146 Cd144 2.411 . S
O146 C149 1.320 . S
O147 Cd144 2.333 . S
O147 C149 1.214 . S
O148 Cd144 2.352 . S
O148 C151 1.258 . S
C149 O146 1.320 . S
C149 O147 1.214 . S
O150 Cd142 2.277 . S
O150 C145 1.209 . S
C151 O148 1.258 . S
C151 O153 1.282 . S
O152 Cd144 2.277 . S
O152 C145 1.226 . S
O153 Cd144 2.356 . S
O153 C151 1.282 . S
C154 O155 1.306 . S
C154 O157 1.160 . S
O155 C154 1.306 . S
O155 Cd156 2.228 . S
Cd156 O155 2.228 . S
Cd156 O160 2.273 . S
Cd156 O164 2.277 . S
O157 C154 1.160 . S
O157 Cd158 2.203 . S
Cd158 O157 2.203 . S
Cd158 O160 2.411 . S
Cd158 O161 2.333 . S
Cd158 O162 2.352 . S
Cd158 O166 2.277 . S
Cd158 O167 2.356 . S
C159 O164 1.209 . S
C159 O166 1.226 . S
O160 Cd156 2.273 . S
O160 Cd158 2.411 . S
O160 C163 1.320 . S
O161 Cd158 2.333 . S
O161 C163 1.214 . S
O162 Cd158 2.352 . S
O162 C165 1.258 . S
C163 O160 1.320 . S
C163 O161 1.214 . S
O164 Cd156 2.277 . S
O164 C159 1.209 . S
C165 O162 1.258 . S
C165 O167 1.282 . S
O166 Cd158 2.277 . S
O166 C159 1.226 . S
O167 Cd158 2.356 . S
O167 C165 1.282 . S
C168 O169 1.306 . S
C168 O171 1.160 . S
O169 C168 1.306 . S
O169 Cd170 2.228 1_655 S
Cd170 O169 2.228 1_455 S
Cd170 O174 2.273 . S
Cd170 O178 2.277 . S
O171 C168 1.160 . S
O171 Cd172 2.203 1_655 S
Cd172 O171 2.203 1_455 S
Cd172 O174 2.411 . S
Cd172 O175 2.333 . S
Cd172 O176 2.352 . S
Cd172 O180 2.277 . S
Cd172 O181 2.356 . S
C173 O178 1.209 . S
C173 O180 1.226 . S
O174 Cd170 2.273 . S
O174 Cd172 2.411 . S
O174 C177 1.320 . S
O175 Cd172 2.333 . S
O175 C177 1.214 . S
O176 Cd172 2.352 . S
O176 C179 1.258 . S
C177 O174 1.320 . S
C177 O175 1.214 . S
O178 Cd170 2.277 . S
O178 C173 1.209 . S
C179 O176 1.258 . S
C179 O181 1.282 . S
O180 Cd172 2.277 . S
O180 C173 1.226 . S
O181 Cd172 2.356 . S
O181 C179 1.282 . S
C182 O183 1.306 . S
C182 O185 1.160 . S
O183 C182 1.306 . S
O183 Cd184 2.228 1_655 S
Cd184 O183 2.228 1_455 S
Cd184 O188 2.273 . S
Cd184 O192 2.277 . S
O185 C182 1.160 . S
O185 Cd186 2.203 1_655 S
Cd186 O185 2.203 1_455 S
Cd186 O188 2.411 . S
Cd186 O189 2.333 . S
Cd186 O190 2.352 . S
Cd186 O194 2.277 . S
Cd186 O195 2.356 . S
C187 O192 1.209 . S
C187 O194 1.226 . S
O188 Cd184 2.273 . S
O188 Cd186 2.411 . S
O188 C191 1.320 . S
O189 Cd186 2.333 . S
O189 C191 1.214 . S
O190 Cd186 2.352 . S
O190 C193 1.258 . S
C191 O188 1.320 . S
C191 O189 1.214 . S
O192 Cd184 2.277 . S
O192 C187 1.209 . S
C193 O190 1.258 . S
C193 O195 1.282 . S
O194 Cd186 2.277 . S
O194 C187 1.226 . S
O195 Cd186 2.356 . S
O195 C193 1.282 . S
C196 O197 1.306 . S
C196 O199 1.160 . S
O197 C196 1.306 . S
O197 Cd198 2.228 . S
Cd198 O197 2.228 . S
Cd198 O202 2.273 . S
Cd198 O206 2.277 . S
O199 C196 1.160 . S
O199 Cd200 2.203 . S
Cd200 O199 2.203 . S
Cd200 O202 2.411 . S
Cd200 O203 2.333 . S
Cd200 O204 2.352 . S
Cd200 O208 2.277 . S
Cd200 O209 2.356 . S
C201 O206 1.209 . S
C201 O208 1.226 . S
O202 Cd198 2.273 . S
O202 Cd200 2.411 . S
O202 C205 1.320 . S
O203 Cd200 2.333 . S
O203 C205 1.214 . S
O204 Cd200 2.352 . S
O204 C207 1.258 . S
C205 O202 1.320 . S
C205 O203 1.214 . S
O206 Cd198 2.277 . S
O206 C201 1.209 . S
C207 O204 1.258 . S
C207 O209 1.282 . S
O208 Cd200 2.277 . S
O208 C201 1.226 . S
O209 Cd200 2.356 . S
O209 C207 1.282 . S
C210 O211 1.306 . S
C210 O213 1.160 . S
O211 C210 1.306 . S
O211 Cd212 2.228 . S
Cd212 O211 2.228 . S
Cd212 O216 2.273 . S
Cd212 O220 2.277 . S
O213 C210 1.160 . S
O213 Cd214 2.203 . S
Cd214 O213 2.203 . S
Cd214 O216 2.411 . S
Cd214 O217 2.333 . S
Cd214 O218 2.352 . S
Cd214 O222 2.277 . S
Cd214 O223 2.356 . S
C215 O220 1.209 . S
C215 O222 1.226 . S
O216 Cd212 2.273 . S
O216 Cd214 2.411 . S
O216 C219 1.320 . S
O217 Cd214 2.333 . S
O217 C219 1.214 . S
O218 Cd214 2.352 . S
O218 C221 1.258 . S
C219 O216 1.320 . S
C219 O217 1.214 . S
O220 Cd212 2.277 . S
O220 C215 1.209 . S
C221 O218 1.258 . S
C221 O223 1.282 . S
O222 Cd214 2.277 . S
O222 C215 1.226 . S
O223 Cd214 2.356 . S
O223 C221 1.282 . S
C224 O225 1.306 . S
C224 O227 1.160 1_565 S
O225 C224 1.306 . S
O225 Cd226 2.228 . S
Cd226 O225 2.228 . S
Cd226 O230 2.276 . S
Cd226 O234 2.277 . S
O227 C224 1.160 1_545 S
O227 Cd228 2.203 . S
Cd228 O227 2.203 . S
Cd228 O230 2.411 1_545 S
Cd228 O231 2.333 . S
Cd228 O232 2.352 . S
Cd228 O236 2.277 1_545 S
Cd228 O237 2.356 . S
C229 O234 1.209 . S
C229 O236 1.226 . S
O230 Cd226 2.276 . S
O230 Cd228 2.411 1_565 S
O230 C233 1.320 1_565 S
O231 Cd228 2.333 . S
O231 C233 1.214 . S
O232 Cd228 2.352 . S
O232 C235 1.258 . S
C233 O230 1.320 1_545 S
C233 O231 1.214 . S
O234 Cd226 2.277 . S
O234 C229 1.209 . S
C235 O232 1.258 . S
C235 O237 1.282 . S
O236 Cd228 2.277 1_565 S
O236 C229 1.226 . S
O237 Cd228 2.356 . S
O237 C235 1.282 . S
C238 O239 1.306 . S
C238 O241 1.160 . S
O239 C238 1.306 . S
O239 Cd240 2.228 . S
Cd240 O239 2.228 . S
Cd240 O244 2.273 . S
Cd240 O248 2.277 . S
O241 C238 1.160 . S
O241 Cd242 2.203 . S
Cd242 O241 2.203 . S
Cd242 O244 2.411 . S
Cd242 O245 2.333 . S
Cd242 O246 2.352 . S
Cd242 O250 2.277 . S
Cd242 O251 2.356 . S
C243 O248 1.209 . S
C243 O250 1.226 . S
O244 Cd240 2.273 . S
O244 Cd242 2.411 . S
O244 C247 1.320 . S
O245 Cd242 2.333 . S
O245 C247 1.214 . S
O246 Cd242 2.352 . S
O246 C249 1.258 . S
C247 O244 1.320 . S
C247 O245 1.214 . S
O248 Cd240 2.277 . S
O248 C243 1.209 . S
C249 O246 1.258 . S
C249 O251 1.282 . S
O250 Cd242 2.277 . S
O250 C243 1.226 . S
O251 Cd242 2.356 . S
O251 C249 1.282 . S
C252 O253 1.306 . S
C252 O255 1.160 . S
O253 C252 1.306 . S
O253 Cd254 2.228 . S
Cd254 O253 2.228 . S
Cd254 O258 2.273 . S
Cd254 O262 2.277 . S
O255 C252 1.160 . S
O255 Cd256 2.203 1_545 S
Cd256 O255 2.203 1_565 S
Cd256 O258 2.408 1_565 S
Cd256 O259 2.333 . S
Cd256 O260 2.373 . S
Cd256 O264 2.260 1_565 S
Cd256 O265 2.371 . S
C257 O262 1.209 . S
C257 O264 1.226 . S
O258 Cd254 2.273 . S
O258 Cd256 2.408 1_545 S
O258 C261 1.320 . S
O259 Cd256 2.333 . S
O259 C261 1.214 1_565 S
O260 Cd256 2.373 . S
O260 C263 1.258 . S
C261 O258 1.320 . S
C261 O259 1.214 1_545 S
O262 Cd254 2.277 . S
O262 C257 1.209 . S
C263 O260 1.258 . S
C263 O265 1.282 . S
O264 Cd256 2.260 1_545 S
O264 C257 1.226 . S
O265 Cd256 2.371 . S
O265 C263 1.282 . S
C266 O267 1.306 1_554 S
C266 O269 1.160 . S
O267 C266 1.306 1_556 S
O267 Cd268 2.228 . S
Cd268 O267 2.228 . S
Cd268 O272 2.273 1_556 S
Cd268 O276 2.277 . S
O269 C266 1.160 . S
O269 Cd270 2.203 . S
Cd270 O269 2.203 . S
Cd270 O272 2.411 . S
Cd270 O273 2.333 . S
Cd270 O274 2.352 . S
Cd270 O278 2.277 1_554 S
Cd270 O279 2.356 . S
C271 O276 1.209 . S
C271 O278 1.226 . S
O272 Cd268 2.273 1_554 S
O272 Cd270 2.411 . S
O272 C275 1.320 . S
O273 Cd270 2.333 . S
O273 C275 1.214 . S
O274 Cd270 2.352 . S
O274 C277 1.258 . S
C275 O272 1.320 . S
C275 O273 1.214 . S
O276 Cd268 2.277 . S
O276 C271 1.209 . S
C277 O274 1.258 . S
C277 O279 1.282 . S
O278 Cd270 2.277 1_556 S
O278 C271 1.226 . S
O279 Cd270 2.356 . S
O279 C277 1.282 . S
C280 O281 1.306 . S
C280 O283 1.160 1_554 S
O281 C280 1.306 . S
O281 Cd282 2.228 . S
Cd282 O281 2.228 . S
Cd282 O286 2.273 . S
Cd282 O290 2.277 . S
O283 C280 1.160 1_556 S
O283 Cd284 2.203 . S
Cd284 O283 2.203 . S
Cd284 O286 2.411 1_556 S
Cd284 O287 2.333 . S
Cd284 O288 2.352 . S
Cd284 O292 2.277 1_556 S
Cd284 O293 2.356 . S
C285 O290 1.209 . S
C285 O292 1.226 . S
O286 Cd282 2.273 . S
O286 Cd284 2.411 1_554 S
O286 C289 1.318 1_554 S
O287 Cd284 2.333 . S
O287 C289 1.217 . S
O288 Cd284 2.352 . S
O288 C291 1.258 . S
C289 O286 1.318 1_556 S
C289 O287 1.217 . S
O290 Cd282 2.277 . S
O290 C285 1.209 . S
C291 O288 1.258 . S
C291 O293 1.282 . S
O292 Cd284 2.277 1_554 S
O292 C285 1.226 . S
O293 Cd284 2.356 . S
O293 C291 1.282 . S
C294 O295 1.306 . S
C294 O297 1.160 . S
O295 C294 1.306 . S
O295 Cd296 2.228 . S
Cd296 O295 2.228 . S
Cd296 O300 2.273 . S
Cd296 O304 2.277 . S
O297 C294 1.160 . S
O297 Cd298 2.203 . S
Cd298 O297 2.203 . S
Cd298 O300 2.411 . S
Cd298 O301 2.333 . S
Cd298 O302 2.352 . S
Cd298 O306 2.277 . S
Cd298 O307 2.356 . S
C299 O304 1.209 . S
C299 O306 1.226 . S
O300 Cd296 2.273 . S
O300 Cd298 2.411 . S
O300 C303 1.320 . S
O301 Cd298 2.333 . S
O301 C303 1.214 . S
O302 Cd298 2.352 . S
O302 C305 1.258 . S
C303 O300 1.320 . S
C303 O301 1.214 . S
O304 Cd296 2.277 . S
O304 C299 1.209 . S
C305 O302 1.258 . S
C305 O307 1.282 . S
O306 Cd298 2.277 . S
O306 C299 1.226 . S
O307 Cd298 2.356 . S
O307 C305 1.282 . S
C308 O309 1.306 . S
C308 O311 1.160 . S
O309 C308 1.306 . S
O309 Cd310 2.228 . S
Cd310 O309 2.228 . S
Cd310 O314 2.273 . S
Cd310 O318 2.277 . S
O311 C308 1.160 . S
O311 Cd312 2.203 . S
Cd312 O311 2.203 . S
Cd312 O314 2.411 . S
Cd312 O315 2.333 . S
Cd312 O316 2.352 . S
Cd312 O320 2.277 . S
Cd312 O321 2.356 . S
C313 O318 1.209 . S
C313 O320 1.226 . S
O314 Cd310 2.273 . S
O314 Cd312 2.411 . S
O314 C317 1.320 . S
O315 Cd312 2.333 . S
O315 C317 1.214 . S
O316 Cd312 2.352 . S
O316 C319 1.258 . S
C317 O314 1.320 . S
C317 O315 1.214 . S
O318 Cd310 2.277 . S
O318 C313 1.209 . S
C319 O316 1.258 . S
C319 O321 1.282 . S
O320 Cd312 2.277 . S
O320 C313 1.226 . S
O321 Cd312 2.356 . S
O321 C319 1.282 . S
C322 O323 1.306 . S
C322 O325 1.160 . S
O323 C322 1.306 . S
O323 Cd324 2.228 . S
Cd324 O323 2.228 . S
Cd324 O328 2.273 . S
Cd324 O332 2.277 . S
O325 C322 1.160 . S
O325 Cd326 2.203 . S
Cd326 O325 2.203 . S
Cd326 O328 2.411 . S
Cd326 O329 2.333 . S
Cd326 O330 2.352 . S
Cd326 O334 2.277 . S
Cd326 O335 2.356 . S
C327 O332 1.209 . S
C327 O334 1.226 . S
O328 Cd324 2.273 . S
O328 Cd326 2.411 . S
O328 C331 1.320 . S
O329 Cd326 2.333 . S
O329 C331 1.214 . S
O330 Cd326 2.352 . S
O330 C333 1.258 . S
C331 O328 1.320 . S
C331 O329 1.214 . S
O332 Cd324 2.277 . S
O332 C327 1.209 . S
C333 O330 1.258 . S
C333 O335 1.282 . S
O334 Cd326 2.277 . S
O334 C327 1.226 . S
O335 Cd326 2.356 . S
O335 C333 1.282 . S
O336 Mg337 1.990 . S
O336 C350 1.253 . S
Mg337 O336 1.990 . S
Mg337 O340 2.180 1_556 S
Mg337 O341 2.117 1_556 S
Mg337 O355 2.030 1_556 S
O338 Mg339 2.072 1_656 S
O338 C350 1.260 . S
Mg339 O338 2.072 1_454 S
Mg339 O340 2.099 1_455 S
Mg339 O342 2.079 1_545 S
Mg339 O343 2.080 . S
Mg339 O345 2.099 1_544 S
Mg339 O356 2.079 1_445 S
O340 Mg337 2.180 1_554 S
O340 Mg339 2.099 1_655 S
O340 C351 1.279 . S
O341 Mg337 2.117 1_554 S
O341 C351 1.250 . S
O342 Mg339 2.079 1_565 S
O342 C352 1.264 . S
O343 Mg339 2.080 . S
O343 C353 1.256 1_554 S
Mg344 O345 2.181 1_554 S
Mg344 O346 2.030 . S
Mg344 O347 1.990 1_554 S
Mg344 O348 2.117 1_554 S
O345 Mg339 2.099 1_566 S
O345 Mg344 2.181 1_556 S
O345 C354 1.277 . S
O346 Mg344 2.030 . S
O346 C352 1.248 . S
O347 Mg344 1.990 1_556 S
O347 C353 1.253 1_565 S
O348 Mg344 2.117 1_556 S
O348 C354 1.250 . S
C349 O355 1.246 1_565 S
C349 O356 1.264 . S
C350 O336 1.253 . S
C350 O338 1.260 . S
C351 O340 1.279 . S
C351 O341 1.250 . S
C352 O342 1.264 . S
C352 O346 1.248 . S
C353 O343 1.256 1_556 S
C353 O347 1.253 1_545 S
C354 O345 1.277 . S
C354 O348 1.250 . S
O355 Mg337 2.030 1_554 S
O355 C349 1.246 1_545 S
O356 Mg339 2.079 1_665 S
O356 C349 1.264 . S
O357 Mg358 1.990 . S
O357 C371 1.253 . S
Mg358 O357 1.990 . S
Mg358 O361 2.180 . S
Mg358 O362 2.117 . S
Mg358 O376 2.030 . S
O359 Mg360 2.072 . S
O359 C371 1.260 . S
Mg360 O359 2.072 . S
Mg360 O361 2.099 . S
Mg360 O363 2.079 . S
Mg360 O364 2.072 . S
Mg360 O366 2.099 . S
Mg360 O377 2.079 . S
O361 Mg358 2.180 . S
O361 Mg360 2.099 . S
O361 C372 1.279 . S
O362 Mg358 2.117 . S
O362 C372 1.250 . S
O363 Mg360 2.079 . S
O363 C373 1.264 . S
O364 Mg360 2.072 . S
O364 C374 1.260 . S
Mg365 O366 2.180 . S
Mg365 O367 2.030 . S
Mg365 O368 1.990 . S
Mg365 O369 2.117 . S
O366 Mg360 2.099 . S
O366 Mg365 2.180 . S
O366 C375 1.279 . S
O367 Mg365 2.030 . S
O367 C373 1.248 . S
O368 Mg365 1.990 . S
O368 C374 1.253 . S
O369 Mg365 2.117 . S
O369 C375 1.250 . S
C370 O376 1.248 . S
C370 O377 1.264 . S
C371 O357 1.253 . S
C371 O359 1.260 . S
C372 O361 1.279 . S
C372 O362 1.250 . S
C373 O363 1.264 . S
C373 O367 1.248 . S
C374 O364 1.260 . S
C374 O368 1.253 . S
C375 O366 1.279 . S
C375 O369 1.250 . S
O376 Mg358 2.030 . S
O376 C370 1.248 . S
O377 Mg360 2.079 . S
O377 C370 1.264 . S
O378 Mg379 1.990 . S
O378 C392 1.253 . S
Mg379 O378 1.990 . S
Mg379 O382 2.180 . S
Mg379 O383 2.117 . S
Mg379 O397 2.030 1_565 S
O380 Mg381 2.072 . S
O380 C392 1.260 1_545 S
Mg381 O380 2.072 . S
Mg381 O382 2.099 1_545 S
Mg381 O384 2.079 . S
Mg381 O385 2.072 1_545 S
Mg381 O387 2.099 . S
Mg381 O398 2.079 . S
O382 Mg379 2.180 . S
O382 Mg381 2.099 1_565 S
O382 C393 1.279 . S
O383 Mg379 2.117 . S
O383 C393 1.250 . S
O384 Mg381 2.079 . S
O384 C394 1.264 . S
O385 Mg381 2.072 1_565 S
O385 C395 1.260 . S
Mg386 O387 2.180 . S
Mg386 O388 2.030 . S
Mg386 O389 1.990 . S
Mg386 O390 2.117 . S
O387 Mg381 2.099 . S
O387 Mg386 2.180 . S
O387 C396 1.279 . S
O388 Mg386 2.030 . S
O388 C394 1.248 . S
O389 Mg386 1.990 . S
O389 C395 1.253 1_545 S
O390 Mg386 2.117 . S
O390 C396 1.250 . S
C391 O397 1.248 . S
C391 O398 1.264 . S
C392 O378 1.253 . S
C392 O380 1.260 1_565 S
C393 O382 1.279 . S
C393 O383 1.250 . S
C394 O384 1.264 . S
C394 O388 1.248 . S
C395 O385 1.260 . S
C395 O389 1.253 1_565 S
C396 O387 1.279 . S
C396 O390 1.250 . S
O397 Mg379 2.030 1_545 S
O397 C391 1.248 . S
O398 Mg381 2.079 . S
O398 C391 1.264 . S
O399 Mg400 1.990 . S
O399 C413 1.253 . S
Mg400 O399 1.990 . S
Mg400 O403 2.180 . S
Mg400 O404 2.117 . S
Mg400 O418 2.030 . S
O401 Mg402 2.072 . S
O401 C413 1.260 . S
Mg402 O401 2.072 . S
Mg402 O403 2.099 . S
Mg402 O405 2.079 . S
Mg402 O406 2.072 . S
Mg402 O408 2.099 . S
Mg402 O419 2.079 . S
O403 Mg400 2.180 . S
O403 Mg402 2.099 . S
O403 C414 1.279 . S
O404 Mg400 2.117 . S
O404 C414 1.250 . S
O405 Mg402 2.079 . S
O405 C415 1.264 . S
O406 Mg402 2.072 . S
O406 C416 1.260 . S
Mg407 O408 2.180 . S
Mg407 O409 2.030 . S
Mg407 O410 1.990 . S
Mg407 O411 2.117 . S
O408 Mg402 2.099 . S
O408 Mg407 2.180 . S
O408 C417 1.279 . S
O409 Mg407 2.030 . S
O409 C415 1.248 . S
O410 Mg407 1.990 . S
O410 C416 1.253 . S
O411 Mg407 2.117 . S
O411 C417 1.250 . S
C412 O418 1.248 . S
C412 O419 1.264 . S
C413 O399 1.253 . S
C413 O401 1.260 . S
C414 O403 1.279 . S
C414 O404 1.250 . S
C415 O405 1.264 . S
C415 O409 1.248 . S
C416 O406 1.260 . S
C416 O410 1.253 . S
C417 O408 1.279 . S
C417 O411 1.250 . S
O418 Mg400 2.030 . S
O418 C412 1.248 . S
O419 Mg402 2.079 . S
O419 C412 1.264 . S
O420 Mg421 1.990 1_655 S
O420 C434 1.255 . S
Mg421 O420 1.990 1_455 S
Mg421 O424 2.180 . S
Mg421 O425 2.117 1_455 S
Mg421 O439 2.030 . S
O422 Mg423 2.072 1_565 S
O422 C434 1.258 1_455 S
Mg423 O422 2.072 1_545 S
Mg423 O424 2.099 1_545 S
Mg423 O426 2.079 . S
Mg423 O427 2.072 1_455 S
Mg423 O429 2.099 . S
Mg423 O440 2.079 1_545 S
O424 Mg421 2.180 . S
O424 Mg423 2.099 1_565 S
O424 C435 1.279 1_455 S
O425 Mg421 2.117 1_655 S
O425 C435 1.250 . S
O426 Mg423 2.079 . S
O426 C436 1.264 . S
O427 Mg423 2.072 1_655 S
O427 C437 1.260 . S
Mg428 O429 2.161 1_655 S
Mg428 O430 2.027 1_655 S
Mg428 O431 2.025 . S
Mg428 O432 2.109 1_655 S
O429 Mg423 2.099 . S
O429 Mg428 2.161 1_455 S
O429 C438 1.279 . S
O430 Mg428 2.027 1_455 S
O430 C436 1.248 . S
O431 Mg428 2.025 . S
O431 C437 1.253 . S
O432 Mg428 2.109 1_455 S
O432 C438 1.250 . S
C433 O439 1.248 . S
C433 O440 1.264 . S
C434 O420 1.255 . S
C434 O422 1.258 1_655 S
C435 O424 1.279 1_655 S
C435 O425 1.250 . S
C436 O426 1.264 . S
C436 O430 1.248 . S
C437 O427 1.260 . S
C437 O431 1.253 . S
C438 O429 1.279 . S
C438 O432 1.250 . S
O439 Mg421 2.030 . S
O439 C433 1.248 . S
O440 Mg423 2.079 1_565 S
O440 C433 1.264 . S
O441 Mg442 1.990 . S
O441 C455 1.253 . S
Mg442 O441 1.990 . S
Mg442 O445 2.180 . S
Mg442 O446 2.117 . S
Mg442 O460 2.030 . S
O443 Mg444 2.072 . S
O443 C455 1.260 . S
Mg444 O443 2.072 . S
Mg444 O445 2.099 . S
Mg444 O447 2.079 . S
Mg444 O448 2.072 . S
Mg444 O450 2.099 . S
Mg444 O461 2.079 . S
O445 Mg442 2.180 . S
O445 Mg444 2.099 . S
O445 C456 1.279 . S
O446 Mg442 2.117 . S
O446 C456 1.250 . S
O447 Mg444 2.079 . S
O447 C457 1.264 . S
O448 Mg444 2.072 . S
O448 C458 1.260 . S
Mg449 O450 2.180 . S
Mg449 O451 2.030 . S
Mg449 O452 1.990 . S
Mg449 O453 2.117 . S
O450 Mg444 2.099 . S
O450 Mg449 2.180 . S
O450 C459 1.279 . S
O451 Mg449 2.030 . S
O451 C457 1.248 . S
O452 Mg449 1.990 . S
O452 C458 1.253 . S
O453 Mg449 2.117 . S
O453 C459 1.250 . S
C454 O460 1.248 . S
C454 O461 1.264 . S
C455 O441 1.253 . S
C455 O443 1.260 . S
C456 O445 1.279 . S
C456 O446 1.250 . S
C457 O447 1.264 . S
C457 O451 1.248 . S
C458 O448 1.260 . S
C458 O452 1.253 . S
C459 O450 1.279 . S
C459 O453 1.250 . S
O460 Mg442 2.030 . S
O460 C454 1.248 . S
O461 Mg444 2.079 . S
O461 C454 1.264 . S
O462 Mg463 1.990 . S
O462 C476 1.253 . S
Mg463 O462 1.990 . S
Mg463 O466 2.180 1_565 S
Mg463 O467 2.117 1_565 S
Mg463 O481 2.030 . S
O464 Mg465 2.072 1_565 S
O464 C476 1.260 . S
Mg465 O464 2.072 1_545 S
Mg465 O466 2.099 . S
Mg465 O468 2.079 1_554 S
Mg465 O469 2.072 1_544 S
Mg465 O471 2.091 1_544 S
Mg465 O482 2.079 . S
O466 Mg463 2.180 1_545 S
O466 Mg465 2.099 . S
O466 C477 1.279 . S
O467 Mg463 2.117 1_545 S
O467 C477 1.250 . S
O468 Mg465 2.079 1_556 S
O468 C478 1.264 . S
O469 Mg465 2.072 1_566 S
O469 C479 1.260 . S
Mg470 O471 2.167 1_545 S
Mg470 O472 2.030 . S
Mg470 O473 1.990 1_545 S
Mg470 O474 2.117 1_545 S
O471 Mg465 2.091 1_566 S
O471 Mg470 2.167 1_565 S
O471 C480 1.309 . S
O472 Mg470 2.030 . S
O472 C478 1.248 . S
O473 Mg470 1.990 1_565 S
O473 C479 1.253 . S
O474 Mg470 2.117 1_565 S
O474 C480 1.250 . S
C475 O481 1.244 1_545 S
C475 O482 1.264 . S
C476 O462 1.253 . S
C476 O464 1.260 . S
C477 O466 1.279 . S
C477 O467 1.250 . S
C478 O468 1.264 . S
C478 O472 1.248 . S
C479 O469 1.260 . S
C479 O473 1.253 . S
C480 O471 1.309 . S
C480 O474 1.250 . S
O481 Mg463 2.030 . S
O481 C475 1.244 1_565 S
O482 Mg465 2.079 . S
O482 C475 1.264 . S
O483 Mg484 1.990 . S
O483 C497 1.253 . S
Mg484 O483 1.990 . S
Mg484 O487 2.180 . S
Mg484 O488 2.117 . S
Mg484 O502 2.030 . S
O485 Mg486 2.072 . S
O485 C497 1.260 . S
Mg486 O485 2.072 . S
Mg486 O487 2.099 . S
Mg486 O489 2.079 . S
Mg486 O490 2.072 . S
Mg486 O492 2.099 . S
Mg486 O503 2.079 . S
O487 Mg484 2.180 . S
O487 Mg486 2.099 . S
O487 C498 1.279 . S
O488 Mg484 2.117 . S
O488 C498 1.250 . S
O489 Mg486 2.079 . S
O489 C499 1.264 . S
O490 Mg486 2.072 . S
O490 C500 1.260 . S
Mg491 O492 2.180 . S
Mg491 O493 2.030 . S
Mg491 O494 1.990 . S
Mg491 O495 2.117 . S
O492 Mg486 2.099 . S
O492 Mg491 2.180 . S
O492 C501 1.279 . S
O493 Mg491 2.030 . S
O493 C499 1.248 . S
O494 Mg491 1.990 . S
O494 C500 1.253 . S
O495 Mg491 2.117 . S
O495 C501 1.250 . S
C496 O502 1.248 . S
C496 O503 1.264 . S
C497 O483 1.253 . S
C497 O485 1.260 . S
C498 O487 1.279 . S
C498 O488 1.250 . S
C499 O489 1.264 . S
C499 O493 1.248 . S
C500 O490 1.260 . S
C500 O494 1.253 . S
C501 O492 1.279 . S
C501 O495 1.250 . S
O502 Mg484 2.030 . S
O502 C496 1.248 . S
O503 Mg486 2.079 . S
O503 C496 1.264 . S
O504 Mg505 1.990 . S
O504 C518 1.253 . S
Mg505 O504 1.990 . S
Mg505 O508 2.180 . S
Mg505 O509 2.117 . S
Mg505 O523 2.030 1_556 S
O506 Mg507 2.072 . S
O506 C518 1.260 1_554 S
Mg507 O506 2.072 . S
Mg507 O508 2.099 1_554 S
Mg507 O510 2.079 . S
Mg507 O511 2.072 1_554 S
Mg507 O513 2.099 . S
Mg507 O524 2.079 . S
O508 Mg505 2.180 . S
O508 Mg507 2.099 1_556 S
O508 C519 1.279 . S
O509 Mg505 2.117 . S
O509 C519 1.250 . S
O510 Mg507 2.079 . S
O510 C520 1.264 . S
O511 Mg507 2.072 1_556 S
O511 C521 1.260 . S
Mg512 O513 2.180 . S
Mg512 O514 2.030 . S
Mg512 O515 1.990 . S
Mg512 O516 2.117 . S
O513 Mg507 2.099 . S
O513 Mg512 2.180 . S
O513 C522 1.279 . S
O514 Mg512 2.030 . S
O514 C520 1.248 . S
O515 Mg512 1.990 . S
O515 C521 1.253 1_554 S
O516 Mg512 2.117 . S
O516 C522 1.250 . S
C517 O523 1.248 . S
C517 O524 1.264 . S
C518 O504 1.253 . S
C518 O506 1.260 1_556 S
C519 O508 1.279 . S
C519 O509 1.250 . S
C520 O510 1.264 . S
C520 O514 1.248 . S
C521 O511 1.260 . S
C521 O515 1.253 1_556 S
C522 O513 1.279 . S
C522 O516 1.250 . S
O523 Mg505 2.030 1_554 S
O523 C517 1.248 . S
O524 Mg507 2.079 . S
O524 C517 1.264 . S
O525 Mg526 1.990 . S
O525 C539 1.253 . S
Mg526 O525 1.990 . S
Mg526 O529 2.180 . S
Mg526 O530 2.117 . S
Mg526 O544 2.030 . S
O527 Mg528 2.072 . S
O527 C539 1.260 . S
Mg528 O527 2.072 . S
Mg528 O529 2.099 . S
Mg528 O531 2.079 . S
Mg528 O532 2.072 . S
Mg528 O534 2.099 . S
Mg528 O545 2.079 . S
O529 Mg526 2.180 . S
O529 Mg528 2.099 . S
O529 C540 1.279 . S
O530 Mg526 2.117 . S
O530 C540 1.250 . S
O531 Mg528 2.079 . S
O531 C541 1.264 . S
O532 Mg528 2.072 . S
O532 C542 1.260 . S
Mg533 O534 2.180 . S
Mg533 O535 2.030 . S
Mg533 O536 1.990 . S
Mg533 O537 2.117 . S
O534 Mg528 2.099 . S
O534 Mg533 2.180 . S
O534 C543 1.279 . S
O535 Mg533 2.030 . S
O535 C541 1.248 . S
O536 Mg533 1.990 . S
O536 C542 1.253 . S
O537 Mg533 2.117 . S
O537 C543 1.250 . S
C538 O544 1.248 . S
C538 O545 1.264 . S
C539 O525 1.253 . S
C539 O527 1.260 . S
C540 O529 1.279 . S
C540 O530 1.250 . S
C541 O531 1.264 . S
C541 O535 1.248 . S
C542 O532 1.260 . S
C542 O536 1.253 . S
C543 O534 1.279 . S
C543 O537 1.250 . S
O544 Mg526 2.030 . S
O544 C538 1.248 . S
O545 Mg528 2.079 . S
O545 C538 1.264 . S
O546 Mg547 1.990 . S
O546 C560 1.253 . S
Mg547 O546 1.990 . S
Mg547 O550 2.180 . S
Mg547 O551 2.117 . S
Mg547 O565 2.030 1_655 S
O548 Mg549 2.072 . S
O548 C560 1.260 1_455 S
Mg549 O548 2.072 . S
Mg549 O550 2.099 1_455 S
Mg549 O552 2.079 . S
Mg549 O553 2.072 1_455 S
Mg549 O555 2.099 . S
Mg549 O566 2.079 . S
O550 Mg547 2.180 . S
O550 Mg549 2.099 1_655 S
O550 C561 1.279 . S
O551 Mg547 2.117 . S
O551 C561 1.250 . S
O552 Mg549 2.079 . S
O552 C562 1.264 . S
O553 Mg549 2.072 1_655 S
O553 C563 1.260 . S
Mg554 O555 2.180 . S
Mg554 O556 2.030 . S
Mg554 O557 1.990 . S
Mg554 O558 2.117 . S
O555 Mg549 2.099 . S
O555 Mg554 2.180 . S
O555 C564 1.279 . S
O556 Mg554 2.030 . S
O556 C562 1.248 . S
O557 Mg554 1.990 . S
O557 C563 1.253 1_455 S
O558 Mg554 2.117 . S
O558 C564 1.250 . S
C559 O565 1.248 . S
C559 O566 1.264 . S
C560 O546 1.253 . S
C560 O548 1.260 1_655 S
C561 O550 1.279 . S
C561 O551 1.250 . S
C562 O552 1.264 . S
C562 O556 1.248 . S
C563 O553 1.260 . S
C563 O557 1.253 1_655 S
C564 O555 1.279 . S
C564 O558 1.250 . S
O565 Mg547 2.030 1_455 S
O565 C559 1.248 . S
O566 Mg549 2.079 . S
O566 C559 1.264 . S
O567 Mg568 1.990 . S
O567 C581 1.253 . S
Mg568 O567 1.990 . S
Mg568 O571 2.180 . S
Mg568 O572 2.117 . S
Mg568 O586 2.030 . S
O569 Mg570 2.072 . S
O569 C581 1.260 . S
Mg570 O569 2.072 . S
Mg570 O571 2.099 . S
Mg570 O573 2.079 . S
Mg570 O574 2.072 . S
Mg570 O576 2.099 . S
Mg570 O587 2.079 . S
O571 Mg568 2.180 . S
O571 Mg570 2.099 . S
O571 C582 1.279 . S
O572 Mg568 2.117 . S
O572 C582 1.250 . S
O573 Mg570 2.079 . S
O573 C583 1.264 . S
O574 Mg570 2.072 . S
O574 C584 1.260 . S
Mg575 O576 2.180 . S
Mg575 O577 2.030 . S
Mg575 O578 1.990 . S
Mg575 O579 2.117 . S
O576 Mg570 2.099 . S
O576 Mg575 2.180 . S
O576 C585 1.279 . S
O577 Mg575 2.030 . S
O577 C583 1.248 . S
O578 Mg575 1.990 . S
O578 C584 1.253 . S
O579 Mg575 2.117 . S
O579 C585 1.250 . S
C580 O586 1.248 . S
C580 O587 1.264 . S
C581 O567 1.253 . S
C581 O569 1.260 . S
C582 O571 1.279 . S
C582 O572 1.250 . S
C583 O573 1.264 . S
C583 O577 1.248 . S
C584 O574 1.260 . S
C584 O578 1.253 . S
C585 O576 1.279 . S
C585 O579 1.250 . S
O586 Mg568 2.030 . S
O586 C580 1.248 . S
O587 Mg570 2.079 . S
O587 C580 1.264 . S
O588 Mg589 1.990 . S
O588 C602 1.253 . S
Mg589 O588 1.990 . S
Mg589 O592 2.180 . S
Mg589 O593 2.117 . S
Mg589 O607 2.030 . S
O590 Mg591 2.072 . S
O590 C602 1.260 . S
Mg591 O590 2.072 . S
Mg591 O592 2.099 . S
Mg591 O594 2.079 . S
Mg591 O595 2.072 . S
Mg591 O597 2.099 . S
Mg591 O608 2.079 . S
O592 Mg589 2.180 . S
O592 Mg591 2.099 . S
O592 C603 1.279 . S
O593 Mg589 2.117 . S
O593 C603 1.250 . S
O594 Mg591 2.079 . S
O594 C604 1.264 . S
O595 Mg591 2.072 . S
O595 C605 1.260 . S
Mg596 O597 2.180 . S
Mg596 O598 2.030 . S
Mg596 O599 1.990 . S
Mg596 O600 2.117 . S
O597 Mg591 2.099 . S
O597 Mg596 2.180 . S
O597 C606 1.279 . S
O598 Mg596 2.030 . S
O598 C604 1.248 . S
O599 Mg596 1.990 . S
O599 C605 1.253 . S
O600 Mg596 2.117 . S
O600 C606 1.250 . S
C601 O607 1.248 . S
C601 O608 1.264 . S
C602 O588 1.253 . S
C602 O590 1.260 . S
C603 O592 1.279 . S
C603 O593 1.250 . S
C604 O594 1.264 . S
C604 O598 1.248 . S
C605 O595 1.260 . S
C605 O599 1.253 . S
C606 O597 1.279 . S
C606 O600 1.250 . S
O607 Mg589 2.030 . S
O607 C601 1.248 . S
O608 Mg591 2.079 . S
O608 C601 1.264 . S
O609 Mg610 1.990 . S
O609 C623 1.253 . S
Mg610 O609 1.990 . S
Mg610 O613 2.180 . S
Mg610 O614 2.117 . S
Mg610 O628 2.030 . S
O611 Mg612 2.072 . S
O611 C623 1.260 . S
Mg612 O611 2.072 . S
Mg612 O613 2.099 . S
Mg612 O615 2.079 . S
Mg612 O616 2.072 . S
Mg612 O618 2.099 . S
Mg612 O629 2.079 . S
O613 Mg610 2.180 . S
O613 Mg612 2.099 . S
O613 C624 1.279 . S
O614 Mg610 2.117 . S
O614 C624 1.250 . S
O615 Mg612 2.079 . S
O615 C625 1.264 . S
O616 Mg612 2.072 . S
O616 C626 1.260 . S
Mg617 O618 2.180 . S
Mg617 O619 2.030 . S
Mg617 O620 1.990 . S
Mg617 O621 2.117 . S
O618 Mg612 2.099 . S
O618 Mg617 2.180 . S
O618 C627 1.279 . S
O619 Mg617 2.030 . S
O619 C625 1.248 . S
O620 Mg617 1.990 . S
O620 C626 1.253 . S
O621 Mg617 2.117 . S
O621 C627 1.250 . S
C622 O628 1.248 . S
C622 O629 1.264 . S
C623 O609 1.253 . S
C623 O611 1.260 . S
C624 O613 1.279 . S
C624 O614 1.250 . S
C625 O615 1.264 . S
C625 O619 1.248 . S
C626 O616 1.260 . S
C626 O620 1.253 . S
C627 O618 1.279 . S
C627 O621 1.250 . S
O628 Mg610 2.030 . S
O628 C622 1.248 . S
O629 Mg612 2.079 . S
O629 C622 1.264 . S
O630 Mg631 1.990 . S
O630 C644 1.253 . S
Mg631 O630 1.990 . S
Mg631 O634 2.180 . S
Mg631 O635 2.117 . S
Mg631 O649 2.030 . S
O632 Mg633 2.072 . S
O632 C644 1.260 . S
Mg633 O632 2.072 . S
Mg633 O634 2.099 . S
Mg633 O636 2.079 . S
Mg633 O637 2.072 . S
Mg633 O639 2.099 . S
Mg633 O650 2.079 . S
O634 Mg631 2.180 . S
O634 Mg633 2.099 . S
O634 C645 1.279 . S
O635 Mg631 2.117 . S
O635 C645 1.250 . S
O636 Mg633 2.079 . S
O636 C646 1.264 . S
O637 Mg633 2.072 . S
O637 C647 1.260 . S
Mg638 O639 2.180 . S
Mg638 O640 2.030 . S
Mg638 O641 1.990 . S
Mg638 O642 2.117 . S
O639 Mg633 2.099 . S
O639 Mg638 2.180 . S
O639 C648 1.279 . S
O640 Mg638 2.030 . S
O640 C646 1.248 . S
O641 Mg638 1.990 . S
O641 C647 1.253 . S
O642 Mg638 2.117 . S
O642 C648 1.250 . S
C643 O649 1.248 . S
C643 O650 1.264 . S
C644 O630 1.253 . S
C644 O632 1.260 . S
C645 O634 1.279 . S
C645 O635 1.250 . S
C646 O636 1.264 . S
C646 O640 1.248 . S
C647 O637 1.260 . S
C647 O641 1.253 . S
C648 O639 1.279 . S
C648 O642 1.250 . S
O649 Mg631 2.030 . S
O649 C643 1.248 . S
O650 Mg633 2.079 . S
O650 C643 1.264 . S
O651 Mg652 1.990 . S
O651 C665 1.253 . S
Mg652 O651 1.990 . S
Mg652 O655 2.180 1_556 S
Mg652 O656 2.117 1_556 S
Mg652 O670 2.030 . S
O653 Mg654 2.072 1_556 S
O653 C665 1.260 . S
Mg654 O653 2.072 1_554 S
Mg654 O655 2.099 . S
Mg654 O657 2.079 1_455 S
Mg654 O658 2.071 1_454 S
Mg654 O660 2.096 1_454 S
Mg654 O671 2.079 . S
O655 Mg652 2.180 1_554 S
O655 Mg654 2.099 . S
O655 C666 1.279 . S
O656 Mg652 2.117 1_554 S
O656 C666 1.250 . S
O657 Mg654 2.079 1_655 S
O657 C667 1.264 . S
O658 Mg654 2.071 1_656 S
O658 C668 1.261 . S
Mg659 O660 2.175 1_554 S
Mg659 O661 2.030 . S
Mg659 O662 1.990 1_554 S
Mg659 O663 2.117 1_554 S
O660 Mg654 2.096 1_656 S
O660 Mg659 2.175 1_556 S
O660 C669 1.290 . S
O661 Mg659 2.030 . S
O661 C667 1.248 . S
O662 Mg659 1.990 1_556 S
O662 C668 1.253 . S
O663 Mg659 2.117 1_556 S
O663 C669 1.250 . S
C664 O670 1.248 1_554 S
C664 O671 1.264 . S
C665 O651 1.253 . S
C665 O653 1.260 . S
C666 O655 1.279 . S
C666 O656 1.250 . S
C667 O657 1.264 . S
C667 O661 1.248 . S
C668 O658 1.261 . S
C668 O662 1.253 . S
C669 O660 1.290 . S
C669 O663 1.250 . S
O670 Mg652 2.030 . S
O670 C664 1.248 1_556 S
O671 Mg654 2.079 . S
O671 C664 1.264 . S
H672 C684 0.930 . S
H673 C686 0.930 . S
H674 C687 0.930 . S
H675 C691 0.959 . S
H676 C691 0.959 . S
H677 C691 0.961 . S
H678 C692 0.969 . S
H679 C692 0.975 1_556 S
H680 C692 0.916 1_455 S
H681 C695 0.929 . S
H682 C696 0.931 . S
H683 C698 0.930 . S
C684 H672 0.930 . S
C684 C685 1.399 1_655 S
C684 C689 1.399 . S
C685 C684 1.399 1_455 S
C685 C686 1.376 . S
C686 H673 0.930 . S
C686 C685 1.376 . S
C686 C687 1.388 . S
C687 H674 0.930 . S
C687 C686 1.388 . S
C687 C688 1.390 . S
C688 C687 1.390 . S
C688 C689 1.394 1_455 S
C688 C694 1.465 . S
C689 C684 1.399 . S
C689 C688 1.394 1_655 S
C689 C690 1.516 . S
C690 C689 1.516 . S
C690 C691 1.502 . S
C690 C692 1.581 . S
C690 C693 1.526 . S
C691 H675 0.959 . S
C691 H676 0.959 . S
C691 H677 0.961 . S
C691 C690 1.502 . S
C692 H678 0.969 . S
C692 H679 0.975 1_554 S
C692 H680 0.916 1_655 S
C692 C690 1.581 . S
C693 C690 1.526 . S
C693 C694 1.396 1_655 S
C693 C698 1.390 . S
C694 C688 1.465 . S
C694 C693 1.396 1_455 S
C694 C695 1.399 . S
C695 H681 0.929 . S
C695 C694 1.399 . S
C695 C696 1.385 . S
C696 H682 0.931 . S
C696 C695 1.385 . S
C696 C697 1.389 . S
C697 C696 1.389 . S
C697 C698 1.387 1_455 S
C698 H683 0.930 . S
C698 C693 1.390 . S
C698 C697 1.387 1_655 S
H699 C711 0.930 . S
H700 C713 0.930 . S
H701 C714 0.930 . S
H702 C718 0.959 . S
H703 C718 0.959 . S
H704 C718 0.961 . S
H705 C719 0.960 . S
H706 C719 0.961 . S
H707 C719 0.959 . S
H708 C722 0.929 . S
H709 C723 0.931 . S
H710 C725 0.930 . S
C711 H699 0.930 . S
C711 C712 1.399 . S
C711 C716 1.399 . S
C712 C711 1.399 . S
C712 C713 1.376 . S
C713 H700 0.930 . S
C713 C712 1.376 . S
C713 C714 1.388 . S
C714 H701 0.930 . S
C714 C713 1.388 . S
C714 C715 1.390 . S
C715 C714 1.390 . S
C715 C716 1.394 . S
C715 C721 1.465 . S
C716 C711 1.399 . S
C716 C715 1.394 . S
C716 C717 1.516 . S
C717 C716 1.516 . S
C717 C718 1.502 . S
C717 C719 1.561 . S
C717 C720 1.526 . S
C718 H702 0.959 . S
C718 H703 0.959 . S
C718 H704 0.961 . S
C718 C717 1.502 . S
C719 H705 0.960 . S
C719 H706 0.961 . S
C719 H707 0.959 . S
C719 C717 1.561 . S
C720 C717 1.526 . S
C720 C721 1.396 . S
C720 C725 1.390 . S
C721 C715 1.465 . S
C721 C720 1.396 . S
C721 C722 1.399 . S
C722 H708 0.929 . S
C722 C721 1.399 . S
C722 C723 1.385 . S
C723 H709 0.931 . S
C723 C722 1.385 . S
C723 C724 1.389 . S
C724 C723 1.389 . S
C724 C725 1.387 . S
C725 H710 0.930 . S
C725 C720 1.390 . S
C725 C724 1.387 . S
H726 C738 0.930 . S
H727 C740 0.930 . S
H728 C741 0.930 . S
H729 C745 0.959 . S
H730 C745 0.959 . S
H731 C745 0.961 . S
H732 C746 0.960 . S
H733 C746 0.961 . S
H734 C746 0.959 . S
H735 C749 0.929 . S
H736 C750 0.931 . S
H737 C752 0.930 . S
C738 H726 0.930 . S
C738 C739 1.399 . S
C738 C743 1.399 . S
C739 C738 1.399 . S
C739 C740 1.376 . S
C740 H727 0.930 . S
C740 C739 1.376 . S
C740 C741 1.388 . S
C741 H728 0.930 . S
C741 C740 1.388 . S
C741 C742 1.390 . S
C742 C741 1.390 . S
C742 C743 1.394 . S
C742 C748 1.465 . S
C743 C738 1.399 . S
C743 C742 1.394 . S
C743 C744 1.516 . S
C744 C743 1.516 . S
C744 C745 1.502 . S
C744 C746 1.561 . S
C744 C747 1.526 . S
C745 H729 0.959 . S
C745 H730 0.959 . S
C745 H731 0.961 . S
C745 C744 1.502 . S
C746 H732 0.960 . S
C746 H733 0.961 . S
C746 H734 0.959 . S
C746 C744 1.561 . S
C747 C744 1.526 . S
C747 C748 1.396 . S
C747 C752 1.390 . S
C748 C742 1.465 . S
C748 C747 1.396 . S
C748 C749 1.399 . S
C749 H735 0.929 . S
C749 C748 1.399 . S
C749 C750 1.385 . S
C750 H736 0.931 . S
C750 C749 1.385 . S
C750 C751 1.389 . S
C751 C750 1.389 . S
C751 C752 1.387 . S
C752 H737 0.930 . S
C752 C747 1.390 . S
C752 C751 1.387 . S
H753 C765 0.930 . S
H754 C767 0.930 . S
H755 C768 0.930 . S
H756 C772 0.959 . S
H757 C772 0.959 . S
H758 C772 0.961 . S
H759 C773 0.960 . S
H760 C773 0.961 . S
H761 C773 0.959 . S
H762 C776 0.929 . S
H763 C777 0.931 . S
H764 C779 0.930 . S
C765 H753 0.930 . S
C765 C766 1.399 . S
C765 C770 1.399 . S
C766 C765 1.399 . S
C766 C767 1.376 . S
C767 H754 0.930 . S
C767 C766 1.376 . S
C767 C768 1.388 . S
C768 H755 0.930 . S
C768 C767 1.388 . S
C768 C769 1.390 . S
C769 C768 1.390 . S
C769 C770 1.394 . S
C769 C775 1.465 . S
C770 C765 1.399 . S
C770 C769 1.394 . S
C770 C771 1.516 . S
C771 C770 1.516 . S
C771 C772 1.502 . S
C771 C773 1.561 . S
C771 C774 1.526 . S
C772 H756 0.959 . S
C772 H757 0.959 . S
C772 H758 0.961 . S
C772 C771 1.502 . S
C773 H759 0.960 . S
C773 H760 0.961 . S
C773 H761 0.959 . S
C773 C771 1.561 . S
C774 C771 1.526 . S
C774 C775 1.396 . S
C774 C779 1.390 . S
C775 C769 1.465 . S
C775 C774 1.396 . S
C775 C776 1.399 . S
C776 H762 0.929 . S
C776 C775 1.399 . S
C776 C777 1.385 . S
C777 H763 0.931 . S
C777 C776 1.385 . S
C777 C778 1.389 . S
C778 C777 1.389 . S
C778 C779 1.387 . S
C779 H764 0.930 . S
C779 C774 1.390 . S
C779 C778 1.387 . S
H780 C792 0.930 . S
H781 C794 0.930 . S
H782 C795 0.930 . S
H783 C799 0.959 . S
H784 C799 0.959 . S
H785 C799 0.961 . S
H786 C800 0.960 . S
H787 C800 0.961 . S
H788 C800 0.959 . S
H789 C803 0.929 . S
H790 C804 0.931 . S
H791 C806 0.930 . S
C792 H780 0.930 . S
C792 C793 1.399 1_655 S
C792 C797 1.398 1_655 S
C793 C792 1.399 1_455 S
C793 C794 1.376 . S
C794 H781 0.930 . S
C794 C793 1.376 . S
C794 C795 1.388 . S
C795 H782 0.930 . S
C795 C794 1.388 . S
C795 C796 1.390 . S
C796 C795 1.390 . S
C796 C797 1.401 . S
C796 C802 1.465 . S
C797 C792 1.398 1_455 S
C797 C796 1.401 . S
C797 C798 1.511 1_455 S
C798 C797 1.511 1_655 S
C798 C799 1.502 . S
C798 C800 1.561 1_655 S
C798 C801 1.526 . S
C799 H783 0.959 . S
C799 H784 0.959 . S
C799 H785 0.961 . S
C799 C798 1.502 . S
C800 H786 0.960 . S
C800 H787 0.961 . S
C800 H788 0.959 . S
C800 C798 1.561 1_455 S
C801 C798 1.526 . S
C801 C802 1.396 1_655 S
C801 C806 1.390 . S
C802 C796 1.465 . S
C802 C801 1.396 1_455 S
C802 C803 1.399 . S
C803 H789 0.929 . S
C803 C802 1.399 . S
C803 C804 1.385 . S
C804 H790 0.931 . S
C804 C803 1.385 . S
C804 C805 1.407 . S
C805 C804 1.407 . S
C805 C806 1.377 1_455 S
C806 H791 0.930 . S
C806 C801 1.390 . S
C806 C805 1.377 1_655 S
H807 C819 0.930 . S
H808 C821 0.930 . S
H809 C822 0.930 . S
H810 C826 0.959 . S
H811 C826 0.959 . S
H812 C826 0.961 . S
H813 C827 0.960 . S
H814 C827 0.961 . S
H815 C827 0.959 . S
H816 C830 0.929 . S
H817 C831 0.931 . S
H818 C833 0.930 . S
C819 H807 0.930 . S
C819 C820 1.399 . S
C819 C824 1.399 . S
C820 C819 1.399 . S
C820 C821 1.376 . S
C821 H808 0.930 . S
C821 C820 1.376 . S
C821 C822 1.388 . S
C822 H809 0.930 . S
C822 C821 1.388 . S
C822 C823 1.390 . S
C823 C822 1.390 . S
C823 C824 1.394 . S
C823 C829 1.465 . S
C824 C819 1.399 . S
C824 C823 1.394 . S
C824 C825 1.516 . S
C825 C824 1.516 . S
C825 C826 1.502 . S
C825 C827 1.561 . S
C825 C828 1.526 . S
C826 H810 0.959 . S
C826 H811 0.959 . S
C826 H812 0.961 . S
C826 C825 1.502 . S
C827 H813 0.960 . S
C827 H814 0.961 . S
C827 H815 0.959 . S
C827 C825 1.561 . S
C828 C825 1.526 . S
C828 C829 1.396 . S
C828 C833 1.390 . S
C829 C823 1.465 . S
C829 C828 1.396 . S
C829 C830 1.399 . S
C830 H816 0.929 . S
C830 C829 1.399 . S
C830 C831 1.385 . S
C831 H817 0.931 . S
C831 C830 1.385 . S
C831 C832 1.389 . S
C832 C831 1.389 . S
C832 C833 1.387 . S
C833 H818 0.930 . S
C833 C828 1.390 . S
C833 C832 1.387 . S
H834 C846 0.930 . S
H835 C848 0.930 . S
H836 C849 0.930 . S
H837 C853 0.959 . S
H838 C853 0.959 . S
H839 C853 0.961 . S
H840 C854 0.960 . S
H841 C854 0.961 . S
H842 C854 0.959 . S
H843 C857 0.929 . S
H844 C858 0.931 1_554 S
H845 C860 0.930 . S
C846 H834 0.930 . S
C846 C847 1.399 . S
C846 C851 1.399 . S
C847 C846 1.399 . S
C847 C848 1.376 . S
C848 H835 0.930 . S
C848 C847 1.376 . S
C848 C849 1.388 . S
C849 H836 0.930 . S
C849 C848 1.388 . S
C849 C850 1.390 . S
C850 C849 1.390 . S
C850 C851 1.394 . S
C850 C856 1.465 . S
C851 C846 1.399 . S
C851 C850 1.394 . S
C851 C852 1.516 . S
C852 C851 1.516 . S
C852 C853 1.502 . S
C852 C854 1.561 . S
C852 C855 1.526 . S
C853 H837 0.959 . S
C853 H838 0.959 . S
C853 H839 0.961 . S
C853 C852 1.502 . S
C854 H840 0.960 . S
C854 H841 0.961 . S
C854 H842 0.959 . S
C854 C852 1.561 . S
C855 C852 1.526 . S
C855 C856 1.396 . S
C855 C860 1.390 . S
C856 C850 1.465 . S
C856 C855 1.396 . S
C856 C857 1.399 . S
C857 H843 0.929 . S
C857 C856 1.399 . S
C857 C858 1.385 . S
C858 H844 0.931 1_556 S
C858 C857 1.385 . S
C858 C859 1.389 . S
C859 C858 1.389 . S
C859 C860 1.387 . S
C860 H845 0.930 . S
C860 C855 1.390 . S
C860 C859 1.387 . S
H861 C873 0.930 . S
H862 C875 0.930 . S
H863 C876 0.930 . S
H864 C880 0.959 . S
H865 C880 0.959 . S
H866 C880 0.961 . S
H867 C881 0.960 . S
H868 C881 0.961 . S
H869 C881 0.959 . S
H870 C884 0.929 . S
H871 C885 0.931 . S
H872 C887 0.930 . S
C873 H861 0.930 . S
C873 C874 1.399 . S
C873 C878 1.399 . S
C874 C873 1.399 . S
C874 C875 1.376 . S
C875 H862 0.930 . S
C875 C874 1.376 . S
C875 C876 1.388 . S
C876 H863 0.930 . S
C876 C875 1.388 . S
C876 C877 1.390 . S
C877 C876 1.390 . S
C877 C878 1.394 . S
C877 C883 1.465 . S
C878 C873 1.399 . S
C878 C877 1.394 . S
C878 C879 1.516 . S
C879 C878 1.516 . S
C879 C880 1.502 . S
C879 C881 1.561 . S
C879 C882 1.526 . S
C880 H864 0.959 . S
C880 H865 0.959 . S
C880 H866 0.961 . S
C880 C879 1.502 . S
C881 H867 0.960 . S
C881 H868 0.961 . S
C881 H869 0.959 . S
C881 C879 1.561 . S
C882 C879 1.526 . S
C882 C883 1.396 . S
C882 C887 1.390 . S
C883 C877 1.465 . S
C883 C882 1.396 . S
C883 C884 1.399 . S
C884 H870 0.929 . S
C884 C883 1.399 . S
C884 C885 1.385 . S
C885 H871 0.931 . S
C885 C884 1.385 . S
C885 C886 1.389 . S
C886 C885 1.389 . S
C886 C887 1.387 . S
C887 H872 0.930 . S
C887 C882 1.390 . S
C887 C886 1.387 . S
H888 C900 0.930 . S
H889 C902 0.930 . S
H890 C903 0.930 . S
H891 C907 0.959 . S
H892 C907 0.959 . S
H893 C907 0.961 . S
H894 C908 0.960 . S
H895 C908 0.961 . S
H896 C908 0.959 . S
H897 C911 0.929 . S
H898 C912 0.931 . S
H899 C914 0.930 . S
C900 H888 0.930 . S
C900 C901 1.396 . S
C900 C905 1.399 . S
C901 C900 1.396 . S
C901 C902 1.381 1_545 S
C902 H889 0.930 . S
C902 C901 1.381 1_565 S
C902 C903 1.388 . S
C903 H890 0.930 . S
C903 C902 1.388 . S
C903 C904 1.390 . S
C904 C903 1.390 . S
C904 C905 1.394 1_565 S
C904 C910 1.465 . S
C905 C900 1.399 . S
C905 C904 1.394 1_545 S
C905 C906 1.516 . S
C906 C905 1.516 . S
C906 C907 1.502 . S
C906 C908 1.561 . S
C906 C909 1.526 . S
C907 H891 0.959 . S
C907 H892 0.959 . S
C907 H893 0.961 . S
C907 C906 1.502 . S
C908 H894 0.960 . S
C908 H895 0.961 . S
C908 H896 0.959 . S
C908 C906 1.561 . S
C909 C906 1.526 . S
C909 C910 1.396 1_545 S
C909 C914 1.390 . S
C910 C904 1.465 . S
C910 C909 1.396 1_565 S
C910 C911 1.399 . S
C911 H897 0.929 . S
C911 C910 1.399 . S
C911 C912 1.385 . S
C912 H898 0.931 . S
C912 C911 1.385 . S
C912 C913 1.389 . S
C913 C912 1.389 . S
C913 C914 1.387 1_565 S
C914 H899 0.930 . S
C914 C909 1.390 . S
C914 C913 1.387 1_545 S
H915 C927 0.930 . S
H916 C929 0.930 . S
H917 C930 0.930 . S
H918 C934 0.959 . S
H919 C934 0.959 . S
H920 C934 0.961 . S
H921 C935 0.960 . S
H922 C935 0.961 . S
H923 C935 0.959 . S
H924 C938 0.929 . S
H925 C939 0.931 . S
H926 C941 0.930 . S
C927 H915 0.930 . S
C927 C928 1.399 . S
C927 C932 1.399 . S
C928 C927 1.399 . S
C928 C929 1.376 . S
C929 H916 0.930 . S
C929 C928 1.376 . S
C929 C930 1.388 . S
C930 H917 0.930 . S
C930 C929 1.388 . S
C930 C931 1.390 . S
C931 C930 1.390 . S
C931 C932 1.394 . S
C931 C937 1.465 . S
C932 C927 1.399 . S
C932 C931 1.394 . S
C932 C933 1.516 . S
C933 C932 1.516 . S
C933 C934 1.502 . S
C933 C935 1.561 . S
C933 C936 1.526 . S
C934 H918 0.959 . S
C934 H919 0.959 . S
C934 H920 0.961 . S
C934 C933 1.502 . S
C935 H921 0.960 . S
C935 H922 0.961 . S
C935 H923 0.959 . S
C935 C933 1.561 . S
C936 C933 1.526 . S
C936 C937 1.396 . S
C936 C941 1.390 . S
C937 C931 1.465 . S
C937 C936 1.396 . S
C937 C938 1.399 . S
C938 H924 0.929 . S
C938 C937 1.399 . S
C938 C939 1.385 . S
C939 H925 0.931 . S
C939 C938 1.385 . S
C939 C940 1.389 . S
C940 C939 1.389 . S
C940 C941 1.387 . S
C941 H926 0.930 . S
C941 C936 1.390 . S
C941 C940 1.387 . S
H942 C954 0.930 . S
H943 C956 0.930 . S
H944 C957 0.930 . S
H945 C961 0.959 . S
H946 C961 0.959 . S
H947 C961 0.961 . S
H948 C962 0.960 . S
H949 C962 0.961 . S
H950 C962 0.959 . S
H951 C965 0.929 . S
H952 C966 0.931 . S
H953 C968 0.930 . S
C954 H942 0.930 . S
C954 C955 1.399 . S
C954 C959 1.399 . S
C955 C954 1.399 . S
C955 C956 1.376 1_545 S
C956 H943 0.930 . S
C956 C955 1.376 1_565 S
C956 C957 1.388 . S
C957 H944 0.930 . S
C957 C956 1.388 . S
C957 C958 1.390 1_565 S
C958 C957 1.390 1_545 S
C958 C959 1.394 . S
C958 C964 1.465 . S
C959 C954 1.399 . S
C959 C958 1.394 . S
C959 C960 1.516 . S
C960 C959 1.516 . S
C960 C961 1.502 . S
C960 C962 1.561 . S
C960 C963 1.526 . S
C961 H945 0.959 . S
C961 H946 0.959 . S
C961 H947 0.961 . S
C961 C960 1.502 . S
C962 H948 0.960 . S
C962 H949 0.961 . S
C962 H950 0.959 . S
C962 C960 1.561 . S
C963 C960 1.526 . S
C963 C964 1.396 . S
C963 C968 1.390 . S
C964 C958 1.465 . S
C964 C963 1.396 . S
C964 C965 1.399 1_545 S
C965 H951 0.929 . S
C965 C964 1.399 1_565 S
C965 C966 1.385 . S
C966 H952 0.931 . S
C966 C965 1.385 . S
C966 C967 1.389 1_565 S
C967 C966 1.389 1_545 S
C967 C968 1.387 . S
C968 H953 0.930 . S
C968 C963 1.390 . S
C968 C967 1.387 . S
H969 C981 0.930 . S
H970 C983 0.930 . S
H971 C984 0.930 . S
H972 C988 0.959 . S
H973 C988 0.959 . S
H974 C988 0.961 . S
H975 C989 0.960 . S
H976 C989 0.961 . S
H977 C989 0.959 . S
H978 C992 0.929 . S
H979 C993 0.931 . S
H980 C995 0.930 . S
C981 H969 0.930 . S
C981 C982 1.399 . S
C981 C986 1.399 . S
C982 C981 1.399 . S
C982 C983 1.376 . S
C983 H970 0.930 . S
C983 C982 1.376 . S
C983 C984 1.388 . S
C984 H971 0.930 . S
C984 C983 1.388 . S
C984 C985 1.390 . S
C985 C984 1.390 . S
C985 C986 1.394 . S
C985 C991 1.465 . S
C986 C981 1.399 . S
C986 C985 1.394 . S
C986 C987 1.516 . S
C987 C986 1.516 . S
C987 C988 1.502 . S
C987 C989 1.561 . S
C987 C990 1.526 . S
C988 H972 0.959 . S
C988 H973 0.959 . S
C988 H974 0.961 . S
C988 C987 1.502 . S
C989 H975 0.960 . S
C989 H976 0.961 . S
C989 H977 0.959 . S
C989 C987 1.561 . S
C990 C987 1.526 . S
C990 C991 1.396 . S
C990 C995 1.390 . S
C991 C985 1.465 . S
C991 C990 1.396 . S
C991 C992 1.399 . S
C992 H978 0.929 . S
C992 C991 1.399 . S
C992 C993 1.385 . S
C993 H979 0.931 . S
C993 C992 1.385 . S
C993 C994 1.389 . S
C994 C993 1.389 . S
C994 C995 1.387 . S
C995 H980 0.930 . S
C995 C990 1.390 . S
C995 C994 1.387 . S
H996 C1008 0.930 . S
H997 C1010 0.930 . S
H998 C1011 0.930 . S
H999 C1015 0.959 . S
H1000 C1015 0.959 . S
H1001 C1015 0.961 . S
H1002 C1016 0.960 . S
H1003 C1016 0.961 . S
H1004 C1016 0.959 . S
H1005 C1019 0.929 . S
H1006 C1020 0.931 . S
H1007 C1022 0.930 . S
C1008 H996 0.930 . S
C1008 C1009 1.399 . S
C1008 C1013 1.399 . S
C1009 C1008 1.399 . S
C1009 C1010 1.376 1_545 S
C1010 H997 0.930 . S
C1010 C1009 1.376 1_565 S
C1010 C1011 1.388 . S
C1011 H998 0.930 . S
C1011 C1010 1.388 . S
C1011 C1012 1.390 . S
C1012 C1011 1.390 . S
C1012 C1013 1.394 1_565 S
C1012 C1018 1.465 . S
C1013 C1008 1.399 . S
C1013 C1012 1.394 1_545 S
C1013 C1014 1.516 . S
C1014 C1013 1.516 . S
C1014 C1015 1.502 . S
C1014 C1016 1.561 . S
C1014 C1017 1.526 . S
C1015 H999 0.959 . S
C1015 H1000 0.959 . S
C1015 H1001 0.961 . S
C1015 C1014 1.502 . S
C1016 H1002 0.960 . S
C1016 H1003 0.961 . S
C1016 H1004 0.959 . S
C1016 C1014 1.561 . S
C1017 C1014 1.526 . S
C1017 C1018 1.396 1_545 S
C1017 C1022 1.390 . S
C1018 C1012 1.465 . S
C1018 C1017 1.396 1_565 S
C1018 C1019 1.399 . S
C1019 H1005 0.929 . S
C1019 C1018 1.399 . S
C1019 C1020 1.385 . S
C1020 H1006 0.931 . S
C1020 C1019 1.385 . S
C1020 C1021 1.389 1_565 S
C1021 C1020 1.389 1_545 S
C1021 C1022 1.387 . S
C1022 H1007 0.930 . S
C1022 C1017 1.390 . S
C1022 C1021 1.387 . S
H1023 C1035 0.930 . S
H1024 C1037 0.930 . S
H1025 C1038 0.930 . S
H1026 C1042 0.959 . S
H1027 C1042 0.959 . S
H1028 C1042 0.961 . S
H1029 C1043 0.960 . S
H1030 C1043 0.961 . S
H1031 C1043 0.959 . S
H1032 C1046 0.929 . S
H1033 C1047 0.931 . S
H1034 C1049 0.930 . S
C1035 H1023 0.930 . S
C1035 C1036 1.399 . S
C1035 C1040 1.399 . S
C1036 C1035 1.399 . S
C1036 C1037 1.376 . S
C1037 H1024 0.930 . S
C1037 C1036 1.376 . S
C1037 C1038 1.388 . S
C1038 H1025 0.930 . S
C1038 C1037 1.388 . S
C1038 C1039 1.390 . S
C1039 C1038 1.390 . S
C1039 C1040 1.394 . S
C1039 C1045 1.465 . S
C1040 C1035 1.399 . S
C1040 C1039 1.394 . S
C1040 C1041 1.516 . S
C1041 C1040 1.516 . S
C1041 C1042 1.502 . S
C1041 C1043 1.561 . S
C1041 C1044 1.526 . S
C1042 H1026 0.959 . S
C1042 H1027 0.959 . S
C1042 H1028 0.961 . S
C1042 C1041 1.502 . S
C1043 H1029 0.960 . S
C1043 H1030 0.961 . S
C1043 H1031 0.959 . S
C1043 C1041 1.561 . S
C1044 C1041 1.526 . S
C1044 C1045 1.396 . S
C1044 C1049 1.390 . S
C1045 C1039 1.465 . S
C1045 C1044 1.396 . S
C1045 C1046 1.399 . S
C1046 H1032 0.929 . S
C1046 C1045 1.399 . S
C1046 C1047 1.385 . S
C1047 H1033 0.931 . S
C1047 C1046 1.385 . S
C1047 C1048 1.389 . S
C1048 C1047 1.389 . S
C1048 C1049 1.387 . S
C1049 H1034 0.930 . S
C1049 C1044 1.390 . S
C1049 C1048 1.387 . S
H1050 C1062 0.930 . S
H1051 C1064 0.930 . S
H1052 C1065 0.930 . S
H1053 C1069 0.959 . S
H1054 C1069 0.959 . S
H1055 C1069 0.961 . S
H1056 C1070 0.960 . S
H1057 C1070 0.961 . S
H1058 C1070 0.959 1_565 S
H1059 C1073 0.929 . S
H1060 C1074 0.931 . S
H1061 C1076 0.930 . S
C1062 H1050 0.930 . S
C1062 C1063 1.418 . S
C1062 C1067 1.399 . S
C1063 C1062 1.418 . S
C1063 C1064 1.350 1_545 S
C1064 H1051 0.930 . S
C1064 C1063 1.350 1_565 S
C1064 C1065 1.388 . S
C1065 H1052 0.930 . S
C1065 C1064 1.388 . S
C1065 C1066 1.390 . S
C1066 C1065 1.390 . S
C1066 C1067 1.394 1_565 S
C1066 C1072 1.465 . S
C1067 C1062 1.399 . S
C1067 C1066 1.394 1_545 S
C1067 C1068 1.516 . S
C1068 C1067 1.516 . S
C1068 C1069 1.502 . S
C1068 C1070 1.561 . S
C1068 C1071 1.526 . S
C1069 H1053 0.959 . S
C1069 H1054 0.959 . S
C1069 H1055 0.961 . S
C1069 C1068 1.502 . S
C1070 H1056 0.960 . S
C1070 H1057 0.961 . S
C1070 H1058 0.959 1_545 S
C1070 C1068 1.561 . S
C1071 C1068 1.526 . S
C1071 C1072 1.396 1_545 S
C1071 C1076 1.390 . S
C1072 C1066 1.465 . S
C1072 C1071 1.396 1_565 S
C1072 C1073 1.399 . S
C1073 H1059 0.929 . S
C1073 C1072 1.399 . S
C1073 C1074 1.385 . S
C1074 H1060 0.931 . S
C1074 C1073 1.385 . S
C1074 C1075 1.389 . S
C1075 C1074 1.389 . S
C1075 C1076 1.387 1_565 S
C1076 H1061 0.930 . S
C1076 C1071 1.390 . S
C1076 C1075 1.387 1_545 S
H1077 C1089 0.930 . S
H1078 C1091 0.930 . S
H1079 C1092 0.930 . S
H1080 C1096 0.959 . S
H1081 C1096 0.959 . S
H1082 C1096 0.961 . S
H1083 C1097 0.960 . S
H1084 C1097 0.961 . S
H1085 C1097 0.959 . S
H1086 C1100 0.929 . S
H1087 C1101 0.931 . S
H1088 C1103 0.930 . S
C1089 H1077 0.930 . S
C1089 C1090 1.399 . S
C1089 C1094 1.399 . S
C1090 C1089 1.399 . S
C1090 C1091 1.376 . S
C1091 H1078 0.930 . S
C1091 C1090 1.376 . S
C1091 C1092 1.388 . S
C1092 H1079 0.930 . S
C1092 C1091 1.388 . S
C1092 C1093 1.390 . S
C1093 C1092 1.390 . S
C1093 C1094 1.394 . S
C1093 C1099 1.465 . S
C1094 C1089 1.399 . S
C1094 C1093 1.394 . S
C1094 C1095 1.516 . S
C1095 C1094 1.516 . S
C1095 C1096 1.502 . S
C1095 C1097 1.561 . S
C1095 C1098 1.526 . S
C1096 H1080 0.959 . S
C1096 H1081 0.959 . S
C1096 H1082 0.961 . S
C1096 C1095 1.502 . S
C1097 H1083 0.960 . S
C1097 H1084 0.961 . S
C1097 H1085 0.959 . S
C1097 C1095 1.561 . S
C1098 C1095 1.526 . S
C1098 C1099 1.396 . S
C1098 C1103 1.390 . S
C1099 C1093 1.465 . S
C1099 C1098 1.396 . S
C1099 C1100 1.399 . S
C1100 H1086 0.929 . S
C1100 C1099 1.399 . S
C1100 C1101 1.385 . S
C1101 H1087 0.931 . S
C1101 C1100 1.385 . S
C1101 C1102 1.389 . S
C1102 C1101 1.389 . S
C1102 C1103 1.387 . S
C1103 H1088 0.930 . S
C1103 C1098 1.390 . S
C1103 C1102 1.387 . S
H1104 C1116 0.930 . S
H1105 C1118 0.930 . S
H1106 C1119 0.930 . S
H1107 C1123 0.959 . S
H1108 C1123 0.959 . S
H1109 C1123 0.961 . S
H1110 C1124 0.960 . S
H1111 C1124 0.961 . S
H1112 C1124 0.959 . S
H1113 C1127 0.929 . S
H1114 C1128 0.931 . S
H1115 C1130 0.930 . S
C1116 H1104 0.930 . S
C1116 C1117 1.399 1_556 S
C1116 C1121 1.399 . S
C1117 C1116 1.399 1_554 S
C1117 C1118 1.376 . S
C1118 H1105 0.930 . S
C1118 C1117 1.376 . S
C1118 C1119 1.388 . S
C1119 H1106 0.930 . S
C1119 C1118 1.388 . S
C1119 C1120 1.390 . S
C1120 C1119 1.390 . S
C1120 C1121 1.394 1_554 S
C1120 C1126 1.465 . S
C1121 C1116 1.399 . S
C1121 C1120 1.394 1_556 S
C1121 C1122 1.516 . S
C1122 C1121 1.516 . S
C1122 C1123 1.502 . S
C1122 C1124 1.561 . S
C1122 C1125 1.526 . S
C1123 H1107 0.959 . S
C1123 H1108 0.959 . S
C1123 H1109 0.961 . S
C1123 C1122 1.502 . S
C1124 H1110 0.960 . S
C1124 H1111 0.961 . S
C1124 H1112 0.959 . S
C1124 C1122 1.561 . S
C1125 C1122 1.526 . S
C1125 C1126 1.396 1_556 S
C1125 C1130 1.390 . S
C1126 C1120 1.465 . S
C1126 C1125 1.396 1_554 S
C1126 C1127 1.399 . S
C1127 H1113 0.929 . S
C1127 C1126 1.399 . S
C1127 C1128 1.385 . S
C1128 H1114 0.931 . S
C1128 C1127 1.385 . S
C1128 C1129 1.388 1_554 S
C1129 C1128 1.388 1_556 S
C1129 C1130 1.388 . S
C1130 H1115 0.930 . S
C1130 C1125 1.390 . S
C1130 C1129 1.388 . S
H1131 C1143 0.930 . S
H1132 C1145 0.930 . S
H1133 C1146 0.930 . S
H1134 C1150 0.959 . S
H1135 C1150 0.959 . S
H1136 C1150 0.961 . S
H1137 C1151 0.960 . S
H1138 C1151 0.961 . S
H1139 C1151 0.959 . S
H1140 C1154 0.929 . S
H1141 C1155 0.931 . S
H1142 C1157 0.930 . S
C1143 H1131 0.930 . S
C1143 C1144 1.399 . S
C1143 C1148 1.399 . S
C1144 C1143 1.399 . S
C1144 C1145 1.376 1_554 S
C1145 H1132 0.930 . S
C1145 C1144 1.376 1_556 S
C1145 C1146 1.388 . S
C1146 H1133 0.930 . S
C1146 C1145 1.388 . S
C1146 C1147 1.390 . S
C1147 C1146 1.390 . S
C1147 C1148 1.394 1_556 S
C1147 C1153 1.466 . S
C1148 C1143 1.399 . S
C1148 C1147 1.394 1_554 S
C1148 C1149 1.516 . S
C1149 C1148 1.516 . S
C1149 C1150 1.502 . S
C1149 C1151 1.561 . S
C1149 C1152 1.526 . S
C1150 H1134 0.959 . S
C1150 H1135 0.959 . S
C1150 H1136 0.961 . S
C1150 C1149 1.502 . S
C1151 H1137 0.960 . S
C1151 H1138 0.961 . S
C1151 H1139 0.959 . S
C1151 C1149 1.561 . S
C1152 C1149 1.526 . S
C1152 C1153 1.384 1_554 S
C1152 C1157 1.390 . S
C1153 C1147 1.466 . S
C1153 C1152 1.384 1_556 S
C1153 C1154 1.408 . S
C1154 H1140 0.929 . S
C1154 C1153 1.408 . S
C1154 C1155 1.385 . S
C1155 H1141 0.931 . S
C1155 C1154 1.385 . S
C1155 C1156 1.389 1_556 S
C1156 C1155 1.389 1_554 S
C1156 C1157 1.387 . S
C1157 H1142 0.930 . S
C1157 C1152 1.390 . S
C1157 C1156 1.387 . S
H1158 C1170 0.930 . S
H1159 C1172 0.930 . S
H1160 C1173 0.930 . S
H1161 C1177 0.959 . S
H1162 C1177 0.959 . S
H1163 C1177 0.961 . S
H1164 C1178 0.960 . S
H1165 C1178 0.961 . S
H1166 C1178 0.959 . S
H1167 C1181 0.929 . S
H1168 C1182 0.931 . S
H1169 C1184 0.930 . S
C1170 H1158 0.930 . S
C1170 C1171 1.399 . S
C1170 C1175 1.399 . S
C1171 C1170 1.399 . S
C1171 C1172 1.376 . S
C1172 H1159 0.930 . S
C1172 C1171 1.376 . S
C1172 C1173 1.388 . S
C1173 H1160 0.930 . S
C1173 C1172 1.388 . S
C1173 C1174 1.390 . S
C1174 C1173 1.390 . S
C1174 C1175 1.394 . S
C1174 C1180 1.465 . S
C1175 C1170 1.399 . S
C1175 C1174 1.394 . S
C1175 C1176 1.516 . S
C1176 C1175 1.516 . S
C1176 C1177 1.502 . S
C1176 C1178 1.561 . S
C1176 C1179 1.526 . S
C1177 H1161 0.959 . S
C1177 H1162 0.959 . S
C1177 H1163 0.961 . S
C1177 C1176 1.502 . S
C1178 H1164 0.960 . S
C1178 H1165 0.961 . S
C1178 H1166 0.959 . S
C1178 C1176 1.561 . S
C1179 C1176 1.526 . S
C1179 C1180 1.396 . S
C1179 C1184 1.390 . S
C1180 C1174 1.465 . S
C1180 C1179 1.396 . S
C1180 C1181 1.399 . S
C1181 H1167 0.929 . S
C1181 C1180 1.399 . S
C1181 C1182 1.385 . S
C1182 H1168 0.931 . S
C1182 C1181 1.385 . S
C1182 C1183 1.389 . S
C1183 C1182 1.389 . S
C1183 C1184 1.387 . S
C1184 H1169 0.930 . S
C1184 C1179 1.390 . S
C1184 C1183 1.387 . S
H1185 C1197 0.930 . S
H1186 C1199 0.930 . S
H1187 C1200 0.930 . S
H1188 C1204 0.959 . S
H1189 C1204 0.959 . S
H1190 C1204 0.961 . S
H1191 C1205 0.960 . S
H1192 C1205 0.961 . S
H1193 C1205 0.959 . S
H1194 C1208 0.929 . S
H1195 C1209 0.931 . S
H1196 C1211 0.930 . S
C1197 H1185 0.930 . S
C1197 C1198 1.399 . S
C1197 C1202 1.399 . S
C1198 C1197 1.399 . S
C1198 C1199 1.376 . S
C1199 H1186 0.930 . S
C1199 C1198 1.376 . S
C1199 C1200 1.388 . S
C1200 H1187 0.930 . S
C1200 C1199 1.388 . S
C1200 C1201 1.390 . S
C1201 C1200 1.390 . S
C1201 C1202 1.394 . S
C1201 C1207 1.465 . S
C1202 C1197 1.399 . S
C1202 C1201 1.394 . S
C1202 C1203 1.516 . S
C1203 C1202 1.516 . S
C1203 C1204 1.502 . S
C1203 C1205 1.561 . S
C1203 C1206 1.526 . S
C1204 H1188 0.959 . S
C1204 H1189 0.959 . S
C1204 H1190 0.961 . S
C1204 C1203 1.502 . S
C1205 H1191 0.960 . S
C1205 H1192 0.961 . S
C1205 H1193 0.959 . S
C1205 C1203 1.561 . S
C1206 C1203 1.526 . S
C1206 C1207 1.396 . S
C1206 C1211 1.390 . S
C1207 C1201 1.465 . S
C1207 C1206 1.396 . S
C1207 C1208 1.399 . S
C1208 H1194 0.929 . S
C1208 C1207 1.399 . S
C1208 C1209 1.385 . S
C1209 H1195 0.931 . S
C1209 C1208 1.385 . S
C1209 C1210 1.389 . S
C1210 C1209 1.389 . S
C1210 C1211 1.387 . S
C1211 H1196 0.930 . S
C1211 C1206 1.390 . S
C1211 C1210 1.387 . S
H1212 C1224 0.930 . S
H1213 C1226 0.930 . S
H1214 C1227 0.930 . S
H1215 C1231 0.959 . S
H1216 C1231 0.959 . S
H1217 C1231 0.961 . S
H1218 C1232 0.960 . S
H1219 C1232 0.961 . S
H1220 C1232 0.959 . S
H1221 C1235 0.929 . S
H1222 C1236 0.931 . S
H1223 C1238 0.930 . S
C1224 H1212 0.930 . S
C1224 C1225 1.399 . S
C1224 C1229 1.399 . S
C1225 C1224 1.399 . S
C1225 C1226 1.376 . S
C1226 H1213 0.930 . S
C1226 C1225 1.376 . S
C1226 C1227 1.388 . S
C1227 H1214 0.930 . S
C1227 C1226 1.388 . S
C1227 C1228 1.390 . S
C1228 C1227 1.390 . S
C1228 C1229 1.394 . S
C1228 C1234 1.465 . S
C1229 C1224 1.399 . S
C1229 C1228 1.394 . S
C1229 C1230 1.516 . S
C1230 C1229 1.516 . S
C1230 C1231 1.502 . S
C1230 C1232 1.561 . S
C1230 C1233 1.526 . S
C1231 H1215 0.959 . S
C1231 H1216 0.959 . S
C1231 H1217 0.961 . S
C1231 C1230 1.502 . S
C1232 H1218 0.960 . S
C1232 H1219 0.961 . S
C1232 H1220 0.959 . S
C1232 C1230 1.561 . S
C1233 C1230 1.526 . S
C1233 C1234 1.396 . S
C1233 C1238 1.390 . S
C1234 C1228 1.465 . S
C1234 C1233 1.396 . S
C1234 C1235 1.399 . S
C1235 H1221 0.929 . S
C1235 C1234 1.399 . S
C1235 C1236 1.385 . S
C1236 H1222 0.931 . S
C1236 C1235 1.385 . S
C1236 C1237 1.389 . S
C1237 C1236 1.389 . S
C1237 C1238 1.387 . S
C1238 H1223 0.930 . S
C1238 C1233 1.390 . S
C1238 C1237 1.387 . S
H1239 C1251 0.930 . S
H1240 C1253 0.930 . S
H1241 C1254 0.930 . S
H1242 C1258 0.959 . S
H1243 C1258 0.959 . S
H1244 C1258 0.961 . S
H1245 C1259 0.960 . S
H1246 C1259 0.961 . S
H1247 C1259 0.959 . S
H1248 C1262 0.929 . S
H1249 C1263 0.931 . S
H1250 C1265 0.930 . S
C1251 H1239 0.930 . S
C1251 C1252 1.399 . S
C1251 C1256 1.399 . S
C1252 C1251 1.399 . S
C1252 C1253 1.376 . S
C1253 H1240 0.930 . S
C1253 C1252 1.376 . S
C1253 C1254 1.388 . S
C1254 H1241 0.930 . S
C1254 C1253 1.388 . S
C1254 C1255 1.390 . S
C1255 C1254 1.390 . S
C1255 C1256 1.394 . S
C1255 C1261 1.465 . S
C1256 C1251 1.399 . S
C1256 C1255 1.394 . S
C1256 C1257 1.516 . S
C1257 C1256 1.516 . S
C1257 C1258 1.502 . S
C1257 C1259 1.561 . S
C1257 C1260 1.526 . S
C1258 H1242 0.959 . S
C1258 H1243 0.959 . S
C1258 H1244 0.961 . S
C1258 C1257 1.502 . S
C1259 H1245 0.960 . S
C1259 H1246 0.961 . S
C1259 H1247 0.959 . S
C1259 C1257 1.561 . S
C1260 C1257 1.526 . S
C1260 C1261 1.396 . S
C1260 C1265 1.390 . S
C1261 C1255 1.465 . S
C1261 C1260 1.396 . S
C1261 C1262 1.399 . S
C1262 H1248 0.929 . S
C1262 C1261 1.399 . S
C1262 C1263 1.385 . S
C1263 H1249 0.931 . S
C1263 C1262 1.385 . S
C1263 C1264 1.389 . S
C1264 C1263 1.389 . S
C1264 C1265 1.387 . S
C1265 H1250 0.930 . S
C1265 C1260 1.390 . S
C1265 C1264 1.387 . S
H1266 C1278 0.930 . S
H1267 C1280 0.930 . S
H1268 C1281 0.930 . S
H1269 C1285 0.959 . S
H1270 C1285 0.959 . S
H1271 C1285 0.961 . S
H1272 C1286 0.960 . S
H1273 C1286 0.961 . S
H1274 C1286 0.959 . S
H1275 C1289 0.929 . S
H1276 C1290 0.931 . S
H1277 C1292 0.930 . S
C1278 H1266 0.930 . S
C1278 C1279 1.399 . S
C1278 C1283 1.399 . S
C1279 C1278 1.399 . S
C1279 C1280 1.376 . S
C1280 H1267 0.930 . S
C1280 C1279 1.376 . S
C1280 C1281 1.388 . S
C1281 H1268 0.930 . S
C1281 C1280 1.388 . S
C1281 C1282 1.390 . S
C1282 C1281 1.390 . S
C1282 C1283 1.394 . S
C1282 C1288 1.465 . S
C1283 C1278 1.399 . S
C1283 C1282 1.394 . S
C1283 C1284 1.516 . S
C1284 C1283 1.516 . S
C1284 C1285 1.502 . S
C1284 C1286 1.561 . S
C1284 C1287 1.526 . S
C1285 H1269 0.959 . S
C1285 H1270 0.959 . S
C1285 H1271 0.961 . S
C1285 C1284 1.502 . S
C1286 H1272 0.960 . S
C1286 H1273 0.961 . S
C1286 H1274 0.959 . S
C1286 C1284 1.561 . S
C1287 C1284 1.526 . S
C1287 C1288 1.396 . S
C1287 C1292 1.390 . S
C1288 C1282 1.465 . S
C1288 C1287 1.396 . S
C1288 C1289 1.399 . S
C1289 H1275 0.929 . S
C1289 C1288 1.399 . S
C1289 C1290 1.385 . S
C1290 H1276 0.931 . S
C1290 C1289 1.385 . S
C1290 C1291 1.389 . S
C1291 C1290 1.389 . S
C1291 C1292 1.387 . S
C1292 H1277 0.930 . S
C1292 C1287 1.390 . S
C1292 C1291 1.387 . S
H1293 C1305 0.930 . S
H1294 C1307 0.930 . S
H1295 C1308 0.930 . S
H1296 C1312 0.959 . S
H1297 C1312 0.959 . S
H1298 C1312 0.961 . S
H1299 C1313 0.960 . S
H1300 C1313 0.961 . S
H1301 C1313 0.959 . S
H1302 C1316 0.929 . S
H1303 C1317 0.931 . S
H1304 C1319 0.930 . S
C1305 H1293 0.930 . S
C1305 C1306 1.399 . S
C1305 C1310 1.399 . S
C1306 C1305 1.399 . S
C1306 C1307 1.376 . S
C1307 H1294 0.930 . S
C1307 C1306 1.376 . S
C1307 C1308 1.388 . S
C1308 H1295 0.930 . S
C1308 C1307 1.388 . S
C1308 C1309 1.390 . S
C1309 C1308 1.390 . S
C1309 C1310 1.394 . S
C1309 C1315 1.465 . S
C1310 C1305 1.399 . S
C1310 C1309 1.394 . S
C1310 C1311 1.516 . S
C1311 C1310 1.516 . S
C1311 C1312 1.502 . S
C1311 C1313 1.561 . S
C1311 C1314 1.526 . S
C1312 H1296 0.959 . S
C1312 H1297 0.959 . S
C1312 H1298 0.961 . S
C1312 C1311 1.502 . S
C1313 H1299 0.960 . S
C1313 H1300 0.961 . S
C1313 H1301 0.959 . S
C1313 C1311 1.561 . S
C1314 C1311 1.526 . S
C1314 C1315 1.396 . S
C1314 C1319 1.390 . S
C1315 C1309 1.465 . S
C1315 C1314 1.396 . S
C1315 C1316 1.399 . S
C1316 H1302 0.929 . S
C1316 C1315 1.399 . S
C1316 C1317 1.385 . S
C1317 H1303 0.931 . S
C1317 C1316 1.385 . S
C1317 C1318 1.389 . S
C1318 C1317 1.389 . S
C1318 C1319 1.387 . S
C1319 H1304 0.930 . S
C1319 C1314 1.390 . S
C1319 C1318 1.387 . S
H1320 C1332 0.930 . S
H1321 C1334 0.930 . S
H1322 C1335 0.930 . S
H1323 C1339 0.959 . S
H1324 C1339 0.959 1_454 S
H1325 C1339 0.961 . S
H1326 C1340 0.960 . S
H1327 C1340 0.961 . S
H1328 C1340 0.959 . S
H1329 C1343 0.929 . S
H1330 C1344 0.931 . S
H1331 C1346 0.930 . S
C1332 H1320 0.930 . S
C1332 C1333 1.399 . S
C1332 C1337 1.399 . S
C1333 C1332 1.399 . S
C1333 C1334 1.376 . S
C1334 H1321 0.930 . S
C1334 C1333 1.376 . S
C1334 C1335 1.388 . S
C1335 H1322 0.930 . S
C1335 C1334 1.388 . S
C1335 C1336 1.390 . S
C1336 C1335 1.390 . S
C1336 C1337 1.394 . S
C1336 C1342 1.465 . S
C1337 C1332 1.399 . S
C1337 C1336 1.394 . S
C1337 C1338 1.516 . S
C1338 C1337 1.516 . S
C1338 C1339 1.502 1_455 S
C1338 C1340 1.561 . S
C1338 C1341 1.526 . S
C1339 H1323 0.959 . S
C1339 H1324 0.959 1_656 S
C1339 H1325 0.961 . S
C1339 C1338 1.502 1_655 S
C1340 H1326 0.960 . S
C1340 H1327 0.961 . S
C1340 H1328 0.959 . S
C1340 C1338 1.561 . S
C1341 C1338 1.526 . S
C1341 C1342 1.396 . S
C1341 C1346 1.390 . S
C1342 C1336 1.465 . S
C1342 C1341 1.396 . S
C1342 C1343 1.399 . S
C1343 H1329 0.929 . S
C1343 C1342 1.399 . S
C1343 C1344 1.385 . S
C1344 H1330 0.931 . S
C1344 C1343 1.385 . S
C1344 C1345 1.389 . S
C1345 C1344 1.389 . S
C1345 C1346 1.387 . S
C1346 H1331 0.930 . S
C1346 C1341 1.390 . S
C1346 C1345 1.387 . S
H1347 C1359 0.930 . S
H1348 C1361 0.930 . S
H1349 C1362 0.930 . S
H1350 C1366 0.959 . S
H1351 C1366 0.959 . S
H1352 C1366 0.961 . S
H1353 C1367 0.960 . S
H1354 C1367 0.961 . S
H1355 C1367 0.959 . S
H1356 C1370 0.929 . S
H1357 C1371 0.931 . S
H1358 C1373 0.930 . S
C1359 H1347 0.930 . S
C1359 C1360 1.399 . S
C1359 C1364 1.399 . S
C1360 C1359 1.399 . S
C1360 C1361 1.376 . S
C1361 H1348 0.930 . S
C1361 C1360 1.376 . S
C1361 C1362 1.388 . S
C1362 H1349 0.930 . S
C1362 C1361 1.388 . S
C1362 C1363 1.390 . S
C1363 C1362 1.390 . S
C1363 C1364 1.394 . S
C1363 C1369 1.465 . S
C1364 C1359 1.399 . S
C1364 C1363 1.394 . S
C1364 C1365 1.516 . S
C1365 C1364 1.516 . S
C1365 C1366 1.502 . S
C1365 C1367 1.561 . S
C1365 C1368 1.526 . S
C1366 H1350 0.959 . S
C1366 H1351 0.959 . S
C1366 H1352 0.961 . S
C1366 C1365 1.502 . S
C1367 H1353 0.960 . S
C1367 H1354 0.961 . S
C1367 H1355 0.959 . S
C1367 C1365 1.561 . S
C1368 C1365 1.526 . S
C1368 C1369 1.396 . S
C1368 C1373 1.390 . S
C1369 C1363 1.465 . S
C1369 C1368 1.396 . S
C1369 C1370 1.399 . S
C1370 H1356 0.929 . S
C1370 C1369 1.399 . S
C1370 C1371 1.385 . S
C1371 H1357 0.931 . S
C1371 C1370 1.385 . S
C1371 C1372 1.389 . S
C1372 C1371 1.389 . S
C1372 C1373 1.387 . S
C1373 H1358 0.930 . S
C1373 C1368 1.390 . S
C1373 C1372 1.387 . S
H1374 C1386 0.930 . S
H1375 C1388 0.930 . S
H1376 C1389 0.930 . S
H1377 C1393 0.959 . S
H1378 C1393 0.959 . S
H1379 C1393 0.961 . S
H1380 C1394 0.960 . S
H1381 C1394 0.961 . S
H1382 C1394 0.959 . S
H1383 C1397 0.929 . S
H1384 C1398 0.931 . S
H1385 C1400 0.930 . S
C1386 H1374 0.930 . S
C1386 C1387 1.399 . S
C1386 C1391 1.399 . S
C1387 C1386 1.399 . S
C1387 C1388 1.376 . S
C1388 H1375 0.930 . S
C1388 C1387 1.376 . S
C1388 C1389 1.388 . S
C1389 H1376 0.930 . S
C1389 C1388 1.388 . S
C1389 C1390 1.390 . S
C1390 C1389 1.390 . S
C1390 C1391 1.394 . S
C1390 C1396 1.465 . S
C1391 C1386 1.399 . S
C1391 C1390 1.394 . S
C1391 C1392 1.516 . S
C1392 C1391 1.516 . S
C1392 C1393 1.502 . S
C1392 C1394 1.561 . S
C1392 C1395 1.526 . S
C1393 H1377 0.959 . S
C1393 H1378 0.959 . S
C1393 H1379 0.961 . S
C1393 C1392 1.502 . S
C1394 H1380 0.960 . S
C1394 H1381 0.961 . S
C1394 H1382 0.959 . S
C1394 C1392 1.561 . S
C1395 C1392 1.526 . S
C1395 C1396 1.396 . S
C1395 C1400 1.390 . S
C1396 C1390 1.465 . S
C1396 C1395 1.396 . S
C1396 C1397 1.399 . S
C1397 H1383 0.929 . S
C1397 C1396 1.399 . S
C1397 C1398 1.385 . S
C1398 H1384 0.931 . S
C1398 C1397 1.385 . S
C1398 C1399 1.389 . S
C1399 C1398 1.389 . S
C1399 C1400 1.387 . S
C1400 H1385 0.930 . S
C1400 C1395 1.390 . S
C1400 C1399 1.387 . S
H1401 C1413 0.930 . S
H1402 C1415 0.930 . S
H1403 C1416 0.930 . S
H1404 C1420 0.959 . S
H1405 C1420 0.959 . S
H1406 C1420 0.961 . S
H1407 C1421 0.960 . S
H1408 C1421 0.961 . S
H1409 C1421 0.959 . S
H1410 C1424 0.929 . S
H1411 C1425 0.931 . S
H1412 C1427 0.930 . S
C1413 H1401 0.930 . S
C1413 C1414 1.399 . S
C1413 C1418 1.399 . S
C1414 C1413 1.399 . S
C1414 C1415 1.376 . S
C1415 H1402 0.930 . S
C1415 C1414 1.376 . S
C1415 C1416 1.388 . S
C1416 H1403 0.930 . S
C1416 C1415 1.388 . S
C1416 C1417 1.390 . S
C1417 C1416 1.390 . S
C1417 C1418 1.394 . S
C1417 C1423 1.465 . S
C1418 C1413 1.399 . S
C1418 C1417 1.394 . S
C1418 C1419 1.516 . S
C1419 C1418 1.516 . S
C1419 C1420 1.502 . S
C1419 C1421 1.561 . S
C1419 C1422 1.526 . S
C1420 H1404 0.959 . S
C1420 H1405 0.959 . S
C1420 H1406 0.961 . S
C1420 C1419 1.502 . S
C1421 H1407 0.960 . S
C1421 H1408 0.961 . S
C1421 H1409 0.959 . S
C1421 C1419 1.561 . S
C1422 C1419 1.526 . S
C1422 C1423 1.396 . S
C1422 C1427 1.390 . S
C1423 C1417 1.465 . S
C1423 C1422 1.396 . S
C1423 C1424 1.399 . S
C1424 H1410 0.929 . S
C1424 C1423 1.399 . S
C1424 C1425 1.385 . S
C1425 H1411 0.931 . S
C1425 C1424 1.385 . S
C1425 C1426 1.389 . S
C1426 C1425 1.389 . S
C1426 C1427 1.387 . S
C1427 H1412 0.930 . S
C1427 C1422 1.390 . S
C1427 C1426 1.387 . S
H1428 C1440 0.930 . S
H1429 C1442 0.930 . S
H1430 C1443 0.930 . S
H1431 C1447 0.959 . S
H1432 C1447 0.959 . S
H1433 C1447 0.961 . S
H1434 C1448 0.960 . S
H1435 C1448 0.961 . S
H1436 C1448 0.951 1_655 S
H1437 C1451 0.929 . S
H1438 C1452 0.931 . S
H1439 C1454 0.930 . S
C1440 H1428 0.930 . S
C1440 C1441 1.399 . S
C1440 C1445 1.399 . S
C1441 C1440 1.399 . S
C1441 C1442 1.376 1_455 S
C1442 H1429 0.930 . S
C1442 C1441 1.376 1_655 S
C1442 C1443 1.388 . S
C1443 H1430 0.930 . S
C1443 C1442 1.388 . S
C1443 C1444 1.390 . S
C1444 C1443 1.390 . S
C1444 C1445 1.394 1_655 S
C1444 C1450 1.461 1_655 S
C1445 C1440 1.399 . S
C1445 C1444 1.394 1_455 S
C1445 C1446 1.516 . S
C1446 C1445 1.516 . S
C1446 C1447 1.502 . S
C1446 C1448 1.561 . S
C1446 C1449 1.526 . S
C1447 H1431 0.959 . S
C1447 H1432 0.959 . S
C1447 H1433 0.961 . S
C1447 C1446 1.502 . S
C1448 H1434 0.960 . S
C1448 H1435 0.961 . S
C1448 H1436 0.951 1_455 S
C1448 C1446 1.561 . S
C1449 C1446 1.526 . S
C1449 C1450 1.422 . S
C1449 C1454 1.390 . S
C1450 C1444 1.461 1_455 S
C1450 C1449 1.422 . S
C1450 C1451 1.383 1_455 S
C1451 H1437 0.929 . S
C1451 C1450 1.383 1_655 S
C1451 C1452 1.385 . S
C1452 H1438 0.931 . S
C1452 C1451 1.385 . S
C1452 C1453 1.389 1_655 S
C1453 C1452 1.389 1_455 S
C1453 C1454 1.387 . S
C1454 H1439 0.930 . S
C1454 C1449 1.390 . S
C1454 C1453 1.387 . S
H1455 C1467 0.930 . S
H1456 C1469 0.930 . S
H1457 C1470 0.930 . S
H1458 C1474 0.959 . S
H1459 C1474 0.959 . S
H1460 C1474 0.961 . S
H1461 C1475 0.960 . S
H1462 C1475 0.961 . S
H1463 C1475 0.959 . S
H1464 C1478 0.929 . S
H1465 C1479 0.931 . S
H1466 C1481 0.930 . S
C1467 H1455 0.930 . S
C1467 C1468 1.399 . S
C1467 C1472 1.399 . S
C1468 C1467 1.399 . S
C1468 C1469 1.376 . S
C1469 H1456 0.930 . S
C1469 C1468 1.376 . S
C1469 C1470 1.388 . S
C1470 H1457 0.930 . S
C1470 C1469 1.388 . S
C1470 C1471 1.390 . S
C1471 C1470 1.390 . S
C1471 C1472 1.394 . S
C1471 C1477 1.465 . S
C1472 C1467 1.399 . S
C1472 C1471 1.394 . S
C1472 C1473 1.516 . S
C1473 C1472 1.516 . S
C1473 C1474 1.502 . S
C1473 C1475 1.561 . S
C1473 C1476 1.526 . S
C1474 H1458 0.959 . S
C1474 H1459 0.959 . S
C1474 H1460 0.961 . S
C1474 C1473 1.502 . S
C1475 H1461 0.960 . S
C1475 H1462 0.961 . S
C1475 H1463 0.959 . S
C1475 C1473 1.561 . S
C1476 C1473 1.526 . S
C1476 C1477 1.396 . S
C1476 C1481 1.390 . S
C1477 C1471 1.465 . S
C1477 C1476 1.396 . S
C1477 C1478 1.399 . S
C1478 H1464 0.929 . S
C1478 C1477 1.399 . S
C1478 C1479 1.385 . S
C1479 H1465 0.931 . S
C1479 C1478 1.385 . S
C1479 C1480 1.389 . S
C1480 C1479 1.389 . S
C1480 C1481 1.387 . S
C1481 H1466 0.930 . S
C1481 C1476 1.390 . S
C1481 C1480 1.387 . S
H1482 C1494 0.930 . S
H1483 C1496 0.930 . S
H1484 C1497 0.930 . S
H1485 C1501 0.959 . S
H1486 C1501 0.959 . S
H1487 C1501 0.961 . S
H1488 C1502 0.960 . S
H1489 C1502 0.961 . S
H1490 C1502 0.959 . S
H1491 C1505 0.929 . S
H1492 C1506 0.969 . S
H1493 C1508 0.930 . S
C1494 H1482 0.930 . S
C1494 C1495 1.399 . S
C1494 C1499 1.399 . S
C1495 C1494 1.399 . S
C1495 C1496 1.376 . S
C1496 H1483 0.930 . S
C1496 C1495 1.376 . S
C1496 C1497 1.388 . S
C1497 H1484 0.930 . S
C1497 C1496 1.388 . S
C1497 C1498 1.390 . S
C1498 C1497 1.390 . S
C1498 C1499 1.394 . S
C1498 C1504 1.465 . S
C1499 C1494 1.399 . S
C1499 C1498 1.394 . S
C1499 C1500 1.516 . S
C1500 C1499 1.516 . S
C1500 C1501 1.502 . S
C1500 C1502 1.561 . S
C1500 C1503 1.526 . S
C1501 H1485 0.959 . S
C1501 H1486 0.959 . S
C1501 H1487 0.961 . S
C1501 C1500 1.502 . S
C1502 H1488 0.960 . S
C1502 H1489 0.961 . S
C1502 H1490 0.959 . S
C1502 C1500 1.561 . S
C1503 C1500 1.526 . S
C1503 C1504 1.396 . S
C1503 C1508 1.390 . S
C1504 C1498 1.465 . S
C1504 C1503 1.396 . S
C1504 C1505 1.399 . S
C1505 H1491 0.929 . S
C1505 C1504 1.399 . S
C1505 C1506 1.385 . S
C1506 H1492 0.969 . S
C1506 C1505 1.385 . S
C1506 C1507 1.389 . S
C1507 C1506 1.389 . S
C1507 C1508 1.387 . S
C1508 H1493 0.930 . S
C1508 C1503 1.390 . S
C1508 C1507 1.387 . S
H1509 C1521 0.930 . S
H1510 C1523 0.930 . S
H1511 C1524 0.930 . S
H1512 C1528 0.959 . S
H1513 C1528 0.959 . S
H1514 C1528 0.961 . S
H1515 C1529 0.960 . S
H1516 C1529 0.961 . S
H1517 C1529 0.959 . S
H1518 C1532 0.929 . S
H1519 C1533 0.931 . S
H1520 C1535 0.930 . S
C1521 H1509 0.930 . S
C1521 C1522 1.399 . S
C1521 C1526 1.399 . S
C1522 C1521 1.399 . S
C1522 C1523 1.376 . S
C1523 H1510 0.930 . S
C1523 C1522 1.376 . S
C1523 C1524 1.388 . S
C1524 H1511 0.930 . S
C1524 C1523 1.388 . S
C1524 C1525 1.390 . S
C1525 C1524 1.390 . S
C1525 C1526 1.394 . S
C1525 C1531 1.465 . S
C1526 C1521 1.399 . S
C1526 C1525 1.394 . S
C1526 C1527 1.516 . S
C1527 C1526 1.516 . S
C1527 C1528 1.502 . S
C1527 C1529 1.561 . S
C1527 C1530 1.526 . S
C1528 H1512 0.959 . S
C1528 H1513 0.959 . S
C1528 H1514 0.961 . S
C1528 C1527 1.502 . S
C1529 H1515 0.960 . S
C1529 H1516 0.961 . S
C1529 H1517 0.959 . S
C1529 C1527 1.561 . S
C1530 C1527 1.526 . S
C1530 C1531 1.396 . S
C1530 C1535 1.390 . S
C1531 C1525 1.465 . S
C1531 C1530 1.396 . S
C1531 C1532 1.399 . S
C1532 H1518 0.929 . S
C1532 C1531 1.399 . S
C1532 C1533 1.385 . S
C1533 H1519 0.931 . S
C1533 C1532 1.385 . S
C1533 C1534 1.389 . S
C1534 C1533 1.389 . S
C1534 C1535 1.387 . S
C1535 H1520 0.930 . S
C1535 C1530 1.390 . S
C1535 C1534 1.387 . S
H1536 C1548 0.930 . S
H1537 C1550 0.930 . S
H1538 C1551 0.930 . S
H1539 C1555 0.959 . S
H1540 C1555 0.959 . S
H1541 C1555 0.961 . S
H1542 C1556 0.960 . S
H1543 C1556 0.961 . S
H1544 C1556 0.959 . S
H1545 C1559 0.929 . S
H1546 C1560 0.931 . S
H1547 C1562 0.930 . S
C1548 H1536 0.930 . S
C1548 C1549 1.399 1_565 S
C1548 C1553 1.399 . S
C1549 C1548 1.399 1_545 S
C1549 C1550 1.376 . S
C1550 H1537 0.930 . S
C1550 C1549 1.376 . S
C1550 C1551 1.388 . S
C1551 H1538 0.930 . S
C1551 C1550 1.388 . S
C1551 C1552 1.390 . S
C1552 C1551 1.390 . S
C1552 C1553 1.394 1_545 S
C1552 C1558 1.465 . S
C1553 C1548 1.399 . S
C1553 C1552 1.394 1_565 S
C1553 C1554 1.516 . S
C1554 C1553 1.516 . S
C1554 C1555 1.502 . S
C1554 C1556 1.561 . S
C1554 C1557 1.526 . S
C1555 H1539 0.959 . S
C1555 H1540 0.959 . S
C1555 H1541 0.961 . S
C1555 C1554 1.502 . S
C1556 H1542 0.960 . S
C1556 H1543 0.961 . S
C1556 H1544 0.959 . S
C1556 C1554 1.561 . S
C1557 C1554 1.526 . S
C1557 C1558 1.396 1_565 S
C1557 C1562 1.390 . S
C1558 C1552 1.465 . S
C1558 C1557 1.396 1_545 S
C1558 C1559 1.399 . S
C1559 H1545 0.929 . S
C1559 C1558 1.399 . S
C1559 C1560 1.385 . S
C1560 H1546 0.931 . S
C1560 C1559 1.385 . S
C1560 C1561 1.389 . S
C1561 C1560 1.389 . S
C1561 C1562 1.387 1_545 S
C1562 H1547 0.930 . S
C1562 C1557 1.390 . S
C1562 C1561 1.387 1_565 S
H1563 C1575 0.930 . S
H1564 C1577 0.930 . S
H1565 C1578 0.930 . S
H1566 C1582 0.959 . S
H1567 C1582 0.959 . S
H1568 C1582 0.961 . S
H1569 C1583 0.960 . S
H1570 C1583 0.961 . S
H1571 C1583 0.959 . S
H1572 C1586 0.929 . S
H1573 C1587 0.931 . S
H1574 C1589 0.930 . S
C1575 H1563 0.930 . S
C1575 C1576 1.399 . S
C1575 C1580 1.399 . S
C1576 C1575 1.399 . S
C1576 C1577 1.376 . S
C1577 H1564 0.930 . S
C1577 C1576 1.376 . S
C1577 C1578 1.388 . S
C1578 H1565 0.930 . S
C1578 C1577 1.388 . S
C1578 C1579 1.390 . S
C1579 C1578 1.390 . S
C1579 C1580 1.394 . S
C1579 C1585 1.465 . S
C1580 C1575 1.399 . S
C1580 C1579 1.394 . S
C1580 C1581 1.516 . S
C1581 C1580 1.516 . S
C1581 C1582 1.502 . S
C1581 C1583 1.561 . S
C1581 C1584 1.526 . S
C1582 H1566 0.959 . S
C1582 H1567 0.959 . S
C1582 H1568 0.961 . S
C1582 C1581 1.502 . S
C1583 H1569 0.960 . S
C1583 H1570 0.961 . S
C1583 H1571 0.959 . S
C1583 C1581 1.561 . S
C1584 C1581 1.526 . S
C1584 C1585 1.396 . S
C1584 C1589 1.390 . S
C1585 C1579 1.465 . S
C1585 C1584 1.396 . S
C1585 C1586 1.399 . S
C1586 H1572 0.929 . S
C1586 C1585 1.399 . S
C1586 C1587 1.385 . S
C1587 H1573 0.931 . S
C1587 C1586 1.385 . S
C1587 C1588 1.389 . S
C1588 C1587 1.389 . S
C1588 C1589 1.387 . S
C1589 H1574 0.930 . S
C1589 C1584 1.390 . S
C1589 C1588 1.387 . S
H1590 C1602 0.930 . S
H1591 C1604 0.930 . S
H1592 C1605 0.930 . S
H1593 C1609 0.959 . S
H1594 C1609 0.959 . S
H1595 C1609 0.961 . S
H1596 C1610 0.960 . S
H1597 C1610 0.961 . S
H1598 C1610 0.959 . S
H1599 C1613 0.929 . S
H1600 C1614 0.931 . S
H1601 C1616 0.930 . S
C1602 H1590 0.930 . S
C1602 C1603 1.399 . S
C1602 C1607 1.399 . S
C1603 C1602 1.399 . S
C1603 C1604 1.376 1_545 S
C1604 H1591 0.930 . S
C1604 C1603 1.376 1_565 S
C1604 C1605 1.388 . S
C1605 H1592 0.930 . S
C1605 C1604 1.388 . S
C1605 C1606 1.390 . S
C1606 C1605 1.390 . S
C1606 C1607 1.394 1_565 S
C1606 C1612 1.465 . S
C1607 C1602 1.399 . S
C1607 C1606 1.394 1_545 S
C1607 C1608 1.516 . S
C1608 C1607 1.516 . S
C1608 C1609 1.502 . S
C1608 C1610 1.561 . S
C1608 C1611 1.526 . S
C1609 H1593 0.959 . S
C1609 H1594 0.959 . S
C1609 H1595 0.961 . S
C1609 C1608 1.502 . S
C1610 H1596 0.960 . S
C1610 H1597 0.961 . S
C1610 H1598 0.959 . S
C1610 C1608 1.561 . S
C1611 C1608 1.526 . S
C1611 C1612 1.396 1_545 S
C1611 C1616 1.390 . S
C1612 C1606 1.465 . S
C1612 C1611 1.396 1_565 S
C1612 C1613 1.399 . S
C1613 H1599 0.929 . S
C1613 C1612 1.399 . S
C1613 C1614 1.385 . S
C1614 H1600 0.931 . S
C1614 C1613 1.385 . S
C1614 C1615 1.389 . S
C1615 C1614 1.389 . S
C1615 C1616 1.387 1_565 S
C1616 H1601 0.930 . S
C1616 C1611 1.390 . S
C1616 C1615 1.387 1_545 S
H1617 C1629 0.930 . S
H1618 C1631 0.930 . S
H1619 C1632 0.930 . S
H1620 C1636 0.959 . S
H1621 C1636 0.959 . S
H1622 C1636 0.961 . S
H1623 C1637 0.960 . S
H1624 C1637 0.961 . S
H1625 C1637 0.959 . S
H1626 C1640 0.929 . S
H1627 C1641 0.931 . S
H1628 C1643 0.930 . S
C1629 H1617 0.930 . S
C1629 C1630 1.399 . S
C1629 C1634 1.399 . S
C1630 C1629 1.399 . S
C1630 C1631 1.376 . S
C1631 H1618 0.930 . S
C1631 C1630 1.376 . S
C1631 C1632 1.388 . S
C1632 H1619 0.930 . S
C1632 C1631 1.388 . S
C1632 C1633 1.390 . S
C1633 C1632 1.390 . S
C1633 C1634 1.394 . S
C1633 C1639 1.465 . S
C1634 C1629 1.399 . S
C1634 C1633 1.394 . S
C1634 C1635 1.516 . S
C1635 C1634 1.516 . S
C1635 C1636 1.502 . S
C1635 C1637 1.561 . S
C1635 C1638 1.526 . S
C1636 H1620 0.959 . S
C1636 H1621 0.959 . S
C1636 H1622 0.961 . S
C1636 C1635 1.502 . S
C1637 H1623 0.960 . S
C1637 H1624 0.961 . S
C1637 H1625 0.959 . S
C1637 C1635 1.561 . S
C1638 C1635 1.526 . S
C1638 C1639 1.396 . S
C1638 C1643 1.390 . S
C1639 C1633 1.465 . S
C1639 C1638 1.396 . S
C1639 C1640 1.399 . S
C1640 H1626 0.929 . S
C1640 C1639 1.399 . S
C1640 C1641 1.385 . S
C1641 H1627 0.931 . S
C1641 C1640 1.385 . S
C1641 C1642 1.389 . S
C1642 C1641 1.389 . S
C1642 C1643 1.387 . S
C1643 H1628 0.930 . S
C1643 C1638 1.390 . S
C1643 C1642 1.387 . S
H1644 C1656 0.930 . S
H1645 C1658 0.930 . S
H1646 C1659 0.930 . S
H1647 C1663 0.959 . S
H1648 C1663 0.959 . S
H1649 C1663 0.961 . S
H1650 C1664 0.960 . S
H1651 C1664 0.961 . S
H1652 C1664 0.959 . S
H1653 C1667 0.929 . S
H1654 C1668 0.931 . S
H1655 C1670 0.930 . S
C1656 H1644 0.930 . S
C1656 C1657 1.399 1_565 S
C1656 C1661 1.399 . S
C1657 C1656 1.399 1_545 S
C1657 C1658 1.376 . S
C1658 H1645 0.930 . S
C1658 C1657 1.376 . S
C1658 C1659 1.388 . S
C1659 H1646 0.930 . S
C1659 C1658 1.388 . S
C1659 C1660 1.390 . S
C1660 C1659 1.390 . S
C1660 C1661 1.394 1_545 S
C1660 C1666 1.465 . S
C1661 C1656 1.399 . S
C1661 C1660 1.394 1_565 S
C1661 C1662 1.516 . S
C1662 C1661 1.516 . S
C1662 C1663 1.502 . S
C1662 C1664 1.561 . S
C1662 C1665 1.526 . S
C1663 H1647 0.959 . S
C1663 H1648 0.959 . S
C1663 H1649 0.961 . S
C1663 C1662 1.502 . S
C1664 H1650 0.960 . S
C1664 H1651 0.961 . S
C1664 H1652 0.959 . S
C1664 C1662 1.561 . S
C1665 C1662 1.526 . S
C1665 C1666 1.396 1_565 S
C1665 C1670 1.390 . S
C1666 C1660 1.465 . S
C1666 C1665 1.396 1_545 S
C1666 C1667 1.399 . S
C1667 H1653 0.929 . S
C1667 C1666 1.399 . S
C1667 C1668 1.385 . S
C1668 H1654 0.931 . S
C1668 C1667 1.385 . S
C1668 C1669 1.389 1_545 S
C1669 C1668 1.389 1_565 S
C1669 C1670 1.387 . S
C1670 H1655 0.930 . S
C1670 C1665 1.390 . S
C1670 C1669 1.387 . S
H1671 C1683 0.930 . S
H1672 C1685 0.930 . S
H1673 C1686 0.930 . S
H1674 C1690 0.959 . S
H1675 C1690 0.959 . S
H1676 C1690 0.961 . S
H1677 C1691 0.960 . S
H1678 C1691 0.961 . S
H1679 C1691 0.959 . S
H1680 C1694 0.929 . S
H1681 C1695 0.931 . S
H1682 C1697 0.930 . S
C1683 H1671 0.930 . S
C1683 C1684 1.399 . S
C1683 C1688 1.399 . S
C1684 C1683 1.399 . S
C1684 C1685 1.376 . S
C1685 H1672 0.930 . S
C1685 C1684 1.376 . S
C1685 C1686 1.388 . S
C1686 H1673 0.930 . S
C1686 C1685 1.388 . S
C1686 C1687 1.390 . S
C1687 C1686 1.390 . S
C1687 C1688 1.394 . S
C1687 C1693 1.465 . S
C1688 C1683 1.399 . S
C1688 C1687 1.394 . S
C1688 C1689 1.516 . S
C1689 C1688 1.516 . S
C1689 C1690 1.502 . S
C1689 C1691 1.561 . S
C1689 C1692 1.526 . S
C1690 H1674 0.959 . S
C1690 H1675 0.959 . S
C1690 H1676 0.961 . S
C1690 C1689 1.502 . S
C1691 H1677 0.960 . S
C1691 H1678 0.961 . S
C1691 H1679 0.959 . S
C1691 C1689 1.561 . S
C1692 C1689 1.526 . S
C1692 C1693 1.396 . S
C1692 C1697 1.390 . S
C1693 C1687 1.465 . S
C1693 C1692 1.396 . S
C1693 C1694 1.399 . S
C1694 H1680 0.929 . S
C1694 C1693 1.399 . S
C1694 C1695 1.385 . S
C1695 H1681 0.931 . S
C1695 C1694 1.385 . S
C1695 C1696 1.389 . S
C1696 C1695 1.389 . S
C1696 C1697 1.387 . S
C1697 H1682 0.930 . S
C1697 C1692 1.390 . S
C1697 C1696 1.387 . S
H1698 C1710 0.930 . S
H1699 C1712 0.930 . S
H1700 C1713 0.930 . S
H1701 C1717 0.959 . S
H1702 C1717 0.959 . S
H1703 C1717 0.961 . S
H1704 C1718 0.960 . S
H1705 C1718 0.961 . S
H1706 C1718 0.959 . S
H1707 C1721 0.929 . S
H1708 C1722 0.931 . S
H1709 C1724 0.930 . S
C1710 H1698 0.930 . S
C1710 C1711 1.399 . S
C1710 C1715 1.399 . S
C1711 C1710 1.399 . S
C1711 C1712 1.376 1_545 S
C1712 H1699 0.930 . S
C1712 C1711 1.376 1_565 S
C1712 C1713 1.388 . S
C1713 H1700 0.930 . S
C1713 C1712 1.388 . S
C1713 C1714 1.390 . S
C1714 C1713 1.390 . S
C1714 C1715 1.394 1_565 S
C1714 C1720 1.469 . S
C1715 C1710 1.399 . S
C1715 C1714 1.394 1_545 S
C1715 C1716 1.516 . S
C1716 C1715 1.516 . S
C1716 C1717 1.502 . S
C1716 C1718 1.561 . S
C1716 C1719 1.526 . S
C1717 H1701 0.959 . S
C1717 H1702 0.959 . S
C1717 H1703 0.961 . S
C1717 C1716 1.502 . S
C1718 H1704 0.960 . S
C1718 H1705 0.961 . S
C1718 H1706 0.959 . S
C1718 C1716 1.561 . S
C1719 C1716 1.526 . S
C1719 C1720 1.361 1_545 S
C1719 C1724 1.390 . S
C1720 C1714 1.469 . S
C1720 C1719 1.361 1_565 S
C1720 C1721 1.424 . S
C1721 H1707 0.929 . S
C1721 C1720 1.424 . S
C1721 C1722 1.385 . S
C1722 H1708 0.931 . S
C1722 C1721 1.385 . S
C1722 C1723 1.389 1_565 S
C1723 C1722 1.389 1_545 S
C1723 C1724 1.387 . S
C1724 H1709 0.930 . S
C1724 C1719 1.390 . S
C1724 C1723 1.387 . S
H1725 C1737 0.930 . S
H1726 C1739 0.930 . S
H1727 C1740 0.930 . S
H1728 C1744 0.959 . S
H1729 C1744 0.959 . S
H1730 C1744 0.961 . S
H1731 C1745 0.960 . S
H1732 C1745 0.961 . S
H1733 C1745 0.959 . S
H1734 C1748 0.929 . S
H1735 C1749 0.931 . S
H1736 C1751 0.930 . S
C1737 H1725 0.930 . S
C1737 C1738 1.399 . S
C1737 C1742 1.399 . S
C1738 C1737 1.399 . S
C1738 C1739 1.376 . S
C1739 H1726 0.930 . S
C1739 C1738 1.376 . S
C1739 C1740 1.388 . S
C1740 H1727 0.930 . S
C1740 C1739 1.388 . S
C1740 C1741 1.390 . S
C1741 C1740 1.390 . S
C1741 C1742 1.394 . S
C1741 C1747 1.465 . S
C1742 C1737 1.399 . S
C1742 C1741 1.394 . S
C1742 C1743 1.516 . S
C1743 C1742 1.516 . S
C1743 C1744 1.502 . S
C1743 C1745 1.561 . S
C1743 C1746 1.526 . S
C1744 H1728 0.959 . S
C1744 H1729 0.959 . S
C1744 H1730 0.961 . S
C1744 C1743 1.502 . S
C1745 H1731 0.960 . S
C1745 H1732 0.961 . S
C1745 H1733 0.959 . S
C1745 C1743 1.561 . S
C1746 C1743 1.526 . S
C1746 C1747 1.396 . S
C1746 C1751 1.390 . S
C1747 C1741 1.465 . S
C1747 C1746 1.396 . S
C1747 C1748 1.399 . S
C1748 H1734 0.929 . S
C1748 C1747 1.399 . S
C1748 C1749 1.385 . S
C1749 H1735 0.931 . S
C1749 C1748 1.385 . S
C1749 C1750 1.389 . S
C1750 C1749 1.389 . S
C1750 C1751 1.387 . S
C1751 H1736 0.930 . S
C1751 C1746 1.390 . S
C1751 C1750 1.387 . S
H1752 C1764 0.930 . S
H1753 C1766 0.930 . S
H1754 C1767 0.930 . S
H1755 C1771 0.959 . S
H1756 C1771 0.959 . S
H1757 C1771 0.961 . S
H1758 C1772 0.960 . S
H1759 C1772 0.961 . S
H1760 C1772 0.959 . S
H1761 C1775 0.929 . S
H1762 C1776 0.931 . S
H1763 C1778 0.930 . S
C1764 H1752 0.930 . S
C1764 C1765 1.399 1_556 S
C1764 C1769 1.399 . S
C1765 C1764 1.399 1_554 S
C1765 C1766 1.376 . S
C1766 H1753 0.930 . S
C1766 C1765 1.376 . S
C1766 C1767 1.388 . S
C1767 H1754 0.930 . S
C1767 C1766 1.388 . S
C1767 C1768 1.390 . S
C1768 C1767 1.390 . S
C1768 C1769 1.394 1_554 S
C1768 C1774 1.465 . S
C1769 C1764 1.399 . S
C1769 C1768 1.394 1_556 S
C1769 C1770 1.516 . S
C1770 C1769 1.516 . S
C1770 C1771 1.502 . S
C1770 C1772 1.561 . S
C1770 C1773 1.531 . S
C1771 H1755 0.959 . S
C1771 H1756 0.959 . S
C1771 H1757 0.961 . S
C1771 C1770 1.502 . S
C1772 H1758 0.960 . S
C1772 H1759 0.961 . S
C1772 H1760 0.959 . S
C1772 C1770 1.561 . S
C1773 C1770 1.531 . S
C1773 C1774 1.389 1_556 S
C1773 C1778 1.391 . S
C1774 C1768 1.465 . S
C1774 C1773 1.389 1_554 S
C1774 C1775 1.399 . S
C1775 H1761 0.929 . S
C1775 C1774 1.399 . S
C1775 C1776 1.385 . S
C1776 H1762 0.931 . S
C1776 C1775 1.385 . S
C1776 C1777 1.389 . S
C1777 C1776 1.389 . S
C1777 C1778 1.387 1_554 S
C1778 H1763 0.930 . S
C1778 C1773 1.391 . S
C1778 C1777 1.387 1_556 S
H1779 C1791 0.930 . S
H1780 C1793 0.930 . S
H1781 C1794 0.930 . S
H1782 C1798 0.959 . S
H1783 C1798 0.959 . S
H1784 C1798 0.961 . S
H1785 C1799 0.960 . S
H1786 C1799 0.961 . S
H1787 C1799 0.959 . S
H1788 C1802 0.929 . S
H1789 C1803 0.931 . S
H1790 C1805 0.930 . S
C1791 H1779 0.930 . S
C1791 C1792 1.399 1_556 S
C1791 C1796 1.399 . S
C1792 C1791 1.399 1_554 S
C1792 C1793 1.376 . S
C1793 H1780 0.930 . S
C1793 C1792 1.376 . S
C1793 C1794 1.388 . S
C1794 H1781 0.930 . S
C1794 C1793 1.388 . S
C1794 C1795 1.390 . S
C1795 C1794 1.390 . S
C1795 C1796 1.394 1_554 S
C1795 C1801 1.465 . S
C1796 C1791 1.399 . S
C1796 C1795 1.394 1_556 S
C1796 C1797 1.516 . S
C1797 C1796 1.516 . S
C1797 C1798 1.502 . S
C1797 C1799 1.561 . S
C1797 C1800 1.526 . S
C1798 H1782 0.959 . S
C1798 H1783 0.959 . S
C1798 H1784 0.961 . S
C1798 C1797 1.502 . S
C1799 H1785 0.960 . S
C1799 H1786 0.961 . S
C1799 H1787 0.959 . S
C1799 C1797 1.561 . S
C1800 C1797 1.526 . S
C1800 C1801 1.396 1_556 S
C1800 C1805 1.390 . S
C1801 C1795 1.465 . S
C1801 C1800 1.396 1_554 S
C1801 C1802 1.399 . S
C1802 H1788 0.929 . S
C1802 C1801 1.399 . S
C1802 C1803 1.385 . S
C1803 H1789 0.931 . S
C1803 C1802 1.385 . S
C1803 C1804 1.389 1_554 S
C1804 C1803 1.389 1_556 S
C1804 C1805 1.387 . S
C1805 H1790 0.930 . S
C1805 C1800 1.390 . S
C1805 C1804 1.387 . S
H1806 C1818 0.930 . S
H1807 C1820 0.930 . S
H1808 C1821 0.930 . S
H1809 C1825 0.959 . S
H1810 C1825 0.959 . S
H1811 C1825 0.961 . S
H1812 C1826 0.960 . S
H1813 C1826 0.961 . S
H1814 C1826 0.959 . S
H1815 C1829 0.929 . S
H1816 C1830 0.931 . S
H1817 C1832 0.930 . S
C1818 H1806 0.930 . S
C1818 C1819 1.399 . S
C1818 C1823 1.399 . S
C1819 C1818 1.399 . S
C1819 C1820 1.376 . S
C1820 H1807 0.930 . S
C1820 C1819 1.376 . S
C1820 C1821 1.388 . S
C1821 H1808 0.930 . S
C1821 C1820 1.388 . S
C1821 C1822 1.390 . S
C1822 C1821 1.390 . S
C1822 C1823 1.394 . S
C1822 C1828 1.465 . S
C1823 C1818 1.399 . S
C1823 C1822 1.394 . S
C1823 C1824 1.516 . S
C1824 C1823 1.516 . S
C1824 C1825 1.502 . S
C1824 C1826 1.561 . S
C1824 C1827 1.526 . S
C1825 H1809 0.959 . S
C1825 H1810 0.959 . S
C1825 H1811 0.961 . S
C1825 C1824 1.502 . S
C1826 H1812 0.960 . S
C1826 H1813 0.961 . S
C1826 H1814 0.959 . S
C1826 C1824 1.561 . S
C1827 C1824 1.526 . S
C1827 C1828 1.396 . S
C1827 C1832 1.390 . S
C1828 C1822 1.465 . S
C1828 C1827 1.396 . S
C1828 C1829 1.399 . S
C1829 H1815 0.929 . S
C1829 C1828 1.399 . S
C1829 C1830 1.385 . S
C1830 H1816 0.931 . S
C1830 C1829 1.385 . S
C1830 C1831 1.389 . S
C1831 C1830 1.389 . S
C1831 C1832 1.387 . S
C1832 H1817 0.930 . S
C1832 C1827 1.390 . S
C1832 C1831 1.387 . S
H1833 C1845 0.930 . S
H1834 C1847 0.930 . S
H1835 C1848 0.930 . S
H1836 C1852 0.959 . S
H1837 C1852 0.959 . S
H1838 C1852 0.961 . S
H1839 C1853 0.960 . S
H1840 C1853 0.961 . S
H1841 C1853 0.959 . S
H1842 C1856 0.929 . S
H1843 C1857 0.931 . S
H1844 C1859 0.930 . S
C1845 H1833 0.930 . S
C1845 C1846 1.399 . S
C1845 C1850 1.399 . S
C1846 C1845 1.399 . S
C1846 C1847 1.376 . S
C1847 H1834 0.930 . S
C1847 C1846 1.376 . S
C1847 C1848 1.388 . S
C1848 H1835 0.930 . S
C1848 C1847 1.388 . S
C1848 C1849 1.390 . S
C1849 C1848 1.390 . S
C1849 C1850 1.394 . S
C1849 C1855 1.465 . S
C1850 C1845 1.399 . S
C1850 C1849 1.394 . S
C1850 C1851 1.516 . S
C1851 C1850 1.516 . S
C1851 C1852 1.502 . S
C1851 C1853 1.561 . S
C1851 C1854 1.526 . S
C1852 H1836 0.959 . S
C1852 H1837 0.959 . S
C1852 H1838 0.961 . S
C1852 C1851 1.502 . S
C1853 H1839 0.960 . S
C1853 H1840 0.961 . S
C1853 H1841 0.959 . S
C1853 C1851 1.561 . S
C1854 C1851 1.526 . S
C1854 C1855 1.396 . S
C1854 C1859 1.390 . S
C1855 C1849 1.465 . S
C1855 C1854 1.396 . S
C1855 C1856 1.399 . S
C1856 H1842 0.929 . S
C1856 C1855 1.399 . S
C1856 C1857 1.385 . S
C1857 H1843 0.931 . S
C1857 C1856 1.385 . S
C1857 C1858 1.389 . S
C1858 C1857 1.389 . S
C1858 C1859 1.387 . S
C1859 H1844 0.930 . S
C1859 C1854 1.390 . S
C1859 C1858 1.387 . S
H1860 C1872 0.930 . S
H1861 C1874 0.930 . S
H1862 C1875 0.930 . S
H1863 C1879 0.959 . S
H1864 C1879 0.959 . S
H1865 C1879 0.961 . S
H1866 C1880 0.960 . S
H1867 C1880 0.961 . S
H1868 C1880 0.959 . S
H1869 C1883 0.929 . S
H1870 C1884 0.931 . S
H1871 C1886 0.930 . S
C1872 H1860 0.930 . S
C1872 C1873 1.399 . S
C1872 C1877 1.399 . S
C1873 C1872 1.399 . S
C1873 C1874 1.376 . S
C1874 H1861 0.930 . S
C1874 C1873 1.376 . S
C1874 C1875 1.388 . S
C1875 H1862 0.930 . S
C1875 C1874 1.388 . S
C1875 C1876 1.390 . S
C1876 C1875 1.390 . S
C1876 C1877 1.394 . S
C1876 C1882 1.465 . S
C1877 C1872 1.399 . S
C1877 C1876 1.394 . S
C1877 C1878 1.516 . S
C1878 C1877 1.516 . S
C1878 C1879 1.502 . S
C1878 C1880 1.561 . S
C1878 C1881 1.526 . S
C1879 H1863 0.959 . S
C1879 H1864 0.959 . S
C1879 H1865 0.961 . S
C1879 C1878 1.502 . S
C1880 H1866 0.960 . S
C1880 H1867 0.961 . S
C1880 H1868 0.959 . S
C1880 C1878 1.561 . S
C1881 C1878 1.526 . S
C1881 C1882 1.396 . S
C1881 C1886 1.390 . S
C1882 C1876 1.465 . S
C1882 C1881 1.396 . S
C1882 C1883 1.399 . S
C1883 H1869 0.929 . S
C1883 C1882 1.399 . S
C1883 C1884 1.385 . S
C1884 H1870 0.931 . S
C1884 C1883 1.385 . S
C1884 C1885 1.389 . S
C1885 C1884 1.389 . S
C1885 C1886 1.387 . S
C1886 H1871 0.930 . S
C1886 C1881 1.390 . S
C1886 C1885 1.387 . S
H1887 C1899 0.930 . S
H1888 C1901 0.930 . S
H1889 C1902 0.930 . S
H1890 C1906 0.959 . S
H1891 C1906 0.959 . S
H1892 C1906 0.961 . S
H1893 C1907 0.960 . S
H1894 C1907 0.961 . S
H1895 C1907 0.959 . S
H1896 C1910 0.929 . S
H1897 C1911 0.931 . S
H1898 C1913 0.930 . S
C1899 H1887 0.930 . S
C1899 C1900 1.399 . S
C1899 C1904 1.399 . S
C1900 C1899 1.399 . S
C1900 C1901 1.376 . S
C1901 H1888 0.930 . S
C1901 C1900 1.376 . S
C1901 C1902 1.388 . S
C1902 H1889 0.930 . S
C1902 C1901 1.388 . S
C1902 C1903 1.390 . S
C1903 C1902 1.390 . S
C1903 C1904 1.394 . S
C1903 C1909 1.465 . S
C1904 C1899 1.399 . S
C1904 C1903 1.394 . S
C1904 C1905 1.516 . S
C1905 C1904 1.516 . S
C1905 C1906 1.502 . S
C1905 C1907 1.561 . S
C1905 C1908 1.526 . S
C1906 H1890 0.959 . S
C1906 H1891 0.959 . S
C1906 H1892 0.961 . S
C1906 C1905 1.502 . S
C1907 H1893 0.960 . S
C1907 H1894 0.961 . S
C1907 H1895 0.959 . S
C1907 C1905 1.561 . S
C1908 C1905 1.526 . S
C1908 C1909 1.396 . S
C1908 C1913 1.390 . S
C1909 C1903 1.465 . S
C1909 C1908 1.396 . S
C1909 C1910 1.399 . S
C1910 H1896 0.929 . S
C1910 C1909 1.399 . S
C1910 C1911 1.385 . S
C1911 H1897 0.931 . S
C1911 C1910 1.385 . S
C1911 C1912 1.389 . S
C1912 C1911 1.389 . S
C1912 C1913 1.387 . S
C1913 H1898 0.930 . S
C1913 C1908 1.390 . S
C1913 C1912 1.387 . S
H1914 C1926 0.930 . S
H1915 C1928 0.930 . S
H1916 C1929 0.930 . S
H1917 C1933 0.959 . S
H1918 C1933 0.959 . S
H1919 C1933 0.961 . S
H1920 C1934 0.960 . S
H1921 C1934 0.961 . S
H1922 C1934 0.959 . S
H1923 C1937 0.929 . S
H1924 C1938 0.931 . S
H1925 C1940 0.930 . S
C1926 H1914 0.930 . S
C1926 C1927 1.399 . S
C1926 C1931 1.399 . S
C1927 C1926 1.399 . S
C1927 C1928 1.376 . S
C1928 H1915 0.930 . S
C1928 C1927 1.376 . S
C1928 C1929 1.388 . S
C1929 H1916 0.930 . S
C1929 C1928 1.388 . S
C1929 C1930 1.390 . S
C1930 C1929 1.390 . S
C1930 C1931 1.394 . S
C1930 C1936 1.465 . S
C1931 C1926 1.399 . S
C1931 C1930 1.394 . S
C1931 C1932 1.516 . S
C1932 C1931 1.516 . S
C1932 C1933 1.502 . S
C1932 C1934 1.561 . S
C1932 C1935 1.526 . S
C1933 H1917 0.959 . S
C1933 H1918 0.959 . S
C1933 H1919 0.961 . S
C1933 C1932 1.502 . S
C1934 H1920 0.960 . S
C1934 H1921 0.961 . S
C1934 H1922 0.959 . S
C1934 C1932 1.561 . S
C1935 C1932 1.526 . S
C1935 C1936 1.396 . S
C1935 C1940 1.390 . S
C1936 C1930 1.465 . S
C1936 C1935 1.396 . S
C1936 C1937 1.399 . S
C1937 H1923 0.929 . S
C1937 C1936 1.399 . S
C1937 C1938 1.385 . S
C1938 H1924 0.931 . S
C1938 C1937 1.385 . S
C1938 C1939 1.389 . S
C1939 C1938 1.389 . S
C1939 C1940 1.387 . S
C1940 H1925 0.930 . S
C1940 C1935 1.390 . S
C1940 C1939 1.387 . S
H1941 C1953 0.930 . S
H1942 C1955 0.930 . S
H1943 C1956 0.930 . S
H1944 C1960 0.959 . S
H1945 C1960 0.959 . S
H1946 C1960 0.961 . S
H1947 C1961 0.960 . S
H1948 C1961 0.961 . S
H1949 C1961 0.959 . S
H1950 C1964 0.929 . S
H1951 C1965 0.931 . S
H1952 C1967 0.930 . S
C1953 H1941 0.930 . S
C1953 C1954 1.399 . S
C1953 C1958 1.399 . S
C1954 C1953 1.399 . S
C1954 C1955 1.376 . S
C1955 H1942 0.930 . S
C1955 C1954 1.376 . S
C1955 C1956 1.388 . S
C1956 H1943 0.930 . S
C1956 C1955 1.388 . S
C1956 C1957 1.390 . S
C1957 C1956 1.390 . S
C1957 C1958 1.394 . S
C1957 C1963 1.465 . S
C1958 C1953 1.399 . S
C1958 C1957 1.394 . S
C1958 C1959 1.516 . S
C1959 C1958 1.516 . S
C1959 C1960 1.502 . S
C1959 C1961 1.561 . S
C1959 C1962 1.526 . S
C1960 H1944 0.959 . S
C1960 H1945 0.959 . S
C1960 H1946 0.961 . S
C1960 C1959 1.502 . S
C1961 H1947 0.960 . S
C1961 H1948 0.961 . S
C1961 H1949 0.959 . S
C1961 C1959 1.561 . S
C1962 C1959 1.526 . S
C1962 C1963 1.396 . S
C1962 C1967 1.390 . S
C1963 C1957 1.465 . S
C1963 C1962 1.396 . S
C1963 C1964 1.399 . S
C1964 H1950 0.929 . S
C1964 C1963 1.399 . S
C1964 C1965 1.385 . S
C1965 H1951 0.931 . S
C1965 C1964 1.385 . S
C1965 C1966 1.389 . S
C1966 C1965 1.389 . S
C1966 C1967 1.387 . S
C1967 H1952 0.930 . S
C1967 C1962 1.390 . S
C1967 C1966 1.387 . S
H1968 C1980 0.930 . S
H1969 C1982 0.930 . S
H1970 C1983 0.930 . S
H1971 C1987 0.959 . S
H1972 C1987 0.959 . S
H1973 C1987 0.961 . S
H1974 C1988 0.960 . S
H1975 C1988 0.961 . S
H1976 C1988 0.959 . S
H1977 C1991 0.929 . S
H1978 C1992 0.931 . S
H1979 C1994 0.930 . S
C1980 H1968 0.930 . S
C1980 C1981 1.399 . S
C1980 C1985 1.399 . S
C1981 C1980 1.399 . S
C1981 C1982 1.376 . S
C1982 H1969 0.930 . S
C1982 C1981 1.376 . S
C1982 C1983 1.388 . S
C1983 H1970 0.930 . S
C1983 C1982 1.388 . S
C1983 C1984 1.390 . S
C1984 C1983 1.390 . S
C1984 C1985 1.394 . S
C1984 C1990 1.465 . S
C1985 C1980 1.399 . S
C1985 C1984 1.394 . S
C1985 C1986 1.516 . S
C1986 C1985 1.516 . S
C1986 C1987 1.502 . S
C1986 C1988 1.561 . S
C1986 C1989 1.526 . S
C1987 H1971 0.959 . S
C1987 H1972 0.959 . S
C1987 H1973 0.961 . S
C1987 C1986 1.502 . S
C1988 H1974 0.960 . S
C1988 H1975 0.961 . S
C1988 H1976 0.959 . S
C1988 C1986 1.561 . S
C1989 C1986 1.526 . S
C1989 C1990 1.396 . S
C1989 C1994 1.390 . S
C1990 C1984 1.465 . S
C1990 C1989 1.396 . S
C1990 C1991 1.399 . S
C1991 H1977 0.929 . S
C1991 C1990 1.399 . S
C1991 C1992 1.385 . S
C1992 H1978 0.931 . S
C1992 C1991 1.385 . S
C1992 C1993 1.389 . S
C1993 C1992 1.389 . S
C1993 C1994 1.387 . S
C1994 H1979 0.930 . S
C1994 C1989 1.390 . S
C1994 C1993 1.387 . S
H1995 C2007 0.930 . S
H1996 C2009 0.930 . S
H1997 C2010 0.930 . S
H1998 C2014 0.959 . S
H1999 C2014 0.959 . S
H2000 C2014 0.961 . S
H2001 C2015 0.960 . S
H2002 C2015 0.961 . S
H2003 C2015 0.959 . S
H2004 C2018 0.929 . S
H2005 C2019 0.931 . S
H2006 C2021 0.930 . S
C2007 H1995 0.930 . S
C2007 C2008 1.399 . S
C2007 C2012 1.399 . S
C2008 C2007 1.399 . S
C2008 C2009 1.376 . S
C2009 H1996 0.930 . S
C2009 C2008 1.376 . S
C2009 C2010 1.388 . S
C2010 H1997 0.930 . S
C2010 C2009 1.388 . S
C2010 C2011 1.390 . S
C2011 C2010 1.390 . S
C2011 C2012 1.394 . S
C2011 C2017 1.465 . S
C2012 C2007 1.399 . S
C2012 C2011 1.394 . S
C2012 C2013 1.516 . S
C2013 C2012 1.516 . S
C2013 C2014 1.502 . S
C2013 C2015 1.561 . S
C2013 C2016 1.526 . S
C2014 H1998 0.959 . S
C2014 H1999 0.959 . S
C2014 H2000 0.961 . S
C2014 C2013 1.502 . S
C2015 H2001 0.960 . S
C2015 H2002 0.961 . S
C2015 H2003 0.959 . S
C2015 C2013 1.561 . S
C2016 C2013 1.526 . S
C2016 C2017 1.396 . S
C2016 C2021 1.390 . S
C2017 C2011 1.465 . S
C2017 C2016 1.396 . S
C2017 C2018 1.399 . S
C2018 H2004 0.929 . S
C2018 C2017 1.399 . S
C2018 C2019 1.385 . S
C2019 H2005 0.931 . S
C2019 C2018 1.385 . S
C2019 C2020 1.389 . S
C2020 C2019 1.389 . S
C2020 C2021 1.387 . S
C2021 H2006 0.930 . S
C2021 C2016 1.390 . S
C2021 C2020 1.387 . S
H2022 C2034 0.930 . S
H2023 C2036 0.930 . S
H2024 C2037 0.930 . S
H2025 C2041 0.959 . S
H2026 C2041 0.959 . S
H2027 C2041 0.961 . S
H2028 C2042 0.960 . S
H2029 C2042 0.961 1_556 S
H2030 C2042 0.959 1_655 S
H2031 C2045 0.929 . S
H2032 C2046 0.931 . S
H2033 C2048 0.930 . S
C2034 H2022 0.930 . S
C2034 C2035 1.399 . S
C2034 C2039 1.399 . S
C2035 C2034 1.399 . S
C2035 C2036 1.376 1_455 S
C2036 H2023 0.930 . S
C2036 C2035 1.376 1_655 S
C2036 C2037 1.388 . S
C2037 H2024 0.930 . S
C2037 C2036 1.388 . S
C2037 C2038 1.390 . S
C2038 C2037 1.390 . S
C2038 C2039 1.394 1_655 S
C2038 C2044 1.465 . S
C2039 C2034 1.399 . S
C2039 C2038 1.394 1_455 S
C2039 C2040 1.516 . S
C2040 C2039 1.516 . S
C2040 C2041 1.502 . S
C2040 C2042 1.561 . S
C2040 C2043 1.526 . S
C2041 H2025 0.959 . S
C2041 H2026 0.959 . S
C2041 H2027 0.961 . S
C2041 C2040 1.502 . S
C2042 H2028 0.960 . S
C2042 H2029 0.961 1_554 S
C2042 H2030 0.959 1_455 S
C2042 C2040 1.561 . S
C2043 C2040 1.526 . S
C2043 C2044 1.397 1_455 S
C2043 C2048 1.390 . S
C2044 C2038 1.465 . S
C2044 C2043 1.397 1_655 S
C2044 C2045 1.398 . S
C2045 H2031 0.929 . S
C2045 C2044 1.398 . S
C2045 C2046 1.385 . S
C2046 H2032 0.931 . S
C2046 C2045 1.385 . S
C2046 C2047 1.389 1_655 S
C2047 C2046 1.389 1_455 S
C2047 C2048 1.387 . S
C2048 H2033 0.930 . S
C2048 C2043 1.390 . S
C2048 C2047 1.387 . S
H2049 C2061 0.930 . S
H2050 C2063 0.930 . S
H2051 C2064 0.930 . S
H2052 C2068 0.959 . S
H2053 C2068 0.959 . S
H2054 C2068 0.961 . S
H2055 C2069 0.960 . S
H2056 C2069 0.961 . S
H2057 C2069 0.959 . S
H2058 C2072 0.929 . S
H2059 C2073 0.931 . S
H2060 C2075 0.930 . S
C2061 H2049 0.930 . S
C2061 C2062 1.399 . S
C2061 C2066 1.399 . S
C2062 C2061 1.399 . S
C2062 C2063 1.376 . S
C2063 H2050 0.930 . S
C2063 C2062 1.376 . S
C2063 C2064 1.388 . S
C2064 H2051 0.930 . S
C2064 C2063 1.388 . S
C2064 C2065 1.390 . S
C2065 C2064 1.390 . S
C2065 C2066 1.394 . S
C2065 C2071 1.465 . S
C2066 C2061 1.399 . S
C2066 C2065 1.394 . S
C2066 C2067 1.516 . S
C2067 C2066 1.516 . S
C2067 C2068 1.502 . S
C2067 C2069 1.561 . S
C2067 C2070 1.526 . S
C2068 H2052 0.959 . S
C2068 H2053 0.959 . S
C2068 H2054 0.961 . S
C2068 C2067 1.502 . S
C2069 H2055 0.960 . S
C2069 H2056 0.961 . S
C2069 H2057 0.959 . S
C2069 C2067 1.561 . S
C2070 C2067 1.526 . S
C2070 C2071 1.396 . S
C2070 C2075 1.390 . S
C2071 C2065 1.465 . S
C2071 C2070 1.396 . S
C2071 C2072 1.399 . S
C2072 H2058 0.929 . S
C2072 C2071 1.399 . S
C2072 C2073 1.385 . S
C2073 H2059 0.931 . S
C2073 C2072 1.385 . S
C2073 C2074 1.389 . S
C2074 C2073 1.389 . S
C2074 C2075 1.387 . S
C2075 H2060 0.930 . S
C2075 C2070 1.390 . S
C2075 C2074 1.387 . S
H2076 C2088 0.930 . S
H2077 C2090 0.930 . S
H2078 C2091 0.930 . S
H2079 C2095 0.959 . S
H2080 C2095 0.959 . S
H2081 C2095 0.961 . S
H2082 C2096 0.960 . S
H2083 C2096 0.961 . S
H2084 C2096 0.959 . S
H2085 C2099 0.929 . S
H2086 C2100 0.931 . S
H2087 C2102 0.930 . S
C2088 H2076 0.930 . S
C2088 C2089 1.399 . S
C2088 C2093 1.399 . S
C2089 C2088 1.399 . S
C2089 C2090 1.376 . S
C2090 H2077 0.930 . S
C2090 C2089 1.376 . S
C2090 C2091 1.388 . S
C2091 H2078 0.930 . S
C2091 C2090 1.388 . S
C2091 C2092 1.390 . S
C2092 C2091 1.390 . S
C2092 C2093 1.394 . S
C2092 C2098 1.465 . S
C2093 C2088 1.399 . S
C2093 C2092 1.394 . S
C2093 C2094 1.516 . S
C2094 C2093 1.516 . S
C2094 C2095 1.502 . S
C2094 C2096 1.561 . S
C2094 C2097 1.526 . S
C2095 H2079 0.959 . S
C2095 H2080 0.959 . S
C2095 H2081 0.961 . S
C2095 C2094 1.502 . S
C2096 H2082 0.960 . S
C2096 H2083 0.961 . S
C2096 H2084 0.959 . S
C2096 C2094 1.561 . S
C2097 C2094 1.526 . S
C2097 C2098 1.396 . S
C2097 C2102 1.390 . S
C2098 C2092 1.465 . S
C2098 C2097 1.396 . S
C2098 C2099 1.399 . S
C2099 H2085 0.929 . S
C2099 C2098 1.399 . S
C2099 C2100 1.385 . S
C2100 H2086 0.931 . S
C2100 C2099 1.385 . S
C2100 C2101 1.389 . S
C2101 C2100 1.389 . S
C2101 C2102 1.387 . S
C2102 H2087 0.930 . S
C2102 C2097 1.390 . S
C2102 C2101 1.387 . S
H2103 C2115 0.930 . S
H2104 C2117 0.930 . S
H2105 C2118 0.930 . S
H2106 C2122 0.959 . S
H2107 C2122 0.959 . S
H2108 C2122 0.961 . S
H2109 C2123 0.960 . S
H2110 C2123 0.961 . S
H2111 C2123 0.959 . S
H2112 C2126 0.929 . S
H2113 C2127 0.931 . S
H2114 C2129 0.930 . S
C2115 H2103 0.930 . S
C2115 C2116 1.399 . S
C2115 C2120 1.399 . S
C2116 C2115 1.399 . S
C2116 C2117 1.376 . S
C2117 H2104 0.930 . S
C2117 C2116 1.376 . S
C2117 C2118 1.388 . S
C2118 H2105 0.930 . S
C2118 C2117 1.388 . S
C2118 C2119 1.390 . S
C2119 C2118 1.390 . S
C2119 C2120 1.394 . S
C2119 C2125 1.465 . S
C2120 C2115 1.399 . S
C2120 C2119 1.394 . S
C2120 C2121 1.516 . S
C2121 C2120 1.516 . S
C2121 C2122 1.502 . S
C2121 C2123 1.561 . S
C2121 C2124 1.526 . S
C2122 H2106 0.959 . S
C2122 H2107 0.959 . S
C2122 H2108 0.961 . S
C2122 C2121 1.502 . S
C2123 H2109 0.960 . S
C2123 H2110 0.961 . S
C2123 H2111 0.959 . S
C2123 C2121 1.561 . S
C2124 C2121 1.526 . S
C2124 C2125 1.396 . S
C2124 C2129 1.390 . S
C2125 C2119 1.465 . S
C2125 C2124 1.396 . S
C2125 C2126 1.399 . S
C2126 H2112 0.929 . S
C2126 C2125 1.399 . S
C2126 C2127 1.385 . S
C2127 H2113 0.931 . S
C2127 C2126 1.385 . S
C2127 C2128 1.389 . S
C2128 C2127 1.389 . S
C2128 C2129 1.387 . S
C2129 H2114 0.930 . S
C2129 C2124 1.390 . S
C2129 C2128 1.387 . S
H2130 C2142 0.930 . S
H2131 C2144 0.930 . S
H2132 C2145 0.930 . S
H2133 C2149 0.959 . S
H2134 C2149 0.959 . S
H2135 C2149 0.961 . S
H2136 C2150 0.960 . S
H2137 C2150 0.961 . S
H2138 C2150 0.959 1_455 S
H2139 C2153 0.929 . S
H2140 C2154 0.931 . S
H2141 C2156 0.930 1_655 S
C2142 H2130 0.930 . S
C2142 C2143 1.399 1_655 S
C2142 C2147 1.399 1_655 S
C2143 C2142 1.399 1_455 S
C2143 C2144 1.376 . S
C2144 H2131 0.930 . S
C2144 C2143 1.376 . S
C2144 C2145 1.388 . S
C2145 H2132 0.930 . S
C2145 C2144 1.388 . S
C2145 C2146 1.390 . S
C2146 C2145 1.390 . S
C2146 C2147 1.394 . S
C2146 C2152 1.465 . S
C2147 C2142 1.399 1_455 S
C2147 C2146 1.394 . S
C2147 C2148 1.516 1_455 S
C2148 C2147 1.516 1_655 S
C2148 C2149 1.502 . S
C2148 C2150 1.561 . S
C2148 C2151 1.526 1_655 S
C2149 H2133 0.959 . S
C2149 H2134 0.959 . S
C2149 H2135 0.961 . S
C2149 C2148 1.502 . S
C2150 H2136 0.960 . S
C2150 H2137 0.961 . S
C2150 H2138 0.959 1_655 S
C2150 C2148 1.561 . S
C2151 C2148 1.526 1_455 S
C2151 C2152 1.396 . S
C2151 C2156 1.390 . S
C2152 C2146 1.465 . S
C2152 C2151 1.396 . S
C2152 C2153 1.399 . S
C2153 H2139 0.929 . S
C2153 C2152 1.399 . S
C2153 C2154 1.385 . S
C2154 H2140 0.931 . S
C2154 C2153 1.385 . S
C2154 C2155 1.389 . S
C2155 C2154 1.389 . S
C2155 C2156 1.387 . S
C2156 H2141 0.930 1_455 S
C2156 C2151 1.390 . S
C2156 C2155 1.387 . S
H2157 C2169 0.930 . S
H2158 C2171 0.930 . S
H2159 C2172 0.930 . S
H2160 C2176 0.959 . S
H2161 C2176 0.959 . S
H2162 C2176 0.961 . S
H2163 C2177 0.960 . S
H2164 C2177 0.961 . S
H2165 C2177 0.959 . S
H2166 C2180 0.929 . S
H2167 C2181 0.931 . S
H2168 C2183 0.930 . S
C2169 H2157 0.930 . S
C2169 C2170 1.399 . S
C2169 C2174 1.399 . S
C2170 C2169 1.399 . S
C2170 C2171 1.376 . S
C2171 H2158 0.930 . S
C2171 C2170 1.376 . S
C2171 C2172 1.388 . S
C2172 H2159 0.930 . S
C2172 C2171 1.388 . S
C2172 C2173 1.390 . S
C2173 C2172 1.390 . S
C2173 C2174 1.394 . S
C2173 C2179 1.465 . S
C2174 C2169 1.399 . S
C2174 C2173 1.394 . S
C2174 C2175 1.516 . S
C2175 C2174 1.516 . S
C2175 C2176 1.502 . S
C2175 C2177 1.561 . S
C2175 C2178 1.526 . S
C2176 H2160 0.959 . S
C2176 H2161 0.959 . S
C2176 H2162 0.961 . S
C2176 C2175 1.502 . S
C2177 H2163 0.960 . S
C2177 H2164 0.961 . S
C2177 H2165 0.959 . S
C2177 C2175 1.561 . S
C2178 C2175 1.526 . S
C2178 C2179 1.396 . S
C2178 C2183 1.390 . S
C2179 C2173 1.465 . S
C2179 C2178 1.396 . S
C2179 C2180 1.399 . S
C2180 H2166 0.929 . S
C2180 C2179 1.399 . S
C2180 C2181 1.385 . S
C2181 H2167 0.931 . S
C2181 C2180 1.385 . S
C2181 C2182 1.389 . S
C2182 C2181 1.389 . S
C2182 C2183 1.387 . S
C2183 H2168 0.930 . S
C2183 C2178 1.390 . S
C2183 C2182 1.387 . S
H2184 C2196 0.930 . S
H2185 C2198 0.930 . S
H2186 C2199 0.930 . S
H2187 C2203 0.959 . S
H2188 C2203 0.959 . S
H2189 C2203 0.961 . S
H2190 C2204 0.960 . S
H2191 C2204 0.961 . S
H2192 C2204 0.959 . S
H2193 C2207 0.929 . S
H2194 C2208 0.931 . S
H2195 C2210 0.930 . S
C2196 H2184 0.930 . S
C2196 C2197 1.399 . S
C2196 C2201 1.399 . S
C2197 C2196 1.399 . S
C2197 C2198 1.376 . S
C2198 H2185 0.930 . S
C2198 C2197 1.376 . S
C2198 C2199 1.388 . S
C2199 H2186 0.930 . S
C2199 C2198 1.388 . S
C2199 C2200 1.390 . S
C2200 C2199 1.390 . S
C2200 C2201 1.394 . S
C2200 C2206 1.465 . S
C2201 C2196 1.399 . S
C2201 C2200 1.394 . S
C2201 C2202 1.516 . S
C2202 C2201 1.516 . S
C2202 C2203 1.502 . S
C2202 C2204 1.561 . S
C2202 C2205 1.526 . S
C2203 H2187 0.959 . S
C2203 H2188 0.959 . S
C2203 H2189 0.961 . S
C2203 C2202 1.502 . S
C2204 H2190 0.960 . S
C2204 H2191 0.961 . S
C2204 H2192 0.959 . S
C2204 C2202 1.561 . S
C2205 C2202 1.526 . S
C2205 C2206 1.396 . S
C2205 C2210 1.390 . S
C2206 C2200 1.465 . S
C2206 C2205 1.396 . S
C2206 C2207 1.399 . S
C2207 H2193 0.929 . S
C2207 C2206 1.399 . S
C2207 C2208 1.385 . S
C2208 H2194 0.931 . S
C2208 C2207 1.385 . S
C2208 C2209 1.389 . S
C2209 C2208 1.389 . S
C2209 C2210 1.387 . S
C2210 H2195 0.930 . S
C2210 C2205 1.390 . S
C2210 C2209 1.387 . S
H2211 C2223 0.930 . S
H2212 C2225 0.930 . S
H2213 C2226 0.930 . S
H2214 C2230 0.959 . S
H2215 C2230 0.959 . S
H2216 C2230 0.961 . S
H2217 C2231 0.960 . S
H2218 C2231 0.961 . S
H2219 C2231 0.959 . S
H2220 C2234 0.929 . S
H2221 C2235 0.931 . S
H2222 C2237 0.930 . S
C2223 H2211 0.930 . S
C2223 C2224 1.399 . S
C2223 C2228 1.399 . S
C2224 C2223 1.399 . S
C2224 C2225 1.376 . S
C2225 H2212 0.930 . S
C2225 C2224 1.376 . S
C2225 C2226 1.388 . S
C2226 H2213 0.930 . S
C2226 C2225 1.388 . S
C2226 C2227 1.390 . S
C2227 C2226 1.390 . S
C2227 C2228 1.394 . S
C2227 C2233 1.465 . S
C2228 C2223 1.399 . S
C2228 C2227 1.394 . S
C2228 C2229 1.516 . S
C2229 C2228 1.516 . S
C2229 C2230 1.502 . S
C2229 C2231 1.561 . S
C2229 C2232 1.526 . S
C2230 H2214 0.959 . S
C2230 H2215 0.959 . S
C2230 H2216 0.961 . S
C2230 C2229 1.502 . S
C2231 H2217 0.960 . S
C2231 H2218 0.961 . S
C2231 H2219 0.959 . S
C2231 C2229 1.561 . S
C2232 C2229 1.526 . S
C2232 C2233 1.396 . S
C2232 C2237 1.390 . S
C2233 C2227 1.465 . S
C2233 C2232 1.396 . S
C2233 C2234 1.399 . S
C2234 H2220 0.929 . S
C2234 C2233 1.399 . S
C2234 C2235 1.385 . S
C2235 H2221 0.931 . S
C2235 C2234 1.385 . S
C2235 C2236 1.389 . S
C2236 C2235 1.389 . S
C2236 C2237 1.387 . S
C2237 H2222 0.930 . S
C2237 C2232 1.390 . S
C2237 C2236 1.387 . S
H2238 C2250 0.930 . S
H2239 C2252 0.930 . S
H2240 C2253 0.930 . S
H2241 C2257 0.959 . S
H2242 C2257 0.959 . S
H2243 C2257 0.961 . S
H2244 C2258 0.960 . S
H2245 C2258 0.961 . S
H2246 C2258 0.959 . S
H2247 C2261 0.929 . S
H2248 C2262 0.931 1_455 S
H2249 C2264 0.930 . S
C2250 H2238 0.930 . S
C2250 C2251 1.399 . S
C2250 C2255 1.399 . S
C2251 C2250 1.399 . S
C2251 C2252 1.376 . S
C2252 H2239 0.930 . S
C2252 C2251 1.376 . S
C2252 C2253 1.388 . S
C2253 H2240 0.930 . S
C2253 C2252 1.388 . S
C2253 C2254 1.390 . S
C2254 C2253 1.390 . S
C2254 C2255 1.394 . S
C2254 C2260 1.465 . S
C2255 C2250 1.399 . S
C2255 C2254 1.394 . S
C2255 C2256 1.516 . S
C2256 C2255 1.516 . S
C2256 C2257 1.502 . S
C2256 C2258 1.561 . S
C2256 C2259 1.526 . S
C2257 H2241 0.959 . S
C2257 H2242 0.959 . S
C2257 H2243 0.961 . S
C2257 C2256 1.502 . S
C2258 H2244 0.960 . S
C2258 H2245 0.961 . S
C2258 H2246 0.959 . S
C2258 C2256 1.561 . S
C2259 C2256 1.526 . S
C2259 C2260 1.396 . S
C2259 C2264 1.390 . S
C2260 C2254 1.465 . S
C2260 C2259 1.396 . S
C2260 C2261 1.399 . S
C2261 H2247 0.929 . S
C2261 C2260 1.399 . S
C2261 C2262 1.385 . S
C2262 H2248 0.931 1_655 S
C2262 C2261 1.385 . S
C2262 C2263 1.389 . S
C2263 C2262 1.389 . S
C2263 C2264 1.387 . S
C2264 H2249 0.930 . S
C2264 C2259 1.390 . S
C2264 C2263 1.387 . S
H2265 C2277 0.930 . S
H2266 C2279 0.930 . S
H2267 C2280 0.930 . S
H2268 C2284 0.959 . S
H2269 C2284 0.959 . S
H2270 C2284 0.961 . S
H2271 C2285 0.960 . S
H2272 C2285 0.961 . S
H2273 C2285 0.959 . S
H2274 C2288 0.929 . S
H2275 C2289 0.931 . S
H2276 C2291 0.930 . S
C2277 H2265 0.930 . S
C2277 C2278 1.399 . S
C2277 C2282 1.399 . S
C2278 C2277 1.399 . S
C2278 C2279 1.376 . S
C2279 H2266 0.930 . S
C2279 C2278 1.376 . S
C2279 C2280 1.388 . S
C2280 H2267 0.930 . S
C2280 C2279 1.388 . S
C2280 C2281 1.390 . S
C2281 C2280 1.390 . S
C2281 C2282 1.394 . S
C2281 C2287 1.465 . S
C2282 C2277 1.399 . S
C2282 C2281 1.394 . S
C2282 C2283 1.516 . S
C2283 C2282 1.516 . S
C2283 C2284 1.502 . S
C2283 C2285 1.561 . S
C2283 C2286 1.526 . S
C2284 H2268 0.959 . S
C2284 H2269 0.959 . S
C2284 H2270 0.961 . S
C2284 C2283 1.502 . S
C2285 H2271 0.960 . S
C2285 H2272 0.961 . S
C2285 H2273 0.959 . S
C2285 C2283 1.561 . S
C2286 C2283 1.526 . S
C2286 C2287 1.396 . S
C2286 C2291 1.390 . S
C2287 C2281 1.465 . S
C2287 C2286 1.396 . S
C2287 C2288 1.399 . S
C2288 H2274 0.929 . S
C2288 C2287 1.399 . S
C2288 C2289 1.385 . S
C2289 H2275 0.931 . S
C2289 C2288 1.385 . S
C2289 C2290 1.389 . S
C2290 C2289 1.389 . S
C2290 C2291 1.387 . S
C2291 H2276 0.930 . S
C2291 C2286 1.390 . S
C2291 C2290 1.387 . S
H2292 C2304 0.930 . S
H2293 C2306 0.930 . S
H2294 C2307 0.930 . S
H2295 C2311 0.959 . S
H2296 C2311 0.959 . S
H2297 C2311 0.961 . S
H2298 C2312 0.960 . S
H2299 C2312 0.961 . S
H2300 C2312 0.959 . S
H2301 C2315 0.929 . S
H2302 C2316 0.931 . S
H2303 C2318 0.930 . S
C2304 H2292 0.930 . S
C2304 C2305 1.399 . S
C2304 C2309 1.399 . S
C2305 C2304 1.399 . S
C2305 C2306 1.376 . S
C2306 H2293 0.930 . S
C2306 C2305 1.376 . S
C2306 C2307 1.388 . S
C2307 H2294 0.930 . S
C2307 C2306 1.388 . S
C2307 C2308 1.390 . S
C2308 C2307 1.390 . S
C2308 C2309 1.394 . S
C2308 C2314 1.465 . S
C2309 C2304 1.399 . S
C2309 C2308 1.394 . S
C2309 C2310 1.516 . S
C2310 C2309 1.516 . S
C2310 C2311 1.502 . S
C2310 C2312 1.561 . S
C2310 C2313 1.526 . S
C2311 H2295 0.959 . S
C2311 H2296 0.959 . S
C2311 H2297 0.961 . S
C2311 C2310 1.502 . S
C2312 H2298 0.960 . S
C2312 H2299 0.961 . S
C2312 H2300 0.959 . S
C2312 C2310 1.561 . S
C2313 C2310 1.526 . S
C2313 C2314 1.396 . S
C2313 C2318 1.390 . S
C2314 C2308 1.465 . S
C2314 C2313 1.396 . S
C2314 C2315 1.399 . S
C2315 H2301 0.929 . S
C2315 C2314 1.399 . S
C2315 C2316 1.385 . S
C2316 H2302 0.931 . S
C2316 C2315 1.385 . S
C2316 C2317 1.389 . S
C2317 C2316 1.389 . S
C2317 C2318 1.387 . S
C2318 H2303 0.930 . S
C2318 C2313 1.390 . S
C2318 C2317 1.387 . S
H2319 C2331 0.930 . S
H2320 C2333 0.930 . S
H2321 C2334 0.930 . S
H2322 C2338 0.959 . S
H2323 C2338 0.959 . S
H2324 C2338 0.961 . S
H2325 C2339 0.960 . S
H2326 C2339 0.961 . S
H2327 C2339 0.959 . S
H2328 C2342 0.929 . S
H2329 C2343 0.931 . S
H2330 C2345 0.930 . S
C2331 H2319 0.930 . S
C2331 C2332 1.399 . S
C2331 C2336 1.399 . S
C2332 C2331 1.399 . S
C2332 C2333 1.376 . S
C2333 H2320 0.930 . S
C2333 C2332 1.376 . S
C2333 C2334 1.388 . S
C2334 H2321 0.930 . S
C2334 C2333 1.388 . S
C2334 C2335 1.390 . S
C2335 C2334 1.390 . S
C2335 C2336 1.394 . S
C2335 C2341 1.465 . S
C2336 C2331 1.399 . S
C2336 C2335 1.394 . S
C2336 C2337 1.516 . S
C2337 C2336 1.516 . S
C2337 C2338 1.502 . S
C2337 C2339 1.561 . S
C2337 C2340 1.526 . S
C2338 H2322 0.959 . S
C2338 H2323 0.959 . S
C2338 H2324 0.961 . S
C2338 C2337 1.502 . S
C2339 H2325 0.960 . S
C2339 H2326 0.961 . S
C2339 H2327 0.959 . S
C2339 C2337 1.561 . S
C2340 C2337 1.526 . S
C2340 C2341 1.396 . S
C2340 C2345 1.390 . S
C2341 C2335 1.465 . S
C2341 C2340 1.396 . S
C2341 C2342 1.399 . S
C2342 H2328 0.929 . S
C2342 C2341 1.399 . S
C2342 C2343 1.385 . S
C2343 H2329 0.931 . S
C2343 C2342 1.385 . S
C2343 C2344 1.389 . S
C2344 C2343 1.389 . S
C2344 C2345 1.387 . S
C2345 H2330 0.930 . S
C2345 C2340 1.390 . S
C2345 C2344 1.387 . S
H2346 C2358 0.930 . S
H2347 C2360 0.930 . S
H2348 C2361 0.930 . S
H2349 C2365 0.959 . S
H2350 C2365 0.959 . S
H2351 C2365 0.961 . S
H2352 C2366 0.960 . S
H2353 C2366 0.961 . S
H2354 C2366 0.959 . S
H2355 C2369 0.929 . S
H2356 C2370 0.931 . S
H2357 C2372 0.930 . S
C2358 H2346 0.930 . S
C2358 C2359 1.399 . S
C2358 C2363 1.399 . S
C2359 C2358 1.399 . S
C2359 C2360 1.376 . S
C2360 H2347 0.930 . S
C2360 C2359 1.376 . S
C2360 C2361 1.388 . S
C2361 H2348 0.930 . S
C2361 C2360 1.388 . S
C2361 C2362 1.390 . S
C2362 C2361 1.390 . S
C2362 C2363 1.394 . S
C2362 C2368 1.465 . S
C2363 C2358 1.399 . S
C2363 C2362 1.394 . S
C2363 C2364 1.516 . S
C2364 C2363 1.516 . S
C2364 C2365 1.502 . S
C2364 C2366 1.561 . S
C2364 C2367 1.526 . S
C2365 H2349 0.959 . S
C2365 H2350 0.959 . S
C2365 H2351 0.961 . S
C2365 C2364 1.502 . S
C2366 H2352 0.960 . S
C2366 H2353 0.961 . S
C2366 H2354 0.959 . S
C2366 C2364 1.561 . S
C2367 C2364 1.526 . S
C2367 C2368 1.396 . S
C2367 C2372 1.390 . S
C2368 C2362 1.465 . S
C2368 C2367 1.396 . S
C2368 C2369 1.399 . S
C2369 H2355 0.929 . S
C2369 C2368 1.399 . S
C2369 C2370 1.385 . S
C2370 H2356 0.931 . S
C2370 C2369 1.385 . S
C2370 C2371 1.389 . S
C2371 C2370 1.389 . S
C2371 C2372 1.387 . S
C2372 H2357 0.930 . S
C2372 C2367 1.390 . S
C2372 C2371 1.387 . S
H2373 C2385 0.930 . S
H2374 C2387 0.930 . S
H2375 C2388 0.930 . S
H2376 C2392 0.959 . S
H2377 C2392 0.959 . S
H2378 C2392 0.961 . S
H2379 C2393 0.960 . S
H2380 C2393 0.961 . S
H2381 C2393 0.959 . S
H2382 C2396 0.929 . S
H2383 C2397 0.931 . S
H2384 C2399 0.930 . S
C2385 H2373 0.930 . S
C2385 C2386 1.399 . S
C2385 C2390 1.399 . S
C2386 C2385 1.399 . S
C2386 C2387 1.376 . S
C2387 H2374 0.930 . S
C2387 C2386 1.376 . S
C2387 C2388 1.388 . S
C2388 H2375 0.930 . S
C2388 C2387 1.388 . S
C2388 C2389 1.390 . S
C2389 C2388 1.390 . S
C2389 C2390 1.394 . S
C2389 C2395 1.465 . S
C2390 C2385 1.399 . S
C2390 C2389 1.394 . S
C2390 C2391 1.516 . S
C2391 C2390 1.516 . S
C2391 C2392 1.502 . S
C2391 C2393 1.561 . S
C2391 C2394 1.526 . S
C2392 H2376 0.959 . S
C2392 H2377 0.959 . S
C2392 H2378 0.961 . S
C2392 C2391 1.502 . S
C2393 H2379 0.960 . S
C2393 H2380 0.961 . S
C2393 H2381 0.959 . S
C2393 C2391 1.561 . S
C2394 C2391 1.526 . S
C2394 C2395 1.396 . S
C2394 C2399 1.390 . S
C2395 C2389 1.465 . S
C2395 C2394 1.396 . S
C2395 C2396 1.399 . S
C2396 H2382 0.929 . S
C2396 C2395 1.399 . S
C2396 C2397 1.385 . S
C2397 H2383 0.931 . S
C2397 C2396 1.385 . S
C2397 C2398 1.389 . S
C2398 C2397 1.389 . S
C2398 C2399 1.387 . S
C2399 H2384 0.930 . S
C2399 C2394 1.390 . S
C2399 C2398 1.387 . S
H2400 C2412 0.930 . S
H2401 C2414 0.930 . S
H2402 C2415 0.930 . S
H2403 C2419 0.959 . S
H2404 C2419 0.959 . S
H2405 C2419 0.961 . S
H2406 C2420 0.960 . S
H2407 C2420 0.961 . S
H2408 C2420 0.959 . S
H2409 C2423 0.929 . S
H2410 C2424 0.931 . S
H2411 C2426 0.930 . S
C2412 H2400 0.930 . S
C2412 C2413 1.399 . S
C2412 C2417 1.399 . S
C2413 C2412 1.399 . S
C2413 C2414 1.376 . S
C2414 H2401 0.930 . S
C2414 C2413 1.376 . S
C2414 C2415 1.388 . S
C2415 H2402 0.930 . S
C2415 C2414 1.388 . S
C2415 C2416 1.390 . S
C2416 C2415 1.390 . S
C2416 C2417 1.394 . S
C2416 C2422 1.465 . S
C2417 C2412 1.399 . S
C2417 C2416 1.394 . S
C2417 C2418 1.516 . S
C2418 C2417 1.516 . S
C2418 C2419 1.502 . S
C2418 C2420 1.561 . S
C2418 C2421 1.526 . S
C2419 H2403 0.959 . S
C2419 H2404 0.959 . S
C2419 H2405 0.961 . S
C2419 C2418 1.502 . S
C2420 H2406 0.960 . S
C2420 H2407 0.961 . S
C2420 H2408 0.959 . S
C2420 C2418 1.561 . S
C2421 C2418 1.526 . S
C2421 C2422 1.396 . S
C2421 C2426 1.390 . S
C2422 C2416 1.465 . S
C2422 C2421 1.396 . S
C2422 C2423 1.399 . S
C2423 H2409 0.929 . S
C2423 C2422 1.399 . S
C2423 C2424 1.385 . S
C2424 H2410 0.931 . S
C2424 C2423 1.385 . S
C2424 C2425 1.389 . S
C2425 C2424 1.389 . S
C2425 C2426 1.387 . S
C2426 H2411 0.930 . S
C2426 C2421 1.390 . S
C2426 C2425 1.387 . S
H2427 C2439 0.930 . S
H2428 C2441 0.930 . S
H2429 C2442 0.930 . S
H2430 C2446 0.959 . S
H2431 C2446 0.959 . S
H2432 C2446 0.961 . S
H2433 C2447 0.960 . S
H2434 C2447 0.961 . S
H2435 C2447 0.959 . S
H2436 C2450 0.929 . S
H2437 C2451 0.931 . S
H2438 C2453 0.930 . S
C2439 H2427 0.930 . S
C2439 C2440 1.399 . S
C2439 C2444 1.399 . S
C2440 C2439 1.399 . S
C2440 C2441 1.376 . S
C2441 H2428 0.930 . S
C2441 C2440 1.376 . S
C2441 C2442 1.388 . S
C2442 H2429 0.930 . S
C2442 C2441 1.388 . S
C2442 C2443 1.390 . S
C2443 C2442 1.390 . S
C2443 C2444 1.394 . S
C2443 C2449 1.465 . S
C2444 C2439 1.399 . S
C2444 C2443 1.394 . S
C2444 C2445 1.516 . S
C2445 C2444 1.516 . S
C2445 C2446 1.502 . S
C2445 C2447 1.561 . S
C2445 C2448 1.526 . S
C2446 H2430 0.959 . S
C2446 H2431 0.959 . S
C2446 H2432 0.961 . S
C2446 C2445 1.502 . S
C2447 H2433 0.960 . S
C2447 H2434 0.961 . S
C2447 H2435 0.959 . S
C2447 C2445 1.561 . S
C2448 C2445 1.526 . S
C2448 C2449 1.396 . S
C2448 C2453 1.390 . S
C2449 C2443 1.465 . S
C2449 C2448 1.396 . S
C2449 C2450 1.399 . S
C2450 H2436 0.929 . S
C2450 C2449 1.399 . S
C2450 C2451 1.385 . S
C2451 H2437 0.931 . S
C2451 C2450 1.385 . S
C2451 C2452 1.389 . S
C2452 C2451 1.389 . S
C2452 C2453 1.387 . S
C2453 H2438 0.930 . S
C2453 C2448 1.390 . S
C2453 C2452 1.387 . S
H2454 C2466 0.930 . S
H2455 C2468 0.930 . S
H2456 C2469 0.930 . S
H2457 C2473 0.959 . S
H2458 C2473 0.959 . S
H2459 C2473 0.961 . S
H2460 C2474 0.960 . S
H2461 C2474 0.961 . S
H2462 C2474 0.959 . S
H2463 C2477 0.929 . S
H2464 C2478 0.931 . S
H2465 C2480 0.930 . S
C2466 H2454 0.930 . S
C2466 C2467 1.399 . S
C2466 C2471 1.399 . S
C2467 C2466 1.399 . S
C2467 C2468 1.376 . S
C2468 H2455 0.930 . S
C2468 C2467 1.376 . S
C2468 C2469 1.388 . S
C2469 H2456 0.930 . S
C2469 C2468 1.388 . S
C2469 C2470 1.390 . S
C2470 C2469 1.390 . S
C2470 C2471 1.394 . S
C2470 C2476 1.465 . S
C2471 C2466 1.399 . S
C2471 C2470 1.394 . S
C2471 C2472 1.516 . S
C2472 C2471 1.516 . S
C2472 C2473 1.502 . S
C2472 C2474 1.561 . S
C2472 C2475 1.526 . S
C2473 H2457 0.959 . S
C2473 H2458 0.959 . S
C2473 H2459 0.961 . S
C2473 C2472 1.502 . S
C2474 H2460 0.960 . S
C2474 H2461 0.961 . S
C2474 H2462 0.959 . S
C2474 C2472 1.561 . S
C2475 C2472 1.526 . S
C2475 C2476 1.396 . S
C2475 C2480 1.390 . S
C2476 C2470 1.465 . S
C2476 C2475 1.396 . S
C2476 C2477 1.399 . S
C2477 H2463 0.929 . S
C2477 C2476 1.399 . S
C2477 C2478 1.385 . S
C2478 H2464 0.931 . S
C2478 C2477 1.385 . S
C2478 C2479 1.389 . S
C2479 C2478 1.389 . S
C2479 C2480 1.387 . S
C2480 H2465 0.930 . S
C2480 C2475 1.390 . S
C2480 C2479 1.387 . S
H2481 C2493 0.930 . S
H2482 C2495 0.930 . S
H2483 C2496 0.930 . S
H2484 C2500 0.959 . S
H2485 C2500 0.959 . S
H2486 C2500 0.961 . S
H2487 C2501 0.960 . S
H2488 C2501 0.961 . S
H2489 C2501 0.959 . S
H2490 C2504 0.929 . S
H2491 C2505 0.931 . S
H2492 C2507 0.930 . S
C2493 H2481 0.930 . S
C2493 C2494 1.399 . S
C2493 C2498 1.399 . S
C2494 C2493 1.399 . S
C2494 C2495 1.376 1_554 S
C2495 H2482 0.930 . S
C2495 C2494 1.376 1_556 S
C2495 C2496 1.388 . S
C2496 H2483 0.930 . S
C2496 C2495 1.388 . S
C2496 C2497 1.390 . S
C2497 C2496 1.390 . S
C2497 C2498 1.394 1_556 S
C2497 C2503 1.465 . S
C2498 C2493 1.399 . S
C2498 C2497 1.394 1_554 S
C2498 C2499 1.516 . S
C2499 C2498 1.516 . S
C2499 C2500 1.502 . S
C2499 C2501 1.561 . S
C2499 C2502 1.526 . S
C2500 H2484 0.959 . S
C2500 H2485 0.959 . S
C2500 H2486 0.961 . S
C2500 C2499 1.502 . S
C2501 H2487 0.960 . S
C2501 H2488 0.961 . S
C2501 H2489 0.959 . S
C2501 C2499 1.561 . S
C2502 C2499 1.526 . S
C2502 C2503 1.396 1_554 S
C2502 C2507 1.390 . S
C2503 C2497 1.465 . S
C2503 C2502 1.396 1_556 S
C2503 C2504 1.399 . S
C2504 H2490 0.929 . S
C2504 C2503 1.399 . S
C2504 C2505 1.385 . S
C2505 H2491 0.931 . S
C2505 C2504 1.385 . S
C2505 C2506 1.389 1_556 S
C2506 C2505 1.389 1_554 S
C2506 C2507 1.387 . S
C2507 H2492 0.930 . S
C2507 C2502 1.390 . S
C2507 C2506 1.387 . S
H2508 C2520 0.930 . S
H2509 C2522 0.930 . S
H2510 C2523 0.930 . S
H2511 C2527 0.959 . S
H2512 C2527 0.959 . S
H2513 C2527 0.961 . S
H2514 C2528 0.960 . S
H2515 C2528 0.961 . S
H2516 C2528 0.959 . S
H2517 C2531 0.929 . S
H2518 C2532 0.931 . S
H2519 C2534 0.930 . S
C2520 H2508 0.930 . S
C2520 C2521 1.399 . S
C2520 C2525 1.399 . S
C2521 C2520 1.399 . S
C2521 C2522 1.376 . S
C2522 H2509 0.930 . S
C2522 C2521 1.376 . S
C2522 C2523 1.388 . S
C2523 H2510 0.930 . S
C2523 C2522 1.388 . S
C2523 C2524 1.390 . S
C2524 C2523 1.390 . S
C2524 C2525 1.394 . S
C2524 C2530 1.465 . S
C2525 C2520 1.399 . S
C2525 C2524 1.394 . S
C2525 C2526 1.516 . S
C2526 C2525 1.516 . S
C2526 C2527 1.502 . S
C2526 C2528 1.561 . S
C2526 C2529 1.526 . S
C2527 H2511 0.959 . S
C2527 H2512 0.959 . S
C2527 H2513 0.961 . S
C2527 C2526 1.502 . S
C2528 H2514 0.960 . S
C2528 H2515 0.961 . S
C2528 H2516 0.959 . S
C2528 C2526 1.561 . S
C2529 C2526 1.526 . S
C2529 C2530 1.396 . S
C2529 C2534 1.390 . S
C2530 C2524 1.465 . S
C2530 C2529 1.396 . S
C2530 C2531 1.399 . S
C2531 H2517 0.929 . S
C2531 C2530 1.399 . S
C2531 C2532 1.385 . S
C2532 H2518 0.931 . S
C2532 C2531 1.385 . S
C2532 C2533 1.389 . S
C2533 C2532 1.389 . S
C2533 C2534 1.387 . S
C2534 H2519 0.930 . S
C2534 C2529 1.390 . S
C2534 C2533 1.387 . S
H2535 C2547 0.930 . S
H2536 C2549 0.930 . S
H2537 C2550 0.930 . S
H2538 C2554 0.959 1_554 S
H2539 C2554 0.959 . S
H2540 C2554 0.961 . S
H2541 C2555 0.960 . S
H2542 C2555 0.961 . S
H2543 C2555 0.959 . S
H2544 C2558 0.929 . S
H2545 C2559 0.931 . S
H2546 C2561 0.930 . S
C2547 H2535 0.930 . S
C2547 C2548 1.399 1_556 S
C2547 C2552 1.399 . S
C2548 C2547 1.399 1_554 S
C2548 C2549 1.376 . S
C2549 H2536 0.930 . S
C2549 C2548 1.376 . S
C2549 C2550 1.388 . S
C2550 H2537 0.930 . S
C2550 C2549 1.388 . S
C2550 C2551 1.390 . S
C2551 C2550 1.390 . S
C2551 C2552 1.394 1_554 S
C2551 C2557 1.465 . S
C2552 C2547 1.399 . S
C2552 C2551 1.394 1_556 S
C2552 C2553 1.516 . S
C2553 C2552 1.516 . S
C2553 C2554 1.502 . S
C2553 C2555 1.561 . S
C2553 C2556 1.526 . S
C2554 H2538 0.959 1_556 S
C2554 H2539 0.959 . S
C2554 H2540 0.961 . S
C2554 C2553 1.502 . S
C2555 H2541 0.960 . S
C2555 H2542 0.961 . S
C2555 H2543 0.959 . S
C2555 C2553 1.561 . S
C2556 C2553 1.526 . S
C2556 C2557 1.396 1_556 S
C2556 C2561 1.390 . S
C2557 C2551 1.465 . S
C2557 C2556 1.396 1_554 S
C2557 C2558 1.399 . S
C2558 H2544 0.929 . S
C2558 C2557 1.399 . S
C2558 C2559 1.385 . S
C2559 H2545 0.931 . S
C2559 C2558 1.385 . S
C2559 C2560 1.389 1_554 S
C2560 C2559 1.389 1_556 S
C2560 C2561 1.387 . S
C2561 H2546 0.930 . S
C2561 C2556 1.390 . S
C2561 C2560 1.387 . S
H2562 C2574 0.930 . S
H2563 C2576 0.930 . S
H2564 C2577 0.930 . S
H2565 C2581 0.959 . S
H2566 C2581 0.959 . S
H2567 C2581 0.961 . S
H2568 C2582 0.960 . S
H2569 C2582 0.961 . S
H2570 C2582 0.959 . S
H2571 C2585 0.929 . S
H2572 C2586 0.931 . S
H2573 C2588 0.930 . S
C2574 H2562 0.930 . S
C2574 C2575 1.399 . S
C2574 C2579 1.399 . S
C2575 C2574 1.399 . S
C2575 C2576 1.376 . S
C2576 H2563 0.930 . S
C2576 C2575 1.376 . S
C2576 C2577 1.388 . S
C2577 H2564 0.930 . S
C2577 C2576 1.388 . S
C2577 C2578 1.390 . S
C2578 C2577 1.390 . S
C2578 C2579 1.394 . S
C2578 C2584 1.465 . S
C2579 C2574 1.399 . S
C2579 C2578 1.394 . S
C2579 C2580 1.516 . S
C2580 C2579 1.516 . S
C2580 C2581 1.502 . S
C2580 C2582 1.561 . S
C2580 C2583 1.526 . S
C2581 H2565 0.959 . S
C2581 H2566 0.959 . S
C2581 H2567 0.961 . S
C2581 C2580 1.502 . S
C2582 H2568 0.960 . S
C2582 H2569 0.961 . S
C2582 H2570 0.959 . S
C2582 C2580 1.561 . S
C2583 C2580 1.526 . S
C2583 C2584 1.396 . S
C2583 C2588 1.390 . S
C2584 C2578 1.465 . S
C2584 C2583 1.396 . S
C2584 C2585 1.399 . S
C2585 H2571 0.929 . S
C2585 C2584 1.399 . S
C2585 C2586 1.385 . S
C2586 H2572 0.931 . S
C2586 C2585 1.385 . S
C2586 C2587 1.389 . S
C2587 C2586 1.389 . S
C2587 C2588 1.387 . S
C2588 H2573 0.930 . S
C2588 C2583 1.390 . S
C2588 C2587 1.387 . S
H2589 C2601 0.930 . S
H2590 C2603 0.930 . S
H2591 C2604 0.930 . S
H2592 C2608 0.959 . S
H2593 C2608 0.959 . S
H2594 C2608 0.961 . S
H2595 C2609 0.960 . S
H2596 C2609 0.961 . S
H2597 C2609 0.959 . S
H2598 C2612 0.929 . S
H2599 C2613 0.931 . S
H2600 C2615 0.930 . S
C2601 H2589 0.930 . S
C2601 C2602 1.399 . S
C2601 C2606 1.399 . S
C2602 C2601 1.399 . S
C2602 C2603 1.376 . S
C2603 H2590 0.930 . S
C2603 C2602 1.376 . S
C2603 C2604 1.388 . S
C2604 H2591 0.930 . S
C2604 C2603 1.388 . S
C2604 C2605 1.390 . S
C2605 C2604 1.390 . S
C2605 C2606 1.394 . S
C2605 C2611 1.465 . S
C2606 C2601 1.399 . S
C2606 C2605 1.394 . S
C2606 C2607 1.516 . S
C2607 C2606 1.516 . S
C2607 C2608 1.502 . S
C2607 C2609 1.561 . S
C2607 C2610 1.526 . S
C2608 H2592 0.959 . S
C2608 H2593 0.959 . S
C2608 H2594 0.961 . S
C2608 C2607 1.502 . S
C2609 H2595 0.960 . S
C2609 H2596 0.961 . S
C2609 H2597 0.959 . S
C2609 C2607 1.561 . S
C2610 C2607 1.526 . S
C2610 C2611 1.396 . S
C2610 C2615 1.390 . S
C2611 C2605 1.465 . S
C2611 C2610 1.396 . S
C2611 C2612 1.399 . S
C2612 H2598 0.929 . S
C2612 C2611 1.399 . S
C2612 C2613 1.385 . S
C2613 H2599 0.931 . S
C2613 C2612 1.385 . S
C2613 C2614 1.389 . S
C2614 C2613 1.389 . S
C2614 C2615 1.387 . S
C2615 H2600 0.930 . S
C2615 C2610 1.390 . S
C2615 C2614 1.387 . S
H2616 C2628 0.930 . S
H2617 C2630 0.930 . S
H2618 C2631 0.930 . S
H2619 C2635 0.959 . S
H2620 C2635 0.959 . S
H2621 C2635 0.961 . S
H2622 C2636 0.960 . S
H2623 C2636 0.961 . S
H2624 C2636 0.959 . S
H2625 C2639 0.929 . S
H2626 C2640 0.931 . S
H2627 C2642 0.930 . S
C2628 H2616 0.930 . S
C2628 C2629 1.399 . S
C2628 C2633 1.399 . S
C2629 C2628 1.399 . S
C2629 C2630 1.376 . S
C2630 H2617 0.930 . S
C2630 C2629 1.376 . S
C2630 C2631 1.388 . S
C2631 H2618 0.930 . S
C2631 C2630 1.388 . S
C2631 C2632 1.390 . S
C2632 C2631 1.390 . S
C2632 C2633 1.394 . S
C2632 C2638 1.465 . S
C2633 C2628 1.399 . S
C2633 C2632 1.394 . S
C2633 C2634 1.516 . S
C2634 C2633 1.516 . S
C2634 C2635 1.502 . S
C2634 C2636 1.561 . S
C2634 C2637 1.526 . S
C2635 H2619 0.959 . S
C2635 H2620 0.959 . S
C2635 H2621 0.961 . S
C2635 C2634 1.502 . S
C2636 H2622 0.960 . S
C2636 H2623 0.961 . S
C2636 H2624 0.959 . S
C2636 C2634 1.561 . S
C2637 C2634 1.526 . S
C2637 C2638 1.396 . S
C2637 C2642 1.390 . S
C2638 C2632 1.465 . S
C2638 C2637 1.396 . S
C2638 C2639 1.399 . S
C2639 H2625 0.929 . S
C2639 C2638 1.399 . S
C2639 C2640 1.385 . S
C2640 H2626 0.931 . S
C2640 C2639 1.385 . S
C2640 C2641 1.389 . S
C2641 C2640 1.389 . S
C2641 C2642 1.387 . S
C2642 H2627 0.930 . S
C2642 C2637 1.390 . S
C2642 C2641 1.387 . S
H2643 C2655 0.930 . S
H2644 C2657 0.930 . S
H2645 C2658 0.930 . S
H2646 C2662 0.959 . S
H2647 C2662 0.959 . S
H2648 C2662 0.961 . S
H2649 C2663 0.960 . S
H2650 C2663 0.961 . S
H2651 C2663 0.959 . S
H2652 C2666 0.929 . S
H2653 C2667 0.931 . S
H2654 C2669 0.930 . S
C2655 H2643 0.930 . S
C2655 C2656 1.399 . S
C2655 C2660 1.399 . S
C2656 C2655 1.399 . S
C2656 C2657 1.376 . S
C2657 H2644 0.930 . S
C2657 C2656 1.376 . S
C2657 C2658 1.388 . S
C2658 H2645 0.930 . S
C2658 C2657 1.388 . S
C2658 C2659 1.390 . S
C2659 C2658 1.390 . S
C2659 C2660 1.394 . S
C2659 C2665 1.465 . S
C2660 C2655 1.399 . S
C2660 C2659 1.394 . S
C2660 C2661 1.516 . S
C2661 C2660 1.516 . S
C2661 C2662 1.502 . S
C2661 C2663 1.561 . S
C2661 C2664 1.526 . S
C2662 H2646 0.959 . S
C2662 H2647 0.959 . S
C2662 H2648 0.961 . S
C2662 C2661 1.502 . S
C2663 H2649 0.960 . S
C2663 H2650 0.961 . S
C2663 H2651 0.959 . S
C2663 C2661 1.561 . S
C2664 C2661 1.526 . S
C2664 C2665 1.396 . S
C2664 C2669 1.390 . S
C2665 C2659 1.465 . S
C2665 C2664 1.396 . S
C2665 C2666 1.399 . S
C2666 H2652 0.929 . S
C2666 C2665 1.399 . S
C2666 C2667 1.385 . S
C2667 H2653 0.931 . S
C2667 C2666 1.385 . S
C2667 C2668 1.389 . S
C2668 C2667 1.389 . S
C2668 C2669 1.387 . S
C2669 H2654 0.930 . S
C2669 C2664 1.390 . S
C2669 C2668 1.387 . S
H2670 C2682 0.919 1_655 S
H2671 C2684 0.930 . S
H2672 C2685 0.930 . S
H2673 C2689 0.959 . S
H2674 C2689 0.959 . S
H2675 C2689 0.961 . S
H2676 C2690 0.960 . S
H2677 C2690 0.961 . S
H2678 C2690 0.959 . S
H2679 C2693 0.929 . S
H2680 C2694 0.931 1_554 S
H2681 C2696 0.930 . S
C2682 H2670 0.919 1_455 S
C2682 C2683 1.411 . S
C2682 C2687 1.401 . S
C2683 C2682 1.411 . S
C2683 C2684 1.376 . S
C2684 H2671 0.930 . S
C2684 C2683 1.376 . S
C2684 C2685 1.388 . S
C2685 H2672 0.930 . S
C2685 C2684 1.388 . S
C2685 C2686 1.390 . S
C2686 C2685 1.390 . S
C2686 C2687 1.394 . S
C2686 C2692 1.465 . S
C2687 C2682 1.401 . S
C2687 C2686 1.394 . S
C2687 C2688 1.516 1_455 S
C2688 C2687 1.516 1_655 S
C2688 C2689 1.502 . S
C2688 C2690 1.561 1_655 S
C2688 C2691 1.526 . S
C2689 H2673 0.959 . S
C2689 H2674 0.959 . S
C2689 H2675 0.961 . S
C2689 C2688 1.502 . S
C2690 H2676 0.960 . S
C2690 H2677 0.961 . S
C2690 H2678 0.959 . S
C2690 C2688 1.561 1_455 S
C2691 C2688 1.526 . S
C2691 C2692 1.396 1_655 S
C2691 C2696 1.390 . S
C2692 C2686 1.465 . S
C2692 C2691 1.396 1_455 S
C2692 C2693 1.399 . S
C2693 H2679 0.929 . S
C2693 C2692 1.399 . S
C2693 C2694 1.385 . S
C2694 H2680 0.931 1_556 S
C2694 C2693 1.385 . S
C2694 C2695 1.389 1_455 S
C2695 C2694 1.389 1_655 S
C2695 C2696 1.387 . S
C2696 H2681 0.930 . S
C2696 C2691 1.390 . S
C2696 C2695 1.387 . S
H2697 C2709 0.930 . S
H2698 C2711 0.930 . S
H2699 C2712 0.930 . S
H2700 C2716 0.959 . S
H2701 C2716 0.959 . S
H2702 C2716 0.961 . S
H2703 C2717 0.960 . S
H2704 C2717 0.961 . S
H2705 C2717 0.959 . S
H2706 C2720 0.929 . S
H2707 C2721 0.931 . S
H2708 C2723 0.930 . S
C2709 H2697 0.930 . S
C2709 C2710 1.399 . S
C2709 C2714 1.399 . S
C2710 C2709 1.399 . S
C2710 C2711 1.376 . S
C2711 H2698 0.930 . S
C2711 C2710 1.376 . S
C2711 C2712 1.388 . S
C2712 H2699 0.930 . S
C2712 C2711 1.388 . S
C2712 C2713 1.390 . S
C2713 C2712 1.390 . S
C2713 C2714 1.394 . S
C2713 C2719 1.465 . S
C2714 C2709 1.399 . S
C2714 C2713 1.394 . S
C2714 C2715 1.516 . S
C2715 C2714 1.516 . S
C2715 C2716 1.502 . S
C2715 C2717 1.561 . S
C2715 C2718 1.526 . S
C2716 H2700 0.959 . S
C2716 H2701 0.959 . S
C2716 H2702 0.961 . S
C2716 C2715 1.502 . S
C2717 H2703 0.960 . S
C2717 H2704 0.961 . S
C2717 H2705 0.959 . S
C2717 C2715 1.561 . S
C2718 C2715 1.526 . S
C2718 C2719 1.396 . S
C2718 C2723 1.390 . S
C2719 C2713 1.465 . S
C2719 C2718 1.396 . S
C2719 C2720 1.399 . S
C2720 H2706 0.929 . S
C2720 C2719 1.399 . S
C2720 C2721 1.385 . S
C2721 H2707 0.931 . S
C2721 C2720 1.385 . S
C2721 C2722 1.389 . S
C2722 C2721 1.389 . S
C2722 C2723 1.387 . S
C2723 H2708 0.930 . S
C2723 C2718 1.390 . S
C2723 C2722 1.387 . S
H2724 C2736 0.930 . S
H2725 C2738 0.930 . S
H2726 C2739 0.930 . S
H2727 C2743 0.959 . S
H2728 C2743 0.959 . S
H2729 C2743 0.961 . S
H2730 C2744 0.960 . S
H2731 C2744 0.961 . S
H2732 C2744 0.959 . S
H2733 C2747 0.929 . S
H2734 C2748 0.931 . S
H2735 C2750 0.930 . S
C2736 H2724 0.930 . S
C2736 C2737 1.399 . S
C2736 C2741 1.399 . S
C2737 C2736 1.399 . S
C2737 C2738 1.376 . S
C2738 H2725 0.930 . S
C2738 C2737 1.376 . S
C2738 C2739 1.388 . S
C2739 H2726 0.930 . S
C2739 C2738 1.388 . S
C2739 C2740 1.390 . S
C2740 C2739 1.390 . S
C2740 C2741 1.394 . S
C2740 C2746 1.465 . S
C2741 C2736 1.399 . S
C2741 C2740 1.394 . S
C2741 C2742 1.516 . S
C2742 C2741 1.516 . S
C2742 C2743 1.502 . S
C2742 C2744 1.561 . S
C2742 C2745 1.526 . S
C2743 H2727 0.959 . S
C2743 H2728 0.959 . S
C2743 H2729 0.961 . S
C2743 C2742 1.502 . S
C2744 H2730 0.960 . S
C2744 H2731 0.961 . S
C2744 H2732 0.959 . S
C2744 C2742 1.561 . S
C2745 C2742 1.526 . S
C2745 C2746 1.396 . S
C2745 C2750 1.390 . S
C2746 C2740 1.465 . S
C2746 C2745 1.396 . S
C2746 C2747 1.399 . S
C2747 H2733 0.929 . S
C2747 C2746 1.399 . S
C2747 C2748 1.385 . S
C2748 H2734 0.931 . S
C2748 C2747 1.385 . S
C2748 C2749 1.389 . S
C2749 C2748 1.389 . S
C2749 C2750 1.387 . S
C2750 H2735 0.930 . S
C2750 C2745 1.390 . S
C2750 C2749 1.387 . S
H2751 C2763 0.930 . S
H2752 C2765 0.930 . S
H2753 C2766 0.930 . S
H2754 C2770 0.959 . S
H2755 C2770 0.959 . S
H2756 C2770 0.961 . S
H2757 C2771 0.960 . S
H2758 C2771 0.961 . S
H2759 C2771 0.959 . S
H2760 C2774 0.929 . S
H2761 C2775 0.931 . S
H2762 C2777 0.930 . S
C2763 H2751 0.930 . S
C2763 C2764 1.399 . S
C2763 C2768 1.399 . S
C2764 C2763 1.399 . S
C2764 C2765 1.376 . S
C2765 H2752 0.930 . S
C2765 C2764 1.376 . S
C2765 C2766 1.388 . S
C2766 H2753 0.930 . S
C2766 C2765 1.388 . S
C2766 C2767 1.390 . S
C2767 C2766 1.390 . S
C2767 C2768 1.394 . S
C2767 C2773 1.465 . S
C2768 C2763 1.399 . S
C2768 C2767 1.394 . S
C2768 C2769 1.516 . S
C2769 C2768 1.516 . S
C2769 C2770 1.502 . S
C2769 C2771 1.561 . S
C2769 C2772 1.526 . S
C2770 H2754 0.959 . S
C2770 H2755 0.959 . S
C2770 H2756 0.961 . S
C2770 C2769 1.502 . S
C2771 H2757 0.960 . S
C2771 H2758 0.961 . S
C2771 H2759 0.959 . S
C2771 C2769 1.561 . S
C2772 C2769 1.526 . S
C2772 C2773 1.396 . S
C2772 C2777 1.390 . S
C2773 C2767 1.465 . S
C2773 C2772 1.396 . S
C2773 C2774 1.399 . S
C2774 H2760 0.929 . S
C2774 C2773 1.399 . S
C2774 C2775 1.385 . S
C2775 H2761 0.931 . S
C2775 C2774 1.385 . S
C2775 C2776 1.389 . S
C2776 C2775 1.389 . S
C2776 C2777 1.387 . S
C2777 H2762 0.930 . S
C2777 C2772 1.390 . S
C2777 C2776 1.387 . S
H2778 C2790 0.930 . S
H2779 C2792 0.930 . S
H2780 C2793 0.929 . S
H2781 C2797 0.959 . S
H2782 C2797 0.959 . S
H2783 C2797 0.961 . S
H2784 C2798 0.960 . S
H2785 C2798 0.961 . S
H2786 C2798 0.959 . S
H2787 C2801 0.929 . S
H2788 C2802 0.931 . S
H2789 C2804 0.930 . S
C2790 H2778 0.930 . S
C2790 C2791 1.399 . S
C2790 C2795 1.396 1_455 S
C2791 C2790 1.399 . S
C2791 C2792 1.376 . S
C2792 H2779 0.930 . S
C2792 C2791 1.376 . S
C2792 C2793 1.388 1_455 S
C2793 H2780 0.929 . S
C2793 C2792 1.388 1_655 S
C2793 C2794 1.390 . S
C2794 C2793 1.390 . S
C2794 C2795 1.395 . S
C2794 C2800 1.465 . S
C2795 C2790 1.396 1_655 S
C2795 C2794 1.395 . S
C2795 C2796 1.519 . S
C2796 C2795 1.519 . S
C2796 C2797 1.502 1_655 S
C2796 C2798 1.561 . S
C2796 C2799 1.526 . S
C2797 H2781 0.959 . S
C2797 H2782 0.959 . S
C2797 H2783 0.961 . S
C2797 C2796 1.502 1_455 S
C2798 H2784 0.960 . S
C2798 H2785 0.961 . S
C2798 H2786 0.959 . S
C2798 C2796 1.561 . S
C2799 C2796 1.526 . S
C2799 C2800 1.396 . S
C2799 C2804 1.390 . S
C2800 C2794 1.465 . S
C2800 C2799 1.396 . S
C2800 C2801 1.399 . S
C2801 H2787 0.929 . S
C2801 C2800 1.399 . S
C2801 C2802 1.385 . S
C2802 H2788 0.931 . S
C2802 C2801 1.385 . S
C2802 C2803 1.389 . S
C2803 C2802 1.389 . S
C2803 C2804 1.387 . S
C2804 H2789 0.930 . S
C2804 C2799 1.390 . S
C2804 C2803 1.387 . S
H2805 C2817 0.930 . S
H2806 C2819 0.930 . S
H2807 C2820 0.930 . S
H2808 C2824 0.959 . S
H2809 C2824 0.959 . S
H2810 C2824 0.961 . S
H2811 C2825 0.960 . S
H2812 C2825 0.961 . S
H2813 C2825 0.959 . S
H2814 C2828 0.929 . S
H2815 C2829 0.931 . S
H2816 C2831 0.930 . S
C2817 H2805 0.930 . S
C2817 C2818 1.399 . S
C2817 C2822 1.399 . S
C2818 C2817 1.399 . S
C2818 C2819 1.376 . S
C2819 H2806 0.930 . S
C2819 C2818 1.376 . S
C2819 C2820 1.388 . S
C2820 H2807 0.930 . S
C2820 C2819 1.388 . S
C2820 C2821 1.390 . S
C2821 C2820 1.390 . S
C2821 C2822 1.394 . S
C2821 C2827 1.465 . S
C2822 C2817 1.399 . S
C2822 C2821 1.394 . S
C2822 C2823 1.516 . S
C2823 C2822 1.516 . S
C2823 C2824 1.502 . S
C2823 C2825 1.561 . S
C2823 C2826 1.526 . S
C2824 H2808 0.959 . S
C2824 H2809 0.959 . S
C2824 H2810 0.961 . S
C2824 C2823 1.502 . S
C2825 H2811 0.960 . S
C2825 H2812 0.961 . S
C2825 H2813 0.959 . S
C2825 C2823 1.561 . S
C2826 C2823 1.526 . S
C2826 C2827 1.396 . S
C2826 C2831 1.390 . S
C2827 C2821 1.465 . S
C2827 C2826 1.396 . S
C2827 C2828 1.399 . S
C2828 H2814 0.929 . S
C2828 C2827 1.399 . S
C2828 C2829 1.385 . S
C2829 H2815 0.931 . S
C2829 C2828 1.385 . S
C2829 C2830 1.389 . S
C2830 C2829 1.389 . S
C2830 C2831 1.387 . S
C2831 H2816 0.930 . S
C2831 C2826 1.390 . S
C2831 C2830 1.387 . S
H2832 C2844 0.930 . S
H2833 C2846 0.930 . S
H2834 C2847 0.930 . S
H2835 C2851 0.959 . S
H2836 C2851 0.959 . S
H2837 C2851 0.961 . S
H2838 C2852 0.960 . S
H2839 C2852 0.961 . S
H2840 C2852 0.959 . S
H2841 C2855 0.929 . S
H2842 C2856 0.931 . S
H2843 C2858 0.930 . S
C2844 H2832 0.930 . S
C2844 C2845 1.399 . S
C2844 C2849 1.399 . S
C2845 C2844 1.399 . S
C2845 C2846 1.376 . S
C2846 H2833 0.930 . S
C2846 C2845 1.376 . S
C2846 C2847 1.388 . S
C2847 H2834 0.930 . S
C2847 C2846 1.388 . S
C2847 C2848 1.390 . S
C2848 C2847 1.390 . S
C2848 C2849 1.394 . S
C2848 C2854 1.465 . S
C2849 C2844 1.399 . S
C2849 C2848 1.394 . S
C2849 C2850 1.516 . S
C2850 C2849 1.516 . S
C2850 C2851 1.502 . S
C2850 C2852 1.561 . S
C2850 C2853 1.526 . S
C2851 H2835 0.959 . S
C2851 H2836 0.959 . S
C2851 H2837 0.961 . S
C2851 C2850 1.502 . S
C2852 H2838 0.960 . S
C2852 H2839 0.961 . S
C2852 H2840 0.959 . S
C2852 C2850 1.561 . S
C2853 C2850 1.526 . S
C2853 C2854 1.396 . S
C2853 C2858 1.390 . S
C2854 C2848 1.465 . S
C2854 C2853 1.396 . S
C2854 C2855 1.399 . S
C2855 H2841 0.929 . S
C2855 C2854 1.399 . S
C2855 C2856 1.385 . S
C2856 H2842 0.931 . S
C2856 C2855 1.385 . S
C2856 C2857 1.389 . S
C2857 C2856 1.389 . S
C2857 C2858 1.387 . S
C2858 H2843 0.930 . S
C2858 C2853 1.390 . S
C2858 C2857 1.387 . S
H2859 C2871 0.930 . S
H2860 C2873 0.930 . S
H2861 C2874 0.930 . S
H2862 C2878 0.959 . S
H2863 C2878 0.959 . S
H2864 C2878 0.961 . S
H2865 C2879 0.960 . S
H2866 C2879 0.961 . S
H2867 C2879 0.959 . S
H2868 C2882 0.929 . S
H2869 C2883 0.931 . S
H2870 C2885 0.930 . S
C2871 H2859 0.930 . S
C2871 C2872 1.399 . S
C2871 C2876 1.399 . S
C2872 C2871 1.399 . S
C2872 C2873 1.376 . S
C2873 H2860 0.930 . S
C2873 C2872 1.376 . S
C2873 C2874 1.388 . S
C2874 H2861 0.930 . S
C2874 C2873 1.388 . S
C2874 C2875 1.390 . S
C2875 C2874 1.390 . S
C2875 C2876 1.394 . S
C2875 C2881 1.465 . S
C2876 C2871 1.399 . S
C2876 C2875 1.394 . S
C2876 C2877 1.516 . S
C2877 C2876 1.516 . S
C2877 C2878 1.502 . S
C2877 C2879 1.561 . S
C2877 C2880 1.526 . S
C2878 H2862 0.959 . S
C2878 H2863 0.959 . S
C2878 H2864 0.961 . S
C2878 C2877 1.502 . S
C2879 H2865 0.960 . S
C2879 H2866 0.961 . S
C2879 H2867 0.959 . S
C2879 C2877 1.561 . S
C2880 C2877 1.526 . S
C2880 C2881 1.396 . S
C2880 C2885 1.390 . S
C2881 C2875 1.465 . S
C2881 C2880 1.396 . S
C2881 C2882 1.399 . S
C2882 H2868 0.929 . S
C2882 C2881 1.399 . S
C2882 C2883 1.385 . S
C2883 H2869 0.931 . S
C2883 C2882 1.385 . S
C2883 C2884 1.389 . S
C2884 C2883 1.389 . S
C2884 C2885 1.387 . S
C2885 H2870 0.930 . S
C2885 C2880 1.390 . S
C2885 C2884 1.387 . S
H2886 C2898 0.930 . S
H2887 C2900 0.930 . S
H2888 C2901 0.930 . S
H2889 C2905 0.959 . S
H2890 C2905 0.959 . S
H2891 C2905 0.961 . S
H2892 C2906 0.960 . S
H2893 C2906 0.961 . S
H2894 C2906 0.959 . S
H2895 C2909 0.929 . S
H2896 C2910 0.931 . S
H2897 C2912 0.930 . S
C2898 H2886 0.930 . S
C2898 C2899 1.399 . S
C2898 C2903 1.399 . S
C2899 C2898 1.399 . S
C2899 C2900 1.376 . S
C2900 H2887 0.930 . S
C2900 C2899 1.376 . S
C2900 C2901 1.388 . S
C2901 H2888 0.930 . S
C2901 C2900 1.388 . S
C2901 C2902 1.390 . S
C2902 C2901 1.390 . S
C2902 C2903 1.394 . S
C2902 C2908 1.465 . S
C2903 C2898 1.399 . S
C2903 C2902 1.394 . S
C2903 C2904 1.516 . S
C2904 C2903 1.516 . S
C2904 C2905 1.502 . S
C2904 C2906 1.561 . S
C2904 C2907 1.526 . S
C2905 H2889 0.959 . S
C2905 H2890 0.959 . S
C2905 H2891 0.961 . S
C2905 C2904 1.502 . S
C2906 H2892 0.960 . S
C2906 H2893 0.961 . S
C2906 H2894 0.959 . S
C2906 C2904 1.561 . S
C2907 C2904 1.526 . S
C2907 C2908 1.396 . S
C2907 C2912 1.390 . S
C2908 C2902 1.465 . S
C2908 C2907 1.396 . S
C2908 C2909 1.399 . S
C2909 H2895 0.929 . S
C2909 C2908 1.399 . S
C2909 C2910 1.385 . S
C2910 H2896 0.931 . S
C2910 C2909 1.385 . S
C2910 C2911 1.389 . S
C2911 C2910 1.389 . S
C2911 C2912 1.387 . S
C2912 H2897 0.930 . S
C2912 C2907 1.390 . S
C2912 C2911 1.387 . S
H2913 C2925 0.930 . S
H2914 C2927 0.930 . S
H2915 C2928 0.930 . S
H2916 C2932 0.959 . S
H2917 C2932 0.959 . S
H2918 C2932 0.961 . S
H2919 C2933 0.960 . S
H2920 C2933 0.961 . S
H2921 C2933 0.959 . S
H2922 C2936 0.929 . S
H2923 C2937 0.931 . S
H2924 C2939 0.930 . S
C2925 H2913 0.930 . S
C2925 C2926 1.399 . S
C2925 C2930 1.399 . S
C2926 C2925 1.399 . S
C2926 C2927 1.376 . S
C2927 H2914 0.930 . S
C2927 C2926 1.376 . S
C2927 C2928 1.388 . S
C2928 H2915 0.930 . S
C2928 C2927 1.388 . S
C2928 C2929 1.390 . S
C2929 C2928 1.390 . S
C2929 C2930 1.394 . S
C2929 C2935 1.465 . S
C2930 C2925 1.399 . S
C2930 C2929 1.394 . S
C2930 C2931 1.516 . S
C2931 C2930 1.516 . S
C2931 C2932 1.502 . S
C2931 C2933 1.561 . S
C2931 C2934 1.526 . S
C2932 H2916 0.959 . S
C2932 H2917 0.959 . S
C2932 H2918 0.961 . S
C2932 C2931 1.502 . S
C2933 H2919 0.960 . S
C2933 H2920 0.961 . S
C2933 H2921 0.959 . S
C2933 C2931 1.561 . S
C2934 C2931 1.526 . S
C2934 C2935 1.396 . S
C2934 C2939 1.390 . S
C2935 C2929 1.465 . S
C2935 C2934 1.396 . S
C2935 C2936 1.399 . S
C2936 H2922 0.929 . S
C2936 C2935 1.399 . S
C2936 C2937 1.385 . S
C2937 H2923 0.931 . S
C2937 C2936 1.385 . S
C2937 C2938 1.389 . S
C2938 C2937 1.389 . S
C2938 C2939 1.387 . S
C2939 H2924 0.930 . S
C2939 C2934 1.390 . S
C2939 C2938 1.387 . S
H2940 C2952 0.930 . S
H2941 C2954 0.930 . S
H2942 C2955 0.930 . S
H2943 C2959 0.959 . S
H2944 C2959 0.959 . S
H2945 C2959 0.961 . S
H2946 C2960 0.960 . S
H2947 C2960 0.961 . S
H2948 C2960 0.959 . S
H2949 C2963 0.929 . S
H2950 C2964 0.931 . S
H2951 C2966 0.930 . S
C2952 H2940 0.930 . S
C2952 C2953 1.399 . S
C2952 C2957 1.399 . S
C2953 C2952 1.399 . S
C2953 C2954 1.376 . S
C2954 H2941 0.930 . S
C2954 C2953 1.376 . S
C2954 C2955 1.388 . S
C2955 H2942 0.930 . S
C2955 C2954 1.388 . S
C2955 C2956 1.390 . S
C2956 C2955 1.390 . S
C2956 C2957 1.394 . S
C2956 C2962 1.465 . S
C2957 C2952 1.399 . S
C2957 C2956 1.394 . S
C2957 C2958 1.516 . S
C2958 C2957 1.516 . S
C2958 C2959 1.502 . S
C2958 C2960 1.561 . S
C2958 C2961 1.526 . S
C2959 H2943 0.959 . S
C2959 H2944 0.959 . S
C2959 H2945 0.961 . S
C2959 C2958 1.502 . S
C2960 H2946 0.960 . S
C2960 H2947 0.961 . S
C2960 H2948 0.959 . S
C2960 C2958 1.561 . S
C2961 C2958 1.526 . S
C2961 C2962 1.396 . S
C2961 C2966 1.390 . S
C2962 C2956 1.465 . S
C2962 C2961 1.396 . S
C2962 C2963 1.399 . S
C2963 H2949 0.929 . S
C2963 C2962 1.399 . S
C2963 C2964 1.385 . S
C2964 H2950 0.931 . S
C2964 C2963 1.385 . S
C2964 C2965 1.389 . S
C2965 C2964 1.389 . S
C2965 C2966 1.387 . S
C2966 H2951 0.930 . S
C2966 C2961 1.390 . S
C2966 C2965 1.387 . S
H2967 C2979 0.930 . S
H2968 C2981 0.930 . S
H2969 C2982 0.930 . S
H2970 C2986 0.959 . S
H2971 C2986 0.959 . S
H2972 C2986 0.961 . S
H2973 C2987 0.960 . S
H2974 C2987 0.961 . S
H2975 C2987 0.959 . S
H2976 C2990 0.929 . S
H2977 C2991 0.931 . S
H2978 C2993 0.930 . S
C2979 H2967 0.930 . S
C2979 C2980 1.399 . S
C2979 C2984 1.399 . S
C2980 C2979 1.399 . S
C2980 C2981 1.376 . S
C2981 H2968 0.930 . S
C2981 C2980 1.376 . S
C2981 C2982 1.388 . S
C2982 H2969 0.930 . S
C2982 C2981 1.388 . S
C2982 C2983 1.390 . S
C2983 C2982 1.390 . S
C2983 C2984 1.394 . S
C2983 C2989 1.465 . S
C2984 C2979 1.399 . S
C2984 C2983 1.394 . S
C2984 C2985 1.516 . S
C2985 C2984 1.516 . S
C2985 C2986 1.502 . S
C2985 C2987 1.561 . S
C2985 C2988 1.526 . S
C2986 H2970 0.959 . S
C2986 H2971 0.959 . S
C2986 H2972 0.961 . S
C2986 C2985 1.502 . S
C2987 H2973 0.960 . S
C2987 H2974 0.961 . S
C2987 H2975 0.959 . S
C2987 C2985 1.561 . S
C2988 C2985 1.526 . S
C2988 C2989 1.396 . S
C2988 C2993 1.390 . S
C2989 C2983 1.465 . S
C2989 C2988 1.396 . S
C2989 C2990 1.399 . S
C2990 H2976 0.929 . S
C2990 C2989 1.399 . S
C2990 C2991 1.385 . S
C2991 H2977 0.931 . S
C2991 C2990 1.385 . S
C2991 C2992 1.389 . S
C2992 C2991 1.389 . S
C2992 C2993 1.387 . S
C2993 H2978 0.930 . S
C2993 C2988 1.390 . S
C2993 C2992 1.387 . S
H2994 C3006 0.930 . S
H2995 C3008 0.930 . S
H2996 C3009 0.930 . S
H2997 C3013 0.959 . S
H2998 C3013 0.959 . S
H2999 C3013 0.961 . S
H3000 C3014 0.960 . S
H3001 C3014 0.961 . S
H3002 C3014 0.959 . S
H3003 C3017 0.929 . S
H3004 C3018 0.931 . S
H3005 C3020 0.930 . S
C3006 H2994 0.930 . S
C3006 C3007 1.399 . S
C3006 C3011 1.399 . S
C3007 C3006 1.399 . S
C3007 C3008 1.376 . S
C3008 H2995 0.930 . S
C3008 C3007 1.376 . S
C3008 C3009 1.388 . S
C3009 H2996 0.930 . S
C3009 C3008 1.388 . S
C3009 C3010 1.390 . S
C3010 C3009 1.390 . S
C3010 C3011 1.394 . S
C3010 C3016 1.465 . S
C3011 C3006 1.399 . S
C3011 C3010 1.394 . S
C3011 C3012 1.516 . S
C3012 C3011 1.516 . S
C3012 C3013 1.502 . S
C3012 C3014 1.561 . S
C3012 C3015 1.526 . S
C3013 H2997 0.959 . S
C3013 H2998 0.959 . S
C3013 H2999 0.961 . S
C3013 C3012 1.502 . S
C3014 H3000 0.960 . S
C3014 H3001 0.961 . S
C3014 H3002 0.959 . S
C3014 C3012 1.561 . S
C3015 C3012 1.526 . S
C3015 C3016 1.396 . S
C3015 C3020 1.390 . S
C3016 C3010 1.465 . S
C3016 C3015 1.396 . S
C3016 C3017 1.399 . S
C3017 H3003 0.929 . S
C3017 C3016 1.399 . S
C3017 C3018 1.385 . S
C3018 H3004 0.931 . S
C3018 C3017 1.385 . S
C3018 C3019 1.389 . S
C3019 C3018 1.389 . S
C3019 C3020 1.387 . S
C3020 H3005 0.930 . S
C3020 C3015 1.390 . S
C3020 C3019 1.387 . S
H3021 C3033 0.930 . S
H3022 C3035 0.930 . S
H3023 C3036 0.930 . S
H3024 C3040 0.959 . S
H3025 C3040 0.959 . S
H3026 C3040 0.961 . S
H3027 C3041 0.960 . S
H3028 C3041 0.961 . S
H3029 C3041 0.959 . S
H3030 C3044 0.929 . S
H3031 C3045 0.931 . S
H3032 C3047 0.930 . S
C3033 H3021 0.930 . S
C3033 C3034 1.399 . S
C3033 C3038 1.399 . S
C3034 C3033 1.399 . S
C3034 C3035 1.376 . S
C3035 H3022 0.930 . S
C3035 C3034 1.376 . S
C3035 C3036 1.388 . S
C3036 H3023 0.930 . S
C3036 C3035 1.388 . S
C3036 C3037 1.390 . S
C3037 C3036 1.390 . S
C3037 C3038 1.394 . S
C3037 C3043 1.465 . S
C3038 C3033 1.399 . S
C3038 C3037 1.394 . S
C3038 C3039 1.516 . S
C3039 C3038 1.516 . S
C3039 C3040 1.502 . S
C3039 C3041 1.561 . S
C3039 C3042 1.526 . S
C3040 H3024 0.959 . S
C3040 H3025 0.959 . S
C3040 H3026 0.961 . S
C3040 C3039 1.502 . S
C3041 H3027 0.960 . S
C3041 H3028 0.961 . S
C3041 H3029 0.959 . S
C3041 C3039 1.561 . S
C3042 C3039 1.526 . S
C3042 C3043 1.396 . S
C3042 C3047 1.390 . S
C3043 C3037 1.465 . S
C3043 C3042 1.396 . S
C3043 C3044 1.399 . S
C3044 H3030 0.929 . S
C3044 C3043 1.399 . S
C3044 C3045 1.385 . S
C3045 H3031 0.931 . S
C3045 C3044 1.385 . S
C3045 C3046 1.389 . S
C3046 C3045 1.389 . S
C3046 C3047 1.387 . S
C3047 H3032 0.930 . S
C3047 C3042 1.390 . S
C3047 C3046 1.387 . S
H3048 C3060 0.930 . S
H3049 C3062 0.930 . S
H3050 C3063 0.930 . S
H3051 C3067 0.959 . S
H3052 C3067 0.959 . S
H3053 C3067 0.961 . S
H3054 C3068 0.960 . S
H3055 C3068 0.961 . S
H3056 C3068 0.959 . S
H3057 C3071 0.929 . S
H3058 C3072 0.931 . S
H3059 C3074 0.930 . S
C3060 H3048 0.930 . S
C3060 C3061 1.399 . S
C3060 C3065 1.399 . S
C3061 C3060 1.399 . S
C3061 C3062 1.376 . S
C3062 H3049 0.930 . S
C3062 C3061 1.376 . S
C3062 C3063 1.388 . S
C3063 H3050 0.930 . S
C3063 C3062 1.388 . S
C3063 C3064 1.390 . S
C3064 C3063 1.390 . S
C3064 C3065 1.394 . S
C3064 C3070 1.465 . S
C3065 C3060 1.399 . S
C3065 C3064 1.394 . S
C3065 C3066 1.516 . S
C3066 C3065 1.516 . S
C3066 C3067 1.502 . S
C3066 C3068 1.561 . S
C3066 C3069 1.526 . S
C3067 H3051 0.959 . S
C3067 H3052 0.959 . S
C3067 H3053 0.961 . S
C3067 C3066 1.502 . S
C3068 H3054 0.960 . S
C3068 H3055 0.961 . S
C3068 H3056 0.959 . S
C3068 C3066 1.561 . S
C3069 C3066 1.526 . S
C3069 C3070 1.396 . S
C3069 C3074 1.390 . S
C3070 C3064 1.465 . S
C3070 C3069 1.396 . S
C3070 C3071 1.399 . S
C3071 H3057 0.929 . S
C3071 C3070 1.399 . S
C3071 C3072 1.385 . S
C3072 H3058 0.931 . S
C3072 C3071 1.385 . S
C3072 C3073 1.389 . S
C3073 C3072 1.389 . S
C3073 C3074 1.387 . S
C3074 H3059 0.930 . S
C3074 C3069 1.390 . S
C3074 C3073 1.387 . S
H3075 C3087 0.930 . S
H3076 C3089 0.930 . S
H3077 C3090 0.930 . S
H3078 C3094 0.959 . S
H3079 C3094 0.959 . S
H3080 C3094 0.961 . S
H3081 C3095 0.960 . S
H3082 C3095 0.961 . S
H3083 C3095 0.959 . S
H3084 C3098 0.929 . S
H3085 C3099 0.931 . S
H3086 C3101 0.930 . S
C3087 H3075 0.930 . S
C3087 C3088 1.399 . S
C3087 C3092 1.399 . S
C3088 C3087 1.399 . S
C3088 C3089 1.376 . S
C3089 H3076 0.930 . S
C3089 C3088 1.376 . S
C3089 C3090 1.388 . S
C3090 H3077 0.930 . S
C3090 C3089 1.388 . S
C3090 C3091 1.390 . S
C3091 C3090 1.390 . S
C3091 C3092 1.394 . S
C3091 C3097 1.465 . S
C3092 C3087 1.399 . S
C3092 C3091 1.394 . S
C3092 C3093 1.516 . S
C3093 C3092 1.516 . S
C3093 C3094 1.502 . S
C3093 C3095 1.561 . S
C3093 C3096 1.526 . S
C3094 H3078 0.959 . S
C3094 H3079 0.959 . S
C3094 H3080 0.961 . S
C3094 C3093 1.502 . S
C3095 H3081 0.960 . S
C3095 H3082 0.961 . S
C3095 H3083 0.959 . S
C3095 C3093 1.561 . S
C3096 C3093 1.526 . S
C3096 C3097 1.396 . S
C3096 C3101 1.390 . S
C3097 C3091 1.465 . S
C3097 C3096 1.396 . S
C3097 C3098 1.399 . S
C3098 H3084 0.929 . S
C3098 C3097 1.399 . S
C3098 C3099 1.385 . S
C3099 H3085 0.931 . S
C3099 C3098 1.385 . S
C3099 C3100 1.389 . S
C3100 C3099 1.389 . S
C3100 C3101 1.387 . S
C3101 H3086 0.930 . S
C3101 C3096 1.390 . S
C3101 C3100 1.387 . S
H3102 C3114 0.930 . S
H3103 C3116 0.930 . S
H3104 C3117 0.930 . S
H3105 C3121 0.959 . S
H3106 C3121 0.959 . S
H3107 C3121 0.961 . S
H3108 C3122 0.960 . S
H3109 C3122 0.961 . S
H3110 C3122 0.959 . S
H3111 C3125 0.929 . S
H3112 C3126 0.931 . S
H3113 C3128 0.930 . S
C3114 H3102 0.930 . S
C3114 C3115 1.399 . S
C3114 C3119 1.399 . S
C3115 C3114 1.399 . S
C3115 C3116 1.376 . S
C3116 H3103 0.930 . S
C3116 C3115 1.376 . S
C3116 C3117 1.388 . S
C3117 H3104 0.930 . S
C3117 C3116 1.388 . S
C3117 C3118 1.390 . S
C3118 C3117 1.390 . S
C3118 C3119 1.394 . S
C3118 C3124 1.465 . S
C3119 C3114 1.399 . S
C3119 C3118 1.394 . S
C3119 C3120 1.516 . S
C3120 C3119 1.516 . S
C3120 C3121 1.502 . S
C3120 C3122 1.561 . S
C3120 C3123 1.526 . S
C3121 H3105 0.959 . S
C3121 H3106 0.959 . S
C3121 H3107 0.961 . S
C3121 C3120 1.502 . S
C3122 H3108 0.960 . S
C3122 H3109 0.961 . S
C3122 H3110 0.959 . S
C3122 C3120 1.561 . S
C3123 C3120 1.526 . S
C3123 C3124 1.396 . S
C3123 C3128 1.390 . S
C3124 C3118 1.465 . S
C3124 C3123 1.396 . S
C3124 C3125 1.399 . S
C3125 H3111 0.929 . S
C3125 C3124 1.399 . S
C3125 C3126 1.385 . S
C3126 H3112 0.931 . S
C3126 C3125 1.385 . S
C3126 C3127 1.389 . S
C3127 C3126 1.389 . S
C3127 C3128 1.387 . S
C3128 H3113 0.930 . S
C3128 C3123 1.390 . S
C3128 C3127 1.387 . S
H3129 C3141 0.930 . S
H3130 C3143 0.930 . S
H3131 C3144 0.930 . S
H3132 C3148 0.959 . S
H3133 C3148 0.959 . S
H3134 C3148 0.961 . S
H3135 C3149 0.960 . S
H3136 C3149 0.961 . S
H3137 C3149 0.959 . S
H3138 C3152 0.929 . S
H3139 C3153 0.931 . S
H3140 C3155 0.930 . S
C3141 H3129 0.930 . S
C3141 C3142 1.399 1_556 S
C3141 C3146 1.399 . S
C3142 C3141 1.399 1_554 S
C3142 C3143 1.376 . S
C3143 H3130 0.930 . S
C3143 C3142 1.376 . S
C3143 C3144 1.388 . S
C3144 H3131 0.930 . S
C3144 C3143 1.388 . S
C3144 C3145 1.390 . S
C3145 C3144 1.390 . S
C3145 C3146 1.394 1_554 S
C3145 C3151 1.465 . S
C3146 C3141 1.399 . S
C3146 C3145 1.394 1_556 S
C3146 C3147 1.516 . S
C3147 C3146 1.516 . S
C3147 C3148 1.502 . S
C3147 C3149 1.561 . S
C3147 C3150 1.526 . S
C3148 H3132 0.959 . S
C3148 H3133 0.959 . S
C3148 H3134 0.961 . S
C3148 C3147 1.502 . S
C3149 H3135 0.960 . S
C3149 H3136 0.961 . S
C3149 H3137 0.959 . S
C3149 C3147 1.561 . S
C3150 C3147 1.526 . S
C3150 C3151 1.396 1_556 S
C3150 C3155 1.390 . S
C3151 C3145 1.465 . S
C3151 C3150 1.396 1_554 S
C3151 C3152 1.399 . S
C3152 H3138 0.929 . S
C3152 C3151 1.399 . S
C3152 C3153 1.385 . S
C3153 H3139 0.931 . S
C3153 C3152 1.385 . S
C3153 C3154 1.389 1_554 S
C3154 C3153 1.389 1_556 S
C3154 C3155 1.387 . S
C3155 H3140 0.930 . S
C3155 C3150 1.390 . S
C3155 C3154 1.387 . S
H3156 C3168 0.930 . S
H3157 C3170 0.930 . S
H3158 C3171 0.930 . S
H3159 C3175 0.959 . S
H3160 C3175 0.959 . S
H3161 C3175 0.961 . S
H3162 C3176 0.960 . S
H3163 C3176 0.961 . S
H3164 C3176 0.959 . S
H3165 C3179 0.929 . S
H3166 C3180 0.931 . S
H3167 C3182 0.930 . S
C3168 H3156 0.930 . S
C3168 C3169 1.399 . S
C3168 C3173 1.399 . S
C3169 C3168 1.399 . S
C3169 C3170 1.376 . S
C3170 H3157 0.930 . S
C3170 C3169 1.376 . S
C3170 C3171 1.388 . S
C3171 H3158 0.930 . S
C3171 C3170 1.388 . S
C3171 C3172 1.390 . S
C3172 C3171 1.390 . S
C3172 C3173 1.394 . S
C3172 C3178 1.465 . S
C3173 C3168 1.399 . S
C3173 C3172 1.394 . S
C3173 C3174 1.516 . S
C3174 C3173 1.516 . S
C3174 C3175 1.502 . S
C3174 C3176 1.561 . S
C3174 C3177 1.526 . S
C3175 H3159 0.959 . S
C3175 H3160 0.959 . S
C3175 H3161 0.961 . S
C3175 C3174 1.502 . S
C3176 H3162 0.960 . S
C3176 H3163 0.961 . S
C3176 H3164 0.959 . S
C3176 C3174 1.561 . S
C3177 C3174 1.526 . S
C3177 C3178 1.396 . S
C3177 C3182 1.390 . S
C3178 C3172 1.465 . S
C3178 C3177 1.396 . S
C3178 C3179 1.399 . S
C3179 H3165 0.929 . S
C3179 C3178 1.399 . S
C3179 C3180 1.385 . S
C3180 H3166 0.931 . S
C3180 C3179 1.385 . S
C3180 C3181 1.389 . S
C3181 C3180 1.389 . S
C3181 C3182 1.387 . S
C3182 H3167 0.930 . S
C3182 C3177 1.390 . S
C3182 C3181 1.387 . S
H3183 C3195 0.930 . S
H3184 C3197 0.930 . S
H3185 C3198 0.930 . S
H3186 C3202 0.959 . S
H3187 C3202 0.959 . S
H3188 C3202 0.961 . S
H3189 C3203 0.960 . S
H3190 C3203 0.961 . S
H3191 C3203 0.959 . S
H3192 C3206 0.929 . S
H3193 C3207 0.931 . S
H3194 C3209 0.930 . S
C3195 H3183 0.930 . S
C3195 C3196 1.395 1_554 S
C3195 C3200 1.399 . S
C3196 C3195 1.395 1_556 S
C3196 C3197 1.381 . S
C3197 H3184 0.930 . S
C3197 C3196 1.381 . S
C3197 C3198 1.388 . S
C3198 H3185 0.930 . S
C3198 C3197 1.388 . S
C3198 C3199 1.390 . S
C3199 C3198 1.390 . S
C3199 C3200 1.394 1_556 S
C3199 C3205 1.465 . S
C3200 C3195 1.399 . S
C3200 C3199 1.394 1_554 S
C3200 C3201 1.516 . S
C3201 C3200 1.516 . S
C3201 C3202 1.502 . S
C3201 C3203 1.561 . S
C3201 C3204 1.526 . S
C3202 H3186 0.959 . S
C3202 H3187 0.959 . S
C3202 H3188 0.961 . S
C3202 C3201 1.502 . S
C3203 H3189 0.960 . S
C3203 H3190 0.961 . S
C3203 H3191 0.959 . S
C3203 C3201 1.561 . S
C3204 C3201 1.526 . S
C3204 C3205 1.396 1_554 S
C3204 C3209 1.390 . S
C3205 C3199 1.465 . S
C3205 C3204 1.396 1_556 S
C3205 C3206 1.399 . S
C3206 H3192 0.929 . S
C3206 C3205 1.399 . S
C3206 C3207 1.385 . S
C3207 H3193 0.931 . S
C3207 C3206 1.385 . S
C3207 C3208 1.389 1_556 S
C3208 C3207 1.389 1_554 S
C3208 C3209 1.387 . S
C3209 H3194 0.930 . S
C3209 C3204 1.390 . S
C3209 C3208 1.387 . S
H3210 C3222 0.930 . S
H3211 C3224 0.930 . S
H3212 C3225 0.930 . S
H3213 C3229 0.959 . S
H3214 C3229 0.959 . S
H3215 C3229 0.961 . S
H3216 C3230 0.960 . S
H3217 C3230 0.961 . S
H3218 C3230 0.959 . S
H3219 C3233 0.929 . S
H3220 C3234 0.931 . S
H3221 C3236 0.930 . S
C3222 H3210 0.930 . S
C3222 C3223 1.399 . S
C3222 C3227 1.399 . S
C3223 C3222 1.399 . S
C3223 C3224 1.376 . S
C3224 H3211 0.930 . S
C3224 C3223 1.376 . S
C3224 C3225 1.388 . S
C3225 H3212 0.930 . S
C3225 C3224 1.388 . S
C3225 C3226 1.390 . S
C3226 C3225 1.390 . S
C3226 C3227 1.394 . S
C3226 C3232 1.465 . S
C3227 C3222 1.399 . S
C3227 C3226 1.394 . S
C3227 C3228 1.516 . S
C3228 C3227 1.516 . S
C3228 C3229 1.502 . S
C3228 C3230 1.561 . S
C3228 C3231 1.526 . S
C3229 H3213 0.959 . S
C3229 H3214 0.959 . S
C3229 H3215 0.961 . S
C3229 C3228 1.502 . S
C3230 H3216 0.960 . S
C3230 H3217 0.961 . S
C3230 H3218 0.959 . S
C3230 C3228 1.561 . S
C3231 C3228 1.526 . S
C3231 C3232 1.396 . S
C3231 C3236 1.390 . S
C3232 C3226 1.465 . S
C3232 C3231 1.396 . S
C3232 C3233 1.399 . S
C3233 H3219 0.929 . S
C3233 C3232 1.399 . S
C3233 C3234 1.385 . S
C3234 H3220 0.931 . S
C3234 C3233 1.385 . S
C3234 C3235 1.389 . S
C3235 C3234 1.389 . S
C3235 C3236 1.387 . S
C3236 H3221 0.930 . S
C3236 C3231 1.390 . S
C3236 C3235 1.387 . S
H3237 C3249 0.930 . S
H3238 C3251 0.930 . S
H3239 C3252 0.930 . S
H3240 C3256 0.959 . S
H3241 C3256 0.959 . S
H3242 C3256 0.961 . S
H3243 C3257 0.960 . S
H3244 C3257 0.961 . S
H3245 C3257 0.959 . S
H3246 C3260 0.929 . S
H3247 C3261 0.931 . S
H3248 C3263 0.930 . S
C3249 H3237 0.930 . S
C3249 C3250 1.399 . S
C3249 C3254 1.399 . S
C3250 C3249 1.399 . S
C3250 C3251 1.376 . S
C3251 H3238 0.930 . S
C3251 C3250 1.376 . S
C3251 C3252 1.388 . S
C3252 H3239 0.930 . S
C3252 C3251 1.388 . S
C3252 C3253 1.390 . S
C3253 C3252 1.390 . S
C3253 C3254 1.394 . S
C3253 C3259 1.465 . S
C3254 C3249 1.399 . S
C3254 C3253 1.394 . S
C3254 C3255 1.516 . S
C3255 C3254 1.516 . S
C3255 C3256 1.502 . S
C3255 C3257 1.561 . S
C3255 C3258 1.526 . S
C3256 H3240 0.959 . S
C3256 H3241 0.959 . S
C3256 H3242 0.961 . S
C3256 C3255 1.502 . S
C3257 H3243 0.960 . S
C3257 H3244 0.961 . S
C3257 H3245 0.959 . S
C3257 C3255 1.561 . S
C3258 C3255 1.526 . S
C3258 C3259 1.396 . S
C3258 C3263 1.390 . S
C3259 C3253 1.465 . S
C3259 C3258 1.396 . S
C3259 C3260 1.399 . S
C3260 H3246 0.929 . S
C3260 C3259 1.399 . S
C3260 C3261 1.385 . S
C3261 H3247 0.931 . S
C3261 C3260 1.385 . S
C3261 C3262 1.389 . S
C3262 C3261 1.389 . S
C3262 C3263 1.387 . S
C3263 H3248 0.930 . S
C3263 C3258 1.390 . S
C3263 C3262 1.387 . S
C697 C351 1.307 1_455 S
C685 C5 1.365 . S
C712 C23 1.202 . S
C724 C370 1.155 . S
C739 C39 1.301 . S
C751 C393 1.246 . S
C778 C413 1.343 . S
C766 C42 1.370 . S
C793 C19 1.380 . S
C805 C434 1.364 1_455 S
C832 C456 1.250 . S
C820 C28 1.393 . S
C859 C478 1.194 . S
C847 C53 1.160 . S
C874 C9 1.318 . S
C886 C496 1.309 . S
C901 C65 1.347 . S
C913 C352 1.304 . S
C928 C75 1.379 . S
C940 C371 1.371 . S
C967 C394 1.266 . S
C955 C93 1.273 . S
C994 C417 1.202 . S
C982 C109 1.331 . S
C1009 C56 1.431 . S
C1021 C438 1.373 . S
C1048 C457 1.054 . S
C1036 C81 1.137 . S
C1075 C479 1.342 . S
C1063 C84 1.370 . S
C1102 C497 1.250 . S
C1090 C103 1.305 . S
C1129 C353 1.251 . S
C1117 C107 1.315 . S
C1156 C520 1.193 . S
C1144 C121 1.217 . S
C1171 C131 1.394 . S
C1183 C542 1.352 . S
C1210 C561 1.308 . S
C1198 C140 1.426 . S
C1225 C61 1.374 . S
C1237 C501 1.295 . S
C1264 C395 1.343 . S
C1252 C70 1.341 . S
C1279 C137 1.175 . S
C1291 C583 1.125 . S
C1318 C606 1.204 . S
C1306 C165 1.298 . S
C1333 C173 1.317 . S
C1345 C354 1.240 . S
C1372 C605 1.227 . S
C1360 C182 1.249 . S
C1387 C207 1.364 . S
C1399 C396 1.252 . S
C1414 C219 1.230 . S
C1426 C580 1.201 . S
C1453 C436 1.164 . S
C1441 C187 1.252 . S
C1480 C543 1.324 . S
C1468 C205 1.366 . S
C1507 C476 1.274 . S
C1495 C221 1.255 . S
C1534 C626 1.329 . S
C1522 C168 1.367 . S
C1561 C350 1.362 . S
C1549 C224 1.391 1_545 S
C1576 C243 1.215 . S
C1588 C604 1.230 . S
C1615 C392 1.250 . S
C1603 C252 1.280 . S
C1630 C277 1.267 . S
C1642 C585 1.183 . S
C1657 C233 1.398 . S
C1669 C435 1.353 . S
C1684 C249 1.222 . S
C1696 C539 1.246 . S
C1723 C475 1.215 . S
C1711 C261 1.253 . S
C1738 C271 1.252 . S
C1750 C625 1.258 . S
C1765 C266 1.237 . S
C1777 C349 1.228 . S
C1792 C280 1.303 . S
C1804 C518 1.248 . S
C1819 C299 1.266 . S
C1831 C454 1.204 . S
C1846 C317 1.349 . S
C1858 C564 1.304 . S
C1885 C624 1.273 . S
C1873 C229 1.331 . S
C1912 C391 1.167 . S
C1900 C247 1.219 . S
C1939 C416 1.225 . S
C1927 C305 1.238 . S
C1966 C372 1.186 . S
C1954 C333 1.339 . S
C1981 C33 1.360 . S
C1993 C648 1.186 . S
C2020 C601 1.217 . S
C2008 C51 1.208 . S
C2047 C666 1.272 . S
C2035 C11 1.321 . S
C2062 C14 1.352 . S
C2074 C584 1.354 . S
C2089 C47 1.376 . S
C2101 C521 1.372 . S
C2128 C540 1.252 . S
C2116 C0 1.394 . S
C2155 C562 1.164 . S
C2143 C25 1.165 . S
C2182 C622 1.311 . S
C2170 C37 1.338 . S
C2209 C643 1.280 . S
C2197 C163 1.352 . S
C2224 C117 1.370 . S
C2236 C602 1.353 . S
C2251 C135 1.252 . S
C2263 C667 1.260 . S
C2290 C582 1.316 . S
C2278 C151 1.356 . S
C2317 C519 1.353 . S
C2305 C154 1.418 . S
C2332 C123 1.138 . S
C2344 C541 1.053 . S
C2371 C563 1.376 . S
C2359 C126 1.378 . S
C2386 C145 1.317 . S
C2398 C623 1.307 . S
C2425 C644 1.255 . S
C2413 C149 1.316 . S
C2452 C433 1.204 . S
C2440 C79 1.214 . S
C2479 C458 1.336 . S
C2467 C89 1.391 . S
C2494 C98 1.413 . S
C2506 C477 1.353 . S
C2533 C627 1.220 . S
C2521 C159 1.377 . S
C2548 C112 1.335 . S
C2560 C668 1.288 . S
C2587 C412 1.159 . S
C2575 C95 1.161 . S
C2614 C375 1.238 . S
C2602 C67 1.299 . S
C2629 C201 1.319 . S
C2641 C645 1.210 . S
C2668 C374 1.216 . S
C2656 C210 1.253 . S
C2695 C669 1.260 . S
C2683 C179 1.355 . S
C2710 C191 1.222 . S
C2722 C415 1.171 . S
C2737 C215 1.242 . S
C2749 C517 1.251 . S
C2764 C177 1.365 . S
C2776 C459 1.321 . S
C2791 C193 1.275 . S
C2803 C560 1.202 . S
C2818 C196 1.366 . S
C2830 C500 1.333 . S
C2857 C647 1.356 . S
C2845 C322 1.393 . S
C2872 C285 1.230 . S
C2884 C373 1.140 . S
C2911 C665 1.254 . S
C2899 C294 1.289 . S
C2926 C319 1.283 . S
C2938 C414 1.205 . S
C2953 C331 1.417 . S
C2965 C522 1.234 . S
C2992 C455 1.165 . S
C2980 C291 1.250 . S
C3007 C303 1.254 . S
C3019 C559 1.210 . S
C3046 C499 1.177 . S
C3034 C313 1.256 . S
C3073 C646 1.188 . S
C3061 C308 1.225 . S
C3100 C437 1.246 . S
C3088 C238 1.303 . S
C3115 C257 1.265 . S
C3127 C538 1.210 . S
C3154 C480 1.313 . S
C3142 C275 1.346 . S
C3181 C498 1.277 . S
C3169 C327 1.332 . S
C3196 C289 1.217 . S
C3208 C664 1.178 . S
C3235 C581 1.228 . S
C3223 C263 1.260 . S
C3262 C603 1.209 . S
C3250 C235 1.339 . S
