# Generated by pormake.
# Topology zzz, (3,6)-cn, num edge types: 1
# Building blocks:
#     Node 0, Type 0, BuildingBlock: WUSLED_clean_sbu_0, # of connection points: 3
#     Node 1, Type 0, BuildingBlock: WUSLED_clean_sbu_0, # of connection points: 3
#     Node 2, Type 0, BuildingBlock: WUSLED_clean_sbu_0, # of connection points: 3
#     Node 3, Type 0, BuildingBlock: WUSLED_clean_sbu_0, # of connection points: 3
#     Node 4, Type 0, BuildingBlock: WUSLED_clean_sbu_0, # of connection points: 3
#     Node 5, Type 0, BuildingBlock: WUSLED_clean_sbu_0, # of connection points: 3
#     Node 6, Type 0, BuildingBlock: WUSLED_clean_sbu_0, # of connection points: 3
#     Node 7, Type 0, BuildingBlock: WUSLED_clean_sbu_0, # of connection points: 3
#     Node 8, Type 1, BuildingBlock: PAMTUU_clean_sbu_0, # of connection points: 6
#     Node 9, Type 1, BuildingBlock: PAMTUU_clean_sbu_0, # of connection points: 6
#     Node 10, Type 1, BuildingBlock: PAMTUU_clean_sbu_0, # of connection points: 6
#     Node 11, Type 1, BuildingBlock: PAMTUU_clean_sbu_0, # of connection points: 6
#     Edge 12, Type (0, 1), BuildingBlock: XUDNAN_clean_linker_2, # of connection points: 2
#     Edge 13, Type (0, 1), BuildingBlock: XUDNAN_clean_linker_2, # of connection points: 2
#     Edge 14, Type (0, 1), BuildingBlock: XUDNAN_clean_linker_2, # of connection points: 2
#     Edge 15, Type (0, 1), BuildingBlock: XUDNAN_clean_linker_2, # of connection points: 2
#     Edge 16, Type (0, 1), BuildingBlock: XUDNAN_clean_linker_2, # of connection points: 2
#     Edge 17, Type (0, 1), BuildingBlock: XUDNAN_clean_linker_2, # of connection points: 2
#     Edge 18, Type (0, 1), BuildingBlock: XUDNAN_clean_linker_2, # of connection points: 2
#     Edge 19, Type (0, 1), BuildingBlock: XUDNAN_clean_linker_2, # of connection points: 2
#     Edge 20, Type (0, 1), BuildingBlock: XUDNAN_clean_linker_2, # of connection points: 2
#     Edge 21, Type (0, 1), BuildingBlock: XUDNAN_clean_linker_2, # of connection points: 2
#     Edge 22, Type (0, 1), BuildingBlock: XUDNAN_clean_linker_2, # of connection points: 2
#     Edge 23, Type (0, 1), BuildingBlock: XUDNAN_clean_linker_2, # of connection points: 2
#     Edge 24, Type (0, 1), BuildingBlock: XUDNAN_clean_linker_2, # of connection points: 2
#     Edge 25, Type (0, 1), BuildingBlock: XUDNAN_clean_linker_2, # of connection points: 2
#     Edge 26, Type (0, 1), BuildingBlock: XUDNAN_clean_linker_2, # of connection points: 2
#     Edge 27, Type (0, 1), BuildingBlock: XUDNAN_clean_linker_2, # of connection points: 2
#     Edge 28, Type (0, 1), BuildingBlock: XUDNAN_clean_linker_2, # of connection points: 2
#     Edge 29, Type (0, 1), BuildingBlock: XUDNAN_clean_linker_2, # of connection points: 2
#     Edge 30, Type (0, 1), BuildingBlock: XUDNAN_clean_linker_2, # of connection points: 2
#     Edge 31, Type (0, 1), BuildingBlock: XUDNAN_clean_linker_2, # of connection points: 2
#     Edge 32, Type (0, 1), BuildingBlock: XUDNAN_clean_linker_2, # of connection points: 2
#     Edge 33, Type (0, 1), BuildingBlock: XUDNAN_clean_linker_2, # of connection points: 2
#     Edge 34, Type (0, 1), BuildingBlock: XUDNAN_clean_linker_2, # of connection points: 2
#     Edge 35, Type (0, 1), BuildingBlock: XUDNAN_clean_linker_2, # of connection points: 2
# Relax obj value: 0.357
# Max RMSD: 0.253
# Mean RMSD: 0.214
data_MOF--net-zzz--node1-WUSLED_clean_sbu_0--node2-PAMTUU_clean_sbu_0--edge1-XUDNAN_clean_linker_2
_symmetry_space_group_name_H-M    P1
_symmetry_Int_Tables_number       1
_symmetry_cell_setting            triclinic
loop_
_symmetry_equiv_pos_as_xyz
'x, y, z'
_cell_length_a     61.951172
_cell_length_b     65.858073
_cell_length_c     21.83927
_cell_angle_alpha  97.655798
_cell_angle_beta   90.233721
_cell_angle_gamma 89.931392
loop_
_atom_site_label
_atom_site_type_symbol
_atom_site_fract_x
_atom_site_fract_y
_atom_site_fract_z
_atom_type_partial_charge
C0 C 0.79957 0.50315 0.49098 0.0
C1 C 0.81356 0.48738 0.46565 0.0
C2 C 0.84228 0.49923 0.54062 0.0
C3 C 0.83453 0.48552 0.48985 0.0
C4 C 0.82851 0.51545 0.56422 0.0
C5 C 0.80755 0.51732 0.53992 0.0
U6 U 0.74903 0.50312 0.37801 0.0
O7 O 0.71771 0.48743 0.38302 0.0
O8 O 0.7187 0.52086 0.38858 0.0
C9 C 0.70672 0.50424 0.37804 0.0
C10 C 0.77609 0.50384 0.47284 0.0
C11 C 0.69114 0.50294 0.32468 0.0
C12 C 0.66068 0.48574 0.26801 0.0
C13 C 0.67483 0.48801 0.31893 0.0
C14 C 0.67858 0.51341 0.22655 0.0
C15 C 0.66235 0.49826 0.22055 0.0
C16 C 0.69285 0.51563 0.27761 0.0
C17 C 0.78208 0.49818 0.22722 0.0
C18 C 0.79662 0.49467 0.12441 0.0
C19 C 0.81983 0.49099 0.21249 0.0
C20 C 0.80237 0.4947 0.25197 0.0
C21 C 0.81689 0.49078 0.14854 0.0
C22 C 0.77922 0.49839 0.16383 0.0
C23 C 0.76316 0.50019 0.26523 0.0
O24 O 0.7688 0.52048 0.45234 0.0
O25 O 0.76729 0.487 0.44407 0.0
O26 O 0.75856 0.48417 0.29269 0.0
O27 O 0.76062 0.51787 0.30011 0.0
H28 H 0.80815 0.47614 0.42799 0.0
H29 H 0.84459 0.47306 0.46897 0.0
H30 H 0.83353 0.52629 0.60333 0.0
H31 H 0.79721 0.52954 0.56106 0.0
H32 H 0.6483 0.47408 0.26609 0.0
H33 H 0.67312 0.47788 0.35384 0.0
H34 H 0.68066 0.52323 0.19098 0.0
H35 H 0.70541 0.52713 0.27967 0.0
H36 H 0.79425 0.49473 0.07524 0.0
H37 H 0.83546 0.4878 0.23157 0.0
H38 H 0.80452 0.49439 0.30113 0.0
H39 H 0.76344 0.50102 0.14476 0.0
C40 C 0.99472 0.78465 0.48809 0.0
C41 C 0.99593 0.80071 0.45191 0.0
C42 C 0.99305 0.82585 0.54463 0.0
C43 C 0.99522 0.82119 0.48003 0.0
C44 C 0.99203 0.80961 0.58031 0.0
C45 C 0.99288 0.78929 0.55233 0.0
U46 U 0.99505 0.73835 0.35581 0.0
O47 O 0.97806 0.70892 0.35497 0.0
O48 O 1.0134 0.70976 0.35605 0.0
C49 C 0.99604 0.69824 0.34881 0.0
C50 C 0.99526 0.76288 0.46125 0.0
C51 C 0.99658 0.68184 0.29579 0.0
C52 C 0.99277 0.6459 0.25376 0.0
C53 C 0.99265 0.66145 0.3043 0.0
C54 C 1.001 0.67101 0.18572 0.0
C55 C 0.99678 0.65051 0.19372 0.0
C56 C 1.00082 0.68651 0.23615 0.0
C57 C 0.9947 0.77148 0.22003 0.0
C58 C 0.99284 0.78523 0.12285 0.0
C59 C 1.00824 0.80563 0.21317 0.0
C60 C 1.00404 0.7898 0.24826 0.0
C61 C 1.00344 0.80301 0.1497 0.0
C62 C 0.98841 0.76961 0.15794 0.0
C63 C 0.9943 0.75294 0.25008 0.0
O64 O 0.9775 0.75539 0.43386 0.0
O65 O 1.01293 0.75629 0.4319 0.0
O66 O 1.01221 0.74854 0.27801 0.0
O67 O 0.97665 0.74916 0.27972 0.0
H68 H 0.99728 0.79742 0.40221 0.0
H69 H 0.99592 0.83334 0.45124 0.0
H70 H 0.99073 0.81262 0.63014 0.0
H71 H 0.99204 0.77711 0.58107 0.0
H72 H 0.98923 0.63035 0.26153 0.0
H73 H 0.98928 0.65757 0.34998 0.0
H74 H 1.0045 0.67511 0.1404 0.0
H75 H 1.00392 0.70217 0.22857 0.0
H76 H 0.98907 0.78297 0.07391 0.0
H77 H 1.01663 0.81922 0.23439 0.0
H78 H 1.00922 0.79135 0.29603 0.0
H79 H 0.98131 0.75549 0.13549 0.0
C80 C 0.76413 0.00671 0.4962 0.0
C81 C 0.74537 1.00201 0.46004 0.0
C82 C 0.72194 0.0086 0.55215 0.0
C83 C 0.72455 1.00302 0.48763 0.0
C84 C 0.74098 0.01264 0.58751 0.0
C85 C 0.76146 0.01191 0.56011 0.0
U86 U 0.81395 0.00974 0.3804 0.0
O87 O 0.84653 0.02268 0.39942 0.0
O88 O 0.84258 0.98965 0.37257 0.0
C89 C 0.85604 0.00521 0.37891 0.0
C90 C 0.78688 0.00541 0.47174 0.0
C91 C 0.87183 0.00552 0.32734 0.0
C92 C 0.9067 0.99504 0.28201 0.0
C93 C 0.89208 0.9963 0.33131 0.0
C94 C 0.88136 0.01255 0.22296 0.0
C95 C 0.90153 1.00279 0.22646 0.0
C96 C 0.86663 0.01379 0.27266 0.0
C97 C 0.77905 0.01818 0.24345 0.0
C98 C 0.76049 0.00938 0.14694 0.0
C99 C 0.74125 0.01022 0.24424 0.0
C100 C 0.76003 0.01617 0.27631 0.0
C101 C 0.74169 0.00607 0.17956 0.0
C102 C 0.77916 0.0155 0.17899 0.0
C103 C 0.79947 0.01755 0.27409 0.0
O104 O 0.79224 0.99034 0.42865 0.0
O105 O 0.79699 0.02262 0.46599 0.0
O106 O 0.80336 0.03211 0.32009 0.0
O107 O 0.80419 0.99905 0.28605 0.0
H108 H 0.74675 0.99762 0.41065 0.0
H109 H 0.71054 0.99972 0.45823 0.0
H110 H 0.74026 0.01621 0.63726 0.0
H111 H 0.77546 0.01523 0.58962 0.0
H112 H 0.92213 0.98774 0.2874 0.0
H113 H 0.89652 0.98974 0.3725 0.0
H114 H 0.87664 0.01858 0.18111 0.0
H115 H 0.85102 0.02085 0.26787 0.0
H116 H 0.76098 0.00634 0.09697 0.0
H117 H 0.72662 0.00829 0.26989 0.0
H118 H 0.76006 0.01791 0.32635 0.0
H119 H 0.79402 0.01664 0.15363 0.0
C120 C 0.58638 0.7235 0.24331 0.0
C121 C 0.58377 0.70343 0.21284 0.0
C122 C 0.58197 0.69033 0.31243 0.0
C123 C 0.58173 0.68688 0.24732 0.0
C124 C 0.58537 0.71036 0.342 0.0
C125 C 0.58756 0.72668 0.30787 0.0
U126 U 0.58486 0.75513 0.10272 0.0
O127 O 0.56666 0.78377 0.10313 0.0
O128 O 0.60195 0.78408 0.09465 0.0
C129 C 0.58393 0.79469 0.09553 0.0
C130 C 0.58654 0.74183 0.21105 0.0
C131 C 0.58193 0.80972 0.0514 0.0
C132 C 0.58522 0.8452 0.03307 0.0
C133 C 0.58864 0.82988 0.07056 0.0
C134 C 0.56865 0.82032 0.95545 0.0
C135 C 0.57492 0.84074 0.97534 0.0
C136 C 0.57209 0.80494 0.99322 0.0
C137 C 0.58049 0.71421 0.94668 0.0
C138 C 0.55758 0.69776 0.8645 0.0
C139 C 0.58941 0.6803 0.89609 0.0
C140 C 0.59461 0.69742 0.93828 0.0
C141 C 0.57027 0.68004 0.86139 0.0
C142 C 0.56259 0.71475 0.90738 0.0
C143 C 0.58208 0.72895 1.00297 0.0
O144 O 0.60384 0.74524 0.1793 0.0
O145 O 0.56845 0.74625 0.18418 0.0
O146 O 0.56487 0.73669 0.03249 0.0
O147 O 0.60082 0.73533 0.02673 0.0
H148 H 0.58276 0.70065 0.16289 0.0
H149 H 0.57904 0.67161 0.22334 0.0
H150 H 0.58583 0.71349 0.39197 0.0
H151 H 0.58958 0.74201 0.33225 0.0
H152 H 0.59067 0.86059 0.04949 0.0
H153 H 0.59622 0.83389 0.11535 0.0
H154 H 0.56055 0.81632 0.91147 0.0
H155 H 0.56668 0.78947 0.97764 0.0
H156 H 0.54261 0.69767 0.83865 0.0
H157 H 0.59919 0.66659 0.89474 0.0
H158 H 0.60845 0.69668 0.96841 0.0
H159 H 0.55156 0.72764 0.91316 0.0
C160 C 0.262 0.50213 0.05832 0.0
C161 C 0.24306 0.49876 0.09124 0.0
C162 C 0.22007 0.50514 1.00314 0.0
C163 C 0.22236 0.50033 0.06411 0.0
C164 C 0.23924 0.50772 0.97027 0.0
C165 C 0.25965 0.50645 0.99748 0.0
U166 U 0.31095 0.50343 0.17984 0.0
O167 O 0.34037 0.48444 0.17181 0.0
O168 O 0.34294 0.51768 0.17289 0.0
C169 C 0.35314 0.50055 0.17936 0.0
C170 C 0.28459 0.50083 0.08306 0.0
C171 C 0.36876 0.50177 0.23207 0.0
C172 C 0.40367 0.5129 0.27639 0.0
C173 C 0.389 0.51082 0.22683 0.0
C174 C 0.37824 0.49687 0.33843 0.0
C175 C 0.39852 0.5062 0.33338 0.0
C176 C 0.36351 0.49478 0.28854 0.0
C177 C 0.27505 0.5101 0.32094 0.0
C178 C 0.25449 0.51252 0.41455 0.0
C179 C 0.23695 0.50327 0.31474 0.0
C180 C 0.25652 0.50499 0.28554 0.0
C181 C 0.23603 0.50683 0.37927 0.0
C182 C 0.27409 0.51405 0.38525 0.0
C183 C 0.29578 0.50914 0.29175 0.0
O184 O 0.29398 0.51794 0.10749 0.0
O185 O 0.29014 0.48499 0.1106 0.0
O186 O 0.30031 0.49098 0.26212 0.0
O187 O 0.30035 0.52439 0.26084 0.0
H188 H 0.24418 0.49496 0.13773 0.0
H189 H 0.20819 0.49816 0.09133 0.0
H190 H 0.23862 0.51069 0.92274 0.0
H191 H 0.27382 0.50876 0.97031 0.0
H192 H 0.41918 0.5198 0.26971 0.0
H193 H 0.39347 0.51644 0.18423 0.0
H194 H 0.37348 0.49167 0.3814 0.0
H195 H 0.34789 0.48793 0.29445 0.0
H196 H 0.25373 0.51554 0.46452 0.0
H197 H 0.22258 0.49937 0.28721 0.0
H198 H 0.25742 0.50186 0.23578 0.0
H199 H 0.28851 0.51786 0.41262 0.0
C200 C 0.06802 0.22305 0.08411 0.0
C201 C 0.06738 0.2079 0.12348 0.0
C202 C 0.06898 0.18113 0.03445 0.0
C203 C 0.06786 0.18712 0.09887 0.0
C204 C 0.06933 0.19647 0.99541 0.0
C205 C 0.06888 0.21718 0.02005 0.0
U206 U 0.06685 0.27021 0.21225 0.0
O207 O 0.08561 0.29867 0.21488 0.0
O208 O 0.05033 0.29954 0.20741 0.0
C209 C 0.06824 0.31019 0.21632 0.0
C210 C 0.0682 0.24506 0.10802 0.0
C211 C 0.06759 0.32759 0.26627 0.0
C212 C 0.07042 0.36421 0.29826 0.0
C213 C 0.07051 0.34745 0.25175 0.0
C214 C 0.06418 0.34149 0.37495 0.0
C215 C 0.06751 0.36147 0.36056 0.0
C216 C 0.06429 0.32466 0.32814 0.0
C217 C 0.0612 0.23817 0.34968 0.0
C218 C 0.04826 0.22421 0.43957 0.0
C219 C 0.06901 0.20282 0.36196 0.0
C220 C 0.07065 0.21924 0.32753 0.0
C221 C 0.05807 0.20534 0.41884 0.0
C222 C 0.04987 0.24045 0.40537 0.0
C223 C 0.06344 0.25637 0.31862 0.0
O224 O 0.05017 0.25276 0.13282 0.0
O225 O 0.08552 0.25191 0.13907 0.0
O226 O 0.08212 0.25932 0.29282 0.0
O227 O 0.04666 0.26122 0.28655 0.0
H228 H 0.0666 0.21214 0.17306 0.0
H229 H 0.06722 0.17574 0.13033 0.0
H230 H 0.07045 0.19249 0.94578 0.0
H231 H 0.06942 0.22869 0.98894 0.0
H232 H 0.07257 0.37938 0.28526 0.0
H233 H 0.07295 0.35001 0.20428 0.0
H234 H 0.062 0.33881 0.4224 0.0
H235 H 0.06198 0.30938 0.34023 0.0
H236 H 0.03925 0.22645 0.48236 0.0
H237 H 0.07664 0.18837 0.34492 0.0
H238 H 0.07951 0.21728 0.2845 0.0
H239 H 0.04244 0.25497 0.42293 0.0
C240 C 0.2981 1.00118 0.03717 0.0
C241 C 0.31615 0.01074 0.0683 0.0
C242 C 0.33886 1.00206 0.97627 0.0
C243 C 0.33631 0.01117 0.0382 0.0
C244 C 0.32079 0.992 0.94664 0.0
C245 C 0.30081 0.99168 0.97642 0.0
U246 U 0.25984 0.00702 0.1781 0.0
O247 O 0.23324 0.98752 0.2041 0.0
O248 O 0.22667 0.01927 0.18993 0.0
C249 C 0.21898 1.00246 0.20817 0.0
C250 C 0.27627 1.00069 0.06592 0.0
C251 C 0.20382 0.00502 0.26218 0.0
C252 C 0.16949 0.01866 0.30481 0.0
C253 C 0.18567 0.0177 0.25977 0.0
C254 C 0.18935 0.99477 0.35824 0.0
C255 C 0.17067 0.00682 0.35401 0.0
C256 C 0.20568 0.99381 0.31277 0.0
C257 C 0.28877 0.0219 0.33391 0.0
C258 C 0.28505 0.00813 0.43066 0.0
C259 C 0.31382 0.03199 0.41653 0.0
C260 C 0.30588 0.03409 0.35833 0.0
C261 C 0.30446 0.01779 0.45167 0.0
C262 C 0.27735 0.00997 0.37148 0.0
C263 C 0.28716 0.01817 0.26696 0.0
O264 O 0.27287 0.98596 0.09982 0.0
O265 O 0.26799 0.01832 0.09026 0.0
O266 O 0.27633 0.03154 0.23933 0.0
O267 O 0.28394 0.99897 0.24359 0.0
H268 H 0.31462 0.01805 0.11554 0.0
H269 H 0.34969 0.01907 0.06294 0.0
H270 H 0.32197 0.98421 0.89991 0.0
H271 H 0.28733 0.98399 0.95153 0.0
H272 H 0.15574 0.02852 0.30024 0.0
H273 H 0.18362 0.0265 0.22162 0.0
H274 H 0.19095 0.98541 0.39518 0.0
H275 H 0.21941 0.98383 0.31635 0.0
H276 H 0.27701 0.99764 0.45721 0.0
H277 H 0.32883 0.03975 0.42967 0.0
H278 H 0.31477 0.04341 0.32971 0.0
H279 H 0.26383 1.00062 0.35313 0.0
C280 C 0.46321 0.28584 0.30528 0.0
C281 C 0.46561 0.30448 0.34405 0.0
C282 C 0.4652 0.32311 0.25451 0.0
C283 C 0.4666 0.32294 0.31891 0.0
C284 C 0.46291 0.30431 0.21605 0.0
C285 C 0.46195 0.28587 0.24125 0.0
U286 U 0.46714 0.25562 0.4419 0.0
O287 O 0.45175 0.22684 0.46006 0.0
O288 O 0.48695 0.22822 0.44781 0.0
C289 C 0.47022 0.21688 0.45771 0.0
C290 C 0.46318 0.26621 0.33062 0.0
C291 C 0.4734 0.20141 0.49968 0.0
C292 C 0.47922 0.1655 0.50919 0.0
C293 C 0.47508 0.18095 0.47293 0.0
C294 C 0.47955 0.1907 0.6007 0.0
C295 C 0.48159 0.17005 0.57365 0.0
C296 C 0.47557 0.20629 0.56392 0.0
C297 C 0.47584 0.29465 0.59568 0.0
C298 C 0.50556 0.30345 0.66669 0.0
C299 C 0.47629 0.32752 0.66049 0.0
C300 C 0.46568 0.3132 0.61795 0.0
C301 C 0.49717 0.32332 0.68079 0.0
C302 C 0.49488 0.28909 0.62438 0.0
C303 C 0.47085 0.28581 0.53194 0.0
O304 O 0.48168 0.26142 0.35441 0.0
O305 O 0.44653 0.26277 0.36497 0.0
O306 O 0.4522 0.27681 0.51784 0.0
O307 O 0.48712 0.27803 0.49814 0.0
H308 H 0.46691 0.30473 0.39365 0.0
H309 H 0.46874 0.33705 0.34996 0.0
H310 H 0.46152 0.30382 0.16644 0.0
H311 H 0.46028 0.27159 0.21065 0.0
H312 H 0.48121 0.15004 0.48603 0.0
H313 H 0.4736 0.17692 0.42332 0.0
H314 H 0.48104 0.19484 0.65019 0.0
H315 H 0.47437 0.22206 0.58538 0.0
H316 H 0.52152 0.29984 0.6826 0.0
H317 H 0.46945 0.34274 0.67076 0.0
H318 H 0.45099 0.31778 0.59637 0.0
H319 H 0.5029 0.27476 0.60833 0.0
Tb320 Tb 1.01334 0.01638 0.74692 0.0
Tb321 Tb 0.04988 0.99168 0.8116 0.0
C322 C 1.00387 1.00116 0.87359 0.0
C323 C 0.99332 0.0535 0.65412 0.0
C324 C 1.00949 0.08824 0.60839 0.0
C325 C 0.99102 0.08975 0.64569 0.0
C326 C 0.98291 0.07244 0.66814 0.0
C327 C 1.01131 0.05187 0.61462 0.0
C328 C 0.01922 0.06911 0.59145 0.0
C329 C 0.98791 0.03679 0.68961 0.0
O330 O 0.03722 0.03954 0.77997 0.0
O331 O 0.05335 0.02319 0.85426 0.0
O332 O 0.06828 0.00406 0.73972 0.0
O333 O 0.03891 0.00818 0.67855 0.0
O334 O 0.06524 0.986 0.89337 0.0
O335 O 0.07273 0.96793 0.80642 0.0
O336 O 0.03523 0.97058 0.73815 0.0
O337 O 1.00172 0.98488 0.74043 0.0
O338 O 1.00094 0.0162 0.84062 0.0
O339 O 0.01935 0.98767 0.85928 0.0
C340 C 0.04913 0.03993 0.8299 0.0
O341 O 0.99474 0.01855 0.66742 0.0
O342 O 0.99174 0.04096 0.74865 0.0
C343 C 0.05999 0.00667 0.68576 0.0
C344 C 0.06867 0.95069 0.89229 0.0
C345 C 0.05732 0.91469 0.93973 0.0
C346 C 0.07913 0.92024 0.93595 0.0
C347 C 0.08478 0.93825 0.91261 0.0
C348 C 0.04691 0.94501 0.89549 0.0
C349 C 0.04124 0.92727 0.91969 0.0
C350 C 0.07428 0.96934 0.8663 0.0
C351 C 1.01451 0.96905 0.72692 0.0
H352 H 0.9833 0.10444 0.65895 0.0
H353 H 0.96925 0.07407 0.69924 0.0
H354 H 0.01996 0.03754 0.60411 0.0
H355 H 0.03361 0.06773 0.56314 0.0
H356 H 0.09176 0.9107 0.95135 0.0
H357 H 0.10164 0.94237 0.90999 0.0
H358 H 0.03429 0.95414 0.8786 0.0
H359 H 0.02434 0.92313 0.92134 0.0
Tb360 Tb 0.52417 0.99304 0.6915 0.0
Tb361 Tb 0.53438 0.01479 0.82991 0.0
C362 C 0.54204 0.9671 0.79451 0.0
C363 C 0.48905 0.97869 0.56699 0.0
C364 C 0.44429 0.98114 0.55364 0.0
C365 C 0.45561 0.96393 0.52485 0.0
C366 C 0.47794 0.9626 0.53228 0.0
C367 C 0.47794 0.99624 0.59292 0.0
C368 C 0.45582 0.99734 0.58708 0.0
C369 C 0.51063 0.97568 0.58998 0.0
O370 O 0.49256 0.99786 0.73822 0.0
O371 O 0.50084 0.00721 0.84054 0.0
O372 O 0.51748 0.03775 0.78689 0.0
O373 O 0.52281 0.02584 0.68476 0.0
O374 O 0.5317 0.01835 0.92615 0.0
O375 O 0.54968 0.04005 0.88039 0.0
O376 O 0.56557 0.0135 0.78026 0.0
O377 O 0.55885 0.99629 0.68329 0.0
O378 O 0.53839 0.96874 0.73626 0.0
O379 O 0.54008 0.98266 0.83827 0.0
C380 C 0.48674 1.00199 0.79672 0.0
O381 O 0.52303 0.99184 0.59502 0.0
O382 O 0.51055 0.96707 0.64031 0.0
C383 C 0.51798 0.04063 0.729 0.0
C384 C 0.56543 0.02739 0.96244 0.0
C385 C 0.6026 0.01485 0.01577 0.0
C386 C 0.59226 0.03277 0.04258 0.0
C387 C 0.57336 0.03904 0.01585 0.0
C388 C 0.57636 0.00984 0.93523 0.0
C389 C 0.59479 1.00348 0.96213 0.0
C390 C 0.54607 0.03289 0.93218 0.0
C391 C 0.57218 0.0056 0.72454 0.0
H392 H 0.44724 0.95133 0.49798 0.0
H393 H 0.48632 0.94872 0.51354 0.0
H394 H 0.48615 0.00858 0.62164 0.0
H395 H 0.44778 0.01057 0.61166 0.0
H396 H 0.59881 0.04176 0.08358 0.0
H397 H 0.56512 0.05279 0.03623 0.0
H398 H 0.57072 1.00108 0.89293 0.0
H399 H 0.60314 0.98989 0.94067 0.0
Tb400 Tb 0.50984 0.49822 0.82363 0.0
Tb401 Tb 0.55098 0.50892 0.73161 0.0
C402 C 0.50114 0.50608 0.68512 0.0
C403 C 0.48053 0.47045 0.93582 0.0
C404 C 0.47647 0.43932 0.01276 0.0
C405 C 0.45855 0.45115 0.99943 0.0
C406 C 0.46058 0.46651 0.96151 0.0
C407 C 0.49845 0.45827 0.94705 0.0
C408 C 0.49642 0.44279 0.98528 0.0
C409 C 0.4818 0.48663 0.89516 0.0
O410 O 0.5245 0.46991 0.78881 0.0
O411 O 0.55219 0.47548 0.7223 0.0
O412 O 0.56791 0.49981 0.81117 0.0
O413 O 0.53949 0.5014 0.88076 0.0
O414 O 0.56553 0.50711 0.64414 0.0
O415 O 0.57686 0.52873 0.72004 0.0
O416 O 0.54126 0.53518 0.79563 0.0
O417 O 0.50533 0.52993 0.81047 0.0
O418 O 0.49409 0.49812 0.73351 0.0
O419 O 0.52106 0.51266 0.68103 0.0
C420 C 0.54016 0.46337 0.75147 0.0
O421 O 0.49507 0.50183 0.9112 0.0
O422 O 0.48287 0.4801 0.83635 0.0
C423 C 0.56031 0.49979 0.86743 0.0
C424 C 0.57585 0.54 0.62199 0.0
C425 C 0.5726 0.57394 0.55485 0.0
C426 C 0.59289 0.56573 0.56754 0.0
C427 C 0.59448 0.54899 0.60102 0.0
C428 C 0.55559 0.54784 0.60814 0.0
C429 C 0.55396 0.56459 0.57505 0.0
C430 C 0.57759 0.52317 0.66055 0.0
C431 C 0.52155 0.54205 0.80355 0.0
H432 H 0.44286 0.4486 0.01871 0.0
H433 H 0.44648 0.47539 0.95232 0.0
H434 H 0.51397 0.46084 0.92669 0.0
H435 H 0.51053 0.43394 0.99465 0.0
H436 H 0.60758 0.57263 0.55329 0.0
H437 H 0.61029 0.54327 0.61144 0.0
H438 H 0.54101 0.54112 0.62352 0.0
H439 H 0.53805 0.57027 0.56548 0.0
Tb440 Tb 0.03315 0.52152 0.74143 0.0
Tb441 Tb 0.02593 0.4868 0.82711 0.0
C442 C 1.01201 0.53282 0.86728 0.0
C443 C 0.06384 0.54844 0.64713 0.0
C444 C 0.09942 0.53725 0.57448 0.0
C445 C 0.0849 0.55169 0.55647 0.0
C446 C 0.06681 0.55716 0.59279 0.0
C447 C 0.07939 0.53515 0.6665 0.0
C448 C 0.09708 0.52954 0.63035 0.0
C449 C 0.04293 0.54838 0.67613 0.0
O450 O 0.0606 0.52274 0.80692 0.0
O451 O 0.06095 0.48949 0.82412 0.0
O452 O 0.03174 0.47001 0.73636 0.0
O453 O 0.05015 0.49488 0.69512 0.0
O454 O 0.03258 0.47632 0.91182 0.0
O455 O 1.01383 0.45815 0.84115 0.0
O456 O 0.99313 0.49233 0.79283 0.0
O457 O 1.00156 0.50942 0.71082 0.0
O458 O 1.01029 0.53451 0.80879 0.0
O459 O 0.02127 0.51659 0.88508 0.0
C460 C 0.07084 0.50709 0.82558 0.0
O461 O 0.03174 0.53214 0.65541 0.0
O462 O 0.04345 0.55161 0.7364 0.0
C463 C 0.04425 0.47571 0.69372 0.0
C464 C 1.00098 0.46102 0.94009 0.0
C465 C 0.95855 0.46263 0.98129 0.0
C466 C 0.96846 0.44359 0.96377 0.0
C467 C 0.98966 0.4428 0.94281 0.0
C468 C 0.99155 0.47994 0.96209 0.0
C469 C 0.97044 0.48075 0.98203 0.0
C470 C 0.01931 0.46099 0.89923 0.0
C471 C 0.98758 0.4998 0.7417 0.0
H472 H 0.08698 0.55778 0.51319 0.0
H473 H 0.05464 0.56707 0.57682 0.0
H474 H 0.07698 0.52772 0.707 0.0
H475 H 0.10842 0.51849 0.6446 0.0
H476 H 0.95956 0.42944 0.96362 0.0
H477 H 0.99663 0.42815 0.9245 0.0
H478 H 0.99978 0.49426 0.95892 0.0
H479 H 0.96309 0.49568 0.99405 0.0
H480 H 0.16999 0.00529 0.48239 0.0
H481 H 0.12783 0.00646 0.32347 0.0
H482 H 0.09617 0.00691 0.39074 0.0
H483 H 0.13562 0.97189 0.56136 0.0
H484 H 0.14117 0.98497 0.63764 0.0
H485 H 0.16106 0.9848 0.57758 0.0
H486 H 0.16208 0.02447 0.59512 0.0
H487 H 0.14215 0.02474 0.65513 0.0
H488 H 0.13734 0.03865 0.59068 0.0
H489 H 0.06872 0.00784 0.47354 0.0
H490 H 0.04689 0.00808 0.56703 0.0
H491 H 0.10531 0.00548 0.67653 0.0
C492 C 0.1541 0.00551 0.46169 0.0
C493 C 0.15168 0.00621 0.39706 0.0
C494 C 0.13043 0.00649 0.37253 0.0
C495 C 0.1122 0.00659 0.41048 0.0
C496 C 0.11513 0.00626 0.47357 0.0
C497 C 0.13548 0.00562 0.4993 0.0
C498 C 0.13373 0.00536 0.569 0.0
C499 C 0.14348 0.98558 0.58748 0.0
C500 C 0.14447 0.02444 0.60458 0.0
C501 C 0.10928 0.00593 0.57802 0.0
C502 C 0.099 0.00651 0.52205 0.0
C503 C 0.0766 0.00735 0.51763 0.0
C504 C 0.06428 0.00753 0.57147 0.0
C505 C 0.07415 0.00684 0.62995 0.0
C506 C 0.09711 0.00602 0.63291 0.0
H507 H 0.46865 0.12945 0.55484 0.0
H508 H 0.50778 0.17233 0.67674 0.0
H509 H 0.51966 0.1441 0.73238 0.0
H510 H 0.45403 0.09579 0.66899 0.0
H511 H 0.45599 0.0729 0.61402 0.0
H512 H 0.44837 0.09682 0.58844 0.0
H513 H 0.47981 0.09301 0.50963 0.0
H514 H 0.48756 0.06917 0.53532 0.0
H515 H 0.50696 0.08961 0.53662 0.0
H516 H 0.52849 0.111 0.77234 0.0
H517 H 0.53453 0.0753 0.79161 0.0
H518 H 0.49272 0.05341 0.63724 0.0
C519 C 0.47974 0.13303 0.59317 0.0
C520 C 0.4872 0.15333 0.61113 0.0
C521 C 0.5014 0.15714 0.66248 0.0
C522 C 0.50841 0.14112 0.69419 0.0
C523 C 0.5012 0.12131 0.67398 0.0
C524 C 0.48717 0.1172 0.62465 0.0
C525 C 0.48275 0.09438 0.61014 0.0
C526 C 0.45887 0.0897 0.62105 0.0
C527 C 0.48969 0.08606 0.544 0.0
C528 C 0.49708 0.08623 0.65764 0.0
C529 C 0.50716 0.10208 0.69494 0.0
C530 C 0.52074 0.09849 0.74328 0.0
C531 C 0.52408 0.07819 0.75379 0.0
C532 C 0.5143 0.0617 0.71532 0.0
C533 C 0.50067 0.06577 0.66652 0.0
H534 H 0.40755 0.48145 0.42571 0.0
H535 H 0.42468 0.53951 0.36485 0.0
H536 H 0.45168 0.54537 0.44775 0.0
H537 H 0.41315 0.49942 0.5918 0.0
H538 H 0.42436 0.47564 0.60978 0.0
H539 H 0.40599 0.47562 0.54555 0.0
H540 H 0.43443 0.45657 0.47259 0.0
H541 H 0.4529 0.45661 0.53655 0.0
H542 H 0.46101 0.46743 0.46864 0.0
H543 H 0.47833 0.54452 0.5323 0.0
H544 H 0.50158 0.53807 0.61892 0.0
H545 H 0.46666 0.48193 0.63429 0.0
C546 C 0.41679 0.49551 0.43015 0.0
C547 C 0.41405 0.50981 0.38718 0.0
C548 C 0.42669 0.52795 0.39527 0.0
C549 C 0.44204 0.53155 0.44284 0.0
C550 C 0.4446 0.51707 0.48328 0.0
C551 C 0.43222 0.4995 0.47817 0.0
C552 C 0.4385 0.48653 0.52846 0.0
C553 C 0.41935 0.48416 0.57144 0.0
C554 C 0.44723 0.46554 0.49984 0.0
C555 C 0.45631 0.49958 0.56222 0.0
C556 C 0.45957 0.51703 0.53467 0.0
C557 C 0.47573 0.53104 0.55475 0.0
C558 C 0.48894 0.5272 0.60415 0.0
C559 C 0.48593 0.50963 0.63424 0.0
C560 C 0.46918 0.49569 0.6131 0.0
H561 H 0.04176 0.37002 0.4643 0.0
H562 H 0.09549 0.39378 0.36836 0.0
H563 H 0.09592 0.42485 0.44473 0.0
H564 H 1.01453 0.4173 0.50346 0.0
H565 H 1.00611 0.41224 0.57887 0.0
H566 H 1.01047 0.39129 0.51828 0.0
H567 H 0.03769 0.37499 0.58768 0.0
H568 H 0.03334 0.39583 0.64871 0.0
H569 H 0.06027 0.38987 0.62089 0.0
H570 H 0.08936 0.45423 0.52676 0.0
H571 H 0.07708 0.4796 0.6129 0.0
H572 H 0.02852 0.43669 0.65933 0.0
C573 C 0.05384 0.38161 0.45992 0.0
C574 C 0.06845 0.37949 0.40974 0.0
C575 C 0.08383 0.39517 0.40551 0.0
C576 C 0.08433 0.41284 0.44896 0.0
C577 C 0.06948 0.41462 0.497 0.0
C578 C 0.05463 0.3994 0.5032 0.0
C579 C 0.04018 0.40548 0.55861 0.0
C580 C 1.01642 0.40665 0.53858 0.0
C581 C 0.04305 0.39066 0.60684 0.0
C582 C 0.04911 0.42658 0.58192 0.0
C583 C 0.066 0.43151 0.54557 0.0
C584 C 0.0763 0.45047 0.55603 0.0
C585 C 0.06915 0.46483 0.60497 0.0
C586 C 0.05193 0.46015 0.64312 0.0
C587 C 0.0419 0.44067 0.63148 0.0
H588 H 0.91279 0.02904 0.13953 0.0
H589 H 0.92479 0.96823 0.18859 0.0
H590 H 0.95124 0.96187 0.10499 0.0
H591 H 0.91766 0.01417 0.97129 0.0
H592 H 0.93104 0.03749 0.95823 0.0
H593 H 0.91247 0.03765 0.02162 0.0
H594 H 0.94218 0.05289 0.09762 0.0
H595 H 0.96085 0.05269 0.03449 0.0
H596 H 0.96769 0.03978 0.09974 0.0
H597 H 0.97716 0.96173 0.01929 0.0
H598 H 1.00069 0.9675 0.93326 0.0
H599 H 0.97283 0.02806 0.93283 0.0
C600 C 0.92085 0.01433 0.13233 0.0
C601 C 0.91676 0.99927 0.17213 0.0
C602 C 0.92783 0.98027 0.16051 0.0
C603 C 0.94286 0.97641 0.11254 0.0
C604 C 0.94681 0.99157 0.07529 0.0
C605 C 0.9361 0.01013 0.08399 0.0
C606 C 0.94382 0.02368 0.03669 0.0
C607 C 0.92513 0.02853 0.99446 0.0
C608 C 0.95426 0.04343 0.06908 0.0
C609 C 0.96056 0.0098 1.00077 0.0
C610 C 0.96188 0.99138 0.02424 0.0
C611 C 0.97623 0.97608 1.00034 0.0
C612 C 0.98965 0.97957 0.95126 0.0
C613 C 0.98884 0.99824 0.9256 0.0
C614 C 0.9739 0.01356 0.95087 0.0
H615 H 0.56204 0.8805 0.01398 0.0
H616 H 0.57822 0.83894 0.84911 0.0
H617 H 0.57181 0.86672 0.78561 0.0
H618 H 0.51987 0.9076 0.9456 0.0
H619 H 0.52662 0.93211 0.98834 0.0
H620 H 0.53229 0.90891 0.02082 0.0
H621 H 0.5725 0.91951 0.03447 0.0
H622 H 0.56693 0.94271 1.00186 0.0
H623 H 0.58754 0.92536 0.96851 0.0
H624 H 0.5638 0.89907 0.74003 0.0
H625 H 0.55428 0.93337 0.71517 0.0
H626 H 0.54416 0.95434 0.91005 0.0
C627 C 0.56446 0.87724 0.96458 0.0
C628 C 0.5707 0.85743 0.93668 0.0
C629 C 0.57321 0.85383 0.87165 0.0
C630 C 0.56975 0.86958 0.83519 0.0
C631 C 0.56378 0.8889 0.86431 0.0
C632 C 0.56113 0.89279 0.92752 0.0
C633 C 0.55443 0.91487 0.94727 0.0
C634 C 0.53197 0.91593 0.97728 0.0
C635 C 0.57137 0.92628 0.99059 0.0
C636 C 0.55388 0.92285 0.8853 0.0
C637 C 0.55927 0.90759 0.83808 0.0
C638 C 0.55958 0.91114 0.77667 0.0
C639 C 0.55412 0.93073 0.76305 0.0
C640 C 0.54848 0.94667 0.81059 0.0
C641 C 0.54852 0.94259 0.87261 0.0
H642 H 0.64358 0.52706 0.15271 0.0
H643 H 0.64771 0.4616 0.16003 0.0
H644 H 0.62262 0.4553 0.07202 0.0
H645 H 0.58721 0.52809 0.11293 0.0
H646 H 0.59004 0.54698 0.06091 0.0
H647 H 0.6087 0.54667 0.12428 0.0
H648 H 0.64074 0.54389 0.048 0.0
H649 H 0.62218 0.54427 0.9844 0.0
H650 H 0.64115 0.52348 0.98418 0.0
H651 H 0.59618 0.4557 0.98431 0.0
H652 H 0.57103 0.46304 0.90149 0.0
H653 H 0.584 0.52794 0.94653 0.0
C654 C 0.6394 0.51138 0.13552 0.0
C655 C 0.64764 0.49486 0.16465 0.0
C656 C 0.64144 0.47463 0.14023 0.0
C657 C 0.62723 0.47084 0.08962 0.0
C658 C 0.61922 0.48738 0.0628 0.0
C659 C 0.62514 0.50727 0.08458 0.0
C660 C 0.61389 0.52224 0.04728 0.0
C661 C 0.59908 0.53686 0.08884 0.0
C662 C 0.63048 0.53417 0.01399 0.0
C663 C 0.60078 0.50765 1.00135 0.0
C664 C 0.60412 0.4876 1.01138 0.0
C665 C 0.59356 0.47134 0.97589 0.0
C666 C 0.57929 0.47563 0.92895 0.0
C667 C 0.57564 0.49598 0.91746 0.0
C668 C 0.58657 0.51221 0.95419 0.0
H669 H 1.01211 0.61062 0.18348 0.0
H670 H 0.97913 0.65353 0.08036 0.0
H671 H 0.97795 0.62734 0.98892 0.0
H672 H 0.04488 0.58737 0.0603 0.0
H673 H 0.04293 0.56178 0.08054 0.0
H674 H 0.0405 0.58353 0.13952 0.0
H675 H 1.00337 0.57016 0.17125 0.0
H676 H 1.00571 0.54838 0.11217 0.0
H677 H 0.98245 0.5649 0.11372 0.0
H678 H 0.9807 0.59738 0.90862 0.0
H679 H 0.98874 0.56557 0.84094 0.0
H680 H 0.02016 0.54102 0.9936 0.0
C681 C 1.0044 0.61442 0.14191 0.0
C682 C 0.9958 0.63426 0.13923 0.0
C683 C 0.98614 0.63863 0.08351 0.0
C684 C 0.9852 0.62377 0.03139 0.0
C685 C 0.99386 0.60449 0.03555 0.0
C686 C 1.00329 0.59969 0.08916 0.0
C687 C 1.01199 0.57789 0.07998 0.0
C688 C 0.03653 0.57764 0.09071 0.0
C689 C 1.00017 0.56455 0.12179 0.0
C690 C 1.00633 0.57139 0.0125 0.0
C691 C 0.99563 0.58698 0.98834 0.0
C692 C 0.98898 0.58502 0.92703 0.0
C693 C 0.99367 0.5668 0.88893 0.0
C694 C 1.0051 0.55066 0.91178 0.0
C695 C 1.01123 0.55293 0.97484 0.0
H696 H 0.04854 0.16497 0.38047 0.0
H697 H 0.06332 0.208 0.54356 0.0
H698 H 0.05464 0.18167 0.60974 0.0
H699 H 1.00432 0.14277 0.43811 0.0
H700 H 1.00961 0.11685 0.40356 0.0
H701 H 0.01966 0.13798 0.36766 0.0
H702 H 0.05866 0.12384 0.3714 0.0
H703 H 0.04866 0.10245 0.40648 0.0
H704 H 0.06973 0.11843 0.44398 0.0
H705 H 0.03957 0.15297 0.6581 0.0
H706 H 0.02232 0.12165 0.68602 0.0
H707 H 0.01911 0.09642 0.49241 0.0
C708 C 0.05064 0.1686 0.42996 0.0
C709 C 0.05642 0.18852 0.45702 0.0
C710 C 0.0586 0.19287 0.52205 0.0
C711 C 0.05384 0.17801 0.55999 0.0
C712 C 0.04734 0.15878 0.53206 0.0
C713 C 0.04614 0.15385 0.46858 0.0
C714 C 0.03751 0.13237 0.45076 0.0
C715 C 1.01653 0.13252 0.4128 0.0
C716 C 0.05467 0.11845 0.41611 0.0
C717 C 0.0333 0.12639 0.51411 0.0
C718 C 0.03916 0.14184 0.56034 0.0
C719 C 0.03532 0.14056 0.62249 0.0
C720 C 0.0254 0.12288 0.63785 0.0
C721 C 0.01959 0.1068 0.5912 0.0
C722 C 0.02372 0.10849 0.52872 0.0
H723 H 0.33438 0.03845 0.52874 0.0
H724 H 0.30604 0.97814 0.47951 0.0
H725 H 0.33742 0.96261 0.52287 0.0
H726 H 0.37893 0.02205 0.45319 0.0
H727 H 0.39768 0.03842 0.49972 0.0
H728 H 0.3701 0.04622 0.494 0.0
H729 H 0.36633 0.05008 0.61346 0.0
H730 H 0.39418 0.04264 0.61945 0.0
H731 H 0.37337 0.02892 0.65426 0.0
H732 H 0.375 0.95264 0.54678 0.0
H733 H 0.4147 0.9496 0.54988 0.0
H734 H 0.41998 0.01545 0.55071 0.0
C735 C 0.33436 0.02202 0.52883 0.0
C736 C 0.31776 0.00967 0.49965 0.0
C737 C 0.31826 0.98823 0.50219 0.0
C738 C 0.33626 0.97912 0.52628 0.0
C739 C 0.35368 0.99158 0.54635 0.0
C740 C 0.35289 0.01264 0.54745 0.0
C741 C 0.37509 0.02207 0.55334 0.0
C742 C 0.38076 0.0328 0.49672 0.0
C743 C 0.37737 0.03679 0.61377 0.0
C744 C 0.38842 1.00306 0.55468 0.0
C745 C 0.3759 0.98568 0.55253 0.0
C746 C 0.38499 0.96621 0.54946 0.0
C747 C 0.40753 0.9646 0.54994 0.0
C748 C 0.42055 0.98233 0.55108 0.0
C749 C 0.41067 1.00165 0.5524 0.0
H750 H 0.49138 0.35559 0.77273 0.0
H751 H 0.53496 0.33077 0.62685 0.0
H752 H 0.55535 0.36313 0.63913 0.0
H753 H 0.48672 0.40308 0.73168 0.0
H754 H 0.48633 0.41701 0.80852 0.0
H755 H 0.47759 0.39082 0.79597 0.0
H756 H 0.50543 0.3819 0.8773 0.0
H757 H 0.51442 0.40814 0.88932 0.0
H758 H 0.53357 0.38781 0.86841 0.0
H759 H 0.56543 0.40048 0.65021 0.0
H760 H 0.56637 0.43856 0.66896 0.0
H761 H 0.51949 0.43701 0.81592 0.0
C762 C 0.50581 0.35672 0.74552 0.0
C763 C 0.51191 0.34061 0.69986 0.0
C764 C 0.53043 0.34277 0.66339 0.0
C765 C 0.54204 0.36113 0.66972 0.0
C766 C 0.53526 0.37702 0.71374 0.0
C767 C 0.5179 0.3748 0.75225 0.0
C768 C 0.51278 0.3947 0.79222 0.0
C769 C 0.4895 0.4018 0.78136 0.0
C770 C 0.5168 0.39302 0.86088 0.0
C771 C 0.52918 0.40851 0.76772 0.0
C772 C 0.54203 0.39823 0.72245 0.0
C773 C 0.55597 0.40868 0.6871 0.0
C774 C 0.5564 0.43026 0.6978 0.0
C775 C 0.54301 0.44089 0.74356 0.0
C776 C 0.53004 0.42961 0.7803 0.0
H777 H 0.21788 0.5378 0.45268 0.0
H778 H 0.20808 0.47487 0.37008 0.0
H779 H 0.17104 0.47571 0.4127 0.0
H780 H 0.18616 0.53549 0.59302 0.0
H781 H 0.17582 0.56106 0.59254 0.0
H782 H 0.20219 0.55445 0.56165 0.0
H783 H 0.19074 0.56661 0.45805 0.0
H784 H 0.16419 0.57285 0.48799 0.0
H785 H 0.16729 0.55544 0.41757 0.0
H786 H 0.1354 0.484 0.45987 0.0
H787 H 0.10256 0.49931 0.5115 0.0
H788 H 0.13577 0.55728 0.5562 0.0
C789 C 0.20805 0.52409 0.44516 0.0
C790 C 0.2154 0.50621 0.40937 0.0
C791 C 0.2023 0.48859 0.39818 0.0
C792 C 0.18146 0.48894 0.42204 0.0
C793 C 0.17438 0.50707 0.45601 0.0
C794 C 0.18728 0.52428 0.46779 0.0
C795 C 0.17544 0.54224 0.50189 0.0
C796 C 0.18549 0.54867 0.56609 0.0
C797 C 0.17436 0.56034 0.46407 0.0
C798 C 0.15369 0.53254 0.50633 0.0
C799 C 0.15347 0.5122 0.48026 0.0
C800 C 0.13523 0.49994 0.48 0.0
C801 C 0.11675 0.50872 0.50846 0.0
C802 C 0.11696 0.52946 0.53525 0.0
C803 C 0.13539 0.54157 0.53384 0.0
H804 H 0.996 0.84426 0.15332 0.0
H805 H 0.03144 0.79297 0.05661 0.0
H806 H 0.04846 0.81598 0.99053 0.0
H807 H 0.98632 0.86947 0.01494 0.0
H808 H 0.98896 0.89491 0.05638 0.0
H809 H 0.97901 0.87437 0.09537 0.0
H810 H 1.00903 0.88177 0.17839 0.0
H811 H 0.01905 0.90228 0.13958 0.0
H812 H 0.03687 0.88185 0.15462 0.0
H813 H 0.06337 0.84432 0.94047 0.0
H814 H 0.07365 0.87673 0.90298 0.0
H815 H 0.02739 0.90961 0.02797 0.0
C816 C 1.00725 0.838 0.1179 0.0
C817 C 1.01249 0.81699 0.10952 0.0
C818 C 0.02719 0.80908 0.06295 0.0
C819 C 0.03694 0.82198 0.02545 0.0
C820 C 0.03154 0.84265 0.03478 0.0
C821 C 1.01685 0.85063 0.07916 0.0
C822 C 1.01388 0.87344 0.07885 0.0
C823 C 0.99066 0.87833 0.06027 0.0
C824 C 0.02009 0.88554 0.14159 0.0
C825 C 0.02978 0.87704 0.02897 0.0
C826 C 0.03973 0.85905 1.00415 0.0
C827 C 0.05559 0.85852 0.95901 0.0
C828 C 0.06142 0.87694 0.93839 0.0
C829 C 0.05129 0.8955 0.96276 0.0
C830 C 0.03521 0.89553 1.00836 0.0
H831 H 0.72522 0.02057 0.0803 0.0
H832 H 0.71475 0.97586 0.20598 0.0
H833 H 0.67858 0.96857 0.16124 0.0
H834 H 0.67979 0.04335 0.09793 0.0
H835 H 0.67442 0.04796 0.01977 0.0
H836 H 0.70169 0.04491 0.04453 0.0
H837 H 0.70781 0.01505 0.95639 0.0
H838 H 0.68062 0.01843 0.92963 0.0
H839 H 0.6894 0.99368 0.94671 0.0
H840 H 0.64226 0.97259 0.12479 0.0
H841 H 0.60746 0.98601 0.09099 0.0
H842 H 0.64159 0.0284 0.99068 0.0
C843 C 0.71571 0.00847 0.0959 0.0
C844 C 0.72239 0.99872 0.146 0.0
C845 C 0.70952 0.98349 0.1675 0.0
C846 C 0.6892 0.97907 0.14191 0.0
C847 C 0.68247 0.98984 0.09467 0.0
C848 C 0.69548 0.00397 0.0709 0.0
C849 C 0.68324 0.01614 0.02844 0.0
C850 C 0.68489 0.03944 0.04902 0.0
C851 C 0.6907 0.01047 0.9613 0.0
C852 C 0.66095 0.00819 0.03763 0.0
C853 C 0.66093 0.99253 0.07409 0.0
C854 C 0.642 0.98439 0.09475 0.0
C855 C 0.6225 0.99229 0.07673 0.0
C856 C 0.62252 0.00832 0.04013 0.0
C857 C 0.64171 0.01625 0.01963 0.0
H858 H 0.55594 0.65242 0.93032 0.0
H859 H 0.56196 0.66401 0.74056 0.0
H860 H 0.5433 0.63103 0.7052 0.0
H861 H 0.56611 0.59993 0.9075 0.0
H862 H 0.5468 0.59415 0.96422 0.0
H863 H 0.55922 0.61898 0.97163 0.0
H864 H 0.52106 0.63557 0.97524 0.0
H865 H 0.50861 0.61061 0.96562 0.0
H866 H 0.50241 0.62853 0.91247 0.0
H867 H 0.5269 0.59576 0.69205 0.0
H868 H 0.5177 0.5598 0.70072 0.0
H869 H 0.52148 0.57236 0.89968 0.0
C870 C 0.55331 0.64793 0.8813 0.0
C871 C 0.56045 0.66032 0.83776 0.0
C872 C 0.55661 0.65441 0.77413 0.0
C873 C 0.54588 0.63592 0.75398 0.0
C874 C 0.53875 0.62409 0.79849 0.0
C875 C 0.54241 0.62987 0.8608 0.0
C876 C 0.53431 0.61412 0.8994 0.0
C877 C 0.55271 0.60633 0.93788 0.0
C878 C 0.51548 0.62272 0.94062 0.0
C879 C 0.52661 0.59785 0.84894 0.0
C880 C 0.52874 0.6041 0.79108 0.0
C881 C 0.52462 0.59092 0.73704 0.0
C882 C 0.51926 0.5706 0.7423 0.0
C883 C 0.51832 0.56377 0.80083 0.0
C884 C 0.52122 0.57763 0.85476 0.0
H885 H 0.85627 0.50784 0.16107 0.0
H886 H 0.81789 0.46301 0.04454 0.0
H887 H 0.85009 0.45262 0.9814 0.0
H888 H 0.89324 0.52097 0.03907 0.0
H889 H 0.9159 0.52324 0.09158 0.0
H890 H 0.88912 0.52948 0.12008 0.0
H891 H 0.89333 0.50362 0.19927 0.0
H892 H 0.91999 0.49721 0.17099 0.0
H893 H 0.90008 0.47733 0.17205 0.0
H894 H 0.88682 0.44465 0.93995 0.0
H895 H 0.92591 0.44027 0.9202 0.0
H896 H 0.93938 0.48854 0.0713 0.0
C897 C 0.85465 0.49611 0.12153 0.0
C898 C 0.83497 0.48616 0.10702 0.0
C899 C 0.83306 0.47087 0.05532 0.0
C900 C 0.85114 0.46492 0.01946 0.0
C901 C 0.87061 0.4746 0.03631 0.0
C902 C 0.87241 0.48996 0.08585 0.0
C903 C 0.89537 0.49658 0.0983 0.0
C904 C 0.8986 0.51889 0.08651 0.0
C905 C 0.9026 0.49348 0.16402 0.0
C906 C 0.90632 0.48178 0.05001 0.0
C907 C 0.89183 0.46954 0.01377 0.0
C908 C 0.89839 0.45423 0.96753 0.0
C909 C 0.92052 0.45163 0.95747 0.0
C910 C 0.93549 0.46404 0.99458 0.0
C911 C 0.92824 0.47907 0.04169 0.0
H912 H 0.04909 0.16138 0.92935 0.0
H913 H 0.09192 0.15076 0.07979 0.0
H914 H 0.09348 0.11407 0.03882 0.0
H915 H 0.01871 0.11617 0.92452 0.0
H916 H 1.0162 0.1116 0.84154 0.0
H917 H 0.01958 0.13732 0.87998 0.0
H918 H 0.05296 0.14186 0.81223 0.0
H919 H 0.04984 0.11604 0.7739 0.0
H920 H 0.07507 0.12397 0.81086 0.0
H921 H 0.08899 0.07846 0.98582 0.0
H922 H 0.07796 0.04585 0.92557 0.0
H923 H 0.03837 0.07907 0.80761 0.0
C924 C 0.05908 0.15141 0.95317 0.0
C925 C 0.07029 0.15903 1.0082 0.0
C926 C 0.08289 0.14532 0.0383 0.0
C927 C 0.08407 0.12446 0.01499 0.0
C928 C 0.0727 0.11746 0.96115 0.0
C929 C 0.06049 0.13049 0.93039 0.0
C930 C 0.04908 0.11876 0.8749 0.0
C931 C 0.02443 0.1211 0.88062 0.0
C932 C 0.05723 0.12557 0.8144 0.0
C933 C 0.05623 0.09704 0.88066 0.0
C934 C 0.0701 0.09674 0.93024 0.0
C935 C 0.07827 0.0785 0.94657 0.0
C936 C 0.07185 0.06001 0.91202 0.0
C937 C 0.05729 0.0598 0.86171 0.0
C938 C 0.04968 0.07866 0.84537 0.0
H939 H 0.38195 1.00164 0.01803 0.0
H940 H 0.34346 0.00614 0.85356 0.0
H941 H 0.37647 0.00592 0.79201 0.0
H942 H 0.42521 0.03552 0.97785 0.0
H943 H 0.4464 0.02107 1.00887 0.0
H944 H 0.41966 0.02135 0.04117 0.0
H945 H 0.4187 0.98173 0.02163 0.0
H946 H 0.44537 0.98134 0.98894 0.0
H947 H 0.42339 0.96878 0.94479 0.0
H948 H 0.41331 1.00373 0.74557 0.0
H949 H 0.45199 1.00249 0.7195 0.0
H950 H 0.46808 1.00169 0.91271 0.0
C951 C 0.38041 1.00278 0.96923 0.0
C952 C 0.35969 1.0034 0.94097 0.0
C953 C 0.35879 0.00492 0.87668 0.0
C954 C 0.37758 0.00499 0.84103 0.0
C955 C 0.39754 0.00388 0.86982 0.0
C956 C 0.3992 1.00308 0.93258 0.0
C957 C 0.4229 1.00229 0.95151 0.0
C958 C 0.4289 0.02119 0.99758 0.0
C959 C 0.42788 0.98235 0.97831 0.0
C960 C 0.43413 1.00264 0.88953 0.0
C961 C 0.41908 1.00341 0.84311 0.0
C962 C 0.42525 1.00326 0.78166 0.0
C963 C 0.44734 1.00246 0.76712 0.0
C964 C 0.46327 1.00199 0.81356 0.0
C965 C 0.45642 1.00212 0.87583 0.0
H966 H 0.48476 0.33144 0.14669 0.0
H967 H 0.44626 0.35949 0.30117 0.0
H968 H 0.44646 0.39209 0.25763 0.0
H969 H 0.51747 0.37591 0.13038 0.0
H970 H 0.5178 0.37123 0.04714 0.0
H971 H 0.5153 0.3501 0.09126 0.0
H972 H 0.48015 0.33863 0.03221 0.0
H973 H 0.48254 0.35968 0.98779 0.0
H974 H 0.45824 0.35659 0.03076 0.0
H975 H 0.44983 0.42125 0.19744 0.0
H976 H 0.45596 0.44567 0.12336 0.0
H977 H 0.49173 0.39927 1.005 0.0
C978 C 0.47628 0.3444 0.17127 0.0
C979 C 0.46561 0.34284 0.22782 0.0
C980 C 0.45491 0.3603 0.25859 0.0
C981 C 0.45481 0.37889 0.23398 0.0
C982 C 0.46544 0.37988 0.17839 0.0
C983 C 0.47598 0.36315 0.14727 0.0
C984 C 0.48587 0.36839 0.08773 0.0
C985 C 0.51058 0.36628 0.08924 0.0
C986 C 0.47611 0.35503 0.03128 0.0
C987 C 0.47907 0.39067 0.09013 0.0
C988 C 0.46734 0.39688 0.14306 0.0
C989 C 0.45897 0.41659 0.15581 0.0
C990 C 0.46246 0.43032 0.11321 0.0
C991 C 0.47418 0.4244 0.05809 0.0
C992 C 0.48283 0.40431 0.04685 0.0
H993 H 0.17995 0.48559 0.01634 0.0
H994 H 0.21 0.53244 0.92267 0.0
H995 H 0.17614 0.53699 0.86808 0.0
H996 H 0.14628 0.4631 0.89088 0.0
H997 H 0.12303 0.45965 0.93777 0.0
H998 H 0.14971 0.45968 0.97091 0.0
H999 H 0.13852 0.4888 0.0563 0.0
H1000 H 0.11177 0.48882 0.02349 0.0
H1001 H 0.12733 0.51213 0.0348 0.0
H1002 H 0.13904 0.53766 0.82407 0.0
H1003 H 0.10099 0.53367 0.79204 0.0
H1004 H 0.09317 0.48604 0.90964 0.0
C1005 C 0.17942 0.49691 0.98471 0.0
C1006 C 0.19828 0.50829 0.97345 0.0
C1007 C 0.19641 0.52295 0.93141 0.0
C1008 C 0.17702 0.52586 0.90026 0.0
C1009 C 0.15905 0.51428 0.91156 0.0
C1010 C 0.1599 0.50015 0.95295 0.0
C1011 C 0.13781 0.49002 0.95653 0.0
C1012 C 0.13931 0.46673 0.93789 0.0
C1013 C 0.1283 0.49525 0.02165 0.0
C1014 C 0.12478 0.50023 0.90933 0.0
C1015 C 0.13739 0.51443 0.88498 0.0
C1016 C 0.12904 0.52649 0.84259 0.0
C1017 C 0.10729 0.52409 0.8245 0.0
C1018 C 0.09391 0.50939 0.84731 0.0
C1019 C 0.10294 0.49724 0.89044 0.0
H1020 H 1.01778 0.85904 0.52367 0.0
H1021 H 0.96517 0.84139 0.63599 0.0
H1022 H 0.96349 0.87665 0.69076 0.0
H1023 H 0.04448 0.89129 0.64268 0.0
H1024 H 0.05249 0.91012 0.59438 0.0
H1025 H 0.0485 0.88389 0.56102 0.0
H1026 H 0.02093 0.89564 0.48321 0.0
H1027 H 0.02481 0.92193 0.51657 0.0
H1028 H 0.9981 0.91101 0.51175 0.0
H1029 H 0.96756 0.91409 0.73383 0.0
H1030 H 0.97943 0.94981 0.76761 0.0
H1031 H 0.03056 0.94247 0.63166 0.0
C1032 C 1.00568 0.86268 0.55909 0.0
C1033 C 0.99154 0.84743 0.57529 0.0
C1034 C 0.97625 0.85276 0.62291 0.0
C1035 C 0.97507 0.8728 0.65406 0.0
C1036 C 0.9893 0.88743 0.63723 0.0
C1037 C 1.0044 0.8826 0.59111 0.0
C1038 C 0.01856 0.90091 0.58415 0.0
C1039 C 0.04242 0.89627 0.59631 0.0
C1040 C 1.01541 0.90777 0.52011 0.0
C1041 C 1.00942 0.9166 0.63449 0.0
C1042 C 0.99221 0.90869 0.66366 0.0
C1043 C 0.98098 0.92045 0.71119 0.0
C1044 C 0.98772 0.94072 0.72983 0.0
C1045 C 1.00577 0.9488 0.70193 0.0
C1046 C 1.01666 0.93659 0.65357 0.0
H1047 H 0.68249 0.98751 0.52208 0.0
H1048 H 0.71048 0.03567 0.65404 0.0
H1049 H 0.67668 0.03856 0.71183 0.0
H1050 H 0.6291 0.01154 0.52132 0.0
H1051 H 0.61448 0.98769 0.51453 0.0
H1052 H 0.64131 0.98839 0.48328 0.0
H1053 H 0.65337 0.96024 0.5482 0.0
H1054 H 0.62659 0.95954 0.5798 0.0
H1055 H 0.64954 0.96417 0.63073 0.0
H1056 H 0.64027 0.03619 0.75915 0.0
H1057 H 0.60246 0.03066 0.787 0.0
H1058 H 0.59522 0.98611 0.62276 0.0
C1059 C 0.68155 0.99878 0.56283 0.0
C1060 C 0.69995 0.01089 0.58369 0.0
C1061 C 0.69743 0.02548 0.63747 0.0
C1062 C 0.67802 0.02746 0.67078 0.0
C1063 C 0.66059 0.01509 0.64993 0.0
C1064 C 0.66194 1.00122 0.59674 0.0
C1065 C 0.64022 0.99036 0.58412 0.0
C1066 C 0.63072 0.99476 0.52212 0.0
C1067 C 0.64258 0.9672 0.58581 0.0
C1068 C 0.62666 1.00035 0.63841 0.0
C1069 C 0.63895 0.01441 0.676 0.0
C1070 C 0.63045 0.02531 0.72974 0.0
C1071 C 0.60885 0.022 0.74536 0.0
C1072 C 0.59552 0.00802 0.70735 0.0
C1073 C 0.60476 0.99702 0.65295 0.0
H1074 H 0.60055 0.6517 0.30973 0.0
H1075 H 0.55188 0.69198 0.4024 0.0
H1076 H 0.54412 0.66653 0.47235 0.0
H1077 H 0.57234 0.60336 0.32088 0.0
H1078 H 0.59658 0.58968 0.33603 0.0
H1079 H 0.59784 0.61058 0.29065 0.0
H1080 H 0.62665 0.62839 0.36555 0.0
H1081 H 0.62538 0.6076 0.41133 0.0
H1082 H 0.62077 0.63353 0.44694 0.0
H1083 H 0.54202 0.63766 0.53416 0.0
H1084 H 0.54561 0.60658 0.58478 0.0
H1085 H 0.59574 0.58414 0.45449 0.0
C1086 C 0.58807 0.65496 0.34423 0.0
C1087 C 0.5768 0.67386 0.35066 0.0
C1088 C 0.56079 0.67769 0.39692 0.0
C1089 C 0.55623 0.66331 0.4368 0.0
C1090 C 0.5678 0.64503 0.43016 0.0
C1091 C 0.58338 0.64071 0.38514 0.0
C1092 C 0.59386 0.62006 0.38996 0.0
C1093 C 0.58991 0.60503 0.33086 0.0
C1094 C 0.6181 0.62255 0.4043 0.0
C1095 C 0.58167 0.61356 0.44452 0.0
C1096 C 0.5667 0.62824 0.46669 0.0
C1097 C 0.55356 0.62596 0.51693 0.0
C1098 C 0.55565 0.60815 0.54519 0.0
C1099 C 0.57079 0.59272 0.52343 0.0
C1100 C 0.58405 0.59562 0.47246 0.0
H1101 H 0.87241 0.52805 0.59638 0.0
H1102 H 0.86164 0.46249 0.55483 0.0
H1103 H 0.8965 0.45606 0.60282 0.0
H1104 H 0.92939 0.52743 0.56784 0.0
H1105 H 0.93594 0.54689 0.63129 0.0
H1106 H 0.90973 0.5467 0.59525 0.0
H1107 H 0.89161 0.5457 0.70126 0.0
H1108 H 0.9178 0.54586 0.73761 0.0
H1109 H 0.89885 0.52575 0.7466 0.0
H1110 H 0.9322 0.4562 0.65905 0.0
H1111 H 0.96758 0.46319 0.71065 0.0
H1112 H 0.9574 0.52834 0.71198 0.0
C1113 C 0.87726 0.51232 0.59756 0.0
C1114 C 0.86394 0.49581 0.57058 0.0
C1115 C 0.87137 0.47552 0.57341 0.0
C1116 C 0.8912 0.47165 0.60138 0.0
C1117 C 0.90382 0.48816 0.62709 0.0
C1118 C 0.89725 0.50812 0.62528 0.0
C1119 C 0.91427 0.52301 0.65564 0.0
C1120 C 0.92285 0.53682 0.60974 0.0
C1121 C 0.90508 0.53584 0.71371 0.0
C1122 C 0.93163 0.50827 0.67297 0.0
C1123 C 0.92493 0.48823 0.65743 0.0
C1124 C 0.93761 0.47184 0.67111 0.0
C1125 C 0.95768 0.47593 0.70078 0.0
C1126 C 0.96531 0.49623 0.7155 0.0
C1127 C 0.95204 0.51263 0.70114 0.0
loop_
_geom_bond_atom_site_label_1
_geom_bond_atom_site_label_2
_geom_bond_distance
_geom_bond_site_symmetry_2
_ccdc_geom_bond_type
C0 C1 1.264 . S
C0 C5 1.479 . S
C0 C10 1.465 . S
C1 C0 1.264 . S
C1 C3 1.339 . S
C1 H28 0.931 . S
C2 C3 1.395 . S
C2 C4 1.320 . S
C3 C1 1.339 . S
C3 C2 1.395 . S
C3 H29 0.929 . S
C4 C2 1.320 . S
C4 C5 1.405 . S
C4 H30 0.930 . S
C5 C0 1.479 . S
C5 C4 1.405 . S
C5 H31 0.931 . S
U6 O7 2.454 . S
U6 O8 2.458 . S
U6 C9 2.984 . S
U6 C10 2.847 . S
U6 C23 2.882 . S
U6 O24 2.441 . S
U6 O25 2.420 . S
U6 O26 2.455 . S
U6 O27 2.449 . S
O7 U6 2.454 . S
O7 C9 1.353 . S
O8 U6 2.458 . S
O8 C9 1.286 . S
C9 U6 2.984 . S
C9 O7 1.353 . S
C9 O8 1.286 . S
C9 C11 1.363 . S
C10 C0 1.465 . S
C10 U6 2.847 . S
C10 O24 1.249 . S
C10 O25 1.202 . S
C11 C9 1.363 . S
C11 C13 1.408 . S
C11 C16 1.342 . S
C12 C13 1.310 . S
C12 C15 1.461 . S
C12 H32 0.932 . S
C13 C11 1.408 . S
C13 C12 1.310 . S
C13 H33 0.930 . S
C14 C15 1.474 . S
C14 C16 1.285 . S
C14 H34 0.929 . S
C15 C12 1.461 . S
C15 C14 1.474 . S
C16 C11 1.342 . S
C16 C14 1.285 . S
C16 H35 0.930 . S
C17 C20 1.424 . S
C17 C22 1.245 . S
C17 C23 1.428 . S
C18 C21 1.260 . S
C18 C22 1.477 . S
C18 H36 0.932 . S
C19 C20 1.384 . S
C19 C21 1.479 . S
C19 H37 0.929 . S
C20 C17 1.424 . S
C20 C19 1.384 . S
C20 H38 0.928 . S
C21 C18 1.260 . S
C21 C19 1.479 . S
C22 C17 1.245 . S
C22 C18 1.477 . S
C22 H39 0.932 . S
C23 U6 2.882 . S
C23 C17 1.428 . S
C23 O26 1.301 . S
C23 O27 1.282 . S
O24 U6 2.441 . S
O24 C10 1.249 . S
O25 U6 2.420 . S
O25 C10 1.202 . S
O26 U6 2.455 . S
O26 C23 1.301 . S
O27 U6 2.449 . S
O27 C23 1.282 . S
H28 C1 0.931 . S
H29 C3 0.929 . S
H30 C4 0.930 . S
H31 C5 0.931 . S
H32 C12 0.932 . S
H33 C13 0.930 . S
H34 C14 0.929 . S
H35 C16 0.930 . S
H36 C18 0.932 . S
H37 C19 0.929 . S
H38 C20 0.928 . S
H39 C22 0.932 . S
C40 C41 1.264 . S
C40 C45 1.479 . S
C40 C50 1.465 . S
C41 C40 1.264 . S
C41 C43 1.339 . S
C41 H68 0.931 . S
C42 C43 1.395 . S
C42 C44 1.320 . S
C43 C41 1.339 . S
C43 C42 1.395 . S
C43 H69 0.929 . S
C44 C42 1.320 . S
C44 C45 1.405 . S
C44 H70 0.930 . S
C45 C40 1.479 . S
C45 C44 1.405 . S
C45 H71 0.931 . S
U46 O47 2.454 . S
U46 O48 2.458 . S
U46 C49 2.984 . S
U46 C50 2.847 . S
U46 C63 2.882 . S
U46 O64 2.441 . S
U46 O65 2.420 . S
U46 O66 2.455 . S
U46 O67 2.449 . S
O47 U46 2.454 . S
O47 C49 1.353 . S
O48 U46 2.458 . S
O48 C49 1.286 . S
C49 U46 2.984 . S
C49 O47 1.353 . S
C49 O48 1.286 . S
C49 C51 1.363 . S
C50 C40 1.465 . S
C50 U46 2.847 . S
C50 O64 1.249 . S
C50 O65 1.202 . S
C51 C49 1.363 . S
C51 C53 1.408 . S
C51 C56 1.342 . S
C52 C53 1.310 . S
C52 C55 1.461 . S
C52 H72 0.932 . S
C53 C51 1.408 . S
C53 C52 1.310 . S
C53 H73 0.930 . S
C54 C55 1.474 . S
C54 C56 1.285 . S
C54 H74 0.929 . S
C55 C52 1.461 . S
C55 C54 1.474 . S
C56 C51 1.342 . S
C56 C54 1.285 . S
C56 H75 0.930 . S
C57 C60 1.424 . S
C57 C62 1.245 . S
C57 C63 1.428 . S
C58 C61 1.260 . S
C58 C62 1.477 . S
C58 H76 0.932 . S
C59 C60 1.384 . S
C59 C61 1.479 . S
C59 H77 0.929 . S
C60 C57 1.424 . S
C60 C59 1.384 . S
C60 H78 0.928 . S
C61 C58 1.260 . S
C61 C59 1.479 . S
C62 C57 1.245 . S
C62 C58 1.477 . S
C62 H79 0.932 . S
C63 U46 2.882 . S
C63 C57 1.428 . S
C63 O66 1.301 . S
C63 O67 1.282 . S
O64 U46 2.441 . S
O64 C50 1.249 . S
O65 U46 2.420 . S
O65 C50 1.202 . S
O66 U46 2.455 . S
O66 C63 1.301 . S
O67 U46 2.449 . S
O67 C63 1.282 . S
H68 C41 0.931 . S
H69 C43 0.929 . S
H70 C44 0.930 . S
H71 C45 0.931 . S
H72 C52 0.932 . S
H73 C53 0.930 . S
H74 C54 0.929 . S
H75 C56 0.930 . S
H76 C58 0.932 . S
H77 C59 0.929 . S
H78 C60 0.928 . S
H79 C62 0.932 . S
C80 C81 1.264 . S
C80 C85 1.479 . S
C80 C90 1.465 . S
C81 C80 1.264 . S
C81 C83 1.339 . S
C81 H108 0.931 . S
C82 C83 1.395 . S
C82 C84 1.320 . S
C83 C81 1.339 . S
C83 C82 1.395 . S
C83 H109 0.929 . S
C84 C82 1.320 . S
C84 C85 1.405 . S
C84 H110 0.916 1_545 S
C85 C80 1.479 . S
C85 C84 1.405 . S
C85 H111 0.931 . S
U86 O87 2.454 . S
U86 O88 2.458 . S
U86 C89 2.984 . S
U86 C90 2.847 . S
U86 C103 2.882 . S
U86 O104 2.441 . S
U86 O105 2.420 . S
U86 O106 2.455 . S
U86 O107 2.449 . S
O87 U86 2.454 . S
O87 C89 1.353 . S
O88 U86 2.458 . S
O88 C89 1.286 . S
C89 U86 2.984 . S
C89 O87 1.353 . S
C89 O88 1.286 . S
C89 C91 1.363 . S
C90 C80 1.465 . S
C90 U86 2.847 . S
C90 O104 1.249 . S
C90 O105 1.202 . S
C91 C89 1.363 . S
C91 C93 1.408 . S
C91 C96 1.342 . S
C92 C93 1.310 . S
C92 C95 1.461 . S
C92 H112 0.932 . S
C93 C91 1.408 . S
C93 C92 1.310 . S
C93 H113 0.930 . S
C94 C95 1.475 1_565 S
C94 C96 1.285 1_565 S
C94 H114 0.929 . S
C95 C92 1.461 . S
C95 C94 1.475 1_545 S
C96 C91 1.342 . S
C96 C94 1.285 1_545 S
C96 H115 0.929 . S
C97 C100 1.424 . S
C97 C102 1.245 . S
C97 C103 1.428 . S
C98 C101 1.260 . S
C98 C102 1.477 . S
C98 H116 0.932 . S
C99 C100 1.384 . S
C99 C101 1.479 . S
C99 H117 0.929 . S
C100 C97 1.424 . S
C100 C99 1.384 . S
C100 H118 0.928 . S
C101 C98 1.260 . S
C101 C99 1.479 . S
C102 C97 1.245 . S
C102 C98 1.477 . S
C102 H119 0.932 . S
C103 U86 2.882 . S
C103 C97 1.428 . S
C103 O106 1.301 . S
C103 O107 1.282 . S
O104 U86 2.441 . S
O104 C90 1.249 . S
O105 U86 2.420 . S
O105 C90 1.202 . S
O106 U86 2.455 . S
O106 C103 1.301 . S
O107 U86 2.449 . S
O107 C103 1.282 . S
H108 C81 0.931 . S
H109 C83 0.929 . S
H110 C84 0.916 1_565 S
H111 C85 0.931 . S
H112 C92 0.932 . S
H113 C93 0.930 . S
H114 C94 0.929 . S
H115 C96 0.929 . S
H116 C98 0.932 . S
H117 C99 0.929 . S
H118 C100 0.928 . S
H119 C102 0.932 . S
C120 C121 1.264 . S
C120 C125 1.479 . S
C120 C130 1.465 . S
C121 C120 1.264 . S
C121 C123 1.339 . S
C121 H148 0.931 . S
C122 C123 1.395 . S
C122 C124 1.320 . S
C123 C121 1.339 . S
C123 C122 1.395 . S
C123 H149 0.929 . S
C124 C122 1.320 . S
C124 C125 1.405 . S
C124 H150 0.930 . S
C125 C120 1.479 . S
C125 C124 1.405 . S
C125 H151 0.931 . S
U126 O127 2.454 . S
U126 O128 2.458 1_554 S
U126 C129 2.984 1_554 S
U126 C130 2.847 . S
U126 C143 2.882 1_554 S
U126 O144 2.441 . S
U126 O145 2.420 . S
U126 O146 2.455 1_554 S
U126 O147 2.449 1_554 S
O127 U126 2.454 . S
O127 C129 1.353 1_554 S
O128 U126 2.458 1_556 S
O128 C129 1.286 . S
C129 U126 2.984 1_556 S
C129 O127 1.353 1_556 S
C129 O128 1.286 . S
C129 C131 1.363 . S
C130 C120 1.465 . S
C130 U126 2.847 . S
C130 O144 1.249 . S
C130 O145 1.202 . S
C131 C129 1.363 . S
C131 C133 1.408 1_556 S
C131 C136 1.342 . S
C132 C133 1.310 . S
C132 C135 1.461 1_554 S
C132 H152 0.932 . S
C133 C131 1.408 1_554 S
C133 C132 1.310 . S
C133 H153 0.930 . S
C134 C135 1.474 . S
C134 C136 1.285 . S
C134 H154 0.929 . S
C135 C132 1.461 1_556 S
C135 C134 1.474 . S
C136 C131 1.342 . S
C136 C134 1.285 . S
C136 H155 0.930 . S
C137 C140 1.424 . S
C137 C142 1.245 . S
C137 C143 1.428 . S
C138 C141 1.260 . S
C138 C142 1.477 . S
C138 H156 0.932 . S
C139 C140 1.384 . S
C139 C141 1.479 . S
C139 H157 0.929 . S
C140 C137 1.424 . S
C140 C139 1.384 . S
C140 H158 0.928 . S
C141 C138 1.260 . S
C141 C139 1.479 . S
C142 C137 1.245 . S
C142 C138 1.477 . S
C142 H159 0.932 . S
C143 U126 2.882 1_556 S
C143 C137 1.428 . S
C143 O146 1.301 . S
C143 O147 1.282 . S
O144 U126 2.441 . S
O144 C130 1.249 . S
O145 U126 2.420 . S
O145 C130 1.202 . S
O146 U126 2.455 1_556 S
O146 C143 1.301 . S
O147 U126 2.449 1_556 S
O147 C143 1.282 . S
H148 C121 0.931 . S
H149 C123 0.929 . S
H150 C124 0.930 . S
H151 C125 0.931 . S
H152 C132 0.932 . S
H153 C133 0.930 . S
H154 C134 0.929 . S
H155 C136 0.930 . S
H156 C138 0.932 . S
H157 C139 0.929 . S
H158 C140 0.928 . S
H159 C142 0.932 . S
C160 C161 1.264 . S
C160 C165 1.479 . S
C160 C170 1.465 1_556 S
C161 C160 1.264 . S
C161 C163 1.339 . S
C161 H188 0.931 1_556 S
C162 C163 1.395 . S
C162 C164 1.320 . S
C163 C161 1.339 . S
C163 C162 1.395 . S
C163 H189 0.929 . S
C164 C162 1.320 . S
C164 C165 1.405 . S
C164 H190 0.930 . S
C165 C160 1.479 . S
C165 C164 1.405 . S
C165 H191 0.931 . S
U166 O167 2.454 . S
U166 O168 2.458 . S
U166 C169 2.984 . S
U166 C170 2.847 . S
U166 C183 2.882 . S
U166 O184 2.441 . S
U166 O185 2.420 . S
U166 O186 2.455 . S
U166 O187 2.449 . S
O167 U166 2.454 . S
O167 C169 1.353 . S
O168 U166 2.458 . S
O168 C169 1.286 . S
C169 U166 2.984 . S
C169 O167 1.353 . S
C169 O168 1.286 . S
C169 C171 1.363 . S
C170 C160 1.465 1_554 S
C170 U166 2.847 . S
C170 O184 1.249 . S
C170 O185 1.202 . S
C171 C169 1.363 . S
C171 C173 1.408 . S
C171 C176 1.342 . S
C172 C173 1.310 . S
C172 C175 1.461 . S
C172 H192 0.932 . S
C173 C171 1.408 . S
C173 C172 1.310 . S
C173 H193 0.930 . S
C174 C175 1.474 . S
C174 C176 1.285 . S
C174 H194 0.929 . S
C175 C172 1.461 . S
C175 C174 1.474 . S
C176 C171 1.342 . S
C176 C174 1.285 . S
C176 H195 0.930 . S
C177 C180 1.424 . S
C177 C182 1.245 . S
C177 C183 1.428 . S
C178 C181 1.260 . S
C178 C182 1.477 . S
C178 H196 0.932 . S
C179 C180 1.384 . S
C179 C181 1.479 . S
C179 H197 0.929 . S
C180 C177 1.424 . S
C180 C179 1.384 . S
C180 H198 0.928 . S
C181 C178 1.260 . S
C181 C179 1.479 . S
C182 C177 1.245 . S
C182 C178 1.477 . S
C182 H199 0.932 . S
C183 U166 2.882 . S
C183 C177 1.428 . S
C183 O186 1.301 . S
C183 O187 1.282 . S
O184 U166 2.441 . S
O184 C170 1.249 . S
O185 U166 2.420 . S
O185 C170 1.202 . S
O186 U166 2.455 . S
O186 C183 1.301 . S
O187 U166 2.449 . S
O187 C183 1.282 . S
H188 C161 0.931 1_554 S
H189 C163 0.929 . S
H190 C164 0.930 . S
H191 C165 0.931 . S
H192 C172 0.932 . S
H193 C173 0.930 . S
H194 C174 0.929 . S
H195 C176 0.930 . S
H196 C178 0.932 . S
H197 C179 0.929 . S
H198 C180 0.928 . S
H199 C182 0.932 . S
C200 C201 1.264 . S
C200 C205 1.479 1_554 S
C200 C210 1.465 . S
C201 C200 1.264 . S
C201 C203 1.339 1_554 S
C201 H228 0.931 . S
C202 C203 1.395 . S
C202 C204 1.320 . S
C203 C201 1.339 1_556 S
C203 C202 1.395 . S
C203 H229 0.929 . S
C204 C202 1.320 . S
C204 C205 1.405 . S
C204 H230 0.930 . S
C205 C200 1.479 1_556 S
C205 C204 1.405 . S
C205 H231 0.931 . S
U206 O207 2.454 . S
U206 O208 2.458 . S
U206 C209 2.984 . S
U206 C210 2.847 . S
U206 C223 2.882 . S
U206 O224 2.441 . S
U206 O225 2.420 . S
U206 O226 2.455 . S
U206 O227 2.449 . S
O207 U206 2.454 . S
O207 C209 1.353 . S
O208 U206 2.458 . S
O208 C209 1.286 . S
C209 U206 2.984 . S
C209 O207 1.353 . S
C209 O208 1.286 . S
C209 C211 1.363 . S
C210 C200 1.465 . S
C210 U206 2.847 . S
C210 O224 1.249 . S
C210 O225 1.202 . S
C211 C209 1.363 . S
C211 C213 1.408 . S
C211 C216 1.342 . S
C212 C213 1.310 . S
C212 C215 1.461 . S
C212 H232 0.932 . S
C213 C211 1.408 . S
C213 C212 1.310 . S
C213 H233 0.930 . S
C214 C215 1.474 . S
C214 C216 1.285 . S
C214 H234 0.929 . S
C215 C212 1.461 . S
C215 C214 1.474 . S
C216 C211 1.342 . S
C216 C214 1.285 . S
C216 H235 0.930 . S
C217 C220 1.424 . S
C217 C222 1.245 . S
C217 C223 1.428 . S
C218 C221 1.260 . S
C218 C222 1.477 . S
C218 H236 0.932 . S
C219 C220 1.384 . S
C219 C221 1.479 . S
C219 H237 0.929 . S
C220 C217 1.424 . S
C220 C219 1.384 . S
C220 H238 0.928 . S
C221 C218 1.260 . S
C221 C219 1.479 . S
C222 C217 1.245 . S
C222 C218 1.477 . S
C222 H239 0.932 . S
C223 U206 2.882 . S
C223 C217 1.428 . S
C223 O226 1.301 . S
C223 O227 1.282 . S
O224 U206 2.441 . S
O224 C210 1.249 . S
O225 U206 2.420 . S
O225 C210 1.202 . S
O226 U206 2.455 . S
O226 C223 1.301 . S
O227 U206 2.449 . S
O227 C223 1.282 . S
H228 C201 0.931 . S
H229 C203 0.929 . S
H230 C204 0.930 . S
H231 C205 0.931 . S
H232 C212 0.932 . S
H233 C213 0.930 . S
H234 C214 0.929 . S
H235 C216 0.930 . S
H236 C218 0.932 . S
H237 C219 0.929 . S
H238 C220 0.928 . S
H239 C222 0.932 . S
C240 C241 1.267 . S
C240 C245 1.489 . S
C240 C250 1.452 1_556 S
C241 C240 1.267 . S
C241 C243 1.339 . S
C241 H268 0.931 1_556 S
C242 C243 1.395 . S
C242 C244 1.320 . S
C243 C241 1.339 . S
C243 C242 1.395 . S
C243 H269 0.929 . S
C244 C242 1.320 . S
C244 C245 1.405 . S
C244 H270 0.927 1_545 S
C245 C240 1.489 . S
C245 C244 1.405 . S
C245 H271 0.931 . S
U246 O247 2.454 . S
U246 O248 2.458 . S
U246 C249 2.984 . S
U246 C250 2.847 . S
U246 C263 2.882 . S
U246 O264 2.441 . S
U246 O265 2.420 . S
U246 O266 2.455 . S
U246 O267 2.449 . S
O247 U246 2.454 . S
O247 C249 1.353 . S
O248 U246 2.458 . S
O248 C249 1.286 . S
C249 U246 2.984 . S
C249 O247 1.353 . S
C249 O248 1.286 . S
C249 C251 1.363 . S
C250 C240 1.452 1_554 S
C250 U246 2.847 . S
C250 O264 1.249 . S
C250 O265 1.202 . S
C251 C249 1.363 . S
C251 C253 1.408 . S
C251 C256 1.342 . S
C252 C253 1.310 . S
C252 C255 1.464 . S
C252 H272 0.932 . S
C253 C251 1.408 . S
C253 C252 1.310 . S
C253 H273 0.930 . S
C254 C255 1.473 1_565 S
C254 C256 1.286 1_565 S
C254 H274 0.929 . S
C255 C252 1.464 . S
C255 C254 1.473 1_545 S
C256 C251 1.342 . S
C256 C254 1.286 1_545 S
C256 H275 0.938 . S
C257 C260 1.424 . S
C257 C262 1.245 . S
C257 C263 1.428 . S
C258 C261 1.260 . S
C258 C262 1.477 . S
C258 H276 0.932 . S
C259 C260 1.384 . S
C259 C261 1.479 . S
C259 H277 0.929 . S
C260 C257 1.424 . S
C260 C259 1.384 . S
C260 H278 0.928 . S
C261 C258 1.260 . S
C261 C259 1.479 . S
C262 C257 1.245 . S
C262 C258 1.477 . S
C262 H279 0.932 . S
C263 U246 2.882 . S
C263 C257 1.428 . S
C263 O266 1.301 . S
C263 O267 1.282 . S
O264 U246 2.441 . S
O264 C250 1.249 . S
O265 U246 2.420 . S
O265 C250 1.202 . S
O266 U246 2.455 . S
O266 C263 1.301 . S
O267 U246 2.449 . S
O267 C263 1.282 . S
H268 C241 0.931 1_554 S
H269 C243 0.929 . S
H270 C244 0.927 1_565 S
H271 C245 0.931 . S
H272 C252 0.932 . S
H273 C253 0.930 . S
H274 C254 0.929 . S
H275 C256 0.938 . S
H276 C258 0.932 . S
H277 C259 0.929 . S
H278 C260 0.928 . S
H279 C262 0.932 . S
C280 C281 1.264 . S
C280 C285 1.479 . S
C280 C290 1.465 . S
C281 C280 1.264 . S
C281 C283 1.339 . S
C281 H308 0.931 . S
C282 C283 1.395 . S
C282 C284 1.320 . S
C283 C281 1.339 . S
C283 C282 1.395 . S
C283 H309 0.929 . S
C284 C282 1.320 . S
C284 C285 1.405 . S
C284 H310 0.930 . S
C285 C280 1.479 . S
C285 C284 1.405 . S
C285 H311 0.931 . S
U286 O287 2.454 . S
U286 O288 2.458 . S
U286 C289 2.984 . S
U286 C290 2.847 . S
U286 C303 2.882 . S
U286 O304 2.441 . S
U286 O305 2.420 . S
U286 O306 2.455 . S
U286 O307 2.449 . S
O287 U286 2.454 . S
O287 C289 1.353 . S
O288 U286 2.458 . S
O288 C289 1.286 . S
C289 U286 2.984 . S
C289 O287 1.353 . S
C289 O288 1.286 . S
C289 C291 1.363 . S
C290 C280 1.465 . S
C290 U286 2.847 . S
C290 O304 1.249 . S
C290 O305 1.202 . S
C291 C289 1.363 . S
C291 C293 1.408 . S
C291 C296 1.342 . S
C292 C293 1.310 . S
C292 C295 1.461 . S
C292 H312 0.932 . S
C293 C291 1.408 . S
C293 C292 1.310 . S
C293 H313 0.930 . S
C294 C295 1.474 . S
C294 C296 1.285 . S
C294 H314 0.929 . S
C295 C292 1.461 . S
C295 C294 1.474 . S
C296 C291 1.342 . S
C296 C294 1.285 . S
C296 H315 0.930 . S
C297 C300 1.424 . S
C297 C302 1.245 . S
C297 C303 1.428 . S
C298 C301 1.260 . S
C298 C302 1.477 . S
C298 H316 0.932 . S
C299 C300 1.384 . S
C299 C301 1.479 . S
C299 H317 0.929 . S
C300 C297 1.424 . S
C300 C299 1.384 . S
C300 H318 0.928 . S
C301 C298 1.260 . S
C301 C299 1.479 . S
C302 C297 1.245 . S
C302 C298 1.477 . S
C302 H319 0.932 . S
C303 U286 2.882 . S
C303 C297 1.428 . S
C303 O306 1.301 . S
C303 O307 1.282 . S
O304 U286 2.441 . S
O304 C290 1.249 . S
O305 U286 2.420 . S
O305 C290 1.202 . S
O306 U286 2.455 . S
O306 C303 1.301 . S
O307 U286 2.449 . S
O307 C303 1.282 . S
H308 C281 0.931 . S
H309 C283 0.929 . S
H310 C284 0.930 . S
H311 C285 0.931 . S
H312 C292 0.932 . S
H313 C293 0.930 . S
H314 C294 0.929 . S
H315 C296 0.930 . S
H316 C298 0.932 . S
H317 C299 0.929 . S
H318 C300 0.928 . S
H319 C302 0.932 . S
Tb320 C329 2.764 . S
Tb320 O330 2.325 1_655 S
Tb320 O333 2.303 1_655 S
Tb320 O337 2.322 1_545 S
Tb320 O338 2.349 . S
Tb320 O341 2.415 1_655 S
Tb320 O342 2.399 . S
Tb321 O331 2.322 1_565 S
Tb321 O332 2.349 . S
Tb321 O334 2.415 . S
Tb321 O335 2.399 . S
Tb321 O336 2.325 . S
Tb321 O339 2.303 1_455 S
Tb321 C350 2.764 . S
C322 O338 1.261 . S
C322 O339 1.257 1_545 S
C323 C326 1.358 . S
C323 C327 1.332 1_655 S
C323 C329 1.504 . S
C324 C325 1.373 . S
C324 C328 1.308 1_655 S
C325 C324 1.373 . S
C325 C326 1.429 . S
C325 H352 0.932 . S
C326 C323 1.358 . S
C326 C325 1.429 . S
C326 H353 0.930 . S
C327 C323 1.332 1_455 S
C327 C328 1.394 . S
C327 H354 0.932 . S
C328 C324 1.308 1_455 S
C328 C327 1.394 . S
C328 H355 0.929 . S
C329 Tb320 2.764 . S
C329 C323 1.504 . S
C329 O341 1.239 1_655 S
C329 O342 1.263 . S
O330 Tb320 2.325 1_455 S
O330 C340 1.236 . S
O331 Tb321 2.322 1_545 S
O331 C340 1.257 . S
O332 Tb321 2.349 . S
O332 C343 1.261 . S
O333 Tb320 2.303 1_455 S
O333 C343 1.257 1_545 S
O334 Tb321 2.415 . S
O334 C350 1.239 . S
O335 Tb321 2.399 . S
O335 C350 1.263 . S
O336 Tb321 2.325 . S
O336 C351 1.236 1_455 S
O337 Tb320 2.322 1_565 S
O337 C351 1.257 . S
O338 Tb320 2.349 . S
O338 C322 1.261 . S
O339 Tb321 2.303 1_655 S
O339 C322 1.257 1_565 S
C340 O330 1.236 . S
C340 O331 1.257 . S
O341 Tb320 2.415 1_455 S
O341 C329 1.239 1_455 S
O342 Tb320 2.399 . S
O342 C329 1.263 . S
C343 O332 1.261 . S
C343 O333 1.257 1_565 S
C344 C347 1.358 . S
C344 C348 1.332 . S
C344 C350 1.504 . S
C345 C346 1.373 . S
C345 C349 1.308 . S
C346 C345 1.373 . S
C346 C347 1.429 . S
C346 H356 0.932 . S
C347 C344 1.358 . S
C347 C346 1.429 . S
C347 H357 0.930 . S
C348 C344 1.332 . S
C348 C349 1.394 . S
C348 H358 0.932 1_455 S
C349 C345 1.308 . S
C349 C348 1.394 . S
C349 H359 0.929 1_455 S
C350 Tb321 2.764 . S
C350 O334 1.239 . S
C350 O335 1.263 . S
C350 C344 1.504 . S
C351 O336 1.236 1_655 S
C351 O337 1.257 . S
H352 C325 0.932 . S
H353 C326 0.930 . S
H354 C327 0.932 . S
H355 C328 0.929 . S
H356 C346 0.932 . S
H357 C347 0.930 . S
H358 C348 0.932 1_655 S
H359 C349 0.929 1_655 S
Tb360 C369 2.764 . S
Tb360 O370 2.325 . S
Tb360 O373 2.303 1_565 S
Tb360 O377 2.322 . S
Tb360 O378 2.349 . S
Tb360 O381 2.415 1_565 S
Tb360 O382 2.399 . S
Tb361 O371 2.322 . S
Tb361 O372 2.349 . S
Tb361 O374 2.415 1_545 S
Tb361 O375 2.399 . S
Tb361 O376 2.325 . S
Tb361 O379 2.303 1_545 S
Tb361 C390 2.764 . S
C362 O378 1.261 . S
C362 O379 1.257 . S
C363 C366 1.358 . S
C363 C367 1.330 . S
C363 C369 1.504 . S
C364 C365 1.373 . S
C364 C368 1.308 . S
C365 C364 1.373 . S
C365 C366 1.429 . S
C365 H392 0.932 . S
C366 C363 1.358 . S
C366 C365 1.429 . S
C366 H393 0.930 . S
C367 C363 1.330 . S
C367 C368 1.394 . S
C367 H394 0.934 1_565 S
C368 C364 1.308 . S
C368 C367 1.394 . S
C368 H395 0.929 1_565 S
C369 Tb360 2.764 . S
C369 C363 1.504 . S
C369 O381 1.239 1_565 S
C369 O382 1.263 . S
O370 Tb360 2.325 . S
O370 C380 1.236 1_565 S
O371 Tb361 2.322 . S
O371 C380 1.257 . S
O372 Tb361 2.349 . S
O372 C383 1.261 . S
O373 Tb360 2.303 1_545 S
O373 C383 1.257 . S
O374 Tb361 2.415 1_565 S
O374 C390 1.239 1_565 S
O375 Tb361 2.399 . S
O375 C390 1.263 . S
O376 Tb361 2.325 . S
O376 C391 1.236 1_545 S
O377 Tb360 2.322 . S
O377 C391 1.257 . S
O378 Tb360 2.349 . S
O378 C362 1.261 . S
O379 Tb361 2.303 1_565 S
O379 C362 1.257 . S
C380 O370 1.236 1_545 S
C380 O371 1.257 . S
O381 Tb360 2.415 1_545 S
O381 C369 1.239 1_545 S
O382 Tb360 2.399 . S
O382 C369 1.263 . S
C383 O372 1.261 . S
C383 O373 1.257 . S
C384 C387 1.358 . S
C384 C388 1.340 . S
C384 C390 1.504 . S
C385 C386 1.373 . S
C385 C389 1.308 . S
C386 C385 1.373 . S
C386 C387 1.429 . S
C386 H396 0.932 1_556 S
C387 C384 1.358 . S
C387 C386 1.429 . S
C387 H397 0.930 . S
C388 C384 1.340 . S
C388 C389 1.394 . S
C388 H398 0.923 1_545 S
C389 C385 1.308 . S
C389 C388 1.394 . S
C389 H399 0.929 1_545 S
C390 Tb361 2.764 . S
C390 O374 1.239 1_545 S
C390 O375 1.263 . S
C390 C384 1.504 . S
C391 O376 1.236 1_565 S
C391 O377 1.257 . S
H392 C365 0.932 . S
H393 C366 0.930 . S
H394 C367 0.934 1_545 S
H395 C368 0.929 1_545 S
H396 C386 0.932 1_554 S
H397 C387 0.930 . S
H398 C388 0.923 1_565 S
H399 C389 0.929 1_565 S
Tb400 C409 2.764 . S
Tb400 O410 2.325 . S
Tb400 O413 2.303 . S
Tb400 O417 2.322 . S
Tb400 O418 2.349 . S
Tb400 O421 2.415 . S
Tb400 O422 2.399 . S
Tb401 O411 2.322 . S
Tb401 O412 2.349 . S
Tb401 O414 2.415 . S
Tb401 O415 2.399 . S
Tb401 O416 2.325 . S
Tb401 O419 2.303 . S
Tb401 C430 2.764 . S
C402 O418 1.261 . S
C402 O419 1.257 . S
C403 C406 1.358 . S
C403 C407 1.332 . S
C403 C409 1.504 . S
C404 C405 1.373 1_554 S
C404 C408 1.308 . S
C405 C404 1.373 1_556 S
C405 C406 1.429 . S
C405 H432 0.932 1_556 S
C406 C403 1.358 . S
C406 C405 1.429 . S
C406 H433 0.930 . S
C407 C403 1.332 . S
C407 C408 1.394 1_556 S
C407 H434 0.932 . S
C408 C404 1.308 . S
C408 C407 1.394 1_554 S
C408 H435 0.929 . S
C409 Tb400 2.764 . S
C409 C403 1.504 . S
C409 O421 1.239 . S
C409 O422 1.263 . S
O410 Tb400 2.325 . S
O410 C420 1.236 . S
O411 Tb401 2.322 . S
O411 C420 1.257 . S
O412 Tb401 2.349 . S
O412 C423 1.261 . S
O413 Tb400 2.303 . S
O413 C423 1.257 . S
O414 Tb401 2.415 . S
O414 C430 1.239 . S
O415 Tb401 2.399 . S
O415 C430 1.263 . S
O416 Tb401 2.325 . S
O416 C431 1.236 . S
O417 Tb400 2.322 . S
O417 C431 1.257 . S
O418 Tb400 2.349 . S
O418 C402 1.261 . S
O419 Tb401 2.303 . S
O419 C402 1.257 . S
C420 O410 1.236 . S
C420 O411 1.257 . S
O421 Tb400 2.415 . S
O421 C409 1.239 . S
O422 Tb400 2.399 . S
O422 C409 1.263 . S
C423 O412 1.261 . S
C423 O413 1.257 . S
C424 C427 1.358 . S
C424 C428 1.332 . S
C424 C430 1.504 . S
C425 C426 1.373 . S
C425 C429 1.308 . S
C426 C425 1.373 . S
C426 C427 1.429 . S
C426 H436 0.932 . S
C427 C424 1.358 . S
C427 C426 1.429 . S
C427 H437 0.930 . S
C428 C424 1.332 . S
C428 C429 1.394 . S
C428 H438 0.932 . S
C429 C425 1.308 . S
C429 C428 1.394 . S
C429 H439 0.929 . S
C430 Tb401 2.764 . S
C430 O414 1.239 . S
C430 O415 1.263 . S
C430 C424 1.504 . S
C431 O416 1.236 . S
C431 O417 1.257 . S
H432 C405 0.932 1_554 S
H433 C406 0.930 . S
H434 C407 0.932 . S
H435 C408 0.929 . S
H436 C426 0.932 . S
H437 C427 0.930 . S
H438 C428 0.932 . S
H439 C429 0.929 . S
Tb440 C449 2.764 . S
Tb440 O450 2.325 . S
Tb440 O453 2.303 . S
Tb440 O457 2.322 1_455 S
Tb440 O458 2.349 . S
Tb440 O461 2.415 . S
Tb440 O462 2.399 . S
Tb441 O451 2.322 1_655 S
Tb441 O452 2.349 1_655 S
Tb441 O454 2.415 . S
Tb441 O455 2.399 . S
Tb441 O456 2.325 . S
Tb441 O459 2.303 1_655 S
Tb441 C470 2.764 . S
C442 O458 1.261 . S
C442 O459 1.257 . S
C443 C446 1.358 . S
C443 C447 1.332 . S
C443 C449 1.504 . S
C444 C445 1.373 . S
C444 C448 1.308 . S
C445 C444 1.373 . S
C445 C446 1.429 . S
C445 H472 0.932 . S
C446 C443 1.358 . S
C446 C445 1.429 . S
C446 H473 0.930 . S
C447 C443 1.332 . S
C447 C448 1.394 . S
C447 H474 0.932 . S
C448 C444 1.308 . S
C448 C447 1.394 . S
C448 H475 0.929 . S
C449 Tb440 2.764 . S
C449 C443 1.504 . S
C449 O461 1.239 . S
C449 O462 1.263 . S
O450 Tb440 2.325 . S
O450 C460 1.236 . S
O451 Tb441 2.322 1_455 S
O451 C460 1.257 . S
O452 Tb441 2.349 1_455 S
O452 C463 1.261 . S
O453 Tb440 2.303 . S
O453 C463 1.257 . S
O454 Tb441 2.415 . S
O454 C470 1.239 . S
O455 Tb441 2.399 . S
O455 C470 1.263 . S
O456 Tb441 2.325 . S
O456 C471 1.236 . S
O457 Tb440 2.322 1_655 S
O457 C471 1.257 . S
O458 Tb440 2.349 . S
O458 C442 1.261 . S
O459 Tb441 2.303 1_455 S
O459 C442 1.257 . S
C460 O450 1.236 . S
C460 O451 1.257 . S
O461 Tb440 2.415 . S
O461 C449 1.239 . S
O462 Tb440 2.399 . S
O462 C449 1.263 . S
C463 O452 1.261 . S
C463 O453 1.257 . S
C464 C467 1.358 . S
C464 C468 1.332 . S
C464 C470 1.504 . S
C465 C466 1.373 . S
C465 C469 1.308 . S
C466 C465 1.373 . S
C466 C467 1.429 . S
C466 H476 0.932 . S
C467 C464 1.358 . S
C467 C466 1.429 . S
C467 H477 0.930 . S
C468 C464 1.332 . S
C468 C469 1.394 . S
C468 H478 0.932 . S
C469 C465 1.308 . S
C469 C468 1.394 . S
C469 H479 0.929 . S
C470 Tb441 2.764 . S
C470 O454 1.239 . S
C470 O455 1.263 . S
C470 C464 1.504 . S
C471 O456 1.236 . S
C471 O457 1.257 . S
H472 C445 0.932 . S
H473 C446 0.930 . S
H474 C447 0.932 . S
H475 C448 0.929 . S
H476 C466 0.932 . S
H477 C467 0.930 . S
H478 C468 0.932 . S
H479 C469 0.929 . S
H480 C492 0.930 1_565 S
H481 C494 0.930 . S
H482 C495 0.930 . S
H483 C499 0.959 . S
H484 C499 0.959 . S
H485 C499 0.961 . S
H486 C500 0.960 . S
H487 C500 0.961 . S
H488 C500 0.959 . S
H489 C503 0.929 . S
H490 C504 0.931 . S
H491 C506 0.923 . S
C492 H480 0.930 1_545 S
C492 C493 1.398 . S
C492 C497 1.399 . S
C493 C492 1.398 . S
C493 C494 1.376 . S
C494 H481 0.930 . S
C494 C493 1.376 . S
C494 C495 1.388 . S
C495 H482 0.930 . S
C495 C494 1.388 . S
C495 C496 1.390 . S
C496 C495 1.390 . S
C496 C497 1.394 . S
C496 C502 1.465 . S
C497 C492 1.399 . S
C497 C496 1.394 . S
C497 C498 1.516 . S
C498 C497 1.516 . S
C498 C499 1.502 1_545 S
C498 C500 1.561 . S
C498 C501 1.531 . S
C499 H483 0.959 . S
C499 H484 0.959 . S
C499 H485 0.961 . S
C499 C498 1.502 1_565 S
C500 H486 0.960 . S
C500 H487 0.961 . S
C500 H488 0.959 . S
C500 C498 1.561 . S
C501 C498 1.531 . S
C501 C502 1.405 . S
C501 C506 1.380 1_545 S
C502 C496 1.465 . S
C502 C501 1.405 . S
C502 C503 1.399 . S
C503 H489 0.929 . S
C503 C502 1.399 . S
C503 C504 1.385 . S
C504 H490 0.931 . S
C504 C503 1.385 . S
C504 C505 1.390 1_545 S
C505 C504 1.390 1_565 S
C505 C506 1.387 . S
C506 H491 0.923 . S
C506 C501 1.380 1_565 S
C506 C505 1.387 . S
H507 C519 0.930 . S
H508 C521 0.930 . S
H509 C522 0.930 . S
H510 C526 0.959 . S
H511 C526 0.959 . S
H512 C526 0.961 . S
H513 C527 0.960 . S
H514 C527 0.961 . S
H515 C527 0.959 . S
H516 C530 0.929 . S
H517 C531 0.931 . S
H518 C533 0.930 . S
C519 H507 0.930 . S
C519 C520 1.399 . S
C519 C524 1.399 . S
C520 C519 1.399 . S
C520 C521 1.376 . S
C521 H508 0.930 . S
C521 C520 1.376 . S
C521 C522 1.388 . S
C522 H509 0.930 . S
C522 C521 1.388 . S
C522 C523 1.390 . S
C523 C522 1.390 . S
C523 C524 1.394 . S
C523 C529 1.465 . S
C524 C519 1.399 . S
C524 C523 1.394 . S
C524 C525 1.516 . S
C525 C524 1.516 . S
C525 C526 1.502 . S
C525 C527 1.561 . S
C525 C528 1.526 . S
C526 H510 0.959 . S
C526 H511 0.959 . S
C526 H512 0.961 . S
C526 C525 1.502 . S
C527 H513 0.960 . S
C527 H514 0.961 . S
C527 H515 0.959 . S
C527 C525 1.561 . S
C528 C525 1.526 . S
C528 C529 1.396 . S
C528 C533 1.390 . S
C529 C523 1.465 . S
C529 C528 1.396 . S
C529 C530 1.399 . S
C530 H516 0.929 . S
C530 C529 1.399 . S
C530 C531 1.385 . S
C531 H517 0.931 . S
C531 C530 1.385 . S
C531 C532 1.389 . S
C532 C531 1.389 . S
C532 C533 1.387 . S
C533 H518 0.930 . S
C533 C528 1.390 . S
C533 C532 1.387 . S
H534 C546 0.930 . S
H535 C548 0.930 . S
H536 C549 0.930 . S
H537 C553 0.959 . S
H538 C553 0.959 . S
H539 C553 0.961 . S
H540 C554 0.960 . S
H541 C554 0.961 . S
H542 C554 0.959 . S
H543 C557 0.929 . S
H544 C558 0.931 . S
H545 C560 0.930 . S
C546 H534 0.930 . S
C546 C547 1.399 . S
C546 C551 1.399 . S
C547 C546 1.399 . S
C547 C548 1.376 . S
C548 H535 0.930 . S
C548 C547 1.376 . S
C548 C549 1.388 . S
C549 H536 0.930 . S
C549 C548 1.388 . S
C549 C550 1.390 . S
C550 C549 1.390 . S
C550 C551 1.394 . S
C550 C556 1.465 . S
C551 C546 1.399 . S
C551 C550 1.394 . S
C551 C552 1.516 . S
C552 C551 1.516 . S
C552 C553 1.502 . S
C552 C554 1.561 . S
C552 C555 1.526 . S
C553 H537 0.959 . S
C553 H538 0.959 . S
C553 H539 0.961 . S
C553 C552 1.502 . S
C554 H540 0.960 . S
C554 H541 0.961 . S
C554 H542 0.959 . S
C554 C552 1.561 . S
C555 C552 1.526 . S
C555 C556 1.396 . S
C555 C560 1.390 . S
C556 C550 1.465 . S
C556 C555 1.396 . S
C556 C557 1.399 . S
C557 H543 0.929 . S
C557 C556 1.399 . S
C557 C558 1.385 . S
C558 H544 0.931 . S
C558 C557 1.385 . S
C558 C559 1.389 . S
C559 C558 1.389 . S
C559 C560 1.387 . S
C560 H545 0.930 . S
C560 C555 1.390 . S
C560 C559 1.387 . S
H561 C573 0.930 . S
H562 C575 0.930 . S
H563 C576 0.930 . S
H564 C580 0.959 . S
H565 C580 0.959 . S
H566 C580 0.961 . S
H567 C581 0.960 . S
H568 C581 0.961 . S
H569 C581 0.959 . S
H570 C584 0.929 . S
H571 C585 0.931 . S
H572 C587 0.930 . S
C573 H561 0.930 . S
C573 C574 1.399 . S
C573 C578 1.399 . S
C574 C573 1.399 . S
C574 C575 1.376 . S
C575 H562 0.930 . S
C575 C574 1.376 . S
C575 C576 1.388 . S
C576 H563 0.930 . S
C576 C575 1.388 . S
C576 C577 1.390 . S
C577 C576 1.390 . S
C577 C578 1.394 . S
C577 C583 1.465 . S
C578 C573 1.399 . S
C578 C577 1.394 . S
C578 C579 1.516 . S
C579 C578 1.516 . S
C579 C580 1.502 1_455 S
C579 C581 1.561 . S
C579 C582 1.526 . S
C580 H564 0.959 . S
C580 H565 0.959 . S
C580 H566 0.961 . S
C580 C579 1.502 1_655 S
C581 H567 0.960 . S
C581 H568 0.961 . S
C581 H569 0.959 . S
C581 C579 1.561 . S
C582 C579 1.526 . S
C582 C583 1.396 . S
C582 C587 1.390 . S
C583 C577 1.465 . S
C583 C582 1.396 . S
C583 C584 1.399 . S
C584 H570 0.929 . S
C584 C583 1.399 . S
C584 C585 1.385 . S
C585 H571 0.931 . S
C585 C584 1.385 . S
C585 C586 1.389 . S
C586 C585 1.389 . S
C586 C587 1.387 . S
C587 H572 0.930 . S
C587 C582 1.390 . S
C587 C586 1.387 . S
H588 C600 0.930 . S
H589 C602 0.930 . S
H590 C603 0.930 . S
H591 C607 0.959 . S
H592 C607 0.959 . S
H593 C607 0.961 . S
H594 C608 0.960 . S
H595 C608 0.961 . S
H596 C608 0.959 . S
H597 C611 0.929 . S
H598 C612 0.931 . S
H599 C614 0.930 . S
C600 H588 0.930 . S
C600 C601 1.399 1_545 S
C600 C605 1.399 . S
C601 C600 1.399 1_565 S
C601 C602 1.376 . S
C602 H589 0.930 . S
C602 C601 1.376 . S
C602 C603 1.388 . S
C603 H590 0.930 . S
C603 C602 1.388 . S
C603 C604 1.390 . S
C604 C603 1.390 . S
C604 C605 1.394 1_565 S
C604 C610 1.465 . S
C605 C600 1.399 . S
C605 C604 1.394 1_545 S
C605 C606 1.516 . S
C606 C605 1.516 . S
C606 C607 1.502 . S
C606 C608 1.561 . S
C606 C609 1.526 . S
C607 H591 0.959 . S
C607 H592 0.959 . S
C607 H593 0.961 . S
C607 C606 1.502 . S
C608 H594 0.960 . S
C608 H595 0.961 . S
C608 H596 0.959 . S
C608 C606 1.561 . S
C609 C606 1.526 . S
C609 C610 1.396 1_545 S
C609 C614 1.390 1_554 S
C610 C604 1.465 . S
C610 C609 1.396 1_565 S
C610 C611 1.399 1_554 S
C611 H597 0.929 . S
C611 C610 1.399 1_556 S
C611 C612 1.385 . S
C612 H598 0.931 . S
C612 C611 1.385 . S
C612 C613 1.389 . S
C613 C612 1.389 . S
C613 C614 1.387 1_565 S
C614 H599 0.930 . S
C614 C609 1.390 1_556 S
C614 C613 1.387 1_545 S
H615 C627 0.930 . S
H616 C629 0.930 . S
H617 C630 0.930 . S
H618 C634 0.959 . S
H619 C634 0.959 . S
H620 C634 0.962 1_554 S
H621 C635 0.960 1_554 S
H622 C635 0.961 . S
H623 C635 0.959 . S
H624 C638 0.929 . S
H625 C639 0.931 . S
H626 C641 0.930 . S
C627 H615 0.930 . S
C627 C628 1.399 . S
C627 C632 1.399 . S
C628 C627 1.399 . S
C628 C629 1.376 . S
C629 H616 0.930 . S
C629 C628 1.376 . S
C629 C630 1.388 . S
C630 H617 0.930 . S
C630 C629 1.388 . S
C630 C631 1.390 . S
C631 C630 1.390 . S
C631 C632 1.394 . S
C631 C637 1.465 . S
C632 C627 1.399 . S
C632 C631 1.394 . S
C632 C633 1.516 . S
C633 C632 1.516 . S
C633 C634 1.502 . S
C633 C635 1.561 . S
C633 C636 1.526 . S
C634 H618 0.959 . S
C634 H619 0.959 . S
C634 H620 0.962 1_556 S
C634 C633 1.502 . S
C635 H621 0.960 1_556 S
C635 H622 0.961 . S
C635 H623 0.959 . S
C635 C633 1.561 . S
C636 C633 1.526 . S
C636 C637 1.396 . S
C636 C641 1.390 . S
C637 C631 1.465 . S
C637 C636 1.396 . S
C637 C638 1.399 . S
C638 H624 0.929 . S
C638 C637 1.399 . S
C638 C639 1.385 . S
C639 H625 0.931 . S
C639 C638 1.385 . S
C639 C640 1.389 . S
C640 C639 1.389 . S
C640 C641 1.387 . S
C641 H626 0.930 . S
C641 C636 1.390 . S
C641 C640 1.387 . S
H642 C654 0.930 . S
H643 C656 0.930 . S
H644 C657 0.930 . S
H645 C661 0.959 . S
H646 C661 0.959 . S
H647 C661 0.961 . S
H648 C662 0.960 . S
H649 C662 0.961 . S
H650 C662 0.959 . S
H651 C665 0.929 . S
H652 C666 0.931 . S
H653 C668 0.930 . S
C654 H642 0.930 . S
C654 C655 1.399 . S
C654 C659 1.399 . S
C655 C654 1.399 . S
C655 C656 1.376 . S
C656 H643 0.930 . S
C656 C655 1.376 . S
C656 C657 1.388 . S
C657 H644 0.930 . S
C657 C656 1.388 . S
C657 C658 1.390 . S
C658 C657 1.390 . S
C658 C659 1.394 . S
C658 C664 1.465 . S
C659 C654 1.399 . S
C659 C658 1.394 . S
C659 C660 1.516 . S
C660 C659 1.516 . S
C660 C661 1.502 . S
C660 C662 1.561 . S
C660 C663 1.526 . S
C661 H645 0.959 . S
C661 H646 0.959 . S
C661 H647 0.961 . S
C661 C660 1.502 . S
C662 H648 0.960 . S
C662 H649 0.961 . S
C662 H650 0.959 . S
C662 C660 1.561 . S
C663 C660 1.526 . S
C663 C664 1.396 . S
C663 C668 1.390 1_554 S
C664 C658 1.465 . S
C664 C663 1.396 . S
C664 C665 1.399 1_554 S
C665 H651 0.929 . S
C665 C664 1.399 1_556 S
C665 C666 1.385 . S
C666 H652 0.931 . S
C666 C665 1.385 . S
C666 C667 1.389 . S
C667 C666 1.389 . S
C667 C668 1.387 . S
C668 H653 0.930 . S
C668 C663 1.390 1_556 S
C668 C667 1.387 . S
H669 C681 0.930 . S
H670 C683 0.930 . S
H671 C684 0.930 . S
H672 C688 0.959 . S
H673 C688 0.959 . S
H674 C688 0.961 . S
H675 C689 0.960 . S
H676 C689 0.961 . S
H677 C689 0.959 . S
H678 C692 0.929 . S
H679 C693 0.931 . S
H680 C695 0.930 1_455 S
C681 H669 0.930 . S
C681 C682 1.399 . S
C681 C686 1.399 . S
C682 C681 1.399 . S
C682 C683 1.376 . S
C683 H670 0.930 . S
C683 C682 1.376 . S
C683 C684 1.388 . S
C684 H671 0.930 . S
C684 C683 1.388 . S
C684 C685 1.390 . S
C685 C684 1.390 . S
C685 C686 1.394 . S
C685 C691 1.465 1_554 S
C686 C681 1.399 . S
C686 C685 1.394 . S
C686 C687 1.516 . S
C687 C686 1.516 . S
C687 C688 1.502 1_655 S
C687 C689 1.561 . S
C687 C690 1.526 1_554 S
C688 H672 0.959 . S
C688 H673 0.959 . S
C688 H674 0.961 . S
C688 C687 1.502 1_455 S
C689 H675 0.960 . S
C689 H676 0.961 . S
C689 H677 0.959 . S
C689 C687 1.561 . S
C690 C687 1.526 1_556 S
C690 C691 1.396 . S
C690 C695 1.390 . S
C691 C685 1.465 1_556 S
C691 C690 1.396 . S
C691 C692 1.399 . S
C692 H678 0.929 . S
C692 C691 1.399 . S
C692 C693 1.385 . S
C693 H679 0.931 . S
C693 C692 1.385 . S
C693 C694 1.389 . S
C694 C693 1.389 . S
C694 C695 1.387 . S
C695 H680 0.930 1_655 S
C695 C690 1.390 . S
C695 C694 1.387 . S
H696 C708 0.930 . S
H697 C710 0.930 . S
H698 C711 0.930 . S
H699 C715 0.959 1_655 S
H700 C715 0.966 . S
H701 C715 0.961 . S
H702 C716 0.960 . S
H703 C716 0.961 . S
H704 C716 0.959 . S
H705 C719 0.929 . S
H706 C720 0.931 1_655 S
H707 C722 0.930 1_655 S
C708 H696 0.930 . S
C708 C709 1.399 . S
C708 C713 1.399 . S
C709 C708 1.399 . S
C709 C710 1.376 . S
C710 H697 0.930 . S
C710 C709 1.376 . S
C710 C711 1.388 . S
C711 H698 0.930 . S
C711 C710 1.388 . S
C711 C712 1.390 . S
C712 C711 1.390 . S
C712 C713 1.394 . S
C712 C718 1.465 . S
C713 C708 1.399 . S
C713 C712 1.394 . S
C713 C714 1.516 . S
C714 C713 1.516 . S
C714 C715 1.502 . S
C714 C716 1.561 . S
C714 C717 1.526 . S
C715 H699 0.959 1_455 S
C715 H700 0.966 . S
C715 H701 0.961 . S
C715 C714 1.502 . S
C716 H702 0.960 . S
C716 H703 0.961 . S
C716 H704 0.959 . S
C716 C714 1.561 . S
C717 C714 1.526 . S
C717 C718 1.396 . S
C717 C722 1.390 . S
C718 C712 1.465 . S
C718 C717 1.396 . S
C718 C719 1.399 . S
C719 H705 0.929 . S
C719 C718 1.399 . S
C719 C720 1.385 . S
C720 H706 0.931 1_455 S
C720 C719 1.385 . S
C720 C721 1.389 1_455 S
C721 C720 1.389 1_655 S
C721 C722 1.387 1_655 S
C722 H707 0.930 1_455 S
C722 C717 1.390 . S
C722 C721 1.387 1_455 S
H723 C735 0.930 . S
H724 C737 0.930 . S
H725 C738 0.930 . S
H726 C742 0.959 . S
H727 C742 0.959 . S
H728 C742 0.961 . S
H729 C743 0.960 . S
H730 C743 0.961 . S
H731 C743 0.959 . S
H732 C746 0.929 . S
H733 C747 0.931 . S
H734 C749 0.930 1_545 S
C735 H723 0.930 . S
C735 C736 1.430 . S
C735 C740 1.399 . S
C736 C735 1.430 . S
C736 C737 1.318 1_545 S
C737 H724 0.930 . S
C737 C736 1.318 1_565 S
C737 C738 1.388 . S
C738 H725 0.930 . S
C738 C737 1.388 . S
C738 C739 1.390 . S
C739 C738 1.390 . S
C739 C740 1.394 1_565 S
C739 C745 1.465 . S
C740 C735 1.399 . S
C740 C739 1.394 1_545 S
C740 C741 1.516 . S
C741 C740 1.516 . S
C741 C742 1.502 . S
C741 C743 1.561 . S
C741 C744 1.526 1_545 S
C742 H726 0.959 . S
C742 H727 0.959 . S
C742 H728 0.961 . S
C742 C741 1.502 . S
C743 H729 0.960 . S
C743 H730 0.961 . S
C743 H731 0.959 . S
C743 C741 1.561 . S
C744 C741 1.526 1_565 S
C744 C745 1.396 . S
C744 C749 1.390 . S
C745 C739 1.465 . S
C745 C744 1.396 . S
C745 C746 1.399 . S
C746 H732 0.929 . S
C746 C745 1.399 . S
C746 C747 1.385 . S
C747 H733 0.931 . S
C747 C746 1.385 . S
C747 C748 1.389 . S
C748 C747 1.389 . S
C748 C749 1.387 . S
C749 H734 0.930 1_565 S
C749 C744 1.390 . S
C749 C748 1.387 . S
H750 C762 0.930 . S
H751 C764 0.930 . S
H752 C765 0.930 . S
H753 C769 0.959 . S
H754 C769 0.959 . S
H755 C769 0.961 . S
H756 C770 0.960 . S
H757 C770 0.961 . S
H758 C770 0.959 . S
H759 C773 0.929 . S
H760 C774 0.931 . S
H761 C776 0.930 . S
C762 H750 0.930 . S
C762 C763 1.399 . S
C762 C767 1.399 . S
C763 C762 1.399 . S
C763 C764 1.376 . S
C764 H751 0.930 . S
C764 C763 1.376 . S
C764 C765 1.388 . S
C765 H752 0.930 . S
C765 C764 1.388 . S
C765 C766 1.390 . S
C766 C765 1.390 . S
C766 C767 1.394 . S
C766 C772 1.465 . S
C767 C762 1.399 . S
C767 C766 1.394 . S
C767 C768 1.516 . S
C768 C767 1.516 . S
C768 C769 1.502 . S
C768 C770 1.561 . S
C768 C771 1.526 . S
C769 H753 0.959 . S
C769 H754 0.959 . S
C769 H755 0.961 . S
C769 C768 1.502 . S
C770 H756 0.960 . S
C770 H757 0.961 . S
C770 H758 0.959 . S
C770 C768 1.561 . S
C771 C768 1.526 . S
C771 C772 1.396 . S
C771 C776 1.390 . S
C772 C766 1.465 . S
C772 C771 1.396 . S
C772 C773 1.399 . S
C773 H759 0.929 . S
C773 C772 1.399 . S
C773 C774 1.385 . S
C774 H760 0.931 . S
C774 C773 1.385 . S
C774 C775 1.389 . S
C775 C774 1.389 . S
C775 C776 1.387 . S
C776 H761 0.930 . S
C776 C771 1.390 . S
C776 C775 1.387 . S
H777 C789 0.930 . S
H778 C791 0.930 . S
H779 C792 0.930 . S
H780 C796 0.959 . S
H781 C796 0.959 . S
H782 C796 0.961 . S
H783 C797 0.960 . S
H784 C797 0.961 . S
H785 C797 0.959 . S
H786 C800 0.929 . S
H787 C801 0.931 . S
H788 C803 0.930 . S
C789 H777 0.930 . S
C789 C790 1.399 . S
C789 C794 1.399 . S
C790 C789 1.399 . S
C790 C791 1.376 . S
C791 H778 0.930 . S
C791 C790 1.376 . S
C791 C792 1.388 . S
C792 H779 0.930 . S
C792 C791 1.388 . S
C792 C793 1.390 . S
C793 C792 1.390 . S
C793 C794 1.394 . S
C793 C799 1.465 . S
C794 C789 1.399 . S
C794 C793 1.394 . S
C794 C795 1.516 . S
C795 C794 1.516 . S
C795 C796 1.502 . S
C795 C797 1.561 . S
C795 C798 1.526 . S
C796 H780 0.959 . S
C796 H781 0.959 . S
C796 H782 0.961 . S
C796 C795 1.502 . S
C797 H783 0.960 . S
C797 H784 0.961 . S
C797 H785 0.959 . S
C797 C795 1.561 . S
C798 C795 1.526 . S
C798 C799 1.396 . S
C798 C803 1.390 . S
C799 C793 1.465 . S
C799 C798 1.396 . S
C799 C800 1.399 . S
C800 H786 0.929 . S
C800 C799 1.399 . S
C800 C801 1.385 . S
C801 H787 0.931 . S
C801 C800 1.385 . S
C801 C802 1.389 . S
C802 C801 1.389 . S
C802 C803 1.387 . S
C803 H788 0.930 . S
C803 C798 1.390 . S
C803 C802 1.387 . S
H804 C816 0.930 . S
H805 C818 0.930 . S
H806 C819 0.930 1_556 S
H807 C823 0.959 1_556 S
H808 C823 0.959 . S
H809 C823 0.961 . S
H810 C824 0.960 . S
H811 C824 0.961 . S
H812 C824 0.959 1_455 S
H813 C827 0.929 . S
H814 C828 0.931 . S
H815 C830 0.930 1_554 S
C816 H804 0.930 . S
C816 C817 1.399 . S
C816 C821 1.399 . S
C817 C816 1.399 . S
C817 C818 1.376 . S
C818 H805 0.930 . S
C818 C817 1.376 . S
C818 C819 1.388 1_655 S
C819 H806 0.930 1_554 S
C819 C818 1.388 1_455 S
C819 C820 1.390 . S
C820 C819 1.390 . S
C820 C821 1.394 1_455 S
C820 C826 1.465 1_554 S
C821 C816 1.399 . S
C821 C820 1.394 1_655 S
C821 C822 1.516 . S
C822 C821 1.516 . S
C822 C823 1.502 . S
C822 C824 1.561 . S
C822 C825 1.526 1_655 S
C823 H807 0.959 1_554 S
C823 H808 0.959 . S
C823 H809 0.961 . S
C823 C822 1.502 . S
C824 H810 0.960 . S
C824 H811 0.961 . S
C824 H812 0.959 1_655 S
C824 C822 1.561 . S
C825 C822 1.526 1_455 S
C825 C826 1.396 1_554 S
C825 C830 1.390 1_554 S
C826 C820 1.465 1_556 S
C826 C825 1.396 1_556 S
C826 C827 1.399 . S
C827 H813 0.929 . S
C827 C826 1.399 . S
C827 C828 1.385 . S
C828 H814 0.931 . S
C828 C827 1.385 . S
C828 C829 1.389 . S
C829 C828 1.389 . S
C829 C830 1.387 . S
C830 H815 0.930 1_556 S
C830 C825 1.390 1_556 S
C830 C829 1.387 . S
H831 C843 0.930 . S
H832 C845 0.930 . S
H833 C846 0.930 . S
H834 C850 0.959 1_554 S
H835 C850 0.959 . S
H836 C850 0.961 . S
H837 C851 0.960 . S
H838 C851 0.961 . S
H839 C851 0.959 1_565 S
H840 C854 0.929 1_565 S
H841 C855 0.931 . S
H842 C857 0.930 . S
C843 H831 0.930 . S
C843 C844 1.399 1_545 S
C843 C848 1.399 . S
C844 C843 1.399 1_565 S
C844 C845 1.376 . S
C845 H832 0.930 . S
C845 C844 1.376 . S
C845 C846 1.388 . S
C846 H833 0.930 . S
C846 C845 1.388 . S
C846 C847 1.390 1_565 S
C847 C846 1.390 1_545 S
C847 C848 1.394 . S
C847 C853 1.465 . S
C848 C843 1.399 . S
C848 C847 1.394 . S
C848 C849 1.516 . S
C849 C848 1.516 . S
C849 C850 1.502 1_554 S
C849 C851 1.561 1_554 S
C849 C852 1.526 . S
C850 H834 0.959 1_556 S
C850 H835 0.959 . S
C850 H836 0.961 . S
C850 C849 1.502 1_556 S
C851 H837 0.960 . S
C851 H838 0.961 . S
C851 H839 0.959 1_545 S
C851 C849 1.561 1_556 S
C852 C849 1.526 . S
C852 C853 1.396 . S
C852 C857 1.390 1_554 S
C853 C847 1.465 . S
C853 C852 1.396 . S
C853 C854 1.399 . S
C854 H840 0.929 1_545 S
C854 C853 1.399 . S
C854 C855 1.385 . S
C855 H841 0.931 . S
C855 C854 1.385 . S
C855 C856 1.389 . S
C856 C855 1.389 . S
C856 C857 1.387 1_554 S
C857 H842 0.930 . S
C857 C852 1.390 1_556 S
C857 C856 1.387 1_556 S
H858 C870 0.930 . S
H859 C872 0.930 . S
H860 C873 0.930 . S
H861 C877 0.959 . S
H862 C877 0.959 . S
H863 C877 0.961 . S
H864 C878 0.960 . S
H865 C878 0.961 . S
H866 C878 0.959 . S
H867 C881 0.929 . S
H868 C882 0.931 . S
H869 C884 0.930 . S
C870 H858 0.930 . S
C870 C871 1.399 . S
C870 C875 1.399 . S
C871 C870 1.399 . S
C871 C872 1.376 . S
C872 H859 0.930 . S
C872 C871 1.376 . S
C872 C873 1.388 . S
C873 H860 0.930 . S
C873 C872 1.388 . S
C873 C874 1.390 . S
C874 C873 1.390 . S
C874 C875 1.394 . S
C874 C880 1.465 . S
C875 C870 1.399 . S
C875 C874 1.394 . S
C875 C876 1.516 . S
C876 C875 1.516 . S
C876 C877 1.502 . S
C876 C878 1.561 . S
C876 C879 1.526 . S
C877 H861 0.959 . S
C877 H862 0.959 . S
C877 H863 0.961 . S
C877 C876 1.502 . S
C878 H864 0.960 . S
C878 H865 0.961 . S
C878 H866 0.959 . S
C878 C876 1.561 . S
C879 C876 1.526 . S
C879 C880 1.396 . S
C879 C884 1.390 . S
C880 C874 1.465 . S
C880 C879 1.396 . S
C880 C881 1.399 . S
C881 H867 0.929 . S
C881 C880 1.399 . S
C881 C882 1.385 . S
C882 H868 0.931 . S
C882 C881 1.385 . S
C882 C883 1.389 . S
C883 C882 1.389 . S
C883 C884 1.387 . S
C884 H869 0.930 . S
C884 C879 1.390 . S
C884 C883 1.387 . S
H885 C897 0.930 . S
H886 C899 0.930 . S
H887 C900 0.930 . S
H888 C904 0.959 . S
H889 C904 0.959 . S
H890 C904 0.961 . S
H891 C905 0.960 . S
H892 C905 0.961 . S
H893 C905 0.959 . S
H894 C908 0.929 . S
H895 C909 0.931 . S
H896 C911 0.930 . S
C897 H885 0.930 . S
C897 C898 1.399 . S
C897 C902 1.399 . S
C898 C897 1.399 . S
C898 C899 1.376 . S
C899 H886 0.930 . S
C899 C898 1.376 . S
C899 C900 1.388 . S
C900 H887 0.930 . S
C900 C899 1.388 . S
C900 C901 1.390 . S
C901 C900 1.390 . S
C901 C902 1.394 . S
C901 C907 1.465 . S
C902 C897 1.399 . S
C902 C901 1.394 . S
C902 C903 1.516 . S
C903 C902 1.516 . S
C903 C904 1.502 . S
C903 C905 1.561 . S
C903 C906 1.526 . S
C904 H888 0.959 . S
C904 H889 0.959 . S
C904 H890 0.961 . S
C904 C903 1.502 . S
C905 H891 0.960 . S
C905 H892 0.961 . S
C905 H893 0.959 . S
C905 C903 1.561 . S
C906 C903 1.526 . S
C906 C907 1.396 . S
C906 C911 1.390 . S
C907 C901 1.465 . S
C907 C906 1.396 . S
C907 C908 1.399 1_554 S
C908 H894 0.929 . S
C908 C907 1.399 1_556 S
C908 C909 1.385 . S
C909 H895 0.931 . S
C909 C908 1.385 . S
C909 C910 1.389 . S
C910 C909 1.389 . S
C910 C911 1.387 1_556 S
C911 H896 0.930 . S
C911 C906 1.390 . S
C911 C910 1.387 1_554 S
H912 C924 0.930 . S
H913 C926 0.930 . S
H914 C927 0.930 . S
H915 C931 0.959 . S
H916 C931 0.959 . S
H917 C931 0.961 . S
H918 C932 0.960 . S
H919 C932 0.961 . S
H920 C932 0.959 . S
H921 C935 0.929 . S
H922 C936 0.931 . S
H923 C938 0.930 . S
C924 H912 0.930 . S
C924 C925 1.399 . S
C924 C929 1.399 . S
C925 C924 1.399 . S
C925 C926 1.376 . S
C926 H913 0.930 . S
C926 C925 1.376 . S
C926 C927 1.388 . S
C927 H914 0.930 . S
C927 C926 1.388 . S
C927 C928 1.390 . S
C928 C927 1.390 . S
C928 C929 1.394 . S
C928 C934 1.465 . S
C929 C924 1.399 . S
C929 C928 1.394 . S
C929 C930 1.516 . S
C930 C929 1.516 . S
C930 C931 1.502 . S
C930 C932 1.561 . S
C930 C933 1.526 . S
C931 H915 0.959 . S
C931 H916 0.959 . S
C931 H917 0.961 . S
C931 C930 1.502 . S
C932 H918 0.960 . S
C932 H919 0.961 . S
C932 H920 0.959 . S
C932 C930 1.561 . S
C933 C930 1.526 . S
C933 C934 1.396 . S
C933 C938 1.390 . S
C934 C928 1.465 . S
C934 C933 1.396 . S
C934 C935 1.399 . S
C935 H921 0.929 . S
C935 C934 1.399 . S
C935 C936 1.385 . S
C936 H922 0.931 . S
C936 C935 1.385 . S
C936 C937 1.389 . S
C937 C936 1.389 . S
C937 C938 1.387 . S
C938 H923 0.930 . S
C938 C933 1.390 . S
C938 C937 1.387 . S
H939 C951 0.926 . S
H940 C953 0.938 . S
H941 C954 0.930 . S
H942 C958 0.959 . S
H943 C958 0.959 . S
H944 C958 0.961 . S
H945 C959 0.960 . S
H946 C959 0.961 . S
H947 C959 0.959 . S
H948 C962 0.929 . S
H949 C963 0.931 . S
H950 C965 0.938 . S
C951 H939 0.926 . S
C951 C952 1.395 1_565 S
C951 C956 1.399 . S
C952 C951 1.395 1_545 S
C952 C953 1.370 . S
C953 H940 0.938 . S
C953 C952 1.370 . S
C953 C954 1.393 . S
C954 H941 0.930 . S
C954 C953 1.393 . S
C954 C955 1.396 . S
C955 C954 1.396 . S
C955 C956 1.383 1_545 S
C955 C961 1.467 . S
C956 C951 1.399 . S
C956 C955 1.383 1_565 S
C956 C957 1.520 . S
C957 C956 1.520 . S
C957 C958 1.502 1_565 S
C957 C959 1.561 . S
C957 C960 1.521 1_565 S
C958 H942 0.959 . S
C958 H943 0.959 . S
C958 H944 0.961 . S
C958 C957 1.502 1_545 S
C959 H945 0.960 . S
C959 H946 0.961 . S
C959 H947 0.959 . S
C959 C957 1.561 . S
C960 C957 1.521 1_545 S
C960 C961 1.401 . S
C960 C965 1.390 . S
C961 C955 1.467 . S
C961 C960 1.401 . S
C961 C962 1.399 . S
C962 H948 0.929 . S
C962 C961 1.399 . S
C962 C963 1.385 . S
C963 H949 0.931 . S
C963 C962 1.385 . S
C963 C964 1.389 . S
C964 C963 1.389 . S
C964 C965 1.387 . S
C965 H950 0.938 . S
C965 C960 1.390 . S
C965 C964 1.387 . S
H966 C978 0.930 . S
H967 C980 0.930 . S
H968 C981 0.930 . S
H969 C985 0.959 . S
H970 C985 0.959 . S
H971 C985 0.961 . S
H972 C986 0.960 . S
H973 C986 0.961 1_556 S
H974 C986 0.959 . S
H975 C989 0.929 . S
H976 C990 0.931 . S
H977 C992 0.930 . S
C978 H966 0.930 . S
C978 C979 1.399 . S
C978 C983 1.399 . S
C979 C978 1.399 . S
C979 C980 1.376 . S
C980 H967 0.930 . S
C980 C979 1.376 . S
C980 C981 1.388 . S
C981 H968 0.930 . S
C981 C980 1.388 . S
C981 C982 1.390 . S
C982 C981 1.390 . S
C982 C983 1.394 . S
C982 C988 1.465 . S
C983 C978 1.399 . S
C983 C982 1.394 . S
C983 C984 1.516 . S
C984 C983 1.516 . S
C984 C985 1.502 . S
C984 C986 1.561 . S
C984 C987 1.526 . S
C985 H969 0.959 . S
C985 H970 0.959 . S
C985 H971 0.961 . S
C985 C984 1.502 . S
C986 H972 0.960 . S
C986 H973 0.961 1_554 S
C986 H974 0.959 . S
C986 C984 1.561 . S
C987 C984 1.526 . S
C987 C988 1.396 . S
C987 C992 1.390 . S
C988 C982 1.465 . S
C988 C987 1.396 . S
C988 C989 1.399 . S
C989 H975 0.929 . S
C989 C988 1.399 . S
C989 C990 1.385 . S
C990 H976 0.931 . S
C990 C989 1.385 . S
C990 C991 1.389 . S
C991 C990 1.389 . S
C991 C992 1.387 . S
C992 H977 0.930 . S
C992 C987 1.390 . S
C992 C991 1.387 . S
H993 C1005 0.930 . S
H994 C1007 0.930 . S
H995 C1008 0.930 . S
H996 C1012 0.959 . S
H997 C1012 0.959 . S
H998 C1012 0.961 . S
H999 C1013 0.960 . S
H1000 C1013 0.961 . S
H1001 C1013 0.959 . S
H1002 C1016 0.929 . S
H1003 C1017 0.931 . S
H1004 C1019 0.930 . S
C1005 H993 0.930 . S
C1005 C1006 1.399 . S
C1005 C1010 1.399 . S
C1006 C1005 1.399 . S
C1006 C1007 1.376 . S
C1007 H994 0.930 . S
C1007 C1006 1.376 . S
C1007 C1008 1.388 . S
C1008 H995 0.930 . S
C1008 C1007 1.388 . S
C1008 C1009 1.390 . S
C1009 C1008 1.390 . S
C1009 C1010 1.394 . S
C1009 C1015 1.465 . S
C1010 C1005 1.399 . S
C1010 C1009 1.394 . S
C1010 C1011 1.516 . S
C1011 C1010 1.516 . S
C1011 C1012 1.502 . S
C1011 C1013 1.561 . S
C1011 C1014 1.526 . S
C1012 H996 0.959 . S
C1012 H997 0.959 . S
C1012 H998 0.961 . S
C1012 C1011 1.502 . S
C1013 H999 0.960 . S
C1013 H1000 0.961 . S
C1013 H1001 0.959 . S
C1013 C1011 1.561 . S
C1014 C1011 1.526 . S
C1014 C1015 1.396 . S
C1014 C1019 1.390 . S
C1015 C1009 1.465 . S
C1015 C1014 1.396 . S
C1015 C1016 1.399 . S
C1016 H1002 0.929 . S
C1016 C1015 1.399 . S
C1016 C1017 1.385 . S
C1017 H1003 0.931 . S
C1017 C1016 1.385 . S
C1017 C1018 1.389 . S
C1018 C1017 1.389 . S
C1018 C1019 1.387 . S
C1019 H1004 0.930 . S
C1019 C1014 1.390 . S
C1019 C1018 1.387 . S
H1020 C1032 0.930 . S
H1021 C1034 0.930 . S
H1022 C1035 0.930 . S
H1023 C1039 0.959 . S
H1024 C1039 0.959 . S
H1025 C1039 0.961 . S
H1026 C1040 0.960 . S
H1027 C1040 0.961 . S
H1028 C1040 0.959 . S
H1029 C1043 0.929 . S
H1030 C1044 0.931 . S
H1031 C1046 0.926 1_455 S
C1032 H1020 0.930 . S
C1032 C1033 1.399 . S
C1032 C1037 1.399 . S
C1033 C1032 1.399 . S
C1033 C1034 1.376 . S
C1034 H1021 0.930 . S
C1034 C1033 1.376 . S
C1034 C1035 1.388 . S
C1035 H1022 0.930 . S
C1035 C1034 1.388 . S
C1035 C1036 1.390 . S
C1036 C1035 1.390 . S
C1036 C1037 1.394 . S
C1036 C1042 1.465 . S
C1037 C1032 1.399 . S
C1037 C1036 1.394 . S
C1037 C1038 1.516 . S
C1038 C1037 1.516 . S
C1038 C1039 1.502 1_655 S
C1038 C1040 1.561 . S
C1038 C1041 1.526 . S
C1039 H1023 0.959 . S
C1039 H1024 0.959 . S
C1039 H1025 0.961 . S
C1039 C1038 1.502 1_455 S
C1040 H1026 0.960 . S
C1040 H1027 0.961 . S
C1040 H1028 0.959 . S
C1040 C1038 1.561 . S
C1041 C1038 1.526 . S
C1041 C1042 1.396 . S
C1041 C1046 1.390 . S
C1042 C1036 1.465 . S
C1042 C1041 1.396 . S
C1042 C1043 1.399 . S
C1043 H1029 0.929 . S
C1043 C1042 1.399 . S
C1043 C1044 1.385 . S
C1044 H1030 0.931 . S
C1044 C1043 1.385 . S
C1044 C1045 1.389 . S
C1045 C1044 1.389 . S
C1045 C1046 1.387 . S
C1046 H1031 0.926 1_655 S
C1046 C1041 1.390 . S
C1046 C1045 1.387 . S
H1047 C1059 0.930 . S
H1048 C1061 0.930 . S
H1049 C1062 0.930 . S
H1050 C1066 0.959 . S
H1051 C1066 0.959 . S
H1052 C1066 0.961 . S
H1053 C1067 0.960 . S
H1054 C1067 0.961 . S
H1055 C1067 0.959 . S
H1056 C1070 0.929 . S
H1057 C1071 0.931 . S
H1058 C1073 0.930 . S
C1059 H1047 0.930 . S
C1059 C1060 1.402 . S
C1059 C1064 1.399 . S
C1060 C1059 1.402 . S
C1060 C1061 1.373 1_565 S
C1061 H1048 0.930 . S
C1061 C1060 1.373 1_545 S
C1061 C1062 1.388 . S
C1062 H1049 0.930 . S
C1062 C1061 1.388 . S
C1062 C1063 1.390 . S
C1063 C1062 1.390 . S
C1063 C1064 1.394 1_545 S
C1063 C1069 1.465 . S
C1064 C1059 1.399 . S
C1064 C1063 1.394 1_565 S
C1064 C1065 1.516 . S
C1065 C1064 1.516 . S
C1065 C1066 1.502 . S
C1065 C1067 1.561 . S
C1065 C1068 1.526 . S
C1066 H1050 0.959 . S
C1066 H1051 0.959 . S
C1066 H1052 0.961 . S
C1066 C1065 1.502 . S
C1067 H1053 0.960 . S
C1067 H1054 0.961 . S
C1067 H1055 0.959 . S
C1067 C1065 1.561 . S
C1068 C1065 1.526 . S
C1068 C1069 1.396 1_565 S
C1068 C1073 1.390 . S
C1069 C1063 1.465 . S
C1069 C1068 1.396 1_545 S
C1069 C1070 1.399 . S
C1070 H1056 0.929 . S
C1070 C1069 1.399 . S
C1070 C1071 1.385 . S
C1071 H1057 0.931 . S
C1071 C1070 1.385 . S
C1071 C1072 1.389 1_545 S
C1072 C1071 1.389 1_565 S
C1072 C1073 1.387 . S
C1073 H1058 0.930 . S
C1073 C1068 1.390 . S
C1073 C1072 1.387 . S
H1074 C1086 0.930 . S
H1075 C1088 0.930 . S
H1076 C1089 0.930 . S
H1077 C1093 0.959 . S
H1078 C1093 0.959 . S
H1079 C1093 0.961 . S
H1080 C1094 0.960 . S
H1081 C1094 0.961 . S
H1082 C1094 0.959 . S
H1083 C1097 0.929 . S
H1084 C1098 0.931 . S
H1085 C1100 0.930 . S
C1086 H1074 0.930 . S
C1086 C1087 1.399 . S
C1086 C1091 1.399 . S
C1087 C1086 1.399 . S
C1087 C1088 1.376 . S
C1088 H1075 0.930 . S
C1088 C1087 1.376 . S
C1088 C1089 1.388 . S
C1089 H1076 0.930 . S
C1089 C1088 1.388 . S
C1089 C1090 1.390 . S
C1090 C1089 1.390 . S
C1090 C1091 1.394 . S
C1090 C1096 1.465 . S
C1091 C1086 1.399 . S
C1091 C1090 1.394 . S
C1091 C1092 1.516 . S
C1092 C1091 1.516 . S
C1092 C1093 1.502 . S
C1092 C1094 1.561 . S
C1092 C1095 1.526 . S
C1093 H1077 0.959 . S
C1093 H1078 0.959 . S
C1093 H1079 0.961 . S
C1093 C1092 1.502 . S
C1094 H1080 0.960 . S
C1094 H1081 0.961 . S
C1094 H1082 0.959 . S
C1094 C1092 1.561 . S
C1095 C1092 1.526 . S
C1095 C1096 1.396 . S
C1095 C1100 1.390 . S
C1096 C1090 1.465 . S
C1096 C1095 1.396 . S
C1096 C1097 1.399 . S
C1097 H1083 0.929 . S
C1097 C1096 1.399 . S
C1097 C1098 1.385 . S
C1098 H1084 0.931 . S
C1098 C1097 1.385 . S
C1098 C1099 1.389 . S
C1099 C1098 1.389 . S
C1099 C1100 1.387 . S
C1100 H1085 0.930 . S
C1100 C1095 1.390 . S
C1100 C1099 1.387 . S
H1101 C1113 0.930 . S
H1102 C1115 0.930 . S
H1103 C1116 0.930 . S
H1104 C1120 0.959 . S
H1105 C1120 0.959 . S
H1106 C1120 0.961 . S
H1107 C1121 0.960 . S
H1108 C1121 0.961 . S
H1109 C1121 0.959 . S
H1110 C1124 0.929 . S
H1111 C1125 0.931 . S
H1112 C1127 0.930 . S
C1113 H1101 0.930 . S
C1113 C1114 1.399 . S
C1113 C1118 1.399 . S
C1114 C1113 1.399 . S
C1114 C1115 1.376 . S
C1115 H1102 0.930 . S
C1115 C1114 1.376 . S
C1115 C1116 1.388 . S
C1116 H1103 0.930 . S
C1116 C1115 1.388 . S
C1116 C1117 1.390 . S
C1117 C1116 1.390 . S
C1117 C1118 1.394 . S
C1117 C1123 1.465 . S
C1118 C1113 1.399 . S
C1118 C1117 1.394 . S
C1118 C1119 1.516 . S
C1119 C1118 1.516 . S
C1119 C1120 1.502 . S
C1119 C1121 1.561 . S
C1119 C1122 1.526 . S
C1120 H1104 0.959 . S
C1120 H1105 0.959 . S
C1120 H1106 0.961 . S
C1120 C1119 1.502 . S
C1121 H1107 0.960 . S
C1121 H1108 0.961 . S
C1121 H1109 0.959 . S
C1121 C1119 1.561 . S
C1122 C1119 1.526 . S
C1122 C1123 1.396 . S
C1122 C1127 1.390 . S
C1123 C1117 1.465 . S
C1123 C1122 1.396 . S
C1123 C1124 1.399 . S
C1124 H1110 0.929 . S
C1124 C1123 1.399 . S
C1124 C1125 1.385 . S
C1125 H1111 0.931 . S
C1125 C1124 1.385 . S
C1125 C1126 1.389 . S
C1126 C1125 1.389 . S
C1126 C1127 1.387 . S
C1127 H1112 0.930 . S
C1127 C1122 1.390 . S
C1127 C1126 1.387 . S
C493 C255 2.296 . S
C505 C343 2.431 . S
C532 C383 1.660 . S
C520 C295 1.594 . S
C559 C402 2.516 . S
C547 C175 2.342 . S
C586 C463 1.914 . S
C574 C215 1.783 . S
C613 C322 2.448 1_565 S
C601 C95 2.291 1_565 S
C628 C135 1.628 . S
C640 C362 1.668 . S
C655 C15 2.294 . S
C667 C423 2.524 . S
C682 C55 1.728 . S
C694 C442 1.928 1_655 S
C721 C324 0.745 . S
C709 C221 0.838 . S
C748 C364 0.456 . S
C736 C261 0.426 . S
C775 C420 1.190 . S
C763 C301 0.990 . S
C790 C181 0.238 . S
C802 C444 0.274 . S
C817 C61 0.690 . S
C829 C345 0.852 . S
C856 C385 0.354 1_554 S
C844 C101 0.488 1_565 S
C883 C431 1.098 . S
C871 C141 1.055 . S
C898 C21 0.369 . S
C910 C465 0.466 . S
C925 C202 2.536 . S
C937 C340 2.817 . S
C952 C242 3.146 . S
C964 C380 3.393 . S
C991 C404 2.063 . S
C979 C282 1.965 . S
C1018 C460 3.381 . S
C1006 C162 3.126 . S
C1033 C42 2.559 . S
C1045 C351 2.812 . S
C1072 C391 3.391 . S
C1060 C82 3.145 1_565 S
C1099 C425 2.009 . S
C1087 C122 2.015 . S
C1114 C2 3.129 . S
C1126 C471 3.384 . S
