# Generated by pormake.
# Topology cml, (3,6)-cn, num edge types: 1
# Building blocks:
#     Node 0, Type 0, BuildingBlock: WUSLED_clean_sbu_0, # of connection points: 3
#     Node 1, Type 0, BuildingBlock: WUSLED_clean_sbu_0, # of connection points: 3
#     Node 2, Type 0, BuildingBlock: WUSLED_clean_sbu_0, # of connection points: 3
#     Node 3, Type 0, BuildingBlock: WUSLED_clean_sbu_0, # of connection points: 3
#     Node 4, Type 0, BuildingBlock: WUSLED_clean_sbu_0, # of connection points: 3
#     Node 5, Type 0, BuildingBlock: WUSLED_clean_sbu_0, # of connection points: 3
#     Node 6, Type 0, BuildingBlock: WUSLED_clean_sbu_0, # of connection points: 3
#     Node 7, Type 0, BuildingBlock: WUSLED_clean_sbu_0, # of connection points: 3
#     Node 8, Type 1, BuildingBlock: OJICUG_clean_sbu_0, # of connection points: 6
#     Node 9, Type 1, BuildingBlock: OJICUG_clean_sbu_0, # of connection points: 6
#     Node 10, Type 1, BuildingBlock: OJICUG_clean_sbu_0, # of connection points: 6
#     Node 11, Type 1, BuildingBlock: OJICUG_clean_sbu_0, # of connection points: 6
#     Edge 12, Type (0, 1), BuildingBlock: KIFKEQ_clean_linker_1, # of connection points: 2
#     Edge 13, Type (0, 1), BuildingBlock: KIFKEQ_clean_linker_1, # of connection points: 2
#     Edge 14, Type (0, 1), BuildingBlock: KIFKEQ_clean_linker_1, # of connection points: 2
#     Edge 15, Type (0, 1), BuildingBlock: KIFKEQ_clean_linker_1, # of connection points: 2
#     Edge 16, Type (0, 1), BuildingBlock: KIFKEQ_clean_linker_1, # of connection points: 2
#     Edge 17, Type (0, 1), BuildingBlock: KIFKEQ_clean_linker_1, # of connection points: 2
#     Edge 18, Type (0, 1), BuildingBlock: KIFKEQ_clean_linker_1, # of connection points: 2
#     Edge 19, Type (0, 1), BuildingBlock: KIFKEQ_clean_linker_1, # of connection points: 2
#     Edge 20, Type (0, 1), BuildingBlock: KIFKEQ_clean_linker_1, # of connection points: 2
#     Edge 21, Type (0, 1), BuildingBlock: KIFKEQ_clean_linker_1, # of connection points: 2
#     Edge 22, Type (0, 1), BuildingBlock: KIFKEQ_clean_linker_1, # of connection points: 2
#     Edge 23, Type (0, 1), BuildingBlock: KIFKEQ_clean_linker_1, # of connection points: 2
#     Edge 24, Type (0, 1), BuildingBlock: KIFKEQ_clean_linker_1, # of connection points: 2
#     Edge 25, Type (0, 1), BuildingBlock: KIFKEQ_clean_linker_1, # of connection points: 2
#     Edge 26, Type (0, 1), BuildingBlock: KIFKEQ_clean_linker_1, # of connection points: 2
#     Edge 27, Type (0, 1), BuildingBlock: KIFKEQ_clean_linker_1, # of connection points: 2
#     Edge 28, Type (0, 1), BuildingBlock: KIFKEQ_clean_linker_1, # of connection points: 2
#     Edge 29, Type (0, 1), BuildingBlock: KIFKEQ_clean_linker_1, # of connection points: 2
#     Edge 30, Type (0, 1), BuildingBlock: KIFKEQ_clean_linker_1, # of connection points: 2
#     Edge 31, Type (0, 1), BuildingBlock: KIFKEQ_clean_linker_1, # of connection points: 2
#     Edge 32, Type (0, 1), BuildingBlock: KIFKEQ_clean_linker_1, # of connection points: 2
#     Edge 33, Type (0, 1), BuildingBlock: KIFKEQ_clean_linker_1, # of connection points: 2
#     Edge 34, Type (0, 1), BuildingBlock: KIFKEQ_clean_linker_1, # of connection points: 2
#     Edge 35, Type (0, 1), BuildingBlock: KIFKEQ_clean_linker_1, # of connection points: 2
# Relax obj value: 0.068
# Max RMSD: 0.081
# Mean RMSD: 0.077
data_MOF--net-cml--node1-WUSLED_clean_sbu_0--node2-OJICUG_clean_sbu_0--edge1-KIFKEQ_clean_linker_1
_symmetry_space_group_name_H-M    P1
_symmetry_Int_Tables_number       1
_symmetry_cell_setting            triclinic
loop_
_symmetry_equiv_pos_as_xyz
'x, y, z'
_cell_length_a     50.764313
_cell_length_b     51.669917
_cell_length_c     48.558342
_cell_angle_alpha  90.320814
_cell_angle_beta   90.026222
_cell_angle_gamma 90.029767
loop_
_atom_site_label
_atom_site_type_symbol
_atom_site_fract_x
_atom_site_fract_y
_atom_site_fract_z
_atom_type_partial_charge
C0 C 0.30844 0.42896 0.947 0.0
C1 C 0.33496 0.43031 0.95519 0.0
C2 C 0.34067 0.47039 0.92972 0.0
C3 C 0.35094 0.45072 0.94649 0.0
C4 C 0.31397 0.46928 0.92202 0.0
C5 C 0.29803 0.44867 0.93051 0.0
U6 U 0.29074 0.37949 1.00096 0.0
O7 O 0.25251 0.36517 0.01588 0.0
O8 O 0.28109 0.33807 0.99789 0.0
C9 C 0.25721 0.34129 0.00776 0.0
C10 C 0.29153 0.40735 0.956 0.0
C11 C 0.23596 0.32834 0.99233 0.0
C12 C 0.20681 0.32474 0.9527 0.0
C13 C 0.22686 0.33781 0.96701 0.0
C14 C 0.20487 0.29274 0.98891 0.0
C15 C 0.19567 0.30194 0.96343 0.0
C16 C 0.22479 0.30581 1.00316 0.0
C17 C 0.33352 0.38284 0.0675 0.0
C18 C 0.35454 0.35218 0.0985 0.0
C19 C 0.34511 0.39576 0.11418 0.0
C20 C 0.33406 0.40148 0.0886 0.0
C21 C 0.35609 0.37126 0.11924 0.0
C22 C 0.3434 0.35793 0.07283 0.0
C23 C 0.32507 0.39087 0.03967 0.0
O24 O 0.3033 0.38477 0.95805 0.0
O25 O 0.27593 0.41252 0.9769 0.0
O26 O 0.30186 0.402 0.03783 0.0
O27 O 0.33017 0.37503 0.01906 0.0
H28 H 0.34336 0.41555 0.9683 0.0
H29 H 0.37133 0.45123 0.95307 0.0
H30 H 0.30556 0.48409 0.909 0.0
H31 H 0.27758 0.44807 0.92414 0.0
H32 H 0.20034 0.33224 0.93305 0.0
H33 H 0.23535 0.35518 0.9583 0.0
H34 H 0.19647 0.27553 0.99803 0.0
H35 H 0.23152 0.29826 0.02272 0.0
H36 H 0.36294 0.33317 0.10168 0.0
H37 H 0.34556 0.41076 0.12985 0.0
H38 H 0.32664 0.42084 0.08501 0.0
H39 H 0.34333 0.34313 0.05694 0.0
C40 C 0.70648 0.66428 0.57886 0.0
C41 C 0.69331 0.64211 0.58817 0.0
C42 C 0.67501 0.66648 0.62674 0.0
C43 C 0.67783 0.64317 0.61194 0.0
C44 C 0.68812 0.68872 0.61722 0.0
C45 C 0.70378 0.68759 0.5935 0.0
U46 U 0.72285 0.63041 0.51209 0.0
O47 O 0.73133 0.64518 0.47058 0.0
O48 O 0.7606 0.62142 0.49203 0.0
C49 C 0.75555 0.63611 0.47063 0.0
C50 C 0.72234 0.66323 0.5535 0.0
C51 C 0.77682 0.65408 0.46198 0.0
C52 C 0.79136 0.6925 0.4373 0.0
C53 C 0.77108 0.67654 0.44687 0.0
C54 C 0.8236 0.66392 0.45767 0.0
C55 C 0.81788 0.68633 0.44251 0.0
C56 C 0.80335 0.64794 0.46717 0.0
C57 C 0.68176 0.56859 0.49705 0.0
C58 C 0.665 0.54903 0.45482 0.0
C59 C 0.66785 0.52358 0.49644 0.0
C60 C 0.67828 0.5449 0.5105 0.0
C61 C 0.66049 0.52554 0.4686 0.0
C62 C 0.67555 0.57038 0.46891 0.0
C63 C 0.68975 0.59139 0.51348 0.0
O64 O 0.73887 0.6437 0.5518 0.0
O65 O 0.70908 0.667 0.53062 0.0
O66 O 0.68367 0.61424 0.50354 0.0
O67 O 0.7133 0.59057 0.5247 0.0
H68 H 0.69487 0.62399 0.57695 0.0
H69 H 0.66766 0.62581 0.61844 0.0
H70 H 0.68645 0.70692 0.62826 0.0
H71 H 0.7137 0.70493 0.58652 0.0
H72 H 0.78625 0.70973 0.4259 0.0
H73 H 0.75091 0.68171 0.44217 0.0
H74 H 0.84381 0.65837 0.46167 0.0
H75 H 0.80853 0.63053 0.47825 0.0
H76 H 0.6594 0.55128 0.43344 0.0
H77 H 0.66511 0.50567 0.50755 0.0
H78 H 0.68297 0.54307 0.53218 0.0
H79 H 0.67808 0.58844 0.45801 0.0
C80 C 0.70422 0.42994 0.94586 0.0
C81 C 0.69105 0.44537 0.96533 0.0
C82 C 0.67247 0.47179 0.92869 0.0
C83 C 0.67547 0.46616 0.95686 0.0
C84 C 0.68592 0.45634 0.90927 0.0
C85 C 0.70165 0.43563 0.91781 0.0
U86 U 0.71675 0.37747 0.99809 0.0
O87 O 0.72507 0.33589 0.99285 0.0
O88 O 0.75328 0.36086 0.01471 0.0
C89 C 0.74866 0.3379 0.00387 0.0
C90 C 0.71951 0.40719 0.95458 0.0
C91 C 0.77043 0.32557 0.98827 0.0
C92 C 0.81491 0.32605 0.96938 0.0
C93 C 0.79413 0.33871 0.98281 0.0
C94 C 0.78854 0.28713 0.9661 0.0
C95 C 0.81248 0.30001 0.96105 0.0
C96 C 0.76786 0.29973 0.97965 0.0
C97 C 0.66962 0.37965 0.06132 0.0
C98 C 0.67434 0.36089 0.10692 0.0
C99 C 0.63268 0.37955 0.093 0.0
C100 C 0.64332 0.38551 0.06733 0.0
C101 C 0.64816 0.36763 0.11332 0.0
C102 C 0.68504 0.36693 0.08109 0.0
C103 C 0.68044 0.38846 0.03485 0.0
O104 O 0.73437 0.41055 0.97651 0.0
O105 O 0.70624 0.38536 0.95495 0.0
O106 O 0.67611 0.37343 0.0134 0.0
O107 O 0.70425 0.39848 0.03533 0.0
H108 H 0.69261 0.4412 0.98712 0.0
H109 H 0.66577 0.47781 0.97243 0.0
H110 H 0.68379 0.45982 0.88741 0.0
H111 H 0.71147 0.42378 0.90246 0.0
H112 H 0.83313 0.33652 0.96617 0.0
H113 H 0.79683 0.35863 0.98924 0.0
H114 H 0.78573 0.26724 0.95959 0.0
H115 H 0.74984 0.28913 0.98362 0.0
H116 H 0.68677 0.35175 0.12217 0.0
H117 H 0.61231 0.38455 0.09704 0.0
H118 H 0.63108 0.39522 0.05229 0.0
H119 H 0.70542 0.36219 0.07679 0.0
C120 C 0.30826 0.66472 0.57674 0.0
C121 C 0.33532 0.65916 0.57516 0.0
C122 C 0.34026 0.66759 0.62427 0.0
C123 C 0.35117 0.66076 0.59864 0.0
C124 C 0.31313 0.67292 0.62587 0.0
C125 C 0.2973 0.67159 0.60226 0.0
U126 U 0.29015 0.62983 0.5107 0.0
O127 O 0.25165 0.62026 0.49221 0.0
O128 O 0.28009 0.64397 0.46943 0.0
C129 C 0.25598 0.63467 0.47043 0.0
C130 C 0.29125 0.66254 0.55216 0.0
C131 C 0.23441 0.65235 0.46235 0.0
C132 C 0.21821 0.69503 0.44964 0.0
C133 C 0.23858 0.67906 0.45901 0.0
C134 C 0.18902 0.65803 0.44738 0.0
C135 C 0.1932 0.6847 0.4435 0.0
C136 C 0.20941 0.64207 0.45658 0.0
C137 C 0.33266 0.56961 0.49362 0.0
C138 C 0.34446 0.55035 0.44951 0.0
C139 C 0.35081 0.52614 0.49157 0.0
C140 C 0.34066 0.54687 0.5068 0.0
C141 C 0.35326 0.52778 0.46279 0.0
C142 C 0.33418 0.57107 0.46479 0.0
C143 C 0.32456 0.59191 0.51067 0.0
O144 O 0.30278 0.66706 0.52841 0.0
O145 O 0.27568 0.64221 0.55151 0.0
O146 O 0.30139 0.59022 0.52259 0.0
O147 O 0.32956 0.61501 0.50071 0.0
H148 H 0.34422 0.65341 0.5558 0.0
H149 H 0.37192 0.65616 0.59684 0.0
H150 H 0.30421 0.67835 0.64532 0.0
H151 H 0.27645 0.6758 0.60396 0.0
H152 H 0.2223 0.71538 0.44661 0.0
H153 H 0.25765 0.68761 0.46322 0.0
H154 H 0.16993 0.64943 0.44336 0.0
H155 H 0.20571 0.62154 0.45895 0.0
H156 H 0.3458 0.55208 0.42734 0.0
H157 H 0.35769 0.50922 0.5025 0.0
H158 H 0.33974 0.5454 0.52903 0.0
H159 H 0.32797 0.58839 0.45413 0.0
C160 C 0.80579 0.92981 0.94686 0.0
C161 C 0.8192 0.94546 0.96601 0.0
C162 C 0.83747 0.97134 0.92881 0.0
C163 C 0.83479 0.96611 0.95708 0.0
C164 C 0.82391 0.95563 0.90973 0.0
C165 C 0.80819 0.93508 0.9187 0.0
U166 U 0.79031 0.8799 1.00125 0.0
O167 O 0.75268 0.86421 0.01619 0.0
O168 O 0.78211 0.83816 0.99795 0.0
C169 C 0.75813 0.84056 0.00786 0.0
C170 C 0.79015 0.90745 0.95603 0.0
C171 C 0.73722 0.82722 0.9923 0.0
C172 C 0.70795 0.82354 0.95278 0.0
C173 C 0.72801 0.83665 0.96701 0.0
C174 C 0.70625 0.79151 0.98897 0.0
C175 C 0.69686 0.80074 0.96358 0.0
C176 C 0.72621 0.80462 1.00314 0.0
C177 C 0.83213 0.88396 0.06792 0.0
C178 C 0.84658 0.85071 0.09988 0.0
C179 C 0.84757 0.89583 0.11366 0.0
C180 C 0.8375 0.90283 0.08799 0.0
C181 C 0.85262 0.86972 0.1198 0.0
C182 C 0.83635 0.85775 0.07418 0.0
C183 C 0.82394 0.89242 0.04023 0.0
O184 O 0.80341 0.88575 0.95851 0.0
O185 O 0.77412 0.91188 0.9768 0.0
O186 O 0.80036 0.90275 0.03829 0.0
O187 O 0.82977 0.87694 0.01954 0.0
H188 H 0.81784 0.94152 0.98786 0.0
H189 H 0.84524 0.97761 0.97227 0.0
H190 H 0.82539 0.95929 0.88784 0.0
H191 H 0.79806 0.92315 0.90363 0.0
H192 H 0.70135 0.83106 0.93318 0.0
H193 H 0.73636 0.8541 0.95831 0.0
H194 H 0.69791 0.7743 0.99815 0.0
H195 H 0.73301 0.79712 0.02269 0.0
H196 H 0.84998 0.83042 0.10408 0.0
H197 H 0.85233 0.911 0.12831 0.0
H198 H 0.83453 0.92315 0.08353 0.0
H199 H 0.83226 0.84278 0.05908 0.0
C200 C 0.20476 0.16528 0.57811 0.0
C201 C 0.1917 0.14282 0.58679 0.0
C202 C 0.17145 0.16663 0.62472 0.0
C203 C 0.17536 0.14345 0.60991 0.0
C204 C 0.18482 0.18907 0.61609 0.0
C205 C 0.20132 0.18838 0.59294 0.0
U206 U 0.22114 0.13215 0.51127 0.0
O207 O 0.22895 0.14707 0.46967 0.0
O208 O 0.25864 0.12336 0.4906 0.0
C209 C 0.25293 0.13749 0.46898 0.0
C210 C 0.22083 0.16474 0.55286 0.0
C211 C 0.27376 0.15522 0.45973 0.0
C212 C 0.30357 0.19135 0.4676 0.0
C213 C 0.28328 0.17514 0.47678 0.0
C214 C 0.30479 0.16796 0.42424 0.0
C215 C 0.31461 0.18792 0.4412 0.0
C216 C 0.28458 0.1518 0.43344 0.0
C217 C 0.17982 0.07053 0.49629 0.0
C218 C 0.16273 0.0514 0.45398 0.0
C219 C 0.1659 0.02553 0.49528 0.0
C220 C 0.17643 0.04671 0.5095 0.0
C221 C 0.15834 0.02777 0.46752 0.0
C222 C 0.17339 0.0726 0.46823 0.0
C223 C 0.188 0.09316 0.51288 0.0
O224 O 0.23748 0.14532 0.55091 0.0
O225 O 0.20762 0.16872 0.52999 0.0
O226 O 0.18181 0.1161 0.50324 0.0
O227 O 0.2117 0.09224 0.52375 0.0
H228 H 0.19398 0.1248 0.57552 0.0
H229 H 0.16579 0.1257 0.61618 0.0
H230 H 0.18206 0.20731 0.62679 0.0
H231 H 0.21107 0.20595 0.58639 0.0
H232 H 0.31046 0.2067 0.48108 0.0
H233 H 0.27509 0.17808 0.49716 0.0
H234 H 0.31305 0.1645 0.40399 0.0
H235 H 0.27753 0.13643 0.42006 0.0
H236 H 0.15697 0.05387 0.43268 0.0
H237 H 0.16327 0.00749 0.5062 0.0
H238 H 0.1813 0.04466 0.53111 0.0
H239 H 0.17585 0.09077 0.4575 0.0
C240 C 0.20393 0.92888 0.94396 0.0
C241 C 0.1913 0.94488 0.96331 0.0
C242 C 0.17134 0.96995 0.92639 0.0
C243 C 0.1753 0.96528 0.95463 0.0
C244 C 0.18414 0.95386 0.90708 0.0
C245 C 0.20029 0.93352 0.91582 0.0
U246 U 0.22046 0.87966 0.9985 0.0
O247 O 0.23023 0.83824 0.99568 0.0
O248 O 0.2584 0.86547 0.01423 0.0
C249 C 0.25396 0.8416 0.00596 0.0
C250 C 0.22011 0.90686 0.95305 0.0
C251 C 0.27563 0.82912 0.99081 0.0
C252 C 0.30312 0.82428 0.95009 0.0
C253 C 0.28212 0.83635 0.96383 0.0
C254 C 0.31118 0.79773 0.99019 0.0
C255 C 0.31799 0.80489 0.96319 0.0
C256 C 0.29023 0.80974 0.00382 0.0
C257 C 0.17817 0.88381 0.06511 0.0
C258 C 0.15734 0.85338 0.0965 0.0
C259 C 0.16779 0.89678 0.11208 0.0
C260 C 0.17836 0.90242 0.08625 0.0
C261 C 0.15656 0.87241 0.11734 0.0
C262 C 0.168 0.85903 0.0706 0.0
C263 C 0.18632 0.89167 0.03712 0.0
O264 O 0.2361 0.9117 0.97377 0.0
O265 O 0.20735 0.88487 0.95562 0.0
O266 O 0.18107 0.87561 0.01674 0.0
O267 O 0.2095 0.90283 0.03495 0.0
H268 H 0.19372 0.94153 0.98518 0.0
H269 H 0.16614 0.97745 0.97011 0.0
H270 H 0.18126 0.9566 0.8852 0.0
H271 H 0.2097 0.92123 0.90059 0.0
H272 H 0.30796 0.8304 0.9294 0.0
H273 H 0.27105 0.85137 0.9535 0.0
H274 H 0.32186 0.78259 1.00073 0.0
H275 H 0.28543 0.80387 0.02462 0.0
H276 H 0.14871 0.83448 0.0998 0.0
H277 H 0.16795 0.91173 0.1278 0.0
H278 H 0.18601 0.92167 0.08255 0.0
H279 H 0.16752 0.84426 0.0547 0.0
C280 C 0.80623 0.16453 0.57809 0.0
C281 C 0.83336 0.15926 0.5767 0.0
C282 C 0.83797 0.16797 0.62579 0.0
C283 C 0.84908 0.16114 0.60026 0.0
C284 C 0.81076 0.17299 0.62721 0.0
C285 C 0.79506 0.17139 0.60352 0.0
U286 U 0.78941 0.12911 0.51213 0.0
O287 O 0.75155 0.11887 0.49283 0.0
O288 O 0.77992 0.14305 0.47057 0.0
C289 C 0.7562 0.13284 0.47081 0.0
C290 C 0.78942 0.16207 0.55337 0.0
C291 C 0.73474 0.15002 0.46197 0.0
C292 C 0.70532 0.18646 0.4697 0.0
C293 C 0.72564 0.17026 0.47883 0.0
C294 C 0.70313 0.16232 0.42684 0.0
C295 C 0.69388 0.18272 0.44353 0.0
C296 C 0.72335 0.14615 0.436 0.0
C297 C 0.83275 0.06953 0.4958 0.0
C298 C 0.84335 0.0501 0.45144 0.0
C299 C 0.85183 0.02647 0.49347 0.0
C300 C 0.8418 0.04713 0.50889 0.0
C301 C 0.85311 0.02785 0.46459 0.0
C302 C 0.83317 0.07074 0.46691 0.0
C303 C 0.82437 0.09168 0.51287 0.0
O304 O 0.80112 0.16666 0.52973 0.0
O305 O 0.77414 0.14152 0.55263 0.0
O306 O 0.80107 0.08975 0.52447 0.0
O307 O 0.82921 0.11483 0.50296 0.0
H308 H 0.84244 0.15351 0.55742 0.0
H309 H 0.86988 0.15675 0.59859 0.0
H310 H 0.80168 0.17839 0.64659 0.0
H311 H 0.77416 0.17537 0.60508 0.0
H312 H 0.69885 0.20213 0.48296 0.0
H313 H 0.73431 0.17357 0.49893 0.0
H314 H 0.69454 0.15863 0.40678 0.0
H315 H 0.73011 0.13058 0.42274 0.0
H316 H 0.84379 0.05162 0.42921 0.0
H317 H 0.85947 0.00979 0.50427 0.0
H318 H 0.8417 0.04586 0.53116 0.0
H319 H 0.82611 0.0878 0.45635 0.0
Sc320 Sc 1.00635 0.81212 0.32239 0.0
Sc321 Sc 1.00635 0.88045 0.32502 0.0
Sc322 Sc 1.00611 0.84489 0.38655 0.0
O323 O 1.00628 0.8458 0.34463 0.0
C324 C 0.96651 0.79879 0.37167 0.0
C325 C 0.96728 0.84713 0.2869 0.0
C326 C 0.96688 0.89208 0.37467 0.0
C327 C 0.04575 0.84749 0.28737 0.0
C328 C 0.0457 0.79856 0.37182 0.0
C329 C 0.04538 0.89197 0.37541 0.0
O330 O 0.9759 0.79484 0.34768 0.0
O331 O 0.97654 0.86837 0.29607 0.0
O332 O 0.97612 0.8744 0.39004 0.0
O333 O 0.03646 0.82553 0.29418 0.0
O334 O 0.03613 0.81543 0.38815 0.0
O335 O 0.03618 0.89682 0.35163 0.0
O336 O 0.03725 0.79531 0.34734 0.0
O337 O 0.0372 0.86869 0.29733 0.0
O338 O 0.03686 0.87352 0.39017 0.0
O339 O 0.97571 0.82517 0.29475 0.0
O340 O 0.97531 0.8163 0.38772 0.0
O341 O 0.97547 0.89618 0.3505 0.0
Sc342 Sc 1.00532 0.19452 0.82513 0.0
Sc343 Sc 1.004 0.1265 0.81795 0.0
Sc344 Sc 1.00537 0.15469 0.88413 0.0
O345 O 1.0049 0.15858 0.84239 0.0
C346 C 0.04545 0.20184 0.8756 0.0
C347 C 0.04359 0.16326 0.78468 0.0
C348 C 0.04386 0.10883 0.86527 0.0
C349 C 0.96497 0.16416 0.78567 0.0
C350 C 0.96614 0.20267 0.8761 0.0
C351 C 0.96526 0.10975 0.86675 0.0
O352 O 0.03595 0.20856 0.85245 0.0
O353 O 0.03374 0.14134 0.79058 0.0
O354 O 0.03506 0.12479 0.88307 0.0
O355 O 0.97495 0.18485 0.79549 0.0
O356 O 0.9756 0.184 0.88993 0.0
O357 O 0.97404 0.10785 0.8423 0.0
O358 O 0.97461 0.20864 0.85228 0.0
O359 O 0.973 0.14175 0.79239 0.0
O360 O 0.97435 0.12598 0.88413 0.0
O361 O 0.03583 0.18425 0.79588 0.0
O362 O 0.03658 0.18269 0.8891 0.0
O363 O 0.03491 0.10752 0.84081 0.0
Sc364 Sc 0.50675 0.3105 0.32419 0.0
Sc365 Sc 0.50806 0.37882 0.32652 0.0
Sc366 Sc 0.50676 0.3436 0.38822 0.0
O367 O 0.5072 0.34427 0.34629 0.0
C368 C 0.46645 0.29801 0.37326 0.0
C369 C 0.46854 0.34613 0.28836 0.0
C370 C 0.46836 0.39126 0.37585 0.0
C371 C 0.54697 0.3449 0.28915 0.0
C372 C 0.54576 0.29671 0.37395 0.0
C373 C 0.54691 0.39004 0.37702 0.0
O374 O 0.4757 0.294 0.34922 0.0
O375 O 0.47795 0.36721 0.29779 0.0
O376 O 0.47691 0.37331 0.3913 0.0
O377 O 0.53743 0.32313 0.29624 0.0
O378 O 0.53665 0.31404 0.39004 0.0
O379 O 0.53824 0.39467 0.35297 0.0
O380 O 0.537 0.29318 0.34963 0.0
O381 O 0.53861 0.3663 0.29881 0.0
O382 O 0.5377 0.37206 0.39198 0.0
O383 O 0.47674 0.32401 0.29598 0.0
O384 O 0.47567 0.31524 0.3894 0.0
O385 O 0.47753 0.39532 0.3519 0.0
Sc386 Sc 0.50636 0.69472 0.82457 0.0
Sc387 Sc 0.50566 0.62668 0.8176 0.0
Sc388 Sc 0.50517 0.65506 0.88364 0.0
O389 O 0.50572 0.65884 0.84193 0.0
C390 C 0.54566 0.70198 0.87577 0.0
C391 C 0.54529 0.66369 0.78471 0.0
C392 C 0.54455 0.60945 0.86573 0.0
C393 C 0.46668 0.66388 0.78473 0.0
C394 C 0.4664 0.70328 0.87474 0.0
C395 C 0.46602 0.6097 0.86565 0.0
O396 O 0.53647 0.70879 0.8525 0.0
O397 O 0.53536 0.64175 0.79036 0.0
O398 O 0.53466 0.62491 0.88341 0.0
O399 O 0.47656 0.68468 0.79444 0.0
O400 O 0.47558 0.68463 0.88879 0.0
O401 O 0.47602 0.60738 0.84175 0.0
O402 O 0.47521 0.70906 0.85101 0.0
O403 O 0.47461 0.64151 0.79179 0.0
O404 O 0.47381 0.62669 0.88291 0.0
O405 O 0.53743 0.6846 0.79597 0.0
O406 O 0.53656 0.68283 0.88913 0.0
O407 O 0.53671 0.60844 0.84085 0.0
H408 H 0.15305 0.32183 0.93575 0.0
H409 H 0.1905 0.24957 0.95686 0.0
H410 H 0.11722 0.298 0.91348 0.0
H411 H 0.15481 0.22584 0.9347 0.0
H412 H 0.07227 0.19258 0.9235 0.0
H413 H 0.10863 0.21707 0.94319 0.0
H414 H 0.10625 0.26962 0.87439 0.0
H415 H 0.06943 0.24531 0.85475 0.0
C416 C 0.15382 0.30089 0.93535 0.0
C417 C 0.17455 0.28763 0.94835 0.0
C418 C 0.13327 0.28722 0.92259 0.0
C419 C 0.13298 0.25998 0.92252 0.0
C420 C 0.15409 0.24679 0.93488 0.0
C421 C 0.17457 0.26041 0.9476 0.0
C422 C 0.07942 0.20934 0.91248 0.0
C423 C 0.06781 0.21689 0.88746 0.0
C424 C 0.10045 0.22331 0.92373 0.0
C425 C 0.1105 0.24526 0.91033 0.0
C426 C 0.09886 0.25294 0.88538 0.0
C427 C 0.07782 0.2389 0.87405 0.0
H428 H 0.82179 0.70917 0.39183 0.0
H429 H 0.86308 0.70109 0.4691 0.0
H430 H 0.85735 0.73643 0.37449 0.0
H431 H 0.89896 0.72765 0.45148 0.0
H432 H 0.94329 0.79941 0.42254 0.0
H433 H 0.90738 0.77256 0.43912 0.0
H434 H 0.90379 0.73358 0.36031 0.0
H435 H 0.93962 0.76076 0.34342 0.0
C436 C 0.83841 0.71327 0.40515 0.0
C437 C 0.83954 0.70299 0.43189 0.0
C438 C 0.85894 0.72865 0.39509 0.0
C439 C 0.88102 0.73422 0.41158 0.0
C440 C 0.88212 0.72396 0.43832 0.0
C441 C 0.86167 0.70851 0.44833 0.0
C442 C 0.93491 0.78516 0.40865 0.0
C443 C 0.94448 0.78229 0.38159 0.0
C444 C 0.91437 0.76963 0.41826 0.0
C445 C 0.90276 0.75084 0.4011 0.0
C446 C 0.91214 0.74804 0.37398 0.0
C447 C 0.9328 0.76354 0.36436 0.0
H448 H 0.82798 0.24981 0.96899 0.0
H449 H 0.84825 0.31858 0.9234 0.0
H450 H 0.86448 0.22688 0.9477 0.0
H451 H 0.88578 0.29597 0.90319 0.0
H452 H 0.93469 0.23892 0.85105 0.0
H453 H 0.89763 0.26251 0.87097 0.0
H454 H 0.91117 0.22494 0.94898 0.0
H455 H 0.94757 0.20087 0.92894 0.0
C456 C 0.84016 0.26007 0.95435 0.0
C457 C 0.83501 0.28609 0.9479 0.0
C458 C 0.8614 0.24698 0.94242 0.0
C459 C 0.87828 0.25956 0.92381 0.0
C460 C 0.8731 0.28556 0.91723 0.0
C461 C 0.85173 0.29865 0.92911 0.0
C462 C 0.92979 0.23573 0.87247 0.0
C463 C 0.94411 0.21785 0.88831 0.0
C464 C 0.90859 0.24937 0.88395 0.0
C465 C 0.90123 0.24557 0.91159 0.0
C466 C 0.91585 0.228 0.92749 0.0
C467 C 0.9369 0.21428 0.916 0.0
H468 H 0.15633 0.67305 0.40392 0.0
H469 H 0.18124 0.73467 0.45856 0.0
H470 H 0.12079 0.70021 0.38694 0.0
H471 H 0.14663 0.76234 0.44043 0.0
H472 H 0.06488 0.79517 0.4244 0.0
H473 H 0.10012 0.76775 0.44136 0.0
H474 H 0.11199 0.73726 0.35926 0.0
H475 H 0.0761 0.76419 0.34237 0.0
C476 C 0.15425 0.69238 0.41237 0.0
C477 C 0.17167 0.70155 0.43276 0.0
C478 C 0.13405 0.70813 0.4023 0.0
C479 C 0.13077 0.73355 0.41224 0.0
C480 C 0.14829 0.74278 0.43251 0.0
C481 C 0.16842 0.72699 0.44268 0.0
C482 C 0.07497 0.78265 0.40989 0.0
C483 C 0.06754 0.78194 0.38197 0.0
C484 C 0.09536 0.767 0.41963 0.0
C485 C 0.10904 0.75027 0.40172 0.0
C486 C 0.10168 0.7496 0.37376 0.0
C487 C 0.08115 0.76518 0.36403 0.0
H488 H 0.65426 0.82096 0.93618 0.0
H489 H 0.69106 0.74837 0.95727 0.0
H490 H 0.61812 0.79746 0.91411 0.0
H491 H 0.65501 0.72496 0.93533 0.0
H492 H 0.5721 0.69249 0.92388 0.0
H493 H 0.60864 0.71662 0.94374 0.0
H494 H 0.60703 0.76923 0.87498 0.0
H495 H 0.57007 0.74531 0.85517 0.0
C496 C 0.65482 0.80001 0.93582 0.0
C497 C 0.67549 0.78658 0.94872 0.0
C498 C 0.63408 0.78653 0.92318 0.0
C499 C 0.63351 0.7593 0.92315 0.0
C500 C 0.65451 0.74591 0.93547 0.0
C501 C 0.67521 0.75936 0.94806 0.0
C502 C 0.57945 0.7092 0.91292 0.0
C503 C 0.56802 0.71687 0.88785 0.0
C504 C 0.60058 0.72296 0.92427 0.0
C505 C 0.6109 0.74482 0.91091 0.0
C506 C 0.59943 0.75263 0.88593 0.0
C507 C 0.57829 0.7388 0.87451 0.0
H508 H 0.35743 0.20536 0.47032 0.0
H509 H 0.32141 0.20858 0.38981 0.0
H510 H 0.39387 0.23185 0.45385 0.0
H511 H 0.35782 0.23508 0.37335 0.0
H512 H 0.44102 0.25843 0.34604 0.0
H513 H 0.40445 0.23213 0.36255 0.0
H514 H 0.40396 0.27536 0.43894 0.0
H515 H 0.44075 0.30129 0.42277 0.0
C516 C 0.35712 0.21196 0.44919 0.0
C517 C 0.33647 0.20478 0.4314 0.0
C518 C 0.37805 0.22714 0.43973 0.0
C519 C 0.37885 0.23557 0.41223 0.0
C520 C 0.3581 0.22856 0.3945 0.0
C521 C 0.33718 0.21338 0.40397 0.0
C522 C 0.43315 0.26235 0.36637 0.0
C523 C 0.44398 0.28201 0.38304 0.0
C524 C 0.41205 0.24734 0.37578 0.0
C525 C 0.40124 0.25159 0.4021 0.0
C526 C 0.41202 0.27128 0.41872 0.0
C527 C 0.43308 0.28628 0.40934 0.0
H528 H 0.32116 0.78862 0.90929 0.0
H529 H 0.36593 0.79208 0.9849 0.0
H530 H 0.35724 0.76511 0.88712 0.0
H531 H 0.40179 0.76859 0.96283 0.0
H532 H 0.44467 0.69905 0.92608 0.0
H533 H 0.40939 0.72462 0.94621 0.0
H534 H 0.40341 0.76898 0.87137 0.0
H535 H 0.43868 0.74309 0.85087 0.0
C536 C 0.3388 0.78466 0.92108 0.0
C537 C 0.34051 0.79201 0.94897 0.0
C538 C 0.35948 0.77117 0.90837 0.0
C539 C 0.3823 0.76471 0.92328 0.0
C540 C 0.38427 0.77274 0.95092 0.0
C541 C 0.36368 0.78622 0.96358 0.0
C542 C 0.43591 0.71422 0.9138 0.0
C543 C 0.44466 0.71897 0.8868 0.0
C544 C 0.41574 0.72903 0.92547 0.0
C545 C 0.40367 0.74898 0.91049 0.0
C546 C 0.41218 0.75364 0.8834 0.0
C547 C 0.4325 0.73887 0.87171 0.0
H548 H 0.65159 0.20156 0.4725 0.0
H549 H 0.68748 0.20286 0.39189 0.0
H550 H 0.61591 0.22889 0.45574 0.0
H551 H 0.65191 0.23024 0.37516 0.0
H552 H 0.56996 0.25614 0.34728 0.0
H553 H 0.60545 0.22877 0.36426 0.0
H554 H 0.6069 0.27238 0.4404 0.0
H555 H 0.5711 0.29938 0.42376 0.0
C556 C 0.65202 0.20789 0.45128 0.0
C557 C 0.67239 0.19994 0.43355 0.0
C558 C 0.63154 0.22357 0.44165 0.0
C559 C 0.63095 0.23174 0.41405 0.0
C560 C 0.65144 0.22394 0.39639 0.0
C561 C 0.67188 0.20825 0.40601 0.0
C562 C 0.5778 0.25991 0.36766 0.0
C563 C 0.56754 0.28001 0.38411 0.0
C564 C 0.59829 0.24428 0.37735 0.0
C565 C 0.60908 0.24834 0.40372 0.0
C566 C 0.59884 0.26844 0.42015 0.0
C567 C 0.57836 0.28405 0.4105 0.0
H568 H 0.33049 0.52251 0.92934 0.0
H569 H 0.39001 0.46622 0.90801 0.0
H570 H 0.35943 0.55733 0.91332 0.0
H571 H 0.41888 0.50088 0.89224 0.0
H572 H 0.45068 0.56569 0.83851 0.0
H573 H 0.41941 0.53302 0.85363 0.0
H574 H 0.40342 0.57775 0.92706 0.0
H575 H 0.43485 0.61068 0.91201 0.0
C576 C 0.34969 0.5176 0.92114 0.0
C577 C 0.358 0.49165 0.91994 0.0
C578 C 0.36631 0.53751 0.91218 0.0
C579 C 0.39138 0.53182 0.90146 0.0
C580 C 0.39958 0.50586 0.90015 0.0
C581 C 0.38314 0.48603 0.9094 0.0
C582 C 0.44041 0.56877 0.8578 0.0
C583 C 0.44546 0.59084 0.8741 0.0
C584 C 0.42258 0.54992 0.86652 0.0
C585 C 0.40911 0.55272 0.89162 0.0
C586 C 0.41344 0.57513 0.90755 0.0
C587 C 0.43154 0.59392 0.89897 0.0
H588 H 0.62229 0.49431 0.48988 0.0
H589 H 0.6669 0.50764 0.41555 0.0
H590 H 0.59804 0.45989 0.46695 0.0
H591 H 0.64246 0.47298 0.39244 0.0
H592 H 0.56823 0.43371 0.35408 0.0
H593 H 0.598 0.46474 0.37561 0.0
H594 H 0.60224 0.41673 0.44802 0.0
H595 H 0.57201 0.38593 0.42681 0.0
C596 C 0.62728 0.48959 0.46876 0.0
C597 C 0.64666 0.50371 0.45461 0.0
C598 C 0.61334 0.4698 0.45558 0.0
C599 C 0.61835 0.46356 0.42787 0.0
C600 C 0.63792 0.47747 0.41373 0.0
C601 C 0.65191 0.49734 0.42696 0.0
C602 C 0.5757 0.42958 0.37448 0.0
C603 C 0.56742 0.40741 0.3888 0.0
C604 C 0.59292 0.44736 0.38678 0.0
C605 C 0.60232 0.44337 0.41366 0.0
C606 C 0.59496 0.42065 0.42749 0.0
C607 C 0.57772 0.4029 0.41524 0.0
H608 H 0.67992 0.50595 0.88615 0.0
H609 H 0.62484 0.48612 0.95054 0.0
H610 H 0.65038 0.54029 0.87087 0.0
H611 H 0.59571 0.52069 0.93557 0.0
H612 H 0.56191 0.60055 0.91829 0.0
H613 H 0.59393 0.56856 0.93349 0.0
H614 H 0.60611 0.54441 0.84919 0.0
H615 H 0.57422 0.57654 0.83382 0.0
C616 C 0.66151 0.50881 0.897 0.0
C617 C 0.65484 0.49321 0.91963 0.0
C618 C 0.64462 0.52854 0.88827 0.0
C619 C 0.62075 0.53327 0.90206 0.0
C620 C 0.61416 0.51783 0.92478 0.0
C621 C 0.63093 0.49802 0.9334 0.0
C622 C 0.57152 0.58859 0.90291 0.0
C623 C 0.56531 0.5911 0.8748 0.0
C624 C 0.58978 0.57013 0.91168 0.0
C625 C 0.60244 0.55384 0.89257 0.0
C626 C 0.59683 0.5568 0.86441 0.0
C627 C 0.57842 0.57514 0.85563 0.0
H628 H 0.3472 0.47537 0.46881 0.0
H629 H 0.38957 0.53243 0.42159 0.0
H630 H 0.37206 0.44094 0.44605 0.0
H631 H 0.4145 0.49815 0.39901 0.0
H632 H 0.44325 0.4305 0.34861 0.0
H633 H 0.41243 0.46204 0.36741 0.0
H634 H 0.41669 0.42465 0.44664 0.0
H635 H 0.44704 0.39274 0.42775 0.0
C636 C 0.36176 0.48055 0.45351 0.0
C637 C 0.36646 0.50666 0.44709 0.0
C638 C 0.37604 0.46083 0.4405 0.0
C639 C 0.39539 0.46675 0.42079 0.0
C640 C 0.39949 0.49282 0.41378 0.0
C641 C 0.38518 0.51252 0.42674 0.0
C642 C 0.43746 0.42881 0.36998 0.0
C643 C 0.44786 0.40912 0.38669 0.0
C644 C 0.41986 0.44702 0.3808 0.0
C645 C 0.41222 0.44604 0.4086 0.0
C646 C 0.42191 0.42585 0.42507 0.0
C647 C 0.43947 0.4076 0.41424 0.0
H648 H 0.87277 0.97033 0.88635 0.0
H649 H 0.84169 0.02053 0.94983 0.0
H650 H 0.90217 0.0047 0.87135 0.0
H651 H 0.87079 0.05521 0.93454 0.0
H652 H 0.94777 0.10021 0.91921 0.0
H653 H 0.91615 0.06761 0.93387 0.0
H654 H 0.9033 0.0455 0.84896 0.0
H655 H 0.93548 0.0775 0.83438 0.0
C656 C 0.87196 0.98886 0.89686 0.0
C657 C 0.85486 0.99268 0.91926 0.0
C658 C 0.88879 0.00864 0.88823 0.0
C659 C 0.88887 0.03285 0.90165 0.0
C660 C 0.87159 0.03673 0.92395 0.0
C661 C 0.85485 0.01686 0.9327 0.0
C662 C 0.93808 0.08853 0.90364 0.0
C663 C 0.94438 0.09141 0.87561 0.0
C664 C 0.91981 0.06987 0.91205 0.0
C665 C 0.90725 0.05372 0.89265 0.0
C666 C 0.91298 0.05717 0.86456 0.0
C667 C 0.93135 0.07569 0.85617 0.0
H668 H 0.12049 0.99606 0.48873 0.0
H669 H 0.16433 0.01057 0.41415 0.0
H670 H 0.0963 0.96172 0.46559 0.0
H671 H 0.13991 0.97602 0.39082 0.0
H672 H 0.06565 0.9363 0.35283 0.0
H673 H 0.0952 0.96754 0.37441 0.0
H674 H 0.10106 0.91873 0.44608 0.0
H675 H 0.07111 0.88771 0.42482 0.0
C676 C 0.12532 0.99163 0.4675 0.0
C677 C 0.14448 0.00604 0.45336 0.0
C678 C 0.11141 0.97188 0.4542 0.0
C679 C 0.11622 0.966 0.42636 0.0
C680 C 0.13553 0.98023 0.41221 0.0
C681 C 0.14951 1.00003 0.42556 0.0
C682 C 0.07343 0.93205 0.37307 0.0
C683 C 0.0657 0.90956 0.38717 0.0
C684 C 0.09051 0.94995 0.3854 0.0
C685 C 0.1003 0.94578 0.41209 0.0
C686 C 0.09347 0.92278 0.4257 0.0
C687 C 0.07639 0.90491 0.41342 0.0
H688 H 0.1776 1.00269 0.88239 0.0
H689 H 0.12459 0.98539 0.94946 0.0
H690 H 0.1481 0.03716 0.86733 0.0
H691 H 0.09553 0.0201 0.93469 0.0
H692 H 0.06317 0.10049 0.91718 0.0
H693 H 0.09494 0.06797 0.93165 0.0
H694 H 0.10306 0.04197 0.84744 0.0
H695 H 0.07139 0.07462 0.83278 0.0
C696 C 0.15963 0.00611 0.89386 0.0
C697 C 0.15357 0.99122 0.91721 0.0
C698 C 0.14277 0.02592 0.88525 0.0
C699 C 0.11954 0.03144 0.89989 0.0
C700 C 0.11351 0.01664 0.92325 0.0
C701 C 0.13024 0.99674 0.93174 0.0
C702 C 0.07183 0.08801 0.90165 0.0
C703 C 0.06455 0.09016 0.87379 0.0
C704 C 0.08994 0.06925 0.91001 0.0
C705 C 0.10138 0.05228 0.89073 0.0
C706 C 0.09472 0.05486 0.86278 0.0
C707 C 0.07645 0.07352 0.85441 0.0
H708 H 0.84787 0.97546 0.47131 0.0
H709 H 0.88779 0.03257 0.4219 0.0
H710 H 0.87219 0.9411 0.4478 0.0
H711 H 0.91224 0.99836 0.3986 0.0
H712 H 0.94036 0.93072 0.34788 0.0
H713 H 0.90969 0.96202 0.36746 0.0
H714 H 0.91682 0.92523 0.44679 0.0
H715 H 0.94697 0.89356 0.42715 0.0
C716 C 0.86179 0.98066 0.45537 0.0
C717 C 0.86597 0.00676 0.44855 0.0
C718 C 0.87576 0.96098 0.44193 0.0
C719 C 0.8943 0.96694 0.4214 0.0
C720 C 0.89786 0.993 0.41401 0.0
C721 C 0.88383 0.01266 0.42739 0.0
C722 C 0.9352 0.92911 0.36945 0.0
C723 C 0.94635 0.90967 0.38596 0.0
C724 C 0.9177 0.94718 0.38071 0.0
C725 C 0.91093 0.94631 0.40876 0.0
C726 C 0.92135 0.92634 0.42504 0.0
C727 C 0.9388 0.90822 0.41377 0.0
H728 H 0.35522 0.32776 0.15179 0.0
H729 H 0.3904 0.40361 0.14542 0.0
H730 H 0.37975 0.32032 0.19448 0.0
H731 H 0.41486 0.3962 0.18755 0.0
H732 H 0.43802 0.38773 0.27528 0.0
H733 H 0.40863 0.39251 0.23615 0.0
H734 H 0.42435 0.31351 0.21163 0.0
H735 H 0.45334 0.30846 0.25143 0.0
C736 C 0.36821 0.3428 0.15945 0.0
C737 C 0.37061 0.3664 0.14535 0.0
C738 C 0.38227 0.33854 0.18388 0.0
C739 C 0.39908 0.35777 0.19466 0.0
C740 C 0.40159 0.38121 0.18033 0.0
C741 C 0.38755 0.38547 0.15608 0.0
C742 C 0.43505 0.37125 0.26173 0.0
C743 C 0.44831 0.3478 0.26635 0.0
C744 C 0.41828 0.37405 0.23916 0.0
C745 C 0.41447 0.35356 0.2204 0.0
C746 C 0.42674 0.32967 0.2257 0.0
C747 C 0.44342 0.3268 0.2485 0.0
H748 H 0.67269 0.63155 0.66872 0.0
H749 H 0.63909 0.70369 0.64127 0.0
H750 H 0.6433 0.63178 0.70837 0.0
H751 H 0.60933 0.70379 0.68075 0.0
H752 H 0.57288 0.70621 0.76666 0.0
H753 H 0.60596 0.70783 0.73023 0.0
H754 H 0.59751 0.62544 0.71738 0.0
H755 H 0.56515 0.62365 0.75404 0.0
C756 C 0.65894 0.64743 0.67113 0.0
C757 C 0.6581 0.66751 0.65174 0.0
C758 C 0.64205 0.64755 0.69384 0.0
C759 C 0.62375 0.66769 0.6977 0.0
C760 C 0.62337 0.68812 0.67865 0.0
C761 C 0.64039 0.68806 0.65597 0.0
C762 C 0.57822 0.68841 0.75619 0.0
C763 C 0.56626 0.66481 0.76337 0.0
C764 C 0.59709 0.68937 0.73517 0.0
C765 C 0.60444 0.66677 0.72081 0.0
C766 C 0.5927 0.64317 0.72824 0.0
C767 C 0.57394 0.64219 0.74924 0.0
H768 H 0.65253 0.3246 0.14623 0.0
H769 H 0.61871 0.40122 0.14371 0.0
H770 H 0.63229 0.31765 0.19145 0.0
H771 H 0.59799 0.39408 0.18803 0.0
H772 H 0.57942 0.3852 0.27632 0.0
H773 H 0.60768 0.38948 0.2362 0.0
H774 H 0.58802 0.31151 0.21105 0.0
H775 H 0.56012 0.30696 0.25172 0.0
C776 C 0.64093 0.33998 0.15539 0.0
C777 C 0.63705 0.36338 0.14128 0.0
C778 C 0.62918 0.33593 0.18116 0.0
C779 C 0.61355 0.35532 0.19343 0.0
C780 C 0.61019 0.37885 0.17946 0.0
C781 C 0.62179 0.38283 0.15381 0.0
C782 C 0.58137 0.3688 0.26248 0.0
C783 C 0.56718 0.34586 0.26707 0.0
C784 C 0.59751 0.37131 0.23937 0.0
C785 C 0.59974 0.35102 0.22009 0.0
C786 C 0.58683 0.32749 0.22552 0.0
C787 C 0.57076 0.32491 0.24882 0.0
H788 H 0.33019 0.64753 0.67525 0.0
H789 H 0.38865 0.6902 0.62958 0.0
H790 H 0.35902 0.6479 0.71567 0.0
H791 H 0.41753 0.69036 0.66982 0.0
H792 H 0.45189 0.70654 0.75518 0.0
H793 H 0.41987 0.70869 0.71774 0.0
H794 H 0.40241 0.62755 0.72811 0.0
H795 H 0.43434 0.62529 0.76557 0.0
C796 C 0.34909 0.65718 0.67394 0.0
C797 C 0.35719 0.66878 0.64923 0.0
C798 C 0.36566 0.65722 0.69699 0.0
C799 C 0.39054 0.66914 0.69591 0.0
C800 C 0.39839 0.68121 0.67138 0.0
C801 C 0.38196 0.68092 0.64826 0.0
C802 C 0.44107 0.68919 0.74969 0.0
C803 C 0.44583 0.6657 0.76335 0.0
C804 C 0.42283 0.69041 0.72812 0.0
C805 C 0.40871 0.66827 0.71991 0.0
C806 C 0.41284 0.64499 0.7341 0.0
C807 C 0.43128 0.64368 0.75546 0.0
H808 H 0.84231 0.88903 0.17135 0.0
H809 H 0.89242 0.83487 0.12813 0.0
H810 H 0.86691 0.88136 0.21369 0.0
H811 H 0.91704 0.82723 0.17043 0.0
H812 H 0.94714 0.80711 0.25576 0.0
H813 H 0.91626 0.80996 0.21729 0.0
H814 H 0.91073 0.89262 0.2297 0.0
H815 H 0.94106 0.88981 0.26824 0.0
C816 C 0.8585 0.87539 0.17092 0.0
C817 C 0.86554 0.86275 0.14628 0.0
C818 C 0.87261 0.871 0.19518 0.0
C819 C 0.89412 0.85386 0.19542 0.0
C820 C 0.90042 0.84035 0.17108 0.0
C821 C 0.88629 0.84473 0.14679 0.0
C822 C 0.93908 0.82585 0.25051 0.0
C823 C 0.94677 0.84825 0.26507 0.0
C824 C 0.9215 0.82749 0.22833 0.0
C825 C 0.91107 0.85152 0.22033 0.0
C826 C 0.9181 0.87374 0.23547 0.0
C827 C 0.9357 0.87214 0.25751 0.0
H828 H 0.17708 0.19289 0.67389 0.0
H829 H 0.12392 0.14213 0.62977 0.0
H830 H 0.14717 0.19282 0.71337 0.0
H831 H 0.09444 0.1418 0.66921 0.0
H832 H 0.06316 0.12301 0.7541 0.0
H833 H 0.09457 0.12469 0.71642 0.0
H834 H 0.10206 0.20734 0.72745 0.0
H835 H 0.07063 0.20575 0.76555 0.0
C836 C 0.15897 0.18188 0.6725 0.0
C837 C 0.15308 0.16731 0.64869 0.0
C838 C 0.14186 0.18182 0.69515 0.0
C839 C 0.11856 0.16709 0.69454 0.0
C840 C 0.1125 0.1529 0.67058 0.0
C841 C 0.12947 0.15307 0.64796 0.0
C842 C 0.07154 0.1416 0.7487 0.0
C843 C 0.06414 0.16429 0.76286 0.0
C844 C 0.08947 0.14254 0.72693 0.0
C845 C 0.10061 0.16618 0.71874 0.0
C846 C 0.0939 0.1888 0.73335 0.0
C847 C 0.07579 0.1879 0.75512 0.0
H848 H 0.12377 0.90526 0.14491 0.0
H849 H 0.15719 0.82854 0.14934 0.0
H850 H 0.10003 0.89781 0.18747 0.0
H851 H 0.13331 0.82103 0.19238 0.0
H852 H 0.05969 0.81005 0.24967 0.0
H853 H 0.08857 0.81503 0.20981 0.0
H854 H 0.10701 0.89301 0.236 0.0
H855 H 0.07776 0.88831 0.27525 0.0
C856 C 0.12641 0.88692 0.15523 0.0
C857 C 0.14262 0.8676 0.14381 0.0
C858 C 0.11278 0.88263 0.17971 0.0
C859 C 0.11494 0.8589 0.19357 0.0
C860 C 0.13106 0.83947 0.18215 0.0
C861 C 0.14475 0.84377 0.15751 0.0
C862 C 0.0702 0.82812 0.24712 0.0
C863 C 0.06609 0.8489 0.26546 0.0
C864 C 0.08683 0.83096 0.22429 0.0
C865 C 0.09979 0.85458 0.21942 0.0
C866 C 0.09681 0.87478 0.23869 0.0
C867 C 0.08012 0.87202 0.26132 0.0
H868 H 0.82793 0.14796 0.67681 0.0
H869 H 0.8861 0.19109 0.63122 0.0
H870 H 0.85677 0.14846 0.71723 0.0
H871 H 0.91498 0.19138 0.67145 0.0
H872 H 0.94989 0.20703 0.75659 0.0
H873 H 0.91758 0.2094 0.71944 0.0
H874 H 0.90019 0.12821 0.72943 0.0
H875 H 0.93241 0.12573 0.76659 0.0
C876 C 0.84675 0.15776 0.67553 0.0
C877 C 0.85479 0.16942 0.65082 0.0
C878 C 0.86334 0.15787 0.69858 0.0
C879 C 0.88815 0.16993 0.69751 0.0
C880 C 0.89589 0.18213 0.67301 0.0
C881 C 0.87946 0.18176 0.64989 0.0
C882 C 0.93902 0.18972 0.75109 0.0
C883 C 0.9439 0.16615 0.76453 0.0
C884 C 0.92061 0.19107 0.72968 0.0
C885 C 0.90642 0.16897 0.72144 0.0
C886 C 0.91066 0.14562 0.73544 0.0
C887 C 0.92926 0.14418 0.75664 0.0
loop_
_geom_bond_atom_site_label_1
_geom_bond_atom_site_label_2
_geom_bond_distance
_geom_bond_site_symmetry_2
_ccdc_geom_bond_type
C0 C1 1.264 . S
C0 C5 1.479 . S
C0 C10 1.465 . S
C1 C0 1.264 . S
C1 C3 1.339 . S
C1 H28 0.947 . S
C2 C3 1.395 . S
C2 C4 1.320 . S
C3 C1 1.339 . S
C3 C2 1.395 . S
C3 H29 0.929 . S
C4 C2 1.320 . S
C4 C5 1.405 . S
C4 H30 0.930 . S
C5 C0 1.479 . S
C5 C4 1.405 . S
C5 H31 0.931 . S
U6 O7 2.454 1_554 S
U6 O8 2.458 . S
U6 C9 2.984 1_554 S
U6 C10 2.847 1_554 S
U6 C23 2.882 . S
U6 O24 2.441 1_554 S
U6 O25 2.420 . S
U6 O26 2.455 . S
U6 O27 2.449 . S
O7 U6 2.454 1_556 S
O7 C9 1.353 . S
O8 U6 2.458 . S
O8 C9 1.286 1_554 S
C9 U6 2.984 1_556 S
C9 O7 1.353 . S
C9 O8 1.286 1_556 S
C9 C11 1.363 . S
C10 C0 1.465 . S
C10 U6 2.847 1_556 S
C10 O24 1.249 . S
C10 O25 1.202 1_556 S
C11 C9 1.363 . S
C11 C13 1.408 . S
C11 C16 1.342 . S
C12 C13 1.310 . S
C12 C15 1.461 . S
C12 H32 0.932 . S
C13 C11 1.408 . S
C13 C12 1.310 . S
C13 H33 0.930 . S
C14 C15 1.474 . S
C14 C16 1.285 . S
C14 H34 0.929 . S
C15 C12 1.461 . S
C15 C14 1.474 . S
C16 C11 1.342 . S
C16 C14 1.285 . S
C16 H35 0.930 1_556 S
C17 C20 1.424 . S
C17 C22 1.245 . S
C17 C23 1.428 . S
C18 C21 1.260 . S
C18 C22 1.477 . S
C18 H36 0.932 . S
C19 C20 1.384 . S
C19 C21 1.479 . S
C19 H37 0.929 . S
C20 C17 1.424 . S
C20 C19 1.384 . S
C20 H38 0.928 . S
C21 C18 1.260 . S
C21 C19 1.479 . S
C22 C17 1.245 . S
C22 C18 1.477 . S
C22 H39 0.932 . S
C23 U6 2.882 . S
C23 C17 1.428 . S
C23 O26 1.301 . S
C23 O27 1.282 . S
O24 U6 2.441 1_556 S
O24 C10 1.249 . S
O25 U6 2.420 . S
O25 C10 1.202 1_554 S
O26 U6 2.455 . S
O26 C23 1.301 . S
O27 U6 2.449 . S
O27 C23 1.282 . S
H28 C1 0.947 . S
H29 C3 0.929 . S
H30 C4 0.930 . S
H31 C5 0.931 . S
H32 C12 0.932 . S
H33 C13 0.930 . S
H34 C14 0.929 . S
H35 C16 0.930 1_554 S
H36 C18 0.932 . S
H37 C19 0.929 . S
H38 C20 0.928 . S
H39 C22 0.932 . S
C40 C41 1.264 . S
C40 C45 1.479 . S
C40 C50 1.465 . S
C41 C40 1.264 . S
C41 C43 1.339 . S
C41 H68 0.931 . S
C42 C43 1.395 . S
C42 C44 1.320 . S
C43 C41 1.339 . S
C43 C42 1.395 . S
C43 H69 0.929 . S
C44 C42 1.320 . S
C44 C45 1.405 . S
C44 H70 0.930 . S
C45 C40 1.479 . S
C45 C44 1.405 . S
C45 H71 0.931 . S
U46 O47 2.454 . S
U46 O48 2.458 . S
U46 C49 2.984 . S
U46 C50 2.847 . S
U46 C63 2.882 . S
U46 O64 2.441 . S
U46 O65 2.420 . S
U46 O66 2.455 . S
U46 O67 2.449 . S
O47 U46 2.454 . S
O47 C49 1.353 . S
O48 U46 2.458 . S
O48 C49 1.286 . S
C49 U46 2.984 . S
C49 O47 1.353 . S
C49 O48 1.286 . S
C49 C51 1.363 . S
C50 C40 1.465 . S
C50 U46 2.847 . S
C50 O64 1.249 . S
C50 O65 1.202 . S
C51 C49 1.363 . S
C51 C53 1.408 . S
C51 C56 1.342 . S
C52 C53 1.310 . S
C52 C55 1.461 . S
C52 H72 0.932 . S
C53 C51 1.408 . S
C53 C52 1.310 . S
C53 H73 0.930 . S
C54 C55 1.474 . S
C54 C56 1.285 . S
C54 H74 0.929 . S
C55 C52 1.461 . S
C55 C54 1.474 . S
C56 C51 1.342 . S
C56 C54 1.285 . S
C56 H75 0.930 . S
C57 C60 1.424 . S
C57 C62 1.245 . S
C57 C63 1.428 . S
C58 C61 1.260 . S
C58 C62 1.477 . S
C58 H76 0.932 . S
C59 C60 1.384 . S
C59 C61 1.479 . S
C59 H77 0.929 . S
C60 C57 1.424 . S
C60 C59 1.384 . S
C60 H78 0.928 . S
C61 C58 1.260 . S
C61 C59 1.479 . S
C62 C57 1.245 . S
C62 C58 1.477 . S
C62 H79 0.932 . S
C63 U46 2.882 . S
C63 C57 1.428 . S
C63 O66 1.301 . S
C63 O67 1.282 . S
O64 U46 2.441 . S
O64 C50 1.249 . S
O65 U46 2.420 . S
O65 C50 1.202 . S
O66 U46 2.455 . S
O66 C63 1.301 . S
O67 U46 2.449 . S
O67 C63 1.282 . S
H68 C41 0.931 . S
H69 C43 0.929 . S
H70 C44 0.930 . S
H71 C45 0.931 . S
H72 C52 0.932 . S
H73 C53 0.930 . S
H74 C54 0.929 . S
H75 C56 0.930 . S
H76 C58 0.932 . S
H77 C59 0.929 . S
H78 C60 0.928 . S
H79 C62 0.932 . S
C80 C81 1.264 . S
C80 C85 1.479 . S
C80 C90 1.465 . S
C81 C80 1.264 . S
C81 C83 1.339 . S
C81 H108 0.931 . S
C82 C83 1.395 . S
C82 C84 1.320 . S
C83 C81 1.339 . S
C83 C82 1.395 . S
C83 H109 0.929 . S
C84 C82 1.320 . S
C84 C85 1.405 . S
C84 H110 0.930 . S
C85 C80 1.479 . S
C85 C84 1.405 . S
C85 H111 0.931 . S
U86 O87 2.432 1_554 S
U86 O88 2.462 . S
U86 C89 2.974 1_554 S
U86 C90 2.827 1_554 S
U86 C103 2.915 . S
U86 O104 2.412 1_554 S
U86 O105 2.411 1_554 S
U86 O106 2.486 . S
U86 O107 2.475 . S
O87 U86 2.432 1_556 S
O87 C89 1.353 . S
O88 U86 2.462 . S
O88 C89 1.286 1_554 S
C89 U86 2.974 1_556 S
C89 O87 1.353 . S
C89 O88 1.286 1_556 S
C89 C91 1.363 . S
C90 C80 1.465 . S
C90 U86 2.827 1_556 S
C90 O104 1.249 . S
C90 O105 1.202 . S
C91 C89 1.363 . S
C91 C93 1.408 . S
C91 C96 1.342 . S
C92 C93 1.310 . S
C92 C95 1.461 . S
C92 H112 0.932 . S
C93 C91 1.408 . S
C93 C92 1.310 . S
C93 H113 0.930 . S
C94 C95 1.474 . S
C94 C96 1.285 . S
C94 H114 0.929 . S
C95 C92 1.461 . S
C95 C94 1.474 . S
C96 C91 1.342 . S
C96 C94 1.285 . S
C96 H115 0.930 1_556 S
C97 C100 1.424 . S
C97 C102 1.245 . S
C97 C103 1.428 . S
C98 C101 1.260 . S
C98 C102 1.477 . S
C98 H116 0.932 . S
C99 C100 1.384 . S
C99 C101 1.479 . S
C99 H117 0.929 . S
C100 C97 1.424 . S
C100 C99 1.384 . S
C100 H118 0.928 . S
C101 C98 1.260 . S
C101 C99 1.479 . S
C102 C97 1.245 . S
C102 C98 1.477 . S
C102 H119 0.932 . S
C103 U86 2.915 . S
C103 C97 1.428 . S
C103 O106 1.301 . S
C103 O107 1.282 . S
O104 U86 2.412 1_556 S
O104 C90 1.249 . S
O105 U86 2.411 1_556 S
O105 C90 1.202 . S
O106 U86 2.486 . S
O106 C103 1.301 . S
O107 U86 2.475 . S
O107 C103 1.282 . S
H108 C81 0.931 . S
H109 C83 0.929 . S
H110 C84 0.930 . S
H111 C85 0.931 . S
H112 C92 0.932 . S
H113 C93 0.930 . S
H114 C94 0.929 . S
H115 C96 0.930 1_554 S
H116 C98 0.932 . S
H117 C99 0.929 . S
H118 C100 0.928 . S
H119 C102 0.932 . S
C120 C121 1.264 . S
C120 C125 1.479 . S
C120 C130 1.465 . S
C121 C120 1.264 . S
C121 C123 1.339 . S
C121 H148 0.931 . S
C122 C123 1.395 . S
C122 C124 1.320 . S
C123 C121 1.339 . S
C123 C122 1.395 . S
C123 H149 0.929 . S
C124 C122 1.320 . S
C124 C125 1.405 . S
C124 H150 0.930 . S
C125 C120 1.479 . S
C125 C124 1.405 . S
C125 H151 0.931 . S
U126 O127 2.454 . S
U126 O128 2.458 . S
U126 C129 2.984 . S
U126 C130 2.847 . S
U126 C143 2.882 . S
U126 O144 2.441 . S
U126 O145 2.420 . S
U126 O146 2.455 . S
U126 O147 2.449 . S
O127 U126 2.454 . S
O127 C129 1.353 . S
O128 U126 2.458 . S
O128 C129 1.286 . S
C129 U126 2.984 . S
C129 O127 1.353 . S
C129 O128 1.286 . S
C129 C131 1.363 . S
C130 C120 1.465 . S
C130 U126 2.847 . S
C130 O144 1.249 . S
C130 O145 1.202 . S
C131 C129 1.363 . S
C131 C133 1.408 . S
C131 C136 1.342 . S
C132 C133 1.310 . S
C132 C135 1.461 . S
C132 H152 0.932 . S
C133 C131 1.408 . S
C133 C132 1.310 . S
C133 H153 0.930 . S
C134 C135 1.474 . S
C134 C136 1.285 . S
C134 H154 0.929 . S
C135 C132 1.461 . S
C135 C134 1.474 . S
C136 C131 1.342 . S
C136 C134 1.285 . S
C136 H155 0.930 . S
C137 C140 1.424 . S
C137 C142 1.245 . S
C137 C143 1.428 . S
C138 C141 1.260 . S
C138 C142 1.477 . S
C138 H156 0.932 . S
C139 C140 1.384 . S
C139 C141 1.479 . S
C139 H157 0.929 . S
C140 C137 1.424 . S
C140 C139 1.384 . S
C140 H158 0.928 . S
C141 C138 1.260 . S
C141 C139 1.479 . S
C142 C137 1.245 . S
C142 C138 1.477 . S
C142 H159 0.932 . S
C143 U126 2.882 . S
C143 C137 1.428 . S
C143 O146 1.301 . S
C143 O147 1.282 . S
O144 U126 2.441 . S
O144 C130 1.249 . S
O145 U126 2.420 . S
O145 C130 1.202 . S
O146 U126 2.455 . S
O146 C143 1.301 . S
O147 U126 2.449 . S
O147 C143 1.282 . S
H148 C121 0.931 . S
H149 C123 0.929 . S
H150 C124 0.930 . S
H151 C125 0.931 . S
H152 C132 0.932 . S
H153 C133 0.930 . S
H154 C134 0.929 . S
H155 C136 0.930 . S
H156 C138 0.932 . S
H157 C139 0.929 . S
H158 C140 0.928 . S
H159 C142 0.932 . S
C160 C161 1.264 . S
C160 C165 1.479 . S
C160 C170 1.465 . S
C161 C160 1.264 . S
C161 C163 1.339 1_565 S
C161 H188 0.947 . S
C162 C163 1.395 . S
C162 C164 1.320 . S
C163 C161 1.339 1_545 S
C163 C162 1.395 . S
C163 H189 0.929 . S
C164 C162 1.320 . S
C164 C165 1.405 1_545 S
C164 H190 0.930 . S
C165 C160 1.479 . S
C165 C164 1.405 1_565 S
C165 H191 0.931 . S
U166 O167 2.454 1_554 S
U166 O168 2.458 . S
U166 C169 2.984 1_554 S
U166 C170 2.847 1_554 S
U166 C183 2.882 . S
U166 O184 2.441 1_554 S
U166 O185 2.420 . S
U166 O186 2.455 . S
U166 O187 2.449 . S
O167 U166 2.454 1_556 S
O167 C169 1.353 . S
O168 U166 2.458 . S
O168 C169 1.286 1_554 S
C169 U166 2.984 1_556 S
C169 O167 1.353 . S
C169 O168 1.286 1_556 S
C169 C171 1.363 . S
C170 C160 1.465 . S
C170 U166 2.847 1_556 S
C170 O184 1.249 . S
C170 O185 1.202 1_556 S
C171 C169 1.363 . S
C171 C173 1.408 . S
C171 C176 1.342 . S
C172 C173 1.310 . S
C172 C175 1.461 . S
C172 H192 0.932 . S
C173 C171 1.408 . S
C173 C172 1.310 . S
C173 H193 0.930 . S
C174 C175 1.474 . S
C174 C176 1.285 . S
C174 H194 0.929 . S
C175 C172 1.461 . S
C175 C174 1.474 . S
C176 C171 1.342 . S
C176 C174 1.285 . S
C176 H195 0.930 1_556 S
C177 C180 1.424 . S
C177 C182 1.245 . S
C177 C183 1.428 . S
C178 C181 1.260 . S
C178 C182 1.477 . S
C178 H196 0.932 . S
C179 C180 1.384 . S
C179 C181 1.479 . S
C179 H197 0.929 . S
C180 C177 1.424 . S
C180 C179 1.384 . S
C180 H198 0.928 . S
C181 C178 1.260 . S
C181 C179 1.479 . S
C182 C177 1.245 . S
C182 C178 1.477 . S
C182 H199 0.932 . S
C183 U166 2.882 . S
C183 C177 1.428 . S
C183 O186 1.301 . S
C183 O187 1.282 . S
O184 U166 2.441 1_556 S
O184 C170 1.249 . S
O185 U166 2.420 . S
O185 C170 1.202 1_554 S
O186 U166 2.455 . S
O186 C183 1.301 . S
O187 U166 2.449 . S
O187 C183 1.282 . S
H188 C161 0.947 . S
H189 C163 0.929 . S
H190 C164 0.930 . S
H191 C165 0.931 . S
H192 C172 0.932 . S
H193 C173 0.930 . S
H194 C174 0.929 . S
H195 C176 0.930 1_554 S
H196 C178 0.932 . S
H197 C179 0.929 . S
H198 C180 0.928 . S
H199 C182 0.932 . S
C200 C201 1.264 . S
C200 C205 1.479 . S
C200 C210 1.465 . S
C201 C200 1.264 . S
C201 C203 1.339 . S
C201 H228 0.931 . S
C202 C203 1.395 . S
C202 C204 1.320 . S
C203 C201 1.339 . S
C203 C202 1.395 . S
C203 H229 0.929 . S
C204 C202 1.320 . S
C204 C205 1.405 . S
C204 H230 0.930 . S
C205 C200 1.479 . S
C205 C204 1.405 . S
C205 H231 0.931 . S
U206 O207 2.454 . S
U206 O208 2.458 . S
U206 C209 2.984 . S
U206 C210 2.847 . S
U206 C223 2.882 . S
U206 O224 2.441 . S
U206 O225 2.420 . S
U206 O226 2.455 . S
U206 O227 2.449 . S
O207 U206 2.454 . S
O207 C209 1.353 . S
O208 U206 2.458 . S
O208 C209 1.286 . S
C209 U206 2.984 . S
C209 O207 1.353 . S
C209 O208 1.286 . S
C209 C211 1.363 . S
C210 C200 1.465 . S
C210 U206 2.847 . S
C210 O224 1.249 . S
C210 O225 1.202 . S
C211 C209 1.363 . S
C211 C213 1.408 . S
C211 C216 1.342 . S
C212 C213 1.310 . S
C212 C215 1.461 . S
C212 H232 0.932 . S
C213 C211 1.408 . S
C213 C212 1.310 . S
C213 H233 0.930 . S
C214 C215 1.474 . S
C214 C216 1.285 . S
C214 H234 0.929 . S
C215 C212 1.461 . S
C215 C214 1.474 . S
C216 C211 1.342 . S
C216 C214 1.285 . S
C216 H235 0.930 . S
C217 C220 1.424 . S
C217 C222 1.245 . S
C217 C223 1.428 . S
C218 C221 1.260 1_545 S
C218 C222 1.477 . S
C218 H236 0.932 . S
C219 C220 1.384 . S
C219 C221 1.479 1_545 S
C219 H237 0.929 1_545 S
C220 C217 1.424 . S
C220 C219 1.384 . S
C220 H238 0.928 . S
C221 C218 1.260 1_565 S
C221 C219 1.479 1_565 S
C222 C217 1.245 . S
C222 C218 1.477 . S
C222 H239 0.932 . S
C223 U206 2.882 . S
C223 C217 1.428 . S
C223 O226 1.301 . S
C223 O227 1.282 . S
O224 U206 2.441 . S
O224 C210 1.249 . S
O225 U206 2.420 . S
O225 C210 1.202 . S
O226 U206 2.455 . S
O226 C223 1.301 . S
O227 U206 2.449 . S
O227 C223 1.282 . S
H228 C201 0.931 . S
H229 C203 0.929 . S
H230 C204 0.930 . S
H231 C205 0.931 . S
H232 C212 0.932 . S
H233 C213 0.930 . S
H234 C214 0.929 . S
H235 C216 0.930 . S
H236 C218 0.932 . S
H237 C219 0.929 1_565 S
H238 C220 0.928 . S
H239 C222 0.932 . S
C240 C241 1.264 . S
C240 C245 1.479 . S
C240 C250 1.465 . S
C241 C240 1.264 . S
C241 C243 1.339 . S
C241 H268 0.931 . S
C242 C243 1.395 1_545 S
C242 C244 1.320 1_545 S
C243 C241 1.339 . S
C243 C242 1.395 1_565 S
C243 H269 0.929 1_565 S
C244 C242 1.320 1_565 S
C244 C245 1.405 . S
C244 H270 0.930 1_565 S
C245 C240 1.479 . S
C245 C244 1.405 . S
C245 H271 0.931 . S
U246 O247 2.432 1_554 S
U246 O248 2.462 . S
U246 C249 2.974 1_554 S
U246 C250 2.827 1_554 S
U246 C263 2.915 . S
U246 O264 2.412 1_554 S
U246 O265 2.411 1_554 S
U246 O266 2.486 . S
U246 O267 2.475 . S
O247 U246 2.432 1_556 S
O247 C249 1.353 . S
O248 U246 2.462 . S
O248 C249 1.286 1_554 S
C249 U246 2.974 1_556 S
C249 O247 1.353 . S
C249 O248 1.286 1_556 S
C249 C251 1.363 . S
C250 C240 1.465 . S
C250 U246 2.827 1_556 S
C250 O264 1.249 . S
C250 O265 1.202 . S
C251 C249 1.363 . S
C251 C253 1.408 . S
C251 C256 1.342 . S
C252 C253 1.310 . S
C252 C255 1.461 . S
C252 H272 0.932 . S
C253 C251 1.408 . S
C253 C252 1.310 . S
C253 H273 0.930 . S
C254 C255 1.474 . S
C254 C256 1.285 . S
C254 H274 0.929 . S
C255 C252 1.461 . S
C255 C254 1.474 . S
C256 C251 1.342 . S
C256 C254 1.285 . S
C256 H275 0.930 1_556 S
C257 C260 1.424 . S
C257 C262 1.245 . S
C257 C263 1.428 . S
C258 C261 1.260 . S
C258 C262 1.477 . S
C258 H276 0.932 . S
C259 C260 1.384 . S
C259 C261 1.479 . S
C259 H277 0.929 . S
C260 C257 1.424 . S
C260 C259 1.384 . S
C260 H278 0.928 . S
C261 C258 1.260 . S
C261 C259 1.479 . S
C262 C257 1.245 . S
C262 C258 1.477 . S
C262 H279 0.932 . S
C263 U246 2.915 . S
C263 C257 1.428 . S
C263 O266 1.301 . S
C263 O267 1.282 . S
O264 U246 2.412 1_556 S
O264 C250 1.249 . S
O265 U246 2.411 1_556 S
O265 C250 1.202 . S
O266 U246 2.486 . S
O266 C263 1.301 . S
O267 U246 2.475 . S
O267 C263 1.282 . S
H268 C241 0.931 . S
H269 C243 0.929 1_545 S
H270 C244 0.930 1_545 S
H271 C245 0.931 . S
H272 C252 0.932 . S
H273 C253 0.930 . S
H274 C254 0.929 . S
H275 C256 0.930 1_554 S
H276 C258 0.932 . S
H277 C259 0.929 . S
H278 C260 0.928 . S
H279 C262 0.932 . S
C280 C281 1.264 . S
C280 C285 1.479 . S
C280 C290 1.465 . S
C281 C280 1.264 . S
C281 C283 1.339 . S
C281 H308 0.931 . S
C282 C283 1.395 . S
C282 C284 1.320 . S
C283 C281 1.339 . S
C283 C282 1.395 . S
C283 H309 0.929 . S
C284 C282 1.320 . S
C284 C285 1.405 . S
C284 H310 0.930 . S
C285 C280 1.479 . S
C285 C284 1.405 . S
C285 H311 0.931 . S
U286 O287 2.454 . S
U286 O288 2.458 . S
U286 C289 2.984 . S
U286 C290 2.847 . S
U286 C303 2.882 . S
U286 O304 2.441 . S
U286 O305 2.420 . S
U286 O306 2.455 . S
U286 O307 2.449 . S
O287 U286 2.454 . S
O287 C289 1.353 . S
O288 U286 2.458 . S
O288 C289 1.286 . S
C289 U286 2.984 . S
C289 O287 1.353 . S
C289 O288 1.286 . S
C289 C291 1.363 . S
C290 C280 1.465 . S
C290 U286 2.847 . S
C290 O304 1.249 . S
C290 O305 1.202 . S
C291 C289 1.363 . S
C291 C293 1.408 . S
C291 C296 1.342 . S
C292 C293 1.310 . S
C292 C295 1.461 . S
C292 H312 0.932 . S
C293 C291 1.408 . S
C293 C292 1.310 . S
C293 H313 0.930 . S
C294 C295 1.474 . S
C294 C296 1.285 . S
C294 H314 0.929 . S
C295 C292 1.461 . S
C295 C294 1.474 . S
C296 C291 1.342 . S
C296 C294 1.285 . S
C296 H315 0.930 . S
C297 C300 1.424 . S
C297 C302 1.245 . S
C297 C303 1.428 . S
C298 C301 1.259 1_545 S
C298 C302 1.478 . S
C298 H316 0.932 1_545 S
C299 C300 1.384 1_565 S
C299 C301 1.479 . S
C299 H317 0.929 . S
C300 C297 1.424 . S
C300 C299 1.384 1_545 S
C300 H318 0.928 . S
C301 C298 1.259 1_565 S
C301 C299 1.479 . S
C302 C297 1.245 . S
C302 C298 1.478 . S
C302 H319 0.932 . S
C303 U286 2.882 . S
C303 C297 1.428 . S
C303 O306 1.301 . S
C303 O307 1.282 . S
O304 U286 2.441 . S
O304 C290 1.249 . S
O305 U286 2.420 . S
O305 C290 1.202 . S
O306 U286 2.455 . S
O306 C303 1.301 . S
O307 U286 2.449 . S
O307 C303 1.282 . S
H308 C281 0.931 . S
H309 C283 0.929 . S
H310 C284 0.930 . S
H311 C285 0.931 . S
H312 C292 0.932 . S
H313 C293 0.930 . S
H314 C294 0.929 . S
H315 C296 0.930 . S
H316 C298 0.932 1_565 S
H317 C299 0.929 . S
H318 C300 0.928 . S
H319 C302 0.932 . S
Sc320 O323 2.025 . S
Sc320 O330 2.105 1_455 S
Sc320 O333 2.105 . S
Sc320 O336 2.105 . S
Sc320 O339 2.105 1_455 S
Sc321 O323 2.025 . S
Sc321 O331 2.105 1_455 S
Sc321 O335 2.105 . S
Sc321 O337 2.105 . S
Sc321 O341 2.105 1_455 S
Sc322 O323 2.025 . S
Sc322 O332 2.105 1_455 S
Sc322 O334 2.105 . S
Sc322 O338 2.105 . S
Sc322 O340 2.105 1_455 S
O323 Sc320 2.025 . S
O323 Sc321 2.025 . S
O323 Sc322 2.025 . S
C324 O330 1.268 . S
C324 O340 1.268 . S
C325 O331 1.268 . S
C325 O339 1.268 . S
C326 O332 1.268 . S
C326 O341 1.268 . S
C327 O333 1.268 . S
C327 O337 1.268 . S
C328 O334 1.268 . S
C328 O336 1.268 . S
C329 O335 1.268 . S
C329 O338 1.268 . S
O330 Sc320 2.105 1_655 S
O330 C324 1.268 . S
O331 Sc321 2.105 1_655 S
O331 C325 1.268 . S
O332 Sc322 2.105 1_655 S
O332 C326 1.268 . S
O333 Sc320 2.105 . S
O333 C327 1.268 . S
O334 Sc322 2.105 . S
O334 C328 1.268 . S
O335 Sc321 2.105 . S
O335 C329 1.268 . S
O336 Sc320 2.105 . S
O336 C328 1.268 . S
O337 Sc321 2.105 . S
O337 C327 1.268 . S
O338 Sc322 2.105 . S
O338 C329 1.268 . S
O339 Sc320 2.105 1_655 S
O339 C325 1.268 . S
O340 Sc322 2.105 1_655 S
O340 C324 1.268 . S
O341 Sc321 2.105 1_655 S
O341 C326 1.268 . S
Sc342 O345 2.025 . S
Sc342 O352 2.105 . S
Sc342 O355 2.105 1_455 S
Sc342 O358 2.105 1_455 S
Sc342 O361 2.105 . S
Sc343 O345 2.025 . S
Sc343 O353 2.105 . S
Sc343 O357 2.105 1_455 S
Sc343 O359 2.105 1_455 S
Sc343 O363 2.105 . S
Sc344 O345 2.025 . S
Sc344 O354 2.105 . S
Sc344 O356 2.105 1_455 S
Sc344 O360 2.105 1_455 S
Sc344 O362 2.105 . S
O345 Sc342 2.025 . S
O345 Sc343 2.025 . S
O345 Sc344 2.025 . S
C346 O352 1.268 . S
C346 O362 1.268 . S
C347 O353 1.268 . S
C347 O361 1.268 . S
C348 O354 1.268 . S
C348 O363 1.268 . S
C349 O355 1.268 . S
C349 O359 1.268 . S
C350 O356 1.268 . S
C350 O358 1.268 . S
C351 O357 1.268 . S
C351 O360 1.268 . S
O352 Sc342 2.105 . S
O352 C346 1.268 . S
O353 Sc343 2.105 . S
O353 C347 1.268 . S
O354 Sc344 2.105 . S
O354 C348 1.268 . S
O355 Sc342 2.105 1_655 S
O355 C349 1.268 . S
O356 Sc344 2.105 1_655 S
O356 C350 1.268 . S
O357 Sc343 2.105 1_655 S
O357 C351 1.268 . S
O358 Sc342 2.105 1_655 S
O358 C350 1.268 . S
O359 Sc343 2.105 1_655 S
O359 C349 1.268 . S
O360 Sc344 2.105 1_655 S
O360 C351 1.268 . S
O361 Sc342 2.105 . S
O361 C347 1.268 . S
O362 Sc344 2.105 . S
O362 C346 1.268 . S
O363 Sc343 2.105 . S
O363 C348 1.268 . S
Sc364 O367 2.025 . S
Sc364 O374 2.105 . S
Sc364 O377 2.105 . S
Sc364 O380 2.105 . S
Sc364 O383 2.105 . S
Sc365 O367 2.025 . S
Sc365 O375 2.105 . S
Sc365 O379 2.105 . S
Sc365 O381 2.105 . S
Sc365 O385 2.105 . S
Sc366 O367 2.025 . S
Sc366 O376 2.105 . S
Sc366 O378 2.105 . S
Sc366 O382 2.105 . S
Sc366 O384 2.105 . S
O367 Sc364 2.025 . S
O367 Sc365 2.025 . S
O367 Sc366 2.025 . S
C368 O374 1.268 . S
C368 O384 1.268 . S
C369 O375 1.268 . S
C369 O383 1.268 . S
C370 O376 1.268 . S
C370 O385 1.268 . S
C371 O377 1.268 . S
C371 O381 1.268 . S
C372 O378 1.268 . S
C372 O380 1.268 . S
C373 O379 1.268 . S
C373 O382 1.268 . S
O374 Sc364 2.105 . S
O374 C368 1.268 . S
O375 Sc365 2.105 . S
O375 C369 1.268 . S
O376 Sc366 2.105 . S
O376 C370 1.268 . S
O377 Sc364 2.105 . S
O377 C371 1.268 . S
O378 Sc366 2.105 . S
O378 C372 1.268 . S
O379 Sc365 2.105 . S
O379 C373 1.268 . S
O380 Sc364 2.105 . S
O380 C372 1.268 . S
O381 Sc365 2.105 . S
O381 C371 1.268 . S
O382 Sc366 2.105 . S
O382 C373 1.268 . S
O383 Sc364 2.105 . S
O383 C369 1.268 . S
O384 Sc366 2.105 . S
O384 C368 1.268 . S
O385 Sc365 2.105 . S
O385 C370 1.268 . S
Sc386 O389 2.025 . S
Sc386 O396 2.105 . S
Sc386 O399 2.105 . S
Sc386 O402 2.105 . S
Sc386 O405 2.105 . S
Sc387 O389 2.025 . S
Sc387 O397 2.105 . S
Sc387 O401 2.105 . S
Sc387 O403 2.105 . S
Sc387 O407 2.105 . S
Sc388 O389 2.025 . S
Sc388 O398 2.105 . S
Sc388 O400 2.105 . S
Sc388 O404 2.105 . S
Sc388 O406 2.105 . S
O389 Sc386 2.025 . S
O389 Sc387 2.025 . S
O389 Sc388 2.025 . S
C390 O396 1.268 . S
C390 O406 1.268 . S
C391 O397 1.268 . S
C391 O405 1.268 . S
C392 O398 1.268 . S
C392 O407 1.268 . S
C393 O399 1.268 . S
C393 O403 1.268 . S
C394 O400 1.268 . S
C394 O402 1.268 . S
C395 O401 1.268 . S
C395 O404 1.268 . S
O396 Sc386 2.105 . S
O396 C390 1.268 . S
O397 Sc387 2.105 . S
O397 C391 1.268 . S
O398 Sc388 2.105 . S
O398 C392 1.268 . S
O399 Sc386 2.105 . S
O399 C393 1.268 . S
O400 Sc388 2.105 . S
O400 C394 1.268 . S
O401 Sc387 2.105 . S
O401 C395 1.268 . S
O402 Sc386 2.105 . S
O402 C394 1.268 . S
O403 Sc387 2.105 . S
O403 C393 1.268 . S
O404 Sc388 2.105 . S
O404 C395 1.268 . S
O405 Sc386 2.105 . S
O405 C391 1.268 . S
O406 Sc388 2.105 . S
O406 C390 1.268 . S
O407 Sc387 2.105 . S
O407 C392 1.268 . S
H408 C416 0.950 . S
H409 C421 0.950 . S
H410 C418 0.950 . S
H411 C420 0.950 . S
H412 C422 0.950 . S
H413 C424 0.950 . S
H414 C426 0.950 . S
H415 C427 0.950 . S
C416 H408 0.950 . S
C416 C417 1.386 . S
C416 C418 1.391 . S
C417 C416 1.386 . S
C417 C421 1.393 . S
C418 H410 0.950 . S
C418 C416 1.391 . S
C418 C419 1.400 . S
C419 C418 1.400 . S
C419 C420 1.398 . S
C419 C425 1.491 . S
C420 H411 0.950 . S
C420 C419 1.398 . S
C420 C421 1.391 . S
C421 H409 0.950 . S
C421 C417 1.393 . S
C421 C420 1.391 . S
C422 H412 0.950 . S
C422 C423 1.386 . S
C422 C424 1.391 . S
C423 C422 1.386 . S
C423 C427 1.393 . S
C424 H413 0.950 . S
C424 C422 1.391 . S
C424 C425 1.400 . S
C425 C419 1.491 . S
C425 C424 1.400 . S
C425 C426 1.398 . S
C426 H414 0.950 . S
C426 C425 1.398 . S
C426 C427 1.391 . S
C427 H415 0.950 . S
C427 C423 1.393 . S
C427 C426 1.391 . S
H428 C436 0.950 . S
H429 C441 0.950 . S
H430 C438 0.950 . S
H431 C440 0.950 . S
H432 C442 0.950 . S
H433 C444 0.950 . S
H434 C446 0.950 . S
H435 C447 0.950 . S
C436 H428 0.950 . S
C436 C437 1.386 . S
C436 C438 1.391 . S
C437 C436 1.386 . S
C437 C441 1.393 . S
C438 H430 0.950 . S
C438 C436 1.391 . S
C438 C439 1.400 . S
C439 C438 1.400 . S
C439 C440 1.398 . S
C439 C445 1.491 . S
C440 H431 0.950 . S
C440 C439 1.398 . S
C440 C441 1.391 . S
C441 H429 0.950 . S
C441 C437 1.393 . S
C441 C440 1.391 . S
C442 H432 0.950 . S
C442 C443 1.386 . S
C442 C444 1.391 . S
C443 C442 1.386 . S
C443 C447 1.393 . S
C444 H433 0.950 . S
C444 C442 1.391 . S
C444 C445 1.400 . S
C445 C439 1.491 . S
C445 C444 1.400 . S
C445 C446 1.398 . S
C446 H434 0.950 . S
C446 C445 1.398 . S
C446 C447 1.391 . S
C447 H435 0.950 . S
C447 C443 1.393 . S
C447 C446 1.391 . S
H448 C456 0.950 . S
H449 C461 0.950 . S
H450 C458 0.950 . S
H451 C460 0.950 . S
H452 C462 0.950 . S
H453 C464 0.950 . S
H454 C466 0.950 . S
H455 C467 0.950 . S
C456 H448 0.950 . S
C456 C457 1.386 . S
C456 C458 1.391 . S
C457 C456 1.386 . S
C457 C461 1.393 . S
C458 H450 0.950 . S
C458 C456 1.391 . S
C458 C459 1.400 . S
C459 C458 1.400 . S
C459 C460 1.398 . S
C459 C465 1.491 . S
C460 H451 0.950 . S
C460 C459 1.398 . S
C460 C461 1.391 . S
C461 H449 0.950 . S
C461 C457 1.393 . S
C461 C460 1.391 . S
C462 H452 0.950 . S
C462 C463 1.386 . S
C462 C464 1.391 . S
C463 C462 1.386 . S
C463 C467 1.393 . S
C464 H453 0.950 . S
C464 C462 1.391 . S
C464 C465 1.400 . S
C465 C459 1.491 . S
C465 C464 1.400 . S
C465 C466 1.398 . S
C466 H454 0.950 . S
C466 C465 1.398 . S
C466 C467 1.391 . S
C467 H455 0.950 . S
C467 C463 1.393 . S
C467 C466 1.391 . S
H468 C476 0.950 . S
H469 C481 0.950 . S
H470 C478 0.950 . S
H471 C480 0.950 . S
H472 C482 0.950 . S
H473 C484 0.950 . S
H474 C486 0.950 . S
H475 C487 0.950 . S
C476 H468 0.950 . S
C476 C477 1.386 . S
C476 C478 1.391 . S
C477 C476 1.386 . S
C477 C481 1.393 . S
C478 H470 0.950 . S
C478 C476 1.391 . S
C478 C479 1.400 . S
C479 C478 1.400 . S
C479 C480 1.398 . S
C479 C485 1.491 . S
C480 H471 0.950 . S
C480 C479 1.398 . S
C480 C481 1.391 . S
C481 H469 0.950 . S
C481 C477 1.393 . S
C481 C480 1.391 . S
C482 H472 0.950 . S
C482 C483 1.386 . S
C482 C484 1.391 . S
C483 C482 1.386 . S
C483 C487 1.393 . S
C484 H473 0.950 . S
C484 C482 1.391 . S
C484 C485 1.400 . S
C485 C479 1.491 . S
C485 C484 1.400 . S
C485 C486 1.398 . S
C486 H474 0.950 . S
C486 C485 1.398 . S
C486 C487 1.391 . S
C487 H475 0.950 . S
C487 C483 1.393 . S
C487 C486 1.391 . S
H488 C496 0.950 . S
H489 C501 0.950 . S
H490 C498 0.950 . S
H491 C500 0.950 . S
H492 C502 0.950 . S
H493 C504 0.950 . S
H494 C506 0.950 . S
H495 C507 0.950 . S
C496 H488 0.950 . S
C496 C497 1.386 . S
C496 C498 1.391 . S
C497 C496 1.386 . S
C497 C501 1.393 . S
C498 H490 0.950 . S
C498 C496 1.391 . S
C498 C499 1.400 . S
C499 C498 1.400 . S
C499 C500 1.398 . S
C499 C505 1.491 . S
C500 H491 0.950 . S
C500 C499 1.398 . S
C500 C501 1.391 . S
C501 H489 0.950 . S
C501 C497 1.393 . S
C501 C500 1.391 . S
C502 H492 0.950 . S
C502 C503 1.386 . S
C502 C504 1.391 . S
C503 C502 1.386 . S
C503 C507 1.393 . S
C504 H493 0.950 . S
C504 C502 1.391 . S
C504 C505 1.400 . S
C505 C499 1.491 . S
C505 C504 1.400 . S
C505 C506 1.398 . S
C506 H494 0.950 . S
C506 C505 1.398 . S
C506 C507 1.391 . S
C507 H495 0.950 . S
C507 C503 1.393 . S
C507 C506 1.391 . S
H508 C516 0.950 . S
H509 C521 0.950 . S
H510 C518 0.950 . S
H511 C520 0.950 . S
H512 C522 0.950 . S
H513 C524 0.950 . S
H514 C526 0.950 . S
H515 C527 0.950 . S
C516 H508 0.950 . S
C516 C517 1.386 . S
C516 C518 1.391 . S
C517 C516 1.386 . S
C517 C521 1.393 . S
C518 H510 0.950 . S
C518 C516 1.391 . S
C518 C519 1.400 . S
C519 C518 1.400 . S
C519 C520 1.398 . S
C519 C525 1.491 . S
C520 H511 0.950 . S
C520 C519 1.398 . S
C520 C521 1.391 . S
C521 H509 0.950 . S
C521 C517 1.393 . S
C521 C520 1.391 . S
C522 H512 0.950 . S
C522 C523 1.386 . S
C522 C524 1.391 . S
C523 C522 1.386 . S
C523 C527 1.393 . S
C524 H513 0.950 . S
C524 C522 1.391 . S
C524 C525 1.400 . S
C525 C519 1.491 . S
C525 C524 1.400 . S
C525 C526 1.398 . S
C526 H514 0.950 . S
C526 C525 1.398 . S
C526 C527 1.391 . S
C527 H515 0.950 . S
C527 C523 1.393 . S
C527 C526 1.391 . S
H528 C536 0.950 . S
H529 C541 0.950 . S
H530 C538 0.950 . S
H531 C540 0.950 . S
H532 C542 0.950 . S
H533 C544 0.950 . S
H534 C546 0.950 . S
H535 C547 0.950 . S
C536 H528 0.950 . S
C536 C537 1.386 . S
C536 C538 1.391 . S
C537 C536 1.386 . S
C537 C541 1.393 . S
C538 H530 0.950 . S
C538 C536 1.391 . S
C538 C539 1.400 . S
C539 C538 1.400 . S
C539 C540 1.398 . S
C539 C545 1.491 . S
C540 H531 0.950 . S
C540 C539 1.398 . S
C540 C541 1.391 . S
C541 H529 0.950 . S
C541 C537 1.393 . S
C541 C540 1.391 . S
C542 H532 0.950 . S
C542 C543 1.386 . S
C542 C544 1.391 . S
C543 C542 1.386 . S
C543 C547 1.393 . S
C544 H533 0.950 . S
C544 C542 1.391 . S
C544 C545 1.400 . S
C545 C539 1.491 . S
C545 C544 1.400 . S
C545 C546 1.398 . S
C546 H534 0.950 . S
C546 C545 1.398 . S
C546 C547 1.391 . S
C547 H535 0.950 . S
C547 C543 1.393 . S
C547 C546 1.391 . S
H548 C556 0.950 . S
H549 C561 0.950 . S
H550 C558 0.950 . S
H551 C560 0.950 . S
H552 C562 0.950 . S
H553 C564 0.950 . S
H554 C566 0.950 . S
H555 C567 0.950 . S
C556 H548 0.950 . S
C556 C557 1.386 . S
C556 C558 1.391 . S
C557 C556 1.386 . S
C557 C561 1.393 . S
C558 H550 0.950 . S
C558 C556 1.391 . S
C558 C559 1.400 . S
C559 C558 1.400 . S
C559 C560 1.398 . S
C559 C565 1.491 . S
C560 H551 0.950 . S
C560 C559 1.398 . S
C560 C561 1.391 . S
C561 H549 0.950 . S
C561 C557 1.393 . S
C561 C560 1.391 . S
C562 H552 0.950 . S
C562 C563 1.386 . S
C562 C564 1.391 . S
C563 C562 1.386 . S
C563 C567 1.393 . S
C564 H553 0.950 . S
C564 C562 1.391 . S
C564 C565 1.400 . S
C565 C559 1.491 . S
C565 C564 1.400 . S
C565 C566 1.398 . S
C566 H554 0.950 . S
C566 C565 1.398 . S
C566 C567 1.391 . S
C567 H555 0.950 . S
C567 C563 1.393 . S
C567 C566 1.391 . S
H568 C576 0.950 . S
H569 C581 0.950 . S
H570 C578 0.950 . S
H571 C580 0.950 . S
H572 C582 0.950 . S
H573 C584 0.950 . S
H574 C586 0.950 . S
H575 C587 0.950 . S
C576 H568 0.950 . S
C576 C577 1.386 . S
C576 C578 1.391 . S
C577 C576 1.386 . S
C577 C581 1.393 . S
C578 H570 0.950 . S
C578 C576 1.391 . S
C578 C579 1.400 . S
C579 C578 1.400 . S
C579 C580 1.398 . S
C579 C585 1.491 . S
C580 H571 0.950 . S
C580 C579 1.398 . S
C580 C581 1.391 . S
C581 H569 0.950 . S
C581 C577 1.393 . S
C581 C580 1.391 . S
C582 H572 0.950 . S
C582 C583 1.386 . S
C582 C584 1.391 . S
C583 C582 1.386 . S
C583 C587 1.393 . S
C584 H573 0.950 . S
C584 C582 1.391 . S
C584 C585 1.400 . S
C585 C579 1.491 . S
C585 C584 1.400 . S
C585 C586 1.398 . S
C586 H574 0.950 . S
C586 C585 1.398 . S
C586 C587 1.391 . S
C587 H575 0.950 . S
C587 C583 1.393 . S
C587 C586 1.391 . S
H588 C596 0.950 . S
H589 C601 0.950 . S
H590 C598 0.950 . S
H591 C600 0.950 . S
H592 C602 0.950 . S
H593 C604 0.950 . S
H594 C606 0.950 . S
H595 C607 0.950 . S
C596 H588 0.950 . S
C596 C597 1.386 . S
C596 C598 1.391 . S
C597 C596 1.386 . S
C597 C601 1.393 . S
C598 H590 0.950 . S
C598 C596 1.391 . S
C598 C599 1.400 . S
C599 C598 1.400 . S
C599 C600 1.398 . S
C599 C605 1.491 . S
C600 H591 0.950 . S
C600 C599 1.398 . S
C600 C601 1.391 . S
C601 H589 0.950 . S
C601 C597 1.393 . S
C601 C600 1.391 . S
C602 H592 0.950 . S
C602 C603 1.386 . S
C602 C604 1.391 . S
C603 C602 1.386 . S
C603 C607 1.393 . S
C604 H593 0.950 . S
C604 C602 1.391 . S
C604 C605 1.400 . S
C605 C599 1.491 . S
C605 C604 1.400 . S
C605 C606 1.398 . S
C606 H594 0.950 . S
C606 C605 1.398 . S
C606 C607 1.391 . S
C607 H595 0.950 . S
C607 C603 1.393 . S
C607 C606 1.391 . S
H608 C616 0.950 . S
H609 C621 0.950 . S
H610 C618 0.950 . S
H611 C620 0.950 . S
H612 C622 0.950 . S
H613 C624 0.950 . S
H614 C626 0.950 . S
H615 C627 0.950 . S
C616 H608 0.950 . S
C616 C617 1.386 . S
C616 C618 1.391 . S
C617 C616 1.386 . S
C617 C621 1.393 . S
C618 H610 0.950 . S
C618 C616 1.391 . S
C618 C619 1.400 . S
C619 C618 1.400 . S
C619 C620 1.398 . S
C619 C625 1.491 . S
C620 H611 0.950 . S
C620 C619 1.398 . S
C620 C621 1.391 . S
C621 H609 0.950 . S
C621 C617 1.393 . S
C621 C620 1.391 . S
C622 H612 0.950 . S
C622 C623 1.386 . S
C622 C624 1.391 . S
C623 C622 1.386 . S
C623 C627 1.393 . S
C624 H613 0.950 . S
C624 C622 1.391 . S
C624 C625 1.400 . S
C625 C619 1.491 . S
C625 C624 1.400 . S
C625 C626 1.398 . S
C626 H614 0.950 . S
C626 C625 1.398 . S
C626 C627 1.391 . S
C627 H615 0.950 . S
C627 C623 1.393 . S
C627 C626 1.391 . S
H628 C636 0.950 . S
H629 C641 0.950 . S
H630 C638 0.950 . S
H631 C640 0.950 . S
H632 C642 0.950 . S
H633 C644 0.950 . S
H634 C646 0.950 . S
H635 C647 0.950 . S
C636 H628 0.950 . S
C636 C637 1.386 . S
C636 C638 1.391 . S
C637 C636 1.386 . S
C637 C641 1.393 . S
C638 H630 0.950 . S
C638 C636 1.391 . S
C638 C639 1.400 . S
C639 C638 1.400 . S
C639 C640 1.398 . S
C639 C645 1.491 . S
C640 H631 0.950 . S
C640 C639 1.398 . S
C640 C641 1.391 . S
C641 H629 0.950 . S
C641 C637 1.393 . S
C641 C640 1.391 . S
C642 H632 0.950 . S
C642 C643 1.386 . S
C642 C644 1.391 . S
C643 C642 1.386 . S
C643 C647 1.393 . S
C644 H633 0.950 . S
C644 C642 1.391 . S
C644 C645 1.400 . S
C645 C639 1.491 . S
C645 C644 1.400 . S
C645 C646 1.398 . S
C646 H634 0.950 . S
C646 C645 1.398 . S
C646 C647 1.391 . S
C647 H635 0.950 . S
C647 C643 1.393 . S
C647 C646 1.391 . S
H648 C656 0.950 . S
H649 C661 0.950 . S
H650 C658 0.950 . S
H651 C660 0.950 . S
H652 C662 0.950 . S
H653 C664 0.950 . S
H654 C666 0.950 . S
H655 C667 0.950 . S
C656 H648 0.950 . S
C656 C657 1.386 . S
C656 C658 1.391 . S
C657 C656 1.386 . S
C657 C661 1.393 . S
C658 H650 0.950 . S
C658 C656 1.391 . S
C658 C659 1.400 . S
C659 C658 1.400 . S
C659 C660 1.398 . S
C659 C665 1.491 . S
C660 H651 0.950 . S
C660 C659 1.398 . S
C660 C661 1.391 . S
C661 H649 0.950 . S
C661 C657 1.393 . S
C661 C660 1.391 . S
C662 H652 0.950 . S
C662 C663 1.386 . S
C662 C664 1.391 . S
C663 C662 1.386 . S
C663 C667 1.393 . S
C664 H653 0.950 . S
C664 C662 1.391 . S
C664 C665 1.400 . S
C665 C659 1.491 . S
C665 C664 1.400 . S
C665 C666 1.398 . S
C666 H654 0.950 . S
C666 C665 1.398 . S
C666 C667 1.391 . S
C667 H655 0.950 . S
C667 C663 1.393 . S
C667 C666 1.391 . S
H668 C676 0.950 . S
H669 C681 0.950 . S
H670 C678 0.950 . S
H671 C680 0.950 . S
H672 C682 0.950 . S
H673 C684 0.950 . S
H674 C686 0.950 . S
H675 C687 0.950 . S
C676 H668 0.950 . S
C676 C677 1.386 . S
C676 C678 1.391 . S
C677 C676 1.386 . S
C677 C681 1.393 . S
C678 H670 0.950 . S
C678 C676 1.391 . S
C678 C679 1.400 . S
C679 C678 1.400 . S
C679 C680 1.398 . S
C679 C685 1.491 . S
C680 H671 0.950 . S
C680 C679 1.398 . S
C680 C681 1.391 . S
C681 H669 0.950 . S
C681 C677 1.393 . S
C681 C680 1.391 . S
C682 H672 0.950 . S
C682 C683 1.386 . S
C682 C684 1.391 . S
C683 C682 1.386 . S
C683 C687 1.393 . S
C684 H673 0.950 . S
C684 C682 1.391 . S
C684 C685 1.400 . S
C685 C679 1.491 . S
C685 C684 1.400 . S
C685 C686 1.398 . S
C686 H674 0.950 . S
C686 C685 1.398 . S
C686 C687 1.391 . S
C687 H675 0.950 . S
C687 C683 1.393 . S
C687 C686 1.391 . S
H688 C696 0.950 . S
H689 C701 0.950 . S
H690 C698 0.950 . S
H691 C700 0.950 . S
H692 C702 0.950 . S
H693 C704 0.950 . S
H694 C706 0.950 . S
H695 C707 0.950 . S
C696 H688 0.950 . S
C696 C697 1.386 . S
C696 C698 1.391 . S
C697 C696 1.386 . S
C697 C701 1.393 . S
C698 H690 0.950 . S
C698 C696 1.391 . S
C698 C699 1.400 . S
C699 C698 1.400 . S
C699 C700 1.398 . S
C699 C705 1.491 . S
C700 H691 0.950 . S
C700 C699 1.398 . S
C700 C701 1.391 . S
C701 H689 0.950 . S
C701 C697 1.393 . S
C701 C700 1.391 . S
C702 H692 0.950 . S
C702 C703 1.386 . S
C702 C704 1.391 . S
C703 C702 1.386 . S
C703 C707 1.393 . S
C704 H693 0.950 . S
C704 C702 1.391 . S
C704 C705 1.400 . S
C705 C699 1.491 . S
C705 C704 1.400 . S
C705 C706 1.398 . S
C706 H694 0.950 . S
C706 C705 1.398 . S
C706 C707 1.391 . S
C707 H695 0.950 . S
C707 C703 1.393 . S
C707 C706 1.391 . S
H708 C716 0.950 . S
H709 C721 0.950 . S
H710 C718 0.950 . S
H711 C720 0.950 . S
H712 C722 0.950 . S
H713 C724 0.950 . S
H714 C726 0.950 . S
H715 C727 0.950 . S
C716 H708 0.950 . S
C716 C717 1.386 . S
C716 C718 1.391 . S
C717 C716 1.386 . S
C717 C721 1.393 . S
C718 H710 0.950 . S
C718 C716 1.391 . S
C718 C719 1.400 . S
C719 C718 1.400 . S
C719 C720 1.398 . S
C719 C725 1.491 . S
C720 H711 0.950 . S
C720 C719 1.398 . S
C720 C721 1.391 . S
C721 H709 0.950 . S
C721 C717 1.393 . S
C721 C720 1.391 . S
C722 H712 0.950 . S
C722 C723 1.386 . S
C722 C724 1.391 . S
C723 C722 1.386 . S
C723 C727 1.393 . S
C724 H713 0.950 . S
C724 C722 1.391 . S
C724 C725 1.400 . S
C725 C719 1.491 . S
C725 C724 1.400 . S
C725 C726 1.398 . S
C726 H714 0.950 . S
C726 C725 1.398 . S
C726 C727 1.391 . S
C727 H715 0.950 . S
C727 C723 1.393 . S
C727 C726 1.391 . S
H728 C736 0.950 . S
H729 C741 0.950 . S
H730 C738 0.950 . S
H731 C740 0.950 . S
H732 C742 0.950 . S
H733 C744 0.950 . S
H734 C746 0.950 . S
H735 C747 0.950 . S
C736 H728 0.950 . S
C736 C737 1.386 . S
C736 C738 1.391 . S
C737 C736 1.386 . S
C737 C741 1.393 . S
C738 H730 0.950 . S
C738 C736 1.391 . S
C738 C739 1.400 . S
C739 C738 1.400 . S
C739 C740 1.398 . S
C739 C745 1.491 . S
C740 H731 0.950 . S
C740 C739 1.398 . S
C740 C741 1.391 . S
C741 H729 0.950 . S
C741 C737 1.393 . S
C741 C740 1.391 . S
C742 H732 0.950 . S
C742 C743 1.386 . S
C742 C744 1.391 . S
C743 C742 1.386 . S
C743 C747 1.393 . S
C744 H733 0.950 . S
C744 C742 1.391 . S
C744 C745 1.400 . S
C745 C739 1.491 . S
C745 C744 1.400 . S
C745 C746 1.398 . S
C746 H734 0.950 . S
C746 C745 1.398 . S
C746 C747 1.391 . S
C747 H735 0.950 . S
C747 C743 1.393 . S
C747 C746 1.391 . S
H748 C756 0.950 . S
H749 C761 0.950 . S
H750 C758 0.950 . S
H751 C760 0.950 . S
H752 C762 0.950 . S
H753 C764 0.950 . S
H754 C766 0.950 . S
H755 C767 0.950 . S
C756 H748 0.950 . S
C756 C757 1.386 . S
C756 C758 1.391 . S
C757 C756 1.386 . S
C757 C761 1.393 . S
C758 H750 0.950 . S
C758 C756 1.391 . S
C758 C759 1.400 . S
C759 C758 1.400 . S
C759 C760 1.398 . S
C759 C765 1.491 . S
C760 H751 0.950 . S
C760 C759 1.398 . S
C760 C761 1.391 . S
C761 H749 0.950 . S
C761 C757 1.393 . S
C761 C760 1.391 . S
C762 H752 0.950 . S
C762 C763 1.386 . S
C762 C764 1.391 . S
C763 C762 1.386 . S
C763 C767 1.393 . S
C764 H753 0.950 . S
C764 C762 1.391 . S
C764 C765 1.400 . S
C765 C759 1.491 . S
C765 C764 1.400 . S
C765 C766 1.398 . S
C766 H754 0.950 . S
C766 C765 1.398 . S
C766 C767 1.391 . S
C767 H755 0.950 . S
C767 C763 1.393 . S
C767 C766 1.391 . S
H768 C776 0.950 . S
H769 C781 0.950 . S
H770 C778 0.950 . S
H771 C780 0.950 . S
H772 C782 0.950 . S
H773 C784 0.950 . S
H774 C786 0.950 . S
H775 C787 0.950 . S
C776 H768 0.950 . S
C776 C777 1.386 . S
C776 C778 1.391 . S
C777 C776 1.386 . S
C777 C781 1.393 . S
C778 H770 0.950 . S
C778 C776 1.391 . S
C778 C779 1.400 . S
C779 C778 1.400 . S
C779 C780 1.398 . S
C779 C785 1.491 . S
C780 H771 0.950 . S
C780 C779 1.398 . S
C780 C781 1.391 . S
C781 H769 0.950 . S
C781 C777 1.393 . S
C781 C780 1.391 . S
C782 H772 0.950 . S
C782 C783 1.386 . S
C782 C784 1.391 . S
C783 C782 1.386 . S
C783 C787 1.393 . S
C784 H773 0.950 . S
C784 C782 1.391 . S
C784 C785 1.400 . S
C785 C779 1.491 . S
C785 C784 1.400 . S
C785 C786 1.398 . S
C786 H774 0.950 . S
C786 C785 1.398 . S
C786 C787 1.391 . S
C787 H775 0.950 . S
C787 C783 1.393 . S
C787 C786 1.391 . S
H788 C796 0.950 . S
H789 C801 0.950 . S
H790 C798 0.950 . S
H791 C800 0.950 . S
H792 C802 0.950 . S
H793 C804 0.950 . S
H794 C806 0.950 . S
H795 C807 0.950 . S
C796 H788 0.950 . S
C796 C797 1.386 . S
C796 C798 1.391 . S
C797 C796 1.386 . S
C797 C801 1.393 . S
C798 H790 0.950 . S
C798 C796 1.391 . S
C798 C799 1.400 . S
C799 C798 1.400 . S
C799 C800 1.398 . S
C799 C805 1.491 . S
C800 H791 0.950 . S
C800 C799 1.398 . S
C800 C801 1.391 . S
C801 H789 0.950 . S
C801 C797 1.393 . S
C801 C800 1.391 . S
C802 H792 0.950 . S
C802 C803 1.386 . S
C802 C804 1.391 . S
C803 C802 1.386 . S
C803 C807 1.393 . S
C804 H793 0.950 . S
C804 C802 1.391 . S
C804 C805 1.400 . S
C805 C799 1.491 . S
C805 C804 1.400 . S
C805 C806 1.398 . S
C806 H794 0.950 . S
C806 C805 1.398 . S
C806 C807 1.391 . S
C807 H795 0.950 . S
C807 C803 1.393 . S
C807 C806 1.391 . S
H808 C816 0.950 . S
H809 C821 0.950 . S
H810 C818 0.950 . S
H811 C820 0.950 . S
H812 C822 0.950 . S
H813 C824 0.950 . S
H814 C826 0.950 . S
H815 C827 0.950 . S
C816 H808 0.950 . S
C816 C817 1.386 . S
C816 C818 1.391 . S
C817 C816 1.386 . S
C817 C821 1.393 . S
C818 H810 0.950 . S
C818 C816 1.391 . S
C818 C819 1.400 . S
C819 C818 1.400 . S
C819 C820 1.398 . S
C819 C825 1.491 . S
C820 H811 0.950 . S
C820 C819 1.398 . S
C820 C821 1.391 . S
C821 H809 0.950 . S
C821 C817 1.393 . S
C821 C820 1.391 . S
C822 H812 0.950 . S
C822 C823 1.386 . S
C822 C824 1.391 . S
C823 C822 1.386 . S
C823 C827 1.393 . S
C824 H813 0.950 . S
C824 C822 1.391 . S
C824 C825 1.400 . S
C825 C819 1.491 . S
C825 C824 1.400 . S
C825 C826 1.398 . S
C826 H814 0.950 . S
C826 C825 1.398 . S
C826 C827 1.391 . S
C827 H815 0.950 . S
C827 C823 1.393 . S
C827 C826 1.391 . S
H828 C836 0.950 . S
H829 C841 0.950 . S
H830 C838 0.950 . S
H831 C840 0.950 . S
H832 C842 0.950 . S
H833 C844 0.950 . S
H834 C846 0.950 . S
H835 C847 0.950 . S
C836 H828 0.950 . S
C836 C837 1.386 . S
C836 C838 1.391 . S
C837 C836 1.386 . S
C837 C841 1.393 . S
C838 H830 0.950 . S
C838 C836 1.391 . S
C838 C839 1.400 . S
C839 C838 1.400 . S
C839 C840 1.398 . S
C839 C845 1.491 . S
C840 H831 0.950 . S
C840 C839 1.398 . S
C840 C841 1.391 . S
C841 H829 0.950 . S
C841 C837 1.393 . S
C841 C840 1.391 . S
C842 H832 0.950 . S
C842 C843 1.386 . S
C842 C844 1.391 . S
C843 C842 1.386 . S
C843 C847 1.393 . S
C844 H833 0.950 . S
C844 C842 1.391 . S
C844 C845 1.400 . S
C845 C839 1.491 . S
C845 C844 1.400 . S
C845 C846 1.398 . S
C846 H834 0.950 . S
C846 C845 1.398 . S
C846 C847 1.391 . S
C847 H835 0.950 . S
C847 C843 1.393 . S
C847 C846 1.391 . S
H848 C856 0.950 . S
H849 C861 0.950 . S
H850 C858 0.950 . S
H851 C860 0.950 . S
H852 C862 0.950 . S
H853 C864 0.950 . S
H854 C866 0.950 . S
H855 C867 0.950 . S
C856 H848 0.950 . S
C856 C857 1.386 . S
C856 C858 1.391 . S
C857 C856 1.386 . S
C857 C861 1.393 . S
C858 H850 0.950 . S
C858 C856 1.391 . S
C858 C859 1.400 . S
C859 C858 1.400 . S
C859 C860 1.398 . S
C859 C865 1.491 . S
C860 H851 0.950 . S
C860 C859 1.398 . S
C860 C861 1.391 . S
C861 H849 0.950 . S
C861 C857 1.393 . S
C861 C860 1.391 . S
C862 H852 0.950 . S
C862 C863 1.386 . S
C862 C864 1.391 . S
C863 C862 1.386 . S
C863 C867 1.393 . S
C864 H853 0.950 . S
C864 C862 1.391 . S
C864 C865 1.400 . S
C865 C859 1.491 . S
C865 C864 1.400 . S
C865 C866 1.398 . S
C866 H854 0.950 . S
C866 C865 1.398 . S
C866 C867 1.391 . S
C867 H855 0.950 . S
C867 C863 1.393 . S
C867 C866 1.391 . S
H868 C876 0.950 . S
H869 C881 0.950 . S
H870 C878 0.950 . S
H871 C880 0.950 . S
H872 C882 0.950 . S
H873 C884 0.950 . S
H874 C886 0.950 . S
H875 C887 0.950 . S
C876 H868 0.950 . S
C876 C877 1.386 . S
C876 C878 1.391 . S
C877 C876 1.386 . S
C877 C881 1.393 . S
C878 H870 0.950 . S
C878 C876 1.391 . S
C878 C879 1.400 . S
C879 C878 1.400 . S
C879 C880 1.398 . S
C879 C885 1.491 . S
C880 H871 0.950 . S
C880 C879 1.398 . S
C880 C881 1.391 . S
C881 H869 0.950 . S
C881 C877 1.393 . S
C881 C880 1.391 . S
C882 H872 0.950 . S
C882 C883 1.386 . S
C882 C884 1.391 . S
C883 C882 1.386 . S
C883 C887 1.393 . S
C884 H873 0.950 . S
C884 C882 1.391 . S
C884 C885 1.400 . S
C885 C879 1.491 . S
C885 C884 1.400 . S
C885 C886 1.398 . S
C886 H874 0.950 . S
C886 C885 1.398 . S
C886 C887 1.391 . S
C887 H875 0.950 . S
C887 C883 1.393 . S
C887 C886 1.391 . S
C417 C15 1.541 . S
C423 C346 1.505 . S
C443 C324 1.564 . S
C437 C55 1.592 . S
C463 C350 1.513 . S
C457 C95 1.541 . S
C483 C328 1.559 . S
C477 C135 1.590 . S
C503 C390 1.507 . S
C497 C175 1.541 . S
C523 C368 1.567 . S
C517 C215 1.592 . S
C537 C255 1.545 . S
C543 C394 1.521 . S
C563 C372 1.548 . S
C557 C295 1.585 . S
C577 C2 1.565 . S
C583 C395 1.564 . S
C603 C373 1.640 . S
C597 C61 1.565 . S
C617 C82 1.515 . S
C623 C392 1.563 . S
C637 C141 1.632 . S
C643 C370 1.633 . S
C663 C351 1.557 . S
C657 C162 1.573 . S
C677 C221 1.570 . S
C683 C329 1.635 . S
C703 C348 1.564 . S
C697 C242 1.510 . S
C723 C326 1.634 . S
C717 C301 1.635 . S
C743 C369 1.572 . S
C737 C21 1.569 . S
C763 C391 1.564 . S
C757 C42 1.533 . S
C777 C101 1.518 . S
C783 C371 1.567 . S
C803 C393 1.571 . S
C797 C122 1.573 . S
C823 C325 1.567 . S
C817 C181 1.577 . S
C837 C202 1.508 . S
C843 C347 1.564 . S
C857 C261 1.497 . S
C863 C327 1.569 . S
C877 C282 1.572 . S
C883 C349 1.575 . S
