# Generated by pormake.
# Topology nia, (6,6)-cn, num edge types: 1
# Building blocks:
#     Node 0, Type 0, BuildingBlock: CUWYAW_clean_sbu_0, # of connection points: 6
#     Node 1, Type 0, BuildingBlock: CUWYAW_clean_sbu_0, # of connection points: 6
#     Node 2, Type 1, BuildingBlock: MIDCAF_clean_sbu_0, # of connection points: 6
#     Node 3, Type 1, BuildingBlock: MIDCAF_clean_sbu_0, # of connection points: 6
#     Edge 4, Type (0, 1), BuildingBlock: FUNLAD_clean_linker_0, # of connection points: 2
#     Edge 5, Type (0, 1), BuildingBlock: FUNLAD_clean_linker_0, # of connection points: 2
#     Edge 6, Type (0, 1), BuildingBlock: FUNLAD_clean_linker_0, # of connection points: 2
#     Edge 7, Type (0, 1), BuildingBlock: FUNLAD_clean_linker_0, # of connection points: 2
#     Edge 8, Type (0, 1), BuildingBlock: FUNLAD_clean_linker_0, # of connection points: 2
#     Edge 9, Type (0, 1), BuildingBlock: FUNLAD_clean_linker_0, # of connection points: 2
#     Edge 10, Type (0, 1), BuildingBlock: FUNLAD_clean_linker_0, # of connection points: 2
#     Edge 11, Type (0, 1), BuildingBlock: FUNLAD_clean_linker_0, # of connection points: 2
#     Edge 12, Type (0, 1), BuildingBlock: FUNLAD_clean_linker_0, # of connection points: 2
#     Edge 13, Type (0, 1), BuildingBlock: FUNLAD_clean_linker_0, # of connection points: 2
#     Edge 14, Type (0, 1), BuildingBlock: FUNLAD_clean_linker_0, # of connection points: 2
#     Edge 15, Type (0, 1), BuildingBlock: FUNLAD_clean_linker_0, # of connection points: 2
# Relax obj value: 0.269
# Max RMSD: 0.265
# Mean RMSD: 0.230
data_MOF--net-nia--node1-CUWYAW_clean_sbu_0--node2-MIDCAF_clean_sbu_0--edge1-FUNLAD_clean_linker_0
_symmetry_space_group_name_H-M    P1
_symmetry_Int_Tables_number       1
_symmetry_cell_setting            triclinic
loop_
_symmetry_equiv_pos_as_xyz
'x, y, z'
_cell_length_a     32.211695
_cell_length_b     29.045363
_cell_length_c     39.708638
_cell_angle_alpha  100.49342
_cell_angle_beta   72.39772
_cell_angle_gamma 128.50664
loop_
_atom_site_label
_atom_site_type_symbol
_atom_site_fract_x
_atom_site_fract_y
_atom_site_fract_z
_atom_type_partial_charge
C0 C 0.08334 0.95337 0.04073 0.0
Eu1 Eu 0.03123 0.9902 0.03251 0.0
C2 C 0.077 0.90828 0.05837 0.0
C3 C 0.06276 0.90365 0.09535 0.0
C4 C 0.06607 0.86724 0.11124 0.0
C5 C 0.0836 0.83489 0.09042 0.0
C6 C 0.09365 0.83629 0.05347 0.0
C7 C 0.09077 0.87299 0.03763 0.0
C8 C 0.92927 0.95525 0.07098 0.0
C9 C 0.97433 0.92657 0.9669 0.0
C10 C 0.91798 0.06048 1.00052 0.0
Eu11 Eu 0.98245 0.0382 1.00554 0.0
C12 C 0.92014 0.1053 0.98625 0.0
C13 C 0.9584 0.13609 0.95492 0.0
C14 C 0.95334 0.1703 0.93831 0.0
C15 C 0.90999 0.17413 0.95284 0.0
C16 C 0.8746 0.14706 0.98571 0.0
C17 C 0.87956 0.11274 1.0022 0.0
C18 C 0.0897 0.09185 0.96853 0.0
C19 C 0.05581 0.11005 0.06184 0.0
O20 O 0.05874 0.93575 0.01522 0.0
O21 O 0.0823 0.99435 0.06021 0.0
O22 O 0.96487 0.96197 0.08425 0.0
O23 O 0.94711 0.96151 0.03799 0.0
O24 O 0.00944 0.93736 0.98342 0.0
O25 O 0.95231 0.95445 0.97444 0.0
O26 O 0.93754 0.07446 0.0283 0.0
O27 O 0.93033 0.02997 0.97724 0.0
O28 O 0.05886 0.10291 0.96312 0.0
O29 O 0.0618 0.05456 0.99308 0.0
O30 O 0.01062 0.09174 0.05398 0.0
O31 O 0.07954 0.08452 0.0484 0.0
H32 H 0.0516 0.93013 0.11199 0.0
H33 H 0.0583 0.86747 0.13975 0.0
H34 H 0.10613 0.81099 0.03668 0.0
H35 H 0.10167 0.8757 1.00905 0.0
H36 H 0.99038 0.13125 0.94235 0.0
H37 H 0.9812 0.19056 0.91301 0.0
H38 H 0.84154 0.15028 0.99792 0.0
H39 H 0.85003 0.0897 0.02656 0.0
C40 C 0.93152 0.98661 0.44815 0.0
Eu41 Eu 0.98091 0.99904 0.49366 0.0
C42 C 0.87748 0.96856 0.44909 0.0
C43 C 0.82942 0.91468 0.46438 0.0
C44 C 0.77883 0.89587 0.46171 0.0
C45 C 0.77576 0.93091 0.44398 0.0
C46 C 0.82351 0.98661 0.43104 0.0
C47 C 0.87407 0.00508 0.43335 0.0
C48 C 0.93847 0.91117 0.53891 0.0
C49 C 0.94556 0.05092 0.56742 0.0
C50 C 0.08687 0.04764 0.59359 0.0
Eu51 Eu 0.039 0.03738 0.54775 0.0
C52 C 0.14007 0.06355 0.59243 0.0
C53 C 0.18813 0.10848 0.56988 0.0
C54 C 0.23878 0.1253 0.57093 0.0
C55 C 0.24169 0.09683 0.59416 0.0
C56 C 0.19318 0.0499 0.6153 0.0
C57 C 0.14272 0.03349 0.61446 0.0
C58 C 0.08163 0.12594 0.50306 0.0
C59 C 0.07324 0.98343 0.47475 0.0
O60 O 0.96283 0.03686 0.46298 0.0
O61 O 0.9337 0.94587 0.45486 0.0
O62 O 0.9439 0.90504 0.50514 0.0
O63 O 0.9538 0.96246 0.54756 0.0
O64 O 0.94896 0.04498 0.53307 0.0
O65 O 0.96989 0.03858 0.58125 0.0
O66 O 0.05482 0.99773 0.57879 0.0
O67 O 0.08668 0.08969 0.58647 0.0
O68 O 0.07754 0.13173 0.53674 0.0
O69 O 0.06602 0.07458 0.49378 0.0
O70 O 0.07045 0.99121 0.50896 0.0
O71 O 0.04886 0.995 0.46028 0.0
H72 H 0.831 0.88612 0.47722 0.0
H73 H 0.74267 0.8526 0.47175 0.0
H74 H 0.82201 0.01489 0.41784 0.0
H75 H 0.91069 0.04715 0.4219 0.0
H76 H 0.18663 0.13145 0.55217 0.0
H77 H 0.27567 0.16141 0.5543 0.0
H78 H 0.19433 0.0278 0.63383 0.0
H79 H 0.10584 0.99835 0.63171 0.0
Zn80 Zn 0.32196 0.64381 0.20692 0.0
Zn81 Zn 0.28179 0.66156 0.36263 0.0
Zn82 Zn 0.31613 0.65641 0.27265 0.0
C83 C 0.3974 0.71427 0.30837 0.0
C84 C 0.242 0.54579 0.33421 0.0
O85 O 0.2796 0.69271 0.26043 0.0
O86 O 0.30127 0.69297 0.20204 0.0
C87 C 0.42884 0.7021 0.20643 0.0
O88 O 0.39884 0.70743 0.2756 0.0
O89 O 0.35193 0.69353 0.32964 0.0
O90 O 0.23946 0.57569 0.36123 0.0
O91 O 0.26797 0.56935 0.30273 0.0
O92 O 0.39834 0.67389 0.18523 0.0
O93 O 0.4069 0.70305 0.23968 0.0
O94 O 0.26537 0.56193 0.26614 0.0
O95 O 0.26371 0.55759 0.21032 0.0
C96 C 0.24744 0.53221 0.23915 0.0
O97 O 0.27737 0.7034 0.29735 0.0
O98 O 0.24822 0.69587 0.3564 0.0
C99 C 0.27994 0.70523 0.23087 0.0
C100 C 0.25334 0.71315 0.32736 0.0
Zn101 Zn 0.68319 0.37891 0.82987 0.0
Zn102 Zn 0.71729 0.36513 0.69489 0.0
Zn103 Zn 0.69724 0.37039 0.76095 0.0
C104 C 0.75293 0.4779 0.70587 0.0
C105 C 0.60481 0.28202 0.72237 0.0
O106 O 0.73316 0.33517 0.77637 0.0
O107 O 0.70935 0.3351 0.8349 0.0
C108 C 0.75386 0.49279 0.80126 0.0
O109 O 0.74167 0.46046 0.73729 0.0
O110 O 0.74207 0.4417 0.68082 0.0
O111 O 0.64187 0.29411 0.69453 0.0
O112 O 0.61678 0.31063 0.75095 0.0
O113 O 0.73457 0.46615 0.83013 0.0
O114 O 0.74232 0.46424 0.77255 0.0
O115 O 0.60578 0.31854 0.78783 0.0
O116 O 0.60334 0.33713 0.84469 0.0
C117 C 0.57841 0.31236 0.82037 0.0
O118 O 0.74372 0.33191 0.7395 0.0
O119 O 0.77344 0.35314 0.68257 0.0
C120 C 0.73174 0.3231 0.80654 0.0
C121 C 0.77251 0.33277 0.70842 0.0
C122 C 0.06822 0.77901 0.14015 0.0
C123 C 0.09855 0.80669 0.10681 0.0
C124 C 0.08761 0.76075 0.15759 0.0
C125 C 0.13759 0.76978 0.14183 0.0
C126 C 0.16594 0.79401 0.1077 0.0
C127 C 0.14698 0.81269 0.0905 0.0
C128 C 0.16334 0.75709 0.16003 0.0
C129 C 0.15488 0.7563 0.19535 0.0
C130 C 0.18941 0.75247 0.21042 0.0
C131 C 0.16572 0.71337 0.23833 0.0
C132 C 0.19686 0.70157 0.24773 0.0
C133 C 0.25185 0.72932 0.22941 0.0
H134 H 0.26559 0.81682 0.17426 0.0
C135 C 0.27667 0.77274 0.20412 0.0
C136 C 0.24586 0.78467 0.19492 0.0
H137 H 0.31919 0.79495 0.18993 0.0
H138 H 0.03016 0.77266 0.15307 0.0
H139 H 0.06376 0.74035 0.18341 0.0
H140 H 0.20441 0.80114 0.09488 0.0
H141 H 0.17195 0.83458 0.06513 0.0
H142 H 0.19455 0.75298 0.14326 0.0
H143 H 0.12323 0.75859 0.21322 0.0
H144 H 0.12245 0.68886 0.25099 0.0
H145 H 0.17696 0.66762 0.26723 0.0
C146 C 0.30465 0.08174 0.60516 0.0
C147 C 0.29456 0.12026 0.60018 0.0
C148 C 0.3478 0.10223 0.61955 0.0
C149 C 0.38116 0.16154 0.62929 0.0
C150 C 0.3745 0.20104 0.62086 0.0
C151 C 0.33131 0.18055 0.60654 0.0
C152 C 0.42088 0.18319 0.65016 0.0
C153 C 0.41511 0.14889 0.67252 0.0
C154 C 0.45496 0.17476 0.69379 0.0
C155 C 0.48415 0.15276 0.69068 0.0
C156 C 0.53122 0.18563 0.70326 0.0
C157 C 0.54824 0.23967 0.71985 0.0
H158 H 0.44657 0.24326 0.71612 0.0
C159 C 0.51572 0.25841 0.7263 0.0
C160 C 0.46919 0.22609 0.71324 0.0
H161 H 0.5292 0.30078 0.73816 0.0
H162 H 0.27749 0.03526 0.59961 0.0
H163 H 0.35362 0.07119 0.62409 0.0
H164 H 0.40046 0.24718 0.62755 0.0
H165 H 0.32438 0.21118 0.60298 0.0
H166 H 0.45417 0.23017 0.64902 0.0
H167 H 0.38291 0.10177 0.67432 0.0
H168 H 0.47344 0.11311 0.67583 0.0
H169 H 0.55641 0.17102 0.69783 0.0
C170 C 0.05023 0.17943 0.10734 0.0
C171 C 0.07853 0.15708 0.088 0.0
C172 C 0.0705 0.22132 0.13361 0.0
C173 C 0.11949 0.24152 0.14097 0.0
C174 C 0.14827 0.22019 0.12103 0.0
C175 C 0.12794 0.17821 0.09499 0.0
C176 C 0.1441 0.28784 0.16728 0.0
C177 C 0.11538 0.29902 0.1952 0.0
C178 C 0.14341 0.35264 0.21655 0.0
C179 C 0.12243 0.38467 0.22667 0.0
C180 C 0.15477 0.4425 0.23822 0.0
C181 C 0.20781 0.46825 0.24049 0.0
H182 H 0.21058 0.3519 0.21622 0.0
C183 C 0.22641 0.43421 0.23433 0.0
C184 C 0.19416 0.37641 0.22269 0.0
H185 H 0.26761 0.4538 0.23547 0.0
H186 H 0.01222 0.16428 0.10242 0.0
H187 H 0.04824 0.23843 0.1475 0.0
H188 H 0.18655 0.23579 0.12576 0.0
H189 H 0.15097 0.16219 0.08046 0.0
H190 H 0.18836 0.31516 0.16251 0.0
H191 H 0.07124 0.2727 0.19996 0.0
H192 H 0.08322 0.36703 0.22252 0.0
H193 H 0.14019 0.46864 0.24248 0.0
C194 C 0.90401 0.10348 0.57603 0.0
C195 C 0.91683 0.07437 0.59054 0.0
C196 C 0.88219 0.13091 0.59799 0.0
C197 C 0.87234 0.12948 0.635 0.0
C198 C 0.88267 0.09799 0.64952 0.0
C199 C 0.90522 0.07128 0.62756 0.0
C200 C 0.85131 0.16044 0.65886 0.0
C201 C 0.86724 0.2128 0.64992 0.0
C202 C 0.84692 0.24612 0.67111 0.0
C203 C 0.8728 0.30294 0.65935 0.0
C204 C 0.85085 0.33308 0.67398 0.0
C205 C 0.80244 0.30746 0.701 0.0
H206 H 0.77915 0.17837 0.71006 0.0
C207 C 0.77865 0.2527 0.71502 0.0
C208 C 0.80054 0.222 0.70009 0.0
H209 H 0.74094 0.23169 0.73559 0.0
H210 H 0.91223 0.10652 0.54766 0.0
H211 H 0.87312 0.1533 0.58592 0.0
H212 H 0.87485 0.09555 0.6779 0.0
H213 H 0.91425 0.04886 0.63966 0.0
H214 H 0.82475 0.14104 0.68462 0.0
H215 H 0.89742 0.23294 0.62507 0.0
H216 H 0.90877 0.32312 0.63741 0.0
H217 H 0.87017 0.37534 0.6627 0.0
C218 C 0.83337 0.91687 0.07326 0.0
C219 C 0.87261 0.93332 0.0909 0.0
C220 C 0.77937 0.89386 0.09208 0.0
C221 C 0.76319 0.8868 0.12917 0.0
C222 C 0.80313 0.90518 0.14676 0.0
C223 C 0.85692 0.9277 0.12791 0.0
C224 C 0.70558 0.86098 0.15039 0.0
C225 C 0.66114 0.82276 0.13699 0.0
C226 C 0.6025 0.79241 0.15746 0.0
C227 C 0.56184 0.74282 0.14222 0.0
C228 C 0.50634 0.71337 0.15888 0.0
C229 C 0.48898 0.73249 0.1915 0.0
H230 H 0.61539 0.85049 0.20278 0.0
C231 C 0.52941 0.78219 0.20709 0.0
C232 C 0.58562 0.81174 0.19035 0.0
H233 H 0.51766 0.79933 0.23156 0.0
H234 H 0.84427 0.92129 0.04479 0.0
H235 H 0.7507 0.88222 0.07743 0.0
H236 H 0.79244 0.9011 0.17523 0.0
H237 H 0.88623 0.94045 0.14238 0.0
H238 H 0.69969 0.87078 0.17839 0.0
H239 H 0.66753 0.80995 0.10957 0.0
H240 H 0.57299 0.72666 0.11697 0.0
H241 H 0.47678 0.67554 0.14578 0.0
C242 C 0.90177 0.86511 0.59912 0.0
C243 C 0.9246 0.86704 0.56258 0.0
C244 C 0.88841 0.82208 0.62078 0.0
C245 C 0.89914 0.78143 0.60627 0.0
C246 C 0.92318 0.78474 0.56993 0.0
C247 C 0.93498 0.82632 0.5483 0.0
C248 C 0.88749 0.73555 0.62754 0.0
C249 C 0.84403 0.70607 0.6554 0.0
C250 C 0.82654 0.6514 0.67114 0.0
C251 C 0.78619 0.62823 0.70331 0.0
C252 C 0.76408 0.57323 0.71628 0.0
C253 C 0.78169 0.5402 0.69716 0.0
H254 H 0.87502 0.63283 0.62787 0.0
C255 C 0.82323 0.56418 0.66589 0.0
C256 C 0.84533 0.6187 0.65304 0.0
H257 H 0.83736 0.53948 0.65046 0.0
H258 H 0.89367 0.89633 0.6108 0.0
H259 H 0.87078 0.82142 0.64879 0.0
H260 H 0.93229 0.75435 0.55804 0.0
H261 H 0.95316 0.82717 0.52035 0.0
H262 H 0.91413 0.7227 0.61744 0.0
H263 H 0.81802 0.71987 0.66557 0.0
H264 H 0.77031 0.65175 0.71781 0.0
H265 H 0.73114 0.5551 0.74001 0.0
C266 C 0.10286 0.946 0.41704 0.0
C267 C 0.1005 0.95723 0.45338 0.0
C268 C 0.1237 0.91569 0.39814 0.0
C269 C 0.14235 0.89582 0.41533 0.0
C270 C 0.14115 0.90846 0.45133 0.0
C271 C 0.12089 0.93896 0.47003 0.0
C272 C 0.15893 0.85762 0.39808 0.0
C273 C 0.17691 0.85376 0.36296 0.0
C274 C 0.19201 0.81338 0.34902 0.0
C275 C 0.23845 0.83092 0.32101 0.0
C276 C 0.25711 0.79639 0.31159 0.0
C277 C 0.22891 0.7435 0.32975 0.0
H278 H 0.12451 0.74208 0.38561 0.0
C279 C 0.17996 0.72386 0.35551 0.0
C280 C 0.16163 0.75811 0.36493 0.0
H281 H 0.15697 0.68291 0.36969 0.0
H282 H 0.08723 0.95915 0.4034 0.0
H283 H 0.12307 0.90595 0.37059 0.0
H284 H 0.15502 0.89359 0.46536 0.0
H285 H 0.11971 0.94655 0.49793 0.0
H286 H 0.15766 0.83213 0.41585 0.0
H287 H 0.18381 0.88268 0.3446 0.0
H288 H 0.2621 0.87289 0.30789 0.0
H289 H 0.29509 0.81269 0.29177 0.0
C290 C 0.17596 0.09977 0.95388 0.0
C291 C 0.14602 0.11564 0.94703 0.0
C292 C 0.22899 0.1224 0.93296 0.0
C293 C 0.25341 0.16161 0.90455 0.0
C294 C 0.22278 0.17677 0.89785 0.0
C295 C 0.17005 0.15426 0.91873 0.0
C296 C 0.31049 0.18902 0.88157 0.0
C297 C 0.34542 0.18003 0.8852 0.0
C298 C 0.40395 0.21075 0.86428 0.0
C299 C 0.43604 0.20088 0.87442 0.0
C300 C 0.4919 0.2316 0.8584 0.0
C301 C 0.51765 0.27282 0.83131 0.0
H302 H 0.40678 0.25969 0.82686 0.0
C303 C 0.48573 0.28142 0.81984 0.0
C304 C 0.42937 0.25062 0.83604 0.0
H305 H 0.50482 0.31427 0.79982 0.0
H306 H 0.1584 0.06985 0.97544 0.0
H307 H 0.25014 0.10884 0.9395 0.0
H308 H 0.23982 0.20657 0.87635 0.0
H309 H 0.14802 0.16719 0.91261 0.0
H310 H 0.32432 0.21923 0.86124 0.0
H311 H 0.33166 0.15 0.90561 0.0
H312 H 0.41827 0.17057 0.8958 0.0
H313 H 0.51557 0.2245 0.86809 0.0
C314 C 0.10112 0.1651 0.44368 0.0
C315 C 0.10341 0.1744 0.47936 0.0
C316 C 0.11894 0.21142 0.42272 0.0
C317 C 0.13951 0.26788 0.43714 0.0
C318 C 0.14267 0.27685 0.47255 0.0
C319 C 0.12497 0.23097 0.49329 0.0
C320 C 0.15452 0.31791 0.41784 0.0
C321 C 0.16605 0.32336 0.38242 0.0
C322 C 0.1802 0.37588 0.36651 0.0
C323 C 0.2204 0.40118 0.33456 0.0
C324 C 0.23851 0.45484 0.32209 0.0
C325 C 0.21589 0.48335 0.34108 0.0
H326 H 0.12244 0.38323 0.40771 0.0
C327 C 0.17265 0.45528 0.37136 0.0
C328 C 0.15502 0.40244 0.38384 0.0
H329 H 0.15383 0.47564 0.3865 0.0
H330 H 0.08439 0.12182 0.43225 0.0
H331 H 0.11496 0.20238 0.39575 0.0
H332 H 0.1582 0.31962 0.48454 0.0
H333 H 0.1275 0.23981 0.52059 0.0
H334 H 0.1578 0.35385 0.43425 0.0
H335 H 0.16823 0.29118 0.36491 0.0
H336 H 0.23995 0.38122 0.32032 0.0
H337 H 0.27238 0.4757 0.29901 0.0
C338 C 0.84343 0.16949 0.92988 0.0
C339 C 0.89761 0.19974 0.93189 0.0
C340 C 0.83129 0.19003 0.90811 0.0
C341 C 0.87316 0.24122 0.88751 0.0
C342 C 0.92711 0.27269 0.89036 0.0
C343 C 0.93938 0.25186 0.9121 0.0
C344 C 0.86088 0.26386 0.86429 0.0
C345 C 0.81838 0.22808 0.8491 0.0
C346 C 0.79872 0.24989 0.83179 0.0
C347 C 0.74227 0.21562 0.83483 0.0
C348 C 0.72068 0.23815 0.82406 0.0
C349 C 0.75537 0.29458 0.8091 0.0
H350 H 0.8777 0.33179 0.81095 0.0
C351 C 0.81216 0.32711 0.80321 0.0
C352 C 0.83384 0.30501 0.81461 0.0
H353 H 0.83942 0.371 0.7919 0.0
H354 H 0.81033 0.12892 0.94453 0.0
H355 H 0.78888 0.16583 0.90781 0.0
H356 H 0.95993 0.3129 0.87531 0.0
H357 H 0.98146 0.27639 0.91338 0.0
H358 H 0.88642 0.31122 0.86081 0.0
H359 H 0.79343 0.18075 0.8525 0.0
H360 H 0.71442 0.17284 0.84767 0.0
H361 H 0.67666 0.21271 0.82903 0.0
C362 C 0.72674 0.91351 0.40014 0.0
C363 C 0.7246 0.90638 0.43477 0.0
C364 C 0.67895 0.88627 0.3897 0.0
C365 C 0.62791 0.85038 0.41352 0.0
C366 C 0.62545 0.84494 0.44856 0.0
C367 C 0.67361 0.87246 0.45911 0.0
C368 C 0.57711 0.81976 0.40219 0.0
C369 C 0.57425 0.79997 0.36894 0.0
C370 C 0.52789 0.77708 0.35401 0.0
C371 C 0.53279 0.76411 0.31774 0.0
C372 C 0.49106 0.74489 0.30213 0.0
C373 C 0.44429 0.73917 0.3226 0.0
H374 H 0.4737 0.77859 0.40241 0.0
C375 C 0.43933 0.75189 0.3588 0.0
C376 C 0.48031 0.77018 0.37443 0.0
H377 H 0.40315 0.74695 0.37543 0.0
H378 H 0.76539 0.9388 0.38067 0.0
H379 H 0.68221 0.89333 0.36288 0.0
H380 H 0.58635 0.81833 0.46746 0.0
H381 H 0.67102 0.86677 0.48607 0.0
H382 H 0.54267 0.81458 0.42176 0.0
H383 H 0.60891 0.80292 0.35106 0.0
H384 H 0.56895 0.76876 0.30143 0.0
H385 H 0.49474 0.73304 0.27453 0.0
C386 C 0.92181 0.86732 0.92075 0.0
C387 C 0.95934 0.88131 0.93913 0.0
C388 C 0.90734 0.82385 0.89487 0.0
C389 C 0.93044 0.79377 0.88674 0.0
C390 C 0.9681 0.80807 0.90501 0.0
C391 C 0.98258 0.85145 0.93081 0.0
C392 C 0.91251 0.74344 0.86214 0.0
C393 C 0.88707 0.73306 0.83723 0.0
C394 C 0.8591 0.67551 0.81933 0.0
C395 C 0.80796 0.65033 0.8135 0.0
C396 C 0.77455 0.59094 0.80471 0.0
C397 C 0.79268 0.55682 0.80086 0.0
H398 H 0.91912 0.66114 0.8152 0.0
C399 C 0.84574 0.58319 0.80328 0.0
C400 C 0.87905 0.64238 0.81216 0.0
H401 H 0.86016 0.55715 0.8004 0.0
H402 H 0.90295 0.88928 0.92667 0.0
H403 H 0.87675 0.81286 0.88231 0.0
H404 H 0.98597 0.78509 0.89961 0.0
H405 H 0.01165 0.86104 0.94442 0.0
H406 H 0.9178 0.71167 0.86643 0.0
H407 H 0.88068 0.76385 0.83294 0.0
H408 H 0.79199 0.67521 0.81857 0.0
H409 H 0.73331 0.57082 0.80338 0.0
loop_
_geom_bond_atom_site_label_1
_geom_bond_atom_site_label_2
_geom_bond_distance
_geom_bond_site_symmetry_2
_ccdc_geom_bond_type
C0 Eu1 2.835 . S
C0 C2 1.500 . S
C0 O20 1.257 . S
C0 O21 1.260 . S
Eu1 C0 2.835 . S
Eu1 O20 2.473 . S
Eu1 O21 2.480 . S
Eu1 O22 2.430 1_455 S
Eu1 O23 2.670 1_455 S
Eu1 O24 2.394 1_455 S
Eu1 O29 2.355 1_564 S
Eu1 O31 2.374 1_565 S
C2 C0 1.500 . S
C2 C3 1.377 . S
C2 C7 1.377 . S
C3 C2 1.377 . S
C3 C4 1.395 . S
C3 H32 0.931 1_455 S
C4 C3 1.395 . S
C4 C5 1.383 . S
C4 H33 0.931 . S
C5 C4 1.383 . S
C5 C6 1.394 . S
C6 C5 1.394 . S
C6 C7 1.378 . S
C6 H34 0.931 . S
C7 C2 1.377 . S
C7 C6 1.378 . S
C7 H35 0.931 . S
C8 O22 1.259 . S
C8 O23 1.270 . S
C9 O24 1.251 1_556 S
C9 O25 1.251 . S
C10 Eu11 2.835 . S
C10 C12 1.500 . S
C10 O26 1.257 . S
C10 O27 1.260 1_655 S
Eu11 C10 2.835 . S
Eu11 O23 2.355 1_546 S
Eu11 O25 2.374 1_545 S
Eu11 O26 2.473 . S
Eu11 O27 2.480 1_655 S
Eu11 O28 2.430 1_655 S
Eu11 O29 2.670 1_655 S
Eu11 O30 2.394 1_656 S
C12 C10 1.500 . S
C12 C13 1.377 . S
C12 C17 1.377 . S
C13 C12 1.377 . S
C13 C14 1.395 . S
C13 H36 0.931 1_655 S
C14 C13 1.395 . S
C14 C15 1.383 . S
C14 H37 0.931 1_655 S
C15 C14 1.383 . S
C15 C16 1.394 . S
C16 C15 1.394 . S
C16 C17 1.378 . S
C16 H38 0.931 . S
C17 C12 1.377 . S
C17 C16 1.378 . S
C17 H39 0.931 . S
C18 O28 1.259 . S
C18 O29 1.270 . S
C19 O30 1.251 . S
C19 O31 1.251 . S
O20 C0 1.257 . S
O20 Eu1 2.473 . S
O21 C0 1.260 . S
O21 Eu1 2.480 . S
O22 Eu1 2.430 1_655 S
O22 C8 1.259 . S
O23 Eu1 2.670 1_655 S
O23 C8 1.270 . S
O23 Eu11 2.355 1_564 S
O24 Eu1 2.394 1_655 S
O24 C9 1.251 1_554 S
O25 C9 1.251 . S
O25 Eu11 2.374 1_565 S
O26 C10 1.257 . S
O26 Eu11 2.473 . S
O27 C10 1.260 1_455 S
O27 Eu11 2.480 1_455 S
O28 Eu11 2.430 1_455 S
O28 C18 1.259 . S
O29 Eu1 2.355 1_546 S
O29 Eu11 2.670 1_455 S
O29 C18 1.270 . S
O30 Eu11 2.394 1_454 S
O30 C19 1.251 . S
O31 Eu1 2.374 1_545 S
O31 C19 1.251 . S
H32 C3 0.931 1_655 S
H33 C4 0.931 . S
H34 C6 0.931 . S
H35 C7 0.931 . S
H36 C13 0.931 1_455 S
H37 C14 0.931 1_455 S
H38 C16 0.931 . S
H39 C17 0.931 . S
C40 Eu41 2.835 . S
C40 C42 1.500 . S
C40 O60 1.257 . S
C40 O61 1.260 . S
Eu41 C40 2.835 . S
Eu41 O60 2.473 . S
Eu41 O61 2.480 . S
Eu41 O62 2.430 . S
Eu41 O63 2.670 1_655 S
Eu41 O64 2.394 . S
Eu41 O69 2.355 1_665 S
Eu41 O71 2.374 1_655 S
C42 C40 1.500 . S
C42 C43 1.377 . S
C42 C47 1.377 . S
C43 C42 1.377 . S
C43 C44 1.395 . S
C43 H72 0.931 . S
C44 C43 1.395 . S
C44 C45 1.383 . S
C44 H73 0.931 . S
C45 C44 1.383 . S
C45 C46 1.394 . S
C46 C45 1.394 . S
C46 C47 1.378 . S
C46 H74 0.931 . S
C47 C42 1.377 . S
C47 C46 1.378 . S
C47 H75 0.931 1_565 S
C48 O62 1.259 . S
C48 O63 1.270 1_655 S
C49 O64 1.251 1_545 S
C49 O65 1.251 . S
C50 Eu51 2.835 . S
C50 C52 1.500 . S
C50 O66 1.257 . S
C50 O67 1.260 . S
Eu51 C50 2.835 . S
Eu51 O63 2.355 1_545 S
Eu51 O65 2.374 1_455 S
Eu51 O66 2.473 . S
Eu51 O67 2.480 . S
Eu51 O68 2.430 . S
Eu51 O69 2.670 . S
Eu51 O70 2.394 . S
C52 C50 1.500 . S
C52 C53 1.377 . S
C52 C57 1.377 . S
C53 C52 1.377 . S
C53 C54 1.395 . S
C53 H76 0.931 . S
C54 C53 1.395 . S
C54 C55 1.383 . S
C54 H77 0.931 . S
C55 C54 1.383 . S
C55 C56 1.394 . S
C56 C55 1.394 . S
C56 C57 1.378 . S
C56 H78 0.931 . S
C57 C52 1.377 . S
C57 C56 1.378 . S
C57 H79 0.931 . S
C58 O68 1.259 . S
C58 O69 1.270 . S
C59 O70 1.251 1_565 S
C59 O71 1.251 . S
O60 C40 1.257 . S
O60 Eu41 2.473 . S
O61 C40 1.260 . S
O61 Eu41 2.480 . S
O62 Eu41 2.430 . S
O62 C48 1.259 . S
O63 Eu41 2.670 1_455 S
O63 C48 1.270 1_455 S
O63 Eu51 2.355 1_565 S
O64 Eu41 2.394 . S
O64 C49 1.251 1_565 S
O65 C49 1.251 . S
O65 Eu51 2.374 1_655 S
O66 C50 1.257 . S
O66 Eu51 2.473 . S
O67 C50 1.260 . S
O67 Eu51 2.480 . S
O68 Eu51 2.430 . S
O68 C58 1.259 . S
O69 Eu41 2.355 1_445 S
O69 Eu51 2.670 . S
O69 C58 1.270 . S
O70 Eu51 2.394 . S
O70 C59 1.251 1_545 S
O71 Eu41 2.374 1_455 S
O71 C59 1.251 . S
H72 C43 0.931 . S
H73 C44 0.931 . S
H74 C46 0.931 . S
H75 C47 0.931 1_545 S
H76 C53 0.931 . S
H77 C54 0.931 . S
H78 C56 0.931 . S
H79 C57 0.931 . S
Zn80 O86 1.920 . S
Zn80 O92 1.898 . S
Zn80 O95 1.905 . S
Zn81 O89 1.905 . S
Zn81 O90 1.898 . S
Zn81 O98 1.920 . S
Zn82 O85 2.080 . S
Zn82 O88 2.114 . S
Zn82 O91 2.120 . S
Zn82 O93 2.120 . S
Zn82 O94 2.114 . S
Zn82 O97 2.080 . S
C83 O88 1.166 . S
C83 O89 1.182 . S
C84 O90 1.167 . S
C84 O91 1.299 . S
O85 Zn82 2.080 . S
O85 C99 1.305 . S
O86 Zn80 1.920 . S
O86 C99 1.234 . S
C87 O92 1.167 . S
C87 O93 1.299 . S
O88 Zn82 2.114 . S
O88 C83 1.166 . S
O89 Zn81 1.905 . S
O89 C83 1.182 . S
O90 Zn81 1.898 . S
O90 C84 1.167 . S
O91 Zn82 2.120 . S
O91 C84 1.299 . S
O92 Zn80 1.898 . S
O92 C87 1.167 . S
O93 Zn82 2.120 . S
O93 C87 1.299 . S
O94 Zn82 2.114 . S
O94 C96 1.166 . S
O95 Zn80 1.905 . S
O95 C96 1.182 . S
C96 O94 1.166 . S
C96 O95 1.182 . S
O97 Zn82 2.080 . S
O97 C100 1.305 . S
O98 Zn81 1.920 . S
O98 C100 1.234 . S
C99 O85 1.305 . S
C99 O86 1.234 . S
C100 O97 1.305 . S
C100 O98 1.234 . S
Zn101 O107 1.920 . S
Zn101 O113 1.898 . S
Zn101 O116 1.905 . S
Zn102 O110 1.905 . S
Zn102 O111 1.898 . S
Zn102 O119 1.920 . S
Zn103 O106 2.080 . S
Zn103 O109 2.114 . S
Zn103 O112 2.120 . S
Zn103 O114 2.120 . S
Zn103 O115 2.114 . S
Zn103 O118 2.080 . S
C104 O109 1.166 . S
C104 O110 1.182 . S
C105 O111 1.167 . S
C105 O112 1.299 . S
O106 Zn103 2.080 . S
O106 C120 1.305 . S
O107 Zn101 1.920 . S
O107 C120 1.234 . S
C108 O113 1.167 . S
C108 O114 1.299 . S
O109 Zn103 2.114 . S
O109 C104 1.166 . S
O110 Zn102 1.905 . S
O110 C104 1.182 . S
O111 Zn102 1.898 . S
O111 C105 1.167 . S
O112 Zn103 2.120 . S
O112 C105 1.299 . S
O113 Zn101 1.898 . S
O113 C108 1.167 . S
O114 Zn103 2.120 . S
O114 C108 1.299 . S
O115 Zn103 2.114 . S
O115 C117 1.166 . S
O116 Zn101 1.905 . S
O116 C117 1.182 . S
C117 O115 1.166 . S
C117 O116 1.182 . S
O118 Zn103 2.080 . S
O118 C121 1.305 . S
O119 Zn102 1.920 . S
O119 C121 1.234 . S
C120 O106 1.305 . S
C120 O107 1.234 . S
C121 O118 1.305 . S
C121 O119 1.234 . S
C122 C123 1.386 . S
C122 C124 1.383 . S
C122 H138 0.951 . S
C123 C122 1.386 . S
C123 C127 1.383 . S
C124 C122 1.383 . S
C124 C125 1.402 . S
C124 H139 0.951 . S
C125 C124 1.402 . S
C125 C126 1.375 . S
C125 C128 1.481 . S
C126 C125 1.375 . S
C126 C127 1.367 . S
C126 H140 0.951 . S
C127 C123 1.383 . S
C127 C126 1.367 . S
C127 H141 0.950 . S
C128 C125 1.481 . S
C128 C129 1.297 . S
C128 H142 0.950 . S
C129 C128 1.297 . S
C129 C130 1.479 . S
C129 H143 0.950 . S
C130 C129 1.479 . S
C130 C131 1.375 . S
C130 C136 1.404 . S
C131 C130 1.375 . S
C131 C132 1.369 . S
C131 H144 0.950 . S
C132 C131 1.369 . S
C132 C133 1.392 . S
C132 H145 0.951 . S
C133 C132 1.392 . S
C133 C135 1.384 . S
H134 C136 0.949 . S
C135 C133 1.384 . S
C135 C136 1.385 . S
C135 H137 0.950 . S
C136 C130 1.404 . S
C136 H134 0.949 . S
C136 C135 1.385 . S
H137 C135 0.950 . S
H138 C122 0.951 . S
H139 C124 0.951 . S
H140 C126 0.951 . S
H141 C127 0.950 . S
H142 C128 0.950 . S
H143 C129 0.950 . S
H144 C131 0.950 . S
H145 C132 0.951 . S
C146 C147 1.386 . S
C146 C148 1.383 . S
C146 H162 0.951 . S
C147 C146 1.386 . S
C147 C151 1.383 . S
C148 C146 1.383 . S
C148 C149 1.402 . S
C148 H163 0.951 . S
C149 C148 1.402 . S
C149 C150 1.375 . S
C149 C152 1.481 . S
C150 C149 1.375 . S
C150 C151 1.367 . S
C150 H164 0.951 . S
C151 C147 1.383 . S
C151 C150 1.367 . S
C151 H165 0.950 . S
C152 C149 1.481 . S
C152 C153 1.297 . S
C152 H166 0.950 . S
C153 C152 1.297 . S
C153 C154 1.479 . S
C153 H167 0.950 . S
C154 C153 1.479 . S
C154 C155 1.375 . S
C154 C160 1.404 . S
C155 C154 1.375 . S
C155 C156 1.369 . S
C155 H168 0.950 . S
C156 C155 1.369 . S
C156 C157 1.392 . S
C156 H169 0.951 . S
C157 C156 1.392 . S
C157 C159 1.384 . S
H158 C160 0.949 . S
C159 C157 1.384 . S
C159 C160 1.385 . S
C159 H161 0.950 . S
C160 C154 1.404 . S
C160 H158 0.949 . S
C160 C159 1.385 . S
H161 C159 0.950 . S
H162 C146 0.951 . S
H163 C148 0.951 . S
H164 C150 0.951 . S
H165 C151 0.950 . S
H166 C152 0.950 . S
H167 C153 0.950 . S
H168 C155 0.950 . S
H169 C156 0.951 . S
C170 C171 1.386 . S
C170 C172 1.383 . S
C170 H186 0.951 . S
C171 C170 1.386 . S
C171 C175 1.383 . S
C172 C170 1.383 . S
C172 C173 1.402 . S
C172 H187 0.951 . S
C173 C172 1.402 . S
C173 C174 1.375 . S
C173 C176 1.481 . S
C174 C173 1.375 . S
C174 C175 1.367 . S
C174 H188 0.951 . S
C175 C171 1.383 . S
C175 C174 1.367 . S
C175 H189 0.950 . S
C176 C173 1.481 . S
C176 C177 1.297 . S
C176 H190 0.950 . S
C177 C176 1.297 . S
C177 C178 1.479 . S
C177 H191 0.950 . S
C178 C177 1.479 . S
C178 C179 1.375 . S
C178 C184 1.404 . S
C179 C178 1.375 . S
C179 C180 1.369 . S
C179 H192 0.950 . S
C180 C179 1.369 . S
C180 C181 1.392 . S
C180 H193 0.951 . S
C181 C180 1.392 . S
C181 C183 1.384 . S
H182 C184 0.949 . S
C183 C181 1.384 . S
C183 C184 1.385 . S
C183 H185 0.950 . S
C184 C178 1.404 . S
C184 H182 0.949 . S
C184 C183 1.385 . S
H185 C183 0.950 . S
H186 C170 0.951 . S
H187 C172 0.951 . S
H188 C174 0.951 . S
H189 C175 0.950 . S
H190 C176 0.950 . S
H191 C177 0.950 . S
H192 C179 0.950 . S
H193 C180 0.951 . S
C194 C195 1.386 . S
C194 C196 1.383 . S
C194 H210 0.951 . S
C195 C194 1.386 . S
C195 C199 1.383 . S
C196 C194 1.383 . S
C196 C197 1.402 . S
C196 H211 0.951 . S
C197 C196 1.402 . S
C197 C198 1.375 . S
C197 C200 1.481 . S
C198 C197 1.375 . S
C198 C199 1.367 . S
C198 H212 0.951 . S
C199 C195 1.383 . S
C199 C198 1.367 . S
C199 H213 0.950 . S
C200 C197 1.481 . S
C200 C201 1.297 . S
C200 H214 0.950 . S
C201 C200 1.297 . S
C201 C202 1.479 . S
C201 H215 0.950 . S
C202 C201 1.479 . S
C202 C203 1.375 . S
C202 C208 1.404 . S
C203 C202 1.375 . S
C203 C204 1.369 . S
C203 H216 0.950 . S
C204 C203 1.369 . S
C204 C205 1.392 . S
C204 H217 0.951 . S
C205 C204 1.392 . S
C205 C207 1.384 . S
H206 C208 0.949 . S
C207 C205 1.384 . S
C207 C208 1.385 . S
C207 H209 0.950 . S
C208 C202 1.404 . S
C208 H206 0.949 . S
C208 C207 1.385 . S
H209 C207 0.950 . S
H210 C194 0.951 . S
H211 C196 0.951 . S
H212 C198 0.951 . S
H213 C199 0.950 . S
H214 C200 0.950 . S
H215 C201 0.950 . S
H216 C203 0.950 . S
H217 C204 0.951 . S
C218 C219 1.386 . S
C218 C220 1.383 . S
C218 H234 0.951 . S
C219 C218 1.386 . S
C219 C223 1.383 . S
C220 C218 1.383 . S
C220 C221 1.402 . S
C220 H235 0.951 . S
C221 C220 1.402 . S
C221 C222 1.375 . S
C221 C224 1.481 . S
C222 C221 1.375 . S
C222 C223 1.367 . S
C222 H236 0.951 . S
C223 C219 1.383 . S
C223 C222 1.367 . S
C223 H237 0.950 . S
C224 C221 1.481 . S
C224 C225 1.297 . S
C224 H238 0.950 . S
C225 C224 1.297 . S
C225 C226 1.479 . S
C225 H239 0.950 . S
C226 C225 1.479 . S
C226 C227 1.375 . S
C226 C232 1.404 . S
C227 C226 1.375 . S
C227 C228 1.369 . S
C227 H240 0.950 . S
C228 C227 1.369 . S
C228 C229 1.392 . S
C228 H241 0.951 . S
C229 C228 1.392 . S
C229 C231 1.384 . S
H230 C232 0.949 . S
C231 C229 1.384 . S
C231 C232 1.385 . S
C231 H233 0.950 . S
C232 C226 1.404 . S
C232 H230 0.949 . S
C232 C231 1.385 . S
H233 C231 0.950 . S
H234 C218 0.951 . S
H235 C220 0.951 . S
H236 C222 0.951 . S
H237 C223 0.950 . S
H238 C224 0.950 . S
H239 C225 0.950 . S
H240 C227 0.950 . S
H241 C228 0.951 . S
C242 C243 1.386 . S
C242 C244 1.383 . S
C242 H258 0.951 . S
C243 C242 1.386 . S
C243 C247 1.383 . S
C244 C242 1.383 . S
C244 C245 1.402 . S
C244 H259 0.951 . S
C245 C244 1.402 . S
C245 C246 1.375 . S
C245 C248 1.481 . S
C246 C245 1.375 . S
C246 C247 1.367 . S
C246 H260 0.951 . S
C247 C243 1.383 . S
C247 C246 1.367 . S
C247 H261 0.950 . S
C248 C245 1.481 . S
C248 C249 1.297 . S
C248 H262 0.950 . S
C249 C248 1.297 . S
C249 C250 1.479 . S
C249 H263 0.950 . S
C250 C249 1.479 . S
C250 C251 1.375 . S
C250 C256 1.404 . S
C251 C250 1.375 . S
C251 C252 1.369 . S
C251 H264 0.950 . S
C252 C251 1.369 . S
C252 C253 1.392 . S
C252 H265 0.951 . S
C253 C252 1.392 . S
C253 C255 1.384 . S
H254 C256 0.949 . S
C255 C253 1.384 . S
C255 C256 1.385 . S
C255 H257 0.950 . S
C256 C250 1.404 . S
C256 H254 0.949 . S
C256 C255 1.385 . S
H257 C255 0.950 . S
H258 C242 0.951 . S
H259 C244 0.951 . S
H260 C246 0.951 . S
H261 C247 0.950 . S
H262 C248 0.950 . S
H263 C249 0.950 . S
H264 C251 0.950 . S
H265 C252 0.951 . S
C266 C267 1.386 . S
C266 C268 1.383 . S
C266 H282 0.951 . S
C267 C266 1.386 . S
C267 C271 1.383 . S
C268 C266 1.383 . S
C268 C269 1.402 . S
C268 H283 0.951 . S
C269 C268 1.402 . S
C269 C270 1.375 . S
C269 C272 1.481 . S
C270 C269 1.375 . S
C270 C271 1.367 . S
C270 H284 0.951 . S
C271 C267 1.383 . S
C271 C270 1.367 . S
C271 H285 0.950 . S
C272 C269 1.481 . S
C272 C273 1.297 . S
C272 H286 0.950 . S
C273 C272 1.297 . S
C273 C274 1.479 . S
C273 H287 0.950 . S
C274 C273 1.479 . S
C274 C275 1.375 . S
C274 C280 1.404 . S
C275 C274 1.375 . S
C275 C276 1.369 . S
C275 H288 0.950 . S
C276 C275 1.369 . S
C276 C277 1.392 . S
C276 H289 0.951 . S
C277 C276 1.392 . S
C277 C279 1.384 . S
H278 C280 0.949 . S
C279 C277 1.384 . S
C279 C280 1.385 . S
C279 H281 0.950 . S
C280 C274 1.404 . S
C280 H278 0.949 . S
C280 C279 1.385 . S
H281 C279 0.950 . S
H282 C266 0.951 . S
H283 C268 0.951 . S
H284 C270 0.951 . S
H285 C271 0.950 . S
H286 C272 0.950 . S
H287 C273 0.950 . S
H288 C275 0.950 . S
H289 C276 0.951 . S
C290 C291 1.386 . S
C290 C292 1.383 . S
C290 H306 0.951 . S
C291 C290 1.386 . S
C291 C295 1.383 . S
C292 C290 1.383 . S
C292 C293 1.402 . S
C292 H307 0.951 . S
C293 C292 1.402 . S
C293 C294 1.375 . S
C293 C296 1.481 . S
C294 C293 1.375 . S
C294 C295 1.367 . S
C294 H308 0.951 . S
C295 C291 1.383 . S
C295 C294 1.367 . S
C295 H309 0.950 . S
C296 C293 1.481 . S
C296 C297 1.297 . S
C296 H310 0.950 . S
C297 C296 1.297 . S
C297 C298 1.479 . S
C297 H311 0.950 . S
C298 C297 1.479 . S
C298 C299 1.375 . S
C298 C304 1.404 . S
C299 C298 1.375 . S
C299 C300 1.369 . S
C299 H312 0.950 . S
C300 C299 1.369 . S
C300 C301 1.392 . S
C300 H313 0.951 . S
C301 C300 1.392 . S
C301 C303 1.384 . S
H302 C304 0.949 . S
C303 C301 1.384 . S
C303 C304 1.385 . S
C303 H305 0.950 . S
C304 C298 1.404 . S
C304 H302 0.949 . S
C304 C303 1.385 . S
H305 C303 0.950 . S
H306 C290 0.951 . S
H307 C292 0.951 . S
H308 C294 0.951 . S
H309 C295 0.950 . S
H310 C296 0.950 . S
H311 C297 0.950 . S
H312 C299 0.950 . S
H313 C300 0.951 . S
C314 C315 1.386 . S
C314 C316 1.383 . S
C314 H330 0.951 . S
C315 C314 1.386 . S
C315 C319 1.383 . S
C316 C314 1.383 . S
C316 C317 1.402 . S
C316 H331 0.951 . S
C317 C316 1.402 . S
C317 C318 1.375 . S
C317 C320 1.481 . S
C318 C317 1.375 . S
C318 C319 1.367 . S
C318 H332 0.951 . S
C319 C315 1.383 . S
C319 C318 1.367 . S
C319 H333 0.950 . S
C320 C317 1.481 . S
C320 C321 1.297 . S
C320 H334 0.950 . S
C321 C320 1.297 . S
C321 C322 1.479 . S
C321 H335 0.950 . S
C322 C321 1.479 . S
C322 C323 1.375 . S
C322 C328 1.404 . S
C323 C322 1.375 . S
C323 C324 1.369 . S
C323 H336 0.950 . S
C324 C323 1.369 . S
C324 C325 1.392 . S
C324 H337 0.951 . S
C325 C324 1.392 . S
C325 C327 1.384 . S
H326 C328 0.949 . S
C327 C325 1.384 . S
C327 C328 1.385 . S
C327 H329 0.950 . S
C328 C322 1.404 . S
C328 H326 0.949 . S
C328 C327 1.385 . S
H329 C327 0.950 . S
H330 C314 0.951 . S
H331 C316 0.951 . S
H332 C318 0.951 . S
H333 C319 0.950 . S
H334 C320 0.950 . S
H335 C321 0.950 . S
H336 C323 0.950 . S
H337 C324 0.951 . S
C338 C339 1.386 . S
C338 C340 1.383 . S
C338 H354 0.951 . S
C339 C338 1.386 . S
C339 C343 1.383 . S
C340 C338 1.383 . S
C340 C341 1.402 . S
C340 H355 0.951 . S
C341 C340 1.402 . S
C341 C342 1.375 . S
C341 C344 1.481 . S
C342 C341 1.375 . S
C342 C343 1.367 . S
C342 H356 0.951 . S
C343 C339 1.383 . S
C343 C342 1.367 . S
C343 H357 0.950 . S
C344 C341 1.481 . S
C344 C345 1.297 . S
C344 H358 0.950 . S
C345 C344 1.297 . S
C345 C346 1.479 . S
C345 H359 0.950 . S
C346 C345 1.479 . S
C346 C347 1.375 . S
C346 C352 1.404 . S
C347 C346 1.375 . S
C347 C348 1.369 . S
C347 H360 0.950 . S
C348 C347 1.369 . S
C348 C349 1.392 . S
C348 H361 0.951 . S
C349 C348 1.392 . S
C349 C351 1.384 . S
H350 C352 0.949 . S
C351 C349 1.384 . S
C351 C352 1.385 . S
C351 H353 0.950 . S
C352 C346 1.404 . S
C352 H350 0.949 . S
C352 C351 1.385 . S
H353 C351 0.950 . S
H354 C338 0.951 . S
H355 C340 0.951 . S
H356 C342 0.951 . S
H357 C343 0.950 . S
H358 C344 0.950 . S
H359 C345 0.950 . S
H360 C347 0.950 . S
H361 C348 0.951 . S
C362 C363 1.386 . S
C362 C364 1.383 . S
C362 H378 0.951 . S
C363 C362 1.386 . S
C363 C367 1.383 . S
C364 C362 1.383 . S
C364 C365 1.402 . S
C364 H379 0.951 . S
C365 C364 1.402 . S
C365 C366 1.375 . S
C365 C368 1.481 . S
C366 C365 1.375 . S
C366 C367 1.367 . S
C366 H380 0.951 . S
C367 C363 1.383 . S
C367 C366 1.367 . S
C367 H381 0.950 . S
C368 C365 1.481 . S
C368 C369 1.297 . S
C368 H382 0.950 . S
C369 C368 1.297 . S
C369 C370 1.479 . S
C369 H383 0.950 . S
C370 C369 1.479 . S
C370 C371 1.375 . S
C370 C376 1.404 . S
C371 C370 1.375 . S
C371 C372 1.369 . S
C371 H384 0.950 . S
C372 C371 1.369 . S
C372 C373 1.392 . S
C372 H385 0.951 . S
C373 C372 1.392 . S
C373 C375 1.384 . S
H374 C376 0.949 . S
C375 C373 1.384 . S
C375 C376 1.385 . S
C375 H377 0.950 . S
C376 C370 1.404 . S
C376 H374 0.949 . S
C376 C375 1.385 . S
H377 C375 0.950 . S
H378 C362 0.951 . S
H379 C364 0.951 . S
H380 C366 0.951 . S
H381 C367 0.950 . S
H382 C368 0.950 . S
H383 C369 0.950 . S
H384 C371 0.950 . S
H385 C372 0.951 . S
C386 C387 1.386 . S
C386 C388 1.383 . S
C386 H402 0.951 . S
C387 C386 1.386 . S
C387 C391 1.380 1_655 S
C388 C386 1.383 . S
C388 C389 1.402 . S
C388 H403 0.951 . S
C389 C388 1.402 . S
C389 C390 1.375 . S
C389 C392 1.481 . S
C390 C389 1.375 . S
C390 C391 1.367 1_655 S
C390 H404 0.951 1_655 S
C391 C387 1.380 1_455 S
C391 C390 1.367 1_455 S
C391 H405 0.953 . S
C392 C389 1.481 . S
C392 C393 1.297 . S
C392 H406 0.950 . S
C393 C392 1.297 . S
C393 C394 1.479 . S
C393 H407 0.950 . S
C394 C393 1.479 . S
C394 C395 1.375 . S
C394 C400 1.404 . S
C395 C394 1.375 . S
C395 C396 1.369 . S
C395 H408 0.950 . S
C396 C395 1.369 . S
C396 C397 1.392 . S
C396 H409 0.951 . S
C397 C396 1.392 . S
C397 C399 1.384 . S
H398 C400 0.949 . S
C399 C397 1.384 . S
C399 C400 1.385 . S
C399 H401 0.950 . S
C400 C394 1.404 . S
C400 H398 0.949 . S
C400 C399 1.385 . S
H401 C399 0.950 . S
H402 C386 0.951 . S
H403 C388 0.951 . S
H404 C390 0.951 1_455 S
H405 C391 0.953 . S
H406 C392 0.950 . S
H407 C393 0.950 . S
H408 C395 0.950 . S
H409 C396 0.951 . S
C123 C5 1.215 . S
C133 C99 1.030 . S
C147 C55 0.960 . S
C157 C105 0.772 . S
C171 C19 1.233 . S
C181 C96 1.164 . S
C195 C49 2.083 . S
C205 C121 1.892 . S
C219 C8 1.978 . S
C229 C87 1.901 . S
C253 C104 1.815 . S
C243 C48 1.921 . S
C267 C59 1.874 . S
C277 C100 1.743 . S
C301 C117 2.044 . S
C291 C18 2.120 . S
C325 C84 2.087 . S
C315 C58 2.213 . S
C349 C120 1.107 . S
C339 C15 1.337 . S
C373 C83 0.935 . S
C363 C45 0.987 . S
C397 C108 1.012 . S
C387 C9 1.024 . S
