# Generated by pormake.
# Topology ssa, (4,4)-cn, num edge types: 1
# Building blocks:
#     Node 0, Type 0, BuildingBlock: KOZSID_clean_sbu_0, # of connection points: 4
#     Node 1, Type 0, BuildingBlock: KOZSID_clean_sbu_0, # of connection points: 4
#     Node 2, Type 0, BuildingBlock: KOZSID_clean_sbu_0, # of connection points: 4
#     Node 3, Type 0, BuildingBlock: KOZSID_clean_sbu_0, # of connection points: 4
#     Node 4, Type 0, BuildingBlock: KOZSID_clean_sbu_0, # of connection points: 4
#     Node 5, Type 0, BuildingBlock: KOZSID_clean_sbu_0, # of connection points: 4
#     Node 6, Type 1, BuildingBlock: NAWXER_clean_sbu_0, # of connection points: 4
#     Node 7, Type 1, BuildingBlock: NAWXER_clean_sbu_0, # of connection points: 4
#     Node 8, Type 1, BuildingBlock: NAWXER_clean_sbu_0, # of connection points: 4
#     Node 9, Type 1, BuildingBlock: NAWXER_clean_sbu_0, # of connection points: 4
#     Node 10, Type 1, BuildingBlock: NAWXER_clean_sbu_0, # of connection points: 4
#     Node 11, Type 1, BuildingBlock: NAWXER_clean_sbu_0, # of connection points: 4
#     Edge 12, Type (0, 1), BuildingBlock: AJUNOK_clean_linker_0, # of connection points: 2
#     Edge 13, Type (0, 1), BuildingBlock: AJUNOK_clean_linker_0, # of connection points: 2
#     Edge 14, Type (0, 1), BuildingBlock: AJUNOK_clean_linker_0, # of connection points: 2
#     Edge 15, Type (0, 1), BuildingBlock: AJUNOK_clean_linker_0, # of connection points: 2
#     Edge 16, Type (0, 1), BuildingBlock: AJUNOK_clean_linker_0, # of connection points: 2
#     Edge 17, Type (0, 1), BuildingBlock: AJUNOK_clean_linker_0, # of connection points: 2
#     Edge 18, Type (0, 1), BuildingBlock: AJUNOK_clean_linker_0, # of connection points: 2
#     Edge 19, Type (0, 1), BuildingBlock: AJUNOK_clean_linker_0, # of connection points: 2
#     Edge 20, Type (0, 1), BuildingBlock: AJUNOK_clean_linker_0, # of connection points: 2
#     Edge 21, Type (0, 1), BuildingBlock: AJUNOK_clean_linker_0, # of connection points: 2
#     Edge 22, Type (0, 1), BuildingBlock: AJUNOK_clean_linker_0, # of connection points: 2
#     Edge 23, Type (0, 1), BuildingBlock: AJUNOK_clean_linker_0, # of connection points: 2
#     Edge 24, Type (0, 1), BuildingBlock: AJUNOK_clean_linker_0, # of connection points: 2
#     Edge 25, Type (0, 1), BuildingBlock: AJUNOK_clean_linker_0, # of connection points: 2
#     Edge 26, Type (0, 1), BuildingBlock: AJUNOK_clean_linker_0, # of connection points: 2
#     Edge 27, Type (0, 1), BuildingBlock: AJUNOK_clean_linker_0, # of connection points: 2
#     Edge 28, Type (0, 1), BuildingBlock: AJUNOK_clean_linker_0, # of connection points: 2
#     Edge 29, Type (0, 1), BuildingBlock: AJUNOK_clean_linker_0, # of connection points: 2
#     Edge 30, Type (0, 1), BuildingBlock: AJUNOK_clean_linker_0, # of connection points: 2
#     Edge 31, Type (0, 1), BuildingBlock: AJUNOK_clean_linker_0, # of connection points: 2
#     Edge 32, Type (0, 1), BuildingBlock: AJUNOK_clean_linker_0, # of connection points: 2
#     Edge 33, Type (0, 1), BuildingBlock: AJUNOK_clean_linker_0, # of connection points: 2
#     Edge 34, Type (0, 1), BuildingBlock: AJUNOK_clean_linker_0, # of connection points: 2
#     Edge 35, Type (0, 1), BuildingBlock: AJUNOK_clean_linker_0, # of connection points: 2
# Relax obj value: 0.013
# Max RMSD: 0.031
# Mean RMSD: 0.019
data_MOF--net-ssa--node1-KOZSID_clean_sbu_0--node2-NAWXER_clean_sbu_0--edge1-AJUNOK_clean_linker_0
_symmetry_space_group_name_H-M    P1
_symmetry_Int_Tables_number       1
_symmetry_cell_setting            triclinic
loop_
_symmetry_equiv_pos_as_xyz
'x, y, z'
_cell_length_a     37.424052
_cell_length_b     38.76483
_cell_length_c     31.657972
_cell_angle_alpha  86.609486
_cell_angle_beta   90.050765
_cell_angle_gamma 123.57279
loop_
_atom_site_label
_atom_site_type_symbol
_atom_site_fract_x
_atom_site_fract_y
_atom_site_fract_z
_atom_type_partial_charge
C0 C 0.9497 0.52161 0.99479 0.0
C1 C 0.91174 0.51101 0.01508 0.0
C2 C 0.90607 0.48604 0.0502 0.0
C3 C 0.94082 0.48293 0.04945 0.0
N4 N 0.9688 0.50504 0.01638 0.0
Co5 Co 0.02233 0.50734 1.00196 0.0
N6 N 0.01254 0.46826 0.05186 0.0
C7 C 0.97834 0.4487 0.07954 0.0
C8 C 0.9831 0.42813 0.11345 0.0
C9 C 0.02324 0.43612 0.1079 0.0
C10 C 0.04071 0.46096 0.07048 0.0
N11 N 0.07595 0.50995 0.98774 0.0
C12 C 0.0975 0.49779 0.01197 0.0
C13 C 0.13527 0.50781 0.99178 0.0
C14 C 0.13864 0.52872 0.95414 0.0
C15 C 0.10274 0.53001 0.95349 0.0
N16 N 0.03245 0.54675 0.95222 0.0
C17 C 0.06566 0.56455 0.92345 0.0
C18 C 0.06303 0.58852 0.89163 0.0
C19 C 0.02549 0.58528 0.90006 0.0
C20 C 0.00732 0.55943 0.93675 0.0
N21 N 0.05647 0.55453 0.03867 0.0
C22 C 0.11208 0.61073 0.09753 0.0
C23 C 0.12473 0.61632 0.05472 0.0
C24 C 0.09666 0.58791 0.026 0.0
C25 C 0.07005 0.57863 0.10949 0.0
C26 C 0.04282 0.55165 0.0797 0.0
N27 N 0.98807 0.45927 0.96559 0.0
C28 C 0.97715 0.42658 0.89913 0.0
C29 C 0.93658 0.39263 0.91333 0.0
C30 C 0.92276 0.39247 0.95436 0.0
C31 C 0.9487 0.42542 0.97964 0.0
C32 C 1.00207 0.45925 0.92546 0.0
H33 H 0.93572 0.42284 0.01033 0.0
H34 H 0.03223 0.48444 0.91232 0.0
H35 H 0.10857 0.59256 0.99407 0.0
H36 H 0.01127 0.52772 0.09103 0.0
C37 C 0.94643 0.45705 0.07732 0.0
C38 C 0.96466 0.5452 0.9537 0.0
C39 C 0.08541 0.48045 0.05569 0.0
C40 C 0.09688 0.55536 0.9252 0.0
H41 H 0.8898 0.51944 1.00474 0.0
H42 H 0.87905 0.47077 0.07275 0.0
H43 H 0.96149 0.41219 0.14082 0.0
H44 H 0.03848 0.42666 0.13038 0.0
H45 H 0.15903 0.50261 1.00411 0.0
H46 H 0.16554 0.54376 0.93145 0.0
H47 H 0.08493 0.60504 0.86456 0.0
H48 H 0.01229 0.5992 0.88058 0.0
H49 H 0.15676 0.6414 0.04382 0.0
H50 H 0.05828 0.57407 0.14194 0.0
H51 H 0.98917 0.42862 0.86735 0.0
H52 H 0.89171 0.36688 0.96703 0.0
C53 C 0.56529 1.00242 0.59663 0.0
C54 C 0.56158 0.98524 0.63743 0.0
C55 C 0.52023 0.9518 0.64338 0.0
C56 C 0.5009 0.95041 0.60617 0.0
N57 N 0.52768 0.9804 0.57641 0.0
Co58 Co 0.51127 0.99198 0.51947 0.0
N59 N 0.44886 0.94749 0.53102 0.0
C60 C 0.43081 0.92462 0.56797 0.0
C61 C 0.38856 0.89308 0.5651 0.0
C62 C 0.3795 0.89492 0.52357 0.0
C63 C 0.41681 0.92791 0.50327 0.0
N64 N 0.49507 1.0025 0.462 0.0
C65 C 0.45867 0.9779 0.44088 0.0
C66 C 0.46165 0.99425 0.39989 0.0
C67 C 0.50213 0.02925 0.39416 0.0
C68 C 0.52138 0.0324 0.43194 0.0
N69 N 0.57341 0.03699 0.5079 0.0
C70 C 0.59087 0.06231 0.47217 0.0
C71 C 0.63398 0.0917 0.47415 0.0
C72 C 0.6444 0.08569 0.51404 0.0
C73 C 0.60683 0.05307 0.53425 0.0
N74 N 0.51895 0.95035 0.4949 0.0
C75 C 0.51685 0.88871 0.44994 0.0
C76 C 0.54256 0.93052 0.43552 0.0
C77 C 0.54325 0.96055 0.45831 0.0
C78 C 0.49384 0.87836 0.48837 0.0
C79 C 0.49606 0.90964 0.51069 0.0
N80 N 0.50374 0.03407 0.54422 0.0
C81 C 0.52199 0.1048 0.54273 0.0
C82 C 0.51008 0.10004 0.58555 0.0
C83 C 0.49198 0.06081 0.60644 0.0
C84 C 0.48856 0.02842 0.58521 0.0
C85 C 0.51855 0.07174 0.52286 0.0
H86 H 0.47454 0.9994 0.60307 0.0
H87 H 0.52928 0.07792 0.49055 0.0
H88 H 0.56245 0.99163 0.44483 0.0
H89 H 0.47795 0.90003 0.53998 0.0
C90 C 0.45658 0.92653 0.60096 0.0
C91 C 0.6036 0.04169 0.57971 0.0
C92 C 0.42224 0.93706 0.45711 0.0
C93 C 0.56538 0.05904 0.43822 0.0
H94 H 0.58539 0.99664 0.66137 0.0
H95 H 0.50529 0.93263 0.67244 0.0
H96 H 0.36805 0.86895 0.58927 0.0
H97 H 0.34964 0.87252 0.50974 0.0
H98 H 0.43785 0.98087 0.37593 0.0
H99 H 0.51671 0.0484 0.36503 0.0
H100 H 0.65494 0.11571 0.4501 0.0
H101 H 0.67559 0.10451 0.52755 0.0
H102 H 0.56096 0.93993 0.40581 0.0
H103 H 0.47415 0.84635 0.50102 0.0
H104 H 0.53538 0.13442 0.52495 0.0
H105 H 0.48071 0.05513 0.63921 0.0
C106 C 0.55819 0.5212 0.94879 0.0
C107 C 0.56378 0.54026 0.90864 0.0
C108 C 0.52822 0.54117 0.90199 0.0
C109 C 0.50288 0.5224 0.93818 0.0
N110 N 0.52085 0.51112 0.96828 0.0
Co111 Co 0.49141 0.47471 0.02146 0.0
N112 N 0.43493 0.4664 1.00745 0.0
C113 C 0.42774 0.48465 0.9738 0.0
C114 C 0.38794 0.47834 0.97523 0.0
C115 C 0.36897 0.45579 0.01266 0.0
C116 C 0.39824 0.4492 0.03196 0.0
N117 N 0.46187 0.43624 0.07314 0.0
C118 C 0.42138 0.4186 0.0894 0.0
C119 C 0.41397 0.3937 0.12604 0.0
C120 C 0.45175 0.39739 0.13429 0.0
C121 C 0.4798 0.42376 0.10202 0.0
N122 N 0.54815 0.48437 0.03642 0.0
C123 C 0.55745 0.47181 0.07306 0.0
C124 C 0.59819 0.48006 0.07264 0.0
C125 C 0.61521 0.49751 0.0329 0.0
C126 C 0.58373 0.4988 0.01127 0.0
N127 N 0.50388 0.52304 0.0535 0.0
C128 C 0.50499 0.58376 0.10006 0.0
C129 C 0.50699 0.55195 0.12045 0.0
C130 C 0.50706 0.5225 0.09674 0.0
C131 C 0.50499 0.58611 0.05595 0.0
C132 C 0.50465 0.55588 0.03351 0.0
N133 N 0.47922 0.42727 0.98909 0.0
C134 C 0.50275 0.38275 0.97201 0.0
C135 C 0.49276 0.38434 0.92967 0.0
C136 C 0.47062 0.40294 0.91908 0.0
C137 C 0.46315 0.42313 0.94949 0.0
C138 C 0.4953 0.40403 1.00126 0.0
H139 H 0.44702 0.43771 0.93948 0.0
H140 H 0.50563 0.40386 0.03275 0.0
H141 H 0.50875 0.4991 0.11427 0.0
H142 H 0.50401 0.55946 1.00004 0.0
C143 C 0.46004 0.50983 0.94282 0.0
C144 C 0.58705 0.50985 0.96585 0.0
C145 C 0.39127 0.42924 0.07484 0.0
C146 C 0.52432 0.44275 0.10155 0.0
H147 H 0.58971 0.55041 0.88567 0.0
H148 H 0.52041 0.55153 0.87306 0.0
H149 H 0.37498 0.49036 0.95268 0.0
H150 H 0.33778 0.44679 0.02482 0.0
H151 H 0.38512 0.37698 0.14619 0.0
H152 H 0.45869 0.38465 0.162 0.0
H153 H 0.61224 0.47064 0.09677 0.0
H154 H 0.64606 0.50575 0.02031 0.0
H155 H 0.50838 0.54972 0.15461 0.0
H156 H 0.5042 0.61067 0.03875 0.0
H157 H 0.51887 0.36765 0.9819 0.0
H158 H 0.46042 0.40312 0.88708 0.0
C159 C 0.90331 0.40819 0.51342 0.0
C160 C 0.86624 0.37835 0.49465 0.0
C161 C 0.86911 0.39321 0.45344 0.0
C162 C 0.90775 0.43107 0.4494 0.0
N163 N 0.92939 0.44055 0.48532 0.0
Co164 Co 0.98461 0.49296 0.49509 0.0
N165 N 0.97786 0.52336 0.44601 0.0
C166 C 0.94988 0.50526 0.41499 0.0
C167 C 0.95355 0.53313 0.38366 0.0
C168 C 0.98656 0.57113 0.39497 0.0
C169 C 1.00139 0.56442 0.4328 0.0
N170 N 0.04016 0.54537 0.50527 0.0
C171 C 0.05808 0.5846 0.48761 0.0
C172 C 0.09802 0.61158 0.50399 0.0
C173 C 0.1061 0.5882 0.53135 0.0
C174 C 0.07065 0.54842 0.53058 0.0
N175 N 0.99064 0.46222 0.54392 0.0
C176 C 0.02702 0.47382 0.56382 0.0
C177 C 0.02003 0.44839 0.59929 0.0
C178 C 0.97657 0.41934 0.60199 0.0
C179 C 0.95934 0.42832 0.56754 0.0
N180 N 0.01518 0.47745 0.45751 0.0
C181 C 0.06374 0.4582 0.40725 0.0
C182 C 0.03239 0.42869 0.43733 0.0
C183 C 0.00834 0.43881 0.46181 0.0
C184 C 0.06908 0.49701 0.40243 0.0
C185 C 0.04493 0.50594 0.42766 0.0
N186 N 0.95403 0.50757 0.53322 0.0
C187 C 0.94185 0.5181 0.60481 0.0
C188 C 0.90068 0.50803 0.59554 0.0
C189 C 0.88809 0.5008 0.55346 0.0
C190 C 0.91515 0.50063 0.52287 0.0
C191 C 0.96819 0.51842 0.57319 0.0
H192 H 0.9035 0.4925 0.49146 0.0
H193 H 0.99909 0.52506 0.58192 0.0
H194 H 0.98475 0.41556 0.48482 0.0
H195 H 0.05101 0.53634 0.42312 0.0
C196 C 0.91926 0.4623 0.41741 0.0
C197 C 0.91349 0.40496 0.55763 0.0
C198 C 0.04232 0.5964 0.45043 0.0
C199 C 0.06345 0.51398 0.55564 0.0
H200 H 0.83958 0.34951 0.50949 0.0
H201 H 0.84454 0.37943 0.43026 0.0
H202 H 0.93487 0.52658 0.3556 0.0
H203 H 0.99959 0.60016 0.37627 0.0
H204 H 0.11991 0.64443 0.49546 0.0
H205 H 0.13449 0.59894 0.54953 0.0
H206 H 0.04309 0.45261 0.62257 0.0
H207 H 0.9598 0.39556 0.62745 0.0
H208 H 0.02718 0.39838 0.44286 0.0
H209 H 0.09216 0.52078 0.37928 0.0
H210 H 0.95335 0.52486 0.63662 0.0
H211 H 0.85657 0.49294 0.54474 0.0
C212 C 0.42424 0.99722 0.09421 0.0
C213 C 0.42412 0.01567 0.13042 0.0
C214 C 0.46254 0.05305 0.12993 0.0
C215 C 0.48381 0.05531 0.09358 0.0
N216 N 0.46112 0.02186 0.07047 0.0
Co217 Co 0.4805 0.01212 0.01596 0.0
N218 N 0.53693 0.06725 0.0152 0.0
C219 C 0.55152 0.09467 0.04553 0.0
C220 C 0.58991 0.13119 0.03465 0.0
C221 C 0.59991 0.12736 0.9945 0.0
C222 C 0.56687 0.08858 0.98319 0.0
N223 N 0.5 1.00295 0.96114 0.0
C224 C 0.53346 0.03047 0.93424 0.0
C225 C 0.53368 0.01257 0.89768 0.0
C226 C 0.49845 0.97268 0.90102 0.0
C227 C 0.47878 0.96848 0.93929 0.0
N228 N 0.4239 0.95727 0.01638 0.0
C229 C 0.41077 0.92875 0.9873 0.0
C230 C 0.37084 0.89353 0.99661 0.0
C231 C 0.35784 0.89973 0.03409 0.0
C232 C 0.39071 0.93853 0.04552 0.0
N233 N 0.45604 0.03921 0.983 0.0
C234 C 0.43979 0.0871 0.92581 0.0
C235 C 0.42693 0.04692 0.91739 0.0
C236 C 0.43486 0.02345 0.94649 0.0
C237 C 0.45624 0.10086 0.96553 0.0
C238 C 0.46413 0.07663 0.99343 0.0
N239 N 0.50524 0.98456 0.04901 0.0
C240 C 0.51122 0.92553 0.06283 0.0
C241 C 0.53303 0.94118 0.1 0.0
C242 C 0.5422 0.97988 0.1102 0.0
C243 C 0.52829 1.00083 0.08454 0.0
C244 C 0.49785 0.94741 0.03815 0.0
H245 H 0.5362 0.02992 0.09449 0.0
H246 H 0.48088 0.93308 0.0108 0.0
H247 H 0.4257 0.99353 0.93774 0.0
H248 H 0.47885 0.08969 0.02229 0.0
C249 C 0.5255 0.08785 0.08084 0.0
C250 C 0.38975 0.95514 0.08545 0.0
C251 C 0.56387 0.07441 0.94083 0.0
C252 C 0.43744 0.9353 0.95253 0.0
H253 H 0.39916 1.00292 0.15509 0.0
H254 H 0.47395 0.07554 0.15365 0.0
H255 H 0.6072 0.15836 0.05271 0.0
H256 H 0.62742 0.1511 0.97507 0.0
H257 H 0.55594 0.0274 0.87062 0.0
H258 H 0.48706 0.9503 0.87719 0.0
H259 H 0.35361 0.86623 0.97872 0.0
H260 H 0.32793 0.87789 0.0515 0.0
H261 H 0.41344 0.03467 0.88733 0.0
H262 H 0.46539 0.13131 0.97404 0.0
H263 H 0.50327 0.89575 0.0533 0.0
H264 H 0.56003 0.99408 0.138 0.0
C265 C 0.56269 0.62734 0.48411 0.0
C266 C 0.55406 0.65545 0.49766 0.0
C267 C 0.52857 0.63739 0.53367 0.0
C268 C 0.52305 0.59937 0.53994 0.0
N269 N 0.54452 0.59258 0.51079 0.0
Co270 Co 0.54102 0.53958 0.50445 0.0
N271 N 0.49844 0.51026 0.55358 0.0
C272 C 0.48297 0.52682 0.57832 0.0
C273 C 0.45717 0.50043 0.61178 0.0
C274 C 0.45688 0.46525 0.60884 0.0
C275 C 0.48251 0.47216 0.57356 0.0
N276 N 0.53654 0.48625 0.49711 0.0
C277 C 0.51548 0.44986 0.52136 0.0
C278 C 0.52156 0.42085 0.50533 0.0
C279 C 0.54826 0.43987 0.4703 0.0
C280 C 0.55679 0.4792 0.46684 0.0
N281 N 0.58446 0.56898 0.45621 0.0
C282 C 0.60243 0.55348 0.43356 0.0
C283 C 0.62977 0.58039 0.40117 0.0
C284 C 0.62842 0.61479 0.40262 0.0
C285 C 0.60023 0.60677 0.43593 0.0
N286 N 0.58815 0.55626 0.54473 0.0
C287 C 0.64866 0.57239 0.60705 0.0
C288 C 0.64879 0.55499 0.56967 0.0
C289 C 0.61846 0.54725 0.53907 0.0
C290 C 0.6194 0.58356 0.61165 0.0
C291 C 0.58988 0.57544 0.58043 0.0
N292 N 0.49406 0.52366 0.46432 0.0
C293 C 0.46743 0.50919 0.39336 0.0
C294 C 0.43591 0.51659 0.40309 0.0
C295 C 0.43233 0.52504 0.44446 0.0
C296 C 0.46099 0.52771 0.47446 0.0
C297 C 0.49614 0.51301 0.42424 0.0
H298 H 0.45631 0.53408 0.50542 0.0
H299 H 0.5204 0.50824 0.4148 0.0
H300 H 0.61947 0.53308 0.51163 0.0
H301 H 0.5682 0.5842 0.58658 0.0
C302 C 0.4952 0.56802 0.57057 0.0
C303 C 0.58573 0.63378 0.44416 0.0
C304 C 0.49263 0.4425 0.56167 0.0
C305 C 0.58767 0.51156 0.43905 0.0
H306 H 0.56398 0.68526 0.48218 0.0
H307 H 0.51416 0.6497 0.55196 0.0
H308 H 0.44157 0.50656 0.63622 0.0
H309 H 0.4406 0.43797 0.63075 0.0
H310 H 0.50935 0.38974 0.51866 0.0
H311 H 0.56158 0.42722 0.45093 0.0
H312 H 0.64647 0.57464 0.3776 0.0
H313 H 0.64461 0.64182 0.3804 0.0
H314 H 0.67107 0.54592 0.56478 0.0
H315 H 0.61865 0.59779 0.6398 0.0
H316 H 0.47065 0.50163 0.36178 0.0
H317 H 0.40741 0.52959 0.45367 0.0
C318 C 0.30812 0.50014 0.2852 0.0
C319 C 0.20855 0.48885 0.17572 0.0
O320 O 0.27662 0.46293 0.27987 0.0
Zn321 Zn 0.22055 0.43067 0.24256 0.0
O322 O 0.31 0.53039 0.26454 0.0
Zn323 Zn 0.25898 0.4974 0.23157 0.0
O324 O 0.20849 0.47456 0.27859 0.0
O325 O 0.17212 0.40638 0.28521 0.0
O326 O 0.24162 0.52229 0.18711 0.0
O327 O 0.19868 0.45421 0.19413 0.0
O328 O 0.23527 0.39796 0.20941 0.0
O329 O 0.27963 0.46567 0.19615 0.0
C330 C 0.17745 0.44003 0.2961 0.0
C331 C 0.26879 0.42873 0.19018 0.0
C332 C 0.78687 0.28578 0.68777 0.0
C333 C 0.68805 0.18936 0.80658 0.0
O334 O 0.75575 0.28641 0.70325 0.0
Zn335 Zn 0.73552 0.23999 0.74712 0.0
O336 O 0.79405 0.25914 0.70362 0.0
Zn337 Zn 0.77087 0.21018 0.75138 0.0
O338 O 0.75113 0.16229 0.71595 0.0
O339 O 0.71333 0.18982 0.70791 0.0
O340 O 0.71821 0.18501 0.79569 0.0
O341 O 0.68527 0.21738 0.78677 0.0
O342 O 0.7877 0.26735 0.78878 0.0
O343 O 0.82096 0.235 0.78865 0.0
C344 C 0.7209 0.16288 0.69795 0.0
C345 C 0.81801 0.26385 0.80191 0.0
C346 C 0.50978 0.78368 0.32271 0.0
C347 C 0.50549 0.70282 0.205 0.0
O348 O 0.5455 0.79652 0.30352 0.0
Zn349 Zn 0.57251 0.78312 0.25348 0.0
O350 O 0.47521 0.75291 0.30923 0.0
Zn351 Zn 0.50283 0.74307 0.26243 0.0
O352 O 0.53765 0.72453 0.29933 0.0
O353 O 0.60737 0.76856 0.28771 0.0
O354 O 0.47281 0.69635 0.22557 0.0
O355 O 0.54277 0.73384 0.21296 0.0
O356 O 0.59564 0.83314 0.21424 0.0
O357 O 0.52503 0.79766 0.2215 0.0
C358 C 0.57604 0.73575 0.30719 0.0
C359 C 0.56039 0.82931 0.20563 0.0
C360 C 0.84259 0.5548 0.84561 0.0
C361 C 0.75398 0.57281 0.74169 0.0
O362 O 0.80823 0.5212 0.83596 0.0
Zn363 Zn 0.75431 0.5009 0.79781 0.0
O364 O 0.84991 0.58933 0.83015 0.0
Zn365 Zn 0.79917 0.56785 0.79471 0.0
O366 O 0.7462 0.54463 0.83913 0.0
O367 O 0.70502 0.47663 0.83914 0.0
O368 O 0.7892 0.60266 0.75517 0.0
O369 O 0.73914 0.53542 0.75556 0.0
O370 O 0.76368 0.46965 0.75664 0.0
O371 O 0.81117 0.53734 0.74853 0.0
C372 C 0.71241 0.51013 0.85309 0.0
C373 C 0.79621 0.50093 0.73669 0.0
C374 C 0.27635 0.84065 0.22521 0.0
C375 C 0.17298 0.73429 0.33539 0.0
O376 O 0.2432 0.83851 0.23937 0.0
Zn377 Zn 0.22371 0.79065 0.2812 0.0
O378 O 0.28461 0.81458 0.24032 0.0
Zn379 Zn 0.26131 0.76364 0.28564 0.0
O380 O 0.24762 0.71902 0.24838 0.0
O381 O 0.20734 0.74384 0.23793 0.0
O382 O 0.20525 0.73271 0.32579 0.0
O383 O 0.17048 0.76331 0.31781 0.0
O384 O 0.27402 0.81833 0.32584 0.0
O385 O 0.30904 0.78768 0.32487 0.0
C386 C 0.21806 0.71902 0.22829 0.0
C387 C 0.30463 0.81527 0.33909 0.0
C388 C 0.5265 0.31781 0.78846 0.0
C389 C 0.52451 0.23318 0.67701 0.0
O390 O 0.56004 0.32237 0.77188 0.0
Zn391 Zn 0.53003 0.28131 0.72949 0.0
O392 O 0.48965 0.29256 0.77379 0.0
Zn393 Zn 0.46044 0.24887 0.7266 0.0
O394 O 0.42422 0.1984 0.76622 0.0
O395 O 0.49379 0.22835 0.7718 0.0
O396 O 0.48771 0.22648 0.68596 0.0
O397 O 0.55772 0.26222 0.69393 0.0
O398 O 0.51029 0.31242 0.68833 0.0
O399 O 0.43985 0.27624 0.68797 0.0
C400 C 0.45553 0.19989 0.7844 0.0
C401 C 0.47596 0.30868 0.67545 0.0
C402 C 0.11539 0.44777 0.10153 0.0
C403 C 0.11857 0.48369 0.08469 0.0
C404 C 0.14504 0.45009 0.13026 0.0
C405 C 0.17982 0.48854 0.14278 0.0
H406 H 0.08941 0.41753 0.0928 0.0
H407 H 0.14029 0.42122 0.14297 0.0
S408 S 0.20616 0.59218 0.10204 0.0
N409 N 0.16128 0.55904 0.07895 0.0
N410 N 0.21776 0.56369 0.13229 0.0
C411 C 0.18469 0.5249 0.1242 0.0
C412 C 0.15403 0.5224 0.09523 0.0
C413 C 0.66096 0.06565 0.63488 0.0
C414 C 0.63503 0.07319 0.60883 0.0
C415 C 0.68946 0.09491 0.66303 0.0
C416 C 0.69355 0.1331 0.66577 0.0
H417 H 0.65897 0.03678 0.63371 0.0
H418 H 0.70779 0.08722 0.68326 0.0
S419 S 0.63793 0.17049 0.59901 0.0
N420 N 0.61814 0.12302 0.58497 0.0
N421 N 0.67246 0.17844 0.63584 0.0
C422 C 0.66932 0.14171 0.63809 0.0
C423 C 0.64004 0.11178 0.61012 0.0
C424 C 0.47078 0.602 0.15534 0.0
C425 C 0.50371 0.61477 0.12454 0.0
C426 C 0.46997 0.63077 0.17982 0.0
C427 C 0.50237 0.67343 0.17459 0.0
H428 H 0.44548 0.56951 0.16053 0.0
H429 H 0.44474 0.61932 0.20403 0.0
S430 S 0.59406 0.72305 0.09595 0.0
N431 N 0.5681 0.67304 0.08864 0.0
N432 N 0.56691 0.72711 0.13421 0.0
C433 C 0.53462 0.68664 0.14276 0.0
C434 C 0.5352 0.65738 0.11783 0.0
C435 C 0.86399 0.47921 0.66789 0.0
C436 C 0.87079 0.50365 0.63004 0.0
C437 C 0.83719 0.47575 0.70147 0.0
C438 C 0.8169 0.4973 0.69874 0.0
H439 H 0.87968 0.46271 0.67162 0.0
H440 H 0.83394 0.4577 0.73039 0.0
S441 S 0.82353 0.565 0.60702 0.0
N442 N 0.85385 0.54885 0.59197 0.0
N443 N 0.80471 0.54328 0.65522 0.0
C444 C 0.82285 0.52123 0.66098 0.0
C445 C 0.8494 0.52415 0.6266 0.0
C446 C 0.31923 0.91801 0.12776 0.0
C447 C 0.36058 0.92637 0.12121 0.0
C448 C 0.29224 0.89122 0.16218 0.0
C449 C 0.30582 0.87191 0.19097 0.0
H450 H 0.3077 0.93212 0.10607 0.0
H451 H 0.26033 0.88493 0.16569 0.0
S452 S 0.41269 0.88621 0.18807 0.0
N453 N 0.41447 0.91491 0.14648 0.0
N454 N 0.3648 0.86521 0.21103 0.0
C455 C 0.34771 0.88107 0.18482 0.0
C456 C 0.37481 0.90811 0.14998 0.0
C457 C 0.44817 0.37004 0.59805 0.0
C458 C 0.48711 0.40929 0.59309 0.0
C459 C 0.44436 0.3377 0.62505 0.0
C460 C 0.47952 0.34334 0.64771 0.0
H461 H 0.42074 0.36414 0.58038 0.0
H462 H 0.41391 0.3079 0.62754 0.0
S463 S 0.58796 0.44181 0.6467 0.0
N464 N 0.56071 0.45269 0.61383 0.0
N465 N 0.5543 0.39288 0.66424 0.0
C466 C 0.51841 0.38306 0.64334 0.0
C467 C 0.52201 0.41573 0.61613 0.0
C468 C 0.47448 0.825 0.40892 0.0
C469 C 0.51406 0.85675 0.42388 0.0
C470 C 0.47273 0.80021 0.37708 0.0
C471 C 0.51049 0.80585 0.35995 0.0
H472 H 0.44495 0.82103 0.41997 0.0
H473 H 0.44186 0.77775 0.36473 0.0
S474 S 0.62114 0.87856 0.39634 0.0
N475 N 0.59082 0.88825 0.42424 0.0
N476 N 0.58805 0.84127 0.3661 0.0
C477 C 0.54983 0.83501 0.37789 0.0
C478 C 0.55148 0.86046 0.4095 0.0
C479 C 0.61357 0.47314 0.92569 0.0
C480 C 0.61985 0.5104 0.93794 0.0
C481 C 0.64356 0.47307 0.89872 0.0
C482 C 0.68153 0.51037 0.88334 0.0
H483 H 0.58506 0.4438 0.93678 0.0
H484 H 0.63672 0.44352 0.88972 0.0
S485 S 0.7139 0.61642 0.90863 0.0
N486 N 0.66723 0.58528 0.93432 0.0
N487 N 0.72378 0.58588 0.88424 0.0
C488 C 0.68842 0.54787 0.8964 0.0
C489 C 0.65769 0.54772 0.92356 0.0
C490 C 0.10875 0.63232 0.40317 0.0
C491 C 0.0749 0.63284 0.42153 0.0
C492 C 0.13987 0.6653 0.3759 0.0
C493 C 0.13869 0.70052 0.36518 0.0
H494 H 0.11134 0.60611 0.41 0.0
H495 H 0.165 0.66275 0.36284 0.0
S496 S 0.05635 0.71713 0.40493 0.0
N497 N 0.04183 0.67142 0.42755 0.0
N498 N 0.10011 0.73353 0.37554 0.0
C499 C 0.10476 0.70141 0.38317 0.0
C500 C 0.07302 0.66763 0.41145 0.0
C501 C 0.40712 0.10624 0.86604 0.0
C502 C 0.44227 0.1165 0.89144 0.0
C503 C 0.41082 0.13345 0.83197 0.0
C504 C 0.4501 0.17141 0.82153 0.0
H505 H 0.37662 0.07697 0.87253 0.0
H506 H 0.38308 0.1243 0.81322 0.0
S507 S 0.55212 0.2119 0.87797 0.0
N508 N 0.51744 0.16687 0.90348 0.0
N509 N 0.52497 0.21743 0.84021 0.0
C510 C 0.48539 0.18174 0.847 0.0
C511 C 0.48135 0.15448 0.88167 0.0
C512 C 0.37802 0.47699 0.35212 0.0
C513 C 0.40584 0.51434 0.37094 0.0
C514 C 0.34686 0.47306 0.32443 0.0
C515 C 0.34262 0.5065 0.31386 0.0
H516 H 0.37961 0.45026 0.35976 0.0
H517 H 0.32585 0.44336 0.31122 0.0
S518 S 0.41043 0.61211 0.35236 0.0
N519 N 0.42882 0.58604 0.37589 0.0
N520 N 0.37095 0.57908 0.32302 0.0
C521 C 0.3714 0.54454 0.33138 0.0
C522 C 0.40274 0.54831 0.36017 0.0
C523 C 0.8646 0.34697 0.88176 0.0
C524 C 0.90739 0.35878 0.88524 0.0
C525 C 0.83625 0.31588 0.85549 0.0
C526 C 0.84893 0.29445 0.83172 0.0
H527 H 0.85302 0.36247 0.89897 0.0
H528 H 0.80393 0.30872 0.85373 0.0
S529 S 0.95712 0.31228 0.83063 0.0
N530 N 0.96091 0.34578 0.86329 0.0
N531 N 0.90744 0.287 0.8142 0.0
C532 C 0.89142 0.3053 0.83547 0.0
C533 C 0.92064 0.33755 0.86195 0.0
C534 C 0.9363 0.58533 0.91832 0.0
C535 C 0.93366 0.54784 0.92609 0.0
C536 C 0.90698 0.5876 0.89221 0.0
C537 C 0.87373 0.55235 0.87326 0.0
H538 H 0.96121 0.61302 0.93251 0.0
H539 H 0.91022 0.6171 0.88713 0.0
S540 S 0.85473 0.44714 0.883 0.0
N541 N 0.89651 0.47528 0.91226 0.0
N542 N 0.84134 0.47884 0.86371 0.0
C543 C 0.87119 0.51471 0.88092 0.0
C544 C 0.90112 0.51263 0.9072 0.0
C545 C 0.34848 0.89021 0.42739 0.0
C546 C 0.39247 0.90542 0.42698 0.0
C547 C 0.32037 0.86057 0.39952 0.0
C548 C 0.33501 0.84504 0.36966 0.0
H549 H 0.33569 0.90167 0.44915 0.0
H550 H 0.2868 0.84984 0.4013 0.0
S551 S 0.44858 0.88111 0.34958 0.0
N552 N 0.45008 0.90628 0.39057 0.0
N553 N 0.39755 0.85134 0.33788 0.0
C554 C 0.37921 0.86127 0.36767 0.0
C555 C 0.40782 0.89139 0.39615 0.0
C556 C 0.52935 0.39402 0.8594 0.0
C557 C 0.50668 0.36843 0.89616 0.0
C558 C 0.53959 0.37868 0.82552 0.0
C559 C 0.52735 0.33724 0.82737 0.0
H560 H 0.53823 0.42584 0.85637 0.0
H561 H 0.55488 0.39859 0.7969 0.0
S562 S 0.46923 0.25805 0.91666 0.0
N563 N 0.47414 0.3002 0.93278 0.0
N564 N 0.49277 0.27134 0.869 0.0
C565 C 0.50625 0.31192 0.86448 0.0
C566 C 0.49616 0.32753 0.899 0.0
C567 C 0.13609 0.48178 0.37518 0.0
C568 C 0.09218 0.45019 0.38178 0.0
C569 C 0.16321 0.47736 0.3487 0.0
C570 C 0.14814 0.44091 0.32768 0.0
H571 H 0.14977 0.51066 0.39028 0.0
H572 H 0.1964 0.50321 0.34427 0.0
S573 S 0.03626 0.34805 0.33463 0.0
N574 N 0.03505 0.38053 0.36518 0.0
N575 N 0.08636 0.37193 0.31625 0.0
C576 C 0.10471 0.40833 0.33507 0.0
C577 C 0.07676 0.413 0.36187 0.0
C578 C 0.5869 0.12814 0.87955 0.0
C579 C 0.5954 0.10343 0.90639 0.0
C580 C 0.6171 0.15644 0.84776 0.0
C581 C 0.65681 0.16085 0.84161 0.0
H582 H 0.55667 0.12543 0.88313 0.0
H583 H 0.609 0.17452 0.82757 0.0
S584 S 0.69434 0.10365 0.9054 0.0
N585 N 0.64605 0.08559 0.92581 0.0
N586 N 0.70281 0.13815 0.86673 0.0
C587 C 0.66547 0.13624 0.86886 0.0
C588 C 0.6348 0.10771 0.90104 0.0
C589 C 0.54817 0.64548 0.38569 0.0
C590 C 0.58546 0.66064 0.40864 0.0
C591 C 0.54634 0.6697 0.35221 0.0
C592 C 0.58178 0.71023 0.34017 0.0
H593 H 0.52009 0.61464 0.39386 0.0
H594 H 0.51653 0.65649 0.33587 0.0
S595 S 0.68735 0.76375 0.3905 0.0
N596 N 0.65889 0.718 0.41727 0.0
N597 N 0.65568 0.76392 0.35417 0.0
C598 C 0.61965 0.72544 0.36257 0.0
C599 C 0.62139 0.7006 0.3969 0.0
C600 C 0.5005 0.15898 0.59162 0.0
C601 C 0.51646 0.13571 0.60815 0.0
C602 C 0.50461 0.19159 0.6133 0.0
C603 C 0.52632 0.20327 0.65147 0.0
H604 H 0.48342 0.151 0.56241 0.0
H605 H 0.49018 0.20746 0.60042 0.0
S606 S 0.57504 0.15324 0.7077 0.0
N607 N 0.55476 0.12678 0.66529 0.0
N608 N 0.56441 0.18937 0.70465 0.0
C609 C 0.54361 0.18117 0.66767 0.0
C610 C 0.53815 0.14707 0.6464 0.0
C611 C 0.3145 0.40159 0.09951 0.0
C612 C 0.35905 0.42629 0.10595 0.0
C613 C 0.28463 0.40049 0.12785 0.0
C614 C 0.29835 0.42381 0.16377 0.0
H615 H 0.30272 0.38349 0.07203 0.0
H616 H 0.25091 0.38253 0.12081 0.0
S617 S 0.41012 0.48738 0.19915 0.0
N618 N 0.41433 0.47079 0.15375 0.0
N619 N 0.3586 0.46823 0.20679 0.0
C620 C 0.34237 0.44659 0.17174 0.0
C621 C 0.37258 0.44785 0.14304 0.0
C622 C 0.87976 0.3399 0.60595 0.0
C623 C 0.87911 0.37378 0.589 0.0
C624 C 0.84951 0.31175 0.63724 0.0
C625 C 0.81639 0.31551 0.65249 0.0
H626 H 0.90418 0.33525 0.59519 0.0
H627 H 0.85252 0.28689 0.64973 0.0
S628 S 0.79556 0.39433 0.61187 0.0
N629 N 0.83954 0.40661 0.58533 0.0
N630 N 0.78207 0.35337 0.64393 0.0
C631 C 0.81367 0.34777 0.63369 0.0
C632 C 0.84495 0.37676 0.60187 0.0
C633 C 0.56265 0.8963 0.11101 0.0
C634 C 0.54451 0.91637 0.12824 0.0
C635 C 0.57015 0.8699 0.13647 0.0
C636 C 0.55911 0.862 0.18003 0.0
H637 H 0.57059 0.90057 0.0774 0.0
H638 H 0.58299 0.85428 0.12167 0.0
S639 S 0.51251 0.90744 0.24149 0.0
N640 N 0.51763 0.92738 0.19256 0.0
N641 N 0.53054 0.87711 0.23965 0.0
C642 C 0.54194 0.88243 0.19784 0.0
C643 C 0.53505 0.90983 0.17223 0.0
C644 C 0.72124 0.59735 0.6365 0.0
C645 C 0.67636 0.576 0.64257 0.0
C646 C 0.7472 0.59923 0.66979 0.0
C647 C 0.72891 0.57922 0.70987 0.0
H648 H 0.73624 0.61218 0.60572 0.0
H649 H 0.78136 0.61452 0.66351 0.0
S650 S 0.61335 0.51935 0.74205 0.0
N651 N 0.61514 0.53512 0.69202 0.0
N652 N 0.66359 0.53801 0.75391 0.0
C653 C 0.68428 0.55848 0.71641 0.0
C654 C 0.65808 0.55703 0.68294 0.0
C655 C 0.1615 0.68129 0.12483 0.0
C656 C 0.14209 0.63813 0.1297 0.0
C657 C 0.18705 0.70722 0.15644 0.0
C658 C 0.19542 0.69126 0.19355 0.0
H659 H 0.1556 0.69494 0.0971 0.0
H660 H 0.19998 0.74009 0.15203 0.0
S661 S 0.15428 0.58071 0.22051 0.0
N662 N 0.13378 0.58064 0.17424 0.0
N663 N 0.18346 0.62968 0.23251 0.0
C664 C 0.17767 0.64841 0.19804 0.0
C665 C 0.15054 0.62179 0.16646 0.0
loop_
_geom_bond_atom_site_label_1
_geom_bond_atom_site_label_2
_geom_bond_distance
_geom_bond_site_symmetry_2
_ccdc_geom_bond_type
C0 C1 1.443 . S
C0 N4 1.376 1_556 S
C0 C38 1.389 . S
C1 C0 1.443 . S
C1 C2 1.340 1_556 S
C1 H41 0.951 . S
C2 C1 1.340 1_554 S
C2 C3 1.439 . S
C2 H42 0.950 . S
C3 C2 1.439 . S
C3 N4 1.374 . S
C3 C37 1.395 . S
N4 C0 1.376 1_554 S
N4 C3 1.374 . S
N4 Co5 1.988 1_655 S
Co5 N4 1.988 1_455 S
Co5 N6 2.013 1_455 S
Co5 N11 2.029 1_554 S
Co5 N16 1.976 1_554 S
Co5 N21 2.296 . S
Co5 N27 2.269 1_454 S
N6 Co5 2.013 1_655 S
N6 C7 1.376 . S
N6 C10 1.383 1_655 S
C7 N6 1.376 . S
C7 C8 1.446 . S
C7 C37 1.391 . S
C8 C7 1.446 . S
C8 C9 1.339 . S
C8 H43 0.949 . S
C9 C8 1.339 . S
C9 C10 1.439 1_655 S
C9 H44 0.950 1_655 S
C10 N6 1.383 1_455 S
C10 C9 1.439 1_455 S
C10 C39 1.392 . S
N11 Co5 2.029 1_556 S
N11 C12 1.376 1_556 S
N11 C15 1.374 . S
C12 N11 1.376 1_554 S
C12 C13 1.443 . S
C12 C39 1.389 . S
C13 C12 1.443 . S
C13 C14 1.340 1_554 S
C13 H45 0.951 . S
C14 C13 1.340 1_556 S
C14 C15 1.439 . S
C14 H46 0.950 . S
C15 N11 1.374 . S
C15 C14 1.439 . S
C15 C40 1.395 . S
N16 Co5 1.976 1_556 S
N16 C17 1.376 . S
N16 C20 1.383 1_455 S
C17 N16 1.376 . S
C17 C18 1.446 . S
C17 C40 1.391 . S
C18 C17 1.446 . S
C18 C19 1.339 . S
C18 H47 0.949 . S
C19 C18 1.339 . S
C19 C20 1.439 1_455 S
C19 H48 0.950 1_455 S
C20 N16 1.383 1_655 S
C20 C19 1.439 1_655 S
C20 C38 1.392 . S
N21 Co5 2.296 . S
N21 C24 1.332 . S
N21 C26 1.332 . S
C22 C23 1.386 . S
C22 C25 1.388 . S
C23 C22 1.386 . S
C23 C24 1.382 . S
C23 H49 0.950 . S
C24 N21 1.332 . S
C24 C23 1.382 . S
C24 H35 0.952 . S
C25 C22 1.388 . S
C25 C26 1.382 . S
C25 H50 0.950 . S
C26 N21 1.332 . S
C26 C25 1.382 . S
C26 H36 0.948 1_455 S
N27 Co5 2.269 1_656 S
N27 C31 1.332 . S
N27 C32 1.332 . S
C28 C29 1.388 . S
C28 C32 1.382 . S
C28 H51 0.950 . S
C29 C28 1.388 . S
C29 C30 1.386 . S
C30 C29 1.386 . S
C30 C31 1.382 . S
C30 H52 0.950 . S
C31 N27 1.332 . S
C31 C30 1.382 . S
C31 H33 0.949 . S
C32 N27 1.332 . S
C32 C28 1.382 . S
C32 H34 0.948 1_655 S
H33 C31 0.949 . S
H34 C32 0.948 1_455 S
H35 C24 0.952 . S
H36 C26 0.948 1_655 S
C37 C3 1.395 . S
C37 C7 1.391 . S
C38 C0 1.389 . S
C38 C20 1.392 . S
C39 C10 1.392 . S
C39 C12 1.389 . S
C40 C15 1.395 . S
C40 C17 1.391 . S
H41 C1 0.951 . S
H42 C2 0.950 . S
H43 C8 0.949 . S
H44 C9 0.950 1_455 S
H45 C13 0.951 . S
H46 C14 0.950 . S
H47 C18 0.949 . S
H48 C19 0.950 1_655 S
H49 C23 0.950 . S
H50 C25 0.950 . S
H51 C28 0.950 . S
H52 C30 0.950 . S
C53 C54 1.440 1_545 S
C53 N57 1.376 1_545 S
C53 C91 1.389 . S
C54 C53 1.440 1_565 S
C54 C55 1.345 . S
C54 H94 0.950 1_565 S
C55 C54 1.345 . S
C55 C56 1.439 . S
C55 H95 0.950 . S
C56 C55 1.439 . S
C56 N57 1.374 . S
C56 C90 1.395 . S
N57 C53 1.376 1_565 S
N57 C56 1.374 . S
N57 Co58 2.008 1_565 S
Co58 N57 2.008 1_545 S
Co58 N59 1.995 1_545 S
Co58 N64 2.008 . S
Co58 N69 1.995 . S
Co58 N74 2.282 1_545 S
Co58 N80 2.282 . S
N59 Co58 1.995 1_565 S
N59 C60 1.376 . S
N59 C63 1.383 . S
C60 N59 1.376 . S
C60 C61 1.446 . S
C60 C90 1.391 . S
C61 C60 1.446 . S
C61 C62 1.339 . S
C61 H96 0.949 . S
C62 C61 1.339 . S
C62 C63 1.439 . S
C62 H97 0.950 . S
C63 N59 1.383 . S
C63 C62 1.439 . S
C63 C92 1.392 . S
N64 Co58 2.008 . S
N64 C65 1.376 1_545 S
N64 C68 1.374 . S
C65 N64 1.376 1_565 S
C65 C66 1.443 1_565 S
C65 C92 1.389 . S
C66 C65 1.443 1_545 S
C66 C67 1.340 . S
C66 H98 0.951 1_545 S
C67 C66 1.340 . S
C67 C68 1.439 . S
C67 H99 0.950 . S
C68 N64 1.374 . S
C68 C67 1.439 . S
C68 C93 1.395 . S
N69 Co58 1.995 . S
N69 C70 1.376 . S
N69 C73 1.383 . S
C70 N69 1.376 . S
C70 C71 1.446 . S
C70 C93 1.391 . S
C71 C70 1.446 . S
C71 C72 1.339 . S
C71 H100 0.949 . S
C72 C71 1.339 . S
C72 C73 1.439 . S
C72 H101 0.950 . S
C73 N69 1.383 . S
C73 C72 1.439 . S
C73 C91 1.392 . S
N74 Co58 2.282 1_565 S
N74 C77 1.332 . S
N74 C79 1.332 . S
C75 C76 1.386 . S
C75 C78 1.388 . S
C76 C75 1.386 . S
C76 C77 1.382 . S
C76 H102 0.950 . S
C77 N74 1.332 . S
C77 C76 1.382 . S
C77 H88 0.952 1_565 S
C78 C75 1.388 . S
C78 C79 1.382 . S
C78 H103 0.950 . S
C79 N74 1.332 . S
C79 C78 1.382 . S
C79 H89 0.948 . S
N80 Co58 2.282 . S
N80 C84 1.332 . S
N80 C85 1.332 . S
C81 C82 1.388 . S
C81 C85 1.382 . S
C81 H104 0.950 . S
C82 C81 1.388 . S
C82 C83 1.386 . S
C83 C82 1.386 . S
C83 C84 1.382 . S
C83 H105 0.950 . S
C84 N80 1.332 . S
C84 C83 1.382 . S
C84 H86 0.952 1_545 S
C85 N80 1.332 . S
C85 C81 1.382 . S
C85 H87 0.948 . S
H86 C84 0.952 1_565 S
H87 C85 0.948 . S
H88 C77 0.952 1_545 S
H89 C79 0.948 . S
C90 C56 1.395 . S
C90 C60 1.391 . S
C91 C53 1.389 . S
C91 C73 1.392 . S
C92 C63 1.392 . S
C92 C65 1.389 . S
C93 C68 1.395 . S
C93 C70 1.391 . S
H94 C54 0.950 1_545 S
H95 C55 0.950 . S
H96 C61 0.949 . S
H97 C62 0.950 . S
H98 C66 0.951 1_565 S
H99 C67 0.950 . S
H100 C71 0.949 . S
H101 C72 0.950 . S
H102 C76 0.950 . S
H103 C78 0.950 . S
H104 C81 0.950 . S
H105 C83 0.950 . S
C106 C107 1.443 . S
C106 N110 1.376 . S
C106 C144 1.389 . S
C107 C106 1.443 . S
C107 C108 1.340 . S
C107 H147 0.951 . S
C108 C107 1.340 . S
C108 C109 1.439 . S
C108 H148 0.950 . S
C109 C108 1.439 . S
C109 N110 1.374 . S
C109 C143 1.395 . S
N110 C106 1.376 . S
N110 C109 1.374 . S
N110 Co111 1.990 1_556 S
Co111 N110 1.990 1_554 S
Co111 N112 1.992 1_554 S
Co111 N117 2.026 . S
Co111 N122 1.997 . S
Co111 N127 2.295 . S
Co111 N133 2.270 1_554 S
N112 Co111 1.992 1_556 S
N112 C113 1.376 . S
N112 C116 1.383 1_556 S
C113 N112 1.376 . S
C113 C114 1.446 . S
C113 C143 1.391 . S
C114 C113 1.446 . S
C114 C115 1.339 1_556 S
C114 H149 0.949 . S
C115 C114 1.339 1_554 S
C115 C116 1.439 . S
C115 H150 0.950 . S
C116 N112 1.383 1_554 S
C116 C115 1.439 . S
C116 C145 1.392 . S
N117 Co111 2.026 . S
N117 C118 1.376 . S
N117 C121 1.374 . S
C118 N117 1.376 . S
C118 C119 1.443 . S
C118 C145 1.389 . S
C119 C118 1.443 . S
C119 C120 1.340 . S
C119 H151 0.951 . S
C120 C119 1.340 . S
C120 C121 1.439 . S
C120 H152 0.950 . S
C121 N117 1.374 . S
C121 C120 1.439 . S
C121 C146 1.395 . S
N122 Co111 1.997 . S
N122 C123 1.376 . S
N122 C126 1.383 1_554 S
C123 N122 1.376 . S
C123 C124 1.446 . S
C123 C146 1.391 . S
C124 C123 1.446 . S
C124 C125 1.339 1_554 S
C124 H153 0.949 . S
C125 C124 1.339 1_556 S
C125 C126 1.439 . S
C125 H154 0.950 . S
C126 N122 1.383 1_556 S
C126 C125 1.439 . S
C126 C144 1.392 . S
N127 Co111 2.295 . S
N127 C130 1.332 . S
N127 C132 1.332 . S
C128 C129 1.386 . S
C128 C131 1.388 . S
C129 C128 1.386 . S
C129 C130 1.382 . S
C129 H155 0.950 . S
C130 N127 1.332 . S
C130 C129 1.382 . S
C130 H141 0.952 . S
C131 C128 1.388 . S
C131 C132 1.382 . S
C131 H156 0.950 . S
C132 N127 1.332 . S
C132 C131 1.382 . S
C132 H142 0.948 . S
N133 Co111 2.270 1_556 S
N133 C137 1.332 . S
N133 C138 1.332 . S
C134 C135 1.388 . S
C134 C138 1.382 . S
C134 H157 0.950 . S
C135 C134 1.388 . S
C135 C136 1.386 . S
C136 C135 1.386 . S
C136 C137 1.382 . S
C136 H158 0.950 . S
C137 N133 1.332 . S
C137 C136 1.382 . S
C137 H139 0.952 . S
C138 N133 1.332 . S
C138 C134 1.382 . S
C138 H140 0.948 . S
H139 C137 0.952 . S
H140 C138 0.948 . S
H141 C130 0.952 . S
H142 C132 0.948 . S
C143 C109 1.395 . S
C143 C113 1.391 . S
C144 C106 1.389 . S
C144 C126 1.392 . S
C145 C116 1.392 . S
C145 C118 1.389 . S
C146 C121 1.395 . S
C146 C123 1.391 . S
H147 C107 0.951 . S
H148 C108 0.950 . S
H149 C114 0.949 . S
H150 C115 0.950 . S
H151 C119 0.951 . S
H152 C120 0.950 . S
H153 C124 0.949 . S
H154 C125 0.950 . S
H155 C129 0.950 . S
H156 C131 0.950 . S
H157 C134 0.950 . S
H158 C136 0.950 . S
C159 C160 1.443 . S
C159 N163 1.376 . S
C159 C197 1.389 . S
C160 C159 1.443 . S
C160 C161 1.340 . S
C160 H200 0.951 . S
C161 C160 1.340 . S
C161 C162 1.439 . S
C161 H201 0.950 . S
C162 C161 1.439 . S
C162 N163 1.374 . S
C162 C196 1.395 . S
N163 C159 1.376 . S
N163 C162 1.374 . S
N163 Co164 1.995 1_655 S
Co164 N163 1.995 1_455 S
Co164 N165 1.985 1_455 S
Co164 N170 2.021 . S
Co164 N175 2.005 . S
Co164 N180 2.297 . S
Co164 N186 2.268 1_455 S
N165 Co164 1.985 1_655 S
N165 C166 1.376 . S
N165 C169 1.383 1_655 S
C166 N165 1.376 . S
C166 C167 1.446 . S
C166 C196 1.391 . S
C167 C166 1.446 . S
C167 C168 1.336 1_655 S
C167 H202 0.949 . S
C168 C167 1.336 1_455 S
C168 C169 1.441 . S
C168 H203 0.950 . S
C169 N165 1.383 1_455 S
C169 C168 1.441 . S
C169 C198 1.392 . S
N170 Co164 2.021 . S
N170 C171 1.376 . S
N170 C174 1.374 . S
C171 N170 1.376 . S
C171 C172 1.443 . S
C171 C198 1.389 . S
C172 C171 1.443 . S
C172 C173 1.340 . S
C172 H204 0.951 . S
C173 C172 1.340 . S
C173 C174 1.439 . S
C173 H205 0.950 . S
C174 N170 1.374 . S
C174 C173 1.439 . S
C174 C199 1.395 . S
N175 Co164 2.005 . S
N175 C176 1.376 . S
N175 C179 1.383 1_455 S
C176 N175 1.376 . S
C176 C177 1.446 . S
C176 C199 1.391 . S
C177 C176 1.446 . S
C177 C178 1.339 . S
C177 H206 0.949 . S
C178 C177 1.339 . S
C178 C179 1.439 1_455 S
C178 H207 0.950 1_455 S
C179 N175 1.383 1_655 S
C179 C178 1.439 1_655 S
C179 C197 1.392 . S
N180 Co164 2.297 . S
N180 C183 1.332 . S
N180 C185 1.332 . S
C181 C182 1.386 . S
C181 C184 1.388 . S
C182 C181 1.386 . S
C182 C183 1.382 . S
C182 H208 0.950 . S
C183 N180 1.332 . S
C183 C182 1.382 . S
C183 H194 0.952 . S
C184 C181 1.388 . S
C184 C185 1.382 . S
C184 H209 0.950 . S
C185 N180 1.332 . S
C185 C184 1.382 . S
C185 H195 0.948 1_455 S
N186 Co164 2.268 1_655 S
N186 C190 1.332 . S
N186 C191 1.332 . S
C187 C188 1.388 . S
C187 C191 1.382 . S
C187 H210 0.950 . S
C188 C187 1.388 . S
C188 C189 1.386 . S
C189 C188 1.386 . S
C189 C190 1.382 . S
C189 H211 0.950 . S
C190 N186 1.332 . S
C190 C189 1.382 . S
C190 H192 0.952 . S
C191 N186 1.332 . S
C191 C187 1.382 . S
C191 H193 0.948 1_655 S
H192 C190 0.952 . S
H193 C191 0.948 1_455 S
H194 C183 0.952 . S
H195 C185 0.948 1_655 S
C196 C162 1.395 . S
C196 C166 1.391 . S
C197 C159 1.389 . S
C197 C179 1.392 . S
C198 C169 1.392 . S
C198 C171 1.389 . S
C199 C174 1.395 . S
C199 C176 1.391 . S
H200 C160 0.951 . S
H201 C161 0.950 . S
H202 C167 0.949 . S
H203 C168 0.950 . S
H204 C172 0.951 . S
H205 C173 0.950 . S
H206 C177 0.949 . S
H207 C178 0.950 1_655 S
H208 C182 0.950 . S
H209 C184 0.950 . S
H210 C187 0.950 . S
H211 C189 0.950 . S
C212 C213 1.443 1_565 S
C212 N216 1.376 1_565 S
C212 C250 1.389 . S
C213 C212 1.443 1_545 S
C213 C214 1.340 . S
C213 H253 0.951 1_545 S
C214 C213 1.340 . S
C214 C215 1.439 . S
C214 H254 0.950 . S
C215 C214 1.439 . S
C215 N216 1.374 . S
C215 C249 1.395 . S
N216 C212 1.376 1_545 S
N216 C215 1.374 . S
N216 Co217 2.027 . S
Co217 N216 2.027 . S
Co217 N218 1.997 1_554 S
Co217 N223 1.989 1_544 S
Co217 N228 1.994 1_545 S
Co217 N233 2.272 1_554 S
Co217 N239 2.293 1_545 S
N218 Co217 1.997 1_556 S
N218 C219 1.358 1_556 S
N218 C222 1.401 . S
C219 N218 1.358 1_554 S
C219 C220 1.446 . S
C219 C249 1.391 . S
C220 C219 1.446 . S
C220 C221 1.339 1_554 S
C220 H255 0.949 . S
C221 C220 1.339 1_556 S
C221 C222 1.439 . S
C221 H256 0.950 . S
C222 N218 1.401 . S
C222 C221 1.439 . S
C222 C251 1.392 . S
N223 Co217 1.989 1_566 S
N223 C224 1.376 1_565 S
N223 C227 1.374 . S
C224 N223 1.376 1_545 S
C224 C225 1.443 . S
C224 C251 1.389 . S
C225 C224 1.443 . S
C225 C226 1.340 1_545 S
C225 H257 0.951 . S
C226 C225 1.340 1_565 S
C226 C227 1.439 . S
C226 H258 0.950 . S
C227 N223 1.374 . S
C227 C226 1.439 . S
C227 C252 1.395 . S
N228 Co217 1.994 1_565 S
N228 C229 1.376 1_554 S
N228 C232 1.383 . S
C229 N228 1.376 1_556 S
C229 C230 1.446 . S
C229 C252 1.391 . S
C230 C229 1.446 . S
C230 C231 1.339 1_556 S
C230 H259 0.949 . S
C231 C230 1.339 1_554 S
C231 C232 1.439 . S
C231 H260 0.950 . S
C232 N228 1.383 . S
C232 C231 1.439 . S
C232 C250 1.392 . S
N233 Co217 2.272 1_556 S
N233 C236 1.332 . S
N233 C238 1.332 . S
C234 C235 1.386 . S
C234 C237 1.388 . S
C235 C234 1.386 . S
C235 C236 1.382 . S
C235 H261 0.950 . S
C236 N233 1.332 . S
C236 C235 1.382 . S
C236 H247 0.952 1_545 S
C237 C234 1.388 . S
C237 C238 1.382 . S
C237 H262 0.950 . S
C238 N233 1.332 . S
C238 C237 1.382 . S
C238 H248 0.948 . S
N239 Co217 2.293 1_565 S
N239 C243 1.332 . S
N239 C244 1.332 . S
C240 C241 1.388 . S
C240 C244 1.382 . S
C240 H263 0.950 . S
C241 C240 1.388 . S
C241 C242 1.386 . S
C242 C241 1.386 . S
C242 C243 1.382 . S
C242 H264 0.950 . S
C243 N239 1.332 . S
C243 C242 1.382 . S
C243 H245 0.952 1_565 S
C244 N239 1.332 . S
C244 C240 1.382 . S
C244 H246 0.948 . S
H245 C243 0.952 1_545 S
H246 C244 0.948 . S
H247 C236 0.952 1_565 S
H248 C238 0.948 . S
C249 C215 1.395 . S
C249 C219 1.391 . S
C250 C212 1.389 . S
C250 C232 1.392 . S
C251 C222 1.392 . S
C251 C224 1.389 . S
C252 C227 1.395 . S
C252 C229 1.391 . S
H253 C213 0.951 1_565 S
H254 C214 0.950 . S
H255 C220 0.949 . S
H256 C221 0.950 . S
H257 C225 0.951 . S
H258 C226 0.950 . S
H259 C230 0.949 . S
H260 C231 0.950 . S
H261 C235 0.950 . S
H262 C237 0.950 . S
H263 C240 0.950 . S
H264 C242 0.950 . S
C265 C266 1.443 . S
C265 N269 1.376 . S
C265 C303 1.389 . S
C266 C265 1.443 . S
C266 C267 1.340 . S
C266 H306 0.951 . S
C267 C266 1.340 . S
C267 C268 1.439 . S
C267 H307 0.950 . S
C268 C267 1.439 . S
C268 N269 1.374 . S
C268 C302 1.395 . S
N269 C265 1.376 . S
N269 C268 1.374 . S
N269 Co270 2.008 . S
Co270 N269 2.008 . S
Co270 N271 1.995 . S
Co270 N276 2.008 . S
Co270 N281 1.995 . S
Co270 N286 2.282 . S
Co270 N292 2.282 . S
N271 Co270 1.995 . S
N271 C272 1.376 . S
N271 C275 1.383 . S
C272 N271 1.376 . S
C272 C273 1.446 . S
C272 C302 1.391 . S
C273 C272 1.446 . S
C273 C274 1.339 . S
C273 H308 0.949 . S
C274 C273 1.339 . S
C274 C275 1.439 . S
C274 H309 0.950 . S
C275 N271 1.383 . S
C275 C274 1.439 . S
C275 C304 1.392 . S
N276 Co270 2.008 . S
N276 C277 1.376 . S
N276 C280 1.374 . S
C277 N276 1.376 . S
C277 C278 1.443 . S
C277 C304 1.389 . S
C278 C277 1.443 . S
C278 C279 1.340 . S
C278 H310 0.951 . S
C279 C278 1.340 . S
C279 C280 1.439 . S
C279 H311 0.950 . S
C280 N276 1.374 . S
C280 C279 1.439 . S
C280 C305 1.395 . S
N281 Co270 1.995 . S
N281 C282 1.376 . S
N281 C285 1.383 . S
C282 N281 1.376 . S
C282 C283 1.446 . S
C282 C305 1.391 . S
C283 C282 1.446 . S
C283 C284 1.339 . S
C283 H312 0.949 . S
C284 C283 1.339 . S
C284 C285 1.439 . S
C284 H313 0.950 . S
C285 N281 1.383 . S
C285 C284 1.439 . S
C285 C303 1.392 . S
N286 Co270 2.282 . S
N286 C289 1.332 . S
N286 C291 1.332 . S
C287 C288 1.386 . S
C287 C290 1.388 . S
C288 C287 1.386 . S
C288 C289 1.382 . S
C288 H314 0.950 . S
C289 N286 1.332 . S
C289 C288 1.382 . S
C289 H300 0.952 . S
C290 C287 1.388 . S
C290 C291 1.382 . S
C290 H315 0.950 . S
C291 N286 1.332 . S
C291 C290 1.382 . S
C291 H301 0.948 . S
N292 Co270 2.282 . S
N292 C296 1.332 . S
N292 C297 1.332 . S
C293 C294 1.388 . S
C293 C297 1.382 . S
C293 H316 0.950 . S
C294 C293 1.388 . S
C294 C295 1.386 . S
C295 C294 1.386 . S
C295 C296 1.382 . S
C295 H317 0.950 . S
C296 N292 1.332 . S
C296 C295 1.382 . S
C296 H298 0.952 . S
C297 N292 1.332 . S
C297 C293 1.382 . S
C297 H299 0.948 . S
H298 C296 0.952 . S
H299 C297 0.948 . S
H300 C289 0.952 . S
H301 C291 0.948 . S
C302 C268 1.395 . S
C302 C272 1.391 . S
C303 C265 1.389 . S
C303 C285 1.392 . S
C304 C275 1.392 . S
C304 C277 1.389 . S
C305 C280 1.395 . S
C305 C282 1.391 . S
H306 C266 0.951 . S
H307 C267 0.950 . S
H308 C273 0.949 . S
H309 C274 0.950 . S
H310 C278 0.951 . S
H311 C279 0.950 . S
H312 C283 0.949 . S
H313 C284 0.950 . S
H314 C288 0.950 . S
H315 C290 0.950 . S
H316 C293 0.950 . S
H317 C295 0.950 . S
C318 O320 1.247 . S
C318 O322 1.258 . S
C319 O326 1.247 . S
C319 O327 1.258 . S
O320 C318 1.247 . S
O320 Zn321 2.028 . S
Zn321 O320 2.028 . S
Zn321 O325 2.035 . S
Zn321 O327 2.035 . S
Zn321 O328 2.028 . S
O322 C318 1.258 . S
O322 Zn323 2.035 . S
Zn323 O322 2.035 . S
Zn323 O324 2.028 . S
Zn323 O326 2.028 . S
Zn323 O329 2.035 . S
O324 Zn323 2.028 . S
O324 C330 1.247 . S
O325 Zn321 2.035 . S
O325 C330 1.258 . S
O326 C319 1.247 . S
O326 Zn323 2.028 . S
O327 C319 1.258 . S
O327 Zn321 2.035 . S
O328 Zn321 2.028 . S
O328 C331 1.247 . S
O329 Zn323 2.035 . S
O329 C331 1.258 . S
C330 O324 1.247 . S
C330 O325 1.258 . S
C331 O328 1.247 . S
C331 O329 1.258 . S
C332 O334 1.247 . S
C332 O336 1.258 . S
C333 O340 1.247 . S
C333 O341 1.258 . S
O334 C332 1.247 . S
O334 Zn335 2.028 . S
Zn335 O334 2.028 . S
Zn335 O339 2.035 . S
Zn335 O341 2.035 . S
Zn335 O342 2.028 . S
O336 C332 1.258 . S
O336 Zn337 2.035 . S
Zn337 O336 2.035 . S
Zn337 O338 2.028 . S
Zn337 O340 2.028 . S
Zn337 O343 2.035 . S
O338 Zn337 2.028 . S
O338 C344 1.247 . S
O339 Zn335 2.035 . S
O339 C344 1.258 . S
O340 C333 1.247 . S
O340 Zn337 2.028 . S
O341 C333 1.258 . S
O341 Zn335 2.035 . S
O342 Zn335 2.028 . S
O342 C345 1.247 . S
O343 Zn337 2.035 . S
O343 C345 1.258 . S
C344 O338 1.247 . S
C344 O339 1.258 . S
C345 O342 1.247 . S
C345 O343 1.258 . S
C346 O348 1.247 . S
C346 O350 1.258 . S
C347 O354 1.247 . S
C347 O355 1.258 . S
O348 C346 1.247 . S
O348 Zn349 2.028 . S
Zn349 O348 2.028 . S
Zn349 O353 2.035 . S
Zn349 O355 2.035 . S
Zn349 O356 2.028 . S
O350 C346 1.258 . S
O350 Zn351 2.035 . S
Zn351 O350 2.035 . S
Zn351 O352 2.028 . S
Zn351 O354 2.028 . S
Zn351 O357 2.035 . S
O352 Zn351 2.028 . S
O352 C358 1.247 . S
O353 Zn349 2.035 . S
O353 C358 1.258 . S
O354 C347 1.247 . S
O354 Zn351 2.028 . S
O355 C347 1.258 . S
O355 Zn349 2.035 . S
O356 Zn349 2.028 . S
O356 C359 1.247 . S
O357 Zn351 2.035 . S
O357 C359 1.258 . S
C358 O352 1.247 . S
C358 O353 1.258 . S
C359 O356 1.247 . S
C359 O357 1.258 . S
C360 O362 1.247 . S
C360 O364 1.258 . S
C361 O368 1.247 . S
C361 O369 1.258 . S
O362 C360 1.247 . S
O362 Zn363 2.028 . S
Zn363 O362 2.028 . S
Zn363 O367 2.035 . S
Zn363 O369 2.035 . S
Zn363 O370 2.028 . S
O364 C360 1.258 . S
O364 Zn365 2.035 . S
Zn365 O364 2.035 . S
Zn365 O366 2.028 . S
Zn365 O368 2.028 . S
Zn365 O371 2.035 . S
O366 Zn365 2.028 . S
O366 C372 1.247 . S
O367 Zn363 2.035 . S
O367 C372 1.258 . S
O368 C361 1.247 . S
O368 Zn365 2.028 . S
O369 C361 1.258 . S
O369 Zn363 2.035 . S
O370 Zn363 2.028 . S
O370 C373 1.247 . S
O371 Zn365 2.035 . S
O371 C373 1.258 . S
C372 O366 1.247 . S
C372 O367 1.258 . S
C373 O370 1.247 . S
C373 O371 1.258 . S
C374 O376 1.247 . S
C374 O378 1.258 . S
C375 O382 1.247 . S
C375 O383 1.258 . S
O376 C374 1.247 . S
O376 Zn377 2.028 . S
Zn377 O376 2.028 . S
Zn377 O381 2.035 . S
Zn377 O383 2.035 . S
Zn377 O384 2.028 . S
O378 C374 1.258 . S
O378 Zn379 2.035 . S
Zn379 O378 2.035 . S
Zn379 O380 2.028 . S
Zn379 O382 2.028 . S
Zn379 O385 2.035 . S
O380 Zn379 2.028 . S
O380 C386 1.247 . S
O381 Zn377 2.035 . S
O381 C386 1.258 . S
O382 C375 1.247 . S
O382 Zn379 2.028 . S
O383 C375 1.258 . S
O383 Zn377 2.035 . S
O384 Zn377 2.028 . S
O384 C387 1.247 . S
O385 Zn379 2.035 . S
O385 C387 1.258 . S
C386 O380 1.247 . S
C386 O381 1.258 . S
C387 O384 1.247 . S
C387 O385 1.258 . S
C388 O390 1.247 . S
C388 O392 1.258 . S
C389 O396 1.247 . S
C389 O397 1.258 . S
O390 C388 1.247 . S
O390 Zn391 2.028 . S
Zn391 O390 2.028 . S
Zn391 O395 2.035 . S
Zn391 O397 2.035 . S
Zn391 O398 2.028 . S
O392 C388 1.258 . S
O392 Zn393 2.035 . S
Zn393 O392 2.035 . S
Zn393 O394 2.028 . S
Zn393 O396 2.028 . S
Zn393 O399 2.035 . S
O394 Zn393 2.028 . S
O394 C400 1.247 . S
O395 Zn391 2.035 . S
O395 C400 1.258 . S
O396 C389 1.247 . S
O396 Zn393 2.028 . S
O397 C389 1.258 . S
O397 Zn391 2.035 . S
O398 Zn391 2.028 . S
O398 C401 1.247 . S
O399 Zn393 2.035 . S
O399 C401 1.258 . S
C400 O394 1.247 . S
C400 O395 1.258 . S
C401 O398 1.247 . S
C401 O399 1.258 . S
C402 C403 1.369 . S
C402 C404 1.419 . S
C402 H406 0.930 . S
C403 C402 1.369 . S
C403 C412 1.429 . S
C404 C402 1.419 . S
C404 C405 1.363 . S
C404 H407 0.929 . S
C405 C404 1.363 . S
C405 C411 1.428 . S
H406 C402 0.930 . S
H407 C404 0.929 . S
S408 N409 1.613 . S
S408 N410 1.610 . S
N409 S408 1.613 . S
N409 C412 1.350 . S
N410 S408 1.610 . S
N410 C411 1.351 . S
C411 C405 1.428 . S
C411 N410 1.351 . S
C411 C412 1.434 . S
C412 C403 1.429 . S
C412 N409 1.350 . S
C412 C411 1.434 . S
C413 C414 1.369 . S
C413 C415 1.419 . S
C413 H417 0.930 . S
C414 C413 1.369 . S
C414 C423 1.429 . S
C415 C413 1.419 . S
C415 C416 1.363 . S
C415 H418 0.929 . S
C416 C415 1.363 . S
C416 C422 1.428 . S
H417 C413 0.930 . S
H418 C415 0.929 . S
S419 N420 1.613 . S
S419 N421 1.610 . S
N420 S419 1.613 . S
N420 C423 1.350 . S
N421 S419 1.610 . S
N421 C422 1.351 . S
C422 C416 1.428 . S
C422 N421 1.351 . S
C422 C423 1.434 . S
C423 C414 1.429 . S
C423 N420 1.350 . S
C423 C422 1.434 . S
C424 C425 1.369 . S
C424 C426 1.419 . S
C424 H428 0.930 . S
C425 C424 1.369 . S
C425 C434 1.429 . S
C426 C424 1.419 . S
C426 C427 1.363 . S
C426 H429 0.929 . S
C427 C426 1.363 . S
C427 C433 1.428 . S
H428 C424 0.930 . S
H429 C426 0.929 . S
S430 N431 1.613 . S
S430 N432 1.610 . S
N431 S430 1.613 . S
N431 C434 1.350 . S
N432 S430 1.610 . S
N432 C433 1.351 . S
C433 C427 1.428 . S
C433 N432 1.351 . S
C433 C434 1.434 . S
C434 C425 1.429 . S
C434 N431 1.350 . S
C434 C433 1.434 . S
C435 C436 1.369 . S
C435 C437 1.419 . S
C435 H439 0.930 . S
C436 C435 1.369 . S
C436 C445 1.429 . S
C437 C435 1.419 . S
C437 C438 1.363 . S
C437 H440 0.929 . S
C438 C437 1.363 . S
C438 C444 1.428 . S
H439 C435 0.930 . S
H440 C437 0.929 . S
S441 N442 1.613 . S
S441 N443 1.610 . S
N442 S441 1.613 . S
N442 C445 1.350 . S
N443 S441 1.610 . S
N443 C444 1.351 . S
C444 C438 1.428 . S
C444 N443 1.351 . S
C444 C445 1.434 . S
C445 C436 1.429 . S
C445 N442 1.350 . S
C445 C444 1.434 . S
C446 C447 1.369 . S
C446 C448 1.419 . S
C446 H450 0.930 . S
C447 C446 1.369 . S
C447 C456 1.429 . S
C448 C446 1.419 . S
C448 C449 1.363 . S
C448 H451 0.929 . S
C449 C448 1.363 . S
C449 C455 1.428 . S
H450 C446 0.930 . S
H451 C448 0.929 . S
S452 N453 1.613 . S
S452 N454 1.610 . S
N453 S452 1.613 . S
N453 C456 1.350 . S
N454 S452 1.610 . S
N454 C455 1.351 . S
C455 C449 1.428 . S
C455 N454 1.351 . S
C455 C456 1.434 . S
C456 C447 1.429 . S
C456 N453 1.350 . S
C456 C455 1.434 . S
C457 C458 1.369 . S
C457 C459 1.419 . S
C457 H461 0.930 . S
C458 C457 1.369 . S
C458 C467 1.429 . S
C459 C457 1.419 . S
C459 C460 1.363 . S
C459 H462 0.929 . S
C460 C459 1.363 . S
C460 C466 1.428 . S
H461 C457 0.930 . S
H462 C459 0.929 . S
S463 N464 1.613 . S
S463 N465 1.610 . S
N464 S463 1.613 . S
N464 C467 1.350 . S
N465 S463 1.610 . S
N465 C466 1.351 . S
C466 C460 1.428 . S
C466 N465 1.351 . S
C466 C467 1.434 . S
C467 C458 1.429 . S
C467 N464 1.350 . S
C467 C466 1.434 . S
C468 C469 1.369 . S
C468 C470 1.419 . S
C468 H472 0.930 . S
C469 C468 1.369 . S
C469 C478 1.429 . S
C470 C468 1.419 . S
C470 C471 1.363 . S
C470 H473 0.929 . S
C471 C470 1.363 . S
C471 C477 1.428 . S
H472 C468 0.930 . S
H473 C470 0.929 . S
S474 N475 1.613 . S
S474 N476 1.610 . S
N475 S474 1.613 . S
N475 C478 1.350 . S
N476 S474 1.610 . S
N476 C477 1.351 . S
C477 C471 1.428 . S
C477 N476 1.351 . S
C477 C478 1.434 . S
C478 C469 1.429 . S
C478 N475 1.350 . S
C478 C477 1.434 . S
C479 C480 1.369 . S
C479 C481 1.419 . S
C479 H483 0.930 . S
C480 C479 1.369 . S
C480 C489 1.429 . S
C481 C479 1.419 . S
C481 C482 1.363 . S
C481 H484 0.929 . S
C482 C481 1.363 . S
C482 C488 1.428 . S
H483 C479 0.930 . S
H484 C481 0.929 . S
S485 N486 1.613 . S
S485 N487 1.610 . S
N486 S485 1.613 . S
N486 C489 1.350 . S
N487 S485 1.610 . S
N487 C488 1.351 . S
C488 C482 1.428 . S
C488 N487 1.351 . S
C488 C489 1.434 . S
C489 C480 1.429 . S
C489 N486 1.350 . S
C489 C488 1.434 . S
C490 C491 1.369 . S
C490 C492 1.419 . S
C490 H494 0.930 . S
C491 C490 1.369 . S
C491 C500 1.429 . S
C492 C490 1.419 . S
C492 C493 1.363 . S
C492 H495 0.929 . S
C493 C492 1.363 . S
C493 C499 1.428 . S
H494 C490 0.930 . S
H495 C492 0.929 . S
S496 N497 1.613 . S
S496 N498 1.610 . S
N497 S496 1.613 . S
N497 C500 1.350 . S
N498 S496 1.610 . S
N498 C499 1.351 . S
C499 C493 1.428 . S
C499 N498 1.351 . S
C499 C500 1.434 . S
C500 C491 1.429 . S
C500 N497 1.350 . S
C500 C499 1.434 . S
C501 C502 1.369 . S
C501 C503 1.419 . S
C501 H505 0.930 . S
C502 C501 1.369 . S
C502 C511 1.429 . S
C503 C501 1.419 . S
C503 C504 1.363 . S
C503 H506 0.929 . S
C504 C503 1.363 . S
C504 C510 1.428 . S
H505 C501 0.930 . S
H506 C503 0.929 . S
S507 N508 1.613 . S
S507 N509 1.610 . S
N508 S507 1.613 . S
N508 C511 1.350 . S
N509 S507 1.610 . S
N509 C510 1.351 . S
C510 C504 1.428 . S
C510 N509 1.351 . S
C510 C511 1.434 . S
C511 C502 1.429 . S
C511 N508 1.350 . S
C511 C510 1.434 . S
C512 C513 1.369 . S
C512 C514 1.419 . S
C512 H516 0.930 . S
C513 C512 1.369 . S
C513 C522 1.429 . S
C514 C512 1.419 . S
C514 C515 1.363 . S
C514 H517 0.929 . S
C515 C514 1.363 . S
C515 C521 1.428 . S
H516 C512 0.930 . S
H517 C514 0.929 . S
S518 N519 1.613 . S
S518 N520 1.610 . S
N519 S518 1.613 . S
N519 C522 1.350 . S
N520 S518 1.610 . S
N520 C521 1.351 . S
C521 C515 1.428 . S
C521 N520 1.351 . S
C521 C522 1.434 . S
C522 C513 1.429 . S
C522 N519 1.350 . S
C522 C521 1.434 . S
C523 C524 1.369 . S
C523 C525 1.419 . S
C523 H527 0.930 . S
C524 C523 1.369 . S
C524 C533 1.429 . S
C525 C523 1.419 . S
C525 C526 1.363 . S
C525 H528 0.929 . S
C526 C525 1.363 . S
C526 C532 1.428 . S
H527 C523 0.930 . S
H528 C525 0.929 . S
S529 N530 1.613 . S
S529 N531 1.610 . S
N530 S529 1.613 . S
N530 C533 1.350 . S
N531 S529 1.610 . S
N531 C532 1.351 . S
C532 C526 1.428 . S
C532 N531 1.351 . S
C532 C533 1.434 . S
C533 C524 1.429 . S
C533 N530 1.350 . S
C533 C532 1.434 . S
C534 C535 1.369 . S
C534 C536 1.419 . S
C534 H538 0.930 . S
C535 C534 1.369 . S
C535 C544 1.429 . S
C536 C534 1.419 . S
C536 C537 1.363 . S
C536 H539 0.929 . S
C537 C536 1.363 . S
C537 C543 1.428 . S
H538 C534 0.930 . S
H539 C536 0.929 . S
S540 N541 1.613 . S
S540 N542 1.610 . S
N541 S540 1.613 . S
N541 C544 1.350 . S
N542 S540 1.610 . S
N542 C543 1.351 . S
C543 C537 1.428 . S
C543 N542 1.351 . S
C543 C544 1.434 . S
C544 C535 1.429 . S
C544 N541 1.350 . S
C544 C543 1.434 . S
C545 C546 1.369 . S
C545 C547 1.419 . S
C545 H549 0.930 . S
C546 C545 1.369 . S
C546 C555 1.429 . S
C547 C545 1.419 . S
C547 C548 1.363 . S
C547 H550 0.929 . S
C548 C547 1.363 . S
C548 C554 1.428 . S
H549 C545 0.930 . S
H550 C547 0.929 . S
S551 N552 1.613 . S
S551 N553 1.610 . S
N552 S551 1.613 . S
N552 C555 1.350 . S
N553 S551 1.610 . S
N553 C554 1.351 . S
C554 C548 1.428 . S
C554 N553 1.351 . S
C554 C555 1.434 . S
C555 C546 1.429 . S
C555 N552 1.350 . S
C555 C554 1.434 . S
C556 C557 1.369 . S
C556 C558 1.419 . S
C556 H560 0.930 . S
C557 C556 1.369 . S
C557 C566 1.429 . S
C558 C556 1.419 . S
C558 C559 1.363 . S
C558 H561 0.929 . S
C559 C558 1.363 . S
C559 C565 1.428 . S
H560 C556 0.930 . S
H561 C558 0.929 . S
S562 N563 1.613 . S
S562 N564 1.610 . S
N563 S562 1.613 . S
N563 C566 1.350 . S
N564 S562 1.610 . S
N564 C565 1.351 . S
C565 C559 1.428 . S
C565 N564 1.351 . S
C565 C566 1.434 . S
C566 C557 1.429 . S
C566 N563 1.350 . S
C566 C565 1.434 . S
C567 C568 1.369 . S
C567 C569 1.419 . S
C567 H571 0.930 . S
C568 C567 1.369 . S
C568 C577 1.429 . S
C569 C567 1.419 . S
C569 C570 1.363 . S
C569 H572 0.929 . S
C570 C569 1.363 . S
C570 C576 1.428 . S
H571 C567 0.930 . S
H572 C569 0.929 . S
S573 N574 1.613 . S
S573 N575 1.610 . S
N574 S573 1.613 . S
N574 C577 1.350 . S
N575 S573 1.610 . S
N575 C576 1.351 . S
C576 C570 1.428 . S
C576 N575 1.351 . S
C576 C577 1.434 . S
C577 C568 1.429 . S
C577 N574 1.350 . S
C577 C576 1.434 . S
C578 C579 1.369 . S
C578 C580 1.419 . S
C578 H582 0.930 . S
C579 C578 1.369 . S
C579 C588 1.429 . S
C580 C578 1.419 . S
C580 C581 1.363 . S
C580 H583 0.929 . S
C581 C580 1.363 . S
C581 C587 1.428 . S
H582 C578 0.930 . S
H583 C580 0.929 . S
S584 N585 1.613 . S
S584 N586 1.610 . S
N585 S584 1.613 . S
N585 C588 1.350 . S
N586 S584 1.610 . S
N586 C587 1.351 . S
C587 C581 1.428 . S
C587 N586 1.351 . S
C587 C588 1.434 . S
C588 C579 1.429 . S
C588 N585 1.350 . S
C588 C587 1.434 . S
C589 C590 1.369 . S
C589 C591 1.419 . S
C589 H593 0.930 . S
C590 C589 1.369 . S
C590 C599 1.429 . S
C591 C589 1.419 . S
C591 C592 1.363 . S
C591 H594 0.929 . S
C592 C591 1.363 . S
C592 C598 1.428 . S
H593 C589 0.930 . S
H594 C591 0.929 . S
S595 N596 1.613 . S
S595 N597 1.610 . S
N596 S595 1.613 . S
N596 C599 1.350 . S
N597 S595 1.610 . S
N597 C598 1.351 . S
C598 C592 1.428 . S
C598 N597 1.351 . S
C598 C599 1.434 . S
C599 C590 1.429 . S
C599 N596 1.350 . S
C599 C598 1.434 . S
C600 C601 1.369 . S
C600 C602 1.419 . S
C600 H604 0.930 . S
C601 C600 1.369 . S
C601 C610 1.429 . S
C602 C600 1.419 . S
C602 C603 1.363 . S
C602 H605 0.929 . S
C603 C602 1.363 . S
C603 C609 1.428 . S
H604 C600 0.930 . S
H605 C602 0.929 . S
S606 N607 1.613 . S
S606 N608 1.610 . S
N607 S606 1.613 . S
N607 C610 1.350 . S
N608 S606 1.610 . S
N608 C609 1.351 . S
C609 C603 1.428 . S
C609 N608 1.351 . S
C609 C610 1.434 . S
C610 C601 1.429 . S
C610 N607 1.350 . S
C610 C609 1.434 . S
C611 C612 1.369 . S
C611 C613 1.419 . S
C611 H615 0.930 . S
C612 C611 1.369 . S
C612 C621 1.429 . S
C613 C611 1.419 . S
C613 C614 1.363 . S
C613 H616 0.929 . S
C614 C613 1.363 . S
C614 C620 1.428 . S
H615 C611 0.930 . S
H616 C613 0.929 . S
S617 N618 1.613 . S
S617 N619 1.610 . S
N618 S617 1.613 . S
N618 C621 1.350 . S
N619 S617 1.610 . S
N619 C620 1.351 . S
C620 C614 1.428 . S
C620 N619 1.351 . S
C620 C621 1.434 . S
C621 C612 1.429 . S
C621 N618 1.350 . S
C621 C620 1.434 . S
C622 C623 1.369 . S
C622 C624 1.419 . S
C622 H626 0.930 . S
C623 C622 1.369 . S
C623 C632 1.429 . S
C624 C622 1.419 . S
C624 C625 1.363 . S
C624 H627 0.929 . S
C625 C624 1.363 . S
C625 C631 1.428 . S
H626 C622 0.930 . S
H627 C624 0.929 . S
S628 N629 1.613 . S
S628 N630 1.610 . S
N629 S628 1.613 . S
N629 C632 1.350 . S
N630 S628 1.610 . S
N630 C631 1.351 . S
C631 C625 1.428 . S
C631 N630 1.351 . S
C631 C632 1.434 . S
C632 C623 1.429 . S
C632 N629 1.350 . S
C632 C631 1.434 . S
C633 C634 1.369 . S
C633 C635 1.419 . S
C633 H637 0.930 . S
C634 C633 1.369 . S
C634 C643 1.429 . S
C635 C633 1.419 . S
C635 C636 1.363 . S
C635 H638 0.929 . S
C636 C635 1.363 . S
C636 C642 1.428 . S
H637 C633 0.930 . S
H638 C635 0.929 . S
S639 N640 1.613 . S
S639 N641 1.610 . S
N640 S639 1.613 . S
N640 C643 1.350 . S
N641 S639 1.610 . S
N641 C642 1.351 . S
C642 C636 1.428 . S
C642 N641 1.351 . S
C642 C643 1.434 . S
C643 C634 1.429 . S
C643 N640 1.350 . S
C643 C642 1.434 . S
C644 C645 1.369 . S
C644 C646 1.419 . S
C644 H648 0.930 . S
C645 C644 1.369 . S
C645 C654 1.429 . S
C646 C644 1.419 . S
C646 C647 1.363 . S
C646 H649 0.929 . S
C647 C646 1.363 . S
C647 C653 1.428 . S
H648 C644 0.930 . S
H649 C646 0.929 . S
S650 N651 1.613 . S
S650 N652 1.610 . S
N651 S650 1.613 . S
N651 C654 1.350 . S
N652 S650 1.610 . S
N652 C653 1.351 . S
C653 C647 1.428 . S
C653 N652 1.351 . S
C653 C654 1.434 . S
C654 C645 1.429 . S
C654 N651 1.350 . S
C654 C653 1.434 . S
C655 C656 1.369 . S
C655 C657 1.419 . S
C655 H659 0.930 . S
C656 C655 1.369 . S
C656 C665 1.429 . S
C657 C655 1.419 . S
C657 C658 1.363 . S
C657 H660 0.929 . S
C658 C657 1.363 . S
C658 C664 1.428 . S
H659 C655 0.930 . S
H660 C657 0.929 . S
S661 N662 1.613 . S
S661 N663 1.610 . S
N662 S661 1.613 . S
N662 C665 1.350 . S
N663 S661 1.610 . S
N663 C664 1.351 . S
C664 C658 1.428 . S
C664 N663 1.351 . S
C664 C665 1.434 . S
C665 C656 1.429 . S
C665 N662 1.350 . S
C665 C664 1.434 . S
C403 C39 1.710 . S
C405 C319 1.682 . S
C414 C91 1.709 . S
C416 C344 1.684 . S
C427 C347 1.525 . S
C425 C128 1.556 . S
C438 C373 1.494 . S
C436 C188 1.520 . S
C449 C374 1.610 . S
C447 C250 1.641 . S
C460 C401 1.638 . S
C458 C304 1.679 . S
C469 C75 1.581 . S
C471 C346 1.556 . S
C480 C144 1.699 . S
C482 C372 1.676 . S
C493 C375 1.635 . S
C491 C198 1.655 . S
C504 C400 1.478 . S
C502 C234 1.509 . S
C513 C294 1.508 . S
C515 C318 1.481 . S
C526 C345 1.520 . S
C524 C29 1.536 . S
C537 C360 1.681 . S
C535 C38 1.712 . S
C546 C92 1.708 . S
C548 C387 1.686 . S
C559 C388 1.523 . S
C557 C135 1.558 . S
C568 C181 1.520 . S
C570 C330 1.495 . S
C579 C251 1.638 . S
C581 C333 1.614 . S
C590 C303 1.676 . S
C592 C358 1.643 . S
C601 C82 1.581 . S
C603 C389 1.555 . S
C614 C331 1.676 . S
C612 C145 1.699 . S
C623 C197 1.658 . S
C625 C332 1.632 . S
C634 C241 1.507 . S
C636 C359 1.483 . S
C645 C287 1.507 . S
C647 C361 1.485 . S
C656 C22 1.537 . S
C658 C386 1.519 . S
