# Generated by pormake.
# Topology eea, (3,6)-cn, num edge types: 1
# Building blocks:
#     Node 0, Type 0, BuildingBlock: WUSLED_clean_sbu_0, # of connection points: 3
#     Node 1, Type 0, BuildingBlock: WUSLED_clean_sbu_0, # of connection points: 3
#     Node 2, Type 0, BuildingBlock: WUSLED_clean_sbu_0, # of connection points: 3
#     Node 3, Type 0, BuildingBlock: WUSLED_clean_sbu_0, # of connection points: 3
#     Node 4, Type 0, BuildingBlock: WUSLED_clean_sbu_0, # of connection points: 3
#     Node 5, Type 0, BuildingBlock: WUSLED_clean_sbu_0, # of connection points: 3
#     Node 6, Type 0, BuildingBlock: WUSLED_clean_sbu_0, # of connection points: 3
#     Node 7, Type 0, BuildingBlock: WUSLED_clean_sbu_0, # of connection points: 3
#     Node 8, Type 0, BuildingBlock: WUSLED_clean_sbu_0, # of connection points: 3
#     Node 9, Type 0, BuildingBlock: WUSLED_clean_sbu_0, # of connection points: 3
#     Node 10, Type 0, BuildingBlock: WUSLED_clean_sbu_0, # of connection points: 3
#     Node 11, Type 0, BuildingBlock: WUSLED_clean_sbu_0, # of connection points: 3
#     Node 12, Type 0, BuildingBlock: WUSLED_clean_sbu_0, # of connection points: 3
#     Node 13, Type 0, BuildingBlock: WUSLED_clean_sbu_0, # of connection points: 3
#     Node 14, Type 0, BuildingBlock: WUSLED_clean_sbu_0, # of connection points: 3
#     Node 15, Type 0, BuildingBlock: WUSLED_clean_sbu_0, # of connection points: 3
#     Node 16, Type 0, BuildingBlock: WUSLED_clean_sbu_0, # of connection points: 3
#     Node 17, Type 0, BuildingBlock: WUSLED_clean_sbu_0, # of connection points: 3
#     Node 18, Type 1, BuildingBlock: KUMBUR_clean_sbu_0, # of connection points: 6
#     Node 19, Type 1, BuildingBlock: KUMBUR_clean_sbu_0, # of connection points: 6
#     Node 20, Type 1, BuildingBlock: KUMBUR_clean_sbu_0, # of connection points: 6
#     Node 21, Type 1, BuildingBlock: KUMBUR_clean_sbu_0, # of connection points: 6
#     Node 22, Type 1, BuildingBlock: KUMBUR_clean_sbu_0, # of connection points: 6
#     Node 23, Type 1, BuildingBlock: KUMBUR_clean_sbu_0, # of connection points: 6
#     Node 24, Type 1, BuildingBlock: KUMBUR_clean_sbu_0, # of connection points: 6
#     Node 25, Type 1, BuildingBlock: KUMBUR_clean_sbu_0, # of connection points: 6
#     Node 26, Type 1, BuildingBlock: KUMBUR_clean_sbu_0, # of connection points: 6
#     Edge 27, Type (0, 1), BuildingBlock: TEMPAE_clean_linker_10, # of connection points: 2
#     Edge 28, Type (0, 1), BuildingBlock: TEMPAE_clean_linker_10, # of connection points: 2
#     Edge 29, Type (0, 1), BuildingBlock: TEMPAE_clean_linker_10, # of connection points: 2
#     Edge 30, Type (0, 1), BuildingBlock: TEMPAE_clean_linker_10, # of connection points: 2
#     Edge 31, Type (0, 1), BuildingBlock: TEMPAE_clean_linker_10, # of connection points: 2
#     Edge 32, Type (0, 1), BuildingBlock: TEMPAE_clean_linker_10, # of connection points: 2
#     Edge 33, Type (0, 1), BuildingBlock: TEMPAE_clean_linker_10, # of connection points: 2
#     Edge 34, Type (0, 1), BuildingBlock: TEMPAE_clean_linker_10, # of connection points: 2
#     Edge 35, Type (0, 1), BuildingBlock: TEMPAE_clean_linker_10, # of connection points: 2
#     Edge 36, Type (0, 1), BuildingBlock: TEMPAE_clean_linker_10, # of connection points: 2
#     Edge 37, Type (0, 1), BuildingBlock: TEMPAE_clean_linker_10, # of connection points: 2
#     Edge 38, Type (0, 1), BuildingBlock: TEMPAE_clean_linker_10, # of connection points: 2
#     Edge 39, Type (0, 1), BuildingBlock: TEMPAE_clean_linker_10, # of connection points: 2
#     Edge 40, Type (0, 1), BuildingBlock: TEMPAE_clean_linker_10, # of connection points: 2
#     Edge 41, Type (0, 1), BuildingBlock: TEMPAE_clean_linker_10, # of connection points: 2
#     Edge 42, Type (0, 1), BuildingBlock: TEMPAE_clean_linker_10, # of connection points: 2
#     Edge 43, Type (0, 1), BuildingBlock: TEMPAE_clean_linker_10, # of connection points: 2
#     Edge 44, Type (0, 1), BuildingBlock: TEMPAE_clean_linker_10, # of connection points: 2
#     Edge 45, Type (0, 1), BuildingBlock: TEMPAE_clean_linker_10, # of connection points: 2
#     Edge 46, Type (0, 1), BuildingBlock: TEMPAE_clean_linker_10, # of connection points: 2
#     Edge 47, Type (0, 1), BuildingBlock: TEMPAE_clean_linker_10, # of connection points: 2
#     Edge 48, Type (0, 1), BuildingBlock: TEMPAE_clean_linker_10, # of connection points: 2
#     Edge 49, Type (0, 1), BuildingBlock: TEMPAE_clean_linker_10, # of connection points: 2
#     Edge 50, Type (0, 1), BuildingBlock: TEMPAE_clean_linker_10, # of connection points: 2
#     Edge 51, Type (0, 1), BuildingBlock: TEMPAE_clean_linker_10, # of connection points: 2
#     Edge 52, Type (0, 1), BuildingBlock: TEMPAE_clean_linker_10, # of connection points: 2
#     Edge 53, Type (0, 1), BuildingBlock: TEMPAE_clean_linker_10, # of connection points: 2
#     Edge 54, Type (0, 1), BuildingBlock: TEMPAE_clean_linker_10, # of connection points: 2
#     Edge 55, Type (0, 1), BuildingBlock: TEMPAE_clean_linker_10, # of connection points: 2
#     Edge 56, Type (0, 1), BuildingBlock: TEMPAE_clean_linker_10, # of connection points: 2
#     Edge 57, Type (0, 1), BuildingBlock: TEMPAE_clean_linker_10, # of connection points: 2
#     Edge 58, Type (0, 1), BuildingBlock: TEMPAE_clean_linker_10, # of connection points: 2
#     Edge 59, Type (0, 1), BuildingBlock: TEMPAE_clean_linker_10, # of connection points: 2
#     Edge 60, Type (0, 1), BuildingBlock: TEMPAE_clean_linker_10, # of connection points: 2
#     Edge 61, Type (0, 1), BuildingBlock: TEMPAE_clean_linker_10, # of connection points: 2
#     Edge 62, Type (0, 1), BuildingBlock: TEMPAE_clean_linker_10, # of connection points: 2
#     Edge 63, Type (0, 1), BuildingBlock: TEMPAE_clean_linker_10, # of connection points: 2
#     Edge 64, Type (0, 1), BuildingBlock: TEMPAE_clean_linker_10, # of connection points: 2
#     Edge 65, Type (0, 1), BuildingBlock: TEMPAE_clean_linker_10, # of connection points: 2
#     Edge 66, Type (0, 1), BuildingBlock: TEMPAE_clean_linker_10, # of connection points: 2
#     Edge 67, Type (0, 1), BuildingBlock: TEMPAE_clean_linker_10, # of connection points: 2
#     Edge 68, Type (0, 1), BuildingBlock: TEMPAE_clean_linker_10, # of connection points: 2
#     Edge 69, Type (0, 1), BuildingBlock: TEMPAE_clean_linker_10, # of connection points: 2
#     Edge 70, Type (0, 1), BuildingBlock: TEMPAE_clean_linker_10, # of connection points: 2
#     Edge 71, Type (0, 1), BuildingBlock: TEMPAE_clean_linker_10, # of connection points: 2
#     Edge 72, Type (0, 1), BuildingBlock: TEMPAE_clean_linker_10, # of connection points: 2
#     Edge 73, Type (0, 1), BuildingBlock: TEMPAE_clean_linker_10, # of connection points: 2
#     Edge 74, Type (0, 1), BuildingBlock: TEMPAE_clean_linker_10, # of connection points: 2
#     Edge 75, Type (0, 1), BuildingBlock: TEMPAE_clean_linker_10, # of connection points: 2
#     Edge 76, Type (0, 1), BuildingBlock: TEMPAE_clean_linker_10, # of connection points: 2
#     Edge 77, Type (0, 1), BuildingBlock: TEMPAE_clean_linker_10, # of connection points: 2
#     Edge 78, Type (0, 1), BuildingBlock: TEMPAE_clean_linker_10, # of connection points: 2
#     Edge 79, Type (0, 1), BuildingBlock: TEMPAE_clean_linker_10, # of connection points: 2
#     Edge 80, Type (0, 1), BuildingBlock: TEMPAE_clean_linker_10, # of connection points: 2
# Relax obj value: 0.009
# Max RMSD: 0.093
# Mean RMSD: 0.060
data_MOF--net-eea--node1-WUSLED_clean_sbu_0--node2-KUMBUR_clean_sbu_0--edge1-TEMPAE_clean_linker_10
_symmetry_space_group_name_H-M    P1
_symmetry_Int_Tables_number       1
_symmetry_cell_setting            triclinic
loop_
_symmetry_equiv_pos_as_xyz
'x, y, z'
_cell_length_a     67.938827
_cell_length_b     69.305549
_cell_length_c     92.409363
_cell_angle_alpha  89.901726
_cell_angle_beta   90.185701
_cell_angle_gamma 119.93465
loop_
_atom_site_label
_atom_site_type_symbol
_atom_site_fract_x
_atom_site_fract_y
_atom_site_fract_z
_atom_type_partial_charge
C0 C 0.21415 0.148 0.40749 0.0
C1 C 0.21175 0.16225 0.41721 0.0
C2 C 0.20845 0.18339 0.39704 0.0
C3 C 0.20887 0.17975 0.41203 0.0
C4 C 0.21105 0.16911 0.38741 0.0
C5 C 0.21386 0.15165 0.39259 0.0
U6 U 0.2297 0.1158 0.43543 0.0
O7 O 0.21208 0.07978 0.43987 0.0
O8 O 0.24689 0.09645 0.43151 0.0
C9 C 0.22877 0.07736 0.43473 0.0
C10 C 0.2165 0.12896 0.41246 0.0
C11 C 0.22267 0.05849 0.42459 0.0
C12 C 0.19457 0.02337 0.41355 0.0
C13 C 0.1999 0.04213 0.42203 0.0
C14 C 0.23458 0.03701 0.40978 0.0
C15 C 0.21185 0.02044 0.40742 0.0
C16 C 0.23991 0.05571 0.4183 0.0
C17 C 0.25298 0.1418 0.47327 0.0
C18 C 0.26267 0.12477 0.49308 0.0
C19 C 0.26936 0.16234 0.49555 0.0
C20 C 0.26072 0.16112 0.48161 0.0
C21 C 0.27045 0.14419 0.50153 0.0
C22 C 0.254 0.12358 0.47907 0.0
C23 C 0.24405 0.14133 0.4586 0.0
O24 O 0.23735 0.13283 0.41429 0.0
O25 O 0.20257 0.11645 0.42271 0.0
O26 O 0.22262 0.12647 0.45628 0.0
O27 O 0.25734 0.14313 0.44776 0.0
H28 H 0.21201 0.15979 0.42877 0.0
H29 H 0.20718 0.19055 0.41976 0.0
H30 H 0.2105 0.17115 0.37582 0.0
H31 H 0.2156 0.1408 0.3849 0.0
H32 H 0.17687 0.01108 0.41186 0.0
H33 H 0.18613 0.04357 0.42678 0.0
H34 H 0.24835 0.03519 0.40543 0.0
H35 H 0.25762 0.06777 0.42023 0.0
H36 H 0.26307 0.11041 0.49734 0.0
H37 H 0.27555 0.17771 0.50156 0.0
H38 H 0.26018 0.17541 0.47731 0.0
H39 H 0.24808 0.10849 0.4728 0.0
C40 C 0.95312 0.15753 0.4077 0.0
C41 C 0.97432 0.16171 0.41306 0.0
C42 C 0.99439 0.19254 0.39599 0.0
C43 C 0.99466 0.17901 0.40732 0.0
C44 C 0.97314 0.18854 0.39084 0.0
C45 C 0.95286 0.17127 0.39657 0.0
U46 U 0.90267 0.12174 0.4342 0.0
O47 O 0.86623 0.10154 0.42886 0.0
O48 O 0.88446 0.08535 0.43745 0.0
C49 C 0.86533 0.08258 0.43196 0.0
C50 C 0.93135 0.13767 0.41232 0.0
C51 C 0.85254 0.06361 0.42174 0.0
C52 C 0.84392 0.02732 0.41216 0.0
C53 C 0.85793 0.04655 0.42025 0.0
C54 C 0.81899 0.04183 0.40661 0.0
C55 C 0.82405 0.02451 0.40538 0.0
C56 C 0.83296 0.06102 0.41471 0.0
C57 C 0.90201 0.14551 0.47256 0.0
C58 C 0.87738 0.12677 0.49319 0.0
C59 C 0.9026 0.16665 0.49378 0.0
C60 C 0.91051 0.16579 0.47996 0.0
C61 C 0.88587 0.14719 0.50063 0.0
C62 C 0.88535 0.12594 0.47928 0.0
C63 C 0.91134 0.14557 0.45806 0.0
O64 O 0.93225 0.12471 0.42241 0.0
O65 O 0.91356 0.1403 0.41362 0.0
O66 O 0.90053 0.1476 0.44687 0.0
O67 O 0.91843 0.1313 0.45584 0.0
H68 H 0.97528 0.15131 0.42147 0.0
H69 H 0.01061 0.18135 0.4115 0.0
H70 H 0.97213 0.19875 0.38232 0.0
H71 H 0.93688 0.16838 0.39205 0.0
H72 H 0.84857 0.01452 0.41135 0.0
H73 H 0.87268 0.04774 0.42563 0.0
H74 H 0.80371 0.04022 0.40175 0.0
H75 H 0.82799 0.07355 0.41584 0.0
H76 H 0.86436 0.11146 0.49803 0.0
H77 H 0.90989 0.18261 0.49919 0.0
H78 H 0.92348 0.18108 0.47505 0.0
H79 H 0.87851 0.11007 0.47379 0.0
C80 C 0.86282 0.80327 0.40656 0.0
C81 C 0.84224 0.79406 0.4142 0.0
C82 C 0.82609 0.80814 0.39601 0.0
C83 C 0.82408 0.79652 0.409 0.0
C84 C 0.84692 0.81755 0.38858 0.0
C85 C 0.86497 0.81514 0.39379 0.0
U86 U 0.89792 0.78731 0.43302 0.0
O87 O 0.91791 0.77125 0.42732 0.0
O88 O 0.93517 0.80516 0.43604 0.0
C89 C 0.9375 0.78901 0.43039 0.0
C90 C 0.8822 0.80045 0.4112 0.0
C91 C 0.95688 0.79542 0.42019 0.0
C92 C 0.9976 0.81817 0.41538 0.0
C93 C 0.97838 0.81356 0.42358 0.0
C94 C 0.97433 0.78692 0.39983 0.0
C95 C 0.99601 0.80469 0.40353 0.0
C96 C 0.95506 0.7823 0.40807 0.0
C97 C 0.8732 0.76412 0.47187 0.0
C98 C 0.88756 0.75025 0.49117 0.0
C99 C 0.85296 0.75146 0.49479 0.0
C100 C 0.85502 0.76032 0.48088 0.0
C101 C 0.86905 0.74607 0.50016 0.0
C102 C 0.88958 0.75912 0.47714 0.0
C103 C 0.87398 0.77294 0.45709 0.0
O104 O 0.89566 0.81396 0.4213 0.0
O105 O 0.87826 0.77997 0.41273 0.0
O106 O 0.87168 0.75993 0.44611 0.0
O107 O 0.88898 0.79395 0.45468 0.0
H108 H 0.84013 0.78479 0.42408 0.0
H109 H 0.80829 0.78889 0.41499 0.0
H110 H 0.84936 0.82694 0.37872 0.0
H111 H 0.88069 0.82247 0.38771 0.0
H112 H 0.01384 0.83219 0.41848 0.0
H113 H 0.98051 0.82389 0.43291 0.0
H114 H 0.97235 0.77599 0.3909 0.0
H115 H 0.93889 0.768 0.40519 0.0
H116 H 0.90023 0.74621 0.49485 0.0
H117 H 0.83873 0.74894 0.50139 0.0
H118 H 0.84222 0.76413 0.4771 0.0
H119 H 0.90377 0.7619 0.4704 0.0
C120 C 0.06483 0.20779 0.62601 0.0
C121 C 0.05343 0.21689 0.61839 0.0
C122 C 0.02335 0.20297 0.63676 0.0
C123 C 0.03286 0.21444 0.62369 0.0
C124 C 0.03481 0.19371 0.64417 0.0
C125 C 0.05521 0.19609 0.63886 0.0
U126 U 0.11648 0.22443 0.59975 0.0
O127 O 0.15268 0.24016 0.60584 0.0
O128 O 0.1355 0.20656 0.59661 0.0
C129 C 0.15422 0.22251 0.6025 0.0
C130 C 0.08701 0.21061 0.62128 0.0
C131 C 0.16702 0.21577 0.61258 0.0
C132 C 0.19342 0.22388 0.63281 0.0
C133 C 0.17878 0.22869 0.62474 0.0
C134 C 0.18453 0.19284 0.61701 0.0
C135 C 0.19688 0.20613 0.6289 0.0
C136 C 0.16991 0.19763 0.60897 0.0
C137 C 0.11771 0.24966 0.56132 0.0
C138 C 0.14005 0.25336 0.53973 0.0
C139 C 0.1182 0.27215 0.54081 0.0
C140 C 0.11074 0.26352 0.55472 0.0
C141 C 0.13298 0.26724 0.53305 0.0
C142 C 0.13251 0.24467 0.55371 0.0
C143 C 0.10827 0.24007 0.57577 0.0
O144 O 0.08667 0.19748 0.61092 0.0
O145 O 0.10406 0.23108 0.62011 0.0
O146 O 0.11848 0.25249 0.58714 0.0
O147 O 0.10156 0.21891 0.57786 0.0
H148 H 0.06052 0.22605 0.60846 0.0
H149 H 0.02467 0.22196 0.61771 0.0
H150 H 0.02795 0.18444 0.6541 0.0
H151 H 0.06363 0.18887 0.64493 0.0
H152 H 0.20274 0.23467 0.64177 0.0
H153 H 0.17729 0.24299 0.62778 0.0
H154 H 0.18639 0.17883 0.61375 0.0
H155 H 0.16137 0.18747 0.5996 0.0
H156 H 0.1516 0.24935 0.53422 0.0
H157 H 0.11196 0.28237 0.53605 0.0
H158 H 0.09917 0.26746 0.56028 0.0
H159 H 0.13814 0.23399 0.55854 0.0
C160 C 0.80617 0.86313 0.62257 0.0
C161 C 0.78714 0.84241 0.62601 0.0
C162 C 0.8117 0.82766 0.6333 0.0
C163 C 0.78989 0.82492 0.63131 0.0
C164 C 0.83067 0.84826 0.62961 0.0
C165 C 0.82793 0.86577 0.62439 0.0
U166 U 0.78939 0.8965 0.5963 0.0
O167 O 0.77324 0.91648 0.60121 0.0
O168 O 0.80741 0.93258 0.59178 0.0
C169 C 0.79104 0.93527 0.59715 0.0
C170 C 0.80382 0.88261 0.61828 0.0
C171 C 0.79803 0.95477 0.60667 0.0
C172 C 0.80387 0.972 0.63045 0.0
C173 C 0.79834 0.95328 0.62182 0.0
C174 C 0.80911 0.99389 0.60887 0.0
C175 C 0.80923 0.99256 0.62407 0.0
C176 C 0.8036 0.97524 0.60031 0.0
C177 C 0.76338 0.87198 0.55857 0.0
C178 C 0.76762 0.8766 0.53234 0.0
C179 C 0.73055 0.86247 0.54312 0.0
C180 C 0.74 0.86416 0.55689 0.0
C181 C 0.74417 0.86842 0.53064 0.0
C182 C 0.77707 0.87825 0.54611 0.0
C183 C 0.77309 0.87158 0.57299 0.0
O184 O 0.81723 0.89536 0.6079 0.0
O185 O 0.78312 0.87956 0.61736 0.0
O186 O 0.76073 0.8695 0.58444 0.0
O187 O 0.79484 0.88566 0.57501 0.0
H188 H 0.7701 0.83975 0.62485 0.0
H189 H 0.77489 0.80921 0.63387 0.0
H190 H 0.84772 0.85109 0.63117 0.0
H191 H 0.84293 0.88161 0.62205 0.0
H192 H 0.80399 0.9704 0.6421 0.0
H193 H 0.79412 0.93763 0.62698 0.0
H194 H 0.81273 0.00924 0.60354 0.0
H195 H 0.80333 0.97673 0.58864 0.0
H196 H 0.77859 0.88108 0.52298 0.0
H197 H 0.71249 0.85637 0.54226 0.0
H198 H 0.72884 0.85892 0.56618 0.0
H199 H 0.79506 0.88396 0.54695 0.0
C200 C 0.06289 0.85571 0.62615 0.0
C201 C 0.05164 0.83521 0.61885 0.0
C202 C 0.02193 0.82001 0.63742 0.0
C203 C 0.03133 0.81755 0.62441 0.0
C204 C 0.03322 0.84074 0.64451 0.0
C205 C 0.05339 0.8583 0.63895 0.0
U206 U 0.11316 0.8891 0.59906 0.0
O207 O 0.13224 0.92542 0.59569 0.0
O208 O 0.1497 0.90852 0.6044 0.0
C209 C 0.15117 0.92769 0.60117 0.0
C210 C 0.08486 0.8745 0.62116 0.0
C211 C 0.16437 0.94665 0.61129 0.0
C212 C 0.17203 0.98185 0.62222 0.0
C213 C 0.15778 0.96254 0.61427 0.0
C214 C 0.19955 0.96963 0.62471 0.0
C215 C 0.19328 0.98583 0.62739 0.0
C216 C 0.18535 0.95039 0.61673 0.0
C217 C 0.11451 0.8669 0.56043 0.0
C218 C 0.13852 0.85906 0.54466 0.0
C219 C 0.11385 0.87114 0.53416 0.0
C220 C 0.10618 0.87237 0.54804 0.0
C221 C 0.12992 0.86418 0.53224 0.0
C222 C 0.1309 0.86035 0.55853 0.0
C223 C 0.10435 0.86584 0.57494 0.0
O224 O 0.10173 0.87053 0.61957 0.0
O225 O 0.0841 0.88729 0.61091 0.0
O226 O 0.09711 0.87993 0.57745 0.0
O227 O 0.11431 0.86287 0.58628 0.0
H228 H 0.05869 0.83279 0.60898 0.0
H229 H 0.02325 0.80182 0.61869 0.0
H230 H 0.0264 0.84346 0.65438 0.0
H231 H 0.06173 0.87397 0.64476 0.0
H232 H 0.16648 0.99378 0.62421 0.0
H233 H 0.14185 0.96039 0.61017 0.0
H234 H 0.21586 0.97219 0.62831 0.0
H235 H 0.19115 0.93872 0.61442 0.0
H236 H 0.15112 0.85393 0.54367 0.0
H237 H 0.10661 0.87496 0.52489 0.0
H238 H 0.09325 0.87708 0.54903 0.0
H239 H 0.13759 0.85577 0.56775 0.0
C240 C 0.88023 0.4807 0.74128 0.0
C241 C 0.87808 0.49507 0.75102 0.0
C242 C 0.87481 0.5163 0.73089 0.0
C243 C 0.87534 0.51267 0.74588 0.0
C244 C 0.87719 0.50192 0.72123 0.0
C245 C 0.87986 0.48434 0.72638 0.0
U246 U 0.89632 0.449 0.76916 0.0
O247 O 0.87828 0.41315 0.77437 0.0
O248 O 0.91266 0.42891 0.76531 0.0
C249 C 0.89471 0.41024 0.76937 0.0
C250 C 0.88235 0.46152 0.74625 0.0
C251 C 0.88779 0.39067 0.75993 0.0
C252 C 0.88127 0.37323 0.73617 0.0
C253 C 0.88694 0.392 0.74479 0.0
C254 C 0.87693 0.3516 0.75774 0.0
C255 C 0.87626 0.35278 0.74255 0.0
C256 C 0.88262 0.37031 0.7663 0.0
C257 C 0.92171 0.47618 0.80632 0.0
C258 C 0.92913 0.45844 0.82676 0.0
C259 C 0.94204 0.4979 0.82749 0.0
C260 C 0.9328 0.49652 0.81372 0.0
C261 C 0.94041 0.47892 0.83421 0.0
C262 C 0.91991 0.45709 0.81292 0.0
C263 C 0.91216 0.4755 0.79181 0.0
O264 O 0.90314 0.46503 0.7477 0.0
O265 O 0.86882 0.44952 0.75681 0.0
O266 O 0.89053 0.4609 0.78992 0.0
O267 O 0.92482 0.47666 0.78075 0.0
H268 H 0.87842 0.49263 0.76258 0.0
H269 H 0.87382 0.52355 0.75363 0.0
H270 H 0.87656 0.50396 0.70965 0.0
H271 H 0.88141 0.47341 0.71867 0.0
H272 H 0.88071 0.37472 0.72453 0.0
H273 H 0.89082 0.40755 0.73963 0.0
H274 H 0.87357 0.33632 0.76305 0.0
H275 H 0.88328 0.36894 0.77795 0.0
H276 H 0.92774 0.44353 0.83153 0.0
H277 H 0.95026 0.51386 0.83295 0.0
H278 H 0.93429 0.51143 0.80885 0.0
H279 H 0.91144 0.44122 0.80736 0.0
C280 C 0.62036 0.48771 0.74055 0.0
C281 C 0.6317 0.50821 0.74785 0.0
C282 C 0.66134 0.52334 0.72923 0.0
C283 C 0.65202 0.52583 0.74227 0.0
C284 C 0.64995 0.50262 0.72213 0.0
C285 C 0.62977 0.48509 0.72773 0.0
U286 U 0.57009 0.45474 0.76772 0.0
O287 O 0.53356 0.43523 0.76242 0.0
O288 O 0.55099 0.41846 0.77135 0.0
C289 C 0.53209 0.41609 0.76573 0.0
C290 C 0.59839 0.46894 0.7456 0.0
C291 C 0.51909 0.39707 0.75559 0.0
C292 C 0.5103 0.36079 0.74589 0.0
C293 C 0.52442 0.37998 0.75399 0.0
C294 C 0.4854 0.37541 0.74054 0.0
C295 C 0.4904 0.35807 0.7392 0.0
C296 C 0.49947 0.39455 0.74866 0.0
C297 C 0.57009 0.47909 0.8059 0.0
C298 C 0.54545 0.46046 0.82655 0.0
C299 C 0.57063 0.50034 0.82705 0.0
C300 C 0.57855 0.49941 0.81324 0.0
C301 C 0.55393 0.48092 0.83395 0.0
C302 C 0.55343 0.45956 0.81266 0.0
C303 C 0.57948 0.479 0.79144 0.0
O304 O 0.59917 0.45636 0.75599 0.0
O305 O 0.58148 0.47288 0.74705 0.0
O306 O 0.56893 0.4813 0.78019 0.0
O307 O 0.58609 0.46435 0.78928 0.0
H308 H 0.62473 0.51066 0.75775 0.0
H309 H 0.66017 0.54156 0.74799 0.0
H310 H 0.6567 0.49986 0.71224 0.0
H311 H 0.62136 0.46943 0.72192 0.0
H312 H 0.51491 0.34797 0.74498 0.0
H313 H 0.53921 0.38113 0.75927 0.0
H314 H 0.47011 0.37386 0.73575 0.0
H315 H 0.49457 0.40713 0.74987 0.0
H316 H 0.53244 0.44517 0.83142 0.0
H317 H 0.5779 0.51634 0.83242 0.0
H318 H 0.59152 0.51468 0.8083 0.0
H319 H 0.54661 0.44366 0.80722 0.0
C320 C 0.52955 0.13737 0.73946 0.0
C321 C 0.50895 0.12804 0.7471 0.0
C322 C 0.49278 0.14227 0.72902 0.0
C323 C 0.49078 0.13053 0.74195 0.0
C324 C 0.51363 0.1518 0.7216 0.0
C325 C 0.5317 0.14937 0.72675 0.0
U326 U 0.56445 0.12068 0.7656 0.0
O327 O 0.58439 0.1047 0.7596 0.0
O328 O 0.60167 0.13835 0.76873 0.0
C329 C 0.60399 0.12232 0.76287 0.0
C330 C 0.54893 0.13448 0.74403 0.0
C331 C 0.62349 0.12895 0.75271 0.0
C332 C 0.64132 0.12059 0.73251 0.0
C333 C 0.62194 0.1158 0.74067 0.0
C334 C 0.66422 0.15204 0.74799 0.0
C335 C 0.66288 0.13854 0.73621 0.0
C336 C 0.64487 0.14728 0.75612 0.0
C337 C 0.53913 0.09613 0.80416 0.0
C338 C 0.55555 0.08667 0.82467 0.0
C339 C 0.51671 0.07888 0.82583 0.0
C340 C 0.51877 0.08772 0.81191 0.0
C341 C 0.53499 0.07807 0.83246 0.0
C342 C 0.5576 0.09559 0.81065 0.0
C343 C 0.54023 0.10554 0.78952 0.0
O344 O 0.56225 0.14767 0.7543 0.0
O345 O 0.54502 0.11397 0.74526 0.0
O346 O 0.53792 0.0929 0.77833 0.0
O347 O 0.55539 0.1266 0.78742 0.0
H348 H 0.50684 0.11866 0.75692 0.0
H349 H 0.47498 0.12281 0.74793 0.0
H350 H 0.51607 0.16127 0.71178 0.0
H351 H 0.54742 0.15678 0.72069 0.0
H352 H 0.63953 0.10963 0.72364 0.0
H353 H 0.60588 0.10136 0.73778 0.0
H354 H 0.68035 0.1662 0.7511 0.0
H355 H 0.64682 0.15762 0.7654 0.0
H356 H 0.56997 0.08622 0.82931 0.0
H357 H 0.50077 0.07292 0.83147 0.0
H358 H 0.50434 0.0881 0.8072 0.0
H359 H 0.57352 0.10201 0.8049 0.0
C360 C 0.73205 0.54076 0.95997 0.0
C361 C 0.72052 0.54965 0.95227 0.0
C362 C 0.69052 0.53587 0.97069 0.0
C363 C 0.69994 0.54718 0.95756 0.0
C364 C 0.70212 0.52681 0.97819 0.0
C365 C 0.72255 0.52923 0.9729 0.0
U366 U 0.78284 0.5562 0.93324 0.0
O367 O 0.81926 0.57211 0.93876 0.0
O368 O 0.80161 0.53808 0.93023 0.0
C369 C 0.82059 0.55426 0.9357 0.0
C370 C 0.75417 0.54348 0.95518 0.0
C371 C 0.83371 0.54793 0.94578 0.0
C372 C 0.86045 0.55662 0.96588 0.0
C373 C 0.84559 0.56114 0.95782 0.0
C374 C 0.85156 0.52533 0.95033 0.0
C375 C 0.86401 0.5389 0.96209 0.0
C376 C 0.83673 0.52982 0.94229 0.0
C377 C 0.78194 0.57879 0.89425 0.0
C378 C 0.81102 0.59234 0.87544 0.0
C379 C 0.77497 0.59022 0.87069 0.0
C380 C 0.76772 0.58194 0.88468 0.0
C381 C 0.79673 0.59557 0.86578 0.0
C382 C 0.80369 0.58403 0.88952 0.0
C383 C 0.77342 0.57036 0.90903 0.0
O384 O 0.7536 0.52981 0.94514 0.0
O385 O 0.77109 0.56393 0.9535 0.0
O386 O 0.78451 0.58348 0.91996 0.0
O387 O 0.7667 0.54933 0.91164 0.0
H388 H 0.72752 0.55866 0.94228 0.0
H389 H 0.69166 0.55454 0.95152 0.0
H390 H 0.69534 0.51767 0.98816 0.0
H391 H 0.73106 0.52215 0.97901 0.0
H392 H 0.86983 0.56761 0.97475 0.0
H393 H 0.844 0.57541 0.96076 0.0
H394 H 0.8535 0.51133 0.94717 0.0
H395 H 0.82809 0.51944 0.93302 0.0
H396 H 0.8278 0.59606 0.87208 0.0
H397 H 0.76357 0.59282 0.8638 0.0
H398 H 0.75091 0.57815 0.88808 0.0
H399 H 0.81499 0.58173 0.8967 0.0
C400 C 0.47131 0.19563 0.9562 0.0
C401 C 0.45233 0.17499 0.95985 0.0
C402 C 0.47696 0.16022 0.96688 0.0
C403 C 0.45513 0.15753 0.96512 0.0
C404 C 0.49588 0.18074 0.96302 0.0
C405 C 0.49309 0.19822 0.95781 0.0
U406 U 0.45448 0.22873 0.92979 0.0
O407 O 0.4383 0.24871 0.93454 0.0
O408 O 0.47247 0.26476 0.92513 0.0
C409 C 0.45611 0.26748 0.93047 0.0
C410 C 0.46893 0.21506 0.95187 0.0
C411 C 0.46313 0.28697 0.93999 0.0
C412 C 0.4693 0.3042 0.96379 0.0
C413 C 0.46364 0.28547 0.95514 0.0
C414 C 0.47429 0.32609 0.94225 0.0
C415 C 0.47462 0.32476 0.95744 0.0
C416 C 0.46863 0.30743 0.93366 0.0
C417 C 0.42862 0.204 0.8921 0.0
C418 C 0.43312 0.20932 0.86593 0.0
C419 C 0.39579 0.19395 0.87654 0.0
C420 C 0.40515 0.19557 0.89032 0.0
C421 C 0.4096 0.20057 0.86413 0.0
C422 C 0.44248 0.21091 0.87972 0.0
C423 C 0.43828 0.20364 0.90654 0.0
O424 O 0.48234 0.22778 0.94148 0.0
O425 O 0.44821 0.21195 0.9509 0.0
O426 O 0.42588 0.20162 0.91796 0.0
O427 O 0.46002 0.21773 0.90859 0.0
H428 H 0.43528 0.17238 0.95885 0.0
H429 H 0.44016 0.14188 0.96784 0.0
H430 H 0.51294 0.18352 0.9644 0.0
H431 H 0.50806 0.21399 0.95531 0.0
H432 H 0.46959 0.3026 0.97544 0.0
H433 H 0.45949 0.26983 0.96027 0.0
H434 H 0.47788 0.34145 0.93695 0.0
H435 H 0.46821 0.30892 0.922 0.0
H436 H 0.44425 0.21431 0.85662 0.0
H437 H 0.37765 0.18739 0.87561 0.0
H438 H 0.39386 0.18983 0.89956 0.0
H439 H 0.46056 0.21711 0.88062 0.0
C440 C 0.73037 0.18687 0.95859 0.0
C441 C 0.70918 0.18266 0.95319 0.0
C442 C 0.68909 0.15166 0.97013 0.0
C443 C 0.68884 0.16526 0.95885 0.0
C444 C 0.71033 0.1557 0.97533 0.0
C445 C 0.73062 0.17306 0.96968 0.0
U446 U 0.78075 0.22263 0.93211 0.0
O447 O 0.79897 0.259 0.92879 0.0
O448 O 0.81721 0.24283 0.93739 0.0
C449 C 0.81812 0.26177 0.93424 0.0
C450 C 0.75213 0.20676 0.95402 0.0
C451 C 0.83098 0.28081 0.9444 0.0
C452 C 0.83991 0.31732 0.95373 0.0
C453 C 0.8258 0.29803 0.94572 0.0
C454 C 0.86452 0.30254 0.95955 0.0
C455 C 0.85968 0.32002 0.9606 0.0
C456 C 0.85045 0.28329 0.95153 0.0
C457 C 0.78139 0.19882 0.89381 0.0
C458 C 0.80532 0.21774 0.87295 0.0
C459 C 0.78151 0.17765 0.87281 0.0
C460 C 0.77361 0.17846 0.88664 0.0
C461 C 0.79753 0.19724 0.86572 0.0
C462 C 0.79735 0.21852 0.88687 0.0
C463 C 0.77201 0.19871 0.9083 0.0
O464 O 0.76993 0.20415 0.95273 0.0
O465 O 0.75122 0.21972 0.94393 0.0
O466 O 0.76489 0.21296 0.91051 0.0
O467 O 0.78282 0.19669 0.91949 0.0
H468 H 0.70823 0.1931 0.9448 0.0
H469 H 0.67289 0.16288 0.95464 0.0
H470 H 0.71133 0.14544 0.98382 0.0
H471 H 0.74659 0.17597 0.97423 0.0
H472 H 0.83542 0.33025 0.95441 0.0
H473 H 0.81114 0.29692 0.94026 0.0
H474 H 0.87972 0.30406 0.96448 0.0
H475 H 0.85527 0.27063 0.95053 0.0
H476 H 0.81779 0.23316 0.86793 0.0
H477 H 0.77478 0.1616 0.86757 0.0
H478 H 0.76118 0.16305 0.89173 0.0
H479 H 0.80363 0.23445 0.89218 0.0
C480 C 0.54742 0.81442 0.07431 0.0
C481 C 0.54491 0.82865 0.08399 0.0
C482 C 0.54154 0.84965 0.06375 0.0
C483 C 0.54195 0.84608 0.07875 0.0
C484 C 0.54425 0.83539 0.05417 0.0
C485 C 0.54715 0.81801 0.05939 0.0
U486 U 0.56311 0.78245 0.10234 0.0
O487 O 0.54558 0.74645 0.10681 0.0
O488 O 0.58039 0.76318 0.09845 0.0
C489 C 0.56228 0.74408 0.10166 0.0
C490 C 0.54984 0.79546 0.07933 0.0
C491 C 0.55619 0.72528 0.09146 0.0
C492 C 0.5281 0.69026 0.08032 0.0
C493 C 0.53342 0.7089 0.08892 0.0
C494 C 0.56812 0.70405 0.07641 0.0
C495 C 0.54539 0.68747 0.07406 0.0
C496 C 0.57344 0.72263 0.08505 0.0
C497 C 0.58635 0.80839 0.14014 0.0
C498 C 0.59595 0.79119 0.15989 0.0
C499 C 0.60286 0.82882 0.16244 0.0
C500 C 0.5942 0.8277 0.14852 0.0
C501 C 0.60385 0.81059 0.16837 0.0
C502 C 0.58727 0.79009 0.1459 0.0
C503 C 0.57741 0.808 0.12549 0.0
O504 O 0.57072 0.79941 0.08118 0.0
O505 O 0.53594 0.78297 0.0896 0.0
O506 O 0.55599 0.79313 0.12316 0.0
O507 O 0.59071 0.80985 0.11464 0.0
H508 H 0.54515 0.82624 0.09556 0.0
H509 H 0.54017 0.85687 0.08645 0.0
H510 H 0.54372 0.83739 0.04257 0.0
H511 H 0.54897 0.80718 0.05174 0.0
H512 H 0.51041 0.67794 0.07864 0.0
H513 H 0.51966 0.71024 0.09376 0.0
H514 H 0.58189 0.70232 0.07196 0.0
H515 H 0.59114 0.73471 0.08697 0.0
H516 H 0.59627 0.77676 0.16411 0.0
H517 H 0.60915 0.84418 0.16847 0.0
H518 H 0.59374 0.84204 0.14425 0.0
H519 H 0.58126 0.77501 0.13959 0.0
C520 C 0.28627 0.82236 0.07475 0.0
C521 C 0.30761 0.82692 0.08011 0.0
C522 C 0.32727 0.85756 0.06284 0.0
C523 C 0.3278 0.8443 0.07427 0.0
C524 C 0.30589 0.85317 0.05768 0.0
C525 C 0.28574 0.83581 0.06351 0.0
U526 U 0.23668 0.78697 0.10181 0.0
O527 O 0.20022 0.76583 0.09696 0.0
O528 O 0.21934 0.75073 0.10588 0.0
C529 C 0.19977 0.74734 0.10081 0.0
C530 C 0.26468 0.80245 0.07957 0.0
C531 C 0.18669 0.72749 0.09148 0.0
C532 C 0.17305 0.70955 0.06799 0.0
C533 C 0.18692 0.72866 0.07629 0.0
C534 C 0.1588 0.68792 0.08992 0.0
C535 C 0.15867 0.68888 0.0747 0.0
C536 C 0.17262 0.70693 0.09816 0.0
C537 C 0.23696 0.81138 0.14002 0.0
C538 C 0.2095 0.79365 0.15951 0.0
C539 C 0.2411 0.83101 0.16269 0.0
C540 C 0.24875 0.83033 0.14874 0.0
C541 C 0.22139 0.81268 0.16834 0.0
C542 C 0.21723 0.79299 0.14549 0.0
C543 C 0.24586 0.81155 0.12536 0.0
O544 O 0.26597 0.78982 0.08974 0.0
O545 O 0.24676 0.80486 0.08094 0.0
O546 O 0.23424 0.81276 0.11435 0.0
O547 O 0.25349 0.79772 0.12308 0.0
H548 H 0.30879 0.81677 0.08861 0.0
H549 H 0.34385 0.84692 0.07845 0.0
H550 H 0.30466 0.86315 0.04908 0.0
H551 H 0.26966 0.83262 0.05899 0.0
H552 H 0.17365 0.71098 0.05631 0.0
H553 H 0.19761 0.74434 0.07086 0.0
H554 H 0.14775 0.67256 0.09557 0.0
H555 H 0.17199 0.70563 0.10986 0.0
H556 H 0.19437 0.77914 0.16348 0.0
H557 H 0.25051 0.84612 0.16896 0.0
H558 H 0.26396 0.84476 0.14474 0.0
H559 H 0.20787 0.77816 0.13895 0.0
C560 C 0.19661 0.47028 0.07276 0.0
C561 C 0.17623 0.46137 0.08061 0.0
C562 C 0.15978 0.47513 0.0624 0.0
C563 C 0.15802 0.46383 0.07549 0.0
C564 C 0.18042 0.48423 0.05476 0.0
C565 C 0.19852 0.48182 0.05988 0.0
U566 U 0.23182 0.45432 0.09911 0.0
O567 O 0.25184 0.43832 0.09337 0.0
O568 O 0.26907 0.47221 0.10213 0.0
C569 C 0.27142 0.45608 0.09647 0.0
C570 C 0.21604 0.4675 0.07734 0.0
C571 C 0.29083 0.46254 0.08627 0.0
C572 C 0.30841 0.45402 0.066 0.0
C573 C 0.28911 0.44935 0.07421 0.0
C574 C 0.33155 0.48542 0.08146 0.0
C575 C 0.33004 0.47188 0.06966 0.0
C576 C 0.31229 0.48078 0.08964 0.0
C577 C 0.20702 0.43103 0.13796 0.0
C578 C 0.22133 0.41717 0.15729 0.0
C579 C 0.18668 0.41831 0.16083 0.0
C580 C 0.18879 0.42718 0.14692 0.0
C581 C 0.20277 0.41296 0.16624 0.0
C582 C 0.2234 0.42606 0.14326 0.0
C583 C 0.20786 0.43988 0.12318 0.0
O584 O 0.22951 0.48098 0.08745 0.0
O585 O 0.21215 0.44702 0.07883 0.0
O586 O 0.2056 0.4269 0.11219 0.0
O587 O 0.22286 0.46089 0.12079 0.0
H588 H 0.17431 0.45236 0.09057 0.0
H589 H 0.14239 0.45645 0.08164 0.0
H590 H 0.18268 0.49337 0.04481 0.0
H591 H 0.21408 0.48891 0.05366 0.0
H592 H 0.30649 0.44304 0.05711 0.0
H593 H 0.27298 0.43498 0.07135 0.0
H594 H 0.34774 0.49952 0.08454 0.0
H595 H 0.31435 0.49115 0.09892 0.0
H596 H 0.23399 0.41315 0.16101 0.0
H597 H 0.17241 0.41577 0.1674 0.0
H598 H 0.17599 0.43098 0.14312 0.0
H599 H 0.23763 0.42887 0.13655 0.0
C600 C 0.39844 0.87682 0.29221 0.0
C601 C 0.37744 0.86023 0.2866 0.0
C602 C 0.3566 0.8709 0.30339 0.0
C603 C 0.35684 0.85738 0.29207 0.0
C604 C 0.37765 0.88774 0.30876 0.0
C605 C 0.39819 0.89059 0.3033 0.0
U606 U 0.45028 0.89104 0.26669 0.0
O607 O 0.4864 0.90618 0.27281 0.0
O608 O 0.46857 0.87239 0.26388 0.0
C609 C 0.48749 0.88824 0.26964 0.0
C610 C 0.42044 0.87841 0.28797 0.0
C611 C 0.50018 0.88143 0.27976 0.0
C612 C 0.52663 0.88956 0.29995 0.0
C613 C 0.51197 0.89436 0.29191 0.0
C614 C 0.5177 0.85851 0.28416 0.0
C615 C 0.5301 0.87183 0.29602 0.0
C616 C 0.50305 0.86328 0.27615 0.0
C617 C 0.45213 0.91635 0.22813 0.0
C618 C 0.47371 0.9192 0.20633 0.0
C619 C 0.45315 0.93927 0.20775 0.0
C620 C 0.44577 0.93077 0.22168 0.0
C621 C 0.46724 0.93366 0.1998 0.0
C622 C 0.46624 0.91064 0.22034 0.0
C623 C 0.44269 0.90691 0.24261 0.0
O624 O 0.42004 0.86482 0.27789 0.0
O625 O 0.43832 0.89845 0.287 0.0
O626 O 0.45309 0.91931 0.25394 0.0
O627 O 0.43558 0.88568 0.24475 0.0
H628 H 0.37684 0.84906 0.27822 0.0
H629 H 0.34107 0.84409 0.28771 0.0
H630 H 0.37831 0.89875 0.31728 0.0
H631 H 0.41398 0.90333 0.30802 0.0
H632 H 0.53599 0.90037 0.3089 0.0
H633 H 0.51049 0.90866 0.29495 0.0
H634 H 0.51957 0.84451 0.28089 0.0
H635 H 0.49449 0.85312 0.26678 0.0
H636 H 0.48472 0.91464 0.20067 0.0
H637 H 0.44738 0.94995 0.20311 0.0
H638 H 0.43472 0.93526 0.22739 0.0
H639 H 0.47137 0.8995 0.22504 0.0
C640 C 0.13871 0.52975 0.28923 0.0
C641 C 0.11982 0.50903 0.29286 0.0
C642 C 0.14467 0.4946 0.30008 0.0
C643 C 0.12278 0.4917 0.29821 0.0
C644 C 0.16351 0.5152 0.29625 0.0
C645 C 0.16056 0.53256 0.29096 0.0
U646 U 0.12124 0.56195 0.26252 0.0
O647 O 0.1047 0.58168 0.26702 0.0
O648 O 0.13881 0.59788 0.25753 0.0
C649 C 0.12238 0.60049 0.26285 0.0
C650 C 0.13613 0.54902 0.28475 0.0
C651 C 0.1293 0.62003 0.27233 0.0
C652 C 0.1355 0.63734 0.29611 0.0
C653 C 0.12997 0.61863 0.28748 0.0
C654 C 0.14008 0.65907 0.27455 0.0
C655 C 0.14054 0.65782 0.28975 0.0
C656 C 0.13454 0.64041 0.26598 0.0
C657 C 0.09514 0.53518 0.22536 0.0
C658 C 0.08764 0.55308 0.20504 0.0
C659 C 0.0744 0.51355 0.20425 0.0
C660 C 0.08378 0.51485 0.21796 0.0
C661 C 0.07614 0.53262 0.19759 0.0
C662 C 0.09701 0.55434 0.21883 0.0
C663 C 0.10505 0.5358 0.23972 0.0
O664 O 0.14938 0.56158 0.27425 0.0
O665 O 0.11535 0.54574 0.28381 0.0
O666 O 0.0926 0.53433 0.25098 0.0
O667 O 0.12666 0.55055 0.24146 0.0
H668 H 0.10272 0.50624 0.29176 0.0
H669 H 0.10788 0.47598 0.3009 0.0
H670 H 0.18062 0.51815 0.29771 0.0
H671 H 0.17546 0.5484 0.28848 0.0
H672 H 0.1359 0.6358 0.30775 0.0
H673 H 0.12603 0.60305 0.29262 0.0
H674 H 0.14346 0.67436 0.26924 0.0
H675 H 0.134 0.64184 0.25432 0.0
H676 H 0.08912 0.56806 0.20031 0.0
H677 H 0.06602 0.49761 0.19879 0.0
H678 H 0.08225 0.49989 0.22277 0.0
H679 H 0.10569 0.57022 0.22437 0.0
C680 C 0.3967 0.52309 0.29229 0.0
C681 C 0.3853 0.50271 0.28486 0.0
C682 C 0.35577 0.48733 0.30354 0.0
C683 C 0.365 0.48502 0.29041 0.0
C684 C 0.36722 0.50793 0.31077 0.0
C685 C 0.38738 0.52553 0.30521 0.0
U686 U 0.44672 0.55594 0.26503 0.0
O687 O 0.46576 0.59218 0.26122 0.0
O688 O 0.4833 0.57553 0.27018 0.0
C689 C 0.48472 0.59462 0.26679 0.0
C690 C 0.41861 0.54192 0.28725 0.0
C691 C 0.49781 0.61375 0.27683 0.0
C692 C 0.50666 0.65011 0.28639 0.0
C693 C 0.49248 0.63084 0.2784 0.0
C694 C 0.53166 0.63559 0.29171 0.0
C695 C 0.52664 0.65292 0.29301 0.0
C696 C 0.51751 0.61636 0.28369 0.0
C697 C 0.44653 0.53131 0.22698 0.0
C698 C 0.47067 0.54996 0.20614 0.0
C699 C 0.44641 0.50993 0.20602 0.0
C700 C 0.43851 0.51089 0.21983 0.0
C701 C 0.46264 0.52942 0.19894 0.0
C702 C 0.46272 0.55089 0.22003 0.0
C703 C 0.43716 0.53144 0.24144 0.0
O704 O 0.43557 0.53805 0.2858 0.0
O705 O 0.41774 0.55441 0.27683 0.0
O706 O 0.4305 0.54606 0.24355 0.0
O707 O 0.44779 0.52925 0.25267 0.0
H708 H 0.3922 0.50041 0.27488 0.0
H709 H 0.3568 0.46939 0.28459 0.0
H710 H 0.36053 0.51054 0.32074 0.0
H711 H 0.39584 0.5411 0.31112 0.0
H712 H 0.50205 0.66294 0.28728 0.0
H713 H 0.47761 0.62962 0.27316 0.0
H714 H 0.54701 0.6372 0.29644 0.0
H715 H 0.52242 0.60378 0.2825 0.0
H716 H 0.48331 0.5653 0.20113 0.0
H717 H 0.4395 0.49385 0.2008 0.0
H718 H 0.42591 0.49557 0.22492 0.0
H719 H 0.46919 0.56687 0.22533 0.0
Tb720 Tb 0.49973 0.99178 0.99829 0.0
C721 C 0.54497 0.06824 0.04159 0.0
C722 C 0.5846 0.07868 0.0407 0.0
C723 C 0.57402 0.10665 0.046 0.0
C724 C 0.56143 0.06257 0.03927 0.0
C725 C 0.55097 0.09021 0.0453 0.0
C726 C 0.59083 0.10088 0.04372 0.0
C727 C 0.51107 0.07754 0.04853 0.0
N728 N 0.52298 0.05182 0.0409 0.0
C729 C 0.50602 0.05595 0.04487 0.0
C730 C 0.53363 0.09482 0.04856 0.0
Tb731 Tb 0.5162 0.01732 0.03384 0.0
N732 N 0.55462 0.04094 0.03643 0.0
C733 C 0.57029 0.03403 0.03596 0.0
C734 C 0.60071 0.07184 0.03951 0.0
C735 C 0.5935 0.04937 0.03729 0.0
H736 H 0.48852 0.04275 0.04472 0.0
H737 H 0.60581 0.04384 0.03658 0.0
H738 H 0.60856 0.11357 0.04466 0.0
H739 H 0.49755 0.08083 0.05128 0.0
H740 H 0.5652 0.01681 0.03418 0.0
H741 H 0.40984 0.96403 0.99585 0.0
H742 H 0.61867 0.08363 0.04069 0.0
H743 H 0.52806 0.96705 0.9872 0.0
H744 H 0.45039 0.99154 0.99812 0.0
H745 H 0.51955 0.92917 0.98057 0.0
H746 H 0.57902 0.12371 0.04867 0.0
H747 H 0.39754 0.92437 0.99167 0.0
H748 H 0.40823 0.89488 0.98753 0.0
H749 H 0.5375 0.11151 0.05142 0.0
H750 H 0.43816 0.88532 0.98338 0.0
N751 N 0.46141 0.96777 0.99573 0.0
C752 C 0.4455 0.97436 0.99631 0.0
C753 C 0.41545 0.93637 0.99278 0.0
C754 C 0.43182 0.92987 0.99148 0.0
C755 C 0.42235 0.95876 0.99504 0.0
C756 C 0.45491 0.94622 0.99285 0.0
H757 H 0.4798 0.8981 0.98051 0.0
N758 N 0.49351 0.95747 0.99122 0.0
C759 C 0.50589 0.93221 0.98341 0.0
C760 C 0.47159 0.94086 0.99051 0.0
C761 C 0.51064 0.95368 0.98713 0.0
C762 C 0.48344 0.9147 0.98342 0.0
C763 C 0.4659 0.91898 0.98676 0.0
O764 O 0.51878 1.00115 0.97897 0.0
O765 O 0.52543 0.01814 1.01144 0.0
O766 O 0.51357 0.04124 0.01955 0.0
O767 O 0.48983 0.01744 1.00148 0.0
O768 O 0.5363 0.00395 0.99666 0.0
O769 O 0.488 1.00242 0.98046 0.0
O770 O 0.49869 0.01027 0.05375 0.0
O771 O 0.49041 0.99116 0.02068 0.0
O772 O 0.50232 0.96777 1.01248 0.0
O773 O 0.52592 0.99154 0.03061 0.0
O774 O 0.47961 0.00506 0.03566 0.0
O775 O 0.52646 0.0042 0.05097 0.0
C776 C 0.5432 0.01952 1.00616 0.0
C777 C 0.49861 0.99639 0.95713 0.0
C778 C 0.5025 1.00196 0.93073 0.0
C779 C 0.50728 0.01071 0.94497 0.0
C780 C 0.4887 0.9788 0.92895 0.0
C781 C 0.48478 0.97344 0.9549 0.0
C782 C 0.47987 0.96475 0.94091 0.0
C783 C 0.49983 0.03694 1.00829 0.0
C784 C 0.50461 0.00531 0.97205 0.0
C785 C 0.44293 0.90231 0.98608 0.0
C786 C 0.42589 0.90776 0.98844 0.0
C787 C 0.47264 0.98963 0.02606 0.0
C788 C 0.51995 0.01243 0.07474 0.0
C789 C 0.51114 0.99847 0.08703 0.0
C790 C 0.51997 0.00657 0.10103 0.0
C791 C 0.53737 0.02889 0.10243 0.0
C792 C 0.53728 0.03455 0.07658 0.0
C793 C 0.54584 0.0427 0.09033 0.0
C794 C 0.51597 0.97207 0.02378 0.0
C795 C 0.51156 1.00373 0.06001 0.0
H796 H 0.51803 0.02848 0.9466 0.0
H797 H 0.48447 0.97154 0.91822 0.0
H798 H 0.47784 0.9622 0.96397 0.0
H799 H 0.46919 0.94698 0.93933 0.0
H800 H 0.49785 0.9813 0.08568 0.0
H801 H 0.54431 0.03578 0.11298 0.0
H802 H 0.54429 0.0455 0.06737 0.0
H803 H 0.55921 0.05983 0.09163 0.0
Tb804 Tb 0.02394 0.51153 0.99872 0.0
C805 C 0.94197 0.47752 0.03863 0.0
C806 C 0.93093 0.50563 0.03693 0.0
C807 C 0.90233 0.46708 0.04148 0.0
C808 C 0.94767 0.49931 0.0363 0.0
C809 C 0.91934 0.46117 0.04157 0.0
C810 C 0.90813 0.4893 0.03918 0.0
C811 C 0.93242 0.43497 0.04565 0.0
N812 N 0.95893 0.47261 0.0387 0.0
C813 C 0.95464 0.45184 0.04273 0.0
C814 C 0.91463 0.43957 0.04488 0.0
Tb815 Tb 0.99455 0.50093 0.03287 0.0
N816 N 0.96988 0.5145 0.03422 0.0
C817 C 0.97669 0.5367 0.03375 0.0
C818 C 0.93771 0.52821 0.03572 0.0
C819 C 0.96072 0.54383 0.03429 0.0
H820 H 0.96824 0.44807 0.04322 0.0
H821 H 0.9662 0.56139 0.03357 0.0
H822 H 0.89496 0.49378 0.0395 0.0
H823 H 0.92903 0.41842 0.04845 0.0
H824 H 0.99434 0.5491 0.03257 0.0
H825 H 0.05186 0.45084 0.99669 0.0
H826 H 0.92542 0.53379 0.03627 0.0
H827 H 0.05017 0.56455 0.98871 0.0
H828 H 0.02406 0.46334 0.999 0.0
H829 H 0.08918 0.59406 0.98296 0.0
H830 H 0.88478 0.45473 0.04355 0.0
H831 H 0.0924 0.47822 0.99279 0.0
H832 H 0.12293 0.51819 0.98971 0.0
H833 H 0.89745 0.42649 0.04717 0.0
H834 H 0.13321 0.55735 0.98614 0.0
N835 N 0.04851 0.49791 0.99705 0.0
C836 C 0.04163 0.47569 0.99744 0.0
C837 C 0.08031 0.48393 0.9941 0.0
C838 C 0.0872 0.50657 0.99324 0.0
C839 C 0.05741 0.46842 0.99615 0.0
C840 C 0.07064 0.51303 0.99457 0.0
H841 H 0.12065 0.58577 0.98336 0.0
N842 N 0.05947 0.53986 0.99275 0.0
C843 C 0.08583 0.57748 0.98565 0.0
C844 C 0.07636 0.53486 0.99241 0.0
C845 C 0.06371 0.56068 0.98887 0.0
C846 C 0.10355 0.57276 0.98593 0.0
C847 C 0.09887 0.55112 0.98908 0.0
O848 O 0.01794 0.522 0.97854 0.0
O849 O 0.99569 0.50992 1.01043 0.0
O850 O 0.97148 0.47483 0.01787 0.0
O851 O 0.99759 0.47598 1.0011 0.0
O852 O 0.01149 0.53514 0.99606 0.0
O853 O 0.01268 0.48896 0.9813 0.0
O854 O 1.00038 0.49053 0.05311 0.0
O855 O 0.02273 0.5025 0.02114 0.0
O856 O 0.04712 0.53754 0.01377 0.0
O857 O 0.02102 0.53644 0.03054 0.0
O858 O 1.00724 0.47749 0.03567 0.0
O859 O 1.00538 0.52347 0.05029 0.0
C860 C 0.99469 0.52604 1.00486 0.0
C861 C 0.0225 0.50454 0.95787 0.0
C862 C 0.01824 0.49999 0.93152 0.0
C863 C 0.00893 0.49923 0.94531 0.0
C864 C 0.04139 0.50639 0.93059 0.0
C865 C 0.04546 0.51076 0.95661 0.0
C866 C 0.05483 0.51171 0.94304 0.0
C867 C 0.97703 0.46598 1.00703 0.0
C868 C 0.01241 0.5032 0.97221 0.0
C869 C 0.11575 0.54507 0.98855 0.0
C870 C 0.1099 0.52279 0.99058 0.0
C871 C 0.0239 0.48649 0.02675 0.0
C872 C 0.99526 0.50779 0.07368 0.0
C873 C 0.00859 0.51296 0.08635 0.0
C874 C 0.99903 0.51208 0.10006 0.0
C875 C 0.97587 0.5057 0.10081 0.0
C876 C 0.97229 0.50159 0.07477 0.0
C877 C 0.96267 0.50052 0.08827 0.0
C878 C 0.04162 0.54637 0.02467 0.0
C879 C 1.00563 0.50927 0.05943 0.0
H880 H 0.99111 0.4942 0.9463 0.0
H881 H 0.04925 0.50758 0.9202 0.0
H882 H 0.05613 0.51482 0.96608 0.0
H883 H 0.0726 0.51662 0.94215 0.0
H884 H 0.02642 0.51799 0.08549 0.0
H885 H 0.96783 0.50444 0.11114 0.0
H886 H 0.9618 0.49764 0.0652 0.0
H887 H 0.94488 0.49563 0.08902 0.0
Tb888 Tb 0.51727 0.49985 0.034 0.0
C889 C 0.47103 0.5333 0.99235 0.0
C890 C 0.43136 0.50527 0.99391 0.0
C891 C 0.44209 0.54374 0.98892 0.0
C892 C 0.45453 0.51157 0.99474 0.0
C893 C 0.4651 0.54962 0.98908 0.0
C894 C 0.42522 0.52157 0.99134 0.0
C895 C 0.50494 0.57575 0.98531 0.0
N896 N 0.49298 0.5382 0.99261 0.0
C897 C 0.50992 0.55892 0.98858 0.0
C898 C 0.48245 0.57116 0.98575 0.0
Tb899 Tb 0.49969 0.51004 0.99913 0.0
N900 N 0.46124 0.49641 0.99715 0.0
C901 C 0.44542 0.47422 0.99769 0.0
C902 C 0.41511 0.48272 0.9953 0.0
C903 C 0.4222 0.46711 0.99699 0.0
H904 H 0.52737 0.56269 0.98837 0.0
H905 H 0.40978 0.44957 0.99782 0.0
H906 H 0.40751 0.51711 0.99086 0.0
H907 H 0.51845 0.59226 0.9825 0.0
H908 H 0.45043 0.46183 0.99911 0.0
H909 H 0.60698 0.56071 0.03652 0.0
H910 H 0.39714 0.47716 0.9947 0.0
H911 H 0.48951 0.447 0.04434 0.0
H912 H 0.56642 0.54817 0.03413 0.0
H913 H 0.49848 0.41758 0.05049 0.0
H914 H 0.43716 0.55607 0.9866 0.0
H915 H 0.6197 0.53337 0.04055 0.0
H916 H 0.60952 0.49345 0.04412 0.0
H917 H 0.47863 0.58422 0.9832 0.0
H918 H 0.57992 0.45434 0.04786 0.0
N919 N 0.55571 0.51362 0.03626 0.0
C920 C 0.57144 0.53584 0.03582 0.0
C921 C 0.60177 0.52765 0.0393 0.0
C922 C 0.58561 0.50503 0.04034 0.0
C923 C 0.59463 0.54313 0.03715 0.0
C924 C 0.56246 0.49855 0.03894 0.0
H925 H 0.53841 0.42592 0.0505 0.0
N926 N 0.52398 0.47171 0.04055 0.0
C927 C 0.51202 0.43415 0.04783 0.0
C928 C 0.54597 0.47675 0.04115 0.0
C929 C 0.50701 0.4509 0.04439 0.0
C930 C 0.53456 0.4389 0.04779 0.0
C931 C 0.55192 0.46053 0.04466 0.0
O932 O 0.49989 0.48952 0.05392 0.0
O933 O 0.491 0.50124 0.02156 0.0
O934 O 0.50275 0.53628 0.01377 0.0
O935 O 0.52717 0.53525 0.03114 0.0
O936 O 0.48079 0.47612 0.03607 0.0
O937 O 0.52826 0.52252 0.05139 0.0
O938 O 0.51703 0.52018 0.97918 0.0
O939 O 0.52592 0.50869 1.0116 0.0
O940 O 0.5145 0.47383 0.01929 0.0
O941 O 0.48989 0.47465 1.00199 0.0
O942 O 0.53627 0.5336 0.99693 0.0
O943 O 0.48824 0.48742 0.9817 0.0
C944 C 0.47344 0.4851 0.02697 0.0
C945 C 0.52131 0.50717 0.07498 0.0
C946 C 0.52057 0.51161 0.10134 0.0
C947 C 0.51231 0.51203 0.08732 0.0
C948 C 0.53768 0.5059 0.10269 0.0
C949 C 0.53838 0.50162 0.07673 0.0
C950 C 0.54644 0.50094 0.0905 0.0
C951 C 0.51693 0.54515 0.02484 0.0
C952 C 0.51316 0.50837 0.06033 0.0
C953 C 0.57496 0.46659 0.04532 0.0
C954 C 0.5918 0.48885 0.04319 0.0
C955 C 0.54354 0.5247 1.00615 0.0
C956 C 0.49544 0.5029 0.95812 0.0
C957 C 0.50431 0.49797 0.94572 0.0
C958 C 0.49623 0.49877 0.93172 0.0
C959 C 0.47943 0.50493 0.93042 0.0
C960 C 0.47868 0.50888 0.95642 0.0
C961 C 0.4708 0.50993 0.94266 0.0
C962 C 0.50027 0.46487 1.00825 0.0
C963 C 0.50348 0.50144 0.97275 0.0
H964 H 0.49923 0.51651 0.08599 0.0
H965 H 0.54417 0.505 0.11324 0.0
H966 H 0.54553 0.49789 0.06745 0.0
H967 H 0.55958 0.49656 0.09175 0.0
H968 H 0.51715 0.49317 0.94702 0.0
H969 H 0.4731 0.50615 0.91989 0.0
H970 H 0.47163 0.51267 0.96573 0.0
H971 H 0.45791 0.51465 0.94145 0.0
Tb972 Tb 0.16728 0.32605 0.33169 0.0
C973 C 0.21276 0.40258 0.37493 0.0
C974 C 0.25236 0.41294 0.37396 0.0
C975 C 0.24189 0.44098 0.37929 0.0
C976 C 0.22917 0.39687 0.37257 0.0
C977 C 0.21882 0.42457 0.37863 0.0
C978 C 0.25866 0.43516 0.37697 0.0
C979 C 0.17895 0.41197 0.38196 0.0
N980 N 0.19075 0.3862 0.37428 0.0
C981 C 0.17384 0.39037 0.37829 0.0
C982 C 0.20152 0.42922 0.38194 0.0
Tb983 Tb 0.18387 0.35166 0.36722 0.0
N984 N 0.22231 0.37522 0.36975 0.0
C985 C 0.23794 0.36827 0.36924 0.0
C986 C 0.26843 0.40606 0.37274 0.0
C987 C 0.26117 0.38358 0.37053 0.0
H988 H 0.15633 0.37719 0.37819 0.0
H989 H 0.27345 0.37801 0.3698 0.0
H990 H 0.2764 0.44783 0.37788 0.0
H991 H 0.16547 0.4153 0.38474 0.0
H992 H 0.23281 0.35103 0.36747 0.0
H993 H 0.07758 0.29914 0.32914 0.0
H994 H 0.28641 0.41783 0.37389 0.0
H995 H 0.19516 0.30082 0.32072 0.0
H996 H 0.1182 0.32634 0.33145 0.0
H997 H 0.18627 0.26279 0.31417 0.0
H998 H 0.24693 0.45805 0.38196 0.0
H999 H 0.06489 0.25938 0.32504 0.0
H1000 H 0.07517 0.22958 0.32102 0.0
H1001 H 0.20544 0.44593 0.3848 0.0
H1002 H 0.10483 0.21961 0.31695 0.0
N1003 N 0.12889 0.30231 0.32915 0.0
C1004 C 0.11315 0.30912 0.32967 0.0
C1005 C 0.08284 0.27124 0.32617 0.0
C1006 C 0.09903 0.26451 0.32493 0.0
C1007 C 0.08996 0.29369 0.32839 0.0
C1008 C 0.12218 0.2807 0.32632 0.0
H1009 H 0.14638 0.23199 0.31412 0.0
N1010 N 0.16068 0.29159 0.32468 0.0
C1011 C 0.17272 0.26601 0.31697 0.0
C1012 C 0.1387 0.27511 0.32401 0.0
C1013 C 0.17768 0.28756 0.32064 0.0
C1014 C 0.15019 0.24865 0.31699 0.0
C1015 C 0.13279 0.25316 0.32029 0.0
O1016 O 0.18587 0.33448 0.31219 0.0
O1017 O 0.19307 0.35236 0.34481 0.0
O1018 O 0.18131 0.37564 0.35295 0.0
O1019 O 0.15763 0.35191 0.33482 0.0
O1020 O 0.20383 0.33812 0.33001 0.0
O1021 O 0.15608 0.33748 0.31404 0.0
O1022 O 0.16616 0.3444 0.38706 0.0
O1023 O 0.15802 0.3255 0.35408 0.0
O1024 O 0.16974 0.30202 0.34595 0.0
O1025 O 0.19348 0.32579 0.36402 0.0
O1026 O 0.14732 0.33957 0.369 0.0
O1027 O 0.19424 0.33878 0.38444 0.0
C1028 C 0.2108 0.3537 0.33951 0.0
C1029 C 0.16526 0.33038 0.2906 0.0
C1030 C 0.16829 0.33546 0.26414 0.0
C1031 C 0.1744 0.34432 0.27832 0.0
C1032 C 0.15269 0.31256 0.26259 0.0
C1033 C 0.14976 0.30769 0.2886 0.0
C1034 C 0.14354 0.29889 0.2747 0.0
C1035 C 0.16765 0.37139 0.34165 0.0
C1036 C 0.17213 0.33943 0.30544 0.0
C1037 C 0.10976 0.23665 0.31962 0.0
C1038 C 0.09288 0.24233 0.32193 0.0
C1039 C 0.1403 0.3241 0.35944 0.0
C1040 C 0.18725 0.34678 0.40817 0.0
C1041 C 0.17836 0.33278 0.42045 0.0
C1042 C 0.18685 0.34094 0.4345 0.0
C1043 C 0.20399 0.36336 0.43596 0.0
C1044 C 0.20434 0.36898 0.41008 0.0
C1045 C 0.21256 0.37719 0.42388 0.0
C1046 C 0.18343 0.30629 0.35723 0.0
C1047 C 0.17913 0.33807 0.39341 0.0
H1048 H 0.18645 0.36187 0.2798 0.0
H1049 H 0.14726 0.30521 0.25196 0.0
H1050 H 0.14244 0.29676 0.29778 0.0
H1051 H 0.1315 0.28134 0.27329 0.0
H1052 H 0.16525 0.31555 0.41904 0.0
H1053 H 0.21066 0.37032 0.44654 0.0
H1054 H 0.21142 0.37996 0.40089 0.0
H1055 H 0.22573 0.39439 0.42522 0.0
Tb1056 Tb 0.69024 0.84442 0.33203 0.0
C1057 C 0.60802 0.80924 0.37187 0.0
C1058 C 0.59667 0.83714 0.37045 0.0
C1059 C 0.5683 0.79845 0.37478 0.0
C1060 C 0.61355 0.83101 0.36971 0.0
C1061 C 0.58543 0.79272 0.37476 0.0
C1062 C 0.57392 0.82066 0.37264 0.0
C1063 C 0.59881 0.7667 0.37859 0.0
N1064 N 0.6251 0.80451 0.37185 0.0
C1065 C 0.62098 0.78373 0.37573 0.0
C1066 C 0.5809 0.77113 0.37791 0.0
Tb1067 Tb 0.66063 0.83311 0.36614 0.0
N1068 N 0.63572 0.84636 0.36767 0.0
C1069 C 0.64235 0.86853 0.36734 0.0
C1070 C 0.60327 0.8597 0.36939 0.0
C1071 C 0.62624 0.87548 0.36799 0.0
H1072 H 0.63467 0.78008 0.37614 0.0
H1073 H 0.63158 0.89301 0.36739 0.0
H1074 H 0.56065 0.82499 0.37304 0.0
H1075 H 0.59555 0.75015 0.38127 0.0
H1076 H 0.65997 0.88104 0.36619 0.0
H1077 H 0.71882 0.78424 0.32966 0.0
H1078 H 0.59087 0.86514 0.37003 0.0
H1079 H 0.71626 0.89763 0.32245 0.0
H1080 H 0.69074 0.79642 0.33194 0.0
H1081 H 0.7553 0.92747 0.31709 0.0
H1082 H 0.55077 0.78597 0.37681 0.0
H1083 H 0.75936 0.81192 0.32609 0.0
H1084 H 0.78971 0.85203 0.32332 0.0
H1085 H 0.56376 0.75793 0.38016 0.0
H1086 H 0.79975 0.89119 0.32007 0.0
N1087 N 0.71503 0.83107 0.33026 0.0
C1088 C 0.70831 0.80888 0.33051 0.0
C1089 C 0.74714 0.81748 0.32736 0.0
C1090 C 0.75387 0.84009 0.32664 0.0
C1091 C 0.72424 0.80181 0.32924 0.0
C1092 C 0.73715 0.84636 0.32794 0.0
H1093 H 0.78695 0.91946 0.3175 0.0
N1094 N 0.72574 0.87303 0.32631 0.0
C1095 C 0.75202 0.91087 0.31962 0.0
C1096 C 0.74274 0.86818 0.32595 0.0
C1097 C 0.72989 0.89388 0.32262 0.0
C1098 C 0.76985 0.90631 0.3199 0.0
C1099 C 0.76527 0.88464 0.32283 0.0
O1100 O 0.68385 0.85506 0.31206 0.0
O1101 O 0.66182 0.84239 0.34377 0.0
O1102 O 0.63774 0.80717 0.35099 0.0
O1103 O 0.66399 0.80878 0.33415 0.0
O1104 O 0.67762 0.86791 0.32959 0.0
O1105 O 0.67979 0.82239 0.31431 0.0
O1106 O 0.66672 0.82255 0.38624 0.0
O1107 O 0.68895 0.83504 0.35438 0.0
O1108 O 0.7132 0.8702 0.34725 0.0
O1109 O 0.6869 0.86873 0.36399 0.0
O1110 O 0.67348 0.80977 0.36873 0.0
O1111 O 0.67114 0.85533 0.38374 0.0
C1112 C 0.66076 0.85857 0.33833 0.0
C1113 C 0.6893 0.83887 0.29108 0.0
C1114 C 0.68557 0.83678 0.26464 0.0
C1115 C 0.67589 0.83433 0.2785 0.0
C1116 C 0.70882 0.84363 0.26365 0.0
C1117 C 0.71239 0.84563 0.28976 0.0
C1118 C 0.72206 0.84796 0.27612 0.0
C1119 C 0.64342 0.79857 0.34005 0.0
C1120 C 0.67901 0.83663 0.30545 0.0
C1121 C 0.78228 0.87876 0.32231 0.0
C1122 C 0.77657 0.85648 0.32417 0.0
C1123 C 0.69019 0.81899 0.35986 0.0
C1124 C 0.66125 0.83914 0.40702 0.0
C1125 C 0.67468 0.84455 0.41964 0.0
C1126 C 0.66504 0.84308 0.43341 0.0
C1127 C 0.64168 0.83587 0.43425 0.0
C1128 C 0.63808 0.83213 0.40819 0.0
C1129 C 0.62838 0.83047 0.42174 0.0
C1130 C 0.70753 0.87886 0.35815 0.0
C1131 C 0.67167 0.8411 0.39273 0.0
H1132 H 0.65805 0.82925 0.2795 0.0
H1133 H 0.71675 0.8454 0.25321 0.0
H1134 H 0.72293 0.84907 0.29925 0.0
H1135 H 0.7399 0.85315 0.2752 0.0
H1136 H 0.69266 0.85021 0.41871 0.0
H1137 H 0.63358 0.83413 0.44462 0.0
H1138 H 0.62751 0.82798 0.39865 0.0
H1139 H 0.61045 0.82494 0.42256 0.0
Tb1140 Tb 0.18267 0.83188 0.36743 0.0
C1141 C 0.13697 0.86628 0.32603 0.0
C1142 C 0.09722 0.83843 0.32756 0.0
C1143 C 0.10822 0.877 0.32269 0.0
C1144 C 0.12035 0.84458 0.32837 0.0
C1145 C 0.13119 0.88272 0.32282 0.0
C1146 C 0.09124 0.85486 0.32507 0.0
C1147 C 0.17107 0.90867 0.31905 0.0
N1148 N 0.15888 0.87104 0.32627 0.0
C1149 C 0.1759 0.89172 0.32227 0.0
C1150 C 0.14864 0.90424 0.31952 0.0
Tb1151 Tb 0.16531 0.84267 0.33266 0.0
N1152 N 0.12691 0.82929 0.33071 0.0
C1153 C 0.11098 0.80713 0.33119 0.0
C1154 C 0.08086 0.81592 0.3289 0.0
C1155 C 0.0878 0.80017 0.33052 0.0
H1156 H 0.19331 0.89538 0.32202 0.0
H1157 H 0.07529 0.78266 0.33131 0.0
H1158 H 0.07357 0.85053 0.3246 0.0
H1159 H 0.18466 0.92515 0.31625 0.0
H1160 H 0.11589 0.79465 0.33255 0.0
H1161 H 0.27238 0.8927 0.37019 0.0
H1162 H 0.06291 0.81047 0.32832 0.0
H1163 H 0.15487 0.77886 0.37738 0.0
H1164 H 0.23182 0.88021 0.36785 0.0
H1165 H 0.16382 0.74933 0.38325 0.0
H1166 H 0.1034 0.88943 0.32041 0.0
H1167 H 0.28509 0.86529 0.37393 0.0
H1168 H 0.27488 0.82532 0.37723 0.0
H1169 H 0.14494 0.91738 0.31702 0.0
H1170 H 0.24527 0.78615 0.38073 0.0
N1171 N 0.2211 0.84563 0.36974 0.0
C1172 C 0.23684 0.86786 0.36943 0.0
C1173 C 0.26715 0.85959 0.37273 0.0
C1174 C 0.25099 0.83697 0.37365 0.0
C1175 C 0.26002 0.87512 0.37072 0.0
C1176 C 0.22783 0.83052 0.37228 0.0
H1177 H 0.20374 0.75767 0.38323 0.0
N1178 N 0.18936 0.80363 0.37373 0.0
C1179 C 0.17736 0.76595 0.38071 0.0
C1180 C 0.21134 0.80868 0.37432 0.0
C1181 C 0.17236 0.78276 0.37742 0.0
C1182 C 0.19991 0.7707 0.38064 0.0
C1183 C 0.21728 0.79239 0.37767 0.0
O1184 O 0.16508 0.8212 0.38725 0.0
O1185 O 0.15652 0.83357 0.35505 0.0
O1186 O 0.16849 0.86884 0.3474 0.0
O1187 O 0.19257 0.86735 0.36486 0.0
O1188 O 0.14617 0.80816 0.36936 0.0
O1189 O 0.19364 0.85418 0.38502 0.0
O1190 O 0.1832 0.85274 0.31292 0.0
O1191 O 0.19142 0.84102 0.34508 0.0
O1192 O 0.17992 0.80606 0.35251 0.0
O1193 O 0.15539 0.8072 0.33527 0.0
O1194 O 0.20191 0.86621 0.33061 0.0
O1195 O 0.1534 0.82056 0.31495 0.0
C1196 C 0.13891 0.81736 0.36037 0.0
C1197 C 0.18632 0.8383 0.40846 0.0
C1198 C 0.18542 0.84236 0.43484 0.0
C1199 C 0.17746 0.84328 0.42082 0.0
C1200 C 0.20208 0.83603 0.43618 0.0
C1201 C 0.20294 0.83214 0.41019 0.0
C1202 C 0.2107 0.83097 0.42397 0.0
C1203 C 0.18253 0.87746 0.35856 0.0
C1204 C 0.17838 0.83989 0.39383 0.0
C1205 C 0.24032 0.79844 0.37832 0.0
C1206 C 0.25717 0.82073 0.37633 0.0
C1207 C 0.20908 0.85712 0.33975 0.0
C1208 C 0.1619 0.83687 0.29158 0.0
C1209 C 0.17145 0.83281 0.27918 0.0
C1210 C 0.16495 0.83565 0.26512 0.0
C1211 C 0.14855 0.84231 0.26378 0.0
C1212 C 0.14562 0.84348 0.28984 0.0
C1213 C 0.13899 0.84614 0.27603 0.0
C1214 C 0.16575 0.7973 0.34142 0.0
C1215 C 0.16919 0.83442 0.30623 0.0
H1216 H 0.16474 0.84823 0.4195 0.0
H1217 H 0.20831 0.83473 0.44673 0.0
H1218 H 0.20998 0.82831 0.40089 0.0
H1219 H 0.22349 0.82612 0.4252 0.0
H1220 H 0.18416 0.82784 0.28048 0.0
H1221 H 0.14288 0.84433 0.25321 0.0
H1222 H 0.13802 0.84657 0.29916 0.0
H1223 H 0.12636 0.85119 0.2748 0.0
Tb1224 Tb 0.83367 0.65883 0.66553 0.0
C1225 C 0.87793 0.73543 0.70878 0.0
C1226 C 0.91768 0.74631 0.70798 0.0
C1227 C 0.90663 0.77396 0.71321 0.0
C1228 C 0.89458 0.73 0.70653 0.0
C1229 C 0.88365 0.75733 0.71248 0.0
C1230 C 0.92364 0.76845 0.71096 0.0
C1231 C 0.84365 0.74421 0.71568 0.0
N1232 N 0.856 0.71884 0.70805 0.0
C1233 C 0.83887 0.72271 0.71202 0.0
C1234 C 0.86612 0.76167 0.71572 0.0
Tb1235 Tb 0.84973 0.68448 0.70106 0.0
N1236 N 0.88805 0.70843 0.70372 0.0
C1237 C 0.90391 0.70177 0.70329 0.0
C1238 C 0.934 0.73973 0.70683 0.0
C1239 C 0.92706 0.71732 0.70464 0.0
H1240 H 0.82144 0.70936 0.71191 0.0
H1241 H 0.93953 0.71198 0.70395 0.0
H1242 H 0.94131 0.78129 0.71192 0.0
H1243 H 0.82999 0.7473 0.71843 0.0
H1244 H 0.89899 0.68457 0.70153 0.0
H1245 H 0.74399 0.63186 0.6626 0.0
H1246 H 0.95192 0.75169 0.70801 0.0
H1247 H 0.86165 0.63362 0.65475 0.0
H1248 H 0.78458 0.65909 0.66497 0.0
H1249 H 0.85285 0.59556 0.64834 0.0
H1250 H 0.91142 0.79097 0.71587 0.0
H1251 H 0.73134 0.59207 0.65867 0.0
H1252 H 0.74169 0.56226 0.65486 0.0
H1253 H 0.86978 0.7783 0.71858 0.0
H1254 H 0.7714 0.55231 0.65099 0.0
N1255 N 0.79531 0.63506 0.66288 0.0
C1256 C 0.77955 0.64186 0.66327 0.0
C1257 C 0.74928 0.60395 0.65983 0.0
C1258 C 0.76549 0.59722 0.65872 0.0
C1259 C 0.75637 0.62641 0.66195 0.0
C1260 C 0.78863 0.61344 0.66014 0.0
H1261 H 0.81298 0.56472 0.64827 0.0
N1262 N 0.82714 0.62436 0.65861 0.0
C1263 C 0.83927 0.59877 0.65107 0.0
C1264 C 0.80518 0.60786 0.65792 0.0
C1265 C 0.84418 0.62034 0.65466 0.0
C1266 C 0.81675 0.5814 0.65108 0.0
C1267 C 0.79932 0.58589 0.65429 0.0
O1268 O 0.85239 0.66715 0.64608 0.0
O1269 O 0.85926 0.68514 0.67873 0.0
O1270 O 0.84728 0.70845 0.68675 0.0
O1271 O 0.82399 0.68472 0.66848 0.0
O1272 O 0.87024 0.67094 0.66404 0.0
O1273 O 0.82269 0.67033 0.64781 0.0
O1274 O 0.83084 0.67568 0.72045 0.0
O1275 O 0.82416 0.65817 0.68786 0.0
O1276 O 0.83616 0.63492 0.67989 0.0
O1277 O 0.85957 0.65872 0.69807 0.0
O1278 O 0.81314 0.67232 0.70255 0.0
O1279 O 0.86104 0.67335 0.71882 0.0
C1280 C 0.87707 0.68652 0.67353 0.0
C1281 C 0.83196 0.66316 0.62442 0.0
C1282 C 0.83495 0.66831 0.59796 0.0
C1283 C 0.84103 0.67715 0.61215 0.0
C1284 C 0.81944 0.6454 0.5964 0.0
C1285 C 0.81656 0.64045 0.6224 0.0
C1286 C 0.81036 0.63168 0.60849 0.0
C1287 C 0.83384 0.70419 0.67533 0.0
C1288 C 0.83876 0.67219 0.63926 0.0
C1289 C 0.77629 0.56936 0.6536 0.0
C1290 C 0.75939 0.57503 0.6558 0.0
C1291 C 0.80632 0.65675 0.69305 0.0
C1292 C 0.85115 0.67999 0.74219 0.0
C1293 C 0.84215 0.66582 0.75438 0.0
C1294 C 0.84753 0.67461 0.76859 0.0
C1295 C 0.86227 0.69763 0.77032 0.0
C1296 C 0.8659 0.70281 0.74434 0.0
C1297 C 0.87141 0.71153 0.75831 0.0
C1298 C 0.84972 0.63924 0.69125 0.0
C1299 C 0.84472 0.67103 0.72731 0.0
H1300 H 0.85301 0.69471 0.61365 0.0
H1301 H 0.81403 0.63805 0.58576 0.0
H1302 H 0.8093 0.62948 0.63157 0.0
H1303 H 0.7984 0.61411 0.60707 0.0
H1304 H 0.83067 0.64816 0.75281 0.0
H1305 H 0.86693 0.70489 0.78103 0.0
H1306 H 0.87311 0.71393 0.73523 0.0
H1307 H 0.8828 0.72919 0.75984 0.0
Tb1308 Tb 0.3566 0.17849 0.66536 0.0
C1309 C 0.27447 0.14291 0.70541 0.0
C1310 C 0.26277 0.17054 0.7038 0.0
C1311 C 0.23472 0.13186 0.7085 0.0
C1312 C 0.27979 0.16458 0.70307 0.0
C1313 C 0.252 0.12633 0.7085 0.0
C1314 C 0.2401 0.15396 0.70614 0.0
C1315 C 0.2658 0.10071 0.71264 0.0
N1316 N 0.2917 0.13838 0.70541 0.0
C1317 C 0.28784 0.11779 0.70953 0.0
C1318 C 0.24773 0.10491 0.71193 0.0
Tb1319 Tb 0.32705 0.16708 0.69949 0.0
N1320 N 0.3019 0.18004 0.70095 0.0
C1321 C 0.30834 0.20217 0.70055 0.0
C1322 C 0.26917 0.19303 0.7026 0.0
C1323 C 0.2921 0.20893 0.70115 0.0
H1324 H 0.30165 0.11431 0.70999 0.0
H1325 H 0.29729 0.22642 0.70047 0.0
H1326 H 0.22673 0.15815 0.70654 0.0
H1327 H 0.26276 0.0843 0.71553 0.0
H1328 H 0.32593 0.21476 0.69936 0.0
H1329 H 0.38475 0.11799 0.6628 0.0
H1330 H 0.25666 0.19833 0.70321 0.0
H1331 H 0.38286 0.23174 0.65588 0.0
H1332 H 0.35681 0.13034 0.66513 0.0
H1333 H 0.42198 0.26149 0.65059 0.0
H1334 H 0.21727 0.11932 0.71069 0.0
H1335 H 0.42534 0.14554 0.65929 0.0
H1336 H 0.45585 0.18562 0.65665 0.0
H1337 H 0.23069 0.09167 0.71436 0.0
H1338 H 0.46609 0.22484 0.6535 0.0
N1339 N 0.38124 0.16497 0.66354 0.0
C1340 C 0.37441 0.14275 0.66373 0.0
C1341 C 0.41318 0.15118 0.66059 0.0
C1342 C 0.42003 0.17381 0.65993 0.0
C1343 C 0.39025 0.13557 0.66243 0.0
C1344 C 0.40339 0.18019 0.66126 0.0
H1345 H 0.4535 0.25328 0.651 0.0
N1346 N 0.39218 0.20702 0.6597 0.0
C1347 C 0.41861 0.24485 0.65308 0.0
C1348 C 0.4091 0.20206 0.65933 0.0
C1349 C 0.39644 0.22792 0.65604 0.0
C1350 C 0.43636 0.24017 0.65337 0.0
C1351 C 0.43167 0.21845 0.65625 0.0
O1352 O 0.35038 0.18937 0.64543 0.0
O1353 O 0.32813 0.17635 0.6771 0.0
O1354 O 0.30414 0.14092 0.68448 0.0
O1355 O 0.33026 0.14288 0.66738 0.0
O1356 O 0.34406 0.20204 0.66303 0.0
O1357 O 0.34612 0.15662 0.64756 0.0
O1358 O 0.3337 0.1569 0.71956 0.0
O1359 O 0.35538 0.1691 0.68769 0.0
O1360 O 0.37955 0.20423 0.68062 0.0
O1361 O 0.35321 0.20274 0.69733 0.0
O1362 O 0.34002 0.14383 0.70204 0.0
O1363 O 0.33717 0.18929 0.71709 0.0
C1364 C 0.32711 0.19258 0.6717 0.0
C1365 C 0.35575 0.17325 0.62438 0.0
C1366 C 0.35203 0.17112 0.59794 0.0
C1367 C 0.34233 0.16863 0.61179 0.0
C1368 C 0.37531 0.17808 0.59695 0.0
C1369 C 0.37887 0.18012 0.62306 0.0
C1370 C 0.38855 0.18249 0.60942 0.0
C1371 C 0.30977 0.1325 0.67342 0.0
C1372 C 0.34545 0.17097 0.63875 0.0
C1373 C 0.44859 0.21247 0.65571 0.0
C1374 C 0.44276 0.19015 0.6575 0.0
C1375 C 0.35668 0.15306 0.69314 0.0
C1376 C 0.3276 0.17298 0.74035 0.0
C1377 C 0.34094 0.17825 0.753 0.0
C1378 C 0.33114 0.17634 0.76677 0.0
C1379 C 0.30772 0.16885 0.76758 0.0
C1380 C 0.30437 0.16572 0.74149 0.0
C1381 C 0.29451 0.16362 0.75503 0.0
C1382 C 0.37385 0.21287 0.69152 0.0
C1383 C 0.33815 0.17528 0.72606 0.0
H1384 H 0.32447 0.16346 0.6128 0.0
H1385 H 0.38325 0.17987 0.58652 0.0
H1386 H 0.38942 0.18362 0.63255 0.0
H1387 H 0.40642 0.18776 0.6085 0.0
H1388 H 0.35897 0.18412 0.75209 0.0
H1389 H 0.29949 0.16675 0.77794 0.0
H1390 H 0.29387 0.16171 0.73194 0.0
H1391 H 0.27653 0.15788 0.75582 0.0
Tb1392 Tb 0.8507 0.16744 0.70059 0.0
C1393 C 0.80397 0.20047 0.65898 0.0
C1394 C 0.76434 0.17236 0.66063 0.0
C1395 C 0.77494 0.21077 0.65554 0.0
C1396 C 0.78753 0.17874 0.66144 0.0
C1397 C 0.79797 0.21672 0.65568 0.0
C1398 C 0.75813 0.1886 0.65802 0.0
C1399 C 0.83776 0.24291 0.65181 0.0
N1400 N 0.82595 0.20544 0.65921 0.0
C1401 C 0.84282 0.22615 0.65513 0.0
C1402 C 0.81525 0.23826 0.65227 0.0
Tb1403 Tb 0.83278 0.17738 0.66576 0.0
N1404 N 0.79431 0.16364 0.66388 0.0
C1405 C 0.77855 0.14144 0.66448 0.0
C1406 C 0.74815 0.14981 0.66207 0.0
C1407 C 0.75531 0.13425 0.6638 0.0
H1408 H 0.86029 0.22997 0.65489 0.0
H1409 H 0.74294 0.11671 0.66467 0.0
H1410 H 0.7404 0.18409 0.65755 0.0
H1411 H 0.85122 0.25941 0.64895 0.0
H1412 H 0.78361 0.1291 0.66592 0.0
H1413 H 0.94033 0.2286 0.70279 0.0
H1414 H 0.73016 0.14419 0.66147 0.0
H1415 H 0.82324 0.11464 0.71104 0.0
H1416 H 0.89971 0.21588 0.70054 0.0
H1417 H 0.83244 0.08536 0.71716 0.0
H1418 H 0.76994 0.22305 0.65318 0.0
H1419 H 0.95327 0.20142 0.70677 0.0
H1420 H 0.9433 0.16156 0.71036 0.0
H1421 H 0.81137 0.25126 0.64969 0.0
H1422 H 0.91387 0.12242 0.71421 0.0
N1423 N 0.88917 0.18137 0.7027 0.0
C1424 C 0.90483 0.20362 0.70221 0.0
C1425 C 0.9353 0.19561 0.70558 0.0
C1426 C 0.91924 0.17298 0.70667 0.0
C1427 C 0.92805 0.21101 0.70345 0.0
C1428 C 0.89604 0.16639 0.70535 0.0
H1429 H 0.87242 0.09388 0.71701 0.0
N1430 N 0.85763 0.13943 0.70711 0.0
C1431 C 0.8459 0.10194 0.71445 0.0
C1432 C 0.87965 0.14458 0.70762 0.0
C1433 C 0.84076 0.11862 0.71102 0.0
C1434 C 0.86847 0.10679 0.71431 0.0
C1435 C 0.88574 0.12844 0.71111 0.0
O1436 O 0.83355 0.15712 0.72059 0.0
O1437 O 0.82426 0.16866 0.68822 0.0
O1438 O 0.83583 0.20365 0.68037 0.0
O1439 O 0.8604 0.20279 0.6977 0.0
O1440 O 0.81425 0.14363 0.70279 0.0
O1441 O 0.86175 0.1902 0.71791 0.0
O1442 O 0.84995 0.18743 0.64576 0.0
O1443 O 0.85916 0.17619 0.67816 0.0
O1444 O 0.84793 0.14139 0.6859 0.0
O1445 O 0.82313 0.14202 0.66865 0.0
O1446 O 0.86934 0.20099 0.66344 0.0
O1447 O 0.82125 0.15464 0.6484 0.0
C1448 C 0.80678 0.15251 0.6937 0.0
C1449 C 0.85521 0.175 0.74153 0.0
C1450 C 0.85482 0.17963 0.76788 0.0
C1451 C 0.84631 0.17987 0.75392 0.0
C1452 C 0.87206 0.17408 0.76915 0.0
C1453 C 0.8724 0.1696 0.74319 0.0
C1454 C 0.8807 0.16909 0.75692 0.0
C1455 C 0.85005 0.2126 0.69142 0.0
C1456 C 0.84681 0.17603 0.72693 0.0
C1457 C 0.90881 0.1346 0.71169 0.0
C1458 C 0.92556 0.15688 0.70949 0.0
C1459 C 0.87672 0.19218 0.67266 0.0
C1460 C 0.82819 0.16994 0.62479 0.0
C1461 C 0.83692 0.16487 0.61239 0.0
C1462 C 0.8287 0.16554 0.59841 0.0
C1463 C 0.81191 0.1717 0.59714 0.0
C1464 C 0.81143 0.17593 0.62312 0.0
C1465 C 0.80341 0.17685 0.60937 0.0
C1466 C 0.83365 0.13234 0.67488 0.0
C1467 C 0.83638 0.16862 0.6394 0.0
H1468 H 0.83314 0.18423 0.75266 0.0
H1469 H 0.87873 0.17332 0.77967 0.0
H1470 H 0.87948 0.16586 0.73387 0.0
H1471 H 0.89394 0.16484 0.75809 0.0
H1472 H 0.84975 0.16006 0.61367 0.0
H1473 H 0.80549 0.17283 0.58661 0.0
H1474 H 0.80449 0.17983 0.63244 0.0
H1475 H 0.79052 0.18158 0.60819 0.0
C1476 C 0.3504 0.87965 0.04122 0.0
C1477 C 0.34882 0.87569 0.05622 0.0
C1478 C 0.37027 0.89697 0.0349 0.0
C1479 C 0.38925 0.91077 0.04372 0.0
C1480 C 0.38798 0.90659 0.05882 0.0
C1481 C 0.36787 0.88921 0.06486 0.0
C1482 C 0.37088 0.90059 0.01876 0.0
C1483 C 0.40774 0.92083 0.06868 0.0
C1484 C 0.44887 0.94777 0.0282 0.0
C1485 C 0.45056 0.96879 0.02828 0.0
C1486 C 0.42872 0.92855 0.03257 0.0
C1487 C 0.40992 0.93042 0.0374 0.0
C1488 C 0.41139 0.95155 0.03702 0.0
C1489 C 0.43165 0.9704 0.03255 0.0
C1490 C 0.42798 0.90644 0.03259 0.0
C1491 C 0.3918 0.95442 0.04186 0.0
H1492 H 0.33607 0.86909 0.03433 0.0
H1493 H 0.36692 0.88657 0.07646 0.0
H1494 H 0.37504 0.91793 0.01641 0.0
H1495 H 0.38443 0.89823 0.01389 0.0
H1496 H 0.35449 0.88897 0.01344 0.0
H1497 H 0.40455 0.91481 0.08004 0.0
H1498 H 0.4233 0.92107 0.06479 0.0
H1499 H 0.41116 0.93825 0.06848 0.0
H1500 H 0.46351 0.94639 0.02526 0.0
H1501 H 0.43295 0.98664 0.03276 0.0
H1502 H 0.41223 0.89352 0.02728 0.0
H1503 H 0.4278 0.90103 0.04392 0.0
H1504 H 0.44284 0.9073 0.02697 0.0
H1505 H 0.37609 0.94268 0.03595 0.0
H1506 H 0.39509 0.97164 0.04007 0.0
H1507 H 0.3886 0.95048 0.05355 0.0
C1508 C 0.13542 0.47491 0.04158 0.0
C1509 C 0.14025 0.47722 0.0565 0.0
C1510 C 0.11732 0.47694 0.03578 0.0
C1511 C 0.10357 0.48157 0.04501 0.0
C1512 C 0.1084 0.48404 0.06007 0.0
C1513 C 0.12653 0.48176 0.06562 0.0
C1514 C 0.11299 0.47417 0.0197 0.0
C1515 C 0.09431 0.48903 0.07036 0.0
C1516 C 0.06652 0.50441 0.02982 0.0
C1517 C 0.0449 0.4853 0.02959 0.0
C1518 C 0.08586 0.5034 0.03437 0.0
C1519 C 0.08356 0.48284 0.03906 0.0
C1520 C 0.0618 0.46344 0.03852 0.0
C1521 C 0.04283 0.46495 0.0339 0.0
C1522 C 0.10864 0.52449 0.03455 0.0
C1523 C 0.05843 0.4411 0.04315 0.0
H1524 H 0.14562 0.47114 0.0344 0.0
H1525 H 0.13018 0.48386 0.07712 0.0
H1526 H 0.09489 0.46195 0.01749 0.0
H1527 H 0.11667 0.49033 0.01496 0.0
H1528 H 0.12374 0.46855 0.01416 0.0
H1529 H 0.10056 0.4911 0.08169 0.0
H1530 H 0.09448 0.50448 0.06696 0.0
H1531 H 0.07639 0.47533 0.07004 0.0
H1532 H 0.06828 0.5203 0.02686 0.0
H1533 H 0.02615 0.45016 0.03389 0.0
H1534 H 0.12122 0.52207 0.02838 0.0
H1535 H 0.11493 0.52863 0.04585 0.0
H1536 H 0.10783 0.53884 0.02982 0.0
H1537 H 0.06994 0.43714 0.03696 0.0
H1538 H 0.04067 0.42745 0.04152 0.0
H1539 H 0.06284 0.44164 0.05477 0.0
C1540 C 0.55184 0.66828 0.05296 0.0
C1541 C 0.53985 0.66697 0.06562 0.0
C1542 C 0.54769 0.64898 0.0454 0.0
C1543 C 0.53121 0.62776 0.05064 0.0
C1544 C 0.51869 0.62634 0.06322 0.0
C1545 C 0.52313 0.64591 0.07053 0.0
C1546 C 0.56129 0.65127 0.03197 0.0
C1547 C 0.50107 0.60408 0.06924 0.0
C1548 C 0.50829 0.57646 0.02631 0.0
C1549 C 0.52121 0.56684 0.03085 0.0
C1550 C 0.51158 0.59645 0.03244 0.0
C1551 C 0.52804 0.60702 0.04351 0.0
C1552 C 0.54123 0.59747 0.04805 0.0
C1553 C 0.53771 0.5776 0.04167 0.0
C1554 C 0.49718 0.60605 0.02723 0.0
C1555 C 0.55891 0.60809 0.05984 0.0
H1556 H 0.56457 0.68446 0.04895 0.0
H1557 H 0.51395 0.64465 0.08038 0.0
H1558 H 0.572 0.64357 0.03385 0.0
H1559 H 0.54974 0.64228 0.02281 0.0
H1560 H 0.57248 0.66894 0.02881 0.0
H1561 H 0.49191 0.60583 0.07863 0.0
H1562 H 0.48848 0.59416 0.06074 0.0
H1563 H 0.50935 0.59452 0.07272 0.0
H1564 H 0.49528 0.56819 0.01813 0.0
H1565 H 0.54782 0.57041 0.04531 0.0
H1566 H 0.50816 0.62362 0.02385 0.0
H1567 H 0.48634 0.60599 0.0362 0.0
H1568 H 0.48606 0.59653 0.01799 0.0
H1569 H 0.57155 0.62542 0.05679 0.0
H1570 H 0.568 0.59878 0.06198 0.0
H1571 H 0.55073 0.60891 0.07001 0.0
C1572 C 0.88078 0.362 0.96241 0.0
C1573 C 0.87571 0.34129 0.96826 0.0
C1574 C 0.89662 0.38215 0.96908 0.0
C1575 C 0.90781 0.38176 0.98196 0.0
C1576 C 0.90251 0.36094 0.98806 0.0
C1577 C 0.8866 0.34104 0.98116 0.0
C1578 C 0.90175 0.40391 0.96214 0.0
C1579 C 0.91388 0.35969 1.00181 0.0
C1580 C 0.9652 0.43291 0.99068 0.0
C1581 C 0.95939 0.4441 1.00098 0.0
C1582 C 0.94866 0.41264 0.98452 0.0
C1583 C 0.92562 0.40312 0.98873 0.0
C1584 C 0.91965 0.41422 0.99921 0.0
C1585 C 0.93653 0.43455 1.00514 0.0
C1586 C 0.95587 0.40148 0.97338 0.0
C1587 C 0.89535 0.40477 1.00404 0.0
H1588 H 0.8728 0.36252 0.95236 0.0
H1589 H 0.88266 0.32521 0.98591 0.0
H1590 H 0.89907 0.41441 0.97004 0.0
H1591 H 0.91985 0.41327 0.95884 0.0
H1592 H 0.891 0.40144 0.95247 0.0
H1593 H 0.90736 0.34227 1.00547 0.0
H1594 H 0.93247 0.3676 1.00009 0.0
H1595 H 0.9112 0.36905 1.01057 0.0
H1596 H 0.98274 0.44004 0.98732 0.0
H1597 H 0.93168 0.44313 1.01289 0.0
H1598 H 0.94694 0.3999 0.963 0.0
H1599 H 0.95102 0.38441 0.97699 0.0
H1600 H 0.97446 0.41085 0.97139 0.0
H1601 H 0.88462 0.40384 0.9947 0.0
H1602 H 0.89361 0.41497 1.01267 0.0
H1603 H 0.88864 0.38757 1.00816 0.0
C1604 C 0.66663 0.5358 0.99168 0.0
C1605 C 0.66892 0.53365 0.97673 0.0
C1606 C 0.64653 0.53369 0.99758 0.0
C1607 C 0.62797 0.52919 0.9884 0.0
C1608 C 0.63007 0.52684 0.97331 0.0
C1609 C 0.65045 0.52916 0.96768 0.0
C1610 C 0.64521 0.53637 0.01368 0.0
C1611 C 0.61077 0.52195 0.96308 0.0
C1612 C 0.5678 0.50663 1.0035 0.0
C1613 C 0.56576 0.52581 1.00366 0.0
C1614 C 0.58812 0.50754 0.99905 0.0
C1615 C 0.60681 0.52806 0.99441 0.0
C1616 C 0.60496 0.54754 0.99496 0.0
C1617 C 0.58451 0.54613 0.99947 0.0
C1618 C 0.58923 0.48634 0.99882 0.0
C1619 C 0.62442 0.56984 0.99038 0.0
H1620 H 0.68078 0.53953 0.99881 0.0
H1621 H 0.65179 0.52716 0.95616 0.0
H1622 H 0.64041 0.5492 0.01593 0.0
H1623 H 0.63185 0.52045 0.01835 0.0
H1624 H 0.66152 0.54117 0.01926 0.0
H1625 H 0.61471 0.51986 0.95173 0.0
H1626 H 0.59521 0.50655 0.9665 0.0
H1627 H 0.60691 0.53572 0.96344 0.0
H1628 H 0.55331 0.49077 1.00639 0.0
H1629 H 0.58297 0.56097 0.99943 0.0
H1630 H 0.60451 0.48871 1.00475 0.0
H1631 H 0.59074 0.48201 0.98748 0.0
H1632 H 0.57396 0.47213 1.00375 0.0
H1633 H 0.64003 0.5736 0.99648 0.0
H1634 H 0.62076 0.58359 0.99217 0.0
H1635 H 0.62804 0.56939 0.97873 0.0
C1636 C 0.46711 0.12948 0.98496 0.0
C1637 C 0.48003 0.14192 0.97305 0.0
C1638 C 0.47009 0.11248 0.99104 0.0
C1639 C 0.48633 0.10765 0.98506 0.0
C1640 C 0.49938 0.12009 0.97301 0.0
C1641 C 0.49611 0.13706 0.96719 0.0
C1642 C 0.45593 0.09974 1.00393 0.0
C1643 C 0.51673 0.11538 0.96622 0.0
C1644 C 0.50881 0.07681 1.00787 0.0
C1645 C 0.49589 0.05491 1.00271 0.0
C1646 C 0.50572 0.09405 1.00236 0.0
C1647 C 0.48947 0.08942 0.99128 0.0
C1648 C 0.47638 0.06736 0.98603 0.0
C1649 C 0.47971 0.05041 0.99181 0.0
C1650 C 0.52003 0.1173 1.00831 0.0
C1651 C 0.45896 0.06167 0.97419 0.0
H1652 H 0.45488 0.1333 0.9897 0.0
H1653 H 0.506 0.14639 0.95789 0.0
H1654 H 0.44582 0.08175 1.0013 0.0
H1655 H 0.46716 0.10148 0.01318 0.0
H1656 H 0.44414 0.1056 1.00737 0.0
H1657 H 0.52561 0.12661 0.95697 0.0
H1658 H 0.52957 0.1173 0.97441 0.0
H1659 H 0.50834 0.0979 0.96234 0.0
H1660 H 0.52164 0.08062 0.01609 0.0
H1661 H 0.46964 0.0336 0.98768 0.0
H1662 H 0.50894 0.12358 1.01242 0.0
H1663 H 0.53061 0.12871 0.99956 0.0
H1664 H 0.53139 0.11801 0.01723 0.0
H1665 H 0.44614 0.06619 0.97761 0.0
H1666 H 0.45005 0.0437 0.97136 0.0
H1667 H 0.4673 0.07148 0.96433 0.0
C1668 C 0.64845 0.12022 0.96784 0.0
C1669 C 0.66741 0.13354 0.97659 0.0
C1670 C 0.62825 0.1028 0.97375 0.0
C1671 C 0.62679 0.09839 0.98882 0.0
C1672 C 0.64569 0.11201 0.99776 0.0
C1673 C 0.66565 0.12937 0.99158 0.0
C1674 C 0.60858 0.08875 0.96378 0.0
C1675 C 0.64487 0.10815 0.01387 0.0
C1676 C 0.56704 0.06136 1.00407 0.0
C1677 C 0.5653 0.04032 1.00395 0.0
C1678 C 0.58724 0.08059 0.9998 0.0
C1679 C 0.60604 0.0787 0.995 0.0
C1680 C 0.60451 0.05755 0.9953 0.0
C1681 C 0.5842 0.03869 0.99969 0.0
C1682 C 0.58805 0.10274 0.99986 0.0
C1683 C 0.62409 0.05466 0.99047 0.0
H1684 H 0.64955 0.12306 0.95626 0.0
H1685 H 0.67992 0.13978 0.99854 0.0
H1686 H 0.60509 0.07131 0.96388 0.0
H1687 H 0.59301 0.08851 0.96762 0.0
H1688 H 0.61192 0.09494 0.95245 0.0
H1689 H 0.66115 0.11978 0.01931 0.0
H1690 H 0.63116 0.11027 0.01871 0.0
H1691 H 0.64085 0.09082 0.01611 0.0
H1692 H 0.55241 0.06277 1.00701 0.0
H1693 H 0.58286 0.02243 0.99944 0.0
H1694 H 0.58839 0.1083 0.98855 0.0
H1695 H 0.60376 0.11556 1.00527 0.0
H1696 H 0.57315 0.10185 1.00544 0.0
H1697 H 0.62742 0.05877 0.9788 0.0
H1698 H 0.62072 0.03739 0.99216 0.0
H1699 H 0.63976 0.06627 0.99647 0.0
C1700 C 0.88447 0.53798 0.98492 0.0
C1701 C 0.88142 0.53525 0.96984 0.0
C1702 C 0.90142 0.53544 0.99212 0.0
C1703 C 0.91583 0.53007 0.98414 0.0
C1704 C 0.91257 0.5269 0.96897 0.0
C1705 C 0.89552 0.52952 0.96206 0.0
C1706 C 0.90396 0.5386 1.0083 0.0
C1707 C 0.92754 0.52131 0.95994 0.0
C1708 C 0.97582 0.54735 0.99715 0.0
C1709 C 0.9737 0.52709 1.00171 0.0
C1710 C 0.95698 0.54867 0.99203 0.0
C1711 C 0.93531 0.5292 0.99133 0.0
C1712 C 0.93289 0.50879 0.99644 0.0
C1713 C 0.95213 0.50793 1.00138 0.0
C1714 C 0.96051 0.57083 0.98682 0.0
C1715 C 0.91016 0.48764 0.99617 0.0
H1716 H 0.87353 0.54205 0.99113 0.0
H1717 H 0.89369 0.52767 0.95041 0.0
H1718 H 0.90042 0.52276 0.01352 0.0
H1719 H 0.92165 0.5513 1.01113 0.0
H1720 H 0.89224 0.54381 1.0129 0.0
H1721 H 0.92222 0.51838 0.9484 0.0
H1722 H 0.94538 0.53515 0.96053 0.0
H1723 H 0.9272 0.5062 0.96426 0.0
H1724 H 0.99247 0.56219 0.99725 0.0
H1725 H 0.95034 0.4921 1.00455 0.0
H1726 H 0.94837 0.57475 0.99222 0.0
H1727 H 0.95716 0.57001 0.97501 0.0
H1728 H 0.97805 0.58464 0.98891 0.0
H1729 H 0.89691 0.49051 1.001 0.0
H1730 H 0.91053 0.47389 1.00214 0.0
H1731 H 0.90513 0.48233 0.9848 0.0
C1732 C 0.49681 0.36604 0.96217 0.0
C1733 C 0.47989 0.34468 0.96648 0.0
C1734 C 0.5007 0.38516 0.96981 0.0
C1735 C 0.48746 0.38299 0.98217 0.0
C1736 C 0.47092 0.36145 0.9869 0.0
C1737 C 0.46732 0.34259 0.97901 0.0
C1738 C 0.51854 0.40776 0.96439 0.0
C1739 C 0.45652 0.35838 1.00005 0.0
C1740 C 0.50897 0.43358 1.00699 0.0
C1741 C 0.4962 0.44325 1.00223 0.0
C1742 C 0.50594 0.4137 1.00085 0.0
C1743 C 0.48997 0.40332 0.98952 0.0
C1744 C 0.47687 0.41288 0.98477 0.0
C1745 C 0.48008 0.43261 0.99119 0.0
C1746 C 0.52018 0.40405 1.00632 0.0
C1747 C 0.45976 0.4025 0.97266 0.0
H1748 H 0.50693 0.36786 0.95268 0.0
H1749 H 0.45407 0.32624 0.98239 0.0
H1750 H 0.51036 0.41747 0.96098 0.0
H1751 H 0.5307 0.41724 0.97318 0.0
H1752 H 0.52818 0.40659 0.95507 0.0
H1753 H 0.4457 0.34056 1.00301 0.0
H1754 H 0.46746 0.36744 1.00944 0.0
H1755 H 0.44536 0.36551 0.99793 0.0
H1756 H 0.5217 0.44175 0.01534 0.0
H1757 H 0.47008 0.43984 0.98738 0.0
H1758 H 0.53171 0.4047 0.99762 0.0
H1759 H 0.50914 0.3863 1.00928 0.0
H1760 H 0.5306 0.41318 0.01589 0.0
H1761 H 0.46849 0.40225 0.96259 0.0
H1762 H 0.45051 0.41165 0.97047 0.0
H1763 H 0.44719 0.38499 0.97535 0.0
C1764 C 0.13896 0.64731 0.07046 0.0
C1765 C 0.14314 0.66846 0.06605 0.0
C1766 C 0.12319 0.62781 0.06315 0.0
C1767 C 0.1113 0.62929 0.05096 0.0
C1768 C 0.11592 0.65059 0.04615 0.0
C1769 C 0.13168 0.66984 0.05374 0.0
C1770 C 0.11887 0.60552 0.0687 0.0
C1771 C 0.10379 0.653 0.03316 0.0
C1772 C 0.08199 0.57831 0.02618 0.0
C1773 C 0.05935 0.56808 0.03091 0.0
C1774 C 0.09894 0.59842 0.03233 0.0
C1775 C 0.09331 0.60849 0.04372 0.0
C1776 C 0.0705 0.59828 0.04852 0.0
C1777 C 0.05385 0.57836 0.04205 0.0
C1778 C 0.12295 0.60872 0.02676 0.0
C1779 C 0.06369 0.6082 0.06072 0.0
H1780 H 0.14797 0.64594 0.07974 0.0
H1781 H 0.13449 0.68596 0.05026 0.0
H1782 H 0.1009 0.59536 0.07213 0.0
H1783 H 0.12169 0.59624 0.05995 0.0
H1784 H 0.12998 0.60718 0.07802 0.0
H1785 H 0.11032 0.6707 0.03019 0.0
H1786 H 0.10568 0.64419 0.02372 0.0
H1787 H 0.08537 0.64519 0.03547 0.0
H1788 H 0.08663 0.57045 0.01779 0.0
H1789 H 0.0365 0.57071 0.04587 0.0
H1790 H 0.13427 0.60877 0.03545 0.0
H1791 H 0.12927 0.62631 0.02362 0.0
H1792 H 0.12429 0.59963 0.01727 0.0
H1793 H 0.07319 0.60896 0.07069 0.0
H1794 H 0.04521 0.59844 0.06307 0.0
H1795 H 0.06815 0.62551 0.05799 0.0
C1796 C 0.37121 0.48163 0.06944 0.0
C1797 C 0.35106 0.4757 0.06177 0.0
C1798 C 0.39083 0.48437 0.06242 0.0
C1799 C 0.39057 0.48111 0.04726 0.0
C1800 C 0.37049 0.47558 0.03937 0.0
C1801 C 0.35104 0.4729 0.04669 0.0
C1802 C 0.41172 0.49014 0.07135 0.0
C1803 C 0.3695 0.4723 0.02319 0.0
C1804 C 0.44919 0.50315 0.02992 0.0
C1805 C 0.4513 0.48401 0.02977 0.0
C1806 C 0.42908 0.5023 0.03479 0.0
C1807 C 0.41079 0.48193 0.03999 0.0
C1808 C 0.41265 0.46246 0.03936 0.0
C1809 C 0.43281 0.46377 0.03432 0.0
C1810 C 0.42789 0.52344 0.03498 0.0
C1811 C 0.3937 0.44034 0.04466 0.0
H1812 H 0.3715 0.48353 0.08109 0.0
H1813 H 0.33578 0.46866 0.04057 0.0
H1814 H 0.41553 0.47634 0.07078 0.0
H1815 H 0.42663 0.50522 0.06692 0.0
H1816 H 0.40963 0.49318 0.08289 0.0
H1817 H 0.35256 0.46763 0.01862 0.0
H1818 H 0.38244 0.48789 0.01791 0.0
H1819 H 0.3736 0.45913 0.02042 0.0
H1820 H 0.4635 0.51896 0.02673 0.0
H1821 H 0.4344 0.44896 0.03435 0.0
H1822 H 0.42893 0.52912 0.04632 0.0
H1823 H 0.41146 0.52046 0.03045 0.0
H1824 H 0.44193 0.537 0.02871 0.0
H1825 H 0.39709 0.42649 0.04252 0.0
H1826 H 0.37744 0.43642 0.03937 0.0
H1827 H 0.39147 0.44122 0.05649 0.0
C1828 C 0.52205 0.87251 0.0643 0.0
C1829 C 0.5381 0.86797 0.05803 0.0
C1830 C 0.51822 0.88928 0.05873 0.0
C1831 C 0.53076 0.90191 0.04659 0.0
C1832 C 0.54707 0.89751 0.04027 0.0
C1833 C 0.55055 0.88065 0.04605 0.0
C1834 C 0.50065 0.89342 0.06579 0.0
C1835 C 0.56091 0.91064 0.02738 0.0
C1836 C 0.5073 0.93227 0.02416 0.0
C1837 C 0.52007 0.95418 0.02934 0.0
C1838 C 0.51065 0.91515 0.02961 0.0
C1839 C 0.52704 0.91993 0.04061 0.0
C1840 C 0.53994 0.94198 0.0459 0.0
C1841 C 0.53634 0.9588 0.04021 0.0
C1842 C 0.49654 0.89191 0.02362 0.0
C1843 C 0.55753 0.94783 0.05765 0.0
H1844 H 0.51213 0.86265 0.07343 0.0
H1845 H 0.56323 0.87753 0.04125 0.0
H1846 H 0.50868 0.91092 0.06958 0.0
H1847 H 0.48738 0.89095 0.05779 0.0
H1848 H 0.49235 0.88221 0.07516 0.0
H1849 H 0.57276 0.90503 0.02362 0.0
H1850 H 0.54946 0.90902 0.01829 0.0
H1851 H 0.57092 0.92857 0.03018 0.0
H1852 H 0.49442 0.92837 0.01597 0.0
H1853 H 0.54629 0.9756 0.04435 0.0
H1854 H 0.48643 0.88029 0.03242 0.0
H1855 H 0.50778 0.88603 0.01918 0.0
H1856 H 0.48476 0.891 0.01494 0.0
H1857 H 0.54943 0.9378 0.06748 0.0
H1858 H 0.56614 0.96575 0.0606 0.0
H1859 H 0.57057 0.94371 0.05406 0.0
C1860 C 0.03512 0.22388 0.39811 0.0
C1861 C 0.01606 0.21054 0.38943 0.0
C1862 C 0.05531 0.2412 0.39212 0.0
C1863 C 0.05667 0.24547 0.37703 0.0
C1864 C 0.03769 0.23182 0.36816 0.0
C1865 C 0.01773 0.21457 0.37443 0.0
C1866 C 0.07507 0.25528 0.40201 0.0
C1867 C 0.03839 0.23553 0.35204 0.0
C1868 C 0.09932 0.30505 0.36594 0.0
C1869 C 0.11817 0.30333 0.36166 0.0
C1870 C 0.07901 0.28626 0.3704 0.0
C1871 C 0.07742 0.26508 0.37076 0.0
C1872 C 0.09615 0.2631 0.36593 0.0
C1873 C 0.11636 0.28226 0.36159 0.0
C1874 C 0.0595 0.28925 0.37525 0.0
C1875 C 0.09527 0.24092 0.36592 0.0
H1876 H 0.03409 0.22115 0.4097 0.0
H1877 H 1.00339 0.20414 0.36753 0.0
H1878 H 0.09059 0.25544 0.39814 0.0
H1879 H 0.07862 0.27274 0.40186 0.0
H1880 H 0.0718 0.2492 0.41337 0.0
H1881 H 0.02202 0.22398 0.34667 0.0
H1882 H 0.04261 0.25289 0.34972 0.0
H1883 H 0.05194 0.23316 0.34718 0.0
H1884 H 0.10071 0.32133 0.36615 0.0
H1885 H 0.13095 0.28079 0.35864 0.0
H1886 H 0.05624 0.28523 0.38693 0.0
H1887 H 0.04378 0.27761 0.3693 0.0
H1888 H 0.06291 0.30651 0.37351 0.0
H1889 H 0.09502 0.23544 0.37725 0.0
H1890 H 0.1101 0.24171 0.3603 0.0
H1891 H 0.0795 0.22808 0.36059 0.0
C1892 C 0.79259 0.81441 0.39908 0.0
C1893 C 0.80661 0.81023 0.39001 0.0
C1894 C 0.77448 0.81666 0.39345 0.0
C1895 C 0.76999 0.81452 0.37834 0.0
C1896 C 0.78406 0.81026 0.36916 0.0
C1897 C 0.80212 0.80825 0.37505 0.0
C1898 C 0.76006 0.82127 0.40369 0.0
C1899 C 0.78007 0.80782 0.35304 0.0
C1900 C 0.70933 0.79759 0.36687 0.0
C1901 C 0.71127 0.81795 0.36272 0.0
C1902 C 0.72833 0.79619 0.37154 0.0
C1903 C 0.74998 0.8157 0.3723 0.0
C1904 C 0.75216 0.83627 0.36776 0.0
C1905 C 0.73279 0.83717 0.36315 0.0
C1906 C 0.72511 0.77383 0.376 0.0
C1907 C 0.77482 0.85748 0.36819 0.0
H1908 H 0.79597 0.81626 0.41061 0.0
H1909 H 0.81256 0.80476 0.3679 0.0
H1910 H 0.76012 0.8367 0.40039 0.0
H1911 H 0.7422 0.80746 0.4032 0.0
H1912 H 0.76609 0.82316 0.41507 0.0
H1913 H 0.79118 0.80264 0.3475 0.0
H1914 H 0.7621 0.79539 0.35066 0.0
H1915 H 0.78349 0.82399 0.34844 0.0
H1916 H 0.69272 0.78271 0.36669 0.0
H1917 H 0.73444 0.85306 0.36032 0.0
H1918 H 0.72926 0.77415 0.38765 0.0
H1919 H 0.73687 0.77017 0.36986 0.0
H1920 H 0.70744 0.7601 0.37416 0.0
H1921 H 0.78083 0.86145 0.37956 0.0
H1922 H 0.77396 0.87183 0.36352 0.0
H1923 H 0.78765 0.85532 0.36212 0.0
C1924 C 0.21837 1.00091 0.38654 0.0
C1925 C 0.2063 0.99981 0.39912 0.0
C1926 C 0.21415 0.9815 0.37909 0.0
C1927 C 0.1975 0.96037 0.38435 0.0
C1928 C 0.18492 0.95916 0.39686 0.0
C1929 C 0.18943 0.97883 0.40406 0.0
C1930 C 0.22783 0.98358 0.36574 0.0
C1931 C 0.16711 0.937 0.40289 0.0
C1932 C 0.17426 0.90902 0.36003 0.0
C1933 C 0.18694 0.89917 0.36464 0.0
C1934 C 0.17772 0.92908 0.36615 0.0
C1935 C 0.19411 0.9395 0.37727 0.0
C1936 C 0.20705 0.92971 0.38189 0.0
C1937 C 0.20335 0.90977 0.37552 0.0
C1938 C 0.16358 0.93892 0.36086 0.0
C1939 C 0.22465 0.94017 0.39373 0.0
H1940 H 0.23121 0.01702 0.3825 0.0
H1941 H 0.18019 0.97772 0.41385 0.0
H1942 H 0.2383 0.97565 0.36771 0.0
H1943 H 0.21632 0.9747 0.35654 0.0
H1944 H 0.23925 1.00121 0.36258 0.0
H1945 H 0.15799 0.9389 0.41225 0.0
H1946 H 0.15451 0.92714 0.39439 0.0
H1947 H 0.17522 0.92729 0.40644 0.0
H1948 H 0.1613 0.90088 0.3518 0.0
H1949 H 0.21328 0.90239 0.37921 0.0
H1950 H 0.17475 0.95643 0.35742 0.0
H1951 H 0.15282 0.93911 0.3698 0.0
H1952 H 0.1524 0.92942 0.35164 0.0
H1953 H 0.23748 0.95744 0.3907 0.0
H1954 H 0.23352 0.93066 0.39596 0.0
H1955 H 0.21646 0.94113 0.40386 0.0
C1956 C 0.54751 0.69488 0.29503 0.0
C1957 C 0.54267 0.67414 0.30071 0.0
C1958 C 0.5633 0.71499 0.30175 0.0
C1959 C 0.57465 0.71454 0.31454 0.0
C1960 C 0.56959 0.69369 0.32047 0.0
C1961 C 0.55375 0.67382 0.31351 0.0
C1962 C 0.56818 0.73678 0.29499 0.0
C1963 C 0.58115 0.69237 0.33412 0.0
C1964 C 0.63182 0.76587 0.3234 0.0
C1965 C 0.62589 0.77675 0.33387 0.0
C1966 C 0.61539 0.74565 0.31713 0.0
C1967 C 0.59234 0.73586 0.3214 0.0
C1968 C 0.58626 0.74666 0.33203 0.0
C1969 C 0.60303 0.76695 0.33807 0.0
C1970 C 0.62271 0.73483 0.30582 0.0
C1971 C 0.56196 0.73691 0.33694 0.0
H1972 H 0.53937 0.69544 0.28506 0.0
H1973 H 0.54999 0.65797 0.31814 0.0
H1974 H 0.56541 0.74708 0.30301 0.0
H1975 H 0.58625 0.74633 0.29165 0.0
H1976 H 0.55735 0.73435 0.28536 0.0
H1977 H 0.57485 0.67492 0.33764 0.0
H1978 H 0.59974 0.70049 0.33234 0.0
H1979 H 0.57839 0.7015 0.343 0.0
H1980 H 0.64936 0.7732 0.32001 0.0
H1981 H 0.59809 0.77529 0.34594 0.0
H1982 H 0.61368 0.73332 0.29549 0.0
H1983 H 0.61806 0.71774 0.30928 0.0
H1984 H 0.64129 0.74439 0.30379 0.0
H1985 H 0.55112 0.73598 0.32766 0.0
H1986 H 0.56012 0.74691 0.34567 0.0
H1987 H 0.55544 0.71968 0.34094 0.0
C1988 C 0.31567 0.86186 0.30092 0.0
C1989 C 0.33464 0.86731 0.30975 0.0
C1990 C 0.29521 0.85903 0.30675 0.0
C1991 C 0.29346 0.8617 0.32183 0.0
C1992 C 0.31237 0.86679 0.33083 0.0
C1993 C 0.33259 0.86947 0.32472 0.0
C1994 C 0.27558 0.85366 0.2967 0.0
C1995 C 0.3113 0.86949 0.34695 0.0
C1996 C 0.25 0.87856 0.33298 0.0
C1997 C 0.23131 0.85824 0.33723 0.0
C1998 C 0.27044 0.87998 0.32843 0.0
C1999 C 0.27238 0.86055 0.32797 0.0
C2000 C 0.25376 0.84004 0.3327 0.0
C2001 C 0.23341 0.8391 0.33712 0.0
C2002 C 0.28978 0.90226 0.32368 0.0
C2003 C 0.255 0.81891 0.33262 0.0
H2004 H 0.31696 0.86031 0.28934 0.0
H2005 H 0.34683 0.87315 0.33176 0.0
H2006 H 0.26012 0.83843 0.30043 0.0
H2007 H 0.27175 0.86746 0.29684 0.0
H2008 H 0.27917 0.85105 0.28537 0.0
H2009 H 0.3278 0.87468 0.35239 0.0
H2010 H 0.30614 0.88204 0.34929 0.0
H2011 H 0.29827 0.85347 0.35171 0.0
H2012 H 0.24841 0.89337 0.3329 0.0
H2013 H 0.21896 0.82322 0.34004 0.0
H2014 H 0.29334 0.90159 0.31204 0.0
H2015 H 0.30545 0.90623 0.32978 0.0
H2016 H 0.28601 0.91597 0.32533 0.0
H2017 H 0.2559 0.81414 0.32129 0.0
H2018 H 0.24003 0.80487 0.33793 0.0
H2019 H 0.2706 0.82157 0.33825 0.0
C2020 C 0.13491 0.46388 0.31817 0.0
C2021 C 0.14789 0.47641 0.3063 0.0
C2022 C 0.13796 0.44694 0.32428 0.0
C2023 C 0.15434 0.44224 0.31836 0.0
C2024 C 0.16748 0.45479 0.30638 0.0
C2025 C 0.16415 0.47172 0.30053 0.0
C2026 C 0.1237 0.43409 0.3371 0.0
C2027 C 0.18498 0.45023 0.29966 0.0
C2028 C 0.17664 0.41129 0.34125 0.0
C2029 C 0.16379 0.38941 0.33604 0.0
C2030 C 0.17361 0.42857 0.33573 0.0
C2031 C 0.15749 0.424 0.32458 0.0
C2032 C 0.14448 0.40196 0.31926 0.0
C2033 C 0.14774 0.38498 0.32505 0.0
C2034 C 0.18782 0.45177 0.34176 0.0
C2035 C 0.1272 0.39634 0.30733 0.0
H2036 H 0.12255 0.46757 0.32285 0.0
H2037 H 0.17409 0.48111 0.29127 0.0
H2038 H 0.11364 0.41612 0.33441 0.0
H2039 H 0.13485 0.43576 0.34638 0.0
H2040 H 0.11186 0.43989 0.34053 0.0
H2041 H 0.19396 0.46158 0.29047 0.0
H2042 H 0.19773 0.45211 0.3079 0.0
H2043 H 0.17669 0.4328 0.2957 0.0
H2044 H 0.18937 0.41506 0.34953 0.0
H2045 H 0.13773 0.36821 0.32088 0.0
H2046 H 0.17666 0.45799 0.34583 0.0
H2047 H 0.19848 0.46326 0.33306 0.0
H2048 H 0.19911 0.45245 0.35071 0.0
H2049 H 0.11429 0.40076 0.31071 0.0
H2050 H 0.11839 0.37839 0.30442 0.0
H2051 H 0.13564 0.40626 0.29753 0.0
C2052 C 0.31594 0.45451 0.30095 0.0
C2053 C 0.33451 0.46839 0.30982 0.0
C2054 C 0.29589 0.43676 0.30678 0.0
C2055 C 0.29425 0.43254 0.32188 0.0
C2056 C 0.31287 0.44653 0.33091 0.0
C2057 C 0.33266 0.46422 0.3248 0.0
C2058 C 0.27646 0.4224 0.29674 0.0
C2059 C 0.31197 0.44269 0.34702 0.0
C2060 C 0.23451 0.3955 0.33716 0.0
C2061 C 0.23287 0.37451 0.33722 0.0
C2062 C 0.25463 0.41469 0.33275 0.0
C2063 C 0.2735 0.41284 0.32807 0.0
C2064 C 0.2721 0.39174 0.32858 0.0
C2065 C 0.25182 0.3729 0.33304 0.0
C2066 C 0.25529 0.43678 0.33254 0.0
C2067 C 0.29179 0.38891 0.32393 0.0
H2068 H 0.31697 0.45769 0.28941 0.0
H2069 H 0.34692 0.4746 0.33178 0.0
H2070 H 0.27297 0.40497 0.29715 0.0
H2071 H 0.2608 0.42225 0.30029 0.0
H2072 H 0.28004 0.42826 0.28534 0.0
H2073 H 0.32806 0.45463 0.35253 0.0
H2074 H 0.29793 0.44437 0.35177 0.0
H2075 H 0.3084 0.42551 0.34929 0.0
H2076 H 0.21985 0.39688 0.34003 0.0
H2077 H 0.25056 0.35667 0.33294 0.0
H2078 H 0.2561 0.44232 0.32118 0.0
H2079 H 0.27074 0.44965 0.33816 0.0
H2080 H 0.24013 0.43582 0.33778 0.0
H2081 H 0.29507 0.3927 0.31223 0.0
H2082 H 0.28855 0.37174 0.32586 0.0
H2083 H 0.30743 0.40077 0.32985 0.0
C2084 C 0.55041 0.87047 0.31879 0.0
C2085 C 0.54742 0.86798 0.30371 0.0
C2086 C 0.56734 0.86783 0.32594 0.0
C2087 C 0.58179 0.8626 0.31788 0.0
C2088 C 0.57857 0.85965 0.3027 0.0
C2089 C 0.56154 0.86236 0.29585 0.0
C2090 C 0.56982 0.87074 0.34214 0.0
C2091 C 0.59358 0.85421 0.29359 0.0
C2092 C 0.64179 0.87987 0.33084 0.0
C2093 C 0.63973 0.85958 0.33524 0.0
C2094 C 0.62293 0.8812 0.32578 0.0
C2095 C 0.60128 0.86169 0.325 0.0
C2096 C 0.59892 0.84124 0.32997 0.0
C2097 C 0.6182 0.84038 0.33484 0.0
C2098 C 0.62639 0.9034 0.32073 0.0
C2099 C 0.57623 0.82006 0.32962 0.0
H2100 H 0.53945 0.87445 0.32506 0.0
H2101 H 0.55975 0.8607 0.28419 0.0
H2102 H 0.56619 0.8548 0.34724 0.0
H2103 H 0.58753 0.88335 0.34502 0.0
H2104 H 0.55813 0.87594 0.34679 0.0
H2105 H 0.58827 0.85141 0.28204 0.0
H2106 H 0.6114 0.86807 0.29422 0.0
H2107 H 0.59328 0.83907 0.29781 0.0
H2108 H 0.65842 0.89474 0.331 0.0
H2109 H 0.61646 0.82453 0.33789 0.0
H2110 H 0.61421 0.9072 0.32621 0.0
H2111 H 0.62303 0.90273 0.30893 0.0
H2112 H 0.64391 0.91722 0.32286 0.0
H2113 H 0.56295 0.82281 0.33451 0.0
H2114 H 0.57664 0.80624 0.33548 0.0
H2115 H 0.57121 0.81489 0.31822 0.0
C2116 C 0.16241 0.69914 0.29446 0.0
C2117 C 0.14567 0.67771 0.29879 0.0
C2118 C 0.16625 0.71819 0.30217 0.0
C2119 C 0.15311 0.71589 0.31461 0.0
C2120 C 0.13672 0.6943 0.31934 0.0
C2121 C 0.13318 0.6755 0.31138 0.0
C2122 C 0.18395 0.74086 0.29676 0.0
C2123 C 0.1224 0.69108 0.33256 0.0
C2124 C 0.17461 0.76614 0.33977 0.0
C2125 C 0.16174 0.77581 0.3352 0.0
C2126 C 0.17166 0.7464 0.33344 0.0
C2127 C 0.15564 0.73614 0.32211 0.0
C2128 C 0.14245 0.7457 0.31755 0.0
C2129 C 0.1456 0.7653 0.32415 0.0
C2130 C 0.18602 0.73678 0.3387 0.0
C2131 C 0.12527 0.73544 0.30546 0.0
H2132 H 0.17247 0.70106 0.28492 0.0
H2133 H 0.12006 0.6591 0.31477 0.0
H2134 H 0.17567 0.75053 0.29349 0.0
H2135 H 0.19619 0.75031 0.30552 0.0
H2136 H 0.19351 0.7398 0.28735 0.0
H2137 H 0.11159 0.67323 0.33544 0.0
H2138 H 0.13341 0.70002 0.34194 0.0
H2139 H 0.11124 0.69825 0.33057 0.0
H2140 H 0.18734 0.77421 0.34814 0.0
H2141 H 0.13554 0.77254 0.32048 0.0
H2142 H 0.19743 0.73751 0.32989 0.0
H2143 H 0.17505 0.719 0.34163 0.0
H2144 H 0.19656 0.74586 0.34824 0.0
H2145 H 0.13395 0.73536 0.29533 0.0
H2146 H 0.11594 0.74456 0.30343 0.0
H2147 H 0.11277 0.71788 0.30809 0.0
C2148 C 0.8033 0.98255 0.40329 0.0
C2149 C 0.80814 1.00329 0.39761 0.0
C2150 C 0.78759 0.96244 0.39652 0.0
C2151 C 0.7763 0.9629 0.3837 0.0
C2152 C 0.78137 0.98376 0.37777 0.0
C2153 C 0.79715 1.00362 0.38477 0.0
C2154 C 0.7827 0.94064 0.40328 0.0
C2155 C 0.76989 0.98509 0.3641 0.0
C2156 C 0.74794 0.91047 0.36016 0.0
C2157 C 0.72507 0.90068 0.36434 0.0
C2158 C 0.76471 0.93076 0.36621 0.0
C2159 C 0.75861 0.94158 0.37683 0.0
C2160 C 0.73556 0.9318 0.38107 0.0
C2161 C 0.71913 0.91158 0.37479 0.0
C2162 C 0.78902 0.94049 0.36133 0.0
C2163 C 0.72822 0.94263 0.39236 0.0
H2164 H 0.81136 0.98197 0.41329 0.0
H2165 H 0.80091 0.01947 0.38015 0.0
H2166 H 0.76462 0.93109 0.40659 0.0
H2167 H 0.78549 0.93036 0.39526 0.0
H2168 H 0.79351 0.94307 0.41291 0.0
H2169 H 0.77623 1.00254 0.36057 0.0
H2170 H 0.77266 0.97594 0.35523 0.0
H2171 H 0.75129 0.977 0.36585 0.0
H2172 H 0.75289 0.90213 0.35229 0.0
H2173 H 0.70159 0.90426 0.37816 0.0
H2174 H 0.79981 0.94136 0.37061 0.0
H2175 H 0.79558 0.95775 0.35736 0.0
H2176 H 0.79086 0.93052 0.35258 0.0
H2177 H 0.73722 0.94415 0.4027 0.0
H2178 H 0.70963 0.93307 0.39437 0.0
H2179 H 0.73288 0.95972 0.38888 0.0
C2180 C 0.03711 0.81423 0.40323 0.0
C2181 C 0.01698 0.80845 0.39559 0.0
C2182 C 0.05668 0.8169 0.39617 0.0
C2183 C 0.05637 0.81375 0.38099 0.0
C2184 C 0.03631 0.80838 0.37314 0.0
C2185 C 0.01691 0.80576 0.3805 0.0
C2186 C 0.07755 0.82251 0.40506 0.0
C2187 C 0.03528 0.80522 0.35695 0.0
C2188 C 0.11489 0.83561 0.36355 0.0
C2189 C 0.11686 0.8164 0.36329 0.0
C2190 C 0.09486 0.83485 0.3685 0.0
C2191 C 0.07652 0.8145 0.37367 0.0
C2192 C 0.07824 0.79496 0.37294 0.0
C2193 C 0.09831 0.79618 0.36781 0.0
C2194 C 0.09381 0.85607 0.3688 0.0
C2195 C 0.05922 0.77285 0.37821 0.0
H2196 H 0.03743 0.81605 0.41489 0.0
H2197 H 1.00167 0.80164 0.3744 0.0
H2198 H 0.08126 0.80864 0.40442 0.0
H2199 H 0.09251 0.83758 0.40066 0.0
H2200 H 0.07551 0.82549 0.41662 0.0
H2201 H 0.01834 0.80063 0.3524 0.0
H2202 H 0.04824 0.82082 0.3517 0.0
H2203 H 0.03932 0.79203 0.3541 0.0
H2204 H 0.12924 0.85141 0.36038 0.0
H2205 H 0.09979 0.78131 0.36775 0.0
H2206 H 0.0949 0.86167 0.38016 0.0
H2207 H 0.07741 0.85322 0.3643 0.0
H2208 H 0.10789 0.86964 0.36256 0.0
H2209 H 0.05703 0.77368 0.39004 0.0
H2210 H 0.06252 0.75896 0.37601 0.0
H2211 H 0.04298 0.76904 0.37294 0.0
C2212 C 0.18916 0.20646 0.3977 0.0
C2213 C 0.2051 0.2018 0.39137 0.0
C2214 C 0.18542 0.22331 0.39217 0.0
C2215 C 0.19792 0.23591 0.38001 0.0
C2216 C 0.21413 0.2314 0.37363 0.0
C2217 C 0.21752 0.21447 0.37937 0.0
C2218 C 0.16797 0.22755 0.3993 0.0
C2219 C 0.22792 0.24449 0.36072 0.0
C2220 C 0.17454 0.26642 0.35766 0.0
C2221 C 0.18743 0.28834 0.3628 0.0
C2222 C 0.17782 0.24925 0.3631 0.0
C2223 C 0.19426 0.25398 0.37406 0.0
C2224 C 0.20727 0.27604 0.37933 0.0
C2225 C 0.20373 0.29291 0.37363 0.0
C2226 C 0.16358 0.226 0.35714 0.0
C2227 C 0.22491 0.28184 0.39103 0.0
H2228 H 0.17926 0.19662 0.40684 0.0
H2229 H 0.23011 0.21127 0.37452 0.0
H2230 H 0.17608 0.24507 0.40307 0.0
H2231 H 0.15465 0.22511 0.39135 0.0
H2232 H 0.15971 0.21638 0.40869 0.0
H2233 H 0.2397 0.23882 0.35692 0.0
H2234 H 0.21644 0.24291 0.35166 0.0
H2235 H 0.238 0.26242 0.36351 0.0
H2236 H 0.16162 0.26255 0.3495 0.0
H2237 H 0.21378 0.30972 0.37775 0.0
H2238 H 0.15352 0.21442 0.36597 0.0
H2239 H 0.17474 0.22006 0.35265 0.0
H2240 H 0.15175 0.22513 0.3485 0.0
H2241 H 0.21684 0.27184 0.40087 0.0
H2242 H 0.23359 0.29977 0.39397 0.0
H2243 H 0.23789 0.27767 0.3874 0.0
C2244 C 0.70114 0.55624 0.73177 0.0
C2245 C 0.68263 0.5422 0.7229 0.0
C2246 C 0.72121 0.57392 0.72589 0.0
C2247 C 0.72293 0.57791 0.71076 0.0
C2248 C 0.70437 0.56375 0.70175 0.0
C2249 C 0.68456 0.54613 0.70789 0.0
C2250 C 0.74057 0.58847 0.73593 0.0
C2251 C 0.70535 0.56734 0.6856 0.0
C2252 C 0.76524 0.63746 0.69934 0.0
C2253 C 0.78427 0.6359 0.69532 0.0
C2254 C 0.74498 0.61862 0.70383 0.0
C2255 C 0.74367 0.59758 0.70453 0.0
C2256 C 0.76263 0.59576 0.69999 0.0
C2257 C 0.78273 0.61495 0.69555 0.0
C2258 C 0.7252 0.62142 0.70832 0.0
C2259 C 0.76208 0.57374 0.70039 0.0
H2260 H 0.70005 0.55325 0.74333 0.0
H2261 H 0.67035 0.53563 0.70091 0.0
H2262 H 0.75628 0.58864 0.73247 0.0
H2263 H 0.74399 0.60587 0.73538 0.0
H2264 H 0.73696 0.58276 0.74735 0.0
H2265 H 0.68932 0.55525 0.68009 0.0
H2266 H 0.70882 0.58445 0.68318 0.0
H2267 H 0.71948 0.5657 0.68097 0.0
H2268 H 0.76642 0.65365 0.69931 0.0
H2269 H 0.79746 0.61361 0.69278 0.0
H2270 H 0.72187 0.61779 0.72004 0.0
H2271 H 0.70961 0.60941 0.70241 0.0
H2272 H 0.72836 0.63853 0.70624 0.0
H2273 H 0.76127 0.56837 0.7118 0.0
H2274 H 0.77728 0.57468 0.69522 0.0
H2275 H 0.74667 0.56073 0.69482 0.0
C2276 C 0.4688 0.14251 0.70811 0.0
C2277 C 0.47328 0.14437 0.72306 0.0
C2278 C 0.45071 0.14452 0.70225 0.0
C2279 C 0.43661 0.14866 0.71148 0.0
C2280 C 0.44108 0.15068 0.72658 0.0
C2281 C 0.45922 0.14843 0.73218 0.0
C2282 C 0.44672 0.14218 0.68613 0.0
C2283 C 0.42662 0.15517 0.73688 0.0
C2284 C 0.3993 0.1713 0.69643 0.0
C2285 C 0.3778 0.15205 0.69596 0.0
C2286 C 0.41869 0.17041 0.70101 0.0
C2287 C 0.41656 0.14983 0.70547 0.0
C2288 C 0.39494 0.1303 0.70467 0.0
C2289 C 0.37591 0.13169 0.70004 0.0
C2290 C 0.44133 0.19165 0.7015 0.0
C2291 C 0.39175 0.10793 0.70905 0.0
H2292 H 0.47927 0.1391 0.70092 0.0
H2293 H 0.46259 0.15018 0.74371 0.0
H2294 H 0.42882 0.12954 0.68375 0.0
H2295 H 0.44982 0.15828 0.6816 0.0
H2296 H 0.45803 0.13732 0.68053 0.0
H2297 H 0.43265 0.15699 0.74825 0.0
H2298 H 0.42664 0.1706 0.73364 0.0
H2299 H 0.40878 0.14133 0.73636 0.0
H2300 H 0.40091 0.18719 0.69365 0.0
H2301 H 0.35931 0.11679 0.69983 0.0
H2302 H 0.4542 0.18957 0.69542 0.0
H2303 H 0.44729 0.19557 0.71287 0.0
H2304 H 0.44044 0.206 0.69685 0.0
H2305 H 0.40357 0.10435 0.7029 0.0
H2306 H 0.37411 0.09419 0.70717 0.0
H2307 H 0.39587 0.10817 0.7207 0.0
C2308 C 0.85413 0.31144 0.73792 0.0
C2309 C 0.87091 0.33281 0.73352 0.0
C2310 C 0.8501 0.29231 0.73022 0.0
C2311 C 0.86308 0.29447 0.71772 0.0
C2312 C 0.87948 0.31601 0.71292 0.0
C2313 C 0.88322 0.33489 0.72086 0.0
C2314 C 0.83238 0.26971 0.73572 0.0
C2315 C 0.89364 0.31909 0.69964 0.0
C2316 C 0.87044 0.24492 0.70842 0.0
C2317 C 0.85418 0.23424 0.69746 0.0
C2318 C 0.87369 0.26463 0.7149 0.0
C2319 C 0.86048 0.27413 0.71031 0.0
C2320 C 0.84435 0.26372 0.69905 0.0
C2321 C 0.8413 0.24387 0.69283 0.0
C2322 C 0.891 0.27505 0.72691 0.0
C2323 C 0.82995 0.27329 0.69376 0.0
H2324 H 0.84421 0.30962 0.74751 0.0
H2325 H 0.89635 0.35125 0.71741 0.0
H2326 H 0.82008 0.26021 0.72699 0.0
H2327 H 0.84065 0.26003 0.73901 0.0
H2328 H 0.8229 0.27088 0.74513 0.0
H2329 H 0.9044 0.33691 0.69666 0.0
H2330 H 0.90484 0.31196 0.70161 0.0
H2331 H 0.88253 0.31002 0.69032 0.0
H2332 H 0.88054 0.23773 0.71212 0.0
H2333 H 0.82848 0.23568 0.68454 0.0
H2334 H 0.88242 0.27526 0.73705 0.0
H2335 H 0.90347 0.29257 0.72418 0.0
H2336 H 0.90034 0.26595 0.72896 0.0
H2337 H 0.81857 0.27262 0.70257 0.0
H2338 H 0.81937 0.26412 0.68425 0.0
H2339 H 0.8409 0.29105 0.69077 0.0
C2340 C 0.21222 0.0276 0.62999 0.0
C2341 C 0.20928 0.00715 0.63497 0.0
C2342 C 0.22802 0.04789 0.63652 0.0
C2343 C 0.24126 0.04788 0.64841 0.0
C2344 C 0.23809 0.0273 0.65367 0.0
C2345 C 0.22224 0.00726 0.64689 0.0
C2346 C 0.2309 0.0694 0.63048 0.0
C2347 C 0.25165 0.02645 0.66638 0.0
C2348 C 0.29788 0.10063 0.65598 0.0
C2349 C 0.29231 0.11061 0.66727 0.0
C2350 C 0.28149 0.08033 0.64978 0.0
C2351 C 0.25889 0.06944 0.65504 0.0
C2352 C 0.25317 0.07932 0.66649 0.0
C2353 C 0.26984 0.09981 0.67234 0.0
C2354 C 0.28834 0.07061 0.63748 0.0
C2355 C 0.22939 0.0683 0.67253 0.0
H2356 H 0.2026 0.02783 0.62068 0.0
H2357 H 0.21995 0.9916 0.65096 0.0
H2358 H 0.22832 0.07899 0.63913 0.0
H2359 H 0.24848 0.07985 0.6264 0.0
H2360 H 0.21884 0.06658 0.6215 0.0
H2361 H 0.24664 0.00912 0.66951 0.0
H2362 H 0.27 0.03546 0.66369 0.0
H2363 H 0.24935 0.03495 0.67585 0.0
H2364 H 0.31509 0.10875 0.65186 0.0
H2365 H 0.26511 0.10746 0.68081 0.0
H2366 H 0.27786 0.0687 0.62777 0.0
H2367 H 0.28517 0.05379 0.64046 0.0
H2368 H 0.30654 0.08114 0.63458 0.0
H2369 H 0.21726 0.06677 0.66394 0.0
H2370 H 0.22784 0.07774 0.68174 0.0
H2371 H 0.22428 0.05121 0.67626 0.0
C2372 C 0.99959 0.20296 0.6578 0.0
C2373 C 1.00181 0.20085 0.64284 0.0
C2374 C 0.97955 0.20093 0.66375 0.0
C2375 C 0.96098 0.19654 0.65461 0.0
C2376 C 0.96302 0.19422 0.63951 0.0
C2377 C 0.98334 0.19649 0.63382 0.0
C2378 C 0.97831 0.2036 0.67986 0.0
C2379 C 0.9437 0.18943 0.62932 0.0
C2380 C 0.90092 0.17407 0.66987 0.0
C2381 C 0.89891 0.19327 0.67007 0.0
C2382 C 0.92118 0.17494 0.66533 0.0
C2383 C 0.93988 0.19545 0.66068 0.0
C2384 C 0.93807 0.21495 0.66128 0.0
C2385 C 0.91765 0.21358 0.66585 0.0
C2386 C 0.92224 0.15372 0.66504 0.0
C2387 C 0.95753 0.23725 0.65669 0.0
H2388 H 0.01374 0.2066 0.66491 0.0
H2389 H 0.98464 0.19452 0.6223 0.0
H2390 H 0.97377 0.21661 0.68214 0.0
H2391 H 0.9648 0.18776 0.68453 0.0
H2392 H 0.99458 0.20818 0.68542 0.0
H2393 H 0.94758 0.18735 0.61795 0.0
H2394 H 0.92812 0.17405 0.63274 0.0
H2395 H 0.9399 0.20324 0.62973 0.0
H2396 H 0.88643 0.15821 0.67277 0.0
H2397 H 0.91614 0.22843 0.66585 0.0
H2398 H 0.93752 0.15603 0.67093 0.0
H2399 H 0.9237 0.14942 0.65368 0.0
H2400 H 0.90697 0.13951 0.66997 0.0
H2401 H 0.97317 0.24095 0.66274 0.0
H2402 H 0.95392 0.25102 0.65854 0.0
H2403 H 0.96107 0.23681 0.64502 0.0
C2404 C 0.83101 0.80464 0.63388 0.0
C2405 C 0.81469 0.80934 0.63952 0.0
C2406 C 0.8342 0.78764 0.63978 0.0
C2407 C 0.82083 0.77503 0.65167 0.0
C2408 C 0.80436 0.77971 0.65744 0.0
C2409 C 0.80146 0.79673 0.65129 0.0
C2410 C 0.85181 0.7831 0.63322 0.0
C2411 C 0.78985 0.76679 0.67016 0.0
C2412 C 0.81419 0.71778 0.6585 0.0
C2413 C 0.83003 0.7222 0.66962 0.0
C2414 C 0.811 0.73476 0.65261 0.0
C2415 C 0.82389 0.75678 0.65797 0.0
C2416 C 0.8398 0.76134 0.66926 0.0
C2417 C 0.84276 0.74406 0.67488 0.0
C2418 C 0.79394 0.72914 0.64055 0.0
C2419 C 0.85388 0.78453 0.67534 0.0
H2420 H 0.84115 0.81409 0.6247 0.0
H2421 H 0.78905 0.80042 0.65588 0.0
H2422 H 0.86443 0.78498 0.64156 0.0
H2423 H 0.8436 0.76568 0.62925 0.0
H2424 H 0.86093 0.79447 0.62406 0.0
H2425 H 0.77791 0.77254 0.67345 0.0
H2426 H 0.77988 0.74883 0.66744 0.0
H2427 H 0.80082 0.76847 0.67955 0.0
H2428 H 0.80428 0.70101 0.65429 0.0
H2429 H 0.85533 0.74783 0.68326 0.0
H2430 H 0.80256 0.73909 0.63079 0.0
H2431 H 0.78096 0.73354 0.64379 0.0
H2432 H 0.7852 0.7112 0.63763 0.0
H2433 H 0.86467 0.79605 0.66669 0.0
H2434 H 0.86502 0.7852 0.68438 0.0
H2435 H 0.84263 0.7907 0.6793 0.0
C2436 C 0.99876 0.79717 0.65874 0.0
C2437 C 1.00068 0.80111 0.64373 0.0
C2438 C 0.97897 0.77951 0.66487 0.0
C2439 C 0.96043 0.76535 0.65585 0.0
C2440 C 0.96214 0.76936 0.64072 0.0
C2441 C 0.9822 0.78707 0.63486 0.0
C2442 C 0.97799 0.77591 0.68102 0.0
C2443 C 0.94279 0.7548 0.63068 0.0
C2444 C 0.91814 0.7058 0.66723 0.0
C2445 C 0.89911 0.70736 0.67126 0.0
C2446 C 0.93841 0.72465 0.66276 0.0
C2447 C 0.9397 0.74568 0.66208 0.0
C2448 C 0.92074 0.7475 0.66662 0.0
C2449 C 0.90065 0.72831 0.67105 0.0
C2450 C 0.95819 0.72186 0.65827 0.0
C2451 C 0.92129 0.76952 0.66622 0.0
H2452 H 0.01296 0.80769 0.66572 0.0
H2453 H 0.98329 0.79008 0.6233 0.0
H2454 H 0.96397 0.77772 0.68566 0.0
H2455 H 0.97434 0.75875 0.68344 0.0
H2456 H 0.99408 0.78789 0.68652 0.0
H2457 H 0.94641 0.76052 0.61926 0.0
H2458 H 0.93939 0.73741 0.63122 0.0
H2459 H 0.92707 0.75462 0.63414 0.0
H2460 H 0.91696 0.68961 0.66725 0.0
H2461 H 0.88592 0.72964 0.67382 0.0
H2462 H 0.97377 0.73386 0.66419 0.0
H2463 H 0.96154 0.72551 0.64656 0.0
H2464 H 0.95504 0.70475 0.66034 0.0
H2465 H 0.93668 0.78252 0.67182 0.0
H2466 H 0.90607 0.76856 0.67138 0.0
H2467 H 0.92212 0.77491 0.65482 0.0
C2468 C 0.21701 0.20469 0.65174 0.0
C2469 C 0.2141 0.2022 0.63665 0.0
C2470 C 0.23385 0.20197 0.65895 0.0
C2471 C 0.24829 0.19665 0.65094 0.0
C2472 C 0.24515 0.1937 0.63576 0.0
C2473 C 0.22821 0.1965 0.62884 0.0
C2474 C 0.23624 0.20488 0.67515 0.0
C2475 C 0.26015 0.18818 0.62671 0.0
C2476 C 0.3082 0.21388 0.66406 0.0
C2477 C 0.3061 0.19359 0.66852 0.0
C2478 C 0.28938 0.21521 0.65893 0.0
C2479 C 0.26773 0.19572 0.65813 0.0
C2480 C 0.26532 0.17527 0.66316 0.0
C2481 C 0.28456 0.1744 0.6681 0.0
C2482 C 0.2929 0.23742 0.65383 0.0
C2483 C 0.24261 0.15411 0.66279 0.0
H2484 H 0.20605 0.20872 0.65796 0.0
H2485 H 0.22649 0.19484 0.61719 0.0
H2486 H 0.23243 0.1889 0.68027 0.0
H2487 H 0.25397 0.21738 0.67808 0.0
H2488 H 0.22463 0.21023 0.67975 0.0
H2489 H 0.25489 0.18536 0.61516 0.0
H2490 H 0.27799 0.20201 0.62735 0.0
H2491 H 0.25979 0.17304 0.63098 0.0
H2492 H 0.32483 0.22874 0.66424 0.0
H2493 H 0.28279 0.15855 0.67121 0.0
H2494 H 0.28073 0.24126 0.65927 0.0
H2495 H 0.28957 0.23672 0.64202 0.0
H2496 H 0.31043 0.25122 0.65597 0.0
H2497 H 0.22931 0.15691 0.66761 0.0
H2498 H 0.24297 0.14031 0.66871 0.0
H2499 H 0.23767 0.1489 0.65139 0.0
C2500 C 0.8016 0.01031 0.64556 0.0
C2501 C 0.81429 0.01247 0.63308 0.0
C2502 C 0.80502 0.02914 0.65343 0.0
C2503 C 0.82149 0.05071 0.64871 0.0
C2504 C 0.83483 0.05296 0.6364 0.0
C2505 C 0.83114 0.03388 0.62879 0.0
C2506 C 0.79052 0.02597 0.66654 0.0
C2507 C 0.8526 0.07561 0.63099 0.0
C2508 C 0.8137 0.10011 0.65775 0.0
C2509 C 0.82974 0.11079 0.66883 0.0
C2510 C 0.81067 0.08046 0.6513 0.0
C2511 C 0.82385 0.071 0.65607 0.0
C2512 C 0.83975 0.08141 0.66744 0.0
C2513 C 0.84262 0.10123 0.67359 0.0
C2514 C 0.79364 0.07005 0.63915 0.0
C2515 C 0.85408 0.07188 0.67292 0.0
H2516 H 0.78841 0.99393 0.64893 0.0
H2517 H 0.84136 0.03577 0.61934 0.0
H2518 H 0.80138 0.03505 0.67595 0.0
H2519 H 0.77931 0.03305 0.66438 0.0
H2520 H 0.77974 0.00814 0.66948 0.0
H2521 H 0.8623 0.07451 0.62168 0.0
H2522 H 0.84435 0.08524 0.62758 0.0
H2523 H 0.86471 0.08512 0.6398 0.0
H2524 H 0.80363 0.10726 0.65394 0.0
H2525 H 0.85529 0.10943 0.68197 0.0
H2526 H 0.78112 0.05251 0.64182 0.0
H2527 H 0.80245 0.06987 0.62911 0.0
H2528 H 0.78433 0.07914 0.63694 0.0
H2529 H 0.84311 0.05411 0.67587 0.0
H2530 H 0.86445 0.08104 0.6825 0.0
H2531 H 0.86566 0.07261 0.66423 0.0
C2532 C 0.46955 0.31613 0.73698 0.0
C2533 C 0.47445 0.33693 0.73138 0.0
C2534 C 0.45382 0.29609 0.73015 0.0
C2535 C 0.44258 0.29668 0.71734 0.0
C2536 C 0.44771 0.3176 0.71149 0.0
C2537 C 0.46349 0.33739 0.71856 0.0
C2538 C 0.44886 0.27422 0.73683 0.0
C2539 C 0.43628 0.31907 0.69783 0.0
C2540 C 0.41427 0.24444 0.69362 0.0
C2541 C 0.39138 0.23465 0.69776 0.0
C2542 C 0.43103 0.26468 0.69973 0.0
C2543 C 0.42491 0.27543 0.71039 0.0
C2544 C 0.40183 0.26565 0.71459 0.0
C2545 C 0.38542 0.24549 0.70824 0.0
C2546 C 0.45535 0.27442 0.69488 0.0
C2547 C 0.39447 0.2764 0.72592 0.0
H2548 H 0.47759 0.31545 0.74696 0.0
H2549 H 0.4673 0.35329 0.714 0.0
H2550 H 0.43076 0.26465 0.7401 0.0
H2551 H 0.45169 0.264 0.72878 0.0
H2552 H 0.45962 0.27655 0.74648 0.0
H2553 H 0.44266 0.33656 0.69437 0.0
H2554 H 0.43908 0.31 0.68892 0.0
H2555 H 0.41768 0.31098 0.69955 0.0
H2556 H 0.41923 0.23614 0.68573 0.0
H2557 H 0.36786 0.23817 0.71159 0.0
H2558 H 0.4661 0.27518 0.70417 0.0
H2559 H 0.46196 0.29172 0.69099 0.0
H2560 H 0.45721 0.26453 0.68609 0.0
H2561 H 0.40343 0.27782 0.73627 0.0
H2562 H 0.37588 0.26685 0.7279 0.0
H2563 H 0.39916 0.29352 0.7225 0.0
C2564 C 0.70415 0.14858 0.73609 0.0
C2565 C 0.684 0.14249 0.72838 0.0
C2566 C 0.72385 0.15142 0.72911 0.0
C2567 C 0.72367 0.14812 0.71396 0.0
C2568 C 0.70358 0.14244 0.70603 0.0
C2569 C 0.68405 0.13966 0.7133 0.0
C2570 C 0.74474 0.15736 0.73808 0.0
C2571 C 0.70267 0.13911 0.68986 0.0
C2572 C 0.78236 0.17039 0.69664 0.0
C2573 C 0.7846 0.15132 0.69653 0.0
C2574 C 0.7622 0.16944 0.70151 0.0
C2575 C 0.74398 0.14904 0.70674 0.0
C2576 C 0.74598 0.12965 0.70617 0.0
C2577 C 0.76618 0.13105 0.70113 0.0
C2578 C 0.76086 0.19051 0.70164 0.0
C2579 C 0.72711 0.1075 0.7115 0.0
H2580 H 0.70438 0.15052 0.74773 0.0
H2581 H 0.6688 0.1353 0.70714 0.0
H2582 H 0.74865 0.14362 0.73757 0.0
H2583 H 0.75961 0.17247 0.73365 0.0
H2584 H 0.74258 0.16043 0.7496 0.0
H2585 H 0.68568 0.1342 0.68527 0.0
H2586 H 0.71547 0.15476 0.68457 0.0
H2587 H 0.70701 0.1261 0.68713 0.0
H2588 H 0.79661 0.18622 0.69342 0.0
H2589 H 0.76787 0.11629 0.70119 0.0
H2590 H 0.7618 0.19619 0.71297 0.0
H2591 H 0.74443 0.18742 0.69706 0.0
H2592 H 0.7749 0.2041 0.69539 0.0
H2593 H 0.73063 0.09372 0.70943 0.0
H2594 H 0.71084 0.10345 0.70617 0.0
H2595 H 0.72483 0.10843 0.72332 0.0
C2596 C 0.85569 0.53951 0.73168 0.0
C2597 C 0.87154 0.53478 0.72528 0.0
C2598 C 0.852 0.55642 0.72621 0.0
C2599 C 0.86446 0.56902 0.71405 0.0
C2600 C 0.88059 0.56445 0.7076 0.0
C2601 C 0.88392 0.54744 0.71328 0.0
C2602 C 0.83462 0.56071 0.7334 0.0
C2603 C 0.89435 0.57755 0.69468 0.0
C2604 C 0.84092 0.59942 0.69173 0.0
C2605 C 0.85378 0.62135 0.69685 0.0
C2606 C 0.84426 0.58228 0.69717 0.0
C2607 C 0.86075 0.58707 0.7081 0.0
C2608 C 0.87374 0.60915 0.71335 0.0
C2609 C 0.87012 0.62598 0.70767 0.0
C2610 C 0.83002 0.55902 0.69124 0.0
C2611 C 0.89145 0.61501 0.72501 0.0
H2612 H 0.84582 0.52967 0.74083 0.0
H2613 H 0.89644 0.54418 0.70837 0.0
H2614 H 0.84277 0.57823 0.73715 0.0
H2615 H 0.82125 0.55826 0.72549 0.0
H2616 H 0.82641 0.54956 0.74281 0.0
H2617 H 0.90615 0.57191 0.69087 0.0
H2618 H 0.88285 0.57593 0.68563 0.0
H2619 H 0.9044 0.59549 0.69746 0.0
H2620 H 0.82797 0.5955 0.68359 0.0
H2621 H 0.88014 0.6428 0.71176 0.0
H2622 H 0.82004 0.54744 0.70009 0.0
H2623 H 0.84118 0.5531 0.68671 0.0
H2624 H 0.81812 0.55809 0.68264 0.0
H2625 H 0.88344 0.60505 0.73488 0.0
H2626 H 0.90015 0.63295 0.72792 0.0
H2627 H 0.90441 0.61081 0.72136 0.0
C2628 C 0.47639 0.92979 0.17369 0.0
C2629 C 0.47492 0.94288 0.1848 0.0
C2630 C 0.48301 0.93822 0.15952 0.0
C2631 C 0.48831 0.96031 0.15625 0.0
C2632 C 0.4869 0.97358 0.1674 0.0
C2633 C 0.48036 0.9648 0.18146 0.0
C2634 C 0.48436 0.92348 0.14804 0.0
C2635 C 0.49246 0.99723 0.16452 0.0
C2636 C 0.52692 0.99285 0.12468 0.0
C2637 C 0.51145 0.99231 0.11432 0.0
C2638 C 0.51957 0.98181 0.13806 0.0
C2639 C 0.49608 0.96994 0.14136 0.0
C2640 C 0.48029 0.96858 0.13073 0.0
C2641 C 0.48813 0.97966 0.11733 0.0
C2642 C 0.53707 0.98354 0.14888 0.0
C2643 C 0.45512 0.9562 0.13374 0.0
H2644 H 0.47199 0.91278 0.176 0.0
H2645 H 0.47975 0.9753 0.18991 0.0
H2646 H 0.47292 0.92157 0.13888 0.0
H2647 H 0.50187 0.9313 0.14366 0.0
H2648 H 0.47961 0.90669 0.15224 0.0
H2649 H 0.48988 0.00518 0.1742 0.0
H2650 H 0.51041 0.00736 0.16103 0.0
H2651 H 0.48168 0.99755 0.15558 0.0
H2652 H 0.54495 1.00231 0.12239 0.0
H2653 H 0.47605 0.97923 0.10947 0.0
H2654 H 0.53287 0.96673 0.15271 0.0
H2655 H 0.53697 0.9931 0.15848 0.0
H2656 H 0.55449 0.99193 0.14429 0.0
H2657 H 0.44965 0.93908 0.13756 0.0
H2658 H 0.44494 0.95519 0.12404 0.0
H2659 H 0.4513 0.96476 0.1425 0.0
C2660 C 0.04452 0.51271 0.17951 0.0
C2661 C 0.06588 0.53096 0.18297 0.0
C2662 C 0.03477 0.51051 0.16574 0.0
C2663 C 0.04656 0.52696 0.15505 0.0
C2664 C 0.06807 0.54549 0.15845 0.0
C2665 C 0.07744 0.54729 0.17235 0.0
C2666 C 0.01174 0.49056 0.16265 0.0
C2667 C 0.08123 0.56338 0.14739 0.0
C2668 C 0.02791 0.50947 0.11594 0.0
C2669 C 0.01283 0.5175 0.11364 0.0
C2670 C 0.03953 0.51298 0.1292 0.0
C2671 C 0.03605 0.52485 0.14045 0.0
C2672 C 0.02147 0.53364 0.138 0.0
C2673 C 0.01009 0.52988 0.12467 0.0
C2674 C 0.05493 0.50334 0.13133 0.0
C2675 C 0.01737 0.54652 0.14962 0.0
H2676 H 0.03526 0.50018 0.18767 0.0
H2677 H 0.09404 0.56132 0.17483 0.0
H2678 H 0.99951 0.49614 0.15974 0.0
H2679 H 0.01283 0.48118 0.15326 0.0
H2680 H 1.00491 0.47908 0.17205 0.0
H2681 H 0.09773 0.57672 0.1517 0.0
H2682 H 0.08452 0.55597 0.13772 0.0
H2683 H 0.07107 0.57101 0.14375 0.0
H2684 H 0.03005 0.49976 0.10755 0.0
H2685 H 0.99882 0.53653 0.12292 0.0
H2686 H 0.04778 0.49023 0.13978 0.0
H2687 H 0.07189 0.51641 0.13516 0.0
H2688 H 0.0571 0.49593 0.12123 0.0
H2689 H 0.00895 0.53552 0.15903 0.0
H2690 H 1.00653 0.55331 0.14575 0.0
H2691 H 0.03376 0.56052 0.15349 0.0
C2692 C 0.47473 0.54395 0.17342 0.0
C2693 C 0.47105 0.5281 0.18416 0.0
C2694 C 0.4822 0.54249 0.15944 0.0
C2695 C 0.48617 0.52478 0.15602 0.0
C2696 C 0.48252 0.50877 0.1668 0.0
C2697 C 0.47508 0.51064 0.18066 0.0
C2698 C 0.48586 0.55993 0.14831 0.0
C2699 C 0.48665 0.48969 0.16373 0.0
C2700 C 0.48816 0.50771 0.11686 0.0
C2701 C 0.51159 0.51687 0.11466 0.0
C2702 C 0.47964 0.5107 0.13008 0.0
C2703 C 0.49487 0.52326 0.14137 0.0
C2704 C 0.51855 0.53331 0.13895 0.0
C2705 C 0.52657 0.52999 0.12569 0.0
C2706 C 0.45428 0.49969 0.13215 0.0
C2707 C 0.53548 0.54703 0.15055 0.0
H2708 H 0.47144 0.55736 0.17588 0.0
H2709 H 0.4727 0.49848 0.18887 0.0
H2710 H 0.5038 0.56862 0.14467 0.0
H2711 H 0.47512 0.55191 0.13865 0.0
H2712 H 0.48178 0.57251 0.15257 0.0
H2713 H 0.48246 0.4783 0.17313 0.0
H2714 H 0.47628 0.47995 0.15433 0.0
H2715 H 0.50474 0.49625 0.16087 0.0
H2716 H 0.47642 0.49746 0.10847 0.0
H2717 H 0.54472 0.53748 0.12403 0.0
H2718 H 0.44959 0.512 0.13602 0.0
H2719 H 0.44884 0.48656 0.14055 0.0
H2720 H 0.44475 0.49198 0.12201 0.0
H2721 H 0.53217 0.56029 0.15442 0.0
H2722 H 0.5533 0.5549 0.14667 0.0
H2723 H 0.53359 0.5363 0.15997 0.0
C2724 C 0.93916 0.46438 0.85948 0.0
C2725 C 0.95066 0.4807 0.84885 0.0
C2726 C 0.94856 0.46624 0.87338 0.0
C2727 C 0.97004 0.48483 0.87676 0.0
C2728 C 0.98176 0.50129 0.86607 0.0
C2729 C 0.97196 0.49902 0.8523 0.0
C2730 C 0.93548 0.44835 0.88446 0.0
C2731 C 1.00477 0.52128 0.86913 0.0
C2732 C 0.98904 0.50238 0.91583 0.0
C2733 C 1.0042 0.49443 0.91804 0.0
C2734 C 0.97726 0.4988 0.90263 0.0
C2735 C 0.98066 0.48695 0.89134 0.0
C2736 C 0.9953 0.47819 0.8937 0.0
C2737 C 1.00683 0.48201 0.90698 0.0
C2738 C 0.96178 0.50838 0.90059 0.0
C2739 C 0.99933 0.46533 0.88204 0.0
H2740 H 0.92259 0.45029 0.85701 0.0
H2741 H 0.98118 0.51156 0.84413 0.0
H2742 H 0.94565 0.4407 0.88803 0.0
H2743 H 0.93228 0.45576 0.89417 0.0
H2744 H 0.91894 0.43502 0.88019 0.0
H2745 H 0.01151 0.53279 0.85974 0.0
H2746 H 1.00369 0.53062 0.87855 0.0
H2747 H 0.01706 0.51576 0.87198 0.0
H2748 H 0.98698 0.51211 0.92424 0.0
H2749 H 0.01815 0.47541 0.90866 0.0
H2750 H 0.94483 0.4953 0.89675 0.0
H2751 H 0.96888 0.52156 0.89218 0.0
H2752 H 0.9596 0.5157 0.91073 0.0
H2753 H 0.98292 0.45132 0.87819 0.0
H2754 H 0.01021 0.45855 0.88585 0.0
H2755 H 0.00768 0.47634 0.87262 0.0
C2756 C 0.54113 0.46598 0.85933 0.0
C2757 C 0.54549 0.48222 0.84874 0.0
C2758 C 0.53365 0.46742 0.87332 0.0
C2759 C 0.53035 0.4855 0.8769 0.0
C2760 C 0.53469 0.5019 0.86626 0.0
C2761 C 0.54212 0.50005 0.85239 0.0
C2762 C 0.52926 0.44956 0.88429 0.0
C2763 C 0.53128 0.52139 0.86948 0.0
C2764 C 0.49005 0.48087 0.90715 0.0
C2765 C 0.50507 0.49346 0.91833 0.0
C2766 C 0.49801 0.47756 0.89387 0.0
C2767 C 0.52166 0.48703 0.89155 0.0
C2768 C 0.5369 0.49904 0.90298 0.0
C2769 C 0.52844 0.50205 0.91622 0.0
C2770 C 0.48106 0.46447 0.88212 0.0
C2771 C 0.56222 0.50941 0.90104 0.0
H2772 H 0.54391 0.45228 0.85677 0.0
H2773 H 0.54502 0.51252 0.84429 0.0
H2774 H 0.53995 0.45713 0.89403 0.0
H2775 H 0.51128 0.44127 0.88783 0.0
H2776 H 0.53287 0.43672 0.87992 0.0
H2777 H 0.53594 0.53304 0.86019 0.0
H2778 H 0.51325 0.51529 0.87227 0.0
H2779 H 0.54169 0.53073 0.87898 0.0
H2780 H 0.47194 0.47379 0.90873 0.0
H2781 H 0.54022 0.5119 0.92471 0.0
H2782 H 0.48386 0.45093 0.87815 0.0
H2783 H 0.48347 0.47552 0.87279 0.0
H2784 H 0.46322 0.45702 0.8859 0.0
H2785 H 0.56645 0.49682 0.89707 0.0
H2786 H 0.57171 0.51673 0.91125 0.0
H2787 H 0.56815 0.52275 0.89274 0.0
C2788 C 0.51164 0.04939 0.85143 0.0
C2789 C 0.53227 0.06815 0.84735 0.0
C2790 C 0.50834 0.04021 0.86543 0.0
C2791 C 0.52611 0.04978 0.87579 0.0
C2792 C 0.54707 0.06859 0.87176 0.0
C2793 C 0.54989 0.07753 0.85765 0.0
C2794 C 0.48574 0.02011 0.86911 0.0
C2795 C 0.56654 0.0793 0.88237 0.0
C2796 C 0.50823 0.03467 0.91543 0.0
C2797 C 0.51147 0.01638 0.91754 0.0
C2798 C 0.51364 0.04621 0.90209 0.0
C2799 C 0.52279 0.03954 0.89062 0.0
C2800 C 0.52719 0.02183 0.89301 0.0
C2801 C 0.52137 0.01045 0.90634 0.0
C2802 C 0.50852 0.06488 0.90006 0.0
C2803 C 0.53723 0.01428 0.88127 0.0
H2804 H 0.498 0.04163 0.84358 0.0
H2805 H 0.56582 0.09213 0.85478 0.0
H2806 H 0.48818 0.00588 0.87196 0.0
H2807 H 0.47831 0.02371 0.8787 0.0
H2808 H 0.4734 0.015 0.86002 0.0
H2809 H 0.58173 0.09381 0.87764 0.0
H2810 H 0.56125 0.08492 0.89209 0.0
H2811 H 0.57133 0.06695 0.88604 0.0
H2812 H 0.50045 0.03928 0.92396 0.0
H2813 H 0.52415 0.99648 0.90792 0.0
H2814 H 0.49467 0.05983 0.892 0.0
H2815 H 0.52363 0.0799 0.89576 0.0
H2816 H 0.50324 0.06932 0.91031 0.0
H2817 H 0.52494 0.00692 0.87221 0.0
H2818 H 0.54151 1.00167 0.88523 0.0
H2819 H 0.55283 0.02868 0.87687 0.0
C2820 C 0.14549 0.29829 0.51467 0.0
C2821 C 0.14076 0.2766 0.51808 0.0
C2822 C 0.1522 0.30721 0.50065 0.0
C2823 C 0.15449 0.2943 0.4896 0.0
C2824 C 0.14986 0.27244 0.49294 0.0
C2825 C 0.14307 0.26388 0.50707 0.0
C2826 C 0.15704 0.33061 0.49771 0.0
C2827 C 0.15212 0.25807 0.48156 0.0
C2828 C 0.15487 0.31347 0.45054 0.0
C2829 C 0.17823 0.32665 0.4478 0.0
C2830 C 0.14686 0.30228 0.46389 0.0
C2831 C 0.16252 0.30411 0.47477 0.0
C2832 C 0.18609 0.31657 0.47176 0.0
C2833 C 0.1936 0.32766 0.45841 0.0
C2834 C 0.12161 0.28925 0.46658 0.0
C2835 C 0.20348 0.31885 0.48286 0.0
H2836 H 0.14422 0.30853 0.52305 0.0
H2837 H 0.13922 0.24703 0.50942 0.0
H2838 H 0.17503 0.34123 0.49444 0.0
H2839 H 0.14633 0.33057 0.4886 0.0
H2840 H 0.1538 0.33826 0.5073 0.0
H2841 H 0.14773 0.24138 0.48578 0.0
H2842 H 0.14087 0.25589 0.47224 0.0
H2843 H 0.16979 0.26637 0.47743 0.0
H2844 H 0.14285 0.31266 0.44248 0.0
H2845 H 0.21167 0.33752 0.45634 0.0
H2846 H 0.11714 0.29749 0.47522 0.0
H2847 H 0.11654 0.27223 0.47043 0.0
H2848 H 0.11161 0.28795 0.45672 0.0
H2849 H 0.20266 0.32812 0.4924 0.0
H2850 H 0.22105 0.32777 0.47852 0.0
H2851 H 0.19973 0.30218 0.48671 0.0
C2852 C 0.74468 0.88158 0.50507 0.0
C2853 C 0.73383 0.86547 0.51591 0.0
C2854 C 0.73497 0.87893 0.4912 0.0
C2855 C 0.7139 0.85967 0.48804 0.0
C2856 C 0.70299 0.84325 0.49888 0.0
C2857 C 0.71305 0.84634 0.51264 0.0
C2858 C 0.74713 0.89688 0.47999 0.0
C2859 C 0.68057 0.82242 0.49598 0.0
C2860 C 0.67564 0.86056 0.45812 0.0
C2861 C 0.67898 0.84879 0.44694 0.0
C2862 C 0.68729 0.86467 0.47137 0.0
C2863 C 0.7028 0.85691 0.47357 0.0
C2864 C 0.70682 0.84564 0.46218 0.0
C2865 C 0.6949 0.84173 0.44902 0.0
C2866 C 0.68257 0.87689 0.48314 0.0
C2867 C 0.72324 0.83712 0.46406 0.0
H2868 H 0.76062 0.89651 0.5075 0.0
H2869 H 0.70471 0.83359 0.52082 0.0
H2870 H 0.75007 0.88966 0.47009 0.0
H2871 H 0.7364 0.90412 0.47684 0.0
H2872 H 0.76373 0.9105 0.48398 0.0
H2873 H 0.67451 0.81102 0.50545 0.0
H2874 H 0.66749 0.82693 0.49316 0.0
H2875 H 0.68218 0.81334 0.48659 0.0
H2876 H 0.66372 0.86647 0.45655 0.0
H2877 H 0.69751 0.8325 0.44051 0.0
H2878 H 0.69866 0.89147 0.48686 0.0
H2879 H 0.67491 0.86576 0.49261 0.0
H2880 H 0.67085 0.88276 0.4795 0.0
H2881 H 0.74003 0.85077 0.46769 0.0
H2882 H 0.72557 0.82995 0.4539 0.0
H2883 H 0.71692 0.82409 0.47257 0.0
C2884 C 0.14 0.84337 0.51406 0.0
C2885 C 0.13721 0.86164 0.51738 0.0
C2886 C 0.14697 0.84074 0.50022 0.0
C2887 C 0.15136 0.85677 0.48929 0.0
C2888 C 0.14834 0.87513 0.49249 0.0
C2889 C 0.14129 0.87732 0.50644 0.0
C2890 C 0.14983 0.82084 0.49733 0.0
C2891 C 0.15293 0.89268 0.48124 0.0
C2892 C 0.19161 0.86036 0.45934 0.0
C2893 C 0.1766 0.84777 0.44817 0.0
C2894 C 0.18367 0.86393 0.47255 0.0
C2895 C 0.16003 0.8547 0.47477 0.0
C2896 C 0.14479 0.84264 0.46336 0.0
C2897 C 0.15324 0.83938 0.45021 0.0
C2898 C 0.2006 0.87709 0.48428 0.0
C2899 C 0.11948 0.83253 0.46523 0.0
H2900 H 0.13652 0.83092 0.52229 0.0
H2901 H 0.1394 0.8916 0.50886 0.0
H2902 H 0.13922 0.81131 0.48795 0.0
H2903 H 0.16776 0.8265 0.49451 0.0
H2904 H 0.14506 0.8095 0.5068 0.0
H2905 H 0.1489 0.90544 0.4852 0.0
H2906 H 0.17108 0.90113 0.47806 0.0
H2907 H 0.14274 0.88484 0.47135 0.0
H2908 H 0.20972 0.86729 0.45781 0.0
H2909 H 0.14147 0.82953 0.44171 0.0
H2910 H 0.19793 0.86619 0.49375 0.0
H2911 H 0.19805 0.89089 0.48802 0.0
H2912 H 0.21845 0.88421 0.48059 0.0
H2913 H 0.1134 0.81943 0.47368 0.0
H2914 H 0.11 0.82499 0.45505 0.0
H2915 H 0.1154 0.84535 0.46893 0.0
C2916 C 0.60904 0.82321 0.19438 0.0
C2917 C 0.61349 0.81218 0.1832 0.0
C2918 C 0.61928 0.82631 0.20808 0.0
C2919 C 0.63431 0.81811 0.2108 0.0
C2920 C 0.63828 0.80631 0.19975 0.0
C2921 C 0.62788 0.80352 0.18611 0.0
C2922 C 0.61448 0.83893 0.21953 0.0
C2923 C 0.65412 0.79722 0.20219 0.0
C2924 C 0.68053 0.84699 0.23935 0.0
C2925 C 0.67176 0.83237 0.25117 0.0
C2926 C 0.66842 0.84264 0.22628 0.0
C2927 C 0.64695 0.82309 0.22486 0.0
C2928 C 0.63781 0.8084 0.23681 0.0
C2929 C 0.65027 0.81325 0.24983 0.0
C2930 C 0.67872 0.85893 0.21392 0.0
C2931 C 0.61505 0.78734 0.23575 0.0
H2932 H 0.59762 0.8296 0.19238 0.0
H2933 H 0.63164 0.79516 0.17757 0.0
H2934 H 0.60856 0.82896 0.22962 0.0
H2935 H 0.63034 0.85458 0.2222 0.0
H2936 H 0.60147 0.84319 0.216 0.0
H2937 H 0.65418 0.78709 0.1929 0.0
H2938 H 0.67167 0.81119 0.20389 0.0
H2939 H 0.64917 0.78678 0.21209 0.0
H2940 H 0.69697 0.86196 0.24035 0.0
H2941 H 0.64344 0.80177 0.25885 0.0
H2942 H 0.66704 0.86494 0.21051 0.0
H2943 H 0.68115 0.85052 0.20445 0.0
H2944 H 0.69538 0.87354 0.21683 0.0
H2945 H 0.60174 0.79136 0.23258 0.0
H2946 H 0.61002 0.77795 0.24611 0.0
H2947 H 0.61562 0.77641 0.2272 0.0
C2948 C 0.19008 0.80502 0.18618 0.0
C2949 C 0.21331 0.8138 0.18328 0.0
C2950 C 0.1825 0.80739 0.19991 0.0
C2951 C 0.19845 0.81886 0.21111 0.0
C2952 C 0.22183 0.82716 0.20839 0.0
C2953 C 0.22893 0.82451 0.19459 0.0
C2954 C 0.15741 0.7982 0.20229 0.0
C2955 C 0.23947 0.83943 0.21996 0.0
C2956 C 0.18135 0.84687 0.2401 0.0
C2957 C 0.17502 0.83188 0.25174 0.0
C2958 C 0.18923 0.84295 0.22699 0.0
C2959 C 0.19083 0.82346 0.2253 0.0
C2960 C 0.18493 0.80845 0.23711 0.0
C2961 C 0.17721 0.81288 0.25019 0.0
C2962 C 0.19559 0.8596 0.21484 0.0
C2963 C 0.1863 0.78745 0.23581 0.0
H2964 H 0.17781 0.79689 0.17757 0.0
H2965 H 0.24687 0.83099 0.19264 0.0
H2966 H 0.15173 0.78746 0.21206 0.0
H2967 H 0.15405 0.8121 0.20421 0.0
H2968 H 0.14705 0.78835 0.19289 0.0
H2969 H 0.25681 0.84376 0.21643 0.0
H2970 H 0.23957 0.85502 0.22283 0.0
H2971 H 0.23522 0.82919 0.22992 0.0
H2972 H 0.18006 0.86177 0.24124 0.0
H2973 H 0.17221 0.8011 0.25905 0.0
H2974 H 0.18458 0.8515 0.20529 0.0
H2975 H 0.21338 0.86565 0.21145 0.0
H2976 H 0.19389 0.87418 0.21796 0.0
H2977 H 0.17449 0.77665 0.22723 0.0
H2978 H 0.18193 0.77789 0.2461 0.0
H2979 H 0.20366 0.79156 0.23255 0.0
C2980 C 0.178 0.38666 0.18585 0.0
C2981 C 0.19973 0.40272 0.18103 0.0
C2982 C 0.17454 0.37717 0.19976 0.0
C2983 C 0.19322 0.38372 0.20928 0.0
C2984 C 0.21523 0.39987 0.20451 0.0
C2985 C 0.21823 0.4091 0.19049 0.0
C2986 C 0.1508 0.35989 0.20422 0.0
C2987 C 0.23565 0.40741 0.21425 0.0
C2988 C 0.17813 0.36998 0.24939 0.0
C2989 C 0.17758 0.34954 0.2508 0.0
C2990 C 0.184 0.38174 0.23613 0.0
C2991 C 0.18962 0.37297 0.22395 0.0
C2992 C 0.19017 0.35291 0.22555 0.0
C2993 C 0.18417 0.34151 0.23888 0.0
C2994 C 0.18322 0.40306 0.23498 0.0
C2995 C 0.19622 0.34294 0.21301 0.0
H2996 H 0.16359 0.38124 0.17863 0.0
H2997 H 0.23505 0.42162 0.18701 0.0
H2998 H 0.15017 0.34389 0.20657 0.0
H2999 H 0.14601 0.36521 0.21429 0.0
H3000 H 0.13799 0.35696 0.19573 0.0
H3001 H 0.25156 0.42031 0.20908 0.0
H3002 H 0.23308 0.41425 0.22446 0.0
H3003 H 0.23772 0.39299 0.21719 0.0
H3004 H 0.17298 0.37631 0.25847 0.0
H3005 H 0.1842 0.32594 0.23988 0.0
H3006 H 0.16914 0.4005 0.22766 0.0
H3007 H 0.19921 0.41643 0.2302 0.0
H3008 H 0.1806 0.40876 0.24566 0.0
H3009 H 0.18307 0.33778 0.20444 0.0
H3010 H 0.19755 0.3282 0.21627 0.0
H3011 H 0.21261 0.35551 0.20819 0.0
C3012 C 0.82674 0.62193 0.84815 0.0
C3013 C 0.80436 0.60484 0.85078 0.0
C3014 C 0.83357 0.63178 0.83434 0.0
C3015 C 0.81771 0.62454 0.82276 0.0
C3016 C 0.7953 0.60688 0.82522 0.0
C3017 C 0.78897 0.59724 0.83909 0.0
C3018 C 0.85766 0.65046 0.83227 0.0
C3019 C 0.77777 0.59855 0.81327 0.0
C3020 C 0.82863 0.66701 0.79293 0.0
C3021 C 0.83798 0.66034 0.7818 0.0
C3022 C 0.82158 0.65526 0.80609 0.0
C3023 C 0.82412 0.63639 0.80839 0.0
C3024 C 0.8331 0.62926 0.79707 0.0
C3025 C 0.83975 0.6412 0.78389 0.0
C3026 C 0.81174 0.66333 0.81765 0.0
C3027 C 0.83631 0.60939 0.79905 0.0
H3028 H 0.83881 0.62818 0.85702 0.0
H3029 H 0.77177 0.58376 0.8408 0.0
H3030 H 0.86546 0.64692 0.82285 0.0
H3031 H 0.85767 0.66617 0.82992 0.0
H3032 H 0.86841 0.65306 0.84197 0.0
H3033 H 0.76144 0.58394 0.81666 0.0
H3034 H 0.77447 0.61203 0.80986 0.0
H3035 H 0.7842 0.59385 0.80366 0.0
H3036 H 0.82701 0.68167 0.79136 0.0
H3037 H 0.84715 0.63605 0.77542 0.0
H3038 H 0.82276 0.66839 0.8274 0.0
H3039 H 0.79475 0.64966 0.82092 0.0
H3040 H 0.81003 0.6777 0.81398 0.0
H3041 H 0.84867 0.61274 0.80791 0.0
H3042 H 0.8426 0.60537 0.78906 0.0
H3043 H 0.82006 0.59459 0.80226 0.0
C3044 C 0.41006 0.21424 0.83872 0.0
C3045 C 0.3994 0.19775 0.84937 0.0
C3046 C 0.40046 0.21175 0.82484 0.0
C3047 C 0.37968 0.19228 0.82146 0.0
C3048 C 0.36898 0.17548 0.83211 0.0
C3049 C 0.37893 0.17841 0.84588 0.0
C3050 C 0.41241 0.23008 0.81384 0.0
C3051 C 0.34686 0.15443 0.82898 0.0
C3052 C 0.34123 0.19314 0.79168 0.0
C3053 C 0.34499 0.1819 0.78034 0.0
C3054 C 0.35278 0.19707 0.80495 0.0
C3055 C 0.36864 0.1897 0.807 0.0
C3056 C 0.37309 0.17899 0.79545 0.0
C3057 C 0.36123 0.17522 0.78227 0.0
C3058 C 0.34759 0.20866 0.81692 0.0
C3059 C 0.38991 0.17093 0.79715 0.0
H3060 H 0.42576 0.22933 0.84132 0.0
H3061 H 0.37075 0.16538 0.85391 0.0
H3062 H 0.41563 0.2233 0.80382 0.0
H3063 H 0.4014 0.23707 0.81082 0.0
H3064 H 0.42884 0.2438 0.81795 0.0
H3065 H 0.34094 0.14275 0.8383 0.0
H3066 H 0.33351 0.15862 0.82625 0.0
H3067 H 0.34882 0.1458 0.81947 0.0
H3068 H 0.32907 0.19877 0.79022 0.0
H3069 H 0.36416 0.1664 0.77364 0.0
H3070 H 0.36347 0.22335 0.82078 0.0
H3071 H 0.34006 0.19721 0.82626 0.0
H3072 H 0.33557 0.21424 0.8134 0.0
H3073 H 0.40652 0.18471 0.80094 0.0
H3074 H 0.39256 0.16423 0.78688 0.0
H3075 H 0.38376 0.15765 0.80548 0.0
C3076 C 0.80934 0.21181 0.84019 0.0
C3077 C 0.80596 0.19606 0.85093 0.0
C3078 C 0.81674 0.21041 0.82617 0.0
C3079 C 0.82094 0.19286 0.82273 0.0
C3080 C 0.81762 0.17697 0.83352 0.0
C3081 C 0.81026 0.17878 0.84741 0.0
C3082 C 0.82005 0.22773 0.81504 0.0
C3083 C 0.822 0.15805 0.83042 0.0
C3084 C 0.82253 0.17558 0.78358 0.0
C3085 C 0.84595 0.1849 0.78124 0.0
C3086 C 0.81413 0.17859 0.79684 0.0
C3087 C 0.82948 0.19135 0.80803 0.0
C3088 C 0.85314 0.20158 0.80546 0.0
C3089 C 0.86104 0.19823 0.79217 0.0
C3090 C 0.78879 0.16737 0.79907 0.0
C3091 C 0.87018 0.21551 0.81695 0.0
H3092 H 0.80584 0.22509 0.84267 0.0
H3093 H 0.80812 0.1667 0.85562 0.0
H3094 H 0.83793 0.23652 0.81127 0.0
H3095 H 0.80918 0.21958 0.80545 0.0
H3096 H 0.8159 0.24023 0.81934 0.0
H3097 H 0.8181 0.14675 0.83985 0.0
H3098 H 0.81155 0.14817 0.82108 0.0
H3099 H 0.84008 0.16479 0.82744 0.0
H3100 H 0.81072 0.16517 0.77527 0.0
H3101 H 0.87917 0.20584 0.7904 0.0
H3102 H 0.78399 0.17958 0.80297 0.0
H3103 H 0.7836 0.15432 0.80751 0.0
H3104 H 0.77915 0.15951 0.78899 0.0
H3105 H 0.86673 0.22866 0.82085 0.0
H3106 H 0.88794 0.22354 0.81296 0.0
H3107 H 0.86858 0.2049 0.82638 0.0
C3108 C 0.2755 0.1569 0.52752 0.0
C3109 C 0.28006 0.14589 0.51639 0.0
C3110 C 0.28571 0.16011 0.54124 0.0
C3111 C 0.30083 0.15204 0.54403 0.0
C3112 C 0.30492 0.14026 0.53303 0.0
C3113 C 0.29454 0.13735 0.51937 0.0
C3114 C 0.28079 0.17271 0.55264 0.0
C3115 C 0.32086 0.1313 0.53553 0.0
C3116 C 0.34694 0.18121 0.57262 0.0
C3117 C 0.33821 0.16661 0.58445 0.0
C3118 C 0.33485 0.17676 0.55953 0.0
C3119 C 0.31344 0.15713 0.55811 0.0
C3120 C 0.30433 0.14247 0.57008 0.0
C3121 C 0.31677 0.14743 0.58311 0.0
C3122 C 0.34511 0.19301 0.54715 0.0
C3123 C 0.28164 0.12134 0.56902 0.0
H3124 H 0.26401 0.1632 0.52547 0.0
H3125 H 0.29839 0.129 0.51086 0.0
H3126 H 0.27488 0.16278 0.56274 0.0
H3127 H 0.29659 0.18842 0.55531 0.0
H3128 H 0.26771 0.17686 0.54906 0.0
H3129 H 0.32102 0.12117 0.52628 0.0
H3130 H 0.33837 0.14534 0.53724 0.0
H3131 H 0.31593 0.1209 0.54545 0.0
H3132 H 0.36333 0.19623 0.57362 0.0
H3133 H 0.30997 0.13596 0.59215 0.0
H3134 H 0.33336 0.19892 0.5437 0.0
H3135 H 0.34763 0.18461 0.53772 0.0
H3136 H 0.36172 0.2077 0.55007 0.0
H3137 H 0.26827 0.12527 0.56581 0.0
H3138 H 0.27661 0.11199 0.57939 0.0
H3139 H 0.28229 0.11041 0.56051 0.0
C3140 C 0.87403 0.16629 0.51906 0.0
C3141 C 0.87741 0.14846 0.51541 0.0
C3142 C 0.86665 0.16817 0.53293 0.0
C3143 C 0.86237 0.15179 0.54358 0.0
C3144 C 0.86564 0.1337 0.54 0.0
C3145 C 0.87307 0.13223 0.526 0.0
C3146 C 0.86327 0.18767 0.53616 0.0
C3147 C 0.8613 0.11586 0.55098 0.0
C3148 C 0.86077 0.16862 0.58286 0.0
C3149 C 0.83742 0.16009 0.58503 0.0
C3150 C 0.86911 0.16546 0.56962 0.0
C3151 C 0.85378 0.15339 0.55825 0.0
C3152 C 0.83015 0.14397 0.56062 0.0
C3153 C 0.82231 0.14741 0.57391 0.0
C3154 C 0.89442 0.17579 0.56761 0.0
C3155 C 0.81311 0.13081 0.54893 0.0
H3156 H 0.87691 0.17875 0.51096 0.0
H3157 H 0.87584 0.11852 0.52343 0.0
H3158 H 0.84526 0.18158 0.53901 0.0
H3159 H 0.87375 0.19705 0.54563 0.0
H3160 H 0.86785 0.19928 0.52685 0.0
H3161 H 0.86483 0.10298 0.5466 0.0
H3162 H 0.87208 0.12345 0.56069 0.0
H3163 H 0.84335 0.10762 0.55458 0.0
H3164 H 0.87262 0.17852 0.59131 0.0
H3165 H 0.80421 0.14038 0.57554 0.0
H3166 H 0.90032 0.18909 0.5593 0.0
H3167 H 0.89859 0.16315 0.56364 0.0
H3168 H 0.90399 0.18313 0.57779 0.0
H3169 H 0.81545 0.14183 0.53959 0.0
H3170 H 0.79531 0.12338 0.55277 0.0
H3171 H 0.81589 0.11726 0.54496 0.0
C3172 C 0.8846 0.74219 0.52437 0.0
C3173 C 0.86606 0.73583 0.51495 0.0
C3174 C 0.88165 0.73294 0.53838 0.0
C3175 C 0.85966 0.71679 0.54317 0.0
C3176 C 0.84094 0.71026 0.53369 0.0
C3177 C 0.84435 0.71979 0.51979 0.0
C3178 C 0.9021 0.74045 0.54808 0.0
C3179 C 0.81721 0.69298 0.53817 0.0
C3180 C 0.85074 0.67448 0.57267 0.0
C3181 C 0.84418 0.68245 0.58463 0.0
C3182 C 0.85668 0.68592 0.55936 0.0
C3183 C 0.85611 0.70598 0.55782 0.0
C3184 C 0.85053 0.7147 0.57005 0.0
C3185 C 0.8447 0.70289 0.58329 0.0
C3186 C 0.86269 0.67601 0.54677 0.0
C3187 C 0.84974 0.73602 0.56897 0.0
H3188 H 0.90141 0.7547 0.52087 0.0
H3189 H 0.82991 0.71438 0.5126 0.0
H3190 H 0.89956 0.74724 0.55833 0.0
H3191 H 0.9042 0.72603 0.55097 0.0
H3192 H 0.91799 0.75339 0.54291 0.0
H3193 H 0.80437 0.69008 0.52971 0.0
H3194 H 0.81659 0.67697 0.54048 0.0
H3195 H 0.81247 0.69828 0.54827 0.0
H3196 H 0.8508 0.65891 0.57362 0.0
H3197 H 0.83958 0.70918 0.5924 0.0
H3198 H 0.87906 0.68858 0.54194 0.0
H3199 H 0.84951 0.67089 0.53822 0.0
H3200 H 0.86401 0.66124 0.54997 0.0
H3201 H 0.86571 0.74941 0.56418 0.0
H3202 H 0.84717 0.74168 0.57968 0.0
H3203 H 0.83563 0.73349 0.56169 0.0
loop_
_geom_bond_atom_site_label_1
_geom_bond_atom_site_label_2
_geom_bond_distance
_geom_bond_site_symmetry_2
_ccdc_geom_bond_type
C0 C1 1.264 . S
C0 C5 1.479 . S
C0 C10 1.465 . S
C1 C0 1.264 . S
C1 C3 1.339 . S
C1 H28 0.931 . S
C2 C3 1.395 . S
C2 C4 1.320 . S
C3 C1 1.339 . S
C3 C2 1.395 . S
C3 H29 0.929 . S
C4 C2 1.320 . S
C4 C5 1.405 . S
C4 H30 0.930 . S
C5 C0 1.479 . S
C5 C4 1.405 . S
C5 H31 0.931 . S
U6 O7 2.454 . S
U6 O8 2.458 . S
U6 C9 2.984 . S
U6 C10 2.847 . S
U6 C23 2.882 . S
U6 O24 2.441 . S
U6 O25 2.420 . S
U6 O26 2.455 . S
U6 O27 2.449 . S
O7 U6 2.454 . S
O7 C9 1.353 . S
O8 U6 2.458 . S
O8 C9 1.286 . S
C9 U6 2.984 . S
C9 O7 1.353 . S
C9 O8 1.286 . S
C9 C11 1.363 . S
C10 C0 1.465 . S
C10 U6 2.847 . S
C10 O24 1.249 . S
C10 O25 1.202 . S
C11 C9 1.363 . S
C11 C13 1.408 . S
C11 C16 1.342 . S
C12 C13 1.310 . S
C12 C15 1.461 . S
C12 H32 0.932 . S
C13 C11 1.408 . S
C13 C12 1.310 . S
C13 H33 0.930 . S
C14 C15 1.474 . S
C14 C16 1.285 . S
C14 H34 0.929 . S
C15 C12 1.461 . S
C15 C14 1.474 . S
C16 C11 1.342 . S
C16 C14 1.285 . S
C16 H35 0.930 . S
C17 C20 1.424 . S
C17 C22 1.245 . S
C17 C23 1.428 . S
C18 C21 1.260 . S
C18 C22 1.477 . S
C18 H36 0.932 . S
C19 C20 1.384 . S
C19 C21 1.479 . S
C19 H37 0.929 . S
C20 C17 1.424 . S
C20 C19 1.384 . S
C20 H38 0.928 . S
C21 C18 1.260 . S
C21 C19 1.479 . S
C22 C17 1.245 . S
C22 C18 1.477 . S
C22 H39 0.932 . S
C23 U6 2.882 . S
C23 C17 1.428 . S
C23 O26 1.301 . S
C23 O27 1.282 . S
O24 U6 2.441 . S
O24 C10 1.249 . S
O25 U6 2.420 . S
O25 C10 1.202 . S
O26 U6 2.455 . S
O26 C23 1.301 . S
O27 U6 2.449 . S
O27 C23 1.282 . S
H28 C1 0.931 . S
H29 C3 0.929 . S
H30 C4 0.930 . S
H31 C5 0.931 . S
H32 C12 0.932 . S
H33 C13 0.930 . S
H34 C14 0.929 . S
H35 C16 0.930 . S
H36 C18 0.932 . S
H37 C19 0.929 . S
H38 C20 0.928 . S
H39 C22 0.932 . S
C40 C41 1.264 . S
C40 C45 1.479 . S
C40 C50 1.465 . S
C41 C40 1.264 . S
C41 C43 1.339 . S
C41 H68 0.931 . S
C42 C43 1.395 . S
C42 C44 1.320 . S
C43 C41 1.339 . S
C43 C42 1.395 . S
C43 H69 0.929 . S
C44 C42 1.320 . S
C44 C45 1.405 . S
C44 H70 0.930 . S
C45 C40 1.479 . S
C45 C44 1.405 . S
C45 H71 0.931 . S
U46 O47 2.454 . S
U46 O48 2.458 . S
U46 C49 2.984 . S
U46 C50 2.847 . S
U46 C63 2.882 . S
U46 O64 2.441 . S
U46 O65 2.420 . S
U46 O66 2.455 . S
U46 O67 2.449 . S
O47 U46 2.454 . S
O47 C49 1.353 . S
O48 U46 2.458 . S
O48 C49 1.286 . S
C49 U46 2.984 . S
C49 O47 1.353 . S
C49 O48 1.286 . S
C49 C51 1.363 . S
C50 C40 1.465 . S
C50 U46 2.847 . S
C50 O64 1.249 . S
C50 O65 1.202 . S
C51 C49 1.363 . S
C51 C53 1.408 . S
C51 C56 1.342 . S
C52 C53 1.310 . S
C52 C55 1.461 . S
C52 H72 0.932 . S
C53 C51 1.408 . S
C53 C52 1.310 . S
C53 H73 0.930 . S
C54 C55 1.474 . S
C54 C56 1.285 . S
C54 H74 0.929 . S
C55 C52 1.461 . S
C55 C54 1.474 . S
C56 C51 1.342 . S
C56 C54 1.285 . S
C56 H75 0.930 . S
C57 C60 1.424 . S
C57 C62 1.245 . S
C57 C63 1.428 . S
C58 C61 1.260 . S
C58 C62 1.477 . S
C58 H76 0.932 . S
C59 C60 1.384 . S
C59 C61 1.479 . S
C59 H77 0.929 . S
C60 C57 1.424 . S
C60 C59 1.384 . S
C60 H78 0.928 . S
C61 C58 1.260 . S
C61 C59 1.479 . S
C62 C57 1.245 . S
C62 C58 1.477 . S
C62 H79 0.932 . S
C63 U46 2.882 . S
C63 C57 1.428 . S
C63 O66 1.301 . S
C63 O67 1.282 . S
O64 U46 2.441 . S
O64 C50 1.249 . S
O65 U46 2.420 . S
O65 C50 1.202 . S
O66 U46 2.455 . S
O66 C63 1.301 . S
O67 U46 2.449 . S
O67 C63 1.282 . S
H68 C41 0.931 . S
H69 C43 0.929 . S
H70 C44 0.930 . S
H71 C45 0.931 . S
H72 C52 0.932 . S
H73 C53 0.930 . S
H74 C54 0.929 . S
H75 C56 0.930 . S
H76 C58 0.932 . S
H77 C59 0.929 . S
H78 C60 0.928 . S
H79 C62 0.932 . S
C80 C81 1.264 . S
C80 C85 1.479 . S
C80 C90 1.465 . S
C81 C80 1.264 . S
C81 C83 1.339 . S
C81 H108 0.931 . S
C82 C83 1.395 . S
C82 C84 1.320 . S
C83 C81 1.339 . S
C83 C82 1.395 . S
C83 H109 0.929 . S
C84 C82 1.320 . S
C84 C85 1.405 . S
C84 H110 0.930 . S
C85 C80 1.479 . S
C85 C84 1.405 . S
C85 H111 0.931 . S
U86 O87 2.454 . S
U86 O88 2.458 . S
U86 C89 2.984 . S
U86 C90 2.847 . S
U86 C103 2.882 . S
U86 O104 2.441 . S
U86 O105 2.420 . S
U86 O106 2.455 . S
U86 O107 2.449 . S
O87 U86 2.454 . S
O87 C89 1.353 . S
O88 U86 2.458 . S
O88 C89 1.286 . S
C89 U86 2.984 . S
C89 O87 1.353 . S
C89 O88 1.286 . S
C89 C91 1.363 . S
C90 C80 1.465 . S
C90 U86 2.847 . S
C90 O104 1.249 . S
C90 O105 1.202 . S
C91 C89 1.363 . S
C91 C93 1.408 . S
C91 C96 1.342 . S
C92 C93 1.310 . S
C92 C95 1.461 . S
C92 H112 0.932 . S
C93 C91 1.408 . S
C93 C92 1.310 . S
C93 H113 0.930 . S
C94 C95 1.474 . S
C94 C96 1.285 . S
C94 H114 0.929 . S
C95 C92 1.461 . S
C95 C94 1.474 . S
C96 C91 1.342 . S
C96 C94 1.285 . S
C96 H115 0.930 . S
C97 C100 1.424 . S
C97 C102 1.245 . S
C97 C103 1.428 . S
C98 C101 1.260 . S
C98 C102 1.477 . S
C98 H116 0.932 . S
C99 C100 1.384 . S
C99 C101 1.479 . S
C99 H117 0.929 . S
C100 C97 1.424 . S
C100 C99 1.384 . S
C100 H118 0.928 . S
C101 C98 1.260 . S
C101 C99 1.479 . S
C102 C97 1.245 . S
C102 C98 1.477 . S
C102 H119 0.932 . S
C103 U86 2.882 . S
C103 C97 1.428 . S
C103 O106 1.301 . S
C103 O107 1.282 . S
O104 U86 2.441 . S
O104 C90 1.249 . S
O105 U86 2.420 . S
O105 C90 1.202 . S
O106 U86 2.455 . S
O106 C103 1.301 . S
O107 U86 2.449 . S
O107 C103 1.282 . S
H108 C81 0.931 . S
H109 C83 0.929 . S
H110 C84 0.930 . S
H111 C85 0.931 . S
H112 C92 0.932 . S
H113 C93 0.930 . S
H114 C94 0.929 . S
H115 C96 0.930 . S
H116 C98 0.932 . S
H117 C99 0.929 . S
H118 C100 0.928 . S
H119 C102 0.932 . S
C120 C121 1.264 . S
C120 C125 1.479 . S
C120 C130 1.465 . S
C121 C120 1.264 . S
C121 C123 1.339 . S
C121 H148 0.931 . S
C122 C123 1.395 . S
C122 C124 1.320 . S
C123 C121 1.339 . S
C123 C122 1.395 . S
C123 H149 0.929 . S
C124 C122 1.320 . S
C124 C125 1.405 . S
C124 H150 0.930 . S
C125 C120 1.479 . S
C125 C124 1.405 . S
C125 H151 0.931 . S
U126 O127 2.454 . S
U126 O128 2.458 . S
U126 C129 2.984 . S
U126 C130 2.847 . S
U126 C143 2.882 . S
U126 O144 2.441 . S
U126 O145 2.420 . S
U126 O146 2.455 . S
U126 O147 2.449 . S
O127 U126 2.454 . S
O127 C129 1.353 . S
O128 U126 2.458 . S
O128 C129 1.286 . S
C129 U126 2.984 . S
C129 O127 1.353 . S
C129 O128 1.286 . S
C129 C131 1.363 . S
C130 C120 1.465 . S
C130 U126 2.847 . S
C130 O144 1.249 . S
C130 O145 1.202 . S
C131 C129 1.363 . S
C131 C133 1.408 . S
C131 C136 1.342 . S
C132 C133 1.310 . S
C132 C135 1.461 . S
C132 H152 0.932 . S
C133 C131 1.408 . S
C133 C132 1.310 . S
C133 H153 0.930 . S
C134 C135 1.474 . S
C134 C136 1.285 . S
C134 H154 0.929 . S
C135 C132 1.461 . S
C135 C134 1.474 . S
C136 C131 1.342 . S
C136 C134 1.285 . S
C136 H155 0.930 . S
C137 C140 1.424 . S
C137 C142 1.245 . S
C137 C143 1.428 . S
C138 C141 1.260 . S
C138 C142 1.477 . S
C138 H156 0.932 . S
C139 C140 1.384 . S
C139 C141 1.479 . S
C139 H157 0.929 . S
C140 C137 1.424 . S
C140 C139 1.384 . S
C140 H158 0.928 . S
C141 C138 1.260 . S
C141 C139 1.479 . S
C142 C137 1.245 . S
C142 C138 1.477 . S
C142 H159 0.932 . S
C143 U126 2.882 . S
C143 C137 1.428 . S
C143 O146 1.301 . S
C143 O147 1.282 . S
O144 U126 2.441 . S
O144 C130 1.249 . S
O145 U126 2.420 . S
O145 C130 1.202 . S
O146 U126 2.455 . S
O146 C143 1.301 . S
O147 U126 2.449 . S
O147 C143 1.282 . S
H148 C121 0.931 . S
H149 C123 0.929 . S
H150 C124 0.930 . S
H151 C125 0.931 . S
H152 C132 0.932 . S
H153 C133 0.930 . S
H154 C134 0.929 . S
H155 C136 0.930 . S
H156 C138 0.932 . S
H157 C139 0.929 . S
H158 C140 0.928 . S
H159 C142 0.932 . S
C160 C161 1.264 . S
C160 C165 1.479 . S
C160 C170 1.465 . S
C161 C160 1.264 . S
C161 C163 1.339 . S
C161 H188 0.931 . S
C162 C163 1.395 . S
C162 C164 1.320 . S
C163 C161 1.339 . S
C163 C162 1.395 . S
C163 H189 0.929 . S
C164 C162 1.320 . S
C164 C165 1.405 . S
C164 H190 0.930 . S
C165 C160 1.479 . S
C165 C164 1.405 . S
C165 H191 0.931 . S
U166 O167 2.454 . S
U166 O168 2.458 . S
U166 C169 2.984 . S
U166 C170 2.847 . S
U166 C183 2.882 . S
U166 O184 2.441 . S
U166 O185 2.420 . S
U166 O186 2.455 . S
U166 O187 2.449 . S
O167 U166 2.454 . S
O167 C169 1.353 . S
O168 U166 2.458 . S
O168 C169 1.286 . S
C169 U166 2.984 . S
C169 O167 1.353 . S
C169 O168 1.286 . S
C169 C171 1.363 . S
C170 C160 1.465 . S
C170 U166 2.847 . S
C170 O184 1.249 . S
C170 O185 1.202 . S
C171 C169 1.363 . S
C171 C173 1.408 . S
C171 C176 1.342 . S
C172 C173 1.310 . S
C172 C175 1.461 . S
C172 H192 0.932 . S
C173 C171 1.408 . S
C173 C172 1.310 . S
C173 H193 0.930 . S
C174 C175 1.474 . S
C174 C176 1.285 . S
C174 H194 0.929 . S
C175 C172 1.461 . S
C175 C174 1.474 . S
C176 C171 1.342 . S
C176 C174 1.285 . S
C176 H195 0.930 . S
C177 C180 1.424 . S
C177 C182 1.245 . S
C177 C183 1.428 . S
C178 C181 1.260 . S
C178 C182 1.477 . S
C178 H196 0.932 . S
C179 C180 1.384 . S
C179 C181 1.479 . S
C179 H197 0.929 . S
C180 C177 1.424 . S
C180 C179 1.384 . S
C180 H198 0.928 . S
C181 C178 1.260 . S
C181 C179 1.479 . S
C182 C177 1.245 . S
C182 C178 1.477 . S
C182 H199 0.932 . S
C183 U166 2.882 . S
C183 C177 1.428 . S
C183 O186 1.301 . S
C183 O187 1.282 . S
O184 U166 2.441 . S
O184 C170 1.249 . S
O185 U166 2.420 . S
O185 C170 1.202 . S
O186 U166 2.455 . S
O186 C183 1.301 . S
O187 U166 2.449 . S
O187 C183 1.282 . S
H188 C161 0.931 . S
H189 C163 0.929 . S
H190 C164 0.930 . S
H191 C165 0.931 . S
H192 C172 0.932 . S
H193 C173 0.930 . S
H194 C174 0.929 . S
H195 C176 0.930 . S
H196 C178 0.932 . S
H197 C179 0.929 . S
H198 C180 0.928 . S
H199 C182 0.932 . S
C200 C201 1.264 . S
C200 C205 1.479 . S
C200 C210 1.465 . S
C201 C200 1.264 . S
C201 C203 1.339 . S
C201 H228 0.931 . S
C202 C203 1.395 . S
C202 C204 1.320 . S
C203 C201 1.339 . S
C203 C202 1.395 . S
C203 H229 0.929 . S
C204 C202 1.320 . S
C204 C205 1.405 . S
C204 H230 0.930 . S
C205 C200 1.479 . S
C205 C204 1.405 . S
C205 H231 0.931 . S
U206 O207 2.454 . S
U206 O208 2.458 . S
U206 C209 2.984 . S
U206 C210 2.847 . S
U206 C223 2.882 . S
U206 O224 2.441 . S
U206 O225 2.420 . S
U206 O226 2.455 . S
U206 O227 2.449 . S
O207 U206 2.454 . S
O207 C209 1.353 . S
O208 U206 2.458 . S
O208 C209 1.286 . S
C209 U206 2.984 . S
C209 O207 1.353 . S
C209 O208 1.286 . S
C209 C211 1.363 . S
C210 C200 1.465 . S
C210 U206 2.847 . S
C210 O224 1.249 . S
C210 O225 1.202 . S
C211 C209 1.363 . S
C211 C213 1.408 . S
C211 C216 1.342 . S
C212 C213 1.310 . S
C212 C215 1.461 . S
C212 H232 0.932 . S
C213 C211 1.408 . S
C213 C212 1.310 . S
C213 H233 0.930 . S
C214 C215 1.474 . S
C214 C216 1.285 . S
C214 H234 0.929 . S
C215 C212 1.461 . S
C215 C214 1.474 . S
C216 C211 1.342 . S
C216 C214 1.285 . S
C216 H235 0.930 . S
C217 C220 1.424 . S
C217 C222 1.245 . S
C217 C223 1.428 . S
C218 C221 1.260 . S
C218 C222 1.477 . S
C218 H236 0.932 . S
C219 C220 1.384 . S
C219 C221 1.479 . S
C219 H237 0.929 . S
C220 C217 1.424 . S
C220 C219 1.384 . S
C220 H238 0.928 . S
C221 C218 1.260 . S
C221 C219 1.479 . S
C222 C217 1.245 . S
C222 C218 1.477 . S
C222 H239 0.932 . S
C223 U206 2.882 . S
C223 C217 1.428 . S
C223 O226 1.301 . S
C223 O227 1.282 . S
O224 U206 2.441 . S
O224 C210 1.249 . S
O225 U206 2.420 . S
O225 C210 1.202 . S
O226 U206 2.455 . S
O226 C223 1.301 . S
O227 U206 2.449 . S
O227 C223 1.282 . S
H228 C201 0.931 . S
H229 C203 0.929 . S
H230 C204 0.930 . S
H231 C205 0.931 . S
H232 C212 0.932 . S
H233 C213 0.930 . S
H234 C214 0.929 . S
H235 C216 0.930 . S
H236 C218 0.932 . S
H237 C219 0.929 . S
H238 C220 0.928 . S
H239 C222 0.932 . S
C240 C241 1.264 . S
C240 C245 1.479 . S
C240 C250 1.465 . S
C241 C240 1.264 . S
C241 C243 1.339 . S
C241 H268 0.931 . S
C242 C243 1.395 . S
C242 C244 1.320 . S
C243 C241 1.339 . S
C243 C242 1.395 . S
C243 H269 0.929 . S
C244 C242 1.320 . S
C244 C245 1.405 . S
C244 H270 0.930 . S
C245 C240 1.479 . S
C245 C244 1.405 . S
C245 H271 0.931 . S
U246 O247 2.454 . S
U246 O248 2.458 . S
U246 C249 2.984 . S
U246 C250 2.847 . S
U246 C263 2.882 . S
U246 O264 2.441 . S
U246 O265 2.420 . S
U246 O266 2.455 . S
U246 O267 2.449 . S
O247 U246 2.454 . S
O247 C249 1.353 . S
O248 U246 2.458 . S
O248 C249 1.286 . S
C249 U246 2.984 . S
C249 O247 1.353 . S
C249 O248 1.286 . S
C249 C251 1.363 . S
C250 C240 1.465 . S
C250 U246 2.847 . S
C250 O264 1.249 . S
C250 O265 1.202 . S
C251 C249 1.363 . S
C251 C253 1.408 . S
C251 C256 1.342 . S
C252 C253 1.310 . S
C252 C255 1.461 . S
C252 H272 0.932 . S
C253 C251 1.408 . S
C253 C252 1.310 . S
C253 H273 0.930 . S
C254 C255 1.474 . S
C254 C256 1.285 . S
C254 H274 0.929 . S
C255 C252 1.461 . S
C255 C254 1.474 . S
C256 C251 1.342 . S
C256 C254 1.285 . S
C256 H275 0.930 . S
C257 C260 1.424 . S
C257 C262 1.245 . S
C257 C263 1.428 . S
C258 C261 1.260 . S
C258 C262 1.477 . S
C258 H276 0.932 . S
C259 C260 1.384 . S
C259 C261 1.479 . S
C259 H277 0.929 . S
C260 C257 1.424 . S
C260 C259 1.384 . S
C260 H278 0.928 . S
C261 C258 1.260 . S
C261 C259 1.479 . S
C262 C257 1.245 . S
C262 C258 1.477 . S
C262 H279 0.932 . S
C263 U246 2.882 . S
C263 C257 1.428 . S
C263 O266 1.301 . S
C263 O267 1.282 . S
O264 U246 2.441 . S
O264 C250 1.249 . S
O265 U246 2.420 . S
O265 C250 1.202 . S
O266 U246 2.455 . S
O266 C263 1.301 . S
O267 U246 2.449 . S
O267 C263 1.282 . S
H268 C241 0.931 . S
H269 C243 0.929 . S
H270 C244 0.930 . S
H271 C245 0.931 . S
H272 C252 0.932 . S
H273 C253 0.930 . S
H274 C254 0.929 . S
H275 C256 0.930 . S
H276 C258 0.932 . S
H277 C259 0.929 . S
H278 C260 0.928 . S
H279 C262 0.932 . S
C280 C281 1.264 . S
C280 C285 1.479 . S
C280 C290 1.465 . S
C281 C280 1.264 . S
C281 C283 1.339 . S
C281 H308 0.931 . S
C282 C283 1.395 . S
C282 C284 1.320 . S
C283 C281 1.339 . S
C283 C282 1.395 . S
C283 H309 0.929 . S
C284 C282 1.320 . S
C284 C285 1.405 . S
C284 H310 0.930 . S
C285 C280 1.479 . S
C285 C284 1.405 . S
C285 H311 0.931 . S
U286 O287 2.454 . S
U286 O288 2.458 . S
U286 C289 2.984 . S
U286 C290 2.847 . S
U286 C303 2.882 . S
U286 O304 2.441 . S
U286 O305 2.420 . S
U286 O306 2.455 . S
U286 O307 2.449 . S
O287 U286 2.454 . S
O287 C289 1.353 . S
O288 U286 2.458 . S
O288 C289 1.286 . S
C289 U286 2.984 . S
C289 O287 1.353 . S
C289 O288 1.286 . S
C289 C291 1.363 . S
C290 C280 1.465 . S
C290 U286 2.847 . S
C290 O304 1.249 . S
C290 O305 1.202 . S
C291 C289 1.363 . S
C291 C293 1.408 . S
C291 C296 1.342 . S
C292 C293 1.310 . S
C292 C295 1.461 . S
C292 H312 0.932 . S
C293 C291 1.408 . S
C293 C292 1.310 . S
C293 H313 0.930 . S
C294 C295 1.474 . S
C294 C296 1.285 . S
C294 H314 0.929 . S
C295 C292 1.461 . S
C295 C294 1.474 . S
C296 C291 1.342 . S
C296 C294 1.285 . S
C296 H315 0.930 . S
C297 C300 1.424 . S
C297 C302 1.245 . S
C297 C303 1.428 . S
C298 C301 1.260 . S
C298 C302 1.477 . S
C298 H316 0.932 . S
C299 C300 1.384 . S
C299 C301 1.479 . S
C299 H317 0.929 . S
C300 C297 1.424 . S
C300 C299 1.384 . S
C300 H318 0.928 . S
C301 C298 1.260 . S
C301 C299 1.479 . S
C302 C297 1.245 . S
C302 C298 1.477 . S
C302 H319 0.932 . S
C303 U286 2.882 . S
C303 C297 1.428 . S
C303 O306 1.301 . S
C303 O307 1.282 . S
O304 U286 2.441 . S
O304 C290 1.249 . S
O305 U286 2.420 . S
O305 C290 1.202 . S
O306 U286 2.455 . S
O306 C303 1.301 . S
O307 U286 2.449 . S
O307 C303 1.282 . S
H308 C281 0.931 . S
H309 C283 0.929 . S
H310 C284 0.930 . S
H311 C285 0.931 . S
H312 C292 0.932 . S
H313 C293 0.930 . S
H314 C294 0.929 . S
H315 C296 0.930 . S
H316 C298 0.932 . S
H317 C299 0.929 . S
H318 C300 0.928 . S
H319 C302 0.932 . S
C320 C321 1.264 . S
C320 C325 1.479 . S
C320 C330 1.465 . S
C321 C320 1.264 . S
C321 C323 1.339 . S
C321 H348 0.931 . S
C322 C323 1.395 . S
C322 C324 1.320 . S
C323 C321 1.339 . S
C323 C322 1.395 . S
C323 H349 0.929 . S
C324 C322 1.320 . S
C324 C325 1.405 . S
C324 H350 0.930 . S
C325 C320 1.479 . S
C325 C324 1.405 . S
C325 H351 0.931 . S
U326 O327 2.454 . S
U326 O328 2.458 . S
U326 C329 2.984 . S
U326 C330 2.847 . S
U326 C343 2.882 . S
U326 O344 2.441 . S
U326 O345 2.420 . S
U326 O346 2.455 . S
U326 O347 2.449 . S
O327 U326 2.454 . S
O327 C329 1.353 . S
O328 U326 2.458 . S
O328 C329 1.286 . S
C329 U326 2.984 . S
C329 O327 1.353 . S
C329 O328 1.286 . S
C329 C331 1.363 . S
C330 C320 1.465 . S
C330 U326 2.847 . S
C330 O344 1.249 . S
C330 O345 1.202 . S
C331 C329 1.363 . S
C331 C333 1.408 . S
C331 C336 1.342 . S
C332 C333 1.310 . S
C332 C335 1.461 . S
C332 H352 0.932 . S
C333 C331 1.408 . S
C333 C332 1.310 . S
C333 H353 0.930 . S
C334 C335 1.474 . S
C334 C336 1.285 . S
C334 H354 0.929 . S
C335 C332 1.461 . S
C335 C334 1.474 . S
C336 C331 1.342 . S
C336 C334 1.285 . S
C336 H355 0.930 . S
C337 C340 1.424 . S
C337 C342 1.245 . S
C337 C343 1.428 . S
C338 C341 1.260 . S
C338 C342 1.477 . S
C338 H356 0.932 . S
C339 C340 1.384 . S
C339 C341 1.479 . S
C339 H357 0.929 . S
C340 C337 1.424 . S
C340 C339 1.384 . S
C340 H358 0.928 . S
C341 C338 1.260 . S
C341 C339 1.479 . S
C342 C337 1.245 . S
C342 C338 1.477 . S
C342 H359 0.932 . S
C343 U326 2.882 . S
C343 C337 1.428 . S
C343 O346 1.301 . S
C343 O347 1.282 . S
O344 U326 2.441 . S
O344 C330 1.249 . S
O345 U326 2.420 . S
O345 C330 1.202 . S
O346 U326 2.455 . S
O346 C343 1.301 . S
O347 U326 2.449 . S
O347 C343 1.282 . S
H348 C321 0.931 . S
H349 C323 0.929 . S
H350 C324 0.930 . S
H351 C325 0.931 . S
H352 C332 0.932 . S
H353 C333 0.930 . S
H354 C334 0.929 . S
H355 C336 0.930 . S
H356 C338 0.932 . S
H357 C339 0.929 . S
H358 C340 0.928 . S
H359 C342 0.932 . S
C360 C361 1.264 . S
C360 C365 1.479 . S
C360 C370 1.465 . S
C361 C360 1.264 . S
C361 C363 1.339 . S
C361 H388 0.931 . S
C362 C363 1.395 . S
C362 C364 1.320 . S
C363 C361 1.339 . S
C363 C362 1.395 . S
C363 H389 0.929 . S
C364 C362 1.320 . S
C364 C365 1.405 . S
C364 H390 0.930 . S
C365 C360 1.479 . S
C365 C364 1.405 . S
C365 H391 0.931 . S
U366 O367 2.454 . S
U366 O368 2.458 . S
U366 C369 2.984 . S
U366 C370 2.847 . S
U366 C383 2.882 . S
U366 O384 2.441 . S
U366 O385 2.420 . S
U366 O386 2.455 . S
U366 O387 2.449 . S
O367 U366 2.454 . S
O367 C369 1.353 . S
O368 U366 2.458 . S
O368 C369 1.286 . S
C369 U366 2.984 . S
C369 O367 1.353 . S
C369 O368 1.286 . S
C369 C371 1.363 . S
C370 C360 1.465 . S
C370 U366 2.847 . S
C370 O384 1.249 . S
C370 O385 1.202 . S
C371 C369 1.363 . S
C371 C373 1.408 . S
C371 C376 1.342 . S
C372 C373 1.310 . S
C372 C375 1.461 . S
C372 H392 0.932 . S
C373 C371 1.408 . S
C373 C372 1.310 . S
C373 H393 0.930 . S
C374 C375 1.474 . S
C374 C376 1.285 . S
C374 H394 0.929 . S
C375 C372 1.461 . S
C375 C374 1.474 . S
C376 C371 1.342 . S
C376 C374 1.285 . S
C376 H395 0.930 . S
C377 C380 1.424 . S
C377 C382 1.245 . S
C377 C383 1.428 . S
C378 C381 1.260 . S
C378 C382 1.477 . S
C378 H396 0.932 . S
C379 C380 1.384 . S
C379 C381 1.479 . S
C379 H397 0.929 . S
C380 C377 1.424 . S
C380 C379 1.384 . S
C380 H398 0.928 . S
C381 C378 1.260 . S
C381 C379 1.479 . S
C382 C377 1.245 . S
C382 C378 1.477 . S
C382 H399 0.932 . S
C383 U366 2.882 . S
C383 C377 1.428 . S
C383 O386 1.301 . S
C383 O387 1.282 . S
O384 U366 2.441 . S
O384 C370 1.249 . S
O385 U366 2.420 . S
O385 C370 1.202 . S
O386 U366 2.455 . S
O386 C383 1.301 . S
O387 U366 2.449 . S
O387 C383 1.282 . S
H388 C361 0.931 . S
H389 C363 0.929 . S
H390 C364 0.930 . S
H391 C365 0.931 . S
H392 C372 0.932 . S
H393 C373 0.930 . S
H394 C374 0.929 . S
H395 C376 0.930 . S
H396 C378 0.932 . S
H397 C379 0.929 . S
H398 C380 0.928 . S
H399 C382 0.932 . S
C400 C401 1.264 . S
C400 C405 1.479 . S
C400 C410 1.465 . S
C401 C400 1.264 . S
C401 C403 1.339 . S
C401 H428 0.931 . S
C402 C403 1.395 . S
C402 C404 1.320 . S
C403 C401 1.339 . S
C403 C402 1.395 . S
C403 H429 0.929 . S
C404 C402 1.320 . S
C404 C405 1.405 . S
C404 H430 0.930 . S
C405 C400 1.479 . S
C405 C404 1.405 . S
C405 H431 0.931 . S
U406 O407 2.454 . S
U406 O408 2.458 . S
U406 C409 2.984 . S
U406 C410 2.847 . S
U406 C423 2.882 . S
U406 O424 2.441 . S
U406 O425 2.420 . S
U406 O426 2.455 . S
U406 O427 2.449 . S
O407 U406 2.454 . S
O407 C409 1.353 . S
O408 U406 2.458 . S
O408 C409 1.286 . S
C409 U406 2.984 . S
C409 O407 1.353 . S
C409 O408 1.286 . S
C409 C411 1.363 . S
C410 C400 1.465 . S
C410 U406 2.847 . S
C410 O424 1.249 . S
C410 O425 1.202 . S
C411 C409 1.363 . S
C411 C413 1.408 . S
C411 C416 1.342 . S
C412 C413 1.310 . S
C412 C415 1.461 . S
C412 H432 0.932 . S
C413 C411 1.408 . S
C413 C412 1.310 . S
C413 H433 0.930 . S
C414 C415 1.474 . S
C414 C416 1.285 . S
C414 H434 0.929 . S
C415 C412 1.461 . S
C415 C414 1.474 . S
C416 C411 1.342 . S
C416 C414 1.285 . S
C416 H435 0.930 . S
C417 C420 1.424 . S
C417 C422 1.245 . S
C417 C423 1.428 . S
C418 C421 1.260 . S
C418 C422 1.477 . S
C418 H436 0.932 . S
C419 C420 1.384 . S
C419 C421 1.479 . S
C419 H437 0.929 . S
C420 C417 1.424 . S
C420 C419 1.384 . S
C420 H438 0.928 . S
C421 C418 1.260 . S
C421 C419 1.479 . S
C422 C417 1.245 . S
C422 C418 1.477 . S
C422 H439 0.932 . S
C423 U406 2.882 . S
C423 C417 1.428 . S
C423 O426 1.301 . S
C423 O427 1.282 . S
O424 U406 2.441 . S
O424 C410 1.249 . S
O425 U406 2.420 . S
O425 C410 1.202 . S
O426 U406 2.455 . S
O426 C423 1.301 . S
O427 U406 2.449 . S
O427 C423 1.282 . S
H428 C401 0.931 . S
H429 C403 0.929 . S
H430 C404 0.930 . S
H431 C405 0.931 . S
H432 C412 0.932 . S
H433 C413 0.930 . S
H434 C414 0.929 . S
H435 C416 0.930 . S
H436 C418 0.932 . S
H437 C419 0.929 . S
H438 C420 0.928 . S
H439 C422 0.932 . S
C440 C441 1.264 . S
C440 C445 1.479 . S
C440 C450 1.465 . S
C441 C440 1.264 . S
C441 C443 1.339 . S
C441 H468 0.931 . S
C442 C443 1.395 . S
C442 C444 1.320 . S
C443 C441 1.339 . S
C443 C442 1.395 . S
C443 H469 0.929 . S
C444 C442 1.320 . S
C444 C445 1.405 . S
C444 H470 0.930 . S
C445 C440 1.479 . S
C445 C444 1.405 . S
C445 H471 0.931 . S
U446 O447 2.454 . S
U446 O448 2.458 . S
U446 C449 2.984 . S
U446 C450 2.847 . S
U446 C463 2.882 . S
U446 O464 2.441 . S
U446 O465 2.420 . S
U446 O466 2.455 . S
U446 O467 2.449 . S
O447 U446 2.454 . S
O447 C449 1.353 . S
O448 U446 2.458 . S
O448 C449 1.286 . S
C449 U446 2.984 . S
C449 O447 1.353 . S
C449 O448 1.286 . S
C449 C451 1.363 . S
C450 C440 1.465 . S
C450 U446 2.847 . S
C450 O464 1.249 . S
C450 O465 1.202 . S
C451 C449 1.363 . S
C451 C453 1.408 . S
C451 C456 1.342 . S
C452 C453 1.310 . S
C452 C455 1.461 . S
C452 H472 0.932 . S
C453 C451 1.408 . S
C453 C452 1.310 . S
C453 H473 0.930 . S
C454 C455 1.474 . S
C454 C456 1.285 . S
C454 H474 0.929 . S
C455 C452 1.461 . S
C455 C454 1.474 . S
C456 C451 1.342 . S
C456 C454 1.285 . S
C456 H475 0.930 . S
C457 C460 1.424 . S
C457 C462 1.245 . S
C457 C463 1.428 . S
C458 C461 1.260 . S
C458 C462 1.477 . S
C458 H476 0.932 . S
C459 C460 1.384 . S
C459 C461 1.479 . S
C459 H477 0.929 . S
C460 C457 1.424 . S
C460 C459 1.384 . S
C460 H478 0.928 . S
C461 C458 1.260 . S
C461 C459 1.479 . S
C462 C457 1.245 . S
C462 C458 1.477 . S
C462 H479 0.932 . S
C463 U446 2.882 . S
C463 C457 1.428 . S
C463 O466 1.301 . S
C463 O467 1.282 . S
O464 U446 2.441 . S
O464 C450 1.249 . S
O465 U446 2.420 . S
O465 C450 1.202 . S
O466 U446 2.455 . S
O466 C463 1.301 . S
O467 U446 2.449 . S
O467 C463 1.282 . S
H468 C441 0.931 . S
H469 C443 0.929 . S
H470 C444 0.930 . S
H471 C445 0.931 . S
H472 C452 0.932 . S
H473 C453 0.930 . S
H474 C454 0.929 . S
H475 C456 0.930 . S
H476 C458 0.932 . S
H477 C459 0.929 . S
H478 C460 0.928 . S
H479 C462 0.932 . S
C480 C481 1.264 . S
C480 C485 1.479 . S
C480 C490 1.465 . S
C481 C480 1.264 . S
C481 C483 1.339 . S
C481 H508 0.931 . S
C482 C483 1.395 . S
C482 C484 1.320 . S
C483 C481 1.339 . S
C483 C482 1.395 . S
C483 H509 0.929 . S
C484 C482 1.320 . S
C484 C485 1.405 . S
C484 H510 0.930 . S
C485 C480 1.479 . S
C485 C484 1.405 . S
C485 H511 0.931 . S
U486 O487 2.454 . S
U486 O488 2.458 . S
U486 C489 2.984 . S
U486 C490 2.847 . S
U486 C503 2.882 . S
U486 O504 2.441 . S
U486 O505 2.420 . S
U486 O506 2.455 . S
U486 O507 2.449 . S
O487 U486 2.454 . S
O487 C489 1.353 . S
O488 U486 2.458 . S
O488 C489 1.286 . S
C489 U486 2.984 . S
C489 O487 1.353 . S
C489 O488 1.286 . S
C489 C491 1.363 . S
C490 C480 1.465 . S
C490 U486 2.847 . S
C490 O504 1.249 . S
C490 O505 1.202 . S
C491 C489 1.363 . S
C491 C493 1.408 . S
C491 C496 1.342 . S
C492 C493 1.310 . S
C492 C495 1.461 . S
C492 H512 0.932 . S
C493 C491 1.408 . S
C493 C492 1.310 . S
C493 H513 0.930 . S
C494 C495 1.474 . S
C494 C496 1.285 . S
C494 H514 0.929 . S
C495 C492 1.461 . S
C495 C494 1.474 . S
C496 C491 1.342 . S
C496 C494 1.285 . S
C496 H515 0.930 . S
C497 C500 1.424 . S
C497 C502 1.245 . S
C497 C503 1.428 . S
C498 C501 1.260 . S
C498 C502 1.477 . S
C498 H516 0.932 . S
C499 C500 1.384 . S
C499 C501 1.479 . S
C499 H517 0.929 . S
C500 C497 1.424 . S
C500 C499 1.384 . S
C500 H518 0.928 . S
C501 C498 1.260 . S
C501 C499 1.479 . S
C502 C497 1.245 . S
C502 C498 1.477 . S
C502 H519 0.932 . S
C503 U486 2.882 . S
C503 C497 1.428 . S
C503 O506 1.301 . S
C503 O507 1.282 . S
O504 U486 2.441 . S
O504 C490 1.249 . S
O505 U486 2.420 . S
O505 C490 1.202 . S
O506 U486 2.455 . S
O506 C503 1.301 . S
O507 U486 2.449 . S
O507 C503 1.282 . S
H508 C481 0.931 . S
H509 C483 0.929 . S
H510 C484 0.930 . S
H511 C485 0.931 . S
H512 C492 0.932 . S
H513 C493 0.930 . S
H514 C494 0.929 . S
H515 C496 0.930 . S
H516 C498 0.932 . S
H517 C499 0.929 . S
H518 C500 0.928 . S
H519 C502 0.932 . S
C520 C521 1.264 . S
C520 C525 1.479 . S
C520 C530 1.465 . S
C521 C520 1.264 . S
C521 C523 1.339 . S
C521 H548 0.931 . S
C522 C523 1.395 . S
C522 C524 1.320 . S
C523 C521 1.339 . S
C523 C522 1.395 . S
C523 H549 0.929 . S
C524 C522 1.320 . S
C524 C525 1.405 . S
C524 H550 0.930 . S
C525 C520 1.479 . S
C525 C524 1.405 . S
C525 H551 0.931 . S
U526 O527 2.454 . S
U526 O528 2.458 . S
U526 C529 2.984 . S
U526 C530 2.847 . S
U526 C543 2.882 . S
U526 O544 2.441 . S
U526 O545 2.420 . S
U526 O546 2.455 . S
U526 O547 2.449 . S
O527 U526 2.454 . S
O527 C529 1.353 . S
O528 U526 2.458 . S
O528 C529 1.286 . S
C529 U526 2.984 . S
C529 O527 1.353 . S
C529 O528 1.286 . S
C529 C531 1.363 . S
C530 C520 1.465 . S
C530 U526 2.847 . S
C530 O544 1.249 . S
C530 O545 1.202 . S
C531 C529 1.363 . S
C531 C533 1.408 . S
C531 C536 1.342 . S
C532 C533 1.310 . S
C532 C535 1.461 . S
C532 H552 0.932 . S
C533 C531 1.408 . S
C533 C532 1.310 . S
C533 H553 0.930 . S
C534 C535 1.474 . S
C534 C536 1.285 . S
C534 H554 0.929 . S
C535 C532 1.461 . S
C535 C534 1.474 . S
C536 C531 1.342 . S
C536 C534 1.285 . S
C536 H555 0.930 . S
C537 C540 1.424 . S
C537 C542 1.245 . S
C537 C543 1.428 . S
C538 C541 1.260 . S
C538 C542 1.477 . S
C538 H556 0.932 . S
C539 C540 1.384 . S
C539 C541 1.479 . S
C539 H557 0.929 . S
C540 C537 1.424 . S
C540 C539 1.384 . S
C540 H558 0.928 . S
C541 C538 1.260 . S
C541 C539 1.479 . S
C542 C537 1.245 . S
C542 C538 1.477 . S
C542 H559 0.932 . S
C543 U526 2.882 . S
C543 C537 1.428 . S
C543 O546 1.301 . S
C543 O547 1.282 . S
O544 U526 2.441 . S
O544 C530 1.249 . S
O545 U526 2.420 . S
O545 C530 1.202 . S
O546 U526 2.455 . S
O546 C543 1.301 . S
O547 U526 2.449 . S
O547 C543 1.282 . S
H548 C521 0.931 . S
H549 C523 0.929 . S
H550 C524 0.930 . S
H551 C525 0.931 . S
H552 C532 0.932 . S
H553 C533 0.930 . S
H554 C534 0.929 . S
H555 C536 0.930 . S
H556 C538 0.932 . S
H557 C539 0.929 . S
H558 C540 0.928 . S
H559 C542 0.932 . S
C560 C561 1.264 . S
C560 C565 1.479 . S
C560 C570 1.465 . S
C561 C560 1.264 . S
C561 C563 1.339 . S
C561 H588 0.931 . S
C562 C563 1.395 . S
C562 C564 1.320 . S
C563 C561 1.339 . S
C563 C562 1.395 . S
C563 H589 0.929 . S
C564 C562 1.320 . S
C564 C565 1.405 . S
C564 H590 0.930 . S
C565 C560 1.479 . S
C565 C564 1.405 . S
C565 H591 0.931 . S
U566 O567 2.454 . S
U566 O568 2.458 . S
U566 C569 2.984 . S
U566 C570 2.847 . S
U566 C583 2.882 . S
U566 O584 2.441 . S
U566 O585 2.420 . S
U566 O586 2.455 . S
U566 O587 2.449 . S
O567 U566 2.454 . S
O567 C569 1.353 . S
O568 U566 2.458 . S
O568 C569 1.286 . S
C569 U566 2.984 . S
C569 O567 1.353 . S
C569 O568 1.286 . S
C569 C571 1.363 . S
C570 C560 1.465 . S
C570 U566 2.847 . S
C570 O584 1.249 . S
C570 O585 1.202 . S
C571 C569 1.363 . S
C571 C573 1.408 . S
C571 C576 1.342 . S
C572 C573 1.310 . S
C572 C575 1.461 . S
C572 H592 0.932 . S
C573 C571 1.408 . S
C573 C572 1.310 . S
C573 H593 0.930 . S
C574 C575 1.474 . S
C574 C576 1.285 . S
C574 H594 0.929 . S
C575 C572 1.461 . S
C575 C574 1.474 . S
C576 C571 1.342 . S
C576 C574 1.285 . S
C576 H595 0.930 . S
C577 C580 1.424 . S
C577 C582 1.245 . S
C577 C583 1.428 . S
C578 C581 1.260 . S
C578 C582 1.477 . S
C578 H596 0.932 . S
C579 C580 1.384 . S
C579 C581 1.479 . S
C579 H597 0.929 . S
C580 C577 1.424 . S
C580 C579 1.384 . S
C580 H598 0.928 . S
C581 C578 1.260 . S
C581 C579 1.479 . S
C582 C577 1.245 . S
C582 C578 1.477 . S
C582 H599 0.932 . S
C583 U566 2.882 . S
C583 C577 1.428 . S
C583 O586 1.301 . S
C583 O587 1.282 . S
O584 U566 2.441 . S
O584 C570 1.249 . S
O585 U566 2.420 . S
O585 C570 1.202 . S
O586 U566 2.455 . S
O586 C583 1.301 . S
O587 U566 2.449 . S
O587 C583 1.282 . S
H588 C561 0.931 . S
H589 C563 0.929 . S
H590 C564 0.930 . S
H591 C565 0.931 . S
H592 C572 0.932 . S
H593 C573 0.930 . S
H594 C574 0.929 . S
H595 C576 0.930 . S
H596 C578 0.932 . S
H597 C579 0.929 . S
H598 C580 0.928 . S
H599 C582 0.932 . S
C600 C601 1.264 . S
C600 C605 1.479 . S
C600 C610 1.465 . S
C601 C600 1.264 . S
C601 C603 1.339 . S
C601 H628 0.931 . S
C602 C603 1.395 . S
C602 C604 1.320 . S
C603 C601 1.339 . S
C603 C602 1.395 . S
C603 H629 0.929 . S
C604 C602 1.320 . S
C604 C605 1.405 . S
C604 H630 0.930 . S
C605 C600 1.479 . S
C605 C604 1.405 . S
C605 H631 0.931 . S
U606 O607 2.454 . S
U606 O608 2.458 . S
U606 C609 2.984 . S
U606 C610 2.847 . S
U606 C623 2.882 . S
U606 O624 2.441 . S
U606 O625 2.420 . S
U606 O626 2.455 . S
U606 O627 2.449 . S
O607 U606 2.454 . S
O607 C609 1.353 . S
O608 U606 2.458 . S
O608 C609 1.286 . S
C609 U606 2.984 . S
C609 O607 1.353 . S
C609 O608 1.286 . S
C609 C611 1.363 . S
C610 C600 1.465 . S
C610 U606 2.847 . S
C610 O624 1.249 . S
C610 O625 1.202 . S
C611 C609 1.363 . S
C611 C613 1.408 . S
C611 C616 1.342 . S
C612 C613 1.310 . S
C612 C615 1.461 . S
C612 H632 0.932 . S
C613 C611 1.408 . S
C613 C612 1.310 . S
C613 H633 0.930 . S
C614 C615 1.474 . S
C614 C616 1.285 . S
C614 H634 0.929 . S
C615 C612 1.461 . S
C615 C614 1.474 . S
C616 C611 1.342 . S
C616 C614 1.285 . S
C616 H635 0.930 . S
C617 C620 1.424 . S
C617 C622 1.245 . S
C617 C623 1.428 . S
C618 C621 1.260 . S
C618 C622 1.477 . S
C618 H636 0.932 . S
C619 C620 1.384 . S
C619 C621 1.479 . S
C619 H637 0.929 . S
C620 C617 1.424 . S
C620 C619 1.384 . S
C620 H638 0.928 . S
C621 C618 1.260 . S
C621 C619 1.479 . S
C622 C617 1.245 . S
C622 C618 1.477 . S
C622 H639 0.932 . S
C623 U606 2.882 . S
C623 C617 1.428 . S
C623 O626 1.301 . S
C623 O627 1.282 . S
O624 U606 2.441 . S
O624 C610 1.249 . S
O625 U606 2.420 . S
O625 C610 1.202 . S
O626 U606 2.455 . S
O626 C623 1.301 . S
O627 U606 2.449 . S
O627 C623 1.282 . S
H628 C601 0.931 . S
H629 C603 0.929 . S
H630 C604 0.930 . S
H631 C605 0.931 . S
H632 C612 0.932 . S
H633 C613 0.930 . S
H634 C614 0.929 . S
H635 C616 0.930 . S
H636 C618 0.932 . S
H637 C619 0.929 . S
H638 C620 0.928 . S
H639 C622 0.932 . S
C640 C641 1.264 . S
C640 C645 1.479 . S
C640 C650 1.465 . S
C641 C640 1.264 . S
C641 C643 1.339 . S
C641 H668 0.931 . S
C642 C643 1.395 . S
C642 C644 1.320 . S
C643 C641 1.339 . S
C643 C642 1.395 . S
C643 H669 0.929 . S
C644 C642 1.320 . S
C644 C645 1.405 . S
C644 H670 0.930 . S
C645 C640 1.479 . S
C645 C644 1.405 . S
C645 H671 0.931 . S
U646 O647 2.454 . S
U646 O648 2.458 . S
U646 C649 2.984 . S
U646 C650 2.847 . S
U646 C663 2.882 . S
U646 O664 2.441 . S
U646 O665 2.420 . S
U646 O666 2.455 . S
U646 O667 2.449 . S
O647 U646 2.454 . S
O647 C649 1.353 . S
O648 U646 2.458 . S
O648 C649 1.286 . S
C649 U646 2.984 . S
C649 O647 1.353 . S
C649 O648 1.286 . S
C649 C651 1.363 . S
C650 C640 1.465 . S
C650 U646 2.847 . S
C650 O664 1.249 . S
C650 O665 1.202 . S
C651 C649 1.363 . S
C651 C653 1.408 . S
C651 C656 1.342 . S
C652 C653 1.310 . S
C652 C655 1.461 . S
C652 H672 0.932 . S
C653 C651 1.408 . S
C653 C652 1.310 . S
C653 H673 0.930 . S
C654 C655 1.474 . S
C654 C656 1.285 . S
C654 H674 0.929 . S
C655 C652 1.461 . S
C655 C654 1.474 . S
C656 C651 1.342 . S
C656 C654 1.285 . S
C656 H675 0.930 . S
C657 C660 1.424 . S
C657 C662 1.245 . S
C657 C663 1.428 . S
C658 C661 1.260 . S
C658 C662 1.477 . S
C658 H676 0.932 . S
C659 C660 1.384 . S
C659 C661 1.479 . S
C659 H677 0.929 . S
C660 C657 1.424 . S
C660 C659 1.384 . S
C660 H678 0.928 . S
C661 C658 1.260 . S
C661 C659 1.479 . S
C662 C657 1.245 . S
C662 C658 1.477 . S
C662 H679 0.932 . S
C663 U646 2.882 . S
C663 C657 1.428 . S
C663 O666 1.301 . S
C663 O667 1.282 . S
O664 U646 2.441 . S
O664 C650 1.249 . S
O665 U646 2.420 . S
O665 C650 1.202 . S
O666 U646 2.455 . S
O666 C663 1.301 . S
O667 U646 2.449 . S
O667 C663 1.282 . S
H668 C641 0.931 . S
H669 C643 0.929 . S
H670 C644 0.930 . S
H671 C645 0.931 . S
H672 C652 0.932 . S
H673 C653 0.930 . S
H674 C654 0.929 . S
H675 C656 0.930 . S
H676 C658 0.932 . S
H677 C659 0.929 . S
H678 C660 0.928 . S
H679 C662 0.932 . S
C680 C681 1.264 . S
C680 C685 1.479 . S
C680 C690 1.465 . S
C681 C680 1.264 . S
C681 C683 1.339 . S
C681 H708 0.931 . S
C682 C683 1.395 . S
C682 C684 1.320 . S
C683 C681 1.339 . S
C683 C682 1.395 . S
C683 H709 0.929 . S
C684 C682 1.320 . S
C684 C685 1.405 . S
C684 H710 0.930 . S
C685 C680 1.479 . S
C685 C684 1.405 . S
C685 H711 0.931 . S
U686 O687 2.454 . S
U686 O688 2.458 . S
U686 C689 2.984 . S
U686 C690 2.847 . S
U686 C703 2.882 . S
U686 O704 2.441 . S
U686 O705 2.420 . S
U686 O706 2.455 . S
U686 O707 2.449 . S
O687 U686 2.454 . S
O687 C689 1.353 . S
O688 U686 2.458 . S
O688 C689 1.286 . S
C689 U686 2.984 . S
C689 O687 1.353 . S
C689 O688 1.286 . S
C689 C691 1.363 . S
C690 C680 1.465 . S
C690 U686 2.847 . S
C690 O704 1.249 . S
C690 O705 1.202 . S
C691 C689 1.363 . S
C691 C693 1.408 . S
C691 C696 1.342 . S
C692 C693 1.310 . S
C692 C695 1.461 . S
C692 H712 0.932 . S
C693 C691 1.408 . S
C693 C692 1.310 . S
C693 H713 0.930 . S
C694 C695 1.474 . S
C694 C696 1.285 . S
C694 H714 0.929 . S
C695 C692 1.461 . S
C695 C694 1.474 . S
C696 C691 1.342 . S
C696 C694 1.285 . S
C696 H715 0.930 . S
C697 C700 1.424 . S
C697 C702 1.245 . S
C697 C703 1.428 . S
C698 C701 1.260 . S
C698 C702 1.477 . S
C698 H716 0.932 . S
C699 C700 1.384 . S
C699 C701 1.479 . S
C699 H717 0.929 . S
C700 C697 1.424 . S
C700 C699 1.384 . S
C700 H718 0.928 . S
C701 C698 1.260 . S
C701 C699 1.479 . S
C702 C697 1.245 . S
C702 C698 1.477 . S
C702 H719 0.932 . S
C703 U686 2.882 . S
C703 C697 1.428 . S
C703 O706 1.301 . S
C703 O707 1.282 . S
O704 U686 2.441 . S
O704 C690 1.249 . S
O705 U686 2.420 . S
O705 C690 1.202 . S
O706 U686 2.455 . S
O706 C703 1.301 . S
O707 U686 2.449 . S
O707 C703 1.282 . S
H708 C681 0.931 . S
H709 C683 0.929 . S
H710 C684 0.930 . S
H711 C685 0.931 . S
H712 C692 0.932 . S
H713 C693 0.930 . S
H714 C694 0.929 . S
H715 C696 0.930 . S
H716 C698 0.932 . S
H717 C699 0.929 . S
H718 C700 0.928 . S
H719 C702 0.932 . S
Tb720 N751 2.660 . S
Tb720 N758 2.600 . S
Tb720 O764 2.546 . S
Tb720 O765 2.618 1_565 S
Tb720 O767 2.320 1_565 S
Tb720 O768 2.552 1_565 S
Tb720 O769 2.413 . S
Tb720 O771 2.362 1_556 S
Tb720 O772 2.421 . S
Tb720 C784 2.833 . S
C721 C724 1.432 . S
C721 C725 1.414 . S
C721 N728 1.359 . S
C722 C724 1.417 . S
C722 C726 1.432 . S
C722 C734 1.410 . S
C723 C725 1.444 . S
C723 C726 1.317 . S
C723 H746 0.929 . S
C724 C721 1.432 . S
C724 C722 1.417 . S
C724 N732 1.360 . S
C725 C721 1.414 . S
C725 C723 1.444 . S
C725 C730 1.385 . S
C726 C722 1.432 . S
C726 C723 1.317 . S
C726 H738 0.930 . S
C727 C729 1.392 . S
C727 C730 1.370 . S
C727 H739 0.931 . S
N728 C721 1.359 . S
N728 C729 1.327 . S
N728 Tb731 2.600 . S
C729 C727 1.392 . S
C729 N728 1.327 . S
C729 H736 0.930 . S
C730 C725 1.385 . S
C730 C727 1.370 . S
C730 H749 0.930 . S
Tb731 N728 2.600 . S
Tb731 N732 2.660 . S
Tb731 O765 2.348 1_554 S
Tb731 O766 2.421 . S
Tb731 O770 2.546 . S
Tb731 O771 2.610 1_545 S
Tb731 O773 2.320 1_545 S
Tb731 O774 2.552 1_545 S
Tb731 O775 2.413 . S
Tb731 C795 2.833 . S
N732 C724 1.360 . S
N732 Tb731 2.660 . S
N732 C733 1.305 . S
C733 N732 1.305 . S
C733 C735 1.407 . S
C733 H740 0.930 . S
C734 C722 1.410 . S
C734 C735 1.345 . S
C734 H742 0.930 . S
C735 C733 1.407 . S
C735 C734 1.345 . S
C735 H737 0.930 . S
H736 C729 0.930 . S
H737 C735 0.930 . S
H738 C726 0.930 . S
H739 C727 0.931 . S
H740 C733 0.930 . S
H741 C755 0.930 . S
H742 C734 0.930 . S
H743 C761 0.930 . S
H744 C752 0.930 . S
H745 C759 0.931 . S
H746 C723 0.929 . S
H747 C753 0.930 . S
H748 C786 0.930 . S
H749 C730 0.930 . S
H750 C785 0.929 . S
N751 Tb720 2.660 . S
N751 C752 1.305 . S
N751 C756 1.360 . S
C752 H744 0.930 . S
C752 N751 1.305 . S
C752 C755 1.407 . S
C753 H747 0.930 . S
C753 C754 1.410 . S
C753 C755 1.345 . S
C754 C753 1.410 . S
C754 C756 1.417 . S
C754 C786 1.432 . S
C755 H741 0.930 . S
C755 C752 1.407 . S
C755 C753 1.345 . S
C756 N751 1.360 . S
C756 C754 1.417 . S
C756 C760 1.432 . S
H757 C762 0.930 . S
N758 Tb720 2.600 . S
N758 C760 1.359 . S
N758 C761 1.327 . S
C759 H745 0.931 . S
C759 C761 1.392 . S
C759 C762 1.370 . S
C760 C756 1.432 . S
C760 N758 1.359 . S
C760 C763 1.414 . S
C761 H743 0.930 . S
C761 N758 1.327 . S
C761 C759 1.392 . S
C762 H757 0.930 . S
C762 C759 1.370 . S
C762 C763 1.385 . S
C763 C760 1.414 . S
C763 C762 1.385 . S
C763 C785 1.444 . S
O764 Tb720 2.546 . S
O764 C784 1.251 . S
O765 Tb720 2.618 1_545 S
O765 Tb731 2.348 1_556 S
O765 C776 1.294 . S
O766 Tb731 2.421 . S
O766 C783 1.262 1_554 S
O767 Tb720 2.320 1_545 S
O767 C783 1.260 . S
O768 Tb720 2.552 1_545 S
O768 C776 1.243 . S
O769 Tb720 2.413 . S
O769 C784 1.256 . S
O770 Tb731 2.546 . S
O770 C795 1.251 . S
O771 Tb720 2.362 1_554 S
O771 Tb731 2.610 1_565 S
O771 C787 1.283 . S
O772 Tb720 2.421 . S
O772 C794 1.262 1_556 S
O773 Tb731 2.320 1_565 S
O773 C794 1.260 . S
O774 Tb731 2.552 1_565 S
O774 C787 1.243 . S
O775 Tb731 2.413 . S
O775 C795 1.256 . S
C776 O765 1.294 . S
C776 O768 1.243 . S
C777 C779 1.382 1_565 S
C777 C781 1.393 . S
C777 C784 1.500 . S
C778 C779 1.400 . S
C778 C780 1.384 1_545 S
C779 C777 1.382 1_545 S
C779 C778 1.400 . S
C779 H796 0.930 . S
C780 C778 1.384 1_565 S
C780 C782 1.392 . S
C780 H797 0.933 . S
C781 C777 1.393 . S
C781 C782 1.401 . S
C781 H798 0.930 . S
C782 C780 1.392 . S
C782 C781 1.401 . S
C782 H799 0.930 . S
C783 O766 1.262 1_556 S
C783 O767 1.260 . S
C784 Tb720 2.833 . S
C784 O764 1.251 . S
C784 O769 1.256 . S
C784 C777 1.500 . S
C785 H750 0.929 . S
C785 C763 1.444 . S
C785 C786 1.317 . S
C786 H748 0.930 . S
C786 C754 1.432 . S
C786 C785 1.317 . S
C787 O771 1.283 . S
C787 O774 1.243 . S
C788 C789 1.382 1_545 S
C788 C792 1.393 . S
C788 C795 1.500 . S
C789 C788 1.382 1_565 S
C789 C790 1.400 . S
C789 H800 0.930 . S
C790 C789 1.400 . S
C790 C791 1.384 1_565 S
C791 C790 1.384 1_545 S
C791 C793 1.392 . S
C791 H801 0.931 . S
C792 C788 1.393 . S
C792 C793 1.401 . S
C792 H802 0.930 . S
C793 C791 1.392 . S
C793 C792 1.401 . S
C793 H803 0.930 . S
C794 O772 1.262 1_554 S
C794 O773 1.260 . S
C795 Tb731 2.833 . S
C795 O770 1.251 . S
C795 O775 1.256 . S
C795 C788 1.500 . S
H796 C779 0.930 . S
H797 C780 0.933 . S
H798 C781 0.930 . S
H799 C782 0.930 . S
H800 C789 0.930 . S
H801 C791 0.931 . S
H802 C792 0.930 . S
H803 C793 0.930 . S
Tb804 N835 2.660 . S
Tb804 N842 2.600 . S
Tb804 O848 2.546 . S
Tb804 O849 2.626 1_455 S
Tb804 O851 2.320 1_455 S
Tb804 O852 2.552 1_455 S
Tb804 O853 2.413 . S
Tb804 O855 2.362 1_556 S
Tb804 O856 2.462 . S
Tb804 C868 2.833 . S
C805 C808 1.432 . S
C805 C809 1.414 . S
C805 N812 1.359 . S
C806 C808 1.417 . S
C806 C810 1.432 . S
C806 C818 1.410 . S
C807 C809 1.444 . S
C807 C810 1.317 . S
C807 H830 0.929 . S
C808 C805 1.432 . S
C808 C806 1.417 . S
C808 N816 1.360 . S
C809 C805 1.414 . S
C809 C807 1.444 . S
C809 C814 1.385 . S
C810 C806 1.432 . S
C810 C807 1.317 . S
C810 H822 0.930 . S
C811 C813 1.392 . S
C811 C814 1.370 . S
C811 H823 0.931 . S
N812 C805 1.359 . S
N812 C813 1.327 . S
N812 Tb815 2.600 . S
C813 C811 1.392 . S
C813 N812 1.327 . S
C813 H820 0.930 . S
C814 C809 1.385 . S
C814 C811 1.370 . S
C814 H833 0.930 . S
Tb815 N812 2.600 . S
Tb815 N816 2.660 . S
Tb815 O849 2.334 1_554 S
Tb815 O850 2.421 . S
Tb815 O854 2.546 . S
Tb815 O855 2.610 1_655 S
Tb815 O857 2.320 1_655 S
Tb815 O858 2.552 1_655 S
Tb815 O859 2.413 . S
Tb815 C879 2.833 . S
N816 C808 1.360 . S
N816 Tb815 2.660 . S
N816 C817 1.305 . S
C817 N816 1.305 . S
C817 C819 1.407 . S
C817 H824 0.930 . S
C818 C806 1.410 . S
C818 C819 1.345 . S
C818 H826 0.930 . S
C819 C817 1.407 . S
C819 C818 1.345 . S
C819 H821 0.930 . S
H820 C813 0.930 . S
H821 C819 0.930 . S
H822 C810 0.930 . S
H823 C811 0.931 . S
H824 C817 0.930 . S
H825 C839 0.930 . S
H826 C818 0.930 . S
H827 C845 0.930 . S
H828 C836 0.930 . S
H829 C843 0.931 . S
H830 C807 0.929 . S
H831 C837 0.930 . S
H832 C870 0.930 . S
H833 C814 0.930 . S
H834 C869 0.929 . S
N835 Tb804 2.660 . S
N835 C836 1.305 . S
N835 C840 1.360 . S
C836 H828 0.930 . S
C836 N835 1.305 . S
C836 C839 1.407 . S
C837 H831 0.930 . S
C837 C838 1.410 . S
C837 C839 1.345 . S
C838 C837 1.410 . S
C838 C840 1.417 . S
C838 C870 1.432 . S
C839 H825 0.930 . S
C839 C836 1.407 . S
C839 C837 1.345 . S
C840 N835 1.360 . S
C840 C838 1.417 . S
C840 C844 1.432 . S
H841 C846 0.930 . S
N842 Tb804 2.600 . S
N842 C844 1.359 . S
N842 C845 1.327 . S
C843 H829 0.931 . S
C843 C845 1.392 . S
C843 C846 1.370 . S
C844 C840 1.432 . S
C844 N842 1.359 . S
C844 C847 1.414 . S
C845 H827 0.930 . S
C845 N842 1.327 . S
C845 C843 1.392 . S
C846 H841 0.930 . S
C846 C843 1.370 . S
C846 C847 1.385 . S
C847 C844 1.414 . S
C847 C846 1.385 . S
C847 C869 1.444 . S
O848 Tb804 2.546 . S
O848 C868 1.251 . S
O849 Tb804 2.626 1_655 S
O849 Tb815 2.334 1_556 S
O849 C860 1.306 . S
O850 Tb815 2.421 . S
O850 C867 1.262 1_554 S
O851 Tb804 2.320 1_655 S
O851 C867 1.260 . S
O852 Tb804 2.552 1_655 S
O852 C860 1.243 . S
O853 Tb804 2.413 . S
O853 C868 1.256 . S
O854 Tb815 2.546 . S
O854 C879 1.251 . S
O855 Tb804 2.362 1_554 S
O855 Tb815 2.610 1_455 S
O855 C871 1.283 . S
O856 Tb804 2.462 . S
O856 C878 1.190 1_556 S
O857 Tb815 2.320 1_455 S
O857 C878 1.260 . S
O858 Tb815 2.552 1_455 S
O858 C871 1.243 . S
O859 Tb815 2.413 . S
O859 C879 1.256 . S
C860 O849 1.306 . S
C860 O852 1.243 . S
C861 C863 1.382 1_455 S
C861 C865 1.393 . S
C861 C868 1.500 . S
C862 C863 1.400 . S
C862 C864 1.384 1_655 S
C863 C861 1.382 1_655 S
C863 C862 1.400 . S
C863 H880 0.930 . S
C864 C862 1.384 1_455 S
C864 C866 1.392 . S
C864 H881 0.931 . S
C865 C861 1.393 . S
C865 C866 1.401 . S
C865 H882 0.930 . S
C866 C864 1.392 . S
C866 C865 1.401 . S
C866 H883 0.930 . S
C867 O850 1.262 1_556 S
C867 O851 1.260 . S
C868 Tb804 2.833 . S
C868 O848 1.251 . S
C868 O853 1.256 . S
C868 C861 1.500 . S
C869 H834 0.929 . S
C869 C847 1.444 . S
C869 C870 1.317 . S
C870 H832 0.930 . S
C870 C838 1.432 . S
C870 C869 1.317 . S
C871 O855 1.283 . S
C871 O858 1.243 . S
C872 C873 1.382 1_655 S
C872 C876 1.393 . S
C872 C879 1.500 . S
C873 C872 1.382 1_455 S
C873 C874 1.400 . S
C873 H884 0.930 . S
C874 C873 1.400 . S
C874 C875 1.384 1_455 S
C875 C874 1.384 1_655 S
C875 C877 1.392 . S
C875 H885 0.931 . S
C876 C872 1.393 . S
C876 C877 1.401 . S
C876 H886 0.930 . S
C877 C875 1.392 . S
C877 C876 1.401 . S
C877 H887 0.930 . S
C878 O856 1.190 1_554 S
C878 O857 1.260 . S
C879 Tb815 2.833 . S
C879 O854 1.251 . S
C879 O859 1.256 . S
C879 C872 1.500 . S
H880 C863 0.930 . S
H881 C864 0.931 . S
H882 C865 0.930 . S
H883 C866 0.930 . S
H884 C873 0.930 . S
H885 C875 0.931 . S
H886 C876 0.930 . S
H887 C877 0.930 . S
Tb888 N919 2.660 . S
Tb888 N926 2.600 . S
Tb888 O932 2.546 . S
Tb888 O933 2.610 . S
Tb888 O935 2.320 . S
Tb888 O936 2.552 . S
Tb888 O937 2.413 . S
Tb888 O939 2.297 1_554 S
Tb888 O940 2.421 . S
Tb888 C952 2.833 . S
C889 C892 1.432 . S
C889 C893 1.414 . S
C889 N896 1.359 . S
C890 C892 1.417 . S
C890 C894 1.432 . S
C890 C902 1.410 . S
C891 C893 1.444 . S
C891 C894 1.317 . S
C891 H914 0.929 . S
C892 C889 1.432 . S
C892 C890 1.417 . S
C892 N900 1.360 . S
C893 C889 1.414 . S
C893 C891 1.444 . S
C893 C898 1.385 . S
C894 C890 1.432 . S
C894 C891 1.317 . S
C894 H906 0.930 . S
C895 C897 1.392 . S
C895 C898 1.370 . S
C895 H907 0.931 . S
N896 C889 1.359 . S
N896 C897 1.327 . S
N896 Tb899 2.600 . S
C897 C895 1.392 . S
C897 N896 1.327 . S
C897 H904 0.930 . S
C898 C893 1.385 . S
C898 C895 1.370 . S
C898 H917 0.930 . S
Tb899 N896 2.600 . S
Tb899 N900 2.660 . S
Tb899 O933 2.362 1_556 S
Tb899 O934 2.421 . S
Tb899 O938 2.546 . S
Tb899 O939 2.649 . S
Tb899 O941 2.320 . S
Tb899 O942 2.552 . S
Tb899 O943 2.413 . S
Tb899 C963 2.833 . S
N900 C892 1.360 . S
N900 Tb899 2.660 . S
N900 C901 1.305 . S
C901 N900 1.305 . S
C901 C903 1.407 . S
C901 H908 0.930 . S
C902 C890 1.410 . S
C902 C903 1.345 . S
C902 H910 0.930 . S
C903 C901 1.407 . S
C903 C902 1.345 . S
C903 H905 0.930 . S
H904 C897 0.930 . S
H905 C903 0.930 . S
H906 C894 0.930 . S
H907 C895 0.931 . S
H908 C901 0.930 . S
H909 C923 0.930 . S
H910 C902 0.930 . S
H911 C929 0.930 . S
H912 C920 0.930 . S
H913 C927 0.931 . S
H914 C891 0.929 . S
H915 C921 0.930 . S
H916 C954 0.930 . S
H917 C898 0.930 . S
H918 C953 0.929 . S
N919 Tb888 2.660 . S
N919 C920 1.305 . S
N919 C924 1.360 . S
C920 H912 0.930 . S
C920 N919 1.305 . S
C920 C923 1.407 . S
C921 H915 0.930 . S
C921 C922 1.410 . S
C921 C923 1.345 . S
C922 C921 1.410 . S
C922 C924 1.417 . S
C922 C954 1.432 . S
C923 H909 0.930 . S
C923 C920 1.407 . S
C923 C921 1.345 . S
C924 N919 1.360 . S
C924 C922 1.417 . S
C924 C928 1.432 . S
H925 C930 0.930 . S
N926 Tb888 2.600 . S
N926 C928 1.359 . S
N926 C929 1.327 . S
C927 H913 0.931 . S
C927 C929 1.392 . S
C927 C930 1.370 . S
C928 C924 1.432 . S
C928 N926 1.359 . S
C928 C931 1.414 . S
C929 H911 0.930 . S
C929 N926 1.327 . S
C929 C927 1.392 . S
C930 H925 0.930 . S
C930 C927 1.370 . S
C930 C931 1.385 . S
C931 C928 1.414 . S
C931 C930 1.385 . S
C931 C953 1.444 . S
O932 Tb888 2.546 . S
O932 C952 1.251 . S
O933 Tb888 2.610 . S
O933 Tb899 2.362 1_554 S
O933 C944 1.283 . S
O934 Tb899 2.421 . S
O934 C951 1.262 1_556 S
O935 Tb888 2.320 . S
O935 C951 1.260 . S
O936 Tb888 2.552 . S
O936 C944 1.243 . S
O937 Tb888 2.413 . S
O937 C952 1.256 . S
O938 Tb899 2.546 . S
O938 C963 1.251 . S
O939 Tb888 2.297 1_556 S
O939 Tb899 2.649 . S
O939 C955 1.337 . S
O940 Tb888 2.421 . S
O940 C962 1.262 1_554 S
O941 Tb899 2.320 . S
O941 C962 1.260 . S
O942 Tb899 2.552 . S
O942 C955 1.243 . S
O943 Tb899 2.413 . S
O943 C963 1.256 . S
C944 O933 1.283 . S
C944 O936 1.243 . S
C945 C947 1.382 . S
C945 C949 1.393 . S
C945 C952 1.500 . S
C946 C947 1.400 . S
C946 C948 1.384 . S
C947 C945 1.382 . S
C947 C946 1.400 . S
C947 H964 0.930 . S
C948 C946 1.384 . S
C948 C950 1.392 . S
C948 H965 0.931 . S
C949 C945 1.393 . S
C949 C950 1.401 . S
C949 H966 0.930 . S
C950 C948 1.392 . S
C950 C949 1.401 . S
C950 H967 0.930 . S
C951 O934 1.262 1_554 S
C951 O935 1.260 . S
C952 Tb888 2.833 . S
C952 O932 1.251 . S
C952 O937 1.256 . S
C952 C945 1.500 . S
C953 H918 0.929 . S
C953 C931 1.444 . S
C953 C954 1.317 . S
C954 H916 0.930 . S
C954 C922 1.432 . S
C954 C953 1.317 . S
C955 O939 1.337 . S
C955 O942 1.243 . S
C956 C957 1.382 . S
C956 C960 1.393 . S
C956 C963 1.500 . S
C957 C956 1.382 . S
C957 C958 1.400 . S
C957 H968 0.930 . S
C958 C957 1.400 . S
C958 C959 1.384 . S
C959 C958 1.384 . S
C959 C961 1.392 . S
C959 H969 0.931 . S
C960 C956 1.393 . S
C960 C961 1.401 . S
C960 H970 0.930 . S
C961 C959 1.392 . S
C961 C960 1.401 . S
C961 H971 0.930 . S
C962 O940 1.262 1_556 S
C962 O941 1.260 . S
C963 Tb899 2.833 . S
C963 O938 1.251 . S
C963 O943 1.256 . S
C963 C956 1.500 . S
H964 C947 0.930 . S
H965 C948 0.931 . S
H966 C949 0.930 . S
H967 C950 0.930 . S
H968 C957 0.930 . S
H969 C959 0.931 . S
H970 C960 0.930 . S
H971 C961 0.930 . S
Tb972 N1003 2.660 . S
Tb972 N1010 2.600 . S
Tb972 O1016 2.546 . S
Tb972 O1017 2.610 . S
Tb972 O1019 2.320 . S
Tb972 O1020 2.552 . S
Tb972 O1021 2.413 . S
Tb972 O1023 2.362 . S
Tb972 O1024 2.421 . S
Tb972 C1036 2.833 . S
C973 C976 1.432 . S
C973 C977 1.414 . S
C973 N980 1.359 . S
C974 C976 1.417 . S
C974 C978 1.432 . S
C974 C986 1.410 . S
C975 C977 1.444 . S
C975 C978 1.317 . S
C975 H998 0.929 . S
C976 C973 1.432 . S
C976 C974 1.417 . S
C976 N984 1.360 . S
C977 C973 1.414 . S
C977 C975 1.444 . S
C977 C982 1.385 . S
C978 C974 1.432 . S
C978 C975 1.317 . S
C978 H990 0.930 . S
C979 C981 1.392 . S
C979 C982 1.370 . S
C979 H991 0.931 . S
N980 C973 1.359 . S
N980 C981 1.327 . S
N980 Tb983 2.600 . S
C981 C979 1.392 . S
C981 N980 1.327 . S
C981 H988 0.930 . S
C982 C977 1.385 . S
C982 C979 1.370 . S
C982 H1001 0.930 . S
Tb983 N980 2.600 . S
Tb983 N984 2.660 . S
Tb983 O1017 2.362 . S
Tb983 O1018 2.421 . S
Tb983 O1022 2.546 . S
Tb983 O1023 2.610 . S
Tb983 O1025 2.320 . S
Tb983 O1026 2.552 . S
Tb983 O1027 2.413 . S
Tb983 C1047 2.833 . S
N984 C976 1.360 . S
N984 Tb983 2.660 . S
N984 C985 1.305 . S
C985 N984 1.305 . S
C985 C987 1.407 . S
C985 H992 0.930 . S
C986 C974 1.410 . S
C986 C987 1.345 . S
C986 H994 0.930 . S
C987 C985 1.407 . S
C987 C986 1.345 . S
C987 H989 0.930 . S
H988 C981 0.930 . S
H989 C987 0.930 . S
H990 C978 0.930 . S
H991 C979 0.931 . S
H992 C985 0.930 . S
H993 C1007 0.930 . S
H994 C986 0.930 . S
H995 C1013 0.930 . S
H996 C1004 0.930 . S
H997 C1011 0.931 . S
H998 C975 0.929 . S
H999 C1005 0.930 . S
H1000 C1038 0.930 . S
H1001 C982 0.930 . S
H1002 C1037 0.929 . S
N1003 Tb972 2.660 . S
N1003 C1004 1.305 . S
N1003 C1008 1.360 . S
C1004 H996 0.930 . S
C1004 N1003 1.305 . S
C1004 C1007 1.407 . S
C1005 H999 0.930 . S
C1005 C1006 1.410 . S
C1005 C1007 1.345 . S
C1006 C1005 1.410 . S
C1006 C1008 1.417 . S
C1006 C1038 1.432 . S
C1007 H993 0.930 . S
C1007 C1004 1.407 . S
C1007 C1005 1.345 . S
C1008 N1003 1.360 . S
C1008 C1006 1.417 . S
C1008 C1012 1.432 . S
H1009 C1014 0.930 . S
N1010 Tb972 2.600 . S
N1010 C1012 1.359 . S
N1010 C1013 1.327 . S
C1011 H997 0.931 . S
C1011 C1013 1.392 . S
C1011 C1014 1.370 . S
C1012 C1008 1.432 . S
C1012 N1010 1.359 . S
C1012 C1015 1.414 . S
C1013 H995 0.930 . S
C1013 N1010 1.327 . S
C1013 C1011 1.392 . S
C1014 H1009 0.930 . S
C1014 C1011 1.370 . S
C1014 C1015 1.385 . S
C1015 C1012 1.414 . S
C1015 C1014 1.385 . S
C1015 C1037 1.444 . S
O1016 Tb972 2.546 . S
O1016 C1036 1.251 . S
O1017 Tb972 2.610 . S
O1017 Tb983 2.362 . S
O1017 C1028 1.283 . S
O1018 Tb983 2.421 . S
O1018 C1035 1.262 . S
O1019 Tb972 2.320 . S
O1019 C1035 1.260 . S
O1020 Tb972 2.552 . S
O1020 C1028 1.243 . S
O1021 Tb972 2.413 . S
O1021 C1036 1.256 . S
O1022 Tb983 2.546 . S
O1022 C1047 1.251 . S
O1023 Tb972 2.362 . S
O1023 Tb983 2.610 . S
O1023 C1039 1.283 . S
O1024 Tb972 2.421 . S
O1024 C1046 1.262 . S
O1025 Tb983 2.320 . S
O1025 C1046 1.260 . S
O1026 Tb983 2.552 . S
O1026 C1039 1.243 . S
O1027 Tb983 2.413 . S
O1027 C1047 1.256 . S
C1028 O1017 1.283 . S
C1028 O1020 1.243 . S
C1029 C1031 1.382 . S
C1029 C1033 1.393 . S
C1029 C1036 1.500 . S
C1030 C1031 1.400 . S
C1030 C1032 1.384 . S
C1031 C1029 1.382 . S
C1031 C1030 1.400 . S
C1031 H1048 0.930 . S
C1032 C1030 1.384 . S
C1032 C1034 1.392 . S
C1032 H1049 0.931 . S
C1033 C1029 1.393 . S
C1033 C1034 1.401 . S
C1033 H1050 0.930 . S
C1034 C1032 1.392 . S
C1034 C1033 1.401 . S
C1034 H1051 0.930 . S
C1035 O1018 1.262 . S
C1035 O1019 1.260 . S
C1036 Tb972 2.833 . S
C1036 O1016 1.251 . S
C1036 O1021 1.256 . S
C1036 C1029 1.500 . S
C1037 H1002 0.929 . S
C1037 C1015 1.444 . S
C1037 C1038 1.317 . S
C1038 H1000 0.930 . S
C1038 C1006 1.432 . S
C1038 C1037 1.317 . S
C1039 O1023 1.283 . S
C1039 O1026 1.243 . S
C1040 C1041 1.382 . S
C1040 C1044 1.393 . S
C1040 C1047 1.500 . S
C1041 C1040 1.382 . S
C1041 C1042 1.400 . S
C1041 H1052 0.930 . S
C1042 C1041 1.400 . S
C1042 C1043 1.384 . S
C1043 C1042 1.384 . S
C1043 C1045 1.392 . S
C1043 H1053 0.931 . S
C1044 C1040 1.393 . S
C1044 C1045 1.401 . S
C1044 H1054 0.930 . S
C1045 C1043 1.392 . S
C1045 C1044 1.401 . S
C1045 H1055 0.930 . S
C1046 O1024 1.262 . S
C1046 O1025 1.260 . S
C1047 Tb983 2.833 . S
C1047 O1022 1.251 . S
C1047 O1027 1.256 . S
C1047 C1040 1.500 . S
H1048 C1031 0.930 . S
H1049 C1032 0.931 . S
H1050 C1033 0.930 . S
H1051 C1034 0.930 . S
H1052 C1041 0.930 . S
H1053 C1043 0.931 . S
H1054 C1044 0.930 . S
H1055 C1045 0.930 . S
Tb1056 N1087 2.660 . S
Tb1056 N1094 2.600 . S
Tb1056 O1100 2.546 . S
Tb1056 O1101 2.610 . S
Tb1056 O1103 2.320 . S
Tb1056 O1104 2.552 . S
Tb1056 O1105 2.413 . S
Tb1056 O1107 2.362 . S
Tb1056 O1108 2.421 . S
Tb1056 C1120 2.833 . S
C1057 C1060 1.432 . S
C1057 C1061 1.414 . S
C1057 N1064 1.359 . S
C1058 C1060 1.417 . S
C1058 C1062 1.432 . S
C1058 C1070 1.410 . S
C1059 C1061 1.444 . S
C1059 C1062 1.317 . S
C1059 H1082 0.929 . S
C1060 C1057 1.432 . S
C1060 C1058 1.417 . S
C1060 N1068 1.360 . S
C1061 C1057 1.414 . S
C1061 C1059 1.444 . S
C1061 C1066 1.385 . S
C1062 C1058 1.432 . S
C1062 C1059 1.317 . S
C1062 H1074 0.930 . S
C1063 C1065 1.392 . S
C1063 C1066 1.370 . S
C1063 H1075 0.931 . S
N1064 C1057 1.359 . S
N1064 C1065 1.327 . S
N1064 Tb1067 2.600 . S
C1065 C1063 1.392 . S
C1065 N1064 1.327 . S
C1065 H1072 0.930 . S
C1066 C1061 1.385 . S
C1066 C1063 1.370 . S
C1066 H1085 0.930 . S
Tb1067 N1064 2.600 . S
Tb1067 N1068 2.660 . S
Tb1067 O1101 2.362 . S
Tb1067 O1102 2.421 . S
Tb1067 O1106 2.546 . S
Tb1067 O1107 2.610 . S
Tb1067 O1109 2.320 . S
Tb1067 O1110 2.552 . S
Tb1067 O1111 2.413 . S
Tb1067 C1131 2.833 . S
N1068 C1060 1.360 . S
N1068 Tb1067 2.660 . S
N1068 C1069 1.305 . S
C1069 N1068 1.305 . S
C1069 C1071 1.407 . S
C1069 H1076 0.930 . S
C1070 C1058 1.410 . S
C1070 C1071 1.345 . S
C1070 H1078 0.930 . S
C1071 C1069 1.407 . S
C1071 C1070 1.345 . S
C1071 H1073 0.930 . S
H1072 C1065 0.930 . S
H1073 C1071 0.930 . S
H1074 C1062 0.930 . S
H1075 C1063 0.931 . S
H1076 C1069 0.930 . S
H1077 C1091 0.930 . S
H1078 C1070 0.930 . S
H1079 C1097 0.930 . S
H1080 C1088 0.930 . S
H1081 C1095 0.931 . S
H1082 C1059 0.929 . S
H1083 C1089 0.930 . S
H1084 C1122 0.930 . S
H1085 C1066 0.930 . S
H1086 C1121 0.929 . S
N1087 Tb1056 2.660 . S
N1087 C1088 1.305 . S
N1087 C1092 1.360 . S
C1088 H1080 0.930 . S
C1088 N1087 1.305 . S
C1088 C1091 1.407 . S
C1089 H1083 0.930 . S
C1089 C1090 1.410 . S
C1089 C1091 1.345 . S
C1090 C1089 1.410 . S
C1090 C1092 1.417 . S
C1090 C1122 1.432 . S
C1091 H1077 0.930 . S
C1091 C1088 1.407 . S
C1091 C1089 1.345 . S
C1092 N1087 1.360 . S
C1092 C1090 1.417 . S
C1092 C1096 1.432 . S
H1093 C1098 0.930 . S
N1094 Tb1056 2.600 . S
N1094 C1096 1.359 . S
N1094 C1097 1.327 . S
C1095 H1081 0.931 . S
C1095 C1097 1.392 . S
C1095 C1098 1.370 . S
C1096 C1092 1.432 . S
C1096 N1094 1.359 . S
C1096 C1099 1.414 . S
C1097 H1079 0.930 . S
C1097 N1094 1.327 . S
C1097 C1095 1.392 . S
C1098 H1093 0.930 . S
C1098 C1095 1.370 . S
C1098 C1099 1.385 . S
C1099 C1096 1.414 . S
C1099 C1098 1.385 . S
C1099 C1121 1.444 . S
O1100 Tb1056 2.546 . S
O1100 C1120 1.251 . S
O1101 Tb1056 2.610 . S
O1101 Tb1067 2.362 . S
O1101 C1112 1.283 . S
O1102 Tb1067 2.421 . S
O1102 C1119 1.262 . S
O1103 Tb1056 2.320 . S
O1103 C1119 1.260 . S
O1104 Tb1056 2.552 . S
O1104 C1112 1.243 . S
O1105 Tb1056 2.413 . S
O1105 C1120 1.256 . S
O1106 Tb1067 2.546 . S
O1106 C1131 1.251 . S
O1107 Tb1056 2.362 . S
O1107 Tb1067 2.610 . S
O1107 C1123 1.283 . S
O1108 Tb1056 2.421 . S
O1108 C1130 1.262 . S
O1109 Tb1067 2.320 . S
O1109 C1130 1.260 . S
O1110 Tb1067 2.552 . S
O1110 C1123 1.243 . S
O1111 Tb1067 2.413 . S
O1111 C1131 1.256 . S
C1112 O1101 1.283 . S
C1112 O1104 1.243 . S
C1113 C1115 1.382 . S
C1113 C1117 1.393 . S
C1113 C1120 1.500 . S
C1114 C1115 1.400 . S
C1114 C1116 1.384 . S
C1115 C1113 1.382 . S
C1115 C1114 1.400 . S
C1115 H1132 0.930 . S
C1116 C1114 1.384 . S
C1116 C1118 1.392 . S
C1116 H1133 0.931 . S
C1117 C1113 1.393 . S
C1117 C1118 1.401 . S
C1117 H1134 0.930 . S
C1118 C1116 1.392 . S
C1118 C1117 1.401 . S
C1118 H1135 0.930 . S
C1119 O1102 1.262 . S
C1119 O1103 1.260 . S
C1120 Tb1056 2.833 . S
C1120 O1100 1.251 . S
C1120 O1105 1.256 . S
C1120 C1113 1.500 . S
C1121 H1086 0.929 . S
C1121 C1099 1.444 . S
C1121 C1122 1.317 . S
C1122 H1084 0.930 . S
C1122 C1090 1.432 . S
C1122 C1121 1.317 . S
C1123 O1107 1.283 . S
C1123 O1110 1.243 . S
C1124 C1125 1.382 . S
C1124 C1128 1.393 . S
C1124 C1131 1.500 . S
C1125 C1124 1.382 . S
C1125 C1126 1.400 . S
C1125 H1136 0.930 . S
C1126 C1125 1.400 . S
C1126 C1127 1.384 . S
C1127 C1126 1.384 . S
C1127 C1129 1.392 . S
C1127 H1137 0.931 . S
C1128 C1124 1.393 . S
C1128 C1129 1.401 . S
C1128 H1138 0.930 . S
C1129 C1127 1.392 . S
C1129 C1128 1.401 . S
C1129 H1139 0.930 . S
C1130 O1108 1.262 . S
C1130 O1109 1.260 . S
C1131 Tb1067 2.833 . S
C1131 O1106 1.251 . S
C1131 O1111 1.256 . S
C1131 C1124 1.500 . S
H1132 C1115 0.930 . S
H1133 C1116 0.931 . S
H1134 C1117 0.930 . S
H1135 C1118 0.930 . S
H1136 C1125 0.930 . S
H1137 C1127 0.931 . S
H1138 C1128 0.930 . S
H1139 C1129 0.930 . S
Tb1140 N1171 2.660 . S
Tb1140 N1178 2.600 . S
Tb1140 O1184 2.546 . S
Tb1140 O1185 2.610 . S
Tb1140 O1187 2.320 . S
Tb1140 O1188 2.552 . S
Tb1140 O1189 2.413 . S
Tb1140 O1191 2.362 . S
Tb1140 O1192 2.421 . S
Tb1140 C1204 2.833 . S
C1141 C1144 1.432 . S
C1141 C1145 1.414 . S
C1141 N1148 1.359 . S
C1142 C1144 1.417 . S
C1142 C1146 1.432 . S
C1142 C1154 1.410 . S
C1143 C1145 1.444 . S
C1143 C1146 1.317 . S
C1143 H1166 0.929 . S
C1144 C1141 1.432 . S
C1144 C1142 1.417 . S
C1144 N1152 1.360 . S
C1145 C1141 1.414 . S
C1145 C1143 1.444 . S
C1145 C1150 1.385 . S
C1146 C1142 1.432 . S
C1146 C1143 1.317 . S
C1146 H1158 0.930 . S
C1147 C1149 1.392 . S
C1147 C1150 1.370 . S
C1147 H1159 0.931 . S
N1148 C1141 1.359 . S
N1148 C1149 1.327 . S
N1148 Tb1151 2.600 . S
C1149 C1147 1.392 . S
C1149 N1148 1.327 . S
C1149 H1156 0.930 . S
C1150 C1145 1.385 . S
C1150 C1147 1.370 . S
C1150 H1169 0.930 . S
Tb1151 N1148 2.600 . S
Tb1151 N1152 2.660 . S
Tb1151 O1185 2.362 . S
Tb1151 O1186 2.421 . S
Tb1151 O1190 2.546 . S
Tb1151 O1191 2.610 . S
Tb1151 O1193 2.320 . S
Tb1151 O1194 2.552 . S
Tb1151 O1195 2.413 . S
Tb1151 C1215 2.833 . S
N1152 C1144 1.360 . S
N1152 Tb1151 2.660 . S
N1152 C1153 1.305 . S
C1153 N1152 1.305 . S
C1153 C1155 1.407 . S
C1153 H1160 0.930 . S
C1154 C1142 1.410 . S
C1154 C1155 1.345 . S
C1154 H1162 0.930 . S
C1155 C1153 1.407 . S
C1155 C1154 1.345 . S
C1155 H1157 0.930 . S
H1156 C1149 0.930 . S
H1157 C1155 0.930 . S
H1158 C1146 0.930 . S
H1159 C1147 0.931 . S
H1160 C1153 0.930 . S
H1161 C1175 0.930 . S
H1162 C1154 0.930 . S
H1163 C1181 0.930 . S
H1164 C1172 0.930 . S
H1165 C1179 0.931 . S
H1166 C1143 0.929 . S
H1167 C1173 0.930 . S
H1168 C1206 0.930 . S
H1169 C1150 0.930 . S
H1170 C1205 0.929 . S
N1171 Tb1140 2.660 . S
N1171 C1172 1.305 . S
N1171 C1176 1.360 . S
C1172 H1164 0.930 . S
C1172 N1171 1.305 . S
C1172 C1175 1.407 . S
C1173 H1167 0.930 . S
C1173 C1174 1.410 . S
C1173 C1175 1.345 . S
C1174 C1173 1.410 . S
C1174 C1176 1.417 . S
C1174 C1206 1.432 . S
C1175 H1161 0.930 . S
C1175 C1172 1.407 . S
C1175 C1173 1.345 . S
C1176 N1171 1.360 . S
C1176 C1174 1.417 . S
C1176 C1180 1.432 . S
H1177 C1182 0.930 . S
N1178 Tb1140 2.600 . S
N1178 C1180 1.359 . S
N1178 C1181 1.327 . S
C1179 H1165 0.931 . S
C1179 C1181 1.392 . S
C1179 C1182 1.370 . S
C1180 C1176 1.432 . S
C1180 N1178 1.359 . S
C1180 C1183 1.414 . S
C1181 H1163 0.930 . S
C1181 N1178 1.327 . S
C1181 C1179 1.392 . S
C1182 H1177 0.930 . S
C1182 C1179 1.370 . S
C1182 C1183 1.385 . S
C1183 C1180 1.414 . S
C1183 C1182 1.385 . S
C1183 C1205 1.444 . S
O1184 Tb1140 2.546 . S
O1184 C1204 1.251 . S
O1185 Tb1140 2.610 . S
O1185 Tb1151 2.362 . S
O1185 C1196 1.283 . S
O1186 Tb1151 2.421 . S
O1186 C1203 1.262 . S
O1187 Tb1140 2.320 . S
O1187 C1203 1.260 . S
O1188 Tb1140 2.552 . S
O1188 C1196 1.243 . S
O1189 Tb1140 2.413 . S
O1189 C1204 1.256 . S
O1190 Tb1151 2.546 . S
O1190 C1215 1.251 . S
O1191 Tb1140 2.362 . S
O1191 Tb1151 2.610 . S
O1191 C1207 1.283 . S
O1192 Tb1140 2.421 . S
O1192 C1214 1.262 . S
O1193 Tb1151 2.320 . S
O1193 C1214 1.260 . S
O1194 Tb1151 2.552 . S
O1194 C1207 1.243 . S
O1195 Tb1151 2.413 . S
O1195 C1215 1.256 . S
C1196 O1185 1.283 . S
C1196 O1188 1.243 . S
C1197 C1199 1.382 . S
C1197 C1201 1.393 . S
C1197 C1204 1.500 . S
C1198 C1199 1.400 . S
C1198 C1200 1.384 . S
C1199 C1197 1.382 . S
C1199 C1198 1.400 . S
C1199 H1216 0.930 . S
C1200 C1198 1.384 . S
C1200 C1202 1.392 . S
C1200 H1217 0.931 . S
C1201 C1197 1.393 . S
C1201 C1202 1.401 . S
C1201 H1218 0.930 . S
C1202 C1200 1.392 . S
C1202 C1201 1.401 . S
C1202 H1219 0.930 . S
C1203 O1186 1.262 . S
C1203 O1187 1.260 . S
C1204 Tb1140 2.833 . S
C1204 O1184 1.251 . S
C1204 O1189 1.256 . S
C1204 C1197 1.500 . S
C1205 H1170 0.929 . S
C1205 C1183 1.444 . S
C1205 C1206 1.317 . S
C1206 H1168 0.930 . S
C1206 C1174 1.432 . S
C1206 C1205 1.317 . S
C1207 O1191 1.283 . S
C1207 O1194 1.243 . S
C1208 C1209 1.382 . S
C1208 C1212 1.393 . S
C1208 C1215 1.500 . S
C1209 C1208 1.382 . S
C1209 C1210 1.400 . S
C1209 H1220 0.930 . S
C1210 C1209 1.400 . S
C1210 C1211 1.384 . S
C1211 C1210 1.384 . S
C1211 C1213 1.392 . S
C1211 H1221 0.931 . S
C1212 C1208 1.393 . S
C1212 C1213 1.401 . S
C1212 H1222 0.930 . S
C1213 C1211 1.392 . S
C1213 C1212 1.401 . S
C1213 H1223 0.930 . S
C1214 O1192 1.262 . S
C1214 O1193 1.260 . S
C1215 Tb1151 2.833 . S
C1215 O1190 1.251 . S
C1215 O1195 1.256 . S
C1215 C1208 1.500 . S
H1216 C1199 0.930 . S
H1217 C1200 0.931 . S
H1218 C1201 0.930 . S
H1219 C1202 0.930 . S
H1220 C1209 0.930 . S
H1221 C1211 0.931 . S
H1222 C1212 0.930 . S
H1223 C1213 0.930 . S
Tb1224 N1255 2.660 . S
Tb1224 N1262 2.600 . S
Tb1224 O1268 2.546 . S
Tb1224 O1269 2.610 . S
Tb1224 O1271 2.320 . S
Tb1224 O1272 2.552 . S
Tb1224 O1273 2.413 . S
Tb1224 O1275 2.362 . S
Tb1224 O1276 2.421 . S
Tb1224 C1288 2.833 . S
C1225 C1228 1.432 . S
C1225 C1229 1.414 . S
C1225 N1232 1.359 . S
C1226 C1228 1.417 . S
C1226 C1230 1.432 . S
C1226 C1238 1.410 . S
C1227 C1229 1.444 . S
C1227 C1230 1.317 . S
C1227 H1250 0.929 . S
C1228 C1225 1.432 . S
C1228 C1226 1.417 . S
C1228 N1236 1.360 . S
C1229 C1225 1.414 . S
C1229 C1227 1.444 . S
C1229 C1234 1.385 . S
C1230 C1226 1.432 . S
C1230 C1227 1.317 . S
C1230 H1242 0.930 . S
C1231 C1233 1.392 . S
C1231 C1234 1.370 . S
C1231 H1243 0.931 . S
N1232 C1225 1.359 . S
N1232 C1233 1.327 . S
N1232 Tb1235 2.600 . S
C1233 C1231 1.392 . S
C1233 N1232 1.327 . S
C1233 H1240 0.930 . S
C1234 C1229 1.385 . S
C1234 C1231 1.370 . S
C1234 H1253 0.930 . S
Tb1235 N1232 2.600 . S
Tb1235 N1236 2.660 . S
Tb1235 O1269 2.362 . S
Tb1235 O1270 2.421 . S
Tb1235 O1274 2.546 . S
Tb1235 O1275 2.610 . S
Tb1235 O1277 2.320 . S
Tb1235 O1278 2.552 . S
Tb1235 O1279 2.413 . S
Tb1235 C1299 2.833 . S
N1236 C1228 1.360 . S
N1236 Tb1235 2.660 . S
N1236 C1237 1.305 . S
C1237 N1236 1.305 . S
C1237 C1239 1.407 . S
C1237 H1244 0.930 . S
C1238 C1226 1.410 . S
C1238 C1239 1.345 . S
C1238 H1246 0.930 . S
C1239 C1237 1.407 . S
C1239 C1238 1.345 . S
C1239 H1241 0.930 . S
H1240 C1233 0.930 . S
H1241 C1239 0.930 . S
H1242 C1230 0.930 . S
H1243 C1231 0.931 . S
H1244 C1237 0.930 . S
H1245 C1259 0.930 . S
H1246 C1238 0.930 . S
H1247 C1265 0.930 . S
H1248 C1256 0.930 . S
H1249 C1263 0.931 . S
H1250 C1227 0.929 . S
H1251 C1257 0.930 . S
H1252 C1290 0.930 . S
H1253 C1234 0.930 . S
H1254 C1289 0.929 . S
N1255 Tb1224 2.660 . S
N1255 C1256 1.305 . S
N1255 C1260 1.360 . S
C1256 H1248 0.930 . S
C1256 N1255 1.305 . S
C1256 C1259 1.407 . S
C1257 H1251 0.930 . S
C1257 C1258 1.410 . S
C1257 C1259 1.345 . S
C1258 C1257 1.410 . S
C1258 C1260 1.417 . S
C1258 C1290 1.432 . S
C1259 H1245 0.930 . S
C1259 C1256 1.407 . S
C1259 C1257 1.345 . S
C1260 N1255 1.360 . S
C1260 C1258 1.417 . S
C1260 C1264 1.432 . S
H1261 C1266 0.930 . S
N1262 Tb1224 2.600 . S
N1262 C1264 1.359 . S
N1262 C1265 1.327 . S
C1263 H1249 0.931 . S
C1263 C1265 1.392 . S
C1263 C1266 1.370 . S
C1264 C1260 1.432 . S
C1264 N1262 1.359 . S
C1264 C1267 1.414 . S
C1265 H1247 0.930 . S
C1265 N1262 1.327 . S
C1265 C1263 1.392 . S
C1266 H1261 0.930 . S
C1266 C1263 1.370 . S
C1266 C1267 1.385 . S
C1267 C1264 1.414 . S
C1267 C1266 1.385 . S
C1267 C1289 1.444 . S
O1268 Tb1224 2.546 . S
O1268 C1288 1.251 . S
O1269 Tb1224 2.610 . S
O1269 Tb1235 2.362 . S
O1269 C1280 1.283 . S
O1270 Tb1235 2.421 . S
O1270 C1287 1.262 . S
O1271 Tb1224 2.320 . S
O1271 C1287 1.260 . S
O1272 Tb1224 2.552 . S
O1272 C1280 1.243 . S
O1273 Tb1224 2.413 . S
O1273 C1288 1.256 . S
O1274 Tb1235 2.546 . S
O1274 C1299 1.251 . S
O1275 Tb1224 2.362 . S
O1275 Tb1235 2.610 . S
O1275 C1291 1.283 . S
O1276 Tb1224 2.421 . S
O1276 C1298 1.262 . S
O1277 Tb1235 2.320 . S
O1277 C1298 1.260 . S
O1278 Tb1235 2.552 . S
O1278 C1291 1.243 . S
O1279 Tb1235 2.413 . S
O1279 C1299 1.256 . S
C1280 O1269 1.283 . S
C1280 O1272 1.243 . S
C1281 C1283 1.382 . S
C1281 C1285 1.393 . S
C1281 C1288 1.500 . S
C1282 C1283 1.400 . S
C1282 C1284 1.384 . S
C1283 C1281 1.382 . S
C1283 C1282 1.400 . S
C1283 H1300 0.930 . S
C1284 C1282 1.384 . S
C1284 C1286 1.392 . S
C1284 H1301 0.931 . S
C1285 C1281 1.393 . S
C1285 C1286 1.401 . S
C1285 H1302 0.930 . S
C1286 C1284 1.392 . S
C1286 C1285 1.401 . S
C1286 H1303 0.930 . S
C1287 O1270 1.262 . S
C1287 O1271 1.260 . S
C1288 Tb1224 2.833 . S
C1288 O1268 1.251 . S
C1288 O1273 1.256 . S
C1288 C1281 1.500 . S
C1289 H1254 0.929 . S
C1289 C1267 1.444 . S
C1289 C1290 1.317 . S
C1290 H1252 0.930 . S
C1290 C1258 1.432 . S
C1290 C1289 1.317 . S
C1291 O1275 1.283 . S
C1291 O1278 1.243 . S
C1292 C1293 1.382 . S
C1292 C1296 1.393 . S
C1292 C1299 1.500 . S
C1293 C1292 1.382 . S
C1293 C1294 1.400 . S
C1293 H1304 0.930 . S
C1294 C1293 1.400 . S
C1294 C1295 1.384 . S
C1295 C1294 1.384 . S
C1295 C1297 1.392 . S
C1295 H1305 0.931 . S
C1296 C1292 1.393 . S
C1296 C1297 1.401 . S
C1296 H1306 0.930 . S
C1297 C1295 1.392 . S
C1297 C1296 1.401 . S
C1297 H1307 0.930 . S
C1298 O1276 1.262 . S
C1298 O1277 1.260 . S
C1299 Tb1235 2.833 . S
C1299 O1274 1.251 . S
C1299 O1279 1.256 . S
C1299 C1292 1.500 . S
H1300 C1283 0.930 . S
H1301 C1284 0.931 . S
H1302 C1285 0.930 . S
H1303 C1286 0.930 . S
H1304 C1293 0.930 . S
H1305 C1295 0.931 . S
H1306 C1296 0.930 . S
H1307 C1297 0.930 . S
Tb1308 N1339 2.660 . S
Tb1308 N1346 2.600 . S
Tb1308 O1352 2.546 . S
Tb1308 O1353 2.610 . S
Tb1308 O1355 2.320 . S
Tb1308 O1356 2.552 . S
Tb1308 O1357 2.413 . S
Tb1308 O1359 2.362 . S
Tb1308 O1360 2.421 . S
Tb1308 C1372 2.833 . S
C1309 C1312 1.432 . S
C1309 C1313 1.414 . S
C1309 N1316 1.359 . S
C1310 C1312 1.417 . S
C1310 C1314 1.432 . S
C1310 C1322 1.410 . S
C1311 C1313 1.444 . S
C1311 C1314 1.317 . S
C1311 H1334 0.929 . S
C1312 C1309 1.432 . S
C1312 C1310 1.417 . S
C1312 N1320 1.360 . S
C1313 C1309 1.414 . S
C1313 C1311 1.444 . S
C1313 C1318 1.385 . S
C1314 C1310 1.432 . S
C1314 C1311 1.317 . S
C1314 H1326 0.930 . S
C1315 C1317 1.392 . S
C1315 C1318 1.370 . S
C1315 H1327 0.931 . S
N1316 C1309 1.359 . S
N1316 C1317 1.327 . S
N1316 Tb1319 2.600 . S
C1317 C1315 1.392 . S
C1317 N1316 1.327 . S
C1317 H1324 0.930 . S
C1318 C1313 1.385 . S
C1318 C1315 1.370 . S
C1318 H1337 0.930 . S
Tb1319 N1316 2.600 . S
Tb1319 N1320 2.660 . S
Tb1319 O1353 2.362 . S
Tb1319 O1354 2.421 . S
Tb1319 O1358 2.546 . S
Tb1319 O1359 2.610 . S
Tb1319 O1361 2.320 . S
Tb1319 O1362 2.552 . S
Tb1319 O1363 2.413 . S
Tb1319 C1383 2.833 . S
N1320 C1312 1.360 . S
N1320 Tb1319 2.660 . S
N1320 C1321 1.305 . S
C1321 N1320 1.305 . S
C1321 C1323 1.407 . S
C1321 H1328 0.930 . S
C1322 C1310 1.410 . S
C1322 C1323 1.345 . S
C1322 H1330 0.930 . S
C1323 C1321 1.407 . S
C1323 C1322 1.345 . S
C1323 H1325 0.930 . S
H1324 C1317 0.930 . S
H1325 C1323 0.930 . S
H1326 C1314 0.930 . S
H1327 C1315 0.931 . S
H1328 C1321 0.930 . S
H1329 C1343 0.930 . S
H1330 C1322 0.930 . S
H1331 C1349 0.930 . S
H1332 C1340 0.930 . S
H1333 C1347 0.931 . S
H1334 C1311 0.929 . S
H1335 C1341 0.930 . S
H1336 C1374 0.930 . S
H1337 C1318 0.930 . S
H1338 C1373 0.929 . S
N1339 Tb1308 2.660 . S
N1339 C1340 1.305 . S
N1339 C1344 1.360 . S
C1340 H1332 0.930 . S
C1340 N1339 1.305 . S
C1340 C1343 1.407 . S
C1341 H1335 0.930 . S
C1341 C1342 1.410 . S
C1341 C1343 1.345 . S
C1342 C1341 1.410 . S
C1342 C1344 1.417 . S
C1342 C1374 1.432 . S
C1343 H1329 0.930 . S
C1343 C1340 1.407 . S
C1343 C1341 1.345 . S
C1344 N1339 1.360 . S
C1344 C1342 1.417 . S
C1344 C1348 1.432 . S
H1345 C1350 0.930 . S
N1346 Tb1308 2.600 . S
N1346 C1348 1.359 . S
N1346 C1349 1.327 . S
C1347 H1333 0.931 . S
C1347 C1349 1.392 . S
C1347 C1350 1.370 . S
C1348 C1344 1.432 . S
C1348 N1346 1.359 . S
C1348 C1351 1.414 . S
C1349 H1331 0.930 . S
C1349 N1346 1.327 . S
C1349 C1347 1.392 . S
C1350 H1345 0.930 . S
C1350 C1347 1.370 . S
C1350 C1351 1.385 . S
C1351 C1348 1.414 . S
C1351 C1350 1.385 . S
C1351 C1373 1.444 . S
O1352 Tb1308 2.546 . S
O1352 C1372 1.251 . S
O1353 Tb1308 2.610 . S
O1353 Tb1319 2.362 . S
O1353 C1364 1.283 . S
O1354 Tb1319 2.421 . S
O1354 C1371 1.262 . S
O1355 Tb1308 2.320 . S
O1355 C1371 1.260 . S
O1356 Tb1308 2.552 . S
O1356 C1364 1.243 . S
O1357 Tb1308 2.413 . S
O1357 C1372 1.256 . S
O1358 Tb1319 2.546 . S
O1358 C1383 1.251 . S
O1359 Tb1308 2.362 . S
O1359 Tb1319 2.610 . S
O1359 C1375 1.283 . S
O1360 Tb1308 2.421 . S
O1360 C1382 1.262 . S
O1361 Tb1319 2.320 . S
O1361 C1382 1.260 . S
O1362 Tb1319 2.552 . S
O1362 C1375 1.243 . S
O1363 Tb1319 2.413 . S
O1363 C1383 1.256 . S
C1364 O1353 1.283 . S
C1364 O1356 1.243 . S
C1365 C1367 1.382 . S
C1365 C1369 1.393 . S
C1365 C1372 1.500 . S
C1366 C1367 1.400 . S
C1366 C1368 1.384 . S
C1367 C1365 1.382 . S
C1367 C1366 1.400 . S
C1367 H1384 0.930 . S
C1368 C1366 1.384 . S
C1368 C1370 1.392 . S
C1368 H1385 0.931 . S
C1369 C1365 1.393 . S
C1369 C1370 1.401 . S
C1369 H1386 0.930 . S
C1370 C1368 1.392 . S
C1370 C1369 1.401 . S
C1370 H1387 0.930 . S
C1371 O1354 1.262 . S
C1371 O1355 1.260 . S
C1372 Tb1308 2.833 . S
C1372 O1352 1.251 . S
C1372 O1357 1.256 . S
C1372 C1365 1.500 . S
C1373 H1338 0.929 . S
C1373 C1351 1.444 . S
C1373 C1374 1.317 . S
C1374 H1336 0.930 . S
C1374 C1342 1.432 . S
C1374 C1373 1.317 . S
C1375 O1359 1.283 . S
C1375 O1362 1.243 . S
C1376 C1377 1.382 . S
C1376 C1380 1.393 . S
C1376 C1383 1.500 . S
C1377 C1376 1.382 . S
C1377 C1378 1.400 . S
C1377 H1388 0.930 . S
C1378 C1377 1.400 . S
C1378 C1379 1.384 . S
C1379 C1378 1.384 . S
C1379 C1381 1.392 . S
C1379 H1389 0.931 . S
C1380 C1376 1.393 . S
C1380 C1381 1.401 . S
C1380 H1390 0.930 . S
C1381 C1379 1.392 . S
C1381 C1380 1.401 . S
C1381 H1391 0.930 . S
C1382 O1360 1.262 . S
C1382 O1361 1.260 . S
C1383 Tb1319 2.833 . S
C1383 O1358 1.251 . S
C1383 O1363 1.256 . S
C1383 C1376 1.500 . S
H1384 C1367 0.930 . S
H1385 C1368 0.931 . S
H1386 C1369 0.930 . S
H1387 C1370 0.930 . S
H1388 C1377 0.930 . S
H1389 C1379 0.931 . S
H1390 C1380 0.930 . S
H1391 C1381 0.930 . S
Tb1392 N1423 2.660 . S
Tb1392 N1430 2.600 . S
Tb1392 O1436 2.546 . S
Tb1392 O1437 2.610 . S
Tb1392 O1439 2.320 . S
Tb1392 O1440 2.552 . S
Tb1392 O1441 2.413 . S
Tb1392 O1443 2.362 . S
Tb1392 O1444 2.421 . S
Tb1392 C1456 2.833 . S
C1393 C1396 1.432 . S
C1393 C1397 1.414 . S
C1393 N1400 1.359 . S
C1394 C1396 1.417 . S
C1394 C1398 1.432 . S
C1394 C1406 1.410 . S
C1395 C1397 1.444 . S
C1395 C1398 1.317 . S
C1395 H1418 0.929 . S
C1396 C1393 1.432 . S
C1396 C1394 1.417 . S
C1396 N1404 1.360 . S
C1397 C1393 1.414 . S
C1397 C1395 1.444 . S
C1397 C1402 1.385 . S
C1398 C1394 1.432 . S
C1398 C1395 1.317 . S
C1398 H1410 0.930 . S
C1399 C1401 1.392 . S
C1399 C1402 1.370 . S
C1399 H1411 0.931 . S
N1400 C1393 1.359 . S
N1400 C1401 1.327 . S
N1400 Tb1403 2.600 . S
C1401 C1399 1.392 . S
C1401 N1400 1.327 . S
C1401 H1408 0.930 . S
C1402 C1397 1.385 . S
C1402 C1399 1.370 . S
C1402 H1421 0.930 . S
Tb1403 N1400 2.600 . S
Tb1403 N1404 2.660 . S
Tb1403 O1437 2.362 . S
Tb1403 O1438 2.421 . S
Tb1403 O1442 2.546 . S
Tb1403 O1443 2.610 . S
Tb1403 O1445 2.320 . S
Tb1403 O1446 2.552 . S
Tb1403 O1447 2.413 . S
Tb1403 C1467 2.833 . S
N1404 C1396 1.360 . S
N1404 Tb1403 2.660 . S
N1404 C1405 1.305 . S
C1405 N1404 1.305 . S
C1405 C1407 1.407 . S
C1405 H1412 0.930 . S
C1406 C1394 1.410 . S
C1406 C1407 1.345 . S
C1406 H1414 0.930 . S
C1407 C1405 1.407 . S
C1407 C1406 1.345 . S
C1407 H1409 0.930 . S
H1408 C1401 0.930 . S
H1409 C1407 0.930 . S
H1410 C1398 0.930 . S
H1411 C1399 0.931 . S
H1412 C1405 0.930 . S
H1413 C1427 0.930 . S
H1414 C1406 0.930 . S
H1415 C1433 0.930 . S
H1416 C1424 0.930 . S
H1417 C1431 0.931 . S
H1418 C1395 0.929 . S
H1419 C1425 0.930 . S
H1420 C1458 0.930 . S
H1421 C1402 0.930 . S
H1422 C1457 0.929 . S
N1423 Tb1392 2.660 . S
N1423 C1424 1.305 . S
N1423 C1428 1.360 . S
C1424 H1416 0.930 . S
C1424 N1423 1.305 . S
C1424 C1427 1.407 . S
C1425 H1419 0.930 . S
C1425 C1426 1.410 . S
C1425 C1427 1.345 . S
C1426 C1425 1.410 . S
C1426 C1428 1.417 . S
C1426 C1458 1.432 . S
C1427 H1413 0.930 . S
C1427 C1424 1.407 . S
C1427 C1425 1.345 . S
C1428 N1423 1.360 . S
C1428 C1426 1.417 . S
C1428 C1432 1.432 . S
H1429 C1434 0.930 . S
N1430 Tb1392 2.600 . S
N1430 C1432 1.359 . S
N1430 C1433 1.327 . S
C1431 H1417 0.931 . S
C1431 C1433 1.392 . S
C1431 C1434 1.370 . S
C1432 C1428 1.432 . S
C1432 N1430 1.359 . S
C1432 C1435 1.414 . S
C1433 H1415 0.930 . S
C1433 N1430 1.327 . S
C1433 C1431 1.392 . S
C1434 H1429 0.930 . S
C1434 C1431 1.370 . S
C1434 C1435 1.385 . S
C1435 C1432 1.414 . S
C1435 C1434 1.385 . S
C1435 C1457 1.444 . S
O1436 Tb1392 2.546 . S
O1436 C1456 1.251 . S
O1437 Tb1392 2.610 . S
O1437 Tb1403 2.362 . S
O1437 C1448 1.283 . S
O1438 Tb1403 2.421 . S
O1438 C1455 1.262 . S
O1439 Tb1392 2.320 . S
O1439 C1455 1.260 . S
O1440 Tb1392 2.552 . S
O1440 C1448 1.243 . S
O1441 Tb1392 2.413 . S
O1441 C1456 1.256 . S
O1442 Tb1403 2.546 . S
O1442 C1467 1.251 . S
O1443 Tb1392 2.362 . S
O1443 Tb1403 2.610 . S
O1443 C1459 1.283 . S
O1444 Tb1392 2.421 . S
O1444 C1466 1.262 . S
O1445 Tb1403 2.320 . S
O1445 C1466 1.260 . S
O1446 Tb1403 2.552 . S
O1446 C1459 1.243 . S
O1447 Tb1403 2.413 . S
O1447 C1467 1.256 . S
C1448 O1437 1.283 . S
C1448 O1440 1.243 . S
C1449 C1451 1.382 . S
C1449 C1453 1.393 . S
C1449 C1456 1.500 . S
C1450 C1451 1.400 . S
C1450 C1452 1.384 . S
C1451 C1449 1.382 . S
C1451 C1450 1.400 . S
C1451 H1468 0.930 . S
C1452 C1450 1.384 . S
C1452 C1454 1.392 . S
C1452 H1469 0.931 . S
C1453 C1449 1.393 . S
C1453 C1454 1.401 . S
C1453 H1470 0.930 . S
C1454 C1452 1.392 . S
C1454 C1453 1.401 . S
C1454 H1471 0.930 . S
C1455 O1438 1.262 . S
C1455 O1439 1.260 . S
C1456 Tb1392 2.833 . S
C1456 O1436 1.251 . S
C1456 O1441 1.256 . S
C1456 C1449 1.500 . S
C1457 H1422 0.929 . S
C1457 C1435 1.444 . S
C1457 C1458 1.317 . S
C1458 H1420 0.930 . S
C1458 C1426 1.432 . S
C1458 C1457 1.317 . S
C1459 O1443 1.283 . S
C1459 O1446 1.243 . S
C1460 C1461 1.382 . S
C1460 C1464 1.393 . S
C1460 C1467 1.500 . S
C1461 C1460 1.382 . S
C1461 C1462 1.400 . S
C1461 H1472 0.930 . S
C1462 C1461 1.400 . S
C1462 C1463 1.384 . S
C1463 C1462 1.384 . S
C1463 C1465 1.392 . S
C1463 H1473 0.931 . S
C1464 C1460 1.393 . S
C1464 C1465 1.401 . S
C1464 H1474 0.930 . S
C1465 C1463 1.392 . S
C1465 C1464 1.401 . S
C1465 H1475 0.930 . S
C1466 O1444 1.262 . S
C1466 O1445 1.260 . S
C1467 Tb1403 2.833 . S
C1467 O1442 1.251 . S
C1467 O1447 1.256 . S
C1467 C1460 1.500 . S
H1468 C1451 0.930 . S
H1469 C1452 0.931 . S
H1470 C1453 0.930 . S
H1471 C1454 0.930 . S
H1472 C1461 0.930 . S
H1473 C1463 0.931 . S
H1474 C1464 0.930 . S
H1475 C1465 0.930 . S
C1476 C1477 1.391 . S
C1476 C1478 1.394 . S
C1476 H1492 0.931 . S
C1477 C1476 1.391 . S
C1477 C1481 1.376 . S
C1478 C1476 1.394 . S
C1478 C1479 1.369 . S
C1478 C1482 1.531 . S
C1479 C1478 1.369 . S
C1479 C1480 1.410 . S
C1479 C1487 1.503 . S
C1480 C1479 1.410 . S
C1480 C1481 1.392 . S
C1480 C1483 1.511 . S
C1481 C1477 1.376 . S
C1481 C1480 1.392 . S
C1481 H1493 0.929 . S
C1482 C1478 1.531 . S
C1482 H1494 0.960 . S
C1482 H1495 0.962 . S
C1482 H1496 0.960 . S
C1483 C1480 1.511 . S
C1483 H1497 0.961 . S
C1483 H1498 0.961 . S
C1483 H1499 0.961 . S
C1484 C1485 1.370 . S
C1484 C1486 1.363 . S
C1484 H1500 0.931 . S
C1485 C1484 1.370 . S
C1485 C1489 1.408 . S
C1486 C1484 1.363 . S
C1486 C1487 1.370 . S
C1486 C1490 1.524 . S
C1487 C1479 1.503 . S
C1487 C1486 1.370 . S
C1487 C1488 1.403 . S
C1488 C1487 1.403 . S
C1488 C1489 1.404 . S
C1488 C1491 1.539 . S
C1489 C1485 1.408 . S
C1489 C1488 1.404 . S
C1489 H1501 0.959 . S
C1490 C1486 1.524 . S
C1490 H1502 0.956 . S
C1490 H1503 0.961 . S
C1490 H1504 0.961 . S
C1491 C1488 1.539 . S
C1491 H1505 0.958 1_554 S
C1491 H1506 0.938 1_554 S
C1491 H1507 0.960 . S
H1492 C1476 0.931 . S
H1493 C1481 0.929 . S
H1494 C1482 0.960 . S
H1495 C1482 0.962 . S
H1496 C1482 0.960 . S
H1497 C1483 0.961 . S
H1498 C1483 0.961 . S
H1499 C1483 0.961 . S
H1500 C1484 0.931 . S
H1501 C1489 0.959 . S
H1502 C1490 0.956 . S
H1503 C1490 0.961 . S
H1504 C1490 0.961 . S
H1505 C1491 0.958 1_556 S
H1506 C1491 0.938 1_556 S
H1507 C1491 0.960 . S
C1508 C1509 1.391 . S
C1508 C1510 1.394 . S
C1508 H1524 0.931 . S
C1509 C1508 1.391 . S
C1509 C1513 1.376 . S
C1510 C1508 1.394 . S
C1510 C1511 1.369 . S
C1510 C1514 1.531 . S
C1511 C1510 1.369 . S
C1511 C1512 1.410 . S
C1511 C1519 1.503 . S
C1512 C1511 1.410 . S
C1512 C1513 1.392 . S
C1512 C1515 1.511 . S
C1513 C1509 1.376 . S
C1513 C1512 1.392 . S
C1513 H1525 0.929 . S
C1514 C1510 1.531 . S
C1514 H1526 0.960 . S
C1514 H1527 0.962 . S
C1514 H1528 0.960 . S
C1515 C1512 1.511 . S
C1515 H1529 0.961 . S
C1515 H1530 0.961 . S
C1515 H1531 0.961 . S
C1516 C1517 1.370 . S
C1516 C1518 1.363 . S
C1516 H1532 0.931 . S
C1517 C1516 1.370 . S
C1517 C1521 1.408 . S
C1518 C1516 1.363 . S
C1518 C1519 1.370 . S
C1518 C1522 1.524 . S
C1519 C1511 1.503 . S
C1519 C1518 1.370 . S
C1519 C1520 1.403 . S
C1520 C1519 1.403 . S
C1520 C1521 1.404 . S
C1520 C1523 1.539 . S
C1521 C1517 1.408 . S
C1521 C1520 1.404 . S
C1521 H1533 0.930 . S
C1522 C1518 1.524 . S
C1522 H1534 0.956 . S
C1522 H1535 0.961 . S
C1522 H1536 0.961 . S
C1523 C1520 1.539 . S
C1523 H1537 0.958 . S
C1523 H1538 0.961 . S
C1523 H1539 0.960 . S
H1524 C1508 0.931 . S
H1525 C1513 0.929 . S
H1526 C1514 0.960 . S
H1527 C1514 0.962 . S
H1528 C1514 0.960 . S
H1529 C1515 0.961 . S
H1530 C1515 0.961 . S
H1531 C1515 0.961 . S
H1532 C1516 0.931 . S
H1533 C1521 0.930 . S
H1534 C1522 0.956 . S
H1535 C1522 0.961 . S
H1536 C1522 0.961 . S
H1537 C1523 0.958 . S
H1538 C1523 0.961 . S
H1539 C1523 0.960 . S
C1540 C1541 1.391 . S
C1540 C1542 1.394 . S
C1540 H1556 0.931 . S
C1541 C1540 1.391 . S
C1541 C1545 1.376 . S
C1542 C1540 1.394 . S
C1542 C1543 1.369 . S
C1542 C1546 1.531 . S
C1543 C1542 1.369 . S
C1543 C1544 1.410 . S
C1543 C1551 1.503 . S
C1544 C1543 1.410 . S
C1544 C1545 1.392 . S
C1544 C1547 1.511 . S
C1545 C1541 1.376 . S
C1545 C1544 1.392 . S
C1545 H1557 0.929 . S
C1546 C1542 1.531 . S
C1546 H1558 0.960 . S
C1546 H1559 0.962 . S
C1546 H1560 0.960 . S
C1547 C1544 1.511 . S
C1547 H1561 0.961 . S
C1547 H1562 0.961 . S
C1547 H1563 0.961 . S
C1548 C1549 1.370 . S
C1548 C1550 1.363 . S
C1548 H1564 0.931 . S
C1549 C1548 1.370 . S
C1549 C1553 1.408 . S
C1550 C1548 1.363 . S
C1550 C1551 1.370 . S
C1550 C1554 1.524 . S
C1551 C1543 1.503 . S
C1551 C1550 1.370 . S
C1551 C1552 1.403 . S
C1552 C1551 1.403 . S
C1552 C1553 1.404 . S
C1552 C1555 1.539 . S
C1553 C1549 1.408 . S
C1553 C1552 1.404 . S
C1553 H1565 0.930 . S
C1554 C1550 1.524 . S
C1554 H1566 0.956 . S
C1554 H1567 0.961 . S
C1554 H1568 0.961 1_554 S
C1555 C1552 1.539 . S
C1555 H1569 0.958 . S
C1555 H1570 0.961 . S
C1555 H1571 0.960 . S
H1556 C1540 0.931 . S
H1557 C1545 0.929 . S
H1558 C1546 0.960 . S
H1559 C1546 0.962 . S
H1560 C1546 0.960 . S
H1561 C1547 0.961 . S
H1562 C1547 0.961 . S
H1563 C1547 0.961 . S
H1564 C1548 0.931 . S
H1565 C1553 0.930 . S
H1566 C1554 0.956 . S
H1567 C1554 0.961 . S
H1568 C1554 0.961 1_556 S
H1569 C1555 0.958 . S
H1570 C1555 0.961 . S
H1571 C1555 0.960 . S
C1572 C1573 1.391 . S
C1572 C1574 1.394 . S
C1572 H1588 0.931 . S
C1573 C1572 1.391 . S
C1573 C1577 1.376 . S
C1574 C1572 1.394 . S
C1574 C1575 1.369 . S
C1574 C1578 1.531 . S
C1575 C1574 1.369 . S
C1575 C1576 1.410 . S
C1575 C1583 1.503 . S
C1576 C1575 1.410 . S
C1576 C1577 1.392 . S
C1576 C1579 1.511 . S
C1577 C1573 1.376 . S
C1577 C1576 1.392 . S
C1577 H1589 0.929 . S
C1578 C1574 1.531 . S
C1578 H1590 0.960 . S
C1578 H1591 0.962 . S
C1578 H1592 0.960 . S
C1579 C1576 1.511 . S
C1579 H1593 0.961 . S
C1579 H1594 0.961 . S
C1579 H1595 0.961 . S
C1580 C1581 1.370 . S
C1580 C1582 1.363 . S
C1580 H1596 0.931 . S
C1581 C1580 1.370 . S
C1581 C1585 1.467 . S
C1582 C1580 1.363 . S
C1582 C1583 1.370 . S
C1582 C1586 1.524 . S
C1583 C1575 1.503 . S
C1583 C1582 1.370 . S
C1583 C1584 1.403 . S
C1584 C1583 1.403 . S
C1584 C1585 1.429 . S
C1584 C1587 1.539 1_556 S
C1585 C1581 1.467 . S
C1585 C1584 1.429 . S
C1585 H1597 0.852 1_556 S
C1586 C1582 1.524 . S
C1586 H1598 0.956 . S
C1586 H1599 0.961 . S
C1586 H1600 0.961 . S
C1587 C1584 1.539 1_554 S
C1587 H1601 0.958 . S
C1587 H1602 0.961 . S
C1587 H1603 0.995 . S
H1588 C1572 0.931 . S
H1589 C1577 0.929 . S
H1590 C1578 0.960 . S
H1591 C1578 0.962 . S
H1592 C1578 0.960 . S
H1593 C1579 0.961 . S
H1594 C1579 0.961 . S
H1595 C1579 0.961 . S
H1596 C1580 0.931 . S
H1597 C1585 0.852 1_554 S
H1598 C1586 0.956 . S
H1599 C1586 0.961 . S
H1600 C1586 0.961 . S
H1601 C1587 0.958 . S
H1602 C1587 0.961 . S
H1603 C1587 0.995 . S
C1604 C1605 1.391 . S
C1604 C1606 1.394 . S
C1604 H1620 0.931 . S
C1605 C1604 1.391 . S
C1605 C1609 1.376 . S
C1606 C1604 1.394 . S
C1606 C1607 1.369 . S
C1606 C1610 1.531 . S
C1607 C1606 1.369 . S
C1607 C1608 1.410 . S
C1607 C1615 1.503 . S
C1608 C1607 1.410 . S
C1608 C1609 1.392 . S
C1608 C1611 1.511 . S
C1609 C1605 1.376 . S
C1609 C1608 1.392 . S
C1609 H1621 0.929 . S
C1610 C1606 1.531 . S
C1610 H1622 0.960 . S
C1610 H1623 0.962 . S
C1610 H1624 0.960 . S
C1611 C1608 1.511 . S
C1611 H1625 0.961 . S
C1611 H1626 0.961 . S
C1611 H1627 0.961 . S
C1612 C1613 1.370 . S
C1612 C1614 1.363 . S
C1612 H1628 0.931 1_556 S
C1613 C1612 1.370 . S
C1613 C1617 1.408 . S
C1614 C1612 1.363 . S
C1614 C1615 1.370 . S
C1614 C1618 1.524 . S
C1615 C1607 1.503 . S
C1615 C1614 1.370 . S
C1615 C1616 1.403 . S
C1616 C1615 1.403 . S
C1616 C1617 1.404 . S
C1616 C1619 1.539 . S
C1617 C1613 1.408 . S
C1617 C1616 1.404 . S
C1617 H1629 0.930 . S
C1618 C1614 1.524 . S
C1618 H1630 0.956 . S
C1618 H1631 0.961 . S
C1618 H1632 0.961 1_556 S
C1619 C1616 1.539 . S
C1619 H1633 0.958 . S
C1619 H1634 0.961 . S
C1619 H1635 0.960 . S
H1620 C1604 0.931 . S
H1621 C1609 0.929 . S
H1622 C1610 0.960 . S
H1623 C1610 0.962 . S
H1624 C1610 0.960 . S
H1625 C1611 0.961 . S
H1626 C1611 0.961 . S
H1627 C1611 0.961 . S
H1628 C1612 0.931 1_554 S
H1629 C1617 0.930 . S
H1630 C1618 0.956 . S
H1631 C1618 0.961 . S
H1632 C1618 0.961 1_554 S
H1633 C1619 0.958 . S
H1634 C1619 0.961 . S
H1635 C1619 0.960 . S
C1636 C1637 1.391 . S
C1636 C1638 1.394 . S
C1636 H1652 0.931 . S
C1637 C1636 1.391 . S
C1637 C1641 1.376 . S
C1638 C1636 1.394 . S
C1638 C1639 1.369 . S
C1638 C1642 1.531 . S
C1639 C1638 1.369 . S
C1639 C1640 1.410 . S
C1639 C1647 1.503 . S
C1640 C1639 1.410 . S
C1640 C1641 1.392 . S
C1640 C1643 1.511 . S
C1641 C1637 1.376 . S
C1641 C1640 1.392 . S
C1641 H1653 0.929 . S
C1642 C1638 1.531 . S
C1642 H1654 0.960 . S
C1642 H1655 0.962 . S
C1642 H1656 0.960 . S
C1643 C1640 1.511 . S
C1643 H1657 0.961 . S
C1643 H1658 0.961 . S
C1643 H1659 0.961 . S
C1644 C1645 1.370 . S
C1644 C1646 1.363 . S
C1644 H1660 0.931 1_556 S
C1645 C1644 1.370 . S
C1645 C1649 1.408 . S
C1646 C1644 1.363 . S
C1646 C1647 1.370 . S
C1646 C1650 1.524 1_556 S
C1647 C1639 1.503 . S
C1647 C1646 1.370 . S
C1647 C1648 1.403 . S
C1648 C1647 1.403 . S
C1648 C1649 1.404 . S
C1648 C1651 1.539 . S
C1649 C1645 1.408 . S
C1649 C1648 1.404 . S
C1649 H1661 0.930 . S
C1650 C1646 1.524 1_554 S
C1650 H1662 0.956 . S
C1650 H1663 0.961 1_554 S
C1650 H1664 0.961 . S
C1651 C1648 1.539 . S
C1651 H1665 0.958 . S
C1651 H1666 0.961 . S
C1651 H1667 0.960 . S
H1652 C1636 0.931 . S
H1653 C1641 0.929 . S
H1654 C1642 0.960 . S
H1655 C1642 0.962 . S
H1656 C1642 0.960 . S
H1657 C1643 0.961 . S
H1658 C1643 0.961 . S
H1659 C1643 0.961 . S
H1660 C1644 0.931 1_554 S
H1661 C1649 0.930 . S
H1662 C1650 0.956 . S
H1663 C1650 0.961 1_556 S
H1664 C1650 0.961 . S
H1665 C1651 0.958 . S
H1666 C1651 0.961 . S
H1667 C1651 0.960 . S
C1668 C1669 1.391 . S
C1668 C1670 1.394 . S
C1668 H1684 0.931 . S
C1669 C1668 1.391 . S
C1669 C1673 1.376 . S
C1670 C1668 1.394 . S
C1670 C1671 1.369 . S
C1670 C1674 1.531 . S
C1671 C1670 1.369 . S
C1671 C1672 1.410 . S
C1671 C1679 1.503 . S
C1672 C1671 1.410 . S
C1672 C1673 1.392 . S
C1672 C1675 1.511 . S
C1673 C1669 1.376 . S
C1673 C1672 1.392 . S
C1673 H1685 0.929 . S
C1674 C1670 1.531 . S
C1674 H1686 0.960 . S
C1674 H1687 0.962 . S
C1674 H1688 0.960 . S
C1675 C1672 1.511 . S
C1675 H1689 0.961 . S
C1675 H1690 0.961 . S
C1675 H1691 0.961 1_556 S
C1676 C1677 1.370 . S
C1676 C1678 1.363 . S
C1676 H1692 0.931 . S
C1677 C1676 1.370 . S
C1677 C1681 1.408 . S
C1678 C1676 1.363 . S
C1678 C1679 1.370 . S
C1678 C1682 1.524 . S
C1679 C1671 1.503 . S
C1679 C1678 1.370 . S
C1679 C1680 1.403 . S
C1680 C1679 1.403 . S
C1680 C1681 1.404 . S
C1680 C1683 1.539 . S
C1681 C1677 1.408 . S
C1681 C1680 1.404 . S
C1681 H1693 0.953 . S
C1682 C1678 1.524 . S
C1682 H1694 0.956 . S
C1682 H1695 0.961 . S
C1682 H1696 0.961 . S
C1683 C1680 1.539 . S
C1683 H1697 0.958 . S
C1683 H1698 0.961 1_556 S
C1683 H1699 0.960 . S
H1684 C1668 0.931 . S
H1685 C1673 0.929 . S
H1686 C1674 0.960 . S
H1687 C1674 0.962 . S
H1688 C1674 0.960 . S
H1689 C1675 0.961 . S
H1690 C1675 0.961 . S
H1691 C1675 0.961 1_554 S
H1692 C1676 0.931 . S
H1693 C1681 0.953 . S
H1694 C1682 0.956 . S
H1695 C1682 0.961 . S
H1696 C1682 0.961 . S
H1697 C1683 0.958 . S
H1698 C1683 0.961 1_554 S
H1699 C1683 0.960 . S
C1700 C1701 1.391 . S
C1700 C1702 1.394 . S
C1700 H1716 0.931 . S
C1701 C1700 1.391 . S
C1701 C1705 1.376 . S
C1702 C1700 1.394 . S
C1702 C1703 1.369 . S
C1702 C1706 1.531 . S
C1703 C1702 1.369 . S
C1703 C1704 1.410 . S
C1703 C1711 1.503 . S
C1704 C1703 1.410 . S
C1704 C1705 1.392 . S
C1704 C1707 1.511 . S
C1705 C1701 1.376 . S
C1705 C1704 1.392 . S
C1705 H1717 0.929 . S
C1706 C1702 1.531 . S
C1706 H1718 0.960 . S
C1706 H1719 0.962 . S
C1706 H1720 0.960 . S
C1707 C1704 1.511 . S
C1707 H1721 0.961 . S
C1707 H1722 0.961 . S
C1707 H1723 0.961 . S
C1708 C1709 1.370 . S
C1708 C1710 1.363 . S
C1708 H1724 0.931 1_556 S
C1709 C1708 1.370 . S
C1709 C1713 1.408 . S
C1710 C1708 1.363 . S
C1710 C1711 1.370 . S
C1710 C1714 1.524 . S
C1711 C1703 1.503 . S
C1711 C1710 1.370 . S
C1711 C1712 1.403 . S
C1712 C1711 1.403 . S
C1712 C1713 1.404 . S
C1712 C1715 1.539 . S
C1713 C1709 1.408 . S
C1713 C1712 1.404 . S
C1713 H1725 0.930 . S
C1714 C1710 1.524 . S
C1714 H1726 0.956 . S
C1714 H1727 0.961 . S
C1714 H1728 0.961 1_556 S
C1715 C1712 1.539 . S
C1715 H1729 0.958 . S
C1715 H1730 0.961 . S
C1715 H1731 0.960 . S
H1716 C1700 0.931 . S
H1717 C1705 0.929 . S
H1718 C1706 0.960 . S
H1719 C1706 0.962 . S
H1720 C1706 0.960 . S
H1721 C1707 0.961 . S
H1722 C1707 0.961 . S
H1723 C1707 0.961 . S
H1724 C1708 0.931 1_554 S
H1725 C1713 0.930 . S
H1726 C1714 0.956 . S
H1727 C1714 0.961 . S
H1728 C1714 0.961 1_554 S
H1729 C1715 0.958 . S
H1730 C1715 0.961 . S
H1731 C1715 0.960 . S
C1732 C1733 1.391 . S
C1732 C1734 1.394 . S
C1732 H1748 0.931 . S
C1733 C1732 1.391 . S
C1733 C1737 1.376 . S
C1734 C1732 1.394 . S
C1734 C1735 1.369 . S
C1734 C1738 1.531 . S
C1735 C1734 1.369 . S
C1735 C1736 1.410 . S
C1735 C1743 1.503 . S
C1736 C1735 1.410 . S
C1736 C1737 1.392 . S
C1736 C1739 1.484 1_556 S
C1737 C1733 1.376 . S
C1737 C1736 1.392 . S
C1737 H1749 0.929 . S
C1738 C1734 1.531 . S
C1738 H1750 0.960 . S
C1738 H1751 0.962 . S
C1738 H1752 0.960 . S
C1739 C1736 1.484 1_554 S
C1739 H1753 0.972 . S
C1739 H1754 0.965 . S
C1739 H1755 0.973 . S
C1740 C1741 1.370 . S
C1740 C1742 1.363 . S
C1740 H1756 0.931 . S
C1741 C1740 1.370 . S
C1741 C1745 1.408 . S
C1742 C1740 1.363 . S
C1742 C1743 1.370 . S
C1742 C1746 1.524 . S
C1743 C1735 1.503 . S
C1743 C1742 1.370 . S
C1743 C1744 1.403 . S
C1744 C1743 1.403 . S
C1744 C1745 1.404 . S
C1744 C1747 1.539 . S
C1745 C1741 1.408 . S
C1745 C1744 1.404 . S
C1745 H1757 0.930 . S
C1746 C1742 1.524 . S
C1746 H1758 0.956 . S
C1746 H1759 0.961 . S
C1746 H1760 0.961 . S
C1747 C1744 1.539 . S
C1747 H1761 0.958 . S
C1747 H1762 0.961 . S
C1747 H1763 0.960 . S
H1748 C1732 0.931 . S
H1749 C1737 0.929 . S
H1750 C1738 0.960 . S
H1751 C1738 0.962 . S
H1752 C1738 0.960 . S
H1753 C1739 0.972 . S
H1754 C1739 0.965 . S
H1755 C1739 0.973 . S
H1756 C1740 0.931 . S
H1757 C1745 0.930 . S
H1758 C1746 0.956 . S
H1759 C1746 0.961 . S
H1760 C1746 0.961 . S
H1761 C1747 0.958 . S
H1762 C1747 0.961 . S
H1763 C1747 0.960 . S
C1764 C1765 1.391 . S
C1764 C1766 1.394 . S
C1764 H1780 0.931 . S
C1765 C1764 1.391 . S
C1765 C1769 1.376 . S
C1766 C1764 1.394 . S
C1766 C1767 1.369 . S
C1766 C1770 1.531 . S
C1767 C1766 1.369 . S
C1767 C1768 1.410 . S
C1767 C1775 1.503 . S
C1768 C1767 1.410 . S
C1768 C1769 1.392 . S
C1768 C1771 1.511 . S
C1769 C1765 1.376 . S
C1769 C1768 1.392 . S
C1769 H1781 0.929 . S
C1770 C1766 1.531 . S
C1770 H1782 0.960 . S
C1770 H1783 0.962 . S
C1770 H1784 0.960 . S
C1771 C1768 1.511 . S
C1771 H1785 0.961 . S
C1771 H1786 0.961 . S
C1771 H1787 0.961 . S
C1772 C1773 1.370 . S
C1772 C1774 1.363 . S
C1772 H1788 0.931 . S
C1773 C1772 1.370 . S
C1773 C1777 1.408 . S
C1774 C1772 1.363 . S
C1774 C1775 1.370 . S
C1774 C1778 1.524 . S
C1775 C1767 1.503 . S
C1775 C1774 1.370 . S
C1775 C1776 1.403 . S
C1776 C1775 1.403 . S
C1776 C1777 1.404 . S
C1776 C1779 1.539 . S
C1777 C1773 1.408 . S
C1777 C1776 1.404 . S
C1777 H1789 0.930 . S
C1778 C1774 1.524 . S
C1778 H1790 0.956 . S
C1778 H1791 0.961 . S
C1778 H1792 0.961 . S
C1779 C1776 1.539 . S
C1779 H1793 0.958 . S
C1779 H1794 0.961 . S
C1779 H1795 0.960 . S
H1780 C1764 0.931 . S
H1781 C1769 0.929 . S
H1782 C1770 0.960 . S
H1783 C1770 0.962 . S
H1784 C1770 0.960 . S
H1785 C1771 0.961 . S
H1786 C1771 0.961 . S
H1787 C1771 0.961 . S
H1788 C1772 0.931 . S
H1789 C1777 0.930 . S
H1790 C1778 0.956 . S
H1791 C1778 0.961 . S
H1792 C1778 0.961 . S
H1793 C1779 0.958 . S
H1794 C1779 0.961 . S
H1795 C1779 0.960 . S
C1796 C1797 1.391 . S
C1796 C1798 1.394 . S
C1796 H1812 0.931 . S
C1797 C1796 1.391 . S
C1797 C1801 1.376 . S
C1798 C1796 1.394 . S
C1798 C1799 1.369 . S
C1798 C1802 1.531 . S
C1799 C1798 1.369 . S
C1799 C1800 1.410 . S
C1799 C1807 1.503 . S
C1800 C1799 1.410 . S
C1800 C1801 1.392 . S
C1800 C1803 1.511 . S
C1801 C1797 1.376 . S
C1801 C1800 1.392 . S
C1801 H1813 0.929 . S
C1802 C1798 1.531 . S
C1802 H1814 0.960 . S
C1802 H1815 0.962 . S
C1802 H1816 0.960 . S
C1803 C1800 1.511 . S
C1803 H1817 0.961 . S
C1803 H1818 0.961 . S
C1803 H1819 0.961 . S
C1804 C1805 1.370 . S
C1804 C1806 1.363 . S
C1804 H1820 0.931 . S
C1805 C1804 1.370 . S
C1805 C1809 1.408 . S
C1806 C1804 1.363 . S
C1806 C1807 1.370 . S
C1806 C1810 1.524 . S
C1807 C1799 1.503 . S
C1807 C1806 1.370 . S
C1807 C1808 1.403 . S
C1808 C1807 1.403 . S
C1808 C1809 1.404 . S
C1808 C1811 1.539 . S
C1809 C1805 1.408 . S
C1809 C1808 1.404 . S
C1809 H1821 1.005 . S
C1810 C1806 1.524 . S
C1810 H1822 0.956 . S
C1810 H1823 0.961 . S
C1810 H1824 0.961 . S
C1811 C1808 1.539 . S
C1811 H1825 0.958 . S
C1811 H1826 0.961 1_554 S
C1811 H1827 0.960 . S
H1812 C1796 0.931 . S
H1813 C1801 0.929 . S
H1814 C1802 0.960 . S
H1815 C1802 0.962 . S
H1816 C1802 0.960 . S
H1817 C1803 0.961 . S
H1818 C1803 0.961 . S
H1819 C1803 0.961 . S
H1820 C1804 0.931 . S
H1821 C1809 1.005 . S
H1822 C1810 0.956 . S
H1823 C1810 0.961 . S
H1824 C1810 0.961 . S
H1825 C1811 0.958 . S
H1826 C1811 0.961 1_556 S
H1827 C1811 0.960 . S
C1828 C1829 1.391 . S
C1828 C1830 1.394 . S
C1828 H1844 0.931 . S
C1829 C1828 1.391 . S
C1829 C1833 1.376 . S
C1830 C1828 1.394 . S
C1830 C1831 1.369 . S
C1830 C1834 1.531 . S
C1831 C1830 1.369 . S
C1831 C1832 1.410 . S
C1831 C1839 1.503 . S
C1832 C1831 1.410 . S
C1832 C1833 1.392 . S
C1832 C1835 1.511 . S
C1833 C1829 1.376 . S
C1833 C1832 1.392 . S
C1833 H1845 0.929 . S
C1834 C1830 1.531 . S
C1834 H1846 0.960 . S
C1834 H1847 0.962 . S
C1834 H1848 0.960 . S
C1835 C1832 1.511 . S
C1835 H1849 0.961 . S
C1835 H1850 0.961 . S
C1835 H1851 0.961 . S
C1836 C1837 1.370 . S
C1836 C1838 1.363 . S
C1836 H1852 0.931 . S
C1837 C1836 1.370 . S
C1837 C1841 1.408 . S
C1838 C1836 1.363 . S
C1838 C1839 1.370 . S
C1838 C1842 1.524 . S
C1839 C1831 1.503 . S
C1839 C1838 1.370 . S
C1839 C1840 1.403 . S
C1840 C1839 1.403 . S
C1840 C1841 1.404 . S
C1840 C1843 1.539 . S
C1841 C1837 1.408 . S
C1841 C1840 1.404 . S
C1841 H1853 0.930 . S
C1842 C1838 1.524 . S
C1842 H1854 0.956 . S
C1842 H1855 0.961 . S
C1842 H1856 0.961 . S
C1843 C1840 1.539 . S
C1843 H1857 0.958 . S
C1843 H1858 0.961 . S
C1843 H1859 0.960 . S
H1844 C1828 0.931 . S
H1845 C1833 0.929 . S
H1846 C1834 0.960 . S
H1847 C1834 0.962 . S
H1848 C1834 0.960 . S
H1849 C1835 0.961 . S
H1850 C1835 0.961 . S
H1851 C1835 0.961 . S
H1852 C1836 0.931 . S
H1853 C1841 0.930 . S
H1854 C1842 0.956 . S
H1855 C1842 0.961 . S
H1856 C1842 0.961 . S
H1857 C1843 0.958 . S
H1858 C1843 0.961 . S
H1859 C1843 0.960 . S
C1860 C1861 1.391 . S
C1860 C1862 1.394 . S
C1860 H1876 0.923 1_455 S
C1861 C1860 1.391 . S
C1861 C1865 1.376 . S
C1862 C1860 1.394 . S
C1862 C1863 1.369 . S
C1862 C1866 1.531 . S
C1863 C1862 1.369 . S
C1863 C1864 1.410 . S
C1863 C1871 1.503 . S
C1864 C1863 1.410 . S
C1864 C1865 1.392 . S
C1864 C1867 1.511 . S
C1865 C1861 1.376 . S
C1865 C1864 1.392 . S
C1865 H1877 0.929 . S
C1866 C1862 1.531 . S
C1866 H1878 0.960 . S
C1866 H1879 0.962 . S
C1866 H1880 0.960 . S
C1867 C1864 1.511 . S
C1867 H1881 0.961 . S
C1867 H1882 0.961 . S
C1867 H1883 0.961 . S
C1868 C1869 1.370 . S
C1868 C1870 1.363 . S
C1868 H1884 0.931 . S
C1869 C1868 1.370 . S
C1869 C1873 1.408 . S
C1870 C1868 1.363 . S
C1870 C1871 1.370 . S
C1870 C1874 1.524 . S
C1871 C1863 1.503 . S
C1871 C1870 1.370 . S
C1871 C1872 1.403 . S
C1872 C1871 1.403 . S
C1872 C1873 1.404 . S
C1872 C1875 1.539 . S
C1873 C1869 1.408 . S
C1873 C1872 1.404 . S
C1873 H1885 0.930 . S
C1874 C1870 1.524 . S
C1874 H1886 0.956 . S
C1874 H1887 0.961 . S
C1874 H1888 0.961 . S
C1875 C1872 1.539 . S
C1875 H1889 0.958 . S
C1875 H1890 0.961 . S
C1875 H1891 0.960 . S
H1876 C1860 0.923 1_655 S
H1877 C1865 0.929 . S
H1878 C1866 0.960 . S
H1879 C1866 0.962 . S
H1880 C1866 0.960 . S
H1881 C1867 0.961 . S
H1882 C1867 0.961 . S
H1883 C1867 0.961 . S
H1884 C1868 0.931 . S
H1885 C1873 0.930 . S
H1886 C1874 0.956 . S
H1887 C1874 0.961 . S
H1888 C1874 0.961 . S
H1889 C1875 0.958 . S
H1890 C1875 0.961 . S
H1891 C1875 0.960 . S
C1892 C1893 1.391 . S
C1892 C1894 1.394 . S
C1892 H1908 0.931 . S
C1893 C1892 1.391 . S
C1893 C1897 1.376 . S
C1894 C1892 1.394 . S
C1894 C1895 1.369 . S
C1894 C1898 1.531 . S
C1895 C1894 1.369 . S
C1895 C1896 1.410 . S
C1895 C1903 1.503 . S
C1896 C1895 1.410 . S
C1896 C1897 1.392 . S
C1896 C1899 1.511 . S
C1897 C1893 1.376 . S
C1897 C1896 1.392 . S
C1897 H1909 0.929 . S
C1898 C1894 1.531 . S
C1898 H1910 0.960 . S
C1898 H1911 0.962 . S
C1898 H1912 0.960 . S
C1899 C1896 1.511 . S
C1899 H1913 0.961 . S
C1899 H1914 0.961 . S
C1899 H1915 0.961 . S
C1900 C1901 1.370 . S
C1900 C1902 1.363 . S
C1900 H1916 0.931 . S
C1901 C1900 1.370 . S
C1901 C1905 1.408 . S
C1902 C1900 1.363 . S
C1902 C1903 1.370 . S
C1902 C1906 1.524 . S
C1903 C1895 1.503 . S
C1903 C1902 1.370 . S
C1903 C1904 1.403 . S
C1904 C1903 1.403 . S
C1904 C1905 1.404 . S
C1904 C1907 1.539 . S
C1905 C1901 1.408 . S
C1905 C1904 1.404 . S
C1905 H1917 0.930 . S
C1906 C1902 1.524 . S
C1906 H1918 0.956 . S
C1906 H1919 0.961 . S
C1906 H1920 0.961 . S
C1907 C1904 1.539 . S
C1907 H1921 0.958 . S
C1907 H1922 0.961 . S
C1907 H1923 0.960 . S
H1908 C1892 0.931 . S
H1909 C1897 0.929 . S
H1910 C1898 0.960 . S
H1911 C1898 0.962 . S
H1912 C1898 0.960 . S
H1913 C1899 0.961 . S
H1914 C1899 0.961 . S
H1915 C1899 0.961 . S
H1916 C1900 0.931 . S
H1917 C1905 0.930 . S
H1918 C1906 0.956 . S
H1919 C1906 0.961 . S
H1920 C1906 0.961 . S
H1921 C1907 0.958 . S
H1922 C1907 0.961 . S
H1923 C1907 0.960 . S
C1924 C1925 1.391 1_565 S
C1924 C1926 1.394 . S
C1924 H1940 0.931 1_565 S
C1925 C1924 1.391 1_545 S
C1925 C1929 1.376 1_545 S
C1926 C1924 1.394 . S
C1926 C1927 1.369 . S
C1926 C1930 1.531 . S
C1927 C1926 1.369 . S
C1927 C1928 1.410 . S
C1927 C1935 1.503 . S
C1928 C1927 1.410 . S
C1928 C1929 1.392 . S
C1928 C1931 1.511 . S
C1929 C1925 1.376 1_565 S
C1929 C1928 1.392 . S
C1929 H1941 0.929 1_565 S
C1930 C1926 1.531 . S
C1930 H1942 0.960 . S
C1930 H1943 0.962 . S
C1930 H1944 0.960 . S
C1931 C1928 1.511 . S
C1931 H1945 0.961 . S
C1931 H1946 0.961 . S
C1931 H1947 0.961 . S
C1932 C1933 1.370 . S
C1932 C1934 1.363 . S
C1932 H1948 0.931 . S
C1933 C1932 1.370 . S
C1933 C1937 1.408 . S
C1934 C1932 1.363 . S
C1934 C1935 1.370 . S
C1934 C1938 1.524 . S
C1935 C1927 1.503 . S
C1935 C1934 1.370 . S
C1935 C1936 1.403 . S
C1936 C1935 1.403 . S
C1936 C1937 1.404 . S
C1936 C1939 1.539 . S
C1937 C1933 1.408 . S
C1937 C1936 1.404 . S
C1937 H1949 0.930 . S
C1938 C1934 1.524 . S
C1938 H1950 0.956 . S
C1938 H1951 0.961 . S
C1938 H1952 0.961 . S
C1939 C1936 1.539 . S
C1939 H1953 0.958 . S
C1939 H1954 0.961 . S
C1939 H1955 0.960 . S
H1940 C1924 0.931 1_545 S
H1941 C1929 0.929 1_545 S
H1942 C1930 0.960 . S
H1943 C1930 0.962 . S
H1944 C1930 0.960 . S
H1945 C1931 0.961 . S
H1946 C1931 0.961 . S
H1947 C1931 0.961 . S
H1948 C1932 0.931 . S
H1949 C1937 0.930 . S
H1950 C1938 0.956 . S
H1951 C1938 0.961 . S
H1952 C1938 0.961 . S
H1953 C1939 0.958 . S
H1954 C1939 0.961 . S
H1955 C1939 0.960 . S
C1956 C1957 1.391 . S
C1956 C1958 1.394 . S
C1956 H1972 0.931 . S
C1957 C1956 1.391 . S
C1957 C1961 1.376 . S
C1958 C1956 1.394 . S
C1958 C1959 1.369 . S
C1958 C1962 1.531 . S
C1959 C1958 1.369 . S
C1959 C1960 1.410 . S
C1959 C1967 1.503 . S
C1960 C1959 1.410 . S
C1960 C1961 1.392 . S
C1960 C1963 1.511 . S
C1961 C1957 1.376 . S
C1961 C1960 1.392 . S
C1961 H1973 0.929 . S
C1962 C1958 1.531 . S
C1962 H1974 0.960 . S
C1962 H1975 0.962 . S
C1962 H1976 0.960 . S
C1963 C1960 1.511 . S
C1963 H1977 0.961 . S
C1963 H1978 0.961 . S
C1963 H1979 0.961 . S
C1964 C1965 1.370 . S
C1964 C1966 1.363 . S
C1964 H1980 0.931 . S
C1965 C1964 1.370 . S
C1965 C1969 1.408 . S
C1966 C1964 1.363 . S
C1966 C1967 1.370 . S
C1966 C1970 1.524 . S
C1967 C1959 1.503 . S
C1967 C1966 1.370 . S
C1967 C1968 1.403 . S
C1968 C1967 1.403 . S
C1968 C1969 1.404 . S
C1968 C1971 1.539 . S
C1969 C1965 1.408 . S
C1969 C1968 1.404 . S
C1969 H1981 0.930 . S
C1970 C1966 1.524 . S
C1970 H1982 0.956 . S
C1970 H1983 0.961 . S
C1970 H1984 0.961 . S
C1971 C1968 1.539 . S
C1971 H1985 0.958 . S
C1971 H1986 0.961 . S
C1971 H1987 0.960 . S
H1972 C1956 0.931 . S
H1973 C1961 0.929 . S
H1974 C1962 0.960 . S
H1975 C1962 0.962 . S
H1976 C1962 0.960 . S
H1977 C1963 0.961 . S
H1978 C1963 0.961 . S
H1979 C1963 0.961 . S
H1980 C1964 0.931 . S
H1981 C1969 0.930 . S
H1982 C1970 0.956 . S
H1983 C1970 0.961 . S
H1984 C1970 0.961 . S
H1985 C1971 0.958 . S
H1986 C1971 0.961 . S
H1987 C1971 0.960 . S
C1988 C1989 1.391 . S
C1988 C1990 1.394 . S
C1988 H2004 0.931 . S
C1989 C1988 1.391 . S
C1989 C1993 1.376 . S
C1990 C1988 1.394 . S
C1990 C1991 1.369 . S
C1990 C1994 1.531 . S
C1991 C1990 1.369 . S
C1991 C1992 1.410 . S
C1991 C1999 1.503 . S
C1992 C1991 1.410 . S
C1992 C1993 1.392 . S
C1992 C1995 1.511 . S
C1993 C1989 1.376 . S
C1993 C1992 1.392 . S
C1993 H2005 0.929 . S
C1994 C1990 1.531 . S
C1994 H2006 0.960 . S
C1994 H2007 0.962 . S
C1994 H2008 0.960 . S
C1995 C1992 1.511 . S
C1995 H2009 0.961 . S
C1995 H2010 0.961 . S
C1995 H2011 0.961 . S
C1996 C1997 1.370 . S
C1996 C1998 1.363 . S
C1996 H2012 0.931 . S
C1997 C1996 1.370 . S
C1997 C2001 1.408 . S
C1998 C1996 1.363 . S
C1998 C1999 1.370 . S
C1998 C2002 1.524 . S
C1999 C1991 1.503 . S
C1999 C1998 1.370 . S
C1999 C2000 1.403 . S
C2000 C1999 1.403 . S
C2000 C2001 1.404 . S
C2000 C2003 1.539 . S
C2001 C1997 1.408 . S
C2001 C2000 1.404 . S
C2001 H2013 0.930 . S
C2002 C1998 1.524 . S
C2002 H2014 0.956 . S
C2002 H2015 0.961 . S
C2002 H2016 0.961 . S
C2003 C2000 1.539 . S
C2003 H2017 0.958 . S
C2003 H2018 0.961 . S
C2003 H2019 0.960 . S
H2004 C1988 0.931 . S
H2005 C1993 0.929 . S
H2006 C1994 0.960 . S
H2007 C1994 0.962 . S
H2008 C1994 0.960 . S
H2009 C1995 0.961 . S
H2010 C1995 0.961 . S
H2011 C1995 0.961 . S
H2012 C1996 0.931 . S
H2013 C2001 0.930 . S
H2014 C2002 0.956 . S
H2015 C2002 0.961 . S
H2016 C2002 0.961 . S
H2017 C2003 0.958 . S
H2018 C2003 0.961 . S
H2019 C2003 0.960 . S
C2020 C2021 1.391 . S
C2020 C2022 1.394 . S
C2020 H2036 0.931 . S
C2021 C2020 1.391 . S
C2021 C2025 1.376 . S
C2022 C2020 1.394 . S
C2022 C2023 1.369 . S
C2022 C2026 1.531 . S
C2023 C2022 1.369 . S
C2023 C2024 1.410 . S
C2023 C2031 1.503 . S
C2024 C2023 1.410 . S
C2024 C2025 1.392 . S
C2024 C2027 1.511 . S
C2025 C2021 1.376 . S
C2025 C2024 1.392 . S
C2025 H2037 0.929 . S
C2026 C2022 1.531 . S
C2026 H2038 0.960 . S
C2026 H2039 0.962 . S
C2026 H2040 0.960 . S
C2027 C2024 1.511 . S
C2027 H2041 0.961 . S
C2027 H2042 0.961 . S
C2027 H2043 0.961 . S
C2028 C2029 1.370 . S
C2028 C2030 1.363 . S
C2028 H2044 0.931 . S
C2029 C2028 1.370 . S
C2029 C2033 1.408 . S
C2030 C2028 1.363 . S
C2030 C2031 1.370 . S
C2030 C2034 1.524 . S
C2031 C2023 1.503 . S
C2031 C2030 1.370 . S
C2031 C2032 1.403 . S
C2032 C2031 1.403 . S
C2032 C2033 1.404 . S
C2032 C2035 1.539 . S
C2033 C2029 1.408 . S
C2033 C2032 1.404 . S
C2033 H2045 0.930 . S
C2034 C2030 1.524 . S
C2034 H2046 0.956 . S
C2034 H2047 0.961 . S
C2034 H2048 0.961 . S
C2035 C2032 1.539 . S
C2035 H2049 0.958 . S
C2035 H2050 0.961 . S
C2035 H2051 0.960 . S
H2036 C2020 0.931 . S
H2037 C2025 0.929 . S
H2038 C2026 0.960 . S
H2039 C2026 0.962 . S
H2040 C2026 0.960 . S
H2041 C2027 0.961 . S
H2042 C2027 0.961 . S
H2043 C2027 0.961 . S
H2044 C2028 0.931 . S
H2045 C2033 0.930 . S
H2046 C2034 0.956 . S
H2047 C2034 0.961 . S
H2048 C2034 0.961 . S
H2049 C2035 0.958 . S
H2050 C2035 0.961 . S
H2051 C2035 0.960 . S
C2052 C2053 1.391 . S
C2052 C2054 1.394 . S
C2052 H2068 0.931 . S
C2053 C2052 1.391 . S
C2053 C2057 1.376 . S
C2054 C2052 1.394 . S
C2054 C2055 1.369 . S
C2054 C2058 1.531 . S
C2055 C2054 1.369 . S
C2055 C2056 1.410 . S
C2055 C2063 1.503 . S
C2056 C2055 1.410 . S
C2056 C2057 1.392 . S
C2056 C2059 1.511 . S
C2057 C2053 1.376 . S
C2057 C2056 1.392 . S
C2057 H2069 0.929 . S
C2058 C2054 1.531 . S
C2058 H2070 0.960 . S
C2058 H2071 0.962 . S
C2058 H2072 0.960 . S
C2059 C2056 1.511 . S
C2059 H2073 0.961 . S
C2059 H2074 0.961 . S
C2059 H2075 0.961 . S
C2060 C2061 1.370 . S
C2060 C2062 1.363 . S
C2060 H2076 0.931 . S
C2061 C2060 1.370 . S
C2061 C2065 1.408 . S
C2062 C2060 1.363 . S
C2062 C2063 1.370 . S
C2062 C2066 1.524 . S
C2063 C2055 1.503 . S
C2063 C2062 1.370 . S
C2063 C2064 1.403 . S
C2064 C2063 1.403 . S
C2064 C2065 1.404 . S
C2064 C2067 1.539 . S
C2065 C2061 1.408 . S
C2065 C2064 1.404 . S
C2065 H2077 0.930 . S
C2066 C2062 1.524 . S
C2066 H2078 0.956 . S
C2066 H2079 0.961 . S
C2066 H2080 0.961 . S
C2067 C2064 1.539 . S
C2067 H2081 0.958 . S
C2067 H2082 0.961 . S
C2067 H2083 0.960 . S
H2068 C2052 0.931 . S
H2069 C2057 0.929 . S
H2070 C2058 0.960 . S
H2071 C2058 0.962 . S
H2072 C2058 0.960 . S
H2073 C2059 0.961 . S
H2074 C2059 0.961 . S
H2075 C2059 0.961 . S
H2076 C2060 0.931 . S
H2077 C2065 0.930 . S
H2078 C2066 0.956 . S
H2079 C2066 0.961 . S
H2080 C2066 0.961 . S
H2081 C2067 0.958 . S
H2082 C2067 0.961 . S
H2083 C2067 0.960 . S
C2084 C2085 1.391 . S
C2084 C2086 1.394 . S
C2084 H2100 0.931 . S
C2085 C2084 1.391 . S
C2085 C2089 1.376 . S
C2086 C2084 1.394 . S
C2086 C2087 1.369 . S
C2086 C2090 1.531 . S
C2087 C2086 1.369 . S
C2087 C2088 1.410 . S
C2087 C2095 1.503 . S
C2088 C2087 1.410 . S
C2088 C2089 1.392 . S
C2088 C2091 1.511 . S
C2089 C2085 1.376 . S
C2089 C2088 1.392 . S
C2089 H2101 0.929 . S
C2090 C2086 1.531 . S
C2090 H2102 0.960 . S
C2090 H2103 0.962 . S
C2090 H2104 0.960 . S
C2091 C2088 1.511 . S
C2091 H2105 0.961 . S
C2091 H2106 0.961 . S
C2091 H2107 0.961 . S
C2092 C2093 1.370 . S
C2092 C2094 1.363 . S
C2092 H2108 0.931 . S
C2093 C2092 1.370 . S
C2093 C2097 1.408 . S
C2094 C2092 1.363 . S
C2094 C2095 1.370 . S
C2094 C2098 1.524 . S
C2095 C2087 1.503 . S
C2095 C2094 1.370 . S
C2095 C2096 1.403 . S
C2096 C2095 1.403 . S
C2096 C2097 1.404 . S
C2096 C2099 1.539 . S
C2097 C2093 1.408 . S
C2097 C2096 1.404 . S
C2097 H2109 0.930 . S
C2098 C2094 1.524 . S
C2098 H2110 0.956 . S
C2098 H2111 0.961 . S
C2098 H2112 0.961 . S
C2099 C2096 1.539 . S
C2099 H2113 0.958 . S
C2099 H2114 0.961 . S
C2099 H2115 0.960 . S
H2100 C2084 0.931 . S
H2101 C2089 0.929 . S
H2102 C2090 0.960 . S
H2103 C2090 0.962 . S
H2104 C2090 0.960 . S
H2105 C2091 0.961 . S
H2106 C2091 0.961 . S
H2107 C2091 0.961 . S
H2108 C2092 0.931 . S
H2109 C2097 0.930 . S
H2110 C2098 0.956 . S
H2111 C2098 0.961 . S
H2112 C2098 0.961 . S
H2113 C2099 0.958 . S
H2114 C2099 0.961 . S
H2115 C2099 0.960 . S
C2116 C2117 1.391 . S
C2116 C2118 1.394 . S
C2116 H2132 0.931 . S
C2117 C2116 1.391 . S
C2117 C2121 1.376 . S
C2118 C2116 1.394 . S
C2118 C2119 1.369 . S
C2118 C2122 1.531 . S
C2119 C2118 1.369 . S
C2119 C2120 1.410 . S
C2119 C2127 1.503 . S
C2120 C2119 1.410 . S
C2120 C2121 1.392 . S
C2120 C2123 1.511 . S
C2121 C2117 1.376 . S
C2121 C2120 1.392 . S
C2121 H2133 0.929 . S
C2122 C2118 1.531 . S
C2122 H2134 0.960 . S
C2122 H2135 0.962 . S
C2122 H2136 0.960 . S
C2123 C2120 1.511 . S
C2123 H2137 0.961 . S
C2123 H2138 0.961 . S
C2123 H2139 0.961 . S
C2124 C2125 1.370 . S
C2124 C2126 1.363 . S
C2124 H2140 0.931 . S
C2125 C2124 1.370 . S
C2125 C2129 1.408 . S
C2126 C2124 1.363 . S
C2126 C2127 1.370 . S
C2126 C2130 1.524 . S
C2127 C2119 1.503 . S
C2127 C2126 1.370 . S
C2127 C2128 1.403 . S
C2128 C2127 1.403 . S
C2128 C2129 1.404 . S
C2128 C2131 1.539 . S
C2129 C2125 1.408 . S
C2129 C2128 1.404 . S
C2129 H2141 0.930 . S
C2130 C2126 1.524 . S
C2130 H2142 0.956 . S
C2130 H2143 0.961 . S
C2130 H2144 0.961 . S
C2131 C2128 1.539 . S
C2131 H2145 0.958 . S
C2131 H2146 0.961 . S
C2131 H2147 0.960 . S
H2132 C2116 0.931 . S
H2133 C2121 0.929 . S
H2134 C2122 0.960 . S
H2135 C2122 0.962 . S
H2136 C2122 0.960 . S
H2137 C2123 0.961 . S
H2138 C2123 0.961 . S
H2139 C2123 0.961 . S
H2140 C2124 0.931 . S
H2141 C2129 0.930 . S
H2142 C2130 0.956 . S
H2143 C2130 0.961 . S
H2144 C2130 0.961 . S
H2145 C2131 0.958 . S
H2146 C2131 0.961 . S
H2147 C2131 0.960 . S
C2148 C2149 1.391 1_565 S
C2148 C2150 1.394 . S
C2148 H2164 0.931 1_565 S
C2149 C2148 1.391 1_545 S
C2149 C2153 1.376 1_545 S
C2150 C2148 1.394 . S
C2150 C2151 1.369 . S
C2150 C2154 1.531 . S
C2151 C2150 1.369 . S
C2151 C2152 1.410 . S
C2151 C2159 1.503 . S
C2152 C2151 1.410 . S
C2152 C2153 1.392 . S
C2152 C2155 1.511 . S
C2153 C2149 1.376 1_565 S
C2153 C2152 1.392 . S
C2153 H2165 0.929 . S
C2154 C2150 1.531 . S
C2154 H2166 0.960 . S
C2154 H2167 0.962 . S
C2154 H2168 0.960 . S
C2155 C2152 1.511 . S
C2155 H2169 0.961 . S
C2155 H2170 0.961 . S
C2155 H2171 0.961 . S
C2156 C2157 1.370 . S
C2156 C2158 1.363 . S
C2156 H2172 0.931 . S
C2157 C2156 1.370 . S
C2157 C2161 1.408 . S
C2158 C2156 1.363 . S
C2158 C2159 1.370 . S
C2158 C2162 1.524 . S
C2159 C2151 1.503 . S
C2159 C2158 1.370 . S
C2159 C2160 1.403 . S
C2160 C2159 1.403 . S
C2160 C2161 1.404 . S
C2160 C2163 1.539 . S
C2161 C2157 1.408 . S
C2161 C2160 1.404 . S
C2161 H2173 0.930 . S
C2162 C2158 1.524 . S
C2162 H2174 0.956 . S
C2162 H2175 0.961 . S
C2162 H2176 0.961 . S
C2163 C2160 1.539 . S
C2163 H2177 0.958 . S
C2163 H2178 0.961 . S
C2163 H2179 0.960 . S
H2164 C2148 0.931 1_545 S
H2165 C2153 0.929 . S
H2166 C2154 0.960 . S
H2167 C2154 0.962 . S
H2168 C2154 0.960 . S
H2169 C2155 0.961 . S
H2170 C2155 0.961 . S
H2171 C2155 0.961 . S
H2172 C2156 0.931 . S
H2173 C2161 0.930 . S
H2174 C2162 0.956 . S
H2175 C2162 0.961 . S
H2176 C2162 0.961 . S
H2177 C2163 0.958 . S
H2178 C2163 0.961 . S
H2179 C2163 0.960 . S
C2180 C2181 1.391 . S
C2180 C2182 1.394 . S
C2180 H2196 0.931 . S
C2181 C2180 1.391 . S
C2181 C2185 1.376 . S
C2182 C2180 1.394 . S
C2182 C2183 1.369 . S
C2182 C2186 1.531 . S
C2183 C2182 1.369 . S
C2183 C2184 1.410 . S
C2183 C2191 1.503 . S
C2184 C2183 1.410 . S
C2184 C2185 1.392 . S
C2184 C2187 1.511 . S
C2185 C2181 1.376 . S
C2185 C2184 1.392 . S
C2185 H2197 0.929 . S
C2186 C2182 1.531 . S
C2186 H2198 0.960 . S
C2186 H2199 0.962 . S
C2186 H2200 0.960 . S
C2187 C2184 1.511 . S
C2187 H2201 0.961 . S
C2187 H2202 0.961 . S
C2187 H2203 0.961 . S
C2188 C2189 1.370 . S
C2188 C2190 1.363 . S
C2188 H2204 0.931 . S
C2189 C2188 1.370 . S
C2189 C2193 1.408 . S
C2190 C2188 1.363 . S
C2190 C2191 1.370 . S
C2190 C2194 1.524 . S
C2191 C2183 1.503 . S
C2191 C2190 1.370 . S
C2191 C2192 1.403 . S
C2192 C2191 1.403 . S
C2192 C2193 1.404 . S
C2192 C2195 1.539 . S
C2193 C2189 1.408 . S
C2193 C2192 1.404 . S
C2193 H2205 0.930 . S
C2194 C2190 1.524 . S
C2194 H2206 0.956 . S
C2194 H2207 0.961 . S
C2194 H2208 0.961 . S
C2195 C2192 1.539 . S
C2195 H2209 0.958 . S
C2195 H2210 0.961 . S
C2195 H2211 0.960 . S
H2196 C2180 0.931 . S
H2197 C2185 0.929 . S
H2198 C2186 0.960 . S
H2199 C2186 0.962 . S
H2200 C2186 0.960 . S
H2201 C2187 0.961 . S
H2202 C2187 0.961 . S
H2203 C2187 0.961 . S
H2204 C2188 0.931 . S
H2205 C2193 0.930 . S
H2206 C2194 0.956 . S
H2207 C2194 0.961 . S
H2208 C2194 0.961 . S
H2209 C2195 0.958 . S
H2210 C2195 0.961 . S
H2211 C2195 0.960 . S
C2212 C2213 1.391 . S
C2212 C2214 1.394 . S
C2212 H2228 0.931 . S
C2213 C2212 1.391 . S
C2213 C2217 1.376 . S
C2214 C2212 1.394 . S
C2214 C2215 1.369 . S
C2214 C2218 1.531 . S
C2215 C2214 1.369 . S
C2215 C2216 1.410 . S
C2215 C2223 1.503 . S
C2216 C2215 1.410 . S
C2216 C2217 1.392 . S
C2216 C2219 1.511 . S
C2217 C2213 1.376 . S
C2217 C2216 1.392 . S
C2217 H2229 0.929 . S
C2218 C2214 1.531 . S
C2218 H2230 0.960 . S
C2218 H2231 0.962 . S
C2218 H2232 0.960 . S
C2219 C2216 1.511 . S
C2219 H2233 0.961 . S
C2219 H2234 0.961 . S
C2219 H2235 0.961 . S
C2220 C2221 1.370 . S
C2220 C2222 1.363 . S
C2220 H2236 0.931 . S
C2221 C2220 1.370 . S
C2221 C2225 1.408 . S
C2222 C2220 1.363 . S
C2222 C2223 1.370 . S
C2222 C2226 1.524 . S
C2223 C2215 1.503 . S
C2223 C2222 1.370 . S
C2223 C2224 1.403 . S
C2224 C2223 1.403 . S
C2224 C2225 1.404 . S
C2224 C2227 1.539 . S
C2225 C2221 1.408 . S
C2225 C2224 1.404 . S
C2225 H2237 0.930 . S
C2226 C2222 1.524 . S
C2226 H2238 0.956 . S
C2226 H2239 0.961 . S
C2226 H2240 0.961 . S
C2227 C2224 1.539 . S
C2227 H2241 0.958 . S
C2227 H2242 0.961 . S
C2227 H2243 0.960 . S
H2228 C2212 0.931 . S
H2229 C2217 0.929 . S
H2230 C2218 0.960 . S
H2231 C2218 0.962 . S
H2232 C2218 0.960 . S
H2233 C2219 0.961 . S
H2234 C2219 0.961 . S
H2235 C2219 0.961 . S
H2236 C2220 0.931 . S
H2237 C2225 0.930 . S
H2238 C2226 0.956 . S
H2239 C2226 0.961 . S
H2240 C2226 0.961 . S
H2241 C2227 0.958 . S
H2242 C2227 0.961 . S
H2243 C2227 0.960 . S
C2244 C2245 1.391 . S
C2244 C2246 1.394 . S
C2244 H2260 0.931 . S
C2245 C2244 1.391 . S
C2245 C2249 1.376 . S
C2246 C2244 1.394 . S
C2246 C2247 1.369 . S
C2246 C2250 1.531 . S
C2247 C2246 1.369 . S
C2247 C2248 1.410 . S
C2247 C2255 1.503 . S
C2248 C2247 1.410 . S
C2248 C2249 1.392 . S
C2248 C2251 1.511 . S
C2249 C2245 1.376 . S
C2249 C2248 1.392 . S
C2249 H2261 0.929 . S
C2250 C2246 1.531 . S
C2250 H2262 0.960 . S
C2250 H2263 0.962 . S
C2250 H2264 0.960 . S
C2251 C2248 1.511 . S
C2251 H2265 0.961 . S
C2251 H2266 0.961 . S
C2251 H2267 0.961 . S
C2252 C2253 1.370 . S
C2252 C2254 1.363 . S
C2252 H2268 0.931 . S
C2253 C2252 1.370 . S
C2253 C2257 1.408 . S
C2254 C2252 1.363 . S
C2254 C2255 1.370 . S
C2254 C2258 1.524 . S
C2255 C2247 1.503 . S
C2255 C2254 1.370 . S
C2255 C2256 1.403 . S
C2256 C2255 1.403 . S
C2256 C2257 1.404 . S
C2256 C2259 1.539 . S
C2257 C2253 1.408 . S
C2257 C2256 1.404 . S
C2257 H2269 0.930 . S
C2258 C2254 1.524 . S
C2258 H2270 0.956 . S
C2258 H2271 0.961 . S
C2258 H2272 0.961 . S
C2259 C2256 1.539 . S
C2259 H2273 0.958 . S
C2259 H2274 0.961 . S
C2259 H2275 0.960 . S
H2260 C2244 0.931 . S
H2261 C2249 0.929 . S
H2262 C2250 0.960 . S
H2263 C2250 0.962 . S
H2264 C2250 0.960 . S
H2265 C2251 0.961 . S
H2266 C2251 0.961 . S
H2267 C2251 0.961 . S
H2268 C2252 0.931 . S
H2269 C2257 0.930 . S
H2270 C2258 0.956 . S
H2271 C2258 0.961 . S
H2272 C2258 0.961 . S
H2273 C2259 0.958 . S
H2274 C2259 0.961 . S
H2275 C2259 0.960 . S
C2276 C2277 1.391 . S
C2276 C2278 1.394 . S
C2276 H2292 0.931 . S
C2277 C2276 1.391 . S
C2277 C2281 1.376 . S
C2278 C2276 1.394 . S
C2278 C2279 1.369 . S
C2278 C2282 1.531 . S
C2279 C2278 1.369 . S
C2279 C2280 1.410 . S
C2279 C2287 1.503 . S
C2280 C2279 1.410 . S
C2280 C2281 1.392 . S
C2280 C2283 1.511 . S
C2281 C2277 1.376 . S
C2281 C2280 1.392 . S
C2281 H2293 0.929 . S
C2282 C2278 1.531 . S
C2282 H2294 0.960 . S
C2282 H2295 0.962 . S
C2282 H2296 0.960 . S
C2283 C2280 1.511 . S
C2283 H2297 0.961 . S
C2283 H2298 0.961 . S
C2283 H2299 0.961 . S
C2284 C2285 1.370 . S
C2284 C2286 1.363 . S
C2284 H2300 0.931 . S
C2285 C2284 1.370 . S
C2285 C2289 1.408 . S
C2286 C2284 1.363 . S
C2286 C2287 1.370 . S
C2286 C2290 1.524 . S
C2287 C2279 1.503 . S
C2287 C2286 1.370 . S
C2287 C2288 1.403 . S
C2288 C2287 1.403 . S
C2288 C2289 1.404 . S
C2288 C2291 1.539 . S
C2289 C2285 1.408 . S
C2289 C2288 1.404 . S
C2289 H2301 0.930 . S
C2290 C2286 1.524 . S
C2290 H2302 0.956 . S
C2290 H2303 0.961 . S
C2290 H2304 0.961 . S
C2291 C2288 1.539 . S
C2291 H2305 0.958 . S
C2291 H2306 0.961 . S
C2291 H2307 0.960 . S
H2292 C2276 0.931 . S
H2293 C2281 0.929 . S
H2294 C2282 0.960 . S
H2295 C2282 0.962 . S
H2296 C2282 0.960 . S
H2297 C2283 0.961 . S
H2298 C2283 0.961 . S
H2299 C2283 0.961 . S
H2300 C2284 0.931 . S
H2301 C2289 0.930 . S
H2302 C2290 0.956 . S
H2303 C2290 0.961 . S
H2304 C2290 0.961 . S
H2305 C2291 0.958 . S
H2306 C2291 0.961 . S
H2307 C2291 0.960 . S
C2308 C2309 1.391 . S
C2308 C2310 1.394 . S
C2308 H2324 0.931 . S
C2309 C2308 1.391 . S
C2309 C2313 1.376 . S
C2310 C2308 1.394 . S
C2310 C2311 1.369 . S
C2310 C2314 1.531 . S
C2311 C2310 1.369 . S
C2311 C2312 1.410 . S
C2311 C2319 1.503 . S
C2312 C2311 1.410 . S
C2312 C2313 1.392 . S
C2312 C2315 1.511 . S
C2313 C2309 1.376 . S
C2313 C2312 1.392 . S
C2313 H2325 0.929 . S
C2314 C2310 1.531 . S
C2314 H2326 0.960 . S
C2314 H2327 0.962 . S
C2314 H2328 0.960 . S
C2315 C2312 1.511 . S
C2315 H2329 0.961 . S
C2315 H2330 0.961 . S
C2315 H2331 0.961 . S
C2316 C2317 1.370 . S
C2316 C2318 1.363 . S
C2316 H2332 0.931 . S
C2317 C2316 1.370 . S
C2317 C2321 1.408 . S
C2318 C2316 1.363 . S
C2318 C2319 1.370 . S
C2318 C2322 1.524 . S
C2319 C2311 1.503 . S
C2319 C2318 1.370 . S
C2319 C2320 1.403 . S
C2320 C2319 1.403 . S
C2320 C2321 1.404 . S
C2320 C2323 1.539 . S
C2321 C2317 1.408 . S
C2321 C2320 1.404 . S
C2321 H2333 0.930 . S
C2322 C2318 1.524 . S
C2322 H2334 0.956 . S
C2322 H2335 0.961 . S
C2322 H2336 0.961 . S
C2323 C2320 1.539 . S
C2323 H2337 0.958 . S
C2323 H2338 0.961 . S
C2323 H2339 0.960 . S
H2324 C2308 0.931 . S
H2325 C2313 0.929 . S
H2326 C2314 0.960 . S
H2327 C2314 0.962 . S
H2328 C2314 0.960 . S
H2329 C2315 0.961 . S
H2330 C2315 0.961 . S
H2331 C2315 0.961 . S
H2332 C2316 0.931 . S
H2333 C2321 0.930 . S
H2334 C2322 0.956 . S
H2335 C2322 0.961 . S
H2336 C2322 0.961 . S
H2337 C2323 0.958 . S
H2338 C2323 0.961 . S
H2339 C2323 0.960 . S
C2340 C2341 1.373 1_545 S
C2340 C2342 1.394 . S
C2340 H2356 0.931 . S
C2341 C2340 1.373 1_565 S
C2341 C2345 1.375 1_565 S
C2342 C2340 1.394 . S
C2342 C2343 1.369 . S
C2342 C2346 1.531 . S
C2343 C2342 1.369 . S
C2343 C2344 1.410 . S
C2343 C2351 1.503 . S
C2344 C2343 1.410 . S
C2344 C2345 1.392 . S
C2344 C2347 1.511 . S
C2345 C2341 1.375 1_545 S
C2345 C2344 1.392 . S
C2345 H2357 0.929 . S
C2346 C2342 1.531 . S
C2346 H2358 0.960 . S
C2346 H2359 0.962 . S
C2346 H2360 0.960 . S
C2347 C2344 1.511 . S
C2347 H2361 0.961 . S
C2347 H2362 0.961 . S
C2347 H2363 0.961 . S
C2348 C2349 1.370 . S
C2348 C2350 1.363 . S
C2348 H2364 0.931 . S
C2349 C2348 1.370 . S
C2349 C2353 1.408 . S
C2350 C2348 1.363 . S
C2350 C2351 1.370 . S
C2350 C2354 1.524 . S
C2351 C2343 1.503 . S
C2351 C2350 1.370 . S
C2351 C2352 1.403 . S
C2352 C2351 1.403 . S
C2352 C2353 1.404 . S
C2352 C2355 1.539 . S
C2353 C2349 1.408 . S
C2353 C2352 1.404 . S
C2353 H2365 0.930 . S
C2354 C2350 1.524 . S
C2354 H2366 0.956 . S
C2354 H2367 0.961 . S
C2354 H2368 0.961 . S
C2355 C2352 1.539 . S
C2355 H2369 0.958 . S
C2355 H2370 0.961 . S
C2355 H2371 0.960 . S
H2356 C2340 0.931 . S
H2357 C2345 0.929 . S
H2358 C2346 0.960 . S
H2359 C2346 0.962 . S
H2360 C2346 0.960 . S
H2361 C2347 0.961 . S
H2362 C2347 0.961 . S
H2363 C2347 0.961 . S
H2364 C2348 0.931 . S
H2365 C2353 0.930 . S
H2366 C2354 0.956 . S
H2367 C2354 0.961 . S
H2368 C2354 0.961 . S
H2369 C2355 0.958 . S
H2370 C2355 0.961 . S
H2371 C2355 0.960 . S
C2372 C2373 1.391 . S
C2372 C2374 1.394 . S
C2372 H2388 0.931 1_655 S
C2373 C2372 1.391 . S
C2373 C2377 1.376 . S
C2374 C2372 1.394 . S
C2374 C2375 1.369 . S
C2374 C2378 1.531 . S
C2375 C2374 1.369 . S
C2375 C2376 1.410 . S
C2375 C2383 1.503 . S
C2376 C2375 1.410 . S
C2376 C2377 1.392 . S
C2376 C2379 1.511 . S
C2377 C2373 1.376 . S
C2377 C2376 1.392 . S
C2377 H2389 0.929 . S
C2378 C2374 1.531 . S
C2378 H2390 0.960 . S
C2378 H2391 0.962 . S
C2378 H2392 0.960 . S
C2379 C2376 1.511 . S
C2379 H2393 0.961 . S
C2379 H2394 0.961 . S
C2379 H2395 0.961 . S
C2380 C2381 1.370 . S
C2380 C2382 1.363 . S
C2380 H2396 0.931 . S
C2381 C2380 1.370 . S
C2381 C2385 1.408 . S
C2382 C2380 1.363 . S
C2382 C2383 1.370 . S
C2382 C2386 1.524 . S
C2383 C2375 1.503 . S
C2383 C2382 1.370 . S
C2383 C2384 1.403 . S
C2384 C2383 1.403 . S
C2384 C2385 1.404 . S
C2384 C2387 1.539 . S
C2385 C2381 1.408 . S
C2385 C2384 1.404 . S
C2385 H2397 0.930 . S
C2386 C2382 1.524 . S
C2386 H2398 0.956 . S
C2386 H2399 0.961 . S
C2386 H2400 0.961 . S
C2387 C2384 1.539 . S
C2387 H2401 0.958 . S
C2387 H2402 0.961 . S
C2387 H2403 0.960 . S
H2388 C2372 0.931 1_455 S
H2389 C2377 0.929 . S
H2390 C2378 0.960 . S
H2391 C2378 0.962 . S
H2392 C2378 0.960 . S
H2393 C2379 0.961 . S
H2394 C2379 0.961 . S
H2395 C2379 0.961 . S
H2396 C2380 0.931 . S
H2397 C2385 0.930 . S
H2398 C2386 0.956 . S
H2399 C2386 0.961 . S
H2400 C2386 0.961 . S
H2401 C2387 0.958 . S
H2402 C2387 0.961 . S
H2403 C2387 0.960 . S
C2404 C2405 1.391 . S
C2404 C2406 1.394 . S
C2404 H2420 0.931 . S
C2405 C2404 1.391 . S
C2405 C2409 1.376 . S
C2406 C2404 1.394 . S
C2406 C2407 1.369 . S
C2406 C2410 1.531 . S
C2407 C2406 1.369 . S
C2407 C2408 1.410 . S
C2407 C2415 1.503 . S
C2408 C2407 1.410 . S
C2408 C2409 1.392 . S
C2408 C2411 1.511 . S
C2409 C2405 1.376 . S
C2409 C2408 1.392 . S
C2409 H2421 0.929 . S
C2410 C2406 1.531 . S
C2410 H2422 0.960 . S
C2410 H2423 0.962 . S
C2410 H2424 0.960 . S
C2411 C2408 1.511 . S
C2411 H2425 0.961 . S
C2411 H2426 0.961 . S
C2411 H2427 0.961 . S
C2412 C2413 1.370 . S
C2412 C2414 1.363 . S
C2412 H2428 0.931 . S
C2413 C2412 1.370 . S
C2413 C2417 1.408 . S
C2414 C2412 1.363 . S
C2414 C2415 1.370 . S
C2414 C2418 1.524 . S
C2415 C2407 1.503 . S
C2415 C2414 1.370 . S
C2415 C2416 1.403 . S
C2416 C2415 1.403 . S
C2416 C2417 1.404 . S
C2416 C2419 1.539 . S
C2417 C2413 1.408 . S
C2417 C2416 1.404 . S
C2417 H2429 0.930 . S
C2418 C2414 1.524 . S
C2418 H2430 0.956 . S
C2418 H2431 0.961 . S
C2418 H2432 0.961 . S
C2419 C2416 1.539 . S
C2419 H2433 0.958 . S
C2419 H2434 0.961 . S
C2419 H2435 0.960 . S
H2420 C2404 0.931 . S
H2421 C2409 0.929 . S
H2422 C2410 0.960 . S
H2423 C2410 0.962 . S
H2424 C2410 0.960 . S
H2425 C2411 0.961 . S
H2426 C2411 0.961 . S
H2427 C2411 0.961 . S
H2428 C2412 0.931 . S
H2429 C2417 0.930 . S
H2430 C2418 0.956 . S
H2431 C2418 0.961 . S
H2432 C2418 0.961 . S
H2433 C2419 0.958 . S
H2434 C2419 0.961 . S
H2435 C2419 0.960 . S
C2436 C2437 1.389 . S
C2436 C2438 1.394 . S
C2436 H2452 0.931 1_655 S
C2437 C2436 1.389 . S
C2437 C2441 1.386 . S
C2438 C2436 1.394 . S
C2438 C2439 1.369 . S
C2438 C2442 1.531 . S
C2439 C2438 1.369 . S
C2439 C2440 1.410 . S
C2439 C2447 1.503 . S
C2440 C2439 1.410 . S
C2440 C2441 1.392 . S
C2440 C2443 1.511 . S
C2441 C2437 1.386 . S
C2441 C2440 1.392 . S
C2441 H2453 0.929 . S
C2442 C2438 1.531 . S
C2442 H2454 0.960 . S
C2442 H2455 0.962 . S
C2442 H2456 0.960 . S
C2443 C2440 1.511 . S
C2443 H2457 0.961 . S
C2443 H2458 0.961 . S
C2443 H2459 0.961 . S
C2444 C2445 1.370 . S
C2444 C2446 1.363 . S
C2444 H2460 0.931 . S
C2445 C2444 1.370 . S
C2445 C2449 1.408 . S
C2446 C2444 1.363 . S
C2446 C2447 1.370 . S
C2446 C2450 1.524 . S
C2447 C2439 1.503 . S
C2447 C2446 1.370 . S
C2447 C2448 1.403 . S
C2448 C2447 1.403 . S
C2448 C2449 1.404 . S
C2448 C2451 1.539 . S
C2449 C2445 1.408 . S
C2449 C2448 1.404 . S
C2449 H2461 0.930 . S
C2450 C2446 1.524 . S
C2450 H2462 0.956 . S
C2450 H2463 0.961 . S
C2450 H2464 0.961 . S
C2451 C2448 1.539 . S
C2451 H2465 0.958 . S
C2451 H2466 0.961 . S
C2451 H2467 0.960 . S
H2452 C2436 0.931 1_455 S
H2453 C2441 0.929 . S
H2454 C2442 0.960 . S
H2455 C2442 0.962 . S
H2456 C2442 0.960 . S
H2457 C2443 0.961 . S
H2458 C2443 0.961 . S
H2459 C2443 0.961 . S
H2460 C2444 0.931 . S
H2461 C2449 0.930 . S
H2462 C2450 0.956 . S
H2463 C2450 0.961 . S
H2464 C2450 0.961 . S
H2465 C2451 0.958 . S
H2466 C2451 0.961 . S
H2467 C2451 0.960 . S
C2468 C2469 1.391 . S
C2468 C2470 1.394 . S
C2468 H2484 0.931 . S
C2469 C2468 1.391 . S
C2469 C2473 1.376 . S
C2470 C2468 1.394 . S
C2470 C2471 1.369 . S
C2470 C2474 1.531 . S
C2471 C2470 1.369 . S
C2471 C2472 1.410 . S
C2471 C2479 1.503 . S
C2472 C2471 1.410 . S
C2472 C2473 1.392 . S
C2472 C2475 1.511 . S
C2473 C2469 1.376 . S
C2473 C2472 1.392 . S
C2473 H2485 0.929 . S
C2474 C2470 1.531 . S
C2474 H2486 0.960 . S
C2474 H2487 0.962 . S
C2474 H2488 0.960 . S
C2475 C2472 1.511 . S
C2475 H2489 0.961 . S
C2475 H2490 0.961 . S
C2475 H2491 0.961 . S
C2476 C2477 1.370 . S
C2476 C2478 1.363 . S
C2476 H2492 0.931 . S
C2477 C2476 1.370 . S
C2477 C2481 1.408 . S
C2478 C2476 1.363 . S
C2478 C2479 1.370 . S
C2478 C2482 1.524 . S
C2479 C2471 1.503 . S
C2479 C2478 1.370 . S
C2479 C2480 1.403 . S
C2480 C2479 1.403 . S
C2480 C2481 1.404 . S
C2480 C2483 1.539 . S
C2481 C2477 1.408 . S
C2481 C2480 1.404 . S
C2481 H2493 0.930 . S
C2482 C2478 1.524 . S
C2482 H2494 0.956 . S
C2482 H2495 0.961 . S
C2482 H2496 0.961 . S
C2483 C2480 1.539 . S
C2483 H2497 0.958 . S
C2483 H2498 0.961 . S
C2483 H2499 0.960 . S
H2484 C2468 0.931 . S
H2485 C2473 0.929 . S
H2486 C2474 0.960 . S
H2487 C2474 0.962 . S
H2488 C2474 0.960 . S
H2489 C2475 0.961 . S
H2490 C2475 0.961 . S
H2491 C2475 0.961 . S
H2492 C2476 0.931 . S
H2493 C2481 0.930 . S
H2494 C2482 0.956 . S
H2495 C2482 0.961 . S
H2496 C2482 0.961 . S
H2497 C2483 0.958 . S
H2498 C2483 0.961 . S
H2499 C2483 0.960 . S
C2500 C2501 1.391 1_545 S
C2500 C2502 1.394 . S
C2500 H2516 0.931 1_545 S
C2501 C2500 1.391 1_565 S
C2501 C2505 1.376 1_565 S
C2502 C2500 1.394 . S
C2502 C2503 1.369 . S
C2502 C2506 1.531 . S
C2503 C2502 1.369 . S
C2503 C2504 1.410 . S
C2503 C2511 1.503 . S
C2504 C2503 1.410 . S
C2504 C2505 1.392 . S
C2504 C2507 1.511 . S
C2505 C2501 1.376 1_545 S
C2505 C2504 1.392 . S
C2505 H2517 0.929 . S
C2506 C2502 1.531 . S
C2506 H2518 0.960 . S
C2506 H2519 0.962 . S
C2506 H2520 0.960 . S
C2507 C2504 1.511 . S
C2507 H2521 0.961 . S
C2507 H2522 0.961 . S
C2507 H2523 0.961 . S
C2508 C2509 1.370 . S
C2508 C2510 1.363 . S
C2508 H2524 0.931 . S
C2509 C2508 1.370 . S
C2509 C2513 1.408 . S
C2510 C2508 1.363 . S
C2510 C2511 1.370 . S
C2510 C2514 1.524 . S
C2511 C2503 1.503 . S
C2511 C2510 1.370 . S
C2511 C2512 1.403 . S
C2512 C2511 1.403 . S
C2512 C2513 1.404 . S
C2512 C2515 1.539 . S
C2513 C2509 1.408 . S
C2513 C2512 1.404 . S
C2513 H2525 0.930 . S
C2514 C2510 1.524 . S
C2514 H2526 0.956 . S
C2514 H2527 0.961 . S
C2514 H2528 0.961 . S
C2515 C2512 1.539 . S
C2515 H2529 0.958 . S
C2515 H2530 0.961 . S
C2515 H2531 0.960 . S
H2516 C2500 0.931 1_565 S
H2517 C2505 0.929 . S
H2518 C2506 0.960 . S
H2519 C2506 0.962 . S
H2520 C2506 0.960 . S
H2521 C2507 0.961 . S
H2522 C2507 0.961 . S
H2523 C2507 0.961 . S
H2524 C2508 0.931 . S
H2525 C2513 0.930 . S
H2526 C2514 0.956 . S
H2527 C2514 0.961 . S
H2528 C2514 0.961 . S
H2529 C2515 0.958 . S
H2530 C2515 0.961 . S
H2531 C2515 0.960 . S
C2532 C2533 1.391 . S
C2532 C2534 1.394 . S
C2532 H2548 0.931 . S
C2533 C2532 1.391 . S
C2533 C2537 1.376 . S
C2534 C2532 1.394 . S
C2534 C2535 1.369 . S
C2534 C2538 1.531 . S
C2535 C2534 1.369 . S
C2535 C2536 1.410 . S
C2535 C2543 1.503 . S
C2536 C2535 1.410 . S
C2536 C2537 1.392 . S
C2536 C2539 1.511 . S
C2537 C2533 1.376 . S
C2537 C2536 1.392 . S
C2537 H2549 0.929 . S
C2538 C2534 1.531 . S
C2538 H2550 0.960 . S
C2538 H2551 0.962 . S
C2538 H2552 0.960 . S
C2539 C2536 1.511 . S
C2539 H2553 0.961 . S
C2539 H2554 0.961 . S
C2539 H2555 0.961 . S
C2540 C2541 1.370 . S
C2540 C2542 1.363 . S
C2540 H2556 0.931 . S
C2541 C2540 1.370 . S
C2541 C2545 1.408 . S
C2542 C2540 1.363 . S
C2542 C2543 1.370 . S
C2542 C2546 1.524 . S
C2543 C2535 1.503 . S
C2543 C2542 1.370 . S
C2543 C2544 1.403 . S
C2544 C2543 1.403 . S
C2544 C2545 1.404 . S
C2544 C2547 1.539 . S
C2545 C2541 1.408 . S
C2545 C2544 1.404 . S
C2545 H2557 0.930 . S
C2546 C2542 1.524 . S
C2546 H2558 0.956 . S
C2546 H2559 0.961 . S
C2546 H2560 0.961 . S
C2547 C2544 1.539 . S
C2547 H2561 0.958 . S
C2547 H2562 0.961 . S
C2547 H2563 0.960 . S
H2548 C2532 0.931 . S
H2549 C2537 0.929 . S
H2550 C2538 0.960 . S
H2551 C2538 0.962 . S
H2552 C2538 0.960 . S
H2553 C2539 0.961 . S
H2554 C2539 0.961 . S
H2555 C2539 0.961 . S
H2556 C2540 0.931 . S
H2557 C2545 0.930 . S
H2558 C2546 0.956 . S
H2559 C2546 0.961 . S
H2560 C2546 0.961 . S
H2561 C2547 0.958 . S
H2562 C2547 0.961 . S
H2563 C2547 0.960 . S
C2564 C2565 1.391 . S
C2564 C2566 1.394 . S
C2564 H2580 0.931 . S
C2565 C2564 1.391 . S
C2565 C2569 1.376 . S
C2566 C2564 1.394 . S
C2566 C2567 1.369 . S
C2566 C2570 1.531 . S
C2567 C2566 1.369 . S
C2567 C2568 1.410 . S
C2567 C2575 1.503 . S
C2568 C2567 1.410 . S
C2568 C2569 1.392 . S
C2568 C2571 1.511 . S
C2569 C2565 1.376 . S
C2569 C2568 1.392 . S
C2569 H2581 0.929 . S
C2570 C2566 1.531 . S
C2570 H2582 0.960 . S
C2570 H2583 0.962 . S
C2570 H2584 0.960 . S
C2571 C2568 1.511 . S
C2571 H2585 0.961 . S
C2571 H2586 0.961 . S
C2571 H2587 0.961 . S
C2572 C2573 1.370 . S
C2572 C2574 1.363 . S
C2572 H2588 0.931 . S
C2573 C2572 1.370 . S
C2573 C2577 1.408 . S
C2574 C2572 1.363 . S
C2574 C2575 1.370 . S
C2574 C2578 1.524 . S
C2575 C2567 1.503 . S
C2575 C2574 1.370 . S
C2575 C2576 1.403 . S
C2576 C2575 1.403 . S
C2576 C2577 1.404 . S
C2576 C2579 1.539 . S
C2577 C2573 1.408 . S
C2577 C2576 1.404 . S
C2577 H2589 0.930 . S
C2578 C2574 1.524 . S
C2578 H2590 0.956 . S
C2578 H2591 0.961 . S
C2578 H2592 0.961 . S
C2579 C2576 1.539 . S
C2579 H2593 0.958 . S
C2579 H2594 0.961 . S
C2579 H2595 0.960 . S
H2580 C2564 0.931 . S
H2581 C2569 0.929 . S
H2582 C2570 0.960 . S
H2583 C2570 0.962 . S
H2584 C2570 0.960 . S
H2585 C2571 0.961 . S
H2586 C2571 0.961 . S
H2587 C2571 0.961 . S
H2588 C2572 0.931 . S
H2589 C2577 0.930 . S
H2590 C2578 0.956 . S
H2591 C2578 0.961 . S
H2592 C2578 0.961 . S
H2593 C2579 0.958 . S
H2594 C2579 0.961 . S
H2595 C2579 0.960 . S
C2596 C2597 1.391 . S
C2596 C2598 1.394 . S
C2596 H2612 0.931 . S
C2597 C2596 1.391 . S
C2597 C2601 1.376 . S
C2598 C2596 1.394 . S
C2598 C2599 1.369 . S
C2598 C2602 1.531 . S
C2599 C2598 1.369 . S
C2599 C2600 1.410 . S
C2599 C2607 1.503 . S
C2600 C2599 1.410 . S
C2600 C2601 1.392 . S
C2600 C2603 1.511 . S
C2601 C2597 1.376 . S
C2601 C2600 1.392 . S
C2601 H2613 0.929 . S
C2602 C2598 1.531 . S
C2602 H2614 0.960 . S
C2602 H2615 0.962 . S
C2602 H2616 0.960 . S
C2603 C2600 1.511 . S
C2603 H2617 0.961 . S
C2603 H2618 0.961 . S
C2603 H2619 0.961 . S
C2604 C2605 1.370 . S
C2604 C2606 1.363 . S
C2604 H2620 0.931 . S
C2605 C2604 1.370 . S
C2605 C2609 1.408 . S
C2606 C2604 1.363 . S
C2606 C2607 1.370 . S
C2606 C2610 1.524 . S
C2607 C2599 1.503 . S
C2607 C2606 1.370 . S
C2607 C2608 1.403 . S
C2608 C2607 1.403 . S
C2608 C2609 1.404 . S
C2608 C2611 1.539 . S
C2609 C2605 1.408 . S
C2609 C2608 1.404 . S
C2609 H2621 0.930 . S
C2610 C2606 1.524 . S
C2610 H2622 0.956 . S
C2610 H2623 0.961 . S
C2610 H2624 0.961 . S
C2611 C2608 1.539 . S
C2611 H2625 0.958 . S
C2611 H2626 0.961 . S
C2611 H2627 0.960 . S
H2612 C2596 0.931 . S
H2613 C2601 0.929 . S
H2614 C2602 0.960 . S
H2615 C2602 0.962 . S
H2616 C2602 0.960 . S
H2617 C2603 0.961 . S
H2618 C2603 0.961 . S
H2619 C2603 0.961 . S
H2620 C2604 0.931 . S
H2621 C2609 0.930 . S
H2622 C2610 0.956 . S
H2623 C2610 0.961 . S
H2624 C2610 0.961 . S
H2625 C2611 0.958 . S
H2626 C2611 0.961 . S
H2627 C2611 0.960 . S
C2628 C2629 1.391 . S
C2628 C2630 1.394 . S
C2628 H2644 0.931 . S
C2629 C2628 1.391 . S
C2629 C2633 1.376 . S
C2630 C2628 1.394 . S
C2630 C2631 1.369 . S
C2630 C2634 1.531 . S
C2631 C2630 1.369 . S
C2631 C2632 1.410 . S
C2631 C2639 1.503 . S
C2632 C2631 1.410 . S
C2632 C2633 1.392 . S
C2632 C2635 1.511 . S
C2633 C2629 1.376 . S
C2633 C2632 1.392 . S
C2633 H2645 0.929 . S
C2634 C2630 1.531 . S
C2634 H2646 0.960 . S
C2634 H2647 0.962 . S
C2634 H2648 0.960 . S
C2635 C2632 1.511 . S
C2635 H2649 0.961 . S
C2635 H2650 0.961 . S
C2635 H2651 0.961 . S
C2636 C2637 1.370 . S
C2636 C2638 1.363 . S
C2636 H2652 0.931 . S
C2637 C2636 1.370 . S
C2637 C2641 1.408 . S
C2638 C2636 1.363 . S
C2638 C2639 1.370 . S
C2638 C2642 1.524 . S
C2639 C2631 1.503 . S
C2639 C2638 1.370 . S
C2639 C2640 1.403 . S
C2640 C2639 1.403 . S
C2640 C2641 1.404 . S
C2640 C2643 1.539 . S
C2641 C2637 1.408 . S
C2641 C2640 1.404 . S
C2641 H2653 0.930 . S
C2642 C2638 1.524 . S
C2642 H2654 0.956 . S
C2642 H2655 0.961 . S
C2642 H2656 0.961 . S
C2643 C2640 1.539 . S
C2643 H2657 0.958 . S
C2643 H2658 0.961 . S
C2643 H2659 0.960 . S
H2644 C2628 0.931 . S
H2645 C2633 0.929 . S
H2646 C2634 0.960 . S
H2647 C2634 0.962 . S
H2648 C2634 0.960 . S
H2649 C2635 0.961 . S
H2650 C2635 0.961 . S
H2651 C2635 0.961 . S
H2652 C2636 0.931 . S
H2653 C2641 0.930 . S
H2654 C2642 0.956 . S
H2655 C2642 0.961 . S
H2656 C2642 0.961 . S
H2657 C2643 0.958 . S
H2658 C2643 0.961 . S
H2659 C2643 0.960 . S
C2660 C2661 1.391 . S
C2660 C2662 1.394 . S
C2660 H2676 0.931 . S
C2661 C2660 1.391 . S
C2661 C2665 1.376 . S
C2662 C2660 1.394 . S
C2662 C2663 1.369 . S
C2662 C2666 1.531 . S
C2663 C2662 1.369 . S
C2663 C2664 1.410 . S
C2663 C2671 1.503 . S
C2664 C2663 1.410 . S
C2664 C2665 1.392 . S
C2664 C2667 1.511 . S
C2665 C2661 1.376 . S
C2665 C2664 1.392 . S
C2665 H2677 0.929 . S
C2666 C2662 1.531 . S
C2666 H2678 0.960 . S
C2666 H2679 0.962 . S
C2666 H2680 0.976 . S
C2667 C2664 1.511 . S
C2667 H2681 0.961 . S
C2667 H2682 0.961 . S
C2667 H2683 0.961 . S
C2668 C2669 1.370 . S
C2668 C2670 1.363 . S
C2668 H2684 0.931 . S
C2669 C2668 1.370 . S
C2669 C2673 1.408 . S
C2670 C2668 1.363 . S
C2670 C2671 1.370 . S
C2670 C2674 1.524 . S
C2671 C2663 1.503 . S
C2671 C2670 1.370 . S
C2671 C2672 1.403 . S
C2672 C2671 1.403 . S
C2672 C2673 1.404 . S
C2672 C2675 1.539 1_455 S
C2673 C2669 1.408 . S
C2673 C2672 1.404 . S
C2673 H2685 0.930 1_455 S
C2674 C2670 1.524 . S
C2674 H2686 0.956 . S
C2674 H2687 0.961 . S
C2674 H2688 0.961 . S
C2675 C2672 1.539 1_655 S
C2675 H2689 0.958 . S
C2675 H2690 0.961 . S
C2675 H2691 0.960 1_655 S
H2676 C2660 0.931 . S
H2677 C2665 0.929 . S
H2678 C2666 0.960 . S
H2679 C2666 0.962 . S
H2680 C2666 0.976 . S
H2681 C2667 0.961 . S
H2682 C2667 0.961 . S
H2683 C2667 0.961 . S
H2684 C2668 0.931 . S
H2685 C2673 0.930 1_655 S
H2686 C2674 0.956 . S
H2687 C2674 0.961 . S
H2688 C2674 0.961 . S
H2689 C2675 0.958 . S
H2690 C2675 0.961 . S
H2691 C2675 0.960 1_455 S
C2692 C2693 1.391 . S
C2692 C2694 1.394 . S
C2692 H2708 0.931 . S
C2693 C2692 1.391 . S
C2693 C2697 1.376 . S
C2694 C2692 1.394 . S
C2694 C2695 1.369 . S
C2694 C2698 1.531 . S
C2695 C2694 1.369 . S
C2695 C2696 1.410 . S
C2695 C2703 1.503 . S
C2696 C2695 1.410 . S
C2696 C2697 1.392 . S
C2696 C2699 1.511 . S
C2697 C2693 1.376 . S
C2697 C2696 1.392 . S
C2697 H2709 0.929 . S
C2698 C2694 1.531 . S
C2698 H2710 0.960 . S
C2698 H2711 0.962 . S
C2698 H2712 0.960 . S
C2699 C2696 1.511 . S
C2699 H2713 0.961 . S
C2699 H2714 0.961 . S
C2699 H2715 0.961 . S
C2700 C2701 1.370 . S
C2700 C2702 1.363 . S
C2700 H2716 0.931 . S
C2701 C2700 1.370 . S
C2701 C2705 1.408 . S
C2702 C2700 1.363 . S
C2702 C2703 1.370 . S
C2702 C2706 1.524 . S
C2703 C2695 1.503 . S
C2703 C2702 1.370 . S
C2703 C2704 1.403 . S
C2704 C2703 1.403 . S
C2704 C2705 1.404 . S
C2704 C2707 1.539 . S
C2705 C2701 1.408 . S
C2705 C2704 1.404 . S
C2705 H2717 0.930 . S
C2706 C2702 1.524 . S
C2706 H2718 0.956 . S
C2706 H2719 0.961 . S
C2706 H2720 0.961 . S
C2707 C2704 1.539 . S
C2707 H2721 0.958 . S
C2707 H2722 0.961 . S
C2707 H2723 0.960 . S
H2708 C2692 0.931 . S
H2709 C2697 0.929 . S
H2710 C2698 0.960 . S
H2711 C2698 0.962 . S
H2712 C2698 0.960 . S
H2713 C2699 0.961 . S
H2714 C2699 0.961 . S
H2715 C2699 0.961 . S
H2716 C2700 0.931 . S
H2717 C2705 0.930 . S
H2718 C2706 0.956 . S
H2719 C2706 0.961 . S
H2720 C2706 0.961 . S
H2721 C2707 0.958 . S
H2722 C2707 0.961 . S
H2723 C2707 0.960 . S
C2724 C2725 1.391 . S
C2724 C2726 1.394 . S
C2724 H2740 0.931 . S
C2725 C2724 1.391 . S
C2725 C2729 1.376 . S
C2726 C2724 1.394 . S
C2726 C2727 1.369 . S
C2726 C2730 1.531 . S
C2727 C2726 1.369 . S
C2727 C2728 1.410 . S
C2727 C2735 1.503 . S
C2728 C2727 1.410 . S
C2728 C2729 1.392 . S
C2728 C2731 1.511 1_655 S
C2729 C2725 1.376 . S
C2729 C2728 1.392 . S
C2729 H2741 0.929 . S
C2730 C2726 1.531 . S
C2730 H2742 0.960 . S
C2730 H2743 0.962 . S
C2730 H2744 0.960 . S
C2731 C2728 1.511 1_455 S
C2731 H2745 0.961 . S
C2731 H2746 0.961 . S
C2731 H2747 0.961 . S
C2732 C2733 1.370 . S
C2732 C2734 1.363 . S
C2732 H2748 0.931 . S
C2733 C2732 1.370 . S
C2733 C2737 1.408 . S
C2734 C2732 1.363 . S
C2734 C2735 1.370 . S
C2734 C2738 1.524 . S
C2735 C2727 1.503 . S
C2735 C2734 1.370 . S
C2735 C2736 1.403 . S
C2736 C2735 1.403 . S
C2736 C2737 1.404 . S
C2736 C2739 1.539 . S
C2737 C2733 1.408 . S
C2737 C2736 1.404 . S
C2737 H2749 0.930 . S
C2738 C2734 1.524 . S
C2738 H2750 0.956 . S
C2738 H2751 0.961 . S
C2738 H2752 0.961 . S
C2739 C2736 1.539 . S
C2739 H2753 0.958 . S
C2739 H2754 0.961 . S
C2739 H2755 0.960 . S
H2740 C2724 0.931 . S
H2741 C2729 0.929 . S
H2742 C2730 0.960 . S
H2743 C2730 0.962 . S
H2744 C2730 0.960 . S
H2745 C2731 0.961 . S
H2746 C2731 0.961 . S
H2747 C2731 0.961 . S
H2748 C2732 0.931 . S
H2749 C2737 0.930 . S
H2750 C2738 0.956 . S
H2751 C2738 0.961 . S
H2752 C2738 0.961 . S
H2753 C2739 0.958 . S
H2754 C2739 0.961 . S
H2755 C2739 0.960 . S
C2756 C2757 1.391 . S
C2756 C2758 1.394 . S
C2756 H2772 0.931 . S
C2757 C2756 1.391 . S
C2757 C2761 1.376 . S
C2758 C2756 1.394 . S
C2758 C2759 1.369 . S
C2758 C2762 1.531 . S
C2759 C2758 1.369 . S
C2759 C2760 1.410 . S
C2759 C2767 1.503 . S
C2760 C2759 1.410 . S
C2760 C2761 1.392 . S
C2760 C2763 1.511 . S
C2761 C2757 1.376 . S
C2761 C2760 1.392 . S
C2761 H2773 0.929 . S
C2762 C2758 1.531 . S
C2762 H2774 0.960 . S
C2762 H2775 0.962 . S
C2762 H2776 0.960 . S
C2763 C2760 1.511 . S
C2763 H2777 0.961 . S
C2763 H2778 0.961 . S
C2763 H2779 0.961 . S
C2764 C2765 1.370 . S
C2764 C2766 1.363 . S
C2764 H2780 0.931 . S
C2765 C2764 1.370 . S
C2765 C2769 1.408 . S
C2766 C2764 1.363 . S
C2766 C2767 1.370 . S
C2766 C2770 1.524 . S
C2767 C2759 1.503 . S
C2767 C2766 1.370 . S
C2767 C2768 1.403 . S
C2768 C2767 1.403 . S
C2768 C2769 1.404 . S
C2768 C2771 1.539 . S
C2769 C2765 1.408 . S
C2769 C2768 1.404 . S
C2769 H2781 0.930 . S
C2770 C2766 1.524 . S
C2770 H2782 0.956 . S
C2770 H2783 0.961 . S
C2770 H2784 0.961 . S
C2771 C2768 1.539 . S
C2771 H2785 0.958 . S
C2771 H2786 0.961 . S
C2771 H2787 0.960 . S
H2772 C2756 0.931 . S
H2773 C2761 0.929 . S
H2774 C2762 0.960 . S
H2775 C2762 0.962 . S
H2776 C2762 0.960 . S
H2777 C2763 0.961 . S
H2778 C2763 0.961 . S
H2779 C2763 0.961 . S
H2780 C2764 0.931 . S
H2781 C2769 0.930 . S
H2782 C2770 0.956 . S
H2783 C2770 0.961 . S
H2784 C2770 0.961 . S
H2785 C2771 0.958 . S
H2786 C2771 0.961 . S
H2787 C2771 0.960 . S
C2788 C2789 1.391 . S
C2788 C2790 1.394 . S
C2788 H2804 0.931 . S
C2789 C2788 1.391 . S
C2789 C2793 1.376 . S
C2790 C2788 1.394 . S
C2790 C2791 1.369 . S
C2790 C2794 1.531 . S
C2791 C2790 1.369 . S
C2791 C2792 1.410 . S
C2791 C2799 1.503 . S
C2792 C2791 1.410 . S
C2792 C2793 1.392 . S
C2792 C2795 1.511 . S
C2793 C2789 1.376 . S
C2793 C2792 1.392 . S
C2793 H2805 0.929 . S
C2794 C2790 1.531 . S
C2794 H2806 0.960 . S
C2794 H2807 0.962 . S
C2794 H2808 0.960 . S
C2795 C2792 1.511 . S
C2795 H2809 0.961 . S
C2795 H2810 0.961 . S
C2795 H2811 0.961 . S
C2796 C2797 1.370 . S
C2796 C2798 1.363 . S
C2796 H2812 0.931 . S
C2797 C2796 1.370 . S
C2797 C2801 1.408 . S
C2798 C2796 1.363 . S
C2798 C2799 1.370 . S
C2798 C2802 1.524 . S
C2799 C2791 1.503 . S
C2799 C2798 1.370 . S
C2799 C2800 1.403 . S
C2800 C2799 1.403 . S
C2800 C2801 1.404 . S
C2800 C2803 1.539 . S
C2801 C2797 1.408 . S
C2801 C2800 1.404 . S
C2801 H2813 0.930 . S
C2802 C2798 1.524 . S
C2802 H2814 0.956 . S
C2802 H2815 0.961 . S
C2802 H2816 0.961 . S
C2803 C2800 1.539 . S
C2803 H2817 0.958 . S
C2803 H2818 0.961 . S
C2803 H2819 0.960 . S
H2804 C2788 0.931 . S
H2805 C2793 0.929 . S
H2806 C2794 0.960 . S
H2807 C2794 0.962 . S
H2808 C2794 0.960 . S
H2809 C2795 0.961 . S
H2810 C2795 0.961 . S
H2811 C2795 0.961 . S
H2812 C2796 0.931 . S
H2813 C2801 0.930 . S
H2814 C2802 0.956 . S
H2815 C2802 0.961 . S
H2816 C2802 0.961 . S
H2817 C2803 0.958 . S
H2818 C2803 0.961 . S
H2819 C2803 0.960 . S
C2820 C2821 1.391 . S
C2820 C2822 1.394 . S
C2820 H2836 0.931 . S
C2821 C2820 1.391 . S
C2821 C2825 1.376 . S
C2822 C2820 1.394 . S
C2822 C2823 1.369 . S
C2822 C2826 1.531 . S
C2823 C2822 1.369 . S
C2823 C2824 1.410 . S
C2823 C2831 1.503 . S
C2824 C2823 1.410 . S
C2824 C2825 1.392 . S
C2824 C2827 1.511 . S
C2825 C2821 1.376 . S
C2825 C2824 1.392 . S
C2825 H2837 0.929 . S
C2826 C2822 1.531 . S
C2826 H2838 0.960 . S
C2826 H2839 0.962 . S
C2826 H2840 0.960 . S
C2827 C2824 1.511 . S
C2827 H2841 0.961 . S
C2827 H2842 0.961 . S
C2827 H2843 0.961 . S
C2828 C2829 1.370 . S
C2828 C2830 1.363 . S
C2828 H2844 0.931 . S
C2829 C2828 1.370 . S
C2829 C2833 1.408 . S
C2830 C2828 1.363 . S
C2830 C2831 1.370 . S
C2830 C2834 1.524 . S
C2831 C2823 1.503 . S
C2831 C2830 1.370 . S
C2831 C2832 1.403 . S
C2832 C2831 1.403 . S
C2832 C2833 1.404 . S
C2832 C2835 1.539 . S
C2833 C2829 1.408 . S
C2833 C2832 1.404 . S
C2833 H2845 0.930 . S
C2834 C2830 1.524 . S
C2834 H2846 0.956 . S
C2834 H2847 0.961 . S
C2834 H2848 0.961 . S
C2835 C2832 1.539 . S
C2835 H2849 0.958 . S
C2835 H2850 0.961 . S
C2835 H2851 0.960 . S
H2836 C2820 0.931 . S
H2837 C2825 0.929 . S
H2838 C2826 0.960 . S
H2839 C2826 0.962 . S
H2840 C2826 0.960 . S
H2841 C2827 0.961 . S
H2842 C2827 0.961 . S
H2843 C2827 0.961 . S
H2844 C2828 0.931 . S
H2845 C2833 0.930 . S
H2846 C2834 0.956 . S
H2847 C2834 0.961 . S
H2848 C2834 0.961 . S
H2849 C2835 0.958 . S
H2850 C2835 0.961 . S
H2851 C2835 0.960 . S
C2852 C2853 1.391 . S
C2852 C2854 1.394 . S
C2852 H2868 0.931 . S
C2853 C2852 1.391 . S
C2853 C2857 1.376 . S
C2854 C2852 1.394 . S
C2854 C2855 1.369 . S
C2854 C2858 1.531 . S
C2855 C2854 1.369 . S
C2855 C2856 1.410 . S
C2855 C2863 1.503 . S
C2856 C2855 1.410 . S
C2856 C2857 1.392 . S
C2856 C2859 1.511 . S
C2857 C2853 1.376 . S
C2857 C2856 1.392 . S
C2857 H2869 0.929 . S
C2858 C2854 1.531 . S
C2858 H2870 0.960 . S
C2858 H2871 0.962 . S
C2858 H2872 0.960 . S
C2859 C2856 1.511 . S
C2859 H2873 0.961 . S
C2859 H2874 0.961 . S
C2859 H2875 0.961 . S
C2860 C2861 1.370 . S
C2860 C2862 1.363 . S
C2860 H2876 0.931 . S
C2861 C2860 1.370 . S
C2861 C2865 1.408 . S
C2862 C2860 1.363 . S
C2862 C2863 1.370 . S
C2862 C2866 1.524 . S
C2863 C2855 1.503 . S
C2863 C2862 1.370 . S
C2863 C2864 1.403 . S
C2864 C2863 1.403 . S
C2864 C2865 1.404 . S
C2864 C2867 1.539 . S
C2865 C2861 1.408 . S
C2865 C2864 1.404 . S
C2865 H2877 0.930 . S
C2866 C2862 1.524 . S
C2866 H2878 0.956 . S
C2866 H2879 0.961 . S
C2866 H2880 0.961 . S
C2867 C2864 1.539 . S
C2867 H2881 0.958 . S
C2867 H2882 0.961 . S
C2867 H2883 0.960 . S
H2868 C2852 0.931 . S
H2869 C2857 0.929 . S
H2870 C2858 0.960 . S
H2871 C2858 0.962 . S
H2872 C2858 0.960 . S
H2873 C2859 0.961 . S
H2874 C2859 0.961 . S
H2875 C2859 0.961 . S
H2876 C2860 0.931 . S
H2877 C2865 0.930 . S
H2878 C2866 0.956 . S
H2879 C2866 0.961 . S
H2880 C2866 0.961 . S
H2881 C2867 0.958 . S
H2882 C2867 0.961 . S
H2883 C2867 0.960 . S
C2884 C2885 1.391 . S
C2884 C2886 1.394 . S
C2884 H2900 0.931 . S
C2885 C2884 1.391 . S
C2885 C2889 1.376 . S
C2886 C2884 1.394 . S
C2886 C2887 1.369 . S
C2886 C2890 1.531 . S
C2887 C2886 1.369 . S
C2887 C2888 1.410 . S
C2887 C2895 1.503 . S
C2888 C2887 1.410 . S
C2888 C2889 1.392 . S
C2888 C2891 1.511 . S
C2889 C2885 1.376 . S
C2889 C2888 1.392 . S
C2889 H2901 0.929 . S
C2890 C2886 1.531 . S
C2890 H2902 0.960 . S
C2890 H2903 0.962 . S
C2890 H2904 0.960 . S
C2891 C2888 1.511 . S
C2891 H2905 0.961 . S
C2891 H2906 0.961 . S
C2891 H2907 0.961 . S
C2892 C2893 1.370 . S
C2892 C2894 1.363 . S
C2892 H2908 0.931 . S
C2893 C2892 1.370 . S
C2893 C2897 1.408 . S
C2894 C2892 1.363 . S
C2894 C2895 1.370 . S
C2894 C2898 1.524 . S
C2895 C2887 1.503 . S
C2895 C2894 1.370 . S
C2895 C2896 1.403 . S
C2896 C2895 1.403 . S
C2896 C2897 1.404 . S
C2896 C2899 1.539 . S
C2897 C2893 1.408 . S
C2897 C2896 1.404 . S
C2897 H2909 0.930 . S
C2898 C2894 1.524 . S
C2898 H2910 0.956 . S
C2898 H2911 0.961 . S
C2898 H2912 0.961 . S
C2899 C2896 1.539 . S
C2899 H2913 0.958 . S
C2899 H2914 0.961 . S
C2899 H2915 0.960 . S
H2900 C2884 0.931 . S
H2901 C2889 0.929 . S
H2902 C2890 0.960 . S
H2903 C2890 0.962 . S
H2904 C2890 0.960 . S
H2905 C2891 0.961 . S
H2906 C2891 0.961 . S
H2907 C2891 0.961 . S
H2908 C2892 0.931 . S
H2909 C2897 0.930 . S
H2910 C2898 0.956 . S
H2911 C2898 0.961 . S
H2912 C2898 0.961 . S
H2913 C2899 0.958 . S
H2914 C2899 0.961 . S
H2915 C2899 0.960 . S
C2916 C2917 1.391 . S
C2916 C2918 1.394 . S
C2916 H2932 0.931 . S
C2917 C2916 1.391 . S
C2917 C2921 1.376 . S
C2918 C2916 1.394 . S
C2918 C2919 1.369 . S
C2918 C2922 1.531 . S
C2919 C2918 1.369 . S
C2919 C2920 1.410 . S
C2919 C2927 1.503 . S
C2920 C2919 1.410 . S
C2920 C2921 1.392 . S
C2920 C2923 1.511 . S
C2921 C2917 1.376 . S
C2921 C2920 1.392 . S
C2921 H2933 0.929 . S
C2922 C2918 1.531 . S
C2922 H2934 0.960 . S
C2922 H2935 0.962 . S
C2922 H2936 0.960 . S
C2923 C2920 1.511 . S
C2923 H2937 0.961 . S
C2923 H2938 0.961 . S
C2923 H2939 0.961 . S
C2924 C2925 1.370 . S
C2924 C2926 1.363 . S
C2924 H2940 0.931 . S
C2925 C2924 1.370 . S
C2925 C2929 1.408 . S
C2926 C2924 1.363 . S
C2926 C2927 1.370 . S
C2926 C2930 1.524 . S
C2927 C2919 1.503 . S
C2927 C2926 1.370 . S
C2927 C2928 1.403 . S
C2928 C2927 1.403 . S
C2928 C2929 1.404 . S
C2928 C2931 1.539 . S
C2929 C2925 1.408 . S
C2929 C2928 1.404 . S
C2929 H2941 0.930 . S
C2930 C2926 1.524 . S
C2930 H2942 0.956 . S
C2930 H2943 0.961 . S
C2930 H2944 0.961 . S
C2931 C2928 1.539 . S
C2931 H2945 0.958 . S
C2931 H2946 0.961 . S
C2931 H2947 0.960 . S
H2932 C2916 0.931 . S
H2933 C2921 0.929 . S
H2934 C2922 0.960 . S
H2935 C2922 0.962 . S
H2936 C2922 0.960 . S
H2937 C2923 0.961 . S
H2938 C2923 0.961 . S
H2939 C2923 0.961 . S
H2940 C2924 0.931 . S
H2941 C2929 0.930 . S
H2942 C2930 0.956 . S
H2943 C2930 0.961 . S
H2944 C2930 0.961 . S
H2945 C2931 0.958 . S
H2946 C2931 0.961 . S
H2947 C2931 0.960 . S
C2948 C2949 1.391 . S
C2948 C2950 1.394 . S
C2948 H2964 0.931 . S
C2949 C2948 1.391 . S
C2949 C2953 1.376 . S
C2950 C2948 1.394 . S
C2950 C2951 1.369 . S
C2950 C2954 1.531 . S
C2951 C2950 1.369 . S
C2951 C2952 1.410 . S
C2951 C2959 1.503 . S
C2952 C2951 1.410 . S
C2952 C2953 1.392 . S
C2952 C2955 1.511 . S
C2953 C2949 1.376 . S
C2953 C2952 1.392 . S
C2953 H2965 0.929 . S
C2954 C2950 1.531 . S
C2954 H2966 0.960 . S
C2954 H2967 0.962 . S
C2954 H2968 0.960 . S
C2955 C2952 1.511 . S
C2955 H2969 0.961 . S
C2955 H2970 0.961 . S
C2955 H2971 0.961 . S
C2956 C2957 1.370 . S
C2956 C2958 1.363 . S
C2956 H2972 0.931 . S
C2957 C2956 1.370 . S
C2957 C2961 1.408 . S
C2958 C2956 1.363 . S
C2958 C2959 1.370 . S
C2958 C2962 1.524 . S
C2959 C2951 1.503 . S
C2959 C2958 1.370 . S
C2959 C2960 1.403 . S
C2960 C2959 1.403 . S
C2960 C2961 1.404 . S
C2960 C2963 1.539 . S
C2961 C2957 1.408 . S
C2961 C2960 1.404 . S
C2961 H2973 0.930 . S
C2962 C2958 1.524 . S
C2962 H2974 0.956 . S
C2962 H2975 0.961 . S
C2962 H2976 0.961 . S
C2963 C2960 1.539 . S
C2963 H2977 0.958 . S
C2963 H2978 0.961 . S
C2963 H2979 0.960 . S
H2964 C2948 0.931 . S
H2965 C2953 0.929 . S
H2966 C2954 0.960 . S
H2967 C2954 0.962 . S
H2968 C2954 0.960 . S
H2969 C2955 0.961 . S
H2970 C2955 0.961 . S
H2971 C2955 0.961 . S
H2972 C2956 0.931 . S
H2973 C2961 0.930 . S
H2974 C2962 0.956 . S
H2975 C2962 0.961 . S
H2976 C2962 0.961 . S
H2977 C2963 0.958 . S
H2978 C2963 0.961 . S
H2979 C2963 0.960 . S
C2980 C2981 1.391 . S
C2980 C2982 1.394 . S
C2980 H2996 0.931 . S
C2981 C2980 1.391 . S
C2981 C2985 1.376 . S
C2982 C2980 1.394 . S
C2982 C2983 1.369 . S
C2982 C2986 1.531 . S
C2983 C2982 1.369 . S
C2983 C2984 1.410 . S
C2983 C2991 1.503 . S
C2984 C2983 1.410 . S
C2984 C2985 1.392 . S
C2984 C2987 1.511 . S
C2985 C2981 1.376 . S
C2985 C2984 1.392 . S
C2985 H2997 0.929 . S
C2986 C2982 1.531 . S
C2986 H2998 0.960 . S
C2986 H2999 0.962 . S
C2986 H3000 0.960 . S
C2987 C2984 1.511 . S
C2987 H3001 0.961 . S
C2987 H3002 0.961 . S
C2987 H3003 0.961 . S
C2988 C2989 1.370 . S
C2988 C2990 1.363 . S
C2988 H3004 0.931 . S
C2989 C2988 1.370 . S
C2989 C2993 1.408 . S
C2990 C2988 1.363 . S
C2990 C2991 1.370 . S
C2990 C2994 1.524 . S
C2991 C2983 1.503 . S
C2991 C2990 1.370 . S
C2991 C2992 1.403 . S
C2992 C2991 1.403 . S
C2992 C2993 1.404 . S
C2992 C2995 1.539 . S
C2993 C2989 1.408 . S
C2993 C2992 1.404 . S
C2993 H3005 0.930 . S
C2994 C2990 1.524 . S
C2994 H3006 0.956 . S
C2994 H3007 0.961 . S
C2994 H3008 0.961 . S
C2995 C2992 1.539 . S
C2995 H3009 0.958 . S
C2995 H3010 0.961 . S
C2995 H3011 0.960 . S
H2996 C2980 0.931 . S
H2997 C2985 0.929 . S
H2998 C2986 0.960 . S
H2999 C2986 0.962 . S
H3000 C2986 0.960 . S
H3001 C2987 0.961 . S
H3002 C2987 0.961 . S
H3003 C2987 0.961 . S
H3004 C2988 0.931 . S
H3005 C2993 0.930 . S
H3006 C2994 0.956 . S
H3007 C2994 0.961 . S
H3008 C2994 0.961 . S
H3009 C2995 0.958 . S
H3010 C2995 0.961 . S
H3011 C2995 0.960 . S
C3012 C3013 1.391 . S
C3012 C3014 1.394 . S
C3012 H3028 0.931 . S
C3013 C3012 1.391 . S
C3013 C3017 1.376 . S
C3014 C3012 1.394 . S
C3014 C3015 1.369 . S
C3014 C3018 1.531 . S
C3015 C3014 1.369 . S
C3015 C3016 1.410 . S
C3015 C3023 1.503 . S
C3016 C3015 1.410 . S
C3016 C3017 1.392 . S
C3016 C3019 1.511 . S
C3017 C3013 1.376 . S
C3017 C3016 1.392 . S
C3017 H3029 0.929 . S
C3018 C3014 1.531 . S
C3018 H3030 0.960 . S
C3018 H3031 0.962 . S
C3018 H3032 0.960 . S
C3019 C3016 1.511 . S
C3019 H3033 0.961 . S
C3019 H3034 0.961 . S
C3019 H3035 0.961 . S
C3020 C3021 1.370 . S
C3020 C3022 1.363 . S
C3020 H3036 0.931 . S
C3021 C3020 1.370 . S
C3021 C3025 1.408 . S
C3022 C3020 1.363 . S
C3022 C3023 1.370 . S
C3022 C3026 1.524 . S
C3023 C3015 1.503 . S
C3023 C3022 1.370 . S
C3023 C3024 1.403 . S
C3024 C3023 1.403 . S
C3024 C3025 1.404 . S
C3024 C3027 1.539 . S
C3025 C3021 1.408 . S
C3025 C3024 1.404 . S
C3025 H3037 0.930 . S
C3026 C3022 1.524 . S
C3026 H3038 0.956 . S
C3026 H3039 0.961 . S
C3026 H3040 0.961 . S
C3027 C3024 1.539 . S
C3027 H3041 0.958 . S
C3027 H3042 0.961 . S
C3027 H3043 0.960 . S
H3028 C3012 0.931 . S
H3029 C3017 0.929 . S
H3030 C3018 0.960 . S
H3031 C3018 0.962 . S
H3032 C3018 0.960 . S
H3033 C3019 0.961 . S
H3034 C3019 0.961 . S
H3035 C3019 0.961 . S
H3036 C3020 0.931 . S
H3037 C3025 0.930 . S
H3038 C3026 0.956 . S
H3039 C3026 0.961 . S
H3040 C3026 0.961 . S
H3041 C3027 0.958 . S
H3042 C3027 0.961 . S
H3043 C3027 0.960 . S
C3044 C3045 1.391 . S
C3044 C3046 1.394 . S
C3044 H3060 0.931 . S
C3045 C3044 1.391 . S
C3045 C3049 1.376 . S
C3046 C3044 1.394 . S
C3046 C3047 1.369 . S
C3046 C3050 1.531 . S
C3047 C3046 1.369 . S
C3047 C3048 1.410 . S
C3047 C3055 1.503 . S
C3048 C3047 1.410 . S
C3048 C3049 1.392 . S
C3048 C3051 1.511 . S
C3049 C3045 1.376 . S
C3049 C3048 1.392 . S
C3049 H3061 0.929 . S
C3050 C3046 1.531 . S
C3050 H3062 0.960 . S
C3050 H3063 0.962 . S
C3050 H3064 0.960 . S
C3051 C3048 1.511 . S
C3051 H3065 0.961 . S
C3051 H3066 0.961 . S
C3051 H3067 0.961 . S
C3052 C3053 1.370 . S
C3052 C3054 1.363 . S
C3052 H3068 0.931 . S
C3053 C3052 1.370 . S
C3053 C3057 1.408 . S
C3054 C3052 1.363 . S
C3054 C3055 1.370 . S
C3054 C3058 1.524 . S
C3055 C3047 1.503 . S
C3055 C3054 1.370 . S
C3055 C3056 1.403 . S
C3056 C3055 1.403 . S
C3056 C3057 1.404 . S
C3056 C3059 1.539 . S
C3057 C3053 1.408 . S
C3057 C3056 1.404 . S
C3057 H3069 0.930 . S
C3058 C3054 1.524 . S
C3058 H3070 0.956 . S
C3058 H3071 0.961 . S
C3058 H3072 0.961 . S
C3059 C3056 1.539 . S
C3059 H3073 0.958 . S
C3059 H3074 0.961 . S
C3059 H3075 0.960 . S
H3060 C3044 0.931 . S
H3061 C3049 0.929 . S
H3062 C3050 0.960 . S
H3063 C3050 0.962 . S
H3064 C3050 0.960 . S
H3065 C3051 0.961 . S
H3066 C3051 0.961 . S
H3067 C3051 0.961 . S
H3068 C3052 0.931 . S
H3069 C3057 0.930 . S
H3070 C3058 0.956 . S
H3071 C3058 0.961 . S
H3072 C3058 0.961 . S
H3073 C3059 0.958 . S
H3074 C3059 0.961 . S
H3075 C3059 0.960 . S
C3076 C3077 1.391 . S
C3076 C3078 1.394 . S
C3076 H3092 0.931 . S
C3077 C3076 1.391 . S
C3077 C3081 1.376 . S
C3078 C3076 1.394 . S
C3078 C3079 1.369 . S
C3078 C3082 1.531 . S
C3079 C3078 1.369 . S
C3079 C3080 1.410 . S
C3079 C3087 1.503 . S
C3080 C3079 1.410 . S
C3080 C3081 1.392 . S
C3080 C3083 1.511 . S
C3081 C3077 1.376 . S
C3081 C3080 1.392 . S
C3081 H3093 0.929 . S
C3082 C3078 1.531 . S
C3082 H3094 0.960 . S
C3082 H3095 0.962 . S
C3082 H3096 0.960 . S
C3083 C3080 1.511 . S
C3083 H3097 0.961 . S
C3083 H3098 0.961 . S
C3083 H3099 0.961 . S
C3084 C3085 1.370 . S
C3084 C3086 1.363 . S
C3084 H3100 0.931 . S
C3085 C3084 1.370 . S
C3085 C3089 1.408 . S
C3086 C3084 1.363 . S
C3086 C3087 1.370 . S
C3086 C3090 1.524 . S
C3087 C3079 1.503 . S
C3087 C3086 1.370 . S
C3087 C3088 1.403 . S
C3088 C3087 1.403 . S
C3088 C3089 1.404 . S
C3088 C3091 1.539 . S
C3089 C3085 1.408 . S
C3089 C3088 1.404 . S
C3089 H3101 0.930 . S
C3090 C3086 1.524 . S
C3090 H3102 0.956 . S
C3090 H3103 0.961 . S
C3090 H3104 0.961 . S
C3091 C3088 1.539 . S
C3091 H3105 0.958 . S
C3091 H3106 0.961 . S
C3091 H3107 0.960 . S
H3092 C3076 0.931 . S
H3093 C3081 0.929 . S
H3094 C3082 0.960 . S
H3095 C3082 0.962 . S
H3096 C3082 0.960 . S
H3097 C3083 0.961 . S
H3098 C3083 0.961 . S
H3099 C3083 0.961 . S
H3100 C3084 0.931 . S
H3101 C3089 0.930 . S
H3102 C3090 0.956 . S
H3103 C3090 0.961 . S
H3104 C3090 0.961 . S
H3105 C3091 0.958 . S
H3106 C3091 0.961 . S
H3107 C3091 0.960 . S
C3108 C3109 1.391 . S
C3108 C3110 1.394 . S
C3108 H3124 0.931 . S
C3109 C3108 1.391 . S
C3109 C3113 1.376 . S
C3110 C3108 1.394 . S
C3110 C3111 1.369 . S
C3110 C3114 1.531 . S
C3111 C3110 1.369 . S
C3111 C3112 1.410 . S
C3111 C3119 1.503 . S
C3112 C3111 1.410 . S
C3112 C3113 1.392 . S
C3112 C3115 1.511 . S
C3113 C3109 1.376 . S
C3113 C3112 1.392 . S
C3113 H3125 0.929 . S
C3114 C3110 1.531 . S
C3114 H3126 0.960 . S
C3114 H3127 0.962 . S
C3114 H3128 0.960 . S
C3115 C3112 1.511 . S
C3115 H3129 0.961 . S
C3115 H3130 0.961 . S
C3115 H3131 0.961 . S
C3116 C3117 1.370 . S
C3116 C3118 1.363 . S
C3116 H3132 0.931 . S
C3117 C3116 1.370 . S
C3117 C3121 1.408 . S
C3118 C3116 1.363 . S
C3118 C3119 1.370 . S
C3118 C3122 1.524 . S
C3119 C3111 1.503 . S
C3119 C3118 1.370 . S
C3119 C3120 1.403 . S
C3120 C3119 1.403 . S
C3120 C3121 1.404 . S
C3120 C3123 1.539 . S
C3121 C3117 1.408 . S
C3121 C3120 1.404 . S
C3121 H3133 0.930 . S
C3122 C3118 1.524 . S
C3122 H3134 0.956 . S
C3122 H3135 0.961 . S
C3122 H3136 0.961 . S
C3123 C3120 1.539 . S
C3123 H3137 0.958 . S
C3123 H3138 0.961 . S
C3123 H3139 0.960 . S
H3124 C3108 0.931 . S
H3125 C3113 0.929 . S
H3126 C3114 0.960 . S
H3127 C3114 0.962 . S
H3128 C3114 0.960 . S
H3129 C3115 0.961 . S
H3130 C3115 0.961 . S
H3131 C3115 0.961 . S
H3132 C3116 0.931 . S
H3133 C3121 0.930 . S
H3134 C3122 0.956 . S
H3135 C3122 0.961 . S
H3136 C3122 0.961 . S
H3137 C3123 0.958 . S
H3138 C3123 0.961 . S
H3139 C3123 0.960 . S
C3140 C3141 1.391 . S
C3140 C3142 1.394 . S
C3140 H3156 0.931 . S
C3141 C3140 1.391 . S
C3141 C3145 1.376 . S
C3142 C3140 1.394 . S
C3142 C3143 1.369 . S
C3142 C3146 1.531 . S
C3143 C3142 1.369 . S
C3143 C3144 1.410 . S
C3143 C3151 1.503 . S
C3144 C3143 1.410 . S
C3144 C3145 1.392 . S
C3144 C3147 1.511 . S
C3145 C3141 1.376 . S
C3145 C3144 1.392 . S
C3145 H3157 0.929 . S
C3146 C3142 1.531 . S
C3146 H3158 0.960 . S
C3146 H3159 0.962 . S
C3146 H3160 0.960 . S
C3147 C3144 1.511 . S
C3147 H3161 0.961 . S
C3147 H3162 0.961 . S
C3147 H3163 0.961 . S
C3148 C3149 1.370 . S
C3148 C3150 1.363 . S
C3148 H3164 0.931 . S
C3149 C3148 1.370 . S
C3149 C3153 1.408 . S
C3150 C3148 1.363 . S
C3150 C3151 1.370 . S
C3150 C3154 1.524 . S
C3151 C3143 1.503 . S
C3151 C3150 1.370 . S
C3151 C3152 1.403 . S
C3152 C3151 1.403 . S
C3152 C3153 1.404 . S
C3152 C3155 1.539 . S
C3153 C3149 1.408 . S
C3153 C3152 1.404 . S
C3153 H3165 0.930 . S
C3154 C3150 1.524 . S
C3154 H3166 0.956 . S
C3154 H3167 0.961 . S
C3154 H3168 0.961 . S
C3155 C3152 1.539 . S
C3155 H3169 0.958 . S
C3155 H3170 0.961 . S
C3155 H3171 0.960 . S
H3156 C3140 0.931 . S
H3157 C3145 0.929 . S
H3158 C3146 0.960 . S
H3159 C3146 0.962 . S
H3160 C3146 0.960 . S
H3161 C3147 0.961 . S
H3162 C3147 0.961 . S
H3163 C3147 0.961 . S
H3164 C3148 0.931 . S
H3165 C3153 0.930 . S
H3166 C3154 0.956 . S
H3167 C3154 0.961 . S
H3168 C3154 0.961 . S
H3169 C3155 0.958 . S
H3170 C3155 0.961 . S
H3171 C3155 0.960 . S
C3172 C3173 1.391 . S
C3172 C3174 1.394 . S
C3172 H3188 0.931 . S
C3173 C3172 1.391 . S
C3173 C3177 1.376 . S
C3174 C3172 1.394 . S
C3174 C3175 1.369 . S
C3174 C3178 1.531 . S
C3175 C3174 1.369 . S
C3175 C3176 1.410 . S
C3175 C3183 1.503 . S
C3176 C3175 1.410 . S
C3176 C3177 1.392 . S
C3176 C3179 1.511 . S
C3177 C3173 1.376 . S
C3177 C3176 1.392 . S
C3177 H3189 0.929 . S
C3178 C3174 1.531 . S
C3178 H3190 0.960 . S
C3178 H3191 0.962 . S
C3178 H3192 0.960 . S
C3179 C3176 1.511 . S
C3179 H3193 0.961 . S
C3179 H3194 0.961 . S
C3179 H3195 0.961 . S
C3180 C3181 1.370 . S
C3180 C3182 1.363 . S
C3180 H3196 0.931 . S
C3181 C3180 1.370 . S
C3181 C3185 1.408 . S
C3182 C3180 1.363 . S
C3182 C3183 1.370 . S
C3182 C3186 1.524 . S
C3183 C3175 1.503 . S
C3183 C3182 1.370 . S
C3183 C3184 1.403 . S
C3184 C3183 1.403 . S
C3184 C3185 1.404 . S
C3184 C3187 1.539 . S
C3185 C3181 1.408 . S
C3185 C3184 1.404 . S
C3185 H3197 0.930 . S
C3186 C3182 1.524 . S
C3186 H3198 0.956 . S
C3186 H3199 0.961 . S
C3186 H3200 0.961 . S
C3187 C3184 1.539 . S
C3187 H3201 0.958 . S
C3187 H3202 0.961 . S
C3187 H3203 0.960 . S
H3188 C3172 0.931 . S
H3189 C3177 0.929 . S
H3190 C3178 0.960 . S
H3191 C3178 0.962 . S
H3192 C3178 0.960 . S
H3193 C3179 0.961 . S
H3194 C3179 0.961 . S
H3195 C3179 0.961 . S
H3196 C3180 0.931 . S
H3197 C3185 0.930 . S
H3198 C3186 0.956 . S
H3199 C3186 0.961 . S
H3200 C3186 0.961 . S
H3201 C3187 0.958 . S
H3202 C3187 0.961 . S
H3203 C3187 0.960 . S
C1477 C522 1.445 . S
C1485 C787 1.377 . S
C1509 C562 1.447 . S
C1517 C871 1.370 . S
C1541 C495 1.464 . S
C1549 C951 1.454 . S
C1573 C455 1.442 . S
C1581 C867 1.386 . S
C1613 C955 1.298 . S
C1605 C362 1.389 . S
C1637 C402 1.431 . S
C1645 C783 1.383 . S
C1677 C776 1.402 . S
C1669 C442 1.470 . S
C1709 C860 1.350 . S
C1701 C375 1.420 . S
C1733 C415 1.493 . S
C1741 C962 1.427 . S
C1765 C535 1.437 . S
C1773 C878 1.384 . S
C1797 C575 1.367 . S
C1805 C944 1.303 . S
C1837 C794 1.391 . S
C1829 C482 1.444 . S
C1869 C1039 1.363 . S
C1861 C42 1.456 1_455 S
C1893 C82 1.449 . S
C1901 C1123 1.399 . S
C1925 C15 1.463 . S
C1933 C1203 1.453 . S
C1957 C695 1.444 . S
C1965 C1119 1.383 . S
C1989 C602 1.392 . S
C1997 C1207 1.311 . S
C2021 C642 1.429 . S
C2029 C1035 1.387 . S
C2053 C682 1.471 . S
C2061 C1028 1.390 . S
C2085 C615 1.419 . S
C2093 C1112 1.356 . S
C2125 C1214 1.438 . S
C2117 C655 1.478 . S
C2149 C55 1.422 . S
C2157 C1130 1.407 . S
C2189 C1196 1.276 . S
C2181 C95 1.356 1_455 S
C2213 C2 1.441 . S
C2221 C1046 1.392 . S
C2253 C1291 1.390 . S
C2245 C282 1.445 . S
C2277 C322 1.450 . S
C2285 C1375 1.368 . S
C2317 C1455 1.445 . S
C2309 C255 1.476 . S
C2349 C1371 1.383 . S
C2341 C215 1.461 . S
C2381 C1459 1.298 . S
C2373 C122 1.388 1_655 S
C2405 C162 1.423 . S
C2413 C1287 1.367 . S
C2437 C202 1.422 1_655 S
C2445 C1280 1.416 . S
C2469 C135 1.419 . S
C2477 C1364 1.353 . S
C2509 C1466 1.453 . S
C2501 C175 1.472 . S
C2533 C295 1.424 . S
C2541 C1382 1.400 . S
C2565 C335 1.366 . S
C2573 C1448 1.307 . S
C2597 C242 1.430 . S
C2605 C1298 1.398 . S
C2629 C621 1.419 . S
C2637 C790 1.312 . S
C2669 C874 1.345 . S
C2661 C661 1.494 . S
C2693 C701 1.471 . S
C2701 C946 1.355 . S
C2725 C261 1.509 . S
C2733 C862 1.370 . S
C2757 C301 1.469 . S
C2765 C958 1.344 . S
C2797 C778 1.296 . S
C2789 C341 1.403 . S
C2821 C141 1.393 . S
C2829 C1042 1.294 . S
C2853 C181 1.509 . S
C2861 C1126 1.374 . S
C2885 C221 1.472 . S
C2893 C1198 1.340 . S
C2917 C501 1.496 . S
C2925 C1114 1.383 . S
C2957 C1210 1.352 . S
C2949 C541 1.468 . S
C2981 C581 1.395 . S
C2989 C1030 1.288 . S
C3013 C381 1.414 . S
C3021 C1294 1.322 . S
C3045 C421 1.509 . S
C3053 C1378 1.376 . S
C3085 C1450 1.347 . S
C3077 C461 1.476 . S
C3109 C21 1.492 . S
C3117 C1366 1.387 . S
C3141 C61 1.446 . S
C3149 C1462 1.315 . S
C3173 C101 1.420 . S
C3181 C1282 1.325 . S
