# Generated by pormake.
# Topology ssa, (4,4)-cn, num edge types: 1
# Building blocks:
#     Node 0, Type 0, BuildingBlock: ESEHIV_clean_sbu_0, # of connection points: 4
#     Node 1, Type 0, BuildingBlock: ESEHIV_clean_sbu_0, # of connection points: 4
#     Node 2, Type 0, BuildingBlock: ESEHIV_clean_sbu_0, # of connection points: 4
#     Node 3, Type 0, BuildingBlock: ESEHIV_clean_sbu_0, # of connection points: 4
#     Node 4, Type 0, BuildingBlock: ESEHIV_clean_sbu_0, # of connection points: 4
#     Node 5, Type 0, BuildingBlock: ESEHIV_clean_sbu_0, # of connection points: 4
#     Node 6, Type 1, BuildingBlock: NAWXER_clean_sbu_0, # of connection points: 4
#     Node 7, Type 1, BuildingBlock: NAWXER_clean_sbu_0, # of connection points: 4
#     Node 8, Type 1, BuildingBlock: NAWXER_clean_sbu_0, # of connection points: 4
#     Node 9, Type 1, BuildingBlock: NAWXER_clean_sbu_0, # of connection points: 4
#     Node 10, Type 1, BuildingBlock: NAWXER_clean_sbu_0, # of connection points: 4
#     Node 11, Type 1, BuildingBlock: NAWXER_clean_sbu_0, # of connection points: 4
#     Edge 12, Type (0, 1), BuildingBlock: TEMPAE_clean_linker_10, # of connection points: 2
#     Edge 13, Type (0, 1), BuildingBlock: TEMPAE_clean_linker_10, # of connection points: 2
#     Edge 14, Type (0, 1), BuildingBlock: TEMPAE_clean_linker_10, # of connection points: 2
#     Edge 15, Type (0, 1), BuildingBlock: TEMPAE_clean_linker_10, # of connection points: 2
#     Edge 16, Type (0, 1), BuildingBlock: TEMPAE_clean_linker_10, # of connection points: 2
#     Edge 17, Type (0, 1), BuildingBlock: TEMPAE_clean_linker_10, # of connection points: 2
#     Edge 18, Type (0, 1), BuildingBlock: TEMPAE_clean_linker_10, # of connection points: 2
#     Edge 19, Type (0, 1), BuildingBlock: TEMPAE_clean_linker_10, # of connection points: 2
#     Edge 20, Type (0, 1), BuildingBlock: TEMPAE_clean_linker_10, # of connection points: 2
#     Edge 21, Type (0, 1), BuildingBlock: TEMPAE_clean_linker_10, # of connection points: 2
#     Edge 22, Type (0, 1), BuildingBlock: TEMPAE_clean_linker_10, # of connection points: 2
#     Edge 23, Type (0, 1), BuildingBlock: TEMPAE_clean_linker_10, # of connection points: 2
#     Edge 24, Type (0, 1), BuildingBlock: TEMPAE_clean_linker_10, # of connection points: 2
#     Edge 25, Type (0, 1), BuildingBlock: TEMPAE_clean_linker_10, # of connection points: 2
#     Edge 26, Type (0, 1), BuildingBlock: TEMPAE_clean_linker_10, # of connection points: 2
#     Edge 27, Type (0, 1), BuildingBlock: TEMPAE_clean_linker_10, # of connection points: 2
#     Edge 28, Type (0, 1), BuildingBlock: TEMPAE_clean_linker_10, # of connection points: 2
#     Edge 29, Type (0, 1), BuildingBlock: TEMPAE_clean_linker_10, # of connection points: 2
#     Edge 30, Type (0, 1), BuildingBlock: TEMPAE_clean_linker_10, # of connection points: 2
#     Edge 31, Type (0, 1), BuildingBlock: TEMPAE_clean_linker_10, # of connection points: 2
#     Edge 32, Type (0, 1), BuildingBlock: TEMPAE_clean_linker_10, # of connection points: 2
#     Edge 33, Type (0, 1), BuildingBlock: TEMPAE_clean_linker_10, # of connection points: 2
#     Edge 34, Type (0, 1), BuildingBlock: TEMPAE_clean_linker_10, # of connection points: 2
#     Edge 35, Type (0, 1), BuildingBlock: TEMPAE_clean_linker_10, # of connection points: 2
# Relax obj value: 0.016
# Max RMSD: 0.108
# Mean RMSD: 0.057
data_MOF--net-ssa--node1-ESEHIV_clean_sbu_0--node2-NAWXER_clean_sbu_0--edge1-TEMPAE_clean_linker_10
_symmetry_space_group_name_H-M    P1
_symmetry_Int_Tables_number       1
_symmetry_cell_setting            triclinic
loop_
_symmetry_equiv_pos_as_xyz
'x, y, z'
_cell_length_a     45.400237
_cell_length_b     49.115708
_cell_length_c     39.165666
_cell_angle_alpha  87.998261
_cell_angle_beta   90.736826
_cell_angle_gamma 123.14241
loop_
_atom_site_label
_atom_site_type_symbol
_atom_site_fract_x
_atom_site_fract_y
_atom_site_fract_z
_atom_type_partial_charge
Cu0 Cu 0.02879 0.52117 0.98094 0.0
N1 N 0.03549 0.50167 0.94413 0.0
N2 N 0.02019 0.46229 0.90732 0.0
C3 C 0.01225 0.47037 0.93678 0.0
C4 C 0.0498 0.48969 0.8956 0.0
C5 C 0.05931 0.51397 0.9185 0.0
O6 O 0.98233 0.51365 0.97326 0.0
C7 C 0.06568 0.50584 0.02266 0.0
O8 O 0.08516 0.51739 0.99483 0.0
H9 H 0.9888 0.45431 0.95191 0.0
H10 H 0.08138 0.53892 0.91601 0.0
N11 N 0.06218 0.5657 0.98498 0.0
N12 N 0.09854 0.61041 0.01431 0.0
C13 C 0.07068 0.57927 0.01576 0.0
C14 C 0.08506 0.5892 0.96279 0.0
C15 C 0.10751 0.61685 0.98082 0.0
C16 C 0.98033 0.52498 0.94413 0.0
O17 O 1.00927 0.54237 0.92578 0.0
H18 H 0.05699 0.5659 0.03894 0.0
H19 H 0.08624 0.58625 0.93573 0.0
O20 O 0.03591 0.50282 0.0227 0.0
H21 H 0.06317 0.49219 0.87188 0.0
H22 H 0.12963 0.63937 0.97016 0.0
Cu23 Cu 0.49463 1.00661 0.52997 0.0
N24 N 0.4941 0.96837 0.53416 0.0
N25 N 0.48949 0.92376 0.51515 0.0
C26 C 0.497 0.95385 0.50716 0.0
C27 C 0.48229 0.91943 0.54902 0.0
C28 C 0.48503 0.947 0.56066 0.0
O29 O 0.46604 1.00067 0.48995 0.0
C30 C 0.57027 0.04501 0.53271 0.0
O31 O 0.5688 0.01788 0.52864 0.0
H32 H 0.50396 0.96509 0.48192 0.0
H33 H 0.47937 0.95056 0.58624 0.0
N34 N 0.47381 0.01187 0.56761 0.0
N35 N 0.46651 0.03849 0.60826 0.0
C36 C 0.48452 0.04108 0.57993 0.0
C37 C 0.44782 0.98984 0.58868 0.0
C38 C 0.44337 1.00625 0.61398 0.0
C39 C 0.47622 1.00212 0.45943 0.0
O40 O 0.5099 0.01541 0.45338 0.0
H41 H 0.50573 0.06384 0.56866 0.0
H42 H 0.43331 0.96377 0.58599 0.0
O43 O 0.54242 0.0452 0.52952 0.0
H44 H 0.4742 0.89751 0.56407 0.0
H45 H 0.42443 0.99535 0.63475 0.0
Cu46 Cu 0.53063 0.5247 0.03036 0.0
N47 N 0.5329 0.48799 0.0332 0.0
N48 N 0.54053 0.45044 0.0123 0.0
C49 C 0.534 0.47371 1.00507 0.0
C50 C 0.54309 0.44977 0.04673 0.0
C51 C 0.5385 0.47312 0.05956 0.0
O52 O 0.55615 0.5467 0.98806 0.0
C53 C 0.45513 0.48442 0.03623 0.0
O54 O 0.45764 0.45942 0.0315 0.0
H55 H 0.53045 0.48079 0.97968 0.0
H56 H 0.5402 0.47941 0.08602 0.0
N57 N 0.55176 0.55136 0.06751 0.0
N58 N 0.5588 0.58549 0.10783 0.0
C59 C 0.54252 0.57132 0.07854 0.0
C60 C 0.5748 0.55287 0.09056 0.0
C61 C 0.57924 0.57399 0.11551 0.0
C62 C 0.58902 0.55808 0.98861 0.0
O63 O 0.60352 0.55904 0.01815 0.0
H64 H 0.523 0.57427 0.06599 0.0
H65 H 0.58698 0.53916 0.0897 0.0
O66 O 0.48227 0.51318 0.03245 0.0
H67 H 0.54888 0.43429 0.06159 0.0
H68 H 0.596 0.58019 0.13764 0.0
Cu69 Cu 0.99966 0.50748 0.48403 0.0
N70 N 0.99275 0.47728 0.45199 0.0
N71 N 1.00787 0.45153 0.41744 0.0
C72 C 0.01714 0.4804 0.43007 0.0
C73 C 0.97639 0.42944 0.43179 0.0
C74 C 0.96714 0.44539 0.4531 0.0
O75 O 0.04224 0.54892 0.47031 0.0
C76 C 0.9926 0.49374 0.55675 0.0
O77 O 1.00123 0.52354 0.56148 0.0
H78 H 0.0426 0.50273 0.42597 0.0
H79 H 0.94481 0.43416 0.47037 0.0
N80 N 0.96139 0.51212 0.48534 0.0
N81 N 0.92441 0.52145 0.51183 0.0
C82 C 0.95821 0.53082 0.50742 0.0
C83 C 0.92858 0.49098 0.47424 0.0
C84 C 0.90576 0.49674 0.4904 0.0
C85 C 0.07377 0.55641 0.47359 0.0
O86 O 0.08001 0.53712 0.49176 0.0
H87 H 0.97997 0.54936 0.52195 0.0
H88 H 0.92123 0.47073 0.45823 0.0
O89 O 0.99808 0.48637 0.52769 0.0
H90 H 0.96213 0.40342 0.42862 0.0
H91 H 0.87734 0.48172 0.48909 0.0
Cu92 Cu 0.55062 0.02963 0.03407 0.0
N93 N 0.53833 0.05935 0.04175 0.0
N94 N 0.51381 0.08715 0.02754 0.0
C95 C 0.51128 0.05849 0.02621 0.0
C96 C 0.54322 0.1064 0.04579 0.0
C97 C 0.55835 0.08922 0.05438 0.0
O98 O 0.57603 0.04375 0.99045 0.0
C99 C 0.5053 0.95981 0.03823 0.0
O100 O 0.53246 0.9593 0.02804 0.0
H101 H 0.49174 0.03798 0.01182 0.0
H102 H 0.58376 0.09881 0.06607 0.0
N103 N 0.5802 0.03079 0.06848 0.0
N104 N 0.59979 0.01164 0.10924 0.0
C105 C 0.57181 1.00625 0.09104 0.0
C106 C 0.61471 0.05294 0.07308 0.0
C107 C 0.62688 0.04122 0.09842 0.0
C108 C 0.56285 0.04705 0.96289 0.0
O109 O 0.52892 0.03485 0.96175 0.0
H110 H 0.54589 0.98428 0.09351 0.0
H111 H 0.63026 0.07524 0.05792 0.0
O112 O 0.50723 0.98668 0.03731 0.0
H113 H 0.55495 0.13204 0.04973 0.0
H114 H 0.65385 0.05261 0.10675 0.0
Cu115 Cu 0.48688 0.48829 0.52878 0.0
N116 N 0.51422 0.53332 0.53298 0.0
N117 N 0.54399 0.58581 0.51644 0.0
C118 C 0.52474 0.55476 0.50642 0.0
C119 C 0.54555 0.58382 0.55082 0.0
C120 C 0.52729 0.5513 0.56096 0.0
O121 O 0.45808 0.47981 0.48828 0.0
C122 C 0.55041 0.48932 0.52845 0.0
O123 O 0.56648 0.51984 0.51771 0.0
H124 H 0.51764 0.54761 0.48023 0.0
H125 H 0.52367 0.54148 0.58683 0.0
N126 N 0.45859 0.46728 0.56736 0.0
N127 N 0.4356 0.43044 0.6107 0.0
C128 C 0.45058 0.43796 0.57936 0.0
C129 C 0.44804 0.47878 0.59181 0.0
C130 C 0.43386 0.45608 0.61865 0.0
C131 C 0.4366 0.48886 0.48918 0.0
O132 O 0.43388 0.50092 0.51751 0.0
H133 H 0.45809 0.42352 0.56638 0.0
H134 H 0.45216 0.50267 0.59104 0.0
O135 O 0.51695 0.47155 0.5284 0.0
H136 H 0.55893 0.60433 0.56739 0.0
H137 H 0.42431 0.45882 0.64263 0.0
C138 C 0.29243 0.48874 0.29001 0.0
C139 C 0.21411 0.49524 0.20684 0.0
O140 O 0.26779 0.46112 0.27913 0.0
Zn141 Zn 0.22611 0.44211 0.24299 0.0
O142 O 0.29558 0.51455 0.27771 0.0
Zn143 Zn 0.25567 0.49404 0.24649 0.0
O144 O 0.21151 0.46724 0.28087 0.0
O145 O 0.18462 0.4147 0.27142 0.0
O146 O 0.24118 0.5194 0.22018 0.0
O147 O 0.20705 0.46646 0.21303 0.0
O148 O 0.24063 0.42325 0.20942 0.0
O149 O 0.27322 0.47696 0.20707 0.0
C150 C 0.18644 0.43769 0.28746 0.0
C151 C 0.2656 0.44969 0.19576 0.0
C152 C 0.80899 0.3024 0.70239 0.0
C153 C 0.72573 0.21305 0.78175 0.0
O154 O 0.78082 0.29831 0.71438 0.0
Zn155 Zn 0.76534 0.25769 0.74032 0.0
O156 O 0.81606 0.28078 0.70868 0.0
Zn157 Zn 0.79501 0.23569 0.73739 0.0
O158 O 0.7827 0.20364 0.70283 0.0
O159 O 0.74945 0.22372 0.70039 0.0
O160 O 0.75055 0.21039 0.77097 0.0
O161 O 0.72433 0.23711 0.77117 0.0
O162 O 0.80835 0.27508 0.7752 0.0
O163 O 0.83452 0.24878 0.76806 0.0
C164 C 0.75788 0.20473 0.68894 0.0
C165 C 0.8329 0.27055 0.78305 0.0
C166 C 0.52059 0.79559 0.34258 0.0
C167 C 0.53641 0.73844 0.25205 0.0
O168 O 0.55288 0.80608 0.33646 0.0
Zn169 Zn 0.58312 0.79636 0.30314 0.0
O170 O 0.4964 0.77254 0.32529 0.0
Zn171 Zn 0.52726 0.76732 0.29654 0.0
O172 O 0.54767 0.74861 0.33315 0.0
O173 O 0.60529 0.78228 0.33594 0.0
O174 O 0.50767 0.73417 0.26228 0.0
O175 O 0.56545 0.76069 0.26513 0.0
O176 O 0.6111 0.8372 0.2771 0.0
O177 O 0.55404 0.81281 0.26821 0.0
C178 C 0.57718 0.75612 0.34605 0.0
C179 C 0.58566 0.8371 0.26301 0.0
C180 C 0.77629 0.49472 0.80903 0.0
C181 C 0.69498 0.48391 0.7185 0.0
O182 O 0.75038 0.46843 0.79757 0.0
Zn183 Zn 0.73475 0.48798 0.76393 0.0
O184 O 0.78335 0.52207 0.7962 0.0
Zn185 Zn 0.76351 0.53974 0.75728 0.0
O186 O 0.75031 0.56466 0.78287 0.0
O187 O 0.71712 0.51192 0.79512 0.0
O188 O 0.71892 0.51341 0.7249 0.0
O189 O 0.69411 0.46073 0.73511 0.0
O190 O 0.77604 0.50817 0.72657 0.0
O191 O 0.80192 0.56138 0.72383 0.0
C192 C 0.725 0.54092 0.79979 0.0
C193 C 0.79944 0.53598 0.71332 0.0
C194 C 0.3383 0.79934 0.21745 0.0
C195 C 0.25665 0.72855 0.30969 0.0
O196 O 0.31367 0.80403 0.22304 0.0
Zn197 Zn 0.27022 0.78685 0.25799 0.0
O198 O 0.34086 0.77914 0.2364 0.0
Zn199 Zn 0.29905 0.76449 0.26437 0.0
O200 O 0.25856 0.74383 0.22618 0.0
O201 O 0.23122 0.76964 0.22603 0.0
O202 O 0.28238 0.72836 0.29757 0.0
O203 O 0.24995 0.74918 0.29751 0.0
O204 O 0.28452 0.82593 0.28265 0.0
O205 O 0.31686 0.8061 0.29522 0.0
C206 C 0.23483 0.7479 0.21394 0.0
C207 C 0.30954 0.82756 0.29949 0.0
C208 C 0.51255 0.29555 0.83625 0.0
C209 C 0.49328 0.21631 0.75179 0.0
O210 O 0.53614 0.29612 0.81841 0.0
Zn211 Zn 0.50436 0.25732 0.79309 0.0
O212 O 0.48018 0.27274 0.83242 0.0
Zn213 Zn 0.44865 0.23027 0.80319 0.0
O214 O 0.42874 0.19618 0.83931 0.0
O215 O 0.48609 0.22083 0.83262 0.0
O216 O 0.46477 0.21014 0.76576 0.0
O217 O 0.5225 0.24154 0.75996 0.0
O218 O 0.47568 0.27238 0.76324 0.0
O219 O 0.41948 0.24157 0.77748 0.0
C220 C 0.45755 0.19939 0.84811 0.0
C221 C 0.44405 0.26505 0.75962 0.0
C222 C 0.10643 0.49316 0.04996 0.0
C223 C 0.08138 0.50112 0.05374 0.0
C224 C 0.12645 0.49359 0.07764 0.0
C225 C 0.12155 0.50241 0.11008 0.0
C226 C 0.09569 0.5098 0.11435 0.0
C227 C 0.07573 0.50896 0.08604 0.0
C228 C 0.15339 0.48514 0.07193 0.0
C229 C 0.08988 0.51952 0.14849 0.0
C230 C 0.15516 0.47201 0.18058 0.0
C231 C 0.1895 0.49908 0.18516 0.0
C232 C 0.13184 0.47354 0.15808 0.0
C233 C 0.14312 0.50278 0.1393 0.0
C234 C 0.17702 0.53081 0.14524 0.0
C235 C 0.19984 0.52867 0.16828 0.0
C236 C 0.09582 0.44321 0.15294 0.0
C237 C 0.18991 0.56251 0.12584 0.0
H238 H 0.11092 0.48721 0.02495 0.0
H239 H 0.05691 0.51582 0.08885 0.0
H240 H 0.17998 0.50598 0.07853 0.0
H241 H 0.14759 0.46417 0.08886 0.0
H242 H 0.15396 0.47888 0.04506 0.0
H243 H 0.06712 0.52221 0.14819 0.0
H244 H 0.08542 0.50121 0.16868 0.0
H245 H 0.11374 0.54303 0.15556 0.0
H246 H 0.14661 0.4492 0.19413 0.0
H247 H 0.22618 0.54974 0.17198 0.0
H248 H 0.09467 0.43363 0.12738 0.0
H249 H 0.07529 0.44886 0.15379 0.0
H250 H 0.08944 0.4238 0.17254 0.0
H251 H 0.19437 0.55998 0.09866 0.0
H252 H 0.21489 0.58294 0.13633 0.0
H253 H 0.16983 0.56874 0.12643 0.0
C254 C 0.63516 0.07904 0.54411 0.0
C255 C 0.60134 0.07242 0.54954 0.0
C256 C 0.66396 0.10232 0.56335 0.0
C257 C 0.65848 0.11827 0.58962 0.0
C258 C 0.62441 0.11195 0.5948 0.0
C259 C 0.59647 0.08959 0.57432 0.0
C260 C 0.70008 0.10932 0.55607 0.0
C261 C 0.61702 0.12761 0.62311 0.0
C262 C 0.71954 0.14912 0.66632 0.0
C263 C 0.73681 0.18284 0.66125 0.0
C264 C 0.69457 0.12775 0.64274 0.0
C265 C 0.68775 0.1405 0.6128 0.0
C266 C 0.70691 0.17463 0.60665 0.0
C267 C 0.73059 0.19541 0.63137 0.0
C268 C 0.67396 0.09162 0.65093 0.0
C269 C 0.70153 0.18925 0.57454 0.0
H270 H 0.63901 0.06579 0.52502 0.0
H271 H 0.5703 0.0842 0.57907 0.0
H272 H 0.71953 0.13596 0.55346 0.0
H273 H 0.70855 0.10005 0.57772 0.0
H274 H 0.70068 0.0978 0.5324 0.0
H275 H 0.58903 0.11997 0.62386 0.0
H276 H 0.62366 0.12104 0.64814 0.0
H277 H 0.63375 0.15447 0.61989 0.0
H278 H 0.72399 0.13949 0.68974 0.0
H279 H 0.74398 0.22155 0.62756 0.0
H280 H 0.67587 0.07848 0.62951 0.0
H281 H 0.64573 0.08246 0.65428 0.0
H282 H 0.68328 0.08556 0.67459 0.0
H283 H 0.70212 0.17672 0.55177 0.0
H284 H 0.72187 0.21568 0.57134 0.0
H285 H 0.67534 0.18592 0.57541 0.0
C286 C 0.54465 0.62728 0.11096 0.0
C287 C 0.55377 0.60704 0.12736 0.0
C288 C 0.53955 0.64833 0.12954 0.0
C289 C 0.54358 0.64914 0.16545 0.0
C290 C 0.55228 0.62844 0.18224 0.0
C291 C 0.55738 0.60773 0.16298 0.0
C292 C 0.53058 0.67019 0.11067 0.0
C293 C 0.55658 0.62844 0.22053 0.0
C294 C 0.56898 0.72538 0.21201 0.0
C295 C 0.53696 0.71672 0.22706 0.0
C296 C 0.5712 0.70395 0.19116 0.0
C297 C 0.54071 0.67291 0.18532 0.0
C298 C 0.50804 0.66433 0.19951 0.0
C299 C 0.50651 0.68643 0.22013 0.0
C300 C 0.60647 0.7142 0.17619 0.0
C301 C 0.47497 0.63141 0.19387 0.0
H302 H 0.54217 0.62714 0.08342 0.0
H303 H 0.56382 0.59179 0.17588 0.0
H304 H 0.50626 0.66675 0.12148 0.0
H305 H 0.55202 0.69603 0.11392 0.0
H306 H 0.52672 0.6655 0.08291 0.0
H307 H 0.56187 0.60988 0.22983 0.0
H308 H 0.57869 0.65272 0.2283 0.0
H309 H 0.53249 0.62366 0.2334 0.0
H310 H 0.59261 0.74883 0.21702 0.0
H311 H 0.48171 0.67951 0.23178 0.0
H312 H 0.60445 0.71146 0.1481 0.0
H313 H 0.6148 0.69823 0.18686 0.0
H314 H 0.62724 0.73982 0.18162 0.0
H315 H 0.47071 0.62681 0.16616 0.0
H316 H 0.45132 0.6292 0.20494 0.0
H317 H 0.47781 0.61213 0.20574 0.0
C318 C 0.92744 0.53814 0.57137 0.0
C319 C 0.91026 0.52956 0.53971 0.0
C320 C 0.91206 0.54236 0.59989 0.0
C321 C 0.87859 0.5379 0.59683 0.0
C322 C 0.86166 0.53039 0.56469 0.0
C323 C 0.87766 0.52627 0.53657 0.0
C324 C 0.93092 0.55002 0.63369 0.0
C325 C 0.82592 0.52533 0.56034 0.0
C326 C 0.81935 0.50907 0.67533 0.0
C327 C 0.82178 0.53755 0.68486 0.0
C328 C 0.8381 0.50906 0.64714 0.0
C329 C 0.85994 0.53825 0.62778 0.0
C330 C 0.86327 0.5673 0.63767 0.0
C331 C 0.84414 0.56662 0.66611 0.0
C332 C 0.834 0.47757 0.63771 0.0
C333 C 0.88661 0.59896 0.61789 0.0
H334 H 0.95226 0.54013 0.57441 0.0
H335 H 0.86435 0.51983 0.5122 0.0
H336 H 0.93137 0.5704 0.64563 0.0
H337 H 0.91666 0.52852 0.65145 0.0
H338 H 0.95839 0.55654 0.63095 0.0
H339 H 0.81743 0.52196 0.53324 0.0
H340 H 0.80612 0.50349 0.57563 0.0
H341 H 0.82614 0.54641 0.56999 0.0
H342 H 0.80234 0.48647 0.68968 0.0
H343 H 0.84623 0.58873 0.67324 0.0
H344 H 0.86004 0.48055 0.6373 0.0
H345 H 0.82291 0.47095 0.61166 0.0
H346 H 0.81651 0.4571 0.65579 0.0
H347 H 0.91381 0.6046 0.61652 0.0
H348 H 0.88738 0.61964 0.62954 0.0
H349 H 0.87705 0.59674 0.59128 0.0
C350 C 0.47104 0.90108 0.05871 0.0
C351 C 0.47789 0.93254 0.06028 0.0
C352 C 0.44801 0.87623 0.08232 0.0
C353 C 0.43244 0.88332 0.10881 0.0
C354 C 0.4393 0.91505 0.11043 0.0
C355 C 0.46139 0.93902 0.08591 0.0
C356 C 0.4406 0.84251 0.07914 0.0
C357 C 0.42403 0.92401 0.13866 0.0
C358 C 0.3492 0.821 0.15744 0.0
C359 C 0.36262 0.81715 0.18836 0.0
C360 C 0.37165 0.84061 0.1304 0.0
C361 C 0.40855 0.85781 0.1348 0.0
C362 C 0.42224 0.85308 0.16562 0.0
C363 C 0.39903 0.83239 0.19191 0.0
C364 C 0.35582 0.84395 0.09765 0.0
C365 C 0.46135 0.87149 0.17178 0.0
H366 H 0.48387 0.89594 0.03916 0.0
H367 H 0.46694 0.96336 0.08781 0.0
H368 H 0.45114 0.83629 0.10166 0.0
H369 H 0.41179 0.82433 0.0787 0.0
H370 H 0.45258 0.84031 0.05569 0.0
H371 H 0.43306 0.95009 0.13709 0.0
H372 H 0.3949 0.90907 0.13752 0.0
H373 H 0.43162 0.91878 0.1639 0.0
H374 H 0.32097 0.80892 0.15456 0.0
H375 H 0.40941 0.82957 0.21591 0.0
H376 H 0.36867 0.84129 0.07524 0.0
H377 H 0.36033 0.86854 0.09551 0.0
H378 H 0.32705 0.82562 0.09648 0.0
H379 H 0.47534 0.87034 0.14944 0.0
H380 H 0.46783 0.86195 0.19481 0.0
H381 H 0.47155 0.89752 0.17536 0.0
C382 C 0.43428 0.40689 0.66798 0.0
C383 C 0.42882 0.40332 0.63265 0.0
C384 C 0.43227 0.38206 0.68891 0.0
C385 C 0.42439 0.35284 0.67422 0.0
C386 C 0.41696 0.34843 0.63888 0.0
C387 C 0.41939 0.37374 0.61855 0.0
C388 C 0.44065 0.3879 0.72641 0.0
C389 C 0.40827 0.31766 0.62218 0.0
C390 C 0.46546 0.3108 0.71668 0.0
C391 C 0.43745 0.28554 0.7361 0.0
C392 C 0.46126 0.3324 0.69624 0.0
C393 C 0.42815 0.32878 0.69486 0.0
C394 C 0.39939 0.30282 0.71363 0.0
C395 C 0.40438 0.28149 0.73412 0.0
C396 C 0.4927 0.3597 0.67686 0.0
C397 C 0.3636 0.298 0.71257 0.0
H398 H 0.44191 0.42974 0.67905 0.0
H399 H 0.41464 0.37066 0.59136 0.0
H400 H 0.42029 0.36684 0.74217 0.0
H401 H 0.46615 0.39055 0.73168 0.0
H402 H 0.44247 0.41021 0.7346 0.0
H403 H 0.39901 0.31636 0.59553 0.0
H404 H 0.43204 0.31656 0.62172 0.0
H405 H 0.3877 0.29594 0.63706 0.0
H406 H 0.49113 0.3142 0.71785 0.0
H407 H 0.38258 0.26207 0.74903 0.0
H408 H 0.49928 0.38336 0.68651 0.0
H409 H 0.48648 0.35924 0.64933 0.0
H410 H 0.51627 0.35836 0.67949 0.0
H411 H 0.36513 0.31929 0.72345 0.0
H412 H 0.34352 0.2757 0.72712 0.0
H413 H 0.3548 0.29637 0.68573 0.0
C414 C 0.48485 0.90504 0.45633 0.0
C415 C 0.48811 0.90105 0.49163 0.0
C416 C 0.48705 0.88541 0.43276 0.0
C417 C 0.49124 0.86024 0.4447 0.0
C418 C 0.4923 0.85464 0.48027 0.0
C419 C 0.49106 0.87531 0.50332 0.0
C420 C 0.48639 0.89256 0.39499 0.0
C421 C 0.49628 0.8277 0.49393 0.0
C422 C 0.4776 0.79865 0.37953 0.0
C423 C 0.51237 0.81103 0.36943 0.0
C424 C 0.4702 0.81387 0.40473 0.0
C425 C 0.49822 0.8422 0.41983 0.0
C426 C 0.53332 0.85458 0.40989 0.0
C427 C 0.53994 0.8388 0.38499 0.0
C428 C 0.43247 0.79991 0.41492 0.0
C429 C 0.56394 0.88506 0.42492 0.0
H430 H 0.48115 0.92391 0.44683 0.0
H431 H 0.49351 0.87185 0.53041 0.0
H432 H 0.51059 0.89731 0.38236 0.0
H433 H 0.46369 0.87113 0.38291 0.0
H434 H 0.48456 0.91398 0.38991 0.0
H435 H 0.49239 0.82402 0.52207 0.0
H436 H 0.47712 0.80451 0.48161 0.0
H437 H 0.52301 0.83366 0.48775 0.0
H438 H 0.45617 0.77714 0.36773 0.0
H439 H 0.56692 0.84865 0.37734 0.0
H440 H 0.42511 0.81747 0.40775 0.0
H441 H 0.42935 0.79584 0.44305 0.0
H442 H 0.41391 0.77655 0.40251 0.0
H443 H 0.56137 0.90593 0.41903 0.0
H444 H 0.58971 0.89112 0.41489 0.0
H445 H 0.56386 0.88213 0.45313 0.0
C446 C 0.64561 0.57682 0.9589 0.0
C447 C 0.60923 0.5631 0.95686 0.0
C448 C 0.66459 0.57607 0.93137 0.0
C449 C 0.64691 0.56146 0.90076 0.0
C450 C 0.61063 0.54941 0.8977 0.0
C451 C 0.59217 0.55036 0.92581 0.0
C452 C 0.70316 0.58907 0.9359 0.0
C453 C 0.59095 0.53395 0.86535 0.0
C454 C 0.70471 0.57493 0.8238 0.0
C455 C 0.70458 0.54627 0.82496 0.0
C456 C 0.68519 0.57986 0.84761 0.0
C457 C 0.66564 0.55584 0.87358 0.0
C458 C 0.6654 0.52685 0.87477 0.0
C459 C 0.6846 0.52234 0.85035 0.0
C460 C 0.68581 0.6109 0.84523 0.0
C461 C 0.64591 0.501 0.90261 0.0
H462 H 0.65911 0.5869 0.9827 0.0
H463 H 0.56407 0.5396 0.92401 0.0
H464 H 0.70696 0.56859 0.93631 0.0
H465 H 0.7188 0.6057 0.91415 0.0
H466 H 0.71373 0.60234 0.95999 0.0
H467 H 0.56309 0.5266 0.86659 0.0
H468 H 0.60402 0.55115 0.84323 0.0
H469 H 0.59153 0.51211 0.86057 0.0
H470 H 0.71987 0.59343 0.80411 0.0
H471 H 0.68453 0.50022 0.85164 0.0
H472 H 0.69815 0.62515 0.86841 0.0
H473 H 0.65856 0.60519 0.84413 0.0
H474 H 0.70061 0.62631 0.82243 0.0
H475 H 0.6601 0.50996 0.92709 0.0
H476 H 0.64375 0.47796 0.897 0.0
H477 H 0.61911 0.49576 0.90637 0.0
C478 C 0.13762 0.59939 0.46194 0.0
C479 C 0.10222 0.58368 0.45233 0.0
C480 C 0.1647 0.62402 0.44081 0.0
C481 C 0.1563 0.63238 0.40877 0.0
C482 C 0.12057 0.61639 0.39892 0.0
C483 C 0.09404 0.59267 0.42097 0.0
C484 C 0.20229 0.6411 0.45278 0.0
C485 C 0.11036 0.62382 0.36468 0.0
C486 C 0.2176 0.71319 0.36095 0.0
C487 C 0.23355 0.70464 0.33688 0.0
C488 C 0.19378 0.69034 0.38553 0.0
C489 C 0.18463 0.65775 0.38534 0.0
C490 C 0.20102 0.64909 0.36131 0.0
C491 C 0.22572 0.67276 0.33775 0.0
C492 C 0.17786 0.70096 0.41128 0.0
C493 C 0.19135 0.61448 0.3595 0.0
H494 H 0.14412 0.59256 0.48611 0.0
H495 H 0.06681 0.58031 0.41307 0.0
H496 H 0.21792 0.6365 0.43516 0.0
H497 H 0.21435 0.66778 0.4524 0.0
H498 H 0.20433 0.63294 0.47901 0.0
H499 H 0.08152 0.60858 0.36041 0.0
H500 H 0.11908 0.64978 0.36273 0.0
H501 H 0.12374 0.61971 0.34388 0.0
H502 H 0.22377 0.73787 0.36055 0.0
H503 H 0.23774 0.66597 0.31901 0.0
H504 H 0.18064 0.69334 0.4375 0.0
H505 H 0.14932 0.68903 0.40639 0.0
H506 H 0.19031 0.72773 0.41028 0.0
H507 H 0.19514 0.60586 0.3847 0.0
H508 H 0.2072 0.61185 0.34008 0.0
H509 H 0.1631 0.59832 0.35302 0.0
C510 C 0.47976 0.08236 0.97562 0.0
C511 C 0.49531 0.09774 1.00637 0.0
C512 C 0.4671 0.09562 0.95196 0.0
C513 C 0.47024 0.12514 0.95898 0.0
C514 C 0.48333 0.13946 0.991 0.0
C515 C 0.49563 0.12554 0.01433 0.0
C516 C 0.45326 0.07947 0.91817 0.0
C517 C 0.48698 0.17089 0.99954 0.0
C518 C 0.49167 0.18259 0.88276 0.0
C519 C 0.45946 0.17943 0.87629 0.0
C520 C 0.49531 0.16515 0.90961 0.0
C521 C 0.46598 0.14381 0.93077 0.0
C522 C 0.43322 0.14018 0.9244 0.0
C523 C 0.43031 0.15807 0.89714 0.0
C524 C 0.53072 0.16962 0.91524 0.0
C525 C 0.40138 0.11746 0.94637 0.0
H526 H 0.47939 0.06104 0.96877 0.0
H527 H 0.50686 0.13722 0.03826 0.0
H528 H 0.42949 0.07921 0.9106 0.0
H529 H 0.47356 0.09347 0.89804 0.0
H530 H 0.44667 0.05409 0.91901 0.0
H531 H 0.49223 0.17608 0.02711 0.0
H532 H 0.50915 0.19128 0.98457 0.0
H533 H 0.46285 0.17021 0.99249 0.0
H534 H 0.51439 0.19888 0.86678 0.0
H535 H 0.40536 0.15551 0.89234 0.0
H536 H 0.52832 0.14604 0.91289 0.0
H537 H 0.54009 0.17808 0.94143 0.0
H538 H 0.55098 0.18748 0.89668 0.0
H539 H 0.39526 0.09232 0.94544 0.0
H540 H 0.37783 0.11737 0.93811 0.0
H541 H 0.40697 0.12466 0.97339 0.0
C542 C 0.42615 0.48528 0.42571 0.0
C543 C 0.41656 0.48823 0.45862 0.0
C544 C 0.40824 0.48664 0.39671 0.0
C545 C 0.37981 0.49059 0.40079 0.0
C546 C 0.36993 0.49333 0.43399 0.0
C547 C 0.3885 0.49231 0.46239 0.0
C548 C 0.41979 0.48395 0.36172 0.0
C549 C 0.33947 0.49706 0.4396 0.0
C550 C 0.34586 0.51923 0.32748 0.0
C551 C 0.31611 0.48974 0.31726 0.0
C552 C 0.3676 0.51986 0.35388 0.0
C553 C 0.35916 0.49036 0.37069 0.0
C554 C 0.32948 0.46055 0.36011 0.0
C555 C 0.3085 0.4606 0.33352 0.0
C556 C 0.39924 0.55211 0.36421 0.0
C557 C 0.31925 0.42858 0.37753 0.0
H558 H 0.44803 0.48248 0.42256 0.0
H559 H 0.38086 0.49457 0.4877 0.0
H560 H 0.39798 0.46221 0.34917 0.0
H561 H 0.4263 0.5055 0.34541 0.0
H562 H 0.44308 0.48207 0.36276 0.0
H563 H 0.33534 0.4992 0.46703 0.0
H564 H 0.34407 0.519 0.42537 0.0
H565 H 0.31494 0.47579 0.42958 0.0
H566 H 0.35209 0.54183 0.31497 0.0
H567 H 0.28561 0.43764 0.32592 0.0
H568 H 0.42318 0.5513 0.36392 0.0
H569 H 0.39563 0.55711 0.39071 0.0
H570 H 0.40367 0.57257 0.3471 0.0
H571 H 0.34162 0.42541 0.37697 0.0
H572 H 0.2962 0.40742 0.36538 0.0
H573 H 0.31276 0.42853 0.40476 0.0
C574 C 0.99498 0.43152 0.85472 0.0
C575 C 0.9985 0.43194 0.89034 0.0
C576 C 0.97015 0.40279 0.83839 0.0
C577 C 0.9486 0.37371 0.85815 0.0
C578 C 0.95364 0.37357 0.89388 0.0
C579 C 0.97837 0.40272 0.90955 0.0
C580 C 0.96544 0.40407 0.80026 0.0
C581 C 0.93161 0.34306 0.91583 0.0
C582 C 0.85735 0.3165 0.82282 0.0
C583 C 0.8611 0.29363 0.80628 0.0
C584 C 0.88534 0.34205 0.84047 0.0
C585 C 0.91802 0.3448 0.84206 0.0
C586 C 0.92156 0.32089 0.827 0.0
C587 C 0.89305 0.29559 0.80916 0.0
C588 C 0.88031 0.36693 0.85618 0.0
C589 C 0.95584 0.32276 0.82859 0.0
H590 H 1.01027 0.45404 0.83979 0.0
H591 H 0.98142 0.40286 0.93703 0.0
H592 H 0.96534 0.38397 0.78807 0.0
H593 H 0.93966 0.40083 0.79492 0.0
H594 H 0.98645 0.42754 0.78817 0.0
H595 H 0.94195 0.34587 0.94222 0.0
H596 H 0.90425 0.33701 0.91729 0.0
H597 H 0.93051 0.32218 0.90438 0.0
H598 H 0.83275 0.31517 0.82099 0.0
H599 H 0.89624 0.27811 0.79642 0.0
H600 H 0.89821 0.39115 0.84357 0.0
H601 H 0.88714 0.36915 0.88367 0.0
H602 H 0.85288 0.36065 0.85373 0.0
H603 H 0.97604 0.34411 0.81301 0.0
H604 H 0.95326 0.30057 0.81888 0.0
H605 H 0.96556 0.32623 0.85523 0.0
C606 C 0.94532 0.52255 0.89359 0.0
C607 C 0.94639 0.51676 0.92881 0.0
C608 C 0.91426 0.51554 0.87763 0.0
C609 C 0.8832 0.50267 0.8973 0.0
C610 C 0.88377 0.49624 0.93284 0.0
C611 C 0.91538 0.50319 0.9482 0.0
C612 C 0.91494 0.5225 0.83964 0.0
C613 C 0.85122 0.48271 0.95467 0.0
C614 C 0.8219 0.52269 0.85401 0.0
C615 C 0.79958 0.49445 0.83585 0.0
C616 C 0.84739 0.52469 0.87635 0.0
C617 C 0.8511 0.49795 0.88039 0.0
C618 C 0.82727 0.46866 0.86373 0.0
C619 C 0.80162 0.46719 0.84179 0.0
C620 C 0.8719 0.55627 0.89383 0.0
C621 C 0.8304 0.43964 0.86716 0.0
H622 H 0.96894 0.53259 0.87819 0.0
H623 H 0.91596 0.49853 0.97537 0.0
H624 H 0.89431 0.50033 0.82671 0.0
H625 H 0.90917 0.54153 0.83485 0.0
H626 H 0.94078 0.53094 0.82773 0.0
H627 H 0.85531 0.47713 0.98137 0.0
H628 H 0.84347 0.50056 0.95509 0.0
H629 H 0.82896 0.46022 0.94363 0.0
H630 H 0.82017 0.54372 0.84999 0.0
H631 H 0.78442 0.44524 0.82795 0.0
H632 H 0.89838 0.56872 0.88181 0.0
H633 H 0.87478 0.55161 0.9212 0.0
H634 H 0.86255 0.57297 0.89197 0.0
H635 H 0.85392 0.44481 0.85276 0.0
H636 H 0.80694 0.41735 0.85703 0.0
H637 H 0.834 0.43484 0.89427 0.0
C638 C 0.46067 0.97856 0.40106 0.0
C639 C 0.44978 0.98173 0.43324 0.0
C640 C 0.43661 0.9552 0.37831 0.0
C641 C 0.40071 0.93439 0.38789 0.0
C642 C 0.38925 0.93852 0.41961 0.0
C643 C 0.41384 0.96217 0.44181 0.0
C644 C 0.44997 0.95158 0.34478 0.0
C645 C 0.35133 0.91678 0.43097 0.0
C646 C 0.33345 0.88407 0.31954 0.0
C647 C 0.33113 0.85443 0.32317 0.0
C648 C 0.35584 0.91031 0.34047 0.0
C649 C 0.37591 0.90663 0.36603 0.0
C650 C 0.37289 0.87643 0.37038 0.0
C651 C 0.35079 0.85086 0.34878 0.0
C652 C 0.35857 0.94216 0.33478 0.0
C653 C 0.39278 0.87094 0.39804 0.0
H654 H 0.48831 0.99342 0.39413 0.0
H655 H 0.40503 0.96429 0.46658 0.0
H656 H 0.44772 0.9279 0.34503 0.0
H657 H 0.43371 0.95156 0.32338 0.0
H658 H 0.47788 0.97132 0.33978 0.0
H659 H 0.34592 0.92518 0.45466 0.0
H660 H 0.33353 0.91566 0.4106 0.0
H661 H 0.34481 0.89167 0.43585 0.0
H662 H 0.31849 0.88708 0.2997 0.0
H663 H 0.34885 0.82791 0.35205 0.0
H664 H 0.38594 0.96158 0.32742 0.0
H665 H 0.35239 0.94942 0.3588 0.0
H666 H 0.34055 0.94087 0.3145 0.0
H667 H 0.4208 0.89129 0.39799 0.0
H668 H 0.39133 0.84782 0.39518 0.0
H669 H 0.38159 0.87016 0.42335 0.0
C670 C 0.53895 0.40091 0.99792 0.0
C671 C 0.54396 0.43089 0.98789 0.0
C672 C 0.5388 0.38037 0.97372 0.0
C673 C 0.5431 0.38974 0.93861 0.0
C674 C 0.54974 0.42052 0.92845 0.0
C675 C 0.55075 0.44093 0.95323 0.0
C676 C 0.53206 0.34784 0.98556 0.0
C677 C 0.55391 0.43121 0.89121 0.0
C678 C 0.55606 0.34171 0.87278 0.0
C679 C 0.52143 0.32049 0.86173 0.0
C680 C 0.56369 0.36433 0.89808 0.0
C681 C 0.53607 0.36582 0.91227 0.0
C682 C 0.50121 0.34474 0.90081 0.0
C683 C 0.49434 0.32233 0.87586 0.0
C684 C 0.60113 0.38638 0.90986 0.0
C685 C 0.47106 0.34595 0.91476 0.0
H686 H 0.53379 0.39284 0.02449 0.0
H687 H 0.55607 0.4645 0.94512 0.0
H688 H 0.50527 0.32816 0.97783 0.0
H689 H 0.55101 0.34352 0.97334 0.0
H690 H 0.53408 0.34605 0.01375 0.0
H691 H 0.55751 0.45537 0.88747 0.0
H692 H 0.57689 0.43236 0.88001 0.0
H693 H 0.53037 0.41326 0.87671 0.0
H694 H 0.57708 0.34033 0.86205 0.0
H695 H 0.46752 0.30623 0.86732 0.0
H696 H 0.60263 0.38294 0.93784 0.0
H697 H 0.61008 0.41218 0.90493 0.0
H698 H 0.61948 0.38174 0.89681 0.0
H699 H 0.46863 0.34096 0.94277 0.0
H700 H 0.44553 0.32805 0.90285 0.0
H701 H 0.47625 0.37065 0.91026 0.0
C702 C 0.03288 0.41875 0.40762 0.0
C703 C 0.0302 0.44514 0.3983 0.0
C704 C 0.05673 0.41378 0.39096 0.0
C705 C 0.07778 0.43531 0.3638 0.0
C706 C 0.07428 0.46139 0.35359 0.0
C707 C 0.05089 0.46624 0.37131 0.0
C708 C 0.06037 0.3863 0.40328 0.0
C709 C 0.09569 0.48453 0.32432 0.0
C710 C 0.16629 0.45026 0.33977 0.0
C711 C 0.15798 0.43176 0.31059 0.0
C712 C 0.14004 0.45004 0.35855 0.0
C713 C 0.10479 0.43175 0.34712 0.0
C714 C 0.09607 0.41202 0.31835 0.0
C715 C 0.12279 0.41193 0.30066 0.0
C716 C 0.15036 0.47065 0.38965 0.0
C717 C 0.05899 0.39278 0.30488 0.0
H718 H 0.01728 0.40273 0.42888 0.0
H719 H 0.04867 0.48656 0.3641 0.0
H720 H 0.05678 0.37067 0.38178 0.0
H721 H 0.08728 0.39639 0.4133 0.0
H722 H 0.04106 0.37092 0.42376 0.0
H723 H 0.08778 0.50185 0.3178 0.0
H724 H 0.12397 0.4987 0.33107 0.0
H725 H 0.09276 0.47071 0.3013 0.0
H726 H 0.19358 0.46571 0.34733 0.0
H727 H 0.11647 0.39812 0.27768 0.0
H728 H 0.1325 0.45634 0.41142 0.0
H729 H 0.14786 0.4916 0.38411 0.0
H730 H 0.17787 0.48018 0.3975 0.0
H731 H 0.04008 0.37776 0.32569 0.0
H732 H 0.05595 0.37661 0.2841 0.0
H733 H 0.05181 0.40979 0.29477 0.0
C734 C 0.57192 0.0703 0.90287 0.0
C735 C 0.58616 0.06908 0.9345 0.0
C736 C 0.59313 0.09311 0.87688 0.0
C737 C 0.62942 0.11572 0.88278 0.0
C738 C 0.64397 0.11448 0.91459 0.0
C739 C 0.62229 0.09106 0.93988 0.0
C740 C 0.57664 0.09311 0.84316 0.0
C741 C 0.68239 0.13833 0.92216 0.0
C742 C 0.69448 0.15706 0.80871 0.0
C743 C 0.69934 0.18788 0.80633 0.0
C744 C 0.67108 0.13315 0.8327 0.0
C745 C 0.65243 0.14027 0.85553 0.0
C746 C 0.65679 0.17118 0.85299 0.0
C747 C 0.67992 0.1945 0.82819 0.0
C748 C 0.6667 0.10035 0.83388 0.0
C749 C 0.63773 0.17992 0.87708 0.0
H750 H 0.54404 0.05352 0.89846 0.0
H751 H 0.63353 0.09065 0.96433 0.0
H752 H 0.57925 0.11675 0.83858 0.0
H753 H 0.59061 0.09021 0.82197 0.0
H754 H 0.54831 0.07333 0.84221 0.0
H755 H 0.68953 0.13463 0.94837 0.0
H756 H 0.69899 0.13592 0.90356 0.0
H757 H 0.68882 0.16359 0.91931 0.0
H758 H 0.70905 0.15155 0.79169 0.0
H759 H 0.68359 0.21825 0.82661 0.0
H760 H 0.63846 0.0807 0.83188 0.0
H761 H 0.67615 0.09652 0.85871 0.0
H762 H 0.68142 0.09797 0.81303 0.0
H763 H 0.60893 0.16205 0.87563 0.0
H764 H 0.64333 0.20464 0.87137 0.0
H765 H 0.64568 0.17887 0.90376 0.0
C766 C 0.56716 0.61447 0.46074 0.0
C767 C 0.55755 0.61453 0.49462 0.0
C768 C 0.57581 0.64032 0.43768 0.0
C769 C 0.57472 0.66689 0.44872 0.0
C770 C 0.56728 0.6681 0.48346 0.0
C771 C 0.55885 0.6419 0.50604 0.0
C772 C 0.58384 0.63813 0.40095 0.0
C773 C 0.56581 0.69597 0.49624 0.0
C774 C 0.60873 0.74101 0.3884 0.0
C775 C 0.57749 0.73397 0.37261 0.0
C776 C 0.6084 0.71963 0.41356 0.0
C777 C 0.5761 0.69064 0.42302 0.0
C778 C 0.54457 0.68356 0.40723 0.0
C779 C 0.54566 0.70523 0.38234 0.0
C780 C 0.64251 0.72789 0.42985 0.0
C781 C 0.50954 0.65286 0.41642 0.0
H782 H 0.56698 0.5937 0.452 0.0
H783 H 0.55138 0.64206 0.53215 0.0
H784 H 0.56147 0.63348 0.38464 0.0
H785 H 0.60746 0.66143 0.3917 0.0
H786 H 0.58825 0.61826 0.39752 0.0
H787 H 0.56463 0.69562 0.52458 0.0
H788 H 0.58907 0.71962 0.48716 0.0
H789 H 0.54208 0.69444 0.48592 0.0
H790 H 0.63341 0.76316 0.38108 0.0
H791 H 0.52132 0.69946 0.37039 0.0
H792 H 0.64756 0.70872 0.42464 0.0
H793 H 0.64068 0.72858 0.45799 0.0
H794 H 0.66527 0.7517 0.42027 0.0
H795 H 0.51017 0.6312 0.41078 0.0
H796 H 0.48736 0.65128 0.40219 0.0
H797 H 0.50427 0.65173 0.44419 0.0
C798 C 0.46647 0.06105 0.66363 0.0
C799 C 0.47166 0.0649 0.62815 0.0
C800 C 0.47197 0.08683 0.68326 0.0
C801 C 0.48246 0.11705 0.66692 0.0
C802 C 0.48784 0.1211 0.63111 0.0
C803 C 0.48253 0.09504 0.61221 0.0
C804 C 0.46637 0.08168 0.72145 0.0
C805 C 0.49855 0.15277 0.61267 0.0
C806 C 0.45943 0.16973 0.71314 0.0
C807 C 0.49166 0.19283 0.72785 0.0
C808 C 0.45633 0.14544 0.69268 0.0
C809 C 0.48609 0.14387 0.68709 0.0
C810 C 0.51892 0.16748 0.70128 0.0
C811 C 0.52138 0.19186 0.72133 0.0
C812 C 0.421 0.12108 0.67755 0.0
C813 C 0.55117 0.16642 0.69608 0.0
H814 H 0.45859 0.03797 0.6761 0.0
H815 H 0.48622 0.09804 0.58475 0.0
H816 H 0.49041 0.10042 0.73478 0.0
H817 H 0.44469 0.08444 0.72904 0.0
H818 H 0.45977 0.05724 0.73041 0.0
H819 H 0.50272 0.15229 0.58486 0.0
H820 H 0.47792 0.158 0.61614 0.0
H821 H 0.52317 0.17313 0.62367 0.0
H822 H 0.43639 0.17044 0.71788 0.0
H823 H 0.5463 0.20949 0.73279 0.0
H824 H 0.41154 0.09631 0.688 0.0
H825 H 0.42347 0.12071 0.64945 0.0
H826 H 0.40085 0.12657 0.68305 0.0
H827 H 0.54664 0.14342 0.70747 0.0
H828 H 0.57497 0.18718 0.70784 0.0
H829 H 0.5563 0.16673 0.66841 0.0
C830 C 0.42806 0.50133 0.07856 0.0
C831 C 0.42378 0.47933 0.054 0.0
C832 C 0.39997 0.49475 0.09964 0.0
C833 C 0.36633 0.46599 0.0953 0.0
C834 C 0.36141 0.44449 0.06933 0.0
C835 C 0.39039 0.45108 0.04946 0.0
C836 C 0.40676 0.51793 0.12759 0.0
C837 C 0.32571 0.41427 0.06296 0.0
C838 C 0.30556 0.43447 0.17313 0.0
C839 C 0.28728 0.44973 0.16801 0.0
C840 C 0.33081 0.43888 0.14922 0.0
C841 C 0.33689 0.45804 0.11895 0.0
C842 C 0.31677 0.47181 0.11283 0.0
C843 C 0.29279 0.46812 0.13784 0.0
C844 C 0.35245 0.42466 0.15735 0.0
C845 C 0.32139 0.49135 0.08041 0.0
H846 H 0.45393 0.52296 0.08259 0.0
H847 H 0.387 0.43402 0.03052 0.0
H848 H 0.38937 0.52716 0.12448 0.0
H849 H 0.40055 0.50491 0.15284 0.0
H850 H 0.4345 0.53907 0.12775 0.0
H851 H 0.32547 0.40199 0.03957 0.0
H852 H 0.3178 0.39684 0.08504 0.0
H853 H 0.30565 0.42047 0.06036 0.0
H854 H 0.3016 0.42066 0.19676 0.0
H855 H 0.27859 0.47994 0.13399 0.0
H856 H 0.38048 0.44464 0.1601 0.0
H857 H 0.35102 0.40962 0.13615 0.0
H858 H 0.34363 0.40942 0.18131 0.0
H859 H 0.34722 0.51488 0.08064 0.0
H860 H 0.30047 0.49645 0.07742 0.0
H861 H 0.32116 0.47821 0.05782 0.0
C862 C 0.95127 0.43449 0.57207 0.0
C863 C 0.96845 0.46708 0.58143 0.0
C864 C 0.92472 0.40911 0.59272 0.0
C865 C 0.91534 0.41622 0.62396 0.0
C866 C 0.93308 0.44896 0.63403 0.0
C867 C 0.9592 0.474 0.61254 0.0
C868 C 0.90624 0.37464 0.58074 0.0
C869 C 0.9243 0.45758 0.66735 0.0
C870 C 0.82614 0.35035 0.6624 0.0
C871 C 0.83561 0.33291 0.68379 0.0
C872 C 0.85188 0.37811 0.64331 0.0
C873 C 0.8879 0.38904 0.64645 0.0
C874 C 0.89757 0.37237 0.66941 0.0
C875 C 0.87135 0.34437 0.68737 0.0
C876 C 0.84043 0.39495 0.61881 0.0
C877 C 0.93562 0.38366 0.67445 0.0
H878 H 0.95778 0.42877 0.54795 0.0
H879 H 0.97199 0.49906 0.6199 0.0
H880 H 0.9106 0.35956 0.5992 0.0
H881 H 0.87746 0.36375 0.57958 0.0
H882 H 0.91557 0.37331 0.55514 0.0
H883 H 0.94144 0.48401 0.67212 0.0
H884 H 0.89654 0.45049 0.66723 0.0
H885 H 0.92708 0.44387 0.68889 0.0
H886 H 0.79857 0.34164 0.65966 0.0
H887 H 0.87892 0.33136 0.70442 0.0
H888 H 0.84659 0.39241 0.59223 0.0
H889 H 0.85511 0.42134 0.62363 0.0
H890 H 0.8118 0.38473 0.6208 0.0
H891 H 0.94622 0.38041 0.65067 0.0
H892 H 0.93898 0.37001 0.69569 0.0
H893 H 0.95163 0.40996 0.67991 0.0
C894 C 0.62149 0.99818 0.16115 0.0
C895 C 0.60104 0.98834 0.13153 0.0
C896 C 0.62164 0.97523 0.1836 0.0
C897 C 0.60152 0.94184 0.1757 0.0
C898 C 0.58159 0.93198 0.14529 0.0
C899 C 0.58139 0.95529 0.12377 0.0
C900 C 0.64245 0.98658 0.21621 0.0
C901 C 0.56006 0.89671 0.13567 0.0
C902 C 0.62012 0.88218 0.21934 0.0
C903 C 0.5916 0.8653 0.24208 0.0
C904 C 0.62406 0.90753 0.19778 0.0
C905 C 0.59953 0.91678 0.19994 0.0
C906 C 0.57155 0.9006 0.22396 0.0
C907 C 0.56765 0.87477 0.24435 0.0
C908 C 0.65362 0.92356 0.17184 0.0
C909 C 0.54557 0.91044 0.22797 0.0
H910 H 0.63651 0.02369 0.16719 0.0
H911 H 0.56603 0.94769 0.10058 0.0
H912 H 0.62431 0.97554 0.23849 0.0
H913 H 0.66089 0.97843 0.21803 0.0
H914 H 0.65772 0.01347 0.218 0.0
H915 H 0.54684 0.89323 0.11063 0.0
H916 H 0.57718 0.88712 0.13448 0.0
H917 H 0.53963 0.88195 0.15545 0.0
H918 H 0.63853 0.87473 0.21752 0.0
H919 H 0.54587 0.86201 0.26233 0.0
H920 H 0.66947 0.95031 0.17459 0.0
H921 H 0.64253 0.91879 0.1457 0.0
H922 H 0.6713 0.91453 0.17436 0.0
H923 H 0.55958 0.93589 0.23641 0.0
H924 H 0.52446 0.89452 0.24684 0.0
H925 H 0.53324 0.90966 0.20311 0.0
C926 C 0.55208 0.45732 0.5784 0.0
C927 C 0.56969 0.47924 0.55075 0.0
C928 C 0.57077 0.4535 0.60487 0.0
C929 C 0.60792 0.47103 0.60308 0.0
C930 C 0.6256 0.49088 0.57368 0.0
C931 C 0.60632 0.49519 0.5481 0.0
C932 C 0.5509 0.43288 0.63605 0.0
C933 C 0.66512 0.50938 0.57034 0.0
C934 C 0.65985 0.5002 0.68518 0.0
C935 C 0.66965 0.4779 0.69104 0.0
C936 C 0.63902 0.49758 0.6572 0.0
C937 C 0.62837 0.47247 0.63386 0.0
C938 C 0.63762 0.44943 0.63995 0.0
C939 C 0.65787 0.4522 0.66879 0.0
C940 C 0.62894 0.52212 0.65234 0.0
C941 C 0.6273 0.42271 0.61534 0.0
H942 H 0.52379 0.44502 0.58084 0.0
H943 H 0.62006 0.51207 0.52675 0.0
H944 H 0.55782 0.41479 0.64176 0.0
H945 H 0.55845 0.44847 0.65855 0.0
H946 H 0.52196 0.41993 0.6328 0.0
H947 H 0.67424 0.51932 0.54393 0.0
H948 H 0.67733 0.52996 0.58795 0.0
H949 H 0.67466 0.49347 0.57761 0.0
H950 H 0.66879 0.52 0.70247 0.0
H951 H 0.66582 0.43518 0.67307 0.0
H952 H 0.59999 0.50947 0.64971 0.0
H953 H 0.64108 0.53687 0.62849 0.0
H954 H 0.63749 0.53887 0.67395 0.0
H955 H 0.59846 0.4084 0.61132 0.0
H956 H 0.6352 0.40593 0.62445 0.0
H957 H 0.63997 0.43358 0.59014 0.0
C958 C 0.11212 0.61726 0.07619 0.0
C959 C 0.11654 0.63096 0.043 0.0
C960 C 0.12973 0.63665 0.10424 0.0
C961 C 0.15304 0.67068 0.09914 0.0
C962 C 0.15768 0.6848 0.06587 0.0
C963 C 0.13924 0.66484 0.03829 0.0
C964 C 0.12392 0.6205 0.13925 0.0
C965 C 0.18276 0.72094 0.05927 0.0
C966 C 0.18153 0.72491 0.17626 0.0
C967 C 0.2135 0.72836 0.18468 0.0
C968 C 0.16146 0.70617 0.14852 0.0
C969 C 0.17406 0.69114 0.12832 0.0
C970 C 0.20659 0.69501 0.13645 0.0
C971 C 0.22568 0.71328 0.16463 0.0
C972 C 0.12654 0.70201 0.14112 0.0
C973 C 0.2213 0.67987 0.11534 0.0
H974 H 0.09543 0.59119 0.08043 0.0
H975 H 0.14272 0.67585 0.013 0.0
H976 H 0.14839 0.62253 0.14789 0.0
H977 H 0.1175 0.63292 0.15807 0.0
H978 H 0.10239 0.59431 0.13949 0.0
H979 H 0.1828 0.72828 0.03211 0.0
H980 H 0.17565 0.73458 0.07553 0.0
H981 H 0.20986 0.72826 0.06621 0.0
H982 H 0.17192 0.73642 0.19168 0.0
H983 H 0.25056 0.7161 0.17068 0.0
H984 H 0.1052 0.67581 0.14294 0.0
H985 H 0.12645 0.7108 0.11467 0.0
H986 H 0.12051 0.71537 0.15908 0.0
H987 H 0.2033 0.65298 0.11665 0.0
H988 H 0.2477 0.68642 0.12412 0.0
H989 H 0.22333 0.68781 0.08812 0.0
loop_
_geom_bond_atom_site_label_1
_geom_bond_atom_site_label_2
_geom_bond_distance
_geom_bond_site_symmetry_2
_ccdc_geom_bond_type
Cu0 N1 1.998 1_554 S
Cu0 O6 1.994 1_554 S
Cu0 N11 1.984 1_655 S
Cu0 O20 1.939 1_655 S
N1 Cu0 1.998 1_556 S
N1 C3 1.263 . S
N1 C5 1.389 1_556 S
N2 C3 1.358 . S
N2 C4 1.400 . S
C3 N1 1.263 . S
C3 N2 1.358 . S
C3 H9 0.930 . S
C4 N2 1.400 . S
C4 C5 1.351 1_556 S
C4 H21 0.930 . S
C5 N1 1.389 1_554 S
C5 C4 1.351 1_554 S
C5 H10 0.930 . S
O6 Cu0 1.994 1_556 S
O6 C16 1.282 . S
C7 O8 1.261 . S
C7 O20 1.251 . S
O8 C7 1.261 . S
H9 C3 0.930 . S
H10 C5 0.930 . S
N11 Cu0 1.984 1_455 S
N11 C13 1.335 . S
N11 C14 1.390 . S
N12 C13 1.345 . S
N12 C15 1.336 . S
C13 N11 1.335 . S
C13 N12 1.345 . S
C13 H18 0.930 . S
C14 N11 1.390 . S
C14 C15 1.346 . S
C14 H19 0.930 1_554 S
C15 N12 1.336 . S
C15 C14 1.346 . S
C15 H22 0.929 . S
C16 O6 1.282 . S
C16 O17 1.216 1_655 S
O17 C16 1.216 1_455 S
H18 C13 0.930 . S
H19 C14 0.930 1_556 S
O20 Cu0 1.939 1_455 S
O20 C7 1.251 . S
H21 C4 0.930 . S
H22 C15 0.929 . S
Cu23 N24 1.999 . S
Cu23 O29 1.974 . S
Cu23 N34 1.985 1_565 S
Cu23 O43 1.959 1_565 S
N24 Cu23 1.999 . S
N24 C26 1.263 . S
N24 C28 1.389 . S
N25 C26 1.358 . S
N25 C27 1.400 . S
C26 N24 1.263 . S
C26 N25 1.358 . S
C26 H32 0.930 . S
C27 N25 1.400 . S
C27 C28 1.351 . S
C27 H44 0.930 . S
C28 N24 1.389 . S
C28 C27 1.351 . S
C28 H33 0.930 . S
O29 Cu23 1.974 . S
O29 C39 1.282 . S
C30 O31 1.261 . S
C30 O43 1.251 . S
O31 C30 1.261 . S
H32 C26 0.930 . S
H33 C28 0.930 . S
N34 Cu23 1.985 1_545 S
N34 C36 1.335 . S
N34 C37 1.390 . S
N35 C36 1.345 . S
N35 C38 1.336 . S
C36 N34 1.335 . S
C36 N35 1.345 . S
C36 H41 0.930 . S
C37 N34 1.390 . S
C37 C38 1.346 . S
C37 H42 0.930 . S
C38 N35 1.336 . S
C38 C37 1.346 . S
C38 H45 0.929 . S
C39 O29 1.282 . S
C39 O40 1.216 1_565 S
O40 C39 1.216 1_545 S
H41 C36 0.930 . S
H42 C37 0.930 . S
O43 Cu23 1.959 1_545 S
O43 C30 1.251 . S
H44 C27 0.930 . S
H45 C38 0.929 . S
Cu46 N47 1.999 1_554 S
Cu46 O52 1.974 1_554 S
Cu46 N57 1.985 . S
Cu46 O66 1.959 . S
N47 Cu46 1.999 1_556 S
N47 C49 1.263 . S
N47 C51 1.389 . S
N48 C49 1.358 . S
N48 C50 1.400 . S
C49 N47 1.263 . S
C49 N48 1.358 . S
C49 H55 0.930 . S
C50 N48 1.400 . S
C50 C51 1.351 . S
C50 H67 0.930 . S
C51 N47 1.389 . S
C51 C50 1.351 . S
C51 H56 0.930 . S
O52 Cu46 1.974 1_556 S
O52 C62 1.282 . S
C53 O54 1.261 . S
C53 O66 1.251 . S
O54 C53 1.261 . S
H55 C49 0.930 . S
H56 C51 0.930 . S
N57 Cu46 1.985 . S
N57 C59 1.335 . S
N57 C60 1.390 . S
N58 C59 1.345 . S
N58 C61 1.336 . S
C59 N57 1.335 . S
C59 N58 1.345 . S
C59 H64 0.930 . S
C60 N57 1.390 . S
C60 C61 1.346 . S
C60 H65 0.930 . S
C61 N58 1.336 . S
C61 C60 1.346 . S
C61 H68 0.929 . S
C62 O52 1.282 . S
C62 O63 1.216 1_556 S
O63 C62 1.216 1_554 S
H64 C59 0.930 . S
H65 C60 0.930 . S
O66 Cu46 1.959 . S
O66 C53 1.251 . S
H67 C50 0.930 . S
H68 C61 0.929 . S
Cu69 N70 1.999 1_655 S
Cu69 O75 1.974 1_655 S
Cu69 N80 1.985 . S
Cu69 O89 1.959 . S
N70 Cu69 1.999 1_455 S
N70 C72 1.263 . S
N70 C74 1.389 1_455 S
N71 C72 1.358 . S
N71 C73 1.400 . S
C72 N70 1.263 . S
C72 N71 1.358 . S
C72 H78 0.930 . S
C73 N71 1.400 . S
C73 C74 1.351 1_455 S
C73 H90 0.930 1_455 S
C74 N70 1.389 1_655 S
C74 C73 1.351 1_655 S
C74 H79 0.930 . S
O75 Cu69 1.974 1_455 S
O75 C85 1.282 . S
C76 O77 1.261 1_655 S
C76 O89 1.251 . S
O77 C76 1.261 1_455 S
H78 C72 0.930 . S
H79 C74 0.930 . S
N80 Cu69 1.985 . S
N80 C82 1.335 . S
N80 C83 1.390 . S
N81 C82 1.345 . S
N81 C84 1.336 . S
C82 N80 1.335 . S
C82 N81 1.345 . S
C82 H87 0.930 . S
C83 N80 1.390 . S
C83 C84 1.346 . S
C83 H88 0.930 1_655 S
C84 N81 1.336 . S
C84 C83 1.346 . S
C84 H91 0.929 . S
C85 O75 1.282 . S
C85 O86 1.216 . S
O86 C85 1.216 . S
H87 C82 0.930 . S
H88 C83 0.930 1_455 S
O89 Cu69 1.959 . S
O89 C76 1.251 . S
H90 C73 0.930 1_655 S
H91 C84 0.929 . S
Cu92 N93 1.999 . S
Cu92 O98 1.974 1_554 S
Cu92 N103 1.985 1_545 S
Cu92 O112 1.959 1_545 S
N93 Cu92 1.999 . S
N93 C95 1.263 1_554 S
N93 C97 1.389 . S
N94 C95 1.358 . S
N94 C96 1.400 . S
C95 N93 1.263 1_556 S
C95 N94 1.358 . S
C95 H101 0.930 . S
C96 N94 1.400 . S
C96 C97 1.351 1_556 S
C96 H113 0.930 . S
C97 N93 1.389 . S
C97 C96 1.351 1_554 S
C97 H102 0.930 . S
O98 Cu92 1.974 1_556 S
O98 C108 1.282 . S
C99 O100 1.261 . S
C99 O112 1.251 . S
O100 C99 1.261 . S
H101 C95 0.930 . S
H102 C97 0.930 . S
N103 Cu92 1.985 1_565 S
N103 C105 1.335 . S
N103 C106 1.390 . S
N104 C105 1.345 . S
N104 C107 1.336 . S
C105 N103 1.335 . S
C105 N104 1.345 . S
C105 H110 0.930 . S
C106 N103 1.390 . S
C106 C107 1.346 . S
C106 H111 0.930 . S
C107 N104 1.336 . S
C107 C106 1.346 . S
C107 H114 0.929 . S
C108 O98 1.282 . S
C108 O109 1.216 . S
O109 C108 1.216 . S
H110 C105 0.930 . S
H111 C106 0.930 . S
O112 Cu92 1.959 1_565 S
O112 C99 1.251 . S
H113 C96 0.930 . S
H114 C107 0.929 . S
Cu115 N116 1.999 . S
Cu115 O121 1.974 . S
Cu115 N126 1.985 . S
Cu115 O135 1.959 . S
N116 Cu115 1.999 . S
N116 C118 1.263 . S
N116 C120 1.389 . S
N117 C118 1.358 . S
N117 C119 1.400 . S
C118 N116 1.263 . S
C118 N117 1.358 . S
C118 H124 0.930 . S
C119 N117 1.400 . S
C119 C120 1.351 . S
C119 H136 0.930 . S
C120 N116 1.389 . S
C120 C119 1.351 . S
C120 H125 0.930 . S
O121 Cu115 1.974 . S
O121 C131 1.282 . S
C122 O123 1.261 . S
C122 O135 1.251 . S
O123 C122 1.261 . S
H124 C118 0.930 . S
H125 C120 0.930 . S
N126 Cu115 1.985 . S
N126 C128 1.335 . S
N126 C129 1.390 . S
N127 C128 1.345 . S
N127 C130 1.336 . S
C128 N126 1.335 . S
C128 N127 1.345 . S
C128 H133 0.930 . S
C129 N126 1.390 . S
C129 C130 1.346 . S
C129 H134 0.930 . S
C130 N127 1.336 . S
C130 C129 1.346 . S
C130 H137 0.929 . S
C131 O121 1.282 . S
C131 O132 1.216 . S
O132 C131 1.216 . S
H133 C128 0.930 . S
H134 C129 0.930 . S
O135 Cu115 1.959 . S
O135 C122 1.251 . S
H136 C119 0.930 . S
H137 C130 0.929 . S
C138 O140 1.247 . S
C138 O142 1.258 . S
C139 O146 1.247 . S
C139 O147 1.258 . S
O140 C138 1.247 . S
O140 Zn141 2.028 . S
Zn141 O140 2.028 . S
Zn141 O145 2.035 . S
Zn141 O147 2.035 . S
Zn141 O148 2.028 . S
O142 C138 1.258 . S
O142 Zn143 2.035 . S
Zn143 O142 2.035 . S
Zn143 O144 2.028 . S
Zn143 O146 2.028 . S
Zn143 O149 2.035 . S
O144 Zn143 2.028 . S
O144 C150 1.247 . S
O145 Zn141 2.035 . S
O145 C150 1.258 . S
O146 C139 1.247 . S
O146 Zn143 2.028 . S
O147 C139 1.258 . S
O147 Zn141 2.035 . S
O148 Zn141 2.028 . S
O148 C151 1.247 . S
O149 Zn143 2.035 . S
O149 C151 1.258 . S
C150 O144 1.247 . S
C150 O145 1.258 . S
C151 O148 1.247 . S
C151 O149 1.258 . S
C152 O154 1.247 . S
C152 O156 1.258 . S
C153 O160 1.247 . S
C153 O161 1.258 . S
O154 C152 1.247 . S
O154 Zn155 2.028 . S
Zn155 O154 2.028 . S
Zn155 O159 2.035 . S
Zn155 O161 2.035 . S
Zn155 O162 2.028 . S
O156 C152 1.258 . S
O156 Zn157 2.035 . S
Zn157 O156 2.035 . S
Zn157 O158 2.028 . S
Zn157 O160 2.028 . S
Zn157 O163 2.035 . S
O158 Zn157 2.028 . S
O158 C164 1.247 . S
O159 Zn155 2.035 . S
O159 C164 1.258 . S
O160 C153 1.247 . S
O160 Zn157 2.028 . S
O161 C153 1.258 . S
O161 Zn155 2.035 . S
O162 Zn155 2.028 . S
O162 C165 1.247 . S
O163 Zn157 2.035 . S
O163 C165 1.258 . S
C164 O158 1.247 . S
C164 O159 1.258 . S
C165 O162 1.247 . S
C165 O163 1.258 . S
C166 O168 1.247 . S
C166 O170 1.258 . S
C167 O174 1.247 . S
C167 O175 1.258 . S
O168 C166 1.247 . S
O168 Zn169 2.028 . S
Zn169 O168 2.028 . S
Zn169 O173 2.035 . S
Zn169 O175 2.035 . S
Zn169 O176 2.028 . S
O170 C166 1.258 . S
O170 Zn171 2.035 . S
Zn171 O170 2.035 . S
Zn171 O172 2.028 . S
Zn171 O174 2.028 . S
Zn171 O177 2.035 . S
O172 Zn171 2.028 . S
O172 C178 1.247 . S
O173 Zn169 2.035 . S
O173 C178 1.258 . S
O174 C167 1.247 . S
O174 Zn171 2.028 . S
O175 C167 1.258 . S
O175 Zn169 2.035 . S
O176 Zn169 2.028 . S
O176 C179 1.247 . S
O177 Zn171 2.035 . S
O177 C179 1.258 . S
C178 O172 1.247 . S
C178 O173 1.258 . S
C179 O176 1.247 . S
C179 O177 1.258 . S
C180 O182 1.247 . S
C180 O184 1.258 . S
C181 O188 1.247 . S
C181 O189 1.258 . S
O182 C180 1.247 . S
O182 Zn183 2.028 . S
Zn183 O182 2.028 . S
Zn183 O187 2.035 . S
Zn183 O189 2.035 . S
Zn183 O190 2.028 . S
O184 C180 1.258 . S
O184 Zn185 2.035 . S
Zn185 O184 2.035 . S
Zn185 O186 2.028 . S
Zn185 O188 2.028 . S
Zn185 O191 2.035 . S
O186 Zn185 2.028 . S
O186 C192 1.247 . S
O187 Zn183 2.035 . S
O187 C192 1.258 . S
O188 C181 1.247 . S
O188 Zn185 2.028 . S
O189 C181 1.258 . S
O189 Zn183 2.035 . S
O190 Zn183 2.028 . S
O190 C193 1.247 . S
O191 Zn185 2.035 . S
O191 C193 1.258 . S
C192 O186 1.247 . S
C192 O187 1.258 . S
C193 O190 1.247 . S
C193 O191 1.258 . S
C194 O196 1.247 . S
C194 O198 1.258 . S
C195 O202 1.247 . S
C195 O203 1.258 . S
O196 C194 1.247 . S
O196 Zn197 2.028 . S
Zn197 O196 2.028 . S
Zn197 O201 2.035 . S
Zn197 O203 2.035 . S
Zn197 O204 2.028 . S
O198 C194 1.258 . S
O198 Zn199 2.035 . S
Zn199 O198 2.035 . S
Zn199 O200 2.028 . S
Zn199 O202 2.028 . S
Zn199 O205 2.035 . S
O200 Zn199 2.028 . S
O200 C206 1.247 . S
O201 Zn197 2.035 . S
O201 C206 1.258 . S
O202 C195 1.247 . S
O202 Zn199 2.028 . S
O203 C195 1.258 . S
O203 Zn197 2.035 . S
O204 Zn197 2.028 . S
O204 C207 1.247 . S
O205 Zn199 2.035 . S
O205 C207 1.258 . S
C206 O200 1.247 . S
C206 O201 1.258 . S
C207 O204 1.247 . S
C207 O205 1.258 . S
C208 O210 1.247 . S
C208 O212 1.258 . S
C209 O216 1.247 . S
C209 O217 1.258 . S
O210 C208 1.247 . S
O210 Zn211 2.028 . S
Zn211 O210 2.028 . S
Zn211 O215 2.035 . S
Zn211 O217 2.035 . S
Zn211 O218 2.028 . S
O212 C208 1.258 . S
O212 Zn213 2.035 . S
Zn213 O212 2.035 . S
Zn213 O214 2.028 . S
Zn213 O216 2.028 . S
Zn213 O219 2.035 . S
O214 Zn213 2.028 . S
O214 C220 1.247 . S
O215 Zn211 2.035 . S
O215 C220 1.258 . S
O216 C209 1.247 . S
O216 Zn213 2.028 . S
O217 C209 1.258 . S
O217 Zn211 2.035 . S
O218 Zn211 2.028 . S
O218 C221 1.247 . S
O219 Zn213 2.035 . S
O219 C221 1.258 . S
C220 O214 1.247 . S
C220 O215 1.258 . S
C221 O218 1.247 . S
C221 O219 1.258 . S
C222 C223 1.391 . S
C222 C224 1.394 . S
C222 H238 0.931 . S
C223 C222 1.391 . S
C223 C227 1.376 . S
C224 C222 1.394 . S
C224 C225 1.369 . S
C224 C228 1.531 . S
C225 C224 1.369 . S
C225 C226 1.410 . S
C225 C233 1.503 . S
C226 C225 1.410 . S
C226 C227 1.392 . S
C226 C229 1.511 . S
C227 C223 1.376 . S
C227 C226 1.392 . S
C227 H239 0.929 . S
C228 C224 1.531 . S
C228 H240 0.960 . S
C228 H241 0.962 . S
C228 H242 0.960 . S
C229 C226 1.511 . S
C229 H243 0.961 . S
C229 H244 0.961 . S
C229 H245 0.961 . S
C230 C231 1.370 . S
C230 C232 1.363 . S
C230 H246 0.931 . S
C231 C230 1.370 . S
C231 C235 1.408 . S
C232 C230 1.363 . S
C232 C233 1.370 . S
C232 C236 1.524 . S
C233 C225 1.503 . S
C233 C232 1.370 . S
C233 C234 1.403 . S
C234 C233 1.403 . S
C234 C235 1.404 . S
C234 C237 1.539 . S
C235 C231 1.408 . S
C235 C234 1.404 . S
C235 H247 0.930 . S
C236 C232 1.524 . S
C236 H248 0.956 . S
C236 H249 0.961 . S
C236 H250 0.961 . S
C237 C234 1.539 . S
C237 H251 0.958 . S
C237 H252 0.961 . S
C237 H253 0.960 . S
H238 C222 0.931 . S
H239 C227 0.929 . S
H240 C228 0.960 . S
H241 C228 0.962 . S
H242 C228 0.960 . S
H243 C229 0.961 . S
H244 C229 0.961 . S
H245 C229 0.961 . S
H246 C230 0.931 . S
H247 C235 0.930 . S
H248 C236 0.956 . S
H249 C236 0.961 . S
H250 C236 0.961 . S
H251 C237 0.958 . S
H252 C237 0.961 . S
H253 C237 0.960 . S
C254 C255 1.391 . S
C254 C256 1.394 . S
C254 H270 0.931 . S
C255 C254 1.391 . S
C255 C259 1.376 . S
C256 C254 1.394 . S
C256 C257 1.369 . S
C256 C260 1.531 . S
C257 C256 1.369 . S
C257 C258 1.410 . S
C257 C265 1.503 . S
C258 C257 1.410 . S
C258 C259 1.392 . S
C258 C261 1.511 . S
C259 C255 1.376 . S
C259 C258 1.392 . S
C259 H271 0.929 . S
C260 C256 1.531 . S
C260 H272 0.960 . S
C260 H273 0.962 . S
C260 H274 0.960 . S
C261 C258 1.511 . S
C261 H275 0.961 . S
C261 H276 0.961 . S
C261 H277 0.961 . S
C262 C263 1.370 . S
C262 C264 1.363 . S
C262 H278 0.931 . S
C263 C262 1.370 . S
C263 C267 1.408 . S
C264 C262 1.363 . S
C264 C265 1.370 . S
C264 C268 1.524 . S
C265 C257 1.503 . S
C265 C264 1.370 . S
C265 C266 1.403 . S
C266 C265 1.403 . S
C266 C267 1.404 . S
C266 C269 1.539 . S
C267 C263 1.408 . S
C267 C266 1.404 . S
C267 H279 0.930 . S
C268 C264 1.524 . S
C268 H280 0.956 . S
C268 H281 0.961 . S
C268 H282 0.961 . S
C269 C266 1.539 . S
C269 H283 0.958 . S
C269 H284 0.961 . S
C269 H285 0.960 . S
H270 C254 0.931 . S
H271 C259 0.929 . S
H272 C260 0.960 . S
H273 C260 0.962 . S
H274 C260 0.960 . S
H275 C261 0.961 . S
H276 C261 0.961 . S
H277 C261 0.961 . S
H278 C262 0.931 . S
H279 C267 0.930 . S
H280 C268 0.956 . S
H281 C268 0.961 . S
H282 C268 0.961 . S
H283 C269 0.958 . S
H284 C269 0.961 . S
H285 C269 0.960 . S
C286 C287 1.391 . S
C286 C288 1.394 . S
C286 H302 0.931 . S
C287 C286 1.391 . S
C287 C291 1.376 . S
C288 C286 1.394 . S
C288 C289 1.369 . S
C288 C292 1.531 . S
C289 C288 1.369 . S
C289 C290 1.410 . S
C289 C297 1.503 . S
C290 C289 1.410 . S
C290 C291 1.392 . S
C290 C293 1.511 . S
C291 C287 1.376 . S
C291 C290 1.392 . S
C291 H303 0.929 . S
C292 C288 1.531 . S
C292 H304 0.960 . S
C292 H305 0.962 . S
C292 H306 0.960 . S
C293 C290 1.511 . S
C293 H307 0.961 . S
C293 H308 0.961 . S
C293 H309 0.961 . S
C294 C295 1.370 . S
C294 C296 1.363 . S
C294 H310 0.931 . S
C295 C294 1.370 . S
C295 C299 1.408 . S
C296 C294 1.363 . S
C296 C297 1.370 . S
C296 C300 1.524 . S
C297 C289 1.503 . S
C297 C296 1.370 . S
C297 C298 1.403 . S
C298 C297 1.403 . S
C298 C299 1.404 . S
C298 C301 1.539 . S
C299 C295 1.408 . S
C299 C298 1.404 . S
C299 H311 0.930 . S
C300 C296 1.524 . S
C300 H312 0.956 . S
C300 H313 0.961 . S
C300 H314 0.961 . S
C301 C298 1.539 . S
C301 H315 0.958 . S
C301 H316 0.961 . S
C301 H317 0.960 . S
H302 C286 0.931 . S
H303 C291 0.929 . S
H304 C292 0.960 . S
H305 C292 0.962 . S
H306 C292 0.960 . S
H307 C293 0.961 . S
H308 C293 0.961 . S
H309 C293 0.961 . S
H310 C294 0.931 . S
H311 C299 0.930 . S
H312 C300 0.956 . S
H313 C300 0.961 . S
H314 C300 0.961 . S
H315 C301 0.958 . S
H316 C301 0.961 . S
H317 C301 0.960 . S
C318 C319 1.391 . S
C318 C320 1.394 . S
C318 H334 0.931 . S
C319 C318 1.391 . S
C319 C323 1.376 . S
C320 C318 1.394 . S
C320 C321 1.369 . S
C320 C324 1.531 . S
C321 C320 1.369 . S
C321 C322 1.410 . S
C321 C329 1.503 . S
C322 C321 1.410 . S
C322 C323 1.392 . S
C322 C325 1.511 . S
C323 C319 1.376 . S
C323 C322 1.392 . S
C323 H335 0.929 . S
C324 C320 1.531 . S
C324 H336 0.960 . S
C324 H337 0.962 . S
C324 H338 0.960 . S
C325 C322 1.511 . S
C325 H339 0.961 . S
C325 H340 0.961 . S
C325 H341 0.961 . S
C326 C327 1.370 . S
C326 C328 1.363 . S
C326 H342 0.931 . S
C327 C326 1.370 . S
C327 C331 1.408 . S
C328 C326 1.363 . S
C328 C329 1.370 . S
C328 C332 1.524 . S
C329 C321 1.503 . S
C329 C328 1.370 . S
C329 C330 1.403 . S
C330 C329 1.403 . S
C330 C331 1.404 . S
C330 C333 1.539 . S
C331 C327 1.408 . S
C331 C330 1.404 . S
C331 H343 0.930 . S
C332 C328 1.524 . S
C332 H344 0.956 . S
C332 H345 0.961 . S
C332 H346 0.961 . S
C333 C330 1.539 . S
C333 H347 0.958 . S
C333 H348 0.961 . S
C333 H349 0.960 . S
H334 C318 0.931 . S
H335 C323 0.929 . S
H336 C324 0.960 . S
H337 C324 0.962 . S
H338 C324 0.960 . S
H339 C325 0.961 . S
H340 C325 0.961 . S
H341 C325 0.961 . S
H342 C326 0.931 . S
H343 C331 0.930 . S
H344 C332 0.956 . S
H345 C332 0.961 . S
H346 C332 0.961 . S
H347 C333 0.958 . S
H348 C333 0.961 . S
H349 C333 0.960 . S
C350 C351 1.391 . S
C350 C352 1.394 . S
C350 H366 0.931 . S
C351 C350 1.391 . S
C351 C355 1.376 . S
C352 C350 1.394 . S
C352 C353 1.369 . S
C352 C356 1.531 . S
C353 C352 1.369 . S
C353 C354 1.410 . S
C353 C361 1.503 . S
C354 C353 1.410 . S
C354 C355 1.392 . S
C354 C357 1.511 . S
C355 C351 1.376 . S
C355 C354 1.392 . S
C355 H367 0.929 . S
C356 C352 1.531 . S
C356 H368 0.960 . S
C356 H369 0.962 . S
C356 H370 0.960 . S
C357 C354 1.511 . S
C357 H371 0.961 . S
C357 H372 0.961 . S
C357 H373 0.961 . S
C358 C359 1.370 . S
C358 C360 1.363 . S
C358 H374 0.931 . S
C359 C358 1.370 . S
C359 C363 1.408 . S
C360 C358 1.363 . S
C360 C361 1.370 . S
C360 C364 1.524 . S
C361 C353 1.503 . S
C361 C360 1.370 . S
C361 C362 1.403 . S
C362 C361 1.403 . S
C362 C363 1.404 . S
C362 C365 1.539 . S
C363 C359 1.408 . S
C363 C362 1.404 . S
C363 H375 0.930 . S
C364 C360 1.524 . S
C364 H376 0.956 . S
C364 H377 0.961 . S
C364 H378 0.961 . S
C365 C362 1.539 . S
C365 H379 0.958 . S
C365 H380 0.961 . S
C365 H381 0.960 . S
H366 C350 0.931 . S
H367 C355 0.929 . S
H368 C356 0.960 . S
H369 C356 0.962 . S
H370 C356 0.960 . S
H371 C357 0.961 . S
H372 C357 0.961 . S
H373 C357 0.961 . S
H374 C358 0.931 . S
H375 C363 0.930 . S
H376 C364 0.956 . S
H377 C364 0.961 . S
H378 C364 0.961 . S
H379 C365 0.958 . S
H380 C365 0.961 . S
H381 C365 0.960 . S
C382 C383 1.391 . S
C382 C384 1.394 . S
C382 H398 0.931 . S
C383 C382 1.391 . S
C383 C387 1.376 . S
C384 C382 1.394 . S
C384 C385 1.369 . S
C384 C388 1.531 . S
C385 C384 1.369 . S
C385 C386 1.410 . S
C385 C393 1.503 . S
C386 C385 1.410 . S
C386 C387 1.392 . S
C386 C389 1.511 . S
C387 C383 1.376 . S
C387 C386 1.392 . S
C387 H399 0.929 . S
C388 C384 1.531 . S
C388 H400 0.960 . S
C388 H401 0.962 . S
C388 H402 0.960 . S
C389 C386 1.511 . S
C389 H403 0.961 . S
C389 H404 0.961 . S
C389 H405 0.961 . S
C390 C391 1.370 . S
C390 C392 1.363 . S
C390 H406 0.931 . S
C391 C390 1.370 . S
C391 C395 1.408 . S
C392 C390 1.363 . S
C392 C393 1.370 . S
C392 C396 1.524 . S
C393 C385 1.503 . S
C393 C392 1.370 . S
C393 C394 1.403 . S
C394 C393 1.403 . S
C394 C395 1.404 . S
C394 C397 1.539 . S
C395 C391 1.408 . S
C395 C394 1.404 . S
C395 H407 0.930 . S
C396 C392 1.524 . S
C396 H408 0.956 . S
C396 H409 0.961 . S
C396 H410 0.961 . S
C397 C394 1.539 . S
C397 H411 0.958 . S
C397 H412 0.961 . S
C397 H413 0.960 . S
H398 C382 0.931 . S
H399 C387 0.929 . S
H400 C388 0.960 . S
H401 C388 0.962 . S
H402 C388 0.960 . S
H403 C389 0.961 . S
H404 C389 0.961 . S
H405 C389 0.961 . S
H406 C390 0.931 . S
H407 C395 0.930 . S
H408 C396 0.956 . S
H409 C396 0.961 . S
H410 C396 0.961 . S
H411 C397 0.958 . S
H412 C397 0.961 . S
H413 C397 0.960 . S
C414 C415 1.391 . S
C414 C416 1.394 . S
C414 H430 0.931 . S
C415 C414 1.391 . S
C415 C419 1.376 . S
C416 C414 1.394 . S
C416 C417 1.369 . S
C416 C420 1.531 . S
C417 C416 1.369 . S
C417 C418 1.410 . S
C417 C425 1.503 . S
C418 C417 1.410 . S
C418 C419 1.392 . S
C418 C421 1.511 . S
C419 C415 1.376 . S
C419 C418 1.392 . S
C419 H431 0.929 . S
C420 C416 1.531 . S
C420 H432 0.960 . S
C420 H433 0.962 . S
C420 H434 0.960 . S
C421 C418 1.511 . S
C421 H435 0.961 . S
C421 H436 0.961 . S
C421 H437 0.961 . S
C422 C423 1.370 . S
C422 C424 1.363 . S
C422 H438 0.931 . S
C423 C422 1.370 . S
C423 C427 1.408 . S
C424 C422 1.363 . S
C424 C425 1.370 . S
C424 C428 1.524 . S
C425 C417 1.503 . S
C425 C424 1.370 . S
C425 C426 1.403 . S
C426 C425 1.403 . S
C426 C427 1.404 . S
C426 C429 1.539 . S
C427 C423 1.408 . S
C427 C426 1.404 . S
C427 H439 0.930 . S
C428 C424 1.524 . S
C428 H440 0.956 . S
C428 H441 0.961 . S
C428 H442 0.961 . S
C429 C426 1.539 . S
C429 H443 0.958 . S
C429 H444 0.961 . S
C429 H445 0.960 . S
H430 C414 0.931 . S
H431 C419 0.929 . S
H432 C420 0.960 . S
H433 C420 0.962 . S
H434 C420 0.960 . S
H435 C421 0.961 . S
H436 C421 0.961 . S
H437 C421 0.961 . S
H438 C422 0.931 . S
H439 C427 0.930 . S
H440 C428 0.956 . S
H441 C428 0.961 . S
H442 C428 0.961 . S
H443 C429 0.958 . S
H444 C429 0.961 . S
H445 C429 0.960 . S
C446 C447 1.391 . S
C446 C448 1.394 . S
C446 H462 0.931 . S
C447 C446 1.391 . S
C447 C451 1.376 . S
C448 C446 1.394 . S
C448 C449 1.369 . S
C448 C452 1.531 . S
C449 C448 1.369 . S
C449 C450 1.410 . S
C449 C457 1.503 . S
C450 C449 1.410 . S
C450 C451 1.392 . S
C450 C453 1.511 . S
C451 C447 1.376 . S
C451 C450 1.392 . S
C451 H463 0.929 . S
C452 C448 1.531 . S
C452 H464 0.960 . S
C452 H465 0.962 . S
C452 H466 0.960 . S
C453 C450 1.511 . S
C453 H467 0.961 . S
C453 H468 0.961 . S
C453 H469 0.961 . S
C454 C455 1.370 . S
C454 C456 1.363 . S
C454 H470 0.931 . S
C455 C454 1.370 . S
C455 C459 1.408 . S
C456 C454 1.363 . S
C456 C457 1.370 . S
C456 C460 1.524 . S
C457 C449 1.503 . S
C457 C456 1.370 . S
C457 C458 1.403 . S
C458 C457 1.403 . S
C458 C459 1.404 . S
C458 C461 1.539 . S
C459 C455 1.408 . S
C459 C458 1.404 . S
C459 H471 0.930 . S
C460 C456 1.524 . S
C460 H472 0.956 . S
C460 H473 0.961 . S
C460 H474 0.961 . S
C461 C458 1.539 . S
C461 H475 0.958 . S
C461 H476 0.961 . S
C461 H477 0.960 . S
H462 C446 0.931 . S
H463 C451 0.929 . S
H464 C452 0.960 . S
H465 C452 0.962 . S
H466 C452 0.960 . S
H467 C453 0.961 . S
H468 C453 0.961 . S
H469 C453 0.961 . S
H470 C454 0.931 . S
H471 C459 0.930 . S
H472 C460 0.956 . S
H473 C460 0.961 . S
H474 C460 0.961 . S
H475 C461 0.958 . S
H476 C461 0.961 . S
H477 C461 0.960 . S
C478 C479 1.391 . S
C478 C480 1.394 . S
C478 H494 0.931 . S
C479 C478 1.391 . S
C479 C483 1.376 . S
C480 C478 1.394 . S
C480 C481 1.369 . S
C480 C484 1.531 . S
C481 C480 1.369 . S
C481 C482 1.410 . S
C481 C489 1.503 . S
C482 C481 1.410 . S
C482 C483 1.392 . S
C482 C485 1.511 . S
C483 C479 1.376 . S
C483 C482 1.392 . S
C483 H495 0.929 . S
C484 C480 1.531 . S
C484 H496 0.960 . S
C484 H497 0.962 . S
C484 H498 0.960 . S
C485 C482 1.511 . S
C485 H499 0.961 . S
C485 H500 0.961 . S
C485 H501 0.961 . S
C486 C487 1.370 . S
C486 C488 1.363 . S
C486 H502 0.931 . S
C487 C486 1.370 . S
C487 C491 1.408 . S
C488 C486 1.363 . S
C488 C489 1.370 . S
C488 C492 1.524 . S
C489 C481 1.503 . S
C489 C488 1.370 . S
C489 C490 1.403 . S
C490 C489 1.403 . S
C490 C491 1.404 . S
C490 C493 1.539 . S
C491 C487 1.408 . S
C491 C490 1.404 . S
C491 H503 0.930 . S
C492 C488 1.524 . S
C492 H504 0.956 . S
C492 H505 0.961 . S
C492 H506 0.961 . S
C493 C490 1.539 . S
C493 H507 0.958 . S
C493 H508 0.961 . S
C493 H509 0.960 . S
H494 C478 0.931 . S
H495 C483 0.929 . S
H496 C484 0.960 . S
H497 C484 0.962 . S
H498 C484 0.960 . S
H499 C485 0.961 . S
H500 C485 0.961 . S
H501 C485 0.961 . S
H502 C486 0.931 . S
H503 C491 0.930 . S
H504 C492 0.956 . S
H505 C492 0.961 . S
H506 C492 0.961 . S
H507 C493 0.958 . S
H508 C493 0.961 . S
H509 C493 0.960 . S
C510 C511 1.391 . S
C510 C512 1.394 . S
C510 H526 0.931 . S
C511 C510 1.391 . S
C511 C515 1.376 . S
C512 C510 1.394 . S
C512 C513 1.369 . S
C512 C516 1.531 . S
C513 C512 1.369 . S
C513 C514 1.410 . S
C513 C521 1.503 . S
C514 C513 1.410 . S
C514 C515 1.392 . S
C514 C517 1.511 . S
C515 C511 1.376 . S
C515 C514 1.392 . S
C515 H527 0.929 . S
C516 C512 1.531 . S
C516 H528 0.960 . S
C516 H529 0.962 . S
C516 H530 0.960 . S
C517 C514 1.511 . S
C517 H531 0.961 . S
C517 H532 0.961 . S
C517 H533 0.961 . S
C518 C519 1.370 . S
C518 C520 1.363 . S
C518 H534 0.931 . S
C519 C518 1.370 . S
C519 C523 1.408 . S
C520 C518 1.363 . S
C520 C521 1.370 . S
C520 C524 1.524 . S
C521 C513 1.503 . S
C521 C520 1.370 . S
C521 C522 1.403 . S
C522 C521 1.403 . S
C522 C523 1.404 . S
C522 C525 1.539 . S
C523 C519 1.408 . S
C523 C522 1.404 . S
C523 H535 0.930 . S
C524 C520 1.524 . S
C524 H536 0.956 . S
C524 H537 0.961 . S
C524 H538 0.961 . S
C525 C522 1.539 . S
C525 H539 0.958 . S
C525 H540 0.961 . S
C525 H541 0.960 . S
H526 C510 0.931 . S
H527 C515 0.929 . S
H528 C516 0.960 . S
H529 C516 0.962 . S
H530 C516 0.960 . S
H531 C517 0.961 . S
H532 C517 0.961 . S
H533 C517 0.961 . S
H534 C518 0.931 . S
H535 C523 0.930 . S
H536 C524 0.956 . S
H537 C524 0.961 . S
H538 C524 0.961 . S
H539 C525 0.958 . S
H540 C525 0.961 . S
H541 C525 0.960 . S
C542 C543 1.391 . S
C542 C544 1.394 . S
C542 H558 0.931 . S
C543 C542 1.391 . S
C543 C547 1.376 . S
C544 C542 1.394 . S
C544 C545 1.369 . S
C544 C548 1.531 . S
C545 C544 1.369 . S
C545 C546 1.410 . S
C545 C553 1.503 . S
C546 C545 1.410 . S
C546 C547 1.392 . S
C546 C549 1.511 . S
C547 C543 1.376 . S
C547 C546 1.392 . S
C547 H559 0.929 . S
C548 C544 1.531 . S
C548 H560 0.960 . S
C548 H561 0.962 . S
C548 H562 0.960 . S
C549 C546 1.511 . S
C549 H563 0.961 . S
C549 H564 0.961 . S
C549 H565 0.961 . S
C550 C551 1.370 . S
C550 C552 1.363 . S
C550 H566 0.931 . S
C551 C550 1.370 . S
C551 C555 1.408 . S
C552 C550 1.363 . S
C552 C553 1.370 . S
C552 C556 1.524 . S
C553 C545 1.503 . S
C553 C552 1.370 . S
C553 C554 1.403 . S
C554 C553 1.403 . S
C554 C555 1.404 . S
C554 C557 1.539 . S
C555 C551 1.408 . S
C555 C554 1.404 . S
C555 H567 0.930 . S
C556 C552 1.524 . S
C556 H568 0.956 . S
C556 H569 0.961 . S
C556 H570 0.961 . S
C557 C554 1.539 . S
C557 H571 0.958 . S
C557 H572 0.961 . S
C557 H573 0.960 . S
H558 C542 0.931 . S
H559 C547 0.929 . S
H560 C548 0.960 . S
H561 C548 0.962 . S
H562 C548 0.960 . S
H563 C549 0.961 . S
H564 C549 0.961 . S
H565 C549 0.961 . S
H566 C550 0.931 . S
H567 C555 0.930 . S
H568 C556 0.956 . S
H569 C556 0.961 . S
H570 C556 0.961 . S
H571 C557 0.958 . S
H572 C557 0.961 . S
H573 C557 0.960 . S
C574 C575 1.391 . S
C574 C576 1.394 . S
C574 H590 0.931 . S
C575 C574 1.391 . S
C575 C579 1.376 . S
C576 C574 1.394 . S
C576 C577 1.369 . S
C576 C580 1.531 . S
C577 C576 1.369 . S
C577 C578 1.410 . S
C577 C585 1.503 . S
C578 C577 1.410 . S
C578 C579 1.392 . S
C578 C581 1.511 . S
C579 C575 1.376 . S
C579 C578 1.392 . S
C579 H591 0.929 . S
C580 C576 1.531 . S
C580 H592 0.960 . S
C580 H593 0.962 . S
C580 H594 0.960 . S
C581 C578 1.511 . S
C581 H595 0.961 . S
C581 H596 0.961 . S
C581 H597 0.961 . S
C582 C583 1.370 . S
C582 C584 1.363 . S
C582 H598 0.931 . S
C583 C582 1.370 . S
C583 C587 1.408 . S
C584 C582 1.363 . S
C584 C585 1.370 . S
C584 C588 1.524 . S
C585 C577 1.503 . S
C585 C584 1.370 . S
C585 C586 1.403 . S
C586 C585 1.403 . S
C586 C587 1.404 . S
C586 C589 1.539 . S
C587 C583 1.408 . S
C587 C586 1.404 . S
C587 H599 0.930 . S
C588 C584 1.524 . S
C588 H600 0.956 . S
C588 H601 0.961 . S
C588 H602 0.961 . S
C589 C586 1.539 . S
C589 H603 0.958 . S
C589 H604 0.961 . S
C589 H605 0.960 . S
H590 C574 0.931 . S
H591 C579 0.929 . S
H592 C580 0.960 . S
H593 C580 0.962 . S
H594 C580 0.960 . S
H595 C581 0.961 . S
H596 C581 0.961 . S
H597 C581 0.961 . S
H598 C582 0.931 . S
H599 C587 0.930 . S
H600 C588 0.956 . S
H601 C588 0.961 . S
H602 C588 0.961 . S
H603 C589 0.958 . S
H604 C589 0.961 . S
H605 C589 0.960 . S
C606 C607 1.391 . S
C606 C608 1.394 . S
C606 H622 0.931 . S
C607 C606 1.391 . S
C607 C611 1.376 . S
C608 C606 1.394 . S
C608 C609 1.369 . S
C608 C612 1.531 . S
C609 C608 1.369 . S
C609 C610 1.410 . S
C609 C617 1.503 . S
C610 C609 1.410 . S
C610 C611 1.392 . S
C610 C613 1.511 . S
C611 C607 1.376 . S
C611 C610 1.392 . S
C611 H623 0.929 . S
C612 C608 1.531 . S
C612 H624 0.960 . S
C612 H625 0.962 . S
C612 H626 0.960 . S
C613 C610 1.511 . S
C613 H627 0.961 . S
C613 H628 0.961 . S
C613 H629 0.961 . S
C614 C615 1.370 . S
C614 C616 1.363 . S
C614 H630 0.931 . S
C615 C614 1.370 . S
C615 C619 1.408 . S
C616 C614 1.363 . S
C616 C617 1.370 . S
C616 C620 1.524 . S
C617 C609 1.503 . S
C617 C616 1.370 . S
C617 C618 1.403 . S
C618 C617 1.403 . S
C618 C619 1.404 . S
C618 C621 1.539 . S
C619 C615 1.408 . S
C619 C618 1.404 . S
C619 H631 0.930 . S
C620 C616 1.524 . S
C620 H632 0.956 . S
C620 H633 0.961 . S
C620 H634 0.961 . S
C621 C618 1.539 . S
C621 H635 0.958 . S
C621 H636 0.961 . S
C621 H637 0.960 . S
H622 C606 0.931 . S
H623 C611 0.929 . S
H624 C612 0.960 . S
H625 C612 0.962 . S
H626 C612 0.960 . S
H627 C613 0.961 . S
H628 C613 0.961 . S
H629 C613 0.961 . S
H630 C614 0.931 . S
H631 C619 0.930 . S
H632 C620 0.956 . S
H633 C620 0.961 . S
H634 C620 0.961 . S
H635 C621 0.958 . S
H636 C621 0.961 . S
H637 C621 0.960 . S
C638 C639 1.391 . S
C638 C640 1.394 . S
C638 H654 0.931 . S
C639 C638 1.391 . S
C639 C643 1.376 . S
C640 C638 1.394 . S
C640 C641 1.369 . S
C640 C644 1.531 . S
C641 C640 1.369 . S
C641 C642 1.410 . S
C641 C649 1.503 . S
C642 C641 1.410 . S
C642 C643 1.392 . S
C642 C645 1.511 . S
C643 C639 1.376 . S
C643 C642 1.392 . S
C643 H655 0.929 . S
C644 C640 1.531 . S
C644 H656 0.960 . S
C644 H657 0.962 . S
C644 H658 0.960 . S
C645 C642 1.511 . S
C645 H659 0.961 . S
C645 H660 0.961 . S
C645 H661 0.961 . S
C646 C647 1.370 . S
C646 C648 1.363 . S
C646 H662 0.931 . S
C647 C646 1.370 . S
C647 C651 1.408 . S
C648 C646 1.363 . S
C648 C649 1.370 . S
C648 C652 1.524 . S
C649 C641 1.503 . S
C649 C648 1.370 . S
C649 C650 1.403 . S
C650 C649 1.403 . S
C650 C651 1.404 . S
C650 C653 1.539 . S
C651 C647 1.408 . S
C651 C650 1.404 . S
C651 H663 0.930 . S
C652 C648 1.524 . S
C652 H664 0.956 . S
C652 H665 0.961 . S
C652 H666 0.961 . S
C653 C650 1.539 . S
C653 H667 0.958 . S
C653 H668 0.961 . S
C653 H669 0.960 . S
H654 C638 0.931 . S
H655 C643 0.929 . S
H656 C644 0.960 . S
H657 C644 0.962 . S
H658 C644 0.960 . S
H659 C645 0.961 . S
H660 C645 0.961 . S
H661 C645 0.961 . S
H662 C646 0.931 . S
H663 C651 0.930 . S
H664 C652 0.956 . S
H665 C652 0.961 . S
H666 C652 0.961 . S
H667 C653 0.958 . S
H668 C653 0.961 . S
H669 C653 0.960 . S
C670 C671 1.391 . S
C670 C672 1.394 . S
C670 H686 0.931 . S
C671 C670 1.391 . S
C671 C675 1.376 . S
C672 C670 1.394 . S
C672 C673 1.369 . S
C672 C676 1.531 . S
C673 C672 1.369 . S
C673 C674 1.410 . S
C673 C681 1.503 . S
C674 C673 1.410 . S
C674 C675 1.392 . S
C674 C677 1.511 . S
C675 C671 1.376 . S
C675 C674 1.392 . S
C675 H687 0.929 . S
C676 C672 1.531 . S
C676 H688 0.960 . S
C676 H689 0.962 . S
C676 H690 0.960 . S
C677 C674 1.511 . S
C677 H691 0.961 . S
C677 H692 0.961 . S
C677 H693 0.961 . S
C678 C679 1.370 . S
C678 C680 1.363 . S
C678 H694 0.931 . S
C679 C678 1.370 . S
C679 C683 1.408 . S
C680 C678 1.363 . S
C680 C681 1.370 . S
C680 C684 1.524 . S
C681 C673 1.503 . S
C681 C680 1.370 . S
C681 C682 1.403 . S
C682 C681 1.403 . S
C682 C683 1.404 . S
C682 C685 1.539 . S
C683 C679 1.408 . S
C683 C682 1.404 . S
C683 H695 0.930 . S
C684 C680 1.524 . S
C684 H696 0.956 . S
C684 H697 0.961 . S
C684 H698 0.961 . S
C685 C682 1.539 . S
C685 H699 0.958 . S
C685 H700 0.961 . S
C685 H701 0.960 . S
H686 C670 0.931 . S
H687 C675 0.929 . S
H688 C676 0.960 . S
H689 C676 0.962 . S
H690 C676 0.960 . S
H691 C677 0.961 . S
H692 C677 0.961 . S
H693 C677 0.961 . S
H694 C678 0.931 . S
H695 C683 0.930 . S
H696 C684 0.956 . S
H697 C684 0.961 . S
H698 C684 0.961 . S
H699 C685 0.958 . S
H700 C685 0.961 . S
H701 C685 0.960 . S
C702 C703 1.391 . S
C702 C704 1.394 . S
C702 H718 0.931 . S
C703 C702 1.391 . S
C703 C707 1.376 . S
C704 C702 1.394 . S
C704 C705 1.369 . S
C704 C708 1.531 . S
C705 C704 1.369 . S
C705 C706 1.410 . S
C705 C713 1.503 . S
C706 C705 1.410 . S
C706 C707 1.392 . S
C706 C709 1.511 . S
C707 C703 1.376 . S
C707 C706 1.392 . S
C707 H719 0.929 . S
C708 C704 1.531 . S
C708 H720 0.960 . S
C708 H721 0.962 . S
C708 H722 0.960 . S
C709 C706 1.511 . S
C709 H723 0.961 . S
C709 H724 0.961 . S
C709 H725 0.961 . S
C710 C711 1.370 . S
C710 C712 1.363 . S
C710 H726 0.931 . S
C711 C710 1.370 . S
C711 C715 1.408 . S
C712 C710 1.363 . S
C712 C713 1.370 . S
C712 C716 1.524 . S
C713 C705 1.503 . S
C713 C712 1.370 . S
C713 C714 1.403 . S
C714 C713 1.403 . S
C714 C715 1.404 . S
C714 C717 1.539 . S
C715 C711 1.408 . S
C715 C714 1.404 . S
C715 H727 0.930 . S
C716 C712 1.524 . S
C716 H728 0.956 . S
C716 H729 0.961 . S
C716 H730 0.961 . S
C717 C714 1.539 . S
C717 H731 0.958 . S
C717 H732 0.961 . S
C717 H733 0.960 . S
H718 C702 0.931 . S
H719 C707 0.929 . S
H720 C708 0.960 . S
H721 C708 0.962 . S
H722 C708 0.960 . S
H723 C709 0.961 . S
H724 C709 0.961 . S
H725 C709 0.961 . S
H726 C710 0.931 . S
H727 C715 0.930 . S
H728 C716 0.956 . S
H729 C716 0.961 . S
H730 C716 0.961 . S
H731 C717 0.958 . S
H732 C717 0.961 . S
H733 C717 0.960 . S
C734 C735 1.391 . S
C734 C736 1.394 . S
C734 H750 0.931 . S
C735 C734 1.391 . S
C735 C739 1.376 . S
C736 C734 1.394 . S
C736 C737 1.369 . S
C736 C740 1.531 . S
C737 C736 1.369 . S
C737 C738 1.410 . S
C737 C745 1.503 . S
C738 C737 1.410 . S
C738 C739 1.392 . S
C738 C741 1.511 . S
C739 C735 1.376 . S
C739 C738 1.392 . S
C739 H751 0.929 . S
C740 C736 1.531 . S
C740 H752 0.960 . S
C740 H753 0.962 . S
C740 H754 0.960 . S
C741 C738 1.511 . S
C741 H755 0.961 . S
C741 H756 0.961 . S
C741 H757 0.961 . S
C742 C743 1.370 . S
C742 C744 1.363 . S
C742 H758 0.931 . S
C743 C742 1.370 . S
C743 C747 1.408 . S
C744 C742 1.363 . S
C744 C745 1.370 . S
C744 C748 1.524 . S
C745 C737 1.503 . S
C745 C744 1.370 . S
C745 C746 1.403 . S
C746 C745 1.403 . S
C746 C747 1.404 . S
C746 C749 1.539 . S
C747 C743 1.408 . S
C747 C746 1.404 . S
C747 H759 0.930 . S
C748 C744 1.524 . S
C748 H760 0.956 . S
C748 H761 0.961 . S
C748 H762 0.961 . S
C749 C746 1.539 . S
C749 H763 0.958 . S
C749 H764 0.961 . S
C749 H765 0.960 . S
H750 C734 0.931 . S
H751 C739 0.929 . S
H752 C740 0.960 . S
H753 C740 0.962 . S
H754 C740 0.960 . S
H755 C741 0.961 . S
H756 C741 0.961 . S
H757 C741 0.961 . S
H758 C742 0.931 . S
H759 C747 0.930 . S
H760 C748 0.956 . S
H761 C748 0.961 . S
H762 C748 0.961 . S
H763 C749 0.958 . S
H764 C749 0.961 . S
H765 C749 0.960 . S
C766 C767 1.391 . S
C766 C768 1.394 . S
C766 H782 0.931 . S
C767 C766 1.391 . S
C767 C771 1.376 . S
C768 C766 1.394 . S
C768 C769 1.369 . S
C768 C772 1.531 . S
C769 C768 1.369 . S
C769 C770 1.410 . S
C769 C777 1.503 . S
C770 C769 1.410 . S
C770 C771 1.392 . S
C770 C773 1.511 . S
C771 C767 1.376 . S
C771 C770 1.392 . S
C771 H783 0.929 . S
C772 C768 1.531 . S
C772 H784 0.960 . S
C772 H785 0.962 . S
C772 H786 0.960 . S
C773 C770 1.511 . S
C773 H787 0.961 . S
C773 H788 0.961 . S
C773 H789 0.961 . S
C774 C775 1.370 . S
C774 C776 1.363 . S
C774 H790 0.931 . S
C775 C774 1.370 . S
C775 C779 1.408 . S
C776 C774 1.363 . S
C776 C777 1.370 . S
C776 C780 1.524 . S
C777 C769 1.503 . S
C777 C776 1.370 . S
C777 C778 1.403 . S
C778 C777 1.403 . S
C778 C779 1.404 . S
C778 C781 1.539 . S
C779 C775 1.408 . S
C779 C778 1.404 . S
C779 H791 0.930 . S
C780 C776 1.524 . S
C780 H792 0.956 . S
C780 H793 0.961 . S
C780 H794 0.961 . S
C781 C778 1.539 . S
C781 H795 0.958 . S
C781 H796 0.961 . S
C781 H797 0.960 . S
H782 C766 0.931 . S
H783 C771 0.929 . S
H784 C772 0.960 . S
H785 C772 0.962 . S
H786 C772 0.960 . S
H787 C773 0.961 . S
H788 C773 0.961 . S
H789 C773 0.961 . S
H790 C774 0.931 . S
H791 C779 0.930 . S
H792 C780 0.956 . S
H793 C780 0.961 . S
H794 C780 0.961 . S
H795 C781 0.958 . S
H796 C781 0.961 . S
H797 C781 0.960 . S
C798 C799 1.391 . S
C798 C800 1.394 . S
C798 H814 0.931 . S
C799 C798 1.391 . S
C799 C803 1.376 . S
C800 C798 1.394 . S
C800 C801 1.369 . S
C800 C804 1.531 . S
C801 C800 1.369 . S
C801 C802 1.410 . S
C801 C809 1.503 . S
C802 C801 1.410 . S
C802 C803 1.392 . S
C802 C805 1.511 . S
C803 C799 1.376 . S
C803 C802 1.392 . S
C803 H815 0.929 . S
C804 C800 1.531 . S
C804 H816 0.960 . S
C804 H817 0.962 . S
C804 H818 0.960 . S
C805 C802 1.511 . S
C805 H819 0.961 . S
C805 H820 0.961 . S
C805 H821 0.961 . S
C806 C807 1.370 . S
C806 C808 1.363 . S
C806 H822 0.931 . S
C807 C806 1.370 . S
C807 C811 1.408 . S
C808 C806 1.363 . S
C808 C809 1.370 . S
C808 C812 1.524 . S
C809 C801 1.503 . S
C809 C808 1.370 . S
C809 C810 1.403 . S
C810 C809 1.403 . S
C810 C811 1.404 . S
C810 C813 1.539 . S
C811 C807 1.408 . S
C811 C810 1.404 . S
C811 H823 0.930 . S
C812 C808 1.524 . S
C812 H824 0.956 . S
C812 H825 0.961 . S
C812 H826 0.961 . S
C813 C810 1.539 . S
C813 H827 0.958 . S
C813 H828 0.961 . S
C813 H829 0.960 . S
H814 C798 0.931 . S
H815 C803 0.929 . S
H816 C804 0.960 . S
H817 C804 0.962 . S
H818 C804 0.960 . S
H819 C805 0.961 . S
H820 C805 0.961 . S
H821 C805 0.961 . S
H822 C806 0.931 . S
H823 C811 0.930 . S
H824 C812 0.956 . S
H825 C812 0.961 . S
H826 C812 0.961 . S
H827 C813 0.958 . S
H828 C813 0.961 . S
H829 C813 0.960 . S
C830 C831 1.391 . S
C830 C832 1.394 . S
C830 H846 0.931 . S
C831 C830 1.391 . S
C831 C835 1.376 . S
C832 C830 1.394 . S
C832 C833 1.369 . S
C832 C836 1.531 . S
C833 C832 1.369 . S
C833 C834 1.410 . S
C833 C841 1.503 . S
C834 C833 1.410 . S
C834 C835 1.392 . S
C834 C837 1.511 . S
C835 C831 1.376 . S
C835 C834 1.392 . S
C835 H847 0.929 . S
C836 C832 1.531 . S
C836 H848 0.960 . S
C836 H849 0.962 . S
C836 H850 0.960 . S
C837 C834 1.511 . S
C837 H851 0.961 . S
C837 H852 0.961 . S
C837 H853 0.961 . S
C838 C839 1.370 . S
C838 C840 1.363 . S
C838 H854 0.931 . S
C839 C838 1.370 . S
C839 C843 1.408 . S
C840 C838 1.363 . S
C840 C841 1.370 . S
C840 C844 1.524 . S
C841 C833 1.503 . S
C841 C840 1.370 . S
C841 C842 1.403 . S
C842 C841 1.403 . S
C842 C843 1.404 . S
C842 C845 1.539 . S
C843 C839 1.408 . S
C843 C842 1.404 . S
C843 H855 0.930 . S
C844 C840 1.524 . S
C844 H856 0.956 . S
C844 H857 0.961 . S
C844 H858 0.961 . S
C845 C842 1.539 . S
C845 H859 0.958 . S
C845 H860 0.961 . S
C845 H861 0.960 . S
H846 C830 0.931 . S
H847 C835 0.929 . S
H848 C836 0.960 . S
H849 C836 0.962 . S
H850 C836 0.960 . S
H851 C837 0.961 . S
H852 C837 0.961 . S
H853 C837 0.961 . S
H854 C838 0.931 . S
H855 C843 0.930 . S
H856 C844 0.956 . S
H857 C844 0.961 . S
H858 C844 0.961 . S
H859 C845 0.958 . S
H860 C845 0.961 . S
H861 C845 0.960 . S
C862 C863 1.391 . S
C862 C864 1.394 . S
C862 H878 0.931 . S
C863 C862 1.391 . S
C863 C867 1.376 . S
C864 C862 1.394 . S
C864 C865 1.369 . S
C864 C868 1.531 . S
C865 C864 1.369 . S
C865 C866 1.410 . S
C865 C873 1.503 . S
C866 C865 1.410 . S
C866 C867 1.392 . S
C866 C869 1.511 . S
C867 C863 1.376 . S
C867 C866 1.392 . S
C867 H879 0.929 . S
C868 C864 1.531 . S
C868 H880 0.960 . S
C868 H881 0.962 . S
C868 H882 0.960 . S
C869 C866 1.511 . S
C869 H883 0.961 . S
C869 H884 0.961 . S
C869 H885 0.961 . S
C870 C871 1.370 . S
C870 C872 1.363 . S
C870 H886 0.931 . S
C871 C870 1.370 . S
C871 C875 1.408 . S
C872 C870 1.363 . S
C872 C873 1.370 . S
C872 C876 1.524 . S
C873 C865 1.503 . S
C873 C872 1.370 . S
C873 C874 1.403 . S
C874 C873 1.403 . S
C874 C875 1.404 . S
C874 C877 1.539 . S
C875 C871 1.408 . S
C875 C874 1.404 . S
C875 H887 0.930 . S
C876 C872 1.524 . S
C876 H888 0.956 . S
C876 H889 0.961 . S
C876 H890 0.961 . S
C877 C874 1.539 . S
C877 H891 0.958 . S
C877 H892 0.961 . S
C877 H893 0.960 . S
H878 C862 0.931 . S
H879 C867 0.929 . S
H880 C868 0.960 . S
H881 C868 0.962 . S
H882 C868 0.960 . S
H883 C869 0.961 . S
H884 C869 0.961 . S
H885 C869 0.961 . S
H886 C870 0.931 . S
H887 C875 0.930 . S
H888 C876 0.956 . S
H889 C876 0.961 . S
H890 C876 0.961 . S
H891 C877 0.958 . S
H892 C877 0.961 . S
H893 C877 0.960 . S
C894 C895 1.391 . S
C894 C896 1.394 . S
C894 H910 0.931 . S
C895 C894 1.391 . S
C895 C899 1.376 . S
C896 C894 1.394 . S
C896 C897 1.369 . S
C896 C900 1.531 . S
C897 C896 1.369 . S
C897 C898 1.410 . S
C897 C905 1.503 . S
C898 C897 1.410 . S
C898 C899 1.392 . S
C898 C901 1.511 . S
C899 C895 1.376 . S
C899 C898 1.392 . S
C899 H911 0.929 . S
C900 C896 1.531 . S
C900 H912 0.960 . S
C900 H913 0.962 . S
C900 H914 0.960 . S
C901 C898 1.511 . S
C901 H915 0.961 . S
C901 H916 0.961 . S
C901 H917 0.961 . S
C902 C903 1.370 . S
C902 C904 1.363 . S
C902 H918 0.931 . S
C903 C902 1.370 . S
C903 C907 1.408 . S
C904 C902 1.363 . S
C904 C905 1.370 . S
C904 C908 1.524 . S
C905 C897 1.503 . S
C905 C904 1.370 . S
C905 C906 1.403 . S
C906 C905 1.403 . S
C906 C907 1.404 . S
C906 C909 1.539 . S
C907 C903 1.408 . S
C907 C906 1.404 . S
C907 H919 0.930 . S
C908 C904 1.524 . S
C908 H920 0.956 . S
C908 H921 0.961 . S
C908 H922 0.961 . S
C909 C906 1.539 . S
C909 H923 0.958 . S
C909 H924 0.961 . S
C909 H925 0.960 . S
H910 C894 0.931 . S
H911 C899 0.929 . S
H912 C900 0.960 . S
H913 C900 0.962 . S
H914 C900 0.960 . S
H915 C901 0.961 . S
H916 C901 0.961 . S
H917 C901 0.961 . S
H918 C902 0.931 . S
H919 C907 0.930 . S
H920 C908 0.956 . S
H921 C908 0.961 . S
H922 C908 0.961 . S
H923 C909 0.958 . S
H924 C909 0.961 . S
H925 C909 0.960 . S
C926 C927 1.391 . S
C926 C928 1.394 . S
C926 H942 0.931 . S
C927 C926 1.391 . S
C927 C931 1.376 . S
C928 C926 1.394 . S
C928 C929 1.369 . S
C928 C932 1.531 . S
C929 C928 1.369 . S
C929 C930 1.410 . S
C929 C937 1.503 . S
C930 C929 1.410 . S
C930 C931 1.392 . S
C930 C933 1.511 . S
C931 C927 1.376 . S
C931 C930 1.392 . S
C931 H943 0.929 . S
C932 C928 1.531 . S
C932 H944 0.960 . S
C932 H945 0.962 . S
C932 H946 0.960 . S
C933 C930 1.511 . S
C933 H947 0.961 . S
C933 H948 0.961 . S
C933 H949 0.961 . S
C934 C935 1.370 . S
C934 C936 1.363 . S
C934 H950 0.931 . S
C935 C934 1.370 . S
C935 C939 1.408 . S
C936 C934 1.363 . S
C936 C937 1.370 . S
C936 C940 1.524 . S
C937 C929 1.503 . S
C937 C936 1.370 . S
C937 C938 1.403 . S
C938 C937 1.403 . S
C938 C939 1.404 . S
C938 C941 1.539 . S
C939 C935 1.408 . S
C939 C938 1.404 . S
C939 H951 0.930 . S
C940 C936 1.524 . S
C940 H952 0.956 . S
C940 H953 0.961 . S
C940 H954 0.961 . S
C941 C938 1.539 . S
C941 H955 0.958 . S
C941 H956 0.961 . S
C941 H957 0.960 . S
H942 C926 0.931 . S
H943 C931 0.929 . S
H944 C932 0.960 . S
H945 C932 0.962 . S
H946 C932 0.960 . S
H947 C933 0.961 . S
H948 C933 0.961 . S
H949 C933 0.961 . S
H950 C934 0.931 . S
H951 C939 0.930 . S
H952 C940 0.956 . S
H953 C940 0.961 . S
H954 C940 0.961 . S
H955 C941 0.958 . S
H956 C941 0.961 . S
H957 C941 0.960 . S
C958 C959 1.391 . S
C958 C960 1.394 . S
C958 H974 0.931 . S
C959 C958 1.391 . S
C959 C963 1.376 . S
C960 C958 1.394 . S
C960 C961 1.369 . S
C960 C964 1.531 . S
C961 C960 1.369 . S
C961 C962 1.410 . S
C961 C969 1.503 . S
C962 C961 1.410 . S
C962 C963 1.392 . S
C962 C965 1.511 . S
C963 C959 1.376 . S
C963 C962 1.392 . S
C963 H975 0.929 . S
C964 C960 1.531 . S
C964 H976 0.960 . S
C964 H977 0.962 . S
C964 H978 0.960 . S
C965 C962 1.511 . S
C965 H979 0.961 . S
C965 H980 0.961 . S
C965 H981 0.961 . S
C966 C967 1.370 . S
C966 C968 1.363 . S
C966 H982 0.931 . S
C967 C966 1.370 . S
C967 C971 1.408 . S
C968 C966 1.363 . S
C968 C969 1.370 . S
C968 C972 1.524 . S
C969 C961 1.503 . S
C969 C968 1.370 . S
C969 C970 1.403 . S
C970 C969 1.403 . S
C970 C971 1.404 . S
C970 C973 1.539 . S
C971 C967 1.408 . S
C971 C970 1.404 . S
C971 H983 0.930 . S
C972 C968 1.524 . S
C972 H984 0.956 . S
C972 H985 0.961 . S
C972 H986 0.961 . S
C973 C970 1.539 . S
C973 H987 0.958 . S
C973 H988 0.961 . S
C973 H989 0.960 . S
H974 C958 0.931 . S
H975 C963 0.929 . S
H976 C964 0.960 . S
H977 C964 0.962 . S
H978 C964 0.960 . S
H979 C965 0.961 . S
H980 C965 0.961 . S
H981 C965 0.961 . S
H982 C966 0.931 . S
H983 C971 0.930 . S
H984 C972 0.956 . S
H985 C972 0.961 . S
H986 C972 0.961 . S
H987 C973 0.958 . S
H988 C973 0.961 . S
H989 C973 0.960 . S
C223 C7 1.812 . S
C231 C139 1.782 . S
C255 C30 1.597 . S
C263 C164 1.567 . S
C295 C167 1.648 . S
C287 N58 1.633 . S
C327 C193 1.444 . S
C319 N81 1.403 . S
C359 C194 1.729 . S
C351 C99 1.748 . S
C391 C221 1.441 . S
C383 N127 1.396 . S
C415 N25 1.632 . S
C423 C166 1.657 . S
C447 C62 1.595 . S
C455 C192 1.568 . S
C487 C195 1.742 . S
C479 C85 1.763 . S
C519 C220 1.448 . S
C511 N94 1.410 . S
C543 C131 1.766 . S
C551 C138 1.754 . S
C583 C165 1.458 . S
C575 N2 1.434 . S
C615 C180 1.745 . S
C607 C16 1.766 . S
C639 C39 1.572 . S
C647 C207 1.547 . S
C679 C208 1.648 . S
C671 N48 1.596 . S
C703 N71 1.401 . S
C711 C150 1.451 . S
C735 C108 1.755 . S
C743 C153 1.730 . S
C767 N117 1.424 . S
C775 C178 1.421 . S
C799 N35 1.644 . S
C807 C209 1.639 . S
C839 C151 1.576 . S
C831 C53 1.587 . S
C863 C76 1.783 . S
C871 C152 1.778 . S
C895 N104 1.436 . S
C903 C179 1.422 . S
C927 C122 1.739 . S
C935 C181 1.723 . S
C959 N12 1.403 . S
C967 C206 1.425 . S
