# Generated by pormake.
# Topology ftw, (4,12)-cn, num edge types: 1
# Building blocks:
#     Node 0, Type 0, BuildingBlock: ESEHIV_clean_sbu_0, # of connection points: 4
#     Node 1, Type 0, BuildingBlock: ESEHIV_clean_sbu_0, # of connection points: 4
#     Node 2, Type 0, BuildingBlock: ESEHIV_clean_sbu_0, # of connection points: 4
#     Node 3, Type 1, BuildingBlock: QEWDON_clean_sbu_0, # of connection points: 12
#     Edge 4, Type (0, 1), BuildingBlock: FUNLAD_clean_linker_0, # of connection points: 2
#     Edge 5, Type (0, 1), BuildingBlock: FUNLAD_clean_linker_0, # of connection points: 2
#     Edge 6, Type (0, 1), BuildingBlock: FUNLAD_clean_linker_0, # of connection points: 2
#     Edge 7, Type (0, 1), BuildingBlock: FUNLAD_clean_linker_0, # of connection points: 2
#     Edge 8, Type (0, 1), BuildingBlock: FUNLAD_clean_linker_0, # of connection points: 2
#     Edge 9, Type (0, 1), BuildingBlock: FUNLAD_clean_linker_0, # of connection points: 2
#     Edge 10, Type (0, 1), BuildingBlock: FUNLAD_clean_linker_0, # of connection points: 2
#     Edge 11, Type (0, 1), BuildingBlock: FUNLAD_clean_linker_0, # of connection points: 2
#     Edge 12, Type (0, 1), BuildingBlock: FUNLAD_clean_linker_0, # of connection points: 2
#     Edge 13, Type (0, 1), BuildingBlock: FUNLAD_clean_linker_0, # of connection points: 2
#     Edge 14, Type (0, 1), BuildingBlock: FUNLAD_clean_linker_0, # of connection points: 2
#     Edge 15, Type (0, 1), BuildingBlock: FUNLAD_clean_linker_0, # of connection points: 2
# Relax obj value: 0.057
# Max RMSD: 0.168
# Mean RMSD: 0.145
data_MOF--net-ftw--node1-ESEHIV_clean_sbu_0--node2-QEWDON_clean_sbu_0--edge1-FUNLAD_clean_linker_0
_symmetry_space_group_name_H-M    P1
_symmetry_Int_Tables_number       1
_symmetry_cell_setting            triclinic
loop_
_symmetry_equiv_pos_as_xyz
'x, y, z'
_cell_length_a     29.097797
_cell_length_b     28.368854
_cell_length_c     28.014138
_cell_angle_alpha  86.799118
_cell_angle_beta   86.373929
_cell_angle_gamma 92.95769
loop_
_atom_site_label
_atom_site_type_symbol
_atom_site_fract_x
_atom_site_fract_y
_atom_site_fract_z
_atom_type_partial_charge
Cu0 Cu 0.06465 0.50343 0.47658 0.0
N1 N 0.09932 0.47215 0.43122 0.0
N2 N 0.1145 0.42233 0.37403 0.0
C3 C 0.08501 0.43281 0.41058 0.0
C4 C 0.14874 0.45651 0.3716 0.0
C5 C 0.13921 0.48727 0.40692 0.0
O6 O 0.02903 0.4569 0.51935 0.0
C7 C 0.99609 0.57104 0.45504 0.0
O8 O 0.98279 0.56865 0.50083 0.0
H9 H 0.05214 0.414 0.4203 0.0
H10 H 0.15881 0.51958 0.41294 0.0
N11 N 0.10302 0.53864 0.51381 0.0
N12 N 0.12459 0.58703 0.56969 0.0
C13 C 0.08974 0.57142 0.54396 0.0
C14 C 0.1478 0.53311 0.52064 0.0
C15 C 0.16127 0.56303 0.5549 0.0
C16 C 0.05149 0.42381 0.53766 0.0
O17 O 0.09583 0.42287 0.52572 0.0
H18 H 0.05492 0.58276 0.54764 0.0
H19 H 0.16871 0.50774 0.50338 0.0
O20 O 0.02782 0.54541 0.43984 0.0
H21 H 0.17778 0.45989 0.34529 0.0
H22 H 0.19494 0.56526 0.56921 0.0
Cu23 Cu 0.49329 0.96631 0.49393 0.0
N24 N 0.5287 0.92166 0.52326 0.0
N25 N 0.57272 0.88736 0.57617 0.0
C26 C 0.54725 0.92465 0.56585 0.0
C27 C 0.56981 0.85985 0.53852 0.0
C28 C 0.54274 0.8812 0.50589 0.0
O29 O 0.53282 0.0029 0.44508 0.0
C30 C 0.43025 0.02632 0.53915 0.0
O31 O 0.41368 0.03086 0.4967 0.0
H32 H 0.5421 0.95372 0.58867 0.0
H33 H 0.53436 0.86853 0.47161 0.0
N34 N 0.44621 0.93531 0.46353 0.0
N35 N 0.39142 0.92183 0.41264 0.0
C36 C 0.42584 0.95186 0.42467 0.0
C37 C 0.42427 0.89325 0.47657 0.0
C38 C 0.39043 0.88482 0.44528 0.0
C39 C 0.57368 0.01793 0.45216 0.0
O40 O 0.58815 0.01367 0.49559 0.0
H41 H 0.43519 0.98607 0.40669 0.0
H42 H 0.432 0.87061 0.50705 0.0
O43 O 0.46589 0.0028 0.54419 0.0
H44 H 0.58692 0.82723 0.53423 0.0
H45 H 0.36692 0.85388 0.44664 0.0
Cu46 Cu 0.47313 0.51148 0.13491 0.0
N47 N 0.47115 0.56431 0.09306 0.0
N48 N 0.45539 0.63659 0.06562 0.0
C49 C 0.44627 0.60208 0.10057 0.0
C50 C 0.48695 0.61953 0.03463 0.0
C51 C 0.49679 0.57492 0.05185 0.0
O52 O 0.41209 0.49551 0.16456 0.0
C53 C 0.5216 0.56246 0.20127 0.0
O54 O 0.48561 0.58859 0.20202 0.0
H55 H 0.42219 0.60418 0.13133 0.0
H56 H 0.52164 0.55225 0.03612 0.0
N57 N 0.49024 0.46046 0.10063 0.0
N58 N 0.523 0.39376 0.0829 0.0
C59 C 0.52044 0.42868 0.11358 0.0
C60 C 0.47294 0.44539 0.06043 0.0
C61 C 0.49316 0.40414 0.04932 0.0
C62 C 0.40384 0.45694 0.18967 0.0
O63 O 0.43867 0.43205 0.20157 0.0
H64 H 0.53902 0.43046 0.14576 0.0
H65 H 0.44699 0.46285 0.04106 0.0
O66 O 0.52046 0.52498 0.17845 0.0
H67 H 0.50272 0.63837 1.00259 0.0
H68 H 0.48651 0.38354 0.01887 0.0
Zn69 Zn 0.12101 0.13193 0.97218 0.0
Zn70 Zn 0.06691 0.10149 0.07468 0.0
O71 O 0.08429 0.07753 1.01032 0.0
H72 H 0.07777 0.04602 1.00014 0.0
C73 C 0.89234 0.1702 0.89005 0.0
O74 O 0.85576 0.17904 0.91733 0.0
Zn75 Zn 0.90417 0.89736 0.10331 0.0
Zn76 Zn 0.87324 0.86606 1.00158 0.0
O77 O 0.89291 0.92335 0.03745 0.0
H78 H 0.90504 0.9535 0.0229 0.0
Zn79 Zn 0.88966 0.09064 0.96072 0.0
O80 O 0.93292 0.07173 1.0121 0.0
Zn81 Zn 0.89631 0.07072 0.07546 0.0
H82 H 0.96194 0.05724 1.00636 0.0
Zn83 Zn 0.08088 0.92997 0.96226 0.0
O84 O 0.0349 0.92834 0.02042 0.0
H85 H 0.00302 0.93615 0.01964 0.0
Zn86 Zn 0.07321 0.92915 0.07744 0.0
C87 C 0.08491 0.84981 0.90516 0.0
O88 O 0.11012 0.83809 0.94081 0.0
O89 O 0.13231 0.1911 1.01089 0.0
O90 O 0.09175 0.1695 0.07943 0.0
O91 O 0.85139 0.80804 0.04657 0.0
O92 O 0.87112 0.83233 0.11698 0.0
O93 O 0.82469 0.10343 0.98857 0.0
O94 O 0.83272 0.09535 0.06701 0.0
C95 C 0.10042 0.01971 0.12686 0.0
O96 O 0.14797 0.9235 0.98023 0.0
O97 O 0.13791 0.90951 0.05918 0.0
O98 O 0.8396 0.87708 0.93872 0.0
C99 C 0.11749 0.19976 0.05317 0.0
O100 O 0.16647 0.11986 0.91344 0.0
C101 C 0.87393 0.98399 0.14329 0.0
O102 O 0.9144 0.13389 0.90073 0.0
C103 C 0.85256 0.80129 0.09184 0.0
O104 O 0.0655 0.88896 0.90538 0.0
C105 C 0.97404 0.11687 0.11713 0.0
O106 O 0.09812 0.0643 0.12488 0.0
O107 O 0.07885 -0.00345 0.09672 0.0
C108 C 0.80857 0.10539 0.03171 0.0
O109 O 0.87707 0.93984 0.15174 0.0
O110 O 0.89086 0.0031 0.10337 0.0
C111 C 0.99897 0.87658 0.13594 0.0
O112 O 0.93024 0.11237 0.1193 0.0
O113 O 0.99744 0.09458 0.08683 0.0
C114 C 0.16363 0.91187 0.02039 0.0
O115 O 0.0424 0.88493 0.13094 0.0
O116 O 0.97351 0.89747 0.10718 0.0
C117 C 0.80298 0.85237 0.93249 0.0
O118 O 0.78741 0.82009 0.96587 0.0
C119 C 0.18633 0.08117 0.90975 0.0
O120 O 0.17783 0.04736 0.94365 0.0
C121 C 0.08177 0.3438 0.35616 0.0
C122 C 0.1071 0.38604 0.34092 0.0
C123 C 0.07042 0.3105 0.32333 0.0
C124 C 0.08416 0.31882 0.2744 0.0
C125 C 0.11053 0.36043 0.25933 0.0
C126 C 0.12225 0.39355 0.29229 0.0
C127 C 0.06797 0.28694 0.23797 0.0
C128 C 0.05818 0.24031 0.24725 0.0
C129 C 0.038 0.2096 0.21192 0.0
C130 C 0.04746 0.16152 0.21309 0.0
C131 C 0.02742 0.13143 0.18141 0.0
C132 C 0.997 0.14883 0.1487 0.0
H133 H 0.99839 0.26344 0.17794 0.0
C134 C 0.98693 0.19662 0.14782 0.0
C135 C 0.0075 0.2269 0.17891 0.0
H136 H 0.96305 0.21047 0.12313 0.0
H137 H 0.06995 0.33692 0.39344 0.0
H138 H 0.04923 0.27934 0.33616 0.0
H139 H 0.12132 0.36777 0.22179 0.0
H140 H 0.14143 0.42593 0.27933 0.0
H141 H 0.06452 0.3025 0.20212 0.0
H142 H 0.06602 0.2237 0.28145 0.0
H143 H 0.07034 0.14722 0.2386 0.0
H144 H 0.03449 0.09431 0.18351 0.0
C145 C 0.6524 0.04821 0.41816 0.0
C146 C 0.60681 0.03282 0.41081 0.0
C147 C 0.6854 0.05598 0.3795 0.0
C148 C 0.67369 0.04796 0.33242 0.0
C149 C 0.62744 0.03529 0.32499 0.0
C150 C 0.59442 0.0278 0.36359 0.0
C151 C 0.70843 0.04972 0.29047 0.0
C152 C 0.75449 0.04884 0.29415 0.0
C153 C 0.78806 0.04024 0.25336 0.0
C154 C 0.82993 0.02068 0.26389 0.0
C155 C 0.85967 0.0055 0.22742 0.0
C156 C 0.8488 0.01053 0.17942 0.0
H157 H 0.74732 0.06388 0.1949 0.0
C158 C 0.80852 0.03277 0.16831 0.0
C159 C 0.77852 0.04784 0.20486 0.0
H160 H 0.79847 0.03534 0.13179 0.0
H161 H 0.66301 0.05307 0.45401 0.0
H162 H 0.72001 0.06745 0.38715 0.0
H163 H 0.61703 0.02937 0.28925 0.0
H164 H 0.55959 0.01624 0.35646 0.0
H165 H 0.69481 0.04667 0.25555 0.0
H166 H 0.76814 0.04888 0.32926 0.0
H167 H 0.83854 0.01465 0.30073 0.0
H168 H 0.89022 0.98778 0.23693 0.0
C169 C 0.98872 0.60542 0.37195 0.0
C170 C 0.97883 0.60733 0.42155 0.0
C171 C 0.97839 0.64257 0.3403 0.0
C172 C 0.95777 0.68269 0.35747 0.0
C173 C 0.94634 0.68383 0.40689 0.0
C174 C 0.95639 0.64637 0.43861 0.0
C175 C 0.953 0.72577 0.32562 0.0
C176 C 0.9509 0.72478 0.27771 0.0
C177 C 0.95673 0.76751 0.244 0.0
C178 C 0.94464 0.76356 0.19653 0.0
C179 C 0.9563 0.80024 0.16172 0.0
C180 C 0.97979 0.84178 0.1738 0.0
H181 H 0.9908 0.81402 0.2918 0.0
C182 C 0.99102 0.84647 0.2213 0.0
C183 C 0.97946 0.80984 0.25619 0.0
H184 H 0.01027 0.87782 0.23104 0.0
H185 H 0.00603 0.57587 0.35758 0.0
H186 H 0.98899 0.64062 0.30278 0.0
H187 H 0.93082 0.71442 0.42118 0.0
H188 H 0.94851 0.64904 0.47664 0.0
H189 H 0.95286 0.75939 0.34231 0.0
H190 H 0.94652 0.6909 0.26186 0.0
H191 H 0.92791 0.73117 0.18581 0.0
H192 H 0.94946 0.79495 0.1248 0.0
C193 C 0.31625 0.90673 0.37738 0.0
C194 C 0.36062 0.92941 0.37477 0.0
C195 C 0.28536 0.91668 0.34224 0.0
C196 C 0.29828 0.9495 0.30358 0.0
C197 C 0.3429 0.97124 0.30046 0.0
C198 C 0.37374 0.96119 0.33538 0.0
C199 C 0.26538 0.96525 0.2682 0.0
C200 C 0.22638 0.94067 0.25879 0.0
C201 C 0.19319 0.96048 0.22577 0.0
C202 C 0.16705 0.93043 0.1984 0.0
C203 C 0.13631 0.94901 0.16656 0.0
C204 C 0.13075 -0.00209 0.16182 0.0
H205 H 0.20451 0.03332 0.24417 0.0
C206 C 0.15581 0.02756 0.19077 0.0
C207 C 0.18645 0.00918 0.22227 0.0
H208 H 0.15215 0.06542 0.189 0.0
H209 H 0.30464 0.88254 0.40744 0.0
H210 H 0.25097 0.9 0.34665 0.0
H211 H 0.35381 -0.00328 0.27115 0.0
H212 H 0.40779 0.97871 0.33159 0.0
H213 H 0.2742 -0.00104 0.24854 0.0
H214 H 0.21904 0.90497 0.27436 0.0
H215 H 0.17099 0.89262 0.201 0.0
H216 H 0.11737 0.92503 0.14573 0.0
C217 C 0.07971 0.6279 0.63166 0.0
C218 C 0.12221 0.61962 0.60753 0.0
C219 C 0.07762 0.65816 0.66936 0.0
C220 C 0.11804 0.68097 0.68384 0.0
C221 C 0.16041 0.67282 0.65977 0.0
C222 C 0.16249 0.64279 0.6219 0.0
C223 C 0.11776 0.71109 0.72558 0.0
C224 C 0.08082 0.73395 0.74151 0.0
C225 C 0.08137 0.7628 0.78417 0.0
C226 C 0.05373 0.80184 0.78679 0.0
C227 C 0.05434 0.83003 0.82625 0.0
C228 C 0.08212 0.81918 0.86421 0.0
H229 H 0.1287 0.72051 0.8228 0.0
C230 C 0.10859 0.77918 0.86222 0.0
C231 C 0.10822 0.7513 0.82273 0.0
H232 H 0.13008 0.76952 0.891 0.0
H233 H 0.04803 0.61005 0.62247 0.0
H234 H 0.04446 0.6623 0.68794 0.0
H235 H 0.19213 0.68974 0.67033 0.0
H236 H 0.19575 0.6378 0.60394 0.0
H237 H 0.14994 0.71575 0.74286 0.0
H238 H 0.04995 0.73346 0.72166 0.0
H239 H 0.03225 0.81107 0.75785 0.0
H240 H 0.03333 0.86044 0.82684 0.0
C241 C 0.41716 0.03129 0.62834 0.0
C242 C 0.40421 0.043 0.58178 0.0
C243 C 0.38983 0.04277 0.66857 0.0
C244 C 0.34877 0.06619 0.66316 0.0
C245 C 0.33702 0.07968 0.61667 0.0
C246 C 0.3642 0.06802 0.57647 0.0
C247 C 0.31741 0.07728 0.70481 0.0
C248 C 0.31467 0.05237 0.74751 0.0
C249 C 0.28138 0.06111 0.78848 0.0
C250 C 0.27135 0.02499 0.82461 0.0
C251 C 0.24047 0.03141 0.86377 0.0
C252 C 0.21895 0.07437 0.868 0.0
H253 H 0.26783 0.13371 0.76689 0.0
C254 C 0.22928 0.1108 0.83218 0.0
C255 C 0.26022 0.10437 0.79298 0.0
H256 H 0.21368 0.14451 0.83451 0.0
H257 H 0.44794 0.01232 0.63379 0.0
H258 H 0.40108 0.03321 0.70371 0.0
H259 H 0.30598 0.09828 0.61132 0.0
H260 H 0.35326 0.07784 0.54121 0.0
H261 H 0.29357 0.1048 0.69857 0.0
H262 H 0.33584 0.02223 0.75207 0.0
H263 H 0.28728 0.99141 0.82244 0.0
H264 H 0.23351 0.00261 0.89073 0.0
C265 C 0.98661 0.39448 0.59742 0.0
C266 C 0.02948 0.38785 0.57344 0.0
C267 C 0.96818 0.3617 0.63384 0.0
C268 C 0.99228 0.32154 0.64669 0.0
C269 C 0.03412 0.31416 0.62128 0.0
C270 C 0.0527 0.34704 0.58541 0.0
C271 C 0.97536 0.28644 0.68617 0.0
C272 C 0.94842 0.29717 0.72454 0.0
C273 C 0.93448 0.26308 0.766 0.0
C274 C 0.89601 0.27222 0.79619 0.0
C275 C 0.88234 0.24201 0.83627 0.0
C276 C 0.90708 0.20201 0.84742 0.0
H277 H 0.99033 0.21553 0.75622 0.0
C278 C 0.94587 0.19296 0.81755 0.0
C279 C 0.95955 0.22319 0.77739 0.0
H280 H 0.96593 0.16268 0.82534 0.0
H281 H 0.96779 0.42546 0.58877 0.0
H282 H 0.93511 0.3679 0.65157 0.0
H283 H 0.05317 0.28334 0.63001 0.0
H284 H 0.0856 0.34059 0.56733 0.0
H285 H 0.98766 0.25109 0.68428 0.0
H286 H 0.93617 0.33259 0.72624 0.0
H287 H 0.87631 0.30286 0.78871 0.0
H288 H 0.85236 0.25019 0.85857 0.0
C289 C 0.61403 0.91734 0.64394 0.0
C290 C 0.5985 0.87928 0.61796 0.0
C291 C 0.63899 0.90956 0.68442 0.0
C292 C 0.64929 0.86342 0.69978 0.0
C293 C 0.63335 0.8254 0.67413 0.0
C294 C 0.60848 0.8332 0.63359 0.0
C295 C 0.67488 0.85335 0.74326 0.0
C296 C 0.70383 0.88528 0.76154 0.0
C297 C 0.72909 0.87528 0.80527 0.0
C298 C 0.76921 0.90305 0.81223 0.0
C299 C 0.79344 0.89548 0.85328 0.0
C300 C 0.77781 0.86014 0.88859 0.0
H301 H 0.68171 0.81893 0.83775 0.0
C302 C 0.73744 0.83258 0.88188 0.0
C303 C 0.71325 0.84011 0.84082 0.0
H304 H 0.72419 0.80533 0.90856 0.0
H305 H 0.60726 0.95332 0.63284 0.0
H306 H 0.64936 0.93979 0.70388 0.0
H307 H 0.64026 0.78944 0.68542 0.0
H308 H 0.59648 0.80301 0.61494 0.0
H309 H 0.67102 0.81756 0.75938 0.0
H310 H 0.71105 0.91965 0.74282 0.0
H311 H 0.78199 0.93068 0.78572 0.0
H312 H 0.8243 0.9175 0.8574 0.0
C313 C 0.32032 0.45661 0.17221 0.0
C314 C 0.35627 0.43509 0.19496 0.0
C315 C 0.27824 0.43151 0.16799 0.0
C316 C 0.27137 0.38431 0.18638 0.0
C317 C 0.3056 0.36457 0.21312 0.0
C318 C 0.3477 0.38957 0.2172 0.0
C319 C 0.23133 0.35318 0.17485 0.0
C320 C 0.21074 0.35844 0.13317 0.0
C321 C 0.18062 0.3207 0.11431 0.0
C322 C 0.17822 0.31948 0.06445 0.0
C323 C 0.15589 0.28121 0.04452 0.0
C324 C 0.13477 0.24359 0.0741 0.0
H325 H 0.15703 0.28458 0.18262 0.0
C326 C 0.13445 0.24631 0.12408 0.0
C327 C 0.1571 0.28442 0.14404 0.0
H328 H 0.11876 0.21779 0.14786 0.0
H329 H 0.32546 0.49194 0.15533 0.0
H330 H 0.25192 0.44862 0.14885 0.0
H331 H 0.30096 0.32855 0.22835 0.0
H332 H 0.3744 0.37213 0.23551 0.0
H333 H 0.22379 0.32125 0.19776 0.0
H334 H 0.22134 0.38854 0.10859 0.0
H335 H 0.19563 0.34711 0.04063 0.0
H336 H 0.15648 0.2804 1.00587 0.0
C337 C 0.43132 0.70614 0.01817 0.0
C338 C 0.43565 0.6821 0.06274 0.0
C339 C 0.40856 0.74833 0.01535 0.0
C340 C 0.38945 0.76716 0.05717 0.0
C341 C 0.39639 0.74462 0.10178 0.0
C342 C 0.41906 0.70252 0.10457 0.0
C343 C 0.35939 0.80793 0.05611 0.0
C344 C 0.33483 0.81964 0.01846 0.0
C345 C 0.29561 0.8511 0.02109 0.0
C346 C 0.27953 0.86961 0.97814 0.0
C347 C 0.23794 0.89203 0.97815 0.0
C348 C 0.21122 0.89596 0.02122 0.0
H349 H 0.28067 0.84314 0.09843 0.0
C350 C 0.22862 0.88002 0.06455 0.0
C351 C 0.27027 0.85767 0.06453 0.0
H352 H 0.209 0.88264 0.09838 0.0
H353 H 0.44409 0.69156 0.98533 0.0
H354 H 0.40554 0.76546 0.98032 0.0
H355 H 0.38264 0.75861 0.13462 0.0
H356 H 0.42304 0.68567 0.13957 0.0
H357 H 0.3537 0.8254 0.0893 0.0
H358 H 0.3407 0.80266 0.98504 0.0
H359 H 0.29823 0.86496 0.94418 0.0
H360 H 0.22573 0.90418 0.9441 0.0
C361 C 0.53803 0.31106 0.06609 0.0
C362 C 0.55128 0.35365 0.08603 0.0
C363 C 0.56591 0.27242 0.06869 0.0
C364 C 0.60791 0.27584 0.09094 0.0
C365 C 0.62045 0.31801 0.11188 0.0
C366 C 0.5926 0.35651 0.10933 0.0
C367 C 0.64037 0.23714 0.09206 0.0
C368 C 0.64189 0.20369 0.05979 0.0
C369 C 0.68078 0.17209 0.05514 0.0
C370 C 0.69464 0.15811 1.00946 0.0
C371 C 0.73511 0.13442 1.0022 0.0
C372 C 0.76234 0.12377 0.04069 0.0
H373 H 0.69539 0.16695 0.13035 0.0
C374 C 0.74654 0.13448 0.0871 0.0
C375 C 0.70608 0.15835 0.0943 0.0
H376 H 0.76632 0.12619 0.11764 0.0
H377 H 0.50587 0.30737 0.04891 0.0
H378 H 0.55419 0.24007 0.05349 0.0
H379 H 0.65253 0.32163 0.12934 0.0
H380 H 0.60404 0.38886 0.12474 0.0
H381 H 0.66729 0.23969 0.11709 0.0
H382 H 0.61771 0.2035 0.03185 0.0
H383 H 0.67542 0.16767 0.9788 0.0
H384 H 0.74591 0.12611 0.96606 0.0
C385 C 0.60689 0.55782 0.20686 0.0
C386 C 0.56658 0.58227 0.21531 0.0
C387 C 0.65036 0.58076 0.20893 0.0
C388 C 0.65434 0.62871 0.21931 0.0
C389 C 0.61419 0.65149 0.23264 0.0
C390 C 0.57071 0.6286 0.23051 0.0
C391 C 0.69877 0.65736 0.21181 0.0
C392 C 0.73125 0.6486 0.17738 0.0
C393 C 0.76816 0.68424 0.15861 0.0
C394 C 0.78291 0.68476 0.1099 0.0
C395 C 0.81216 0.72164 0.08868 0.0
C396 C 0.82798 0.75854 0.11593 0.0
H397 H 0.77701 0.71917 0.22473 0.0
C398 C 0.81627 0.75606 0.16557 0.0
C399 C 0.78646 0.71933 0.18672 0.0
H400 H 0.82837 0.78361 0.18772 0.0
H401 H 0.60499 0.52178 0.19593 0.0
H402 H 0.68063 0.56141 0.20044 0.0
H403 H 0.61626 0.68819 0.24154 0.0
H404 H 0.54041 0.64832 0.23783 0.0
H405 H 0.70118 0.69051 0.22933 0.0
H406 H 0.72655 0.61757 0.15683 0.0
H407 H 0.76981 0.65786 0.08751 0.0
H408 H 0.82101 0.72207 0.05051 0.0
loop_
_geom_bond_atom_site_label_1
_geom_bond_atom_site_label_2
_geom_bond_distance
_geom_bond_site_symmetry_2
_ccdc_geom_bond_type
Cu0 N1 1.999 . S
Cu0 O6 1.974 . S
Cu0 N11 1.985 . S
Cu0 O20 1.959 . S
N1 Cu0 1.999 . S
N1 C3 1.263 . S
N1 C5 1.389 . S
N2 C3 1.358 . S
N2 C4 1.400 . S
C3 N1 1.263 . S
C3 N2 1.358 . S
C3 H9 0.930 1_455 S
C4 N2 1.400 . S
C4 C5 1.351 . S
C4 H21 0.930 . S
C5 N1 1.389 . S
C5 C4 1.351 . S
C5 H10 0.930 . S
O6 Cu0 1.974 . S
O6 C16 1.282 1_455 S
C7 O8 1.261 . S
C7 O20 1.251 1_655 S
O8 C7 1.261 . S
H9 C3 0.930 1_655 S
H10 C5 0.930 . S
N11 Cu0 1.985 . S
N11 C13 1.335 . S
N11 C14 1.390 1_455 S
N12 C13 1.345 . S
N12 C15 1.336 1_455 S
C13 N11 1.335 . S
C13 N12 1.345 . S
C13 H18 0.930 . S
C14 N11 1.390 1_655 S
C14 C15 1.346 . S
C14 H19 0.930 . S
C15 N12 1.336 1_655 S
C15 C14 1.346 . S
C15 H22 0.929 . S
C16 O6 1.282 1_655 S
C16 O17 1.216 . S
O17 C16 1.216 . S
H18 C13 0.930 . S
H19 C14 0.930 . S
O20 Cu0 1.959 . S
O20 C7 1.251 1_455 S
H21 C4 0.930 . S
H22 C15 0.929 . S
Cu23 N24 1.999 . S
Cu23 O29 1.974 . S
Cu23 N34 1.985 . S
Cu23 O43 1.959 . S
N24 Cu23 1.999 . S
N24 C26 1.263 . S
N24 C28 1.389 . S
N25 C26 1.358 . S
N25 C27 1.400 . S
C26 N24 1.263 . S
C26 N25 1.358 . S
C26 H32 0.930 1_565 S
C27 N25 1.400 . S
C27 C28 1.351 . S
C27 H44 0.930 . S
C28 N24 1.389 . S
C28 C27 1.351 . S
C28 H33 0.930 . S
O29 Cu23 1.974 . S
O29 C39 1.282 1_565 S
C30 O31 1.261 . S
C30 O43 1.251 1_545 S
O31 C30 1.261 . S
H32 C26 0.930 1_545 S
H33 C28 0.930 . S
N34 Cu23 1.985 . S
N34 C36 1.335 . S
N34 C37 1.390 1_565 S
N35 C36 1.345 . S
N35 C38 1.336 1_565 S
C36 N34 1.335 . S
C36 N35 1.345 . S
C36 H41 0.930 . S
C37 N34 1.390 1_545 S
C37 C38 1.346 . S
C37 H42 0.930 . S
C38 N35 1.336 1_545 S
C38 C37 1.346 . S
C38 H45 0.929 . S
C39 O29 1.282 1_545 S
C39 O40 1.216 . S
O40 C39 1.216 . S
H41 C36 0.930 . S
H42 C37 0.930 . S
O43 Cu23 1.959 . S
O43 C30 1.251 1_565 S
H44 C27 0.930 . S
H45 C38 0.929 . S
Cu46 N47 1.999 . S
Cu46 O52 1.974 1_556 S
Cu46 N57 1.985 1_556 S
Cu46 O66 1.959 . S
N47 Cu46 1.999 . S
N47 C49 1.263 1_556 S
N47 C51 1.389 . S
N48 C49 1.358 . S
N48 C50 1.400 1_554 S
C49 N47 1.263 1_554 S
C49 N48 1.358 . S
C49 H55 0.930 . S
C50 N48 1.400 1_556 S
C50 C51 1.351 . S
C50 H67 0.930 . S
C51 N47 1.389 . S
C51 C50 1.351 . S
C51 H56 0.930 . S
O52 Cu46 1.974 1_554 S
O52 C62 1.282 . S
C53 O54 1.261 . S
C53 O66 1.251 1_554 S
O54 C53 1.261 . S
H55 C49 0.930 . S
H56 C51 0.930 . S
N57 Cu46 1.985 1_554 S
N57 C59 1.338 . S
N57 C60 1.390 . S
N58 C59 1.348 . S
N58 C61 1.336 . S
C59 N57 1.338 . S
C59 N58 1.348 . S
C59 H64 0.925 1_554 S
C60 N57 1.390 . S
C60 C61 1.346 . S
C60 H65 0.930 . S
C61 N58 1.336 . S
C61 C60 1.346 . S
C61 H68 0.929 . S
C62 O52 1.282 . S
C62 O63 1.216 . S
O63 C62 1.216 . S
H64 C59 0.925 1_556 S
H65 C60 0.930 . S
O66 Cu46 1.959 . S
O66 C53 1.251 1_556 S
H67 C50 0.930 . S
H68 C61 0.929 . S
Zn69 O71 1.933 1_556 S
Zn69 O89 1.985 . S
Zn69 O100 1.955 . S
Zn70 O71 1.911 . S
Zn70 O90 1.970 . S
Zn70 O106 1.945 . S
Zn70 O113 1.981 . S
O71 Zn69 1.933 1_554 S
O71 Zn70 1.911 . S
O71 H72 0.841 . S
H72 O71 0.841 . S
C73 O74 1.246 . S
C73 O102 1.276 1_455 S
O74 C73 1.246 . S
Zn75 O77 1.911 . S
Zn75 O92 1.970 . S
Zn75 O109 1.945 . S
Zn75 O116 1.981 . S
Zn76 O77 1.933 1_556 S
Zn76 O91 1.985 . S
Zn76 O98 1.955 . S
O77 Zn75 1.911 . S
O77 Zn76 1.933 1_554 S
O77 H78 0.841 . S
H78 O77 0.841 . S
Zn79 O80 1.933 1_556 S
Zn79 O93 1.985 . S
Zn79 O102 1.955 . S
O80 Zn79 1.933 1_554 S
O80 Zn81 1.911 . S
O80 H82 0.841 . S
Zn81 O80 1.911 . S
Zn81 O94 1.970 . S
Zn81 O110 1.981 . S
Zn81 O112 1.945 . S
H82 O80 0.841 . S
Zn83 O84 1.933 1_556 S
Zn83 O96 1.985 . S
Zn83 O104 1.955 . S
O84 Zn83 1.933 1_554 S
O84 H85 0.841 . S
O84 Zn86 1.911 . S
H85 O84 0.841 . S
Zn86 O84 1.911 . S
Zn86 O97 1.970 . S
Zn86 O107 1.981 . S
Zn86 O115 1.945 . S
C87 O88 1.246 . S
C87 O104 1.276 1_655 S
O88 C87 1.246 . S
O89 Zn69 1.985 . S
O89 C99 1.245 1_556 S
O90 Zn70 1.970 . S
O90 C99 1.263 . S
O91 Zn76 1.985 . S
O91 C103 1.245 1_556 S
O92 Zn75 1.970 . S
O92 C103 1.263 . S
O93 Zn79 1.985 . S
O93 C108 1.245 1_556 S
O94 Zn81 1.970 . S
O94 C108 1.263 . S
C95 O106 1.286 . S
C95 O107 1.231 1_545 S
O96 Zn83 1.985 . S
O96 C114 1.245 1_556 S
O97 Zn86 1.970 . S
O97 C114 1.263 . S
O98 Zn76 1.955 . S
O98 C117 1.276 1_565 S
C99 O89 1.245 1_554 S
C99 O90 1.263 . S
O100 Zn69 1.955 . S
O100 C119 1.276 . S
C101 O109 1.262 . S
C101 O110 1.245 1_565 S
O102 C73 1.276 1_655 S
O102 Zn79 1.955 . S
C103 O91 1.245 1_554 S
C103 O92 1.263 . S
O104 Zn83 1.955 . S
O104 C87 1.276 1_455 S
C105 O112 1.262 1_455 S
C105 O113 1.245 . S
O106 Zn70 1.945 . S
O106 C95 1.286 . S
O107 Zn86 1.981 . S
O107 C95 1.231 1_565 S
C108 O93 1.245 1_554 S
C108 O94 1.263 . S
O109 Zn75 1.945 . S
O109 C101 1.262 . S
O110 Zn81 1.981 . S
O110 C101 1.245 1_545 S
C111 O115 1.262 1_655 S
C111 O116 1.245 . S
O112 Zn81 1.945 . S
O112 C105 1.262 1_655 S
O113 Zn70 1.981 . S
O113 C105 1.245 . S
C114 O96 1.245 1_554 S
C114 O97 1.263 . S
O115 Zn86 1.945 . S
O115 C111 1.262 1_455 S
O116 Zn75 1.981 . S
O116 C111 1.245 . S
C117 O98 1.276 1_545 S
C117 O118 1.246 . S
O118 C117 1.246 . S
C119 O100 1.276 . S
C119 O120 1.246 1_545 S
O120 C119 1.246 1_565 S
C121 C122 1.386 1_655 S
C121 C123 1.383 . S
C121 H137 0.951 . S
C122 C121 1.386 1_455 S
C122 C126 1.383 . S
C123 C121 1.383 . S
C123 C124 1.402 1_655 S
C123 H138 0.951 . S
C124 C123 1.402 1_455 S
C124 C125 1.375 . S
C124 C127 1.481 . S
C125 C124 1.375 . S
C125 C126 1.367 . S
C125 H139 0.951 . S
C126 C122 1.383 . S
C126 C125 1.367 . S
C126 H140 0.950 . S
C127 C124 1.481 . S
C127 C128 1.297 1_455 S
C127 H141 0.950 . S
C128 C127 1.297 1_655 S
C128 C129 1.479 . S
C128 H142 0.950 . S
C129 C128 1.479 . S
C129 C130 1.375 . S
C129 C135 1.404 1_655 S
C130 C129 1.375 . S
C130 C131 1.369 . S
C130 H143 0.950 . S
C131 C130 1.369 . S
C131 C132 1.392 1_655 S
C131 H144 0.951 . S
C132 C131 1.392 1_455 S
C132 C134 1.384 . S
H133 C135 0.949 . S
C134 C132 1.384 . S
C134 C135 1.385 . S
C134 H136 0.950 . S
C135 C129 1.404 1_455 S
C135 H133 0.949 . S
C135 C134 1.385 . S
H136 C134 0.950 . S
H137 C121 0.951 . S
H138 C123 0.951 . S
H139 C125 0.951 . S
H140 C126 0.950 . S
H141 C127 0.950 . S
H142 C128 0.950 . S
H143 C130 0.950 . S
H144 C131 0.951 . S
C145 C146 1.384 1_565 S
C145 C147 1.384 . S
C145 H161 0.952 . S
C146 C145 1.384 1_545 S
C146 C150 1.383 . S
C147 C145 1.384 . S
C147 C148 1.402 1_565 S
C147 H162 0.951 . S
C148 C147 1.402 1_545 S
C148 C149 1.375 . S
C148 C151 1.483 . S
C149 C148 1.375 . S
C149 C150 1.367 . S
C149 H163 0.951 . S
C150 C146 1.383 . S
C150 C149 1.367 . S
C150 H164 0.950 . S
C151 C148 1.483 . S
C151 C152 1.291 1_545 S
C151 H165 0.955 . S
C152 C151 1.291 1_565 S
C152 C153 1.479 . S
C152 H166 0.950 . S
C153 C152 1.479 . S
C153 C154 1.375 . S
C153 C159 1.404 . S
C154 C153 1.375 . S
C154 C155 1.369 . S
C154 H167 0.950 . S
C155 C154 1.369 . S
C155 C156 1.392 . S
C155 H168 0.951 . S
C156 C155 1.392 . S
C156 C158 1.384 1_565 S
H157 C159 0.949 . S
C158 C156 1.384 1_545 S
C158 C159 1.385 1_545 S
C158 H160 0.950 . S
C159 C153 1.404 . S
C159 H157 0.949 . S
C159 C158 1.385 1_565 S
H160 C158 0.950 . S
H161 C145 0.952 . S
H162 C147 0.951 . S
H163 C149 0.951 . S
H164 C150 0.950 . S
H165 C151 0.955 . S
H166 C152 0.950 . S
H167 C154 0.950 . S
H168 C155 0.951 . S
C169 C170 1.386 . S
C169 C171 1.383 . S
C169 H185 0.951 1_655 S
C170 C169 1.386 . S
C170 C174 1.383 . S
C171 C169 1.383 . S
C171 C172 1.402 . S
C171 H186 0.951 . S
C172 C171 1.402 . S
C172 C173 1.375 . S
C172 C175 1.481 . S
C173 C172 1.375 . S
C173 C174 1.367 . S
C173 H187 0.951 . S
C174 C170 1.383 . S
C174 C173 1.367 . S
C174 H188 0.950 . S
C175 C172 1.481 . S
C175 C176 1.297 . S
C175 H189 0.950 . S
C176 C175 1.297 . S
C176 C177 1.479 . S
C176 H190 0.950 . S
C177 C176 1.479 . S
C177 C178 1.375 . S
C177 C183 1.404 . S
C178 C177 1.375 . S
C178 C179 1.369 . S
C178 H191 0.950 . S
C179 C178 1.369 . S
C179 C180 1.392 . S
C179 H192 0.951 1_655 S
C180 C179 1.392 . S
C180 C182 1.384 . S
H181 C183 0.949 . S
C182 C180 1.384 . S
C182 C183 1.385 . S
C182 H184 0.950 . S
C183 C177 1.404 . S
C183 H181 0.949 . S
C183 C182 1.385 . S
H184 C182 0.950 . S
H185 C169 0.951 1_455 S
H186 C171 0.951 . S
H187 C173 0.951 . S
H188 C174 0.950 . S
H189 C175 0.950 . S
H190 C176 0.950 . S
H191 C178 0.950 . S
H192 C179 0.951 1_455 S
C193 C194 1.386 . S
C193 C195 1.383 . S
C193 H209 0.951 . S
C194 C193 1.386 . S
C194 C198 1.383 1_565 S
C195 C193 1.383 . S
C195 C196 1.402 1_565 S
C195 H210 0.951 . S
C196 C195 1.402 1_545 S
C196 C197 1.375 . S
C196 C199 1.481 . S
C197 C196 1.375 . S
C197 C198 1.367 . S
C197 H211 0.951 . S
C198 C194 1.383 1_545 S
C198 C197 1.367 . S
C198 H212 0.950 . S
C199 C196 1.481 . S
C199 C200 1.297 1_545 S
C199 H213 0.950 . S
C200 C199 1.297 1_565 S
C200 C201 1.479 . S
C200 H214 0.950 . S
C201 C200 1.479 . S
C201 C202 1.375 . S
C201 C207 1.404 1_565 S
C202 C201 1.375 . S
C202 C203 1.369 . S
C202 H215 0.950 . S
C203 C202 1.369 . S
C203 C204 1.392 . S
C203 H216 0.951 . S
C204 C203 1.392 . S
C204 C206 1.384 1_565 S
H205 C207 0.949 . S
C206 C204 1.384 1_545 S
C206 C207 1.385 . S
C206 H208 0.950 . S
C207 C201 1.404 1_545 S
C207 H205 0.949 . S
C207 C206 1.385 . S
H208 C206 0.950 . S
H209 C193 0.951 . S
H210 C195 0.951 . S
H211 C197 0.951 . S
H212 C198 0.950 . S
H213 C199 0.950 . S
H214 C200 0.950 . S
H215 C202 0.950 . S
H216 C203 0.951 . S
C217 C218 1.386 1_655 S
C217 C219 1.383 . S
C217 H233 0.951 . S
C218 C217 1.386 1_455 S
C218 C222 1.383 . S
C219 C217 1.383 . S
C219 C220 1.402 1_655 S
C219 H234 0.951 . S
C220 C219 1.402 1_455 S
C220 C221 1.375 . S
C220 C223 1.481 . S
C221 C220 1.375 . S
C221 C222 1.367 . S
C221 H235 0.951 . S
C222 C218 1.383 . S
C222 C221 1.367 . S
C222 H236 0.950 . S
C223 C220 1.481 . S
C223 C224 1.297 1_455 S
C223 H237 0.950 . S
C224 C223 1.297 1_655 S
C224 C225 1.479 . S
C224 H238 0.950 . S
C225 C224 1.479 . S
C225 C226 1.375 . S
C225 C231 1.404 1_655 S
C226 C225 1.375 . S
C226 C227 1.369 . S
C226 H239 0.950 . S
C227 C226 1.369 . S
C227 C228 1.392 . S
C227 H240 0.951 . S
C228 C227 1.392 . S
C228 C230 1.384 1_655 S
H229 C231 0.949 . S
C230 C228 1.384 1_455 S
C230 C231 1.385 . S
C230 H232 0.950 . S
C231 C225 1.404 1_455 S
C231 H229 0.949 . S
C231 C230 1.385 . S
H232 C230 0.950 . S
H233 C217 0.951 . S
H234 C219 0.951 . S
H235 C221 0.951 . S
H236 C222 0.950 . S
H237 C223 0.950 . S
H238 C224 0.950 . S
H239 C226 0.950 . S
H240 C227 0.951 . S
C241 C242 1.386 . S
C241 C243 1.383 . S
C241 H257 0.951 1_545 S
C242 C241 1.386 . S
C242 C246 1.383 . S
C243 C241 1.383 . S
C243 C244 1.402 . S
C243 H258 0.951 . S
C244 C243 1.402 . S
C244 C245 1.375 . S
C244 C247 1.481 . S
C245 C244 1.375 . S
C245 C246 1.367 . S
C245 H259 0.951 . S
C246 C242 1.383 . S
C246 C245 1.367 . S
C246 H260 0.950 . S
C247 C244 1.481 . S
C247 C248 1.297 . S
C247 H261 0.950 . S
C248 C247 1.297 . S
C248 C249 1.479 . S
C248 H262 0.950 . S
C249 C248 1.479 . S
C249 C250 1.374 1_545 S
C249 C255 1.404 . S
C250 C249 1.374 1_565 S
C250 C251 1.369 . S
C250 H263 0.951 . S
C251 C250 1.369 . S
C251 C252 1.395 . S
C251 H264 0.951 . S
C252 C251 1.395 . S
C252 C254 1.380 1_565 S
H253 C255 0.949 . S
C254 C252 1.380 1_545 S
C254 C255 1.385 . S
C254 H256 0.950 . S
C255 C249 1.404 . S
C255 H253 0.949 . S
C255 C254 1.385 . S
H256 C254 0.950 . S
H257 C241 0.951 1_565 S
H258 C243 0.951 . S
H259 C245 0.951 . S
H260 C246 0.950 . S
H261 C247 0.950 . S
H262 C248 0.950 . S
H263 C250 0.951 . S
H264 C251 0.951 . S
C265 C266 1.386 1_455 S
C265 C267 1.383 . S
C265 H281 0.951 . S
C266 C265 1.386 1_655 S
C266 C270 1.383 . S
C267 C265 1.383 . S
C267 C268 1.401 1_455 S
C267 H282 0.952 . S
C268 C267 1.401 1_655 S
C268 C269 1.375 . S
C268 C271 1.481 . S
C269 C268 1.375 . S
C269 C270 1.367 . S
C269 H283 0.951 . S
C270 C266 1.383 . S
C270 C269 1.367 . S
C270 H284 0.950 . S
C271 C268 1.481 . S
C271 C272 1.297 . S
C271 H285 0.950 . S
C272 C271 1.297 . S
C272 C273 1.479 . S
C272 H286 0.950 . S
C273 C272 1.479 . S
C273 C274 1.375 1_655 S
C273 C279 1.404 . S
C274 C273 1.375 1_455 S
C274 C275 1.369 . S
C274 H287 0.950 . S
C275 C274 1.369 . S
C275 C276 1.392 . S
C275 H288 0.951 . S
C276 C275 1.392 . S
C276 C278 1.384 1_455 S
H277 C279 0.949 . S
C278 C276 1.384 1_655 S
C278 C279 1.385 . S
C278 H280 0.950 . S
C279 C273 1.404 . S
C279 H277 0.949 . S
C279 C278 1.385 . S
H280 C278 0.950 . S
H281 C265 0.951 . S
H282 C267 0.952 . S
H283 C269 0.951 . S
H284 C270 0.950 . S
H285 C271 0.950 . S
H286 C272 0.950 . S
H287 C274 0.950 . S
H288 C275 0.951 . S
C289 C290 1.386 1_545 S
C289 C291 1.383 . S
C289 H305 0.951 . S
C290 C289 1.386 1_565 S
C290 C294 1.383 . S
C291 C289 1.383 . S
C291 C292 1.402 . S
C291 H306 0.951 . S
C292 C291 1.402 . S
C292 C293 1.375 1_545 S
C292 C295 1.481 . S
C293 C292 1.375 1_565 S
C293 C294 1.367 . S
C293 H307 0.951 . S
C294 C290 1.383 . S
C294 C293 1.367 . S
C294 H308 0.950 . S
C295 C292 1.481 . S
C295 C296 1.297 . S
C295 H309 0.950 1_545 S
C296 C295 1.297 . S
C296 C297 1.479 . S
C296 H310 0.950 . S
C297 C296 1.479 . S
C297 C298 1.375 . S
C297 C303 1.404 . S
C298 C297 1.375 . S
C298 C299 1.369 . S
C298 H311 0.950 . S
C299 C298 1.369 . S
C299 C300 1.392 . S
C299 H312 0.951 . S
C300 C299 1.392 . S
C300 C302 1.384 . S
H301 C303 0.949 . S
C302 C300 1.384 . S
C302 C303 1.385 . S
C302 H304 0.950 . S
C303 C297 1.404 . S
C303 H301 0.949 . S
C303 C302 1.385 . S
H304 C302 0.950 . S
H305 C289 0.951 . S
H306 C291 0.951 . S
H307 C293 0.951 . S
H308 C294 0.950 . S
H309 C295 0.950 1_565 S
H310 C296 0.950 . S
H311 C298 0.950 . S
H312 C299 0.951 . S
C313 C314 1.386 . S
C313 C315 1.383 . S
C313 H329 0.951 1_554 S
C314 C313 1.386 . S
C314 C318 1.383 . S
C315 C313 1.383 . S
C315 C316 1.402 . S
C315 H330 0.951 . S
C316 C315 1.402 . S
C316 C317 1.375 . S
C316 C319 1.481 . S
C317 C316 1.375 . S
C317 C318 1.367 . S
C317 H331 0.951 . S
C318 C314 1.383 . S
C318 C317 1.367 . S
C318 H332 0.950 . S
C319 C316 1.481 . S
C319 C320 1.297 . S
C319 H333 0.950 . S
C320 C319 1.297 . S
C320 C321 1.479 . S
C320 H334 0.950 . S
C321 C320 1.479 . S
C321 C322 1.375 . S
C321 C327 1.404 . S
C322 C321 1.375 . S
C322 C323 1.369 1_554 S
C322 H335 0.950 1_554 S
C323 C322 1.369 1_556 S
C323 C324 1.392 1_556 S
C323 H336 0.951 . S
C324 C323 1.392 1_554 S
C324 C326 1.384 . S
H325 C327 0.949 . S
C326 C324 1.384 . S
C326 C327 1.385 . S
C326 H328 0.950 . S
C327 C321 1.404 . S
C327 H325 0.949 . S
C327 C326 1.385 . S
H328 C326 0.950 . S
H329 C313 0.951 1_556 S
H330 C315 0.951 . S
H331 C317 0.951 . S
H332 C318 0.950 . S
H333 C319 0.950 . S
H334 C320 0.950 . S
H335 C322 0.950 1_556 S
H336 C323 0.951 . S
C337 C338 1.386 1_556 S
C337 C339 1.383 . S
C337 H353 0.951 . S
C338 C337 1.386 1_554 S
C338 C342 1.383 . S
C339 C337 1.383 . S
C339 C340 1.402 1_556 S
C339 H354 0.951 . S
C340 C339 1.402 1_554 S
C340 C341 1.375 . S
C340 C343 1.481 . S
C341 C340 1.375 . S
C341 C342 1.367 . S
C341 H355 0.951 . S
C342 C338 1.383 . S
C342 C341 1.367 . S
C342 H356 0.950 . S
C343 C340 1.481 . S
C343 C344 1.297 . S
C343 H357 0.950 . S
C344 C343 1.297 . S
C344 C345 1.479 . S
C344 H358 0.950 1_554 S
C345 C344 1.479 . S
C345 C346 1.375 1_554 S
C345 C351 1.404 . S
C346 C345 1.375 1_556 S
C346 C347 1.369 . S
C346 H359 0.950 . S
C347 C346 1.369 . S
C347 C348 1.392 1_556 S
C347 H360 0.951 . S
C348 C347 1.392 1_554 S
C348 C350 1.384 . S
H349 C351 0.949 . S
C350 C348 1.384 . S
C350 C351 1.385 . S
C350 H352 0.950 . S
C351 C345 1.404 . S
C351 H349 0.949 . S
C351 C350 1.385 . S
H352 C350 0.950 . S
H353 C337 0.951 . S
H354 C339 0.951 . S
H355 C341 0.951 . S
H356 C342 0.950 . S
H357 C343 0.950 . S
H358 C344 0.950 1_556 S
H359 C346 0.950 . S
H360 C347 0.951 . S
C361 C362 1.386 1_556 S
C361 C363 1.383 . S
C361 H377 0.951 . S
C362 C361 1.386 1_554 S
C362 C366 1.383 . S
C363 C361 1.383 . S
C363 C364 1.402 1_556 S
C363 H378 0.951 . S
C364 C363 1.402 1_554 S
C364 C365 1.375 . S
C364 C367 1.481 . S
C365 C364 1.375 . S
C365 C366 1.367 . S
C365 H379 0.951 . S
C366 C362 1.383 . S
C366 C365 1.367 . S
C366 H380 0.950 . S
C367 C364 1.481 . S
C367 C368 1.297 . S
C367 H381 0.950 . S
C368 C367 1.297 . S
C368 C369 1.479 . S
C368 H382 0.950 1_554 S
C369 C368 1.479 . S
C369 C370 1.375 1_554 S
C369 C375 1.404 . S
C370 C369 1.375 1_556 S
C370 C371 1.369 . S
C370 H383 0.950 . S
C371 C370 1.369 . S
C371 C372 1.392 1_556 S
C371 H384 0.951 . S
C372 C371 1.392 1_554 S
C372 C374 1.384 . S
H373 C375 0.949 . S
C374 C372 1.384 . S
C374 C375 1.385 . S
C374 H376 0.950 . S
C375 C369 1.404 . S
C375 H373 0.949 . S
C375 C374 1.385 . S
H376 C374 0.950 . S
H377 C361 0.951 . S
H378 C363 0.951 . S
H379 C365 0.951 . S
H380 C366 0.950 . S
H381 C367 0.950 . S
H382 C368 0.950 1_556 S
H383 C370 0.950 . S
H384 C371 0.951 . S
C385 C386 1.386 1_556 S
C385 C387 1.383 1_556 S
C385 H401 0.951 . S
C386 C385 1.386 1_554 S
C386 C390 1.383 . S
C387 C385 1.383 1_554 S
C387 C388 1.402 . S
C387 H402 0.951 1_554 S
C388 C387 1.402 . S
C388 C389 1.375 . S
C388 C391 1.481 . S
C389 C388 1.375 . S
C389 C390 1.367 . S
C389 H403 0.951 . S
C390 C386 1.383 . S
C390 C389 1.367 . S
C390 H404 0.950 . S
C391 C388 1.481 . S
C391 C392 1.297 . S
C391 H405 0.950 . S
C392 C391 1.297 . S
C392 C393 1.479 . S
C392 H406 0.950 1_554 S
C393 C392 1.479 . S
C393 C394 1.375 1_554 S
C393 C399 1.404 . S
C394 C393 1.375 1_556 S
C394 C395 1.369 . S
C394 H407 0.950 . S
C395 C394 1.369 . S
C395 C396 1.392 1_556 S
C395 H408 0.951 . S
C396 C395 1.392 1_554 S
C396 C398 1.384 . S
H397 C399 0.949 . S
C398 C396 1.384 . S
C398 C399 1.385 . S
C398 H400 0.950 . S
C399 C393 1.404 . S
C399 H397 0.949 . S
C399 C398 1.385 . S
H400 C398 0.950 . S
H401 C385 0.951 . S
H402 C387 0.951 1_556 S
H403 C389 0.951 . S
H404 C390 0.950 . S
H405 C391 0.950 . S
H406 C392 0.950 1_556 S
H407 C394 0.950 . S
H408 C395 0.951 . S
C132 C105 1.265 . S
C122 N2 1.313 . S
C156 C101 1.679 . S
C146 C39 1.781 . S
C180 C111 1.562 . S
C170 C7 1.632 . S
C204 C95 1.546 1_565 S
C194 N35 1.544 . S
C218 N12 1.405 . S
C228 C87 1.394 . S
C252 C119 1.801 1_565 S
C242 C30 1.973 . S
C266 C16 1.737 . S
C276 C73 1.561 . S
C290 N25 1.687 . S
C300 C117 1.663 . S
C314 C62 1.285 . S
C324 C99 1.219 . S
C338 N48 1.092 . S
C348 C114 1.007 . S
C372 C108 0.979 . S
C362 N58 1.037 . S
C396 C103 1.247 . S
C386 C53 1.323 . S
