# Generated by pormake.
# Topology gar, (4,6)-cn, num edge types: 1
# Building blocks:
#     Node 0, Type 0, BuildingBlock: TATPOV_clean_sbu_0, # of connection points: 4
#     Node 1, Type 0, BuildingBlock: TATPOV_clean_sbu_0, # of connection points: 4
#     Node 2, Type 0, BuildingBlock: TATPOV_clean_sbu_0, # of connection points: 4
#     Node 3, Type 0, BuildingBlock: TATPOV_clean_sbu_0, # of connection points: 4
#     Node 4, Type 0, BuildingBlock: TATPOV_clean_sbu_0, # of connection points: 4
#     Node 5, Type 0, BuildingBlock: TATPOV_clean_sbu_0, # of connection points: 4
#     Node 6, Type 0, BuildingBlock: TATPOV_clean_sbu_0, # of connection points: 4
#     Node 7, Type 0, BuildingBlock: TATPOV_clean_sbu_0, # of connection points: 4
#     Node 8, Type 0, BuildingBlock: TATPOV_clean_sbu_0, # of connection points: 4
#     Node 9, Type 0, BuildingBlock: TATPOV_clean_sbu_0, # of connection points: 4
#     Node 10, Type 0, BuildingBlock: TATPOV_clean_sbu_0, # of connection points: 4
#     Node 11, Type 0, BuildingBlock: TATPOV_clean_sbu_0, # of connection points: 4
#     Node 12, Type 0, BuildingBlock: TATPOV_clean_sbu_0, # of connection points: 4
#     Node 13, Type 0, BuildingBlock: TATPOV_clean_sbu_0, # of connection points: 4
#     Node 14, Type 0, BuildingBlock: TATPOV_clean_sbu_0, # of connection points: 4
#     Node 15, Type 0, BuildingBlock: TATPOV_clean_sbu_0, # of connection points: 4
#     Node 16, Type 0, BuildingBlock: TATPOV_clean_sbu_0, # of connection points: 4
#     Node 17, Type 0, BuildingBlock: TATPOV_clean_sbu_0, # of connection points: 4
#     Node 18, Type 0, BuildingBlock: TATPOV_clean_sbu_0, # of connection points: 4
#     Node 19, Type 0, BuildingBlock: TATPOV_clean_sbu_0, # of connection points: 4
#     Node 20, Type 0, BuildingBlock: TATPOV_clean_sbu_0, # of connection points: 4
#     Node 21, Type 0, BuildingBlock: TATPOV_clean_sbu_0, # of connection points: 4
#     Node 22, Type 0, BuildingBlock: TATPOV_clean_sbu_0, # of connection points: 4
#     Node 23, Type 0, BuildingBlock: TATPOV_clean_sbu_0, # of connection points: 4
#     Node 24, Type 1, BuildingBlock: CUKXOW_clean_sbu_0, # of connection points: 6
#     Node 25, Type 1, BuildingBlock: CUKXOW_clean_sbu_0, # of connection points: 6
#     Node 26, Type 1, BuildingBlock: CUKXOW_clean_sbu_0, # of connection points: 6
#     Node 27, Type 1, BuildingBlock: CUKXOW_clean_sbu_0, # of connection points: 6
#     Node 28, Type 1, BuildingBlock: CUKXOW_clean_sbu_0, # of connection points: 6
#     Node 29, Type 1, BuildingBlock: CUKXOW_clean_sbu_0, # of connection points: 6
#     Node 30, Type 1, BuildingBlock: CUKXOW_clean_sbu_0, # of connection points: 6
#     Node 31, Type 1, BuildingBlock: CUKXOW_clean_sbu_0, # of connection points: 6
#     Node 32, Type 1, BuildingBlock: CUKXOW_clean_sbu_0, # of connection points: 6
#     Node 33, Type 1, BuildingBlock: CUKXOW_clean_sbu_0, # of connection points: 6
#     Node 34, Type 1, BuildingBlock: CUKXOW_clean_sbu_0, # of connection points: 6
#     Node 35, Type 1, BuildingBlock: CUKXOW_clean_sbu_0, # of connection points: 6
#     Node 36, Type 1, BuildingBlock: CUKXOW_clean_sbu_0, # of connection points: 6
#     Node 37, Type 1, BuildingBlock: CUKXOW_clean_sbu_0, # of connection points: 6
#     Node 38, Type 1, BuildingBlock: CUKXOW_clean_sbu_0, # of connection points: 6
#     Node 39, Type 1, BuildingBlock: CUKXOW_clean_sbu_0, # of connection points: 6
#     Edge 40, Type (0, 1), BuildingBlock: TEMPAE_clean_linker_10, # of connection points: 2
#     Edge 41, Type (0, 1), BuildingBlock: TEMPAE_clean_linker_10, # of connection points: 2
#     Edge 42, Type (0, 1), BuildingBlock: TEMPAE_clean_linker_10, # of connection points: 2
#     Edge 43, Type (0, 1), BuildingBlock: TEMPAE_clean_linker_10, # of connection points: 2
#     Edge 44, Type (0, 1), BuildingBlock: TEMPAE_clean_linker_10, # of connection points: 2
#     Edge 45, Type (0, 1), BuildingBlock: TEMPAE_clean_linker_10, # of connection points: 2
#     Edge 46, Type (0, 1), BuildingBlock: TEMPAE_clean_linker_10, # of connection points: 2
#     Edge 47, Type (0, 1), BuildingBlock: TEMPAE_clean_linker_10, # of connection points: 2
#     Edge 48, Type (0, 1), BuildingBlock: TEMPAE_clean_linker_10, # of connection points: 2
#     Edge 49, Type (0, 1), BuildingBlock: TEMPAE_clean_linker_10, # of connection points: 2
#     Edge 50, Type (0, 1), BuildingBlock: TEMPAE_clean_linker_10, # of connection points: 2
#     Edge 51, Type (0, 1), BuildingBlock: TEMPAE_clean_linker_10, # of connection points: 2
#     Edge 52, Type (0, 1), BuildingBlock: TEMPAE_clean_linker_10, # of connection points: 2
#     Edge 53, Type (0, 1), BuildingBlock: TEMPAE_clean_linker_10, # of connection points: 2
#     Edge 54, Type (0, 1), BuildingBlock: TEMPAE_clean_linker_10, # of connection points: 2
#     Edge 55, Type (0, 1), BuildingBlock: TEMPAE_clean_linker_10, # of connection points: 2
#     Edge 56, Type (0, 1), BuildingBlock: TEMPAE_clean_linker_10, # of connection points: 2
#     Edge 57, Type (0, 1), BuildingBlock: TEMPAE_clean_linker_10, # of connection points: 2
#     Edge 58, Type (0, 1), BuildingBlock: TEMPAE_clean_linker_10, # of connection points: 2
#     Edge 59, Type (0, 1), BuildingBlock: TEMPAE_clean_linker_10, # of connection points: 2
#     Edge 60, Type (0, 1), BuildingBlock: TEMPAE_clean_linker_10, # of connection points: 2
#     Edge 61, Type (0, 1), BuildingBlock: TEMPAE_clean_linker_10, # of connection points: 2
#     Edge 62, Type (0, 1), BuildingBlock: TEMPAE_clean_linker_10, # of connection points: 2
#     Edge 63, Type (0, 1), BuildingBlock: TEMPAE_clean_linker_10, # of connection points: 2
#     Edge 64, Type (0, 1), BuildingBlock: TEMPAE_clean_linker_10, # of connection points: 2
#     Edge 65, Type (0, 1), BuildingBlock: TEMPAE_clean_linker_10, # of connection points: 2
#     Edge 66, Type (0, 1), BuildingBlock: TEMPAE_clean_linker_10, # of connection points: 2
#     Edge 67, Type (0, 1), BuildingBlock: TEMPAE_clean_linker_10, # of connection points: 2
#     Edge 68, Type (0, 1), BuildingBlock: TEMPAE_clean_linker_10, # of connection points: 2
#     Edge 69, Type (0, 1), BuildingBlock: TEMPAE_clean_linker_10, # of connection points: 2
#     Edge 70, Type (0, 1), BuildingBlock: TEMPAE_clean_linker_10, # of connection points: 2
#     Edge 71, Type (0, 1), BuildingBlock: TEMPAE_clean_linker_10, # of connection points: 2
#     Edge 72, Type (0, 1), BuildingBlock: TEMPAE_clean_linker_10, # of connection points: 2
#     Edge 73, Type (0, 1), BuildingBlock: TEMPAE_clean_linker_10, # of connection points: 2
#     Edge 74, Type (0, 1), BuildingBlock: TEMPAE_clean_linker_10, # of connection points: 2
#     Edge 75, Type (0, 1), BuildingBlock: TEMPAE_clean_linker_10, # of connection points: 2
#     Edge 76, Type (0, 1), BuildingBlock: TEMPAE_clean_linker_10, # of connection points: 2
#     Edge 77, Type (0, 1), BuildingBlock: TEMPAE_clean_linker_10, # of connection points: 2
#     Edge 78, Type (0, 1), BuildingBlock: TEMPAE_clean_linker_10, # of connection points: 2
#     Edge 79, Type (0, 1), BuildingBlock: TEMPAE_clean_linker_10, # of connection points: 2
#     Edge 80, Type (0, 1), BuildingBlock: TEMPAE_clean_linker_10, # of connection points: 2
#     Edge 81, Type (0, 1), BuildingBlock: TEMPAE_clean_linker_10, # of connection points: 2
#     Edge 82, Type (0, 1), BuildingBlock: TEMPAE_clean_linker_10, # of connection points: 2
#     Edge 83, Type (0, 1), BuildingBlock: TEMPAE_clean_linker_10, # of connection points: 2
#     Edge 84, Type (0, 1), BuildingBlock: TEMPAE_clean_linker_10, # of connection points: 2
#     Edge 85, Type (0, 1), BuildingBlock: TEMPAE_clean_linker_10, # of connection points: 2
#     Edge 86, Type (0, 1), BuildingBlock: TEMPAE_clean_linker_10, # of connection points: 2
#     Edge 87, Type (0, 1), BuildingBlock: TEMPAE_clean_linker_10, # of connection points: 2
#     Edge 88, Type (0, 1), BuildingBlock: TEMPAE_clean_linker_10, # of connection points: 2
#     Edge 89, Type (0, 1), BuildingBlock: TEMPAE_clean_linker_10, # of connection points: 2
#     Edge 90, Type (0, 1), BuildingBlock: TEMPAE_clean_linker_10, # of connection points: 2
#     Edge 91, Type (0, 1), BuildingBlock: TEMPAE_clean_linker_10, # of connection points: 2
#     Edge 92, Type (0, 1), BuildingBlock: TEMPAE_clean_linker_10, # of connection points: 2
#     Edge 93, Type (0, 1), BuildingBlock: TEMPAE_clean_linker_10, # of connection points: 2
#     Edge 94, Type (0, 1), BuildingBlock: TEMPAE_clean_linker_10, # of connection points: 2
#     Edge 95, Type (0, 1), BuildingBlock: TEMPAE_clean_linker_10, # of connection points: 2
#     Edge 96, Type (0, 1), BuildingBlock: TEMPAE_clean_linker_10, # of connection points: 2
#     Edge 97, Type (0, 1), BuildingBlock: TEMPAE_clean_linker_10, # of connection points: 2
#     Edge 98, Type (0, 1), BuildingBlock: TEMPAE_clean_linker_10, # of connection points: 2
#     Edge 99, Type (0, 1), BuildingBlock: TEMPAE_clean_linker_10, # of connection points: 2
#     Edge 100, Type (0, 1), BuildingBlock: TEMPAE_clean_linker_10, # of connection points: 2
#     Edge 101, Type (0, 1), BuildingBlock: TEMPAE_clean_linker_10, # of connection points: 2
#     Edge 102, Type (0, 1), BuildingBlock: TEMPAE_clean_linker_10, # of connection points: 2
#     Edge 103, Type (0, 1), BuildingBlock: TEMPAE_clean_linker_10, # of connection points: 2
#     Edge 104, Type (0, 1), BuildingBlock: TEMPAE_clean_linker_10, # of connection points: 2
#     Edge 105, Type (0, 1), BuildingBlock: TEMPAE_clean_linker_10, # of connection points: 2
#     Edge 106, Type (0, 1), BuildingBlock: TEMPAE_clean_linker_10, # of connection points: 2
#     Edge 107, Type (0, 1), BuildingBlock: TEMPAE_clean_linker_10, # of connection points: 2
#     Edge 108, Type (0, 1), BuildingBlock: TEMPAE_clean_linker_10, # of connection points: 2
#     Edge 109, Type (0, 1), BuildingBlock: TEMPAE_clean_linker_10, # of connection points: 2
#     Edge 110, Type (0, 1), BuildingBlock: TEMPAE_clean_linker_10, # of connection points: 2
#     Edge 111, Type (0, 1), BuildingBlock: TEMPAE_clean_linker_10, # of connection points: 2
#     Edge 112, Type (0, 1), BuildingBlock: TEMPAE_clean_linker_10, # of connection points: 2
#     Edge 113, Type (0, 1), BuildingBlock: TEMPAE_clean_linker_10, # of connection points: 2
#     Edge 114, Type (0, 1), BuildingBlock: TEMPAE_clean_linker_10, # of connection points: 2
#     Edge 115, Type (0, 1), BuildingBlock: TEMPAE_clean_linker_10, # of connection points: 2
#     Edge 116, Type (0, 1), BuildingBlock: TEMPAE_clean_linker_10, # of connection points: 2
#     Edge 117, Type (0, 1), BuildingBlock: TEMPAE_clean_linker_10, # of connection points: 2
#     Edge 118, Type (0, 1), BuildingBlock: TEMPAE_clean_linker_10, # of connection points: 2
#     Edge 119, Type (0, 1), BuildingBlock: TEMPAE_clean_linker_10, # of connection points: 2
#     Edge 120, Type (0, 1), BuildingBlock: TEMPAE_clean_linker_10, # of connection points: 2
#     Edge 121, Type (0, 1), BuildingBlock: TEMPAE_clean_linker_10, # of connection points: 2
#     Edge 122, Type (0, 1), BuildingBlock: TEMPAE_clean_linker_10, # of connection points: 2
#     Edge 123, Type (0, 1), BuildingBlock: TEMPAE_clean_linker_10, # of connection points: 2
#     Edge 124, Type (0, 1), BuildingBlock: TEMPAE_clean_linker_10, # of connection points: 2
#     Edge 125, Type (0, 1), BuildingBlock: TEMPAE_clean_linker_10, # of connection points: 2
#     Edge 126, Type (0, 1), BuildingBlock: TEMPAE_clean_linker_10, # of connection points: 2
#     Edge 127, Type (0, 1), BuildingBlock: TEMPAE_clean_linker_10, # of connection points: 2
#     Edge 128, Type (0, 1), BuildingBlock: TEMPAE_clean_linker_10, # of connection points: 2
#     Edge 129, Type (0, 1), BuildingBlock: TEMPAE_clean_linker_10, # of connection points: 2
#     Edge 130, Type (0, 1), BuildingBlock: TEMPAE_clean_linker_10, # of connection points: 2
#     Edge 131, Type (0, 1), BuildingBlock: TEMPAE_clean_linker_10, # of connection points: 2
#     Edge 132, Type (0, 1), BuildingBlock: TEMPAE_clean_linker_10, # of connection points: 2
#     Edge 133, Type (0, 1), BuildingBlock: TEMPAE_clean_linker_10, # of connection points: 2
#     Edge 134, Type (0, 1), BuildingBlock: TEMPAE_clean_linker_10, # of connection points: 2
#     Edge 135, Type (0, 1), BuildingBlock: TEMPAE_clean_linker_10, # of connection points: 2
# Relax obj value: 0.111
# Max RMSD: 0.223
# Mean RMSD: 0.146
data_MOF--net-gar--node1-TATPOV_clean_sbu_0--node2-CUKXOW_clean_sbu_0--edge1-TEMPAE_clean_linker_10
_symmetry_space_group_name_H-M    P1
_symmetry_Int_Tables_number       1
_symmetry_cell_setting            triclinic
loop_
_symmetry_equiv_pos_as_xyz
'x, y, z'
_cell_length_a     55.663199
_cell_length_b     54.358404
_cell_length_c     55.16052
_cell_angle_alpha  94.102303
_cell_angle_beta   96.203107
_cell_angle_gamma 101.33268
loop_
_atom_site_label
_atom_site_type_symbol
_atom_site_fract_x
_atom_site_fract_y
_atom_site_fract_z
_atom_type_partial_charge
Zn0 Zn 0.9891 0.26501 0.48244 0.0
Zn1 Zn 0.02251 0.26673 0.44948 0.0
O2 O 0.03219 0.30179 0.46902 0.0
O3 O 0.00735 0.29919 0.49771 0.0
O4 O 0.04782 0.26639 0.42582 0.0
O5 O -0.00139 0.23379 0.49439 0.0
O6 O 0.02519 0.23546 0.46741 0.0
C7 C 0.02476 0.31159 0.4878 0.0
C8 C 0.96778 0.26135 0.43163 0.0
O9 O 0.99 0.26238 0.42761 0.0
O10 O 0.96246 0.26242 0.45341 0.0
C11 C 0.04405 0.27092 0.40356 0.0
O12 O 0.02333 0.27744 0.39555 0.0
C13 C 0.01476 0.22468 0.4844 0.0
Zn14 Zn 0.98261 0.72782 0.63023 0.0
Zn15 Zn 0.98442 0.76874 0.60472 0.0
O16 O 0.95919 0.77189 0.62805 0.0
O17 O 0.95888 0.74015 0.65073 0.0
O18 O 0.98499 0.7996 0.58692 0.0
O19 O 0.0193 0.73898 0.64003 0.0
O20 O 0.01962 0.7738 0.62175 0.0
C21 C 0.95127 0.75981 0.64547 0.0
C22 C 0.96829 0.71564 0.57843 0.0
O23 O 0.97403 0.73941 0.57776 0.0
O24 O 0.96973 0.70622 0.59874 0.0
C25 C 0.99102 0.80111 0.56544 0.0
O26 O 0.99731 0.7817 0.55407 0.0
C27 C 0.03076 0.76001 0.63467 0.0
Zn28 Zn 0.48271 0.76137 0.97279 0.0
Zn29 Zn 0.51985 0.76752 0.94439 0.0
O30 O 0.52569 0.80191 0.96467 0.0
O31 O 0.49764 0.79555 0.99017 0.0
O32 O 0.54737 0.76992 0.92306 0.0
O33 O 0.49305 0.73089 0.98497 0.0
O34 O 0.52444 0.7374 0.9635 0.0
C35 C 0.5156 0.80973 0.98259 0.0
C36 C 0.46581 0.75806 0.92137 0.0
O37 O 0.48877 0.761 0.91955 0.0
O38 O 0.45835 0.75797 0.94226 0.0
C39 C 0.54613 0.77865 0.90228 0.0
O40 O 0.52681 0.78787 0.89473 0.0
C41 C 0.5123 0.72474 0.97838 0.0
Zn42 Zn 0.4916 0.24901 0.14876 0.0
Zn43 Zn 0.48928 0.28405 0.11649 0.0
O44 O 0.46058 0.28534 0.13613 0.0
O45 O 0.46097 0.25589 0.16147 0.0
O46 O 0.486 0.30943 0.09291 0.0
O47 O 0.52435 0.27074 0.16358 0.0
O48 O 0.52349 0.29706 0.135 0.0
C49 C 0.45143 0.2733 0.15305 0.0
C50 C 0.48731 0.22972 0.09779 0.0
O51 O 0.48671 0.25238 0.09404 0.0
O52 O 0.48943 0.22339 0.11948 0.0
C53 C 0.48453 0.33159 0.1005 0.0
O54 O 0.48536 0.33758 0.12413 0.0
C55 C 0.53431 0.29004 0.15396 0.0
Zn56 Zn 0.02561 0.76774 0.13013 0.0
Zn57 Zn 0.99169 0.7638 0.15582 0.0
O58 O 0.98675 0.79242 0.13303 0.0
O59 O 0.0127 0.7888 0.10636 0.0
O60 O 0.96235 0.76164 0.17564 0.0
O61 O 0.02119 0.73115 0.12152 0.0
O62 O 0.98617 0.72753 0.13735 0.0
C63 C 0.99576 0.79883 0.1135 0.0
C64 C 0.04637 0.78073 0.17839 0.0
O65 O 0.02396 0.77199 0.18164 0.0
O66 O 0.05164 0.7835 0.15692 0.0
C67 C 0.95781 0.78108 0.1871 0.0
O68 O 0.97305 0.80285 0.187 0.0
C69 C 0.00115 0.71771 0.12573 0.0
Zn70 Zn 0.49011 0.78091 0.38681 0.0
Zn71 Zn 0.52462 0.78689 0.3607 0.0
O72 O 0.53115 0.8224 0.38077 0.0
O73 O 0.50026 0.81542 0.4028 0.0
O74 O 0.55456 0.78714 0.34215 0.0
O75 O 0.49856 0.7539 0.4054 0.0
O76 O 0.52866 0.75719 0.3824 0.0
C77 C 0.51905 0.82999 0.39723 0.0
C78 C 0.46991 0.77542 0.33736 0.0
O79 O 0.49279 0.78103 0.33432 0.0
O80 O 0.46399 0.77329 0.3587 0.0
C81 C 0.56214 0.80076 0.32557 0.0
O82 O 0.54954 0.8174 0.31795 0.0
C83 C 0.51752 0.74686 0.39933 0.0
Zn84 Zn 0.52159 0.27365 0.62629 0.0
Zn85 Zn 0.4896 0.26345 0.65434 0.0
O86 O 0.47998 0.29266 0.6345 0.0
O87 O 0.50831 0.29938 0.60952 0.0
O88 O 0.46151 0.25753 0.67575 0.0
O89 O 0.51452 0.23986 0.60897 0.0
O90 O 0.48572 0.22885 0.63273 0.0
C91 C 0.48895 0.30411 0.61702 0.0
C92 C 0.54535 0.27991 0.67422 0.0
O93 O 0.52306 0.27251 0.67865 0.0
O94 O 0.54957 0.28289 0.65247 0.0
C95 C 0.45854 0.27543 0.69061 0.0
O96 O 0.47479 0.29683 0.69303 0.0
C97 C 0.49752 0.22337 0.6151 0.0
Zn98 Zn 0.99318 0.29389 0.88868 0.0
Zn99 Zn 0.02406 0.29048 0.85836 0.0
O100 O 0.03324 0.32861 0.87178 0.0
O101 O 0.0041 0.3307 0.89548 0.0
O102 O 0.05149 0.28631 0.83764 0.0
O103 O 0.00453 0.27149 0.91192 0.0
O104 O 0.02816 0.26432 0.8839 0.0
C105 C 0.0226 0.34132 0.88602 0.0
C106 C 0.96847 0.27765 0.84067 0.0
O107 O 0.9905 0.28157 0.83495 0.0
O108 O 0.96505 0.28039 0.86291 0.0
C109 C 0.06156 0.30278 0.82453 0.0
O110 O 0.05304 0.32355 0.8227 0.0
C111 C 0.01994 0.2596 0.9042 0.0
Zn112 Zn 0.42838 0.05458 0.25193 0.0
Zn113 Zn 0.39821 0.08264 0.24521 0.0
O114 O 0.41688 0.09218 0.2817 0.0
O115 O 0.4464 0.07048 0.28354 0.0
O116 O 0.37464 0.10784 0.24101 0.0
O117 O 0.4443 0.05972 0.22246 0.0
O118 O 0.41898 0.08515 0.21414 0.0
C119 C 0.43572 0.08619 0.29349 0.0
C120 C 0.37918 0.02625 0.24703 0.0
O121 O 0.3741 0.04774 0.24358 0.0
O122 O 0.40147 0.02433 0.25146 0.0
C123 C 0.36133 0.11214 0.25769 0.0
O124 O 0.36319 0.10057 0.27771 0.0
C125 C 0.43639 0.07434 0.20827 0.0
Zn126 Zn 0.23925 0.18124 0.47459 0.0
Zn127 Zn 0.26616 0.14555 0.47979 0.0
O128 O 0.27943 0.16324 0.45053 0.0
O129 O 0.25567 0.19102 0.44538 0.0
O130 O 0.28705 0.11983 0.48573 0.0
O131 O 0.2548 0.19859 0.50737 0.0
O132 O 0.27403 0.16726 0.51266 0.0
C133 C 0.27297 0.18094 0.43918 0.0
C134 C 0.20965 0.1311 0.47181 0.0
O135 O 0.2306 0.12477 0.47383 0.0
O136 O 0.20841 0.15413 0.47195 0.0
C137 C 0.3103 0.12684 0.48648 0.0
O138 O 0.31956 0.1501 0.48236 0.0
C139 C 0.2689 0.18793 0.5206 0.0
Zn140 Zn 0.11099 0.0189 0.78335 0.0
Zn141 Zn 0.14798 0.99529 0.78751 0.0
O142 O 0.13006 0.98709 0.81853 0.0
O143 O 0.09949 0.00748 0.81418 0.0
O144 O 0.17435 0.974 0.78841 0.0
O145 O 0.09516 -0.00161 0.75236 0.0
O146 O 0.12753 0.98068 0.75399 0.0
C147 C 0.11096 0.99338 0.82599 0.0
C148 C 0.15819 0.05295 0.78538 0.0
O149 O 0.16661 0.03285 0.7877 0.0
O150 O 0.13508 0.05171 0.78306 0.0
C151 C 0.16721 0.95017 0.78774 0.0
O152 O 0.14361 0.9408 0.78802 0.0
C153 C 0.10683 0.98309 0.74314 0.0
Zn154 Zn 0.23802 0.85479 0.01319 0.0
Zn155 Zn 0.21136 0.88789 0.01206 0.0
O156 O 0.20638 0.86807 0.97646 0.0
O157 O 0.22649 0.83723 0.98011 0.0
O158 O 0.18374 0.9085 0.01092 0.0
O159 O 0.22741 0.83848 0.04218 0.0
O160 O 0.20816 0.87007 0.04511 0.0
C161 C 0.21321 0.84873 0.96699 0.0
C162 C 0.26596 0.90707 0.01764 0.0
O163 O 0.2448 0.91303 0.01553 0.0
O164 O 0.26745 0.88408 0.0175 0.0
C165 C 0.18391 0.92721 0.02634 0.0
O166 O 0.20285 0.93427 0.04348 0.0
C167 C 0.21484 0.85094 0.05393 0.0
Zn168 Zn 0.26736 0.37223 0.05531 0.0
Zn169 Zn 0.24442 0.40899 0.04577 0.0
O170 O 0.23993 0.38797 0.01237 0.0
O171 O 0.25664 0.35572 0.02122 0.0
O172 O 0.22437 0.43551 0.03897 0.0
O173 O 0.2476 0.36186 0.08203 0.0
O174 O 0.2263 0.3908 0.07272 0.0
C175 C 0.24553 0.36707 0.00577 0.0
C176 C 0.3006 0.42023 0.06058 0.0
O177 O 0.28085 0.42837 0.05514 0.0
O178 O 0.29946 0.39693 0.06213 0.0
C179 C 0.22619 0.44917 0.0212 0.0
O180 O 0.24301 0.44723 0.0066 0.0
C181 C 0.23006 0.37282 0.08529 0.0
Zn182 Zn 0.78536 0.21294 0.01064 0.0
Zn183 Zn 0.81013 0.17982 0.0055 0.0
O184 O 0.81212 0.20004 0.97327 0.0
O185 O 0.78997 0.2285 0.98018 0.0
O186 O 0.83643 0.15753 0.00377 0.0
O187 O 0.80239 0.23155 0.04171 0.0
O188 O 0.8201 0.19881 0.04163 0.0
C189 C 0.80278 0.21859 0.96635 0.0
C190 C 0.75525 0.1628 0.00749 0.0
O191 O 0.77541 0.15588 0.00408 0.0
O192 O 0.75522 0.18605 0.01123 0.0
C193 C 0.83363 0.13616 0.99143 0.0
O194 O 0.81227 0.12673 0.97822 0.0
C195 C 0.81623 0.21898 0.05264 0.0
Zn196 Zn 0.07651 0.52338 0.26349 0.0
Zn197 Zn 0.10186 0.48932 0.26386 0.0
O198 O 0.08224 0.4862 0.29479 0.0
O199 O 0.05739 0.51283 0.29047 0.0
O200 O 0.12046 0.46044 0.26614 0.0
O201 O 0.06184 0.51422 0.22899 0.0
O202 O 0.08235 0.48358 0.22804 0.0
C203 C 0.06512 0.4963 0.30229 0.0
C204 C 0.12807 0.54471 0.27011 0.0
O205 O 0.12966 0.52159 0.26724 0.0
O206 O 0.10709 0.55036 0.27037 0.0
C207 C 0.13329 0.4542 0.24984 0.0
O208 O 0.13457 0.46665 0.2303 0.0
C209 C 0.06776 0.49599 0.2172 0.0
Zn210 Zn 0.75545 0.85903 0.54934 0.0
Zn211 Zn 0.73416 0.89774 0.54043 0.0
O212 O 0.72729 0.87576 0.50756 0.0
O213 O 0.74295 0.84264 0.5155 0.0
O214 O 0.71585 0.9254 0.53318 0.0
O215 O 0.73531 0.85063 0.57644 0.0
O216 O 0.71642 0.88175 0.56845 0.0
C217 C 0.73161 0.85436 0.5006 0.0
C218 C 0.79044 0.90622 0.55332 0.0
O219 O 0.77113 0.91526 0.54852 0.0
O220 O 0.78846 0.88281 0.55497 0.0
C221 C 0.71909 0.93895 0.51547 0.0
O222 O 0.7363 0.93607 0.50161 0.0
C223 C 0.71912 0.8632 0.58059 0.0
Zn224 Zn 0.91668 0.03916 0.2378 0.0
Zn225 Zn 0.87993 0.06289 0.23747 0.0
O226 O 0.90047 0.07298 0.27185 0.0
O227 O 0.93276 0.05546 0.27041 0.0
O228 O 0.8549 0.08553 0.23867 0.0
O229 O 0.92851 0.05395 0.20845 0.0
O230 O 0.89697 0.07304 0.20651 0.0
C231 C 0.92099 0.06914 0.28186 0.0
C232 C 0.86864 0.00536 0.23407 0.0
O233 O 0.86038 0.02572 0.23439 0.0
O234 O 0.89168 0.0064 0.23515 0.0
C235 C 0.86381 0.10914 0.24213 0.0
O236 O 0.8879 0.11691 0.24407 0.0
C237 C 0.9162 0.06827 0.19805 0.0
Zn238 Zn 0.28102 0.70918 0.4992 0.0
Zn239 Zn 0.30434 0.67263 0.49862 0.0
O240 O 0.30747 0.68979 0.46527 0.0
O241 O 0.29092 0.72327 0.46889 0.0
O242 O 0.32793 0.6474 0.49863 0.0
O243 O 0.29691 0.72646 0.53135 0.0
O244 O 0.31403 0.69337 0.53373 0.0
C245 C 0.30186 0.70945 0.4566 0.0
C246 C 0.24903 0.65923 0.49708 0.0
O247 O 0.2691 0.65118 0.4973 0.0
O248 O 0.24959 0.6827 0.49763 0.0
C249 C 0.34332 0.64648 0.48317 0.0
O250 O 0.34426 0.66209 0.46603 0.0
C251 C 0.30998 0.71402 0.54355 0.0
Zn252 Zn 0.41096 0.53652 0.7416 0.0
Zn253 Zn 0.37589 0.56178 0.73574 0.0
O254 O 0.39329 0.57291 0.77123 0.0
O255 O 0.42503 0.55424 0.77416 0.0
O256 O 0.3532 0.58689 0.73282 0.0
O257 O 0.42696 0.54837 0.71321 0.0
O258 O 0.39713 0.56932 0.70664 0.0
C259 C 0.41281 0.56901 0.78331 0.0
C260 C 0.36171 0.5046 0.73544 0.0
O261 O 0.35433 0.5253 0.73335 0.0
O262 O 0.38465 0.50484 0.73876 0.0
C263 C 0.33454 0.58677 0.74431 0.0
O264 O 0.32758 0.56805 0.75749 0.0
C265 C 0.41684 0.56299 0.70077 0.0
Zn266 Zn 0.57404 0.0188 0.76931 0.0
Zn267 Zn 0.60308 0.98758 0.76761 0.0
O268 O 0.58598 0.98325 0.7998 0.0
O269 O 0.55722 0.00586 0.79714 0.0
O270 O 0.6245 0.96088 0.76866 0.0
O271 O 0.55824 0.00963 0.73524 0.0
O272 O 0.5823 0.98225 0.73224 0.0
C273 C 0.56804 0.99093 0.80841 0.0
C274 C 0.62529 0.04354 0.77457 0.0
O275 O 0.62862 0.02107 0.77125 0.0
O276 O 0.60367 0.04743 0.77536 0.0
C277 C 0.62478 0.94424 0.75128 0.0
O278 O 0.61032 0.94355 0.73067 0.0
C279 C 0.56581 0.9932 0.72244 0.0
Zn280 Zn 0.7407 0.68204 0.96767 0.0
Zn281 Zn 0.76888 0.64873 0.97432 0.0
O282 O 0.78194 0.66699 0.94545 0.0
O283 O 0.75409 0.68975 0.9364 0.0
O284 O 0.79165 0.62472 0.97913 0.0
O285 O 0.7571 0.70197 -0.00071 0.0
O286 O 0.77503 0.67024 0.00728 0.0
C287 C 0.77314 0.68182 0.93182 0.0
C288 C 0.71283 0.63167 0.96684 0.0
O289 O 0.7341 0.6261 0.96784 0.0
O290 O 0.71081 0.6545 0.96762 0.0
C291 C 0.79014 0.6087 0.99487 0.0
O292 O 0.77228 0.6069 0.00881 0.0
C293 C 0.77016 0.69148 0.01384 0.0
Zn294 Zn 0.92513 0.55194 0.73767 0.0
Zn295 Zn 0.89893 0.58319 0.74032 0.0
O296 O 0.92168 0.58812 0.77518 0.0
O297 O 0.94425 0.5597 0.7701 0.0
O298 O 0.87845 0.61142 0.74307 0.0
O299 O 0.94137 0.56131 0.70917 0.0
O300 O 0.91632 0.58795 0.70695 0.0
C301 C 0.93819 0.57645 0.78379 0.0
C302 C 0.87592 0.52654 0.73646 0.0
O303 O 0.87263 0.54919 0.73878 0.0
O304 O 0.89724 0.52266 0.73423 0.0
C305 C 0.85637 0.60906 0.7326 0.0
O306 O 0.84624 0.58812 0.71878 0.0
C307 C 0.93298 0.57789 0.69807 0.0
Zn308 Zn 0.73804 0.34763 0.51349 0.0
Zn309 Zn 0.70981 0.37783 0.5165 0.0
O310 O 0.70137 0.35819 0.48078 0.0
O311 O 0.72113 0.32701 0.4832 0.0
O312 O 0.68328 0.39913 0.51973 0.0
O313 O 0.73586 0.3344 0.54545 0.0
O314 O 0.70883 0.35857 0.54894 0.0
C315 C 0.70681 0.33821 0.47098 0.0
C316 C 0.76388 0.39895 0.51445 0.0
O317 O 0.74286 0.40378 0.51775 0.0
O318 O 0.76614 0.37627 0.51117 0.0
C319 C 0.6774 0.41396 0.50426 0.0
O320 O 0.68863 0.41591 0.48451 0.0
C321 C 0.72101 0.34288 0.55786 0.0
Zn322 Zn 0.60771 0.51905 0.28177 0.0
Zn323 Zn 0.64588 0.49685 0.2871 0.0
O324 O 0.62716 0.48778 0.31757 0.0
O325 O 0.59562 0.50671 0.31201 0.0
O326 O 0.67364 0.47715 0.28778 0.0
O327 O 0.59335 0.49856 0.25037 0.0
O328 O 0.62643 0.48195 0.25324 0.0
C329 C 0.60733 0.4931 0.32425 0.0
C330 C 0.65414 0.55445 0.28485 0.0
O331 O 0.66316 0.53476 0.28743 0.0
O332 O 0.63094 0.55254 0.28214 0.0
C333 C 0.67766 0.46146 0.30302 0.0
O334 O 0.66435 0.45852 0.32127 0.0
C335 C 0.60586 0.4838 0.24166 0.0
Tb336 Tb 0.01509 0.0548 -0.00016 0.0
C337 C 0.01692 0.00784 0.96447 0.0
Tb338 Tb 0.9977 0.00239 0.01623 0.0
O339 O 0.05261 0.04898 -0.00159 0.0
O340 O 0.03082 0.03024 0.0225 0.0
O341 O 0.01412 0.03158 0.96589 0.0
C342 C 0.99297 0.95722 0.0333 0.0
O343 O 0.01313 0.99334 0.98265 0.0
C344 C 0.96199 0.02601 0.00254 0.0
C345 C 0.99654 0.04949 0.05179 0.0
O346 O 0.0095 0.97708 0.04184 0.0
O347 O 0.97918 0.96257 0.01467 0.0
O348 O 0.96025 0.00882 0.01775 0.0
O349 O 0.98213 0.02697 0.99361 0.0
O350 O -0.00096 0.02567 0.05023 0.0
O351 O 0.00016 0.06396 0.03359 0.0
C352 C 0.01948 0.10018 0.98349 0.0
O353 O 0.00284 0.08042 0.97485 0.0
O354 O 0.03358 0.09455 0.00171 0.0
C355 C 0.051 0.03165 0.01348 0.0
Tb356 Tb 0.26394 0.8087 0.2627 0.0
C357 C 0.30945 0.78314 0.25051 0.0
Tb358 Tb 0.25511 0.75231 0.24774 0.0
O359 O 0.25966 0.80186 0.30087 0.0
O360 O 0.27347 0.77705 0.27822 0.0
O361 O 0.30088 0.80417 0.25438 0.0
C362 C 0.2441 0.70269 0.25117 0.0
O363 O 0.29506 0.76033 0.24885 0.0
C364 C 0.25248 0.78091 0.21161 0.0
C365 C 0.20985 0.77774 0.26058 0.0
O366 O 0.24239 0.71345 0.23093 0.0
O367 O 0.25206 0.71989 0.26932 0.0
O368 O 0.25969 0.75953 0.20969 0.0
O369 O 0.2454 0.78392 0.23232 0.0
O370 O 0.2186 0.75675 0.25737 0.0
O371 O 0.22399 0.80055 0.26116 0.0
C372 C 0.27444 0.8582 0.2587 0.0
O373 O 0.27339 0.84785 0.27919 0.0
O374 O 0.26972 0.84067 0.24062 0.0
C375 C 0.26647 0.78028 0.29892 0.0
Tb376 Tb 0.54001 0.03632 0.49793 0.0
C377 C 0.52258 0.01016 0.54449 0.0
Tb378 Tb 0.48466 0.02518 0.50357 0.0
O379 O 0.54765 0.06713 0.52737 0.0
O380 O 0.51325 0.05726 0.50625 0.0
O381 O 0.54014 0.01463 0.52984 0.0
C382 C 0.43952 0.02687 0.51489 0.0
O383 O 0.49981 0.01387 0.5385 0.0
C384 C 0.50031 0.99109 0.47696 0.0
C385 C 0.50196 0.05353 0.4586 0.0
O386 O 0.46011 0.03817 0.52784 0.0
O387 O 0.44453 0.01387 0.49614 0.0
O388 O 0.47786 0.99466 0.47385 0.0
O389 O 0.5116 0.00419 0.49592 0.0
O390 O 0.4855 0.05038 0.47444 0.0
O391 O 0.52399 0.04743 0.46295 0.0
C392 C 0.58396 0.03191 0.48472 0.0
O393 O 0.58033 0.04828 0.50152 0.0
O394 O 0.56272 0.01876 0.47481 0.0
C395 C 0.52501 0.07032 0.52508 0.0
Tb396 Tb 0.26421 0.28707 0.78911 0.0
C397 C 0.2685 0.33044 0.75247 0.0
Tb398 Tb 0.25575 0.2731 0.73393 0.0
O399 O 0.2991 0.27355 0.7918 0.0
O400 O 0.28627 0.2884 0.76031 0.0
O401 O 0.26419 0.32389 0.77469 0.0
C402 C 0.26387 0.25522 0.69019 0.0
O403 O 0.26893 0.3135 0.734 0.0
C404 C 0.21757 0.28423 0.75257 0.0
C405 C 0.2496 0.22936 0.77033 0.0
O406 O 0.24328 0.26103 0.69517 0.0
O407 O 0.27971 0.25944 0.70973 0.0
O408 O 0.22075 0.2859 0.72966 0.0
O409 O 0.23344 0.27315 0.7625 0.0
O410 O 0.25128 0.23572 0.74763 0.0
O411 O 0.25267 0.2464 0.78951 0.0
C412 C 0.25802 0.30361 0.83415 0.0
O413 O 0.27853 0.30872 0.82456 0.0
O414 O 0.24136 0.28891 0.81861 0.0
C415 C 0.30267 0.27758 0.76935 0.0
Tb416 Tb 0.99224 0.01211 0.48534 0.0
C417 C 0.95865 0.99573 0.52555 0.0
Tb418 Tb 0.01742 0.00301 0.53538 0.0
O419 O 0.97589 0.9718 0.47815 0.0
O420 O 0.00995 0.98446 0.49974 0.0
O421 O 0.96047 0.00744 0.50531 0.0
C422 C 0.03438 0.98677 0.577 0.0
O423 O 0.97804 0.99032 0.53887 0.0
C424 C 0.01745 0.04983 0.5282 0.0
C425 C 0.05099 0.01929 0.49501 0.0
O426 O 0.02916 0.00873 0.57461 0.0
O427 O 0.02969 0.97351 0.55587 0.0
O428 O 0.03479 0.04286 0.542 0.0
O429 O 0.00031 0.0311 0.52089 0.0
O430 O 0.04931 0.00776 0.5154 0.0
O431 O 0.03148 0.02415 0.48149 0.0
C432 C 0.97665 0.03254 0.44562 0.0
O433 O 0.98358 0.0444 0.46721 0.0
O434 O 0.97862 0.0092 0.44634 0.0
C435 C 0.99351 0.96532 0.49208 0.0
Tb436 Tb 0.29337 0.78478 0.77005 0.0
C437 C 0.25119 0.79399 0.80081 0.0
Tb438 Tb 0.24187 0.78182 0.74279 0.0
O439 O 0.29675 0.82459 0.7822 0.0
O440 O 0.27516 0.80885 0.74963 0.0
O441 O 0.27255 0.78634 0.80138 0.0
C442 C 0.19951 0.79164 0.72309 0.0
O443 O 0.23764 0.79589 0.77994 0.0
C444 C 0.25353 0.73806 0.74907 0.0
C445 C 0.28415 0.7734 0.71175 0.0
O446 O 0.20183 0.77729 0.74064 0.0
O447 O 0.22096 0.80019 0.71641 0.0
O448 O 0.23748 0.74164 0.73149 0.0
O449 O 0.25976 0.75786 0.76364 0.0
O450 O 0.26214 0.77946 0.7114 0.0
O451 O 0.2987 0.77309 0.73244 0.0
C452 C 0.33575 0.77483 0.7898 0.0
O453 O 0.31445 0.75955 0.78746 0.0
O454 O 0.33322 0.79591 0.78124 0.0
C455 C 0.28087 0.82844 0.76455 0.0
Tb456 Tb 0.48075 0.028 0.00288 0.0
C457 C 0.51369 0.9895 0.02113 0.0
Tb458 Tb 0.53654 0.04602 0.01613 0.0
O459 O 0.48466 0.03051 0.9641 0.0
O460 O 0.5128 0.02165 0.98797 0.0
O461 O 0.49137 0.99507 0.01851 0.0
C462 C 0.58465 0.06193 0.01262 0.0
O463 O 0.53391 0.00592 0.0181 0.0
C464 C 0.5102 0.04868 0.05289 0.0
C465 C 0.50367 0.08467 -0.00227 0.0
O466 O 0.57525 0.05686 0.03267 0.0
O467 O 0.56691 0.05831 0.9946 0.0
O468 O 0.5334 0.04745 0.0556 0.0
O469 O 0.5044 0.05209 0.03093 0.0
O470 O 0.5261 0.0795 0.00164 0.0
O471 O 0.48324 0.06783 -0.00064 0.0
C472 C 0.43257 0.01168 0.00533 0.0
O473 O 0.44363 0.00879 0.98609 0.0
O474 O 0.44865 0.02369 0.02312 0.0
C475 C 0.50703 0.0265 0.96639 0.0
Tb476 Tb 0.21318 0.26201 0.26734 0.0
C477 C 0.26335 0.27641 0.30435 0.0
Tb478 Tb 0.26071 0.28698 0.24921 0.0
O479 O 0.21675 0.2241 0.25223 0.0
O480 O 0.24741 0.25245 0.26269 0.0
O481 O 0.23876 0.27197 0.30155 0.0
C482 C 0.299 0.29339 0.22402 0.0
O483 O 0.27601 0.27983 0.28539 0.0
C484 C 0.2338 0.31851 0.26446 0.0
C485 C 0.21105 0.27094 0.21182 0.0
O486 O 0.29617 0.30891 0.242 0.0
O487 O 0.28048 0.2744 0.22046 0.0
O488 O 0.25763 0.32443 0.26478 0.0
O489 O 0.22652 0.29677 0.25355 0.0
O490 O 0.23561 0.27573 0.21501 0.0
O491 O 0.19794 0.26751 0.23048 0.0
C492 C 0.17527 0.26038 0.29325 0.0
O493 O 0.19315 0.27956 0.29298 0.0
O494 O 0.17865 0.24162 0.27884 0.0
C495 C 0.24058 0.23062 0.25206 0.0
Tb496 Tb 0.49726 0.51822 0.98327 0.0
C497 C 0.46632 0.50642 0.02673 0.0
Tb498 Tb 0.5244 0.50862 0.03278 0.0
O499 O 0.47691 0.47893 0.97824 0.0
O500 O 0.51201 0.48895 -0.00207 0.0
O501 O 0.46753 0.51679 0.00574 0.0
C502 C 0.54166 0.49199 0.07403 0.0
O503 O 0.48556 0.49992 0.0392 0.0
C504 C 0.53008 0.55561 0.02383 0.0
C505 C 0.55537 0.52044 0.98958 0.0
O506 O 0.5374 0.47914 0.05268 0.0
O507 O 0.53595 0.5138 0.07204 0.0
O508 O 0.54577 0.54727 0.03851 0.0
O509 O 0.51097 0.53862 0.01763 0.0
O510 O 0.55384 0.50887 0.00997 0.0
O511 O 0.53626 0.5277 0.97756 0.0
C512 C 0.47883 0.53752 0.94416 0.0
O513 O 0.48921 0.5181 0.9436 0.0
O514 O 0.47888 0.54611 0.9667 0.0
C515 C 0.49388 0.47107 0.99178 0.0
Tb516 Tb 0.79377 0.28698 0.27763 0.0
C517 C 0.74789 0.29031 0.30566 0.0
Tb518 Tb 0.74306 0.28223 0.24718 0.0
O519 O 0.79569 0.32637 0.2909 0.0
O520 O 0.77475 0.31088 0.25779 0.0
O521 O 0.77065 0.28582 0.30724 0.0
C522 C 0.70198 0.2907 0.22338 0.0
O523 O 0.7345 0.29107 0.28434 0.0
C524 C 0.75763 0.23968 0.25247 0.0
C525 C 0.78857 0.27751 0.21929 0.0
O526 O 0.70318 0.27231 0.23696 0.0
O527 O 0.72384 0.30427 0.22308 0.0
O528 O 0.74255 0.24319 0.23398 0.0
O529 O 0.76155 0.25878 0.26786 0.0
O530 O 0.76621 0.28287 0.21779 0.0
O531 O 0.80201 0.27686 0.2406 0.0
C532 C 0.8347 0.27697 0.30063 0.0
O533 O 0.83346 0.29731 0.28995 0.0
O534 O 0.81297 0.26247 0.29839 0.0
C535 C 0.77939 0.32988 0.27351 0.0
Tb536 Tb 0.9746 0.5216 0.4985 0.0
C537 C 0.01289 0.48936 0.51469 0.0
Tb538 Tb 0.02908 0.54703 0.50507 0.0
O539 O 0.97968 0.49541 0.46845 0.0
O540 O 0.00205 0.5315 0.47506 0.0
O541 O 0.98965 0.49185 0.51474 0.0
C542 C 0.07758 0.56092 0.50281 0.0
O543 O 0.03067 0.50775 0.50972 0.0
C544 C 0.00399 0.55844 0.54063 0.0
C545 C 0.99121 0.57819 0.48551 0.0
O546 O 0.06731 0.5585 0.52278 0.0
O547 O 0.06052 0.55559 0.48416 0.0
O548 O 0.02291 0.57363 0.5344 0.0
O549 O 0.00148 0.53722 0.5286 0.0
O550 O 0.01449 0.57567 0.48643 0.0
O551 O 0.97336 0.56047 0.49151 0.0
C552 C 0.9265 0.50898 0.50284 0.0
O553 O 0.93588 0.51028 0.48232 0.0
O554 O 0.94422 0.51457 0.52087 0.0
C555 C -0.00105 0.51044 0.46263 0.0
Tb556 Tb 0.76248 0.78832 0.28583 0.0
C557 C 0.77373 0.83031 0.24906 0.0
Tb558 Tb 0.75438 0.7725 0.22854 0.0
O559 O 0.80223 0.78562 0.29152 0.0
O560 O 0.78079 0.77563 0.25863 0.0
O561 O 0.76829 0.82508 0.27132 0.0
C562 C 0.7633 0.76073 0.18342 0.0
O563 O 0.77132 0.8127 0.23031 0.0
C564 C 0.71506 0.77763 0.24924 0.0
C565 C 0.74496 0.73028 0.26529 0.0
O566 O 0.77575 0.75627 0.20328 0.0
O567 O 0.74555 0.77173 0.18885 0.0
O568 O 0.71428 0.76305 0.22923 0.0
O569 O 0.73679 0.79015 0.25502 0.0
O570 O 0.74916 0.73563 0.24274 0.0
O571 O 0.74738 0.74779 0.28407 0.0
C572 C 0.75089 0.80098 0.3297 0.0
O573 O 0.73698 0.78441 0.31333 0.0
O574 O 0.77159 0.81004 0.32158 0.0
C575 C 0.80252 0.77821 0.26856 0.0
Tb576 Tb 0.76436 0.3123 0.76616 0.0
C577 C 0.80426 0.27988 0.75868 0.0
Tb578 Tb 0.74806 0.25468 0.76153 0.0
O579 O 0.78779 0.3117 0.80067 0.0
O580 O 0.75605 0.28393 0.79032 0.0
O581 O 0.79822 0.30212 0.75648 0.0
C582 C 0.74018 0.20579 0.76842 0.0
O583 O 0.78809 0.25945 0.76238 0.0
C584 C 0.73604 0.27582 0.72204 0.0
C585 C 0.70787 0.28668 0.76784 0.0
O586 O 0.74379 0.21508 0.74777 0.0
O587 O 0.74109 0.22406 0.78517 0.0
O588 O 0.72454 0.25397 0.72705 0.0
O589 O 0.75544 0.28304 0.73713 0.0
O590 O 0.71431 0.26483 0.77143 0.0
O591 O 0.724 0.30703 0.76364 0.0
C592 C 0.7732 0.36118 0.75872 0.0
O593 O 0.76566 0.35206 0.77838 0.0
O594 O 0.77596 0.34286 0.74362 0.0
C595 C 0.77516 0.29036 0.8057 0.0
Tb596 Tb 0.72069 0.76975 0.77218 0.0
C597 C 0.77396 0.77833 0.80003 0.0
Tb598 Tb 0.76496 0.78681 0.74447 0.0
O599 O 0.73149 0.73359 0.77875 0.0
O600 O 0.7416 0.7521 0.74875 0.0
O601 O 0.75076 0.77989 0.80199 0.0
C602 C 0.80529 0.79162 0.72225 0.0
O603 O 0.78271 0.77763 0.7787 0.0
C604 C 0.74077 0.8224 0.75466 0.0
C605 C 0.71239 0.77477 0.71547 0.0
O606 O 0.78382 0.77829 0.71337 0.0
O607 O 0.80414 0.80241 0.74372 0.0
O608 O 0.75496 0.82291 0.7375 0.0
O609 O 0.7438 0.80456 0.76737 0.0
O610 O 0.73577 0.77324 0.71464 0.0
O611 O 0.70295 0.77646 0.73649 0.0
C612 C 0.68239 0.7694 0.7975 0.0
O613 O 0.68287 0.75334 0.77898 0.0
O614 O 0.70337 0.78522 0.8017 0.0
C615 C 0.74497 0.73399 0.76088 0.0
Tb616 Tb 0.5207 0.55094 0.50434 0.0
C617 C 0.51303 0.50472 0.46264 0.0
Tb618 Tb 0.49281 0.49919 0.51335 0.0
O619 O 0.55514 0.54557 0.52508 0.0
O620 O 0.5293 0.5152 0.50784 0.0
O621 O 0.51721 0.52956 0.46822 0.0
C622 C 0.48272 0.45693 0.53524 0.0
O623 O 0.50552 0.48861 0.47867 0.0
C624 C 0.46493 0.52928 0.49504 0.0
C625 C 0.50147 0.5451 0.55541 0.0
O626 O 0.46807 0.46343 0.51796 0.0
O627 O 0.50296 0.47386 0.53962 0.0
O628 O 0.45899 0.50478 0.49152 0.0
O629 O 0.4843 0.53499 0.50998 0.0
O630 O 0.49708 0.52031 0.54961 0.0
O631 O 0.5086 0.56132 0.53936 0.0
C632 C 0.52907 0.59295 0.4819 0.0
O633 O 0.54332 0.58814 0.50051 0.0
O634 O 0.51024 0.57443 0.47646 0.0
C635 C 0.54911 0.52103 0.52216 0.0
Tb636 Tb 0.03718 0.53852 0.99423 0.0
C637 C 0.02064 0.50756 0.03986 0.0
Tb638 Tb 0.98247 0.52493 0.00248 0.0
O639 O 0.03886 0.57827 0.00581 0.0
O640 O 0.01483 0.54952 0.01963 0.0
O641 O 0.03791 0.51539 0.02555 0.0
C642 C 0.93772 0.53065 0.01168 0.0
O643 O 0.99764 0.51099 0.03549 0.0
C644 C -0.00116 0.49037 0.97782 0.0
C645 C -0.00137 0.5562 0.95722 0.0
O646 O 0.95847 0.54512 0.02105 0.0
O647 O 0.94211 0.51262 -0.00287 0.0
O648 O 0.98084 0.4852 0.99111 0.0
O649 O 0.00484 0.51383 0.97712 0.0
O650 O 0.98186 0.54927 0.97228 0.0
O651 O 0.02144 0.55183 0.96082 0.0
C652 C 0.08211 0.5311 0.98696 0.0
O653 O 0.06133 0.5158 0.97926 0.0
O654 O 0.07762 0.55114 -0.00158 0.0
C655 C 0.02082 0.57299 0.01905 0.0
C656 C 0.0185 0.2358 0.94111 0.0
C657 C 0.0263 0.23886 0.91794 0.0
C658 C 0.02043 0.21422 0.95293 0.0
C659 C 0.03057 0.19526 0.9414 0.0
C660 C 0.04009 0.19898 0.91883 0.0
C661 C 0.03782 0.2208 0.9073 0.0
C662 C 0.01006 0.21099 0.97699 0.0
C663 C 0.05133 0.17927 0.90618 0.0
C664 C 0.04386 0.14328 0.98013 0.0
C665 C 0.02257 0.12457 0.97304 0.0
C666 C 0.04715 0.16623 0.96949 0.0
C667 C 0.02851 0.17052 0.95166 0.0
C668 C 0.00697 0.1516 0.94452 0.0
C669 C 0.00434 0.12879 0.95521 0.0
C670 C 0.0704 0.18593 0.9774 0.0
C671 C 0.98648 0.15558 0.92584 0.0
H672 H 0.00988 0.24982 0.94965 0.0
H673 H 0.044 0.2231 0.88948 0.0
H674 H 0.99326 0.19572 0.97424 0.0
H675 H 0.02358 0.20535 0.99066 0.0
H676 H 0.00504 0.22848 0.98467 0.0
H677 H 0.06087 0.18643 0.89063 0.0
H678 H 0.06471 0.17273 0.91931 0.0
H679 H 0.03659 0.16267 0.89904 0.0
H680 H 0.05804 0.13988 0.99382 0.0
H681 H 0.98788 0.11428 0.94973 0.0
H682 H 0.06572 0.20308 0.98618 0.0
H683 H 0.07961 0.19153 0.9612 0.0
H684 H 0.08366 0.17915 0.99053 0.0
H685 H 0.97891 0.17188 0.9325 0.0
H686 H 0.97113 0.13878 0.92205 0.0
H687 H 0.99382 0.16003 0.9084 0.0
C688 C 0.09079 0.79655 0.19356 0.0
C689 C 0.06728 0.78457 0.19839 0.0
C690 C 0.11214 0.79538 0.20893 0.0
C691 C 0.11006 0.78255 0.23029 0.0
C692 C 0.08629 0.77249 0.23662 0.0
C693 C 0.06509 0.77336 0.22041 0.0
C694 C 0.13701 0.80634 0.20125 0.0
C695 C 0.08322 0.75955 0.2597 0.0
C696 C 0.16696 0.75546 0.24427 0.0
C697 C 0.18277 0.7758 0.2586 0.0
C698 C 0.14226 0.75634 0.23669 0.0
C699 C 0.13301 0.77782 0.24413 0.0
C700 C 0.14811 0.797 0.26098 0.0
C701 C 0.17297 0.79599 0.26768 0.0
C702 C 0.12694 0.73552 0.21859 0.0
C703 C 0.13866 0.81962 0.27029 0.0
H704 H 0.0927 0.80568 0.17682 0.0
H705 H 0.04704 0.76415 0.22438 0.0
H706 H 0.14829 0.81995 0.21605 0.0
H707 H 0.14723 0.79108 0.19785 0.0
H708 H 0.13536 0.81615 0.18435 0.0
H709 H 0.06452 0.75894 0.26524 0.0
H710 H 0.08572 0.73988 0.25652 0.0
H711 H 0.09725 0.76919 0.27503 0.0
H712 H 0.17437 0.73978 0.23719 0.0
H713 H 0.18502 0.81161 0.27909 0.0
H714 H 0.12463 0.74265 0.20029 0.0
H715 H 0.10827 0.72941 0.22407 0.0
H716 H 0.13567 0.71887 0.21689 0.0
H717 H 0.13906 0.83314 0.25613 0.0
H718 H 0.1502 0.82948 0.28722 0.0
H719 H 0.11926 0.81402 0.27411 0.0
C720 C 0.51598 0.86014 0.4319 0.0
C721 C 0.52553 0.85579 0.40983 0.0
C722 C 0.51693 0.88454 0.44226 0.0
C723 C 0.52822 0.9053 0.43057 0.0
C724 C 0.54006 0.90114 0.40958 0.0
C725 C 0.53843 0.87628 0.39926 0.0
C726 C 0.50406 0.88795 0.46469 0.0
C727 C 0.55315 0.92289 0.39725 0.0
C728 C 0.49564 0.95885 0.44158 0.0
C729 C 0.50969 0.97167 0.46295 0.0
C730 C 0.50274 0.93839 0.42947 0.0
C731 C 0.52456 0.93076 0.4389 0.0
C732 C 0.53982 0.94492 0.45939 0.0
C733 C 0.53199 0.96501 0.47144 0.0
C734 C 0.48577 0.92367 0.40782 0.0
C735 C 0.56346 0.93776 0.46969 0.0
H736 H 0.50651 0.84436 0.44054 0.0
H737 H 0.54608 0.87301 0.38235 0.0
H738 H 0.51671 0.90069 0.47927 0.0
H739 H 0.48802 0.89677 0.45993 0.0
H740 H 0.49731 0.86981 0.47225 0.0
H741 H 0.56557 0.91677 0.38463 0.0
H742 H 0.5393 0.93123 0.38646 0.0
H743 H 0.56412 0.93789 0.41103 0.0
H744 H 0.47851 0.96416 0.43488 0.0
H745 H 0.54284 0.97479 0.48808 0.0
H746 H 0.47685 0.90507 0.41317 0.0
H747 H 0.49638 0.92012 0.3925 0.0
H748 H 0.47106 0.9336 0.40115 0.0
H749 H 0.55908 0.92147 0.48062 0.0
H750 H 0.57569 0.9535 0.48183 0.0
H751 H 0.57363 0.932 0.45475 0.0
C752 C 0.43446 0.29221 0.72155 0.0
C753 C 0.43615 0.2732 0.70357 0.0
C754 C 0.41289 0.29157 0.73281 0.0
C755 C 0.39226 0.2715 0.72589 0.0
C756 C 0.39395 0.25199 0.70806 0.0
C757 C 0.41589 0.25298 0.69723 0.0
C758 C 0.41197 0.31275 0.75174 0.0
C759 C 0.37235 0.23035 0.70004 0.0
C760 C 0.34239 0.26223 0.76885 0.0
C761 C 0.32518 0.27509 0.75797 0.0
C762 C 0.36409 0.26046 0.75841 0.0
C763 C 0.36864 0.27174 0.73649 0.0
C764 C 0.35107 0.28441 0.72527 0.0
C765 C 0.32978 0.28617 0.73628 0.0
C766 C 0.38235 0.24691 0.77104 0.0
C767 C 0.35496 0.29652 0.70181 0.0
H768 H 0.44998 0.30787 0.72668 0.0
H769 H 0.41693 0.23823 0.68332 0.0
H770 H 0.39773 0.32317 0.745 0.0
H771 H 0.40663 0.30504 0.76892 0.0
H772 H 0.42996 0.32628 0.75603 0.0
H773 H 0.37639 0.21691 0.68566 0.0
H774 H 0.36735 0.21999 0.71598 0.0
H775 H 0.35597 0.23762 0.69284 0.0
H776 H 0.33898 0.2537 0.78566 0.0
H777 H 0.31681 0.29655 0.72798 0.0
H778 H 0.4002 0.26029 0.7768 0.0
H779 H 0.38599 0.23183 0.75817 0.0
H780 H 0.37573 0.23838 0.78744 0.0
H781 H 0.37141 0.31217 0.70508 0.0
H782 H 0.33878 0.30411 0.69453 0.0
H783 H 0.35854 0.28263 0.68762 0.0
C784 C 0.98697 0.84611 0.56681 0.0
C785 C 0.991 0.82461 0.55352 0.0
C786 C 0.98707 0.86863 0.55592 0.0
C787 C 0.99115 0.8696 0.5311 0.0
C788 C 0.99507 0.84796 0.51752 0.0
C789 C 0.99501 0.8257 0.52892 0.0
C790 C 0.98307 0.89144 0.57104 0.0
C791 C -0.00055 0.84839 0.49099 0.0
C792 C 0.97079 0.92249 0.49838 0.0
C793 C 0.99303 0.94018 0.50036 0.0
C794 C 0.96994 0.89915 0.50795 0.0
C795 C 0.9919 0.89353 0.5196 0.0
C796 C 0.01451 0.91116 0.52107 0.0
C797 C 0.0148 0.93426 0.51127 0.0
C798 C 0.94548 0.88083 0.50619 0.0
C799 C 0.03829 0.90587 0.53344 0.0
H800 H 0.98392 0.84544 0.58585 0.0
H801 H 0.99807 0.80915 0.51853 0.0
H802 H -0.00066 0.90711 0.57182 0.0
H803 H 0.96687 0.89805 0.56235 0.0
H804 H 0.98 0.88748 0.59007 0.0
H805 H 0.00168 0.8298 0.48286 0.0
H806 H 0.98377 0.85398 0.48011 0.0
H807 H 0.0163 0.86264 0.48936 0.0
H808 H 0.95395 0.92717 0.48995 0.0
H809 H 0.03207 0.94788 0.51242 0.0
H810 H 0.94044 0.87788 0.52484 0.0
H811 H 0.94692 0.86226 0.49742 0.0
H812 H 0.93035 0.8876 0.49554 0.0
H813 H 0.0364 0.90239 0.55279 0.0
H814 H 0.05425 0.92169 0.53314 0.0
H815 H 0.04232 0.88857 0.52425 0.0
C816 C 0.45538 0.75497 0.87575 0.0
C817 C 0.44786 0.75637 0.89921 0.0
C818 C 0.43882 0.75555 0.85481 0.0
C819 C 0.41439 0.75795 0.85753 0.0
C820 C 0.40649 0.75847 0.88107 0.0
C821 C 0.42328 0.75752 0.90159 0.0
C822 C 0.44765 0.75435 0.8299 0.0
C823 C 0.38055 0.7611 0.88473 0.0
C824 C 0.37693 0.7904 0.81383 0.0
C825 C 0.35831 0.77013 0.80332 0.0
C826 C 0.39637 0.78651 0.83048 0.0
C827 C 0.39731 0.76169 0.83622 0.0
C828 C 0.37968 0.74098 0.82392 0.0
C829 C 0.36014 0.7455 0.80779 0.0
C830 C 0.41468 0.8091 0.84339 0.0
C831 C 0.38044 0.71421 0.82901 0.0
H832 H 0.47431 0.75386 0.87375 0.0
H833 H 0.41728 0.75851 0.91962 0.0
H834 H 0.43446 0.74009 0.817 0.0
H835 H 0.44853 0.77282 0.82232 0.0
H836 H 0.46624 0.74963 0.83066 0.0
H837 H 0.37719 0.76053 0.90419 0.0
H838 H 0.37719 0.77923 0.87849 0.0
H839 H 0.36689 0.74577 0.87355 0.0
H840 H 0.37547 0.80945 0.81026 0.0
H841 H 0.34585 0.72983 0.79928 0.0
H842 H 0.43385 0.80633 0.84299 0.0
H843 H 0.41163 0.81139 0.86291 0.0
H844 H 0.41291 0.82678 0.83507 0.0
H845 H 0.39964 0.71113 0.83043 0.0
H846 H 0.36882 0.70035 0.81453 0.0
H847 H 0.37344 0.7105 0.84676 0.0
C848 C 0.48554 0.18566 0.08069 0.0
C849 C 0.48683 0.21104 0.07686 0.0
C850 C 0.48713 0.16801 0.06153 0.0
C851 C 0.49024 0.176 0.03794 0.0
C852 C 0.49047 0.20135 0.03364 0.0
C853 C 0.48881 0.21864 0.05322 0.0
C854 C 0.48639 0.14098 0.06685 0.0
C855 C 0.4935 0.21054 0.00874 0.0
C856 C 0.52215 0.13022 0.00765 0.0
C857 C 0.50161 0.11135 -0.00183 0.0
C858 C 0.51896 0.15341 0.0181 0.0
C859 C 0.49475 0.1577 0.01863 0.0
C860 C 0.4745 0.14056 0.00516 0.0
C861 C 0.47817 0.11741 0.99506 0.0
C862 C 0.54114 0.17164 0.03162 0.0
C863 C 0.44854 0.14502 0.0044 0.0
H864 H 0.48378 0.17961 0.09884 0.0
H865 H 0.48975 0.23825 0.05008 0.0
H866 H 0.47269 0.12788 0.05337 0.0
H867 H 0.50473 0.1363 0.06531 0.0
H868 H 0.4815 0.13753 0.08547 0.0
H869 H 0.4868 0.22835 0.00683 0.0
H870 H 0.51335 0.21422 0.00626 0.0
H871 H 0.48348 0.19623 0.99384 0.0
H872 H 0.54045 0.12597 0.00954 0.0
H873 H 0.46228 0.10317 0.98699 0.0
H874 H 0.54177 0.16958 0.05154 0.0
H875 H 0.5399 0.19138 0.02886 0.0
H876 H 0.55867 0.16805 0.02562 0.0
H877 H 0.4412 0.13982 0.02167 0.0
H878 H 0.43609 0.13342 0.98886 0.0
H879 H 0.44818 0.16518 0.00282 0.0
C880 C 0.05762 0.27148 0.36174 0.0
C881 C 0.06247 0.26803 0.38663 0.0
C882 C 0.07488 0.26881 0.34548 0.0
C883 C 0.09756 0.26262 0.35434 0.0
C884 C 0.10243 0.25876 0.37935 0.0
C885 C 0.08482 0.26149 0.39519 0.0
C886 C 0.06904 0.27309 0.31893 0.0
C887 C 0.12646 0.25224 0.38949 0.0
C888 C 0.13721 0.23861 0.30962 0.0
C889 C 0.15476 0.26055 0.30803 0.0
C890 C 0.11824 0.23898 0.32447 0.0
C891 C 0.11689 0.26183 0.33785 0.0
C892 C 0.1344 0.28407 0.3359 0.0
C893 C 0.15313 0.28313 0.32106 0.0
C894 C 0.09983 0.21492 0.32608 0.0
C895 C 0.13356 0.30885 0.34974 0.0
H896 H 0.04034 0.27639 0.35492 0.0
H897 H 0.0887 0.25868 0.41436 0.0
H898 H 0.08234 0.28965 0.31439 0.0
H899 H 0.07106 0.25658 0.30688 0.0
H900 H 0.05004 0.27642 0.31467 0.0
H901 H 0.1269 0.24862 0.40909 0.0
H902 H 0.12953 0.23528 0.37883 0.0
H903 H 0.14206 0.26794 0.38771 0.0
H904 H 0.13848 0.22116 0.29951 0.0
H905 H 0.16663 0.30017 0.31975 0.0
H906 H 0.08078 0.21768 0.3209 0.0
H907 H 0.10098 0.20986 0.34524 0.0
H908 H 0.10301 0.19891 0.31402 0.0
H909 H 0.11533 0.31381 0.34503 0.0
H910 H 0.14818 0.32455 0.34568 0.0
H911 H 0.13586 0.30711 0.36974 0.0
C912 C 0.91014 0.06766 0.15287 0.0
C913 C 0.92404 0.07769 0.17528 0.0
C914 C 0.9212 0.06842 0.13113 0.0
C915 C 0.94656 0.07969 0.13206 0.0
C916 C 0.95962 0.09264 0.15422 0.0
C917 C 0.94828 0.09113 0.1757 0.0
C918 C 0.90656 0.05471 0.10778 0.0
C919 C 0.98638 0.10567 0.15582 0.0
C920 C 0.98368 0.04469 0.0934 0.0
C921 C 0.98619 0.05903 0.07337 0.0
C922 C 0.97095 0.05143 0.11255 0.0
C923 C 0.96059 0.07323 0.11185 0.0
C924 C 0.96369 0.0883 0.09207 0.0
C925 C 0.97636 0.08095 0.07298 0.0
C926 C 0.96809 0.03476 0.13329 0.0
C927 C 0.95301 0.11168 0.09059 0.0
H928 H 0.89145 0.05702 0.15268 0.0
H929 H 0.959 0.0988 0.19315 0.0
H930 H 0.90954 0.06637 0.09227 0.0
H931 H 0.91301 0.03702 0.10347 0.0
H932 H 0.88647 0.04988 0.10925 0.0
H933 H 0.99234 0.11876 0.17276 0.0
H934 H 0.99809 0.09133 0.15593 0.0
H935 H 0.98966 0.11638 0.13969 0.0
H936 H 0.99116 0.02774 0.09388 0.0
H937 H 0.97787 0.09198 0.0574 0.0
H938 H 0.94821 0.02767 0.13457 0.0
H939 H 0.97637 0.04576 0.15095 0.0
H940 H 0.97701 0.01832 0.1309 0.0
H941 H 0.93287 0.10614 0.08457 0.0
H942 H 0.96146 0.12403 0.07725 0.0
H943 H 0.95563 0.12268 0.10876 0.0
C944 C 0.31592 0.73888 0.42623 0.0
C945 C 0.30432 0.71476 0.43103 0.0
C946 C 0.31219 0.74726 0.40288 0.0
C947 C 0.29567 0.73147 0.38414 0.0
C948 C 0.28516 0.70646 0.38848 0.0
C949 C 0.28983 0.69831 0.41188 0.0
C950 C 0.32449 0.77372 0.39885 0.0
C951 C 0.26721 0.6891 0.36917 0.0
C952 C 0.26078 0.76758 0.34086 0.0
C953 C 0.27275 0.76626 0.31993 0.0
C954 C 0.26744 0.75544 0.36146 0.0
C955 C 0.28707 0.74227 0.36138 0.0
C956 C 0.29902 0.74063 0.34009 0.0
C957 C 0.29151 0.7524 0.31951 0.0
C958 C 0.25374 0.75713 0.3835 0.0
C959 C 0.32041 0.72741 0.33938 0.0
H960 H 0.32686 0.7517 0.44115 0.0
H961 H 0.28039 0.67985 0.41575 0.0
H962 H 0.33224 0.77391 0.38113 0.0
H963 H 0.31061 0.78585 0.39805 0.0
H964 H 0.33955 0.78207 0.41377 0.0
H965 H 0.2633 0.66937 0.37413 0.0
H966 H 0.24955 0.69576 0.36695 0.0
H967 H 0.27438 0.68931 0.35118 0.0
H968 H 0.24619 0.77817 0.34113 0.0
H969 H 0.30095 0.75151 0.30337 0.0
H970 H 0.2664 0.76814 0.39917 0.0
H971 H 0.24704 0.73802 0.38907 0.0
H972 H 0.2377 0.76629 0.37992 0.0
H973 H 0.31586 0.70853 0.34614 0.0
H974 H 0.3366 0.7385 0.35168 0.0
H975 H 0.32575 0.72521 0.32064 0.0
C976 C 0.54517 0.00756 0.68528 0.0
C977 C 0.55741 0.98977 0.6956 0.0
C978 C 0.53933 0.00724 0.65993 0.0
C979 C 0.54515 0.98816 0.64417 0.0
C980 C 0.55643 0.96934 0.65436 0.0
C981 C 0.5628 0.97058 0.67999 0.0
C982 C 0.52784 0.02807 0.65 0.0
C983 C 0.5622 0.94824 0.6382 0.0
C984 C 0.511 0.98646 0.5804 0.0
C985 C 0.52899 0.00125 0.56868 0.0
C986 C 0.51664 0.97996 0.6043 0.0
C987 C 0.54057 0.98931 0.61711 0.0
C988 C 0.55904 0.0034 0.60492 0.0
C989 C 0.55311 0.00887 0.58076 0.0
C990 C 0.49665 0.96416 0.61627 0.0
C991 C 0.58457 0.01441 0.61799 0.0
H992 H 0.54094 0.0226 0.697 0.0
H993 H 0.57218 0.95672 0.68774 0.0
H994 H 0.54005 0.03862 0.63795 0.0
H995 H 0.50991 0.01999 0.63875 0.0
H996 H 0.52464 0.04162 0.66477 0.0
H997 H 0.56765 0.93326 0.64895 0.0
H998 H 0.54596 0.93971 0.62462 0.0
H999 H 0.57756 0.9558 0.62782 0.0
H1000 H 0.4924 0.98022 0.57101 0.0
H1001 H 0.56708 0.02039 0.57183 0.0
H1002 H 0.48976 0.97635 0.62976 0.0
H1003 H 0.50405 0.94975 0.62634 0.0
H1004 H 0.48079 0.95454 0.60267 0.0
H1005 H 0.58342 0.02928 0.63245 0.0
H1006 H 0.59743 0.02287 0.60535 0.0
H1007 H 0.59245 -0.00025 0.62714 0.0
C1008 C 0.23628 0.37221 0.96117 0.0
C1009 C 0.2414 0.35697 0.97973 0.0
C1010 C 0.23631 0.36399 0.93645 0.0
C1011 C 0.24154 0.34001 0.93031 0.0
C1012 C 0.2452 0.32399 0.94886 0.0
C1013 C 0.24508 0.33266 0.97333 0.0
C1014 C 0.23209 0.38146 0.91707 0.0
C1015 C 0.2506 0.29819 0.94301 0.0
C1016 C 0.22992 0.30856 0.8654 0.0
C1017 C 0.25372 0.3137 0.85836 0.0
C1018 C 0.22541 0.31785 0.88846 0.0
C1019 C 0.24527 0.33232 0.90488 0.0
C1020 C 0.26926 0.33792 0.89764 0.0
C1021 C 0.27318 0.32859 0.87436 0.0
C1022 C 0.19956 0.31173 0.89544 0.0
C1023 C 0.29092 0.35321 0.91473 0.0
H1024 H 0.23338 0.391 0.96598 0.0
H1025 H 0.24876 0.32065 0.98756 0.0
H1026 H 0.24967 0.38834 0.90962 0.0
H1027 H 0.21857 0.37131 0.90159 0.0
H1028 H 0.22528 0.39803 0.92443 0.0
H1029 H 0.25113 0.28734 0.95932 0.0
H1030 H 0.23644 0.28716 0.92851 0.0
H1031 H 0.26872 0.30016 0.9359 0.0
H1032 H 0.21482 0.29714 0.8529 0.0
H1033 H 0.29154 0.33264 0.86882 0.0
H1034 H 0.19381 0.32925 0.90185 0.0
H1035 H 0.19911 0.29965 0.91084 0.0
H1036 H 0.18589 0.30176 0.87994 0.0
H1037 H 0.28677 0.37153 0.92123 0.0
H1038 H 0.30811 0.3569 0.90587 0.0
H1039 H 0.29429 0.34303 0.93109 0.0
C1040 C 0.95482 0.08002 0.31635 0.0
C1041 C 0.92964 0.07703 0.30798 0.0
C1042 C 0.96285 0.07927 0.34117 0.0
C1043 C 0.94519 0.07508 0.35783 0.0
C1044 C 0.92016 0.07537 0.34997 0.0
C1045 C 0.91264 0.07646 0.325 0.0
C1046 C 0.98982 0.07975 0.34888 0.0
C1047 C 0.90085 0.07144 0.3673 0.0
C1048 C 0.95839 0.02811 0.40217 0.0
C1049 C 0.96781 0.04367 0.42373 0.0
C1050 C 0.9503 0.03818 0.38089 0.0
C1051 C 0.95185 0.06456 0.38115 0.0
C1052 C 0.96096 0.08038 0.40306 0.0
C1053 C 0.96885 0.06969 0.42419 0.0
C1054 C 0.94058 0.02056 0.35795 0.0
C1055 C 0.96309 0.10855 0.40406 0.0
H1056 H 0.96805 0.08093 0.30321 0.0
H1057 H 0.89316 0.07431 0.31858 0.0
H1058 H 0.99622 0.09077 0.36691 0.0
H1059 H 0.99239 0.06021 0.35073 0.0
H1060 H 0.00161 0.08793 0.33523 0.0
H1061 H 0.88376 0.07747 0.35997 0.0
H1062 H 0.89599 0.05112 0.37004 0.0
H1063 H 0.90797 0.08194 0.38547 0.0
H1064 H 0.95747 0.00798 0.40189 0.0
H1065 H 0.97619 0.08173 0.44094 0.0
H1066 H 0.95272 0.02519 0.34352 0.0
H1067 H 0.92184 0.02291 0.35079 0.0
H1068 H 0.93961 0.00047 0.36118 0.0
H1069 H 0.97885 0.11691 0.39451 0.0
H1070 H 0.96627 0.11749 0.4232 0.0
H1071 H 0.94621 0.11325 0.39454 0.0
C1072 C 0.32179 0.74771 0.57814 0.0
C1073 C 0.31649 0.72193 0.57011 0.0
C1074 C 0.32066 0.75613 0.60258 0.0
C1075 C 0.31353 0.73835 0.61936 0.0
C1076 C 0.31012 0.71224 0.61184 0.0
C1077 C 0.31184 0.70433 0.58729 0.0
C1078 C 0.32503 0.78411 0.60984 0.0
C1079 C 0.3024 0.69262 0.62905 0.0
C1080 C 0.31631 0.76151 0.6869 0.0
C1081 C 0.29214 0.76514 0.68811 0.0
C1082 C 0.32361 0.75268 0.66476 0.0
C1083 C 0.30627 0.74704 0.64335 0.0
C1084 C 0.28182 0.75048 0.64453 0.0
C1085 C 0.27512 0.7596 0.66677 0.0
C1086 C 0.3499 0.74956 0.66424 0.0
C1087 C 0.2626 0.74448 0.62224 0.0
H1088 H 0.32536 0.76138 0.5649 0.0
H1089 H 0.30738 0.68439 0.58111 0.0
H1090 H 0.30709 0.78959 0.61172 0.0
H1091 H 0.33666 0.78911 0.62783 0.0
H1092 H 0.3341 0.79532 0.59604 0.0
H1093 H 0.3042 0.67356 0.62179 0.0
H1094 H 0.31357 0.69754 0.64728 0.0
H1095 H 0.28281 0.69191 0.63176 0.0
H1096 H 0.32962 0.76562 0.70327 0.0
H1097 H 0.25633 0.762 0.66746 0.0
H1098 H 0.35876 0.76167 0.65097 0.0
H1099 H 0.35018 0.72979 0.65793 0.0
H1100 H 0.36111 0.75455 0.68248 0.0
H1101 H 0.26845 0.75666 0.60775 0.0
H1102 H 0.24419 0.74729 0.6264 0.0
H1103 H 0.26079 0.72463 0.61469 0.0
C1104 C 0.53844 0.97725 0.83779 0.0
C1105 C 0.56265 0.98703 0.83355 0.0
C1106 C 0.53114 0.98034 0.86122 0.0
C1107 C 0.54819 0.99459 0.88053 0.0
C1108 C 0.57309 0.00317 0.87662 0.0
C1109 C 0.58009 -0.00105 0.85319 0.0
C1110 C 0.50466 0.97004 0.86479 0.0
C1111 C 0.59173 0.019 0.89642 0.0
C1112 C 0.51853 0.03273 0.92466 0.0
C1113 C 0.51932 0.01942 0.94538 0.0
C1114 C 0.52878 0.02536 0.90384 0.0
C1115 C 0.53914 0.0035 0.9034 0.0
C1116 C 0.54 0.98999 0.92441 0.0
C1117 C 0.53047 -0.00158 0.94536 0.0
C1118 C 0.52819 0.04081 0.88217 0.0
C1119 C 0.55004 0.96614 0.92442 0.0
H1120 H 0.5249 0.96833 0.82248 0.0
H1121 H 0.59868 0.00706 0.84972 0.0
H1122 H 0.50373 0.96129 0.88233 0.0
H1123 H 0.49452 0.98566 0.86562 0.0
H1124 H 0.49511 0.95581 0.84958 0.0
H1125 H 0.61088 0.02122 0.89165 0.0
H1126 H 0.58736 0.038 0.89911 0.0
H1127 H 0.59088 0.01062 0.91413 0.0
H1128 H 0.50994 0.04899 0.92479 0.0
H1129 H 0.53077 0.98794 0.96136 0.0
H1130 H 0.51589 0.02957 0.86639 0.0
H1131 H 0.54693 0.04588 0.87648 0.0
H1132 H 0.52147 0.05841 0.88624 0.0
H1133 H 0.53856 0.95169 0.91041 0.0
H1134 H 0.55019 0.95834 0.94251 0.0
H1135 H 0.56909 0.96968 0.91941 0.0
C1136 C 0.223 0.36761 0.12797 0.0
C1137 C 0.21376 0.36334 0.10315 0.0
C1138 C 0.21333 0.35134 0.1447 0.0
C1139 C 0.19431 0.33008 0.1361 0.0
C1140 C 0.18279 0.32772 0.11165 0.0
C1141 C 0.19284 0.34439 0.09529 0.0
C1142 C 0.22573 0.35506 0.17083 0.0
C1143 C 0.16185 0.30599 0.10198 0.0
C1144 C 0.21159 0.27619 0.16775 0.0
C1145 C 0.19942 0.27748 0.18854 0.0
C1146 C 0.2078 0.29132 0.1488 0.0
C1147 C 0.19136 0.30805 0.15079 0.0
C1148 C 0.17634 0.3066 0.16998 0.0
C1149 C 0.18054 0.29122 0.18875 0.0
C1150 C 0.22382 0.29171 0.12833 0.0
C1151 C 0.15787 0.32328 0.17225 0.0
H1152 H 0.23931 0.38223 0.13387 0.0
H1153 H 0.18586 0.34104 0.07596 0.0
H1154 H 0.21179 0.35249 0.18385 0.0
H1155 H 0.23729 0.34078 0.17366 0.0
H1156 H 0.23775 0.37409 0.17532 0.0
H1157 H 0.1503 0.3109 0.08606 0.0
H1158 H 0.1695 0.28959 0.09577 0.0
H1159 H 0.14998 0.30021 0.11635 0.0
H1160 H 0.22592 0.26526 0.16743 0.0
H1161 H 0.17088 0.29214 0.20473 0.0
H1162 H 0.23799 0.30948 0.1308 0.0
H1163 H 0.21261 0.29107 0.11034 0.0
H1164 H 0.23344 0.27563 0.12793 0.0
H1165 H 0.16739 0.3418 0.18187 0.0
H1166 H 0.14312 0.31495 0.18308 0.0
H1167 H 0.14929 0.32662 0.154 0.0
C1168 C 0.16551 0.96393 0.03972 0.0
C1169 C 0.1631 0.94101 0.02525 0.0
C1170 C 0.1464 0.97753 0.03881 0.0
C1171 C 0.12401 0.96799 0.02326 0.0
C1172 C 0.12122 0.9446 0.00898 0.0
C1173 C 0.14078 0.93148 0.01005 0.0
C1174 C 0.15046 0.00255 0.05403 0.0
C1175 C 0.09758 0.93353 0.99246 0.0
C1176 C 0.06849 -0.0023 0.03429 0.0
C1177 C 0.06898 0.01469 0.0163 0.0
C1178 C 0.08584 0.9819 0.03646 0.0
C1179 C 0.10444 0.98348 0.02058 0.0
C1180 C 0.10498 0.00073 0.00248 0.0
C1181 C 0.08721 0.01586 0.00045 0.0
C1182 C 0.08429 0.96355 0.05578 0.0
C1183 C 0.12449 0.0034 0.98528 0.0
H1184 H 0.1826 0.97155 0.05154 0.0
H1185 H 0.13855 0.9137 -0.00103 0.0
H1186 H 0.14985 0.01783 0.04181 0.0
H1187 H 0.13548 0.0026 0.06576 0.0
H1188 H 0.16847 0.00693 0.06593 0.0
H1189 H 0.09846 0.91557 0.98197 0.0
H1190 H 0.08199 0.92999 0.00355 0.0
H1191 H 0.09345 0.94712 0.97935 0.0
H1192 H 0.05485 -0.00296 0.0469 0.0
H1193 H 0.08773 0.02882 0.98637 0.0
H1194 H 0.10218 0.96649 0.0677 0.0
H1195 H 0.0805 0.944 0.04686 0.0
H1196 H 0.06954 0.9654 0.06743 0.0
H1197 H 0.14318 0.00695 -0.00419 0.0
H1198 H 0.12354 0.01902 0.97352 0.0
H1199 H 0.12222 0.98559 0.97332 0.0
C1200 C 0.6689 0.61843 0.97346 0.0
C1201 C 0.69039 0.61183 0.96631 0.0
C1202 C 0.64774 0.60007 0.97472 0.0
C1203 C 0.64785 0.57444 0.96815 0.0
C1204 C 0.66916 0.56766 0.96007 0.0
C1205 C 0.69037 0.58646 0.95954 0.0
C1206 C 0.6255 0.6081 0.98381 0.0
C1207 C 0.66964 0.54058 0.95233 0.0
C1208 C 0.60112 0.53186 -0.0009 0.0
C1209 C 0.58003 0.52874 0.98188 0.0
C1210 C 0.62401 0.54512 0.99413 0.0
C1211 C 0.6259 0.55499 0.97119 0.0
C1212 C 0.60526 0.54964 0.95285 0.0
C1213 C 0.58242 0.53682 0.95853 0.0
C1214 C 0.64546 0.55074 0.01433 0.0
C1215 C 0.60675 0.5592 0.92793 0.0
H1216 H 0.66881 0.63798 0.97884 0.0
H1217 H 0.7069 0.58132 0.95384 0.0
H1218 H 0.60913 0.60211 0.96978 0.0
H1219 H 0.62108 0.59882 0.00053 0.0
H1220 H 0.62849 0.62882 0.98821 0.0
H1221 H 0.68674 0.53875 0.9443 0.0
H1222 H 0.66842 0.52942 0.96837 0.0
H1223 H 0.65343 0.53219 0.93868 0.0
H1224 H 0.59943 0.52568 0.01721 0.0
H1225 H 0.56624 0.53415 0.94503 0.0
H1226 H 0.64865 0.57087 0.02153 0.0
H1227 H 0.66263 0.5476 0.00729 0.0
H1228 H 0.64201 0.53898 0.02976 0.0
H1229 H 0.60648 0.57961 0.92933 0.0
H1230 H 0.59098 0.54926 0.9144 0.0
H1231 H 0.62424 0.55691 0.92099 0.0
C1232 C 0.70552 0.44365 0.27666 0.0
C1233 C 0.69537 0.44478 0.29886 0.0
C1234 C 0.72047 0.42627 0.27167 0.0
C1235 C 0.72562 0.40975 0.28936 0.0
C1236 C 0.71613 0.4114 0.3121 0.0
C1237 C 0.70106 0.42878 0.31652 0.0
C1238 C 0.73014 0.42507 0.24718 0.0
C1239 C 0.72112 0.39418 0.33149 0.0
C1240 C 0.74032 0.34661 0.26875 0.0
C1241 C 0.76591 0.35084 0.27516 0.0
C1242 C 0.72705 0.36566 0.2729 0.0
C1243 C 0.73975 0.38979 0.28365 0.0
C1244 C 0.76572 0.39436 0.2899 0.0
C1245 C 0.77842 0.37474 0.28582 0.0
C1246 C 0.69933 0.35971 0.26637 0.0
C1247 C 0.77998 0.41976 0.30146 0.0
H1248 H 0.70121 0.45585 0.26284 0.0
H1249 H 0.6934 0.42951 0.33374 0.0
H1250 H 0.75042 0.42644 0.24979 0.0
H1251 H 0.72173 0.40665 0.23668 0.0
H1252 H 0.72597 0.44033 0.23609 0.0
H1253 H 0.71447 0.39955 0.34898 0.0
H1254 H 0.71173 0.3745 0.32494 0.0
H1255 H 0.74118 0.39449 0.33509 0.0
H1256 H 0.73035 0.32806 0.26178 0.0
H1257 H 0.79819 0.37804 0.2912 0.0
H1258 H 0.6941 0.37114 0.25155 0.0
H1259 H 0.69018 0.36469 0.28238 0.0
H1260 H 0.69204 0.33946 0.26013 0.0
H1261 H 0.77604 0.43478 0.28997 0.0
H1262 H 0.80022 0.42071 0.30398 0.0
H1263 H 0.774 0.42383 0.31961 0.0
C1264 C 0.8091 0.41251 0.51357 0.0
C1265 C 0.78606 0.41917 0.51437 0.0
C1266 C 0.83047 0.43064 0.51255 0.0
C1267 C 0.82896 0.45629 0.51232 0.0
C1268 C 0.80591 0.46338 0.51358 0.0
C1269 C 0.78464 0.44468 0.51461 0.0
C1270 C 0.85467 0.42219 0.51133 0.0
C1271 C 0.80369 0.49058 0.51343 0.0
C1272 C 0.89255 0.4976 0.52856 0.0
C1273 C 0.90022 0.49981 0.50531 0.0
C1274 C 0.86842 0.4854 0.53118 0.0
C1275 C 0.85172 0.47513 0.51002 0.0
C1276 C 0.85887 0.47913 0.4865 0.0
C1277 C 0.88309 0.49144 0.48443 0.0
C1278 C 0.86151 0.48175 0.55659 0.0
C1279 C 0.84163 0.46856 0.46347 0.0
H1280 H 0.81052 0.3929 0.51357 0.0
H1281 H 0.76693 0.44999 0.51525 0.0
H1282 H 0.86208 0.42722 0.49405 0.0
H1283 H 0.86851 0.43199 0.52672 0.0
H1284 H 0.85272 0.40154 0.51215 0.0
H1285 H 0.78481 0.4932 0.51606 0.0
H1286 H 0.81709 0.50241 0.5281 0.0
H1287 H 0.80829 0.49757 0.49574 0.0
H1288 H 0.90574 0.50435 0.54475 0.0
H1289 H 0.88894 0.49339 0.46642 0.0
H1290 H 0.86154 0.46201 0.56051 0.0
H1291 H 0.84264 0.48504 0.55799 0.0
H1292 H 0.87469 0.49453 0.57084 0.0
H1293 H 0.83988 0.44781 0.46102 0.0
H1294 H 0.84845 0.47661 0.44694 0.0
H1295 H 0.82292 0.47228 0.46486 0.0
C1296 C 0.33158 0.13609 0.27482 0.0
C1297 C 0.34369 0.12967 0.25491 0.0
C1298 C 0.31472 0.1523 0.27287 0.0
C1299 C 0.3094 0.16233 0.25034 0.0
C1300 C 0.32149 0.15592 0.23012 0.0
C1301 C 0.33852 0.1398 0.23266 0.0
C1302 C 0.30265 0.15881 0.29505 0.0
C1303 C 0.31643 0.16614 0.20579 0.0
C1304 C 0.24932 0.18719 0.24276 0.0
C1305 C 0.2579 0.21312 0.24916 0.0
C1306 C 0.26589 0.17055 0.24221 0.0
C1307 C 0.29168 0.17998 0.24836 0.0
C1308 C 0.3004 0.20627 0.25414 0.0
C1309 C 0.28349 0.22242 0.25436 0.0
C1310 C 0.25573 0.14274 0.23571 0.0
C1311 C 0.32757 0.21734 0.26106 0.0
H1312 H 0.33538 0.12854 0.29215 0.0
H1313 H 0.34764 0.13499 0.21713 0.0
H1314 H 0.30655 0.17954 0.29953 0.0
H1315 H 0.28231 0.15246 0.29104 0.0
H1316 H 0.30915 0.15001 0.31142 0.0
H1317 H 0.29639 0.16101 0.19916 0.0
H1318 H 0.32171 0.18702 0.20795 0.0
H1319 H 0.32672 0.15888 0.19163 0.0
H1320 H 0.22962 0.17982 0.23869 0.0
H1321 H 0.29039 0.24242 0.25924 0.0
H1322 H 0.25922 0.13236 0.2519 0.0
H1323 H 0.26528 0.13545 0.22097 0.0
H1324 H 0.23556 0.13857 0.22957 0.0
H1325 H 0.33409 0.21063 0.27864 0.0
H1326 H 0.33156 0.23828 0.26318 0.0
H1327 H 0.33841 0.21097 0.247 0.0
C1328 C 0.35106 0.11441 0.48669 0.0
C1329 C 0.32685 0.1094 0.49261 0.0
C1330 C 0.3672 0.09833 0.49254 0.0
C1331 C 0.35909 0.07698 0.5051 0.0
C1332 C 0.33474 0.07195 0.5114 0.0
C1333 C 0.31878 0.08811 0.50484 0.0
C1334 C 0.39294 0.10417 0.48516 0.0
C1335 C 0.32564 0.04963 0.52517 0.0
C1336 C 0.39701 0.02729 0.49637 0.0
C1337 C 0.41575 0.03462 0.51611 0.0
C1338 C 0.37728 0.03979 0.49344 0.0
C1339 C 0.37617 0.05978 0.51092 0.0
C1340 C 0.3937 0.06548 0.53218 0.0
C1341 C 0.41344 0.05287 0.53448 0.0
C1342 C 0.35911 0.03325 0.4704 0.0
C1343 C 0.39278 0.08626 0.55151 0.0
H1344 H 0.35734 0.1308 0.47718 0.0
H1345 H 0.30013 0.08431 0.50966 0.0
H1346 H 0.40678 0.1077 0.50172 0.0
H1347 H 0.39635 0.0878 0.47382 0.0
H1348 H 0.396 0.12093 0.47461 0.0
H1349 H 0.30635 0.04866 0.52916 0.0
H1350 H 0.32653 0.03188 0.51438 0.0
H1351 H 0.33776 0.05068 0.54272 0.0
H1352 H 0.39873 0.01312 0.48216 0.0
H1353 H 0.4279 0.05849 0.54982 0.0
H1354 H 0.36287 0.04842 0.45803 0.0
H1355 H 0.33992 0.03194 0.47467 0.0
H1356 H 0.36044 0.01517 0.46043 0.0
H1357 H 0.39798 0.1048 0.54419 0.0
H1358 H 0.40559 0.086 0.56836 0.0
H1359 H 0.37376 0.08462 0.55644 0.0
C1360 C 0.65931 0.60058 0.28032 0.0
C1361 C 0.67022 0.57971 0.28403 0.0
C1362 C 0.67358 0.62446 0.27823 0.0
C1363 C 0.69959 0.62783 0.28 0.0
C1364 C 0.71088 0.60704 0.28422 0.0
C1365 C 0.69606 0.58318 0.28612 0.0
C1366 C 0.6607 0.64603 0.27369 0.0
C1367 C 0.73857 0.60995 0.28641 0.0
C1368 C 0.7297 0.68467 0.24968 0.0
C1369 C 0.73606 0.70341 0.26949 0.0
C1370 C 0.71897 0.65968 0.25303 0.0
C1371 C 0.71458 0.65312 0.2768 0.0
C1372 C 0.72208 0.67164 0.29703 0.0
C1373 C 0.73262 0.69653 0.29314 0.0
C1374 C 0.71115 0.6406 0.23092 0.0
C1375 C 0.71791 0.66543 0.32269 0.0
H1376 H 0.63939 0.59827 0.2787 0.0
H1377 H 0.70469 0.56724 0.28901 0.0
H1378 H 0.66758 0.66172 0.28831 0.0
H1379 H 0.6649 0.65341 0.25604 0.0
H1380 H 0.64034 0.64036 0.27307 0.0
H1381 H 0.74458 0.59228 0.29075 0.0
H1382 H 0.74526 0.61556 0.26899 0.0
H1383 H 0.74752 0.62516 0.30094 0.0
H1384 H 0.73229 0.68964 0.23133 0.0
H1385 H 0.73763 0.71073 0.30865 0.0
H1386 H 0.69069 0.63532 0.22766 0.0
H1387 H 0.71805 0.62316 0.23416 0.0
H1388 H 0.71798 0.64796 0.21411 0.0
H1389 H 0.69784 0.66179 0.32425 0.0
H1390 H 0.72739 0.68099 0.33671 0.0
H1391 H 0.72457 0.64806 0.3268 0.0
C1392 C 0.83109 0.5058 0.73743 0.0
C1393 C 0.8561 0.5044 0.73867 0.0
C1394 C 0.81296 0.48436 0.7402 0.0
C1395 C 0.82017 0.46132 0.74477 0.0
C1396 C 0.84541 0.46004 0.74628 0.0
C1397 C 0.86289 0.4814 0.74303 0.0
C1398 C 0.78616 0.48626 0.73806 0.0
C1399 C 0.85411 0.43602 0.75139 0.0
C1400 C 0.78578 0.40672 0.77452 0.0
C1401 C 0.78013 0.38808 0.75473 0.0
C1402 C 0.79683 0.43165 0.77123 0.0
C1403 C 0.80185 0.43801 0.74753 0.0
C1404 C 0.79379 0.41971 0.72719 0.0
C1405 C 0.78337 0.39487 0.7311 0.0
C1406 C 0.80533 0.45044 0.79346 0.0
C1407 C 0.79824 0.4257 0.70155 0.0
H1408 H 0.82571 0.52349 0.73412 0.0
H1409 H 0.88215 0.48005 0.74433 0.0
H1410 H 0.77546 0.47275 0.72283 0.0
H1411 H 0.77831 0.48102 0.75507 0.0
H1412 H 0.78356 0.50553 0.73468 0.0
H1413 H 0.87453 0.43852 0.753 0.0
H1414 H 0.84789 0.42934 0.76866 0.0
H1415 H 0.84596 0.421 0.73643 0.0
H1416 H 0.78318 0.40149 0.7928 0.0
H1417 H 0.77876 0.3805 0.71572 0.0
H1418 H 0.80165 0.4692 0.78967 0.0
H1419 H 0.82558 0.45265 0.79825 0.0
H1420 H 0.79619 0.44423 0.80956 0.0
H1421 H 0.79451 0.44453 0.69809 0.0
H1422 H 0.78653 0.41139 0.6875 0.0
H1423 H 0.81788 0.42605 0.69933 0.0
C1424 C 0.97615 0.83664 0.11052 0.0
C1425 C 0.98842 0.81925 0.09987 0.0
C1426 C 0.97309 0.85833 0.09904 0.0
C1427 C 0.98258 0.8626 0.07652 0.0
C1428 C 0.99341 0.84422 0.06496 0.0
C1429 C 0.99611 0.82278 0.07672 0.0
C1430 C 0.96109 0.87737 0.11172 0.0
C1431 C 0.00379 0.84798 0.04097 0.0
C1432 C 0.9687 0.91406 0.03719 0.0
C1433 C 0.98979 0.93304 0.04427 0.0
C1434 C 0.96552 0.89128 0.04821 0.0
C1435 C 0.98407 0.88742 0.06639 0.0
C1436 C 0.00531 0.90669 0.07364 0.0
C1437 C 0.00781 0.92931 0.06259 0.0
C1438 C 0.94255 0.87125 0.0402 0.0
C1439 C 0.02572 0.90322 0.09267 0.0
H1440 H 0.97006 0.83398 0.12834 0.0
H1441 H 0.00526 0.80924 0.06814 0.0
H1442 H 0.9754 0.89418 0.11928 0.0
H1443 H 0.94765 0.88376 0.09852 0.0
H1444 H 0.95143 0.86964 0.12698 0.0
H1445 H 0.00946 0.83086 0.03327 0.0
H1446 H 0.99002 0.85318 0.02727 0.0
H1447 H 0.02018 0.86372 0.04382 0.0
H1448 H 0.95464 0.91706 0.02317 0.0
H1449 H 0.02408 0.94404 0.06813 0.0
H1450 H 0.93353 0.86514 0.05637 0.0
H1451 H 0.94757 0.85444 0.03109 0.0
H1452 H 0.92902 0.87793 0.0273 0.0
H1453 H 0.01816 0.89841 0.10992 0.0
H1454 H 0.04065 0.92036 0.09676 0.0
H1455 H 0.03392 0.88732 0.08614 0.0
C1456 C 0.92298 0.26511 0.82996 0.0
C1457 C 0.9463 0.27216 0.82204 0.0
C1458 C 0.90125 0.26459 0.81448 0.0
C1459 C 0.90264 0.27063 0.79008 0.0
C1460 C 0.92595 0.2756 0.78122 0.0
C1461 C 0.94762 0.27656 0.79742 0.0
C1462 C 0.87687 0.25915 0.82485 0.0
C1463 C 0.92814 0.28116 0.75506 0.0
C1464 C 0.83785 0.25537 0.75669 0.0
C1465 C 0.8307 0.27854 0.76063 0.0
C1466 C 0.86233 0.25307 0.76349 0.0
C1467 C 0.87977 0.27422 0.77528 0.0
C1468 C 0.8731 0.29807 0.77741 0.0
C1469 C 0.84872 0.29998 0.76977 0.0
C1470 C 0.86896 0.22757 0.75984 0.0
C1471 C 0.89091 0.32108 0.79018 0.0
H1472 H 0.92166 0.26116 0.84881 0.0
H1473 H 0.96552 0.28183 0.79107 0.0
H1474 H 0.86789 0.27561 0.82369 0.0
H1475 H 0.86419 0.24285 0.81401 0.0
H1476 H 0.87907 0.25493 0.84427 0.0
H1477 H 0.94605 0.27828 0.74946 0.0
H1478 H 0.91287 0.26908 0.74234 0.0
H1479 H 0.92699 0.30108 0.75315 0.0
H1480 H 0.82408 0.23878 0.74927 0.0
H1481 H 0.84336 0.31796 0.77289 0.0
H1482 H 0.86834 0.21845 0.77718 0.0
H1483 H 0.88796 0.2294 0.7548 0.0
H1484 H 0.85585 0.21501 0.7454 0.0
H1485 H 0.89386 0.31899 0.8101 0.0
H1486 H 0.88395 0.33866 0.78771 0.0
H1487 H 0.90909 0.32305 0.78326 0.0
C1488 C 0.48298 0.17608 0.61209 0.0
C1489 C 0.49269 0.19802 0.60158 0.0
C1490 C 0.48312 0.15213 0.60046 0.0
C1491 C 0.49347 0.1504 0.57815 0.0
C1492 C 0.5015 0.17249 0.56671 0.0
C1493 C 0.50076 0.19589 0.57843 0.0
C1494 C 0.47356 0.12889 0.61273 0.0
C1495 C 0.5127 0.17168 0.54294 0.0
C1496 C 0.53025 0.10174 0.56128 0.0
C1497 C 0.5154 0.08848 0.54054 0.0
C1498 C 0.52241 0.12074 0.57498 0.0
C1499 C 0.49898 0.12636 0.5679 0.0
C1500 C 0.48319 0.11176 0.54796 0.0
C1501 C 0.49177 0.09324 0.53424 0.0
C1502 C 0.54001 0.13607 0.59589 0.0
C1503 C 0.45784 0.11668 0.54027 0.0
H1504 H 0.47652 0.1776 0.62988 0.0
H1505 H 0.50775 0.21277 0.56988 0.0
H1506 H 0.46305 0.11352 0.59905 0.0
H1507 H 0.48936 0.12204 0.62195 0.0
H1508 H 0.46151 0.13279 0.62671 0.0
H1509 H 0.51685 0.19049 0.53586 0.0
H1510 H 0.53015 0.16471 0.54578 0.0
H1511 H 0.50005 0.15849 0.5287 0.0
H1512 H 0.54845 0.09792 0.56629 0.0
H1513 H 0.48028 0.08313 0.51808 0.0
H1514 H 0.53055 0.13766 0.61244 0.0
H1515 H 0.54644 0.15544 0.59079 0.0
H1516 H 0.55643 0.12775 0.60057 0.0
H1517 H 0.44782 0.11824 0.55645 0.0
H1518 H 0.44669 0.10157 0.52667 0.0
H1519 H 0.45954 0.13484 0.53198 0.0
C1520 C 0.5998 0.78169 0.32478 0.0
C1521 C 0.58517 0.79787 0.31511 0.0
C1522 C 0.62152 0.77866 0.31506 0.0
C1523 C 0.62875 0.79187 0.29493 0.0
C1524 C 0.61417 0.80835 0.28518 0.0
C1525 C 0.59266 0.81121 0.29541 0.0
C1526 C 0.63641 0.76087 0.32606 0.0
C1527 C 0.62115 0.82273 0.2637 0.0
C1528 C 0.69525 0.80025 0.28033 0.0
C1529 C 0.69326 0.78105 0.26139 0.0
C1530 C 0.67456 0.80369 0.29175 0.0
C1531 C 0.65115 0.78796 0.28362 0.0
C1532 C 0.64908 0.76859 0.26443 0.0
C1533 C 0.67015 0.76532 0.25364 0.0
C1534 C 0.67773 0.82421 0.31248 0.0
C1535 C 0.62454 0.75139 0.25517 0.0
H1536 H 0.59429 0.7713 0.34001 0.0
H1537 H 0.58156 0.82375 0.28778 0.0
H1538 H 0.63339 0.74334 0.31355 0.0
H1539 H 0.65645 0.76929 0.32829 0.0
H1540 H 0.63106 0.75574 0.34415 0.0
H1541 H 0.6081 0.83506 0.25845 0.0
H1542 H 0.63999 0.83457 0.26817 0.0
H1543 H 0.6215 0.80934 0.24765 0.0
H1544 H 0.71298 0.81272 0.28615 0.0
H1545 H 0.66849 0.75047 0.23897 0.0
H1546 H 0.6706 0.81618 0.32888 0.0
H1547 H 0.66683 0.83843 0.30716 0.0
H1548 H 0.69736 0.83385 0.31758 0.0
H1549 H 0.61707 0.74119 0.27033 0.0
H1550 H 0.62599 0.73733 0.24005 0.0
H1551 H 0.61103 0.76268 0.24852 0.0
C1552 C 0.01603 0.19284 0.51443 0.0
C1553 C 0.01974 0.20027 0.4911 0.0
C1554 C 0.01774 0.16854 0.52023 0.0
C1555 C 0.02273 0.15116 0.50206 0.0
C1556 C 0.02723 0.15877 0.47867 0.0
C1557 C 0.02595 0.18342 0.47355 0.0
C1558 C 0.01333 0.16121 0.54553 0.0
C1559 C 0.03208 0.14054 0.45871 0.0
C1560 C 0.0416 0.09245 0.52391 0.0
C1561 C 0.01885 0.0754 0.52076 0.0
C1562 C 0.04332 0.11708 0.5173 0.0
C1563 C 0.02175 0.12465 0.50724 0.0
C1564 C -0.00119 0.10726 0.50352 0.0
C1565 C 0.9976 0.08288 0.51068 0.0
C1566 C 0.06807 0.13512 0.52151 0.0
C1567 C 0.97548 0.11454 0.49246 0.0
H1568 H 0.01137 0.20593 0.52804 0.0
H1569 H 0.02858 0.18909 0.45541 0.0
H1570 H 0.99615 0.14659 0.54431 0.0
H1571 H 0.02872 0.15297 0.55364 0.0
H1572 H 0.01157 0.17751 0.55807 0.0
H1573 H 0.04702 0.131 0.46552 0.0
H1574 H 0.01523 0.12568 0.4531 0.0
H1575 H 0.03732 0.14999 0.44229 0.0
H1576 H 0.05808 0.08655 0.53163 0.0
H1577 H 0.97996 0.06975 0.50866 0.0
H1578 H 0.06725 0.1513 0.53462 0.0
H1579 H 0.07271 0.14281 0.50411 0.0
H1580 H 0.08317 0.12601 0.52885 0.0
H1581 H 0.97044 0.12895 0.50512 0.0
H1582 H 0.9597 0.09815 0.48874 0.0
H1583 H 0.97847 0.12302 0.47504 0.0
C1584 C 0.57759 0.30551 0.14702 0.0
C1585 C 0.5598 0.3022 0.16323 0.0
C1586 C 0.60274 0.30963 0.15587 0.0
C1587 C 0.60991 0.31109 0.18143 0.0
C1588 C 0.59209 0.31133 0.19784 0.0
C1589 C 0.56706 0.30628 0.1885 0.0
C1590 C 0.62119 0.30914 0.13779 0.0
C1591 C 0.59917 0.31402 0.22524 0.0
C1592 C 0.65872 0.27636 0.20476 0.0
C1593 C 0.67917 0.29602 0.21125 0.0
C1594 C 0.63638 0.28107 0.19403 0.0
C1595 C 0.63432 0.30623 0.19066 0.0
C1596 C 0.65506 0.3262 0.19709 0.0
C1597 C 0.67751 0.32075 0.20694 0.0
C1598 C 0.61486 0.25912 0.18676 0.0
C1599 C 0.65331 0.3533 0.1947 0.0
H1600 H 0.5718 0.30233 0.12744 0.0
H1601 H 0.55314 0.30403 0.20095 0.0
H1602 H 0.63847 0.32323 0.1439 0.0
H1603 H 0.62602 0.29026 0.13647 0.0
H1604 H 0.61363 0.31281 0.11923 0.0
H1605 H 0.58432 0.31934 0.23515 0.0
H1606 H 0.60257 0.2958 0.23119 0.0
H1607 H 0.61641 0.32841 0.23062 0.0
H1608 H 0.66025 0.25725 0.20798 0.0
H1609 H 0.69348 0.33591 0.21218 0.0
H1610 H 0.60688 0.2596 0.16752 0.0
H1611 H 0.60014 0.26043 0.19855 0.0
H1612 H 0.62027 0.24065 0.18855 0.0
H1613 H 0.64308 0.35533 0.1768 0.0
H1614 H 0.67181 0.36599 0.19669 0.0
H1615 H 0.64292 0.35961 0.20921 0.0
C1616 C 0.53007 0.85526 0.97788 0.0
C1617 C 0.5225 0.83626 0.99292 0.0
C1618 C 0.53118 0.88062 0.98575 0.0
C1619 C 0.52512 0.88697 0.00939 0.0
C1620 C 0.51965 0.86803 0.0254 0.0
C1621 C 0.5181 0.84281 0.01685 0.0
C1622 C 0.5369 0.90032 0.96806 0.0
C1623 C 0.5138 0.87418 0.05096 0.0
C1624 C 0.53866 0.95694 0.02947 0.0
C1625 C 0.51566 0.96298 0.02262 0.0
C1626 C 0.5418 0.93197 0.02655 0.0
C1627 C 0.52157 0.91281 0.01607 0.0
C1628 C 0.49803 0.91863 0.01032 0.0
C1629 C 0.4953 0.94364 0.01393 0.0
C1630 C 0.56699 0.92632 0.03354 0.0
C1631 C 0.47601 0.8987 -0.00106 0.0
H1632 H 0.53336 0.8502 0.95934 0.0
H1633 H 0.51247 0.82809 0.02858 0.0
H1634 H 0.52008 0.90772 0.96265 0.0
H1635 H 0.55133 0.91646 0.97689 0.0
H1636 H 0.54324 0.89265 0.95123 0.0
H1637 H 0.51399 0.85813 0.06233 0.0
H1638 H 0.52724 0.8909 0.06024 0.0
H1639 H 0.4952 0.87881 0.04996 0.0
H1640 H 0.55442 0.97184 0.03638 0.0
H1641 H 0.47751 0.9482 0.00847 0.0
H1642 H 0.57523 0.92193 0.01673 0.0
H1643 H 0.56551 0.90955 0.04406 0.0
H1644 H 0.57973 0.94247 0.04465 0.0
H1645 H 0.47955 0.89111 0.98074 0.0
H1646 H 0.45878 0.90616 -0.00349 0.0
H1647 H 0.47305 0.88275 0.01047 0.0
C1648 C 0.92461 0.79053 0.65393 0.0
C1649 C 0.9324 0.76819 0.65893 0.0
C1650 C 0.9053 0.79763 0.66513 0.0
C1651 C 0.89355 0.78192 0.68155 0.0
C1652 C 0.90196 0.75991 0.68745 0.0
C1653 C 0.92138 0.75333 0.67609 0.0
C1654 C 0.89677 0.8213 0.65857 0.0
C1655 C 0.88972 0.74269 0.70489 0.0
C1656 C 0.85085 0.80357 0.72347 0.0
C1657 C 0.82782 0.79185 0.71083 0.0
C1658 C 0.87261 0.80136 0.71371 0.0
C1659 C 0.87103 0.78711 0.69089 0.0
C1660 C 0.84772 0.77618 0.67763 0.0
C1661 C 0.82634 0.77869 0.68781 0.0
C1662 C 0.89723 0.81326 0.72825 0.0
C1663 C 0.84536 0.76087 0.6532 0.0
H1664 H 0.93321 0.80222 0.64084 0.0
H1665 H 0.9274 0.73611 0.68012 0.0
H1666 H 0.87812 0.81619 0.64792 0.0
H1667 H 0.89528 0.83309 0.67538 0.0
H1668 H 0.90945 0.83273 0.64747 0.0
H1669 H 0.89967 0.72732 0.70889 0.0
H1670 H 0.88872 0.75358 0.72241 0.0
H1671 H 0.8705 0.73406 0.69687 0.0
H1672 H 0.85188 0.81375 0.74131 0.0
H1673 H 0.80844 0.7697 0.67806 0.0
H1674 H 0.90938 0.82442 0.71655 0.0
H1675 H 0.90663 0.79828 0.73468 0.0
H1676 H 0.89526 0.82573 0.74445 0.0
H1677 H 0.85636 0.77179 0.64047 0.0
H1678 H 0.82589 0.75516 0.64452 0.0
H1679 H 0.8528 0.74359 0.65572 0.0
C1680 C 0.07729 0.96962 0.84579 0.0
C1681 C 0.10115 0.98451 0.84819 0.0
C1682 C 0.06352 0.96794 0.86567 0.0
C1683 C 0.07376 0.98196 0.88829 0.0
C1684 C 0.09875 0.99507 0.89138 0.0
C1685 C 0.11221 0.9962 0.87119 0.0
C1686 C 0.03718 0.9533 0.8617 0.0
C1687 C 0.11042 0.01009 0.91524 0.0
C1688 C 0.03096 0.01309 0.92333 0.0
C1689 C 0.02836 -0.00123 0.94339 0.0
C1690 C 0.04528 0.00741 0.90513 0.0
C1691 C 0.05725 0.98676 0.90686 0.0
C1692 C 0.05383 0.9715 0.92646 0.0
C1693 C 0.03949 0.97774 0.94457 0.0
C1694 C 0.04829 0.02413 0.88445 0.0
C1695 C 0.06607 0.94922 0.92882 0.0
H1696 H 0.06869 0.96084 0.82784 0.0
H1697 H 0.13052 0.00806 0.87288 0.0
H1698 H 0.03277 0.94272 0.87767 0.0
H1699 H 0.02447 0.9666 0.85965 0.0
H1700 H 0.03357 0.93984 0.84495 0.0
H1701 H 0.13084 0.01542 0.91613 0.0
H1702 H 0.10307 0.02759 0.91723 0.0
H1703 H 0.10573 -0.00077 0.93093 0.0
H1704 H 0.02243 0.02932 0.9222 0.0
H1705 H 0.03786 0.9667 0.96014 0.0
H1706 H 0.04242 0.0127 0.86655 0.0
H1707 H 0.06803 0.03321 0.88487 0.0
H1708 H 0.03735 0.03913 0.88552 0.0
H1709 H 0.06358 0.93756 0.91103 0.0
H1710 H 0.05864 0.93712 0.94282 0.0
H1711 H 0.0862 0.95602 0.93417 0.0
C1712 C 0.69906 0.33487 0.59536 0.0
C1713 C 0.72011 0.3358 0.5833 0.0
C1714 C 0.69859 0.32642 0.61899 0.0
C1715 C 0.71977 0.31927 0.6308 0.0
C1716 C 0.74129 0.32123 0.619 0.0
C1717 C 0.74111 0.32925 0.59547 0.0
C1718 C 0.67533 0.32458 0.63107 0.0
C1719 C 0.76448 0.31436 0.63103 0.0
C1720 C 0.7333 0.31344 0.69889 0.0
C1721 C 0.72965 0.28729 0.69932 0.0
C1722 C 0.72851 0.32432 0.67697 0.0
C1723 C 0.71963 0.30854 0.65497 0.0
C1724 C 0.71417 0.28204 0.65572 0.0
C1725 C 0.71918 0.27176 0.67792 0.0
C1726 C 0.73428 0.35266 0.67727 0.0
C1727 C 0.70442 0.26447 0.63282 0.0
H1728 H 0.68283 0.33999 0.58609 0.0
H1729 H 0.75764 0.33038 0.5865 0.0
H1730 H 0.66764 0.30456 0.63335 0.0
H1731 H 0.67952 0.33485 0.64965 0.0
H1732 H 0.66101 0.33232 0.62025 0.0
H1733 H 0.77998 0.31797 0.61978 0.0
H1734 H 0.77042 0.32533 0.64916 0.0
H1735 H 0.76073 0.2941 0.63416 0.0
H1736 H 0.73965 0.3254 0.7157 0.0
H1737 H 0.71574 0.25146 0.6783 0.0
H1738 H 0.72072 0.35931 0.66443 0.0
H1739 H 0.7528 0.35875 0.67137 0.0
H1740 H 0.73451 0.36198 0.69591 0.0
H1741 H 0.68877 0.27062 0.62247 0.0
H1742 H 0.69816 0.24469 0.63696 0.0
H1743 H 0.71917 0.26498 0.62073 0.0
C1744 C 0.46615 0.10589 0.32928 0.0
C1745 C 0.4424 0.09239 0.32013 0.0
C1746 C 0.47645 0.10418 0.35342 0.0
C1747 C 0.46311 0.08759 0.36827 0.0
C1748 C 0.43851 0.07514 0.35954 0.0
C1749 C 0.42836 0.078 0.33568 0.0
C1750 C 0.50228 0.11868 0.36231 0.0
C1751 C 0.42374 0.05682 0.3744 0.0
C1752 C 0.49909 0.05368 0.41311 0.0
C1753 C 0.49514 0.06455 0.43572 0.0
C1754 C 0.4891 0.06133 0.39103 0.0
C1755 C 0.47563 0.08097 0.3916 0.0
C1756 C 0.47293 0.093 0.41449 0.0
C1757 C 0.48224 0.08427 0.43626 0.0
C1758 C 0.49191 0.04749 0.36711 0.0
C1759 C 0.45963 0.11463 0.41601 0.0
H1760 H 0.47725 0.11657 0.31708 0.0
H1761 H 0.41028 0.06693 0.32835 0.0
H1762 H 0.50355 0.12681 0.38156 0.0
H1763 H 0.5154 0.10577 0.36178 0.0
H1764 H 0.50817 0.13415 0.35075 0.0
H1765 H 0.4043 0.05021 0.36588 0.0
H1766 H 0.43239 0.04019 0.37611 0.0
H1767 H 0.42375 0.06556 0.39318 0.0
H1768 H 0.50877 0.03821 0.4127 0.0
H1769 H 0.47923 0.09274 0.45379 0.0
H1770 H 0.50103 0.06091 0.35505 0.0
H1771 H 0.47341 0.03848 0.35739 0.0
H1772 H 0.50291 0.03269 0.36979 0.0
H1773 H 0.46637 0.1287 0.40338 0.0
H1774 H 0.46213 0.12417 0.43488 0.0
H1775 H 0.43959 0.10759 0.41029 0.0
C1776 C 0.78285 0.72878 0.04455 0.0
C1777 C 0.7769 0.70256 0.0393 0.0
C1778 C 0.78485 0.73972 0.06865 0.0
C1779 C 0.77975 0.72399 0.08761 0.0
C1780 C 0.77505 0.69745 0.08254 0.0
C1781 C 0.7741 0.68703 0.05839 0.0
C1782 C 0.79093 0.76808 0.07356 0.0
C1783 C 0.76894 0.68006 0.10216 0.0
C1784 C 0.79123 0.74842 0.15477 0.0
C1785 C 0.76803 0.75313 0.15866 0.0
C1786 C 0.79574 0.73992 0.13144 0.0
C1787 C 0.77623 0.73511 0.11194 0.0
C1788 C 0.75278 0.74001 0.11584 0.0
C1789 C 0.7491 0.74942 0.13914 0.0
C1790 C 0.8212 0.73582 0.12774 0.0
C1791 C 0.73134 0.73453 0.09561 0.0
H1792 H 0.78519 0.74073 0.02969 0.0
H1793 H 0.7693 0.66673 0.05421 0.0
H1794 H 0.77395 0.77495 0.0768 0.0
H1795 H 0.80446 0.77403 0.09025 0.0
H1796 H 0.79857 0.7773 0.05791 0.0
H1797 H 0.76784 0.66 0.09567 0.0
H1798 H 0.78296 0.68524 0.11854 0.0
H1799 H 0.75088 0.68198 0.108 0.0
H1800 H 0.80585 0.75137 0.17 0.0
H1801 H 0.73113 0.75295 0.14232 0.0
H1802 H 0.8279 0.74605 0.11228 0.0
H1803 H 0.8205 0.71552 0.1229 0.0
H1804 H 0.83475 0.74229 0.14438 0.0
H1805 H 0.73597 0.7457 0.08008 0.0
H1806 H 0.71421 0.73895 0.10184 0.0
H1807 H 0.72758 0.71432 0.08857 0.0
C1808 C 0.07146 0.9634 0.71214 0.0
C1809 C 0.09707 0.97021 0.71866 0.0
C1810 C 0.06131 0.95831 0.68753 0.0
C1811 C 0.07722 0.9608 0.66912 0.0
C1812 C 0.10307 0.96437 0.67575 0.0
C1813 C 0.11277 0.96893 0.70063 0.0
C1814 C 0.03362 0.95368 0.68129 0.0
C1815 C 0.12064 0.9667 0.65665 0.0
C1816 C 0.04781 0.95444 0.60264 0.0
C1817 C 0.04573 0.9794 0.59994 0.0
C1818 C 0.05853 0.94786 0.62492 0.0
C1819 C 0.06747 0.96682 0.6446 0.0
C1820 C 0.06589 0.99214 0.64153 0.0
C1821 C 0.05487 -0.00198 0.61934 0.0
C1822 C 0.05953 0.92064 0.62756 0.0
C1823 C 0.07541 0.0131 0.66187 0.0
H1824 H 0.05932 0.96389 0.72621 0.0
H1825 H 0.13261 0.974 0.70571 0.0
H1826 H 0.02821 0.97152 0.67661 0.0
H1827 H 0.02728 0.93959 0.66517 0.0
H1828 H 0.02394 0.94698 0.69692 0.0
H1829 H 0.13909 0.96366 0.66407 0.0
H1830 H 0.11324 0.95302 0.6404 0.0
H1831 H 0.123 0.98592 0.65047 0.0
H1832 H 0.04073 0.94006 0.58754 0.0
H1833 H 0.05348 0.01738 0.61716 0.0
H1834 H 0.07738 0.91896 0.63768 0.0
H1835 H 0.05682 0.9094 0.60948 0.0
H1836 H 0.04467 0.91231 0.63822 0.0
H1837 H 0.06472 0.00975 0.6776 0.0
H1838 H 0.07396 0.03192 0.65595 0.0
H1839 H 0.09504 0.0135 0.66846 0.0
C1840 C 0.69868 0.30521 0.43576 0.0
C1841 C 0.70152 0.33068 0.44428 0.0
C1842 C 0.70194 0.29798 0.41155 0.0
C1843 C 0.70877 0.31672 0.3956 0.0
C1844 C 0.70958 0.34232 0.4035 0.0
C1845 C 0.70569 0.34899 0.42772 0.0
C1846 C 0.7002 0.27042 0.40381 0.0
C1847 C 0.71679 0.36291 0.38715 0.0
C1848 C 0.7529 0.3019 0.35105 0.0
C1849 C 0.73748 0.29617 0.32867 0.0
C1850 C 0.74379 0.3089 0.37274 0.0
C1851 C 0.71847 0.30989 0.37229 0.0
C1852 C 0.70272 0.30391 0.34982 0.0
C1853 C 0.71244 0.29735 0.32827 0.0
C1854 C 0.76139 0.31544 0.39619 0.0
C1855 C 0.67559 0.30434 0.34855 0.0
H1856 H 0.69553 0.29099 0.44854 0.0
H1857 H 0.70826 0.36873 0.43428 0.0
H1858 H 0.69002 0.26521 0.38514 0.0
H1859 H 0.71905 0.26672 0.40327 0.0
H1860 H 0.69084 0.25807 0.41665 0.0
H1861 H 0.71368 0.38136 0.39473 0.0
H1862 H 0.73664 0.36495 0.38491 0.0
H1863 H 0.70614 0.35794 0.36869 0.0
H1864 H 0.77232 0.30138 0.3516 0.0
H1865 H 0.70033 0.29307 0.31109 0.0
H1866 H 0.75542 0.30225 0.40986 0.0
H1867 H 0.76114 0.33472 0.40413 0.0
H1868 H 0.78066 0.31455 0.39334 0.0
H1869 H 0.66687 0.29161 0.36142 0.0
H1870 H 0.66564 0.29848 0.32983 0.0
H1871 H 0.67318 0.32359 0.35429 0.0
C1872 C 0.46783 0.06617 0.18153 0.0
C1873 C 0.44705 0.07669 0.18459 0.0
C1874 C 0.47676 0.06418 0.15887 0.0
C1875 C 0.46514 0.07349 0.13844 0.0
C1876 C 0.44501 0.08547 0.1415 0.0
C1877 C 0.43603 0.08677 0.16454 0.0
C1878 C 0.49815 0.05111 0.15666 0.0
C1879 C 0.43259 0.09627 0.1203 0.0
C1880 C 0.50611 0.07935 0.08736 0.0
C1881 C 0.49708 0.05632 0.07314 0.0
C1882 C 0.49464 0.08621 0.10761 0.0
C1883 C 0.47385 0.06945 0.11398 0.0
C1884 C 0.46409 0.04662 0.09891 0.0
C1885 C 0.47586 0.04035 0.07868 0.0
C1886 C 0.50561 0.11076 0.12296 0.0
C1887 C 0.44218 0.02801 0.10503 0.0
H1888 H 0.47685 0.05858 0.19684 0.0
H1889 H 0.42004 0.09497 0.16662 0.0
H1890 H 0.49225 0.03417 0.14328 0.0
H1891 H 0.51351 0.06378 0.14972 0.0
H1892 H 0.50531 0.04513 0.1744 0.0
H1893 H 0.41907 0.10733 0.12616 0.0
H1894 H 0.44657 0.10858 0.11122 0.0
H1895 H 0.42275 0.08076 0.10645 0.0
H1896 H 0.52243 0.09182 0.08287 0.0
H1897 H 0.46908 0.02242 0.06782 0.0
H1898 H 0.51576 0.10693 0.14025 0.0
H1899 H 0.49087 0.12055 0.12795 0.0
H1900 H 0.51869 0.12356 0.11332 0.0
H1901 H 0.44759 0.01949 0.12195 0.0
H1902 H 0.43514 0.01263 0.09008 0.0
H1903 H 0.42696 0.03767 0.10866 0.0
C1904 C 0.80811 0.708 0.9152 0.0
C1905 C 0.78526 0.69114 0.9111 0.0
C1906 C 0.8158 0.72375 0.89718 0.0
C1907 C 0.80011 0.72235 0.87494 0.0
C1908 C 0.77861 0.70298 0.86976 0.0
C1909 C 0.7713 0.68777 0.8881 0.0
C1910 C 0.83928 0.7435 0.90304 0.0
C1911 C 0.7617 0.7002 0.84595 0.0
C1912 C 0.78166 0.77609 0.84484 0.0
C1913 C 0.78845 0.77153 0.82153 0.0
C1914 C 0.78861 0.76243 0.864 0.0
C1915 C 0.80247 0.74369 0.85947 0.0
C1916 C 0.81256 0.74189 0.83713 0.0
C1917 C 0.80538 0.7559 0.81826 0.0
C1918 C 0.77815 0.76561 0.88791 0.0
C1919 C 0.82822 0.72293 0.8319 0.0
H1920 H 0.81882 0.71053 0.93316 0.0
H1921 H 0.75366 0.67458 0.88511 0.0
H1922 H 0.84797 0.74808 0.8863 0.0
H1923 H 0.83499 0.76102 0.91148 0.0
H1924 H 0.85275 0.7372 0.91633 0.0
H1925 H 0.74788 0.68215 0.84346 0.0
H1926 H 0.75167 0.71595 0.84563 0.0
H1927 H 0.77254 0.70107 0.83023 0.0
H1928 H 0.76908 0.78867 0.84754 0.0
H1929 H 0.81102 0.75253 0.80031 0.0
H1930 H 0.79231 0.7656 0.90367 0.0
H1931 H 0.76255 0.74959 0.88877 0.0
H1932 H 0.77121 0.78338 0.88985 0.0
H1933 H 0.83885 0.71897 0.84885 0.0
H1934 H 0.84126 0.72967 0.81875 0.0
H1935 H 0.81607 0.70501 0.82347 0.0
C1936 C 0.84993 0.09743 0.97974 0.0
C1937 C 0.85397 0.12166 0.99218 0.0
C1938 C 0.86845 0.08306 0.98068 0.0
C1939 C 0.89189 0.09304 0.99427 0.0
C1940 C 0.8963 0.11766 0.00654 0.0
C1941 C 0.87735 0.13161 0.0054 0.0
C1942 C 0.8627 0.05685 0.96754 0.0
C1943 C 0.92098 0.12913 0.02115 0.0
C1944 C 0.92847 0.04513 0.01773 0.0
C1945 C 0.94499 0.04405 0.00035 0.0
C1946 C 0.91155 0.06125 0.01619 0.0
C1947 C 0.91105 0.077 -0.00317 0.0
C1948 C 0.92803 0.07635 0.97942 0.0
C1949 C 0.94468 0.05979 0.98131 0.0
C1950 C 0.89396 0.06114 0.03522 0.0
C1951 C 0.92845 0.093 0.95867 0.0
H1952 H 0.83205 0.08943 0.96945 0.0
H1953 H 0.88083 0.15029 0.01502 0.0
H1954 H 0.87646 0.05499 0.95476 0.0
H1955 H 0.86397 0.04282 0.98104 0.0
H1956 H 0.84396 0.05212 0.95701 0.0
H1957 H 0.92191 0.1488 0.02882 0.0
H1958 H 0.9246 0.11768 0.03648 0.0
H1959 H 0.93596 0.12902 0.00943 0.0
H1960 H 0.92868 0.03321 0.03266 0.0
H1961 H 0.95704 0.05876 0.96759 0.0
H1962 H 0.87461 0.05735 0.02623 0.0
H1963 H 0.89758 0.07993 0.04576 0.0
H1964 H 0.89573 0.04675 0.04825 0.0
H1965 H 0.90996 0.08951 0.94775 0.0
H1966 H 0.94224 0.08984 0.94629 0.0
H1967 H 0.93289 0.11308 0.96616 0.0
C1968 C 0.32842 0.46321 0.06268 0.0
C1969 C 0.32533 0.43692 0.06193 0.0
C1970 C 0.35165 0.47837 0.06073 0.0
C1971 C 0.37188 0.46682 0.05714 0.0
C1972 C 0.36902 0.44042 0.05742 0.0
C1973 C 0.34597 0.42591 0.0602 0.0
C1974 C 0.35429 0.50658 0.06152 0.0
C1975 C 0.38984 0.42718 0.05299 0.0
C1976 C 0.42065 0.49358 0.01808 0.0
C1977 C 0.44184 0.49977 0.0353 0.0
C1978 C 0.39745 0.48412 0.02518 0.0
C1979 C 0.39526 0.48146 0.05025 0.0
C1980 C 0.41634 0.48935 0.06793 0.0
C1981 C 0.43953 0.49796 0.06019 0.0
C1982 C 0.37568 0.47518 0.00559 0.0
C1983 C 0.41463 0.4876 0.09489 0.0
H1984 H 0.31264 0.47189 0.06424 0.0
H1985 H 0.34388 0.40562 0.05961 0.0
H1986 H 0.37164 0.51629 0.073 0.0
H1987 H 0.35527 0.51251 0.04277 0.0
H1988 H 0.33846 0.51291 0.06885 0.0
H1989 H 0.38472 0.40654 0.0542 0.0
H1990 H 0.39518 0.4304 0.03449 0.0
H1991 H 0.40631 0.43501 0.06645 0.0
H1992 H 0.42237 0.49475 -0.00122 0.0
H1993 H 0.45588 0.50297 0.07357 0.0
H1994 H 0.3598 0.48347 0.00994 0.0
H1995 H 0.36973 0.45439 0.00488 0.0
H1996 H 0.38011 0.48012 0.98715 0.0
H1997 H 0.39792 0.49385 0.10011 0.0
H1998 H 0.43117 0.49917 0.1064 0.0
H1999 H 0.41311 0.46773 0.09902 0.0
C2000 C 0.29845 0.60645 0.75169 0.0
C2001 C 0.32221 0.60869 0.74466 0.0
C2002 C 0.28693 0.62727 0.75287 0.0
C2003 C 0.29966 0.65108 0.74743 0.0
C2004 C 0.32376 0.65351 0.74058 0.0
C2005 C 0.33462 0.63226 0.73901 0.0
C2006 C 0.26103 0.62374 0.75975 0.0
C2007 C 0.3382 0.67865 0.73516 0.0
C2008 C 0.263 0.69994 0.72753 0.0
C2009 C 0.26504 0.71569 0.74923 0.0
C2010 C 0.27401 0.67881 0.72676 0.0
C2011 C 0.28755 0.67331 0.74822 0.0
C2012 C 0.28955 0.6891 0.77028 0.0
C2013 C 0.27799 0.70995 0.77057 0.0
C2014 C 0.27123 0.66244 0.7029 0.0
C2015 C 0.3039 0.684 0.79353 0.0
H2016 H 0.28874 0.58832 0.75606 0.0
H2017 H 0.35311 0.63425 0.73387 0.0
H2018 H 0.26071 0.63635 0.77638 0.0
H2019 H 0.24857 0.62902 0.7448 0.0
H2020 H 0.25358 0.60401 0.76331 0.0
H2021 H 0.35694 0.67754 0.73063 0.0
H2022 H 0.32815 0.68575 0.71956 0.0
H2023 H 0.34007 0.6927 0.75124 0.0
H2024 H 0.25295 0.70428 0.71096 0.0
H2025 H 0.27893 0.72164 0.78754 0.0
H2026 H 0.26303 0.64263 0.7055 0.0
H2027 H 0.28964 0.66262 0.69687 0.0
H2028 H 0.25943 0.66882 0.68808 0.0
H2029 H 0.29488 0.66579 0.79955 0.0
H2030 H 0.30522 0.69905 0.80864 0.0
H2031 H 0.32285 0.68234 0.79019 0.0
C2032 C 0.20326 0.65156 0.49646 0.0
C2033 C 0.22481 0.64175 0.49671 0.0
C2034 C 0.18014 0.63594 0.49695 0.0
C2035 C 0.17832 0.60968 0.49766 0.0
C2036 C 0.19986 0.59947 0.49757 0.0
C2037 C 0.22291 0.61565 0.49713 0.0
C2038 C 0.15766 0.64766 0.49704 0.0
C2039 C 0.19857 0.57154 0.4982 0.0
C2040 C 0.12046 0.5784 0.52302 0.0
C2041 C 0.10412 0.57033 0.50153 0.0
C2042 C 0.14519 0.58991 0.52204 0.0
C2043 C 0.15373 0.59334 0.49899 0.0
C2044 C 0.1376 0.58393 0.47723 0.0
C2045 C 0.11292 0.57259 0.47877 0.0
C2046 C 0.16175 0.59972 0.54566 0.0
C2047 C 0.14599 0.58706 0.4523 0.0
H2048 H 0.2044 0.67166 0.49608 0.0
H2049 H 0.23942 0.60788 0.49731 0.0
H2050 H 0.14376 0.63915 0.48121 0.0
H2051 H 0.14895 0.6438 0.51392 0.0
H2052 H 0.16221 0.66838 0.49615 0.0
H2053 H 0.21683 0.56645 0.49717 0.0
H2054 H 0.19165 0.56532 0.51534 0.0
H2055 H 0.18533 0.56096 0.48271 0.0
H2056 H 0.11369 0.57654 0.54065 0.0
H2057 H 0.10034 0.56618 0.46211 0.0
H2058 H 0.16568 0.62063 0.54746 0.0
H2059 H 0.17968 0.59375 0.54559 0.0
H2060 H 0.15322 0.59308 0.56195 0.0
H2061 H 0.14878 0.60723 0.44885 0.0
H2062 H 0.13232 0.5759 0.4374 0.0
H2063 H 0.16394 0.58126 0.45153 0.0
C2064 C 0.64217 0.90832 0.7344 0.0
C2065 C 0.64148 0.926 0.75401 0.0
C2066 C 0.6581 0.89126 0.73632 0.0
C2067 C 0.67391 0.89177 0.75835 0.0
C2068 C 0.67313 0.90934 0.77835 0.0
C2069 C 0.65695 0.92623 0.77596 0.0
C2070 C 0.65832 0.87295 0.71454 0.0
C2071 C 0.68969 0.91057 0.80213 0.0
C2072 C 0.70154 0.83343 0.76662 0.0
C2073 C 0.7245 0.8406 0.75821 0.0
C2074 C 0.68516 0.85012 0.76759 0.0
C2075 C 0.69192 0.8746 0.75986 0.0
C2076 C 0.71535 0.88205 0.75178 0.0
C2077 C 0.7312 0.8649 0.75085 0.0
C2078 C 0.66019 0.84114 0.77584 0.0
C2079 C 0.72343 0.90789 0.74339 0.0
H2080 H 0.63036 0.9079 0.71735 0.0
H2081 H 0.65657 0.93976 0.79126 0.0
H2082 H 0.67614 0.87792 0.70697 0.0
H2083 H 0.65674 0.8536 0.72022 0.0
H2084 H 0.64309 0.87296 0.69976 0.0
H2085 H 0.68631 0.9247 0.81625 0.0
H2086 H 0.68681 0.89185 0.80942 0.0
H2087 H 0.70931 0.91552 0.79887 0.0
H2088 H 0.6958 0.81439 0.77119 0.0
H2089 H 0.74886 0.87046 0.74407 0.0
H2090 H 0.64551 0.84017 0.76029 0.0
H2091 H 0.65694 0.85469 0.79053 0.0
H2092 H 0.65836 0.82224 0.78274 0.0
H2093 H 0.71165 0.90971 0.72633 0.0
H2094 H 0.743 0.91156 0.73976 0.0
H2095 H 0.72112 0.92265 0.75741 0.0
C2096 C 0.6811 0.95549 0.5214 0.0
C2097 C 0.70213 0.95614 0.50936 0.0
C2098 C 0.66389 0.9703 0.51488 0.0
C2099 C 0.6679 0.98645 0.49602 0.0
C2100 C 0.68937 0.9877 0.48416 0.0
C2101 C 0.70618 0.9724 0.49088 0.0
C2102 C 0.64113 0.96824 0.52788 0.0
C2103 C 0.69435 0.00488 0.46417 0.0
C2104 C 0.60813 0.00199 0.46831 0.0
C2105 C 0.60766 0.02404 0.48289 0.0
C2106 C 0.6286 0.99048 0.47101 0.0
C2107 C 0.64907 0.00141 0.48861 0.0
C2108 C 0.64959 0.02495 0.50167 0.0
C2109 C 0.62879 0.03598 0.4987 0.0
C2110 C 0.62729 0.96546 0.4566 0.0
C2111 C 0.67121 0.03745 0.5203 0.0
H2112 H 0.67774 0.94295 0.53564 0.0
H2113 H 0.72241 0.97306 0.48152 0.0
H2114 H 0.64008 0.98701 0.5365 0.0
H2115 H 0.62431 0.96169 0.51446 0.0
H2116 H 0.64089 0.95496 0.54229 0.0
H2117 H 0.71254 0.0047 0.4577 0.0
H2118 H 0.67972 -0.00101 0.44836 0.0
H2119 H 0.69383 0.0245 0.47081 0.0
H2120 H 0.59183 0.99277 0.45598 0.0
H2121 H 0.62851 0.05311 0.50991 0.0
H2122 H 0.62388 0.95016 0.46886 0.0
H2123 H 0.64501 0.96482 0.44938 0.0
H2124 H 0.61222 0.9616 0.44104 0.0
H2125 H 0.67089 0.02711 0.53694 0.0
H2126 H 0.67066 0.05739 0.52575 0.0
H2127 H 0.68893 0.03684 0.51304 0.0
C2128 C 0.31857 0.47829 0.73457 0.0
C2129 C 0.34416 0.48003 0.73536 0.0
C2130 C 0.30259 0.455 0.73627 0.0
C2131 C 0.31247 0.43305 0.73898 0.0
C2132 C 0.33818 0.43469 0.73929 0.0
C2133 C 0.35358 0.45799 0.73738 0.0
C2134 C 0.27524 0.45393 0.73556 0.0
C2135 C 0.34961 0.41186 0.74215 0.0
C2136 C 0.28271 0.37589 0.76894 0.0
C2137 C 0.27565 0.35764 0.74878 0.0
C2138 C 0.29317 0.40105 0.76588 0.0
C2139 C 0.29644 0.40825 0.74206 0.0
C2140 C 0.28764 0.39033 0.72153 0.0
C2141 C 0.27752 0.36524 0.72513 0.0
C2142 C 0.3024 0.41945 0.78831 0.0
C2143 C 0.2904 0.39721 0.6958 0.0
H2144 H 0.31109 0.49515 0.73303 0.0
H2145 H 0.37326 0.45892 0.7379 0.0
H2146 H 0.26481 0.43911 0.72131 0.0
H2147 H 0.26922 0.44879 0.75338 0.0
H2148 H 0.27025 0.47221 0.73175 0.0
H2149 H 0.36993 0.41629 0.74191 0.0
H2150 H 0.34573 0.40405 0.75969 0.0
H2151 H 0.34134 0.3969 0.72717 0.0
H2152 H 0.28129 0.37031 0.78729 0.0
H2153 H 0.27183 0.3514 0.70938 0.0
H2154 H 0.2965 0.43755 0.78589 0.0
H2155 H 0.3229 0.42355 0.79101 0.0
H2156 H 0.29569 0.41197 0.80512 0.0
H2157 H 0.28487 0.41545 0.69306 0.0
H2158 H 0.27917 0.38254 0.6818 0.0
H2159 H 0.31006 0.39947 0.69274 0.0
C2160 C 0.17288 0.56093 0.26561 0.0
C2161 C 0.15002 0.56545 0.27117 0.0
C2162 C 0.19252 0.58109 0.26346 0.0
C2163 C 0.18902 0.60619 0.26672 0.0
C2164 C 0.16639 0.61078 0.27351 0.0
C2165 C 0.14731 0.59042 0.27579 0.0
C2166 C 0.21658 0.57551 0.25672 0.0
C2167 C 0.1618 0.63723 0.2772 0.0
C2168 C 0.23734 0.66663 0.2768 0.0
C2169 C 0.23437 0.67591 0.25384 0.0
C2170 C 0.22444 0.64264 0.28077 0.0
C2171 C 0.20794 0.62788 0.26139 0.0
C2172 C 0.20644 0.63643 0.2377 0.0
C2173 C 0.21982 0.66035 0.23418 0.0
C2174 C 0.22701 0.63402 0.30615 0.0
C2175 C 0.18899 0.62137 0.21656 0.0
H2176 H 0.17517 0.5417 0.26209 0.0
H2177 H 0.12985 0.59418 0.2804 0.0
H2178 H 0.21832 0.57922 0.23741 0.0
H2179 H 0.23247 0.58801 0.2683 0.0
H2180 H 0.21777 0.55557 0.25871 0.0
H2181 H 0.14346 0.63756 0.28326 0.0
H2182 H 0.17623 0.64886 0.29109 0.0
H2183 H 0.1628 0.64623 0.25981 0.0
H2184 H 0.24884 0.67858 0.29199 0.0
H2185 H 0.21762 0.66747 0.21639 0.0
H2186 H 0.22781 0.61374 0.30529 0.0
H2187 H 0.21066 0.63639 0.31522 0.0
H2188 H 0.24379 0.64506 0.31771 0.0
H2189 H 0.1908 0.60138 0.21534 0.0
H2190 H 0.19232 0.62898 0.19878 0.0
H2191 H 0.16968 0.62177 0.21961 0.0
C2192 C 0.5413 0.71207 0.40197 0.0
C2193 C 0.52618 0.72671 0.41223 0.0
C2194 C 0.54671 0.69101 0.4132 0.0
C2195 C 0.5368 0.68472 0.4351 0.0
C2196 C 0.52299 0.70052 0.44632 0.0
C2197 C 0.51786 0.72126 0.43475 0.0
C2198 C 0.56173 0.67468 0.40089 0.0
C2199 C 0.51213 0.6946 0.46972 0.0
C2200 C 0.51572 0.61751 0.44882 0.0
C2201 C 0.533 0.61567 0.46867 0.0
C2202 C 0.51773 0.63941 0.43671 0.0
C2203 C 0.53756 0.66001 0.44465 0.0
C2204 C 0.55581 0.6578 0.46391 0.0
C2205 C 0.55327 0.63556 0.47581 0.0
C2206 C 0.49777 0.641 0.41635 0.0
C2207 C 0.57728 0.67931 0.47273 0.0
H2208 H 0.54795 0.71634 0.38468 0.0
H2209 H 0.50659 0.73283 0.44307 0.0
H2210 H 0.57548 0.66932 0.41452 0.0
H2211 H 0.54933 0.65704 0.39215 0.0
H2212 H 0.57152 0.68428 0.38657 0.0
H2213 H 0.50394 0.71011 0.47729 0.0
H2214 H 0.49745 0.67724 0.46612 0.0
H2215 H 0.52646 0.691 0.48383 0.0
H2216 H 0.50014 0.60203 0.44312 0.0
H2217 H 0.56675 0.63401 0.49104 0.0
H2218 H 0.50606 0.64777 0.40003 0.0
H2219 H 0.48683 0.65476 0.42247 0.0
H2220 H 0.48497 0.62254 0.41086 0.0
H2221 H 0.5856 0.68758 0.45699 0.0
H2222 H 0.59181 0.67327 0.48494 0.0
H2223 H 0.57064 0.69441 0.48303 0.0
C2224 C 0.59067 0.28582 0.68595 0.0
C2225 C 0.567 0.28329 0.6934 0.0
C2226 C 0.6117 0.28746 0.70277 0.0
C2227 C 0.60935 0.28707 0.72803 0.0
C2228 C 0.5857 0.28539 0.73596 0.0
C2229 C 0.56468 0.28319 0.71848 0.0
C2230 C 0.63643 0.28894 0.69329 0.0
C2231 C 0.58257 0.28553 0.76278 0.0
C2232 C 0.66363 0.26444 0.75909 0.0
C2233 C 0.68113 0.28715 0.7643 0.0
C2234 C 0.63917 0.26419 0.74948 0.0
C2235 C 0.63187 0.28724 0.74542 0.0
C2236 C 0.64866 0.31028 0.75337 0.0
C2237 C 0.6732 0.30998 0.76243 0.0
C2238 C 0.62207 0.23915 0.74106 0.0
C2239 C 0.64143 0.33529 0.75015 0.0
H2240 H 0.59284 0.28587 0.66667 0.0
H2241 H 0.54653 0.28134 0.72443 0.0
H2242 H 0.64947 0.30643 0.70143 0.0
H2243 H 0.64458 0.27277 0.69871 0.0
H2244 H 0.635 0.28876 0.67303 0.0
H2245 H 0.56389 0.28814 0.76624 0.0
H2246 H 0.58535 0.2674 0.76943 0.0
H2247 H 0.59662 0.30076 0.7737 0.0
H2248 H 0.66944 0.24665 0.76057 0.0
H2249 H 0.68646 0.32766 0.76678 0.0
H2250 H 0.62053 0.2359 0.7208 0.0
H2251 H 0.60327 0.23905 0.746 0.0
H2252 H 0.62892 0.22326 0.74906 0.0
H2253 H 0.64206 0.33949 0.73081 0.0
H2254 H 0.65416 0.35089 0.76203 0.0
H2255 H 0.62229 0.33475 0.75438 0.0
C2256 C 0.04857 0.37912 0.91023 0.0
C2257 C 0.03005 0.36873 0.891 0.0
C2258 C 0.04881 0.40275 0.92251 0.0
C2259 C 0.02976 0.41567 0.91556 0.0
C2260 C 0.0129 0.4065 0.89425 0.0
C2261 C 0.01332 0.38308 0.88219 0.0
C2262 C 0.06765 0.41226 0.94463 0.0
C2263 C 0.99228 0.4196 0.88612 0.0
C2264 C 0.00077 0.44597 0.96574 0.0
C2265 C 0.00805 0.47157 0.96278 0.0
C2266 C 0.00836 0.42766 0.95089 0.0
C2267 C 0.02404 0.43524 0.93296 0.0
C2268 C 0.03221 0.46116 0.93053 0.0
C2269 C 0.02358 0.47902 0.94507 0.0
C2270 C -0.00102 0.40016 0.95394 0.0
C2271 C 0.04965 0.46998 0.91233 0.0
H2272 H 0.06131 0.36779 0.91722 0.0
H2273 H -0.00117 0.37476 0.86746 0.0
H2274 H 0.07184 0.43314 0.94754 0.0
H2275 H 0.06025 0.40487 0.96116 0.0
H2276 H 0.08507 0.40562 0.94279 0.0
H2277 H 0.98322 0.41226 0.86735 0.0
H2278 H 0.97812 0.41657 0.89892 0.0
H2279 H -0.00078 0.4402 0.88651 0.0
H2280 H 0.98873 0.44019 0.9794 0.0
H2281 H 0.02878 0.49881 0.94233 0.0
H2282 H 0.01475 0.3908 0.95807 0.0
H2283 H 0.98816 0.39051 0.9366 0.0
H2284 H 0.98708 0.39749 0.96885 0.0
H2285 H 0.0655 0.46034 0.91391 0.0
H2286 H 0.05685 0.49068 0.91505 0.0
H2287 H 0.03998 0.46508 0.89343 0.0
C2288 C 0.9168 0.75746 0.19687 0.0
C2289 C 0.93514 0.77962 0.19954 0.0
C2290 C 0.89493 0.75634 0.20785 0.0
C2291 C 0.89132 0.77781 0.22203 0.0
C2292 C 0.90986 0.80013 0.22497 0.0
C2293 C 0.93143 0.80078 0.21368 0.0
C2294 C 0.87556 0.73225 0.20406 0.0
C2295 C 0.90683 0.82346 0.23992 0.0
C2296 C 0.82609 0.78431 0.2325 0.0
C2297 C 0.8248 0.77726 0.25633 0.0
C2298 C 0.84744 0.78423 0.22098 0.0
C2299 C 0.86813 0.77707 0.23369 0.0
C2300 C 0.86691 0.77003 0.25787 0.0
C2301 C 0.84533 0.77041 0.26895 0.0
C2302 C 0.84801 0.7923 0.19539 0.0
C2303 C 0.88849 0.76231 0.27211 0.0
H2304 H 0.91936 0.74103 0.18591 0.0
H2305 H 0.94543 0.818 0.21592 0.0
H2306 H 0.85809 0.7358 0.19464 0.0
H2307 H 0.88134 0.71704 0.193 0.0
H2308 H 0.87156 0.72556 0.22203 0.0
H2309 H 0.92301 0.83926 0.24061 0.0
H2310 H 0.89011 0.82976 0.23207 0.0
H2311 H 0.90419 0.81914 0.25893 0.0
H2312 H 0.81072 0.79076 0.22314 0.0
H2313 H 0.84446 0.76522 0.2875 0.0
H2314 H 0.85242 0.77724 0.18302 0.0
H2315 H 0.86278 0.80931 0.19547 0.0
H2316 H 0.83018 0.79664 0.18776 0.0
H2317 H 0.89364 0.74627 0.26174 0.0
H2318 H 0.88439 0.75671 0.29044 0.0
H2319 H 0.90479 0.77813 0.27457 0.0
C2320 C 0.48399 0.37576 0.09119 0.0
C2321 C 0.48282 0.35053 0.08289 0.0
C2322 C 0.48387 0.39412 0.07463 0.0
C2323 C 0.48237 0.38695 0.04923 0.0
C2324 C 0.48038 0.36142 0.04069 0.0
C2325 C 0.48068 0.34349 0.05765 0.0
C2326 C 0.48601 0.42128 0.08433 0.0
C2327 C 0.47862 0.35315 0.01372 0.0
C2328 C 0.46672 0.43517 0.00721 0.0
C2329 C 0.49035 0.44747 0.00337 0.0
C2330 C 0.46369 0.41465 0.02141 0.0
C2331 C 0.48481 0.40654 0.03188 0.0
C2332 C 0.5086 0.41817 0.02691 0.0
C2333 C 0.51104 0.43849 0.01257 0.0
C2334 C 0.43805 0.40239 0.02604 0.0
C2335 C 0.53154 0.40954 0.03711 0.0
H2336 H 0.48554 0.38129 0.11066 0.0
H2337 H 0.47959 0.32397 0.0511 0.0
H2338 H 0.50191 0.43343 0.07765 0.0
H2339 H 0.46917 0.4279 0.07737 0.0
H2340 H 0.48844 0.42392 0.10467 0.0
H2341 H 0.47472 0.3323 0.00995 0.0
H2342 H 0.4639 0.36055 0.0032 0.0
H2343 H 0.49627 0.36096 0.00681 0.0
H2344 H 0.45074 0.44225 5e-05 0.0
H2345 H 0.52925 0.44786 0.0091 0.0
H2346 H 0.43564 0.4075 0.04533 0.0
H2347 H 0.43533 0.38156 0.02339 0.0
H2348 H 0.42356 0.40842 0.01379 0.0
H2349 H 0.53144 0.40692 0.05686 0.0
H2350 H 0.54872 0.42307 0.03479 0.0
H2351 H 0.53199 0.39105 0.02748 0.0
C2352 C 0.95321 0.25507 0.38671 0.0
C2353 C 0.94843 0.26029 0.41081 0.0
C2354 C 0.93563 0.25577 0.3667 0.0
C2355 C 0.91291 0.26215 0.37093 0.0
C2356 C 0.90775 0.26688 0.39521 0.0
C2357 C 0.92552 0.26573 0.41487 0.0
C2358 C 0.94154 0.25022 0.34104 0.0
C2359 C 0.88373 0.27389 0.40042 0.0
C2360 C 0.87654 0.29212 0.32365 0.0
C2361 C 0.85644 0.27232 0.31569 0.0
C2362 C 0.89571 0.28876 0.34097 0.0
C2363 C 0.89477 0.26494 0.35011 0.0
C2364 C 0.87526 0.24446 0.34085 0.0
C2365 C 0.85616 0.24849 0.32387 0.0
C2366 C 0.91616 0.31107 0.35052 0.0
C2367 C 0.87391 0.21866 0.34977 0.0
H2368 H 0.97082 0.25065 0.38345 0.0
H2369 H 0.92173 0.26983 0.43343 0.0
H2370 H 0.92663 0.23541 0.33072 0.0
H2371 H 0.94259 0.26736 0.33112 0.0
H2372 H 0.95934 0.24389 0.34095 0.0
H2373 H 0.8824 0.27648 0.42035 0.0
H2374 H 0.88193 0.29167 0.39235 0.0
H2375 H 0.86788 0.25906 0.39175 0.0
H2376 H 0.8767 0.31055 0.31727 0.0
H2377 H 0.84065 0.23315 0.3175 0.0
H2378 H 0.93445 0.30612 0.34948 0.0
H2379 H 0.91494 0.31638 0.37008 0.0
H2380 H 0.91519 0.32773 0.34018 0.0
H2381 H 0.8919 0.21284 0.34943 0.0
H2382 H 0.85933 0.20415 0.33855 0.0
H2383 H 0.86985 0.21924 0.36903 0.0
C2384 C 0.95711 0.67251 0.55706 0.0
C2385 C 0.96265 0.69857 0.55558 0.0
C2386 C 0.95751 0.65568 0.53686 0.0
C2387 C 0.96318 0.6652 0.51441 0.0
C2388 C 0.96539 0.69124 0.51189 0.0
C2389 C 0.96542 0.70778 0.53268 0.0
C2390 C 0.95424 0.62792 0.5404 0.0
C2391 C 0.96937 0.70208 0.48789 0.0
C2392 C 0.00386 0.62453 0.49218 0.0
C2393 C 0.98579 0.60332 0.4827 0.0
C2394 C 0.99709 0.64713 0.49943 0.0
C2395 C 0.97179 0.64849 0.4963 0.0
C2396 C 0.95448 0.62893 0.48195 0.0
C2397 C 0.96152 0.60608 0.4759 0.0
C2398 C 0.01645 0.66795 0.51384 0.0
C2399 C 0.92795 0.63093 0.47571 0.0
H2400 H 0.95413 0.6652 0.57452 0.0
H2401 H 0.96895 0.72791 0.53118 0.0
H2402 H 0.97141 0.6213 0.53741 0.0
H2403 H 0.94971 0.62377 0.55899 0.0
H2404 H 0.93915 0.61678 0.52694 0.0
H2405 H 0.95813 0.71663 0.48499 0.0
H2406 H 0.98901 0.7116 0.4885 0.0
H2407 H 0.96451 0.68749 0.47204 0.0
H2408 H 0.02279 0.62264 0.49691 0.0
H2409 H 0.94764 0.5899 0.46768 0.0
H2410 H 0.01328 0.66909 0.53339 0.0
H2411 H 0.01521 0.68634 0.50692 0.0
H2412 H 0.03546 0.66481 0.51282 0.0
H2413 H 0.91688 0.62282 0.48987 0.0
H2414 H 0.91997 0.62008 0.45785 0.0
H2415 H 0.92622 0.65086 0.47486 0.0
C2416 C 0.56433 0.78674 0.86325 0.0
C2417 C 0.56566 0.77724 0.88625 0.0
C2418 C 0.58248 0.7851 0.84772 0.0
C2419 C 0.6024 0.77363 0.85535 0.0
C2420 C 0.60379 0.76388 0.87847 0.0
C2421 C 0.58544 0.76584 0.89364 0.0
C2422 C 0.58046 0.79583 0.82325 0.0
C2423 C 0.62477 0.75155 0.88726 0.0
C2424 C 0.64045 0.75095 0.80826 0.0
C2425 C 0.66145 0.77041 0.81153 0.0
C2426 C 0.62089 0.75181 0.82225 0.0
C2427 C 0.6224 0.77274 0.83965 0.0
C2428 C 0.64341 0.79265 0.84257 0.0
C2429 C 0.66272 0.79118 0.82855 0.0
C2430 C 0.59879 0.73021 0.81869 0.0
C2431 C 0.64566 0.81541 0.8607 0.0
H2432 H 0.54909 0.79552 0.85734 0.0
H2433 H 0.58659 0.75835 0.91133 0.0
H2434 H 0.5968 0.81104 0.82243 0.0
H2435 H 0.5803 0.78101 0.80829 0.0
H2436 H 0.56353 0.80364 0.81979 0.0
H2437 H 0.62273 0.74419 0.90537 0.0
H2438 H 0.62581 0.73573 0.87381 0.0
H2439 H 0.64256 0.76534 0.88876 0.0
H2440 H 0.63946 0.73492 0.79506 0.0
H2441 H 0.67888 0.80637 0.83093 0.0
H2442 H 0.58165 0.73729 0.81399 0.0
H2443 H 0.597 0.72122 0.83602 0.0
H2444 H 0.60016 0.71564 0.80401 0.0
H2445 H 0.62959 0.82443 0.85694 0.0
H2446 H 0.66283 0.82966 0.86011 0.0
H2447 H 0.64557 0.80949 0.87954 0.0
C2448 C 0.4539 0.58089 0.68198 0.0
C2449 C 0.42831 0.57174 0.67927 0.0
C2450 C 0.46692 0.5824 0.66159 0.0
C2451 C 0.45407 0.57391 0.63801 0.0
C2452 C 0.4279 0.56689 0.63499 0.0
C2453 C 0.41524 0.56602 0.65577 0.0
C2454 C 0.49469 0.59065 0.66562 0.0
C2455 C 0.4135 0.55778 0.61014 0.0
C2456 C 0.4876 0.57836 0.58122 0.0
C2457 C 0.49287 0.55417 0.57827 0.0
C2458 C 0.47536 0.58539 0.60082 0.0
C2459 C 0.46814 0.56776 0.6177 0.0
C2460 C 0.47429 0.54369 0.6153 0.0
C2461 C 0.48665 0.53727 0.59574 0.0
C2462 C 0.46938 0.6113 0.60291 0.0
C2463 C 0.46711 0.52432 0.63298 0.0
H2464 H 0.46396 0.58535 0.70024 0.0
H2465 H 0.39548 0.55872 0.65374 0.0
H2466 H 0.50315 0.57383 0.66419 0.0
H2467 H 0.5013 0.60287 0.65142 0.0
H2468 H 0.5013 0.60101 0.68398 0.0
H2469 H 0.3934 0.55689 0.61026 0.0
H2470 H 0.42018 0.57024 0.59616 0.0
H2471 H 0.41626 0.53862 0.6045 0.0
H2472 H 0.4921 0.59148 0.56768 0.0
H2473 H 0.49072 0.51859 0.59368 0.0
H2474 H 0.47443 0.62023 0.62198 0.0
H2475 H 0.44921 0.6097 0.59821 0.0
H2476 H 0.4791 0.62386 0.59043 0.0
H2477 H 0.4753 0.53191 0.65191 0.0
H2478 H 0.47326 0.50647 0.6285 0.0
H2479 H 0.44675 0.51996 0.63273 0.0
C2480 C 0.80994 0.21369 0.92168 0.0
C2481 C 0.80476 0.22819 0.94181 0.0
C2482 C 0.80761 0.22176 0.89786 0.0
C2483 C 0.79973 0.24469 0.89416 0.0
C2484 C 0.79561 0.25981 0.91462 0.0
C2485 C 0.79836 0.25152 0.93803 0.0
C2486 C 0.81266 0.20535 0.87657 0.0
C2487 C 0.78723 0.28439 0.91175 0.0
C2488 C 0.80631 0.28194 0.83858 0.0
C2489 C 0.78205 0.27639 0.82663 0.0
C2490 C 0.81283 0.27035 0.85963 0.0
C2491 C 0.79463 0.25285 0.86907 0.0
C2492 C 0.77038 0.24628 0.8563 0.0
C2493 C 0.76439 0.25817 0.83528 0.0
C2494 C 0.83892 0.2777 0.87245 0.0
C2495 C 0.75032 0.22785 0.86568 0.0
H2496 H 0.81482 0.19564 0.92435 0.0
H2497 H 0.7946 0.26311 0.95342 0.0
H2498 H 0.79506 0.19703 0.86482 0.0
H2499 H 0.82486 0.21676 0.86508 0.0
H2500 H 0.82141 0.18979 0.8827 0.0
H2501 H 0.78538 0.29422 0.9296 0.0
H2502 H 0.80052 0.2972 0.90239 0.0
H2503 H 0.76908 0.28078 0.90017 0.0
H2504 H 0.82013 0.29578 0.83173 0.0
H2505 H 0.74558 0.25398 0.82624 0.0
H2506 H 0.84662 0.26061 0.87509 0.0
H2507 H 0.83899 0.28733 0.89089 0.0
H2508 H 0.85123 0.29051 0.8621 0.0
H2509 H 0.75692 0.21054 0.87014 0.0
H2510 H 0.73341 0.22242 0.85218 0.0
H2511 H 0.74536 0.23646 0.8828 0.0
C2512 C 0.0483 0.50951 0.17897 0.0
C2513 C 0.05943 0.49153 0.19037 0.0
C2514 C 0.04222 0.50781 0.15355 0.0
C2515 C 0.04674 0.48721 0.13884 0.0
C2516 C 0.05705 0.46835 0.15015 0.0
C2517 C 0.0636 0.47089 0.17581 0.0
C2518 C 0.03164 0.52863 0.1424 0.0
C2519 C 0.06153 0.44577 0.13512 0.0
C2520 C 0.01059 0.48368 0.07601 0.0
C2521 C 0.02822 0.49766 0.06326 0.0
C2522 C 0.01699 0.47771 0.09993 0.0
C2523 C 0.04143 0.48657 0.11164 0.0
C2524 C 0.05965 0.49917 0.09821 0.0
C2525 C 0.05288 0.5043 0.07411 0.0
C2526 C 0.99716 0.46352 0.11326 0.0
C2527 C 0.08583 0.50936 0.11 0.0
H2528 H 0.045 0.52563 0.18987 0.0
H2529 H 0.07213 0.45689 0.18441 0.0
H2530 H 0.04382 0.53752 0.12941 0.0
H2531 H 0.01327 0.52078 0.13189 0.0
H2532 H 0.02956 0.54353 0.15642 0.0
H2533 H 0.06661 0.43128 0.14678 0.0
H2534 H 0.04482 0.43709 0.12221 0.0
H2535 H 0.07671 0.4518 0.12401 0.0
H2536 H 0.99156 0.47812 0.06761 0.0
H2537 H 0.06667 0.51507 0.0644 0.0
H2538 H 0.99108 0.47692 0.12622 0.0
H2539 H 0.00436 0.44951 0.1241 0.0
H2540 H 0.98079 0.45363 0.10043 0.0
H2541 H 0.08615 0.5258 0.12327 0.0
H2542 H 0.09846 0.51551 0.09632 0.0
H2543 H 0.09298 0.495 0.12032 0.0
C2544 C 0.73049 0.82049 0.46742 0.0
C2545 C 0.72611 0.84434 0.47456 0.0
C2546 C 0.73035 0.81257 0.44271 0.0
C2547 C 0.72557 0.82885 0.42473 0.0
C2548 C 0.71891 0.85195 0.43161 0.0
C2549 C 0.7193 0.85949 0.45654 0.0
C2550 C 0.73738 0.7877 0.43608 0.0
C2551 C 0.71323 0.86956 0.41284 0.0
C2552 C 0.76153 0.82451 0.37085 0.0
C2553 C 0.74393 0.80887 0.35349 0.0
C2554 C 0.7555 0.83172 0.3939 0.0
C2555 C 0.73117 0.82329 0.39952 0.0
C2556 C 0.71305 0.80821 0.38169 0.0
C2557 C 0.71973 0.80095 0.35886 0.0
C2558 C 0.77538 0.84775 0.4125 0.0
C2559 C 0.68686 0.79925 0.38693 0.0
H2560 H 0.73536 0.80848 0.48122 0.0
H2561 H 0.71565 0.87784 0.46191 0.0
H2562 H 0.72431 0.77678 0.42066 0.0
H2563 H 0.75603 0.79124 0.43001 0.0
H2564 H 0.7377 0.77601 0.45179 0.0
H2565 H 0.70421 0.88437 0.4205 0.0
H2566 H 0.73065 0.87893 0.40642 0.0
H2567 H 0.70106 0.85899 0.39663 0.0
H2568 H 0.7802 0.83072 0.36658 0.0
H2569 H 0.70605 0.78905 0.34525 0.0
H2570 H 0.77871 0.83713 0.42856 0.0
H2571 H 0.76932 0.865 0.41919 0.0
H2572 H 0.7931 0.85346 0.40488 0.0
H2573 H 0.68644 0.78496 0.40035 0.0
H2574 H 0.67431 0.79069 0.37015 0.0
H2575 H 0.67966 0.81511 0.3952 0.0
C2576 C 0.4445 0.58789 0.81788 0.0
C2577 C 0.41963 0.57812 0.80927 0.0
C2578 C 0.45338 0.58777 0.8426 0.0
C2579 C 0.43706 0.57677 0.85864 0.0
C2580 C 0.41139 0.56979 0.8506 0.0
C2581 C 0.40289 0.57081 0.82587 0.0
C2582 C 0.48072 0.59636 0.85068 0.0
C2583 C 0.39337 0.55798 0.86711 0.0
C2584 C 0.46448 0.53392 0.89973 0.0
C2585 C 0.46812 0.54782 0.92259 0.0
C2586 C 0.45392 0.54306 0.87896 0.0
C2587 C 0.44741 0.56701 0.88105 0.0
C2588 C 0.45135 0.58131 0.90411 0.0
C2589 C 0.46133 0.5713 0.92477 0.0
C2590 C 0.44981 0.52703 0.85473 0.0
C2591 C 0.44514 0.60708 0.90697 0.0
H2592 H 0.45737 0.59363 0.80492 0.0
H2593 H 0.38366 0.5631 0.81906 0.0
H2594 H 0.48424 0.60599 0.86953 0.0
H2595 H 0.4895 0.57971 0.85078 0.0
H2596 H 0.48972 0.60933 0.83812 0.0
H2597 H 0.37402 0.5584 0.85997 0.0
H2598 H 0.3948 0.53801 0.86834 0.0
H2599 H 0.39766 0.56768 0.8859 0.0
H2600 H 0.46962 0.51569 0.89813 0.0
H2601 H 0.4641 0.58199 0.94256 0.0
H2602 H 0.46113 0.53688 0.84159 0.0
H2603 H 0.43017 0.52395 0.84675 0.0
H2604 H 0.45476 0.50836 0.85655 0.0
H2605 H 0.45292 0.61889 0.89296 0.0
H2606 H 0.45225 0.61701 0.92543 0.0
H2607 H 0.42482 0.60524 0.9041 0.0
C2608 C 0.83085 0.25156 0.08786 0.0
C2609 C 0.82367 0.22598 0.07922 0.0
C2610 C 0.83008 0.25976 0.11245 0.0
C2611 C 0.82121 0.24202 0.12868 0.0
C2612 C 0.81603 0.21593 0.12055 0.0
C2613 C 0.81756 0.20819 0.09591 0.0
C2614 C 0.83649 0.28766 0.12039 0.0
C2615 C 0.80649 0.19636 0.13714 0.0
C2616 C 0.82143 0.26415 0.19621 0.0
C2617 C 0.79774 0.26956 0.19615 0.0
C2618 C 0.82947 0.25515 0.17451 0.0
C2619 C 0.8133 0.25102 0.15226 0.0
C2620 C 0.78933 0.25626 0.15218 0.0
C2621 C 0.78197 0.26559 0.17397 0.0
C2622 C 0.85521 0.25003 0.1754 0.0
C2623 C 0.77129 0.25189 0.129 0.0
H2624 H 0.8355 0.26536 0.07496 0.0
H2625 H 0.81163 0.18844 0.08922 0.0
H2626 H 0.81925 0.29476 0.12168 0.0
H2627 H 0.84748 0.29143 0.13877 0.0
H2628 H 0.84707 0.29843 0.10723 0.0
H2629 H 0.80617 0.17692 0.12918 0.0
H2630 H 0.81802 0.19976 0.15521 0.0
H2631 H 0.78742 0.19772 0.14033 0.0
H2632 H 0.83373 0.26687 0.21324 0.0
H2633 H 0.76352 0.26934 0.17362 0.0
H2634 H 0.86511 0.26 0.16136 0.0
H2635 H 0.85422 0.22959 0.17111 0.0
H2636 H 0.86616 0.25603 0.19366 0.0
H2637 H 0.77882 0.26411 0.11518 0.0
H2638 H 0.75302 0.25591 0.13221 0.0
H2639 H 0.76855 0.23205 0.12108 0.0
C2640 C 0.03224 0.49595 0.32947 0.0
C2641 C 0.05551 0.49112 0.32587 0.0
C2642 C 0.02429 0.49621 0.35272 0.0
C2643 C 0.04003 0.49165 0.37308 0.0
C2644 C 0.06298 0.48527 0.36939 0.0
C2645 C 0.07044 0.48499 0.34575 0.0
C2646 C -0.00047 0.50272 0.35566 0.0
C2647 C 0.08022 0.48016 0.3906 0.0
C2648 C 0.02796 0.52444 0.43233 0.0
C2649 C 0.01199 0.50507 0.44149 0.0
C2650 C 0.03857 0.51991 0.41088 0.0
C2651 C 0.03291 0.49545 0.3982 0.0
C2652 C 0.01782 0.47553 0.40815 0.0
C2653 C 0.0075 0.48061 0.42966 0.0
C2654 C 0.05474 0.54167 0.40108 0.0
C2655 C 0.01148 0.44915 0.39541 0.0
H2656 H 0.02051 0.5005 0.31414 0.0
H2657 H 0.08852 0.48142 0.34313 0.0
H2658 H 0.98842 0.48834 0.36548 0.0
H2659 H 0.00229 0.52109 0.36683 0.0
H2660 H 0.98879 0.50403 0.33778 0.0
H2661 H 0.09567 0.47219 0.38436 0.0
H2662 H 0.08812 0.49801 0.40227 0.0
H2663 H 0.07008 0.46692 0.4022 0.0
H2664 H 0.0314 0.54339 0.44135 0.0
H2665 H 0.99535 0.4655 0.43686 0.0
H2666 H 0.04488 0.5466 0.38411 0.0
H2667 H 0.07197 0.53631 0.39623 0.0
H2668 H 0.05972 0.55867 0.41448 0.0
H2669 H -0.00154 0.44862 0.37858 0.0
H2670 H 0.00274 0.43518 0.40725 0.0
H2671 H 0.02826 0.44342 0.38974 0.0
C2672 C 0.68306 0.83536 0.59339 0.0
C2673 C 0.70344 0.85534 0.59945 0.0
C2674 C 0.67392 0.82042 0.61142 0.0
C2675 C 0.686 0.8254 0.6357 0.0
C2676 C 0.70427 0.84777 0.64233 0.0
C2677 C 0.71291 0.86242 0.62396 0.0
C2678 C 0.65342 0.79772 0.60371 0.0
C2679 C 0.71717 0.85434 0.66821 0.0
C2680 C 0.67901 0.7924 0.69292 0.0
C2681 C 0.69858 0.7796 0.6925 0.0
C2682 C 0.67184 0.80475 0.67261 0.0
C2683 C 0.68514 0.80487 0.65217 0.0
C2684 C 0.70228 0.78891 0.65041 0.0
C2685 C 0.70847 0.77614 0.6705 0.0
C2686 C 0.65138 0.81913 0.67356 0.0
C2687 C 0.71637 0.78767 0.62857 0.0
H2688 H 0.67579 0.82993 0.57429 0.0
H2689 H 0.72877 0.87787 0.62847 0.0
H2690 H 0.66115 0.78224 0.59543 0.0
H2691 H 0.64394 0.79087 0.61937 0.0
H2692 H 0.63961 0.80223 0.58954 0.0
H2693 H 0.72867 0.87373 0.67086 0.0
H2694 H 0.70355 0.85281 0.68157 0.0
H2695 H 0.72935 0.84089 0.67243 0.0
H2696 H 0.67072 0.79454 0.70964 0.0
H2697 H 0.72293 0.76544 0.66975 0.0
H2698 H 0.63724 0.8126 0.65744 0.0
H2699 H 0.6587 0.83946 0.67245 0.0
H2700 H 0.64233 0.81665 0.69045 0.0
H2701 H 0.70346 0.78352 0.61136 0.0
H2702 H 0.72775 0.77302 0.6294 0.0
H2703 H 0.72882 0.80617 0.62776 0.0
C2704 C 0.64719 0.42855 0.5302 0.0
C2705 C 0.65829 0.42914 0.50848 0.0
C2706 C 0.62933 0.44302 0.53435 0.0
C2707 C 0.62226 0.45849 0.51637 0.0
C2708 C 0.63329 0.45905 0.49437 0.0
C2709 C 0.65116 0.4445 0.49075 0.0
C2710 C 0.618 0.44176 0.558 0.0
C2711 C 0.62623 0.47509 0.4746 0.0
C2712 C 0.56037 0.47907 0.51404 0.0
C2713 C 0.56741 0.50438 0.52376 0.0
C2714 C 0.57788 0.46378 0.51209 0.0
C2715 C 0.60315 0.4739 0.52029 0.0
C2716 C 0.61023 0.49916 0.53107 0.0
C2717 C 0.5923 0.51409 0.53265 0.0
C2718 C 0.56941 0.43707 0.50038 0.0
C2719 C 0.6369 0.51071 0.54013 0.0
H2720 H 0.6525 0.4168 0.54406 0.0
H2721 H 0.65951 0.44515 0.47389 0.0
H2722 H 0.62139 0.46086 0.5679 0.0
H2723 H 0.5977 0.43507 0.55405 0.0
H2724 H 0.62555 0.42898 0.57023 0.0
H2725 H 0.63567 0.47265 0.45811 0.0
H2726 H 0.60599 0.47028 0.46902 0.0
H2727 H 0.63103 0.49526 0.48179 0.0
H2728 H 0.54118 0.47135 0.50717 0.0
H2729 H 0.59791 0.53362 0.54016 0.0
H2730 H 0.57559 0.42372 0.51279 0.0
H2731 H 0.57789 0.43489 0.48326 0.0
H2732 H 0.54901 0.43169 0.49589 0.0
H2733 H 0.6447 0.49866 0.55297 0.0
H2734 H 0.63921 0.52994 0.54955 0.0
H2735 H 0.64786 0.51186 0.52444 0.0
C2736 C 0.16516 0.1194 0.4773 0.0
C2737 C 0.18667 0.11191 0.47129 0.0
C2738 C 0.14371 0.1016 0.47916 0.0
C2739 C 0.14356 0.07564 0.47437 0.0
C2740 C 0.16487 0.06793 0.46732 0.0
C2741 C 0.18633 0.08619 0.46614 0.0
C2742 C 0.12146 0.1106 0.48709 0.0
C2743 C 0.16513 0.04044 0.46153 0.0
C2744 C 0.09633 0.03441 0.50629 0.0
C2745 C 0.07576 0.02932 0.48828 0.0
C2746 C 0.11908 0.04827 0.50154 0.0
C2747 C 0.12137 0.05681 0.47808 0.0
C2748 C 0.10122 0.04998 0.45927 0.0
C2749 C 0.07853 0.03653 0.46467 0.0
C2750 C 0.14001 0.05547 0.52222 0.0
C2751 C 0.10314 0.05825 0.43387 0.0
H2752 H 0.1653 0.13923 0.48144 0.0
H2753 H 0.20286 0.08031 0.46133 0.0
H2754 H 0.10516 0.10374 0.47314 0.0
H2755 H 0.11686 0.10278 0.50445 0.0
H2756 H 0.12456 0.13148 0.48995 0.0
H2757 H 0.18233 0.03771 0.45419 0.0
H2758 H 0.16346 0.03051 0.47835 0.0
H2759 H 0.14907 0.0314 0.44795 0.0
H2760 H 0.0943 0.02899 0.52461 0.0
H2761 H 0.06274 0.03241 0.45059 0.0
H2762 H 0.14309 0.076 0.52773 0.0
H2763 H 0.1574 0.05163 0.5162 0.0
H2764 H 0.13614 0.04519 0.53852 0.0
H2765 H 0.10322 0.0787 0.43425 0.0
H2766 H 0.08744 0.04796 0.42044 0.0
H2767 H 0.12066 0.05526 0.42746 0.0
C2768 C 0.20874 0.94201 0.77975 0.0
C2769 C 0.18468 0.93293 0.78505 0.0
C2770 C 0.22488 0.92555 0.77592 0.0
C2771 C 0.21687 0.89939 0.77763 0.0
C2772 C 0.19273 0.89015 0.78333 0.0
C2773 C 0.17693 0.90699 0.78685 0.0
C2774 C 0.25047 0.93613 0.76987 0.0
C2775 C 0.1836 0.86246 0.78573 0.0
C2776 C 0.25015 0.85274 0.74731 0.0
C2777 C 0.26557 0.84765 0.76726 0.0
C2778 C 0.23426 0.86963 0.75034 0.0
C2779 C 0.23388 0.88172 0.77392 0.0
C2780 C 0.24959 0.8767 0.7941 0.0
C2781 C 0.26538 0.85993 0.79048 0.0
C2782 C 0.21767 0.87429 0.72838 0.0
C2783 C 0.24947 0.88874 0.81961 0.0
H2784 H 0.21488 0.96197 0.77821 0.0
H2785 H 0.15841 0.89975 0.791 0.0
H2786 H 0.26451 0.93187 0.78392 0.0
H2787 H 0.25321 0.92704 0.75201 0.0
H2788 H 0.25381 0.95685 0.76895 0.0
H2789 H 0.16443 0.85831 0.79051 0.0
H2790 H 0.18418 0.85122 0.76827 0.0
H2791 H 0.19586 0.85601 0.80007 0.0
H2792 H 0.25055 0.84354 0.72932 0.0
H2793 H 0.27712 0.85588 0.80605 0.0
H2794 H 0.22107 0.89471 0.72594 0.0
H2795 H 0.19805 0.86846 0.73139 0.0
H2796 H 0.22053 0.8638 0.71125 0.0
H2797 H 0.25549 0.90949 0.82009 0.0
H2798 H 0.26181 0.88178 0.83354 0.0
H2799 H 0.23048 0.88487 0.82479 0.0
C2800 C 0.31188 0.9193 0.02481 0.0
C2801 C 0.28914 0.92634 0.01898 0.0
C2802 C 0.33427 0.93594 0.02361 0.0
C2803 C 0.33407 0.96038 0.01645 0.0
C2804 C 0.31127 0.9681 0.0116 0.0
C2805 C 0.28901 0.95095 0.01293 0.0
C2806 C 0.35813 0.92694 0.02908 0.0
C2807 C 0.31038 0.99409 0.00412 0.0
C2808 C 0.39694 0.0044 0.02964 0.0
C2809 C 0.40638 0.00121 0.00734 0.0
C2810 C 0.37277 0.99247 0.03251 0.0
C2811 C 0.3578 0.97692 0.01261 0.0
C2812 C 0.36691 0.97469 0.9897 0.0
C2813 C 0.39112 0.98689 0.98735 0.0
C2814 C 0.36375 0.99544 0.05718 0.0
C2815 C 0.35159 0.95828 0.96803 0.0
H2816 H 0.31224 0.90043 0.02978 0.0
H2817 H 0.27154 0.95655 0.00844 0.0
H2818 H 0.36744 0.9264 0.0123 0.0
H2819 H 0.37087 0.94021 0.04321 0.0
H2820 H 0.35514 0.90784 0.03562 0.0
H2821 H 0.29152 -0.00188 0.00353 0.0
H2822 H 0.32328 0.00863 0.01698 0.0
H2823 H 0.31641 0.99582 0.98568 0.0
H2824 H 0.40871 0.01563 0.0451 0.0
H2825 H 0.39836 0.98452 0.97005 0.0
H2826 H 0.36241 0.97747 0.0658 0.0
H2827 H 0.34502 -0.00022 0.05508 0.0
H2828 H 0.37633 0.01057 0.06976 0.0
H2829 H 0.34906 0.9382 0.97178 0.0
H2830 H 0.36035 0.96053 0.95093 0.0
H2831 H 0.33298 0.9628 0.965 0.0
C2832 C 0.81718 0.62549 0.72498 0.0
C2833 C 0.84162 0.62908 0.7364 0.0
C2834 C 0.80247 0.64342 0.72883 0.0
C2835 C 0.81224 0.6658 0.74449 0.0
C2836 C 0.83708 0.66984 0.75571 0.0
C2837 C 0.85137 0.65145 0.75165 0.0
C2838 C 0.77622 0.63818 0.71636 0.0
C2839 C 0.84847 0.69317 0.7727 0.0
C2840 C 0.77735 0.7197 0.73775 0.0
C2841 C 0.7626 0.71701 0.75685 0.0
C2842 C 0.79419 0.70386 0.73404 0.0
C2843 C 0.79607 0.68437 0.74951 0.0
C2844 C 0.78135 0.68176 0.769 0.0
C2845 C 0.76492 0.69808 0.77244 0.0
C2846 C 0.80993 0.70792 0.71347 0.0
C2847 C 0.78269 0.66141 0.78603 0.0
H2848 H 0.80931 0.6084 0.71311 0.0
H2849 H 0.87015 0.65453 0.76066 0.0
H2850 H 0.76323 0.63731 0.73032 0.0
H2851 H 0.77335 0.65374 0.70512 0.0
H2852 H 0.77147 0.62019 0.70434 0.0
H2853 H 0.86896 0.697 0.77427 0.0
H2854 H 0.84198 0.71001 0.76656 0.0
H2855 H 0.84302 0.69025 0.7912 0.0
H2856 H 0.7756 0.73409 0.72553 0.0
H2857 H 0.7536 0.69581 0.78724 0.0
H2858 H 0.80565 0.69092 0.70013 0.0
H2859 H 0.82975 0.71084 0.72083 0.0
H2860 H 0.80701 0.72444 0.70364 0.0
H2861 H 0.77737 0.64261 0.77545 0.0
H2862 H 0.77039 0.66203 0.80054 0.0
H2863 H 0.80193 0.66338 0.79487 0.0
C2864 C 0.80861 0.57612 0.01601 0.0
C2865 C 0.80933 0.59343 -0.00173 0.0
C2866 C 0.8276 0.56271 0.02015 0.0
C2867 C 0.84775 0.56684 0.00629 0.0
C2868 C 0.84826 0.58385 0.988 0.0
C2869 C 0.82904 0.59686 0.98418 0.0
C2870 C 0.82644 0.5446 0.0397 0.0
C2871 C 0.86945 0.58883 0.97283 0.0
C2872 C 0.91179 0.55814 0.02881 0.0
C2873 C 0.91339 0.5368 0.01377 0.0
C2874 C 0.88984 0.56716 0.02785 0.0
C2875 C 0.86906 0.55448 0.01142 0.0
C2876 C 0.87007 0.53183 -0.00246 0.0
C2877 C 0.89233 0.52324 -0.00113 0.0
C2878 C 0.88958 0.59134 0.04302 0.0
C2879 C 0.84823 0.51767 0.97999 0.0
H2880 H 0.7934 0.57331 0.02693 0.0
H2881 H 0.82974 0.61012 0.97038 0.0
H2882 H 0.82876 0.5259 0.03203 0.0
H2883 H 0.84182 0.5516 0.05463 0.0
H2884 H 0.80872 0.54219 0.04768 0.0
H2885 H 0.86665 0.60204 0.95883 0.0
H2886 H 0.88688 0.59697 0.98494 0.0
H2887 H 0.87184 0.57091 0.9634 0.0
H2888 H 0.92808 0.56857 0.04047 0.0
H2889 H 0.89356 0.50666 0.9873 0.0
H2890 H 0.8723 0.5898 0.05161 0.0
H2891 H 0.89036 0.60691 0.03097 0.0
H2892 H 0.90555 0.59647 0.05764 0.0
H2893 H 0.83101 0.51572 0.98875 0.0
H2894 H 0.85068 0.49861 0.97348 0.0
H2895 H 0.84582 0.5284 0.96384 0.0
C2896 C 0.20061 0.081 0.78716 0.0
C2897 C 0.1748 0.07799 0.78481 0.0
C2898 C 0.2159 0.1048 0.78594 0.0
C2899 C 0.20511 0.12602 0.78218 0.0
C2900 C 0.17912 0.12307 0.78004 0.0
C2901 C 0.16439 0.09925 0.78143 0.0
C2902 C 0.24354 0.10722 0.78846 0.0
C2903 C 0.16675 0.14507 0.77595 0.0
C2904 C 0.23827 0.1945 0.79733 0.0
C2905 C 0.24168 0.20217 0.77394 0.0
C2906 C 0.22788 0.16934 0.80051 0.0
C2907 C 0.22057 0.15135 0.77982 0.0
C2908 C 0.22525 0.15866 0.75635 0.0
C2909 C 0.23576 0.18389 0.75371 0.0
C2910 C 0.22342 0.16236 0.82588 0.0
C2911 C 0.21774 0.14017 0.73377 0.0
H2912 H 0.20887 0.06476 0.78981 0.0
H2913 H 0.14451 0.09732 0.77961 0.0
H2914 H 0.25064 0.11339 0.77137 0.0
H2915 H 0.2525 0.12187 0.8035 0.0
H2916 H 0.24913 0.08921 0.79224 0.0
H2917 H 0.14632 0.13969 0.77494 0.0
H2918 H 0.17361 0.1603 0.79102 0.0
H2919 H 0.17141 0.15296 0.75864 0.0
H2920 H 0.24293 0.20833 0.81315 0.0
H2921 H 0.23844 0.18943 0.73554 0.0
H2922 H 0.22961 0.14461 0.82943 0.0
H2923 H 0.20334 0.15907 0.82735 0.0
H2924 H 0.23311 0.17739 0.84033 0.0
H2925 H 0.22422 0.12245 0.73673 0.0
H2926 H 0.22517 0.14793 0.71737 0.0
H2927 H 0.19729 0.13526 0.72996 0.0
C2928 C 0.36652 0.97975 0.24692 0.0
C2929 C 0.35965 0.00323 0.24646 0.0
C2930 C 0.34914 0.95762 0.24804 0.0
C2931 C 0.32406 0.95881 0.24867 0.0
C2932 C 0.31673 0.98229 0.24756 0.0
C2933 C 0.33467 0.00432 0.24645 0.0
C2934 C 0.35781 0.93299 0.24906 0.0
C2935 C 0.29011 0.98419 0.24807 0.0
C2936 C 0.28381 0.89385 0.23296 0.0
C2937 C 0.28277 0.88528 0.25626 0.0
C2938 C 0.29527 0.91871 0.23018 0.0
C2939 C 0.30607 0.93525 0.25123 0.0
C2940 C 0.30331 0.9272 0.27484 0.0
C2941 C 0.29165 0.90225 0.27707 0.0
C2942 C 0.29758 0.92656 0.20469 0.0
C2943 C 0.31449 0.94424 0.29775 0.0
H2944 H 0.38572 0.97859 0.2467 0.0
H2945 H 0.32922 0.02238 0.2461 0.0
H2946 H 0.35383 0.92481 0.26641 0.0
H2947 H 0.34768 0.9192 0.23377 0.0
H2948 H 0.37791 0.93528 0.2479 0.0
H2949 H 0.28712 0.00343 0.24518 0.0
H2950 H 0.27802 0.97056 0.23375 0.0
H2951 H 0.28428 0.97921 0.266 0.0
H2952 H 0.27666 0.8808 0.21682 0.0
H2953 H 0.29066 0.89569 0.29511 0.0
H2954 H 0.31666 0.92682 0.20046 0.0
H2955 H 0.2941 0.94585 0.20336 0.0
H2956 H 0.28457 0.9134 0.1906 0.0
H2957 H 0.33486 0.94624 0.29988 0.0
H2958 H 0.30752 0.93667 0.31443 0.0
H2959 H 0.31051 0.96334 0.29645 0.0
C2960 C 0.47966 0.32507 0.57998 0.0
C2961 C 0.47743 0.32291 0.60484 0.0
C2962 C 0.4746 0.346 0.56874 0.0
C2963 C 0.4671 0.36532 0.58274 0.0
C2964 C 0.46224 0.36197 0.60715 0.0
C2965 C 0.4675 0.34065 0.61802 0.0
C2966 C 0.4799 0.34861 0.54264 0.0
C2967 C 0.45361 0.38189 0.62242 0.0
C2968 C 0.49634 0.42905 0.56505 0.0
C2969 C 0.47753 0.43433 0.54855 0.0
C2970 C 0.4926 0.40729 0.57738 0.0
C2971 C 0.46934 0.39046 0.57327 0.0
C2972 C 0.44983 0.39633 0.55754 0.0
C2973 C 0.45423 0.4182 0.54513 0.0
C2974 C 0.51404 0.40168 0.59379 0.0
C2975 C 0.42468 0.37909 0.55307 0.0
H2976 H 0.48687 0.31102 0.56964 0.0
H2977 H 0.46559 0.33887 0.6372 0.0
H2978 H 0.46469 0.35495 0.53178 0.0
H2979 H 0.49701 0.36308 0.54255 0.0
H2980 H 0.48249 0.33064 0.53341 0.0
H2981 H 0.44542 0.37422 0.6385 0.0
H2982 H 0.46957 0.39743 0.62921 0.0
H2983 H 0.43979 0.39002 0.61133 0.0
H2984 H 0.51432 0.44164 0.56787 0.0
H2985 H 0.43957 0.42249 0.53258 0.0
H2986 H 0.51959 0.38464 0.58579 0.0
H2987 H 0.50855 0.39771 0.61208 0.0
H2988 H 0.53037 0.41751 0.59626 0.0
H2989 H 0.42539 0.36237 0.54063 0.0
H2990 H 0.41043 0.38862 0.54453 0.0
H2991 H 0.41894 0.37223 0.57046 0.0
C2992 C 0.42542 0.76255 0.32136 0.0
C2993 C 0.4495 0.77327 0.31707 0.0
C2994 C 0.40478 0.76454 0.30535 0.0
C2995 C 0.40812 0.77705 0.28396 0.0
C2996 C 0.4324 0.78612 0.27836 0.0
C2997 C 0.4529 0.78433 0.29515 0.0
C2998 C 0.37933 0.75454 0.31226 0.0
C2999 C 0.43678 0.79882 0.25535 0.0
C3000 C 0.34634 0.76438 0.24459 0.0
C3001 C 0.33656 0.78482 0.2531 0.0
C3002 C 0.37097 0.76303 0.25211 0.0
C3003 C 0.38589 0.78219 0.26911 0.0
C3004 C 0.3768 0.80397 0.27585 0.0
C3005 C 0.35232 0.80514 0.26754 0.0
C3006 C 0.38025 0.74001 0.2436 0.0
C3007 C 0.39193 0.82482 0.29402 0.0
H3008 H 0.42255 0.75353 0.33802 0.0
H3009 H 0.47141 0.79259 0.29162 0.0
H3010 H 0.36955 0.77027 0.31495 0.0
H3011 H 0.36818 0.74099 0.29733 0.0
H3012 H 0.37999 0.74491 0.32934 0.0
H3013 H 0.45569 0.7989 0.25059 0.0
H3014 H 0.42313 0.78938 0.23966 0.0
H3015 H 0.43468 0.81866 0.25816 0.0
H3016 H 0.33439 0.74877 0.23309 0.0
H3017 H 0.34498 0.82106 0.27416 0.0
H3018 H 0.37909 0.72671 0.25797 0.0
H3019 H 0.39987 0.74517 0.24037 0.0
H3020 H 0.36908 0.7301 0.22651 0.0
H3021 H 0.39317 0.81804 0.31254 0.0
H3022 H 0.38367 0.84184 0.29481 0.0
H3023 H 0.411 0.83023 0.28931 0.0
C3024 C 0.97527 0.68097 0.09901 0.0
C3025 C 0.9959 0.69101 0.1162 0.0
C3026 C 0.97453 0.65873 0.08393 0.0
C3027 C 0.99491 0.6466 0.0863 0.0
C3028 C 0.01449 0.65539 0.10542 0.0
C3029 C 0.01477 0.67757 0.12004 0.0
C3030 C 0.95309 0.64965 0.06409 0.0
C3031 C 0.03639 0.64286 0.10891 0.0
C3032 C -0.00174 0.58376 0.05377 0.0
C3033 C 0.01192 0.59154 0.03474 0.0
C3034 C 0.99091 0.60136 0.06974 0.0
C3035 C 0.99795 0.62735 0.06695 0.0
C3036 C 0.011 0.63519 0.0472 0.0
C3037 C 0.01781 0.61715 0.03131 0.0
C3038 C 0.97666 0.59218 0.09026 0.0
C3039 C 0.01884 0.66275 0.04353 0.0
H3040 H 0.9608 0.69156 0.09589 0.0
H3041 H 0.03072 0.68546 0.13338 0.0
H3042 H 0.95826 0.6566 0.04655 0.0
H3043 H 0.94831 0.62876 0.06135 0.0
H3044 H 0.93649 0.65678 0.06836 0.0
H3045 H 0.04852 0.65019 0.12631 0.0
H3046 H 0.03019 0.62218 0.10889 0.0
H3047 H 0.0475 0.64626 0.09349 0.0
H3048 H 0.99396 0.56395 0.05669 0.0
H3049 H 0.02826 0.62316 0.01653 0.0
H3050 H 0.96132 0.60223 0.09207 0.0
H3051 H 0.98909 0.59618 0.10783 0.0
H3052 H 0.96893 0.57159 0.08735 0.0
H3053 H 0.00278 0.67205 0.04327 0.0
H3054 H 0.0271 0.66559 0.02623 0.0
H3055 H 0.03267 0.6723 0.05906 0.0
C3056 C 0.09399 0.31678 0.79724 0.0
C3057 C 0.08376 0.2994 0.81288 0.0
C3058 C 0.1156 0.31449 0.78697 0.0
C3059 C 0.12744 0.29441 0.79253 0.0
C3060 C 0.11713 0.27669 0.80815 0.0
C3061 C 0.09541 0.27934 0.81804 0.0
C3062 C 0.12591 0.33373 0.77034 0.0
C3063 C 0.12922 0.25508 0.81464 0.0
C3064 C 0.17163 0.27572 0.74975 0.0
C3065 C 0.19466 0.28711 0.76266 0.0
C3066 C 0.14961 0.27786 0.75928 0.0
C3067 C 0.15068 0.29202 0.78213 0.0
C3068 C 0.17399 0.30399 0.79495 0.0
C3069 C 0.19569 0.30142 0.78499 0.0
C3070 C 0.12521 0.26484 0.74499 0.0
C3071 C 0.17603 0.31948 0.8192 0.0
H3072 H 0.08517 0.33233 0.79309 0.0
H3073 H 0.08777 0.26585 0.83017 0.0
H3074 H 0.14483 0.34358 0.77822 0.0
H3075 H 0.12733 0.32421 0.75224 0.0
H3076 H 0.11434 0.34802 0.76753 0.0
H3077 H 0.13097 0.24357 0.79773 0.0
H3078 H 0.14816 0.26251 0.82413 0.0
H3079 H 0.11869 0.24266 0.82668 0.0
H3080 H 0.17088 0.26479 0.73235 0.0
H3081 H 0.21345 0.31116 0.79437 0.0
H3082 H 0.11364 0.27884 0.74086 0.0
H3083 H 0.11497 0.25116 0.75615 0.0
H3084 H 0.12753 0.25465 0.72749 0.0
H3085 H 0.16486 0.3342 0.81745 0.0
H3086 H 0.19542 0.32877 0.82612 0.0
H3087 H 0.16856 0.30721 0.83301 0.0
C3088 C 0.54242 0.69611 0.98277 0.0
C3089 C 0.51963 0.70187 0.98694 0.0
C3090 C 0.54854 0.67348 0.98951 0.0
C3091 C 0.53125 0.65621 0.00019 0.0
C3092 C 0.50853 0.66224 0.00498 0.0
C3093 C 0.50309 0.68508 -0.00153 0.0
C3094 C 0.57312 0.66773 0.98457 0.0
C3095 C 0.48948 0.64414 0.01611 0.0
C3096 C 0.52635 0.58601 0.99298 0.0
C3097 C 0.53365 0.58146 0.01695 0.0
C3098 C 0.52706 0.61058 0.98673 0.0
C3099 C 0.53577 0.63099 0.00497 0.0
C3100 C 0.54538 0.62655 0.02871 0.0
C3101 C 0.5442 0.60166 0.03445 0.0
C3102 C 0.51694 0.61452 0.96109 0.0
C3103 C 0.55538 0.64791 0.04845 0.0
H3104 H 0.55533 0.70912 0.97401 0.0
H3105 H 0.48544 0.68937 0.00173 0.0
H3106 H 0.58236 0.66126 0.00105 0.0
H3107 H 0.5702 0.65223 0.96967 0.0
H3108 H 0.58565 0.68436 0.97905 0.0
H3109 H 0.47308 0.65211 0.01937 0.0
H3110 H 0.48322 0.62649 0.00372 0.0
H3111 H 0.49771 0.63903 0.03379 0.0
H3112 H 0.52003 0.57036 0.97914 0.0
H3113 H 0.55047 0.59799 0.05289 0.0
H3114 H 0.5296 0.62971 0.95366 0.0
H3115 H 0.499 0.62045 0.96154 0.0
H3116 H 0.51398 0.5971 0.94837 0.0
H3117 H 0.56764 0.66355 0.04115 0.0
H3118 H 0.56582 0.64171 0.0644 0.0
H3119 H 0.53983 0.65548 0.05492 0.0
C3120 C 0.0663 0.79447 0.65188 0.0
C3121 C 0.05685 0.76886 0.64457 0.0
C3122 C 0.0903 0.80256 0.6642 0.0
C3123 C 0.10514 0.7846 0.66863 0.0
C3124 C 0.09607 0.75893 0.66 0.0
C3125 C 0.07187 0.75132 0.64836 0.0
C3126 C 0.09922 0.82997 0.67359 0.0
C3127 C 0.11159 0.73931 0.66383 0.0
C3128 C 0.17426 0.80048 0.68614 0.0
C3129 C 0.17589 0.79471 0.7105 0.0
C3130 C 0.15118 0.79886 0.67245 0.0
C3131 C 0.12951 0.79193 0.68375 0.0
C3132 C 0.13131 0.78841 0.70902 0.0
C3133 C 0.15456 0.7895 0.72205 0.0
C3134 C 0.14998 0.80242 0.64549 0.0
C3135 C 0.10862 0.78175 0.72188 0.0
H3136 H 0.05454 0.80798 0.64907 0.0
H3137 H 0.06456 0.73155 0.64246 0.0
H3138 H 0.1005 0.83192 0.69388 0.0
H3139 H 0.11797 0.83721 0.66873 0.0
H3140 H 0.08661 0.84192 0.66623 0.0
H3141 H 0.1026 0.72068 0.65398 0.0
H3142 H 0.12987 0.74547 0.65744 0.0
H3143 H 0.1149 0.73697 0.68365 0.0
H3144 H 0.19088 0.8046 0.6773 0.0
H3145 H 0.15599 0.78542 0.74105 0.0
H3146 H 0.13642 0.81413 0.64015 0.0
H3147 H 0.14373 0.78378 0.63471 0.0
H3148 H 0.16824 0.81137 0.6404 0.0
H3149 H 0.09545 0.79405 0.71707 0.0
H3150 H 0.11327 0.78353 0.74211 0.0
H3151 H 0.09909 0.76201 0.71582 0.0
C3152 C 0.03785 0.35593 0.47835 0.0
C3153 C 0.03314 0.33869 0.4958 0.0
C3154 C 0.03868 0.38166 0.4842 0.0
C3155 C 0.03533 0.39027 0.50823 0.0
C3156 C 0.03336 0.37331 0.52656 0.0
C3157 C 0.03193 0.3476 0.52003 0.0
C3158 C 0.04059 0.39909 0.46405 0.0
C3159 C 0.03063 0.3819 0.55256 0.0
C3160 C 0.04313 0.46117 0.52139 0.0
C3161 C 0.01859 0.46411 0.51687 0.0
C3162 C 0.0489 0.43713 0.51982 0.0
C3163 C 0.02973 0.41567 0.51298 0.0
C3164 C 0.00487 0.41851 0.50929 0.0
C3165 C -0.0004 0.44266 0.51155 0.0
C3166 C 0.07553 0.43478 0.52458 0.0
C3167 C 0.98386 0.39612 0.50173 0.0
H3168 H 0.03867 0.34906 0.45957 0.0
H3169 H 0.0285 0.33429 0.53362 0.0
H3170 H 0.02241 0.40415 0.4592 0.0
H3171 H 0.05416 0.41683 0.47027 0.0
H3172 H 0.04609 0.39027 0.44728 0.0
H3173 H 0.0342 0.3678 0.56539 0.0
H3174 H 0.04344 0.40014 0.55881 0.0
H3175 H 0.01155 0.38477 0.55347 0.0
H3176 H 0.05789 0.4777 0.52562 0.0
H3177 H 0.98062 0.44476 0.50784 0.0
H3178 H 0.08217 0.42966 0.50703 0.0
H3179 H 0.07738 0.41956 0.5366 0.0
H3180 H 0.08767 0.45264 0.53325 0.0
H3181 H 0.98631 0.38677 0.48387 0.0
H3182 H 0.96556 0.40154 0.49995 0.0
H3183 H 0.98387 0.38207 0.51534 0.0
C3184 C 0.42125 0.26835 0.18338 0.0
C3185 C 0.4297 0.27971 0.16302 0.0
C3186 C 0.4003 0.27366 0.19276 0.0
C3187 C 0.38748 0.29065 0.18138 0.0
C3188 C 0.39616 0.30264 0.16118 0.0
C3189 C 0.41729 0.29706 0.15223 0.0
C3190 C 0.39154 0.26058 0.21445 0.0
C3191 C 0.38275 0.32073 0.1486 0.0
C3192 C 0.32048 0.27787 0.1911 0.0
C3193 C 0.32076 0.29537 0.21104 0.0
C3194 C 0.34189 0.27717 0.18024 0.0
C3195 C 0.36402 0.29429 0.18977 0.0
C3196 C 0.36406 0.31294 0.20905 0.0
C3197 C 0.34226 0.3133 0.21949 0.0
C3198 C 0.34114 0.25712 0.15957 0.0
C3199 C 0.38741 0.33144 0.21963 0.0
H3200 H 0.43089 0.25511 0.19194 0.0
H3201 H 0.4238 0.30597 0.13653 0.0
H3202 H 0.38936 0.27466 0.22919 0.0
H3203 H 0.37318 0.24804 0.20889 0.0
H3204 H 0.40447 0.24907 0.22204 0.0
H3205 H 0.39296 0.3299 0.13431 0.0
H3206 H 0.36426 0.31048 0.13986 0.0
H3207 H 0.37981 0.33557 0.16217 0.0
H3208 H 0.3037 0.26414 0.18448 0.0
H3209 H 0.34234 0.32686 0.23491 0.0
H3210 H 0.35163 0.24299 0.1661 0.0
H3211 H 0.35003 0.26552 0.14419 0.0
H3212 H 0.32197 0.24719 0.15255 0.0
H3213 H 0.40017 0.32133 0.22979 0.0
H3214 H 0.38369 0.34662 0.23239 0.0
H3215 H 0.39703 0.34016 0.20481 0.0
C3216 C 0.608 0.4934 0.36943 0.0
C3217 C 0.59682 0.48349 0.3459 0.0
C3218 C 0.59427 0.49167 0.38944 0.0
C3219 C 0.56889 0.47976 0.38561 0.0
C3220 C 0.55843 0.46738 0.36234 0.0
C3221 C 0.57249 0.46962 0.3427 0.0
C3222 C 0.60622 0.50499 0.41399 0.0
C3223 C 0.53165 0.4541 0.35749 0.0
C3224 C 0.53293 0.47367 0.4407 0.0
C3225 C 0.5233 0.4957 0.44082 0.0
C3226 C 0.5475 0.46785 0.42263 0.0
C3227 C 0.55237 0.48438 0.40424 0.0
C3228 C 0.5417 0.506 0.40367 0.0
C3229 C 0.52735 0.51137 0.42196 0.0
C3230 C 0.55852 0.44466 0.42385 0.0
C3231 C 0.54622 0.52406 0.38428 0.0
H3232 H 0.62671 0.50446 0.37179 0.0
H3233 H 0.56383 0.46214 0.32439 0.0
H3234 H 0.60094 0.5236 0.4163 0.0
H3235 H 0.59983 0.49413 0.42917 0.0
H3236 H 0.62668 0.50817 0.41551 0.0
H3237 H 0.52769 0.44159 0.34008 0.0
H3238 H 0.52635 0.44271 0.3727 0.0
H3239 H 0.51986 0.46833 0.35619 0.0
H3240 H 0.53025 0.46167 0.45547 0.0
H3241 H 0.52001 0.52844 0.42199 0.0
H3242 H 0.57892 0.45033 0.4278 0.0
H3243 H 0.55428 0.43309 0.40593 0.0
H3244 H 0.5516 0.43284 0.43824 0.0
H3245 H 0.56625 0.53232 0.38552 0.0
H3246 H 0.53612 0.53968 0.38613 0.0
H3247 H 0.54039 0.51388 0.36577 0.0
C3248 C 0.22587 0.86184 0.09873 0.0
C3249 C 0.21208 0.84519 0.07934 0.0
C3250 C 0.23076 0.85362 0.12206 0.0
C3251 C 0.22115 0.8283 0.12612 0.0
C3252 C 0.20528 0.81218 0.10713 0.0
C3253 C 0.20136 0.82067 0.08383 0.0
C3254 C 0.24803 0.87135 0.14161 0.0
C3255 C 0.19392 0.78535 0.11086 0.0
C3256 C 0.25769 0.79378 0.16963 0.0
C3257 C 0.24556 0.79453 0.19051 0.0
C3258 C 0.25046 0.80554 0.14896 0.0
C3259 C 0.2301 0.81769 0.14888 0.0
C3260 C 0.21792 0.81868 0.17008 0.0
C3261 C 0.22601 0.80736 0.19076 0.0
C3262 C 0.26444 0.80461 0.12703 0.0
C3263 C 0.19572 0.83071 0.17062 0.0
H3264 H 0.23468 0.88062 0.09509 0.0
H3265 H 0.19102 0.80768 0.06873 0.0
H3266 H 0.24055 0.87073 0.15945 0.0
H3267 H 0.266 0.86534 0.14412 0.0
H3268 H 0.25139 0.89112 0.13675 0.0
H3269 H 0.17915 0.77664 0.09579 0.0
H3270 H 0.20839 0.77391 0.11164 0.0
H3271 H 0.18603 0.78456 0.12849 0.0
H3272 H 0.27286 0.78398 0.16948 0.0
H3273 H 0.21642 0.80777 0.20684 0.0
H3274 H 0.27046 0.82389 0.12154 0.0
H3275 H 0.25217 0.79329 0.11128 0.0
H3276 H 0.28095 0.79619 0.13071 0.0
H3277 H 0.19936 0.84956 0.16367 0.0
H3278 H 0.1903 0.83273 0.18935 0.0
H3279 H 0.17987 0.81888 0.15842 0.0
C3280 C 0.95857 0.55956 0.81944 0.0
C3281 C 0.94841 0.57926 0.81021 0.0
C3282 C 0.96711 0.5599 0.84428 0.0
C3283 C 0.9662 0.58082 0.86067 0.0
C3284 C 0.95669 0.60125 0.85155 0.0
C3285 C 0.94751 0.60007 0.82643 0.0
C3286 C 0.97644 0.53734 0.85306 0.0
C3287 C 0.95602 0.62418 0.86833 0.0
C3288 C 0.96505 0.56235 0.9256 0.0
C3289 C 0.99035 0.56657 0.93421 0.0
C3290 C 0.95676 0.56866 0.90234 0.0
C3291 C 0.9741 0.58005 0.88738 0.0
C3292 C -0.00048 0.58624 0.89678 0.0
C3293 C 0.00739 0.57909 0.91991 0.0
C3294 C 0.92957 0.56108 0.893 0.0
C3295 C 0.01858 0.59905 0.8818 0.0
H3296 H 0.95919 0.54319 0.80728 0.0
H3297 H 0.93977 0.61538 0.81953 0.0
H3298 H 0.99584 0.5432 0.86175 0.0
H3299 H 0.96529 0.52908 0.86711 0.0
H3300 H 0.97559 0.5224 0.83797 0.0
H3301 H 0.95078 0.63958 0.85807 0.0
H3302 H 0.94248 0.61907 0.88142 0.0
H3303 H 0.97433 0.6313 0.87928 0.0
H3304 H 0.95166 0.55271 0.93643 0.0
H3305 H 0.02693 0.58278 0.92652 0.0
H3306 H 0.92655 0.54493 0.87874 0.0
H3307 H 0.92295 0.57673 0.88439 0.0
H3308 H 0.9182 0.55539 0.90781 0.0
H3309 H 0.02175 0.5852 0.86733 0.0
H3310 H 0.0365 0.60699 0.89322 0.0
H3311 H 0.01201 0.61442 0.87257 0.0
C3312 C 0.27901 0.18232 0.5646 0.0
C3313 C 0.27716 0.19843 0.54609 0.0
C3314 C 0.2812 0.19154 0.5893 0.0
C3315 C 0.28205 0.21747 0.59535 0.0
C3316 C 0.2829 0.23417 0.57679 0.0
C3317 C 0.28009 0.22436 0.55228 0.0
C3318 C 0.28017 0.17319 0.60862 0.0
C3319 C 0.28467 0.26208 0.58266 0.0
C3320 C 0.24899 0.23621 0.64779 0.0
C3321 C 0.26864 0.24525 0.66622 0.0
C3322 C 0.25319 0.22651 0.62482 0.0
C3323 C 0.27772 0.22643 0.62015 0.0
C3324 C 0.2977 0.23568 0.63874 0.0
C3325 C 0.29286 0.24472 0.66177 0.0
C3326 C 0.23137 0.21655 0.6055 0.0
C3327 C 0.32409 0.23616 0.63432 0.0
H3328 H 0.27679 0.16224 0.55976 0.0
H3329 H 0.27909 0.23686 0.53789 0.0
H3330 H 0.29413 0.18073 0.62466 0.0
H3331 H 0.26173 0.17033 0.61515 0.0
H3332 H 0.28325 0.15458 0.60146 0.0
H3333 H 0.28918 0.27286 0.5668 0.0
H3334 H 0.26675 0.26539 0.58778 0.0
H3335 H 0.29896 0.26954 0.59848 0.0
H3336 H 0.23028 0.23653 0.65139 0.0
H3337 H 0.30805 0.25174 0.67617 0.0
H3338 H 0.23154 0.19692 0.59854 0.0
H3339 H 0.2326 0.22812 0.58974 0.0
H3340 H 0.21345 0.21677 0.61256 0.0
H3341 H 0.32784 0.24435 0.61692 0.0
H3342 H 0.32724 0.21662 0.63263 0.0
H3343 H 0.33754 0.24718 0.64946 0.0
C3344 C 0.61425 0.47076 0.19971 0.0
C3345 C 0.59745 0.47128 0.2168 0.0
C3346 C 0.60588 0.46687 0.17451 0.0
C3347 C 0.58025 0.46322 0.16658 0.0
C3348 C 0.56324 0.45982 0.18394 0.0
C3349 C 0.57207 0.46425 0.20893 0.0
C3350 C 0.62457 0.46996 0.15651 0.0
C3351 C 0.53574 0.45488 0.17622 0.0
C3352 C 0.56033 0.50209 0.1171 0.0
C3353 C 0.55234 0.48408 0.09701 0.0
C3354 C 0.57023 0.4955 0.13948 0.0
C3355 C 0.57179 0.47006 0.14199 0.0
C3356 C 0.56406 0.45176 0.12159 0.0
C3357 C 0.55456 0.45908 0.09917 0.0
C3358 C 0.5785 0.5158 0.16061 0.0
C3359 C 0.56488 0.42439 0.12353 0.0
H3360 H 0.63391 0.47596 0.20583 0.0
H3361 H 0.55907 0.46411 0.22224 0.0
H3362 H 0.61815 0.45646 0.13995 0.0
H3363 H 0.62696 0.48929 0.15059 0.0
H3364 H 0.64283 0.46718 0.1648 0.0
H3365 H 0.52518 0.44761 0.1911 0.0
H3366 H 0.53035 0.47272 0.1715 0.0
H3367 H 0.53043 0.44113 0.15974 0.0
H3368 H 0.55884 0.52149 0.11536 0.0
H3369 H 0.54845 0.44522 0.08354 0.0
H3370 H 0.59788 0.51619 0.16819 0.0
H3371 H 0.56684 0.5117 0.17551 0.0
H3372 H 0.57729 0.53484 0.15514 0.0
H3373 H 0.58141 0.42228 0.13573 0.0
H3374 H 0.5648 0.41428 0.10528 0.0
H3375 H 0.54831 0.41514 0.13146 0.0
C3376 C 0.20542 0.81619 0.93139 0.0
C3377 C 0.20979 0.84172 0.9402 0.0
C3378 C 0.20902 0.80876 0.90735 0.0
C3379 C 0.21797 0.82729 0.89189 0.0
C3380 C 0.22098 0.85316 0.9002 0.0
C3381 C 0.21656 0.86007 0.9242 0.0
C3382 C 0.20486 0.781 0.8991 0.0
C3383 C 0.2307 0.87353 0.88445 0.0
C3384 C 0.25857 0.80655 0.84621 0.0
C3385 C 0.24262 0.80224 0.82416 0.0
C3386 C 0.25093 0.81529 0.86815 0.0
C3387 C 0.22658 0.8195 0.86826 0.0
C3388 C 0.2104 0.81527 0.84604 0.0
C3389 C 0.21866 0.80692 0.82428 0.0
C3390 C 0.26898 0.82 0.8913 0.0
C3391 C 0.18425 0.81922 0.8453 0.0
H3392 H 0.20036 0.80196 0.94378 0.0
H3393 H 0.22044 0.87981 0.93109 0.0
H3394 H 0.19421 0.77683 0.88056 0.0
H3395 H 0.22292 0.77554 0.89797 0.0
H3396 H 0.1948 0.76916 0.91189 0.0
H3397 H 0.23036 0.89266 0.89281 0.0
H3398 H 0.25 0.87279 0.88167 0.0
H3399 H 0.21967 0.87044 0.86612 0.0
H3400 H 0.27721 0.80339 0.8463 0.0
H3401 H 0.20618 0.80385 0.80735 0.0
H3402 H 0.26204 0.8071 0.90486 0.0
H3403 H 0.27073 0.83956 0.89964 0.0
H3404 H 0.2876 0.81713 0.88794 0.0
H3405 H 0.17427 0.80713 0.85793 0.0
H3406 H 0.17388 0.81481 0.82662 0.0
H3407 H 0.1843 0.83905 0.85165 0.0
C3408 C 0.927 0.58668 0.65351 0.0
C3409 C 0.94249 0.58363 0.67442 0.0
C3410 C 0.93509 0.58553 0.63004 0.0
C3411 C 0.95906 0.58104 0.62752 0.0
C3412 C 0.97516 0.57968 0.64884 0.0
C3413 C 0.96675 0.58112 0.67185 0.0
C3414 C 0.91756 0.58773 0.60786 0.0
C3415 C 0.00087 0.57502 0.6473 0.0
C3416 C 0.97485 0.54527 0.57135 0.0
C3417 C 0.99015 0.5644 0.56114 0.0
C3418 C 0.96329 0.55068 0.59204 0.0
C3419 C 0.96711 0.57586 0.60287 0.0
C3420 C 0.98162 0.59539 0.59186 0.0
C3421 C 0.99309 0.5894 0.5713 0.0
C3422 C 0.94812 0.52918 0.60311 0.0
C3423 C 0.98596 0.62252 0.60242 0.0
H3424 H 0.90818 0.5884 0.65527 0.0
H3425 H 0.97891 0.5789 0.68793 0.0
H3426 H 0.92707 0.60057 0.59552 0.0
H3427 H 0.91107 0.56897 0.59738 0.0
H3428 H 0.90119 0.59479 0.61297 0.0
H3429 H 0.01153 0.57574 0.66565 0.0
H3430 H -0.00031 0.55619 0.63748 0.0
H3431 H 0.01126 0.5892 0.63674 0.0
H3432 H 0.97269 0.5259 0.56379 0.0
H3433 H 0.00479 0.60433 0.56341 0.0
H3434 H 0.93002 0.5335 0.60641 0.0
H3435 H 0.95786 0.52659 0.6211 0.0
H3436 H 0.94483 0.51117 0.59121 0.0
H3437 H 0.96841 0.62743 0.60687 0.0
H3438 H 0.99414 0.63575 0.58964 0.0
H3439 H -0.00124 0.62529 0.61971 0.0
C3440 C 0.30266 0.21435 0.42433 0.0
C3441 C 0.28592 0.19123 0.41933 0.0
C3442 C 0.30747 0.23021 0.40571 0.0
C3443 C 0.29479 0.22274 0.3819 0.0
C3444 C 0.28058 0.19792 0.37623 0.0
C3445 C 0.27615 0.18243 0.39519 0.0
C3446 C 0.32352 0.25612 0.41227 0.0
C3447 C 0.26728 0.18895 0.35086 0.0
C3448 C 0.26321 0.26749 0.3478 0.0
C3449 C 0.27574 0.26963 0.32716 0.0
C3450 C 0.27055 0.25381 0.36679 0.0
C3451 C 0.29104 0.24212 0.36507 0.0
C3452 C 0.30538 0.24654 0.34558 0.0
C3453 C 0.29754 0.26031 0.32677 0.0
C3454 C 0.25494 0.24996 0.38752 0.0
C3455 C 0.32765 0.23497 0.34335 0.0
H3456 H 0.31005 0.22111 0.44316 0.0
H3457 H 0.26304 0.16458 0.39152 0.0
H3458 H 0.33408 0.26222 0.39704 0.0
H3459 H 0.31167 0.26987 0.41576 0.0
H3460 H 0.33665 0.25668 0.42906 0.0
H3461 H 0.26046 0.16819 0.34855 0.0
H3462 H 0.25121 0.19809 0.34757 0.0
H3463 H 0.27957 0.19425 0.33673 0.0
H3464 H 0.24656 0.27496 0.3483 0.0
H3465 H 0.30742 0.26192 0.31086 0.0
H3466 H 0.26672 0.25439 0.40545 0.0
H3467 H 0.24528 0.22992 0.38636 0.0
H3468 H 0.24084 0.26188 0.38706 0.0
H3469 H 0.33788 0.23407 0.36157 0.0
H3470 H 0.34043 0.24571 0.33187 0.0
H3471 H 0.32154 0.21545 0.33446 0.0
C3472 C 0.36192 0.61331 0.50393 0.0
C3473 C 0.36046 0.62845 0.48444 0.0
C3474 C 0.37862 0.59684 0.50536 0.0
C3475 C 0.39418 0.59526 0.4868 0.0
C3476 C 0.3926 0.61031 0.46699 0.0
C3477 C 0.37588 0.62667 0.46608 0.0
C3478 C 0.37982 0.58132 0.52691 0.0
C3479 C 0.40877 0.60929 0.44679 0.0
C3480 C 0.45384 0.57155 0.5015 0.0
C3481 C 0.44721 0.54634 0.4914 0.0
C3482 C 0.43681 0.58757 0.50019 0.0
C3483 C 0.41249 0.57833 0.4883 0.0
C3484 C 0.40584 0.55301 0.47763 0.0
C3485 C 0.42325 0.53732 0.47935 0.0
C3486 C 0.44481 0.61435 0.51185 0.0
C3487 C 0.38023 0.54241 0.4646 0.0
H3488 H 0.3502 0.61452 0.51824 0.0
H3489 H 0.37497 0.63818 0.45089 0.0
H3490 H 0.37623 0.56099 0.52039 0.0
H3491 H 0.39862 0.58619 0.53726 0.0
H3492 H 0.36626 0.58434 0.53962 0.0
H3493 H 0.40489 0.62168 0.43232 0.0
H3494 H 0.4285 0.61516 0.45451 0.0
H3495 H 0.40599 0.58968 0.43822 0.0
H3496 H 0.4723 0.57871 0.51086 0.0
H3497 H 0.41797 0.51787 0.47154 0.0
H3498 H 0.43284 0.61777 0.52603 0.0
H3499 H 0.44269 0.62772 0.49787 0.0
H3500 H 0.46432 0.61861 0.52051 0.0
H3501 H 0.36637 0.54343 0.47745 0.0
H3502 H 0.37802 0.5225 0.45699 0.0
H3503 H 0.37609 0.55385 0.44941 0.0
C3504 C 0.81942 0.94855 0.55664 0.0
C3505 C 0.81548 0.92216 0.55422 0.0
C3506 C 0.8429 0.96334 0.55505 0.0
C3507 C 0.86257 0.95139 0.55022 0.0
C3508 C 0.8588 0.92479 0.54845 0.0
C3509 C 0.83545 0.91057 0.55079 0.0
C3510 C 0.84646 0.99169 0.55778 0.0
C3511 C 0.87908 0.91122 0.54277 0.0
C3512 C 0.91314 0.98196 0.51473 0.0
C3513 C 0.93375 0.98713 0.5327 0.0
C3514 C 0.88963 0.97129 0.52044 0.0
C3515 C 0.88653 0.96624 0.54486 0.0
C3516 C 0.90702 0.97277 0.56337 0.0
C3517 C 0.93051 0.98279 0.55699 0.0
C3518 C 0.86844 0.96403 0.50002 0.0
C3519 C 0.90432 0.9683 0.58972 0.0
H3520 H 0.80413 0.95764 0.55944 0.0
H3521 H 0.83261 0.89018 0.54877 0.0
H3522 H 0.86339 0.00011 0.57051 0.0
H3523 H 0.84894 -0.00093 0.53978 0.0
H3524 H 0.83045 -0.00196 0.5647 0.0
H3525 H 0.87331 0.89045 0.54266 0.0
H3526 H 0.88459 0.91554 0.52454 0.0
H3527 H 0.89566 0.91781 0.55643 0.0
H3528 H 0.91555 0.98513 0.49588 0.0
H3529 H 0.94637 0.98699 0.57099 0.0
H3530 H 0.85248 0.97201 0.5047 0.0
H3531 H 0.86228 0.94321 0.49757 0.0
H3532 H 0.8736 0.9706 0.4823 0.0
H3533 H 0.88805 0.9751 0.59541 0.0
H3534 H 0.92099 0.97786 0.60233 0.0
H3535 H 0.90123 0.9478 0.59171 0.0
C3536 C 0.82206 0.12001 0.24394 0.0
C3537 C 0.84768 0.12781 0.24429 0.0
C3538 C 0.80685 0.13771 0.24608 0.0
C3539 C 0.81747 0.16383 0.24849 0.0
C3540 C 0.84331 0.1718 0.24897 0.0
C3541 C 0.85807 0.15374 0.24691 0.0
C3542 C 0.77938 0.12847 0.24555 0.0
C3543 C 0.85537 0.19946 0.25146 0.0
C3544 C 0.77704 0.20962 0.22921 0.0
C3545 C 0.77249 0.21998 0.25184 0.0
C3546 C 0.79162 0.19136 0.22788 0.0
C3547 C 0.80154 0.18288 0.24973 0.0
C3548 C 0.79668 0.19306 0.27267 0.0
C3549 C 0.78227 0.21161 0.27344 0.0
C3550 C 0.79679 0.18155 0.20308 0.0
C3551 C 0.80663 0.18426 0.29634 0.0
H3552 H 0.81386 0.10005 0.24201 0.0
H3553 H 0.87784 0.16002 0.24724 0.0
H3554 H 0.77307 0.13645 0.26224 0.0
H3555 H 0.76943 0.13506 0.22955 0.0
H3556 H 0.77408 0.10758 0.24443 0.0
H3557 H 0.87573 0.20258 0.25175 0.0
H3558 H 0.84774 0.20875 0.23599 0.0
H3559 H 0.85124 0.20889 0.26858 0.0
H3560 H 0.7696 0.21621 0.21246 0.0
H3561 H 0.7784 0.21936 0.29091 0.0
H3562 H 0.79163 0.16067 0.20071 0.0
H3563 H 0.81685 0.18694 0.2017 0.0
H3564 H 0.78659 0.18909 0.18785 0.0
H3565 H 0.79897 0.16386 0.29669 0.0
H3566 H 0.80192 0.19465 0.31267 0.0
H3567 H 0.827 0.18669 0.29766 0.0
C3568 C 0.72953 0.11834 0.00354 0.0
C3569 C 0.73146 0.14451 0.00727 0.0
C3570 C 0.70667 0.10158 0.00361 0.0
C3571 C 0.68536 0.11127 0.0075 0.0
C3572 C 0.68728 0.13762 0.01118 0.0
C3573 C 0.71015 0.15379 0.01102 0.0
C3574 C 0.70528 0.07357 -0.0004 0.0
C3575 C 0.66512 0.14887 0.01541 0.0
C3576 C 0.61893 0.07725 0.98815 0.0
C3577 C 0.61111 0.07153 0.01078 0.0
C3578 C 0.64362 0.08854 0.98649 0.0
C3579 C 0.66085 0.09432 0.008 0.0
C3580 C 0.65328 0.08724 0.03068 0.0
C3581 C 0.62848 0.07596 0.03179 0.0
C3582 C 0.65085 0.09571 0.96195 0.0
C3583 C 0.67099 0.093 0.05405 0.0
H3584 H 0.74583 0.11097 0.00062 0.0
H3585 H 0.71124 0.17393 0.01391 0.0
H3586 H 0.69885 0.06434 0.0157 0.0
H3587 H 0.6916 0.06536 0.9835 0.0
H3588 H 0.7234 0.06902 -0.00342 0.0
H3589 H 0.66972 0.1698 0.01785 0.0
H3590 H 0.65043 0.14285 -0.00034 0.0
H3591 H 0.6574 0.14195 0.03196 0.0
H3592 H 0.60558 0.07363 0.97181 0.0
H3593 H 0.62253 0.07135 0.04929 0.0
H3594 H 0.66853 0.09025 0.95882 0.0
H3595 H 0.65366 0.11647 0.96166 0.0
H3596 H 0.63648 0.08674 0.94661 0.0
H3597 H 0.68866 0.08733 0.05131 0.0
H3598 H 0.66326 0.0833 0.06941 0.0
H3599 H 0.67524 0.11362 0.05938 0.0
C3600 C 0.16066 0.42636 0.23466 0.0
C3601 C 0.14702 0.43346 0.25299 0.0
C3602 C 0.1741 0.40714 0.23744 0.0
C3603 C 0.17407 0.39468 0.25914 0.0
C3604 C 0.16021 0.40159 0.27765 0.0
C3605 C 0.14685 0.42084 0.27435 0.0
C3606 C 0.18856 0.40034 0.2172 0.0
C3607 C 0.15968 0.3888 0.30105 0.0
C3608 C 0.19285 0.33083 0.25622 0.0
C3609 C 0.21796 0.33745 0.26557 0.0
C3610 C 0.17824 0.34915 0.2544 0.0
C3611 C 0.18886 0.37469 0.26251 0.0
C3612 C 0.21397 0.38129 0.27286 0.0
C3613 C 0.22824 0.36261 0.27416 0.0
C3614 C 0.15165 0.34128 0.24302 0.0
C3615 C 0.22599 0.40822 0.28193 0.0
H3616 H 0.16095 0.43589 0.21807 0.0
H3617 H 0.1364 0.42613 0.28864 0.0
H3618 H 0.20859 0.40499 0.22391 0.0
H3619 H 0.18355 0.37978 0.21169 0.0
H3620 H 0.1853 0.41049 0.20077 0.0
H3621 H 0.14776 0.39609 0.31354 0.0
H3622 H 0.15282 0.36819 0.29681 0.0
H3623 H 0.17867 0.39165 0.3108 0.0
H3624 H 0.18476 0.31141 0.24961 0.0
H3625 H 0.24762 0.36782 0.28144 0.0
H3626 H 0.14883 0.35095 0.2262 0.0
H3627 H 0.1393 0.34705 0.25585 0.0
H3628 H 0.14604 0.32061 0.23808 0.0
H3629 H 0.22636 0.42006 0.26635 0.0
H3630 H 0.24521 0.41002 0.29085 0.0
H3631 H 0.21509 0.41587 0.29523 0.0
C3632 C 0.20958 0.48046 -0.00375 0.0
C3633 C 0.20796 0.46527 0.0158 0.0
C3634 C 0.19127 0.4942 0.98989 0.0
C3635 C 0.17077 0.49255 0.00327 0.0
C3636 C 0.16941 0.47782 0.02343 0.0
C3637 C 0.18804 0.46448 0.0295 0.0
C3638 C 0.19341 0.5098 0.96837 0.0
C3639 C 0.14781 0.47543 0.03812 0.0
C3640 C 0.12715 0.53829 0.00215 0.0
C3641 C 0.10636 0.52391 0.98741 0.0
C3642 C 0.14896 0.529 0.00632 0.0
C3643 C 0.14986 0.50481 -0.00452 0.0
C3644 C 0.12944 0.49107 0.97919 0.0
C3645 C 0.10792 0.50077 0.97541 0.0
C3646 C 0.17044 0.54437 0.02353 0.0
C3647 C 0.12951 0.46527 0.96709 0.0
H3648 H 0.22494 0.48128 0.98561 0.0
H3649 H 0.18659 0.45285 0.04466 0.0
H3650 H 0.17842 0.50147 0.95341 0.0
H3651 H 0.19114 0.52921 0.97367 0.0
H3652 H 0.21143 0.51086 0.96117 0.0
H3653 H 0.15005 0.46412 0.0539 0.0
H3654 H 0.14552 0.49436 0.04513 0.0
H3655 H 0.13056 0.4663 0.02617 0.0
H3656 H 0.12598 0.5562 0.01144 0.0
H3657 H 0.09187 0.48962 0.96391 0.0
H3658 H 0.188 0.54479 0.01563 0.0
H3659 H 0.17199 0.53554 0.04099 0.0
H3660 H 0.16822 0.56405 0.02766 0.0
H3661 H 0.14759 0.46455 0.96068 0.0
H3662 H 0.11486 0.45968 0.95122 0.0
H3663 H 0.1262 0.45119 0.98061 0.0
C3664 C 0.86221 0.95876 0.23596 0.0
C3665 C 0.85195 0.98026 0.23368 0.0
C3666 C 0.84739 0.93497 0.23717 0.0
C3667 C 0.82148 0.93232 0.23582 0.0
C3668 C 0.81082 0.95373 0.23285 0.0
C3669 C 0.82619 0.97751 0.23194 0.0
C3670 C 0.85961 0.91273 0.24053 0.0
C3671 C 0.78323 0.95157 0.23103 0.0
C3672 C 0.78679 0.86427 0.22164 0.0
C3673 C 0.78341 0.85708 0.24519 0.0
C3674 C 0.79781 0.88914 0.21812 0.0
C3675 C 0.80597 0.90721 0.23865 0.0
C3676 C 0.80176 0.9003 0.26234 0.0
C3677 C 0.79044 0.87542 0.2653 0.0
C3678 C 0.80169 0.8958 0.19253 0.0
C3679 C 0.8104 0.91885 0.28477 0.0
H3680 H 0.88206 0.96053 0.23732 0.0
H3681 H 0.81806 0.99394 0.23011 0.0
H3682 H 0.85556 0.90488 0.25802 0.0
H3683 H 0.85208 0.89756 0.22556 0.0
H3684 H 0.87997 0.91787 0.24078 0.0
H3685 H 0.77769 0.96957 0.2271 0.0
H3686 H 0.77377 0.93669 0.21639 0.0
H3687 H 0.77662 0.94591 0.24848 0.0
H3688 H 0.78125 0.85036 0.20593 0.0
H3689 H 0.78794 0.87017 0.28359 0.0
H3690 H 0.82165 0.89887 0.19055 0.0
H3691 H 0.79556 0.9136 0.18907 0.0
H3692 H 0.79157 0.88071 0.17834 0.0
H3693 H 0.83088 0.92369 0.28758 0.0
H3694 H 0.80384 0.91123 0.30159 0.0
H3695 H 0.80383 0.93659 0.28222 0.0
C3696 C 0.67076 0.06252 0.77834 0.0
C3697 C 0.64615 0.06547 0.77623 0.0
C3698 C 0.6903 0.08346 0.77887 0.0
C3699 C 0.68496 0.10771 0.77681 0.0
C3700 C 0.66018 0.11075 0.775 0.0
C3701 C 0.64117 0.08968 0.77491 0.0
C3702 C 0.71654 0.07964 0.78125 0.0
C3703 C 0.65361 0.13625 0.77254 0.0
C3704 C 0.72742 0.1711 0.79441 0.0
C3705 C 0.73139 0.17892 0.77127 0.0
C3706 C 0.71437 0.14672 0.79681 0.0
C3707 C 0.70481 0.13009 0.7755 0.0
C3708 C 0.71069 0.13724 0.75231 0.0
C3709 C 0.72409 0.16159 0.7505 0.0
C3710 C 0.709 0.13963 0.82192 0.0
C3711 C 0.70077 0.12015 0.72912 0.0
H3712 H 0.67475 0.04388 0.77949 0.0
H3713 H 0.62224 0.09219 0.77321 0.0
H3714 H 0.72466 0.08396 0.76416 0.0
H3715 H 0.72799 0.09277 0.79636 0.0
H3716 H 0.71771 0.06002 0.78481 0.0
H3717 H 0.6334 0.13535 0.77139 0.0
H3718 H 0.66288 0.14965 0.78845 0.0
H3719 H 0.66021 0.14402 0.75583 0.0
H3720 H 0.73336 0.18445 0.81054 0.0
H3721 H 0.72731 0.1676 0.73259 0.0
H3722 H 0.71076 0.1199 0.82412 0.0
H3723 H 0.68973 0.14095 0.82425 0.0
H3724 H 0.72156 0.15231 0.83669 0.0
H3725 H 0.70307 0.10063 0.73144 0.0
H3726 H 0.71003 0.1268 0.71323 0.0
H3727 H 0.6807 0.11956 0.72487 0.0
loop_
_geom_bond_atom_site_label_1
_geom_bond_atom_site_label_2
_geom_bond_distance
_geom_bond_site_symmetry_2
_ccdc_geom_bond_type
Zn0 O3 2.031 . S
Zn0 O5 2.049 . S
Zn0 O10 2.067 . S
Zn1 O2 1.962 . S
Zn1 O4 1.986 . S
Zn1 O6 1.996 . S
Zn1 O9 1.943 1_455 S
O2 Zn1 1.962 . S
O2 C7 1.254 . S
O3 Zn0 2.031 . S
O3 C7 1.269 1_655 S
O4 Zn1 1.986 . S
O4 C11 1.262 . S
O5 Zn0 2.049 . S
O5 C13 1.260 1_655 S
O6 Zn1 1.996 . S
O6 C13 1.257 . S
C7 O2 1.254 . S
C7 O3 1.269 1_455 S
C8 O9 1.249 . S
C8 O10 1.270 . S
O9 Zn1 1.943 1_655 S
O9 C8 1.249 . S
O10 Zn0 2.067 . S
O10 C8 1.270 . S
C11 O4 1.262 . S
C11 O12 1.232 . S
O12 C11 1.232 . S
C13 O5 1.260 1_455 S
C13 O6 1.257 . S
Zn14 O17 2.031 1_455 S
Zn14 O19 2.049 . S
Zn14 O24 2.067 . S
Zn15 O16 1.958 1_455 S
Zn15 O18 1.987 . S
Zn15 O20 1.999 . S
Zn15 O23 1.944 1_455 S
O16 Zn15 1.958 1_655 S
O16 C21 1.254 . S
O17 Zn14 2.031 1_655 S
O17 C21 1.269 . S
O18 Zn15 1.987 . S
O18 C25 1.262 . S
O19 Zn14 2.049 . S
O19 C27 1.260 . S
O20 Zn15 1.999 . S
O20 C27 1.257 . S
C21 O16 1.254 . S
C21 O17 1.269 . S
C22 O23 1.249 . S
C22 O24 1.270 1_655 S
O23 Zn15 1.944 1_655 S
O23 C22 1.249 . S
O24 Zn14 2.067 . S
O24 C22 1.270 1_455 S
C25 O18 1.262 . S
C25 O26 1.232 1_455 S
O26 C25 1.232 1_655 S
C27 O19 1.260 . S
C27 O20 1.257 . S
Zn28 O31 2.031 . S
Zn28 O33 2.049 . S
Zn28 O38 2.067 . S
Zn29 O30 1.962 . S
Zn29 O32 1.986 . S
Zn29 O34 1.996 . S
Zn29 O37 1.943 . S
O30 Zn29 1.962 . S
O30 C35 1.254 . S
O31 Zn28 2.031 . S
O31 C35 1.269 . S
O32 Zn29 1.986 . S
O32 C39 1.262 . S
O33 Zn28 2.049 . S
O33 C41 1.260 . S
O34 Zn29 1.996 . S
O34 C41 1.257 . S
C35 O30 1.254 . S
C35 O31 1.269 . S
C36 O37 1.249 . S
C36 O38 1.270 . S
O37 Zn29 1.943 . S
O37 C36 1.249 . S
O38 Zn28 2.067 . S
O38 C36 1.270 . S
C39 O32 1.262 . S
C39 O40 1.232 . S
O40 C39 1.232 . S
C41 O33 1.260 . S
C41 O34 1.257 . S
Zn42 O45 2.031 . S
Zn42 O47 2.049 . S
Zn42 O52 2.067 . S
Zn43 O44 1.962 . S
Zn43 O46 1.986 . S
Zn43 O48 1.996 . S
Zn43 O51 1.943 . S
O44 Zn43 1.962 . S
O44 C49 1.254 . S
O45 Zn42 2.031 . S
O45 C49 1.269 . S
O46 Zn43 1.986 . S
O46 C53 1.262 . S
O47 Zn42 2.049 . S
O47 C55 1.260 . S
O48 Zn43 1.996 . S
O48 C55 1.257 . S
C49 O44 1.254 . S
C49 O45 1.269 . S
C50 O51 1.249 . S
C50 O52 1.270 . S
O51 Zn43 1.943 . S
O51 C50 1.249 . S
O52 Zn42 2.067 . S
O52 C50 1.270 . S
C53 O46 1.262 . S
C53 O54 1.232 . S
O54 C53 1.232 . S
C55 O47 1.260 . S
C55 O48 1.257 . S
Zn56 O59 2.031 . S
Zn56 O61 2.049 . S
Zn56 O66 2.067 . S
Zn57 O58 1.962 . S
Zn57 O60 1.986 . S
Zn57 O62 1.982 1_655 S
Zn57 O65 1.943 1_655 S
O58 Zn57 1.962 . S
O58 C63 1.254 1_655 S
O59 Zn56 2.031 . S
O59 C63 1.269 . S
O60 Zn57 1.986 . S
O60 C67 1.262 . S
O61 Zn56 2.049 . S
O61 C69 1.260 . S
O62 Zn57 1.982 1_455 S
O62 C69 1.283 . S
C63 O58 1.254 1_455 S
C63 O59 1.269 . S
C64 O65 1.249 . S
C64 O66 1.270 . S
O65 Zn57 1.943 1_455 S
O65 C64 1.249 . S
O66 Zn56 2.067 . S
O66 C64 1.270 . S
C67 O60 1.262 . S
C67 O68 1.232 . S
O68 C67 1.232 . S
C69 O61 1.260 . S
C69 O62 1.283 . S
Zn70 O73 2.031 . S
Zn70 O75 2.049 . S
Zn70 O80 2.067 . S
Zn71 O72 1.962 . S
Zn71 O74 1.986 . S
Zn71 O76 1.996 . S
Zn71 O79 1.943 . S
O72 Zn71 1.962 . S
O72 C77 1.254 . S
O73 Zn70 2.031 . S
O73 C77 1.269 . S
O74 Zn71 1.986 . S
O74 C81 1.262 . S
O75 Zn70 2.049 . S
O75 C83 1.260 . S
O76 Zn71 1.996 . S
O76 C83 1.257 . S
C77 O72 1.254 . S
C77 O73 1.269 . S
C78 O79 1.249 . S
C78 O80 1.270 . S
O79 Zn71 1.943 . S
O79 C78 1.249 . S
O80 Zn70 2.067 . S
O80 C78 1.270 . S
C81 O74 1.262 . S
C81 O82 1.232 . S
O82 C81 1.232 . S
C83 O75 1.260 . S
C83 O76 1.257 . S
Zn84 O87 2.031 . S
Zn84 O89 2.049 . S
Zn84 O94 2.067 . S
Zn85 O86 1.962 . S
Zn85 O88 1.986 . S
Zn85 O90 1.996 . S
Zn85 O93 1.943 . S
O86 Zn85 1.962 . S
O86 C91 1.254 . S
O87 Zn84 2.031 . S
O87 C91 1.269 . S
O88 Zn85 1.986 . S
O88 C95 1.262 . S
O89 Zn84 2.049 . S
O89 C97 1.260 . S
O90 Zn85 1.996 . S
O90 C97 1.257 . S
C91 O86 1.254 . S
C91 O87 1.269 . S
C92 O93 1.249 . S
C92 O94 1.270 . S
O93 Zn85 1.943 . S
O93 C92 1.249 . S
O94 Zn84 2.067 . S
O94 C92 1.270 . S
C95 O88 1.262 . S
C95 O96 1.232 . S
O96 C95 1.232 . S
C97 O89 1.260 . S
C97 O90 1.257 . S
Zn98 O101 2.031 . S
Zn98 O103 2.049 . S
Zn98 O108 2.067 . S
Zn99 O100 1.962 . S
Zn99 O102 1.986 . S
Zn99 O104 1.996 . S
Zn99 O107 1.943 1_455 S
O100 Zn99 1.962 . S
O100 C105 1.254 . S
O101 Zn98 2.031 . S
O101 C105 1.269 1_655 S
O102 Zn99 1.986 . S
O102 C109 1.262 . S
O103 Zn98 2.049 . S
O103 C111 1.260 . S
O104 Zn99 1.996 . S
O104 C111 1.257 1_455 S
C105 O100 1.254 . S
C105 O101 1.269 1_455 S
C106 O107 1.249 . S
C106 O108 1.270 . S
O107 Zn99 1.943 1_655 S
O107 C106 1.249 . S
O108 Zn98 2.067 . S
O108 C106 1.270 . S
C109 O102 1.262 . S
C109 O110 1.232 . S
O110 C109 1.232 . S
C111 O103 1.260 . S
C111 O104 1.257 1_655 S
Zn112 O115 2.031 . S
Zn112 O117 2.049 . S
Zn112 O122 2.067 1_545 S
Zn113 O114 1.962 . S
Zn113 O116 1.986 . S
Zn113 O118 1.996 . S
Zn113 O121 1.943 . S
O114 Zn113 1.962 . S
O114 C119 1.254 . S
O115 Zn112 2.031 . S
O115 C119 1.269 . S
O116 Zn113 1.986 . S
O116 C123 1.262 . S
O117 Zn112 2.049 . S
O117 C125 1.260 . S
O118 Zn113 1.996 . S
O118 C125 1.257 . S
C119 O114 1.254 . S
C119 O115 1.269 . S
C120 O121 1.249 . S
C120 O122 1.270 1_545 S
O121 Zn113 1.943 . S
O121 C120 1.249 . S
O122 Zn112 2.067 1_565 S
O122 C120 1.270 1_565 S
C123 O116 1.262 . S
C123 O124 1.232 . S
O124 C123 1.232 . S
C125 O117 1.260 . S
C125 O118 1.257 . S
Zn126 O129 2.031 . S
Zn126 O131 2.049 . S
Zn126 O136 2.067 . S
Zn127 O128 1.962 . S
Zn127 O130 1.986 . S
Zn127 O132 1.996 . S
Zn127 O135 1.943 . S
O128 Zn127 1.962 . S
O128 C133 1.254 . S
O129 Zn126 2.031 . S
O129 C133 1.269 . S
O130 Zn127 1.986 . S
O130 C137 1.262 . S
O131 Zn126 2.049 . S
O131 C139 1.260 . S
O132 Zn127 1.996 . S
O132 C139 1.257 . S
C133 O128 1.254 . S
C133 O129 1.269 . S
C134 O135 1.249 . S
C134 O136 1.270 . S
O135 Zn127 1.943 . S
O135 C134 1.249 . S
O136 Zn126 2.067 . S
O136 C134 1.270 . S
C137 O130 1.262 . S
C137 O138 1.232 . S
O138 C137 1.232 . S
C139 O131 1.260 . S
C139 O132 1.257 . S
Zn140 O143 2.031 . S
Zn140 O145 2.049 . S
Zn140 O150 2.067 . S
Zn141 O142 1.962 . S
Zn141 O144 1.986 . S
Zn141 O146 1.996 . S
Zn141 O149 1.943 1_565 S
O142 Zn141 1.962 . S
O142 C147 1.254 1_565 S
O143 Zn140 2.031 . S
O143 C147 1.269 . S
O144 Zn141 1.986 . S
O144 C151 1.262 . S
O145 Zn140 2.049 . S
O145 C153 1.260 . S
O146 Zn141 1.996 . S
O146 C153 1.257 1_565 S
C147 O142 1.254 1_545 S
C147 O143 1.269 . S
C148 O149 1.249 . S
C148 O150 1.270 . S
O149 Zn141 1.943 1_545 S
O149 C148 1.249 . S
O150 Zn140 2.067 . S
O150 C148 1.270 . S
C151 O144 1.262 . S
C151 O152 1.232 . S
O152 C151 1.232 . S
C153 O145 1.260 . S
C153 O146 1.257 1_545 S
Zn154 O157 2.008 1_554 S
Zn154 O159 2.049 . S
Zn154 O164 2.067 . S
Zn155 O156 1.962 1_554 S
Zn155 O158 1.986 . S
Zn155 O160 1.996 . S
Zn155 O163 1.943 . S
O156 Zn155 1.962 1_556 S
O156 C161 1.254 . S
O157 Zn154 2.008 1_556 S
O157 C161 1.279 . S
O158 Zn155 1.986 . S
O158 C165 1.262 . S
O159 Zn154 2.049 . S
O159 C167 1.260 . S
O160 Zn155 1.996 . S
O160 C167 1.257 . S
C161 O156 1.254 . S
C161 O157 1.279 . S
C162 O163 1.249 . S
C162 O164 1.270 . S
O163 Zn155 1.943 . S
O163 C162 1.249 . S
O164 Zn154 2.067 . S
O164 C162 1.270 . S
C165 O158 1.262 . S
C165 O166 1.232 . S
O166 C165 1.232 . S
C167 O159 1.260 . S
C167 O160 1.257 . S
Zn168 O171 2.031 1_554 S
Zn168 O173 2.049 . S
Zn168 O178 2.067 . S
Zn169 O170 1.962 1_554 S
Zn169 O172 1.986 . S
Zn169 O174 1.996 . S
Zn169 O177 1.943 . S
O170 Zn169 1.962 1_556 S
O170 C175 1.254 . S
O171 Zn168 2.031 1_556 S
O171 C175 1.269 . S
O172 Zn169 1.986 . S
O172 C179 1.262 . S
O173 Zn168 2.049 . S
O173 C181 1.260 . S
O174 Zn169 1.996 . S
O174 C181 1.257 . S
C175 O170 1.254 . S
C175 O171 1.269 . S
C176 O177 1.249 . S
C176 O178 1.270 . S
O177 Zn169 1.943 . S
O177 C176 1.249 . S
O178 Zn168 2.067 . S
O178 C176 1.270 . S
C179 O172 1.262 . S
C179 O180 1.232 . S
O180 C179 1.232 . S
C181 O173 1.260 . S
C181 O174 1.257 . S
Zn182 O185 2.031 1_554 S
Zn182 O187 2.049 . S
Zn182 O192 2.067 . S
Zn183 O184 1.962 1_554 S
Zn183 O186 1.986 . S
Zn183 O188 1.996 . S
Zn183 O191 1.942 . S
O184 Zn183 1.962 1_556 S
O184 C189 1.254 . S
O185 Zn182 2.031 1_556 S
O185 C189 1.269 . S
O186 Zn183 1.986 . S
O186 C193 1.262 . S
O187 Zn182 2.049 . S
O187 C195 1.260 . S
O188 Zn183 1.996 . S
O188 C195 1.257 . S
C189 O184 1.254 . S
C189 O185 1.269 . S
C190 O191 1.245 . S
C190 O192 1.287 . S
O191 Zn183 1.942 . S
O191 C190 1.245 . S
O192 Zn182 2.067 . S
O192 C190 1.287 . S
C193 O186 1.262 . S
C193 O194 1.232 1_554 S
O194 C193 1.232 1_556 S
C195 O187 1.260 . S
C195 O188 1.257 . S
Zn196 O199 2.031 . S
Zn196 O201 2.049 . S
Zn196 O206 2.067 . S
Zn197 O198 1.962 . S
Zn197 O200 1.986 . S
Zn197 O202 1.996 . S
Zn197 O205 1.943 . S
O198 Zn197 1.962 . S
O198 C203 1.254 . S
O199 Zn196 2.031 . S
O199 C203 1.269 . S
O200 Zn197 1.986 . S
O200 C207 1.262 . S
O201 Zn196 2.049 . S
O201 C209 1.260 . S
O202 Zn197 1.996 . S
O202 C209 1.257 . S
C203 O198 1.254 . S
C203 O199 1.269 . S
C204 O205 1.249 . S
C204 O206 1.270 . S
O205 Zn197 1.943 . S
O205 C204 1.249 . S
O206 Zn196 2.067 . S
O206 C204 1.270 . S
C207 O200 1.262 . S
C207 O208 1.232 . S
O208 C207 1.232 . S
C209 O201 1.260 . S
C209 O202 1.257 . S
Zn210 O213 2.031 . S
Zn210 O215 2.049 . S
Zn210 O220 2.067 . S
Zn211 O212 1.962 . S
Zn211 O214 1.986 . S
Zn211 O216 1.996 . S
Zn211 O219 1.943 . S
O212 Zn211 1.962 . S
O212 C217 1.254 . S
O213 Zn210 2.031 . S
O213 C217 1.269 . S
O214 Zn211 1.986 . S
O214 C221 1.262 . S
O215 Zn210 2.049 . S
O215 C223 1.260 . S
O216 Zn211 1.996 . S
O216 C223 1.257 . S
C217 O212 1.254 . S
C217 O213 1.269 . S
C218 O219 1.249 . S
C218 O220 1.270 . S
O219 Zn211 1.943 . S
O219 C218 1.249 . S
O220 Zn210 2.067 . S
O220 C218 1.270 . S
C221 O214 1.262 . S
C221 O222 1.232 . S
O222 C221 1.232 . S
C223 O215 1.260 . S
C223 O216 1.257 . S
Zn224 O227 2.031 . S
Zn224 O229 2.049 . S
Zn224 O234 2.067 . S
Zn225 O226 1.962 . S
Zn225 O228 1.986 . S
Zn225 O230 1.996 . S
Zn225 O233 1.943 . S
O226 Zn225 1.962 . S
O226 C231 1.254 . S
O227 Zn224 2.031 . S
O227 C231 1.269 . S
O228 Zn225 1.986 . S
O228 C235 1.262 . S
O229 Zn224 2.049 . S
O229 C237 1.260 . S
O230 Zn225 1.996 . S
O230 C237 1.257 . S
C231 O226 1.254 . S
C231 O227 1.269 . S
C232 O233 1.249 . S
C232 O234 1.270 . S
O233 Zn225 1.943 . S
O233 C232 1.249 . S
O234 Zn224 2.067 . S
O234 C232 1.270 . S
C235 O228 1.262 . S
C235 O236 1.232 . S
O236 C235 1.232 . S
C237 O229 1.260 . S
C237 O230 1.257 . S
Zn238 O241 2.031 . S
Zn238 O243 2.049 . S
Zn238 O248 2.067 . S
Zn239 O240 1.962 . S
Zn239 O242 1.986 . S
Zn239 O244 1.996 . S
Zn239 O247 1.943 . S
O240 Zn239 1.962 . S
O240 C245 1.254 . S
O241 Zn238 2.031 . S
O241 C245 1.269 . S
O242 Zn239 1.986 . S
O242 C249 1.262 . S
O243 Zn238 2.049 . S
O243 C251 1.260 . S
O244 Zn239 1.996 . S
O244 C251 1.257 . S
C245 O240 1.254 . S
C245 O241 1.269 . S
C246 O247 1.249 . S
C246 O248 1.270 . S
O247 Zn239 1.943 . S
O247 C246 1.249 . S
O248 Zn238 2.067 . S
O248 C246 1.270 . S
C249 O242 1.262 . S
C249 O250 1.232 . S
O250 C249 1.232 . S
C251 O243 1.260 . S
C251 O244 1.257 . S
Zn252 O255 2.031 . S
Zn252 O257 2.049 . S
Zn252 O262 2.067 . S
Zn253 O254 1.962 . S
Zn253 O256 1.986 . S
Zn253 O258 1.996 . S
Zn253 O261 1.943 . S
O254 Zn253 1.962 . S
O254 C259 1.254 . S
O255 Zn252 2.031 . S
O255 C259 1.269 . S
O256 Zn253 1.986 . S
O256 C263 1.262 . S
O257 Zn252 2.049 . S
O257 C265 1.260 . S
O258 Zn253 1.996 . S
O258 C265 1.257 . S
C259 O254 1.254 . S
C259 O255 1.269 . S
C260 O261 1.249 . S
C260 O262 1.270 . S
O261 Zn253 1.943 . S
O261 C260 1.249 . S
O262 Zn252 2.067 . S
O262 C260 1.270 . S
C263 O256 1.262 . S
C263 O264 1.232 . S
O264 C263 1.232 . S
C265 O257 1.260 . S
C265 O258 1.257 . S
Zn266 O269 2.031 . S
Zn266 O271 2.049 . S
Zn266 O276 2.067 . S
Zn267 O268 1.960 1_545 S
Zn267 O270 1.966 1_545 S
Zn267 O272 2.004 . S
Zn267 O275 1.961 . S
O268 Zn267 1.960 1_565 S
O268 C273 1.254 1_565 S
O269 Zn266 2.031 . S
O269 C273 1.269 . S
O270 Zn267 1.966 1_565 S
O270 C277 1.262 . S
O271 Zn266 2.049 . S
O271 C279 1.260 . S
O272 Zn267 2.004 . S
O272 C279 1.257 . S
C273 O268 1.254 1_545 S
C273 O269 1.269 . S
C274 O275 1.249 . S
C274 O276 1.270 . S
O275 Zn267 1.961 . S
O275 C274 1.249 . S
O276 Zn266 2.067 . S
O276 C274 1.270 . S
C277 O270 1.262 . S
C277 O278 1.232 . S
O278 C277 1.232 . S
C279 O271 1.260 . S
C279 O272 1.257 . S
Zn280 O283 2.031 1_554 S
Zn280 O285 2.049 . S
Zn280 O290 2.067 . S
Zn281 O282 1.939 1_554 S
Zn281 O284 1.997 . S
Zn281 O286 2.014 . S
Zn281 O289 1.952 1_554 S
O282 Zn281 1.939 1_556 S
O282 C287 1.254 . S
O283 Zn280 2.031 1_556 S
O283 C287 1.269 . S
O284 Zn281 1.997 . S
O284 C291 1.291 . S
O285 Zn280 2.049 . S
O285 C293 1.260 . S
O286 Zn281 2.014 . S
O286 C293 1.257 . S
C287 O282 1.254 . S
C287 O283 1.269 . S
C288 O289 1.245 . S
C288 O290 1.265 1_556 S
O289 Zn281 1.952 1_556 S
O289 C288 1.245 . S
O290 Zn280 2.067 . S
O290 C288 1.265 1_554 S
C291 O284 1.291 . S
C291 O292 1.198 1_554 S
O292 C291 1.198 1_556 S
C293 O285 1.260 . S
C293 O286 1.257 . S
Zn294 O297 2.031 . S
Zn294 O299 2.049 . S
Zn294 O304 2.067 . S
Zn295 O296 1.962 . S
Zn295 O298 1.986 . S
Zn295 O300 1.996 . S
Zn295 O303 1.943 . S
O296 Zn295 1.962 . S
O296 C301 1.254 . S
O297 Zn294 2.031 . S
O297 C301 1.269 . S
O298 Zn295 1.986 . S
O298 C305 1.262 . S
O299 Zn294 2.049 . S
O299 C307 1.260 . S
O300 Zn295 1.996 . S
O300 C307 1.257 . S
C301 O296 1.254 . S
C301 O297 1.269 . S
C302 O303 1.249 . S
C302 O304 1.270 . S
O303 Zn295 1.943 . S
O303 C302 1.249 . S
O304 Zn294 2.067 . S
O304 C302 1.270 . S
C305 O298 1.262 . S
C305 O306 1.232 . S
O306 C305 1.232 . S
C307 O299 1.260 . S
C307 O300 1.257 . S
Zn308 O311 2.031 . S
Zn308 O313 2.049 . S
Zn308 O318 2.067 . S
Zn309 O310 1.962 . S
Zn309 O312 1.986 . S
Zn309 O314 1.996 . S
Zn309 O317 1.943 . S
O310 Zn309 1.962 . S
O310 C315 1.254 . S
O311 Zn308 2.031 . S
O311 C315 1.269 . S
O312 Zn309 1.986 . S
O312 C319 1.262 . S
O313 Zn308 2.049 . S
O313 C321 1.260 . S
O314 Zn309 1.996 . S
O314 C321 1.257 . S
C315 O310 1.254 . S
C315 O311 1.269 . S
C316 O317 1.249 . S
C316 O318 1.270 . S
O317 Zn309 1.943 . S
O317 C316 1.249 . S
O318 Zn308 2.067 . S
O318 C316 1.270 . S
C319 O312 1.262 . S
C319 O320 1.232 . S
O320 C319 1.232 . S
C321 O313 1.260 . S
C321 O314 1.257 . S
Zn322 O325 2.031 . S
Zn322 O327 2.049 . S
Zn322 O332 2.067 . S
Zn323 O324 1.962 . S
Zn323 O326 1.986 . S
Zn323 O328 1.996 . S
Zn323 O331 1.943 . S
O324 Zn323 1.962 . S
O324 C329 1.254 . S
O325 Zn322 2.031 . S
O325 C329 1.269 . S
O326 Zn323 1.986 . S
O326 C333 1.262 . S
O327 Zn322 2.049 . S
O327 C335 1.260 . S
O328 Zn323 1.996 . S
O328 C335 1.257 . S
C329 O324 1.254 . S
C329 O325 1.269 . S
C330 O331 1.249 . S
C330 O332 1.270 . S
O331 Zn323 1.943 . S
O331 C330 1.249 . S
O332 Zn322 2.067 . S
O332 C330 1.270 . S
C333 O326 1.262 . S
C333 O334 1.232 . S
O334 C333 1.232 . S
C335 O327 1.260 . S
C335 O328 1.257 . S
Tb336 O339 2.453 . S
Tb336 O340 2.596 . S
Tb336 O341 2.374 1_554 S
Tb336 O349 2.343 1_455 S
Tb336 O351 2.353 . S
Tb336 O353 2.427 . S
Tb336 O354 2.513 1_554 S
C337 O341 1.251 . S
C337 O343 1.263 . S
Tb338 O340 2.343 1_655 S
Tb338 O343 2.353 1_654 S
Tb338 O346 2.427 1_645 S
Tb338 O347 2.513 1_645 S
Tb338 O348 2.446 1_554 S
Tb338 O349 2.596 . S
Tb338 O350 2.374 . S
O339 Tb336 2.453 . S
O339 C355 1.245 . S
O340 Tb336 2.596 . S
O340 Tb338 2.343 1_455 S
O340 C355 1.259 . S
O341 Tb336 2.374 1_556 S
O341 C337 1.251 . S
C342 O346 1.275 . S
C342 O347 1.246 . S
O343 C337 1.263 . S
O343 Tb338 2.353 1_456 S
C344 O348 1.243 1_554 S
C344 O349 1.259 . S
C345 O350 1.250 1_455 S
C345 O351 1.263 . S
O346 Tb338 2.427 1_465 S
O346 C342 1.275 . S
O347 Tb338 2.513 1_465 S
O347 C342 1.246 . S
O348 Tb338 2.446 1_556 S
O348 C344 1.243 1_556 S
O349 Tb336 2.343 1_655 S
O349 Tb338 2.596 . S
O349 C344 1.259 . S
O350 Tb338 2.374 . S
O350 C345 1.250 1_655 S
O351 Tb336 2.353 . S
O351 C345 1.263 . S
C352 O353 1.275 . S
C352 O354 1.246 1_554 S
O353 Tb336 2.427 . S
O353 C352 1.275 . S
O354 Tb336 2.513 1_556 S
O354 C352 1.246 1_556 S
C355 O339 1.245 . S
C355 O340 1.259 . S
Tb356 O359 2.453 . S
Tb356 O360 2.596 . S
Tb356 O361 2.374 . S
Tb356 O369 2.343 . S
Tb356 O371 2.353 . S
Tb356 O373 2.427 . S
Tb356 O374 2.513 . S
C357 O361 1.251 . S
C357 O363 1.263 . S
Tb358 O360 2.343 . S
Tb358 O363 2.353 . S
Tb358 O366 2.427 . S
Tb358 O367 2.513 . S
Tb358 O368 2.453 . S
Tb358 O369 2.596 . S
Tb358 O370 2.374 . S
O359 Tb356 2.453 . S
O359 C375 1.245 . S
O360 Tb356 2.596 . S
O360 Tb358 2.343 . S
O360 C375 1.259 . S
O361 Tb356 2.374 . S
O361 C357 1.251 . S
C362 O366 1.275 . S
C362 O367 1.246 . S
O363 C357 1.263 . S
O363 Tb358 2.353 . S
C364 O368 1.245 . S
C364 O369 1.259 . S
C365 O370 1.250 . S
C365 O371 1.263 . S
O366 Tb358 2.427 . S
O366 C362 1.275 . S
O367 Tb358 2.513 . S
O367 C362 1.246 . S
O368 Tb358 2.453 . S
O368 C364 1.245 . S
O369 Tb356 2.343 . S
O369 Tb358 2.596 . S
O369 C364 1.259 . S
O370 Tb358 2.374 . S
O370 C365 1.250 . S
O371 Tb356 2.353 . S
O371 C365 1.263 . S
C372 O373 1.275 . S
C372 O374 1.246 . S
O373 Tb356 2.427 . S
O373 C372 1.275 . S
O374 Tb356 2.513 . S
O374 C372 1.246 . S
C375 O359 1.245 . S
C375 O360 1.259 . S
Tb376 O379 2.453 . S
Tb376 O380 2.596 . S
Tb376 O381 2.374 . S
Tb376 O389 2.343 . S
Tb376 O391 2.353 . S
Tb376 O393 2.427 . S
Tb376 O394 2.513 . S
C377 O381 1.251 . S
C377 O383 1.263 . S
Tb378 O380 2.343 . S
Tb378 O383 2.353 . S
Tb378 O386 2.427 . S
Tb378 O387 2.513 . S
Tb378 O388 2.453 1_545 S
Tb378 O389 2.596 . S
Tb378 O390 2.374 . S
O379 Tb376 2.453 . S
O379 C395 1.245 . S
O380 Tb376 2.596 . S
O380 Tb378 2.343 . S
O380 C395 1.259 . S
O381 Tb376 2.374 . S
O381 C377 1.251 . S
C382 O386 1.275 . S
C382 O387 1.246 . S
O383 C377 1.263 . S
O383 Tb378 2.353 . S
C384 O388 1.245 . S
C384 O389 1.259 1_565 S
C385 O390 1.250 . S
C385 O391 1.263 . S
O386 Tb378 2.427 . S
O386 C382 1.275 . S
O387 Tb378 2.513 . S
O387 C382 1.246 . S
O388 Tb378 2.453 1_565 S
O388 C384 1.245 . S
O389 Tb376 2.343 . S
O389 Tb378 2.596 . S
O389 C384 1.259 1_545 S
O390 Tb378 2.374 . S
O390 C385 1.250 . S
O391 Tb376 2.353 . S
O391 C385 1.263 . S
C392 O393 1.272 1_565 S
C392 O394 1.246 1_565 S
O393 Tb376 2.427 . S
O393 C392 1.272 1_545 S
O394 Tb376 2.513 . S
O394 C392 1.246 1_545 S
C395 O379 1.245 . S
C395 O380 1.259 . S
Tb396 O399 2.453 . S
Tb396 O400 2.596 . S
Tb396 O401 2.374 . S
Tb396 O409 2.343 . S
Tb396 O411 2.353 . S
Tb396 O413 2.427 . S
Tb396 O414 2.513 . S
C397 O401 1.251 . S
C397 O403 1.263 . S
Tb398 O400 2.343 . S
Tb398 O403 2.353 . S
Tb398 O406 2.427 . S
Tb398 O407 2.513 . S
Tb398 O408 2.453 . S
Tb398 O409 2.596 . S
Tb398 O410 2.374 . S
O399 Tb396 2.453 . S
O399 C415 1.245 . S
O400 Tb396 2.596 . S
O400 Tb398 2.343 . S
O400 C415 1.259 . S
O401 Tb396 2.374 . S
O401 C397 1.251 . S
C402 O406 1.275 . S
C402 O407 1.246 . S
O403 C397 1.263 . S
O403 Tb398 2.353 . S
C404 O408 1.245 . S
C404 O409 1.259 . S
C405 O410 1.250 . S
C405 O411 1.263 . S
O406 Tb398 2.427 . S
O406 C402 1.275 . S
O407 Tb398 2.513 . S
O407 C402 1.246 . S
O408 Tb398 2.453 . S
O408 C404 1.245 . S
O409 Tb396 2.343 . S
O409 Tb398 2.596 . S
O409 C404 1.259 . S
O410 Tb398 2.374 . S
O410 C405 1.250 . S
O411 Tb396 2.353 . S
O411 C405 1.263 . S
C412 O413 1.275 . S
C412 O414 1.246 . S
O413 Tb396 2.427 . S
O413 C412 1.275 . S
O414 Tb396 2.513 . S
O414 C412 1.246 . S
C415 O399 1.245 . S
C415 O400 1.259 . S
Tb416 O419 2.453 1_545 S
Tb416 O420 2.596 . S
Tb416 O421 2.374 1_455 S
Tb416 O429 2.343 . S
Tb416 O431 2.353 . S
Tb416 O433 2.427 . S
Tb416 O434 2.513 1_455 S
C417 O421 1.251 . S
C417 O423 1.263 . S
Tb418 O420 2.343 . S
Tb418 O423 2.353 1_455 S
Tb418 O426 2.427 . S
Tb418 O427 2.513 . S
Tb418 O428 2.453 . S
Tb418 O429 2.596 . S
Tb418 O430 2.374 . S
O419 Tb416 2.453 1_565 S
O419 C435 1.245 . S
O420 Tb416 2.596 . S
O420 Tb418 2.343 . S
O420 C435 1.259 1_545 S
O421 Tb416 2.374 1_655 S
O421 C417 1.251 . S
C422 O426 1.275 . S
C422 O427 1.246 . S
O423 C417 1.263 . S
O423 Tb418 2.353 1_655 S
C424 O428 1.245 . S
C424 O429 1.259 . S
C425 O430 1.250 . S
C425 O431 1.263 . S
O426 Tb418 2.427 . S
O426 C422 1.275 . S
O427 Tb418 2.513 . S
O427 C422 1.246 . S
O428 Tb418 2.453 . S
O428 C424 1.245 . S
O429 Tb416 2.343 . S
O429 Tb418 2.596 . S
O429 C424 1.259 . S
O430 Tb418 2.374 . S
O430 C425 1.250 . S
O431 Tb416 2.353 . S
O431 C425 1.263 . S
C432 O433 1.275 1_655 S
C432 O434 1.246 . S
O433 Tb416 2.427 . S
O433 C432 1.275 1_455 S
O434 Tb416 2.513 1_655 S
O434 C432 1.246 . S
C435 O419 1.245 . S
C435 O420 1.259 1_565 S
Tb436 O439 2.453 . S
Tb436 O440 2.596 . S
Tb436 O441 2.374 . S
Tb436 O449 2.343 . S
Tb436 O451 2.353 . S
Tb436 O453 2.427 . S
Tb436 O454 2.513 . S
C437 O441 1.251 . S
C437 O443 1.263 . S
Tb438 O440 2.343 . S
Tb438 O443 2.353 . S
Tb438 O446 2.427 . S
Tb438 O447 2.513 . S
Tb438 O448 2.453 . S
Tb438 O449 2.596 . S
Tb438 O450 2.374 . S
O439 Tb436 2.453 . S
O439 C455 1.245 . S
O440 Tb436 2.596 . S
O440 Tb438 2.343 . S
O440 C455 1.259 . S
O441 Tb436 2.374 . S
O441 C437 1.251 . S
C442 O446 1.275 . S
C442 O447 1.246 . S
O443 C437 1.263 . S
O443 Tb438 2.353 . S
C444 O448 1.245 . S
C444 O449 1.259 . S
C445 O450 1.250 . S
C445 O451 1.263 . S
O446 Tb438 2.427 . S
O446 C442 1.275 . S
O447 Tb438 2.513 . S
O447 C442 1.246 . S
O448 Tb438 2.453 . S
O448 C444 1.245 . S
O449 Tb436 2.343 . S
O449 Tb438 2.596 . S
O449 C444 1.259 . S
O450 Tb438 2.374 . S
O450 C445 1.250 . S
O451 Tb436 2.353 . S
O451 C445 1.263 . S
C452 O453 1.275 . S
C452 O454 1.246 . S
O453 Tb436 2.427 . S
O453 C452 1.275 . S
O454 Tb436 2.513 . S
O454 C452 1.246 . S
C455 O439 1.245 . S
C455 O440 1.259 . S
Tb456 O459 2.453 . S
Tb456 O460 2.596 . S
Tb456 O461 2.374 1_545 S
Tb456 O469 2.343 1_556 S
Tb456 O471 2.353 1_556 S
Tb456 O473 2.427 1_556 S
Tb456 O474 2.513 1_546 S
C457 O461 1.251 . S
C457 O463 1.263 1_556 S
Tb458 O460 2.343 1_554 S
Tb458 O463 2.353 1_545 S
Tb458 O466 2.427 . S
Tb458 O467 2.513 . S
Tb458 O468 2.453 . S
Tb458 O469 2.596 . S
Tb458 O470 2.374 . S
O459 Tb456 2.453 . S
O459 C475 1.245 . S
O460 Tb456 2.596 . S
O460 Tb458 2.343 1_556 S
O460 C475 1.259 . S
O461 Tb456 2.374 1_565 S
O461 C457 1.251 . S
C462 O466 1.275 . S
C462 O467 1.246 . S
O463 C457 1.263 1_554 S
O463 Tb458 2.353 1_565 S
C464 O468 1.245 . S
C464 O469 1.259 . S
C465 O470 1.250 . S
C465 O471 1.263 . S
O466 Tb458 2.427 . S
O466 C462 1.275 . S
O467 Tb458 2.513 . S
O467 C462 1.246 . S
O468 Tb458 2.453 . S
O468 C464 1.245 . S
O469 Tb456 2.343 1_554 S
O469 Tb458 2.596 . S
O469 C464 1.259 . S
O470 Tb458 2.374 . S
O470 C465 1.250 . S
O471 Tb456 2.353 1_554 S
O471 C465 1.263 . S
C472 O473 1.275 . S
C472 O474 1.246 1_545 S
O473 Tb456 2.427 1_554 S
O473 C472 1.275 . S
O474 Tb456 2.513 1_564 S
O474 C472 1.246 1_565 S
C475 O459 1.245 . S
C475 O460 1.259 . S
Tb476 O479 2.453 . S
Tb476 O480 2.596 . S
Tb476 O481 2.374 . S
Tb476 O489 2.343 . S
Tb476 O491 2.353 . S
Tb476 O493 2.427 . S
Tb476 O494 2.513 . S
C477 O481 1.251 . S
C477 O483 1.263 . S
Tb478 O480 2.343 . S
Tb478 O483 2.353 . S
Tb478 O486 2.427 . S
Tb478 O487 2.513 . S
Tb478 O488 2.453 . S
Tb478 O489 2.596 . S
Tb478 O490 2.374 . S
O479 Tb476 2.453 . S
O479 C495 1.245 . S
O480 Tb476 2.596 . S
O480 Tb478 2.343 . S
O480 C495 1.259 . S
O481 Tb476 2.374 . S
O481 C477 1.251 . S
C482 O486 1.275 . S
C482 O487 1.246 . S
O483 C477 1.263 . S
O483 Tb478 2.353 . S
C484 O488 1.245 . S
C484 O489 1.259 . S
C485 O490 1.250 . S
C485 O491 1.263 . S
O486 Tb478 2.427 . S
O486 C482 1.275 . S
O487 Tb478 2.513 . S
O487 C482 1.246 . S
O488 Tb478 2.453 . S
O488 C484 1.245 . S
O489 Tb476 2.343 . S
O489 Tb478 2.596 . S
O489 C484 1.259 . S
O490 Tb478 2.374 . S
O490 C485 1.250 . S
O491 Tb476 2.353 . S
O491 C485 1.263 . S
C492 O493 1.275 . S
C492 O494 1.246 . S
O493 Tb476 2.427 . S
O493 C492 1.275 . S
O494 Tb476 2.513 . S
O494 C492 1.246 . S
C495 O479 1.245 . S
C495 O480 1.259 . S
Tb496 O499 2.450 1_556 S
Tb496 O500 2.596 1_556 S
Tb496 O501 2.374 . S
Tb496 O509 2.343 . S
Tb496 O511 2.353 . S
Tb496 O513 2.427 . S
Tb496 O514 2.513 . S
C497 O501 1.251 1_554 S
C497 O503 1.263 . S
Tb498 O500 2.343 . S
Tb498 O503 2.353 . S
Tb498 O506 2.427 . S
Tb498 O507 2.513 . S
Tb498 O508 2.453 . S
Tb498 O509 2.596 1_554 S
Tb498 O510 2.374 . S
O499 Tb496 2.450 1_554 S
O499 C515 1.250 . S
O500 Tb496 2.596 1_554 S
O500 Tb498 2.343 . S
O500 C515 1.259 . S
O501 Tb496 2.374 . S
O501 C497 1.251 1_556 S
C502 O506 1.275 . S
C502 O507 1.246 . S
O503 C497 1.263 . S
O503 Tb498 2.353 . S
C504 O508 1.245 1_556 S
C504 O509 1.259 . S
C505 O510 1.250 . S
C505 O511 1.263 1_554 S
O506 Tb498 2.427 . S
O506 C502 1.275 . S
O507 Tb498 2.513 . S
O507 C502 1.246 . S
O508 Tb498 2.453 . S
O508 C504 1.245 1_554 S
O509 Tb496 2.343 . S
O509 Tb498 2.596 1_556 S
O509 C504 1.259 . S
O510 Tb498 2.374 . S
O510 C505 1.250 . S
O511 Tb496 2.353 . S
O511 C505 1.263 1_556 S
C512 O513 1.275 . S
C512 O514 1.246 . S
O513 Tb496 2.427 . S
O513 C512 1.275 . S
O514 Tb496 2.513 . S
O514 C512 1.246 . S
C515 O499 1.250 . S
C515 O500 1.259 . S
Tb516 O519 2.453 . S
Tb516 O520 2.596 . S
Tb516 O521 2.374 . S
Tb516 O529 2.343 . S
Tb516 O531 2.353 . S
Tb516 O533 2.427 . S
Tb516 O534 2.513 . S
C517 O521 1.251 . S
C517 O523 1.263 . S
Tb518 O520 2.343 . S
Tb518 O523 2.353 . S
Tb518 O526 2.427 . S
Tb518 O527 2.513 . S
Tb518 O528 2.453 . S
Tb518 O529 2.596 . S
Tb518 O530 2.374 . S
O519 Tb516 2.453 . S
O519 C535 1.245 . S
O520 Tb516 2.596 . S
O520 Tb518 2.343 . S
O520 C535 1.259 . S
O521 Tb516 2.374 . S
O521 C517 1.251 . S
C522 O526 1.275 . S
C522 O527 1.246 . S
O523 C517 1.263 . S
O523 Tb518 2.353 . S
C524 O528 1.245 . S
C524 O529 1.259 . S
C525 O530 1.250 . S
C525 O531 1.263 . S
O526 Tb518 2.427 . S
O526 C522 1.275 . S
O527 Tb518 2.513 . S
O527 C522 1.246 . S
O528 Tb518 2.453 . S
O528 C524 1.245 . S
O529 Tb516 2.343 . S
O529 Tb518 2.596 . S
O529 C524 1.259 . S
O530 Tb518 2.374 . S
O530 C525 1.250 . S
O531 Tb516 2.353 . S
O531 C525 1.263 . S
C532 O533 1.275 . S
C532 O534 1.246 . S
O533 Tb516 2.427 . S
O533 C532 1.275 . S
O534 Tb516 2.513 . S
O534 C532 1.246 . S
C535 O519 1.245 . S
C535 O520 1.259 . S
Tb536 O539 2.453 . S
Tb536 O540 2.596 1_655 S
Tb536 O541 2.374 . S
Tb536 O549 2.343 . S
Tb536 O551 2.353 . S
Tb536 O553 2.427 . S
Tb536 O554 2.513 . S
C537 O541 1.251 1_455 S
C537 O543 1.263 . S
Tb538 O540 2.343 . S
Tb538 O543 2.353 . S
Tb538 O546 2.427 . S
Tb538 O547 2.513 . S
Tb538 O548 2.453 . S
Tb538 O549 2.596 1_455 S
Tb538 O550 2.374 . S
O539 Tb536 2.453 . S
O539 C555 1.245 1_655 S
O540 Tb536 2.596 1_455 S
O540 Tb538 2.343 . S
O540 C555 1.259 . S
O541 Tb536 2.374 . S
O541 C537 1.251 1_655 S
C542 O546 1.275 . S
C542 O547 1.246 . S
O543 C537 1.263 . S
O543 Tb538 2.353 . S
C544 O548 1.245 1_655 S
C544 O549 1.259 . S
C545 O550 1.220 1_655 S
C545 O551 1.280 . S
O546 Tb538 2.427 . S
O546 C542 1.275 . S
O547 Tb538 2.513 . S
O547 C542 1.246 . S
O548 Tb538 2.453 . S
O548 C544 1.245 1_455 S
O549 Tb536 2.343 . S
O549 Tb538 2.596 1_655 S
O549 C544 1.259 . S
O550 Tb538 2.374 . S
O550 C545 1.220 1_455 S
O551 Tb536 2.353 . S
O551 C545 1.280 . S
C552 O553 1.275 . S
C552 O554 1.246 . S
O553 Tb536 2.427 . S
O553 C552 1.275 . S
O554 Tb536 2.513 . S
O554 C552 1.246 . S
C555 O539 1.245 1_455 S
C555 O540 1.259 . S
Tb556 O559 2.453 . S
Tb556 O560 2.596 . S
Tb556 O561 2.374 . S
Tb556 O569 2.343 . S
Tb556 O571 2.353 . S
Tb556 O573 2.427 . S
Tb556 O574 2.513 . S
C557 O561 1.251 . S
C557 O563 1.263 . S
Tb558 O560 2.343 . S
Tb558 O563 2.353 . S
Tb558 O566 2.427 . S
Tb558 O567 2.513 . S
Tb558 O568 2.453 . S
Tb558 O569 2.596 . S
Tb558 O570 2.374 . S
O559 Tb556 2.453 . S
O559 C575 1.245 . S
O560 Tb556 2.596 . S
O560 Tb558 2.343 . S
O560 C575 1.259 . S
O561 Tb556 2.374 . S
O561 C557 1.251 . S
C562 O566 1.275 . S
C562 O567 1.246 . S
O563 C557 1.263 . S
O563 Tb558 2.353 . S
C564 O568 1.245 . S
C564 O569 1.259 . S
C565 O570 1.250 . S
C565 O571 1.263 . S
O566 Tb558 2.427 . S
O566 C562 1.275 . S
O567 Tb558 2.513 . S
O567 C562 1.246 . S
O568 Tb558 2.453 . S
O568 C564 1.245 . S
O569 Tb556 2.343 . S
O569 Tb558 2.596 . S
O569 C564 1.259 . S
O570 Tb558 2.374 . S
O570 C565 1.250 . S
O571 Tb556 2.353 . S
O571 C565 1.263 . S
C572 O573 1.275 . S
C572 O574 1.246 . S
O573 Tb556 2.427 . S
O573 C572 1.275 . S
O574 Tb556 2.513 . S
O574 C572 1.246 . S
C575 O559 1.245 . S
C575 O560 1.259 . S
Tb576 O579 2.453 . S
Tb576 O580 2.596 . S
Tb576 O581 2.374 . S
Tb576 O589 2.343 . S
Tb576 O591 2.353 . S
Tb576 O593 2.427 . S
Tb576 O594 2.513 . S
C577 O581 1.251 . S
C577 O583 1.263 . S
Tb578 O580 2.343 . S
Tb578 O583 2.353 . S
Tb578 O586 2.427 . S
Tb578 O587 2.513 . S
Tb578 O588 2.453 . S
Tb578 O589 2.596 . S
Tb578 O590 2.374 . S
O579 Tb576 2.453 . S
O579 C595 1.245 . S
O580 Tb576 2.596 . S
O580 Tb578 2.343 . S
O580 C595 1.259 . S
O581 Tb576 2.374 . S
O581 C577 1.251 . S
C582 O586 1.275 . S
C582 O587 1.246 . S
O583 C577 1.263 . S
O583 Tb578 2.353 . S
C584 O588 1.245 . S
C584 O589 1.259 . S
C585 O590 1.250 . S
C585 O591 1.263 . S
O586 Tb578 2.427 . S
O586 C582 1.275 . S
O587 Tb578 2.513 . S
O587 C582 1.246 . S
O588 Tb578 2.453 . S
O588 C584 1.245 . S
O589 Tb576 2.343 . S
O589 Tb578 2.596 . S
O589 C584 1.259 . S
O590 Tb578 2.374 . S
O590 C585 1.250 . S
O591 Tb576 2.353 . S
O591 C585 1.263 . S
C592 O593 1.275 . S
C592 O594 1.246 . S
O593 Tb576 2.427 . S
O593 C592 1.275 . S
O594 Tb576 2.513 . S
O594 C592 1.246 . S
C595 O579 1.245 . S
C595 O580 1.259 . S
Tb596 O599 2.453 . S
Tb596 O600 2.596 . S
Tb596 O601 2.374 . S
Tb596 O609 2.343 . S
Tb596 O611 2.353 . S
Tb596 O613 2.427 . S
Tb596 O614 2.513 . S
C597 O601 1.251 . S
C597 O603 1.263 . S
Tb598 O600 2.343 . S
Tb598 O603 2.353 . S
Tb598 O606 2.427 . S
Tb598 O607 2.513 . S
Tb598 O608 2.453 . S
Tb598 O609 2.596 . S
Tb598 O610 2.374 . S
O599 Tb596 2.453 . S
O599 C615 1.245 . S
O600 Tb596 2.596 . S
O600 Tb598 2.343 . S
O600 C615 1.259 . S
O601 Tb596 2.374 . S
O601 C597 1.251 . S
C602 O606 1.275 . S
C602 O607 1.246 . S
O603 C597 1.263 . S
O603 Tb598 2.353 . S
C604 O608 1.245 . S
C604 O609 1.259 . S
C605 O610 1.250 . S
C605 O611 1.263 . S
O606 Tb598 2.427 . S
O606 C602 1.275 . S
O607 Tb598 2.513 . S
O607 C602 1.246 . S
O608 Tb598 2.453 . S
O608 C604 1.245 . S
O609 Tb596 2.343 . S
O609 Tb598 2.596 . S
O609 C604 1.259 . S
O610 Tb598 2.374 . S
O610 C605 1.250 . S
O611 Tb596 2.353 . S
O611 C605 1.263 . S
C612 O613 1.275 . S
C612 O614 1.246 . S
O613 Tb596 2.427 . S
O613 C612 1.275 . S
O614 Tb596 2.513 . S
O614 C612 1.246 . S
C615 O599 1.245 . S
C615 O600 1.259 . S
Tb616 O619 2.453 . S
Tb616 O620 2.596 . S
Tb616 O621 2.374 . S
Tb616 O629 2.343 . S
Tb616 O631 2.353 . S
Tb616 O633 2.427 . S
Tb616 O634 2.513 . S
C617 O621 1.251 . S
C617 O623 1.263 . S
Tb618 O620 2.343 . S
Tb618 O623 2.353 . S
Tb618 O626 2.427 . S
Tb618 O627 2.513 . S
Tb618 O628 2.453 . S
Tb618 O629 2.596 . S
Tb618 O630 2.374 . S
O619 Tb616 2.453 . S
O619 C635 1.245 . S
O620 Tb616 2.596 . S
O620 Tb618 2.343 . S
O620 C635 1.259 . S
O621 Tb616 2.374 . S
O621 C617 1.251 . S
C622 O626 1.275 . S
C622 O627 1.246 . S
O623 C617 1.263 . S
O623 Tb618 2.353 . S
C624 O628 1.245 . S
C624 O629 1.259 . S
C625 O630 1.250 . S
C625 O631 1.263 . S
O626 Tb618 2.427 . S
O626 C622 1.275 . S
O627 Tb618 2.513 . S
O627 C622 1.246 . S
O628 Tb618 2.453 . S
O628 C624 1.245 . S
O629 Tb616 2.343 . S
O629 Tb618 2.596 . S
O629 C624 1.259 . S
O630 Tb618 2.374 . S
O630 C625 1.250 . S
O631 Tb616 2.353 . S
O631 C625 1.263 . S
C632 O633 1.275 . S
C632 O634 1.246 . S
O633 Tb616 2.427 . S
O633 C632 1.275 . S
O634 Tb616 2.513 . S
O634 C632 1.246 . S
C635 O619 1.245 . S
C635 O620 1.259 . S
Tb636 O639 2.453 . S
Tb636 O640 2.600 1_455 S
Tb636 O641 2.374 . S
Tb636 O649 2.343 . S
Tb636 O651 2.353 1_554 S
Tb636 O653 2.427 1_554 S
Tb636 O654 2.513 . S
C637 O641 1.251 . S
C637 O643 1.263 1_455 S
Tb638 O640 2.340 . S
Tb638 O643 2.353 . S
Tb638 O646 2.427 . S
Tb638 O647 2.513 . S
Tb638 O648 2.453 . S
Tb638 O649 2.596 1_655 S
Tb638 O650 2.374 1_554 S
O639 Tb636 2.453 . S
O639 C655 1.245 . S
O640 Tb636 2.600 1_655 S
O640 Tb638 2.340 . S
O640 C655 1.261 1_655 S
O641 Tb636 2.374 . S
O641 C637 1.251 . S
C642 O646 1.275 . S
C642 O647 1.246 . S
O643 C637 1.263 1_655 S
O643 Tb638 2.353 . S
C644 O648 1.245 1_556 S
C644 O649 1.259 1_656 S
C645 O650 1.250 . S
C645 O651 1.263 1_655 S
O646 Tb638 2.427 . S
O646 C642 1.275 . S
O647 Tb638 2.513 . S
O647 C642 1.246 . S
O648 Tb638 2.453 . S
O648 C644 1.245 1_554 S
O649 Tb636 2.343 . S
O649 Tb638 2.596 1_455 S
O649 C644 1.259 1_454 S
O650 Tb638 2.374 1_556 S
O650 C645 1.250 . S
O651 Tb636 2.353 1_556 S
O651 C645 1.263 1_455 S
C652 O653 1.294 . S
C652 O654 1.219 1_556 S
O653 Tb636 2.427 1_556 S
O653 C652 1.294 . S
O654 Tb636 2.513 . S
O654 C652 1.219 1_554 S
C655 O639 1.245 . S
C655 O640 1.261 1_455 S
C656 C657 1.391 . S
C656 C658 1.394 . S
C656 H672 0.931 . S
C657 C656 1.391 . S
C657 C661 1.376 1_455 S
C658 C656 1.394 . S
C658 C659 1.369 . S
C658 C662 1.531 . S
C659 C658 1.369 . S
C659 C660 1.410 1_455 S
C659 C667 1.503 . S
C660 C659 1.410 1_655 S
C660 C661 1.392 . S
C660 C663 1.511 . S
C661 C657 1.376 1_655 S
C661 C660 1.392 . S
C661 H673 0.929 . S
C662 C658 1.531 . S
C662 H674 0.960 . S
C662 H675 0.962 . S
C662 H676 0.960 . S
C663 C660 1.511 . S
C663 H677 0.961 . S
C663 H678 0.961 . S
C663 H679 0.961 . S
C664 C665 1.370 . S
C664 C666 1.363 . S
C664 H680 0.931 . S
C665 C664 1.370 . S
C665 C669 1.398 1_456 S
C666 C664 1.363 . S
C666 C667 1.370 . S
C666 C670 1.524 . S
C667 C659 1.503 . S
C667 C666 1.370 . S
C667 C668 1.403 1_455 S
C668 C667 1.403 1_655 S
C668 C669 1.381 1_556 S
C668 C671 1.539 . S
C669 C665 1.398 1_654 S
C669 C668 1.381 1_554 S
C669 H681 0.963 . S
C670 C666 1.524 . S
C670 H682 0.956 . S
C670 H683 0.961 . S
C670 H684 0.961 . S
C671 C668 1.539 . S
C671 H685 0.958 1_556 S
C671 H686 0.976 . S
C671 H687 0.960 . S
H672 C656 0.931 . S
H673 C661 0.929 . S
H674 C662 0.960 . S
H675 C662 0.962 . S
H676 C662 0.960 . S
H677 C663 0.961 . S
H678 C663 0.961 . S
H679 C663 0.961 . S
H680 C664 0.931 . S
H681 C669 0.963 . S
H682 C670 0.956 . S
H683 C670 0.961 . S
H684 C670 0.961 . S
H685 C671 0.958 1_554 S
H686 C671 0.976 . S
H687 C671 0.960 . S
C688 C689 1.391 . S
C688 C690 1.394 . S
C688 H704 0.931 . S
C689 C688 1.391 . S
C689 C693 1.376 . S
C690 C688 1.394 . S
C690 C691 1.369 . S
C690 C694 1.531 . S
C691 C690 1.369 . S
C691 C692 1.410 . S
C691 C699 1.503 . S
C692 C691 1.410 . S
C692 C693 1.392 . S
C692 C695 1.511 . S
C693 C689 1.376 . S
C693 C692 1.392 . S
C693 H705 0.929 . S
C694 C690 1.531 . S
C694 H706 0.960 . S
C694 H707 0.962 . S
C694 H708 0.960 . S
C695 C692 1.511 . S
C695 H709 0.961 . S
C695 H710 0.961 . S
C695 H711 0.961 . S
C696 C697 1.370 . S
C696 C698 1.363 . S
C696 H712 0.931 . S
C697 C696 1.370 . S
C697 C701 1.408 . S
C698 C696 1.363 . S
C698 C699 1.370 . S
C698 C702 1.524 . S
C699 C691 1.503 . S
C699 C698 1.370 . S
C699 C700 1.403 . S
C700 C699 1.403 . S
C700 C701 1.404 . S
C700 C703 1.539 . S
C701 C697 1.408 . S
C701 C700 1.404 . S
C701 H713 0.930 . S
C702 C698 1.524 . S
C702 H714 0.956 . S
C702 H715 0.961 . S
C702 H716 0.961 . S
C703 C700 1.539 . S
C703 H717 0.958 . S
C703 H718 0.961 . S
C703 H719 0.960 . S
H704 C688 0.931 . S
H705 C693 0.929 . S
H706 C694 0.960 . S
H707 C694 0.962 . S
H708 C694 0.960 . S
H709 C695 0.961 . S
H710 C695 0.961 . S
H711 C695 0.961 . S
H712 C696 0.931 . S
H713 C701 0.930 . S
H714 C702 0.956 . S
H715 C702 0.961 . S
H716 C702 0.961 . S
H717 C703 0.958 . S
H718 C703 0.961 . S
H719 C703 0.960 . S
C720 C721 1.391 . S
C720 C722 1.394 . S
C720 H736 0.931 . S
C721 C720 1.391 . S
C721 C725 1.376 . S
C722 C720 1.394 . S
C722 C723 1.369 . S
C722 C726 1.531 . S
C723 C722 1.369 . S
C723 C724 1.410 . S
C723 C731 1.503 . S
C724 C723 1.410 . S
C724 C725 1.392 . S
C724 C727 1.511 . S
C725 C721 1.376 . S
C725 C724 1.392 . S
C725 H737 0.929 . S
C726 C722 1.531 . S
C726 H738 0.960 . S
C726 H739 0.962 . S
C726 H740 0.960 . S
C727 C724 1.511 . S
C727 H741 0.961 . S
C727 H742 0.961 . S
C727 H743 0.961 . S
C728 C729 1.370 . S
C728 C730 1.363 . S
C728 H744 0.931 . S
C729 C728 1.370 . S
C729 C733 1.408 . S
C730 C728 1.363 . S
C730 C731 1.370 . S
C730 C734 1.524 . S
C731 C723 1.503 . S
C731 C730 1.370 . S
C731 C732 1.403 . S
C732 C731 1.403 . S
C732 C733 1.404 . S
C732 C735 1.539 . S
C733 C729 1.408 . S
C733 C732 1.404 . S
C733 H745 0.930 . S
C734 C730 1.524 . S
C734 H746 0.956 . S
C734 H747 0.961 . S
C734 H748 0.961 . S
C735 C732 1.539 . S
C735 H749 0.958 . S
C735 H750 0.961 . S
C735 H751 0.960 . S
H736 C720 0.931 . S
H737 C725 0.929 . S
H738 C726 0.960 . S
H739 C726 0.962 . S
H740 C726 0.960 . S
H741 C727 0.961 . S
H742 C727 0.961 . S
H743 C727 0.961 . S
H744 C728 0.931 . S
H745 C733 0.930 . S
H746 C734 0.956 . S
H747 C734 0.961 . S
H748 C734 0.961 . S
H749 C735 0.958 . S
H750 C735 0.961 . S
H751 C735 0.960 . S
C752 C753 1.391 . S
C752 C754 1.394 . S
C752 H768 0.931 . S
C753 C752 1.391 . S
C753 C757 1.376 . S
C754 C752 1.394 . S
C754 C755 1.369 . S
C754 C758 1.531 . S
C755 C754 1.369 . S
C755 C756 1.410 . S
C755 C763 1.503 . S
C756 C755 1.410 . S
C756 C757 1.392 . S
C756 C759 1.511 . S
C757 C753 1.376 . S
C757 C756 1.392 . S
C757 H769 0.929 . S
C758 C754 1.531 . S
C758 H770 0.960 . S
C758 H771 0.962 . S
C758 H772 0.960 . S
C759 C756 1.511 . S
C759 H773 0.961 . S
C759 H774 0.961 . S
C759 H775 0.961 . S
C760 C761 1.370 . S
C760 C762 1.363 . S
C760 H776 0.931 . S
C761 C760 1.370 . S
C761 C765 1.408 . S
C762 C760 1.363 . S
C762 C763 1.370 . S
C762 C766 1.524 . S
C763 C755 1.503 . S
C763 C762 1.370 . S
C763 C764 1.403 . S
C764 C763 1.403 . S
C764 C765 1.404 . S
C764 C767 1.539 . S
C765 C761 1.408 . S
C765 C764 1.404 . S
C765 H777 0.930 . S
C766 C762 1.524 . S
C766 H778 0.956 . S
C766 H779 0.961 . S
C766 H780 0.961 . S
C767 C764 1.539 . S
C767 H781 0.958 . S
C767 H782 0.961 . S
C767 H783 0.960 . S
H768 C752 0.931 . S
H769 C757 0.929 . S
H770 C758 0.960 . S
H771 C758 0.962 . S
H772 C758 0.960 . S
H773 C759 0.961 . S
H774 C759 0.961 . S
H775 C759 0.961 . S
H776 C760 0.931 . S
H777 C765 0.930 . S
H778 C766 0.956 . S
H779 C766 0.961 . S
H780 C766 0.961 . S
H781 C767 0.958 . S
H782 C767 0.961 . S
H783 C767 0.960 . S
C784 C785 1.391 . S
C784 C786 1.394 . S
C784 H800 0.931 . S
C785 C784 1.391 . S
C785 C789 1.376 1_455 S
C786 C784 1.394 . S
C786 C787 1.369 . S
C786 C790 1.531 . S
C787 C786 1.369 . S
C787 C788 1.410 1_455 S
C787 C795 1.503 . S
C788 C787 1.410 1_655 S
C788 C789 1.392 . S
C788 C791 1.511 . S
C789 C785 1.376 1_655 S
C789 C788 1.392 . S
C789 H801 0.929 . S
C790 C786 1.531 . S
C790 H802 0.960 . S
C790 H803 0.962 . S
C790 H804 0.960 . S
C791 C788 1.511 . S
C791 H805 0.961 . S
C791 H806 0.961 . S
C791 H807 0.961 . S
C792 C793 1.370 1_655 S
C792 C794 1.363 . S
C792 H808 0.931 . S
C793 C792 1.370 1_455 S
C793 C797 1.408 . S
C794 C792 1.363 . S
C794 C795 1.370 1_655 S
C794 C798 1.524 . S
C795 C787 1.503 . S
C795 C794 1.370 1_455 S
C795 C796 1.403 . S
C796 C795 1.403 . S
C796 C797 1.404 . S
C796 C799 1.539 . S
C797 C793 1.408 . S
C797 C796 1.404 . S
C797 H809 0.930 . S
C798 C794 1.524 . S
C798 H810 0.956 . S
C798 H811 0.961 . S
C798 H812 0.961 . S
C799 C796 1.539 . S
C799 H813 0.958 . S
C799 H814 0.961 . S
C799 H815 0.960 . S
H800 C784 0.931 . S
H801 C789 0.929 . S
H802 C790 0.960 . S
H803 C790 0.962 . S
H804 C790 0.960 . S
H805 C791 0.961 . S
H806 C791 0.961 . S
H807 C791 0.961 . S
H808 C792 0.931 . S
H809 C797 0.930 . S
H810 C798 0.956 . S
H811 C798 0.961 . S
H812 C798 0.961 . S
H813 C799 0.958 . S
H814 C799 0.961 . S
H815 C799 0.960 . S
C816 C817 1.391 . S
C816 C818 1.394 . S
C816 H832 0.931 . S
C817 C816 1.391 . S
C817 C821 1.376 . S
C818 C816 1.394 . S
C818 C819 1.369 . S
C818 C822 1.531 . S
C819 C818 1.369 . S
C819 C820 1.410 . S
C819 C827 1.503 . S
C820 C819 1.410 . S
C820 C821 1.392 . S
C820 C823 1.511 . S
C821 C817 1.376 . S
C821 C820 1.392 . S
C821 H833 0.929 . S
C822 C818 1.531 . S
C822 H834 0.960 . S
C822 H835 0.962 . S
C822 H836 0.960 . S
C823 C820 1.511 . S
C823 H837 0.961 . S
C823 H838 0.961 . S
C823 H839 0.961 . S
C824 C825 1.370 . S
C824 C826 1.363 . S
C824 H840 0.931 . S
C825 C824 1.370 . S
C825 C829 1.408 . S
C826 C824 1.363 . S
C826 C827 1.370 . S
C826 C830 1.524 . S
C827 C819 1.503 . S
C827 C826 1.370 . S
C827 C828 1.403 . S
C828 C827 1.403 . S
C828 C829 1.404 . S
C828 C831 1.539 . S
C829 C825 1.408 . S
C829 C828 1.404 . S
C829 H841 0.930 . S
C830 C826 1.524 . S
C830 H842 0.956 . S
C830 H843 0.961 . S
C830 H844 0.961 . S
C831 C828 1.539 . S
C831 H845 0.958 . S
C831 H846 0.961 . S
C831 H847 0.960 . S
H832 C816 0.931 . S
H833 C821 0.929 . S
H834 C822 0.960 . S
H835 C822 0.962 . S
H836 C822 0.960 . S
H837 C823 0.961 . S
H838 C823 0.961 . S
H839 C823 0.961 . S
H840 C824 0.931 . S
H841 C829 0.930 . S
H842 C830 0.956 . S
H843 C830 0.961 . S
H844 C830 0.961 . S
H845 C831 0.958 . S
H846 C831 0.961 . S
H847 C831 0.960 . S
C848 C849 1.391 . S
C848 C850 1.394 . S
C848 H864 0.931 . S
C849 C848 1.391 . S
C849 C853 1.376 . S
C850 C848 1.394 . S
C850 C851 1.369 . S
C850 C854 1.531 . S
C851 C850 1.369 . S
C851 C852 1.410 . S
C851 C859 1.503 . S
C852 C851 1.410 . S
C852 C853 1.392 . S
C852 C855 1.511 . S
C853 C849 1.376 . S
C853 C852 1.392 . S
C853 H865 0.929 . S
C854 C850 1.531 . S
C854 H866 0.960 . S
C854 H867 0.962 . S
C854 H868 0.960 . S
C855 C852 1.511 . S
C855 H869 0.961 . S
C855 H870 0.961 . S
C855 H871 0.961 . S
C856 C857 1.370 . S
C856 C858 1.363 . S
C856 H872 0.931 . S
C857 C856 1.370 . S
C857 C861 1.408 . S
C858 C856 1.363 . S
C858 C859 1.370 . S
C858 C862 1.524 . S
C859 C851 1.503 . S
C859 C858 1.370 . S
C859 C860 1.403 . S
C860 C859 1.403 . S
C860 C861 1.404 . S
C860 C863 1.539 . S
C861 C857 1.408 . S
C861 C860 1.404 . S
C861 H873 0.930 . S
C862 C858 1.524 . S
C862 H874 0.956 . S
C862 H875 0.961 . S
C862 H876 0.961 . S
C863 C860 1.539 . S
C863 H877 0.958 . S
C863 H878 0.961 . S
C863 H879 0.960 . S
H864 C848 0.931 . S
H865 C853 0.929 . S
H866 C854 0.960 . S
H867 C854 0.962 . S
H868 C854 0.960 . S
H869 C855 0.961 . S
H870 C855 0.961 . S
H871 C855 0.961 . S
H872 C856 0.931 . S
H873 C861 0.930 . S
H874 C862 0.956 . S
H875 C862 0.961 . S
H876 C862 0.961 . S
H877 C863 0.958 . S
H878 C863 0.961 . S
H879 C863 0.960 . S
C880 C881 1.391 . S
C880 C882 1.394 . S
C880 H896 0.931 . S
C881 C880 1.391 . S
C881 C885 1.376 . S
C882 C880 1.394 . S
C882 C883 1.369 . S
C882 C886 1.531 . S
C883 C882 1.369 . S
C883 C884 1.410 . S
C883 C891 1.503 . S
C884 C883 1.410 . S
C884 C885 1.392 . S
C884 C887 1.511 . S
C885 C881 1.376 . S
C885 C884 1.392 . S
C885 H897 0.929 . S
C886 C882 1.531 . S
C886 H898 0.960 . S
C886 H899 0.962 . S
C886 H900 0.960 . S
C887 C884 1.511 . S
C887 H901 0.961 . S
C887 H902 0.961 . S
C887 H903 0.961 . S
C888 C889 1.370 . S
C888 C890 1.363 . S
C888 H904 0.931 . S
C889 C888 1.370 . S
C889 C893 1.408 . S
C890 C888 1.363 . S
C890 C891 1.370 . S
C890 C894 1.524 . S
C891 C883 1.503 . S
C891 C890 1.370 . S
C891 C892 1.403 . S
C892 C891 1.403 . S
C892 C893 1.404 . S
C892 C895 1.539 . S
C893 C889 1.408 . S
C893 C892 1.404 . S
C893 H905 0.930 . S
C894 C890 1.524 . S
C894 H906 0.956 . S
C894 H907 0.961 . S
C894 H908 0.961 . S
C895 C892 1.539 . S
C895 H909 0.958 . S
C895 H910 0.961 . S
C895 H911 0.960 . S
H896 C880 0.931 . S
H897 C885 0.929 . S
H898 C886 0.960 . S
H899 C886 0.962 . S
H900 C886 0.960 . S
H901 C887 0.961 . S
H902 C887 0.961 . S
H903 C887 0.961 . S
H904 C888 0.931 . S
H905 C893 0.930 . S
H906 C894 0.956 . S
H907 C894 0.961 . S
H908 C894 0.961 . S
H909 C895 0.958 . S
H910 C895 0.961 . S
H911 C895 0.960 . S
C912 C913 1.391 . S
C912 C914 1.394 . S
C912 H928 0.931 . S
C913 C912 1.391 . S
C913 C917 1.376 . S
C914 C912 1.394 . S
C914 C915 1.369 . S
C914 C918 1.531 . S
C915 C914 1.369 . S
C915 C916 1.410 . S
C915 C923 1.503 . S
C916 C915 1.410 . S
C916 C917 1.392 . S
C916 C919 1.511 . S
C917 C913 1.376 . S
C917 C916 1.392 . S
C917 H929 0.929 . S
C918 C914 1.531 . S
C918 H930 0.960 . S
C918 H931 0.962 . S
C918 H932 0.960 . S
C919 C916 1.511 . S
C919 H933 0.961 1_655 S
C919 H934 0.961 1_655 S
C919 H935 0.961 1_655 S
C920 C921 1.370 . S
C920 C922 1.363 . S
C920 H936 0.931 . S
C921 C920 1.370 . S
C921 C925 1.408 . S
C922 C920 1.363 . S
C922 C923 1.370 . S
C922 C926 1.524 . S
C923 C915 1.503 . S
C923 C922 1.370 . S
C923 C924 1.403 . S
C924 C923 1.403 . S
C924 C925 1.404 . S
C924 C927 1.539 . S
C925 C921 1.408 . S
C925 C924 1.404 . S
C925 H937 0.941 . S
C926 C922 1.524 . S
C926 H938 0.956 . S
C926 H939 0.961 . S
C926 H940 0.961 1_545 S
C927 C924 1.539 . S
C927 H941 0.958 . S
C927 H942 0.961 . S
C927 H943 0.960 . S
H928 C912 0.931 . S
H929 C917 0.929 . S
H930 C918 0.960 . S
H931 C918 0.962 . S
H932 C918 0.960 . S
H933 C919 0.961 1_455 S
H934 C919 0.961 1_455 S
H935 C919 0.961 1_455 S
H936 C920 0.931 . S
H937 C925 0.941 . S
H938 C926 0.956 . S
H939 C926 0.961 . S
H940 C926 0.961 1_565 S
H941 C927 0.958 . S
H942 C927 0.961 . S
H943 C927 0.960 . S
C944 C945 1.391 . S
C944 C946 1.394 . S
C944 H960 0.931 . S
C945 C944 1.391 . S
C945 C949 1.376 . S
C946 C944 1.394 . S
C946 C947 1.369 . S
C946 C950 1.531 . S
C947 C946 1.369 . S
C947 C948 1.410 . S
C947 C955 1.503 . S
C948 C947 1.410 . S
C948 C949 1.392 . S
C948 C951 1.511 . S
C949 C945 1.376 . S
C949 C948 1.392 . S
C949 H961 0.929 . S
C950 C946 1.531 . S
C950 H962 0.960 . S
C950 H963 0.962 . S
C950 H964 0.960 . S
C951 C948 1.511 . S
C951 H965 0.961 . S
C951 H966 0.961 . S
C951 H967 0.961 . S
C952 C953 1.370 . S
C952 C954 1.363 . S
C952 H968 0.931 . S
C953 C952 1.370 . S
C953 C957 1.408 . S
C954 C952 1.363 . S
C954 C955 1.370 . S
C954 C958 1.524 . S
C955 C947 1.503 . S
C955 C954 1.370 . S
C955 C956 1.403 . S
C956 C955 1.403 . S
C956 C957 1.404 . S
C956 C959 1.539 . S
C957 C953 1.408 . S
C957 C956 1.404 . S
C957 H969 0.930 . S
C958 C954 1.524 . S
C958 H970 0.956 . S
C958 H971 0.961 . S
C958 H972 0.961 . S
C959 C956 1.539 . S
C959 H973 0.958 . S
C959 H974 0.961 . S
C959 H975 0.960 . S
H960 C944 0.931 . S
H961 C949 0.929 . S
H962 C950 0.960 . S
H963 C950 0.962 . S
H964 C950 0.960 . S
H965 C951 0.961 . S
H966 C951 0.961 . S
H967 C951 0.961 . S
H968 C952 0.931 . S
H969 C957 0.930 . S
H970 C958 0.956 . S
H971 C958 0.961 . S
H972 C958 0.961 . S
H973 C959 0.958 . S
H974 C959 0.961 . S
H975 C959 0.960 . S
C976 C977 1.391 . S
C976 C978 1.394 . S
C976 H992 0.931 . S
C977 C976 1.391 . S
C977 C981 1.376 . S
C978 C976 1.394 . S
C978 C979 1.369 . S
C978 C982 1.531 . S
C979 C978 1.369 . S
C979 C980 1.410 . S
C979 C987 1.503 . S
C980 C979 1.410 . S
C980 C981 1.392 . S
C980 C983 1.511 . S
C981 C977 1.376 . S
C981 C980 1.392 . S
C981 H993 0.929 . S
C982 C978 1.531 . S
C982 H994 0.960 . S
C982 H995 0.962 . S
C982 H996 0.960 . S
C983 C980 1.511 . S
C983 H997 0.961 1_545 S
C983 H998 0.961 . S
C983 H999 0.961 . S
C984 C985 1.388 . S
C984 C986 1.353 1_545 S
C984 H1000 0.917 1_545 S
C985 C984 1.388 . S
C985 C989 1.408 . S
C986 C984 1.353 1_565 S
C986 C987 1.346 1_565 S
C986 C990 1.556 . S
C987 C979 1.503 . S
C987 C986 1.346 1_545 S
C987 C988 1.403 . S
C988 C987 1.403 . S
C988 C989 1.404 . S
C988 C991 1.539 . S
C989 C985 1.408 . S
C989 C988 1.404 . S
C989 H1001 0.930 . S
C990 C986 1.556 . S
C990 H1002 0.956 . S
C990 H1003 0.961 . S
C990 H1004 0.961 . S
C991 C988 1.539 . S
C991 H1005 0.958 . S
C991 H1006 0.961 . S
C991 H1007 0.960 . S
H992 C976 0.931 . S
H993 C981 0.929 . S
H994 C982 0.960 . S
H995 C982 0.962 . S
H996 C982 0.960 . S
H997 C983 0.961 1_565 S
H998 C983 0.961 . S
H999 C983 0.961 . S
H1000 C984 0.917 1_565 S
H1001 C989 0.930 . S
H1002 C990 0.956 . S
H1003 C990 0.961 . S
H1004 C990 0.961 . S
H1005 C991 0.958 . S
H1006 C991 0.961 . S
H1007 C991 0.960 . S
C1008 C1009 1.391 . S
C1008 C1010 1.394 . S
C1008 H1024 0.931 . S
C1009 C1008 1.391 . S
C1009 C1013 1.376 . S
C1010 C1008 1.394 . S
C1010 C1011 1.369 . S
C1010 C1014 1.531 . S
C1011 C1010 1.369 . S
C1011 C1012 1.410 . S
C1011 C1019 1.503 . S
C1012 C1011 1.410 . S
C1012 C1013 1.392 . S
C1012 C1015 1.511 . S
C1013 C1009 1.376 . S
C1013 C1012 1.392 . S
C1013 H1025 0.929 . S
C1014 C1010 1.531 . S
C1014 H1026 0.960 . S
C1014 H1027 0.962 . S
C1014 H1028 0.960 . S
C1015 C1012 1.511 . S
C1015 H1029 0.961 . S
C1015 H1030 0.961 . S
C1015 H1031 0.961 . S
C1016 C1017 1.370 . S
C1016 C1018 1.363 . S
C1016 H1032 0.931 . S
C1017 C1016 1.370 . S
C1017 C1021 1.408 . S
C1018 C1016 1.363 . S
C1018 C1019 1.370 . S
C1018 C1022 1.524 . S
C1019 C1011 1.503 . S
C1019 C1018 1.370 . S
C1019 C1020 1.403 . S
C1020 C1019 1.403 . S
C1020 C1021 1.404 . S
C1020 C1023 1.539 . S
C1021 C1017 1.408 . S
C1021 C1020 1.404 . S
C1021 H1033 0.930 . S
C1022 C1018 1.524 . S
C1022 H1034 0.956 . S
C1022 H1035 0.961 . S
C1022 H1036 0.961 . S
C1023 C1020 1.539 . S
C1023 H1037 0.958 . S
C1023 H1038 0.961 . S
C1023 H1039 0.960 . S
H1024 C1008 0.931 . S
H1025 C1013 0.929 . S
H1026 C1014 0.960 . S
H1027 C1014 0.962 . S
H1028 C1014 0.960 . S
H1029 C1015 0.961 . S
H1030 C1015 0.961 . S
H1031 C1015 0.961 . S
H1032 C1016 0.931 . S
H1033 C1021 0.930 . S
H1034 C1022 0.956 . S
H1035 C1022 0.961 . S
H1036 C1022 0.961 . S
H1037 C1023 0.958 . S
H1038 C1023 0.961 . S
H1039 C1023 0.960 . S
C1040 C1041 1.391 . S
C1040 C1042 1.394 . S
C1040 H1056 0.931 . S
C1041 C1040 1.391 . S
C1041 C1045 1.376 . S
C1042 C1040 1.394 . S
C1042 C1043 1.369 . S
C1042 C1046 1.531 . S
C1043 C1042 1.369 . S
C1043 C1044 1.410 . S
C1043 C1051 1.503 . S
C1044 C1043 1.410 . S
C1044 C1045 1.392 . S
C1044 C1047 1.511 . S
C1045 C1041 1.376 . S
C1045 C1044 1.392 . S
C1045 H1057 0.929 . S
C1046 C1042 1.531 . S
C1046 H1058 0.960 . S
C1046 H1059 0.962 . S
C1046 H1060 0.960 . S
C1047 C1044 1.511 . S
C1047 H1061 0.961 . S
C1047 H1062 0.961 . S
C1047 H1063 0.961 . S
C1048 C1049 1.370 . S
C1048 C1050 1.363 . S
C1048 H1064 0.931 . S
C1049 C1048 1.370 . S
C1049 C1053 1.408 . S
C1050 C1048 1.363 . S
C1050 C1051 1.370 . S
C1050 C1054 1.524 . S
C1051 C1043 1.503 . S
C1051 C1050 1.370 . S
C1051 C1052 1.403 . S
C1052 C1051 1.403 . S
C1052 C1053 1.404 . S
C1052 C1055 1.539 1_655 S
C1053 C1049 1.408 . S
C1053 C1052 1.404 . S
C1053 H1065 0.930 1_655 S
C1054 C1050 1.524 . S
C1054 H1066 0.956 . S
C1054 H1067 0.961 . S
C1054 H1068 0.961 . S
C1055 C1052 1.539 1_455 S
C1055 H1069 0.958 . S
C1055 H1070 0.961 . S
C1055 H1071 0.960 1_455 S
H1056 C1040 0.931 . S
H1057 C1045 0.929 . S
H1058 C1046 0.960 . S
H1059 C1046 0.962 . S
H1060 C1046 0.960 . S
H1061 C1047 0.961 . S
H1062 C1047 0.961 . S
H1063 C1047 0.961 . S
H1064 C1048 0.931 . S
H1065 C1053 0.930 1_455 S
H1066 C1054 0.956 . S
H1067 C1054 0.961 . S
H1068 C1054 0.961 . S
H1069 C1055 0.958 . S
H1070 C1055 0.961 . S
H1071 C1055 0.960 1_655 S
C1072 C1073 1.391 . S
C1072 C1074 1.394 . S
C1072 H1088 0.931 . S
C1073 C1072 1.391 . S
C1073 C1077 1.376 . S
C1074 C1072 1.394 . S
C1074 C1075 1.369 . S
C1074 C1078 1.531 . S
C1075 C1074 1.369 . S
C1075 C1076 1.410 . S
C1075 C1083 1.503 . S
C1076 C1075 1.410 . S
C1076 C1077 1.392 . S
C1076 C1079 1.511 . S
C1077 C1073 1.376 . S
C1077 C1076 1.392 . S
C1077 H1089 0.929 . S
C1078 C1074 1.531 . S
C1078 H1090 0.960 . S
C1078 H1091 0.962 . S
C1078 H1092 0.960 . S
C1079 C1076 1.511 . S
C1079 H1093 0.961 . S
C1079 H1094 0.961 . S
C1079 H1095 0.961 . S
C1080 C1081 1.370 . S
C1080 C1082 1.363 . S
C1080 H1096 0.931 . S
C1081 C1080 1.370 . S
C1081 C1085 1.408 . S
C1082 C1080 1.363 . S
C1082 C1083 1.370 . S
C1082 C1086 1.524 . S
C1083 C1075 1.503 . S
C1083 C1082 1.370 . S
C1083 C1084 1.403 . S
C1084 C1083 1.403 . S
C1084 C1085 1.404 . S
C1084 C1087 1.539 . S
C1085 C1081 1.408 . S
C1085 C1084 1.404 . S
C1085 H1097 0.930 . S
C1086 C1082 1.524 . S
C1086 H1098 0.956 . S
C1086 H1099 0.961 . S
C1086 H1100 0.961 . S
C1087 C1084 1.539 . S
C1087 H1101 0.958 . S
C1087 H1102 0.961 . S
C1087 H1103 0.960 . S
H1088 C1072 0.931 . S
H1089 C1077 0.929 . S
H1090 C1078 0.960 . S
H1091 C1078 0.962 . S
H1092 C1078 0.960 . S
H1093 C1079 0.961 . S
H1094 C1079 0.961 . S
H1095 C1079 0.961 . S
H1096 C1080 0.931 . S
H1097 C1085 0.930 . S
H1098 C1086 0.956 . S
H1099 C1086 0.961 . S
H1100 C1086 0.961 . S
H1101 C1087 0.958 . S
H1102 C1087 0.961 . S
H1103 C1087 0.960 . S
C1104 C1105 1.391 . S
C1104 C1106 1.394 . S
C1104 H1120 0.931 . S
C1105 C1104 1.391 . S
C1105 C1109 1.376 . S
C1106 C1104 1.394 . S
C1106 C1107 1.369 . S
C1106 C1110 1.531 . S
C1107 C1106 1.369 . S
C1107 C1108 1.410 . S
C1107 C1115 1.503 . S
C1108 C1107 1.410 . S
C1108 C1109 1.392 . S
C1108 C1111 1.511 1_545 S
C1109 C1105 1.376 . S
C1109 C1108 1.392 . S
C1109 H1121 0.929 1_545 S
C1110 C1106 1.531 . S
C1110 H1122 0.960 . S
C1110 H1123 0.962 . S
C1110 H1124 0.960 . S
C1111 C1108 1.511 1_565 S
C1111 H1125 0.961 . S
C1111 H1126 0.955 1_565 S
C1111 H1127 0.961 . S
C1112 C1113 1.370 . S
C1112 C1114 1.363 . S
C1112 H1128 0.931 . S
C1113 C1112 1.370 . S
C1113 C1117 1.408 . S
C1114 C1112 1.363 . S
C1114 C1115 1.370 . S
C1114 C1118 1.524 . S
C1115 C1107 1.503 . S
C1115 C1114 1.370 . S
C1115 C1116 1.403 . S
C1116 C1115 1.403 . S
C1116 C1117 1.404 . S
C1116 C1119 1.539 1_545 S
C1117 C1113 1.408 . S
C1117 C1116 1.404 . S
C1117 H1129 0.930 . S
C1118 C1114 1.524 . S
C1118 H1130 0.956 . S
C1118 H1131 0.961 . S
C1118 H1132 0.961 . S
C1119 C1116 1.539 1_565 S
C1119 H1133 0.958 . S
C1119 H1134 0.961 . S
C1119 H1135 0.960 . S
H1120 C1104 0.931 . S
H1121 C1109 0.929 1_565 S
H1122 C1110 0.960 . S
H1123 C1110 0.962 . S
H1124 C1110 0.960 . S
H1125 C1111 0.961 . S
H1126 C1111 0.955 1_545 S
H1127 C1111 0.961 . S
H1128 C1112 0.931 . S
H1129 C1117 0.930 . S
H1130 C1118 0.956 . S
H1131 C1118 0.961 . S
H1132 C1118 0.961 . S
H1133 C1119 0.958 . S
H1134 C1119 0.961 . S
H1135 C1119 0.960 . S
C1136 C1137 1.391 . S
C1136 C1138 1.394 . S
C1136 H1152 0.931 . S
C1137 C1136 1.391 . S
C1137 C1141 1.376 . S
C1138 C1136 1.394 . S
C1138 C1139 1.369 . S
C1138 C1142 1.531 . S
C1139 C1138 1.369 . S
C1139 C1140 1.410 . S
C1139 C1147 1.503 . S
C1140 C1139 1.410 . S
C1140 C1141 1.392 . S
C1140 C1143 1.511 . S
C1141 C1137 1.376 . S
C1141 C1140 1.392 . S
C1141 H1153 0.929 . S
C1142 C1138 1.531 . S
C1142 H1154 0.960 . S
C1142 H1155 0.962 . S
C1142 H1156 0.960 . S
C1143 C1140 1.511 . S
C1143 H1157 0.961 . S
C1143 H1158 0.961 . S
C1143 H1159 0.961 . S
C1144 C1145 1.370 . S
C1144 C1146 1.363 . S
C1144 H1160 0.931 . S
C1145 C1144 1.370 . S
C1145 C1149 1.408 . S
C1146 C1144 1.363 . S
C1146 C1147 1.370 . S
C1146 C1150 1.524 . S
C1147 C1139 1.503 . S
C1147 C1146 1.370 . S
C1147 C1148 1.403 . S
C1148 C1147 1.403 . S
C1148 C1149 1.404 . S
C1148 C1151 1.539 . S
C1149 C1145 1.408 . S
C1149 C1148 1.404 . S
C1149 H1161 0.930 . S
C1150 C1146 1.524 . S
C1150 H1162 0.956 . S
C1150 H1163 0.961 . S
C1150 H1164 0.961 . S
C1151 C1148 1.539 . S
C1151 H1165 0.958 . S
C1151 H1166 0.961 . S
C1151 H1167 0.960 . S
H1152 C1136 0.931 . S
H1153 C1141 0.929 . S
H1154 C1142 0.960 . S
H1155 C1142 0.962 . S
H1156 C1142 0.960 . S
H1157 C1143 0.961 . S
H1158 C1143 0.961 . S
H1159 C1143 0.961 . S
H1160 C1144 0.931 . S
H1161 C1149 0.930 . S
H1162 C1150 0.956 . S
H1163 C1150 0.961 . S
H1164 C1150 0.961 . S
H1165 C1151 0.958 . S
H1166 C1151 0.961 . S
H1167 C1151 0.960 . S
C1168 C1169 1.391 . S
C1168 C1170 1.394 . S
C1168 H1184 0.931 . S
C1169 C1168 1.391 . S
C1169 C1173 1.376 . S
C1170 C1168 1.394 . S
C1170 C1171 1.369 . S
C1170 C1174 1.531 1_565 S
C1171 C1170 1.369 . S
C1171 C1172 1.410 . S
C1171 C1179 1.503 . S
C1172 C1171 1.410 . S
C1172 C1173 1.392 . S
C1172 C1175 1.511 . S
C1173 C1169 1.376 . S
C1173 C1172 1.392 . S
C1173 H1185 0.929 . S
C1174 C1170 1.531 1_545 S
C1174 H1186 0.960 . S
C1174 H1187 0.962 . S
C1174 H1188 0.960 . S
C1175 C1172 1.511 . S
C1175 H1189 0.961 . S
C1175 H1190 0.961 . S
C1175 H1191 0.961 . S
C1176 C1177 1.373 . S
C1176 C1178 1.358 1_545 S
C1176 H1192 0.933 . S
C1177 C1176 1.373 . S
C1177 C1181 1.408 1_545 S
C1178 C1176 1.358 1_565 S
C1178 C1179 1.370 . S
C1178 C1182 1.524 . S
C1179 C1171 1.503 . S
C1179 C1178 1.370 . S
C1179 C1180 1.403 . S
C1180 C1179 1.403 . S
C1180 C1181 1.404 . S
C1180 C1183 1.539 1_554 S
C1181 C1177 1.408 1_565 S
C1181 C1180 1.404 . S
C1181 H1193 0.930 1_564 S
C1182 C1178 1.524 . S
C1182 H1194 0.956 . S
C1182 H1195 0.961 . S
C1182 H1196 0.961 . S
C1183 C1180 1.539 1_556 S
C1183 H1197 0.958 . S
C1183 H1198 0.961 . S
C1183 H1199 0.960 . S
H1184 C1168 0.931 . S
H1185 C1173 0.929 . S
H1186 C1174 0.960 . S
H1187 C1174 0.962 . S
H1188 C1174 0.960 . S
H1189 C1175 0.961 . S
H1190 C1175 0.961 . S
H1191 C1175 0.961 . S
H1192 C1176 0.933 . S
H1193 C1181 0.930 1_546 S
H1194 C1182 0.956 . S
H1195 C1182 0.961 . S
H1196 C1182 0.961 . S
H1197 C1183 0.958 . S
H1198 C1183 0.961 . S
H1199 C1183 0.960 . S
C1200 C1201 1.391 . S
C1200 C1202 1.394 . S
C1200 H1216 0.931 . S
C1201 C1200 1.391 . S
C1201 C1205 1.376 1_556 S
C1202 C1200 1.394 . S
C1202 C1203 1.369 . S
C1202 C1206 1.531 . S
C1203 C1202 1.369 . S
C1203 C1204 1.410 1_556 S
C1203 C1211 1.503 . S
C1204 C1203 1.410 1_554 S
C1204 C1205 1.392 . S
C1204 C1207 1.511 . S
C1205 C1201 1.376 1_554 S
C1205 C1204 1.392 . S
C1205 H1217 0.929 . S
C1206 C1202 1.531 . S
C1206 H1218 0.960 . S
C1206 H1219 0.962 . S
C1206 H1220 0.960 . S
C1207 C1204 1.511 . S
C1207 H1221 0.961 . S
C1207 H1222 0.961 . S
C1207 H1223 0.961 . S
C1208 C1209 1.370 1_554 S
C1208 C1210 1.363 . S
C1208 H1224 0.931 . S
C1209 C1208 1.370 1_556 S
C1209 C1213 1.408 . S
C1210 C1208 1.363 . S
C1210 C1211 1.370 1_554 S
C1210 C1214 1.524 . S
C1211 C1203 1.503 . S
C1211 C1210 1.370 1_556 S
C1211 C1212 1.403 . S
C1212 C1211 1.403 . S
C1212 C1213 1.404 . S
C1212 C1215 1.539 . S
C1213 C1209 1.408 . S
C1213 C1212 1.404 . S
C1213 H1225 0.930 . S
C1214 C1210 1.524 . S
C1214 H1226 0.956 . S
C1214 H1227 0.961 . S
C1214 H1228 0.961 . S
C1215 C1212 1.539 . S
C1215 H1229 0.958 . S
C1215 H1230 0.961 . S
C1215 H1231 0.960 . S
H1216 C1200 0.931 . S
H1217 C1205 0.929 . S
H1218 C1206 0.960 . S
H1219 C1206 0.962 . S
H1220 C1206 0.960 . S
H1221 C1207 0.961 . S
H1222 C1207 0.961 . S
H1223 C1207 0.961 . S
H1224 C1208 0.931 . S
H1225 C1213 0.930 . S
H1226 C1214 0.956 . S
H1227 C1214 0.961 . S
H1228 C1214 0.961 . S
H1229 C1215 0.958 . S
H1230 C1215 0.961 . S
H1231 C1215 0.960 . S
C1232 C1233 1.391 . S
C1232 C1234 1.394 . S
C1232 H1248 0.931 . S
C1233 C1232 1.391 . S
C1233 C1237 1.376 . S
C1234 C1232 1.394 . S
C1234 C1235 1.369 . S
C1234 C1238 1.531 . S
C1235 C1234 1.369 . S
C1235 C1236 1.410 . S
C1235 C1243 1.503 . S
C1236 C1235 1.410 . S
C1236 C1237 1.392 . S
C1236 C1239 1.511 . S
C1237 C1233 1.376 . S
C1237 C1236 1.392 . S
C1237 H1249 0.929 . S
C1238 C1234 1.531 . S
C1238 H1250 0.960 . S
C1238 H1251 0.962 . S
C1238 H1252 0.960 . S
C1239 C1236 1.511 . S
C1239 H1253 0.961 . S
C1239 H1254 0.961 . S
C1239 H1255 0.961 . S
C1240 C1241 1.370 . S
C1240 C1242 1.363 . S
C1240 H1256 0.931 . S
C1241 C1240 1.370 . S
C1241 C1245 1.408 . S
C1242 C1240 1.363 . S
C1242 C1243 1.370 . S
C1242 C1246 1.524 . S
C1243 C1235 1.503 . S
C1243 C1242 1.370 . S
C1243 C1244 1.403 . S
C1244 C1243 1.403 . S
C1244 C1245 1.404 . S
C1244 C1247 1.539 . S
C1245 C1241 1.408 . S
C1245 C1244 1.404 . S
C1245 H1257 0.930 . S
C1246 C1242 1.524 . S
C1246 H1258 0.956 . S
C1246 H1259 0.961 . S
C1246 H1260 0.961 . S
C1247 C1244 1.539 . S
C1247 H1261 0.958 . S
C1247 H1262 0.961 . S
C1247 H1263 0.960 . S
H1248 C1232 0.931 . S
H1249 C1237 0.929 . S
H1250 C1238 0.960 . S
H1251 C1238 0.962 . S
H1252 C1238 0.960 . S
H1253 C1239 0.961 . S
H1254 C1239 0.961 . S
H1255 C1239 0.961 . S
H1256 C1240 0.931 . S
H1257 C1245 0.930 . S
H1258 C1246 0.956 . S
H1259 C1246 0.961 . S
H1260 C1246 0.961 . S
H1261 C1247 0.958 . S
H1262 C1247 0.961 . S
H1263 C1247 0.960 . S
C1264 C1265 1.391 . S
C1264 C1266 1.394 . S
C1264 H1280 0.931 . S
C1265 C1264 1.391 . S
C1265 C1269 1.376 . S
C1266 C1264 1.394 . S
C1266 C1267 1.369 . S
C1266 C1270 1.531 . S
C1267 C1266 1.369 . S
C1267 C1268 1.410 . S
C1267 C1275 1.503 . S
C1268 C1267 1.410 . S
C1268 C1269 1.392 . S
C1268 C1271 1.511 . S
C1269 C1265 1.376 . S
C1269 C1268 1.392 . S
C1269 H1281 0.929 . S
C1270 C1266 1.531 . S
C1270 H1282 0.960 . S
C1270 H1283 0.962 . S
C1270 H1284 0.960 . S
C1271 C1268 1.511 . S
C1271 H1285 0.961 . S
C1271 H1286 0.961 . S
C1271 H1287 0.961 . S
C1272 C1273 1.370 . S
C1272 C1274 1.363 . S
C1272 H1288 0.931 . S
C1273 C1272 1.370 . S
C1273 C1277 1.408 . S
C1274 C1272 1.363 . S
C1274 C1275 1.370 . S
C1274 C1278 1.524 . S
C1275 C1267 1.503 . S
C1275 C1274 1.370 . S
C1275 C1276 1.403 . S
C1276 C1275 1.403 . S
C1276 C1277 1.404 . S
C1276 C1279 1.539 . S
C1277 C1273 1.408 . S
C1277 C1276 1.404 . S
C1277 H1289 0.930 . S
C1278 C1274 1.524 . S
C1278 H1290 0.956 . S
C1278 H1291 0.961 . S
C1278 H1292 0.961 . S
C1279 C1276 1.539 . S
C1279 H1293 0.958 . S
C1279 H1294 0.961 . S
C1279 H1295 0.960 . S
H1280 C1264 0.931 . S
H1281 C1269 0.929 . S
H1282 C1270 0.960 . S
H1283 C1270 0.962 . S
H1284 C1270 0.960 . S
H1285 C1271 0.961 . S
H1286 C1271 0.961 . S
H1287 C1271 0.961 . S
H1288 C1272 0.931 . S
H1289 C1277 0.930 . S
H1290 C1278 0.956 . S
H1291 C1278 0.961 . S
H1292 C1278 0.961 . S
H1293 C1279 0.958 . S
H1294 C1279 0.961 . S
H1295 C1279 0.960 . S
C1296 C1297 1.391 . S
C1296 C1298 1.394 . S
C1296 H1312 0.931 . S
C1297 C1296 1.391 . S
C1297 C1301 1.376 . S
C1298 C1296 1.394 . S
C1298 C1299 1.369 . S
C1298 C1302 1.531 . S
C1299 C1298 1.369 . S
C1299 C1300 1.410 . S
C1299 C1307 1.503 . S
C1300 C1299 1.410 . S
C1300 C1301 1.392 . S
C1300 C1303 1.511 . S
C1301 C1297 1.376 . S
C1301 C1300 1.392 . S
C1301 H1313 0.929 . S
C1302 C1298 1.531 . S
C1302 H1314 0.960 . S
C1302 H1315 0.962 . S
C1302 H1316 0.960 . S
C1303 C1300 1.511 . S
C1303 H1317 0.961 . S
C1303 H1318 0.961 . S
C1303 H1319 0.961 . S
C1304 C1305 1.370 . S
C1304 C1306 1.363 . S
C1304 H1320 0.931 . S
C1305 C1304 1.370 . S
C1305 C1309 1.408 . S
C1306 C1304 1.363 . S
C1306 C1307 1.370 . S
C1306 C1310 1.524 . S
C1307 C1299 1.503 . S
C1307 C1306 1.370 . S
C1307 C1308 1.403 . S
C1308 C1307 1.403 . S
C1308 C1309 1.404 . S
C1308 C1311 1.539 . S
C1309 C1305 1.408 . S
C1309 C1308 1.404 . S
C1309 H1321 0.930 . S
C1310 C1306 1.524 . S
C1310 H1322 0.956 . S
C1310 H1323 0.961 . S
C1310 H1324 0.961 . S
C1311 C1308 1.539 . S
C1311 H1325 0.958 . S
C1311 H1326 0.961 . S
C1311 H1327 0.960 . S
H1312 C1296 0.931 . S
H1313 C1301 0.929 . S
H1314 C1302 0.960 . S
H1315 C1302 0.962 . S
H1316 C1302 0.960 . S
H1317 C1303 0.961 . S
H1318 C1303 0.961 . S
H1319 C1303 0.961 . S
H1320 C1304 0.931 . S
H1321 C1309 0.930 . S
H1322 C1310 0.956 . S
H1323 C1310 0.961 . S
H1324 C1310 0.961 . S
H1325 C1311 0.958 . S
H1326 C1311 0.961 . S
H1327 C1311 0.960 . S
C1328 C1329 1.391 . S
C1328 C1330 1.394 . S
C1328 H1344 0.931 . S
C1329 C1328 1.391 . S
C1329 C1333 1.376 . S
C1330 C1328 1.394 . S
C1330 C1331 1.369 . S
C1330 C1334 1.531 . S
C1331 C1330 1.369 . S
C1331 C1332 1.410 . S
C1331 C1339 1.503 . S
C1332 C1331 1.410 . S
C1332 C1333 1.392 . S
C1332 C1335 1.511 . S
C1333 C1329 1.376 . S
C1333 C1332 1.392 . S
C1333 H1345 0.929 . S
C1334 C1330 1.531 . S
C1334 H1346 0.960 . S
C1334 H1347 0.962 . S
C1334 H1348 0.960 . S
C1335 C1332 1.511 . S
C1335 H1349 0.961 . S
C1335 H1350 0.961 . S
C1335 H1351 0.961 . S
C1336 C1337 1.370 . S
C1336 C1338 1.363 . S
C1336 H1352 0.931 . S
C1337 C1336 1.370 . S
C1337 C1341 1.408 . S
C1338 C1336 1.363 . S
C1338 C1339 1.370 . S
C1338 C1342 1.524 . S
C1339 C1331 1.503 . S
C1339 C1338 1.370 . S
C1339 C1340 1.403 . S
C1340 C1339 1.403 . S
C1340 C1341 1.404 . S
C1340 C1343 1.539 . S
C1341 C1337 1.408 . S
C1341 C1340 1.404 . S
C1341 H1353 0.930 . S
C1342 C1338 1.524 . S
C1342 H1354 0.956 . S
C1342 H1355 0.961 . S
C1342 H1356 0.961 . S
C1343 C1340 1.539 . S
C1343 H1357 0.958 . S
C1343 H1358 0.961 . S
C1343 H1359 0.960 . S
H1344 C1328 0.931 . S
H1345 C1333 0.929 . S
H1346 C1334 0.960 . S
H1347 C1334 0.962 . S
H1348 C1334 0.960 . S
H1349 C1335 0.961 . S
H1350 C1335 0.961 . S
H1351 C1335 0.961 . S
H1352 C1336 0.931 . S
H1353 C1341 0.930 . S
H1354 C1342 0.956 . S
H1355 C1342 0.961 . S
H1356 C1342 0.961 . S
H1357 C1343 0.958 . S
H1358 C1343 0.961 . S
H1359 C1343 0.960 . S
C1360 C1361 1.391 . S
C1360 C1362 1.394 . S
C1360 H1376 0.931 . S
C1361 C1360 1.391 . S
C1361 C1365 1.376 . S
C1362 C1360 1.394 . S
C1362 C1363 1.369 . S
C1362 C1366 1.531 . S
C1363 C1362 1.369 . S
C1363 C1364 1.410 . S
C1363 C1371 1.503 . S
C1364 C1363 1.410 . S
C1364 C1365 1.392 . S
C1364 C1367 1.511 . S
C1365 C1361 1.376 . S
C1365 C1364 1.392 . S
C1365 H1377 0.929 . S
C1366 C1362 1.531 . S
C1366 H1378 0.960 . S
C1366 H1379 0.962 . S
C1366 H1380 0.960 . S
C1367 C1364 1.511 . S
C1367 H1381 0.961 . S
C1367 H1382 0.961 . S
C1367 H1383 0.961 . S
C1368 C1369 1.370 . S
C1368 C1370 1.363 . S
C1368 H1384 0.931 . S
C1369 C1368 1.370 . S
C1369 C1373 1.408 . S
C1370 C1368 1.363 . S
C1370 C1371 1.370 . S
C1370 C1374 1.524 . S
C1371 C1363 1.503 . S
C1371 C1370 1.370 . S
C1371 C1372 1.403 . S
C1372 C1371 1.403 . S
C1372 C1373 1.404 . S
C1372 C1375 1.539 . S
C1373 C1369 1.408 . S
C1373 C1372 1.404 . S
C1373 H1385 0.930 . S
C1374 C1370 1.524 . S
C1374 H1386 0.956 . S
C1374 H1387 0.961 . S
C1374 H1388 0.961 . S
C1375 C1372 1.539 . S
C1375 H1389 0.958 . S
C1375 H1390 0.961 . S
C1375 H1391 0.960 . S
H1376 C1360 0.931 . S
H1377 C1365 0.929 . S
H1378 C1366 0.960 . S
H1379 C1366 0.962 . S
H1380 C1366 0.960 . S
H1381 C1367 0.961 . S
H1382 C1367 0.961 . S
H1383 C1367 0.961 . S
H1384 C1368 0.931 . S
H1385 C1373 0.930 . S
H1386 C1374 0.956 . S
H1387 C1374 0.961 . S
H1388 C1374 0.961 . S
H1389 C1375 0.958 . S
H1390 C1375 0.961 . S
H1391 C1375 0.960 . S
C1392 C1393 1.391 . S
C1392 C1394 1.394 . S
C1392 H1408 0.931 . S
C1393 C1392 1.391 . S
C1393 C1397 1.376 . S
C1394 C1392 1.394 . S
C1394 C1395 1.369 . S
C1394 C1398 1.531 . S
C1395 C1394 1.369 . S
C1395 C1396 1.410 . S
C1395 C1403 1.503 . S
C1396 C1395 1.410 . S
C1396 C1397 1.392 . S
C1396 C1399 1.511 . S
C1397 C1393 1.376 . S
C1397 C1396 1.392 . S
C1397 H1409 0.929 . S
C1398 C1394 1.531 . S
C1398 H1410 0.960 . S
C1398 H1411 0.962 . S
C1398 H1412 0.960 . S
C1399 C1396 1.511 . S
C1399 H1413 0.961 . S
C1399 H1414 0.961 . S
C1399 H1415 0.961 . S
C1400 C1401 1.370 . S
C1400 C1402 1.363 . S
C1400 H1416 0.931 . S
C1401 C1400 1.370 . S
C1401 C1405 1.408 . S
C1402 C1400 1.363 . S
C1402 C1403 1.370 . S
C1402 C1406 1.524 . S
C1403 C1395 1.503 . S
C1403 C1402 1.370 . S
C1403 C1404 1.403 . S
C1404 C1403 1.403 . S
C1404 C1405 1.404 . S
C1404 C1407 1.539 . S
C1405 C1401 1.408 . S
C1405 C1404 1.404 . S
C1405 H1417 0.930 . S
C1406 C1402 1.524 . S
C1406 H1418 0.956 . S
C1406 H1419 0.961 . S
C1406 H1420 0.961 . S
C1407 C1404 1.539 . S
C1407 H1421 0.958 . S
C1407 H1422 0.961 . S
C1407 H1423 0.960 . S
H1408 C1392 0.931 . S
H1409 C1397 0.929 . S
H1410 C1398 0.960 . S
H1411 C1398 0.962 . S
H1412 C1398 0.960 . S
H1413 C1399 0.961 . S
H1414 C1399 0.961 . S
H1415 C1399 0.961 . S
H1416 C1400 0.931 . S
H1417 C1405 0.930 . S
H1418 C1406 0.956 . S
H1419 C1406 0.961 . S
H1420 C1406 0.961 . S
H1421 C1407 0.958 . S
H1422 C1407 0.961 . S
H1423 C1407 0.960 . S
C1424 C1425 1.391 1_655 S
C1424 C1426 1.394 . S
C1424 H1440 0.931 . S
C1425 C1424 1.391 1_455 S
C1425 C1429 1.376 . S
C1426 C1424 1.394 . S
C1426 C1427 1.369 1_655 S
C1426 C1430 1.531 . S
C1427 C1426 1.369 1_455 S
C1427 C1428 1.410 . S
C1427 C1435 1.503 . S
C1428 C1427 1.410 . S
C1428 C1429 1.392 . S
C1428 C1431 1.511 . S
C1429 C1425 1.376 . S
C1429 C1428 1.392 . S
C1429 H1441 0.929 . S
C1430 C1426 1.531 . S
C1430 H1442 0.960 . S
C1430 H1443 0.962 . S
C1430 H1444 0.960 . S
C1431 C1428 1.511 . S
C1431 H1445 0.961 . S
C1431 H1446 0.961 . S
C1431 H1447 0.961 . S
C1432 C1433 1.370 . S
C1432 C1434 1.363 . S
C1432 H1448 0.931 1_455 S
C1433 C1432 1.370 . S
C1433 C1437 1.408 . S
C1434 C1432 1.363 . S
C1434 C1435 1.370 . S
C1434 C1438 1.524 1_455 S
C1435 C1427 1.503 . S
C1435 C1434 1.370 . S
C1435 C1436 1.403 . S
C1436 C1435 1.403 . S
C1436 C1437 1.404 . S
C1436 C1439 1.539 . S
C1437 C1433 1.408 . S
C1437 C1436 1.404 . S
C1437 H1449 0.930 . S
C1438 C1434 1.524 1_655 S
C1438 H1450 0.956 . S
C1438 H1451 0.961 1_655 S
C1438 H1452 0.961 . S
C1439 C1436 1.539 . S
C1439 H1453 0.958 . S
C1439 H1454 0.961 . S
C1439 H1455 0.960 . S
H1440 C1424 0.931 . S
H1441 C1429 0.929 . S
H1442 C1430 0.960 . S
H1443 C1430 0.962 . S
H1444 C1430 0.960 . S
H1445 C1431 0.961 . S
H1446 C1431 0.961 . S
H1447 C1431 0.961 . S
H1448 C1432 0.931 1_655 S
H1449 C1437 0.930 . S
H1450 C1438 0.956 . S
H1451 C1438 0.961 1_455 S
H1452 C1438 0.961 . S
H1453 C1439 0.958 . S
H1454 C1439 0.961 . S
H1455 C1439 0.960 . S
C1456 C1457 1.391 . S
C1456 C1458 1.394 . S
C1456 H1472 0.931 . S
C1457 C1456 1.391 . S
C1457 C1461 1.376 . S
C1458 C1456 1.394 . S
C1458 C1459 1.369 . S
C1458 C1462 1.531 . S
C1459 C1458 1.369 . S
C1459 C1460 1.410 . S
C1459 C1467 1.503 . S
C1460 C1459 1.410 . S
C1460 C1461 1.392 . S
C1460 C1463 1.511 . S
C1461 C1457 1.376 . S
C1461 C1460 1.392 . S
C1461 H1473 0.929 . S
C1462 C1458 1.531 . S
C1462 H1474 0.960 . S
C1462 H1475 0.962 . S
C1462 H1476 0.960 . S
C1463 C1460 1.511 . S
C1463 H1477 0.961 . S
C1463 H1478 0.961 . S
C1463 H1479 0.961 . S
C1464 C1465 1.370 . S
C1464 C1466 1.363 . S
C1464 H1480 0.931 . S
C1465 C1464 1.370 . S
C1465 C1469 1.408 . S
C1466 C1464 1.363 . S
C1466 C1467 1.370 . S
C1466 C1470 1.524 . S
C1467 C1459 1.503 . S
C1467 C1466 1.370 . S
C1467 C1468 1.403 . S
C1468 C1467 1.403 . S
C1468 C1469 1.404 . S
C1468 C1471 1.539 . S
C1469 C1465 1.408 . S
C1469 C1468 1.404 . S
C1469 H1481 0.930 . S
C1470 C1466 1.524 . S
C1470 H1482 0.956 . S
C1470 H1483 0.961 . S
C1470 H1484 0.961 . S
C1471 C1468 1.539 . S
C1471 H1485 0.958 . S
C1471 H1486 0.961 . S
C1471 H1487 0.960 . S
H1472 C1456 0.931 . S
H1473 C1461 0.929 . S
H1474 C1462 0.960 . S
H1475 C1462 0.962 . S
H1476 C1462 0.960 . S
H1477 C1463 0.961 . S
H1478 C1463 0.961 . S
H1479 C1463 0.961 . S
H1480 C1464 0.931 . S
H1481 C1469 0.930 . S
H1482 C1470 0.956 . S
H1483 C1470 0.961 . S
H1484 C1470 0.961 . S
H1485 C1471 0.958 . S
H1486 C1471 0.961 . S
H1487 C1471 0.960 . S
C1488 C1489 1.391 . S
C1488 C1490 1.394 . S
C1488 H1504 0.931 . S
C1489 C1488 1.391 . S
C1489 C1493 1.376 . S
C1490 C1488 1.394 . S
C1490 C1491 1.369 . S
C1490 C1494 1.531 . S
C1491 C1490 1.369 . S
C1491 C1492 1.410 . S
C1491 C1499 1.503 . S
C1492 C1491 1.410 . S
C1492 C1493 1.392 . S
C1492 C1495 1.511 . S
C1493 C1489 1.376 . S
C1493 C1492 1.392 . S
C1493 H1505 0.929 . S
C1494 C1490 1.531 . S
C1494 H1506 0.960 . S
C1494 H1507 0.962 . S
C1494 H1508 0.960 . S
C1495 C1492 1.511 . S
C1495 H1509 0.961 . S
C1495 H1510 0.961 . S
C1495 H1511 0.961 . S
C1496 C1497 1.370 . S
C1496 C1498 1.363 . S
C1496 H1512 0.931 . S
C1497 C1496 1.370 . S
C1497 C1501 1.408 . S
C1498 C1496 1.363 . S
C1498 C1499 1.370 . S
C1498 C1502 1.524 . S
C1499 C1491 1.503 . S
C1499 C1498 1.370 . S
C1499 C1500 1.403 . S
C1500 C1499 1.403 . S
C1500 C1501 1.404 . S
C1500 C1503 1.539 . S
C1501 C1497 1.408 . S
C1501 C1500 1.404 . S
C1501 H1513 0.930 . S
C1502 C1498 1.524 . S
C1502 H1514 0.956 . S
C1502 H1515 0.961 . S
C1502 H1516 0.961 . S
C1503 C1500 1.539 . S
C1503 H1517 0.958 . S
C1503 H1518 0.961 . S
C1503 H1519 0.960 . S
H1504 C1488 0.931 . S
H1505 C1493 0.929 . S
H1506 C1494 0.960 . S
H1507 C1494 0.962 . S
H1508 C1494 0.960 . S
H1509 C1495 0.961 . S
H1510 C1495 0.961 . S
H1511 C1495 0.961 . S
H1512 C1496 0.931 . S
H1513 C1501 0.930 . S
H1514 C1502 0.956 . S
H1515 C1502 0.961 . S
H1516 C1502 0.961 . S
H1517 C1503 0.958 . S
H1518 C1503 0.961 . S
H1519 C1503 0.960 . S
C1520 C1521 1.391 . S
C1520 C1522 1.394 . S
C1520 H1536 0.931 . S
C1521 C1520 1.391 . S
C1521 C1525 1.376 . S
C1522 C1520 1.394 . S
C1522 C1523 1.369 . S
C1522 C1526 1.531 . S
C1523 C1522 1.369 . S
C1523 C1524 1.410 . S
C1523 C1531 1.503 . S
C1524 C1523 1.410 . S
C1524 C1525 1.392 . S
C1524 C1527 1.511 . S
C1525 C1521 1.376 . S
C1525 C1524 1.392 . S
C1525 H1537 0.929 . S
C1526 C1522 1.531 . S
C1526 H1538 0.960 . S
C1526 H1539 0.962 . S
C1526 H1540 0.960 . S
C1527 C1524 1.511 . S
C1527 H1541 0.961 . S
C1527 H1542 0.961 . S
C1527 H1543 0.961 . S
C1528 C1529 1.370 . S
C1528 C1530 1.363 . S
C1528 H1544 0.931 . S
C1529 C1528 1.370 . S
C1529 C1533 1.408 . S
C1530 C1528 1.363 . S
C1530 C1531 1.370 . S
C1530 C1534 1.524 . S
C1531 C1523 1.503 . S
C1531 C1530 1.370 . S
C1531 C1532 1.403 . S
C1532 C1531 1.403 . S
C1532 C1533 1.404 . S
C1532 C1535 1.539 . S
C1533 C1529 1.408 . S
C1533 C1532 1.404 . S
C1533 H1545 0.930 . S
C1534 C1530 1.524 . S
C1534 H1546 0.956 . S
C1534 H1547 0.961 . S
C1534 H1548 0.961 . S
C1535 C1532 1.539 . S
C1535 H1549 0.958 . S
C1535 H1550 0.961 . S
C1535 H1551 0.960 . S
H1536 C1520 0.931 . S
H1537 C1525 0.929 . S
H1538 C1526 0.960 . S
H1539 C1526 0.962 . S
H1540 C1526 0.960 . S
H1541 C1527 0.961 . S
H1542 C1527 0.961 . S
H1543 C1527 0.961 . S
H1544 C1528 0.931 . S
H1545 C1533 0.930 . S
H1546 C1534 0.956 . S
H1547 C1534 0.961 . S
H1548 C1534 0.961 . S
H1549 C1535 0.958 . S
H1550 C1535 0.961 . S
H1551 C1535 0.960 . S
C1552 C1553 1.391 1_655 S
C1552 C1554 1.394 . S
C1552 H1568 0.931 . S
C1553 C1552 1.391 1_455 S
C1553 C1557 1.376 . S
C1554 C1552 1.394 . S
C1554 C1555 1.369 1_655 S
C1554 C1558 1.531 . S
C1555 C1554 1.369 1_455 S
C1555 C1556 1.410 . S
C1555 C1563 1.503 . S
C1556 C1555 1.410 . S
C1556 C1557 1.392 . S
C1556 C1559 1.511 . S
C1557 C1553 1.376 . S
C1557 C1556 1.392 . S
C1557 H1569 0.929 . S
C1558 C1554 1.531 . S
C1558 H1570 0.960 . S
C1558 H1571 0.962 . S
C1558 H1572 0.960 . S
C1559 C1556 1.511 . S
C1559 H1573 0.961 . S
C1559 H1574 0.961 . S
C1559 H1575 0.961 . S
C1560 C1561 1.370 . S
C1560 C1562 1.363 . S
C1560 H1576 0.931 . S
C1561 C1560 1.370 . S
C1561 C1565 1.408 1_455 S
C1562 C1560 1.363 . S
C1562 C1563 1.370 . S
C1562 C1566 1.524 . S
C1563 C1555 1.503 . S
C1563 C1562 1.370 . S
C1563 C1564 1.403 1_455 S
C1564 C1563 1.403 1_655 S
C1564 C1565 1.404 . S
C1564 C1567 1.539 . S
C1565 C1561 1.408 1_655 S
C1565 C1564 1.404 . S
C1565 H1577 0.930 . S
C1566 C1562 1.524 . S
C1566 H1578 0.956 . S
C1566 H1579 0.961 . S
C1566 H1580 0.961 . S
C1567 C1564 1.539 . S
C1567 H1581 0.958 . S
C1567 H1582 0.961 . S
C1567 H1583 0.960 . S
H1568 C1552 0.931 . S
H1569 C1557 0.929 . S
H1570 C1558 0.960 . S
H1571 C1558 0.962 . S
H1572 C1558 0.960 . S
H1573 C1559 0.961 . S
H1574 C1559 0.961 . S
H1575 C1559 0.961 . S
H1576 C1560 0.931 . S
H1577 C1565 0.930 . S
H1578 C1566 0.956 . S
H1579 C1566 0.961 . S
H1580 C1566 0.961 . S
H1581 C1567 0.958 . S
H1582 C1567 0.961 . S
H1583 C1567 0.960 . S
C1584 C1585 1.391 . S
C1584 C1586 1.394 . S
C1584 H1600 0.931 . S
C1585 C1584 1.391 . S
C1585 C1589 1.376 . S
C1586 C1584 1.394 . S
C1586 C1587 1.369 . S
C1586 C1590 1.531 . S
C1587 C1586 1.369 . S
C1587 C1588 1.410 . S
C1587 C1595 1.503 . S
C1588 C1587 1.410 . S
C1588 C1589 1.392 . S
C1588 C1591 1.511 . S
C1589 C1585 1.376 . S
C1589 C1588 1.392 . S
C1589 H1601 0.929 . S
C1590 C1586 1.531 . S
C1590 H1602 0.960 . S
C1590 H1603 0.962 . S
C1590 H1604 0.960 . S
C1591 C1588 1.511 . S
C1591 H1605 0.961 . S
C1591 H1606 0.961 . S
C1591 H1607 0.961 . S
C1592 C1593 1.370 . S
C1592 C1594 1.363 . S
C1592 H1608 0.931 . S
C1593 C1592 1.370 . S
C1593 C1597 1.408 . S
C1594 C1592 1.363 . S
C1594 C1595 1.370 . S
C1594 C1598 1.524 . S
C1595 C1587 1.503 . S
C1595 C1594 1.370 . S
C1595 C1596 1.403 . S
C1596 C1595 1.403 . S
C1596 C1597 1.404 . S
C1596 C1599 1.539 . S
C1597 C1593 1.408 . S
C1597 C1596 1.404 . S
C1597 H1609 0.930 . S
C1598 C1594 1.524 . S
C1598 H1610 0.956 . S
C1598 H1611 0.961 . S
C1598 H1612 0.961 . S
C1599 C1596 1.539 . S
C1599 H1613 0.958 . S
C1599 H1614 0.961 . S
C1599 H1615 0.960 . S
H1600 C1584 0.931 . S
H1601 C1589 0.929 . S
H1602 C1590 0.960 . S
H1603 C1590 0.962 . S
H1604 C1590 0.960 . S
H1605 C1591 0.961 . S
H1606 C1591 0.961 . S
H1607 C1591 0.961 . S
H1608 C1592 0.931 . S
H1609 C1597 0.930 . S
H1610 C1598 0.956 . S
H1611 C1598 0.961 . S
H1612 C1598 0.961 . S
H1613 C1599 0.958 . S
H1614 C1599 0.961 . S
H1615 C1599 0.960 . S
C1616 C1617 1.391 . S
C1616 C1618 1.394 . S
C1616 H1632 0.931 . S
C1617 C1616 1.391 . S
C1617 C1621 1.376 . S
C1618 C1616 1.394 . S
C1618 C1619 1.369 . S
C1618 C1622 1.531 . S
C1619 C1618 1.369 . S
C1619 C1620 1.410 . S
C1619 C1627 1.503 . S
C1620 C1619 1.410 . S
C1620 C1621 1.392 . S
C1620 C1623 1.511 . S
C1621 C1617 1.376 . S
C1621 C1620 1.392 . S
C1621 H1633 0.929 . S
C1622 C1618 1.531 . S
C1622 H1634 0.960 . S
C1622 H1635 0.962 . S
C1622 H1636 0.960 . S
C1623 C1620 1.511 . S
C1623 H1637 0.961 . S
C1623 H1638 0.961 . S
C1623 H1639 0.961 . S
C1624 C1625 1.370 . S
C1624 C1626 1.363 . S
C1624 H1640 0.931 1_556 S
C1625 C1624 1.370 . S
C1625 C1629 1.408 . S
C1626 C1624 1.363 . S
C1626 C1627 1.370 . S
C1626 C1630 1.524 . S
C1627 C1619 1.503 . S
C1627 C1626 1.370 . S
C1627 C1628 1.403 . S
C1628 C1627 1.403 . S
C1628 C1629 1.404 . S
C1628 C1631 1.539 . S
C1629 C1625 1.408 . S
C1629 C1628 1.404 . S
C1629 H1641 0.930 . S
C1630 C1626 1.524 . S
C1630 H1642 0.956 . S
C1630 H1643 0.961 . S
C1630 H1644 0.961 1_556 S
C1631 C1628 1.539 . S
C1631 H1645 0.958 . S
C1631 H1646 0.961 . S
C1631 H1647 0.960 . S
H1632 C1616 0.931 . S
H1633 C1621 0.929 . S
H1634 C1622 0.960 . S
H1635 C1622 0.962 . S
H1636 C1622 0.960 . S
H1637 C1623 0.961 . S
H1638 C1623 0.961 . S
H1639 C1623 0.961 . S
H1640 C1624 0.931 1_554 S
H1641 C1629 0.930 . S
H1642 C1630 0.956 . S
H1643 C1630 0.961 . S
H1644 C1630 0.961 1_554 S
H1645 C1631 0.958 . S
H1646 C1631 0.961 . S
H1647 C1631 0.960 . S
C1648 C1649 1.391 . S
C1648 C1650 1.394 . S
C1648 H1664 0.931 . S
C1649 C1648 1.391 . S
C1649 C1653 1.376 . S
C1650 C1648 1.394 . S
C1650 C1651 1.369 . S
C1650 C1654 1.531 . S
C1651 C1650 1.369 . S
C1651 C1652 1.410 . S
C1651 C1659 1.503 . S
C1652 C1651 1.410 . S
C1652 C1653 1.392 . S
C1652 C1655 1.511 . S
C1653 C1649 1.376 . S
C1653 C1652 1.392 . S
C1653 H1665 0.929 . S
C1654 C1650 1.531 . S
C1654 H1666 0.960 . S
C1654 H1667 0.962 . S
C1654 H1668 0.960 . S
C1655 C1652 1.511 . S
C1655 H1669 0.961 . S
C1655 H1670 0.961 . S
C1655 H1671 0.961 . S
C1656 C1657 1.370 . S
C1656 C1658 1.363 . S
C1656 H1672 0.931 . S
C1657 C1656 1.370 . S
C1657 C1661 1.408 . S
C1658 C1656 1.363 . S
C1658 C1659 1.370 . S
C1658 C1662 1.524 . S
C1659 C1651 1.503 . S
C1659 C1658 1.370 . S
C1659 C1660 1.403 . S
C1660 C1659 1.403 . S
C1660 C1661 1.404 . S
C1660 C1663 1.539 . S
C1661 C1657 1.408 . S
C1661 C1660 1.404 . S
C1661 H1673 0.930 . S
C1662 C1658 1.524 . S
C1662 H1674 0.956 . S
C1662 H1675 0.961 . S
C1662 H1676 0.961 . S
C1663 C1660 1.539 . S
C1663 H1677 0.958 . S
C1663 H1678 0.961 . S
C1663 H1679 0.960 . S
H1664 C1648 0.931 . S
H1665 C1653 0.929 . S
H1666 C1654 0.960 . S
H1667 C1654 0.962 . S
H1668 C1654 0.960 . S
H1669 C1655 0.961 . S
H1670 C1655 0.961 . S
H1671 C1655 0.961 . S
H1672 C1656 0.931 . S
H1673 C1661 0.930 . S
H1674 C1662 0.956 . S
H1675 C1662 0.961 . S
H1676 C1662 0.961 . S
H1677 C1663 0.958 . S
H1678 C1663 0.961 . S
H1679 C1663 0.960 . S
C1680 C1681 1.391 . S
C1680 C1682 1.394 . S
C1680 H1696 0.931 . S
C1681 C1680 1.391 . S
C1681 C1685 1.376 1_545 S
C1682 C1680 1.394 . S
C1682 C1683 1.369 . S
C1682 C1686 1.531 . S
C1683 C1682 1.369 . S
C1683 C1684 1.410 1_545 S
C1683 C1691 1.503 . S
C1684 C1683 1.410 1_565 S
C1684 C1685 1.392 . S
C1684 C1687 1.511 . S
C1685 C1681 1.376 1_565 S
C1685 C1684 1.392 . S
C1685 H1697 0.929 . S
C1686 C1682 1.531 . S
C1686 H1698 0.960 . S
C1686 H1699 0.962 . S
C1686 H1700 0.960 . S
C1687 C1684 1.511 . S
C1687 H1701 0.961 . S
C1687 H1702 0.961 . S
C1687 H1703 0.961 . S
C1688 C1689 1.370 . S
C1688 C1690 1.363 . S
C1688 H1704 0.931 . S
C1689 C1688 1.370 . S
C1689 C1693 1.408 1_545 S
C1690 C1688 1.363 . S
C1690 C1691 1.370 . S
C1690 C1694 1.524 . S
C1691 C1683 1.503 . S
C1691 C1690 1.370 . S
C1691 C1692 1.403 1_545 S
C1692 C1691 1.403 1_565 S
C1692 C1693 1.404 . S
C1692 C1695 1.539 . S
C1693 C1689 1.408 1_565 S
C1693 C1692 1.404 . S
C1693 H1705 0.930 . S
C1694 C1690 1.524 . S
C1694 H1706 0.956 . S
C1694 H1707 0.961 . S
C1694 H1708 0.961 . S
C1695 C1692 1.539 . S
C1695 H1709 0.958 . S
C1695 H1710 0.961 . S
C1695 H1711 0.960 . S
H1696 C1680 0.931 . S
H1697 C1685 0.929 . S
H1698 C1686 0.960 . S
H1699 C1686 0.962 . S
H1700 C1686 0.960 . S
H1701 C1687 0.961 . S
H1702 C1687 0.961 . S
H1703 C1687 0.961 . S
H1704 C1688 0.931 . S
H1705 C1693 0.930 . S
H1706 C1694 0.956 . S
H1707 C1694 0.961 . S
H1708 C1694 0.961 . S
H1709 C1695 0.958 . S
H1710 C1695 0.961 . S
H1711 C1695 0.960 . S
C1712 C1713 1.391 . S
C1712 C1714 1.394 . S
C1712 H1728 0.931 . S
C1713 C1712 1.391 . S
C1713 C1717 1.376 . S
C1714 C1712 1.394 . S
C1714 C1715 1.369 . S
C1714 C1718 1.531 . S
C1715 C1714 1.369 . S
C1715 C1716 1.410 . S
C1715 C1723 1.503 . S
C1716 C1715 1.410 . S
C1716 C1717 1.392 . S
C1716 C1719 1.511 . S
C1717 C1713 1.376 . S
C1717 C1716 1.392 . S
C1717 H1729 0.929 . S
C1718 C1714 1.531 . S
C1718 H1730 0.960 . S
C1718 H1731 0.962 . S
C1718 H1732 0.960 . S
C1719 C1716 1.511 . S
C1719 H1733 0.961 . S
C1719 H1734 0.961 . S
C1719 H1735 0.961 . S
C1720 C1721 1.370 . S
C1720 C1722 1.363 . S
C1720 H1736 0.931 . S
C1721 C1720 1.370 . S
C1721 C1725 1.408 . S
C1722 C1720 1.363 . S
C1722 C1723 1.370 . S
C1722 C1726 1.524 . S
C1723 C1715 1.503 . S
C1723 C1722 1.370 . S
C1723 C1724 1.403 . S
C1724 C1723 1.403 . S
C1724 C1725 1.404 . S
C1724 C1727 1.539 . S
C1725 C1721 1.408 . S
C1725 C1724 1.404 . S
C1725 H1737 0.930 . S
C1726 C1722 1.524 . S
C1726 H1738 0.956 . S
C1726 H1739 0.961 . S
C1726 H1740 0.961 . S
C1727 C1724 1.539 . S
C1727 H1741 0.958 . S
C1727 H1742 0.961 . S
C1727 H1743 0.960 . S
H1728 C1712 0.931 . S
H1729 C1717 0.929 . S
H1730 C1718 0.960 . S
H1731 C1718 0.962 . S
H1732 C1718 0.960 . S
H1733 C1719 0.961 . S
H1734 C1719 0.961 . S
H1735 C1719 0.961 . S
H1736 C1720 0.931 . S
H1737 C1725 0.930 . S
H1738 C1726 0.956 . S
H1739 C1726 0.961 . S
H1740 C1726 0.961 . S
H1741 C1727 0.958 . S
H1742 C1727 0.961 . S
H1743 C1727 0.960 . S
C1744 C1745 1.391 . S
C1744 C1746 1.394 . S
C1744 H1760 0.931 . S
C1745 C1744 1.391 . S
C1745 C1749 1.376 . S
C1746 C1744 1.394 . S
C1746 C1747 1.369 . S
C1746 C1750 1.531 . S
C1747 C1746 1.369 . S
C1747 C1748 1.410 . S
C1747 C1755 1.503 . S
C1748 C1747 1.410 . S
C1748 C1749 1.392 . S
C1748 C1751 1.511 . S
C1749 C1745 1.376 . S
C1749 C1748 1.392 . S
C1749 H1761 0.929 . S
C1750 C1746 1.531 . S
C1750 H1762 0.960 . S
C1750 H1763 0.962 . S
C1750 H1764 0.960 . S
C1751 C1748 1.511 . S
C1751 H1765 0.961 . S
C1751 H1766 0.961 . S
C1751 H1767 0.961 . S
C1752 C1753 1.370 . S
C1752 C1754 1.363 . S
C1752 H1768 0.931 1_545 S
C1753 C1752 1.370 . S
C1753 C1757 1.408 . S
C1754 C1752 1.363 . S
C1754 C1755 1.370 . S
C1754 C1758 1.524 1_545 S
C1755 C1747 1.503 . S
C1755 C1754 1.370 . S
C1755 C1756 1.403 . S
C1756 C1755 1.403 . S
C1756 C1757 1.404 . S
C1756 C1759 1.539 . S
C1757 C1753 1.408 . S
C1757 C1756 1.404 . S
C1757 H1769 0.930 . S
C1758 C1754 1.524 1_565 S
C1758 H1770 0.956 . S
C1758 H1771 0.961 . S
C1758 H1772 0.961 . S
C1759 C1756 1.539 . S
C1759 H1773 0.958 . S
C1759 H1774 0.961 . S
C1759 H1775 0.960 . S
H1760 C1744 0.931 . S
H1761 C1749 0.929 . S
H1762 C1750 0.960 . S
H1763 C1750 0.962 . S
H1764 C1750 0.960 . S
H1765 C1751 0.961 . S
H1766 C1751 0.961 . S
H1767 C1751 0.961 . S
H1768 C1752 0.931 1_565 S
H1769 C1757 0.930 . S
H1770 C1758 0.956 . S
H1771 C1758 0.961 . S
H1772 C1758 0.961 . S
H1773 C1759 0.958 . S
H1774 C1759 0.961 . S
H1775 C1759 0.960 . S
C1776 C1777 1.391 . S
C1776 C1778 1.394 . S
C1776 H1792 0.931 . S
C1777 C1776 1.391 . S
C1777 C1781 1.376 . S
C1778 C1776 1.394 . S
C1778 C1779 1.369 . S
C1778 C1782 1.531 . S
C1779 C1778 1.369 . S
C1779 C1780 1.410 . S
C1779 C1787 1.503 . S
C1780 C1779 1.410 . S
C1780 C1781 1.392 . S
C1780 C1783 1.511 . S
C1781 C1777 1.376 . S
C1781 C1780 1.392 . S
C1781 H1793 0.929 . S
C1782 C1778 1.531 . S
C1782 H1794 0.960 . S
C1782 H1795 0.962 . S
C1782 H1796 0.960 . S
C1783 C1780 1.511 . S
C1783 H1797 0.961 . S
C1783 H1798 0.961 . S
C1783 H1799 0.961 . S
C1784 C1785 1.370 . S
C1784 C1786 1.363 . S
C1784 H1800 0.931 . S
C1785 C1784 1.370 . S
C1785 C1789 1.408 . S
C1786 C1784 1.363 . S
C1786 C1787 1.370 . S
C1786 C1790 1.524 . S
C1787 C1779 1.503 . S
C1787 C1786 1.370 . S
C1787 C1788 1.403 . S
C1788 C1787 1.403 . S
C1788 C1789 1.404 . S
C1788 C1791 1.539 . S
C1789 C1785 1.408 . S
C1789 C1788 1.404 . S
C1789 H1801 0.930 . S
C1790 C1786 1.524 . S
C1790 H1802 0.956 . S
C1790 H1803 0.961 . S
C1790 H1804 0.961 . S
C1791 C1788 1.539 . S
C1791 H1805 0.958 . S
C1791 H1806 0.961 . S
C1791 H1807 0.960 . S
H1792 C1776 0.931 . S
H1793 C1781 0.929 . S
H1794 C1782 0.960 . S
H1795 C1782 0.962 . S
H1796 C1782 0.960 . S
H1797 C1783 0.961 . S
H1798 C1783 0.961 . S
H1799 C1783 0.961 . S
H1800 C1784 0.931 . S
H1801 C1789 0.930 . S
H1802 C1790 0.956 . S
H1803 C1790 0.961 . S
H1804 C1790 0.961 . S
H1805 C1791 0.958 . S
H1806 C1791 0.961 . S
H1807 C1791 0.960 . S
C1808 C1809 1.391 1_545 S
C1808 C1810 1.394 . S
C1808 H1824 0.931 . S
C1809 C1808 1.391 1_565 S
C1809 C1813 1.376 . S
C1810 C1808 1.394 . S
C1810 C1811 1.369 . S
C1810 C1814 1.531 . S
C1811 C1810 1.369 . S
C1811 C1812 1.400 1_545 S
C1811 C1819 1.503 . S
C1812 C1811 1.400 1_565 S
C1812 C1813 1.398 . S
C1812 C1815 1.515 . S
C1813 C1809 1.376 . S
C1813 C1812 1.398 . S
C1813 H1825 0.929 . S
C1814 C1810 1.531 . S
C1814 H1826 0.960 . S
C1814 H1827 0.962 . S
C1814 H1828 0.960 . S
C1815 C1812 1.515 . S
C1815 H1829 0.961 . S
C1815 H1830 0.961 . S
C1815 H1831 0.961 1_565 S
C1816 C1817 1.370 1_565 S
C1816 C1818 1.363 . S
C1816 H1832 0.931 . S
C1817 C1816 1.370 1_545 S
C1817 C1821 1.408 . S
C1818 C1816 1.363 . S
C1818 C1819 1.370 1_565 S
C1818 C1822 1.524 . S
C1819 C1811 1.503 . S
C1819 C1818 1.370 1_545 S
C1819 C1820 1.403 . S
C1820 C1819 1.403 . S
C1820 C1821 1.404 . S
C1820 C1823 1.539 . S
C1821 C1817 1.408 . S
C1821 C1820 1.404 . S
C1821 H1833 0.930 . S
C1822 C1818 1.524 . S
C1822 H1834 0.956 . S
C1822 H1835 0.961 . S
C1822 H1836 0.961 . S
C1823 C1820 1.539 . S
C1823 H1837 0.958 . S
C1823 H1838 0.961 . S
C1823 H1839 0.960 . S
H1824 C1808 0.931 . S
H1825 C1813 0.929 . S
H1826 C1814 0.960 . S
H1827 C1814 0.962 . S
H1828 C1814 0.960 . S
H1829 C1815 0.961 . S
H1830 C1815 0.961 . S
H1831 C1815 0.961 1_545 S
H1832 C1816 0.931 . S
H1833 C1821 0.930 . S
H1834 C1822 0.956 . S
H1835 C1822 0.961 . S
H1836 C1822 0.961 . S
H1837 C1823 0.958 . S
H1838 C1823 0.961 . S
H1839 C1823 0.960 . S
C1840 C1841 1.391 . S
C1840 C1842 1.394 . S
C1840 H1856 0.931 . S
C1841 C1840 1.391 . S
C1841 C1845 1.376 . S
C1842 C1840 1.394 . S
C1842 C1843 1.369 . S
C1842 C1846 1.531 . S
C1843 C1842 1.369 . S
C1843 C1844 1.410 . S
C1843 C1851 1.503 . S
C1844 C1843 1.410 . S
C1844 C1845 1.392 . S
C1844 C1847 1.511 . S
C1845 C1841 1.376 . S
C1845 C1844 1.392 . S
C1845 H1857 0.929 . S
C1846 C1842 1.531 . S
C1846 H1858 0.960 . S
C1846 H1859 0.962 . S
C1846 H1860 0.960 . S
C1847 C1844 1.511 . S
C1847 H1861 0.961 . S
C1847 H1862 0.961 . S
C1847 H1863 0.961 . S
C1848 C1849 1.370 . S
C1848 C1850 1.363 . S
C1848 H1864 0.931 . S
C1849 C1848 1.370 . S
C1849 C1853 1.408 . S
C1850 C1848 1.363 . S
C1850 C1851 1.370 . S
C1850 C1854 1.524 . S
C1851 C1843 1.503 . S
C1851 C1850 1.370 . S
C1851 C1852 1.403 . S
C1852 C1851 1.403 . S
C1852 C1853 1.404 . S
C1852 C1855 1.539 . S
C1853 C1849 1.408 . S
C1853 C1852 1.404 . S
C1853 H1865 0.930 . S
C1854 C1850 1.524 . S
C1854 H1866 0.956 . S
C1854 H1867 0.961 . S
C1854 H1868 0.961 . S
C1855 C1852 1.539 . S
C1855 H1869 0.958 . S
C1855 H1870 0.961 . S
C1855 H1871 0.960 . S
H1856 C1840 0.931 . S
H1857 C1845 0.929 . S
H1858 C1846 0.960 . S
H1859 C1846 0.962 . S
H1860 C1846 0.960 . S
H1861 C1847 0.961 . S
H1862 C1847 0.961 . S
H1863 C1847 0.961 . S
H1864 C1848 0.931 . S
H1865 C1853 0.930 . S
H1866 C1854 0.956 . S
H1867 C1854 0.961 . S
H1868 C1854 0.961 . S
H1869 C1855 0.958 . S
H1870 C1855 0.961 . S
H1871 C1855 0.960 . S
C1872 C1873 1.391 . S
C1872 C1874 1.394 . S
C1872 H1888 0.931 . S
C1873 C1872 1.391 . S
C1873 C1877 1.376 . S
C1874 C1872 1.394 . S
C1874 C1875 1.369 . S
C1874 C1878 1.531 . S
C1875 C1874 1.369 . S
C1875 C1876 1.410 . S
C1875 C1883 1.503 . S
C1876 C1875 1.410 . S
C1876 C1877 1.392 . S
C1876 C1879 1.511 . S
C1877 C1873 1.376 . S
C1877 C1876 1.392 . S
C1877 H1889 0.929 . S
C1878 C1874 1.531 . S
C1878 H1890 0.960 1_545 S
C1878 H1891 0.962 . S
C1878 H1892 0.960 1_545 S
C1879 C1876 1.511 . S
C1879 H1893 0.961 . S
C1879 H1894 0.961 . S
C1879 H1895 0.961 . S
C1880 C1881 1.370 . S
C1880 C1882 1.363 . S
C1880 H1896 0.931 . S
C1881 C1880 1.370 . S
C1881 C1885 1.408 . S
C1882 C1880 1.363 . S
C1882 C1883 1.370 . S
C1882 C1886 1.524 . S
C1883 C1875 1.503 . S
C1883 C1882 1.370 . S
C1883 C1884 1.403 . S
C1884 C1883 1.403 . S
C1884 C1885 1.404 . S
C1884 C1887 1.539 1_545 S
C1885 C1881 1.408 . S
C1885 C1884 1.404 . S
C1885 H1897 0.950 . S
C1886 C1882 1.524 . S
C1886 H1898 0.956 . S
C1886 H1899 0.961 . S
C1886 H1900 0.961 . S
C1887 C1884 1.539 1_565 S
C1887 H1901 0.958 . S
C1887 H1902 0.961 . S
C1887 H1903 0.960 1_565 S
H1888 C1872 0.931 . S
H1889 C1877 0.929 . S
H1890 C1878 0.960 1_565 S
H1891 C1878 0.962 . S
H1892 C1878 0.960 1_565 S
H1893 C1879 0.961 . S
H1894 C1879 0.961 . S
H1895 C1879 0.961 . S
H1896 C1880 0.931 . S
H1897 C1885 0.950 . S
H1898 C1886 0.956 . S
H1899 C1886 0.961 . S
H1900 C1886 0.961 . S
H1901 C1887 0.958 . S
H1902 C1887 0.961 . S
H1903 C1887 0.960 1_545 S
C1904 C1905 1.391 . S
C1904 C1906 1.394 . S
C1904 H1920 0.931 . S
C1905 C1904 1.391 . S
C1905 C1909 1.376 . S
C1906 C1904 1.394 . S
C1906 C1907 1.369 . S
C1906 C1910 1.531 . S
C1907 C1906 1.369 . S
C1907 C1908 1.410 . S
C1907 C1915 1.503 . S
C1908 C1907 1.410 . S
C1908 C1909 1.392 . S
C1908 C1911 1.511 . S
C1909 C1905 1.376 . S
C1909 C1908 1.392 . S
C1909 H1921 0.929 . S
C1910 C1906 1.531 . S
C1910 H1922 0.960 . S
C1910 H1923 0.962 . S
C1910 H1924 0.960 . S
C1911 C1908 1.511 . S
C1911 H1925 0.961 . S
C1911 H1926 0.961 . S
C1911 H1927 0.961 . S
C1912 C1913 1.370 . S
C1912 C1914 1.363 . S
C1912 H1928 0.931 . S
C1913 C1912 1.370 . S
C1913 C1917 1.408 . S
C1914 C1912 1.363 . S
C1914 C1915 1.370 . S
C1914 C1918 1.524 . S
C1915 C1907 1.503 . S
C1915 C1914 1.370 . S
C1915 C1916 1.403 . S
C1916 C1915 1.403 . S
C1916 C1917 1.404 . S
C1916 C1919 1.539 . S
C1917 C1913 1.408 . S
C1917 C1916 1.404 . S
C1917 H1929 0.930 . S
C1918 C1914 1.524 . S
C1918 H1930 0.956 . S
C1918 H1931 0.961 . S
C1918 H1932 0.961 . S
C1919 C1916 1.539 . S
C1919 H1933 0.958 . S
C1919 H1934 0.961 . S
C1919 H1935 0.960 . S
H1920 C1904 0.931 . S
H1921 C1909 0.929 . S
H1922 C1910 0.960 . S
H1923 C1910 0.962 . S
H1924 C1910 0.960 . S
H1925 C1911 0.961 . S
H1926 C1911 0.961 . S
H1927 C1911 0.961 . S
H1928 C1912 0.931 . S
H1929 C1917 0.930 . S
H1930 C1918 0.956 . S
H1931 C1918 0.961 . S
H1932 C1918 0.961 . S
H1933 C1919 0.958 . S
H1934 C1919 0.961 . S
H1935 C1919 0.960 . S
C1936 C1937 1.391 1_556 S
C1936 C1938 1.394 . S
C1936 H1952 0.931 . S
C1937 C1936 1.391 1_554 S
C1937 C1941 1.376 . S
C1938 C1936 1.394 . S
C1938 C1939 1.371 1_556 S
C1938 C1942 1.531 . S
C1939 C1938 1.371 1_554 S
C1939 C1940 1.407 . S
C1939 C1947 1.503 . S
C1940 C1939 1.407 . S
C1940 C1941 1.392 . S
C1940 C1943 1.511 . S
C1941 C1937 1.376 . S
C1941 C1940 1.392 . S
C1941 H1953 0.929 . S
C1942 C1938 1.531 . S
C1942 H1954 0.960 . S
C1942 H1955 0.962 . S
C1942 H1956 0.960 . S
C1943 C1940 1.511 . S
C1943 H1957 0.961 . S
C1943 H1958 0.961 . S
C1943 H1959 0.961 . S
C1944 C1945 1.370 . S
C1944 C1946 1.363 . S
C1944 H1960 0.931 . S
C1945 C1944 1.370 . S
C1945 C1949 1.408 1_554 S
C1946 C1944 1.363 . S
C1946 C1947 1.370 . S
C1946 C1950 1.524 . S
C1947 C1939 1.503 . S
C1947 C1946 1.370 . S
C1947 C1948 1.403 1_554 S
C1948 C1947 1.403 1_556 S
C1948 C1949 1.404 . S
C1948 C1951 1.539 . S
C1949 C1945 1.408 1_556 S
C1949 C1948 1.404 . S
C1949 H1961 0.930 . S
C1950 C1946 1.524 . S
C1950 H1962 0.956 . S
C1950 H1963 0.961 . S
C1950 H1964 0.961 . S
C1951 C1948 1.539 . S
C1951 H1965 0.958 . S
C1951 H1966 0.961 . S
C1951 H1967 0.960 . S
H1952 C1936 0.931 . S
H1953 C1941 0.929 . S
H1954 C1942 0.960 . S
H1955 C1942 0.962 . S
H1956 C1942 0.960 . S
H1957 C1943 0.961 . S
H1958 C1943 0.961 . S
H1959 C1943 0.961 . S
H1960 C1944 0.931 . S
H1961 C1949 0.930 . S
H1962 C1950 0.956 . S
H1963 C1950 0.961 . S
H1964 C1950 0.961 . S
H1965 C1951 0.958 . S
H1966 C1951 0.961 . S
H1967 C1951 0.960 . S
C1968 C1969 1.391 . S
C1968 C1970 1.394 . S
C1968 H1984 0.931 . S
C1969 C1968 1.391 . S
C1969 C1973 1.376 . S
C1970 C1968 1.394 . S
C1970 C1971 1.369 . S
C1970 C1974 1.531 . S
C1971 C1970 1.369 . S
C1971 C1972 1.410 . S
C1971 C1979 1.503 . S
C1972 C1971 1.410 . S
C1972 C1973 1.392 . S
C1972 C1975 1.511 . S
C1973 C1969 1.376 . S
C1973 C1972 1.392 . S
C1973 H1985 0.929 . S
C1974 C1970 1.531 . S
C1974 H1986 0.960 . S
C1974 H1987 0.962 . S
C1974 H1988 0.960 . S
C1975 C1972 1.511 . S
C1975 H1989 0.961 . S
C1975 H1990 0.961 . S
C1975 H1991 0.961 . S
C1976 C1977 1.370 . S
C1976 C1978 1.363 . S
C1976 H1992 0.931 1_554 S
C1977 C1976 1.370 . S
C1977 C1981 1.408 . S
C1978 C1976 1.363 . S
C1978 C1979 1.370 . S
C1978 C1982 1.524 1_554 S
C1979 C1971 1.503 . S
C1979 C1978 1.370 . S
C1979 C1980 1.403 . S
C1980 C1979 1.403 . S
C1980 C1981 1.404 . S
C1980 C1983 1.539 . S
C1981 C1977 1.408 . S
C1981 C1980 1.404 . S
C1981 H1993 0.930 . S
C1982 C1978 1.524 1_556 S
C1982 H1994 0.956 . S
C1982 H1995 0.961 . S
C1982 H1996 0.961 . S
C1983 C1980 1.539 . S
C1983 H1997 0.958 . S
C1983 H1998 0.961 . S
C1983 H1999 0.960 . S
H1984 C1968 0.931 . S
H1985 C1973 0.929 . S
H1986 C1974 0.960 . S
H1987 C1974 0.962 . S
H1988 C1974 0.960 . S
H1989 C1975 0.961 . S
H1990 C1975 0.961 . S
H1991 C1975 0.961 . S
H1992 C1976 0.931 1_556 S
H1993 C1981 0.930 . S
H1994 C1982 0.956 . S
H1995 C1982 0.961 . S
H1996 C1982 0.961 . S
H1997 C1983 0.958 . S
H1998 C1983 0.961 . S
H1999 C1983 0.960 . S
C2000 C2001 1.391 . S
C2000 C2002 1.394 . S
C2000 H2016 0.931 . S
C2001 C2000 1.391 . S
C2001 C2005 1.376 . S
C2002 C2000 1.394 . S
C2002 C2003 1.369 . S
C2002 C2006 1.531 . S
C2003 C2002 1.369 . S
C2003 C2004 1.410 . S
C2003 C2011 1.503 . S
C2004 C2003 1.410 . S
C2004 C2005 1.392 . S
C2004 C2007 1.511 . S
C2005 C2001 1.376 . S
C2005 C2004 1.392 . S
C2005 H2017 0.929 . S
C2006 C2002 1.531 . S
C2006 H2018 0.960 . S
C2006 H2019 0.962 . S
C2006 H2020 0.960 . S
C2007 C2004 1.511 . S
C2007 H2021 0.961 . S
C2007 H2022 0.961 . S
C2007 H2023 0.961 . S
C2008 C2009 1.370 . S
C2008 C2010 1.363 . S
C2008 H2024 0.931 . S
C2009 C2008 1.370 . S
C2009 C2013 1.408 . S
C2010 C2008 1.363 . S
C2010 C2011 1.370 . S
C2010 C2014 1.524 . S
C2011 C2003 1.503 . S
C2011 C2010 1.370 . S
C2011 C2012 1.403 . S
C2012 C2011 1.403 . S
C2012 C2013 1.404 . S
C2012 C2015 1.539 . S
C2013 C2009 1.408 . S
C2013 C2012 1.404 . S
C2013 H2025 0.930 . S
C2014 C2010 1.524 . S
C2014 H2026 0.956 . S
C2014 H2027 0.961 . S
C2014 H2028 0.961 . S
C2015 C2012 1.539 . S
C2015 H2029 0.958 . S
C2015 H2030 0.961 . S
C2015 H2031 0.960 . S
H2016 C2000 0.931 . S
H2017 C2005 0.929 . S
H2018 C2006 0.960 . S
H2019 C2006 0.962 . S
H2020 C2006 0.960 . S
H2021 C2007 0.961 . S
H2022 C2007 0.961 . S
H2023 C2007 0.961 . S
H2024 C2008 0.931 . S
H2025 C2013 0.930 . S
H2026 C2014 0.956 . S
H2027 C2014 0.961 . S
H2028 C2014 0.961 . S
H2029 C2015 0.958 . S
H2030 C2015 0.961 . S
H2031 C2015 0.960 . S
C2032 C2033 1.391 . S
C2032 C2034 1.394 . S
C2032 H2048 0.931 . S
C2033 C2032 1.391 . S
C2033 C2037 1.376 . S
C2034 C2032 1.394 . S
C2034 C2035 1.369 . S
C2034 C2038 1.531 . S
C2035 C2034 1.369 . S
C2035 C2036 1.410 . S
C2035 C2043 1.503 . S
C2036 C2035 1.410 . S
C2036 C2037 1.392 . S
C2036 C2039 1.511 . S
C2037 C2033 1.376 . S
C2037 C2036 1.392 . S
C2037 H2049 0.929 . S
C2038 C2034 1.531 . S
C2038 H2050 0.960 . S
C2038 H2051 0.962 . S
C2038 H2052 0.960 . S
C2039 C2036 1.511 . S
C2039 H2053 0.961 . S
C2039 H2054 0.961 . S
C2039 H2055 0.961 . S
C2040 C2041 1.370 . S
C2040 C2042 1.363 . S
C2040 H2056 0.931 . S
C2041 C2040 1.370 . S
C2041 C2045 1.408 . S
C2042 C2040 1.363 . S
C2042 C2043 1.370 . S
C2042 C2046 1.524 . S
C2043 C2035 1.503 . S
C2043 C2042 1.370 . S
C2043 C2044 1.403 . S
C2044 C2043 1.403 . S
C2044 C2045 1.404 . S
C2044 C2047 1.539 . S
C2045 C2041 1.408 . S
C2045 C2044 1.404 . S
C2045 H2057 0.930 . S
C2046 C2042 1.524 . S
C2046 H2058 0.956 . S
C2046 H2059 0.961 . S
C2046 H2060 0.961 . S
C2047 C2044 1.539 . S
C2047 H2061 0.958 . S
C2047 H2062 0.961 . S
C2047 H2063 0.960 . S
H2048 C2032 0.931 . S
H2049 C2037 0.929 . S
H2050 C2038 0.960 . S
H2051 C2038 0.962 . S
H2052 C2038 0.960 . S
H2053 C2039 0.961 . S
H2054 C2039 0.961 . S
H2055 C2039 0.961 . S
H2056 C2040 0.931 . S
H2057 C2045 0.930 . S
H2058 C2046 0.956 . S
H2059 C2046 0.961 . S
H2060 C2046 0.961 . S
H2061 C2047 0.958 . S
H2062 C2047 0.961 . S
H2063 C2047 0.960 . S
C2064 C2065 1.391 . S
C2064 C2066 1.394 . S
C2064 H2080 0.931 . S
C2065 C2064 1.391 . S
C2065 C2069 1.376 . S
C2066 C2064 1.394 . S
C2066 C2067 1.369 . S
C2066 C2070 1.531 . S
C2067 C2066 1.369 . S
C2067 C2068 1.410 . S
C2067 C2075 1.503 . S
C2068 C2067 1.410 . S
C2068 C2069 1.392 . S
C2068 C2071 1.511 . S
C2069 C2065 1.376 . S
C2069 C2068 1.392 . S
C2069 H2081 0.929 . S
C2070 C2066 1.531 . S
C2070 H2082 0.960 . S
C2070 H2083 0.962 . S
C2070 H2084 0.960 . S
C2071 C2068 1.511 . S
C2071 H2085 0.961 . S
C2071 H2086 0.961 . S
C2071 H2087 0.961 . S
C2072 C2073 1.370 . S
C2072 C2074 1.363 . S
C2072 H2088 0.931 . S
C2073 C2072 1.370 . S
C2073 C2077 1.408 . S
C2074 C2072 1.363 . S
C2074 C2075 1.370 . S
C2074 C2078 1.524 . S
C2075 C2067 1.503 . S
C2075 C2074 1.370 . S
C2075 C2076 1.403 . S
C2076 C2075 1.403 . S
C2076 C2077 1.404 . S
C2076 C2079 1.539 . S
C2077 C2073 1.408 . S
C2077 C2076 1.404 . S
C2077 H2089 0.930 . S
C2078 C2074 1.524 . S
C2078 H2090 0.956 . S
C2078 H2091 0.961 . S
C2078 H2092 0.961 . S
C2079 C2076 1.539 . S
C2079 H2093 0.958 . S
C2079 H2094 0.961 . S
C2079 H2095 0.960 . S
H2080 C2064 0.931 . S
H2081 C2069 0.929 . S
H2082 C2070 0.960 . S
H2083 C2070 0.962 . S
H2084 C2070 0.960 . S
H2085 C2071 0.961 . S
H2086 C2071 0.961 . S
H2087 C2071 0.961 . S
H2088 C2072 0.931 . S
H2089 C2077 0.930 . S
H2090 C2078 0.956 . S
H2091 C2078 0.961 . S
H2092 C2078 0.961 . S
H2093 C2079 0.958 . S
H2094 C2079 0.961 . S
H2095 C2079 0.960 . S
C2096 C2097 1.391 . S
C2096 C2098 1.394 . S
C2096 H2112 0.931 . S
C2097 C2096 1.391 . S
C2097 C2101 1.376 . S
C2098 C2096 1.394 . S
C2098 C2099 1.369 . S
C2098 C2102 1.531 . S
C2099 C2098 1.369 . S
C2099 C2100 1.410 . S
C2099 C2107 1.503 . S
C2100 C2099 1.410 . S
C2100 C2101 1.392 . S
C2100 C2103 1.511 . S
C2101 C2097 1.376 . S
C2101 C2100 1.392 . S
C2101 H2113 0.929 . S
C2102 C2098 1.531 . S
C2102 H2114 0.960 . S
C2102 H2115 0.962 . S
C2102 H2116 0.960 . S
C2103 C2100 1.511 . S
C2103 H2117 0.961 . S
C2103 H2118 0.961 . S
C2103 H2119 0.961 . S
C2104 C2105 1.370 . S
C2104 C2106 1.363 . S
C2104 H2120 0.931 . S
C2105 C2104 1.370 . S
C2105 C2109 1.408 1_565 S
C2106 C2104 1.363 . S
C2106 C2107 1.370 . S
C2106 C2110 1.524 . S
C2107 C2099 1.503 . S
C2107 C2106 1.370 . S
C2107 C2108 1.403 . S
C2108 C2107 1.403 . S
C2108 C2109 1.404 1_565 S
C2108 C2111 1.539 1_565 S
C2109 C2105 1.408 1_545 S
C2109 C2108 1.404 1_545 S
C2109 H2121 0.930 . S
C2110 C2106 1.524 . S
C2110 H2122 0.956 . S
C2110 H2123 0.961 . S
C2110 H2124 0.961 . S
C2111 C2108 1.539 1_545 S
C2111 H2125 0.958 . S
C2111 H2126 0.961 . S
C2111 H2127 0.975 . S
H2112 C2096 0.931 . S
H2113 C2101 0.929 . S
H2114 C2102 0.960 . S
H2115 C2102 0.962 . S
H2116 C2102 0.960 . S
H2117 C2103 0.961 . S
H2118 C2103 0.961 . S
H2119 C2103 0.961 . S
H2120 C2104 0.931 . S
H2121 C2109 0.930 . S
H2122 C2110 0.956 . S
H2123 C2110 0.961 . S
H2124 C2110 0.961 . S
H2125 C2111 0.958 . S
H2126 C2111 0.961 . S
H2127 C2111 0.975 . S
C2128 C2129 1.391 . S
C2128 C2130 1.394 . S
C2128 H2144 0.931 . S
C2129 C2128 1.391 . S
C2129 C2133 1.376 . S
C2130 C2128 1.394 . S
C2130 C2131 1.369 . S
C2130 C2134 1.531 . S
C2131 C2130 1.369 . S
C2131 C2132 1.410 . S
C2131 C2139 1.503 . S
C2132 C2131 1.410 . S
C2132 C2133 1.392 . S
C2132 C2135 1.511 . S
C2133 C2129 1.376 . S
C2133 C2132 1.392 . S
C2133 H2145 0.929 . S
C2134 C2130 1.531 . S
C2134 H2146 0.960 . S
C2134 H2147 0.962 . S
C2134 H2148 0.960 . S
C2135 C2132 1.511 . S
C2135 H2149 0.961 . S
C2135 H2150 0.961 . S
C2135 H2151 0.961 . S
C2136 C2137 1.370 . S
C2136 C2138 1.363 . S
C2136 H2152 0.931 . S
C2137 C2136 1.370 . S
C2137 C2141 1.408 . S
C2138 C2136 1.363 . S
C2138 C2139 1.370 . S
C2138 C2142 1.524 . S
C2139 C2131 1.503 . S
C2139 C2138 1.370 . S
C2139 C2140 1.403 . S
C2140 C2139 1.403 . S
C2140 C2141 1.404 . S
C2140 C2143 1.539 . S
C2141 C2137 1.408 . S
C2141 C2140 1.404 . S
C2141 H2153 0.930 . S
C2142 C2138 1.524 . S
C2142 H2154 0.956 . S
C2142 H2155 0.961 . S
C2142 H2156 0.961 . S
C2143 C2140 1.539 . S
C2143 H2157 0.958 . S
C2143 H2158 0.961 . S
C2143 H2159 0.960 . S
H2144 C2128 0.931 . S
H2145 C2133 0.929 . S
H2146 C2134 0.960 . S
H2147 C2134 0.962 . S
H2148 C2134 0.960 . S
H2149 C2135 0.961 . S
H2150 C2135 0.961 . S
H2151 C2135 0.961 . S
H2152 C2136 0.931 . S
H2153 C2141 0.930 . S
H2154 C2142 0.956 . S
H2155 C2142 0.961 . S
H2156 C2142 0.961 . S
H2157 C2143 0.958 . S
H2158 C2143 0.961 . S
H2159 C2143 0.960 . S
C2160 C2161 1.391 . S
C2160 C2162 1.394 . S
C2160 H2176 0.931 . S
C2161 C2160 1.391 . S
C2161 C2165 1.376 . S
C2162 C2160 1.394 . S
C2162 C2163 1.369 . S
C2162 C2166 1.531 . S
C2163 C2162 1.369 . S
C2163 C2164 1.410 . S
C2163 C2171 1.503 . S
C2164 C2163 1.410 . S
C2164 C2165 1.392 . S
C2164 C2167 1.511 . S
C2165 C2161 1.376 . S
C2165 C2164 1.392 . S
C2165 H2177 0.929 . S
C2166 C2162 1.531 . S
C2166 H2178 0.960 . S
C2166 H2179 0.962 . S
C2166 H2180 0.960 . S
C2167 C2164 1.511 . S
C2167 H2181 0.961 . S
C2167 H2182 0.961 . S
C2167 H2183 0.961 . S
C2168 C2169 1.370 . S
C2168 C2170 1.363 . S
C2168 H2184 0.931 . S
C2169 C2168 1.370 . S
C2169 C2173 1.408 . S
C2170 C2168 1.363 . S
C2170 C2171 1.370 . S
C2170 C2174 1.524 . S
C2171 C2163 1.503 . S
C2171 C2170 1.370 . S
C2171 C2172 1.403 . S
C2172 C2171 1.403 . S
C2172 C2173 1.404 . S
C2172 C2175 1.539 . S
C2173 C2169 1.408 . S
C2173 C2172 1.404 . S
C2173 H2185 0.930 . S
C2174 C2170 1.524 . S
C2174 H2186 0.956 . S
C2174 H2187 0.961 . S
C2174 H2188 0.961 . S
C2175 C2172 1.539 . S
C2175 H2189 0.958 . S
C2175 H2190 0.961 . S
C2175 H2191 0.960 . S
H2176 C2160 0.931 . S
H2177 C2165 0.929 . S
H2178 C2166 0.960 . S
H2179 C2166 0.962 . S
H2180 C2166 0.960 . S
H2181 C2167 0.961 . S
H2182 C2167 0.961 . S
H2183 C2167 0.961 . S
H2184 C2168 0.931 . S
H2185 C2173 0.930 . S
H2186 C2174 0.956 . S
H2187 C2174 0.961 . S
H2188 C2174 0.961 . S
H2189 C2175 0.958 . S
H2190 C2175 0.961 . S
H2191 C2175 0.960 . S
C2192 C2193 1.391 . S
C2192 C2194 1.394 . S
C2192 H2208 0.931 . S
C2193 C2192 1.391 . S
C2193 C2197 1.376 . S
C2194 C2192 1.394 . S
C2194 C2195 1.369 . S
C2194 C2198 1.531 . S
C2195 C2194 1.369 . S
C2195 C2196 1.410 . S
C2195 C2203 1.503 . S
C2196 C2195 1.410 . S
C2196 C2197 1.392 . S
C2196 C2199 1.511 . S
C2197 C2193 1.376 . S
C2197 C2196 1.392 . S
C2197 H2209 0.929 . S
C2198 C2194 1.531 . S
C2198 H2210 0.960 . S
C2198 H2211 0.962 . S
C2198 H2212 0.960 . S
C2199 C2196 1.511 . S
C2199 H2213 0.961 . S
C2199 H2214 0.961 . S
C2199 H2215 0.961 . S
C2200 C2201 1.370 . S
C2200 C2202 1.363 . S
C2200 H2216 0.931 . S
C2201 C2200 1.370 . S
C2201 C2205 1.408 . S
C2202 C2200 1.363 . S
C2202 C2203 1.370 . S
C2202 C2206 1.524 . S
C2203 C2195 1.503 . S
C2203 C2202 1.370 . S
C2203 C2204 1.403 . S
C2204 C2203 1.403 . S
C2204 C2205 1.404 . S
C2204 C2207 1.539 . S
C2205 C2201 1.408 . S
C2205 C2204 1.404 . S
C2205 H2217 0.930 . S
C2206 C2202 1.524 . S
C2206 H2218 0.956 . S
C2206 H2219 0.961 . S
C2206 H2220 0.961 . S
C2207 C2204 1.539 . S
C2207 H2221 0.958 . S
C2207 H2222 0.961 . S
C2207 H2223 0.960 . S
H2208 C2192 0.931 . S
H2209 C2197 0.929 . S
H2210 C2198 0.960 . S
H2211 C2198 0.962 . S
H2212 C2198 0.960 . S
H2213 C2199 0.961 . S
H2214 C2199 0.961 . S
H2215 C2199 0.961 . S
H2216 C2200 0.931 . S
H2217 C2205 0.930 . S
H2218 C2206 0.956 . S
H2219 C2206 0.961 . S
H2220 C2206 0.961 . S
H2221 C2207 0.958 . S
H2222 C2207 0.961 . S
H2223 C2207 0.960 . S
C2224 C2225 1.391 . S
C2224 C2226 1.394 . S
C2224 H2240 0.931 . S
C2225 C2224 1.391 . S
C2225 C2229 1.376 . S
C2226 C2224 1.394 . S
C2226 C2227 1.369 . S
C2226 C2230 1.531 . S
C2227 C2226 1.369 . S
C2227 C2228 1.410 . S
C2227 C2235 1.503 . S
C2228 C2227 1.410 . S
C2228 C2229 1.392 . S
C2228 C2231 1.511 . S
C2229 C2225 1.376 . S
C2229 C2228 1.392 . S
C2229 H2241 0.929 . S
C2230 C2226 1.531 . S
C2230 H2242 0.960 . S
C2230 H2243 0.962 . S
C2230 H2244 0.960 . S
C2231 C2228 1.511 . S
C2231 H2245 0.961 . S
C2231 H2246 0.961 . S
C2231 H2247 0.961 . S
C2232 C2233 1.370 . S
C2232 C2234 1.363 . S
C2232 H2248 0.931 . S
C2233 C2232 1.370 . S
C2233 C2237 1.408 . S
C2234 C2232 1.363 . S
C2234 C2235 1.370 . S
C2234 C2238 1.524 . S
C2235 C2227 1.503 . S
C2235 C2234 1.370 . S
C2235 C2236 1.403 . S
C2236 C2235 1.403 . S
C2236 C2237 1.404 . S
C2236 C2239 1.539 . S
C2237 C2233 1.408 . S
C2237 C2236 1.404 . S
C2237 H2249 0.930 . S
C2238 C2234 1.524 . S
C2238 H2250 0.956 . S
C2238 H2251 0.961 . S
C2238 H2252 0.961 . S
C2239 C2236 1.539 . S
C2239 H2253 0.958 . S
C2239 H2254 0.961 . S
C2239 H2255 0.960 . S
H2240 C2224 0.931 . S
H2241 C2229 0.929 . S
H2242 C2230 0.960 . S
H2243 C2230 0.962 . S
H2244 C2230 0.960 . S
H2245 C2231 0.961 . S
H2246 C2231 0.961 . S
H2247 C2231 0.961 . S
H2248 C2232 0.931 . S
H2249 C2237 0.930 . S
H2250 C2238 0.956 . S
H2251 C2238 0.961 . S
H2252 C2238 0.961 . S
H2253 C2239 0.958 . S
H2254 C2239 0.961 . S
H2255 C2239 0.960 . S
C2256 C2257 1.391 . S
C2256 C2258 1.394 . S
C2256 H2272 0.931 . S
C2257 C2256 1.391 . S
C2257 C2261 1.376 . S
C2258 C2256 1.394 . S
C2258 C2259 1.369 . S
C2258 C2262 1.531 . S
C2259 C2258 1.369 . S
C2259 C2260 1.410 . S
C2259 C2267 1.503 . S
C2260 C2259 1.410 . S
C2260 C2261 1.392 . S
C2260 C2263 1.521 . S
C2261 C2257 1.376 . S
C2261 C2260 1.392 . S
C2261 H2273 0.929 . S
C2262 C2258 1.531 . S
C2262 H2274 0.960 . S
C2262 H2275 0.962 . S
C2262 H2276 0.960 . S
C2263 C2260 1.521 . S
C2263 H2277 0.948 1_455 S
C2263 H2278 0.941 1_455 S
C2263 H2279 0.985 . S
C2264 C2265 1.370 1_655 S
C2264 C2266 1.363 . S
C2264 H2280 0.931 . S
C2265 C2264 1.370 1_455 S
C2265 C2269 1.408 . S
C2266 C2264 1.363 . S
C2266 C2267 1.370 1_655 S
C2266 C2270 1.524 . S
C2267 C2259 1.503 . S
C2267 C2266 1.370 1_455 S
C2267 C2268 1.403 . S
C2268 C2267 1.403 . S
C2268 C2269 1.404 . S
C2268 C2271 1.539 . S
C2269 C2265 1.408 . S
C2269 C2268 1.404 . S
C2269 H2281 0.930 . S
C2270 C2266 1.524 . S
C2270 H2282 0.956 . S
C2270 H2283 0.961 . S
C2270 H2284 0.961 . S
C2271 C2268 1.539 . S
C2271 H2285 0.958 . S
C2271 H2286 0.961 . S
C2271 H2287 0.960 . S
H2272 C2256 0.931 . S
H2273 C2261 0.929 . S
H2274 C2262 0.960 . S
H2275 C2262 0.962 . S
H2276 C2262 0.960 . S
H2277 C2263 0.948 1_655 S
H2278 C2263 0.941 1_655 S
H2279 C2263 0.985 . S
H2280 C2264 0.931 . S
H2281 C2269 0.930 . S
H2282 C2270 0.956 . S
H2283 C2270 0.961 . S
H2284 C2270 0.961 . S
H2285 C2271 0.958 . S
H2286 C2271 0.961 . S
H2287 C2271 0.960 . S
C2288 C2289 1.391 . S
C2288 C2290 1.394 . S
C2288 H2304 0.931 . S
C2289 C2288 1.391 . S
C2289 C2293 1.376 . S
C2290 C2288 1.394 . S
C2290 C2291 1.369 . S
C2290 C2294 1.531 . S
C2291 C2290 1.369 . S
C2291 C2292 1.410 . S
C2291 C2299 1.503 . S
C2292 C2291 1.410 . S
C2292 C2293 1.392 . S
C2292 C2295 1.511 . S
C2293 C2289 1.376 . S
C2293 C2292 1.392 . S
C2293 H2305 0.929 . S
C2294 C2290 1.531 . S
C2294 H2306 0.960 . S
C2294 H2307 0.962 . S
C2294 H2308 0.960 . S
C2295 C2292 1.511 . S
C2295 H2309 0.961 . S
C2295 H2310 0.961 . S
C2295 H2311 0.961 . S
C2296 C2297 1.370 . S
C2296 C2298 1.363 . S
C2296 H2312 0.931 . S
C2297 C2296 1.370 . S
C2297 C2301 1.408 . S
C2298 C2296 1.363 . S
C2298 C2299 1.370 . S
C2298 C2302 1.524 . S
C2299 C2291 1.503 . S
C2299 C2298 1.370 . S
C2299 C2300 1.403 . S
C2300 C2299 1.403 . S
C2300 C2301 1.404 . S
C2300 C2303 1.539 . S
C2301 C2297 1.408 . S
C2301 C2300 1.404 . S
C2301 H2313 0.930 . S
C2302 C2298 1.524 . S
C2302 H2314 0.956 . S
C2302 H2315 0.961 . S
C2302 H2316 0.961 . S
C2303 C2300 1.539 . S
C2303 H2317 0.958 . S
C2303 H2318 0.961 . S
C2303 H2319 0.960 . S
H2304 C2288 0.931 . S
H2305 C2293 0.929 . S
H2306 C2294 0.960 . S
H2307 C2294 0.962 . S
H2308 C2294 0.960 . S
H2309 C2295 0.961 . S
H2310 C2295 0.961 . S
H2311 C2295 0.961 . S
H2312 C2296 0.931 . S
H2313 C2301 0.930 . S
H2314 C2302 0.956 . S
H2315 C2302 0.961 . S
H2316 C2302 0.961 . S
H2317 C2303 0.958 . S
H2318 C2303 0.961 . S
H2319 C2303 0.960 . S
C2320 C2321 1.391 . S
C2320 C2322 1.394 . S
C2320 H2336 0.931 . S
C2321 C2320 1.391 . S
C2321 C2325 1.376 . S
C2322 C2320 1.394 . S
C2322 C2323 1.369 . S
C2322 C2326 1.531 . S
C2323 C2322 1.369 . S
C2323 C2324 1.410 . S
C2323 C2331 1.503 . S
C2324 C2323 1.410 . S
C2324 C2325 1.392 . S
C2324 C2327 1.511 . S
C2325 C2321 1.376 . S
C2325 C2324 1.392 . S
C2325 H2337 0.929 . S
C2326 C2322 1.531 . S
C2326 H2338 0.960 . S
C2326 H2339 0.962 . S
C2326 H2340 0.960 . S
C2327 C2324 1.511 . S
C2327 H2341 0.961 . S
C2327 H2342 0.961 . S
C2327 H2343 0.961 . S
C2328 C2329 1.370 . S
C2328 C2330 1.363 . S
C2328 H2344 0.931 . S
C2329 C2328 1.370 . S
C2329 C2333 1.408 . S
C2330 C2328 1.363 . S
C2330 C2331 1.370 . S
C2330 C2334 1.524 . S
C2331 C2323 1.503 . S
C2331 C2330 1.370 . S
C2331 C2332 1.403 . S
C2332 C2331 1.403 . S
C2332 C2333 1.404 . S
C2332 C2335 1.539 . S
C2333 C2329 1.408 . S
C2333 C2332 1.404 . S
C2333 H2345 0.930 . S
C2334 C2330 1.524 . S
C2334 H2346 0.956 . S
C2334 H2347 0.961 . S
C2334 H2348 0.961 . S
C2335 C2332 1.539 . S
C2335 H2349 0.958 . S
C2335 H2350 0.961 . S
C2335 H2351 0.960 . S
H2336 C2320 0.931 . S
H2337 C2325 0.929 . S
H2338 C2326 0.960 . S
H2339 C2326 0.962 . S
H2340 C2326 0.960 . S
H2341 C2327 0.961 . S
H2342 C2327 0.961 . S
H2343 C2327 0.961 . S
H2344 C2328 0.931 . S
H2345 C2333 0.930 . S
H2346 C2334 0.956 . S
H2347 C2334 0.961 . S
H2348 C2334 0.961 . S
H2349 C2335 0.958 . S
H2350 C2335 0.961 . S
H2351 C2335 0.960 . S
C2352 C2353 1.391 . S
C2352 C2354 1.394 . S
C2352 H2368 0.931 . S
C2353 C2352 1.391 . S
C2353 C2357 1.376 . S
C2354 C2352 1.394 . S
C2354 C2355 1.369 . S
C2354 C2358 1.531 . S
C2355 C2354 1.369 . S
C2355 C2356 1.410 . S
C2355 C2363 1.503 . S
C2356 C2355 1.410 . S
C2356 C2357 1.392 . S
C2356 C2359 1.511 . S
C2357 C2353 1.376 . S
C2357 C2356 1.392 . S
C2357 H2369 0.929 . S
C2358 C2354 1.531 . S
C2358 H2370 0.960 . S
C2358 H2371 0.962 . S
C2358 H2372 0.960 . S
C2359 C2356 1.511 . S
C2359 H2373 0.961 . S
C2359 H2374 0.961 . S
C2359 H2375 0.961 . S
C2360 C2361 1.370 . S
C2360 C2362 1.363 . S
C2360 H2376 0.931 . S
C2361 C2360 1.370 . S
C2361 C2365 1.408 . S
C2362 C2360 1.363 . S
C2362 C2363 1.370 . S
C2362 C2366 1.524 . S
C2363 C2355 1.503 . S
C2363 C2362 1.370 . S
C2363 C2364 1.403 . S
C2364 C2363 1.403 . S
C2364 C2365 1.404 . S
C2364 C2367 1.539 . S
C2365 C2361 1.408 . S
C2365 C2364 1.404 . S
C2365 H2377 0.930 . S
C2366 C2362 1.524 . S
C2366 H2378 0.956 . S
C2366 H2379 0.961 . S
C2366 H2380 0.961 . S
C2367 C2364 1.539 . S
C2367 H2381 0.958 . S
C2367 H2382 0.961 . S
C2367 H2383 0.960 . S
H2368 C2352 0.931 . S
H2369 C2357 0.929 . S
H2370 C2358 0.960 . S
H2371 C2358 0.962 . S
H2372 C2358 0.960 . S
H2373 C2359 0.961 . S
H2374 C2359 0.961 . S
H2375 C2359 0.961 . S
H2376 C2360 0.931 . S
H2377 C2365 0.930 . S
H2378 C2366 0.956 . S
H2379 C2366 0.961 . S
H2380 C2366 0.961 . S
H2381 C2367 0.958 . S
H2382 C2367 0.961 . S
H2383 C2367 0.960 . S
C2384 C2385 1.391 . S
C2384 C2386 1.394 . S
C2384 H2400 0.931 . S
C2385 C2384 1.391 . S
C2385 C2389 1.376 . S
C2386 C2384 1.394 . S
C2386 C2387 1.369 . S
C2386 C2390 1.531 . S
C2387 C2386 1.369 . S
C2387 C2388 1.410 . S
C2387 C2395 1.503 . S
C2388 C2387 1.410 . S
C2388 C2389 1.392 . S
C2388 C2391 1.511 . S
C2389 C2385 1.376 . S
C2389 C2388 1.392 . S
C2389 H2401 0.929 . S
C2390 C2386 1.531 . S
C2390 H2402 0.960 . S
C2390 H2403 0.962 . S
C2390 H2404 0.960 . S
C2391 C2388 1.511 . S
C2391 H2405 0.961 1_655 S
C2391 H2406 0.961 1_655 S
C2391 H2407 0.961 . S
C2392 C2393 1.370 1_455 S
C2392 C2394 1.363 . S
C2392 H2408 0.931 . S
C2393 C2392 1.370 1_655 S
C2393 C2397 1.408 . S
C2394 C2392 1.363 . S
C2394 C2395 1.370 1_455 S
C2394 C2398 1.524 . S
C2395 C2387 1.503 . S
C2395 C2394 1.370 1_655 S
C2395 C2396 1.403 . S
C2396 C2395 1.403 . S
C2396 C2397 1.404 . S
C2396 C2399 1.539 . S
C2397 C2393 1.408 . S
C2397 C2396 1.404 . S
C2397 H2409 0.930 . S
C2398 C2394 1.524 . S
C2398 H2410 0.956 . S
C2398 H2411 0.961 . S
C2398 H2412 0.961 . S
C2399 C2396 1.539 . S
C2399 H2413 0.958 . S
C2399 H2414 0.961 . S
C2399 H2415 0.960 . S
H2400 C2384 0.931 . S
H2401 C2389 0.929 . S
H2402 C2390 0.960 . S
H2403 C2390 0.962 . S
H2404 C2390 0.960 . S
H2405 C2391 0.961 1_455 S
H2406 C2391 0.961 1_455 S
H2407 C2391 0.961 . S
H2408 C2392 0.931 . S
H2409 C2397 0.930 . S
H2410 C2398 0.956 . S
H2411 C2398 0.961 . S
H2412 C2398 0.961 . S
H2413 C2399 0.958 . S
H2414 C2399 0.961 . S
H2415 C2399 0.960 . S
C2416 C2417 1.391 . S
C2416 C2418 1.394 . S
C2416 H2432 0.931 . S
C2417 C2416 1.391 . S
C2417 C2421 1.376 . S
C2418 C2416 1.394 . S
C2418 C2419 1.369 . S
C2418 C2422 1.531 . S
C2419 C2418 1.369 . S
C2419 C2420 1.410 . S
C2419 C2427 1.503 . S
C2420 C2419 1.410 . S
C2420 C2421 1.392 . S
C2420 C2423 1.511 . S
C2421 C2417 1.376 . S
C2421 C2420 1.392 . S
C2421 H2433 0.929 . S
C2422 C2418 1.531 . S
C2422 H2434 0.960 . S
C2422 H2435 0.962 . S
C2422 H2436 0.960 . S
C2423 C2420 1.511 . S
C2423 H2437 0.961 . S
C2423 H2438 0.961 . S
C2423 H2439 0.961 . S
C2424 C2425 1.370 . S
C2424 C2426 1.363 . S
C2424 H2440 0.931 . S
C2425 C2424 1.370 . S
C2425 C2429 1.408 . S
C2426 C2424 1.363 . S
C2426 C2427 1.370 . S
C2426 C2430 1.524 . S
C2427 C2419 1.503 . S
C2427 C2426 1.370 . S
C2427 C2428 1.403 . S
C2428 C2427 1.403 . S
C2428 C2429 1.404 . S
C2428 C2431 1.539 . S
C2429 C2425 1.408 . S
C2429 C2428 1.404 . S
C2429 H2441 0.930 . S
C2430 C2426 1.524 . S
C2430 H2442 0.956 . S
C2430 H2443 0.961 . S
C2430 H2444 0.961 . S
C2431 C2428 1.539 . S
C2431 H2445 0.958 . S
C2431 H2446 0.961 . S
C2431 H2447 0.960 . S
H2432 C2416 0.931 . S
H2433 C2421 0.929 . S
H2434 C2422 0.960 . S
H2435 C2422 0.962 . S
H2436 C2422 0.960 . S
H2437 C2423 0.961 . S
H2438 C2423 0.961 . S
H2439 C2423 0.961 . S
H2440 C2424 0.931 . S
H2441 C2429 0.930 . S
H2442 C2430 0.956 . S
H2443 C2430 0.961 . S
H2444 C2430 0.961 . S
H2445 C2431 0.958 . S
H2446 C2431 0.961 . S
H2447 C2431 0.960 . S
C2448 C2449 1.391 . S
C2448 C2450 1.394 . S
C2448 H2464 0.931 . S
C2449 C2448 1.391 . S
C2449 C2453 1.376 . S
C2450 C2448 1.394 . S
C2450 C2451 1.369 . S
C2450 C2454 1.531 . S
C2451 C2450 1.369 . S
C2451 C2452 1.410 . S
C2451 C2459 1.503 . S
C2452 C2451 1.410 . S
C2452 C2453 1.392 . S
C2452 C2455 1.511 . S
C2453 C2449 1.376 . S
C2453 C2452 1.392 . S
C2453 H2465 0.929 . S
C2454 C2450 1.531 . S
C2454 H2466 0.960 . S
C2454 H2467 0.962 . S
C2454 H2468 0.960 . S
C2455 C2452 1.511 . S
C2455 H2469 0.961 . S
C2455 H2470 0.961 . S
C2455 H2471 0.961 . S
C2456 C2457 1.370 . S
C2456 C2458 1.363 . S
C2456 H2472 0.931 . S
C2457 C2456 1.370 . S
C2457 C2461 1.408 . S
C2458 C2456 1.363 . S
C2458 C2459 1.370 . S
C2458 C2462 1.524 . S
C2459 C2451 1.503 . S
C2459 C2458 1.370 . S
C2459 C2460 1.403 . S
C2460 C2459 1.403 . S
C2460 C2461 1.404 . S
C2460 C2463 1.539 . S
C2461 C2457 1.408 . S
C2461 C2460 1.404 . S
C2461 H2473 0.930 . S
C2462 C2458 1.524 . S
C2462 H2474 0.956 . S
C2462 H2475 0.961 . S
C2462 H2476 0.961 . S
C2463 C2460 1.539 . S
C2463 H2477 0.958 . S
C2463 H2478 0.961 . S
C2463 H2479 0.960 . S
H2464 C2448 0.931 . S
H2465 C2453 0.929 . S
H2466 C2454 0.960 . S
H2467 C2454 0.962 . S
H2468 C2454 0.960 . S
H2469 C2455 0.961 . S
H2470 C2455 0.961 . S
H2471 C2455 0.961 . S
H2472 C2456 0.931 . S
H2473 C2461 0.930 . S
H2474 C2462 0.956 . S
H2475 C2462 0.961 . S
H2476 C2462 0.961 . S
H2477 C2463 0.958 . S
H2478 C2463 0.961 . S
H2479 C2463 0.960 . S
C2480 C2481 1.391 . S
C2480 C2482 1.394 . S
C2480 H2496 0.931 . S
C2481 C2480 1.391 . S
C2481 C2485 1.376 . S
C2482 C2480 1.394 . S
C2482 C2483 1.369 . S
C2482 C2486 1.531 . S
C2483 C2482 1.369 . S
C2483 C2484 1.410 . S
C2483 C2491 1.503 . S
C2484 C2483 1.410 . S
C2484 C2485 1.392 . S
C2484 C2487 1.511 . S
C2485 C2481 1.376 . S
C2485 C2484 1.392 . S
C2485 H2497 0.929 . S
C2486 C2482 1.531 . S
C2486 H2498 0.960 . S
C2486 H2499 0.962 . S
C2486 H2500 0.960 . S
C2487 C2484 1.511 . S
C2487 H2501 0.961 . S
C2487 H2502 0.961 . S
C2487 H2503 0.961 . S
C2488 C2489 1.370 . S
C2488 C2490 1.363 . S
C2488 H2504 0.931 . S
C2489 C2488 1.370 . S
C2489 C2493 1.408 . S
C2490 C2488 1.363 . S
C2490 C2491 1.370 . S
C2490 C2494 1.524 . S
C2491 C2483 1.503 . S
C2491 C2490 1.370 . S
C2491 C2492 1.403 . S
C2492 C2491 1.403 . S
C2492 C2493 1.404 . S
C2492 C2495 1.539 . S
C2493 C2489 1.408 . S
C2493 C2492 1.404 . S
C2493 H2505 0.930 . S
C2494 C2490 1.524 . S
C2494 H2506 0.956 . S
C2494 H2507 0.961 . S
C2494 H2508 0.961 . S
C2495 C2492 1.539 . S
C2495 H2509 0.958 . S
C2495 H2510 0.961 . S
C2495 H2511 0.960 . S
H2496 C2480 0.931 . S
H2497 C2485 0.929 . S
H2498 C2486 0.960 . S
H2499 C2486 0.962 . S
H2500 C2486 0.960 . S
H2501 C2487 0.961 . S
H2502 C2487 0.961 . S
H2503 C2487 0.961 . S
H2504 C2488 0.931 . S
H2505 C2493 0.930 . S
H2506 C2494 0.956 . S
H2507 C2494 0.961 . S
H2508 C2494 0.961 . S
H2509 C2495 0.958 . S
H2510 C2495 0.961 . S
H2511 C2495 0.960 . S
C2512 C2513 1.391 . S
C2512 C2514 1.394 . S
C2512 H2528 0.931 . S
C2513 C2512 1.391 . S
C2513 C2517 1.376 . S
C2514 C2512 1.394 . S
C2514 C2515 1.369 . S
C2514 C2518 1.531 . S
C2515 C2514 1.369 . S
C2515 C2516 1.410 . S
C2515 C2523 1.503 . S
C2516 C2515 1.410 . S
C2516 C2517 1.392 . S
C2516 C2519 1.511 . S
C2517 C2513 1.376 . S
C2517 C2516 1.392 . S
C2517 H2529 0.929 . S
C2518 C2514 1.531 . S
C2518 H2530 0.960 . S
C2518 H2531 0.962 . S
C2518 H2532 0.960 . S
C2519 C2516 1.511 . S
C2519 H2533 0.961 . S
C2519 H2534 0.961 . S
C2519 H2535 0.961 . S
C2520 C2521 1.370 . S
C2520 C2522 1.363 . S
C2520 H2536 0.931 1_455 S
C2521 C2520 1.370 . S
C2521 C2525 1.408 . S
C2522 C2520 1.363 . S
C2522 C2523 1.370 . S
C2522 C2526 1.524 . S
C2523 C2515 1.503 . S
C2523 C2522 1.370 . S
C2523 C2524 1.403 . S
C2524 C2523 1.403 . S
C2524 C2525 1.404 . S
C2524 C2527 1.539 . S
C2525 C2521 1.408 . S
C2525 C2524 1.404 . S
C2525 H2537 0.930 . S
C2526 C2522 1.524 . S
C2526 H2538 0.956 . S
C2526 H2539 0.961 . S
C2526 H2540 0.961 1_455 S
C2527 C2524 1.539 . S
C2527 H2541 0.958 . S
C2527 H2542 0.961 . S
C2527 H2543 0.960 . S
H2528 C2512 0.931 . S
H2529 C2517 0.929 . S
H2530 C2518 0.960 . S
H2531 C2518 0.962 . S
H2532 C2518 0.960 . S
H2533 C2519 0.961 . S
H2534 C2519 0.961 . S
H2535 C2519 0.961 . S
H2536 C2520 0.931 1_655 S
H2537 C2525 0.930 . S
H2538 C2526 0.956 . S
H2539 C2526 0.961 . S
H2540 C2526 0.961 1_655 S
H2541 C2527 0.958 . S
H2542 C2527 0.961 . S
H2543 C2527 0.960 . S
C2544 C2545 1.391 . S
C2544 C2546 1.394 . S
C2544 H2560 0.931 . S
C2545 C2544 1.391 . S
C2545 C2549 1.376 . S
C2546 C2544 1.394 . S
C2546 C2547 1.369 . S
C2546 C2550 1.531 . S
C2547 C2546 1.369 . S
C2547 C2548 1.410 . S
C2547 C2555 1.503 . S
C2548 C2547 1.410 . S
C2548 C2549 1.392 . S
C2548 C2551 1.511 . S
C2549 C2545 1.376 . S
C2549 C2548 1.392 . S
C2549 H2561 0.929 . S
C2550 C2546 1.531 . S
C2550 H2562 0.960 . S
C2550 H2563 0.962 . S
C2550 H2564 0.960 . S
C2551 C2548 1.511 . S
C2551 H2565 0.961 . S
C2551 H2566 0.961 . S
C2551 H2567 0.961 . S
C2552 C2553 1.370 . S
C2552 C2554 1.363 . S
C2552 H2568 0.931 . S
C2553 C2552 1.370 . S
C2553 C2557 1.408 . S
C2554 C2552 1.363 . S
C2554 C2555 1.370 . S
C2554 C2558 1.524 . S
C2555 C2547 1.503 . S
C2555 C2554 1.370 . S
C2555 C2556 1.403 . S
C2556 C2555 1.403 . S
C2556 C2557 1.404 . S
C2556 C2559 1.539 . S
C2557 C2553 1.408 . S
C2557 C2556 1.404 . S
C2557 H2569 0.930 . S
C2558 C2554 1.524 . S
C2558 H2570 0.956 . S
C2558 H2571 0.961 . S
C2558 H2572 0.961 . S
C2559 C2556 1.539 . S
C2559 H2573 0.958 . S
C2559 H2574 0.961 . S
C2559 H2575 0.960 . S
H2560 C2544 0.931 . S
H2561 C2549 0.929 . S
H2562 C2550 0.960 . S
H2563 C2550 0.962 . S
H2564 C2550 0.960 . S
H2565 C2551 0.961 . S
H2566 C2551 0.961 . S
H2567 C2551 0.961 . S
H2568 C2552 0.931 . S
H2569 C2557 0.930 . S
H2570 C2558 0.956 . S
H2571 C2558 0.961 . S
H2572 C2558 0.961 . S
H2573 C2559 0.958 . S
H2574 C2559 0.961 . S
H2575 C2559 0.960 . S
C2576 C2577 1.391 . S
C2576 C2578 1.394 . S
C2576 H2592 0.931 . S
C2577 C2576 1.391 . S
C2577 C2581 1.376 . S
C2578 C2576 1.394 . S
C2578 C2579 1.369 . S
C2578 C2582 1.531 . S
C2579 C2578 1.369 . S
C2579 C2580 1.410 . S
C2579 C2587 1.503 . S
C2580 C2579 1.410 . S
C2580 C2581 1.392 . S
C2580 C2583 1.511 . S
C2581 C2577 1.376 . S
C2581 C2580 1.392 . S
C2581 H2593 0.929 . S
C2582 C2578 1.531 . S
C2582 H2594 0.960 . S
C2582 H2595 0.962 . S
C2582 H2596 0.960 . S
C2583 C2580 1.511 . S
C2583 H2597 0.961 . S
C2583 H2598 0.961 . S
C2583 H2599 0.961 . S
C2584 C2585 1.370 . S
C2584 C2586 1.363 . S
C2584 H2600 0.931 . S
C2585 C2584 1.370 . S
C2585 C2589 1.408 . S
C2586 C2584 1.363 . S
C2586 C2587 1.370 . S
C2586 C2590 1.524 . S
C2587 C2579 1.503 . S
C2587 C2586 1.370 . S
C2587 C2588 1.403 . S
C2588 C2587 1.403 . S
C2588 C2589 1.404 . S
C2588 C2591 1.539 . S
C2589 C2585 1.408 . S
C2589 C2588 1.404 . S
C2589 H2601 0.930 . S
C2590 C2586 1.524 . S
C2590 H2602 0.956 . S
C2590 H2603 0.961 . S
C2590 H2604 0.961 . S
C2591 C2588 1.539 . S
C2591 H2605 0.958 . S
C2591 H2606 0.961 . S
C2591 H2607 0.960 . S
H2592 C2576 0.931 . S
H2593 C2581 0.929 . S
H2594 C2582 0.960 . S
H2595 C2582 0.962 . S
H2596 C2582 0.960 . S
H2597 C2583 0.961 . S
H2598 C2583 0.961 . S
H2599 C2583 0.961 . S
H2600 C2584 0.931 . S
H2601 C2589 0.930 . S
H2602 C2590 0.956 . S
H2603 C2590 0.961 . S
H2604 C2590 0.961 . S
H2605 C2591 0.958 . S
H2606 C2591 0.961 . S
H2607 C2591 0.960 . S
C2608 C2609 1.391 . S
C2608 C2610 1.394 . S
C2608 H2624 0.931 . S
C2609 C2608 1.391 . S
C2609 C2613 1.376 . S
C2610 C2608 1.394 . S
C2610 C2611 1.369 . S
C2610 C2614 1.531 . S
C2611 C2610 1.369 . S
C2611 C2612 1.410 . S
C2611 C2619 1.503 . S
C2612 C2611 1.410 . S
C2612 C2613 1.392 . S
C2612 C2615 1.511 . S
C2613 C2609 1.376 . S
C2613 C2612 1.392 . S
C2613 H2625 0.929 . S
C2614 C2610 1.531 . S
C2614 H2626 0.960 . S
C2614 H2627 0.962 . S
C2614 H2628 0.960 . S
C2615 C2612 1.511 . S
C2615 H2629 0.961 . S
C2615 H2630 0.961 . S
C2615 H2631 0.961 . S
C2616 C2617 1.370 . S
C2616 C2618 1.363 . S
C2616 H2632 0.931 . S
C2617 C2616 1.370 . S
C2617 C2621 1.408 . S
C2618 C2616 1.363 . S
C2618 C2619 1.370 . S
C2618 C2622 1.524 . S
C2619 C2611 1.503 . S
C2619 C2618 1.370 . S
C2619 C2620 1.403 . S
C2620 C2619 1.403 . S
C2620 C2621 1.404 . S
C2620 C2623 1.539 . S
C2621 C2617 1.408 . S
C2621 C2620 1.404 . S
C2621 H2633 0.930 . S
C2622 C2618 1.524 . S
C2622 H2634 0.956 . S
C2622 H2635 0.961 . S
C2622 H2636 0.961 . S
C2623 C2620 1.539 . S
C2623 H2637 0.958 . S
C2623 H2638 0.961 . S
C2623 H2639 0.960 . S
H2624 C2608 0.931 . S
H2625 C2613 0.929 . S
H2626 C2614 0.960 . S
H2627 C2614 0.962 . S
H2628 C2614 0.960 . S
H2629 C2615 0.961 . S
H2630 C2615 0.961 . S
H2631 C2615 0.961 . S
H2632 C2616 0.931 . S
H2633 C2621 0.930 . S
H2634 C2622 0.956 . S
H2635 C2622 0.961 . S
H2636 C2622 0.961 . S
H2637 C2623 0.958 . S
H2638 C2623 0.961 . S
H2639 C2623 0.960 . S
C2640 C2641 1.391 . S
C2640 C2642 1.394 . S
C2640 H2656 0.931 . S
C2641 C2640 1.391 . S
C2641 C2645 1.376 . S
C2642 C2640 1.394 . S
C2642 C2643 1.369 . S
C2642 C2646 1.531 . S
C2643 C2642 1.369 . S
C2643 C2644 1.410 . S
C2643 C2651 1.503 . S
C2644 C2643 1.410 . S
C2644 C2645 1.392 . S
C2644 C2647 1.511 . S
C2645 C2641 1.376 . S
C2645 C2644 1.392 . S
C2645 H2657 0.929 . S
C2646 C2642 1.531 . S
C2646 H2658 0.960 . S
C2646 H2659 0.962 . S
C2646 H2660 0.960 . S
C2647 C2644 1.511 . S
C2647 H2661 0.961 . S
C2647 H2662 0.961 . S
C2647 H2663 0.961 . S
C2648 C2649 1.370 . S
C2648 C2650 1.363 . S
C2648 H2664 0.931 . S
C2649 C2648 1.370 . S
C2649 C2653 1.408 . S
C2650 C2648 1.363 . S
C2650 C2651 1.370 . S
C2650 C2654 1.524 . S
C2651 C2643 1.503 . S
C2651 C2650 1.370 . S
C2651 C2652 1.403 . S
C2652 C2651 1.403 . S
C2652 C2653 1.404 . S
C2652 C2655 1.539 . S
C2653 C2649 1.408 . S
C2653 C2652 1.404 . S
C2653 H2665 0.930 . S
C2654 C2650 1.524 . S
C2654 H2666 0.956 . S
C2654 H2667 0.961 . S
C2654 H2668 0.961 . S
C2655 C2652 1.539 . S
C2655 H2669 0.958 . S
C2655 H2670 0.961 . S
C2655 H2671 0.960 . S
H2656 C2640 0.931 . S
H2657 C2645 0.929 . S
H2658 C2646 0.960 . S
H2659 C2646 0.962 . S
H2660 C2646 0.960 . S
H2661 C2647 0.961 . S
H2662 C2647 0.961 . S
H2663 C2647 0.961 . S
H2664 C2648 0.931 . S
H2665 C2653 0.930 . S
H2666 C2654 0.956 . S
H2667 C2654 0.961 . S
H2668 C2654 0.961 . S
H2669 C2655 0.958 . S
H2670 C2655 0.961 . S
H2671 C2655 0.960 . S
C2672 C2673 1.391 . S
C2672 C2674 1.394 . S
C2672 H2688 0.931 . S
C2673 C2672 1.391 . S
C2673 C2677 1.376 . S
C2674 C2672 1.394 . S
C2674 C2675 1.369 . S
C2674 C2678 1.531 . S
C2675 C2674 1.369 . S
C2675 C2676 1.410 . S
C2675 C2683 1.503 . S
C2676 C2675 1.410 . S
C2676 C2677 1.392 . S
C2676 C2679 1.511 . S
C2677 C2673 1.376 . S
C2677 C2676 1.392 . S
C2677 H2689 0.929 . S
C2678 C2674 1.531 . S
C2678 H2690 0.960 . S
C2678 H2691 0.962 . S
C2678 H2692 0.960 . S
C2679 C2676 1.511 . S
C2679 H2693 0.961 . S
C2679 H2694 0.961 . S
C2679 H2695 0.961 . S
C2680 C2681 1.370 . S
C2680 C2682 1.363 . S
C2680 H2696 0.931 . S
C2681 C2680 1.370 . S
C2681 C2685 1.408 . S
C2682 C2680 1.363 . S
C2682 C2683 1.370 . S
C2682 C2686 1.524 . S
C2683 C2675 1.503 . S
C2683 C2682 1.370 . S
C2683 C2684 1.403 . S
C2684 C2683 1.403 . S
C2684 C2685 1.404 . S
C2684 C2687 1.539 . S
C2685 C2681 1.408 . S
C2685 C2684 1.404 . S
C2685 H2697 0.930 . S
C2686 C2682 1.524 . S
C2686 H2698 0.956 . S
C2686 H2699 0.961 . S
C2686 H2700 0.961 . S
C2687 C2684 1.539 . S
C2687 H2701 0.958 . S
C2687 H2702 0.961 . S
C2687 H2703 0.960 . S
H2688 C2672 0.931 . S
H2689 C2677 0.929 . S
H2690 C2678 0.960 . S
H2691 C2678 0.962 . S
H2692 C2678 0.960 . S
H2693 C2679 0.961 . S
H2694 C2679 0.961 . S
H2695 C2679 0.961 . S
H2696 C2680 0.931 . S
H2697 C2685 0.930 . S
H2698 C2686 0.956 . S
H2699 C2686 0.961 . S
H2700 C2686 0.961 . S
H2701 C2687 0.958 . S
H2702 C2687 0.961 . S
H2703 C2687 0.960 . S
C2704 C2705 1.391 . S
C2704 C2706 1.394 . S
C2704 H2720 0.931 . S
C2705 C2704 1.391 . S
C2705 C2709 1.376 . S
C2706 C2704 1.394 . S
C2706 C2707 1.369 . S
C2706 C2710 1.531 . S
C2707 C2706 1.369 . S
C2707 C2708 1.410 . S
C2707 C2715 1.503 . S
C2708 C2707 1.410 . S
C2708 C2709 1.392 . S
C2708 C2711 1.511 . S
C2709 C2705 1.376 . S
C2709 C2708 1.392 . S
C2709 H2721 0.929 . S
C2710 C2706 1.531 . S
C2710 H2722 0.960 . S
C2710 H2723 0.962 . S
C2710 H2724 0.960 . S
C2711 C2708 1.511 . S
C2711 H2725 0.961 . S
C2711 H2726 0.961 . S
C2711 H2727 0.961 . S
C2712 C2713 1.370 . S
C2712 C2714 1.363 . S
C2712 H2728 0.931 . S
C2713 C2712 1.370 . S
C2713 C2717 1.408 . S
C2714 C2712 1.363 . S
C2714 C2715 1.370 . S
C2714 C2718 1.524 . S
C2715 C2707 1.503 . S
C2715 C2714 1.370 . S
C2715 C2716 1.403 . S
C2716 C2715 1.403 . S
C2716 C2717 1.404 . S
C2716 C2719 1.539 . S
C2717 C2713 1.408 . S
C2717 C2716 1.404 . S
C2717 H2729 0.930 . S
C2718 C2714 1.524 . S
C2718 H2730 0.956 . S
C2718 H2731 0.961 . S
C2718 H2732 0.961 . S
C2719 C2716 1.539 . S
C2719 H2733 0.958 . S
C2719 H2734 0.961 . S
C2719 H2735 0.960 . S
H2720 C2704 0.931 . S
H2721 C2709 0.929 . S
H2722 C2710 0.960 . S
H2723 C2710 0.962 . S
H2724 C2710 0.960 . S
H2725 C2711 0.961 . S
H2726 C2711 0.961 . S
H2727 C2711 0.961 . S
H2728 C2712 0.931 . S
H2729 C2717 0.930 . S
H2730 C2718 0.956 . S
H2731 C2718 0.961 . S
H2732 C2718 0.961 . S
H2733 C2719 0.958 . S
H2734 C2719 0.961 . S
H2735 C2719 0.960 . S
C2736 C2737 1.391 . S
C2736 C2738 1.394 . S
C2736 H2752 0.931 . S
C2737 C2736 1.391 . S
C2737 C2741 1.376 . S
C2738 C2736 1.394 . S
C2738 C2739 1.369 . S
C2738 C2742 1.531 . S
C2739 C2738 1.369 . S
C2739 C2740 1.410 . S
C2739 C2747 1.503 . S
C2740 C2739 1.410 . S
C2740 C2741 1.392 . S
C2740 C2743 1.511 . S
C2741 C2737 1.376 . S
C2741 C2740 1.392 . S
C2741 H2753 0.929 . S
C2742 C2738 1.531 . S
C2742 H2754 0.960 . S
C2742 H2755 0.962 . S
C2742 H2756 0.960 . S
C2743 C2740 1.511 . S
C2743 H2757 0.961 . S
C2743 H2758 0.961 . S
C2743 H2759 0.961 . S
C2744 C2745 1.370 . S
C2744 C2746 1.363 . S
C2744 H2760 0.931 . S
C2745 C2744 1.370 . S
C2745 C2749 1.408 . S
C2746 C2744 1.363 . S
C2746 C2747 1.370 . S
C2746 C2750 1.524 . S
C2747 C2739 1.503 . S
C2747 C2746 1.370 . S
C2747 C2748 1.403 . S
C2748 C2747 1.403 . S
C2748 C2749 1.404 . S
C2748 C2751 1.539 . S
C2749 C2745 1.408 . S
C2749 C2748 1.404 . S
C2749 H2761 0.930 . S
C2750 C2746 1.524 . S
C2750 H2762 0.956 . S
C2750 H2763 0.961 . S
C2750 H2764 0.961 . S
C2751 C2748 1.539 . S
C2751 H2765 0.958 . S
C2751 H2766 0.961 . S
C2751 H2767 0.960 . S
H2752 C2736 0.931 . S
H2753 C2741 0.929 . S
H2754 C2742 0.960 . S
H2755 C2742 0.962 . S
H2756 C2742 0.960 . S
H2757 C2743 0.961 . S
H2758 C2743 0.961 . S
H2759 C2743 0.961 . S
H2760 C2744 0.931 . S
H2761 C2749 0.930 . S
H2762 C2750 0.956 . S
H2763 C2750 0.961 . S
H2764 C2750 0.961 . S
H2765 C2751 0.958 . S
H2766 C2751 0.961 . S
H2767 C2751 0.960 . S
C2768 C2769 1.391 . S
C2768 C2770 1.394 . S
C2768 H2784 0.931 . S
C2769 C2768 1.391 . S
C2769 C2773 1.376 . S
C2770 C2768 1.394 . S
C2770 C2771 1.369 . S
C2770 C2774 1.531 . S
C2771 C2770 1.369 . S
C2771 C2772 1.410 . S
C2771 C2779 1.503 . S
C2772 C2771 1.410 . S
C2772 C2773 1.392 . S
C2772 C2775 1.511 . S
C2773 C2769 1.376 . S
C2773 C2772 1.392 . S
C2773 H2785 0.929 . S
C2774 C2770 1.531 . S
C2774 H2786 0.960 . S
C2774 H2787 0.962 . S
C2774 H2788 0.960 . S
C2775 C2772 1.511 . S
C2775 H2789 0.961 . S
C2775 H2790 0.961 . S
C2775 H2791 0.961 . S
C2776 C2777 1.370 . S
C2776 C2778 1.363 . S
C2776 H2792 0.931 . S
C2777 C2776 1.370 . S
C2777 C2781 1.408 . S
C2778 C2776 1.363 . S
C2778 C2779 1.370 . S
C2778 C2782 1.524 . S
C2779 C2771 1.503 . S
C2779 C2778 1.370 . S
C2779 C2780 1.403 . S
C2780 C2779 1.403 . S
C2780 C2781 1.404 . S
C2780 C2783 1.539 . S
C2781 C2777 1.408 . S
C2781 C2780 1.404 . S
C2781 H2793 0.930 . S
C2782 C2778 1.524 . S
C2782 H2794 0.956 . S
C2782 H2795 0.961 . S
C2782 H2796 0.961 . S
C2783 C2780 1.539 . S
C2783 H2797 0.958 . S
C2783 H2798 0.961 . S
C2783 H2799 0.960 . S
H2784 C2768 0.931 . S
H2785 C2773 0.929 . S
H2786 C2774 0.960 . S
H2787 C2774 0.962 . S
H2788 C2774 0.960 . S
H2789 C2775 0.961 . S
H2790 C2775 0.961 . S
H2791 C2775 0.961 . S
H2792 C2776 0.931 . S
H2793 C2781 0.930 . S
H2794 C2782 0.956 . S
H2795 C2782 0.961 . S
H2796 C2782 0.961 . S
H2797 C2783 0.958 . S
H2798 C2783 0.961 . S
H2799 C2783 0.960 . S
C2800 C2801 1.391 . S
C2800 C2802 1.394 . S
C2800 H2816 0.931 . S
C2801 C2800 1.391 . S
C2801 C2805 1.376 . S
C2802 C2800 1.394 . S
C2802 C2803 1.369 . S
C2802 C2806 1.531 . S
C2803 C2802 1.369 . S
C2803 C2804 1.410 . S
C2803 C2811 1.503 . S
C2804 C2803 1.410 . S
C2804 C2805 1.392 . S
C2804 C2807 1.511 1_565 S
C2805 C2801 1.376 . S
C2805 C2804 1.392 . S
C2805 H2817 0.929 . S
C2806 C2802 1.531 . S
C2806 H2818 0.960 1_554 S
C2806 H2819 0.962 . S
C2806 H2820 0.960 1_554 S
C2807 C2804 1.511 1_545 S
C2807 H2821 0.961 . S
C2807 H2822 0.961 . S
C2807 H2823 0.961 . S
C2808 C2809 1.370 1_565 S
C2808 C2810 1.363 . S
C2808 H2824 0.931 . S
C2809 C2808 1.370 1_545 S
C2809 C2813 1.408 1_554 S
C2810 C2808 1.363 . S
C2810 C2811 1.370 . S
C2810 C2814 1.524 . S
C2811 C2803 1.503 . S
C2811 C2810 1.370 . S
C2811 C2812 1.403 1_554 S
C2812 C2811 1.403 1_556 S
C2812 C2813 1.399 1_565 S
C2812 C2815 1.539 . S
C2813 C2809 1.408 1_556 S
C2813 C2812 1.399 1_545 S
C2813 H2825 0.935 . S
C2814 C2810 1.524 . S
C2814 H2826 0.956 . S
C2814 H2827 0.961 . S
C2814 H2828 0.961 . S
C2815 C2812 1.539 . S
C2815 H2829 0.958 . S
C2815 H2830 0.961 . S
C2815 H2831 0.960 . S
H2816 C2800 0.931 . S
H2817 C2805 0.929 . S
H2818 C2806 0.960 1_556 S
H2819 C2806 0.962 . S
H2820 C2806 0.960 1_556 S
H2821 C2807 0.961 . S
H2822 C2807 0.961 . S
H2823 C2807 0.961 . S
H2824 C2808 0.931 . S
H2825 C2813 0.935 . S
H2826 C2814 0.956 . S
H2827 C2814 0.961 . S
H2828 C2814 0.961 . S
H2829 C2815 0.958 . S
H2830 C2815 0.961 . S
H2831 C2815 0.960 . S
C2832 C2833 1.391 . S
C2832 C2834 1.394 . S
C2832 H2848 0.931 . S
C2833 C2832 1.391 . S
C2833 C2837 1.376 . S
C2834 C2832 1.394 . S
C2834 C2835 1.369 . S
C2834 C2838 1.531 . S
C2835 C2834 1.369 . S
C2835 C2836 1.410 . S
C2835 C2843 1.503 . S
C2836 C2835 1.410 . S
C2836 C2837 1.392 . S
C2836 C2839 1.511 . S
C2837 C2833 1.376 . S
C2837 C2836 1.392 . S
C2837 H2849 0.929 . S
C2838 C2834 1.531 . S
C2838 H2850 0.960 . S
C2838 H2851 0.962 . S
C2838 H2852 0.960 . S
C2839 C2836 1.511 . S
C2839 H2853 0.961 . S
C2839 H2854 0.961 . S
C2839 H2855 0.961 . S
C2840 C2841 1.370 . S
C2840 C2842 1.363 . S
C2840 H2856 0.931 . S
C2841 C2840 1.370 . S
C2841 C2845 1.408 . S
C2842 C2840 1.363 . S
C2842 C2843 1.370 . S
C2842 C2846 1.524 . S
C2843 C2835 1.503 . S
C2843 C2842 1.370 . S
C2843 C2844 1.403 . S
C2844 C2843 1.403 . S
C2844 C2845 1.404 . S
C2844 C2847 1.539 . S
C2845 C2841 1.408 . S
C2845 C2844 1.404 . S
C2845 H2857 0.930 . S
C2846 C2842 1.524 . S
C2846 H2858 0.956 . S
C2846 H2859 0.961 . S
C2846 H2860 0.961 . S
C2847 C2844 1.539 . S
C2847 H2861 0.958 . S
C2847 H2862 0.961 . S
C2847 H2863 0.960 . S
H2848 C2832 0.931 . S
H2849 C2837 0.929 . S
H2850 C2838 0.960 . S
H2851 C2838 0.962 . S
H2852 C2838 0.960 . S
H2853 C2839 0.961 . S
H2854 C2839 0.961 . S
H2855 C2839 0.961 . S
H2856 C2840 0.931 . S
H2857 C2845 0.930 . S
H2858 C2846 0.956 . S
H2859 C2846 0.961 . S
H2860 C2846 0.961 . S
H2861 C2847 0.958 . S
H2862 C2847 0.961 . S
H2863 C2847 0.960 . S
C2864 C2865 1.391 1_556 S
C2864 C2866 1.394 1_556 S
C2864 H2880 0.931 . S
C2865 C2864 1.391 1_554 S
C2865 C2869 1.376 . S
C2866 C2864 1.394 1_554 S
C2866 C2867 1.369 . S
C2866 C2870 1.531 1_554 S
C2867 C2866 1.369 . S
C2867 C2868 1.410 . S
C2867 C2875 1.503 . S
C2868 C2867 1.410 . S
C2868 C2869 1.392 . S
C2868 C2871 1.511 . S
C2869 C2865 1.376 . S
C2869 C2868 1.392 . S
C2869 H2881 0.929 . S
C2870 C2866 1.531 1_556 S
C2870 H2882 0.960 . S
C2870 H2883 0.962 1_556 S
C2870 H2884 0.960 . S
C2871 C2868 1.511 . S
C2871 H2885 0.961 . S
C2871 H2886 0.961 . S
C2871 H2887 0.961 . S
C2872 C2873 1.370 . S
C2872 C2874 1.363 . S
C2872 H2888 0.931 . S
C2873 C2872 1.370 . S
C2873 C2877 1.408 . S
C2874 C2872 1.363 . S
C2874 C2875 1.370 . S
C2874 C2878 1.524 . S
C2875 C2867 1.503 . S
C2875 C2874 1.370 . S
C2875 C2876 1.381 1_554 S
C2876 C2875 1.381 1_556 S
C2876 C2877 1.398 1_556 S
C2876 C2879 1.567 . S
C2877 C2873 1.408 . S
C2877 C2876 1.398 1_554 S
C2877 H2889 0.930 1_554 S
C2878 C2874 1.524 . S
C2878 H2890 0.956 . S
C2878 H2891 0.961 . S
C2878 H2892 0.961 . S
C2879 C2876 1.567 . S
C2879 H2893 0.958 . S
C2879 H2894 0.961 . S
C2879 H2895 0.960 . S
H2880 C2864 0.931 . S
H2881 C2869 0.929 . S
H2882 C2870 0.960 . S
H2883 C2870 0.962 1_554 S
H2884 C2870 0.960 . S
H2885 C2871 0.961 . S
H2886 C2871 0.961 . S
H2887 C2871 0.961 . S
H2888 C2872 0.931 . S
H2889 C2877 0.930 1_556 S
H2890 C2878 0.956 . S
H2891 C2878 0.961 . S
H2892 C2878 0.961 . S
H2893 C2879 0.958 . S
H2894 C2879 0.961 . S
H2895 C2879 0.960 . S
C2896 C2897 1.391 . S
C2896 C2898 1.394 . S
C2896 H2912 0.931 . S
C2897 C2896 1.391 . S
C2897 C2901 1.376 . S
C2898 C2896 1.394 . S
C2898 C2899 1.369 . S
C2898 C2902 1.531 . S
C2899 C2898 1.369 . S
C2899 C2900 1.410 . S
C2899 C2907 1.503 . S
C2900 C2899 1.410 . S
C2900 C2901 1.392 . S
C2900 C2903 1.511 . S
C2901 C2897 1.376 . S
C2901 C2900 1.392 . S
C2901 H2913 0.929 . S
C2902 C2898 1.531 . S
C2902 H2914 0.960 . S
C2902 H2915 0.962 . S
C2902 H2916 0.960 . S
C2903 C2900 1.511 . S
C2903 H2917 0.961 . S
C2903 H2918 0.961 . S
C2903 H2919 0.961 . S
C2904 C2905 1.370 . S
C2904 C2906 1.363 . S
C2904 H2920 0.931 . S
C2905 C2904 1.370 . S
C2905 C2909 1.408 . S
C2906 C2904 1.363 . S
C2906 C2907 1.370 . S
C2906 C2910 1.524 . S
C2907 C2899 1.503 . S
C2907 C2906 1.370 . S
C2907 C2908 1.403 . S
C2908 C2907 1.403 . S
C2908 C2909 1.404 . S
C2908 C2911 1.539 . S
C2909 C2905 1.408 . S
C2909 C2908 1.404 . S
C2909 H2921 0.930 . S
C2910 C2906 1.524 . S
C2910 H2922 0.956 . S
C2910 H2923 0.961 . S
C2910 H2924 0.961 . S
C2911 C2908 1.539 . S
C2911 H2925 0.958 . S
C2911 H2926 0.961 . S
C2911 H2927 0.960 . S
H2912 C2896 0.931 . S
H2913 C2901 0.929 . S
H2914 C2902 0.960 . S
H2915 C2902 0.962 . S
H2916 C2902 0.960 . S
H2917 C2903 0.961 . S
H2918 C2903 0.961 . S
H2919 C2903 0.961 . S
H2920 C2904 0.931 . S
H2921 C2909 0.930 . S
H2922 C2910 0.956 . S
H2923 C2910 0.961 . S
H2924 C2910 0.961 . S
H2925 C2911 0.958 . S
H2926 C2911 0.961 . S
H2927 C2911 0.960 . S
C2928 C2929 1.391 . S
C2928 C2930 1.394 . S
C2928 H2944 0.931 . S
C2929 C2928 1.391 . S
C2929 C2933 1.376 . S
C2930 C2928 1.394 . S
C2930 C2931 1.369 . S
C2930 C2934 1.531 . S
C2931 C2930 1.369 . S
C2931 C2932 1.410 . S
C2931 C2939 1.503 . S
C2932 C2931 1.410 . S
C2932 C2933 1.392 . S
C2932 C2935 1.511 . S
C2933 C2929 1.376 . S
C2933 C2932 1.392 . S
C2933 H2945 0.929 . S
C2934 C2930 1.531 . S
C2934 H2946 0.960 . S
C2934 H2947 0.962 . S
C2934 H2948 0.960 . S
C2935 C2932 1.511 . S
C2935 H2949 0.961 . S
C2935 H2950 0.961 . S
C2935 H2951 0.961 . S
C2936 C2937 1.370 . S
C2936 C2938 1.363 . S
C2936 H2952 0.931 . S
C2937 C2936 1.370 . S
C2937 C2941 1.408 . S
C2938 C2936 1.363 . S
C2938 C2939 1.370 . S
C2938 C2942 1.524 . S
C2939 C2931 1.503 . S
C2939 C2938 1.370 . S
C2939 C2940 1.403 . S
C2940 C2939 1.403 . S
C2940 C2941 1.404 . S
C2940 C2943 1.539 . S
C2941 C2937 1.408 . S
C2941 C2940 1.404 . S
C2941 H2953 0.930 . S
C2942 C2938 1.524 . S
C2942 H2954 0.956 . S
C2942 H2955 0.961 . S
C2942 H2956 0.961 . S
C2943 C2940 1.539 . S
C2943 H2957 0.958 . S
C2943 H2958 0.961 . S
C2943 H2959 0.960 . S
H2944 C2928 0.931 . S
H2945 C2933 0.929 . S
H2946 C2934 0.960 . S
H2947 C2934 0.962 . S
H2948 C2934 0.960 . S
H2949 C2935 0.961 . S
H2950 C2935 0.961 . S
H2951 C2935 0.961 . S
H2952 C2936 0.931 . S
H2953 C2941 0.930 . S
H2954 C2942 0.956 . S
H2955 C2942 0.961 . S
H2956 C2942 0.961 . S
H2957 C2943 0.958 . S
H2958 C2943 0.961 . S
H2959 C2943 0.960 . S
C2960 C2961 1.391 . S
C2960 C2962 1.394 . S
C2960 H2976 0.931 . S
C2961 C2960 1.391 . S
C2961 C2965 1.376 . S
C2962 C2960 1.394 . S
C2962 C2963 1.369 . S
C2962 C2966 1.531 . S
C2963 C2962 1.369 . S
C2963 C2964 1.410 . S
C2963 C2971 1.503 . S
C2964 C2963 1.410 . S
C2964 C2965 1.392 . S
C2964 C2967 1.511 . S
C2965 C2961 1.376 . S
C2965 C2964 1.392 . S
C2965 H2977 0.929 . S
C2966 C2962 1.531 . S
C2966 H2978 0.960 . S
C2966 H2979 0.962 . S
C2966 H2980 0.960 . S
C2967 C2964 1.511 . S
C2967 H2981 0.961 . S
C2967 H2982 0.961 . S
C2967 H2983 0.961 . S
C2968 C2969 1.370 . S
C2968 C2970 1.363 . S
C2968 H2984 0.931 . S
C2969 C2968 1.370 . S
C2969 C2973 1.408 . S
C2970 C2968 1.363 . S
C2970 C2971 1.370 . S
C2970 C2974 1.524 . S
C2971 C2963 1.503 . S
C2971 C2970 1.370 . S
C2971 C2972 1.403 . S
C2972 C2971 1.403 . S
C2972 C2973 1.404 . S
C2972 C2975 1.539 . S
C2973 C2969 1.408 . S
C2973 C2972 1.404 . S
C2973 H2985 0.930 . S
C2974 C2970 1.524 . S
C2974 H2986 0.956 . S
C2974 H2987 0.961 . S
C2974 H2988 0.961 . S
C2975 C2972 1.539 . S
C2975 H2989 0.958 . S
C2975 H2990 0.961 . S
C2975 H2991 0.960 . S
H2976 C2960 0.931 . S
H2977 C2965 0.929 . S
H2978 C2966 0.960 . S
H2979 C2966 0.962 . S
H2980 C2966 0.960 . S
H2981 C2967 0.961 . S
H2982 C2967 0.961 . S
H2983 C2967 0.961 . S
H2984 C2968 0.931 . S
H2985 C2973 0.930 . S
H2986 C2974 0.956 . S
H2987 C2974 0.961 . S
H2988 C2974 0.961 . S
H2989 C2975 0.958 . S
H2990 C2975 0.961 . S
H2991 C2975 0.960 . S
C2992 C2993 1.391 . S
C2992 C2994 1.394 . S
C2992 H3008 0.931 . S
C2993 C2992 1.391 . S
C2993 C2997 1.376 . S
C2994 C2992 1.394 . S
C2994 C2995 1.369 . S
C2994 C2998 1.531 . S
C2995 C2994 1.369 . S
C2995 C2996 1.410 . S
C2995 C3003 1.503 . S
C2996 C2995 1.410 . S
C2996 C2997 1.392 . S
C2996 C2999 1.511 . S
C2997 C2993 1.376 . S
C2997 C2996 1.392 . S
C2997 H3009 0.929 . S
C2998 C2994 1.531 . S
C2998 H3010 0.960 . S
C2998 H3011 0.962 . S
C2998 H3012 0.960 . S
C2999 C2996 1.511 . S
C2999 H3013 0.961 . S
C2999 H3014 0.961 . S
C2999 H3015 0.961 . S
C3000 C3001 1.370 . S
C3000 C3002 1.363 . S
C3000 H3016 0.931 . S
C3001 C3000 1.370 . S
C3001 C3005 1.408 . S
C3002 C3000 1.363 . S
C3002 C3003 1.370 . S
C3002 C3006 1.524 . S
C3003 C2995 1.503 . S
C3003 C3002 1.370 . S
C3003 C3004 1.403 . S
C3004 C3003 1.403 . S
C3004 C3005 1.404 . S
C3004 C3007 1.539 . S
C3005 C3001 1.408 . S
C3005 C3004 1.404 . S
C3005 H3017 0.930 . S
C3006 C3002 1.524 . S
C3006 H3018 0.956 . S
C3006 H3019 0.961 . S
C3006 H3020 0.961 . S
C3007 C3004 1.539 . S
C3007 H3021 0.958 . S
C3007 H3022 0.961 . S
C3007 H3023 0.960 . S
H3008 C2992 0.931 . S
H3009 C2997 0.929 . S
H3010 C2998 0.960 . S
H3011 C2998 0.962 . S
H3012 C2998 0.960 . S
H3013 C2999 0.961 . S
H3014 C2999 0.961 . S
H3015 C2999 0.961 . S
H3016 C3000 0.931 . S
H3017 C3005 0.930 . S
H3018 C3006 0.956 . S
H3019 C3006 0.961 . S
H3020 C3006 0.961 . S
H3021 C3007 0.958 . S
H3022 C3007 0.961 . S
H3023 C3007 0.960 . S
C3024 C3025 1.391 1_655 S
C3024 C3026 1.394 . S
C3024 H3040 0.931 . S
C3025 C3024 1.391 1_455 S
C3025 C3029 1.376 . S
C3026 C3024 1.394 . S
C3026 C3027 1.369 1_655 S
C3026 C3030 1.531 . S
C3027 C3026 1.369 1_455 S
C3027 C3028 1.410 . S
C3027 C3035 1.503 . S
C3028 C3027 1.410 . S
C3028 C3029 1.392 . S
C3028 C3031 1.511 . S
C3029 C3025 1.376 . S
C3029 C3028 1.392 . S
C3029 H3041 0.929 . S
C3030 C3026 1.531 . S
C3030 H3042 0.960 . S
C3030 H3043 0.962 . S
C3030 H3044 0.960 . S
C3031 C3028 1.511 . S
C3031 H3045 0.961 . S
C3031 H3046 0.961 . S
C3031 H3047 0.961 . S
C3032 C3033 1.370 1_655 S
C3032 C3034 1.363 . S
C3032 H3048 0.931 . S
C3033 C3032 1.370 1_455 S
C3033 C3037 1.408 . S
C3034 C3032 1.363 . S
C3034 C3035 1.370 1_655 S
C3034 C3038 1.524 . S
C3035 C3027 1.503 . S
C3035 C3034 1.370 1_455 S
C3035 C3036 1.403 . S
C3036 C3035 1.403 . S
C3036 C3037 1.404 . S
C3036 C3039 1.539 . S
C3037 C3033 1.408 . S
C3037 C3036 1.404 . S
C3037 H3049 0.930 . S
C3038 C3034 1.524 . S
C3038 H3050 0.956 . S
C3038 H3051 0.961 . S
C3038 H3052 0.961 . S
C3039 C3036 1.539 . S
C3039 H3053 0.958 . S
C3039 H3054 0.961 . S
C3039 H3055 0.960 . S
H3040 C3024 0.931 . S
H3041 C3029 0.929 . S
H3042 C3030 0.960 . S
H3043 C3030 0.962 . S
H3044 C3030 0.960 . S
H3045 C3031 0.961 . S
H3046 C3031 0.961 . S
H3047 C3031 0.961 . S
H3048 C3032 0.931 . S
H3049 C3037 0.930 . S
H3050 C3038 0.956 . S
H3051 C3038 0.961 . S
H3052 C3038 0.961 . S
H3053 C3039 0.958 . S
H3054 C3039 0.961 . S
H3055 C3039 0.960 . S
C3056 C3057 1.391 . S
C3056 C3058 1.394 . S
C3056 H3072 0.931 . S
C3057 C3056 1.391 . S
C3057 C3061 1.376 . S
C3058 C3056 1.394 . S
C3058 C3059 1.369 . S
C3058 C3062 1.531 . S
C3059 C3058 1.369 . S
C3059 C3060 1.410 . S
C3059 C3067 1.503 . S
C3060 C3059 1.410 . S
C3060 C3061 1.392 . S
C3060 C3063 1.511 . S
C3061 C3057 1.376 . S
C3061 C3060 1.392 . S
C3061 H3073 0.929 . S
C3062 C3058 1.531 . S
C3062 H3074 0.960 . S
C3062 H3075 0.962 . S
C3062 H3076 0.960 . S
C3063 C3060 1.511 . S
C3063 H3077 0.961 . S
C3063 H3078 0.961 . S
C3063 H3079 0.961 . S
C3064 C3065 1.370 . S
C3064 C3066 1.363 . S
C3064 H3080 0.931 . S
C3065 C3064 1.370 . S
C3065 C3069 1.408 . S
C3066 C3064 1.363 . S
C3066 C3067 1.370 . S
C3066 C3070 1.524 . S
C3067 C3059 1.503 . S
C3067 C3066 1.370 . S
C3067 C3068 1.403 . S
C3068 C3067 1.403 . S
C3068 C3069 1.404 . S
C3068 C3071 1.539 . S
C3069 C3065 1.408 . S
C3069 C3068 1.404 . S
C3069 H3081 0.930 . S
C3070 C3066 1.524 . S
C3070 H3082 0.956 . S
C3070 H3083 0.961 . S
C3070 H3084 0.961 . S
C3071 C3068 1.539 . S
C3071 H3085 0.958 . S
C3071 H3086 0.961 . S
C3071 H3087 0.960 . S
H3072 C3056 0.931 . S
H3073 C3061 0.929 . S
H3074 C3062 0.960 . S
H3075 C3062 0.962 . S
H3076 C3062 0.960 . S
H3077 C3063 0.961 . S
H3078 C3063 0.961 . S
H3079 C3063 0.961 . S
H3080 C3064 0.931 . S
H3081 C3069 0.930 . S
H3082 C3070 0.956 . S
H3083 C3070 0.961 . S
H3084 C3070 0.961 . S
H3085 C3071 0.958 . S
H3086 C3071 0.961 . S
H3087 C3071 0.960 . S
C3088 C3089 1.391 . S
C3088 C3090 1.394 . S
C3088 H3104 0.931 . S
C3089 C3088 1.391 . S
C3089 C3093 1.376 . S
C3090 C3088 1.394 . S
C3090 C3091 1.369 . S
C3090 C3094 1.531 . S
C3091 C3090 1.369 . S
C3091 C3092 1.410 . S
C3091 C3099 1.503 . S
C3092 C3091 1.410 . S
C3092 C3093 1.392 . S
C3092 C3095 1.511 . S
C3093 C3089 1.376 . S
C3093 C3092 1.392 . S
C3093 H3105 0.929 . S
C3094 C3090 1.531 . S
C3094 H3106 0.960 . S
C3094 H3107 0.962 . S
C3094 H3108 0.960 . S
C3095 C3092 1.511 . S
C3095 H3109 0.961 . S
C3095 H3110 0.961 . S
C3095 H3111 0.961 . S
C3096 C3097 1.370 . S
C3096 C3098 1.363 . S
C3096 H3112 0.931 . S
C3097 C3096 1.370 . S
C3097 C3101 1.408 . S
C3098 C3096 1.363 . S
C3098 C3099 1.370 . S
C3098 C3102 1.524 . S
C3099 C3091 1.503 . S
C3099 C3098 1.370 . S
C3099 C3100 1.403 . S
C3100 C3099 1.403 . S
C3100 C3101 1.404 . S
C3100 C3103 1.539 1_556 S
C3101 C3097 1.408 . S
C3101 C3100 1.404 . S
C3101 H3113 0.930 1_556 S
C3102 C3098 1.524 . S
C3102 H3114 0.956 . S
C3102 H3115 0.961 . S
C3102 H3116 0.961 . S
C3103 C3100 1.539 1_554 S
C3103 H3117 0.959 . S
C3103 H3118 0.961 . S
C3103 H3119 0.960 1_554 S
H3104 C3088 0.931 . S
H3105 C3093 0.929 . S
H3106 C3094 0.960 . S
H3107 C3094 0.962 . S
H3108 C3094 0.960 . S
H3109 C3095 0.961 . S
H3110 C3095 0.961 . S
H3111 C3095 0.961 . S
H3112 C3096 0.931 . S
H3113 C3101 0.930 1_554 S
H3114 C3102 0.956 . S
H3115 C3102 0.961 . S
H3116 C3102 0.961 . S
H3117 C3103 0.959 . S
H3118 C3103 0.961 . S
H3119 C3103 0.960 1_556 S
C3120 C3121 1.391 . S
C3120 C3122 1.394 . S
C3120 H3136 0.931 . S
C3121 C3120 1.391 . S
C3121 C3125 1.376 . S
C3122 C3120 1.394 . S
C3122 C3123 1.369 . S
C3122 C3126 1.531 . S
C3123 C3122 1.369 . S
C3123 C3124 1.410 . S
C3123 C3131 1.503 . S
C3124 C3123 1.410 . S
C3124 C3125 1.392 . S
C3124 C3127 1.511 . S
C3125 C3121 1.376 . S
C3125 C3124 1.392 . S
C3125 H3137 0.929 . S
C3126 C3122 1.531 . S
C3126 H3138 0.960 . S
C3126 H3139 0.962 . S
C3126 H3140 0.960 . S
C3127 C3124 1.511 . S
C3127 H3141 0.961 . S
C3127 H3142 0.961 . S
C3127 H3143 0.961 . S
C3128 C3129 1.370 . S
C3128 C3130 1.363 . S
C3128 H3144 0.931 . S
C3129 C3128 1.370 . S
C3129 C3133 1.408 . S
C3130 C3128 1.363 . S
C3130 C3131 1.370 . S
C3130 C3134 1.524 . S
C3131 C3123 1.503 . S
C3131 C3130 1.370 . S
C3131 C3132 1.403 . S
C3132 C3131 1.403 . S
C3132 C3133 1.404 . S
C3132 C3135 1.539 . S
C3133 C3129 1.408 . S
C3133 C3132 1.404 . S
C3133 H3145 0.930 . S
C3134 C3130 1.524 . S
C3134 H3146 0.956 . S
C3134 H3147 0.961 . S
C3134 H3148 0.961 . S
C3135 C3132 1.539 . S
C3135 H3149 0.958 . S
C3135 H3150 0.961 . S
C3135 H3151 0.960 . S
H3136 C3120 0.931 . S
H3137 C3125 0.929 . S
H3138 C3126 0.960 . S
H3139 C3126 0.962 . S
H3140 C3126 0.960 . S
H3141 C3127 0.961 . S
H3142 C3127 0.961 . S
H3143 C3127 0.961 . S
H3144 C3128 0.931 . S
H3145 C3133 0.930 . S
H3146 C3134 0.956 . S
H3147 C3134 0.961 . S
H3148 C3134 0.961 . S
H3149 C3135 0.958 . S
H3150 C3135 0.961 . S
H3151 C3135 0.960 . S
C3152 C3153 1.391 . S
C3152 C3154 1.394 . S
C3152 H3168 0.931 . S
C3153 C3152 1.391 . S
C3153 C3157 1.376 1_455 S
C3154 C3152 1.394 . S
C3154 C3155 1.369 . S
C3154 C3158 1.531 . S
C3155 C3154 1.369 . S
C3155 C3156 1.410 1_455 S
C3155 C3163 1.503 . S
C3156 C3155 1.410 1_655 S
C3156 C3157 1.392 . S
C3156 C3159 1.511 . S
C3157 C3153 1.376 1_655 S
C3157 C3156 1.392 . S
C3157 H3169 0.929 . S
C3158 C3154 1.531 . S
C3158 H3170 0.960 . S
C3158 H3171 0.962 . S
C3158 H3172 0.960 . S
C3159 C3156 1.511 . S
C3159 H3173 0.961 . S
C3159 H3174 0.961 . S
C3159 H3175 0.961 . S
C3160 C3161 1.370 . S
C3160 C3162 1.363 . S
C3160 H3176 0.931 . S
C3161 C3160 1.370 . S
C3161 C3165 1.408 . S
C3162 C3160 1.363 . S
C3162 C3163 1.370 . S
C3162 C3166 1.524 . S
C3163 C3155 1.503 . S
C3163 C3162 1.370 . S
C3163 C3164 1.403 . S
C3164 C3163 1.403 . S
C3164 C3165 1.404 . S
C3164 C3167 1.539 . S
C3165 C3161 1.408 . S
C3165 C3164 1.404 . S
C3165 H3177 0.930 . S
C3166 C3162 1.524 . S
C3166 H3178 0.956 . S
C3166 H3179 0.961 . S
C3166 H3180 0.961 . S
C3167 C3164 1.539 . S
C3167 H3181 0.958 . S
C3167 H3182 0.961 1_455 S
C3167 H3183 0.960 . S
H3168 C3152 0.931 . S
H3169 C3157 0.929 . S
H3170 C3158 0.960 . S
H3171 C3158 0.962 . S
H3172 C3158 0.960 . S
H3173 C3159 0.961 . S
H3174 C3159 0.961 . S
H3175 C3159 0.961 . S
H3176 C3160 0.931 . S
H3177 C3165 0.930 . S
H3178 C3166 0.956 . S
H3179 C3166 0.961 . S
H3180 C3166 0.961 . S
H3181 C3167 0.958 . S
H3182 C3167 0.961 1_655 S
H3183 C3167 0.960 . S
C3184 C3185 1.391 . S
C3184 C3186 1.394 . S
C3184 H3200 0.931 . S
C3185 C3184 1.391 . S
C3185 C3189 1.376 . S
C3186 C3184 1.394 . S
C3186 C3187 1.369 . S
C3186 C3190 1.531 . S
C3187 C3186 1.369 . S
C3187 C3188 1.410 . S
C3187 C3195 1.503 . S
C3188 C3187 1.410 . S
C3188 C3189 1.392 . S
C3188 C3191 1.511 . S
C3189 C3185 1.376 . S
C3189 C3188 1.392 . S
C3189 H3201 0.929 . S
C3190 C3186 1.531 . S
C3190 H3202 0.960 . S
C3190 H3203 0.962 . S
C3190 H3204 0.960 . S
C3191 C3188 1.511 . S
C3191 H3205 0.961 . S
C3191 H3206 0.961 . S
C3191 H3207 0.961 . S
C3192 C3193 1.370 . S
C3192 C3194 1.363 . S
C3192 H3208 0.931 . S
C3193 C3192 1.370 . S
C3193 C3197 1.408 . S
C3194 C3192 1.363 . S
C3194 C3195 1.370 . S
C3194 C3198 1.524 . S
C3195 C3187 1.503 . S
C3195 C3194 1.370 . S
C3195 C3196 1.403 . S
C3196 C3195 1.403 . S
C3196 C3197 1.404 . S
C3196 C3199 1.539 . S
C3197 C3193 1.408 . S
C3197 C3196 1.404 . S
C3197 H3209 0.930 . S
C3198 C3194 1.524 . S
C3198 H3210 0.956 . S
C3198 H3211 0.961 . S
C3198 H3212 0.961 . S
C3199 C3196 1.539 . S
C3199 H3213 0.958 . S
C3199 H3214 0.961 . S
C3199 H3215 0.960 . S
H3200 C3184 0.931 . S
H3201 C3189 0.929 . S
H3202 C3190 0.960 . S
H3203 C3190 0.962 . S
H3204 C3190 0.960 . S
H3205 C3191 0.961 . S
H3206 C3191 0.961 . S
H3207 C3191 0.961 . S
H3208 C3192 0.931 . S
H3209 C3197 0.930 . S
H3210 C3198 0.956 . S
H3211 C3198 0.961 . S
H3212 C3198 0.961 . S
H3213 C3199 0.958 . S
H3214 C3199 0.961 . S
H3215 C3199 0.960 . S
C3216 C3217 1.391 . S
C3216 C3218 1.394 . S
C3216 H3232 0.931 . S
C3217 C3216 1.391 . S
C3217 C3221 1.376 . S
C3218 C3216 1.394 . S
C3218 C3219 1.369 . S
C3218 C3222 1.531 . S
C3219 C3218 1.369 . S
C3219 C3220 1.410 . S
C3219 C3227 1.503 . S
C3220 C3219 1.410 . S
C3220 C3221 1.392 . S
C3220 C3223 1.511 . S
C3221 C3217 1.376 . S
C3221 C3220 1.392 . S
C3221 H3233 0.929 . S
C3222 C3218 1.531 . S
C3222 H3234 0.960 . S
C3222 H3235 0.962 . S
C3222 H3236 0.960 . S
C3223 C3220 1.511 . S
C3223 H3237 0.961 . S
C3223 H3238 0.961 . S
C3223 H3239 0.961 . S
C3224 C3225 1.370 . S
C3224 C3226 1.363 . S
C3224 H3240 0.931 . S
C3225 C3224 1.370 . S
C3225 C3229 1.408 . S
C3226 C3224 1.363 . S
C3226 C3227 1.370 . S
C3226 C3230 1.524 . S
C3227 C3219 1.503 . S
C3227 C3226 1.370 . S
C3227 C3228 1.403 . S
C3228 C3227 1.403 . S
C3228 C3229 1.404 . S
C3228 C3231 1.539 . S
C3229 C3225 1.408 . S
C3229 C3228 1.404 . S
C3229 H3241 0.930 . S
C3230 C3226 1.524 . S
C3230 H3242 0.956 . S
C3230 H3243 0.961 . S
C3230 H3244 0.961 . S
C3231 C3228 1.539 . S
C3231 H3245 0.958 . S
C3231 H3246 0.961 . S
C3231 H3247 0.960 . S
H3232 C3216 0.931 . S
H3233 C3221 0.929 . S
H3234 C3222 0.960 . S
H3235 C3222 0.962 . S
H3236 C3222 0.960 . S
H3237 C3223 0.961 . S
H3238 C3223 0.961 . S
H3239 C3223 0.961 . S
H3240 C3224 0.931 . S
H3241 C3229 0.930 . S
H3242 C3230 0.956 . S
H3243 C3230 0.961 . S
H3244 C3230 0.961 . S
H3245 C3231 0.958 . S
H3246 C3231 0.961 . S
H3247 C3231 0.960 . S
C3248 C3249 1.391 . S
C3248 C3250 1.394 . S
C3248 H3264 0.931 . S
C3249 C3248 1.391 . S
C3249 C3253 1.376 . S
C3250 C3248 1.394 . S
C3250 C3251 1.369 . S
C3250 C3254 1.531 . S
C3251 C3250 1.369 . S
C3251 C3252 1.410 . S
C3251 C3259 1.503 . S
C3252 C3251 1.410 . S
C3252 C3253 1.392 . S
C3252 C3255 1.511 . S
C3253 C3249 1.376 . S
C3253 C3252 1.392 . S
C3253 H3265 0.929 . S
C3254 C3250 1.531 . S
C3254 H3266 0.960 . S
C3254 H3267 0.962 . S
C3254 H3268 0.960 . S
C3255 C3252 1.511 . S
C3255 H3269 0.961 . S
C3255 H3270 0.961 . S
C3255 H3271 0.961 . S
C3256 C3257 1.370 . S
C3256 C3258 1.363 . S
C3256 H3272 0.931 . S
C3257 C3256 1.370 . S
C3257 C3261 1.408 . S
C3258 C3256 1.363 . S
C3258 C3259 1.370 . S
C3258 C3262 1.524 . S
C3259 C3251 1.503 . S
C3259 C3258 1.370 . S
C3259 C3260 1.403 . S
C3260 C3259 1.403 . S
C3260 C3261 1.404 . S
C3260 C3263 1.539 . S
C3261 C3257 1.408 . S
C3261 C3260 1.404 . S
C3261 H3273 0.930 . S
C3262 C3258 1.524 . S
C3262 H3274 0.956 . S
C3262 H3275 0.961 . S
C3262 H3276 0.961 . S
C3263 C3260 1.539 . S
C3263 H3277 0.958 . S
C3263 H3278 0.961 . S
C3263 H3279 0.960 . S
H3264 C3248 0.931 . S
H3265 C3253 0.929 . S
H3266 C3254 0.960 . S
H3267 C3254 0.962 . S
H3268 C3254 0.960 . S
H3269 C3255 0.961 . S
H3270 C3255 0.961 . S
H3271 C3255 0.961 . S
H3272 C3256 0.931 . S
H3273 C3261 0.930 . S
H3274 C3262 0.956 . S
H3275 C3262 0.961 . S
H3276 C3262 0.961 . S
H3277 C3263 0.958 . S
H3278 C3263 0.961 . S
H3279 C3263 0.960 . S
C3280 C3281 1.391 . S
C3280 C3282 1.394 . S
C3280 H3296 0.931 . S
C3281 C3280 1.391 . S
C3281 C3285 1.376 . S
C3282 C3280 1.394 . S
C3282 C3283 1.369 . S
C3282 C3286 1.531 . S
C3283 C3282 1.369 . S
C3283 C3284 1.410 . S
C3283 C3291 1.503 . S
C3284 C3283 1.410 . S
C3284 C3285 1.392 . S
C3284 C3287 1.511 . S
C3285 C3281 1.376 . S
C3285 C3284 1.392 . S
C3285 H3297 0.929 . S
C3286 C3282 1.531 . S
C3286 H3298 0.960 1_655 S
C3286 H3299 0.962 . S
C3286 H3300 0.960 1_655 S
C3287 C3284 1.511 . S
C3287 H3301 0.961 . S
C3287 H3302 0.961 . S
C3287 H3303 0.961 . S
C3288 C3289 1.370 . S
C3288 C3290 1.363 . S
C3288 H3304 0.931 . S
C3289 C3288 1.370 . S
C3289 C3293 1.408 . S
C3290 C3288 1.363 . S
C3290 C3291 1.370 . S
C3290 C3294 1.524 . S
C3291 C3283 1.503 . S
C3291 C3290 1.370 . S
C3291 C3292 1.403 . S
C3292 C3291 1.403 . S
C3292 C3293 1.404 . S
C3292 C3295 1.542 . S
C3293 C3289 1.408 . S
C3293 C3292 1.404 . S
C3293 H3305 0.930 1_655 S
C3294 C3290 1.524 . S
C3294 H3306 0.956 . S
C3294 H3307 0.961 . S
C3294 H3308 0.961 . S
C3295 C3292 1.542 . S
C3295 H3309 0.947 1_655 S
C3295 H3310 0.961 1_655 S
C3295 H3311 0.968 . S
H3296 C3280 0.931 . S
H3297 C3285 0.929 . S
H3298 C3286 0.960 1_455 S
H3299 C3286 0.962 . S
H3300 C3286 0.960 1_455 S
H3301 C3287 0.961 . S
H3302 C3287 0.961 . S
H3303 C3287 0.961 . S
H3304 C3288 0.931 . S
H3305 C3293 0.930 1_455 S
H3306 C3294 0.956 . S
H3307 C3294 0.961 . S
H3308 C3294 0.961 . S
H3309 C3295 0.947 1_455 S
H3310 C3295 0.961 1_455 S
H3311 C3295 0.968 . S
C3312 C3313 1.391 . S
C3312 C3314 1.394 . S
C3312 H3328 0.931 . S
C3313 C3312 1.391 . S
C3313 C3317 1.376 . S
C3314 C3312 1.394 . S
C3314 C3315 1.369 . S
C3314 C3318 1.531 . S
C3315 C3314 1.369 . S
C3315 C3316 1.410 . S
C3315 C3323 1.503 . S
C3316 C3315 1.410 . S
C3316 C3317 1.392 . S
C3316 C3319 1.511 . S
C3317 C3313 1.376 . S
C3317 C3316 1.392 . S
C3317 H3329 0.929 . S
C3318 C3314 1.531 . S
C3318 H3330 0.960 . S
C3318 H3331 0.962 . S
C3318 H3332 0.960 . S
C3319 C3316 1.511 . S
C3319 H3333 0.961 . S
C3319 H3334 0.961 . S
C3319 H3335 0.961 . S
C3320 C3321 1.370 . S
C3320 C3322 1.363 . S
C3320 H3336 0.931 . S
C3321 C3320 1.370 . S
C3321 C3325 1.408 . S
C3322 C3320 1.363 . S
C3322 C3323 1.370 . S
C3322 C3326 1.524 . S
C3323 C3315 1.503 . S
C3323 C3322 1.370 . S
C3323 C3324 1.403 . S
C3324 C3323 1.403 . S
C3324 C3325 1.404 . S
C3324 C3327 1.539 . S
C3325 C3321 1.408 . S
C3325 C3324 1.404 . S
C3325 H3337 0.930 . S
C3326 C3322 1.524 . S
C3326 H3338 0.956 . S
C3326 H3339 0.961 . S
C3326 H3340 0.961 . S
C3327 C3324 1.539 . S
C3327 H3341 0.958 . S
C3327 H3342 0.961 . S
C3327 H3343 0.960 . S
H3328 C3312 0.931 . S
H3329 C3317 0.929 . S
H3330 C3318 0.960 . S
H3331 C3318 0.962 . S
H3332 C3318 0.960 . S
H3333 C3319 0.961 . S
H3334 C3319 0.961 . S
H3335 C3319 0.961 . S
H3336 C3320 0.931 . S
H3337 C3325 0.930 . S
H3338 C3326 0.956 . S
H3339 C3326 0.961 . S
H3340 C3326 0.961 . S
H3341 C3327 0.958 . S
H3342 C3327 0.961 . S
H3343 C3327 0.960 . S
C3344 C3345 1.391 . S
C3344 C3346 1.394 . S
C3344 H3360 0.931 . S
C3345 C3344 1.391 . S
C3345 C3349 1.376 . S
C3346 C3344 1.394 . S
C3346 C3347 1.369 . S
C3346 C3350 1.531 . S
C3347 C3346 1.369 . S
C3347 C3348 1.410 . S
C3347 C3355 1.503 . S
C3348 C3347 1.410 . S
C3348 C3349 1.392 . S
C3348 C3351 1.511 . S
C3349 C3345 1.376 . S
C3349 C3348 1.392 . S
C3349 H3361 0.929 . S
C3350 C3346 1.531 . S
C3350 H3362 0.960 . S
C3350 H3363 0.962 . S
C3350 H3364 0.960 . S
C3351 C3348 1.511 . S
C3351 H3365 0.961 . S
C3351 H3366 0.961 . S
C3351 H3367 0.961 . S
C3352 C3353 1.370 . S
C3352 C3354 1.363 . S
C3352 H3368 0.931 . S
C3353 C3352 1.370 . S
C3353 C3357 1.408 . S
C3354 C3352 1.363 . S
C3354 C3355 1.370 . S
C3354 C3358 1.524 . S
C3355 C3347 1.503 . S
C3355 C3354 1.370 . S
C3355 C3356 1.403 . S
C3356 C3355 1.403 . S
C3356 C3357 1.404 . S
C3356 C3359 1.539 . S
C3357 C3353 1.408 . S
C3357 C3356 1.404 . S
C3357 H3369 0.930 . S
C3358 C3354 1.524 . S
C3358 H3370 0.956 . S
C3358 H3371 0.961 . S
C3358 H3372 0.961 . S
C3359 C3356 1.539 . S
C3359 H3373 0.958 . S
C3359 H3374 0.961 . S
C3359 H3375 0.960 . S
H3360 C3344 0.931 . S
H3361 C3349 0.929 . S
H3362 C3350 0.960 . S
H3363 C3350 0.962 . S
H3364 C3350 0.960 . S
H3365 C3351 0.961 . S
H3366 C3351 0.961 . S
H3367 C3351 0.961 . S
H3368 C3352 0.931 . S
H3369 C3357 0.930 . S
H3370 C3358 0.956 . S
H3371 C3358 0.961 . S
H3372 C3358 0.961 . S
H3373 C3359 0.958 . S
H3374 C3359 0.961 . S
H3375 C3359 0.960 . S
C3376 C3377 1.391 . S
C3376 C3378 1.394 . S
C3376 H3392 0.931 . S
C3377 C3376 1.391 . S
C3377 C3381 1.376 . S
C3378 C3376 1.394 . S
C3378 C3379 1.369 . S
C3378 C3382 1.531 . S
C3379 C3378 1.369 . S
C3379 C3380 1.410 . S
C3379 C3387 1.503 . S
C3380 C3379 1.410 . S
C3380 C3381 1.392 . S
C3380 C3383 1.511 . S
C3381 C3377 1.376 . S
C3381 C3380 1.392 . S
C3381 H3393 0.929 . S
C3382 C3378 1.531 . S
C3382 H3394 0.960 . S
C3382 H3395 0.962 . S
C3382 H3396 0.960 . S
C3383 C3380 1.511 . S
C3383 H3397 0.961 . S
C3383 H3398 0.961 . S
C3383 H3399 0.961 . S
C3384 C3385 1.370 . S
C3384 C3386 1.363 . S
C3384 H3400 0.931 . S
C3385 C3384 1.370 . S
C3385 C3389 1.408 . S
C3386 C3384 1.363 . S
C3386 C3387 1.370 . S
C3386 C3390 1.524 . S
C3387 C3379 1.503 . S
C3387 C3386 1.370 . S
C3387 C3388 1.403 . S
C3388 C3387 1.403 . S
C3388 C3389 1.404 . S
C3388 C3391 1.539 . S
C3389 C3385 1.408 . S
C3389 C3388 1.404 . S
C3389 H3401 0.930 . S
C3390 C3386 1.524 . S
C3390 H3402 0.956 . S
C3390 H3403 0.961 . S
C3390 H3404 0.961 . S
C3391 C3388 1.539 . S
C3391 H3405 0.958 . S
C3391 H3406 0.961 . S
C3391 H3407 0.960 . S
H3392 C3376 0.931 . S
H3393 C3381 0.929 . S
H3394 C3382 0.960 . S
H3395 C3382 0.962 . S
H3396 C3382 0.960 . S
H3397 C3383 0.961 . S
H3398 C3383 0.961 . S
H3399 C3383 0.961 . S
H3400 C3384 0.931 . S
H3401 C3389 0.930 . S
H3402 C3390 0.956 . S
H3403 C3390 0.961 . S
H3404 C3390 0.961 . S
H3405 C3391 0.958 . S
H3406 C3391 0.961 . S
H3407 C3391 0.960 . S
C3408 C3409 1.391 . S
C3408 C3410 1.394 . S
C3408 H3424 0.931 . S
C3409 C3408 1.391 . S
C3409 C3413 1.376 . S
C3410 C3408 1.394 . S
C3410 C3411 1.369 . S
C3410 C3414 1.531 . S
C3411 C3410 1.369 . S
C3411 C3412 1.410 . S
C3411 C3419 1.503 . S
C3412 C3411 1.410 . S
C3412 C3413 1.392 . S
C3412 C3415 1.511 . S
C3413 C3409 1.376 . S
C3413 C3412 1.392 . S
C3413 H3425 0.929 . S
C3414 C3410 1.531 . S
C3414 H3426 0.960 . S
C3414 H3427 0.962 . S
C3414 H3428 0.960 . S
C3415 C3412 1.511 . S
C3415 H3429 0.961 . S
C3415 H3430 0.961 . S
C3415 H3431 0.961 1_655 S
C3416 C3417 1.370 . S
C3416 C3418 1.363 . S
C3416 H3432 0.931 . S
C3417 C3416 1.370 . S
C3417 C3421 1.408 . S
C3418 C3416 1.363 . S
C3418 C3419 1.370 . S
C3418 C3422 1.524 . S
C3419 C3411 1.503 . S
C3419 C3418 1.370 . S
C3419 C3420 1.403 . S
C3420 C3419 1.403 . S
C3420 C3421 1.404 . S
C3420 C3423 1.539 . S
C3421 C3417 1.408 . S
C3421 C3420 1.404 . S
C3421 H3433 0.930 . S
C3422 C3418 1.524 . S
C3422 H3434 0.956 . S
C3422 H3435 0.961 . S
C3422 H3436 0.961 . S
C3423 C3420 1.539 . S
C3423 H3437 0.958 . S
C3423 H3438 0.961 1_655 S
C3423 H3439 0.960 . S
H3424 C3408 0.931 . S
H3425 C3413 0.929 . S
H3426 C3414 0.960 . S
H3427 C3414 0.962 . S
H3428 C3414 0.960 . S
H3429 C3415 0.961 . S
H3430 C3415 0.961 . S
H3431 C3415 0.961 1_455 S
H3432 C3416 0.931 . S
H3433 C3421 0.930 . S
H3434 C3422 0.956 . S
H3435 C3422 0.961 . S
H3436 C3422 0.961 . S
H3437 C3423 0.958 . S
H3438 C3423 0.961 1_455 S
H3439 C3423 0.960 . S
C3440 C3441 1.391 . S
C3440 C3442 1.394 . S
C3440 H3456 0.931 . S
C3441 C3440 1.391 . S
C3441 C3445 1.376 . S
C3442 C3440 1.394 . S
C3442 C3443 1.369 . S
C3442 C3446 1.531 . S
C3443 C3442 1.369 . S
C3443 C3444 1.410 . S
C3443 C3451 1.503 . S
C3444 C3443 1.410 . S
C3444 C3445 1.392 . S
C3444 C3447 1.511 . S
C3445 C3441 1.376 . S
C3445 C3444 1.392 . S
C3445 H3457 0.929 . S
C3446 C3442 1.531 . S
C3446 H3458 0.960 . S
C3446 H3459 0.962 . S
C3446 H3460 0.960 . S
C3447 C3444 1.511 . S
C3447 H3461 0.961 . S
C3447 H3462 0.961 . S
C3447 H3463 0.961 . S
C3448 C3449 1.370 . S
C3448 C3450 1.363 . S
C3448 H3464 0.931 . S
C3449 C3448 1.370 . S
C3449 C3453 1.408 . S
C3450 C3448 1.363 . S
C3450 C3451 1.370 . S
C3450 C3454 1.524 . S
C3451 C3443 1.503 . S
C3451 C3450 1.370 . S
C3451 C3452 1.403 . S
C3452 C3451 1.403 . S
C3452 C3453 1.404 . S
C3452 C3455 1.539 . S
C3453 C3449 1.408 . S
C3453 C3452 1.404 . S
C3453 H3465 0.930 . S
C3454 C3450 1.524 . S
C3454 H3466 0.956 . S
C3454 H3467 0.961 . S
C3454 H3468 0.961 . S
C3455 C3452 1.539 . S
C3455 H3469 0.958 . S
C3455 H3470 0.961 . S
C3455 H3471 0.960 . S
H3456 C3440 0.931 . S
H3457 C3445 0.929 . S
H3458 C3446 0.960 . S
H3459 C3446 0.962 . S
H3460 C3446 0.960 . S
H3461 C3447 0.961 . S
H3462 C3447 0.961 . S
H3463 C3447 0.961 . S
H3464 C3448 0.931 . S
H3465 C3453 0.930 . S
H3466 C3454 0.956 . S
H3467 C3454 0.961 . S
H3468 C3454 0.961 . S
H3469 C3455 0.958 . S
H3470 C3455 0.961 . S
H3471 C3455 0.960 . S
C3472 C3473 1.391 . S
C3472 C3474 1.394 . S
C3472 H3488 0.931 . S
C3473 C3472 1.391 . S
C3473 C3477 1.376 . S
C3474 C3472 1.394 . S
C3474 C3475 1.369 . S
C3474 C3478 1.531 . S
C3475 C3474 1.369 . S
C3475 C3476 1.410 . S
C3475 C3483 1.503 . S
C3476 C3475 1.410 . S
C3476 C3477 1.392 . S
C3476 C3479 1.511 . S
C3477 C3473 1.376 . S
C3477 C3476 1.392 . S
C3477 H3489 0.929 . S
C3478 C3474 1.531 . S
C3478 H3490 0.960 . S
C3478 H3491 0.962 . S
C3478 H3492 0.960 . S
C3479 C3476 1.511 . S
C3479 H3493 0.961 . S
C3479 H3494 0.961 . S
C3479 H3495 0.961 . S
C3480 C3481 1.370 . S
C3480 C3482 1.363 . S
C3480 H3496 0.931 . S
C3481 C3480 1.370 . S
C3481 C3485 1.408 . S
C3482 C3480 1.363 . S
C3482 C3483 1.370 . S
C3482 C3486 1.524 . S
C3483 C3475 1.503 . S
C3483 C3482 1.370 . S
C3483 C3484 1.403 . S
C3484 C3483 1.403 . S
C3484 C3485 1.404 . S
C3484 C3487 1.539 . S
C3485 C3481 1.408 . S
C3485 C3484 1.404 . S
C3485 H3497 0.930 . S
C3486 C3482 1.524 . S
C3486 H3498 0.956 . S
C3486 H3499 0.961 . S
C3486 H3500 0.961 . S
C3487 C3484 1.539 . S
C3487 H3501 0.958 . S
C3487 H3502 0.961 . S
C3487 H3503 0.960 . S
H3488 C3472 0.931 . S
H3489 C3477 0.929 . S
H3490 C3478 0.960 . S
H3491 C3478 0.962 . S
H3492 C3478 0.960 . S
H3493 C3479 0.961 . S
H3494 C3479 0.961 . S
H3495 C3479 0.961 . S
H3496 C3480 0.931 . S
H3497 C3485 0.930 . S
H3498 C3486 0.956 . S
H3499 C3486 0.961 . S
H3500 C3486 0.961 . S
H3501 C3487 0.958 . S
H3502 C3487 0.961 . S
H3503 C3487 0.960 . S
C3504 C3505 1.391 . S
C3504 C3506 1.394 . S
C3504 H3520 0.931 . S
C3505 C3504 1.391 . S
C3505 C3509 1.376 . S
C3506 C3504 1.394 . S
C3506 C3507 1.369 . S
C3506 C3510 1.531 . S
C3507 C3506 1.369 . S
C3507 C3508 1.410 . S
C3507 C3515 1.503 . S
C3508 C3507 1.410 . S
C3508 C3509 1.392 . S
C3508 C3511 1.511 . S
C3509 C3505 1.376 . S
C3509 C3508 1.392 . S
C3509 H3521 0.929 . S
C3510 C3506 1.531 . S
C3510 H3522 0.960 . S
C3510 H3523 0.962 . S
C3510 H3524 0.960 . S
C3511 C3508 1.511 . S
C3511 H3525 0.961 . S
C3511 H3526 0.961 . S
C3511 H3527 0.961 . S
C3512 C3513 1.370 1_545 S
C3512 C3514 1.363 1_545 S
C3512 H3528 0.931 . S
C3513 C3512 1.370 1_565 S
C3513 C3517 1.408 . S
C3514 C3512 1.363 1_565 S
C3514 C3515 1.370 . S
C3514 C3518 1.524 1_565 S
C3515 C3507 1.503 . S
C3515 C3514 1.370 . S
C3515 C3516 1.403 . S
C3516 C3515 1.403 . S
C3516 C3517 1.404 . S
C3516 C3519 1.539 . S
C3517 C3513 1.408 . S
C3517 C3516 1.404 . S
C3517 H3529 0.930 . S
C3518 C3514 1.524 1_545 S
C3518 H3530 0.956 . S
C3518 H3531 0.961 1_545 S
C3518 H3532 0.961 . S
C3519 C3516 1.539 . S
C3519 H3533 0.958 . S
C3519 H3534 0.961 . S
C3519 H3535 0.960 . S
H3520 C3504 0.931 . S
H3521 C3509 0.929 . S
H3522 C3510 0.960 . S
H3523 C3510 0.962 . S
H3524 C3510 0.960 . S
H3525 C3511 0.961 . S
H3526 C3511 0.961 . S
H3527 C3511 0.961 . S
H3528 C3512 0.931 . S
H3529 C3517 0.930 . S
H3530 C3518 0.956 . S
H3531 C3518 0.961 1_565 S
H3532 C3518 0.961 . S
H3533 C3519 0.958 . S
H3534 C3519 0.961 . S
H3535 C3519 0.960 . S
C3536 C3537 1.391 . S
C3536 C3538 1.394 . S
C3536 H3552 0.931 . S
C3537 C3536 1.391 . S
C3537 C3541 1.376 . S
C3538 C3536 1.394 . S
C3538 C3539 1.369 . S
C3538 C3542 1.531 . S
C3539 C3538 1.369 . S
C3539 C3540 1.410 . S
C3539 C3547 1.503 . S
C3540 C3539 1.410 . S
C3540 C3541 1.392 . S
C3540 C3543 1.511 . S
C3541 C3537 1.376 . S
C3541 C3540 1.392 . S
C3541 H3553 0.929 . S
C3542 C3538 1.531 . S
C3542 H3554 0.960 . S
C3542 H3555 0.962 . S
C3542 H3556 0.960 . S
C3543 C3540 1.511 . S
C3543 H3557 0.961 . S
C3543 H3558 0.961 . S
C3543 H3559 0.961 . S
C3544 C3545 1.370 . S
C3544 C3546 1.363 . S
C3544 H3560 0.931 . S
C3545 C3544 1.370 . S
C3545 C3549 1.408 . S
C3546 C3544 1.363 . S
C3546 C3547 1.370 . S
C3546 C3550 1.524 . S
C3547 C3539 1.503 . S
C3547 C3546 1.370 . S
C3547 C3548 1.403 . S
C3548 C3547 1.403 . S
C3548 C3549 1.404 . S
C3548 C3551 1.539 . S
C3549 C3545 1.408 . S
C3549 C3548 1.404 . S
C3549 H3561 0.930 . S
C3550 C3546 1.524 . S
C3550 H3562 0.956 . S
C3550 H3563 0.961 . S
C3550 H3564 0.961 . S
C3551 C3548 1.539 . S
C3551 H3565 0.958 . S
C3551 H3566 0.961 . S
C3551 H3567 0.960 . S
H3552 C3536 0.931 . S
H3553 C3541 0.929 . S
H3554 C3542 0.960 . S
H3555 C3542 0.962 . S
H3556 C3542 0.960 . S
H3557 C3543 0.961 . S
H3558 C3543 0.961 . S
H3559 C3543 0.961 . S
H3560 C3544 0.931 . S
H3561 C3549 0.930 . S
H3562 C3550 0.956 . S
H3563 C3550 0.961 . S
H3564 C3550 0.961 . S
H3565 C3551 0.958 . S
H3566 C3551 0.961 . S
H3567 C3551 0.960 . S
C3568 C3569 1.391 . S
C3568 C3570 1.394 . S
C3568 H3584 0.931 . S
C3569 C3568 1.391 . S
C3569 C3573 1.376 1_556 S
C3570 C3568 1.394 . S
C3570 C3571 1.369 1_556 S
C3570 C3574 1.531 . S
C3571 C3570 1.369 1_554 S
C3571 C3572 1.410 . S
C3571 C3579 1.503 . S
C3572 C3571 1.410 . S
C3572 C3573 1.392 . S
C3572 C3575 1.511 . S
C3573 C3569 1.376 1_554 S
C3573 C3572 1.392 . S
C3573 H3585 0.929 . S
C3574 C3570 1.531 . S
C3574 H3586 0.960 . S
C3574 H3587 0.962 . S
C3574 H3588 0.960 . S
C3575 C3572 1.511 . S
C3575 H3589 0.961 . S
C3575 H3590 0.961 . S
C3575 H3591 0.961 . S
C3576 C3577 1.370 1_556 S
C3576 C3578 1.363 . S
C3576 H3592 0.931 . S
C3577 C3576 1.370 1_554 S
C3577 C3581 1.408 . S
C3578 C3576 1.363 . S
C3578 C3579 1.370 1_556 S
C3578 C3582 1.524 . S
C3579 C3571 1.503 . S
C3579 C3578 1.370 1_554 S
C3579 C3580 1.403 . S
C3580 C3579 1.403 . S
C3580 C3581 1.404 . S
C3580 C3583 1.539 . S
C3581 C3577 1.408 . S
C3581 C3580 1.404 . S
C3581 H3593 0.930 . S
C3582 C3578 1.524 . S
C3582 H3594 0.956 . S
C3582 H3595 0.961 . S
C3582 H3596 0.961 . S
C3583 C3580 1.539 . S
C3583 H3597 0.958 . S
C3583 H3598 0.961 . S
C3583 H3599 0.960 . S
H3584 C3568 0.931 . S
H3585 C3573 0.929 . S
H3586 C3574 0.960 . S
H3587 C3574 0.962 . S
H3588 C3574 0.960 . S
H3589 C3575 0.961 . S
H3590 C3575 0.961 . S
H3591 C3575 0.961 . S
H3592 C3576 0.931 . S
H3593 C3581 0.930 . S
H3594 C3582 0.956 . S
H3595 C3582 0.961 . S
H3596 C3582 0.961 . S
H3597 C3583 0.958 . S
H3598 C3583 0.961 . S
H3599 C3583 0.960 . S
C3600 C3601 1.391 . S
C3600 C3602 1.394 . S
C3600 H3616 0.931 . S
C3601 C3600 1.391 . S
C3601 C3605 1.376 . S
C3602 C3600 1.394 . S
C3602 C3603 1.369 . S
C3602 C3606 1.531 . S
C3603 C3602 1.369 . S
C3603 C3604 1.410 . S
C3603 C3611 1.503 . S
C3604 C3603 1.410 . S
C3604 C3605 1.392 . S
C3604 C3607 1.511 . S
C3605 C3601 1.376 . S
C3605 C3604 1.392 . S
C3605 H3617 0.929 . S
C3606 C3602 1.531 . S
C3606 H3618 0.960 . S
C3606 H3619 0.962 . S
C3606 H3620 0.960 . S
C3607 C3604 1.511 . S
C3607 H3621 0.961 . S
C3607 H3622 0.961 . S
C3607 H3623 0.961 . S
C3608 C3609 1.370 . S
C3608 C3610 1.363 . S
C3608 H3624 0.931 . S
C3609 C3608 1.370 . S
C3609 C3613 1.408 . S
C3610 C3608 1.363 . S
C3610 C3611 1.370 . S
C3610 C3614 1.524 . S
C3611 C3603 1.503 . S
C3611 C3610 1.370 . S
C3611 C3612 1.403 . S
C3612 C3611 1.403 . S
C3612 C3613 1.404 . S
C3612 C3615 1.539 . S
C3613 C3609 1.408 . S
C3613 C3612 1.404 . S
C3613 H3625 0.930 . S
C3614 C3610 1.524 . S
C3614 H3626 0.956 . S
C3614 H3627 0.961 . S
C3614 H3628 0.961 . S
C3615 C3612 1.539 . S
C3615 H3629 0.958 . S
C3615 H3630 0.961 . S
C3615 H3631 0.960 . S
H3616 C3600 0.931 . S
H3617 C3605 0.929 . S
H3618 C3606 0.960 . S
H3619 C3606 0.962 . S
H3620 C3606 0.960 . S
H3621 C3607 0.961 . S
H3622 C3607 0.961 . S
H3623 C3607 0.961 . S
H3624 C3608 0.931 . S
H3625 C3613 0.930 . S
H3626 C3614 0.956 . S
H3627 C3614 0.961 . S
H3628 C3614 0.961 . S
H3629 C3615 0.958 . S
H3630 C3615 0.961 . S
H3631 C3615 0.960 . S
C3632 C3633 1.391 . S
C3632 C3634 1.394 . S
C3632 H3648 0.931 . S
C3633 C3632 1.391 . S
C3633 C3637 1.376 . S
C3634 C3632 1.394 . S
C3634 C3635 1.369 . S
C3634 C3638 1.531 1_554 S
C3635 C3634 1.369 . S
C3635 C3636 1.410 . S
C3635 C3643 1.503 . S
C3636 C3635 1.410 . S
C3636 C3637 1.392 . S
C3636 C3639 1.511 . S
C3637 C3633 1.376 . S
C3637 C3636 1.392 . S
C3637 H3649 0.929 . S
C3638 C3634 1.531 1_556 S
C3638 H3650 0.960 . S
C3638 H3651 0.962 1_556 S
C3638 H3652 0.960 . S
C3639 C3636 1.511 . S
C3639 H3653 0.961 . S
C3639 H3654 0.961 . S
C3639 H3655 0.961 . S
C3640 C3641 1.370 1_554 S
C3640 C3642 1.363 . S
C3640 H3656 0.931 . S
C3641 C3640 1.370 1_556 S
C3641 C3645 1.408 . S
C3642 C3640 1.363 . S
C3642 C3643 1.370 . S
C3642 C3646 1.524 . S
C3643 C3635 1.503 . S
C3643 C3642 1.370 . S
C3643 C3644 1.403 1_554 S
C3644 C3643 1.403 1_556 S
C3644 C3645 1.404 . S
C3644 C3647 1.539 . S
C3645 C3641 1.408 . S
C3645 C3644 1.404 . S
C3645 H3657 0.930 . S
C3646 C3642 1.524 . S
C3646 H3658 0.956 . S
C3646 H3659 0.961 . S
C3646 H3660 0.961 . S
C3647 C3644 1.539 . S
C3647 H3661 0.958 . S
C3647 H3662 0.961 . S
C3647 H3663 0.960 . S
H3648 C3632 0.931 . S
H3649 C3637 0.929 . S
H3650 C3638 0.960 . S
H3651 C3638 0.962 1_554 S
H3652 C3638 0.960 . S
H3653 C3639 0.961 . S
H3654 C3639 0.961 . S
H3655 C3639 0.961 . S
H3656 C3640 0.931 . S
H3657 C3645 0.930 . S
H3658 C3646 0.956 . S
H3659 C3646 0.961 . S
H3660 C3646 0.961 . S
H3661 C3647 0.958 . S
H3662 C3647 0.961 . S
H3663 C3647 0.960 . S
C3664 C3665 1.391 . S
C3664 C3666 1.394 . S
C3664 H3680 0.931 . S
C3665 C3664 1.391 . S
C3665 C3669 1.376 . S
C3666 C3664 1.394 . S
C3666 C3667 1.369 . S
C3666 C3670 1.531 . S
C3667 C3666 1.369 . S
C3667 C3668 1.410 . S
C3667 C3675 1.503 . S
C3668 C3667 1.410 . S
C3668 C3669 1.392 . S
C3668 C3671 1.511 . S
C3669 C3665 1.376 . S
C3669 C3668 1.392 . S
C3669 H3681 0.929 . S
C3670 C3666 1.531 . S
C3670 H3682 0.960 . S
C3670 H3683 0.962 . S
C3670 H3684 0.960 . S
C3671 C3668 1.511 . S
C3671 H3685 0.961 . S
C3671 H3686 0.961 . S
C3671 H3687 0.961 . S
C3672 C3673 1.370 . S
C3672 C3674 1.363 . S
C3672 H3688 0.931 . S
C3673 C3672 1.370 . S
C3673 C3677 1.408 . S
C3674 C3672 1.363 . S
C3674 C3675 1.370 . S
C3674 C3678 1.524 . S
C3675 C3667 1.503 . S
C3675 C3674 1.370 . S
C3675 C3676 1.403 . S
C3676 C3675 1.403 . S
C3676 C3677 1.404 . S
C3676 C3679 1.539 . S
C3677 C3673 1.408 . S
C3677 C3676 1.404 . S
C3677 H3689 0.930 . S
C3678 C3674 1.524 . S
C3678 H3690 0.956 . S
C3678 H3691 0.961 . S
C3678 H3692 0.961 . S
C3679 C3676 1.539 . S
C3679 H3693 0.958 . S
C3679 H3694 0.961 . S
C3679 H3695 0.960 . S
H3680 C3664 0.931 . S
H3681 C3669 0.929 . S
H3682 C3670 0.960 . S
H3683 C3670 0.962 . S
H3684 C3670 0.960 . S
H3685 C3671 0.961 . S
H3686 C3671 0.961 . S
H3687 C3671 0.961 . S
H3688 C3672 0.931 . S
H3689 C3677 0.930 . S
H3690 C3678 0.956 . S
H3691 C3678 0.961 . S
H3692 C3678 0.961 . S
H3693 C3679 0.958 . S
H3694 C3679 0.961 . S
H3695 C3679 0.960 . S
C3696 C3697 1.391 . S
C3696 C3698 1.394 . S
C3696 H3712 0.931 . S
C3697 C3696 1.391 . S
C3697 C3701 1.376 . S
C3698 C3696 1.394 . S
C3698 C3699 1.369 . S
C3698 C3702 1.531 . S
C3699 C3698 1.369 . S
C3699 C3700 1.410 . S
C3699 C3707 1.503 . S
C3700 C3699 1.410 . S
C3700 C3701 1.392 . S
C3700 C3703 1.511 . S
C3701 C3697 1.376 . S
C3701 C3700 1.392 . S
C3701 H3713 0.929 . S
C3702 C3698 1.531 . S
C3702 H3714 0.960 . S
C3702 H3715 0.962 . S
C3702 H3716 0.960 . S
C3703 C3700 1.511 . S
C3703 H3717 0.961 . S
C3703 H3718 0.961 . S
C3703 H3719 0.961 . S
C3704 C3705 1.370 . S
C3704 C3706 1.363 . S
C3704 H3720 0.931 . S
C3705 C3704 1.370 . S
C3705 C3709 1.408 . S
C3706 C3704 1.363 . S
C3706 C3707 1.370 . S
C3706 C3710 1.524 . S
C3707 C3699 1.503 . S
C3707 C3706 1.370 . S
C3707 C3708 1.403 . S
C3708 C3707 1.403 . S
C3708 C3709 1.404 . S
C3708 C3711 1.539 . S
C3709 C3705 1.408 . S
C3709 C3708 1.404 . S
C3709 H3721 0.930 . S
C3710 C3706 1.524 . S
C3710 H3722 0.956 . S
C3710 H3723 0.961 . S
C3710 H3724 0.961 . S
C3711 C3708 1.539 . S
C3711 H3725 0.958 . S
C3711 H3726 0.961 . S
C3711 H3727 0.960 . S
H3712 C3696 0.931 . S
H3713 C3701 0.929 . S
H3714 C3702 0.960 . S
H3715 C3702 0.962 . S
H3716 C3702 0.960 . S
H3717 C3703 0.961 . S
H3718 C3703 0.961 . S
H3719 C3703 0.961 . S
H3720 C3704 0.931 . S
H3721 C3709 0.930 . S
H3722 C3710 0.956 . S
H3723 C3710 0.961 . S
H3724 C3710 0.961 . S
H3725 C3711 0.958 . S
H3726 C3711 0.961 . S
H3727 C3711 0.960 . S
C657 C111 1.054 1_455 S
C665 C352 1.156 1_556 S
C689 C64 1.312 . S
C697 C365 1.339 . S
C721 C77 1.235 . S
C729 C384 1.231 . S
C761 C415 1.727 . S
C753 C95 1.724 . S
C785 C25 1.543 . S
C793 C435 1.502 . S
C825 C452 0.854 . S
C817 C36 0.869 . S
C857 C465 1.501 . S
C849 C50 1.434 . S
C881 C11 0.886 . S
C889 C492 0.875 . S
C921 C345 1.148 1_655 S
C913 C237 1.118 . S
C945 C245 1.403 . S
C953 C375 1.368 . S
C985 C377 1.593 . S
C977 C279 1.486 . S
C1017 C412 0.764 . S
C1009 C175 0.740 . S
C1041 C231 1.022 . S
C1049 C432 1.018 . S
C1081 C445 1.676 . S
C1073 C251 1.549 . S
C1113 C475 1.246 . S
C1105 C273 1.283 . S
C1145 C485 1.125 . S
C1137 C181 1.076 . S
C1177 C355 1.464 . S
C1169 C165 1.477 . S
C1201 C288 1.770 . S
C1209 C505 1.804 1_556 S
C1241 C535 1.502 . S
C1233 C333 1.532 . S
C1273 C552 1.148 . S
C1265 C316 1.154 . S
C1297 C123 1.770 . S
C1305 C495 1.771 . S
C1329 C137 1.108 . S
C1337 C382 1.093 . S
C1361 C330 1.810 . S
C1369 C565 1.871 . S
C1401 C592 0.936 . S
C1393 C302 0.923 . S
C1433 C342 1.251 . S
C1425 C63 1.292 . S
C1465 C577 1.340 . S
C1457 C106 1.333 . S
C1489 C97 1.276 . S
C1497 C395 1.316 . S
C1521 C81 1.840 . S
C1529 C564 1.774 . S
C1561 C424 1.633 . S
C1553 C13 1.581 . S
C1585 C55 0.906 . S
C1593 C522 0.867 . S
C1625 C457 1.420 . S
C1617 C35 1.413 . S
C1657 C602 1.029 . S
C1649 C21 1.070 . S
C1689 C337 1.254 . S
C1681 C147 1.260 . S
C1721 C584 1.399 . S
C1713 C321 1.304 . S
C1745 C119 1.693 . S
C1753 C385 1.644 . S
C1777 C293 0.800 . S
C1785 C562 0.887 . S
C1809 C153 1.049 1_565 S
C1817 C422 1.154 . S
C1849 C517 1.737 . S
C1841 C315 1.731 . S
C1873 C125 1.194 . S
C1881 C464 1.257 . S
C1905 C287 1.260 . S
C1913 C597 1.236 . S
C1937 C193 1.562 . S
C1945 C344 1.559 . S
C1969 C176 1.772 . S
C1977 C497 1.829 . S
C2001 C263 1.492 . S
C2009 C444 1.516 . S
C2033 C246 1.242 . S
C2041 C542 1.286 . S
C2073 C604 1.884 . S
C2065 C277 1.920 . S
C2097 C221 1.134 . S
C2105 C392 1.106 . S
C2137 C397 1.910 . S
C2129 C260 1.852 . S
C2169 C362 1.010 . S
C2161 C204 0.968 . S
C2193 C83 1.143 . S
C2201 C632 1.130 . S
C2233 C585 1.333 . S
C2225 C92 1.329 . S
C2257 C105 1.249 . S
C2265 C644 1.236 1_455 S
C2289 C67 1.753 . S
C2297 C575 1.711 . S
C2321 C53 1.527 . S
C2329 C515 1.518 . S
C2361 C532 0.844 . S
C2353 C8 0.811 . S
C2393 C545 1.516 . S
C2385 C22 1.468 . S
C2425 C612 0.884 . S
C2417 C39 0.885 . S
C2457 C625 1.126 . S
C2449 C265 1.030 . S
C2481 C189 1.389 . S
C2489 C595 1.386 . S
C2521 C637 1.586 . S
C2513 C209 1.510 . S
C2553 C572 0.784 . S
C2545 C217 0.773 . S
C2585 C512 1.008 . S
C2577 C259 1.028 . S
C2609 C195 1.516 . S
C2617 C525 1.672 . S
C2649 C555 1.252 . S
C2641 C203 1.291 . S
C2673 C223 1.063 . S
C2681 C605 1.120 . S
C2713 C635 1.462 . S
C2705 C319 1.494 . S
C2737 C134 1.767 . S
C2745 C425 1.808 . S
C2777 C455 1.502 . S
C2769 C151 1.536 . S
C2809 C472 1.152 . S
C2801 C162 1.171 . S
C2841 C615 1.766 . S
C2833 C305 1.767 . S
C2865 C291 1.114 . S
C2873 C642 1.061 . S
C2905 C405 1.862 . S
C2897 C148 1.765 . S
C2937 C372 0.935 . S
C2929 C120 0.965 1_565 S
C2961 C91 1.272 . S
C2969 C622 1.242 . S
C3001 C357 1.340 . S
C2993 C78 1.339 . S
C3025 C69 1.182 . S
C3033 C655 1.295 . S
C3057 C109 1.816 . S
C3065 C404 1.792 . S
C3089 C41 1.586 . S
C3097 C504 1.618 . S
C3129 C442 0.857 . S
C3121 C27 0.767 . S
C3153 C7 1.419 . S
C3161 C537 1.422 . S
C3185 C49 1.058 . S
C3193 C482 1.032 . S
C3225 C617 1.235 . S
C3217 C329 1.247 . S
C3249 C167 1.390 . S
C3257 C364 1.412 . S
C3289 C645 1.648 . S
C3281 C301 1.691 . S
C3313 C139 0.920 . S
C3321 C402 0.904 . S
C3345 C335 1.127 . S
C3353 C502 1.175 . S
C3385 C437 1.733 . S
C3377 C161 1.725 . S
C3409 C307 1.234 . S
C3417 C544 1.234 . S
C3449 C477 1.232 . S
C3441 C133 1.259 . S
C3481 C624 1.544 . S
C3473 C249 1.574 . S
C3513 C417 1.828 1_565 S
C3505 C218 1.761 . S
C3537 C235 1.490 . S
C3545 C524 1.514 . S
C3577 C462 1.271 . S
C3569 C190 1.234 1_556 S
C3601 C207 1.922 . S
C3609 C484 1.882 . S
C3633 C179 1.101 . S
C3641 C652 1.132 . S
C3673 C557 1.900 . S
C3665 C232 1.871 1_565 S
C3705 C582 1.009 . S
C3697 C274 0.964 . S
