# Generated by pormake.
# Topology anh, (6,3)-cn, num edge types: 1
# Building blocks:
#     Node 0, Type 0, BuildingBlock: GEDQOX_clean_sbu_0, # of connection points: 6
#     Node 1, Type 0, BuildingBlock: GEDQOX_clean_sbu_0, # of connection points: 6
#     Node 2, Type 0, BuildingBlock: GEDQOX_clean_sbu_0, # of connection points: 6
#     Node 3, Type 1, BuildingBlock: OLANEW_clean_sbu_2, # of connection points: 3
#     Node 4, Type 1, BuildingBlock: OLANEW_clean_sbu_2, # of connection points: 3
#     Node 5, Type 1, BuildingBlock: OLANEW_clean_sbu_2, # of connection points: 3
#     Node 6, Type 1, BuildingBlock: OLANEW_clean_sbu_2, # of connection points: 3
#     Node 7, Type 1, BuildingBlock: OLANEW_clean_sbu_2, # of connection points: 3
#     Node 8, Type 1, BuildingBlock: OLANEW_clean_sbu_2, # of connection points: 3
#     Edge 9, Type (0, 1), BuildingBlock: ZUJKAS_clean_linker_0, # of connection points: 2
#     Edge 10, Type (0, 1), BuildingBlock: ZUJKAS_clean_linker_0, # of connection points: 2
#     Edge 11, Type (0, 1), BuildingBlock: ZUJKAS_clean_linker_0, # of connection points: 2
#     Edge 12, Type (0, 1), BuildingBlock: ZUJKAS_clean_linker_0, # of connection points: 2
#     Edge 13, Type (0, 1), BuildingBlock: ZUJKAS_clean_linker_0, # of connection points: 2
#     Edge 14, Type (0, 1), BuildingBlock: ZUJKAS_clean_linker_0, # of connection points: 2
#     Edge 15, Type (0, 1), BuildingBlock: ZUJKAS_clean_linker_0, # of connection points: 2
#     Edge 16, Type (0, 1), BuildingBlock: ZUJKAS_clean_linker_0, # of connection points: 2
#     Edge 17, Type (0, 1), BuildingBlock: ZUJKAS_clean_linker_0, # of connection points: 2
#     Edge 18, Type (0, 1), BuildingBlock: ZUJKAS_clean_linker_0, # of connection points: 2
#     Edge 19, Type (0, 1), BuildingBlock: ZUJKAS_clean_linker_0, # of connection points: 2
#     Edge 20, Type (0, 1), BuildingBlock: ZUJKAS_clean_linker_0, # of connection points: 2
#     Edge 21, Type (0, 1), BuildingBlock: ZUJKAS_clean_linker_0, # of connection points: 2
#     Edge 22, Type (0, 1), BuildingBlock: ZUJKAS_clean_linker_0, # of connection points: 2
#     Edge 23, Type (0, 1), BuildingBlock: ZUJKAS_clean_linker_0, # of connection points: 2
#     Edge 24, Type (0, 1), BuildingBlock: ZUJKAS_clean_linker_0, # of connection points: 2
#     Edge 25, Type (0, 1), BuildingBlock: ZUJKAS_clean_linker_0, # of connection points: 2
#     Edge 26, Type (0, 1), BuildingBlock: ZUJKAS_clean_linker_0, # of connection points: 2
# Relax obj value: 0.112
# Max RMSD: 0.156
# Mean RMSD: 0.111
data_MOF--net-anh--node1-GEDQOX_clean_sbu_0--node2-OLANEW_clean_sbu_2--edge1-ZUJKAS_clean_linker_0
_symmetry_space_group_name_H-M    P1
_symmetry_Int_Tables_number       1
_symmetry_cell_setting            triclinic
loop_
_symmetry_equiv_pos_as_xyz
'x, y, z'
_cell_length_a     46.284303
_cell_length_b     42.328612
_cell_length_c     65.339875
_cell_angle_alpha  92.788743
_cell_angle_beta   90.2769
_cell_angle_gamma 110.87241
loop_
_atom_site_label
_atom_site_type_symbol
_atom_site_fract_x
_atom_site_fract_y
_atom_site_fract_z
_atom_type_partial_charge
Nd0 Nd 0.04576 0.54588 0.14144 0.0
Nd1 Nd 0.02345 0.4728 0.15336 0.0
C2 C 0.0742 0.60464 0.12516 0.0
C3 C 0.10488 0.63135 0.12811 0.0
C4 C 0.11859 0.65159 0.11193 0.0
C5 C 0.14784 0.67693 0.11464 0.0
C6 C 0.16385 0.68252 0.13364 0.0
C7 C 0.14995 0.66191 0.14978 0.0
C8 C 0.12087 0.63647 0.147 0.0
C9 C 0.04032 0.53791 0.1828 0.0
C10 C 0.09695 0.50789 0.14796 0.0
C11 C 0.99566 0.41475 0.17059 0.0
C12 C 0.96371 0.39105 0.17312 0.0
C13 C 0.94071 0.40203 0.1814 0.0
C14 C 0.91062 0.379 0.1836 0.0
C15 C 0.90283 0.34457 0.17743 0.0
C16 C 0.92593 0.33384 0.16896 0.0
C17 C 0.95603 0.35681 0.16692 0.0
C18 C 0.03039 0.48125 0.1122 0.0
C19 C 0.97206 0.50936 0.14429 0.0
O20 O 0.07381 0.57579 0.11678 0.0
O21 O 0.0555 0.60087 0.14055 0.0
O22 O 0.03355 0.5609 0.17361 0.0
O23 O 0.05121 0.52145 0.1705 0.0
O24 O 0.09027 0.53257 0.13978 0.0
O25 O 0.07548 0.48315 0.15691 0.0
O26 O 1.00398 0.44426 0.18066 0.0
O27 O 1.00617 0.41665 0.15197 0.0
O28 O 0.03707 0.45819 0.12146 0.0
O29 O 0.01877 0.49727 0.12429 0.0
O30 O 0.97854 0.48582 0.15402 0.0
O31 O 0.99397 0.53329 0.13511 0.0
H32 H 0.1067 0.64773 0.09718 0.0
H33 H 0.158 0.69193 0.10178 0.0
H34 H 0.1613 0.66574 0.1647 0.0
H35 H 0.11077 0.62091 0.15967 0.0
H36 H 0.94591 0.42835 0.18623 0.0
H37 H 0.8936 0.38815 0.1904 0.0
H38 H 0.92072 0.30772 0.16367 0.0
H39 H 0.97334 0.34781 0.16038 0.0
Nd40 Nd 0.46396 0.00506 0.51576 0.0
Nd41 Nd 0.53697 0.03333 0.50509 0.0
C42 C 0.40837 0.97393 0.5303 0.0
C43 C 0.38307 0.94068 0.5273 0.0
C44 C 0.3876 0.91031 0.53102 0.0
C45 C 0.36337 0.87916 0.52779 0.0
C46 C 0.33412 0.87766 0.52069 0.0
C47 C 0.32969 0.90815 0.51707 0.0
C48 C 0.35386 0.93926 0.52042 0.0
C49 C 0.47874 0.01378 0.47534 0.0
C50 C 0.50208 0.95172 0.5098 0.0
C51 C 0.58879 0.05892 0.48517 0.0
C52 C 0.61616 0.09048 0.48609 0.0
C53 C 0.61316 0.12241 0.48678 0.0
C54 C 0.63943 0.15196 0.48735 0.0
C55 C 0.66918 0.15016 0.48745 0.0
C56 C 0.6721 0.11819 0.48703 0.0
C57 C 0.64583 0.08865 0.48628 0.0
C58 C 0.52829 0.03781 0.54687 0.0
C59 C 0.50003 0.08586 0.5155 0.0
O60 O 0.43394 0.97469 0.53938 0.0
O61 O 0.41336 0.99385 0.51496 0.0
O62 O 0.45461 0.01814 0.48316 0.0
O63 O 0.4925 0.00285 0.48832 0.0
O64 O 0.47645 0.95696 0.51512 0.0
O65 O 0.52732 0.97618 0.50404 0.0
O66 O 0.56247 0.06107 0.47914 0.0
O67 O 0.58593 0.03894 0.50038 0.0
O68 O 0.55559 0.04677 0.53896 0.0
O69 O 0.50852 0.02778 0.53258 0.0
O70 O 0.52202 0.07984 0.50483 0.0
O71 O 0.47774 0.06163 0.52431 0.0
H72 H 0.40984 0.91053 0.5364 0.0
H73 H 0.36753 0.85628 0.53102 0.0
H74 H 0.30768 0.90802 0.5113 0.0
H75 H 0.34978 0.96231 0.51744 0.0
H76 H 0.59055 0.12461 0.48683 0.0
H77 H 0.63647 0.17625 0.48786 0.0
H78 H 0.69471 0.11599 0.48687 0.0
H79 H 0.64867 0.0643 0.48575 0.0
Nd80 Nd 0.47737 0.49889 0.84622 0.0
Nd81 Nd 0.55033 0.52916 0.86606 0.0
C82 C 0.42915 0.48392 0.82105 0.0
C83 C 0.40302 0.49545 0.81924 0.0
C84 C 0.38443 0.48702 0.8014 0.0
C85 C 0.36121 0.50047 0.79879 0.0
C86 C 0.35636 0.52265 0.814 0.0
C87 C 0.37497 0.53071 0.83197 0.0
C88 C 0.39819 0.51729 0.83454 0.0
C89 C 0.48077 0.50307 0.88878 0.0
C90 C 0.51142 0.58022 0.85975 0.0
C91 C 0.59984 0.5447 0.88974 0.0
C92 C 0.62846 0.53768 0.88673 0.0
C93 C 0.6274 0.50728 0.87653 0.0
C94 C 0.65465 0.50233 0.87117 0.0
C95 C 0.68348 0.52785 0.87567 0.0
C96 C 0.68454 0.55798 0.88629 0.0
C97 C 0.65719 0.56282 0.8918 0.0
C98 C 0.54769 0.52467 0.82368 0.0
C99 C 0.51733 0.44857 0.85039 0.0
O100 O 0.45606 0.50702 0.8177 0.0
O101 O 0.42951 0.4661 0.83688 0.0
O102 O 0.4546 0.49066 0.87853 0.0
O103 O 0.50196 0.51195 0.87613 0.0
O104 O 0.48894 0.55616 0.84923 0.0
O105 O 0.5349 0.5752 0.8691 0.0
O106 O 0.57471 0.51826 0.89243 0.0
O107 O 0.59562 0.56596 0.87711 0.0
O108 O 0.57372 0.53487 0.83407 0.0
O109 O 0.52604 0.5176 0.83609 0.0
O110 O 0.53898 0.47166 0.86208 0.0
O111 O 0.49386 0.45413 0.84148 0.0
H112 H 0.38826 0.47057 0.78933 0.0
H113 H 0.34749 0.49406 0.78469 0.0
H114 H 0.37153 0.54729 0.84411 0.0
H115 H 0.41267 0.52433 0.84833 0.0
H116 H 0.60549 0.48776 0.87207 0.0
H117 H 0.65309 0.47907 0.86275 0.0
H118 H 0.70649 0.57795 0.89008 0.0
H119 H 0.65844 0.58659 0.89944 0.0
O120 O 0.53623 0.05047 0.24951 0.0
Cd121 Cd 0.54 0.0524 0.21226 0.0
O122 O 0.51956 0.99482 0.24933 0.0
Cd123 Cd 0.50834 0.98543 0.21657 0.0
O124 O 0.47004 0.95436 0.1962 0.0
C125 C 0.44526 0.9399 0.20567 0.0
O126 O 0.44529 0.94552 0.22564 0.0
C127 C 0.52878 0.02344 0.25917 0.0
C128 C 0.59736 0.0997 0.20253 0.0
O129 O 0.57357 0.10828 0.20452 0.0
O130 O 0.59388 0.06866 0.20479 0.0
O131 O 0.52222 0.50174 0.59291 0.0
Cd132 Cd 0.51577 0.49529 0.55562 0.0
O133 O 0.51013 0.54739 0.5981 0.0
Cd134 Cd 0.50615 0.5603 0.56647 0.0
O135 O 0.50503 0.6031 0.54933 0.0
C136 C 0.49931 0.6256 0.56043 0.0
O137 O 0.49411 0.6205 0.57997 0.0
C138 C 0.51756 0.52372 0.60507 0.0
C139 C 0.51134 0.42943 0.54338 0.0
O140 O 0.53745 0.45399 0.54387 0.0
O141 O 0.48726 0.43616 0.54817 0.0
O142 O 0.03138 0.54955 0.89018 0.0
Cd143 Cd 0.02379 0.56311 0.85485 0.0
O144 O 0.04134 0.5028 0.88392 0.0
Cd145 Cd 0.02419 0.49869 0.8526 0.0
O146 O 0.98511 0.49884 0.83421 0.0
C147 C 0.96045 0.47305 0.83475 0.0
O148 O 0.96123 0.44655 0.84409 0.0
C149 C 0.03937 0.52578 0.89652 0.0
C150 C 0.07917 0.57731 0.83417 0.0
O151 O 0.05765 0.5482 0.83216 0.0
O152 O 0.0741 0.60042 0.84535 0.0
O153 O 0.04103 0.50651 0.41174 0.0
Cd154 Cd 0.04073 0.50506 0.44911 0.0
O155 O 0.99834 0.51792 0.40977 0.0
Cd156 Cd 0.98417 0.50204 0.44061 0.0
O157 O 0.95038 0.46233 0.45732 0.0
C158 C 0.937 0.43526 0.4464 0.0
O159 O 0.94521 0.43376 0.42726 0.0
C160 C 0.02171 0.51445 0.40121 0.0
C161 C 0.08678 0.56368 0.46566 0.0
O162 O 0.09271 0.53699 0.46072 0.0
O163 O 0.05891 0.56246 0.46316 0.0
O164 O 0.46868 0.95199 0.76589 0.0
Cd165 Cd 0.46327 0.94538 0.80278 0.0
O166 O 0.49768 0.00403 0.77492 0.0
Cd167 Cd 0.52228 0.0579 0.77125 0.0
O168 O 0.53372 0.11166 0.77899 0.0
C169 C 0.51764 0.11829 0.79312 0.0
O170 O 0.4963 0.09302 0.80148 0.0
C171 C 0.48509 0.98147 0.7608 0.0
C172 C 0.47649 0.89045 0.81611 0.0
O173 O 0.449 0.8873 0.81043 0.0
O174 O 0.49787 0.91963 0.81529 0.0
O175 O 0.56658 0.50812 0.10845 0.0
Cd176 Cd 0.59661 0.50735 0.1401 0.0
O177 O 0.52052 0.50452 0.11984 0.0
Cd178 Cd 0.47168 0.50367 0.11938 0.0
O179 O 0.4224 0.49922 0.12408 0.0
C180 C 0.4119 0.52189 0.11901 0.0
O181 O 0.43066 0.54882 0.11046 0.0
C182 C 0.53893 0.50689 0.10498 0.0
C183 C 0.65732 0.50564 0.13622 0.0
O184 O 0.6336 0.47836 0.13702 0.0
O185 O 0.65246 0.53365 0.13655 0.0
H186 H 0.1474 0.55602 0.13204 0.0
H187 H 0.19983 0.55568 0.12866 0.0
H188 H 0.17293 0.46049 0.1577 0.0
H189 H 0.12014 0.46038 0.16093 0.0
H190 H 0.24261 0.55487 0.15806 0.0
H191 H 0.21279 0.43993 0.10571 0.0
H192 H 0.186 0.46139 0.11096 0.0
H193 H 0.19216 0.43394 0.12927 0.0
C194 C 0.15249 0.53491 0.13772 0.0
C195 C 0.12928 0.50811 0.14668 0.0
C196 C 0.18262 0.53479 0.13578 0.0
C197 C 0.1904 0.5078 0.14259 0.0
C198 C 0.16747 0.48127 0.15189 0.0
H199 H 0.36598 0.4703 0.13699 0.0
H200 H 0.31264 0.46628 0.1437 0.0
C201 C 0.13726 0.48138 0.15387 0.0
C202 C 0.22261 0.5079 0.14015 0.0
H203 H 0.26493 0.4647 0.11722 0.0
C204 C 0.24744 0.53512 0.14913 0.0
C205 C 0.2291 0.4821 0.12858 0.0
C206 C 0.20369 0.4528 0.11791 0.0
C207 C 0.27834 0.53723 0.14691 0.0
C208 C 0.28489 0.51179 0.13501 0.0
C209 C 0.26005 0.48424 0.12633 0.0
C210 C 0.31734 0.51397 0.13084 0.0
C211 C 0.30368 0.56656 0.15762 0.0
C212 C 0.33777 0.54175 0.12103 0.0
C213 C 0.36823 0.54412 0.11719 0.0
C214 C 0.37915 0.51864 0.12292 0.0
C215 C 0.35851 0.49048 0.13243 0.0
C216 C 0.32794 0.48813 0.13626 0.0
H217 H 0.29474 0.57769 0.17078 0.0
H218 H 0.32259 0.55866 0.16329 0.0
H219 H 0.31352 0.58668 0.14666 0.0
H220 H 0.3301 0.56165 0.1162 0.0
H221 H 0.38324 0.56607 0.1097 0.0
H222 H 0.72243 0.16608 0.51057 0.0
H223 H 0.76928 0.21667 0.50936 0.0
H224 H 0.72611 0.25478 0.46269 0.0
H225 H 0.67916 0.20465 0.46409 0.0
H226 H 0.80667 0.2372 0.47823 0.0
H227 H 0.76097 0.33763 0.5006 0.0
H228 H 0.73942 0.29341 0.50395 0.0
H229 H 0.73909 0.31117 0.47948 0.0
C230 C 0.7229 0.18539 0.50016 0.0
C231 C 0.6971 0.18147 0.48747 0.0
C232 C 0.74961 0.21433 0.49954 0.0
C233 C 0.75105 0.23986 0.48621 0.0
C234 C 0.72526 0.23598 0.47356 0.0
H235 H 0.90414 0.37528 0.42616 0.0
H236 H 0.86103 0.32842 0.43857 0.0
C237 C 0.69847 0.20722 0.4743 0.0
C238 C 0.7802 0.2693 0.48436 0.0
H239 H 0.80911 0.35545 0.48261 0.0
C240 C 0.80728 0.26307 0.4795 0.0
C241 C 0.78126 0.30315 0.4864 0.0
C242 C 0.75368 0.31177 0.49312 0.0
C243 C 0.83489 0.2896 0.47556 0.0
C244 C 0.83525 0.32319 0.47602 0.0
C245 C 0.80869 0.32964 0.48197 0.0
C246 C 0.86221 0.35155 0.46899 0.0
C247 C 0.86333 0.2813 0.47078 0.0
C248 C 0.87682 0.3806 0.48181 0.0
C249 C 0.90149 0.40775 0.47467 0.0
C250 C 0.91175 0.40634 0.45453 0.0
C251 C 0.89701 0.37718 0.44179 0.0
C252 C 0.87244 0.35019 0.44891 0.0
H253 H 0.86231 0.25743 0.47765 0.0
H254 H 0.86478 0.27774 0.45392 0.0
H255 H 0.88472 0.30199 0.47649 0.0
H256 H 0.86911 0.38227 0.49732 0.0
H257 H 0.91227 0.42991 0.48484 0.0
H258 H 0.46262 0.59869 0.84971 0.0
H259 H 0.46237 0.65585 0.8471 0.0
H260 H 0.5576 0.69756 0.86809 0.0
H261 H 0.55824 0.6402 0.87073 0.0
H262 H 0.47848 0.71267 0.87833 0.0
H263 H 0.55432 0.73689 0.81042 0.0
H264 H 0.53397 0.69464 0.8185 0.0
H265 H 0.56727 0.7222 0.83286 0.0
C266 C 0.48352 0.61994 0.85393 0.0
C267 C 0.51056 0.61486 0.86027 0.0
C268 C 0.48326 0.65258 0.85249 0.0
C269 C 0.51004 0.68078 0.85719 0.0
C270 C 0.5368 0.67599 0.86421 0.0
H271 H 0.53234 0.88873 0.82889 0.0
H272 H 0.54302 0.84018 0.84128 0.0
C273 C 0.53705 0.64323 0.8658 0.0
C274 C 0.50991 0.71499 0.8538 0.0
H275 H 0.53377 0.77839 0.82047 0.0
C276 C 0.49084 0.7273 0.86585 0.0
C277 C 0.52619 0.73393 0.83755 0.0
C278 C 0.54651 0.72135 0.82394 0.0
C279 C 0.48699 0.7578 0.86175 0.0
C280 C 0.50206 0.77593 0.84486 0.0
C281 C 0.52217 0.76433 0.83335 0.0
C282 C 0.4956 0.80563 0.83801 0.0
C283 C 0.46659 0.77015 0.87541 0.0
C284 C 0.46551 0.80208 0.83178 0.0
C285 C 0.45933 0.82965 0.82469 0.0
C286 C 0.4832 0.86128 0.82355 0.0
C287 C 0.51342 0.86471 0.82964 0.0
C288 C 0.51958 0.83705 0.83673 0.0
H289 H 0.46484 0.75977 0.89084 0.0
H290 H 0.47544 0.79823 0.87719 0.0
H291 H 0.44294 0.76155 0.86847 0.0
H292 H 0.44681 0.77782 0.83217 0.0
H293 H 0.43584 0.8261 0.82002 0.0
H294 H 0.91908 0.45891 0.15577 0.0
H295 H 0.86568 0.45705 0.15327 0.0
H296 H 0.89772 0.55598 0.12858 0.0
H297 H 0.95094 0.55754 0.13041 0.0
H298 H 0.83681 0.49493 0.17082 0.0
H299 H 0.83153 0.50676 0.08706 0.0
H300 H 0.86304 0.49896 0.09948 0.0
H301 H 0.8625 0.54129 0.0993 0.0
C302 C 0.91479 0.48022 0.14968 0.0
C303 C 0.93945 0.50825 0.14311 0.0
C304 C 0.88415 0.47913 0.14827 0.0
C305 C 0.87732 0.50604 0.14029 0.0
C306 C 0.90202 0.53436 0.13417 0.0
H307 H 0.71183 0.55835 0.13067 0.0
H308 H 0.76455 0.55756 0.13151 0.0
C309 C 0.93261 0.53534 0.13538 0.0
C310 C 0.84459 0.50489 0.13891 0.0
H311 H 0.79037 0.51418 0.1062 0.0
C312 C 0.82665 0.49886 0.15662 0.0
C313 C 0.831 0.50992 0.12041 0.0
C314 C 0.8479 0.51424 0.10045 0.0
C315 C 0.79607 0.49852 0.15645 0.0
C316 C 0.78281 0.5042 0.13806 0.0
C317 C 0.80057 0.51004 0.12033 0.0
C318 C 0.75057 0.50427 0.13699 0.0
C319 C 0.77832 0.49279 0.17606 0.0
C320 C 0.72501 0.47446 0.13942 0.0
C321 C 0.69477 0.47475 0.13876 0.0
C322 C 0.68937 0.50494 0.13576 0.0
C323 C 0.71504 0.53466 0.13305 0.0
C324 C 0.74525 0.53427 0.13352 0.0
H325 H 0.7936 0.49525 0.18968 0.0
H326 H 0.76619 0.51107 0.17821 0.0
H327 H 0.76058 0.4669 0.17523 0.0
H328 H 0.72845 0.45091 0.14185 0.0
H329 H 0.67565 0.45138 0.1409 0.0
H330 H 0.27236 0.86192 0.5282 0.0
H331 H 0.23004 0.80809 0.52047 0.0
H332 H 0.29504 0.76424 0.49711 0.0
H333 H 0.33748 0.81818 0.50421 0.0
H334 H 0.21558 0.77232 0.47982 0.0
H335 H 0.24218 0.6967 0.53946 0.0
H336 H 0.2565 0.74245 0.54115 0.0
H337 H 0.27401 0.72032 0.52412 0.0
C338 C 0.27772 0.84094 0.5213 0.0
C339 C 0.30842 0.8445 0.51682 0.0
C340 C 0.2535 0.81013 0.51703 0.0
C341 C 0.25949 0.78216 0.50844 0.0
C342 C 0.29003 0.78542 0.50408 0.0
H343 H 0.14895 0.57642 0.46806 0.0
H344 H 0.19013 0.62969 0.4788 0.0
C345 C 0.31427 0.81627 0.50821 0.0
C346 C 0.23366 0.74997 0.50323 0.0
H347 H 0.20269 0.66707 0.51505 0.0
C348 C 0.21259 0.74931 0.48757 0.0
C349 C 0.23005 0.72006 0.51331 0.0
C350 C 0.2517 0.71974 0.53057 0.0
C351 C 0.18829 0.71927 0.48139 0.0
C352 C 0.1845 0.68929 0.49156 0.0
C353 C 0.20555 0.69006 0.50731 0.0
C354 C 0.15924 0.65673 0.48577 0.0
C355 C 0.16754 0.71974 0.4636 0.0
C356 C 0.12813 0.65399 0.48654 0.0
C357 C 0.10453 0.62364 0.48025 0.0
C358 C 0.11159 0.59529 0.47335 0.0
C359 C 0.14271 0.59779 0.47325 0.0
C360 C 0.16629 0.62822 0.47939 0.0
H361 H 0.17859 0.74167 0.45404 0.0
H362 H 0.16141 0.69611 0.45369 0.0
H363 H 0.14586 0.72185 0.46957 0.0
H364 H 0.12208 0.67539 0.49192 0.0
H365 H 0.08079 0.62247 0.4807 0.0
H366 H 0.56623 0.42923 0.85991 0.0
H367 H 0.5722 0.37529 0.85045 0.0
H368 H 0.48119 0.33838 0.82199 0.0
H369 H 0.47514 0.39219 0.83102 0.0
H370 H 0.53802 0.31018 0.86011 0.0
H371 H 0.53464 0.32254 0.77626 0.0
H372 H 0.5397 0.35764 0.79449 0.0
H373 H 0.50169 0.32711 0.78858 0.0
C374 C 0.54742 0.40963 0.8517 0.0
C375 C 0.5203 0.4152 0.84608 0.0
C376 C 0.55092 0.37885 0.84627 0.0
C377 C 0.52742 0.35317 0.83512 0.0
C378 C 0.49995 0.35823 0.83011 0.0
H379 H 0.48437 0.13992 0.82112 0.0
H380 H 0.49078 0.19806 0.83174 0.0
C381 C 0.49647 0.38897 0.83542 0.0
C382 C 0.53124 0.32081 0.82892 0.0
H383 H 0.52696 0.26706 0.78742 0.0
C384 C 0.53596 0.30088 0.84421 0.0
C385 C 0.52923 0.30907 0.80812 0.0
C386 C 0.52637 0.33037 0.7909 0.0
C387 C 0.53721 0.26875 0.83932 0.0
C388 C 0.53299 0.25604 0.81865 0.0
C389 C 0.52979 0.27666 0.80328 0.0
C390 C 0.53018 0.22083 0.81273 0.0
C391 C 0.54292 0.24871 0.85634 0.0
C392 C 0.54971 0.21429 0.79808 0.0
C393 C 0.54587 0.18096 0.79175 0.0
C394 C 0.52233 0.15364 0.79994 0.0
C395 C 0.50286 0.16034 0.81461 0.0
C396 C 0.50665 0.1936 0.82084 0.0
H397 H 0.55547 0.26559 0.86958 0.0
H398 H 0.5204 0.23161 0.86184 0.0
H399 H 0.5565 0.23305 0.85098 0.0
H400 H 0.56785 0.23499 0.79149 0.0
H401 H 0.56122 0.17662 0.7804 0.0
H402 H 0.45551 0.89507 0.52151 0.0
H403 H 0.45745 0.83894 0.52573 0.0
H404 H 0.55088 0.87262 0.50412 0.0
H405 H 0.54945 0.92924 0.50014 0.0
H406 H 0.46875 0.79169 0.49846 0.0
H407 H 0.55876 0.83811 0.56063 0.0
H408 H 0.53791 0.86362 0.55149 0.0
H409 H 0.5688 0.85843 0.53683 0.0
C410 C 0.47649 0.89065 0.51754 0.0
C411 C 0.50247 0.9169 0.5107 0.0
C412 C 0.47749 0.85843 0.51991 0.0
C413 C 0.50446 0.85175 0.51554 0.0
C414 C 0.53003 0.87743 0.50794 0.0
H415 H 0.51186 0.64668 0.52117 0.0
H416 H 0.51416 0.70104 0.50827 0.0
C417 C 0.5291 0.90976 0.5056 0.0
C418 C 0.506 0.81829 0.51985 0.0
H419 H 0.5412 0.77991 0.55117 0.0
C420 C 0.48475 0.78906 0.50984 0.0
C421 C 0.52672 0.81498 0.53487 0.0
C422 C 0.5492 0.84536 0.54673 0.0
C423 C 0.48334 0.75655 0.51471 0.0
C424 C 0.50394 0.7533 0.52981 0.0
C425 C 0.52557 0.78254 0.5395 0.0
C426 C 0.50189 0.71992 0.53705 0.0
C427 C 0.45903 0.72596 0.50428 0.0
C428 C 0.49454 0.71269 0.5575 0.0
C429 C 0.49333 0.68189 0.5649 0.0
C430 C 0.49959 0.65762 0.55202 0.0
C431 C 0.5068 0.66478 0.53146 0.0
C432 C 0.508 0.69575 0.52404 0.0
H433 H 0.44136 0.73278 0.49585 0.0
H434 H 0.47025 0.71365 0.49314 0.0
H435 H 0.44721 0.7072 0.51565 0.0
H436 H 0.48977 0.73099 0.5678 0.0
H437 H 0.48771 0.67728 0.58081 0.0
H438 H 0.69949 0.47187 0.8777 0.0
H439 H 0.74603 0.46404 0.86451 0.0
H440 H 0.77818 0.56559 0.84352 0.0
H441 H 0.73176 0.57367 0.85677 0.0
H442 H 0.76832 0.46881 0.82425 0.0
H443 H 0.85074 0.56375 0.87879 0.0
H444 H 0.80952 0.54794 0.88243 0.0
H445 H 0.82624 0.57933 0.86411 0.0
C446 C 0.71649 0.49251 0.87027 0.0
C447 C 0.71216 0.52348 0.86842 0.0
C448 C 0.743 0.488 0.86273 0.0
C449 C 0.76561 0.51435 0.85323 0.0
C450 C 0.76123 0.54518 0.85115 0.0
H451 H 0.95028 0.52679 0.8187 0.0
H452 H 0.90134 0.53653 0.81791 0.0
C453 C 0.7348 0.54978 0.85879 0.0
C454 C 0.79392 0.50954 0.84575 0.0
H455 H 0.87194 0.53678 0.85401 0.0
C456 C 0.79104 0.48377 0.83064 0.0
C457 C 0.82347 0.52922 0.85408 0.0
C458 C 0.82782 0.55644 0.87087 0.0
C459 C 0.81699 0.47686 0.82382 0.0
C460 C 0.8464 0.49595 0.83256 0.0
C461 C 0.84935 0.52235 0.84722 0.0
C462 C 0.87412 0.48725 0.82837 0.0
C463 C 0.81267 0.44912 0.80742 0.0
C464 C 0.87478 0.45584 0.83378 0.0
C465 C 0.90267 0.45014 0.83421 0.0
C466 C 0.93044 0.47595 0.82949 0.0
C467 C 0.92932 0.50645 0.82256 0.0
C468 C 0.90139 0.51209 0.82209 0.0
H469 H 0.79161 0.44481 0.79781 0.0
H470 H 0.83299 0.45515 0.79736 0.0
H471 H 0.80987 0.42516 0.81479 0.0
H472 H 0.85413 0.43654 0.83904 0.0
H473 H 0.90271 0.42634 0.83957 0.0
H474 H 0.18368 0.74618 0.11879 0.0
H475 H 0.2335 0.79188 0.12527 0.0
H476 H 0.26279 0.72773 0.1632 0.0
H477 H 0.21386 0.68137 0.15589 0.0
H478 H 0.25674 0.82386 0.16075 0.0
H479 H 0.33791 0.76595 0.12922 0.0
H480 H 0.29678 0.74778 0.12398 0.0
H481 H 0.31296 0.73963 0.14741 0.0
C482 C 0.20099 0.74147 0.1281 0.0
C483 C 0.19467 0.70998 0.1368 0.0
C484 C 0.22941 0.76775 0.13191 0.0
C485 C 0.25213 0.76313 0.14446 0.0
C486 C 0.24598 0.7317 0.15305 0.0
H487 H 0.39002 0.90496 0.22242 0.0
H488 H 0.34384 0.86473 0.20524 0.0
C489 C 0.21771 0.70534 0.14913 0.0
C490 C 0.28128 0.79182 0.14988 0.0
H491 H 0.35969 0.81349 0.15361 0.0
C492 C 0.27927 0.82175 0.15889 0.0
C493 C 0.31078 0.78942 0.14714 0.0
C494 C 0.31478 0.75908 0.1362 0.0
C495 C 0.30575 0.84857 0.16618 0.0
C496 C 0.33498 0.84508 0.16486 0.0
C497 C 0.33722 0.81595 0.15488 0.0
C498 C 0.3631 0.87032 0.17494 0.0
C499 C 0.30209 0.8803 0.17537 0.0
C500 C 0.38968 0.88626 0.1637 0.0
C501 C 0.41641 0.90921 0.17355 0.0
C502 C 0.41701 0.91639 0.19484 0.0
C503 C 0.39035 0.90024 0.20599 0.0
C504 C 0.36378 0.87736 0.19617 0.0
H505 H 0.281 0.88359 0.16917 0.0
H506 H 0.29969 0.87839 0.1922 0.0
H507 H 0.32246 0.90315 0.17238 0.0
H508 H 0.38972 0.88094 0.14732 0.0
H509 H 0.4366 0.92113 0.16454 0.0
H510 H 0.54604 0.1438 0.50476 0.0
H511 H 0.54722 0.20194 0.50887 0.0
H512 H 0.45637 0.16602 0.53469 0.0
H513 H 0.45525 0.10787 0.53111 0.0
H514 H 0.50975 0.23175 0.49272 0.0
H515 H 0.50419 0.23787 0.57751 0.0
H516 H 0.51172 0.20407 0.56335 0.0
H517 H 0.47279 0.2035 0.56548 0.0
C518 C 0.52631 0.14821 0.51139 0.0
C519 C 0.50063 0.12113 0.51775 0.0
C520 C 0.52704 0.1815 0.51371 0.0
C521 C 0.50213 0.18842 0.52242 0.0
C522 C 0.4762 0.1614 0.52842 0.0
H523 H 0.46081 0.37138 0.54578 0.0
H524 H 0.45829 0.31296 0.53951 0.0
C525 C 0.47554 0.12811 0.52625 0.0
C526 C 0.50312 0.22387 0.52494 0.0
H527 H 0.49822 0.2836 0.56047 0.0
C528 C 0.50738 0.24314 0.50755 0.0
C529 C 0.50011 0.23875 0.54432 0.0
C530 C 0.49725 0.22012 0.56376 0.0
C531 C 0.50819 0.27668 0.50896 0.0
C532 C 0.50484 0.29133 0.52828 0.0
C533 C 0.50059 0.27214 0.54566 0.0
C534 C 0.50609 0.32675 0.53088 0.0
C535 C 0.51216 0.29608 0.48977 0.0
C536 C 0.53382 0.35381 0.52809 0.0
C537 C 0.53541 0.38724 0.53176 0.0
C538 C 0.50924 0.39417 0.53826 0.0
C539 C 0.48136 0.36695 0.54072 0.0
C540 C 0.47987 0.33355 0.53718 0.0
H541 H 0.50819 0.27918 0.47567 0.0
H542 H 0.49599 0.31014 0.48946 0.0
H543 H 0.53608 0.31484 0.48958 0.0
H544 H 0.55442 0.34905 0.52349 0.0
H545 H 0.55725 0.4076 0.52977 0.0
H546 H 0.29779 0.49042 0.79828 0.0
H547 H 0.25631 0.5131 0.7959 0.0
H548 H 0.31742 0.60979 0.82155 0.0
H549 H 0.35931 0.58743 0.82374 0.0
H550 H 0.26235 0.58333 0.84197 0.0
H551 H 0.23943 0.57994 0.75857 0.0
H552 H 0.24099 0.54073 0.76681 0.0
H553 H 0.27508 0.57843 0.7691 0.0
C554 C 0.30266 0.51674 0.80296 0.0
C555 C 0.33181 0.53709 0.81126 0.0
C556 C 0.27895 0.5297 0.80152 0.0
C557 C 0.28398 0.56327 0.80824 0.0
C558 C 0.3132 0.58389 0.81614 0.0
H559 H 0.13136 0.63447 0.83794 0.0
H560 H 0.18398 0.63917 0.82882 0.0
C561 C 0.33698 0.57097 0.81755 0.0
C562 C 0.25769 0.57531 0.80917 0.0
H563 H 0.19777 0.58031 0.78057 0.0
C564 C 0.24856 0.58349 0.82853 0.0
C565 C 0.23988 0.57547 0.79157 0.0
C566 C 0.24951 0.5685 0.77031 0.0
C567 C 0.22083 0.58941 0.83096 0.0
C568 C 0.20214 0.58783 0.81344 0.0
C569 C 0.21217 0.58154 0.79394 0.0
C570 C 0.1704 0.58806 0.81543 0.0
C571 C 0.21076 0.59493 0.85237 0.0
C572 C 0.1453 0.55852 0.80979 0.0
C573 C 0.11531 0.55586 0.81478 0.0
C574 C 0.1099 0.58272 0.82554 0.0
C575 C 0.13484 0.61323 0.82982 0.0
C576 C 0.16491 0.61592 0.82471 0.0
H577 H 0.22528 0.58951 0.86431 0.0
H578 H 0.21263 0.6217 0.85488 0.0
H579 H 0.18628 0.57859 0.85448 0.0
H580 H 0.14906 0.53678 0.80254 0.0
H581 H 0.09659 0.5321 0.81111 0.0
H582 H 0.84768 0.35423 0.17196 0.0
H583 H 0.79543 0.31373 0.17651 0.0
H584 H 0.83312 0.23796 0.1917 0.0
H585 H 0.88538 0.27869 0.18834 0.0
H586 H 0.76474 0.25341 0.15642 0.0
H587 H 0.77637 0.23357 0.23879 0.0
H588 H 0.80447 0.26749 0.22594 0.0
H589 H 0.80536 0.22529 0.22365 0.0
C590 C 0.84493 0.32915 0.17664 0.0
C591 C 0.87087 0.31988 0.1799 0.0
C592 C 0.81499 0.30592 0.17905 0.0
C593 C 0.81035 0.27297 0.18479 0.0
C594 C 0.83612 0.26346 0.18773 0.0
H595 H 0.65273 0.09022 0.20066 0.0
H596 H 0.70386 0.13274 0.19546 0.0
C597 C 0.86604 0.28671 0.18549 0.0
C598 C 0.77856 0.24827 0.18724 0.0
H599 H 0.73199 0.19459 0.22085 0.0
C600 C 0.7575 0.24075 0.17056 0.0
C601 C 0.76909 0.23182 0.20573 0.0
C602 C 0.7899 0.24018 0.22461 0.0
C603 C 0.72751 0.2166 0.1717 0.0
C604 C 0.71833 0.19974 0.19004 0.0
C605 C 0.73923 0.20744 0.20677 0.0
C606 C 0.68713 0.17391 0.19223 0.0
C607 C 0.70607 0.20873 0.15317 0.0
C608 C 0.66082 0.18305 0.19217 0.0
C609 C 0.63156 0.15884 0.19521 0.0
C610 C 0.62812 0.12506 0.19838 0.0
C611 C 0.65454 0.11597 0.19822 0.0
C612 C 0.68378 0.14023 0.19527 0.0
H613 H 0.71861 0.2187 0.13905 0.0
H614 H 0.69384 0.18097 0.15069 0.0
H615 H 0.68838 0.22051 0.15573 0.0
H616 H 0.66299 0.20904 0.19015 0.0
H617 H 0.6117 0.1667 0.19532 0.0
H618 H 0.05249 0.44675 0.08397 0.0
H619 H 0.05937 0.4563 0.04733 0.0
H620 H 0.02533 0.53864 0.05439 0.0
H621 H 0.01847 0.52929 0.09103 0.0
H622 H 0.01157 0.45388 0.01884 0.0
H623 H 0.10697 0.57916 0.02315 0.0
H624 H 0.09778 0.55155 0.0443 0.0
H625 H 0.07453 0.57639 0.03891 0.0
C626 C 0.04663 0.46698 0.0777 0.0
C627 C 0.03492 0.48727 0.09026 0.0
C628 C 0.05061 0.47242 0.05683 0.0
C629 C 0.04325 0.49844 0.04827 0.0
C630 C 0.03167 0.51883 0.06081 0.0
H631 H 0.0309 0.56646 0.92793 0.0
H632 H 0.03419 0.55964 0.96466 0.0
C633 C 0.02757 0.51332 0.08167 0.0
C634 C 0.04604 0.50306 0.026 0.0
H635 H 0.08217 0.55982 0.99056 0.0
C636 C 0.0272 0.47688 0.0126 0.0
C637 C 0.06637 0.53319 0.01803 0.0
C638 C 0.08779 0.56162 0.0318 0.0
C639 C 0.02744 0.48039 0.99137 0.0
C640 C 0.04765 0.51061 0.98336 0.0
C641 C 0.06679 0.53666 0.99677 0.0
C642 C 0.04824 0.51613 0.96115 0.0
C643 C 1.00525 0.4522 0.9778 0.0
C644 C 0.05594 0.49451 0.94703 0.0
C645 C 0.05389 0.49818 0.92599 0.0
C646 C 0.04441 0.52378 0.91873 0.0
C647 C 0.03814 0.54638 0.93298 0.0
C648 C 0.04004 0.54256 0.95399 0.0
H649 H 0.98633 0.43474 0.98668 0.0
H650 H 0.99482 0.4625 0.96566 0.0
H651 H 0.01798 0.4372 0.97026 0.0
H652 H 0.063 0.47442 0.95228 0.0
H653 H 0.05918 0.48056 0.91544 0.0
H654 H 0.52421 0.99827 0.45562 0.0
H655 H 0.53674 0.00378 0.41926 0.0
H656 H 0.46574 0.04599 0.41015 0.0
H657 H 0.45281 0.04003 0.44639 0.0
H658 H 0.4616 0.99475 0.38214 0.0
H659 H 0.58202 0.08699 0.38749 0.0
H660 H 0.57568 0.05068 0.40239 0.0
H661 H 0.55623 0.07966 0.40884 0.0
C662 C 0.51152 0.00904 0.44588 0.0
C663 C 0.48754 0.01872 0.45376 0.0
C664 C 0.51884 0.01239 0.42516 0.0
C665 C 0.50246 0.02574 0.41207 0.0
C666 C 0.47876 0.03578 0.42002 0.0
H667 H 0.53988 0.07927 0.28544 0.0
H668 H 0.53491 0.08039 0.32275 0.0
C669 C 0.47138 0.03235 0.44069 0.0
C670 C 0.50847 0.02709 0.38981 0.0
H671 H 0.56439 0.05931 0.35468 0.0
C672 C 0.48405 0.009 0.37614 0.0
C673 C 0.53769 0.04596 0.38201 0.0
C674 C 0.56435 0.0672 0.39592 0.0
C675 C 0.48811 0.00882 0.3549 0.0
C676 C 0.51759 0.02669 0.34712 0.0
C677 C 0.54192 0.04532 0.36073 0.0
C678 C 0.5233 0.02644 0.32484 0.0
C679 C 0.46064 0.98989 0.34096 0.0
C680 C 0.51933 0.99589 0.31378 0.0
C681 C 0.522 0.99511 0.2925 0.0
C682 C 0.52896 0.02496 0.28188 0.0
C683 C 0.53437 0.05581 0.29313 0.0
C684 C 0.53158 0.05652 0.31445 0.0
H685 H 0.43842 0.98514 0.34889 0.0
H686 H 0.46057 0.00411 0.32713 0.0
H687 H 0.46187 0.96501 0.33589 0.0
H688 H 0.51356 0.9725 0.32158 0.0
H689 H 0.51799 0.97096 0.28436 0.0
H690 H 0.50376 0.53499 0.80007 0.0
H691 H 0.49899 0.53074 0.76255 0.0
H692 H 0.58245 0.50778 0.75903 0.0
H693 H 0.58649 0.51072 0.79668 0.0
H694 H 0.56907 0.56976 0.73489 0.0
H695 H 0.48996 0.4354 0.72268 0.0
H696 H 0.48457 0.46079 0.74431 0.0
H697 H 0.51804 0.44893 0.74364 0.0
C698 C 0.52025 0.52767 0.7913 0.0
C699 C 0.54471 0.52188 0.80118 0.0
C700 C 0.51788 0.52585 0.76992 0.0
C701 C 0.54016 0.51852 0.75815 0.0
C702 C 0.5649 0.51315 0.76795 0.0
H703 H 0.53917 0.48133 0.62564 0.0
H704 H 0.54596 0.48004 0.66274 0.0
C705 C 0.5672 0.51489 0.78936 0.0
C706 C 0.53822 0.51799 0.73559 0.0
H707 H 0.50277 0.46802 0.69353 0.0
C708 C 0.55472 0.54754 0.72578 0.0
C709 C 0.51966 0.48883 0.72391 0.0
C710 C 0.502 0.4565 0.73402 0.0
C711 C 0.55277 0.54887 0.70442 0.0
C712 C 0.53339 0.52 0.6927 0.0
C713 C 0.51745 0.49017 0.70255 0.0
C714 C 0.52894 0.52051 0.67026 0.0
C715 C 0.57165 0.58111 0.6946 0.0
C716 C 0.51661 0.54328 0.66224 0.0
C717 C 0.51285 0.54422 0.64109 0.0
C718 C 0.52102 0.52211 0.62752 0.0
C719 C 0.53272 0.49877 0.63564 0.0
C720 C 0.53661 0.49797 0.65683 0.0
H721 H 0.59148 0.59692 0.70464 0.0
H722 H 0.58063 0.57559 0.67965 0.0
H723 H 0.55681 0.59617 0.69188 0.0
H724 H 0.50982 0.56032 0.67235 0.0
H725 H 0.50347 0.56227 0.63539 0.0
H726 H 0.57049 0.05345 0.57828 0.0
H727 H 0.56043 0.04635 0.61489 0.0
H728 H 0.46228 0.01034 0.60192 0.0
H729 H 0.47223 0.01802 0.56526 0.0
H730 H 0.51367 0.07353 0.64121 0.0
H731 H 0.49007 0.93472 0.63341 0.0
H732 H 0.51511 0.96365 0.61606 0.0
H733 H 0.4742 0.95411 0.61454 0.0
C734 C 0.54677 0.04431 0.58326 0.0
C735 C 0.52207 0.03581 0.56896 0.0
C736 C 0.54109 0.04031 0.60413 0.0
C737 C 0.51066 0.02762 0.61097 0.0
C738 C 0.48592 0.01999 0.59682 0.0
H739 H 0.44299 0.95299 0.72981 0.0
H740 H 0.4478 0.96576 0.69357 0.0
C741 C 0.49161 0.02422 0.57594 0.0
C742 C 0.50489 0.02111 0.63284 0.0
H743 H 0.48815 0.95824 0.66646 0.0
C744 C 0.50796 0.04836 0.6468 0.0
C745 C 0.49731 0.98821 0.6399 0.0
C746 C 0.494 0.95833 0.62531 0.0
C747 C 0.5036 0.04351 0.66785 0.0
C748 C 0.49685 0.01067 0.67506 0.0
C749 C 0.49339 0.98339 0.66094 0.0
C750 C 0.49363 0.004 0.69718 0.0
C751 C 0.50578 0.07351 0.68205 0.0
C752 C 0.51794 0.02091 0.71123 0.0
C753 C 0.51512 0.01384 0.73196 0.0
C754 C 0.48809 0.98944 0.73897 0.0
C755 C 0.46404 0.97205 0.72484 0.0
C756 C 0.46674 0.97935 0.70415 0.0
H757 H 0.50148 0.09371 0.67369 0.0
H758 H 0.48898 0.06599 0.6946 0.0
H759 H 0.52943 0.08439 0.68899 0.0
H760 H 0.53934 0.03914 0.70611 0.0
H761 H 0.53447 0.02675 0.74236 0.0
H762 H 0.43667 0.47481 0.91654 0.0
H763 H 0.44283 0.47746 0.95395 0.0
H764 H 0.53954 0.53787 0.94912 0.0
H765 H 0.5332 0.53605 0.91177 0.0
H766 H 0.48078 0.45462 0.97706 0.0
H767 H 0.51087 0.59279 0.9919 0.0
H768 H 0.49449 0.57126 0.96771 0.0
H769 H 0.53507 0.58234 0.97343 0.0
C770 C 0.45919 0.4888 0.9235 0.0
C771 C 0.48457 0.50496 0.9113 0.0
C772 C 0.46268 0.49026 0.94484 0.0
C773 C 0.49155 0.50819 0.95436 0.0
C774 C 0.51693 0.52438 0.94216 0.0
H775 H 0.57581 0.537 0.07403 0.0
H776 H 0.56153 0.53717 0.03804 0.0
C777 C 0.51342 0.52294 0.92081 0.0
C778 C 0.49536 0.50892 0.97699 0.0
H779 H 0.51952 0.56227 0.01963 0.0
C780 C 0.48892 0.47811 0.98642 0.0
C781 C 0.5059 0.5396 0.98917 0.0
C782 C 0.51171 0.57336 0.98009 0.0
C783 C 0.49388 0.47723 0.00759 0.0
C784 C 0.5051 0.50798 0.01969 0.0
C785 C 0.51091 0.53873 0.01032 0.0
C786 C 0.51289 0.5089 0.04183 0.0
C787 C 0.48823 0.44351 0.01669 0.0
C788 C 0.49017 0.49339 0.05603 0.0
C789 C 0.49829 0.49318 0.07671 0.0
C790 C 0.52925 0.5087 0.08353 0.0
C791 C 0.55175 0.52476 0.06929 0.0
C792 C 0.54364 0.525 0.04871 0.0
H793 H 0.48587 0.42314 0.00471 0.0
H794 H 0.50738 0.44508 0.02747 0.0
H795 H 0.46651 0.43625 0.02538 0.0
H796 H 0.46622 0.4811 0.05108 0.0
H797 H 0.48053 0.47986 0.08712 0.0
H798 H 0.0622 0.49818 0.20538 0.0
H799 H 0.05982 0.49309 0.2427 0.0
H800 H 0.01171 0.5635 0.24765 0.0
H801 H 0.01425 0.56899 0.21048 0.0
H802 H 0.08247 0.55611 0.27445 0.0
H803 H 0.95892 0.47172 0.27738 0.0
H804 H 0.98193 0.47282 0.25496 0.0
H805 H 0.96846 0.5069 0.26102 0.0
C806 C 0.05109 0.51251 0.21445 0.0
C807 C 0.03846 0.53404 0.20511 0.0
C808 C 0.04978 0.5096 0.2357 0.0
C809 C 0.03549 0.52784 0.2478 0.0
C810 C 0.02269 0.54913 0.23848 0.0
H811 H 0.9896 0.53929 0.37514 0.0
H812 H 0.99468 0.54337 0.33806 0.0
C813 C 0.02421 0.55227 0.2173 0.0
C814 C 0.03437 0.52524 0.27026 0.0
H815 H 0.98514 0.49309 0.30898 0.0
C816 C 0.0613 0.54218 0.28207 0.0
C817 C 1.00662 0.50729 0.27999 0.0
C818 C 0.97726 0.48842 0.26778 0.0
C819 C 0.06106 0.54227 0.30357 0.0
C820 C 0.03327 0.52416 0.31339 0.0
C821 C 1.00641 0.50697 0.30146 0.0
C822 C 0.03136 0.52294 0.33602 0.0
C823 C 0.09028 0.56265 0.31554 0.0
C824 C 0.05028 0.51008 0.34721 0.0
C825 C 0.04767 0.50806 0.36846 0.0
C826 C 0.02571 0.51834 0.37888 0.0
C827 C 1.00676 0.53117 0.36761 0.0
C828 C 0.00959 0.53346 0.3464 0.0
H829 H 0.10638 0.58245 0.30625 0.0
H830 H 0.08506 0.57505 0.32968 0.0
H831 H 0.10236 0.54555 0.32004 0.0
H832 H 0.0667 0.50102 0.33949 0.0
H833 H 0.0624 0.49774 0.37664 0.0
loop_
_geom_bond_atom_site_label_1
_geom_bond_atom_site_label_2
_geom_bond_distance
_geom_bond_site_symmetry_2
_ccdc_geom_bond_type
Nd0 C2 2.836 . S
Nd0 O20 2.500 . S
Nd0 O21 2.492 . S
Nd0 O22 2.487 . S
Nd0 O23 2.682 . S
Nd0 O24 2.410 . S
Nd0 O29 2.414 . S
Nd0 O31 2.424 1_455 S
Nd1 C11 2.836 . S
Nd1 O23 2.414 1_655 S
Nd1 O25 2.424 1_655 S
Nd1 O26 2.500 . S
Nd1 O27 2.492 . S
Nd1 O28 2.488 1_655 S
Nd1 O29 2.682 1_655 S
Nd1 O30 2.410 . S
C2 Nd0 2.836 . S
C2 C3 1.498 . S
C2 O20 1.258 . S
C2 O21 1.239 . S
C3 C2 1.498 . S
C3 C4 1.366 . S
C3 C8 1.407 . S
C4 C3 1.366 . S
C4 C5 1.392 . S
C4 H32 0.930 . S
C5 C4 1.392 . S
C5 C6 1.398 . S
C5 H33 0.929 . S
C6 C5 1.398 . S
C6 C7 1.352 . S
C7 C6 1.352 . S
C7 C8 1.384 . S
C7 H34 0.930 . S
C8 C3 1.407 . S
C8 C7 1.384 . S
C8 H35 0.929 . S
C9 O22 1.241 . S
C9 O23 1.273 . S
C10 O24 1.251 . S
C10 O25 1.268 . S
C11 Nd1 2.836 . S
C11 C12 1.498 . S
C11 O26 1.258 . S
C11 O27 1.239 . S
C12 C11 1.498 . S
C12 C13 1.366 . S
C12 C17 1.407 . S
C13 C12 1.366 . S
C13 C14 1.392 . S
C13 H36 0.930 . S
C14 C13 1.392 . S
C14 C15 1.398 . S
C14 H37 0.929 . S
C15 C14 1.398 . S
C15 C16 1.352 . S
C16 C15 1.352 . S
C16 C17 1.384 . S
C16 H38 0.930 . S
C17 C12 1.407 . S
C17 C16 1.384 . S
C17 H39 0.929 . S
C18 O28 1.252 . S
C18 O29 1.273 . S
C19 O30 1.251 . S
C19 O31 1.268 . S
O20 Nd0 2.500 . S
O20 C2 1.258 . S
O21 Nd0 2.492 . S
O21 C2 1.239 . S
O22 Nd0 2.487 . S
O22 C9 1.241 . S
O23 Nd0 2.682 . S
O23 Nd1 2.414 1_455 S
O23 C9 1.273 . S
O24 Nd0 2.410 . S
O24 C10 1.251 . S
O25 Nd1 2.424 1_455 S
O25 C10 1.268 . S
O26 Nd1 2.500 . S
O26 C11 1.258 . S
O27 Nd1 2.492 . S
O27 C11 1.239 . S
O28 Nd1 2.488 1_455 S
O28 C18 1.252 . S
O29 Nd0 2.414 . S
O29 Nd1 2.682 1_455 S
O29 C18 1.273 . S
O30 Nd1 2.410 . S
O30 C19 1.251 . S
O31 Nd0 2.424 1_655 S
O31 C19 1.268 . S
H32 C4 0.930 . S
H33 C5 0.929 . S
H34 C7 0.930 . S
H35 C8 0.929 . S
H36 C13 0.930 . S
H37 C14 0.929 . S
H38 C16 0.930 . S
H39 C17 0.929 . S
Nd40 C42 2.836 1_545 S
Nd40 O60 2.500 1_545 S
Nd40 O61 2.492 1_545 S
Nd40 O62 2.487 . S
Nd40 O63 2.682 . S
Nd40 O64 2.410 1_545 S
Nd40 O69 2.414 . S
Nd40 O71 2.424 . S
Nd41 C51 2.836 . S
Nd41 O63 2.414 . S
Nd41 O65 2.424 1_545 S
Nd41 O66 2.500 . S
Nd41 O67 2.492 . S
Nd41 O68 2.487 . S
Nd41 O69 2.682 . S
Nd41 O70 2.410 . S
C42 Nd40 2.836 1_565 S
C42 C43 1.498 . S
C42 O60 1.258 . S
C42 O61 1.239 . S
C43 C42 1.498 . S
C43 C44 1.366 . S
C43 C48 1.407 . S
C44 C43 1.366 . S
C44 C45 1.392 . S
C44 H72 0.930 . S
C45 C44 1.392 . S
C45 C46 1.398 . S
C45 H73 0.929 . S
C46 C45 1.398 . S
C46 C47 1.352 . S
C47 C46 1.352 . S
C47 C48 1.384 . S
C47 H74 0.930 . S
C48 C43 1.407 . S
C48 C47 1.384 . S
C48 H75 0.929 . S
C49 O62 1.241 . S
C49 O63 1.273 . S
C50 O64 1.251 . S
C50 O65 1.268 . S
C51 Nd41 2.836 . S
C51 C52 1.498 . S
C51 O66 1.258 . S
C51 O67 1.239 . S
C52 C51 1.498 . S
C52 C53 1.366 . S
C52 C57 1.407 . S
C53 C52 1.366 . S
C53 C54 1.392 . S
C53 H76 0.930 . S
C54 C53 1.392 . S
C54 C55 1.398 . S
C54 H77 0.929 . S
C55 C54 1.398 . S
C55 C56 1.352 . S
C56 C55 1.352 . S
C56 C57 1.384 . S
C56 H78 0.930 . S
C57 C52 1.407 . S
C57 C56 1.384 . S
C57 H79 0.929 . S
C58 O68 1.241 . S
C58 O69 1.273 . S
C59 O70 1.251 . S
C59 O71 1.268 . S
O60 Nd40 2.500 1_565 S
O60 C42 1.258 . S
O61 Nd40 2.492 1_565 S
O61 C42 1.239 . S
O62 Nd40 2.487 . S
O62 C49 1.241 . S
O63 Nd40 2.682 . S
O63 Nd41 2.414 . S
O63 C49 1.273 . S
O64 Nd40 2.410 1_565 S
O64 C50 1.251 . S
O65 Nd41 2.424 1_565 S
O65 C50 1.268 . S
O66 Nd41 2.500 . S
O66 C51 1.258 . S
O67 Nd41 2.492 . S
O67 C51 1.239 . S
O68 Nd41 2.487 . S
O68 C58 1.241 . S
O69 Nd40 2.414 . S
O69 Nd41 2.682 . S
O69 C58 1.273 . S
O70 Nd41 2.410 . S
O70 C59 1.251 . S
O71 Nd40 2.424 . S
O71 C59 1.268 . S
H72 C44 0.930 . S
H73 C45 0.929 . S
H74 C47 0.930 . S
H75 C48 0.929 . S
H76 C53 0.930 . S
H77 C54 0.929 . S
H78 C56 0.930 . S
H79 C57 0.929 . S
Nd80 C82 2.836 . S
Nd80 O100 2.500 . S
Nd80 O101 2.492 . S
Nd80 O102 2.487 . S
Nd80 O103 2.682 . S
Nd80 O104 2.410 . S
Nd80 O109 2.414 . S
Nd80 O111 2.424 . S
Nd81 C91 2.836 . S
Nd81 O103 2.414 . S
Nd81 O105 2.424 . S
Nd81 O106 2.500 . S
Nd81 O107 2.492 . S
Nd81 O108 2.487 . S
Nd81 O109 2.682 . S
Nd81 O110 2.410 . S
C82 Nd80 2.836 . S
C82 C83 1.498 . S
C82 O100 1.258 . S
C82 O101 1.239 . S
C83 C82 1.498 . S
C83 C84 1.366 . S
C83 C88 1.407 . S
C84 C83 1.366 . S
C84 C85 1.392 . S
C84 H112 0.930 . S
C85 C84 1.392 . S
C85 C86 1.398 . S
C85 H113 0.929 . S
C86 C85 1.398 . S
C86 C87 1.352 . S
C87 C86 1.352 . S
C87 C88 1.384 . S
C87 H114 0.930 . S
C88 C83 1.407 . S
C88 C87 1.384 . S
C88 H115 0.929 . S
C89 O102 1.241 . S
C89 O103 1.273 . S
C90 O104 1.251 . S
C90 O105 1.268 . S
C91 Nd81 2.836 . S
C91 C92 1.498 . S
C91 O106 1.258 . S
C91 O107 1.239 . S
C92 C91 1.498 . S
C92 C93 1.366 . S
C92 C97 1.407 . S
C93 C92 1.366 . S
C93 C94 1.392 . S
C93 H116 0.930 . S
C94 C93 1.392 . S
C94 C95 1.398 . S
C94 H117 0.929 . S
C95 C94 1.398 . S
C95 C96 1.352 . S
C96 C95 1.352 . S
C96 C97 1.384 . S
C96 H118 0.930 . S
C97 C92 1.407 . S
C97 C96 1.384 . S
C97 H119 0.929 . S
C98 O108 1.241 . S
C98 O109 1.273 . S
C99 O110 1.251 . S
C99 O111 1.268 . S
O100 Nd80 2.500 . S
O100 C82 1.258 . S
O101 Nd80 2.492 . S
O101 C82 1.239 . S
O102 Nd80 2.487 . S
O102 C89 1.241 . S
O103 Nd80 2.682 . S
O103 Nd81 2.414 . S
O103 C89 1.273 . S
O104 Nd80 2.410 . S
O104 C90 1.251 . S
O105 Nd81 2.424 . S
O105 C90 1.268 . S
O106 Nd81 2.500 . S
O106 C91 1.258 . S
O107 Nd81 2.492 . S
O107 C91 1.239 . S
O108 Nd81 2.487 . S
O108 C98 1.241 . S
O109 Nd80 2.414 . S
O109 Nd81 2.682 . S
O109 C98 1.273 . S
O110 Nd81 2.410 . S
O110 C99 1.251 . S
O111 Nd80 2.424 . S
O111 C99 1.268 . S
H112 C84 0.930 . S
H113 C85 0.929 . S
H114 C87 0.930 . S
H115 C88 0.929 . S
H116 C93 0.930 . S
H117 C94 0.929 . S
H118 C96 0.930 . S
H119 C97 0.929 . S
O120 Cd121 2.300 . S
O120 C127 1.275 . S
Cd121 O120 2.300 . S
Cd121 O129 2.381 . S
Cd121 O130 2.378 . S
O122 Cd123 2.356 1_545 S
O122 C127 1.284 . S
Cd123 O122 2.356 1_565 S
Cd123 O124 2.317 . S
O124 Cd123 2.317 . S
O124 C125 1.232 . S
C125 O124 1.232 . S
C125 O126 1.218 . S
O126 C125 1.218 . S
C127 O120 1.275 . S
C127 O122 1.284 . S
C128 O129 1.258 . S
C128 O130 1.256 . S
O129 Cd121 2.381 . S
O129 C128 1.258 . S
O130 Cd121 2.378 . S
O130 C128 1.256 . S
O131 Cd132 2.300 . S
O131 C138 1.275 . S
Cd132 O131 2.300 . S
Cd132 O140 2.381 . S
Cd132 O141 2.378 . S
O133 Cd134 2.385 . S
O133 C138 1.255 . S
Cd134 O133 2.385 . S
Cd134 O135 2.317 . S
O135 Cd134 2.317 . S
O135 C136 1.232 . S
C136 O135 1.232 . S
C136 O137 1.218 . S
O137 C136 1.218 . S
C138 O131 1.275 . S
C138 O133 1.255 . S
C139 O140 1.258 . S
C139 O141 1.256 . S
O140 Cd132 2.381 . S
O140 C139 1.258 . S
O141 Cd132 2.378 . S
O141 C139 1.256 . S
O142 Cd143 2.300 . S
O142 C149 1.275 . S
Cd143 O142 2.300 . S
Cd143 O151 2.381 . S
Cd143 O152 2.378 . S
O144 Cd145 2.385 1_455 S
O144 C149 1.255 . S
Cd145 O144 2.385 1_655 S
Cd145 O146 2.317 . S
O146 Cd145 2.317 . S
O146 C147 1.232 . S
C147 O146 1.232 . S
C147 O148 1.218 . S
O148 C147 1.218 . S
C149 O142 1.275 . S
C149 O144 1.255 . S
C150 O151 1.258 . S
C150 O152 1.256 . S
O151 Cd143 2.381 . S
O151 C150 1.258 . S
O152 Cd143 2.378 . S
O152 C150 1.256 . S
O153 Cd154 2.300 . S
O153 C160 1.275 1_455 S
Cd154 O153 2.300 . S
Cd154 O162 2.381 . S
Cd154 O163 2.378 . S
O155 Cd156 2.385 . S
O155 C160 1.255 . S
Cd156 O155 2.385 . S
Cd156 O157 2.317 . S
O157 Cd156 2.317 . S
O157 C158 1.232 . S
C158 O157 1.232 . S
C158 O159 1.218 . S
O159 C158 1.218 . S
C160 O153 1.275 1_655 S
C160 O155 1.255 . S
C161 O162 1.258 . S
C161 O163 1.256 . S
O162 Cd154 2.381 . S
O162 C161 1.258 . S
O163 Cd154 2.378 . S
O163 C161 1.256 . S
O164 Cd165 2.300 . S
O164 C171 1.275 1_565 S
Cd165 O164 2.300 . S
Cd165 O173 2.381 . S
Cd165 O174 2.378 . S
O166 Cd167 2.385 . S
O166 C171 1.255 . S
Cd167 O166 2.385 . S
Cd167 O168 2.317 . S
O168 Cd167 2.317 . S
O168 C169 1.232 . S
C169 O168 1.232 . S
C169 O170 1.218 . S
O170 C169 1.218 . S
C171 O164 1.275 1_545 S
C171 O166 1.255 . S
C172 O173 1.258 . S
C172 O174 1.256 . S
O173 Cd165 2.381 . S
O173 C172 1.258 . S
O174 Cd165 2.378 . S
O174 C172 1.256 . S
O175 Cd176 2.300 . S
O175 C182 1.275 . S
Cd176 O175 2.300 . S
Cd176 O184 2.381 . S
Cd176 O185 2.378 . S
O177 Cd178 2.385 . S
O177 C182 1.255 . S
Cd178 O177 2.385 . S
Cd178 O179 2.317 . S
O179 Cd178 2.317 . S
O179 C180 1.232 . S
C180 O179 1.232 . S
C180 O181 1.218 . S
O181 C180 1.218 . S
C182 O175 1.275 . S
C182 O177 1.255 . S
C183 O184 1.258 . S
C183 O185 1.256 . S
O184 Cd176 2.381 . S
O184 C183 1.258 . S
O185 Cd176 2.378 . S
O185 C183 1.256 . S
H186 C194 0.929 . S
H187 C196 0.930 . S
H188 C198 0.930 . S
H189 C201 0.929 . S
H190 C204 0.930 . S
H191 C206 0.960 . S
H192 C206 0.960 . S
H193 C206 0.960 . S
C194 H186 0.929 . S
C194 C195 1.377 . S
C194 C196 1.384 . S
C195 C194 1.377 . S
C195 C201 1.390 . S
C196 H187 0.930 . S
C196 C194 1.384 . S
C196 C197 1.372 . S
C197 C196 1.372 . S
C197 C198 1.400 . S
C197 C202 1.490 . S
C198 H188 0.930 . S
C198 C197 1.400 . S
C198 C201 1.386 . S
H199 C215 0.930 . S
H200 C216 0.931 . S
C201 H189 0.929 . S
C201 C195 1.390 . S
C201 C198 1.386 . S
C202 C197 1.490 . S
C202 C204 1.395 . S
C202 C205 1.403 . S
H203 C209 0.930 . S
C204 H190 0.930 . S
C204 C202 1.395 . S
C204 C207 1.403 . S
C205 C202 1.403 . S
C205 C206 1.524 . S
C205 C209 1.400 . S
C206 H191 0.960 . S
C206 H192 0.960 . S
C206 H193 0.960 . S
C206 C205 1.524 . S
C207 C204 1.403 . S
C207 C208 1.392 . S
C207 C211 1.495 . S
C208 C207 1.392 . S
C208 C209 1.385 . S
C208 C210 1.478 . S
C209 H203 0.930 . S
C209 C205 1.400 . S
C209 C208 1.385 . S
C210 C208 1.478 . S
C210 C212 1.381 . S
C210 C216 1.383 . S
C211 C207 1.495 . S
C211 H217 0.959 . S
C211 H218 0.961 . S
C211 H219 0.960 . S
C212 C210 1.381 . S
C212 C213 1.394 . S
C212 H220 0.930 . S
C213 C212 1.394 . S
C213 C214 1.383 . S
C213 H221 0.929 . S
C214 C213 1.383 . S
C214 C215 1.377 . S
C215 H199 0.930 . S
C215 C214 1.377 . S
C215 C216 1.379 . S
C216 H200 0.931 . S
C216 C210 1.383 . S
C216 C215 1.379 . S
H217 C211 0.959 . S
H218 C211 0.961 . S
H219 C211 0.960 . S
H220 C212 0.930 . S
H221 C213 0.929 . S
H222 C230 0.929 . S
H223 C232 0.930 . S
H224 C234 0.930 . S
H225 C237 0.929 . S
H226 C240 0.930 . S
H227 C242 0.960 . S
H228 C242 0.960 . S
H229 C242 0.960 . S
C230 H222 0.929 . S
C230 C231 1.377 . S
C230 C232 1.384 . S
C231 C230 1.377 . S
C231 C237 1.390 . S
C232 H223 0.930 . S
C232 C230 1.384 . S
C232 C233 1.372 . S
C233 C232 1.372 . S
C233 C234 1.400 . S
C233 C238 1.490 . S
C234 H224 0.930 . S
C234 C233 1.400 . S
C234 C237 1.386 . S
H235 C251 0.930 . S
H236 C252 0.931 . S
C237 H225 0.929 . S
C237 C231 1.390 . S
C237 C234 1.386 . S
C238 C233 1.490 . S
C238 C240 1.395 . S
C238 C241 1.403 . S
H239 C245 0.930 . S
C240 H226 0.930 . S
C240 C238 1.395 . S
C240 C243 1.403 . S
C241 C238 1.403 . S
C241 C242 1.524 . S
C241 C245 1.400 . S
C242 H227 0.960 . S
C242 H228 0.960 . S
C242 H229 0.960 . S
C242 C241 1.524 . S
C243 C240 1.403 . S
C243 C244 1.392 . S
C243 C247 1.495 . S
C244 C243 1.392 . S
C244 C245 1.385 . S
C244 C246 1.478 . S
C245 H239 0.930 . S
C245 C241 1.400 . S
C245 C244 1.385 . S
C246 C244 1.478 . S
C246 C248 1.381 . S
C246 C252 1.383 . S
C247 C243 1.495 . S
C247 H253 0.959 . S
C247 H254 0.961 . S
C247 H255 0.960 . S
C248 C246 1.381 . S
C248 C249 1.394 . S
C248 H256 0.930 . S
C249 C248 1.394 . S
C249 C250 1.383 . S
C249 H257 0.929 . S
C250 C249 1.383 . S
C250 C251 1.377 . S
C251 H235 0.930 . S
C251 C250 1.377 . S
C251 C252 1.379 . S
C252 H236 0.931 . S
C252 C246 1.383 . S
C252 C251 1.379 . S
H253 C247 0.959 . S
H254 C247 0.961 . S
H255 C247 0.960 . S
H256 C248 0.930 . S
H257 C249 0.929 . S
H258 C266 0.929 . S
H259 C268 0.930 . S
H260 C270 0.930 . S
H261 C273 0.929 . S
H262 C276 0.930 . S
H263 C278 0.960 . S
H264 C278 0.960 . S
H265 C278 0.960 . S
C266 H258 0.929 . S
C266 C267 1.377 . S
C266 C268 1.384 . S
C267 C266 1.377 . S
C267 C273 1.390 . S
C268 H259 0.930 . S
C268 C266 1.384 . S
C268 C269 1.372 . S
C269 C268 1.372 . S
C269 C270 1.400 . S
C269 C274 1.490 . S
C270 H260 0.930 . S
C270 C269 1.400 . S
C270 C273 1.386 . S
H271 C287 0.930 . S
H272 C288 0.931 . S
C273 H261 0.929 . S
C273 C267 1.390 . S
C273 C270 1.386 . S
C274 C269 1.490 . S
C274 C276 1.395 . S
C274 C277 1.403 . S
H275 C281 0.930 . S
C276 H262 0.930 . S
C276 C274 1.395 . S
C276 C279 1.403 . S
C277 C274 1.403 . S
C277 C278 1.524 . S
C277 C281 1.400 . S
C278 H263 0.960 . S
C278 H264 0.960 . S
C278 H265 0.960 . S
C278 C277 1.524 . S
C279 C276 1.403 . S
C279 C280 1.392 . S
C279 C283 1.495 . S
C280 C279 1.392 . S
C280 C281 1.385 . S
C280 C282 1.478 . S
C281 H275 0.930 . S
C281 C277 1.400 . S
C281 C280 1.385 . S
C282 C280 1.478 . S
C282 C284 1.381 . S
C282 C288 1.383 . S
C283 C279 1.495 . S
C283 H289 0.959 . S
C283 H290 0.961 . S
C283 H291 0.960 . S
C284 C282 1.381 . S
C284 C285 1.394 . S
C284 H292 0.930 . S
C285 C284 1.394 . S
C285 C286 1.383 . S
C285 H293 0.929 . S
C286 C285 1.383 . S
C286 C287 1.377 . S
C287 H271 0.930 . S
C287 C286 1.377 . S
C287 C288 1.379 . S
C288 H272 0.931 . S
C288 C282 1.383 . S
C288 C287 1.379 . S
H289 C283 0.959 . S
H290 C283 0.961 . S
H291 C283 0.960 . S
H292 C284 0.930 . S
H293 C285 0.929 . S
H294 C302 0.929 . S
H295 C304 0.930 . S
H296 C306 0.930 . S
H297 C309 0.929 . S
H298 C312 0.930 . S
H299 C314 0.960 . S
H300 C314 0.960 . S
H301 C314 0.960 . S
C302 H294 0.929 . S
C302 C303 1.377 . S
C302 C304 1.384 . S
C303 C302 1.377 . S
C303 C309 1.390 . S
C304 H295 0.930 . S
C304 C302 1.384 . S
C304 C305 1.372 . S
C305 C304 1.372 . S
C305 C306 1.400 . S
C305 C310 1.490 . S
C306 H296 0.930 . S
C306 C305 1.400 . S
C306 C309 1.386 . S
H307 C323 0.930 . S
H308 C324 0.931 . S
C309 H297 0.929 . S
C309 C303 1.390 . S
C309 C306 1.386 . S
C310 C305 1.490 . S
C310 C312 1.395 . S
C310 C313 1.403 . S
H311 C317 0.930 . S
C312 H298 0.930 . S
C312 C310 1.395 . S
C312 C315 1.403 . S
C313 C310 1.403 . S
C313 C314 1.524 . S
C313 C317 1.400 . S
C314 H299 0.960 . S
C314 H300 0.960 . S
C314 H301 0.960 . S
C314 C313 1.524 . S
C315 C312 1.403 . S
C315 C316 1.392 . S
C315 C319 1.495 . S
C316 C315 1.392 . S
C316 C317 1.385 . S
C316 C318 1.478 . S
C317 H311 0.930 . S
C317 C313 1.400 . S
C317 C316 1.385 . S
C318 C316 1.478 . S
C318 C320 1.381 . S
C318 C324 1.383 . S
C319 C315 1.495 . S
C319 H325 0.959 . S
C319 H326 0.961 . S
C319 H327 0.960 . S
C320 C318 1.381 . S
C320 C321 1.394 . S
C320 H328 0.930 . S
C321 C320 1.394 . S
C321 C322 1.383 . S
C321 H329 0.929 . S
C322 C321 1.383 . S
C322 C323 1.377 . S
C323 H307 0.930 . S
C323 C322 1.377 . S
C323 C324 1.379 . S
C324 H308 0.931 . S
C324 C318 1.383 . S
C324 C323 1.379 . S
H325 C319 0.959 . S
H326 C319 0.961 . S
H327 C319 0.960 . S
H328 C320 0.930 . S
H329 C321 0.929 . S
H330 C338 0.929 . S
H331 C340 0.930 . S
H332 C342 0.930 . S
H333 C345 0.929 . S
H334 C348 0.930 . S
H335 C350 0.960 . S
H336 C350 0.960 . S
H337 C350 0.960 . S
C338 H330 0.929 . S
C338 C339 1.377 . S
C338 C340 1.384 . S
C339 C338 1.377 . S
C339 C345 1.390 . S
C340 H331 0.930 . S
C340 C338 1.384 . S
C340 C341 1.372 . S
C341 C340 1.372 . S
C341 C342 1.400 . S
C341 C346 1.490 . S
C342 H332 0.930 . S
C342 C341 1.400 . S
C342 C345 1.386 . S
H343 C359 0.930 . S
H344 C360 0.931 . S
C345 H333 0.929 . S
C345 C339 1.390 . S
C345 C342 1.386 . S
C346 C341 1.490 . S
C346 C348 1.395 . S
C346 C349 1.403 . S
H347 C353 0.930 . S
C348 H334 0.930 . S
C348 C346 1.395 . S
C348 C351 1.403 . S
C349 C346 1.403 . S
C349 C350 1.524 . S
C349 C353 1.400 . S
C350 H335 0.960 . S
C350 H336 0.960 . S
C350 H337 0.960 . S
C350 C349 1.524 . S
C351 C348 1.403 . S
C351 C352 1.392 . S
C351 C355 1.495 . S
C352 C351 1.392 . S
C352 C353 1.385 . S
C352 C354 1.478 . S
C353 H347 0.930 . S
C353 C349 1.400 . S
C353 C352 1.385 . S
C354 C352 1.478 . S
C354 C356 1.381 . S
C354 C360 1.383 . S
C355 C351 1.495 . S
C355 H361 0.959 . S
C355 H362 0.961 . S
C355 H363 0.960 . S
C356 C354 1.381 . S
C356 C357 1.394 . S
C356 H364 0.930 . S
C357 C356 1.394 . S
C357 C358 1.383 . S
C357 H365 0.929 . S
C358 C357 1.383 . S
C358 C359 1.377 . S
C359 H343 0.930 . S
C359 C358 1.377 . S
C359 C360 1.379 . S
C360 H344 0.931 . S
C360 C354 1.383 . S
C360 C359 1.379 . S
H361 C355 0.959 . S
H362 C355 0.961 . S
H363 C355 0.960 . S
H364 C356 0.930 . S
H365 C357 0.929 . S
H366 C374 0.929 . S
H367 C376 0.930 . S
H368 C378 0.930 . S
H369 C381 0.929 . S
H370 C384 0.930 . S
H371 C386 0.960 . S
H372 C386 0.960 . S
H373 C386 0.960 . S
C374 H366 0.929 . S
C374 C375 1.377 . S
C374 C376 1.384 . S
C375 C374 1.377 . S
C375 C381 1.390 . S
C376 H367 0.930 . S
C376 C374 1.384 . S
C376 C377 1.372 . S
C377 C376 1.372 . S
C377 C378 1.400 . S
C377 C382 1.490 . S
C378 H368 0.930 . S
C378 C377 1.400 . S
C378 C381 1.386 . S
H379 C395 0.930 . S
H380 C396 0.931 . S
C381 H369 0.929 . S
C381 C375 1.390 . S
C381 C378 1.386 . S
C382 C377 1.490 . S
C382 C384 1.395 . S
C382 C385 1.403 . S
H383 C389 0.930 . S
C384 H370 0.930 . S
C384 C382 1.395 . S
C384 C387 1.403 . S
C385 C382 1.403 . S
C385 C386 1.524 . S
C385 C389 1.400 . S
C386 H371 0.960 . S
C386 H372 0.960 . S
C386 H373 0.960 . S
C386 C385 1.524 . S
C387 C384 1.403 . S
C387 C388 1.392 . S
C387 C391 1.495 . S
C388 C387 1.392 . S
C388 C389 1.385 . S
C388 C390 1.478 . S
C389 H383 0.930 . S
C389 C385 1.400 . S
C389 C388 1.385 . S
C390 C388 1.478 . S
C390 C392 1.381 . S
C390 C396 1.383 . S
C391 C387 1.495 . S
C391 H397 0.959 . S
C391 H398 0.961 . S
C391 H399 0.960 . S
C392 C390 1.381 . S
C392 C393 1.394 . S
C392 H400 0.930 . S
C393 C392 1.394 . S
C393 C394 1.383 . S
C393 H401 0.929 . S
C394 C393 1.383 . S
C394 C395 1.377 . S
C395 H379 0.930 . S
C395 C394 1.377 . S
C395 C396 1.379 . S
C396 H380 0.931 . S
C396 C390 1.383 . S
C396 C395 1.379 . S
H397 C391 0.959 . S
H398 C391 0.961 . S
H399 C391 0.960 . S
H400 C392 0.930 . S
H401 C393 0.929 . S
H402 C410 0.929 . S
H403 C412 0.930 . S
H404 C414 0.930 . S
H405 C417 0.929 . S
H406 C420 0.930 . S
H407 C422 0.960 . S
H408 C422 0.960 . S
H409 C422 0.960 . S
C410 H402 0.929 . S
C410 C411 1.377 . S
C410 C412 1.384 . S
C411 C410 1.377 . S
C411 C417 1.390 . S
C412 H403 0.930 . S
C412 C410 1.384 . S
C412 C413 1.372 . S
C413 C412 1.372 . S
C413 C414 1.400 . S
C413 C418 1.490 . S
C414 H404 0.930 . S
C414 C413 1.400 . S
C414 C417 1.386 . S
H415 C431 0.930 . S
H416 C432 0.931 . S
C417 H405 0.929 . S
C417 C411 1.390 . S
C417 C414 1.386 . S
C418 C413 1.490 . S
C418 C420 1.395 . S
C418 C421 1.403 . S
H419 C425 0.930 . S
C420 H406 0.930 . S
C420 C418 1.395 . S
C420 C423 1.403 . S
C421 C418 1.403 . S
C421 C422 1.524 . S
C421 C425 1.400 . S
C422 H407 0.960 . S
C422 H408 0.960 . S
C422 H409 0.960 . S
C422 C421 1.524 . S
C423 C420 1.403 . S
C423 C424 1.392 . S
C423 C427 1.495 . S
C424 C423 1.392 . S
C424 C425 1.385 . S
C424 C426 1.478 . S
C425 H419 0.930 . S
C425 C421 1.400 . S
C425 C424 1.385 . S
C426 C424 1.478 . S
C426 C428 1.381 . S
C426 C432 1.383 . S
C427 C423 1.495 . S
C427 H433 0.959 . S
C427 H434 0.961 . S
C427 H435 0.960 . S
C428 C426 1.381 . S
C428 C429 1.394 . S
C428 H436 0.930 . S
C429 C428 1.394 . S
C429 C430 1.383 . S
C429 H437 0.929 . S
C430 C429 1.383 . S
C430 C431 1.377 . S
C431 H415 0.930 . S
C431 C430 1.377 . S
C431 C432 1.379 . S
C432 H416 0.931 . S
C432 C426 1.383 . S
C432 C431 1.379 . S
H433 C427 0.959 . S
H434 C427 0.961 . S
H435 C427 0.960 . S
H436 C428 0.930 . S
H437 C429 0.929 . S
H438 C446 0.929 . S
H439 C448 0.930 . S
H440 C450 0.930 . S
H441 C453 0.929 . S
H442 C456 0.930 . S
H443 C458 0.960 . S
H444 C458 0.960 . S
H445 C458 0.960 . S
C446 H438 0.929 . S
C446 C447 1.377 . S
C446 C448 1.384 . S
C447 C446 1.377 . S
C447 C453 1.390 . S
C448 H439 0.930 . S
C448 C446 1.384 . S
C448 C449 1.372 . S
C449 C448 1.372 . S
C449 C450 1.400 . S
C449 C454 1.490 . S
C450 H440 0.930 . S
C450 C449 1.400 . S
C450 C453 1.386 . S
H451 C467 0.930 . S
H452 C468 0.931 . S
C453 H441 0.929 . S
C453 C447 1.390 . S
C453 C450 1.386 . S
C454 C449 1.490 . S
C454 C456 1.395 . S
C454 C457 1.403 . S
H455 C461 0.930 . S
C456 H442 0.930 . S
C456 C454 1.395 . S
C456 C459 1.403 . S
C457 C454 1.403 . S
C457 C458 1.524 . S
C457 C461 1.400 . S
C458 H443 0.960 . S
C458 H444 0.960 . S
C458 H445 0.960 . S
C458 C457 1.524 . S
C459 C456 1.403 . S
C459 C460 1.392 . S
C459 C463 1.495 . S
C460 C459 1.392 . S
C460 C461 1.385 . S
C460 C462 1.478 . S
C461 H455 0.930 . S
C461 C457 1.400 . S
C461 C460 1.385 . S
C462 C460 1.478 . S
C462 C464 1.381 . S
C462 C468 1.383 . S
C463 C459 1.495 . S
C463 H469 0.959 . S
C463 H470 0.961 . S
C463 H471 0.960 . S
C464 C462 1.381 . S
C464 C465 1.394 . S
C464 H472 0.930 . S
C465 C464 1.394 . S
C465 C466 1.383 . S
C465 H473 0.929 . S
C466 C465 1.383 . S
C466 C467 1.377 . S
C467 H451 0.930 . S
C467 C466 1.377 . S
C467 C468 1.379 . S
C468 H452 0.931 . S
C468 C462 1.383 . S
C468 C467 1.379 . S
H469 C463 0.959 . S
H470 C463 0.961 . S
H471 C463 0.960 . S
H472 C464 0.930 . S
H473 C465 0.929 . S
H474 C482 0.929 . S
H475 C484 0.930 . S
H476 C486 0.930 . S
H477 C489 0.929 . S
H478 C492 0.930 . S
H479 C494 0.960 . S
H480 C494 0.960 . S
H481 C494 0.960 . S
C482 H474 0.929 . S
C482 C483 1.377 . S
C482 C484 1.384 . S
C483 C482 1.377 . S
C483 C489 1.390 . S
C484 H475 0.930 . S
C484 C482 1.384 . S
C484 C485 1.372 . S
C485 C484 1.372 . S
C485 C486 1.400 . S
C485 C490 1.490 . S
C486 H476 0.930 . S
C486 C485 1.400 . S
C486 C489 1.386 . S
H487 C503 0.930 . S
H488 C504 0.931 . S
C489 H477 0.929 . S
C489 C483 1.390 . S
C489 C486 1.386 . S
C490 C485 1.490 . S
C490 C492 1.395 . S
C490 C493 1.403 . S
H491 C497 0.930 . S
C492 H478 0.930 . S
C492 C490 1.395 . S
C492 C495 1.403 . S
C493 C490 1.403 . S
C493 C494 1.524 . S
C493 C497 1.400 . S
C494 H479 0.960 . S
C494 H480 0.960 . S
C494 H481 0.960 . S
C494 C493 1.524 . S
C495 C492 1.403 . S
C495 C496 1.392 . S
C495 C499 1.495 . S
C496 C495 1.392 . S
C496 C497 1.385 . S
C496 C498 1.478 . S
C497 H491 0.930 . S
C497 C493 1.400 . S
C497 C496 1.385 . S
C498 C496 1.478 . S
C498 C500 1.381 . S
C498 C504 1.383 . S
C499 C495 1.495 . S
C499 H505 0.959 . S
C499 H506 0.961 . S
C499 H507 0.960 . S
C500 C498 1.381 . S
C500 C501 1.394 . S
C500 H508 0.930 . S
C501 C500 1.394 . S
C501 C502 1.383 . S
C501 H509 0.929 . S
C502 C501 1.383 . S
C502 C503 1.377 . S
C503 H487 0.930 . S
C503 C502 1.377 . S
C503 C504 1.379 . S
C504 H488 0.931 . S
C504 C498 1.383 . S
C504 C503 1.379 . S
H505 C499 0.959 . S
H506 C499 0.961 . S
H507 C499 0.960 . S
H508 C500 0.930 . S
H509 C501 0.929 . S
H510 C518 0.929 . S
H511 C520 0.930 . S
H512 C522 0.930 . S
H513 C525 0.929 . S
H514 C528 0.930 . S
H515 C530 0.960 . S
H516 C530 0.960 . S
H517 C530 0.960 . S
C518 H510 0.929 . S
C518 C519 1.377 . S
C518 C520 1.384 . S
C519 C518 1.377 . S
C519 C525 1.390 . S
C520 H511 0.930 . S
C520 C518 1.384 . S
C520 C521 1.372 . S
C521 C520 1.372 . S
C521 C522 1.400 . S
C521 C526 1.490 . S
C522 H512 0.930 . S
C522 C521 1.400 . S
C522 C525 1.386 . S
H523 C539 0.930 . S
H524 C540 0.931 . S
C525 H513 0.929 . S
C525 C519 1.390 . S
C525 C522 1.386 . S
C526 C521 1.490 . S
C526 C528 1.395 . S
C526 C529 1.403 . S
H527 C533 0.930 . S
C528 H514 0.930 . S
C528 C526 1.395 . S
C528 C531 1.403 . S
C529 C526 1.403 . S
C529 C530 1.524 . S
C529 C533 1.400 . S
C530 H515 0.960 . S
C530 H516 0.960 . S
C530 H517 0.960 . S
C530 C529 1.524 . S
C531 C528 1.403 . S
C531 C532 1.392 . S
C531 C535 1.495 . S
C532 C531 1.392 . S
C532 C533 1.385 . S
C532 C534 1.478 . S
C533 H527 0.930 . S
C533 C529 1.400 . S
C533 C532 1.385 . S
C534 C532 1.478 . S
C534 C536 1.381 . S
C534 C540 1.383 . S
C535 C531 1.495 . S
C535 H541 0.959 . S
C535 H542 0.961 . S
C535 H543 0.960 . S
C536 C534 1.381 . S
C536 C537 1.394 . S
C536 H544 0.930 . S
C537 C536 1.394 . S
C537 C538 1.383 . S
C537 H545 0.929 . S
C538 C537 1.383 . S
C538 C539 1.377 . S
C539 H523 0.930 . S
C539 C538 1.377 . S
C539 C540 1.379 . S
C540 H524 0.931 . S
C540 C534 1.383 . S
C540 C539 1.379 . S
H541 C535 0.959 . S
H542 C535 0.961 . S
H543 C535 0.960 . S
H544 C536 0.930 . S
H545 C537 0.929 . S
H546 C554 0.929 . S
H547 C556 0.930 . S
H548 C558 0.930 . S
H549 C561 0.929 . S
H550 C564 0.930 . S
H551 C566 0.960 . S
H552 C566 0.960 . S
H553 C566 0.960 . S
C554 H546 0.929 . S
C554 C555 1.377 . S
C554 C556 1.384 . S
C555 C554 1.377 . S
C555 C561 1.390 . S
C556 H547 0.930 . S
C556 C554 1.384 . S
C556 C557 1.372 . S
C557 C556 1.372 . S
C557 C558 1.400 . S
C557 C562 1.490 . S
C558 H548 0.930 . S
C558 C557 1.400 . S
C558 C561 1.386 . S
H559 C575 0.930 . S
H560 C576 0.931 . S
C561 H549 0.929 . S
C561 C555 1.390 . S
C561 C558 1.386 . S
C562 C557 1.490 . S
C562 C564 1.395 . S
C562 C565 1.403 . S
H563 C569 0.930 . S
C564 H550 0.930 . S
C564 C562 1.395 . S
C564 C567 1.403 . S
C565 C562 1.403 . S
C565 C566 1.524 . S
C565 C569 1.400 . S
C566 H551 0.960 . S
C566 H552 0.960 . S
C566 H553 0.960 . S
C566 C565 1.524 . S
C567 C564 1.403 . S
C567 C568 1.392 . S
C567 C571 1.495 . S
C568 C567 1.392 . S
C568 C569 1.385 . S
C568 C570 1.478 . S
C569 H563 0.930 . S
C569 C565 1.400 . S
C569 C568 1.385 . S
C570 C568 1.478 . S
C570 C572 1.381 . S
C570 C576 1.383 . S
C571 C567 1.495 . S
C571 H577 0.959 . S
C571 H578 0.961 . S
C571 H579 0.960 . S
C572 C570 1.381 . S
C572 C573 1.394 . S
C572 H580 0.930 . S
C573 C572 1.394 . S
C573 C574 1.383 . S
C573 H581 0.929 . S
C574 C573 1.383 . S
C574 C575 1.377 . S
C575 H559 0.930 . S
C575 C574 1.377 . S
C575 C576 1.379 . S
C576 H560 0.931 . S
C576 C570 1.383 . S
C576 C575 1.379 . S
H577 C571 0.959 . S
H578 C571 0.961 . S
H579 C571 0.960 . S
H580 C572 0.930 . S
H581 C573 0.929 . S
H582 C590 0.929 . S
H583 C592 0.930 . S
H584 C594 0.930 . S
H585 C597 0.929 . S
H586 C600 0.930 . S
H587 C602 0.960 . S
H588 C602 0.960 . S
H589 C602 0.960 . S
C590 H582 0.929 . S
C590 C591 1.377 . S
C590 C592 1.384 . S
C591 C590 1.377 . S
C591 C597 1.390 . S
C592 H583 0.930 . S
C592 C590 1.384 . S
C592 C593 1.372 . S
C593 C592 1.372 . S
C593 C594 1.400 . S
C593 C598 1.490 . S
C594 H584 0.930 . S
C594 C593 1.400 . S
C594 C597 1.386 . S
H595 C611 0.930 . S
H596 C612 0.931 . S
C597 H585 0.929 . S
C597 C591 1.390 . S
C597 C594 1.386 . S
C598 C593 1.490 . S
C598 C600 1.395 . S
C598 C601 1.403 . S
H599 C605 0.930 . S
C600 H586 0.930 . S
C600 C598 1.395 . S
C600 C603 1.403 . S
C601 C598 1.403 . S
C601 C602 1.524 . S
C601 C605 1.400 . S
C602 H587 0.960 . S
C602 H588 0.960 . S
C602 H589 0.960 . S
C602 C601 1.524 . S
C603 C600 1.403 . S
C603 C604 1.392 . S
C603 C607 1.495 . S
C604 C603 1.392 . S
C604 C605 1.385 . S
C604 C606 1.478 . S
C605 H599 0.930 . S
C605 C601 1.400 . S
C605 C604 1.385 . S
C606 C604 1.478 . S
C606 C608 1.381 . S
C606 C612 1.383 . S
C607 C603 1.495 . S
C607 H613 0.959 . S
C607 H614 0.961 . S
C607 H615 0.960 . S
C608 C606 1.381 . S
C608 C609 1.394 . S
C608 H616 0.930 . S
C609 C608 1.394 . S
C609 C610 1.383 . S
C609 H617 0.929 . S
C610 C609 1.383 . S
C610 C611 1.377 . S
C611 H595 0.930 . S
C611 C610 1.377 . S
C611 C612 1.379 . S
C612 H596 0.931 . S
C612 C606 1.383 . S
C612 C611 1.379 . S
H613 C607 0.959 . S
H614 C607 0.961 . S
H615 C607 0.960 . S
H616 C608 0.930 . S
H617 C609 0.929 . S
H618 C626 0.929 . S
H619 C628 0.930 . S
H620 C630 0.930 1_655 S
H621 C633 0.929 1_655 S
H622 C636 0.930 . S
H623 C638 0.960 . S
H624 C638 0.960 . S
H625 C638 0.960 . S
C626 H618 0.929 . S
C626 C627 1.377 . S
C626 C628 1.384 . S
C627 C626 1.377 . S
C627 C633 1.390 . S
C628 H619 0.930 . S
C628 C626 1.384 . S
C628 C629 1.372 . S
C629 C628 1.372 . S
C629 C630 1.400 . S
C629 C634 1.490 . S
C630 H620 0.930 1_455 S
C630 C629 1.400 . S
C630 C633 1.386 . S
H631 C647 0.930 1_655 S
H632 C648 0.931 1_655 S
C633 H621 0.929 1_455 S
C633 C627 1.390 . S
C633 C630 1.386 . S
C634 C629 1.490 . S
C634 C636 1.395 . S
C634 C637 1.403 . S
H635 C641 0.930 . S
C636 H622 0.930 . S
C636 C634 1.395 . S
C636 C639 1.403 . S
C637 C634 1.403 . S
C637 C638 1.524 . S
C637 C641 1.400 . S
C638 H623 0.960 . S
C638 H624 0.960 . S
C638 H625 0.960 . S
C638 C637 1.524 . S
C639 C636 1.403 . S
C639 C640 1.392 1_554 S
C639 C643 1.495 1_454 S
C640 C639 1.392 1_556 S
C640 C641 1.385 1_556 S
C640 C642 1.478 . S
C641 H635 0.930 . S
C641 C637 1.400 . S
C641 C640 1.385 1_554 S
C642 C640 1.478 . S
C642 C644 1.381 . S
C642 C648 1.383 . S
C643 C639 1.495 1_656 S
C643 H649 0.926 1_556 S
C643 H650 0.961 . S
C643 H651 0.960 1_655 S
C644 C642 1.381 . S
C644 C645 1.394 . S
C644 H652 0.930 . S
C645 C644 1.394 . S
C645 C646 1.383 . S
C645 H653 0.929 . S
C646 C645 1.383 . S
C646 C647 1.377 . S
C647 H631 0.930 1_455 S
C647 C646 1.377 . S
C647 C648 1.379 . S
C648 H632 0.931 1_455 S
C648 C642 1.383 . S
C648 C647 1.379 . S
H649 C643 0.926 1_554 S
H650 C643 0.961 . S
H651 C643 0.960 1_455 S
H652 C644 0.930 . S
H653 C645 0.929 . S
H654 C662 0.929 . S
H655 C664 0.930 . S
H656 C666 0.930 . S
H657 C669 0.929 . S
H658 C672 0.930 . S
H659 C674 0.960 . S
H660 C674 0.960 . S
H661 C674 0.960 . S
C662 H654 0.929 . S
C662 C663 1.377 . S
C662 C664 1.384 . S
C663 C662 1.377 . S
C663 C669 1.390 . S
C664 H655 0.930 . S
C664 C662 1.384 . S
C664 C665 1.372 . S
C665 C664 1.372 . S
C665 C666 1.400 . S
C665 C670 1.490 . S
C666 H656 0.930 . S
C666 C665 1.400 . S
C666 C669 1.386 . S
H667 C683 0.930 . S
H668 C684 0.931 . S
C669 H657 0.929 . S
C669 C663 1.390 . S
C669 C666 1.386 . S
C670 C665 1.490 . S
C670 C672 1.395 1_545 S
C670 C673 1.403 . S
H671 C677 0.930 . S
C672 H658 0.930 . S
C672 C670 1.395 1_565 S
C672 C675 1.403 . S
C673 C670 1.403 . S
C673 C674 1.524 . S
C673 C677 1.400 . S
C674 H659 0.960 . S
C674 H660 0.960 . S
C674 H661 0.960 . S
C674 C673 1.524 . S
C675 C672 1.403 . S
C675 C676 1.392 1_565 S
C675 C679 1.495 . S
C676 C675 1.392 1_545 S
C676 C677 1.385 . S
C676 C678 1.478 . S
C677 H671 0.930 . S
C677 C673 1.400 . S
C677 C676 1.385 . S
C678 C676 1.478 . S
C678 C680 1.381 . S
C678 C684 1.383 . S
C679 C675 1.495 . S
C679 H685 0.959 . S
C679 H686 0.961 . S
C679 H687 0.960 . S
C680 C678 1.381 . S
C680 C681 1.394 . S
C680 H688 0.941 . S
C681 C680 1.394 . S
C681 C682 1.383 . S
C681 H689 0.929 . S
C682 C681 1.383 . S
C682 C683 1.377 . S
C683 H667 0.930 . S
C683 C682 1.377 . S
C683 C684 1.379 . S
C684 H668 0.931 . S
C684 C678 1.383 . S
C684 C683 1.379 . S
H685 C679 0.959 . S
H686 C679 0.961 . S
H687 C679 0.960 . S
H688 C680 0.941 . S
H689 C681 0.929 . S
H690 C698 0.929 . S
H691 C700 0.930 . S
H692 C702 0.930 . S
H693 C705 0.929 . S
H694 C708 0.930 . S
H695 C710 0.960 . S
H696 C710 0.960 . S
H697 C710 0.960 . S
C698 H690 0.929 . S
C698 C699 1.377 . S
C698 C700 1.384 . S
C699 C698 1.377 . S
C699 C705 1.390 . S
C700 H691 0.930 . S
C700 C698 1.384 . S
C700 C701 1.372 . S
C701 C700 1.372 . S
C701 C702 1.400 . S
C701 C706 1.490 . S
C702 H692 0.930 . S
C702 C701 1.400 . S
C702 C705 1.386 . S
H703 C719 0.930 . S
H704 C720 0.931 . S
C705 H693 0.929 . S
C705 C699 1.390 . S
C705 C702 1.386 . S
C706 C701 1.490 . S
C706 C708 1.395 . S
C706 C709 1.403 . S
H707 C713 0.930 . S
C708 H694 0.930 . S
C708 C706 1.395 . S
C708 C711 1.403 . S
C709 C706 1.403 . S
C709 C710 1.524 . S
C709 C713 1.400 . S
C710 H695 0.960 . S
C710 H696 0.960 . S
C710 H697 0.960 . S
C710 C709 1.524 . S
C711 C708 1.403 . S
C711 C712 1.392 . S
C711 C715 1.495 . S
C712 C711 1.392 . S
C712 C713 1.385 . S
C712 C714 1.478 . S
C713 H707 0.930 . S
C713 C709 1.400 . S
C713 C712 1.385 . S
C714 C712 1.478 . S
C714 C716 1.381 . S
C714 C720 1.383 . S
C715 C711 1.495 . S
C715 H721 0.959 . S
C715 H722 0.961 . S
C715 H723 0.960 . S
C716 C714 1.381 . S
C716 C717 1.394 . S
C716 H724 0.930 . S
C717 C716 1.394 . S
C717 C718 1.383 . S
C717 H725 0.929 . S
C718 C717 1.383 . S
C718 C719 1.377 . S
C719 H703 0.930 . S
C719 C718 1.377 . S
C719 C720 1.379 . S
C720 H704 0.931 . S
C720 C714 1.383 . S
C720 C719 1.379 . S
H721 C715 0.959 . S
H722 C715 0.961 . S
H723 C715 0.960 . S
H724 C716 0.930 . S
H725 C717 0.929 . S
H726 C734 0.929 . S
H727 C736 0.930 . S
H728 C738 0.926 1_565 S
H729 C741 0.927 1_565 S
H730 C744 0.930 . S
H731 C746 0.960 . S
H732 C746 0.960 . S
H733 C746 0.960 . S
C734 H726 0.929 . S
C734 C735 1.377 . S
C734 C736 1.384 . S
C735 C734 1.377 . S
C735 C741 1.395 . S
C736 H727 0.930 . S
C736 C734 1.384 . S
C736 C737 1.372 . S
C737 C736 1.372 . S
C737 C738 1.403 . S
C737 C742 1.490 . S
C738 H728 0.926 1_545 S
C738 C737 1.403 . S
C738 C741 1.385 . S
H739 C755 0.930 1_565 S
H740 C756 0.931 . S
C741 H729 0.927 1_545 S
C741 C735 1.395 . S
C741 C738 1.385 . S
C742 C737 1.490 . S
C742 C744 1.395 . S
C742 C745 1.403 1_545 S
H743 C749 0.930 . S
C744 H730 0.930 . S
C744 C742 1.395 . S
C744 C747 1.403 . S
C745 C742 1.403 1_565 S
C745 C746 1.524 . S
C745 C749 1.400 . S
C746 H731 0.960 . S
C746 H732 0.960 . S
C746 H733 0.960 . S
C746 C745 1.524 . S
C747 C744 1.403 . S
C747 C748 1.392 . S
C747 C751 1.495 . S
C748 C747 1.392 . S
C748 C749 1.385 1_545 S
C748 C750 1.478 . S
C749 H743 0.930 . S
C749 C745 1.400 . S
C749 C748 1.385 1_565 S
C750 C748 1.478 . S
C750 C752 1.381 . S
C750 C756 1.383 . S
C751 C747 1.495 . S
C751 H757 0.959 . S
C751 H758 0.961 . S
C751 H759 0.960 . S
C752 C750 1.381 . S
C752 C753 1.394 . S
C752 H760 0.930 . S
C753 C752 1.394 . S
C753 C754 1.383 . S
C753 H761 0.929 . S
C754 C753 1.383 . S
C754 C755 1.377 . S
C755 H739 0.930 1_545 S
C755 C754 1.377 . S
C755 C756 1.379 . S
C756 H740 0.931 . S
C756 C750 1.383 . S
C756 C755 1.379 . S
H757 C751 0.959 . S
H758 C751 0.961 . S
H759 C751 0.960 . S
H760 C752 0.930 . S
H761 C753 0.929 . S
H762 C770 0.929 . S
H763 C772 0.930 . S
H764 C774 0.930 . S
H765 C777 0.929 . S
H766 C780 0.930 . S
H767 C782 0.960 . S
H768 C782 0.960 . S
H769 C782 0.960 . S
C770 H762 0.929 . S
C770 C771 1.377 . S
C770 C772 1.384 . S
C771 C770 1.377 . S
C771 C777 1.390 . S
C772 H763 0.930 . S
C772 C770 1.384 . S
C772 C773 1.372 . S
C773 C772 1.372 . S
C773 C774 1.400 . S
C773 C778 1.490 . S
C774 H764 0.930 . S
C774 C773 1.400 . S
C774 C777 1.386 . S
H775 C791 0.930 . S
H776 C792 0.931 . S
C777 H765 0.929 . S
C777 C771 1.390 . S
C777 C774 1.386 . S
C778 C773 1.490 . S
C778 C780 1.395 . S
C778 C781 1.403 . S
H779 C785 0.930 1_554 S
C780 H766 0.930 . S
C780 C778 1.395 . S
C780 C783 1.403 . S
C781 C778 1.403 . S
C781 C782 1.524 . S
C781 C785 1.400 . S
C782 H767 0.960 . S
C782 H768 0.960 . S
C782 H769 0.960 . S
C782 C781 1.524 . S
C783 C780 1.403 . S
C783 C784 1.391 1_556 S
C783 C787 1.495 . S
C784 C783 1.391 1_554 S
C784 C785 1.384 1_554 S
C784 C786 1.479 . S
C785 H779 0.930 1_556 S
C785 C781 1.400 . S
C785 C784 1.384 1_556 S
C786 C784 1.479 . S
C786 C788 1.381 . S
C786 C792 1.383 . S
C787 C783 1.495 . S
C787 H793 0.959 . S
C787 H794 0.950 1_556 S
C787 H795 0.960 1_556 S
C788 C786 1.381 . S
C788 C789 1.394 . S
C788 H796 0.930 . S
C789 C788 1.394 . S
C789 C790 1.383 . S
C789 H797 0.929 . S
C790 C789 1.383 . S
C790 C791 1.377 . S
C791 H775 0.930 . S
C791 C790 1.377 . S
C791 C792 1.379 . S
C792 H776 0.931 . S
C792 C786 1.383 . S
C792 C791 1.379 . S
H793 C787 0.959 . S
H794 C787 0.950 1_554 S
H795 C787 0.960 1_554 S
H796 C788 0.930 . S
H797 C789 0.929 . S
H798 C806 0.929 . S
H799 C808 0.930 . S
H800 C810 0.926 1_655 S
H801 C813 0.929 1_655 S
H802 C816 0.930 . S
H803 C818 0.960 . S
H804 C818 0.960 . S
H805 C818 0.960 . S
C806 H798 0.929 . S
C806 C807 1.377 . S
C806 C808 1.384 . S
C807 C806 1.377 . S
C807 C813 1.390 . S
C808 H799 0.930 . S
C808 C806 1.384 . S
C808 C809 1.372 . S
C809 C808 1.372 . S
C809 C810 1.403 . S
C809 C814 1.490 . S
C810 H800 0.926 1_455 S
C810 C809 1.403 . S
C810 C813 1.386 . S
H811 C827 0.930 . S
H812 C828 0.931 . S
C813 H801 0.929 1_455 S
C813 C807 1.390 . S
C813 C810 1.386 . S
C814 C809 1.490 . S
C814 C816 1.395 . S
C814 C817 1.403 1_455 S
H815 C821 0.930 . S
C816 H802 0.930 . S
C816 C814 1.395 . S
C816 C819 1.403 . S
C817 C814 1.403 1_655 S
C817 C818 1.524 . S
C817 C821 1.400 . S
C818 H803 0.960 . S
C818 H804 0.960 . S
C818 H805 0.960 . S
C818 C817 1.524 . S
C819 C816 1.403 . S
C819 C820 1.392 . S
C819 C823 1.495 . S
C820 C819 1.392 . S
C820 C821 1.385 1_455 S
C820 C822 1.478 . S
C821 H815 0.930 . S
C821 C817 1.400 . S
C821 C820 1.385 1_655 S
C822 C820 1.478 . S
C822 C824 1.381 . S
C822 C828 1.383 1_455 S
C823 C819 1.495 . S
C823 H829 0.959 . S
C823 H830 0.961 . S
C823 H831 0.960 . S
C824 C822 1.381 . S
C824 C825 1.398 . S
C824 H832 0.930 . S
C825 C824 1.398 . S
C825 C826 1.371 1_455 S
C825 H833 0.938 . S
C826 C825 1.371 1_655 S
C826 C827 1.377 . S
C827 H811 0.930 . S
C827 C826 1.377 . S
C827 C828 1.379 . S
C828 H812 0.931 . S
C828 C822 1.383 1_655 S
C828 C827 1.379 . S
H829 C823 0.959 . S
H830 C823 0.961 . S
H831 C823 0.960 . S
H832 C824 0.930 . S
H833 C825 0.938 . S
C195 C10 3.307 . S
C214 C180 2.929 . S
C231 C55 1.360 . S
C250 C158 1.217 . S
C267 C90 1.718 . S
C286 C172 1.694 . S
C303 C19 2.786 . S
C322 C183 2.734 . S
C358 C161 1.003 . S
C339 C46 1.044 . S
C394 C169 1.843 . S
C375 C99 2.148 . S
C411 C50 2.064 . S
C430 C136 1.746 . S
C447 C95 0.580 . S
C466 C147 0.615 . S
C483 C6 1.438 . S
C502 C125 1.268 . S
C538 C139 1.771 . S
C519 C59 1.801 . S
C574 C150 0.161 . S
C555 C86 0.299 . S
C591 C15 0.990 . S
C610 C128 1.006 . S
C646 C149 1.211 . S
C627 C18 1.266 . S
C663 C49 1.471 . S
C682 C127 1.455 . S
C699 C98 1.440 . S
C718 C138 1.433 . S
C754 C171 1.414 . S
C735 C58 1.405 . S
C790 C182 1.660 . S
C771 C89 1.642 . S
C807 C9 1.507 . S
C826 C160 1.472 . S
