# Generated by pormake.
# Topology fgl, (4,4)-cn, num edge types: 1
# Building blocks:
#     Node 0, Type 0, BuildingBlock: ESEHIV_clean_sbu_0, # of connection points: 4
#     Node 1, Type 0, BuildingBlock: ESEHIV_clean_sbu_0, # of connection points: 4
#     Node 2, Type 0, BuildingBlock: ESEHIV_clean_sbu_0, # of connection points: 4
#     Node 3, Type 0, BuildingBlock: ESEHIV_clean_sbu_0, # of connection points: 4
#     Node 4, Type 0, BuildingBlock: ESEHIV_clean_sbu_0, # of connection points: 4
#     Node 5, Type 0, BuildingBlock: ESEHIV_clean_sbu_0, # of connection points: 4
#     Node 6, Type 0, BuildingBlock: ESEHIV_clean_sbu_0, # of connection points: 4
#     Node 7, Type 0, BuildingBlock: ESEHIV_clean_sbu_0, # of connection points: 4
#     Node 8, Type 0, BuildingBlock: ESEHIV_clean_sbu_0, # of connection points: 4
#     Node 9, Type 0, BuildingBlock: ESEHIV_clean_sbu_0, # of connection points: 4
#     Node 10, Type 0, BuildingBlock: ESEHIV_clean_sbu_0, # of connection points: 4
#     Node 11, Type 0, BuildingBlock: ESEHIV_clean_sbu_0, # of connection points: 4
#     Node 12, Type 0, BuildingBlock: ESEHIV_clean_sbu_0, # of connection points: 4
#     Node 13, Type 0, BuildingBlock: ESEHIV_clean_sbu_0, # of connection points: 4
#     Node 14, Type 0, BuildingBlock: ESEHIV_clean_sbu_0, # of connection points: 4
#     Node 15, Type 0, BuildingBlock: ESEHIV_clean_sbu_0, # of connection points: 4
#     Node 16, Type 0, BuildingBlock: ESEHIV_clean_sbu_0, # of connection points: 4
#     Node 17, Type 0, BuildingBlock: ESEHIV_clean_sbu_0, # of connection points: 4
#     Node 18, Type 1, BuildingBlock: NAHDIM_clean_sbu_0, # of connection points: 4
#     Node 19, Type 1, BuildingBlock: NAHDIM_clean_sbu_0, # of connection points: 4
#     Node 20, Type 1, BuildingBlock: NAHDIM_clean_sbu_0, # of connection points: 4
#     Node 21, Type 1, BuildingBlock: NAHDIM_clean_sbu_0, # of connection points: 4
#     Node 22, Type 1, BuildingBlock: NAHDIM_clean_sbu_0, # of connection points: 4
#     Node 23, Type 1, BuildingBlock: NAHDIM_clean_sbu_0, # of connection points: 4
#     Node 24, Type 1, BuildingBlock: NAHDIM_clean_sbu_0, # of connection points: 4
#     Node 25, Type 1, BuildingBlock: NAHDIM_clean_sbu_0, # of connection points: 4
#     Node 26, Type 1, BuildingBlock: NAHDIM_clean_sbu_0, # of connection points: 4
#     Node 27, Type 1, BuildingBlock: NAHDIM_clean_sbu_0, # of connection points: 4
#     Node 28, Type 1, BuildingBlock: NAHDIM_clean_sbu_0, # of connection points: 4
#     Node 29, Type 1, BuildingBlock: NAHDIM_clean_sbu_0, # of connection points: 4
#     Node 30, Type 1, BuildingBlock: NAHDIM_clean_sbu_0, # of connection points: 4
#     Node 31, Type 1, BuildingBlock: NAHDIM_clean_sbu_0, # of connection points: 4
#     Node 32, Type 1, BuildingBlock: NAHDIM_clean_sbu_0, # of connection points: 4
#     Node 33, Type 1, BuildingBlock: NAHDIM_clean_sbu_0, # of connection points: 4
#     Node 34, Type 1, BuildingBlock: NAHDIM_clean_sbu_0, # of connection points: 4
#     Node 35, Type 1, BuildingBlock: NAHDIM_clean_sbu_0, # of connection points: 4
#     Edge 36, Type (0, 1), BuildingBlock: AJUNOK_clean_linker_0, # of connection points: 2
#     Edge 37, Type (0, 1), BuildingBlock: AJUNOK_clean_linker_0, # of connection points: 2
#     Edge 38, Type (0, 1), BuildingBlock: AJUNOK_clean_linker_0, # of connection points: 2
#     Edge 39, Type (0, 1), BuildingBlock: AJUNOK_clean_linker_0, # of connection points: 2
#     Edge 40, Type (0, 1), BuildingBlock: AJUNOK_clean_linker_0, # of connection points: 2
#     Edge 41, Type (0, 1), BuildingBlock: AJUNOK_clean_linker_0, # of connection points: 2
#     Edge 42, Type (0, 1), BuildingBlock: AJUNOK_clean_linker_0, # of connection points: 2
#     Edge 43, Type (0, 1), BuildingBlock: AJUNOK_clean_linker_0, # of connection points: 2
#     Edge 44, Type (0, 1), BuildingBlock: AJUNOK_clean_linker_0, # of connection points: 2
#     Edge 45, Type (0, 1), BuildingBlock: AJUNOK_clean_linker_0, # of connection points: 2
#     Edge 46, Type (0, 1), BuildingBlock: AJUNOK_clean_linker_0, # of connection points: 2
#     Edge 47, Type (0, 1), BuildingBlock: AJUNOK_clean_linker_0, # of connection points: 2
#     Edge 48, Type (0, 1), BuildingBlock: AJUNOK_clean_linker_0, # of connection points: 2
#     Edge 49, Type (0, 1), BuildingBlock: AJUNOK_clean_linker_0, # of connection points: 2
#     Edge 50, Type (0, 1), BuildingBlock: AJUNOK_clean_linker_0, # of connection points: 2
#     Edge 51, Type (0, 1), BuildingBlock: AJUNOK_clean_linker_0, # of connection points: 2
#     Edge 52, Type (0, 1), BuildingBlock: AJUNOK_clean_linker_0, # of connection points: 2
#     Edge 53, Type (0, 1), BuildingBlock: AJUNOK_clean_linker_0, # of connection points: 2
#     Edge 54, Type (0, 1), BuildingBlock: AJUNOK_clean_linker_0, # of connection points: 2
#     Edge 55, Type (0, 1), BuildingBlock: AJUNOK_clean_linker_0, # of connection points: 2
#     Edge 56, Type (0, 1), BuildingBlock: AJUNOK_clean_linker_0, # of connection points: 2
#     Edge 57, Type (0, 1), BuildingBlock: AJUNOK_clean_linker_0, # of connection points: 2
#     Edge 58, Type (0, 1), BuildingBlock: AJUNOK_clean_linker_0, # of connection points: 2
#     Edge 59, Type (0, 1), BuildingBlock: AJUNOK_clean_linker_0, # of connection points: 2
#     Edge 60, Type (0, 1), BuildingBlock: AJUNOK_clean_linker_0, # of connection points: 2
#     Edge 61, Type (0, 1), BuildingBlock: AJUNOK_clean_linker_0, # of connection points: 2
#     Edge 62, Type (0, 1), BuildingBlock: AJUNOK_clean_linker_0, # of connection points: 2
#     Edge 63, Type (0, 1), BuildingBlock: AJUNOK_clean_linker_0, # of connection points: 2
#     Edge 64, Type (0, 1), BuildingBlock: AJUNOK_clean_linker_0, # of connection points: 2
#     Edge 65, Type (0, 1), BuildingBlock: AJUNOK_clean_linker_0, # of connection points: 2
#     Edge 66, Type (0, 1), BuildingBlock: AJUNOK_clean_linker_0, # of connection points: 2
#     Edge 67, Type (0, 1), BuildingBlock: AJUNOK_clean_linker_0, # of connection points: 2
#     Edge 68, Type (0, 1), BuildingBlock: AJUNOK_clean_linker_0, # of connection points: 2
#     Edge 69, Type (0, 1), BuildingBlock: AJUNOK_clean_linker_0, # of connection points: 2
#     Edge 70, Type (0, 1), BuildingBlock: AJUNOK_clean_linker_0, # of connection points: 2
#     Edge 71, Type (0, 1), BuildingBlock: AJUNOK_clean_linker_0, # of connection points: 2
#     Edge 72, Type (0, 1), BuildingBlock: AJUNOK_clean_linker_0, # of connection points: 2
#     Edge 73, Type (0, 1), BuildingBlock: AJUNOK_clean_linker_0, # of connection points: 2
#     Edge 74, Type (0, 1), BuildingBlock: AJUNOK_clean_linker_0, # of connection points: 2
#     Edge 75, Type (0, 1), BuildingBlock: AJUNOK_clean_linker_0, # of connection points: 2
#     Edge 76, Type (0, 1), BuildingBlock: AJUNOK_clean_linker_0, # of connection points: 2
#     Edge 77, Type (0, 1), BuildingBlock: AJUNOK_clean_linker_0, # of connection points: 2
#     Edge 78, Type (0, 1), BuildingBlock: AJUNOK_clean_linker_0, # of connection points: 2
#     Edge 79, Type (0, 1), BuildingBlock: AJUNOK_clean_linker_0, # of connection points: 2
#     Edge 80, Type (0, 1), BuildingBlock: AJUNOK_clean_linker_0, # of connection points: 2
#     Edge 81, Type (0, 1), BuildingBlock: AJUNOK_clean_linker_0, # of connection points: 2
#     Edge 82, Type (0, 1), BuildingBlock: AJUNOK_clean_linker_0, # of connection points: 2
#     Edge 83, Type (0, 1), BuildingBlock: AJUNOK_clean_linker_0, # of connection points: 2
#     Edge 84, Type (0, 1), BuildingBlock: AJUNOK_clean_linker_0, # of connection points: 2
#     Edge 85, Type (0, 1), BuildingBlock: AJUNOK_clean_linker_0, # of connection points: 2
#     Edge 86, Type (0, 1), BuildingBlock: AJUNOK_clean_linker_0, # of connection points: 2
#     Edge 87, Type (0, 1), BuildingBlock: AJUNOK_clean_linker_0, # of connection points: 2
#     Edge 88, Type (0, 1), BuildingBlock: AJUNOK_clean_linker_0, # of connection points: 2
#     Edge 89, Type (0, 1), BuildingBlock: AJUNOK_clean_linker_0, # of connection points: 2
#     Edge 90, Type (0, 1), BuildingBlock: AJUNOK_clean_linker_0, # of connection points: 2
#     Edge 91, Type (0, 1), BuildingBlock: AJUNOK_clean_linker_0, # of connection points: 2
#     Edge 92, Type (0, 1), BuildingBlock: AJUNOK_clean_linker_0, # of connection points: 2
#     Edge 93, Type (0, 1), BuildingBlock: AJUNOK_clean_linker_0, # of connection points: 2
#     Edge 94, Type (0, 1), BuildingBlock: AJUNOK_clean_linker_0, # of connection points: 2
#     Edge 95, Type (0, 1), BuildingBlock: AJUNOK_clean_linker_0, # of connection points: 2
#     Edge 96, Type (0, 1), BuildingBlock: AJUNOK_clean_linker_0, # of connection points: 2
#     Edge 97, Type (0, 1), BuildingBlock: AJUNOK_clean_linker_0, # of connection points: 2
#     Edge 98, Type (0, 1), BuildingBlock: AJUNOK_clean_linker_0, # of connection points: 2
#     Edge 99, Type (0, 1), BuildingBlock: AJUNOK_clean_linker_0, # of connection points: 2
#     Edge 100, Type (0, 1), BuildingBlock: AJUNOK_clean_linker_0, # of connection points: 2
#     Edge 101, Type (0, 1), BuildingBlock: AJUNOK_clean_linker_0, # of connection points: 2
#     Edge 102, Type (0, 1), BuildingBlock: AJUNOK_clean_linker_0, # of connection points: 2
#     Edge 103, Type (0, 1), BuildingBlock: AJUNOK_clean_linker_0, # of connection points: 2
#     Edge 104, Type (0, 1), BuildingBlock: AJUNOK_clean_linker_0, # of connection points: 2
#     Edge 105, Type (0, 1), BuildingBlock: AJUNOK_clean_linker_0, # of connection points: 2
#     Edge 106, Type (0, 1), BuildingBlock: AJUNOK_clean_linker_0, # of connection points: 2
#     Edge 107, Type (0, 1), BuildingBlock: AJUNOK_clean_linker_0, # of connection points: 2
# Relax obj value: 0.041
# Max RMSD: 0.162
# Mean RMSD: 0.110
data_MOF--net-fgl--node1-ESEHIV_clean_sbu_0--node2-NAHDIM_clean_sbu_0--edge1-AJUNOK_clean_linker_0
_symmetry_space_group_name_H-M    P1
_symmetry_Int_Tables_number       1
_symmetry_cell_setting            triclinic
loop_
_symmetry_equiv_pos_as_xyz
'x, y, z'
_cell_length_a     55.293715
_cell_length_b     56.083471
_cell_length_c     38.050182
_cell_angle_alpha  88.529444
_cell_angle_beta   90.824489
_cell_angle_gamma 119.54264
loop_
_atom_site_label
_atom_site_type_symbol
_atom_site_fract_x
_atom_site_fract_y
_atom_site_fract_z
_atom_type_partial_charge
Cu0 Cu 0.02564 0.54267 0.01531 0.0
N1 N 1.0038 0.55117 0.04412 0.0
N2 N 0.99462 0.57346 0.08547 0.0
C3 C 1.01441 0.57273 0.06578 0.0
C4 C 0.97053 0.55156 0.07528 0.0
C5 C 0.97624 0.53785 0.04989 0.0
O6 O 0.05373 0.57805 0.99734 0.0
C7 C 0.02304 0.50301 0.06049 0.0
O8 O 0.99654 0.49525 0.05676 0.0
H9 H 0.03631 0.58766 0.06669 0.0
H10 H 0.96144 0.51921 0.03712 0.0
N11 N 1.00647 0.51886 0.97833 0.0
N12 N 0.99944 0.49093 0.93341 0.0
C13 C 1.01579 0.50424 0.96107 0.0
C14 C 0.98315 0.51439 0.96133 0.0
C15 C 0.97872 0.49712 0.93368 0.0
C16 C 0.05559 0.58482 0.96494 0.0
O17 O 0.04494 0.56542 0.9416 0.0
H18 H 0.03491 0.50435 0.9678 0.0
H19 H 0.97063 0.52355 0.968 0.0
O20 O 0.04081 0.52468 0.04445 0.0
H21 H 0.95022 0.54545 0.08601 0.0
H22 H 0.96156 0.48977 0.91525 0.0
Cu23 Cu 0.52949 0.55952 0.03071 0.0
N24 N 0.53639 0.56976 0.98056 0.0
N25 N 0.55858 0.58714 0.92952 0.0
C26 C 0.56091 0.58074 0.96345 0.0
C27 C 0.53151 0.57984 0.92528 0.0
C28 C 0.51789 0.56909 0.95674 0.0
O29 O 0.55695 0.5995 0.04348 0.0
C30 C 0.5045 0.50355 1.0002 0.0
O31 O 0.52966 0.51177 0.98838 0.0
H32 H 0.58022 0.58486 0.9759 0.0
H33 H 0.49617 0.5618 0.9621 0.0
N34 N 0.52299 0.54952 0.08088 0.0
N35 N 0.50229 0.53242 0.13265 0.0
C36 C 0.49851 0.53487 0.09781 0.0
C37 C 0.54276 0.55615 0.10566 0.0
C38 C 0.53007 0.54565 0.13758 0.0
C39 C 0.58316 0.60921 0.04556 0.0
O40 O 0.59362 0.59303 0.04043 0.0
H41 H 0.47843 0.52622 0.08498 0.0
H42 H 0.56488 0.56752 0.10086 0.0
O43 O 0.50019 0.51998 0.01823 0.0
H44 H 0.52225 0.58232 0.90119 0.0
H45 H 0.5405 0.54695 0.16234 0.0
Cu46 Cu 0.50679 0.02157 0.02376 0.0
N47 N 0.49002 1.00117 0.98395 0.0
N48 N 0.46706 0.9922 0.93292 0.0
C49 C 0.4705 1.0033 0.96486 0.0
C50 C 0.485 0.98244 0.93198 0.0
C51 C 0.49916 0.98801 0.96356 0.0
O52 O 0.47972 0.02726 0.04864 0.0
C53 C 0.54634 0.06399 0.97839 0.0
O54 O 0.52654 0.05524 0.95461 0.0
H55 H 0.4613 1.01545 0.97271 0.0
H56 H 0.51656 0.98492 0.96988 0.0
N57 N 0.51941 1.004 0.05474 0.0
N58 N 0.54585 1.00229 0.09846 0.0
C59 C 0.53494 0.01668 0.08289 0.0
C60 C 0.52046 0.98062 0.05218 0.0
C61 C 0.53698 0.97959 0.0792 0.0
C62 C 0.4716 0.04413 0.03952 0.0
O63 O 0.48351 0.06085 1.01256 0.0
H64 H 0.53974 0.03708 0.09024 0.0
H65 H 0.51113 0.9661 0.0313 0.0
O66 O 0.54053 0.05459 1.00979 0.0
H67 H 0.48897 0.97367 0.90925 0.0
H68 H 0.54275 0.96391 0.08365 0.0
Cu69 Cu 0.53363 0.04324 0.50026 0.0
N70 N 0.54025 0.03415 0.45588 0.0
N71 N 0.5662 0.03652 0.40987 0.0
C72 C 0.56614 0.04363 0.44346 0.0
C73 C 0.53908 0.02141 0.40106 0.0
C74 C 0.52311 0.01999 0.42947 0.0
O75 O 0.56744 0.05096 0.52694 0.0
C76 C 0.50076 0.06552 0.47817 0.0
O77 O 0.48761 0.04089 0.46503 0.0
H78 H 0.58451 0.0554 0.45915 0.0
H79 H 0.50069 1.00976 0.43038 0.0
N80 N 0.50389 1.01457 0.52418 0.0
N81 N 0.4749 0.99571 0.56945 0.0
C82 C 0.50007 1.0156 0.55875 0.0
C83 C 0.4803 0.99306 0.51244 0.0
C84 C 0.46217 0.98151 0.54043 0.0
C85 C 0.57013 0.02991 0.53388 0.0
O86 O 0.54966 1.00567 0.52546 0.0
H87 H 0.51462 0.03206 0.57518 0.0
H88 H 0.47583 0.98733 0.48523 0.0
O89 O 0.52346 0.07243 0.49492 0.0
H90 H 0.53128 1.01255 0.3756 0.0
H91 H 0.44089 0.96496 0.53927 0.0
Cu92 Cu 0.03726 0.569 0.52842 0.0
N93 N 0.05843 0.55817 0.55735 0.0
N94 N 0.06527 0.53123 0.59645 0.0
C95 C 0.04647 0.53608 0.5793 0.0
C96 C 0.09024 0.55145 0.58515 0.0
C97 C 0.08597 0.5679 0.56084 0.0
O98 O 1.00704 0.5342 0.51229 0.0
C99 C 0.04803 0.61387 0.56626 0.0
O100 O 0.07287 0.61656 0.56302 0.0
H101 H 0.02419 0.52387 0.5827 0.0
H102 H 0.10181 0.5855 0.54656 0.0
N103 N 0.05391 0.59017 0.48738 0.0
N104 N 0.05551 0.61308 0.43738 0.0
C105 C 0.04153 0.6014 0.46744 0.0
C106 C 0.0769 0.59533 0.4695 0.0
C107 C 0.07787 0.60939 0.43857 0.0
C108 C 1.01609 0.5227 0.49183 0.0
O109 O 0.04271 0.53531 0.48437 0.0
H110 H 0.022 0.60015 0.47433 0.0
H111 H 0.09144 0.58866 0.47779 0.0
O112 O 0.02722 0.59221 0.55466 0.0
H113 H 0.11014 0.55383 0.59329 0.0
H114 H 0.09373 0.61627 0.41851 0.0
Cu115 Cu 0.53509 0.59403 0.52516 0.0
N116 N 0.553 0.62182 0.49192 0.0
N117 N 0.58927 0.65192 0.46036 0.0
C118 C 0.58076 0.63681 0.49022 0.0
C119 C 0.5659 0.6465 0.4425 0.0
C120 C 0.54336 0.6279 0.4623 0.0
O121 O 0.56218 0.60097 0.56254 0.0
C122 C 0.52377 0.55435 0.47184 0.0
O123 O 0.54547 0.57406 0.45556 0.0
H124 H 0.59454 0.6348 0.50907 0.0
H125 H 0.52172 0.61807 0.45457 0.0
N126 N 0.50535 0.59542 0.54435 0.0
N127 N 0.4646 0.57773 0.57146 0.0
C128 C 0.48559 0.57378 0.5619 0.0
C129 C 0.49658 0.61397 0.54223 0.0
C130 C 0.47107 0.60292 0.55899 0.0
C131 C 0.55696 0.5898 0.59306 0.0
O132 O 0.5323 0.56872 0.59956 0.0
H133 H 0.48589 0.55475 0.56596 0.0
H134 H 0.50744 0.6336 0.52859 0.0
O135 O 0.51841 0.55823 0.50297 0.0
H136 H 0.56523 0.65425 0.41637 0.0
H137 H 0.45817 0.61234 0.56127 0.0
Cu138 Cu 0.73 0.89833 0.3496 0.0
N139 N 0.75179 0.9325 0.32826 0.0
N140 N 0.76098 0.97358 0.30757 0.0
C141 C 0.7457 0.95281 0.33009 0.0
C142 C 0.77728 0.96611 0.29048 0.0
C143 C 0.77179 0.94073 0.30367 0.0
O144 O 0.71096 0.90502 0.38891 0.0
C145 C 0.72102 0.8662 0.29049 0.0
O146 O 0.74766 0.87575 0.29628 0.0
H147 H 0.72868 0.95138 0.34544 0.0
H148 H 0.78052 0.92853 0.2944 0.0
N149 N 0.75186 0.88447 0.36881 0.0
N150 N 0.76337 0.85249 0.38309 0.0
C151 C 0.74281 0.85756 0.37314 0.0
C152 C 0.7792 0.89713 0.37629 0.0
C153 C 0.7864 0.87737 0.38507 0.0
C154 C 0.72715 0.92189 0.41192 0.0
O155 O 0.75403 0.9318 0.40816 0.0
H156 H 0.72195 0.84201 0.36626 0.0
H157 H 0.79311 0.919 0.37388 0.0
O158 O 0.70764 0.87317 0.31136 0.0
H159 H 0.79099 0.97748 0.26887 0.0
H160 H 0.80711 0.88096 0.39113 0.0
Cu161 Cu 0.19523 0.90388 0.36204 0.0
N162 N 0.16223 0.88707 0.33564 0.0
N163 N 0.12591 0.85249 0.30913 0.0
C164 C 0.15046 0.8608 0.32562 0.0
C165 C 0.122 0.87445 0.309 0.0
C166 C 0.14453 0.89584 0.32524 0.0
O167 O 0.18649 0.88027 0.40411 0.0
C168 C 0.22436 0.91848 0.30157 0.0
O169 O 0.20548 0.92592 0.29616 0.0
H170 H 0.15917 0.84767 0.33199 0.0
H171 H 0.14741 0.91601 0.32999 0.0
N172 N 0.20728 0.9401 0.37548 0.0
N173 N 0.23797 0.98336 0.38955 0.0
C174 C 0.23432 0.95957 0.37677 0.0
C175 C 0.19324 0.95202 0.38799 0.0
C176 C 0.21217 0.97868 0.39689 0.0
C177 C 0.16398 0.87585 0.41882 0.0
O178 O 0.15171 0.88939 0.40695 0.0
H179 H 0.25112 0.95601 0.3695 0.0
H180 H 0.17092 0.94201 0.39098 0.0
O181 O 0.2244 0.9069 0.33087 0.0
H182 H 0.1039 0.87486 0.2985 0.0
H183 H 0.20736 0.99347 0.40789 0.0
Cu184 Cu 0.19776 0.41646 0.39689 0.0
N185 N 0.19471 0.44024 0.36449 0.0
N186 N 0.17791 0.44962 0.31569 0.0
C187 C 0.18153 0.43074 0.33388 0.0
C188 C 0.18913 0.47204 0.33589 0.0
C189 C 0.19968 0.46623 0.36611 0.0
O190 O 0.15929 0.3874 0.40349 0.0
C191 C 0.24783 0.42791 0.37036 0.0
O192 O 0.25044 0.45236 0.37332 0.0
H193 H 0.17297 0.40959 0.32639 0.0
H194 H 0.20909 0.4795 0.38818 0.0
N195 N 0.2129 0.4314 0.44017 0.0
N196 N 0.23632 0.43526 0.48983 0.0
C197 C 0.22665 0.42166 0.45971 0.0
C198 C 0.21361 0.45189 0.45864 0.0
C199 C 0.22796 0.45418 0.48961 0.0
C200 C 0.14384 0.39666 0.41439 0.0
O201 O 0.15545 0.42261 0.42253 0.0
H202 H 0.22909 0.40449 0.45209 0.0
H203 H 0.20434 0.46417 0.45039 0.0
O204 O 0.22442 0.40694 0.37789 0.0
H205 H 0.18893 0.49091 0.32978 0.0
H206 H 0.23216 0.46873 0.51017 0.0
Cu207 Cu 0.22099 0.40316 0.89074 0.0
N208 N 0.25309 0.42855 0.86734 0.0
N209 N 0.28486 0.44229 0.82486 0.0
C210 C 0.25761 0.42758 0.83295 0.0
C211 C 0.29782 0.45396 0.85512 0.0
C212 C 0.27817 0.44531 0.88135 0.0
O213 O 0.22765 0.37278 0.90367 0.0
C214 C 0.16375 0.38427 0.86779 0.0
O215 O 0.15583 0.37044 0.89773 0.0
H216 H 0.24139 0.41462 0.8149 0.0
H217 H 0.2823 0.44909 0.90907 0.0
N218 N 0.21885 0.41758 0.93339 0.0
N219 N 0.20091 0.42485 0.98138 0.0
C220 C 0.19721 0.41894 0.94689 0.0
C221 C 0.23697 0.42326 0.9601 0.0
C222 C 0.22607 0.42797 0.98967 0.0
C223 C 0.23942 0.36412 0.88299 0.0
O224 O 0.23938 0.36937 0.84924 0.0
H225 H 0.17865 0.41459 0.93226 0.0
H226 H 0.25583 0.422 0.95884 0.0
O227 O 0.18951 0.39677 0.85987 0.0
H228 H 0.32012 0.46588 0.85866 0.0
H229 H 0.23494 0.43132 0.01584 0.0
Cu230 Cu 0.70883 0.8989 0.8516 0.0
N231 N 0.72981 0.8839 0.83485 0.0
N232 N 0.73465 0.84854 0.81828 0.0
C233 C 0.7172 0.85863 0.82141 0.0
C234 C 0.75951 0.86846 0.82985 0.0
C235 C 0.75646 0.89033 0.84012 0.0
O236 O 0.68686 0.87152 0.88857 0.0
C237 C 0.70816 0.92093 0.78669 0.0
O238 O 0.73469 0.93003 0.79296 0.0
H239 H 0.69498 0.84686 0.81705 0.0
H240 H 0.77205 0.9087 0.85261 0.0
N241 N 0.72931 0.93345 0.87158 0.0
N242 N 0.73553 0.97306 0.89243 0.0
C243 C 0.71938 0.951 0.87289 0.0
C244 C 0.75283 0.94481 0.89082 0.0
C245 C 0.75672 0.96932 0.90374 0.0
C246 C 0.69065 0.87654 0.92145 0.0
O247 O 0.70244 0.9021 0.93141 0.0
H248 H 0.70003 0.94708 0.86062 0.0
H249 H 0.76531 0.93527 0.89681 0.0
O250 O 0.69068 0.90498 0.80987 0.0
H251 H 0.77818 0.86683 0.83228 0.0
H252 H 0.77297 0.98244 0.9217 0.0
Cu253 Cu 0.19574 0.89881 0.84734 0.0
N254 N 0.17171 0.89789 0.81193 0.0
N255 N 0.14368 0.87971 0.76582 0.0
C256 C 0.15656 0.87517 0.79328 0.0
C257 C 0.15077 0.90639 0.76723 0.0
C258 C 0.16809 0.91762 0.79593 0.0
O259 O 0.17682 0.86211 0.8678 0.0
C260 C 0.24304 0.93333 0.81168 0.0
O261 O 0.23073 0.94813 0.81413 0.0
H262 H 0.15625 0.85597 0.79863 0.0
H263 H 0.17816 0.93881 0.80362 0.0
N264 N 0.20264 0.92387 0.88263 0.0
N265 N 0.22253 0.94773 0.93087 0.0
C266 C 0.22104 0.9287 0.90869 0.0
C267 C 0.19207 0.94052 0.88823 0.0
C268 C 0.20436 0.95533 0.9181 0.0
C269 C 0.15473 0.85628 0.88457 0.0
O270 O 0.14874 0.87588 0.88954 0.0
H271 H 0.23301 0.91822 0.91142 0.0
H272 H 0.17669 0.9419 0.87174 0.0
O273 O 0.2312 0.90931 0.82549 0.0
H274 H 0.14437 0.91709 0.74852 0.0
H275 H 0.20065 0.97086 0.92903 0.0
Cu276 Cu 0.40056 0.23963 0.70079 0.0
N277 N 0.41555 0.2756 0.68299 0.0
N278 N 0.41507 0.31458 0.67076 0.0
C279 C 0.40165 0.28949 0.68608 0.0
C280 C 0.43838 0.31663 0.65696 0.0
C281 C 0.43876 0.29254 0.66483 0.0
O282 O 0.38099 0.24041 0.74322 0.0
C283 C 0.39584 0.21659 0.63682 0.0
O284 O 0.42206 0.23572 0.63834 0.0
H285 H 0.38161 0.28103 0.6988 0.0
H286 H 0.45466 0.28775 0.65746 0.0
N287 N 0.42597 0.2285 0.7155 0.0
N288 N 0.43771 0.19708 0.7326 0.0
C289 C 0.41726 0.20352 0.73021 0.0
C290 C 0.45309 0.23842 0.70828 0.0
C291 C 0.46035 0.21893 0.71867 0.0
C292 C 0.39765 0.25607 0.76676 0.0
O293 O 0.42448 0.26749 0.76088 0.0
H294 H 0.39568 0.18944 0.73639 0.0
H295 H 0.46614 0.25756 0.69444 0.0
O296 O 0.38006 0.21439 0.66245 0.0
H297 H 0.45403 0.33429 0.64253 0.0
H298 H 0.48033 0.22021 0.71491 0.0
Cu299 Cu 0.85618 0.22075 0.67187 0.0
N300 N 0.85768 0.24101 0.63131 0.0
N301 N 0.87487 0.26588 0.58199 0.0
C302 C 0.87564 0.24738 0.60457 0.0
C303 C 0.85506 0.27081 0.59435 0.0
C304 C 0.8444 0.25534 0.62476 0.0
O305 O 0.89004 0.243 0.69993 0.0
C306 C 0.82573 0.17139 0.63804 0.0
O307 O 0.81439 0.18562 0.62544 0.0
H308 H 0.88992 0.23954 0.60241 0.0
H309 H 0.82913 0.2557 0.64179 0.0
N310 N 0.82747 0.21626 0.70103 0.0
N311 N 0.79838 0.19793 0.74638 0.0
C312 C 0.81245 0.19363 0.72095 0.0
C313 C 0.82249 0.23555 0.71393 0.0
C314 C 0.80426 0.22417 0.74176 0.0
C315 C 0.91441 0.25903 0.68799 0.0
O316 O 0.91981 0.25715 0.65507 0.0
H317 H 0.81347 0.17498 0.71839 0.0
H318 H 0.83321 0.25693 0.70582 0.0
O319 O 0.84644 0.18321 0.659 0.0
H320 H 0.85011 0.28597 0.58365 0.0
H321 H 0.79786 0.23499 0.75919 0.0
Cu322 Cu 0.85997 0.69431 0.66881 0.0
N323 N 0.84488 0.67561 0.62748 0.0
N324 N 0.82551 0.67012 0.5743 0.0
C325 C 0.82803 0.68056 0.60653 0.0
C326 C 0.84094 0.65751 0.57529 0.0
C327 C 0.85296 0.66098 0.60824 0.0
O328 O 0.83147 0.69982 0.69078 0.0
C329 C 0.90269 0.73744 0.62684 0.0
O330 O 0.8846 0.7292 0.60097 0.0
H331 H 0.81982 0.6937 0.61385 0.0
H332 H 0.86833 0.65539 0.61648 0.0
N333 N 0.87103 0.67509 0.69936 0.0
N334 N 0.89561 0.66999 0.74295 0.0
C335 C 0.89153 0.6878 0.72289 0.0
C336 C 0.8618 0.64812 0.70431 0.0
C337 C 0.87702 0.64489 0.7314 0.0
C338 C 0.82733 0.69847 0.72381 0.0
O339 O 0.84478 0.69603 0.74532 0.0
H340 H 0.9029 0.70982 0.72571 0.0
H341 H 0.84494 0.63202 0.68979 0.0
O342 O 0.89457 0.72766 0.65772 0.0
H343 H 0.84532 0.64867 0.55296 0.0
H344 H 0.87394 0.62564 0.74254 0.0
Cu345 Cu 0.84377 0.69852 0.13417 0.0
N346 N 0.85352 0.68737 0.09337 0.0
N347 N 0.88074 0.68485 0.0525 0.0
C348 C 0.87913 0.69942 0.07916 0.0
C349 C 0.85506 0.66293 0.04959 0.0
C350 C 0.83834 0.66445 0.075 0.0
O351 O 0.87411 0.70638 0.16773 0.0
C352 C 0.81916 0.72449 0.09619 0.0
O353 O 0.81479 0.70483 0.07466 0.0
H354 H 0.89653 0.7179 0.08915 0.0
H355 H 0.81686 0.64955 0.08025 0.0
N356 N 0.8118 0.67 0.15452 0.0
N357 N 0.78191 0.64892 0.19844 0.0
C358 C 0.80865 0.66535 0.18941 0.0
C359 C 0.78603 0.656 0.14085 0.0
C360 C 0.76745 0.64308 0.16804 0.0
C361 C 0.87639 0.6853 0.17596 0.0
O362 O 0.8594 0.6619 0.16123 0.0
H363 H 0.82518 0.67635 0.20816 0.0
H364 H 0.78082 0.6572 0.11361 0.0
O365 O 0.83371 0.72728 0.12381 0.0
H366 H 0.84878 0.64689 0.03057 0.0
H367 H 0.745 0.63218 0.16598 0.0
Cu368 Cu 0.36033 0.23058 0.20797 0.0
N369 N 0.33365 0.19475 0.19729 0.0
N370 N 0.31703 0.15014 0.1886 0.0
C371 C 0.339 0.17382 0.19878 0.0
C372 C 0.29705 0.15639 0.17987 0.0
C373 C 0.30731 0.18398 0.18552 0.0
O374 O 0.38478 0.22577 0.24213 0.0
C375 C 0.35831 0.25403 0.14425 0.0
O376 O 0.33318 0.24471 0.15679 0.0
H377 H 0.35905 0.17617 0.20606 0.0
H378 H 0.29646 0.19536 0.1808 0.0
N379 N 0.34522 0.24931 0.23076 0.0
N380 N 0.34371 0.28423 0.25542 0.0
C381 C 0.35981 0.27577 0.23977 0.0
C382 C 0.3189 0.24065 0.24092 0.0
C383 C 0.31789 0.26226 0.25599 0.0
C384 C 0.37226 0.21408 0.27084 0.0
O385 O 0.34637 0.20847 0.27447 0.0
H386 H 0.38166 0.28875 0.2339 0.0
H387 H 0.30169 0.22017 0.23747 0.0
O388 O 0.37576 0.2506 0.16314 0.0
H389 H 0.27663 0.14209 0.16989 0.0
H390 H 0.29961 0.26191 0.26647 0.0
Cu391 Cu 0.85468 0.2566 0.17162 0.0
N392 N 0.83874 0.2531 0.12727 0.0
N393 N 0.81594 0.23241 0.07855 0.0
C394 C 0.8294 0.23071 0.10749 0.0
C395 C 0.81706 0.25695 0.08 0.0
C396 C 0.83101 0.26962 0.11026 0.0
O397 O 0.82848 0.22471 0.1988 0.0
C398 C 0.9072 0.27401 0.14334 0.0
O399 O 0.89684 0.28201 0.11731 0.0
H400 H 0.8313 0.21297 0.11505 0.0
H401 H 0.83435 0.28902 0.1197 0.0
N402 N 0.86084 0.28837 0.19349 0.0
N403 N 0.87705 0.31845 0.2368 0.0
C404 C 0.86407 0.29176 0.22841 0.0
C405 C 0.87221 0.31381 0.17921 0.0
C406 C 0.88221 0.33245 0.20594 0.0
C407 C 0.80561 0.22339 0.20716 0.0
O408 O 0.80191 0.2443 0.19919 0.0
H409 H 0.86015 0.27523 0.24688 0.0
H410 H 0.87584 0.31862 0.15143 0.0
O411 O 0.89139 0.26017 0.16879 0.0
H412 H 0.80812 0.26501 0.06087 0.0
H413 H 0.8945 0.35451 0.20282 0.0
C414 C 1.00219 0.64649 0.19614 0.0
O415 O 0.97823 0.64162 0.20901 0.0
O416 O 0.98565 0.68793 0.24319 0.0
Zn417 Zn 0.02033 0.68428 0.25341 0.0
O418 O 0.02033 0.66125 0.29692 0.0
C419 C 0.04629 0.74017 0.27448 0.0
O420 O 0.02068 0.73074 0.28543 0.0
O421 O 0.02451 0.66485 0.21037 0.0
C422 C 0.02652 0.66951 0.32844 0.0
O423 O 0.03031 0.69383 0.33601 0.0
C424 C 0.96166 0.67654 0.25713 0.0
O425 O 0.95634 0.65925 0.2837 0.0
O426 O 0.05224 0.72377 0.25905 0.0
C427 C 0.43389 0.47219 0.38696 0.0
O428 O 0.40842 0.46162 0.39899 0.0
O429 O 0.37166 0.44963 0.32851 0.0
Zn430 Zn 0.40798 0.45039 0.31667 0.0
O431 O 0.42576 0.47363 0.27233 0.0
C432 C 0.37691 0.39574 0.29165 0.0
O433 O 0.36138 0.40598 0.27996 0.0
O434 O 0.43747 0.46877 0.35489 0.0
C435 C 0.42542 0.4649 0.24163 0.0
O436 O 0.41089 0.43848 0.23605 0.0
C437 C 0.35308 0.43028 0.34734 0.0
O438 O 0.35839 0.41162 0.36108 0.0
O439 O 0.399 0.41118 0.30863 0.0
C440 C 0.71724 0.04514 0.27589 0.0
O441 O 0.72353 0.06742 0.29323 0.0
O442 O 0.65356 0.05241 0.28794 0.0
Zn443 Zn 0.67816 0.0583 0.24601 0.0
O444 O 0.70836 0.09753 0.2378 0.0
C445 C 0.63191 0.04877 0.20419 0.0
O446 O 0.63101 0.06445 0.2286 0.0
O447 O 0.69767 0.03653 0.25342 0.0
C448 C 0.70864 0.1194 0.24642 0.0
O449 O 0.68665 0.11772 0.26157 0.0
C450 C 0.65914 0.06456 0.3171 0.0
O451 O 0.68465 0.08395 0.32357 0.0
O452 O 0.65211 0.04395 0.20443 0.0
C453 C 0.02617 0.42966 0.83473 0.0
O454 O 0.03946 0.41722 0.84704 0.0
O455 O 0.0554 0.4449 0.7251 0.0
Zn456 Zn 0.03973 0.41574 0.76582 0.0
O457 O 0.06927 0.4093 0.79182 0.0
C458 C 0.99315 0.35776 0.76336 0.0
O459 O 0.99361 0.35917 0.79778 0.0
O460 O 0.02282 0.43047 0.80155 0.0
C461 C 0.08881 0.40641 0.77888 0.0
O462 O 0.09251 0.40881 0.74467 0.0
C463 C 0.03826 0.4444 0.70182 0.0
O464 O 1.01213 0.42512 0.70453 0.0
O465 O 1.01019 0.37885 0.74545 0.0
C466 C 0.62957 0.64039 0.71379 0.0
O467 O 0.62982 0.62448 0.73957 0.0
O468 O 0.64313 0.66039 0.80343 0.0
Zn469 Zn 0.66747 0.68123 0.76117 0.0
O470 O 0.70196 0.67761 0.75449 0.0
C471 C 0.68944 0.73268 0.7963 0.0
O472 O 0.68654 0.71658 0.82348 0.0
O473 O 0.64401 0.66629 0.71692 0.0
C474 C 0.7229 0.68697 0.775 0.0
O475 O 0.72167 0.6973 0.80503 0.0
C476 C 0.64471 0.64291 0.82393 0.0
O477 O 0.66458 0.63694 0.81905 0.0
O478 O 0.68115 0.72207 0.76625 0.0
C479 C 0.43439 1.00874 0.7017 0.0
O480 O 0.44207 1.00326 0.73227 0.0
O481 O 0.42775 0.0259 0.78727 0.0
Zn482 Zn 0.40996 0.03348 0.74475 0.0
O483 O 0.42246 0.07422 0.73996 0.0
C484 C 0.3563 0.98623 0.75877 0.0
O485 O 0.37118 0.97386 0.76164 0.0
O486 O 0.42037 0.02117 0.70072 0.0
C487 C 0.41386 0.08564 0.76108 0.0
O488 O 0.39693 0.07065 0.78646 0.0
C489 C 0.41598 0.01986 0.81719 0.0
O490 O 0.39263 0.02028 0.82093 0.0
O491 O 0.36842 1.01171 0.75093 0.0
C492 C 0.69405 0.96693 0.52876 0.0
O493 O 0.66797 0.95946 0.53521 0.0
O494 O 0.67094 1.00616 0.58427 0.0
Zn495 Zn 0.70653 1.00317 0.59174 0.0
O496 O 0.70509 0.98127 0.6373 0.0
C497 C 0.75625 0.05293 0.6218 0.0
O498 O 0.75429 0.03671 0.64845 0.0
O499 O 0.71291 0.9846 0.54866 0.0
C500 C 0.68504 0.96757 0.65869 0.0
O501 O 0.6609 0.96603 0.65234 0.0
C502 C 0.6723 0.02796 0.57092 0.0
O503 O 0.69677 0.04833 0.56191 0.0
O504 O 0.7393 0.04289 0.59611 0.0
C505 C 0.08475 0.79743 0.66166 0.0
O506 O 0.06097 0.77581 0.67027 0.0
O507 O 0.03069 0.76818 0.60185 0.0
Zn508 Zn 0.06933 0.77431 0.59275 0.0
O509 O 0.08517 0.79324 0.5458 0.0
C510 C 0.04659 0.71582 0.58528 0.0
O511 O 0.02534 0.71791 0.57311 0.0
O512 O 0.0935 0.80014 0.63031 0.0
C513 C 0.1109 0.8027 0.53927 0.0
O514 O 0.1264 0.79909 0.56295 0.0
C515 C 1.01727 0.77793 0.58527 0.0
O516 O 0.02803 0.79313 0.5568 0.0
O517 O 0.06812 0.73741 0.59554 0.0
C518 C 0.37187 0.38991 0.6624 0.0
O519 O 0.37079 0.40251 0.69045 0.0
O520 O 0.33045 0.42002 0.67901 0.0
Zn521 Zn 0.34711 0.42046 0.63223 0.0
O522 O 0.3773 0.45897 0.62259 0.0
C523 C 0.29691 0.4144 0.6001 0.0
O524 O 0.2918 0.41775 0.63265 0.0
O525 O 0.36292 0.39432 0.63329 0.0
C526 C 0.37107 0.47752 0.61484 0.0
O527 O 0.34488 0.47121 0.61288 0.0
C528 C 0.34195 0.43956 0.70048 0.0
O529 O 0.36659 0.46041 0.69318 0.0
O530 O 0.31846 0.41252 0.5938 0.0
C531 C 0.68357 0.80517 0.1592 0.0
O532 O 0.66465 0.80608 0.13884 0.0
O533 O 0.69306 0.80204 0.05877 0.0
Zn534 Zn 0.69674 0.77772 0.0989 0.0
O535 O 0.73361 0.77613 0.09776 0.0
C536 C 0.65612 0.72658 0.06519 0.0
O537 O 0.666 0.74198 0.03675 0.0
O538 O 0.69737 0.79424 0.14762 0.0
C539 C 0.73809 0.76138 0.0767 0.0
O540 O 0.71922 0.74758 0.05289 0.0
C541 C 0.70065 0.80384 0.02677 0.0
O542 O 0.71372 0.79079 0.0175 0.0
O543 O 0.66468 0.73739 0.09519 0.0
C544 C 0.29543 0.98423 0.05226 0.0
O545 O 0.31971 0.98544 0.05031 0.0
O546 O 0.29404 0.97664 0.16367 0.0
Zn547 Zn 0.31303 1.00447 0.12413 0.0
O548 O 0.35196 1.0115 0.11406 0.0
C549 C 0.31999 0.05001 0.16698 0.0
O550 O 0.32682 0.03779 0.19191 0.0
O551 O 0.28869 0.99089 0.08067 0.0
C552 C 0.36786 0.03178 0.09431 0.0
O553 O 0.35862 0.04782 0.08164 0.0
C554 C 0.30448 0.97201 0.1913 0.0
O555 O 0.33153 0.98577 0.19603 0.0
O556 O 0.31401 0.03968 0.1366 0.0
C557 C 0.12365 0.41481 0.08858 0.0
O558 O 0.12986 0.43575 0.10875 0.0
O559 O 0.09827 0.40061 0.17826 0.0
Zn560 Zn 0.07695 0.39268 0.13256 0.0
O561 O 0.07017 0.42354 0.11929 0.0
C562 C 0.02595 0.34362 0.1588 0.0
O563 O 0.03635 0.35131 0.19042 0.0
O564 O 0.10129 0.39244 0.09435 0.0
C565 C 0.04885 0.42465 0.1287 0.0
O566 O 0.03027 0.40489 0.14883 0.0
C567 C 0.1042 0.42167 0.19618 0.0
O568 O 0.09398 0.43761 0.18672 0.0
O569 O 0.04 0.35753 0.13227 0.0
C570 C 0.36719 0.3035 0.8819 0.0
O571 O 0.34234 0.30113 0.88224 0.0
O572 O 0.34382 0.34325 0.92652 0.0
Zn573 Zn 0.37692 0.33878 0.94356 0.0
O574 O 0.36817 0.31649 0.99001 0.0
C575 C 0.4103 0.39366 0.97303 0.0
O576 O 0.38721 0.3858 0.99062 0.0
O577 O 0.38495 0.31827 0.90503 0.0
C578 C 0.38666 0.31584 1.0099 0.0
O579 O 0.41287 0.33029 1.00054 0.0
C580 C 0.32277 0.33946 0.94425 0.0
O581 O 0.32131 0.33247 0.9777 0.0
O582 O 0.41101 0.37713 0.95116 0.0
C583 C 0.75897 0.14496 0.97984 0.0
O584 O 0.77045 0.13039 0.97064 0.0
O585 O 0.67338 0.09689 0.94161 0.0
Zn586 Zn 0.71391 0.11093 0.93097 0.0
O587 O 0.72475 0.12927 0.88308 0.0
C588 C 0.70658 0.05686 0.92088 0.0
O589 O 0.68191 0.05211 0.91027 0.0
O590 O 0.73568 0.13967 0.96661 0.0
C591 C 0.74846 0.13386 0.87273 0.0
O592 O 0.76279 0.12626 0.89334 0.0
C593 C 0.66009 0.1086 0.92998 0.0
O594 O 0.67254 0.12989 0.90846 0.0
O595 O 0.72354 0.08033 0.93271 0.0
C596 C 0.04247 0.67902 0.94103 0.0
O597 O 0.05181 0.69969 0.96252 0.0
O598 O 0.98058 0.69377 0.95286 0.0
Zn599 Zn 1.00808 0.70092 0.91379 0.0
O600 O 0.04025 0.73961 0.91341 0.0
C601 C 0.97088 0.70219 0.86158 0.0
O602 O 0.97032 0.71948 0.88375 0.0
O603 O 0.02343 0.67533 0.91914 0.0
C604 C 0.06218 0.74514 0.89655 0.0
O605 O 0.06268 0.72568 0.87861 0.0
C606 C 0.97694 0.71227 0.96639 0.0
O607 O 0.993 0.73793 0.95636 0.0
O608 O 0.98674 0.69224 0.86816 0.0
C609 C 0.36944 0.14251 0.51847 0.0
O610 O 0.34487 0.12101 0.51351 0.0
O611 O 0.39018 0.15373 0.40933 0.0
Zn612 Zn 0.38693 0.12805 0.45083 0.0
O613 O 0.41708 0.11635 0.45106 0.0
C614 C 0.34394 0.08129 0.41569 0.0
O615 O 0.3635 0.09148 0.39165 0.0
O616 O 0.3888 0.14807 0.49638 0.0
C617 C 0.43954 0.12645 0.46906 0.0
O618 O 0.44579 0.14757 0.48886 0.0
C619 C 0.4044 0.16056 0.38105 0.0
O620 O 0.42149 0.15107 0.37568 0.0
O621 O 0.34891 0.09339 0.44502 0.0
C622 C 0.93358 0.35266 0.36954 0.0
O623 O 0.92076 0.35074 0.39916 0.0
O624 O 0.9537 0.33931 0.45111 0.0
Zn625 Zn 0.97907 0.36859 0.41682 0.0
O626 O 1.0169 0.37115 0.4111 0.0
C627 C 0.97046 0.41012 0.45308 0.0
O628 O 0.94992 0.38951 0.46993 0.0
O629 O 0.95939 0.36033 0.37022 0.0
C630 C 0.02547 0.35479 0.42137 0.0
O631 O 1.00866 0.33237 0.43915 0.0
C632 C 0.95924 0.33722 0.48312 0.0
O633 O 0.98412 0.35415 0.49535 0.0
O634 O 0.98484 0.40548 0.43128 0.0
C635 C 0.7572 0.66223 0.33941 0.0
O636 O 0.75966 0.64933 0.36735 0.0
O637 O 0.76871 0.68486 0.42854 0.0
Zn638 Zn 0.75055 0.69623 0.39023 0.0
O639 O 0.76654 0.7373 0.38773 0.0
C640 C 0.70351 0.6917 0.42542 0.0
O641 O 0.72326 0.71128 0.44387 0.0
O642 O 0.7535 0.68264 0.34319 0.0
C643 C 0.75115 0.74516 0.37215 0.0
O644 O 0.72843 0.72702 0.35632 0.0
C645 C 0.78121 0.70086 0.45371 0.0
O646 O 0.78285 0.72503 0.45356 0.0
O647 O 0.71016 0.6806 0.40153 0.0
C648 C 1.01115 0.4628 0.10033 0.0
C649 C 0.03133 0.48529 0.08069 0.0
C650 C 1.01732 0.44391 0.11694 0.0
C651 C 0.0439 0.44664 0.11439 0.0
H652 H 0.99012 0.45931 0.10233 0.0
H653 H 1.00081 0.42654 0.13086 0.0
S654 S 0.10501 0.50337 0.06897 0.0
N655 N 0.07961 0.51033 0.06177 0.0
N656 N 0.09128 0.4748 0.09299 0.0
C657 C 0.06469 0.46972 0.09617 0.0
C658 C 0.0584 0.48905 0.07934 0.0
C659 C 0.59597 0.65321 0.07645 0.0
C660 C 0.60201 0.63895 0.05118 0.0
C661 C 0.61395 0.68142 0.0819 0.0
C662 C 0.63806 0.69647 0.06143 0.0
H663 H 0.57739 0.64243 0.09234 0.0
H664 H 0.60859 0.69165 0.10157 0.0
S665 S 0.66292 0.66876 0.99158 0.0
N666 N 0.63395 0.64201 1.00588 0.0
N667 N 0.66697 0.69486 0.01505 0.0
C668 C 0.64414 0.68239 0.03601 0.0
C669 C 0.62634 0.65369 0.03117 0.0
C670 C 0.43479 0.05783 0.04228 0.0
C671 C 0.44663 0.04245 0.05636 0.0
C672 C 0.40978 0.05472 0.05535 0.0
C673 C 0.39541 0.03603 0.08303 0.0
H674 H 0.44451 0.07195 0.02032 0.0
H675 H 0.40133 0.06663 0.04294 0.0
S676 S 0.41871 0.99258 0.13146 0.0
N677 N 0.44288 1.00911 0.10138 0.0
N678 N 0.39589 1.00323 0.12571 0.0
C679 C 0.40748 0.02122 0.09825 0.0
C680 C 0.43304 0.02445 0.08501 0.0
C681 C 0.46242 0.07336 0.45537 0.0
C682 C 0.48744 0.08319 0.47465 0.0
C683 C 0.4477 0.08779 0.45306 0.0
C684 C 0.45713 0.11288 0.46995 0.0
H685 H 0.45363 0.05394 0.4422 0.0
H686 H 0.42837 0.07877 0.4384 0.0
S687 S 0.52257 0.14897 0.52173 0.0
N688 N 0.52178 0.12054 0.50949 0.0
N689 N 0.49423 0.14781 0.50521 0.0
C690 C 0.48261 0.12351 0.48848 0.0
C691 C 0.4977 0.10869 0.49079 0.0
C692 C 0.9818 0.47303 0.50253 0.0
C693 C 0.99885 0.49453 0.47925 0.0
C694 C 0.97144 0.44552 0.49329 0.0
C695 C 0.97798 0.43878 0.46061 0.0
H696 H 0.97804 0.47746 0.5288 0.0
H697 H 0.95958 0.42956 0.51261 0.0
S698 S 1.0179 0.48785 0.38846 0.0
N699 N 0.0189 0.50736 0.42083 0.0
N700 N 0.99952 0.45598 0.4034 0.0
C701 C 0.99328 0.46019 0.43629 0.0
C702 C 1.00368 0.48799 0.44565 0.0
C703 C 0.6389 0.68213 0.47121 0.0
C704 C 0.61744 0.66539 0.44818 0.0
C705 C 0.66673 0.69117 0.46312 0.0
C706 C 0.67405 0.68335 0.43194 0.0
H707 H 0.63395 0.68743 0.49625 0.0
H708 H 0.68248 0.70356 0.48209 0.0
S709 S 0.62542 0.64091 0.36194 0.0
N710 N 0.60515 0.64233 0.39231 0.0
N711 N 0.65751 0.65924 0.37679 0.0
C712 C 0.65277 0.66746 0.408 0.0
C713 C 0.62443 0.65853 0.41616 0.0
C714 C 0.06518 0.63133 0.98255 0.0
C715 C 0.05995 0.61253 0.95563 0.0
C716 C 0.06125 0.65397 0.97699 0.0
C717 C 0.05184 0.65855 0.9444 0.0
H718 H 0.0705 0.62758 1.00884 0.0
H719 H 0.0638 0.66683 0.99907 0.0
S720 S 0.04176 0.6196 0.86304 0.0
N721 N 0.0499 0.60315 0.89336 0.0
N722 N 0.04222 0.64554 0.88318 0.0
C723 C 0.04937 0.64168 0.91631 0.0
C724 C 0.05361 0.61876 0.92184 0.0
C725 C 0.45496 0.46582 1.00861 0.0
C726 C 0.48105 0.47538 0.99259 0.0
C727 C 0.4325 0.43956 1.00207 0.0
C728 C 0.43488 0.42149 0.97907 0.0
H729 H 0.45176 0.47868 0.02657 0.0
H730 H 0.41303 0.43348 0.01528 0.0
S731 S 0.49858 0.43632 0.93002 0.0
N732 N 0.50783 0.46439 0.95237 0.0
N733 N 0.46571 0.41526 0.94012 0.0
C734 C 0.46083 0.43074 0.96277 0.0
C735 C 0.48381 0.45753 0.96952 0.0
C736 C 0.59569 0.07541 0.9873 0.0
C737 C 0.57588 0.07866 0.96719 0.0
C738 C 0.62279 0.08523 0.97501 0.0
C739 C 0.63142 0.09917 0.9424 0.0
H740 H 0.59001 0.0642 1.01218 0.0
H741 H 0.63705 0.08171 0.99119 0.0
S742 S 0.58826 0.1148 0.88068 0.0
N743 N 0.56714 0.09783 0.91365 0.0
N744 N 0.61838 0.11692 0.89091 0.0
C745 C 0.61222 0.10358 0.92263 0.0
C746 C 0.58439 0.09316 0.93491 0.0
C747 C 0.59578 1.00831 0.56282 0.0
C748 C 0.59652 0.03176 0.54721 0.0
C749 C 0.62022 1.00753 0.57122 0.0
C750 C 0.64665 0.03011 0.56417 0.0
H751 H 0.57604 0.99002 0.56794 0.0
H752 H 0.61828 0.98875 0.58256 0.0
S753 S 0.66019 0.09701 0.52466 0.0
N754 N 0.62596 0.07849 0.52609 0.0
N755 N 0.67192 0.07727 0.54171 0.0
C756 C 0.64771 0.05408 0.54954 0.0
C757 C 0.62271 0.05487 0.54117 0.0
C758 C 0.02344 0.64145 0.56426 0.0
C759 C 0.04569 0.63807 0.57653 0.0
C760 C 0.02354 0.66635 0.56822 0.0
C761 C 0.04588 0.6889 0.58463 0.0
H762 H 1.00642 0.62524 0.54999 0.0
H763 H 1.00633 0.66816 0.5572 0.0
S764 S 0.10739 0.68924 0.62566 0.0
N765 N 0.08933 0.65842 0.60896 0.0
N766 N 0.08954 0.70505 0.61632 0.0
C767 C 0.06749 0.6852 0.59878 0.0
C768 C 0.06737 0.65986 0.59476 0.0
C769 C 0.44196 0.54028 0.61448 0.0
C770 C 0.43968 0.55688 0.58782 0.0
C771 C 0.41924 0.5151 0.62415 0.0
C772 C 0.39331 0.5058 0.6078 0.0
H773 H 0.46199 0.5461 0.62632 0.0
H774 H 0.42229 0.50239 0.64364 0.0
S775 S 0.37573 0.54296 0.53915 0.0
N776 N 0.40914 0.56338 0.54709 0.0
N777 N 0.36586 0.51614 0.56596 0.0
C778 C 0.39011 0.52318 0.58313 0.0
C779 C 0.41346 0.54879 0.573 0.0
C780 C 0.78358 0.8225 0.37261 0.0
C781 C 0.76152 0.82593 0.38472 0.0
C782 C 0.78056 0.79625 0.36954 0.0
C783 C 0.75525 0.77272 0.37789 0.0
H784 H 0.80287 0.84008 0.36412 0.0
H785 H 0.79767 0.7943 0.3593 0.0
S786 S 0.69295 0.77054 0.41618 0.0
N787 N 0.71501 0.8035 0.40974 0.0
N788 N 0.70896 0.75432 0.40222 0.0
C789 C 0.7336 0.77587 0.39156 0.0
C790 C 0.73684 0.80245 0.39543 0.0
C791 C 0.26903 0.02276 0.42652 0.0
C792 C 0.26412 1.00811 0.39529 0.0
C793 C 0.29483 0.04626 0.43303 0.0
C794 C 0.31665 0.05628 0.40834 0.0
H795 H 0.25298 1.01566 0.44636 0.0
H796 H 0.29765 0.05662 0.45764 0.0
S797 S 0.31322 0.0263 0.321 0.0
N798 N 0.2825 1.00595 0.33872 0.0
N799 N 0.3307 0.04994 0.35041 0.0
C800 C 0.31162 0.04201 0.3766 0.0
C801 C 0.28549 0.018 0.37023 0.0
C802 C 0.09666 0.36042 0.4348 0.0
C803 C 0.11332 0.38144 0.41078 0.0
C804 C 0.06788 0.35084 0.43696 0.0
C805 C 0.05497 0.36224 0.41544 0.0
H806 H 0.10614 0.35248 0.45334 0.0
H807 H 0.05598 0.33544 0.45687 0.0
S808 S 0.08948 0.41538 0.34518 0.0
N809 N 0.11478 0.41154 0.36297 0.0
N810 N 0.06101 0.39371 0.36673 0.0
C811 C 0.07135 0.38212 0.38988 0.0
C812 C 0.10045 0.39169 0.38768 0.0
C813 C 0.15019 0.39764 0.81008 0.0
C814 C 0.14352 0.38823 0.8452 0.0
C815 C 0.13233 0.40317 0.78893 0.0
C816 C 0.10716 0.40002 0.80204 0.0
H817 H 0.16946 0.40087 0.79875 0.0
H818 H 0.1386 0.41038 0.76214 0.0
S819 S 0.07984 0.37596 0.89236 0.0
N820 N 0.10964 0.37585 0.89206 0.0
N821 N 0.07643 0.3865 0.85264 0.0
C822 C 0.10018 0.39053 0.83711 0.0
C823 C 0.1182 0.38455 0.85853 0.0
C824 C 0.70744 0.80714 0.78324 0.0
C825 C 0.72623 0.82042 0.81082 0.0
C826 C 0.69622 0.77892 0.778 0.0
C827 C 0.70284 0.76279 0.80076 0.0
H828 H 0.70107 0.81868 0.76593 0.0
H829 H 0.68158 0.76953 0.75668 0.0
S830 S 0.75163 0.78786 0.87649 0.0
N831 N 0.75159 0.81549 0.86049 0.0
N832 N 0.73028 0.76248 0.8512 0.0
C833 C 0.72204 0.77596 0.82807 0.0
C834 C 0.73383 0.80476 0.83294 0.0
C835 C 0.28808 0.93392 0.80122 0.0
C836 C 0.27083 0.94546 0.795 0.0
C837 C 0.31541 0.94674 0.78836 0.0
C838 C 0.32652 0.97157 0.76882 0.0
H839 H 0.28076 0.91533 0.81707 0.0
H840 H 0.32817 0.93753 0.79481 0.0
S841 S 0.28874 1.00835 0.74142 0.0
N842 N 0.26603 0.98184 0.76511 0.0
N843 N 0.31724 1.00585 0.74122 0.0
C844 C 0.30905 0.98261 0.76104 0.0
C845 C 0.28126 0.96958 0.77405 0.0
C846 C 0.74592 0.99688 0.26441 0.0
C847 C 0.75512 0.99513 0.29845 0.0
C848 C 0.73424 1.01368 0.25706 0.0
C849 C 0.73188 0.02958 0.28341 0.0
H850 H 0.74629 0.98398 0.24397 0.0
H851 H 0.72645 1.01375 0.23079 0.0
S852 S 0.75475 0.0332 0.37623 0.0
N853 N 0.76227 1.01117 0.35822 0.0
N854 N 0.74109 0.04346 0.34446 0.0
C855 C 0.74238 0.02901 0.31711 0.0
C856 C 0.75378 1.01155 0.32463 0.0
C857 C 0.07789 0.81403 0.30389 0.0
C858 C 0.1065 0.82498 0.29821 0.0
C859 C 0.0588 0.78681 0.29572 0.0
C860 C 0.06741 0.76929 0.28124 0.0
H861 H 0.07022 0.82639 0.31569 0.0
H862 H 0.03705 0.77943 0.30121 0.0
S863 S 0.14006 0.78874 0.2588 0.0
N864 N 0.14253 0.81677 0.27543 0.0
N865 N 0.10671 0.76555 0.26013 0.0
C866 C 0.09597 0.78023 0.27455 0.0
C867 C 0.11547 0.80802 0.28306 0.0
C868 C 0.29505 0.44816 0.34399 0.0
C869 C 0.27299 0.42606 0.362 0.0
C870 C 0.32061 0.44914 0.33914 0.0
C871 C 0.3254 0.42819 0.3524 0.0
H872 H 0.29274 0.46516 0.33388 0.0
H873 H 0.33686 0.46678 0.32531 0.0
S874 S 0.27414 0.36543 0.40118 0.0
N875 N 0.25734 0.38244 0.39269 0.0
N876 N 0.30536 0.38414 0.38383 0.0
C877 C 0.30328 0.40565 0.37 0.0
C878 C 0.2771 0.40458 0.37467 0.0
C879 C 0.26028 0.35088 0.93409 0.0
C880 C 0.25843 0.35434 0.8975 0.0
C881 C 0.28065 0.34549 0.94878 0.0
C882 C 0.30034 0.34357 0.92765 0.0
H883 H 0.24634 0.35306 0.95174 0.0
H884 H 0.28138 0.34355 0.97712 0.0
S885 S 0.30355 0.34901 0.8301 0.0
N886 N 0.27735 0.35377 0.8403 0.0
N887 N 0.31559 0.34402 0.86788 0.0
C888 C 0.29821 0.3461 0.89095 0.0
C889 C 0.2773 0.35133 0.87593 0.0
C890 C 0.70132 0.98789 0.9053 0.0
C891 C 0.7292 0.99421 0.90182 0.0
C892 C 0.69435 1.00816 0.91229 0.0
C893 C 0.71495 0.03567 0.91645 0.0
H894 H 0.68461 0.96702 0.9025 0.0
H895 H 0.67255 1.00218 0.9142 0.0
S896 S 0.79115 0.06325 0.90973 0.0
N897 N 0.77759 0.03012 0.90288 0.0
N898 N 0.76458 0.06823 0.91676 0.0
C899 C 0.74299 0.04227 0.91387 0.0
C900 C 0.75009 0.02157 0.90644 0.0
C901 C 0.13228 0.8062 0.87212 0.0
C902 C 0.13321 0.82747 0.89189 0.0
C903 C 0.10949 0.77956 0.87438 0.0
C904 C 0.08676 0.77312 0.89652 0.0
H905 H 0.14866 0.81037 0.85359 0.0
H906 H 0.10943 0.7641 0.85783 0.0
S907 S 0.0808 0.82085 0.9571 0.0
N908 N 0.11068 0.83984 0.93673 0.0
N909 N 0.06793 0.78987 0.941 0.0
C910 C 0.08813 0.79394 0.91775 0.0
C911 C 0.11132 0.82105 0.91544 0.0
C912 C 0.44537 0.15802 0.72134 0.0
C913 C 0.43417 0.1705 0.74226 0.0
C914 C 0.43917 0.13081 0.728 0.0
C915 C 0.42166 0.11506 0.75602 0.0
H916 H 0.45812 0.16902 0.69883 0.0
H917 H 0.44773 0.12191 0.71055 0.0
S918 S 0.38955 0.13963 0.82073 0.0
N919 N 0.40658 0.16602 0.79351 0.0
N920 N 0.3949 0.11509 0.80634 0.0
C921 C 0.41131 0.12784 0.77799 0.0
C922 C 0.41755 0.15546 0.77102 0.0
C923 C 0.95835 0.30451 0.69193 0.0
C924 C 0.93517 0.28274 0.70895 0.0
C925 C 0.97683 0.32846 0.70967 0.0
C926 C 0.97328 0.33177 0.74545 0.0
H927 H 0.96198 0.30345 0.66426 0.0
H928 H 0.99403 0.34458 0.69503 0.0
S929 S 0.91661 0.28059 0.80284 0.0
N930 N 0.91018 0.26595 0.76417 0.0
N931 N 0.94498 0.31065 0.79759 0.0
C932 C 0.95057 0.30992 0.7631 0.0
C933 C 0.93155 0.28556 0.74489 0.0
C934 C 0.77872 0.68994 0.71477 0.0
C935 C 0.80131 0.69645 0.73757 0.0
C936 C 0.75333 0.68627 0.72726 0.0
C937 C 0.7495 0.68926 0.76307 0.0
H938 H 0.78044 0.68727 0.68699 0.0
H939 H 0.73671 0.6814 0.70849 0.0
S940 S 0.80217 0.70644 0.83382 0.0
N941 N 0.81816 0.7058 0.79785 0.0
N942 N 0.77061 0.69917 0.82124 0.0
C943 C 0.77195 0.69588 0.78619 0.0
C944 C 0.79777 0.6994 0.77349 0.0
C945 C 0.79438 0.74893 0.1188 0.0
C946 C 0.8032 0.73943 0.0904 0.0
C947 C 0.77453 0.7577 0.11404 0.0
C948 C 0.76267 0.75715 0.08076 0.0
H949 H 0.8016 0.7481 0.14517 0.0
H950 H 0.76728 0.76343 0.13692 0.0
S951 S 0.78225 0.73868 0.99701 0.0
N952 N 0.8011 0.73357 0.02711 0.0
N953 N 0.76395 0.74959 0.01843 0.0
C954 C 0.77283 0.74955 0.05193 0.0
C955 C 0.79302 0.74084 0.05668 0.0
C956 C 0.30507 0.10902 0.15446 0.0
C957 C 0.31638 0.12438 0.18485 0.0
C958 C 0.30633 0.08503 0.14901 0.0
C959 C 0.31865 0.07528 0.17399 0.0
H960 H 0.2959 0.11605 0.13428 0.0
H961 H 0.29764 0.07414 0.12489 0.0
S962 S 0.34954 0.10735 0.25937 0.0
N963 N 0.33908 0.12773 0.24105 0.0
N964 N 0.34136 0.08257 0.23119 0.0
C965 C 0.32937 0.09015 0.20504 0.0
C966 C 0.32829 0.11472 0.21036 0.0
C967 C 0.95044 0.29261 0.18004 0.0
C968 C 0.93781 0.28663 0.14664 0.0
C969 C 0.97923 0.30988 0.18374 0.0
C970 C 0.99652 0.32173 0.15418 0.0
H971 H 0.93784 0.28533 0.2036 0.0
H972 H 0.98772 0.31499 0.21005 0.0
S973 S 0.97408 0.30842 0.06078 0.0
N974 N 0.94507 0.29101 0.08348 0.0
N975 N 0.99909 0.32312 0.09021 0.0
C976 C 0.98434 0.31406 0.1206 0.0
C977 C 0.95503 0.29663 0.1169 0.0
C978 C 0.40573 0.34766 0.63738 0.0
C979 C 0.40566 0.33441 0.66928 0.0
C980 C 0.39451 0.36538 0.63518 0.0
C981 C 0.38336 0.37088 0.66499 0.0
H982 H 0.41385 0.34372 0.61384 0.0
H983 H 0.39474 0.37495 0.61 0.0
S984 S 0.37931 0.34183 0.75503 0.0
N985 N 0.39414 0.32834 0.73135 0.0
N986 N 0.37342 0.36171 0.72758 0.0
C987 C 0.38371 0.35806 0.69718 0.0
C988 C 0.39475 0.3398 0.69923 0.0
C989 C 0.81137 0.12261 0.65658 0.0
C990 C 0.81163 0.14137 0.63112 0.0
C991 C 0.79411 0.0941 0.65281 0.0
C992 C 0.7765 0.0831 0.62332 0.0
H993 H 0.82355 0.13 0.68041 0.0
H994 H 0.79402 0.08064 0.6738 0.0
S995 S 0.77204 0.12356 0.54712 0.0
N996 N 0.79454 0.14683 0.57396 0.0
N997 N 0.7625 0.09366 0.56676 0.0
C998 C 0.77778 0.1017 0.59681 0.0
C999 C 0.7952 0.13065 0.60076 0.0
C1000 C 0.94193 0.7618 0.58397 0.0
C1001 C 0.93296 0.75231 0.61861 0.0
C1002 C 0.96953 0.77116 0.5737 0.0
C1003 C 0.98916 0.77108 0.59753 0.0
H1004 H 0.9273 0.76103 0.56418 0.0
H1005 H 0.97514 0.77733 0.54649 0.0
S1006 S 0.97757 0.75189 0.69244 0.0
N1007 N 0.94704 0.74631 0.67767 0.0
N1008 N 0.99856 0.76345 0.6582 0.0
C1009 C 0.98095 0.76319 0.6327 0.0
C1010 C 0.95298 0.75399 0.64329 0.0
C1011 C 0.92548 0.70611 0.19877 0.0
C1012 C 0.89734 0.6859 0.20131 0.0
C1013 C 0.94609 0.70342 0.21785 0.0
C1014 C 0.93928 0.68067 0.24063 0.0
H1015 H 0.93177 0.72326 0.18047 0.0
H1016 H 0.96763 0.71893 0.21398 0.0
S1017 S 0.86805 0.62351 0.25881 0.0
N1018 N 0.86348 0.64339 0.22989 0.0
N1019 N 0.90185 0.63862 0.26614 0.0
C1020 C 0.91098 0.66122 0.24481 0.0
C1021 C 0.89014 0.66375 0.22504 0.0
C1022 C 0.33446 0.32275 0.25985 0.0
C1023 C 0.35195 0.31159 0.26638 0.0
C1024 C 0.3427 0.34985 0.26842 0.0
C1025 C 0.3687 0.36685 0.28418 0.0
H1026 H 0.31453 0.31066 0.24716 0.0
H1027 H 0.32855 0.35753 0.26234 0.0
S1028 S 0.42125 0.34648 0.30921 0.0
N1029 N 0.39572 0.31888 0.29127 0.0
N1030 N 0.41138 0.36989 0.3074 0.0
C1031 C 0.38611 0.35564 0.29171 0.0
C1032 C 0.37772 0.32803 0.28276 0.0
C1033 C 0.78084 0.17231 0.21454 0.0
C1034 C 0.78199 0.19744 0.22083 0.0
C1035 C 0.75721 0.14732 0.22333 0.0
C1036 C 0.73378 0.14638 0.23902 0.0
H1037 H 0.79792 0.17185 0.20159 0.0
H1038 H 0.75724 0.12858 0.21718 0.0
S1039 S 0.72762 0.20666 0.26446 0.0
N1040 N 0.75857 0.22 0.24605 0.0
N1041 N 0.71426 0.1731 0.26282 0.0
C1042 C 0.73517 0.17143 0.2468 0.0
C1043 C 0.75921 0.19691 0.23765 0.0
C1044 C 1.01604 0.45852 0.91964 0.0
C1045 C 1.00427 0.47465 0.90838 0.0
C1046 C 0.02229 0.44361 0.89579 0.0
C1047 C 1.01726 0.44426 0.85941 0.0
H1048 H 0.02053 0.45742 0.94725 0.0
H1049 H 0.03156 0.43177 0.90608 0.0
S1050 S 0.98698 0.48374 0.81611 0.0
N1051 N 0.988 0.49059 0.85823 0.0
N1052 N 0.99951 0.46253 0.81343 0.0
C1053 C 1.00514 0.46008 0.8478 0.0
C1054 C 0.9987 0.47524 0.8722 0.0
C1055 C 0.57971 0.61979 0.87946 0.0
C1056 C 0.58054 0.60092 0.90385 0.0
C1057 C 0.60065 0.6334 0.8542 0.0
C1058 C 0.62336 0.62865 0.85197 0.0
H1059 H 0.56284 0.62433 0.8801 0.0
H1060 H 0.59883 0.64766 0.8361 0.0
S1061 S 0.63512 0.58072 0.90944 0.0
N1062 N 0.60577 0.57783 0.9239 0.0
N1063 N 0.64526 0.6035 0.87675 0.0
C1064 C 0.6245 0.60985 0.87633 0.0
C1065 C 0.60313 0.59601 0.90216 0.0
C1066 C 0.46546 1.00427 0.87042 0.0
C1067 C 0.45279 0.99658 0.90366 0.0
C1068 C 0.45334 1.01163 0.84265 0.0
C1069 C 0.42804 1.01155 0.84702 0.0
H1070 H 0.48537 1.00553 0.86613 0.0
H1071 H 0.46417 0.01778 0.81772 0.0
S1072 S 0.38549 0.99078 0.92849 0.0
N1073 N 0.41289 0.98767 0.93897 0.0
N1074 N 0.39002 1.0016 0.88708 0.0
C1075 C 0.41478 1.00313 0.87998 0.0
C1076 C 0.42718 0.99564 0.9082 0.0
C1077 C 0.43803 0.99576 0.60492 0.0
C1078 C 0.46277 0.99461 0.60298 0.0
C1079 C 0.42861 0.9997 0.63715 0.0
C1080 C 0.44338 1.00214 0.66857 0.0
H1081 H 0.42671 0.99503 0.58114 0.0
H1082 H 0.40991 1.00137 0.63732 0.0
S1083 S 0.5084 0.99836 0.67726 0.0
N1084 N 0.50113 0.99482 0.63483 0.0
N1085 N 0.48331 1.00159 0.69563 0.0
C1086 C 0.46748 0.99966 0.66703 0.0
C1087 C 0.47722 0.9961 0.63415 0.0
C1088 C 0.07658 0.51315 0.65112 0.0
C1089 C 0.05961 0.50895 0.62127 0.0
C1090 C 0.07023 0.49206 0.67654 0.0
C1091 C 0.04662 0.46588 0.67315 0.0
H1092 H 0.09445 0.53313 0.6554 0.0
H1093 H 0.08343 0.49658 0.69953 0.0
S1094 S 0.9979 0.44311 0.59709 0.0
N1095 N 0.02001 0.47563 0.58799 0.0
N1096 N 1.00785 0.43641 0.63545 0.0
C1097 C 0.03025 0.46116 0.64257 0.0
C1098 C 0.03676 0.48253 0.61678 0.0
C1099 C 0.57298 0.58838 0.6547 0.0
C1100 C 0.5772 0.60262 0.62236 0.0
C1101 C 0.59022 0.60068 0.68378 0.0
C1102 C 0.61222 0.62794 0.68203 0.0
H1103 H 0.556 0.56756 0.6578 0.0
H1104 H 0.58585 0.58882 0.7081 0.0
S1105 S 0.63303 0.67404 0.60316 0.0
N1106 N 0.60589 0.64539 0.59002 0.0
N1107 N 0.63795 0.66853 0.64481 0.0
C1108 C 0.61701 0.64235 0.64974 0.0
C1109 C 0.59965 0.62969 0.6199 0.0
C1110 C 0.97655 0.59905 0.11804 0.0
C1111 C 0.99806 0.59311 0.11196 0.0
C1112 C 0.97856 0.61686 0.14461 0.0
C1113 C 1.00227 0.6298 0.16627 0.0
H1114 H 0.95787 0.58979 0.10217 0.0
H1115 H 0.96117 0.62034 0.14832 0.0
S1116 S 0.06439 0.62102 0.1621 0.0
N1117 N 0.04384 0.60142 0.13067 0.0
N1118 N 0.0478 0.63542 0.17988 0.0
C1119 C 0.02424 0.62457 0.16015 0.0
C1120 C 0.02209 0.60614 0.13323 0.0
C1121 C 0.45947 0.49079 0.15197 0.0
C1122 C 0.48148 0.51714 0.15899 0.0
C1123 C 0.44095 0.47439 0.1786 0.0
C1124 C 0.44351 0.48384 0.21321 0.0
H1125 H 0.45727 0.48238 0.12606 0.0
H1126 H 0.42488 0.45389 0.17211 0.0
S1127 S 0.49606 0.55279 0.24389 0.0
N1128 N 0.50359 0.55287 0.20204 0.0
N1129 N 0.4689 0.52234 0.25208 0.0
C1130 C 0.46471 0.51076 0.22003 0.0
C1131 C 0.48367 0.5273 0.19296 0.0
C1132 C 0.59007 1.00941 0.12451 0.0
C1133 C 0.56598 1.01178 0.12649 0.0
C1134 C 0.61128 0.02133 0.14977 0.0
C1135 C 0.6091 0.036 0.17795 0.0
H1136 H 0.59292 0.99905 0.10266 0.0
H1137 H 0.62967 0.01937 0.14683 0.0
S1138 S 0.54853 0.04541 0.19659 0.0
N1139 N 0.54009 0.02791 0.15996 0.0
N1140 N 0.5797 0.05044 0.20735 0.0
C1141 C 0.58458 0.03768 0.18071 0.0
C1142 C 0.5631 0.02554 0.15502 0.0
C1143 C 0.58832 0.02621 0.36098 0.0
C1144 C 0.59006 0.04378 0.38782 0.0
C1145 C 0.61088 0.03295 0.33873 0.0
C1146 C 0.63628 0.05747 0.34249 0.0
H1147 H 0.56939 1.00698 0.35717 0.0
H1148 H 0.6083 0.01873 0.31836 0.0
S1149 S 0.65163 0.11119 0.40778 0.0
N1150 N 0.61921 0.08747 0.41597 0.0
N1151 N 0.6618 0.09958 0.37496 0.0
C1152 C 0.6385 0.07516 0.36942 0.0
C1153 C 0.61537 0.06846 0.39186 0.0
C1154 C 0.03854 0.64483 0.41821 0.0
C1155 C 0.04762 0.62624 0.4098 0.0
C1156 C 0.03136 0.65831 0.39182 0.0
C1157 C 0.03226 0.65327 0.35585 0.0
H1158 H 0.03761 0.64945 0.44546 0.0
H1159 H 0.02513 0.67291 0.39973 0.0
S1160 S 0.053 0.60496 0.32009 0.0
N1161 N 0.05618 0.60269 0.3631 0.0
N1162 N 0.04219 0.62742 0.31355 0.0
C1163 C 0.04056 0.63406 0.34719 0.0
C1164 C 0.0484 0.62076 0.37409 0.0
C1165 C 0.47541 0.51447 0.46521 0.0
C1166 C 0.50251 0.53051 0.45171 0.0
C1167 C 0.4537 0.49498 0.44457 0.0
C1168 C 0.45807 0.4905 0.40952 0.0
H1169 H 0.47051 0.51778 0.49147 0.0
H1170 H 0.4331 0.48398 0.45596 0.0
S1171 S 0.52593 0.52469 0.36289 0.0
N1172 N 0.53299 0.53874 0.40196 0.0
N1173 N 0.49239 0.50218 0.36332 0.0
C1174 C 0.48544 0.50525 0.39636 0.0
C1175 C 0.50755 0.52519 0.41737 0.0
C1176 C 0.72197 0.83502 0.24524 0.0
C1177 C 0.7083 0.84822 0.2594 0.0
C1178 C 0.71328 0.82059 0.21373 0.0
C1179 C 0.69051 0.81868 0.1944 0.0
H1180 H 0.74007 0.83624 0.25831 0.0
H1181 H 0.7251 0.81144 0.20405 0.0
S1182 S 0.64624 0.84806 0.2209 0.0
N1183 N 0.66982 0.85721 0.25243 0.0
N1184 N 0.65338 0.83023 0.19311 0.0
C1185 C 0.67593 0.83095 0.20886 0.0
C1186 C 0.68478 0.84559 0.24131 0.0
C1187 C 0.23751 0.92452 0.23892 0.0
C1188 C 0.24577 0.92607 0.27426 0.0
C1189 C 0.25693 0.93796 0.21214 0.0
C1190 C 0.2855 0.95384 0.21955 0.0
H1191 H 0.21563 0.914 0.23207 0.0
H1192 H 0.24921 0.93696 0.18557 0.0
S1193 S 0.31808 0.96189 0.30776 0.0
N1194 N 0.28443 0.94249 0.31524 0.0
N1195 N 0.32129 0.96805 0.26489 0.0
C1196 C 0.29427 0.9539 0.25461 0.0
C1197 C 0.27431 0.93994 0.28199 0.0
C1198 C 0.1429 0.45477 0.28025 0.0
C1199 C 0.16152 0.44462 0.28417 0.0
C1200 C 0.12443 0.44725 0.25168 0.0
C1201 C 0.12388 0.42927 0.2261 0.0
H1202 H 0.14192 0.4678 0.30003 0.0
H1203 H 0.11009 0.45517 0.25005 0.0
S1204 S 0.17112 0.40004 0.22209 0.0
N1205 N 0.18025 0.41797 0.25839 0.0
N1206 N 0.14534 0.40347 0.20508 0.0
C1207 C 0.14312 0.4198 0.22913 0.0
C1208 C 0.162 0.4276 0.25802 0.0
C1209 C 0.18898 0.44174 0.03367 0.0
C1210 C 0.18066 0.42312 1.00611 0.0
C1211 C 0.17025 0.43912 0.05987 0.0
C1212 C 0.1426 0.41746 0.0598 0.0
H1213 H 0.21023 0.45835 0.03505 0.0
H1214 H 0.17773 0.45388 0.08073 0.0
S1215 S 0.11044 0.36326 0.99304 0.0
N1216 N 0.14295 0.38238 0.98003 0.0
N1217 N 0.10764 0.37739 0.02919 0.0
C1218 C 0.13391 0.39884 0.03208 0.0
C1219 C 0.15295 0.4017 1.00521 0.0
C1220 C 0.68959 0.86029 0.98412 0.0
C1221 C 0.68831 0.85513 0.94779 0.0
C1222 C 0.69248 0.84313 1.00955 0.0
C1223 C 0.69477 0.82028 0.99981 0.0
H1224 H 0.68922 0.8783 0.99303 0.0
H1225 H 0.69408 0.84848 0.03697 0.0
S1226 S 0.68972 0.79581 0.9087 0.0
N1227 N 0.68727 0.82388 0.90387 0.0
N1228 N 0.6931 0.79204 0.95135 0.0
C1229 C 0.69229 0.81415 0.96374 0.0
C1230 C 0.68891 0.83138 0.93788 0.0
C1231 C 0.26732 0.9609 0.96023 0.0
C1232 C 0.24052 0.95785 0.96115 0.0
C1233 C 0.28486 0.96955 0.98968 0.0
C1234 C 0.2763 0.97543 0.02143 0.0
H1235 H 0.27489 0.95667 0.93641 0.0
H1236 H 0.30528 0.97155 0.98742 0.0
S1237 S 0.20759 0.96995 0.03777 0.0
N1238 N 0.20596 0.96086 0.9965 0.0
N1239 N 0.23884 0.97733 0.05191 0.0
C1240 C 0.24949 0.97256 0.02266 0.0
C1241 C 0.23166 0.96378 0.99253 0.0
C1242 C 0.73694 0.95063 0.46555 0.0
C1243 C 0.71725 0.93206 0.44166 0.0
C1244 C 0.72927 0.96164 0.49326 0.0
C1245 C 0.70142 0.9547 0.49877 0.0
H1246 H 0.75878 0.957 0.46289 0.0
H1247 H 0.74547 0.9758 0.51054 0.0
S1248 S 0.64138 0.90697 0.4439 0.0
N1249 N 0.66841 0.90726 0.42556 0.0
N1250 N 0.65383 0.92774 0.47752 0.0
C1251 C 0.68136 0.93603 0.47517 0.0
C1252 C 0.68927 0.9248 0.44677 0.0
C1253 C 0.16591 0.84967 0.47261 0.0
C1254 C 0.15032 0.85509 0.44743 0.0
C1255 C 0.15291 0.83219 0.50178 0.0
C1256 C 0.12384 0.81929 0.5067 0.0
H1257 H 0.18833 0.85975 0.47046 0.0
H1258 H 0.16591 0.82931 0.52103 0.0
S1259 S 0.07341 0.82397 0.44535 0.0
N1260 N 0.10406 0.84416 0.4274 0.0
N1261 N 0.07979 0.81144 0.4818 0.0
C1262 C 0.10798 0.82355 0.48065 0.0
C1263 C 0.12118 0.8414 0.45116 0.0
C1264 C 0.24535 0.43002 0.55234 0.0
C1265 C 0.25158 0.42982 0.51679 0.0
C1266 C 0.25945 0.42401 0.57892 0.0
C1267 C 0.28059 0.41784 0.571 0.0
H1268 H 0.22922 0.43458 0.55961 0.0
H1269 H 0.25394 0.42465 0.60594 0.0
S1270 S 0.30524 0.41553 0.48147 0.0
N1271 N 0.28051 0.42351 0.47474 0.0
N1272 N 0.30706 0.41214 0.52451 0.0
C1273 C 0.28694 0.41751 0.53535 0.0
C1274 C 0.27246 0.42354 0.50831 0.0
C1275 C 0.32268 0.46454 0.78155 0.0
C1276 C 0.29817 0.44131 0.79308 0.0
C1277 C 0.33683 0.46374 0.75175 0.0
C1278 C 0.32704 0.43961 0.73242 0.0
H1279 H 0.33089 0.48352 0.79564 0.0
H1280 H 0.35548 0.48229 0.74372 0.0
S1281 S 0.26482 0.37248 0.75304 0.0
N1282 N 0.26548 0.39304 0.78372 0.0
N1283 N 0.29188 0.39157 0.72776 0.0
C1284 C 0.3027 0.41612 0.74387 0.0
C1285 C 0.28829 0.41696 0.77416 0.0
C1286 C 0.72084 0.94506 0.72787 0.0
C1287 C 0.70027 0.93066 0.75366 0.0
C1288 C 0.71555 0.95644 0.69744 0.0
C1289 C 0.68935 0.95411 0.691 0.0
H1290 H 0.74158 0.94792 0.73123 0.0
H1291 H 0.7324 0.96746 0.67896 0.0
S1292 S 0.62774 0.91778 0.74951 0.0
N1293 N 0.65226 0.91419 0.77018 0.0
N1294 N 0.64212 0.93549 0.71302 0.0
C1295 C 0.66829 0.9393 0.71622 0.0
C1296 C 0.67375 0.92761 0.7474 0.0
C1297 C 0.10863 0.83308 0.7491 0.0
C1298 C 0.12809 0.86015 0.73924 0.0
C1299 C 0.09469 0.813 0.72383 0.0
C1300 C 0.10013 0.8191 0.68773 0.0
H1301 H 0.10424 0.82743 0.77666 0.0
H1302 H 0.0798 0.79245 0.73276 0.0
S1303 S 0.14979 0.88705 0.64842 0.0
N1304 N 0.15231 0.89213 0.69119 0.0
N1305 N 0.12645 0.85445 0.64348 0.0
C1306 C 0.11965 0.84619 0.67754 0.0
C1307 C 0.13351 0.86671 0.70333 0.0
C1308 C 0.40507 0.20423 0.57779 0.0
C1309 C 0.38676 0.19761 0.60646 0.0
C1310 C 0.39918 0.18639 0.54982 0.0
C1311 C 0.37457 0.16094 0.54881 0.0
H1312 H 0.42453 0.2234 0.57694 0.0
H1313 H 0.41425 0.19271 0.52879 0.0
S1314 S 0.31915 0.13359 0.61689 0.0
N1315 N 0.34263 0.16373 0.63183 0.0
N1316 N 0.33129 0.13012 0.57907 0.0
C1317 C 0.35568 0.15413 0.57695 0.0
C1318 C 0.3618 0.17243 0.60571 0.0
C1319 C 0.92381 0.29258 0.56348 0.0
C1320 C 0.8954 0.2819 0.55586 0.0
C1321 C 0.94431 0.31014 0.5396 0.0
C1322 C 0.93714 0.31734 0.50699 0.0
H1323 H 0.93024 0.28803 0.5886 0.0
H1324 H 0.96594 0.31831 0.54692 0.0
S1325 S 0.86536 0.29355 0.47404 0.0
N1326 N 0.86099 0.27893 0.51341 0.0
N1327 N 0.8993 0.31158 0.46801 0.0
C1328 C 0.90867 0.30612 0.49871 0.0
C1329 C 0.88787 0.28855 0.52331 0.0
C1330 C 0.81764 0.70349 0.53986 0.0
C1331 C 0.81451 0.6771 0.54362 0.0
C1332 C 0.80709 0.71092 0.51056 0.0
C1333 C 0.79293 0.69228 0.48364 0.0
H1334 H 0.82865 0.71874 0.55959 0.0
H1335 H 0.81008 0.73151 0.50918 0.0
S1336 S 0.77923 0.62047 0.48094 0.0
N1337 N 0.79633 0.63223 0.51815 0.0
N1338 N 0.77651 0.64608 0.46264 0.0
C1339 C 0.78988 0.66582 0.48686 0.0
C1340 C 0.80071 0.65828 0.51688 0.0
C1341 C 0.75333 0.65676 0.24033 0.0
C1342 C 0.77145 0.64666 0.23334 0.0
C1343 C 0.74801 0.66077 0.27492 0.0
C1344 C 0.76029 0.6544 0.30367 0.0
H1345 H 0.74468 0.66324 0.21887 0.0
H1346 H 0.73485 0.66972 0.27912 0.0
S1347 S 0.80719 0.6249 0.29888 0.0
N1348 N 0.80023 0.62874 0.25743 0.0
N1349 N 0.78977 0.63555 0.32271 0.0
C1350 C 0.77706 0.64264 0.29698 0.0
C1351 C 0.78279 0.639 0.26171 0.0
C1352 C 0.37208 0.19827 0.33269 0.0
C1353 C 0.38441 0.20427 0.29913 0.0
C1354 C 0.37944 0.18513 0.35905 0.0
C1355 C 0.39949 0.17713 0.35325 0.0
H1356 H 0.3559 0.20314 0.33854 0.0
H1357 H 0.36862 0.18053 0.38394 0.0
S1358 S 0.43972 0.18987 0.27073 0.0
N1359 N 0.41893 0.20263 0.2621 0.0
N1360 N 0.43298 0.17789 0.31164 0.0
C1361 C 0.41297 0.18407 0.32025 0.0
C1362 C 0.40544 0.19765 0.29327 0.0
C1363 C 0.91859 0.34813 0.27166 0.0
C1364 C 0.89003 0.32909 0.27006 0.0
C1365 C 0.93243 0.35592 0.30401 0.0
C1366 C 0.9181 0.34525 0.3359 0.0
H1367 H 0.93052 0.35618 0.24771 0.0
H1368 H 0.95458 0.37018 0.30399 0.0
S1369 S 0.84277 0.29567 0.34556 0.0
N1370 N 0.8477 0.30038 0.30266 0.0
N1371 N 0.87344 0.31529 0.36371 0.0
C1372 C 0.8893 0.32687 0.3346 0.0
C1373 C 0.87535 0.31868 0.3016 0.0
C1374 C 0.36321 0.26559 0.79767 0.0
C1375 C 0.38823 0.26478 0.79813 0.0
C1376 C 0.35641 0.27771 0.82507 0.0
C1377 C 0.37435 0.28956 0.85409 0.0
H1378 H 0.34928 0.2578 0.77536 0.0
H1379 H 0.33721 0.27839 0.82295 0.0
S1380 S 0.44112 0.29021 0.86956 0.0
N1381 N 0.43003 0.27506 0.83147 0.0
N1382 N 0.41736 0.29777 0.88246 0.0
C1383 C 0.39892 0.28792 0.85541 0.0
C1384 C 0.40579 0.27556 0.82763 0.0
C1385 C 0.76077 0.17833 0.7904 0.0
C1386 C 0.78529 0.18058 0.77669 0.0
C1387 C 0.74848 0.16256 0.82095 0.0
C1388 C 0.76054 0.1488 0.83913 0.0
H1389 H 0.75113 0.18894 0.77742 0.0
H1390 H 0.72975 0.16166 0.83075 0.0
S1391 S 0.82523 0.1487 0.81417 0.0
N1392 N 0.82149 0.1682 0.78385 0.0
N1393 N 0.79839 0.13832 0.84069 0.0
C1394 C 0.78499 0.15075 0.82539 0.0
C1395 C 0.79738 0.1667 0.79433 0.0
C1396 C 0.91756 0.69818 0.79471 0.0
C1397 C 0.91417 0.67704 0.77259 0.0
C1398 C 0.93605 0.70618 0.82311 0.0
C1399 C 0.95211 0.6935 0.83053 0.0
H1400 H 0.90556 0.70848 0.79019 0.0
H1401 H 0.93766 0.72248 0.83938 0.0
S1402 S 0.95145 0.63745 0.77972 0.0
N1403 N 0.92863 0.64385 0.75934 0.0
N1404 N 0.96353 0.65874 0.81286 0.0
C1405 C 0.94902 0.67233 0.80844 0.0
C1406 C 0.92997 0.66409 0.77953 0.0
C1407 C 0.92362 0.7185 0.02186 0.0
C1408 C 0.90511 0.69125 0.03218 0.0
C1409 C 0.94705 0.72513 1.00127 0.0
C1410 C 0.95305 0.70477 0.99034 0.0
H1411 H 0.91959 0.73476 0.02912 0.0
H1412 H 0.96028 0.74637 0.99342 0.0
S1413 S 0.91252 0.63054 1.0138 0.0
N1414 N 0.89537 0.64403 0.03235 0.0
N1415 N 0.93923 0.65626 0.99364 0.0
C1416 C 0.9351 0.67749 1.00152 0.0
C1417 C 0.91118 0.67077 0.02237 0.0
C1418 C 0.39319 0.2851 0.0984 0.0
C1419 C 0.36542 0.26861 0.10919 0.0
C1420 C 0.39982 0.30011 0.06629 0.0
C1421 C 0.37899 0.29923 0.0435 0.0
H1422 H 0.40998 0.28686 0.11513 0.0
H1423 H 0.42156 0.31273 0.05952 0.0
S1424 S 0.30286 0.25767 0.05825 0.0
N1425 N 0.3168 0.25129 0.09332 0.0
N1426 N 0.32929 0.27937 0.03366 0.0
C1427 C 0.35113 0.28234 0.05367 0.0
C1428 C 0.34437 0.2671 0.08625 0.0
C1429 C 0.81344 0.19548 0.04226 0.0
C1430 C 0.80168 0.21127 0.0532 0.0
C1431 C 0.79955 0.17418 0.01849 0.0
C1432 C 0.77321 0.16769 1.00495 0.0
H1433 H 0.83365 0.19978 0.05202 0.0
H1434 H 0.80958 0.16272 1.01077 0.0
S1435 S 0.73278 0.2021 0.02715 0.0
N1436 N 0.76182 0.21842 0.04998 0.0
N1437 N 0.73564 0.1786 1.00522 0.0
C1438 C 0.76114 0.1833 0.01597 0.0
C1439 C 0.77539 0.20504 0.04008 0.0
loop_
_geom_bond_atom_site_label_1
_geom_bond_atom_site_label_2
_geom_bond_distance
_geom_bond_site_symmetry_2
_ccdc_geom_bond_type
Cu0 N1 2.001 . S
Cu0 O6 1.973 1_554 S
Cu0 N11 1.983 1_554 S
Cu0 O20 1.960 . S
N1 Cu0 2.001 . S
N1 C3 1.263 . S
N1 C5 1.389 . S
N2 C3 1.358 . S
N2 C4 1.400 . S
C3 N1 1.263 . S
C3 N2 1.358 . S
C3 H9 0.930 . S
C4 N2 1.400 . S
C4 C5 1.351 . S
C4 H21 0.930 . S
C5 N1 1.389 . S
C5 C4 1.351 . S
C5 H10 0.930 . S
O6 Cu0 1.973 1_556 S
O6 C16 1.282 . S
C7 O8 1.261 . S
C7 O20 1.251 . S
O8 C7 1.261 . S
H9 C3 0.930 . S
H10 C5 0.930 . S
N11 Cu0 1.983 1_556 S
N11 C13 1.335 . S
N11 C14 1.390 . S
N12 C13 1.345 . S
N12 C15 1.336 . S
C13 N11 1.335 . S
C13 N12 1.345 . S
C13 H18 0.930 . S
C14 N11 1.390 . S
C14 C15 1.346 . S
C14 H19 0.930 . S
C15 N12 1.336 . S
C15 C14 1.346 . S
C15 H22 0.929 . S
C16 O6 1.282 . S
C16 O17 1.216 . S
O17 C16 1.216 . S
H18 C13 0.930 . S
H19 C14 0.930 . S
O20 Cu0 1.960 . S
O20 C7 1.251 . S
H21 C4 0.930 . S
H22 C15 0.929 . S
Cu23 N24 1.999 1_554 S
Cu23 O29 1.974 . S
Cu23 N34 1.985 . S
Cu23 O43 1.959 1_554 S
N24 Cu23 1.999 1_556 S
N24 C26 1.263 . S
N24 C28 1.389 . S
N25 C26 1.358 . S
N25 C27 1.400 . S
C26 N24 1.263 . S
C26 N25 1.358 . S
C26 H32 0.930 . S
C27 N25 1.400 . S
C27 C28 1.351 . S
C27 H44 0.930 . S
C28 N24 1.389 . S
C28 C27 1.351 . S
C28 H33 0.930 . S
O29 Cu23 1.974 . S
O29 C39 1.282 . S
C30 O31 1.261 . S
C30 O43 1.251 . S
O31 C30 1.261 . S
H32 C26 0.930 . S
H33 C28 0.930 . S
N34 Cu23 1.985 . S
N34 C36 1.335 . S
N34 C37 1.390 . S
N35 C36 1.345 . S
N35 C38 1.336 . S
C36 N34 1.335 . S
C36 N35 1.345 . S
C36 H41 0.930 . S
C37 N34 1.390 . S
C37 C38 1.346 . S
C37 H42 0.930 . S
C38 N35 1.336 . S
C38 C37 1.346 . S
C38 H45 0.929 . S
C39 O29 1.282 . S
C39 O40 1.216 . S
O40 C39 1.216 . S
H41 C36 0.930 . S
H42 C37 0.930 . S
O43 Cu23 1.959 1_556 S
O43 C30 1.251 . S
H44 C27 0.930 . S
H45 C38 0.929 . S
Cu46 N47 1.999 1_554 S
Cu46 O52 1.972 . S
Cu46 N57 1.985 1_565 S
Cu46 O66 1.961 1_564 S
N47 Cu46 1.999 1_556 S
N47 C49 1.263 1_565 S
N47 C51 1.389 . S
N48 C49 1.358 1_565 S
N48 C50 1.400 . S
C49 N47 1.263 1_545 S
C49 N48 1.358 1_545 S
C49 H55 0.930 . S
C50 N48 1.400 . S
C50 C51 1.351 . S
C50 H67 0.930 . S
C51 N47 1.389 . S
C51 C50 1.351 . S
C51 H56 0.930 . S
O52 Cu46 1.972 . S
O52 C62 1.282 1_565 S
C53 O54 1.261 . S
C53 O66 1.251 . S
O54 C53 1.261 . S
H55 C49 0.930 . S
H56 C51 0.930 . S
N57 Cu46 1.985 1_545 S
N57 C59 1.335 . S
N57 C60 1.390 . S
N58 C59 1.345 . S
N58 C61 1.336 . S
C59 N57 1.335 . S
C59 N58 1.345 . S
C59 H64 0.930 . S
C60 N57 1.390 . S
C60 C61 1.346 . S
C60 H65 0.930 . S
C61 N58 1.336 . S
C61 C60 1.346 . S
C61 H68 0.929 . S
C62 O52 1.282 1_545 S
C62 O63 1.216 . S
O63 C62 1.216 . S
H64 C59 0.930 . S
H65 C60 0.930 . S
O66 Cu46 1.961 1_546 S
O66 C53 1.251 . S
H67 C50 0.930 . S
H68 C61 0.929 . S
Cu69 N70 1.999 . S
Cu69 O75 1.974 . S
Cu69 N80 1.985 . S
Cu69 O89 1.959 . S
N70 Cu69 1.999 . S
N70 C72 1.263 . S
N70 C74 1.389 . S
N71 C72 1.358 . S
N71 C73 1.400 . S
C72 N70 1.263 . S
C72 N71 1.358 . S
C72 H78 0.930 . S
C73 N71 1.400 . S
C73 C74 1.351 . S
C73 H90 0.930 . S
C74 N70 1.389 . S
C74 C73 1.351 . S
C74 H79 0.930 . S
O75 Cu69 1.974 . S
O75 C85 1.282 . S
C76 O77 1.261 . S
C76 O89 1.251 . S
O77 C76 1.261 . S
H78 C72 0.930 . S
H79 C74 0.930 . S
N80 Cu69 1.985 . S
N80 C82 1.335 . S
N80 C83 1.390 . S
N81 C82 1.345 . S
N81 C84 1.336 . S
C82 N80 1.335 . S
C82 N81 1.345 . S
C82 H87 0.930 . S
C83 N80 1.390 . S
C83 C84 1.346 . S
C83 H88 0.930 . S
C84 N81 1.336 . S
C84 C83 1.346 . S
C84 H91 0.929 . S
C85 O75 1.282 . S
C85 O86 1.216 1_545 S
O86 C85 1.216 1_565 S
H87 C82 0.930 . S
H88 C83 0.930 . S
O89 Cu69 1.959 . S
O89 C76 1.251 . S
H90 C73 0.930 . S
H91 C84 0.929 . S
Cu92 N93 1.999 . S
Cu92 O98 1.974 . S
Cu92 N103 1.985 . S
Cu92 O112 1.959 . S
N93 Cu92 1.999 . S
N93 C95 1.263 . S
N93 C97 1.389 . S
N94 C95 1.358 . S
N94 C96 1.400 . S
C95 N93 1.263 . S
C95 N94 1.358 . S
C95 H101 0.930 . S
C96 N94 1.400 . S
C96 C97 1.351 . S
C96 H113 0.929 . S
C97 N93 1.389 . S
C97 C96 1.351 . S
C97 H102 0.930 1_455 S
O98 Cu92 1.974 . S
O98 C108 1.282 . S
C99 O100 1.261 . S
C99 O112 1.251 . S
O100 C99 1.261 . S
H101 C95 0.930 . S
H102 C97 0.930 1_655 S
N103 Cu92 1.985 . S
N103 C105 1.335 . S
N103 C106 1.390 . S
N104 C105 1.345 . S
N104 C107 1.336 . S
C105 N103 1.335 . S
C105 N104 1.345 . S
C105 H110 0.930 . S
C106 N103 1.390 . S
C106 C107 1.346 . S
C106 H111 0.930 . S
C107 N104 1.336 . S
C107 C106 1.346 . S
C107 H114 0.929 . S
C108 O98 1.282 . S
C108 O109 1.216 . S
O109 C108 1.216 . S
H110 C105 0.930 . S
H111 C106 0.930 . S
O112 Cu92 1.959 . S
O112 C99 1.251 . S
H113 C96 0.929 . S
H114 C107 0.929 . S
Cu115 N116 1.999 . S
Cu115 O121 1.974 . S
Cu115 N126 1.985 . S
Cu115 O135 1.959 . S
N116 Cu115 1.999 . S
N116 C118 1.263 . S
N116 C120 1.389 . S
N117 C118 1.358 . S
N117 C119 1.400 . S
C118 N116 1.263 . S
C118 N117 1.358 . S
C118 H124 0.930 . S
C119 N117 1.400 . S
C119 C120 1.351 . S
C119 H136 0.930 . S
C120 N116 1.389 . S
C120 C119 1.351 . S
C120 H125 0.930 . S
O121 Cu115 1.974 . S
O121 C131 1.282 . S
C122 O123 1.261 . S
C122 O135 1.251 . S
O123 C122 1.261 . S
H124 C118 0.930 . S
H125 C120 0.930 . S
N126 Cu115 1.985 . S
N126 C128 1.335 . S
N126 C129 1.390 . S
N127 C128 1.345 . S
N127 C130 1.336 . S
C128 N126 1.335 . S
C128 N127 1.345 . S
C128 H133 0.930 . S
C129 N126 1.390 . S
C129 C130 1.346 . S
C129 H134 0.930 . S
C130 N127 1.336 . S
C130 C129 1.346 . S
C130 H137 0.929 . S
C131 O121 1.282 . S
C131 O132 1.216 . S
O132 C131 1.216 . S
H133 C128 0.930 . S
H134 C129 0.930 . S
O135 Cu115 1.959 . S
O135 C122 1.251 . S
H136 C119 0.930 . S
H137 C130 0.929 . S
Cu138 N139 1.999 . S
Cu138 O144 1.974 . S
Cu138 N149 1.985 . S
Cu138 O158 1.959 . S
N139 Cu138 1.999 . S
N139 C141 1.263 . S
N139 C143 1.389 . S
N140 C141 1.358 . S
N140 C142 1.400 . S
C141 N139 1.263 . S
C141 N140 1.358 . S
C141 H147 0.930 . S
C142 N140 1.400 . S
C142 C143 1.351 . S
C142 H159 0.930 . S
C143 N139 1.389 . S
C143 C142 1.351 . S
C143 H148 0.930 . S
O144 Cu138 1.974 . S
O144 C154 1.282 . S
C145 O146 1.261 . S
C145 O158 1.251 . S
O146 C145 1.261 . S
H147 C141 0.930 . S
H148 C143 0.930 . S
N149 Cu138 1.985 . S
N149 C151 1.335 . S
N149 C152 1.390 . S
N150 C151 1.345 . S
N150 C153 1.336 . S
C151 N149 1.335 . S
C151 N150 1.345 . S
C151 H156 0.930 . S
C152 N149 1.390 . S
C152 C153 1.346 . S
C152 H157 0.930 . S
C153 N150 1.336 . S
C153 C152 1.346 . S
C153 H160 0.929 . S
C154 O144 1.282 . S
C154 O155 1.216 . S
O155 C154 1.216 . S
H156 C151 0.930 . S
H157 C152 0.930 . S
O158 Cu138 1.959 . S
O158 C145 1.251 . S
H159 C142 0.930 . S
H160 C153 0.929 . S
Cu161 N162 1.999 . S
Cu161 O167 1.974 . S
Cu161 N172 1.985 . S
Cu161 O181 1.959 . S
N162 Cu161 1.999 . S
N162 C164 1.263 . S
N162 C166 1.389 . S
N163 C164 1.358 . S
N163 C165 1.400 . S
C164 N162 1.263 . S
C164 N163 1.358 . S
C164 H170 0.930 . S
C165 N163 1.400 . S
C165 C166 1.351 . S
C165 H182 0.930 . S
C166 N162 1.389 . S
C166 C165 1.351 . S
C166 H171 0.930 . S
O167 Cu161 1.974 . S
O167 C177 1.282 . S
C168 O169 1.261 . S
C168 O181 1.251 . S
O169 C168 1.261 . S
H170 C164 0.930 . S
H171 C166 0.930 . S
N172 Cu161 1.985 . S
N172 C174 1.335 . S
N172 C175 1.390 . S
N173 C174 1.345 . S
N173 C176 1.336 . S
C174 N172 1.335 . S
C174 N173 1.345 . S
C174 H179 0.930 . S
C175 N172 1.390 . S
C175 C176 1.346 . S
C175 H180 0.930 . S
C176 N173 1.336 . S
C176 C175 1.346 . S
C176 H183 0.929 . S
C177 O167 1.282 . S
C177 O178 1.216 . S
O178 C177 1.216 . S
H179 C174 0.930 . S
H180 C175 0.930 . S
O181 Cu161 1.959 . S
O181 C168 1.251 . S
H182 C165 0.930 . S
H183 C176 0.929 . S
Cu184 N185 1.999 . S
Cu184 O190 1.974 . S
Cu184 N195 1.985 . S
Cu184 O204 1.959 . S
N185 Cu184 1.999 . S
N185 C187 1.263 . S
N185 C189 1.389 . S
N186 C187 1.358 . S
N186 C188 1.400 . S
C187 N185 1.263 . S
C187 N186 1.358 . S
C187 H193 0.930 . S
C188 N186 1.400 . S
C188 C189 1.351 . S
C188 H205 0.930 . S
C189 N185 1.389 . S
C189 C188 1.351 . S
C189 H194 0.930 . S
O190 Cu184 1.974 . S
O190 C200 1.282 . S
C191 O192 1.261 . S
C191 O204 1.251 . S
O192 C191 1.261 . S
H193 C187 0.930 . S
H194 C189 0.930 . S
N195 Cu184 1.985 . S
N195 C197 1.335 . S
N195 C198 1.390 . S
N196 C197 1.345 . S
N196 C199 1.336 . S
C197 N195 1.335 . S
C197 N196 1.345 . S
C197 H202 0.930 . S
C198 N195 1.390 . S
C198 C199 1.346 . S
C198 H203 0.930 . S
C199 N196 1.336 . S
C199 C198 1.346 . S
C199 H206 0.929 . S
C200 O190 1.282 . S
C200 O201 1.216 . S
O201 C200 1.216 . S
H202 C197 0.930 . S
H203 C198 0.930 . S
O204 Cu184 1.959 . S
O204 C191 1.251 . S
H205 C188 0.930 . S
H206 C199 0.929 . S
Cu207 N208 1.999 . S
Cu207 O213 1.974 . S
Cu207 N218 1.985 . S
Cu207 O227 1.959 . S
N208 Cu207 1.999 . S
N208 C210 1.263 . S
N208 C212 1.389 . S
N209 C210 1.358 . S
N209 C211 1.400 . S
C210 N208 1.263 . S
C210 N209 1.358 . S
C210 H216 0.930 . S
C211 N209 1.400 . S
C211 C212 1.351 . S
C211 H228 0.930 . S
C212 N208 1.389 . S
C212 C211 1.351 . S
C212 H217 0.930 . S
O213 Cu207 1.974 . S
O213 C223 1.282 . S
C214 O215 1.261 . S
C214 O227 1.251 . S
O215 C214 1.261 . S
H216 C210 0.930 . S
H217 C212 0.930 . S
N218 Cu207 1.985 . S
N218 C220 1.335 . S
N218 C221 1.390 . S
N219 C220 1.345 . S
N219 C222 1.336 . S
C220 N218 1.335 . S
C220 N219 1.345 . S
C220 H225 0.930 . S
C221 N218 1.390 . S
C221 C222 1.346 . S
C221 H226 0.930 . S
C222 N219 1.336 . S
C222 C221 1.346 . S
C222 H229 0.929 . S
C223 O213 1.282 . S
C223 O224 1.216 . S
O224 C223 1.216 . S
H225 C220 0.930 . S
H226 C221 0.930 . S
O227 Cu207 1.959 . S
O227 C214 1.251 . S
H228 C211 0.930 . S
H229 C222 0.929 . S
Cu230 N231 1.999 . S
Cu230 O236 1.974 . S
Cu230 N241 1.985 . S
Cu230 O250 1.959 . S
N231 Cu230 1.999 . S
N231 C233 1.263 . S
N231 C235 1.389 . S
N232 C233 1.358 . S
N232 C234 1.400 . S
C233 N231 1.263 . S
C233 N232 1.358 . S
C233 H239 0.930 . S
C234 N232 1.400 . S
C234 C235 1.351 . S
C234 H251 0.930 . S
C235 N231 1.389 . S
C235 C234 1.351 . S
C235 H240 0.930 . S
O236 Cu230 1.974 . S
O236 C246 1.282 . S
C237 O238 1.261 . S
C237 O250 1.251 . S
O238 C237 1.261 . S
H239 C233 0.930 . S
H240 C235 0.930 . S
N241 Cu230 1.985 . S
N241 C243 1.335 . S
N241 C244 1.390 . S
N242 C243 1.345 . S
N242 C245 1.336 . S
C243 N241 1.335 . S
C243 N242 1.345 . S
C243 H248 0.930 . S
C244 N241 1.390 . S
C244 C245 1.346 . S
C244 H249 0.930 . S
C245 N242 1.336 . S
C245 C244 1.346 . S
C245 H252 0.929 . S
C246 O236 1.282 . S
C246 O247 1.216 . S
O247 C246 1.216 . S
H248 C243 0.930 . S
H249 C244 0.930 . S
O250 Cu230 1.959 . S
O250 C237 1.251 . S
H251 C234 0.930 . S
H252 C245 0.929 . S
Cu253 N254 1.999 . S
Cu253 O259 1.974 . S
Cu253 N264 1.985 . S
Cu253 O273 1.959 . S
N254 Cu253 1.999 . S
N254 C256 1.263 . S
N254 C258 1.389 . S
N255 C256 1.358 . S
N255 C257 1.400 . S
C256 N254 1.263 . S
C256 N255 1.358 . S
C256 H262 0.930 . S
C257 N255 1.400 . S
C257 C258 1.351 . S
C257 H274 0.930 . S
C258 N254 1.389 . S
C258 C257 1.351 . S
C258 H263 0.930 . S
O259 Cu253 1.974 . S
O259 C269 1.282 . S
C260 O261 1.261 . S
C260 O273 1.251 . S
O261 C260 1.261 . S
H262 C256 0.930 . S
H263 C258 0.930 . S
N264 Cu253 1.985 . S
N264 C266 1.335 . S
N264 C267 1.390 . S
N265 C266 1.345 . S
N265 C268 1.336 . S
C266 N264 1.335 . S
C266 N265 1.345 . S
C266 H271 0.930 . S
C267 N264 1.390 . S
C267 C268 1.346 . S
C267 H272 0.930 . S
C268 N265 1.336 . S
C268 C267 1.346 . S
C268 H275 0.929 . S
C269 O259 1.282 . S
C269 O270 1.216 . S
O270 C269 1.216 . S
H271 C266 0.930 . S
H272 C267 0.930 . S
O273 Cu253 1.959 . S
O273 C260 1.251 . S
H274 C257 0.930 . S
H275 C268 0.929 . S
Cu276 N277 1.999 . S
Cu276 O282 1.974 . S
Cu276 N287 1.985 . S
Cu276 O296 1.959 . S
N277 Cu276 1.999 . S
N277 C279 1.263 . S
N277 C281 1.389 . S
N278 C279 1.358 . S
N278 C280 1.400 . S
C279 N277 1.263 . S
C279 N278 1.358 . S
C279 H285 0.930 . S
C280 N278 1.400 . S
C280 C281 1.351 . S
C280 H297 0.930 . S
C281 N277 1.389 . S
C281 C280 1.351 . S
C281 H286 0.930 . S
O282 Cu276 1.974 . S
O282 C292 1.282 . S
C283 O284 1.261 . S
C283 O296 1.251 . S
O284 C283 1.261 . S
H285 C279 0.930 . S
H286 C281 0.930 . S
N287 Cu276 1.985 . S
N287 C289 1.335 . S
N287 C290 1.390 . S
N288 C289 1.345 . S
N288 C291 1.336 . S
C289 N287 1.335 . S
C289 N288 1.345 . S
C289 H294 0.930 . S
C290 N287 1.390 . S
C290 C291 1.346 . S
C290 H295 0.930 . S
C291 N288 1.336 . S
C291 C290 1.346 . S
C291 H298 0.929 . S
C292 O282 1.282 . S
C292 O293 1.216 . S
O293 C292 1.216 . S
H294 C289 0.930 . S
H295 C290 0.930 . S
O296 Cu276 1.959 . S
O296 C283 1.251 . S
H297 C280 0.930 . S
H298 C291 0.929 . S
Cu299 N300 1.999 . S
Cu299 O305 1.974 . S
Cu299 N310 1.985 . S
Cu299 O319 1.959 . S
N300 Cu299 1.999 . S
N300 C302 1.263 . S
N300 C304 1.389 . S
N301 C302 1.358 . S
N301 C303 1.400 . S
C302 N300 1.263 . S
C302 N301 1.358 . S
C302 H308 0.930 . S
C303 N301 1.400 . S
C303 C304 1.351 . S
C303 H320 0.930 . S
C304 N300 1.389 . S
C304 C303 1.351 . S
C304 H309 0.930 . S
O305 Cu299 1.974 . S
O305 C315 1.282 . S
C306 O307 1.261 . S
C306 O319 1.251 . S
O307 C306 1.261 . S
H308 C302 0.930 . S
H309 C304 0.930 . S
N310 Cu299 1.985 . S
N310 C312 1.335 . S
N310 C313 1.390 . S
N311 C312 1.345 . S
N311 C314 1.336 . S
C312 N310 1.335 . S
C312 N311 1.345 . S
C312 H317 0.930 . S
C313 N310 1.390 . S
C313 C314 1.346 . S
C313 H318 0.930 . S
C314 N311 1.336 . S
C314 C313 1.346 . S
C314 H321 0.929 . S
C315 O305 1.282 . S
C315 O316 1.216 . S
O316 C315 1.216 . S
H317 C312 0.930 . S
H318 C313 0.930 . S
O319 Cu299 1.959 . S
O319 C306 1.251 . S
H320 C303 0.930 . S
H321 C314 0.929 . S
Cu322 N323 1.999 . S
Cu322 O328 1.974 . S
Cu322 N333 1.985 . S
Cu322 O342 1.959 . S
N323 Cu322 1.999 . S
N323 C325 1.263 . S
N323 C327 1.389 . S
N324 C325 1.358 . S
N324 C326 1.400 . S
C325 N323 1.263 . S
C325 N324 1.358 . S
C325 H331 0.930 . S
C326 N324 1.400 . S
C326 C327 1.351 . S
C326 H343 0.930 . S
C327 N323 1.389 . S
C327 C326 1.351 . S
C327 H332 0.930 . S
O328 Cu322 1.974 . S
O328 C338 1.282 . S
C329 O330 1.261 . S
C329 O342 1.251 . S
O330 C329 1.261 . S
H331 C325 0.930 . S
H332 C327 0.930 . S
N333 Cu322 1.985 . S
N333 C335 1.335 . S
N333 C336 1.390 . S
N334 C335 1.345 . S
N334 C337 1.336 . S
C335 N333 1.335 . S
C335 N334 1.345 . S
C335 H340 0.930 . S
C336 N333 1.390 . S
C336 C337 1.346 . S
C336 H341 0.930 . S
C337 N334 1.336 . S
C337 C336 1.346 . S
C337 H344 0.929 . S
C338 O328 1.282 . S
C338 O339 1.216 . S
O339 C338 1.216 . S
H340 C335 0.930 . S
H341 C336 0.930 . S
O342 Cu322 1.959 . S
O342 C329 1.251 . S
H343 C326 0.930 . S
H344 C337 0.929 . S
Cu345 N346 1.999 . S
Cu345 O351 1.974 . S
Cu345 N356 1.985 . S
Cu345 O365 1.959 . S
N346 Cu345 1.999 . S
N346 C348 1.263 . S
N346 C350 1.389 . S
N347 C348 1.358 . S
N347 C349 1.400 . S
C348 N346 1.263 . S
C348 N347 1.358 . S
C348 H354 0.930 . S
C349 N347 1.400 . S
C349 C350 1.351 . S
C349 H366 0.930 . S
C350 N346 1.389 . S
C350 C349 1.351 . S
C350 H355 0.930 . S
O351 Cu345 1.974 . S
O351 C361 1.282 . S
C352 O353 1.261 . S
C352 O365 1.251 . S
O353 C352 1.261 . S
H354 C348 0.930 . S
H355 C350 0.930 . S
N356 Cu345 1.985 . S
N356 C358 1.335 . S
N356 C359 1.390 . S
N357 C358 1.345 . S
N357 C360 1.336 . S
C358 N356 1.335 . S
C358 N357 1.345 . S
C358 H363 0.930 . S
C359 N356 1.390 . S
C359 C360 1.346 . S
C359 H364 0.930 . S
C360 N357 1.336 . S
C360 C359 1.346 . S
C360 H367 0.929 . S
C361 O351 1.282 . S
C361 O362 1.216 . S
O362 C361 1.216 . S
H363 C358 0.930 . S
H364 C359 0.930 . S
O365 Cu345 1.959 . S
O365 C352 1.251 . S
H366 C349 0.930 . S
H367 C360 0.929 . S
Cu368 N369 1.999 . S
Cu368 O374 1.974 . S
Cu368 N379 1.985 . S
Cu368 O388 1.959 . S
N369 Cu368 1.999 . S
N369 C371 1.263 . S
N369 C373 1.389 . S
N370 C371 1.358 . S
N370 C372 1.400 . S
C371 N369 1.263 . S
C371 N370 1.358 . S
C371 H377 0.930 . S
C372 N370 1.400 . S
C372 C373 1.351 . S
C372 H389 0.930 . S
C373 N369 1.389 . S
C373 C372 1.351 . S
C373 H378 0.930 . S
O374 Cu368 1.974 . S
O374 C384 1.282 . S
C375 O376 1.261 . S
C375 O388 1.251 . S
O376 C375 1.261 . S
H377 C371 0.930 . S
H378 C373 0.930 . S
N379 Cu368 1.985 . S
N379 C381 1.335 . S
N379 C382 1.390 . S
N380 C381 1.345 . S
N380 C383 1.336 . S
C381 N379 1.335 . S
C381 N380 1.345 . S
C381 H386 0.930 . S
C382 N379 1.390 . S
C382 C383 1.346 . S
C382 H387 0.930 . S
C383 N380 1.336 . S
C383 C382 1.346 . S
C383 H390 0.929 . S
C384 O374 1.282 . S
C384 O385 1.216 . S
O385 C384 1.216 . S
H386 C381 0.930 . S
H387 C382 0.930 . S
O388 Cu368 1.959 . S
O388 C375 1.251 . S
H389 C372 0.930 . S
H390 C383 0.929 . S
Cu391 N392 1.999 . S
Cu391 O397 1.974 . S
Cu391 N402 1.985 . S
Cu391 O411 1.959 . S
N392 Cu391 1.999 . S
N392 C394 1.263 . S
N392 C396 1.389 . S
N393 C394 1.358 . S
N393 C395 1.400 . S
C394 N392 1.263 . S
C394 N393 1.358 . S
C394 H400 0.930 . S
C395 N393 1.400 . S
C395 C396 1.351 . S
C395 H412 0.930 . S
C396 N392 1.389 . S
C396 C395 1.351 . S
C396 H401 0.930 . S
O397 Cu391 1.974 . S
O397 C407 1.282 . S
C398 O399 1.261 . S
C398 O411 1.251 . S
O399 C398 1.261 . S
H400 C394 0.930 . S
H401 C396 0.930 . S
N402 Cu391 1.985 . S
N402 C404 1.335 . S
N402 C405 1.390 . S
N403 C404 1.345 . S
N403 C406 1.336 . S
C404 N402 1.335 . S
C404 N403 1.345 . S
C404 H409 0.930 . S
C405 N402 1.390 . S
C405 C406 1.346 . S
C405 H410 0.930 . S
C406 N403 1.336 . S
C406 C405 1.346 . S
C406 H413 0.929 . S
C407 O397 1.282 . S
C407 O408 1.216 . S
O408 C407 1.216 . S
H409 C404 0.930 . S
H410 C405 0.930 . S
O411 Cu391 1.959 . S
O411 C398 1.251 . S
H412 C395 0.930 . S
H413 C406 0.929 . S
C414 O415 1.160 1_455 S
C414 O421 1.185 . S
O415 C414 1.160 1_655 S
O416 Zn417 1.899 1_655 S
O416 C424 1.284 . S
Zn417 O416 1.899 1_455 S
Zn417 O418 2.032 . S
Zn417 O421 2.086 . S
Zn417 O426 1.977 . S
O418 Zn417 2.032 . S
O418 C422 1.278 . S
C419 O420 1.203 . S
C419 O426 1.267 . S
O420 C419 1.203 . S
O421 C414 1.185 . S
O421 Zn417 2.086 . S
C422 O418 1.278 . S
C422 O423 1.211 . S
O423 C422 1.211 . S
C424 O416 1.284 . S
C424 O425 1.273 . S
O425 C424 1.273 . S
O426 Zn417 1.977 . S
O426 C419 1.267 . S
C427 O428 1.160 . S
C427 O434 1.185 . S
O428 C427 1.160 . S
O429 Zn430 1.899 . S
O429 C437 1.284 . S
Zn430 O429 1.899 . S
Zn430 O431 2.032 . S
Zn430 O434 2.086 . S
Zn430 O439 1.977 . S
O431 Zn430 2.032 . S
O431 C435 1.278 . S
C432 O433 1.203 . S
C432 O439 1.267 . S
O433 C432 1.203 . S
O434 C427 1.185 . S
O434 Zn430 2.086 . S
C435 O431 1.278 . S
C435 O436 1.211 . S
O436 C435 1.211 . S
C437 O429 1.284 . S
C437 O438 1.273 . S
O438 C437 1.273 . S
O439 Zn430 1.977 . S
O439 C432 1.267 . S
C440 O441 1.160 . S
C440 O447 1.185 . S
O441 C440 1.160 . S
O442 Zn443 1.899 . S
O442 C450 1.284 . S
Zn443 O442 1.899 . S
Zn443 O444 2.032 . S
Zn443 O447 2.086 . S
Zn443 O452 1.977 . S
O444 Zn443 2.032 . S
O444 C448 1.278 . S
C445 O446 1.203 . S
C445 O452 1.267 . S
O446 C445 1.203 . S
O447 C440 1.185 . S
O447 Zn443 2.086 . S
C448 O444 1.278 . S
C448 O449 1.211 . S
O449 C448 1.211 . S
C450 O442 1.284 . S
C450 O451 1.273 . S
O451 C450 1.273 . S
O452 Zn443 1.977 . S
O452 C445 1.267 . S
C453 O454 1.160 . S
C453 O460 1.185 . S
O454 C453 1.160 . S
O455 Zn456 1.899 . S
O455 C463 1.284 . S
Zn456 O455 1.899 . S
Zn456 O457 2.032 . S
Zn456 O460 2.086 . S
Zn456 O465 1.977 1_455 S
O457 Zn456 2.032 . S
O457 C461 1.278 . S
C458 O459 1.203 . S
C458 O465 1.267 . S
O459 C458 1.203 . S
O460 C453 1.185 . S
O460 Zn456 2.086 . S
C461 O457 1.278 . S
C461 O462 1.211 . S
O462 C461 1.211 . S
C463 O455 1.284 . S
C463 O464 1.273 . S
O464 C463 1.273 . S
O465 Zn456 1.977 1_655 S
O465 C458 1.267 . S
C466 O467 1.160 . S
C466 O473 1.185 . S
O467 C466 1.160 . S
O468 Zn469 1.899 . S
O468 C476 1.284 . S
Zn469 O468 1.899 . S
Zn469 O470 2.032 . S
Zn469 O473 2.086 . S
Zn469 O478 1.977 . S
O470 Zn469 2.032 . S
O470 C474 1.278 . S
C471 O472 1.203 . S
C471 O478 1.267 . S
O472 C471 1.203 . S
O473 C466 1.185 . S
O473 Zn469 2.086 . S
C474 O470 1.278 . S
C474 O475 1.211 . S
O475 C474 1.211 . S
C476 O468 1.284 . S
C476 O477 1.273 . S
O477 C476 1.273 . S
O478 Zn469 1.977 . S
O478 C471 1.267 . S
C479 O480 1.160 . S
C479 O486 1.185 . S
O480 C479 1.160 . S
O481 Zn482 1.899 . S
O481 C489 1.284 . S
Zn482 O481 1.899 . S
Zn482 O483 2.032 . S
Zn482 O486 2.086 . S
Zn482 O491 1.977 1_545 S
O483 Zn482 2.032 . S
O483 C487 1.278 . S
C484 O485 1.203 . S
C484 O491 1.267 . S
O485 C484 1.203 . S
O486 C479 1.185 . S
O486 Zn482 2.086 . S
C487 O483 1.278 . S
C487 O488 1.211 . S
O488 C487 1.211 . S
C489 O481 1.284 . S
C489 O490 1.273 . S
O490 C489 1.273 . S
O491 Zn482 1.977 1_565 S
O491 C484 1.267 . S
C492 O493 1.160 . S
C492 O499 1.185 . S
O493 C492 1.160 . S
O494 Zn495 1.899 . S
O494 C502 1.290 1_545 S
Zn495 O494 1.899 . S
Zn495 O496 2.032 1_545 S
Zn495 O499 2.086 1_545 S
Zn495 O504 1.977 . S
O496 Zn495 2.032 1_565 S
O496 C500 1.278 . S
C497 O498 1.203 . S
C497 O504 1.267 . S
O498 C497 1.203 . S
O499 C492 1.185 . S
O499 Zn495 2.086 1_565 S
C500 O496 1.278 . S
C500 O501 1.211 . S
O501 C500 1.211 . S
C502 O494 1.290 1_565 S
C502 O503 1.284 . S
O503 C502 1.284 . S
O504 Zn495 1.977 . S
O504 C497 1.267 . S
C505 O506 1.160 . S
C505 O512 1.185 . S
O506 C505 1.160 . S
O507 Zn508 1.899 . S
O507 C515 1.284 . S
Zn508 O507 1.899 . S
Zn508 O509 2.032 . S
Zn508 O512 2.086 . S
Zn508 O517 1.977 . S
O509 Zn508 2.032 . S
O509 C513 1.278 . S
C510 O511 1.203 . S
C510 O517 1.267 . S
O511 C510 1.203 . S
O512 C505 1.185 . S
O512 Zn508 2.086 . S
C513 O509 1.278 . S
C513 O514 1.211 . S
O514 C513 1.211 . S
C515 O507 1.284 . S
C515 O516 1.273 . S
O516 C515 1.273 . S
O517 Zn508 1.977 . S
O517 C510 1.267 . S
C518 O519 1.160 . S
C518 O525 1.185 . S
O519 C518 1.160 . S
O520 Zn521 1.899 . S
O520 C528 1.284 . S
Zn521 O520 1.899 . S
Zn521 O522 2.032 . S
Zn521 O525 2.086 . S
Zn521 O530 1.977 . S
O522 Zn521 2.032 . S
O522 C526 1.278 . S
C523 O524 1.203 . S
C523 O530 1.267 . S
O524 C523 1.203 . S
O525 C518 1.185 . S
O525 Zn521 2.086 . S
C526 O522 1.278 . S
C526 O527 1.211 . S
O527 C526 1.211 . S
C528 O520 1.284 . S
C528 O529 1.273 . S
O529 C528 1.273 . S
O530 Zn521 1.977 . S
O530 C523 1.267 . S
C531 O532 1.160 . S
C531 O538 1.185 . S
O532 C531 1.160 . S
O533 Zn534 1.899 . S
O533 C541 1.284 . S
Zn534 O533 1.899 . S
Zn534 O535 2.032 . S
Zn534 O538 2.086 . S
Zn534 O543 1.977 . S
O535 Zn534 2.032 . S
O535 C539 1.278 . S
C536 O537 1.203 . S
C536 O543 1.267 . S
O537 C536 1.203 . S
O538 C531 1.185 . S
O538 Zn534 2.086 . S
C539 O535 1.278 . S
C539 O540 1.211 . S
O540 C539 1.211 . S
C541 O533 1.284 . S
C541 O542 1.273 . S
O542 C541 1.273 . S
O543 Zn534 1.977 . S
O543 C536 1.267 . S
C544 O545 1.160 . S
C544 O551 1.185 . S
O545 C544 1.160 . S
O546 Zn547 1.899 . S
O546 C554 1.284 . S
Zn547 O546 1.899 . S
Zn547 O548 2.032 . S
Zn547 O551 2.086 . S
Zn547 O556 1.977 1_565 S
O548 Zn547 2.032 . S
O548 C552 1.278 . S
C549 O550 1.203 . S
C549 O556 1.267 . S
O550 C549 1.203 . S
O551 C544 1.185 . S
O551 Zn547 2.086 . S
C552 O548 1.278 . S
C552 O553 1.211 1_565 S
O553 C552 1.211 1_545 S
C554 O546 1.284 . S
C554 O555 1.273 . S
O555 C554 1.273 . S
O556 Zn547 1.977 1_545 S
O556 C549 1.267 . S
C557 O558 1.160 . S
C557 O564 1.185 . S
O558 C557 1.160 . S
O559 Zn560 1.899 . S
O559 C567 1.284 . S
Zn560 O559 1.899 . S
Zn560 O561 2.032 . S
Zn560 O564 2.086 . S
Zn560 O569 1.977 . S
O561 Zn560 2.032 . S
O561 C565 1.278 . S
C562 O563 1.207 . S
C562 O569 1.267 1_655 S
O563 C562 1.207 . S
O564 C557 1.185 . S
O564 Zn560 2.086 . S
C565 O561 1.278 . S
C565 O566 1.211 . S
O566 C565 1.211 . S
C567 O559 1.284 . S
C567 O568 1.273 . S
O568 C567 1.273 . S
O569 Zn560 1.977 . S
O569 C562 1.267 1_455 S
C570 O571 1.160 . S
C570 O577 1.185 . S
O571 C570 1.160 . S
O572 Zn573 1.899 . S
O572 C580 1.284 . S
Zn573 O572 1.899 . S
Zn573 O574 2.032 . S
Zn573 O577 2.086 . S
Zn573 O582 1.977 . S
O574 Zn573 2.032 . S
O574 C578 1.278 . S
C575 O576 1.203 . S
C575 O582 1.267 . S
O576 C575 1.203 . S
O577 C570 1.185 . S
O577 Zn573 2.086 . S
C578 O574 1.278 . S
C578 O579 1.211 1_556 S
O579 C578 1.211 1_554 S
C580 O572 1.284 . S
C580 O581 1.273 . S
O581 C580 1.273 . S
O582 Zn573 1.977 . S
O582 C575 1.267 . S
C583 O584 1.160 . S
C583 O590 1.185 . S
O584 C583 1.160 . S
O585 Zn586 1.899 . S
O585 C593 1.284 . S
Zn586 O585 1.899 . S
Zn586 O587 2.032 . S
Zn586 O590 2.086 . S
Zn586 O595 1.977 . S
O587 Zn586 2.032 . S
O587 C591 1.278 . S
C588 O589 1.203 . S
C588 O595 1.267 . S
O589 C588 1.203 . S
O590 C583 1.185 . S
O590 Zn586 2.086 . S
C591 O587 1.278 . S
C591 O592 1.211 . S
O592 C591 1.211 . S
C593 O585 1.284 . S
C593 O594 1.273 . S
O594 C593 1.273 . S
O595 Zn586 1.977 . S
O595 C588 1.267 . S
C596 O597 1.160 . S
C596 O603 1.185 . S
O597 C596 1.160 . S
O598 Zn599 1.899 . S
O598 C606 1.284 . S
Zn599 O598 1.899 . S
Zn599 O600 2.032 1_655 S
Zn599 O603 2.086 . S
Zn599 O608 1.977 . S
O600 Zn599 2.032 1_455 S
O600 C604 1.278 . S
C601 O602 1.203 . S
C601 O608 1.267 . S
O602 C601 1.203 . S
O603 C596 1.185 . S
O603 Zn599 2.086 . S
C604 O600 1.278 . S
C604 O605 1.211 . S
O605 C604 1.211 . S
C606 O598 1.284 . S
C606 O607 1.273 . S
O607 C606 1.273 . S
O608 Zn599 1.977 . S
O608 C601 1.267 . S
C609 O610 1.160 . S
C609 O616 1.185 . S
O610 C609 1.160 . S
O611 Zn612 1.899 . S
O611 C619 1.284 . S
Zn612 O611 1.899 . S
Zn612 O613 2.032 . S
Zn612 O616 2.086 . S
Zn612 O621 1.977 . S
O613 Zn612 2.032 . S
O613 C617 1.278 . S
C614 O615 1.203 . S
C614 O621 1.267 . S
O615 C614 1.203 . S
O616 C609 1.185 . S
O616 Zn612 2.086 . S
C617 O613 1.278 . S
C617 O618 1.211 . S
O618 C617 1.211 . S
C619 O611 1.284 . S
C619 O620 1.273 . S
O620 C619 1.273 . S
O621 Zn612 1.977 . S
O621 C614 1.267 . S
C622 O623 1.160 . S
C622 O629 1.185 . S
O623 C622 1.160 . S
O624 Zn625 1.899 . S
O624 C632 1.284 . S
Zn625 O624 1.899 . S
Zn625 O626 2.032 . S
Zn625 O629 2.086 . S
Zn625 O634 1.977 . S
O626 Zn625 2.032 . S
O626 C630 1.278 1_655 S
C627 O628 1.203 . S
C627 O634 1.267 . S
O628 C627 1.203 . S
O629 C622 1.185 . S
O629 Zn625 2.086 . S
C630 O626 1.278 1_455 S
C630 O631 1.211 . S
O631 C630 1.211 . S
C632 O624 1.284 . S
C632 O633 1.273 . S
O633 C632 1.273 . S
O634 Zn625 1.977 . S
O634 C627 1.267 . S
C635 O636 1.160 . S
C635 O642 1.185 . S
O636 C635 1.160 . S
O637 Zn638 1.899 . S
O637 C645 1.284 . S
Zn638 O637 1.899 . S
Zn638 O639 2.032 . S
Zn638 O642 2.086 . S
Zn638 O647 1.977 . S
O639 Zn638 2.032 . S
O639 C643 1.278 . S
C640 O641 1.203 . S
C640 O647 1.267 . S
O641 C640 1.203 . S
O642 C635 1.185 . S
O642 Zn638 2.086 . S
C643 O639 1.278 . S
C643 O644 1.211 . S
O644 C643 1.211 . S
C645 O637 1.284 . S
C645 O646 1.273 . S
O646 C645 1.273 . S
O647 Zn638 1.977 . S
O647 C640 1.267 . S
C648 C649 1.369 . S
C648 C650 1.419 . S
C648 H652 0.930 . S
C649 C648 1.369 . S
C649 C658 1.429 . S
C650 C648 1.419 . S
C650 C651 1.363 . S
C650 H653 0.929 . S
C651 C650 1.363 . S
C651 C657 1.428 . S
H652 C648 0.930 . S
H653 C650 0.929 . S
S654 N655 1.613 . S
S654 N656 1.610 . S
N655 S654 1.613 . S
N655 C658 1.350 . S
N656 S654 1.610 . S
N656 C657 1.351 . S
C657 C651 1.428 . S
C657 N656 1.351 . S
C657 C658 1.434 . S
C658 C649 1.429 . S
C658 N655 1.350 . S
C658 C657 1.434 . S
C659 C660 1.369 . S
C659 C661 1.419 . S
C659 H663 0.930 . S
C660 C659 1.369 . S
C660 C669 1.429 . S
C661 C659 1.419 . S
C661 C662 1.363 . S
C661 H664 0.929 . S
C662 C661 1.363 . S
C662 C668 1.428 . S
H663 C659 0.930 . S
H664 C661 0.929 . S
S665 N666 1.613 1_556 S
S665 N667 1.610 1_556 S
N666 S665 1.613 1_554 S
N666 C669 1.350 . S
N667 S665 1.610 1_554 S
N667 C668 1.351 . S
C668 C662 1.428 . S
C668 N667 1.351 . S
C668 C669 1.434 . S
C669 C660 1.429 . S
C669 N666 1.350 . S
C669 C668 1.434 . S
C670 C671 1.408 . S
C670 C672 1.419 . S
C670 H674 0.930 . S
C671 C670 1.408 . S
C671 C680 1.403 1_545 S
C672 C670 1.419 . S
C672 C673 1.363 1_545 S
C672 H675 0.929 . S
C673 C672 1.363 1_565 S
C673 C679 1.428 . S
H674 C670 0.930 . S
H675 C672 0.929 . S
S676 N677 1.613 . S
S676 N678 1.610 . S
N677 S676 1.613 . S
N677 C680 1.350 . S
N678 S676 1.610 . S
N678 C679 1.351 . S
C679 C673 1.428 . S
C679 N678 1.351 . S
C679 C680 1.434 . S
C680 C671 1.403 1_565 S
C680 N677 1.350 . S
C680 C679 1.434 . S
C681 C682 1.369 . S
C681 C683 1.419 . S
C681 H685 0.930 . S
C682 C681 1.369 . S
C682 C691 1.429 . S
C683 C681 1.419 . S
C683 C684 1.363 . S
C683 H686 0.929 . S
C684 C683 1.363 . S
C684 C690 1.428 . S
H685 C681 0.930 . S
H686 C683 0.929 . S
S687 N688 1.613 . S
S687 N689 1.610 . S
N688 S687 1.613 . S
N688 C691 1.350 . S
N689 S687 1.610 . S
N689 C690 1.351 . S
C690 C684 1.428 . S
C690 N689 1.351 . S
C690 C691 1.434 . S
C691 C682 1.429 . S
C691 N688 1.350 . S
C691 C690 1.434 . S
C692 C693 1.369 . S
C692 C694 1.419 1_455 S
C692 H696 0.931 . S
C693 C692 1.369 . S
C693 C702 1.429 . S
C694 C692 1.419 1_655 S
C694 C695 1.363 . S
C694 H697 0.929 . S
C695 C694 1.363 . S
C695 C701 1.428 1_655 S
H696 C692 0.931 . S
H697 C694 0.929 . S
S698 N699 1.613 . S
S698 N700 1.610 . S
N699 S698 1.613 . S
N699 C702 1.350 . S
N700 S698 1.610 . S
N700 C701 1.351 . S
C701 C695 1.428 1_455 S
C701 N700 1.351 . S
C701 C702 1.434 . S
C702 C693 1.429 . S
C702 N699 1.350 . S
C702 C701 1.434 . S
C703 C704 1.369 . S
C703 C705 1.419 . S
C703 H707 0.930 . S
C704 C703 1.369 . S
C704 C713 1.429 . S
C705 C703 1.419 . S
C705 C706 1.363 . S
C705 H708 0.929 . S
C706 C705 1.363 . S
C706 C712 1.428 . S
H707 C703 0.930 . S
H708 C705 0.929 . S
S709 N710 1.613 . S
S709 N711 1.610 . S
N710 S709 1.613 . S
N710 C713 1.350 . S
N711 S709 1.610 . S
N711 C712 1.351 . S
C712 C706 1.428 . S
C712 N711 1.351 . S
C712 C713 1.434 . S
C713 C704 1.429 . S
C713 N710 1.350 . S
C713 C712 1.434 . S
C714 C715 1.369 . S
C714 C716 1.419 . S
C714 H718 0.930 . S
C715 C714 1.369 . S
C715 C724 1.429 1_455 S
C716 C714 1.419 . S
C716 C717 1.363 . S
C716 H719 0.929 . S
C717 C716 1.363 . S
C717 C723 1.428 1_455 S
H718 C714 0.930 . S
H719 C716 0.929 . S
S720 N721 1.613 . S
S720 N722 1.610 . S
N721 S720 1.613 . S
N721 C724 1.350 . S
N722 S720 1.610 . S
N722 C723 1.351 . S
C723 C717 1.428 1_655 S
C723 N722 1.351 . S
C723 C724 1.434 . S
C724 C715 1.429 1_655 S
C724 N721 1.350 . S
C724 C723 1.434 . S
C725 C726 1.369 . S
C725 C727 1.419 . S
C725 H729 0.930 . S
C726 C725 1.369 . S
C726 C735 1.429 . S
C727 C725 1.419 . S
C727 C728 1.363 . S
C727 H730 0.929 . S
C728 C727 1.363 . S
C728 C734 1.428 . S
H729 C725 0.930 . S
H730 C727 0.929 . S
S731 N732 1.613 . S
S731 N733 1.610 1_554 S
N732 S731 1.613 . S
N732 C735 1.350 1_554 S
N733 S731 1.610 1_556 S
N733 C734 1.351 . S
C734 C728 1.428 . S
C734 N733 1.351 . S
C734 C735 1.434 . S
C735 C726 1.429 . S
C735 N732 1.350 1_556 S
C735 C734 1.434 . S
C736 C737 1.369 . S
C736 C738 1.419 . S
C736 H740 0.930 . S
C737 C736 1.369 . S
C737 C746 1.429 . S
C738 C736 1.419 . S
C738 C739 1.363 . S
C738 H741 0.929 . S
C739 C738 1.363 . S
C739 C745 1.428 . S
H740 C736 0.930 . S
H741 C738 0.929 . S
S742 N743 1.613 . S
S742 N744 1.610 . S
N743 S742 1.613 . S
N743 C746 1.350 . S
N744 S742 1.610 . S
N744 C745 1.351 . S
C745 C739 1.428 . S
C745 N744 1.351 . S
C745 C746 1.434 . S
C746 C737 1.429 . S
C746 N743 1.350 . S
C746 C745 1.434 . S
C747 C748 1.369 . S
C747 C749 1.419 . S
C747 H751 0.930 . S
C748 C747 1.369 . S
C748 C757 1.429 . S
C749 C747 1.419 . S
C749 C750 1.363 . S
C749 H752 0.929 1_545 S
C750 C749 1.363 . S
C750 C756 1.428 . S
H751 C747 0.930 . S
H752 C749 0.929 1_565 S
S753 N754 1.613 . S
S753 N755 1.610 . S
N754 S753 1.613 . S
N754 C757 1.350 . S
N755 S753 1.610 . S
N755 C756 1.351 . S
C756 C750 1.428 . S
C756 N755 1.351 . S
C756 C757 1.434 . S
C757 C748 1.429 . S
C757 N754 1.350 . S
C757 C756 1.434 . S
C758 C759 1.369 . S
C758 C760 1.419 . S
C758 H762 0.930 . S
C759 C758 1.369 . S
C759 C768 1.429 . S
C760 C758 1.419 . S
C760 C761 1.363 . S
C760 H763 0.929 . S
C761 C760 1.363 . S
C761 C767 1.428 . S
H762 C758 0.930 . S
H763 C760 0.929 . S
S764 N765 1.613 . S
S764 N766 1.610 . S
N765 S764 1.613 . S
N765 C768 1.350 . S
N766 S764 1.610 . S
N766 C767 1.351 . S
C767 C761 1.428 . S
C767 N766 1.351 . S
C767 C768 1.434 . S
C768 C759 1.429 . S
C768 N765 1.350 . S
C768 C767 1.434 . S
C769 C770 1.369 . S
C769 C771 1.419 . S
C769 H773 0.930 . S
C770 C769 1.369 . S
C770 C779 1.429 . S
C771 C769 1.419 . S
C771 C772 1.363 . S
C771 H774 0.929 . S
C772 C771 1.363 . S
C772 C778 1.428 . S
H773 C769 0.930 . S
H774 C771 0.929 . S
S775 N776 1.613 . S
S775 N777 1.610 . S
N776 S775 1.613 . S
N776 C779 1.350 . S
N777 S775 1.610 . S
N777 C778 1.351 . S
C778 C772 1.428 . S
C778 N777 1.351 . S
C778 C779 1.434 . S
C779 C770 1.429 . S
C779 N776 1.350 . S
C779 C778 1.434 . S
C780 C781 1.369 . S
C780 C782 1.419 . S
C780 H784 0.930 . S
C781 C780 1.369 . S
C781 C790 1.429 . S
C782 C780 1.419 . S
C782 C783 1.363 . S
C782 H785 0.929 . S
C783 C782 1.363 . S
C783 C789 1.428 . S
H784 C780 0.930 . S
H785 C782 0.929 . S
S786 N787 1.613 . S
S786 N788 1.610 . S
N787 S786 1.613 . S
N787 C790 1.350 . S
N788 S786 1.610 . S
N788 C789 1.351 . S
C789 C783 1.428 . S
C789 N788 1.351 . S
C789 C790 1.434 . S
C790 C781 1.429 . S
C790 N787 1.350 . S
C790 C789 1.434 . S
C791 C792 1.369 . S
C791 C793 1.419 1_565 S
C791 H795 0.930 . S
C792 C791 1.369 . S
C792 C801 1.429 1_565 S
C793 C791 1.419 1_545 S
C793 C794 1.363 . S
C793 H796 0.929 . S
C794 C793 1.363 . S
C794 C800 1.428 . S
H795 C791 0.930 . S
H796 C793 0.929 . S
S797 N798 1.613 . S
S797 N799 1.610 . S
N798 S797 1.613 . S
N798 C801 1.350 . S
N799 S797 1.610 . S
N799 C800 1.351 . S
C800 C794 1.428 . S
C800 N799 1.351 . S
C800 C801 1.434 . S
C801 C792 1.429 1_545 S
C801 N798 1.350 . S
C801 C800 1.434 . S
C802 C803 1.369 . S
C802 C804 1.419 . S
C802 H806 0.930 . S
C803 C802 1.369 . S
C803 C812 1.429 . S
C804 C802 1.419 . S
C804 C805 1.363 . S
C804 H807 0.929 . S
C805 C804 1.363 . S
C805 C811 1.428 . S
H806 C802 0.930 . S
H807 C804 0.929 . S
S808 N809 1.613 . S
S808 N810 1.610 . S
N809 S808 1.613 . S
N809 C812 1.350 . S
N810 S808 1.610 . S
N810 C811 1.351 . S
C811 C805 1.428 . S
C811 N810 1.351 . S
C811 C812 1.434 . S
C812 C803 1.429 . S
C812 N809 1.350 . S
C812 C811 1.434 . S
C813 C814 1.369 . S
C813 C815 1.419 . S
C813 H817 0.930 . S
C814 C813 1.369 . S
C814 C823 1.429 . S
C815 C813 1.419 . S
C815 C816 1.363 . S
C815 H818 0.929 . S
C816 C815 1.363 . S
C816 C822 1.428 . S
H817 C813 0.930 . S
H818 C815 0.929 . S
S819 N820 1.613 . S
S819 N821 1.610 . S
N820 S819 1.613 . S
N820 C823 1.350 . S
N821 S819 1.610 . S
N821 C822 1.351 . S
C822 C816 1.428 . S
C822 N821 1.351 . S
C822 C823 1.434 . S
C823 C814 1.429 . S
C823 N820 1.350 . S
C823 C822 1.434 . S
C824 C825 1.369 . S
C824 C826 1.419 . S
C824 H828 0.930 . S
C825 C824 1.369 . S
C825 C834 1.429 . S
C826 C824 1.419 . S
C826 C827 1.363 . S
C826 H829 0.929 . S
C827 C826 1.363 . S
C827 C833 1.428 . S
H828 C824 0.930 . S
H829 C826 0.929 . S
S830 N831 1.613 . S
S830 N832 1.610 . S
N831 S830 1.613 . S
N831 C834 1.350 . S
N832 S830 1.610 . S
N832 C833 1.351 . S
C833 C827 1.428 . S
C833 N832 1.351 . S
C833 C834 1.434 . S
C834 C825 1.429 . S
C834 N831 1.350 . S
C834 C833 1.434 . S
C835 C836 1.369 . S
C835 C837 1.419 . S
C835 H839 0.930 . S
C836 C835 1.369 . S
C836 C845 1.429 . S
C837 C835 1.419 . S
C837 C838 1.363 . S
C837 H840 0.929 . S
C838 C837 1.363 . S
C838 C844 1.428 . S
H839 C835 0.930 . S
H840 C837 0.929 . S
S841 N842 1.613 1_545 S
S841 N843 1.634 . S
N842 S841 1.613 1_565 S
N842 C845 1.350 . S
N843 S841 1.634 . S
N843 C844 1.318 1_545 S
C844 C838 1.428 . S
C844 N843 1.318 1_565 S
C844 C845 1.434 . S
C845 C836 1.429 . S
C845 N842 1.350 . S
C845 C844 1.434 . S
C846 C847 1.369 . S
C846 C848 1.419 . S
C846 H850 0.930 . S
C847 C846 1.369 . S
C847 C856 1.429 . S
C848 C846 1.419 . S
C848 C849 1.363 1_565 S
C848 H851 0.929 . S
C849 C848 1.363 1_545 S
C849 C855 1.428 . S
H850 C846 0.930 . S
H851 C848 0.929 . S
S852 N853 1.613 . S
S852 N854 1.610 . S
N853 S852 1.613 . S
N853 C856 1.350 1_545 S
N854 S852 1.610 . S
N854 C855 1.351 . S
C855 C849 1.428 . S
C855 N854 1.351 . S
C855 C856 1.434 1_545 S
C856 C847 1.429 . S
C856 N853 1.350 1_565 S
C856 C855 1.434 1_565 S
C857 C858 1.369 . S
C857 C859 1.419 . S
C857 H861 0.930 . S
C858 C857 1.369 . S
C858 C867 1.429 . S
C859 C857 1.419 . S
C859 C860 1.363 . S
C859 H862 0.929 . S
C860 C859 1.363 . S
C860 C866 1.428 . S
H861 C857 0.930 . S
H862 C859 0.929 . S
S863 N864 1.613 . S
S863 N865 1.610 . S
N864 S863 1.613 . S
N864 C867 1.350 . S
N865 S863 1.610 . S
N865 C866 1.351 . S
C866 C860 1.428 . S
C866 N865 1.351 . S
C866 C867 1.434 . S
C867 C858 1.429 . S
C867 N864 1.350 . S
C867 C866 1.434 . S
C868 C869 1.369 . S
C868 C870 1.419 . S
C868 H872 0.930 . S
C869 C868 1.369 . S
C869 C878 1.429 . S
C870 C868 1.419 . S
C870 C871 1.363 . S
C870 H873 0.929 . S
C871 C870 1.363 . S
C871 C877 1.428 . S
H872 C868 0.930 . S
H873 C870 0.929 . S
S874 N875 1.613 . S
S874 N876 1.610 . S
N875 S874 1.613 . S
N875 C878 1.350 . S
N876 S874 1.610 . S
N876 C877 1.351 . S
C877 C871 1.428 . S
C877 N876 1.351 . S
C877 C878 1.434 . S
C878 C869 1.429 . S
C878 N875 1.350 . S
C878 C877 1.434 . S
C879 C880 1.369 . S
C879 C881 1.419 . S
C879 H883 0.930 . S
C880 C879 1.369 . S
C880 C889 1.429 . S
C881 C879 1.419 . S
C881 C882 1.363 . S
C881 H884 0.929 . S
C882 C881 1.363 . S
C882 C888 1.428 . S
H883 C879 0.930 . S
H884 C881 0.929 . S
S885 N886 1.613 . S
S885 N887 1.610 . S
N886 S885 1.613 . S
N886 C889 1.350 . S
N887 S885 1.610 . S
N887 C888 1.351 . S
C888 C882 1.428 . S
C888 N887 1.351 . S
C888 C889 1.434 . S
C889 C880 1.429 . S
C889 N886 1.350 . S
C889 C888 1.434 . S
C890 C891 1.369 . S
C890 C892 1.419 . S
C890 H894 0.930 . S
C891 C890 1.369 . S
C891 C900 1.429 1_565 S
C892 C890 1.419 . S
C892 C893 1.363 1_565 S
C892 H895 0.929 . S
C893 C892 1.363 1_545 S
C893 C899 1.428 . S
H894 C890 0.930 . S
H895 C892 0.929 . S
S896 N897 1.613 . S
S896 N898 1.610 . S
N897 S896 1.613 . S
N897 C900 1.350 . S
N898 S896 1.610 . S
N898 C899 1.351 . S
C899 C893 1.428 . S
C899 N898 1.351 . S
C899 C900 1.434 . S
C900 C891 1.429 1_545 S
C900 N897 1.350 . S
C900 C899 1.434 . S
C901 C902 1.369 . S
C901 C903 1.419 . S
C901 H905 0.930 . S
C902 C901 1.369 . S
C902 C911 1.429 . S
C903 C901 1.419 . S
C903 C904 1.363 . S
C903 H906 0.929 . S
C904 C903 1.363 . S
C904 C910 1.428 . S
H905 C901 0.930 . S
H906 C903 0.929 . S
S907 N908 1.613 . S
S907 N909 1.610 . S
N908 S907 1.613 . S
N908 C911 1.350 . S
N909 S907 1.610 . S
N909 C910 1.351 . S
C910 C904 1.428 . S
C910 N909 1.351 . S
C910 C911 1.434 . S
C911 C902 1.429 . S
C911 N908 1.350 . S
C911 C910 1.434 . S
C912 C913 1.369 . S
C912 C914 1.419 . S
C912 H916 0.930 . S
C913 C912 1.369 . S
C913 C922 1.429 . S
C914 C912 1.419 . S
C914 C915 1.363 . S
C914 H917 0.929 . S
C915 C914 1.363 . S
C915 C921 1.428 . S
H916 C912 0.930 . S
H917 C914 0.929 . S
S918 N919 1.613 . S
S918 N920 1.610 . S
N919 S918 1.613 . S
N919 C922 1.350 . S
N920 S918 1.610 . S
N920 C921 1.351 . S
C921 C915 1.428 . S
C921 N920 1.351 . S
C921 C922 1.434 . S
C922 C913 1.429 . S
C922 N919 1.350 . S
C922 C921 1.434 . S
C923 C924 1.369 . S
C923 C925 1.419 . S
C923 H927 0.930 . S
C924 C923 1.369 . S
C924 C933 1.429 . S
C925 C923 1.419 . S
C925 C926 1.363 . S
C925 H928 0.929 . S
C926 C925 1.363 . S
C926 C932 1.428 . S
H927 C923 0.930 . S
H928 C925 0.929 . S
S929 N930 1.613 . S
S929 N931 1.610 . S
N930 S929 1.613 . S
N930 C933 1.350 . S
N931 S929 1.610 . S
N931 C932 1.351 . S
C932 C926 1.428 . S
C932 N931 1.351 . S
C932 C933 1.434 . S
C933 C924 1.429 . S
C933 N930 1.350 . S
C933 C932 1.434 . S
C934 C935 1.369 . S
C934 C936 1.419 . S
C934 H938 0.930 . S
C935 C934 1.369 . S
C935 C944 1.429 . S
C936 C934 1.419 . S
C936 C937 1.363 . S
C936 H939 0.929 . S
C937 C936 1.363 . S
C937 C943 1.428 . S
H938 C934 0.930 . S
H939 C936 0.929 . S
S940 N941 1.613 . S
S940 N942 1.610 . S
N941 S940 1.613 . S
N941 C944 1.350 . S
N942 S940 1.610 . S
N942 C943 1.351 . S
C943 C937 1.428 . S
C943 N942 1.351 . S
C943 C944 1.434 . S
C944 C935 1.429 . S
C944 N941 1.350 . S
C944 C943 1.434 . S
C945 C946 1.369 . S
C945 C947 1.419 . S
C945 H949 0.930 . S
C946 C945 1.369 . S
C946 C955 1.429 . S
C947 C945 1.419 . S
C947 C948 1.363 . S
C947 H950 0.929 . S
C948 C947 1.363 . S
C948 C954 1.428 . S
H949 C945 0.930 . S
H950 C947 0.929 . S
S951 N952 1.613 . S
S951 N953 1.610 . S
N952 S951 1.613 . S
N952 C955 1.350 . S
N953 S951 1.610 . S
N953 C954 1.351 . S
C954 C948 1.428 . S
C954 N953 1.351 . S
C954 C955 1.434 . S
C955 C946 1.429 . S
C955 N952 1.350 . S
C955 C954 1.434 . S
C956 C957 1.369 . S
C956 C958 1.419 . S
C956 H960 0.930 . S
C957 C956 1.369 . S
C957 C966 1.429 . S
C958 C956 1.419 . S
C958 C959 1.363 . S
C958 H961 0.929 . S
C959 C958 1.363 . S
C959 C965 1.428 . S
H960 C956 0.930 . S
H961 C958 0.929 . S
S962 N963 1.613 . S
S962 N964 1.610 . S
N963 S962 1.613 . S
N963 C966 1.350 . S
N964 S962 1.610 . S
N964 C965 1.351 . S
C965 C959 1.428 . S
C965 N964 1.351 . S
C965 C966 1.434 . S
C966 C957 1.429 . S
C966 N963 1.350 . S
C966 C965 1.434 . S
C967 C968 1.369 . S
C967 C969 1.419 . S
C967 H971 0.930 . S
C968 C967 1.369 . S
C968 C977 1.429 . S
C969 C967 1.419 . S
C969 C970 1.363 . S
C969 H972 0.929 . S
C970 C969 1.363 . S
C970 C976 1.428 . S
H971 C967 0.930 . S
H972 C969 0.929 . S
S973 N974 1.613 . S
S973 N975 1.610 . S
N974 S973 1.613 . S
N974 C977 1.350 . S
N975 S973 1.610 . S
N975 C976 1.351 . S
C976 C970 1.428 . S
C976 N975 1.351 . S
C976 C977 1.434 . S
C977 C968 1.429 . S
C977 N974 1.350 . S
C977 C976 1.434 . S
C978 C979 1.369 . S
C978 C980 1.419 . S
C978 H982 0.930 . S
C979 C978 1.369 . S
C979 C988 1.429 . S
C980 C978 1.419 . S
C980 C981 1.363 . S
C980 H983 0.929 . S
C981 C980 1.363 . S
C981 C987 1.428 . S
H982 C978 0.930 . S
H983 C980 0.929 . S
S984 N985 1.613 . S
S984 N986 1.610 . S
N985 S984 1.613 . S
N985 C988 1.350 . S
N986 S984 1.610 . S
N986 C987 1.351 . S
C987 C981 1.428 . S
C987 N986 1.351 . S
C987 C988 1.434 . S
C988 C979 1.429 . S
C988 N985 1.350 . S
C988 C987 1.434 . S
C989 C990 1.369 . S
C989 C991 1.419 . S
C989 H993 0.930 . S
C990 C989 1.369 . S
C990 C999 1.429 . S
C991 C989 1.419 . S
C991 C992 1.363 . S
C991 H994 0.929 . S
C992 C991 1.363 . S
C992 C998 1.428 . S
H993 C989 0.930 . S
H994 C991 0.929 . S
S995 N996 1.613 . S
S995 N997 1.610 . S
N996 S995 1.613 . S
N996 C999 1.350 . S
N997 S995 1.610 . S
N997 C998 1.351 . S
C998 C992 1.428 . S
C998 N997 1.351 . S
C998 C999 1.434 . S
C999 C990 1.429 . S
C999 N996 1.350 . S
C999 C998 1.434 . S
C1000 C1001 1.369 . S
C1000 C1002 1.419 . S
C1000 H1004 0.930 . S
C1001 C1000 1.369 . S
C1001 C1010 1.429 . S
C1002 C1000 1.419 . S
C1002 C1003 1.363 . S
C1002 H1005 0.929 . S
C1003 C1002 1.363 . S
C1003 C1009 1.428 . S
H1004 C1000 0.930 . S
H1005 C1002 0.929 . S
S1006 N1007 1.613 . S
S1006 N1008 1.610 . S
N1007 S1006 1.613 . S
N1007 C1010 1.350 . S
N1008 S1006 1.610 . S
N1008 C1009 1.351 . S
C1009 C1003 1.428 . S
C1009 N1008 1.351 . S
C1009 C1010 1.434 . S
C1010 C1001 1.429 . S
C1010 N1007 1.350 . S
C1010 C1009 1.434 . S
C1011 C1012 1.369 . S
C1011 C1013 1.419 . S
C1011 H1015 0.930 . S
C1012 C1011 1.369 . S
C1012 C1021 1.429 . S
C1013 C1011 1.419 . S
C1013 C1014 1.363 . S
C1013 H1016 0.929 . S
C1014 C1013 1.363 . S
C1014 C1020 1.428 . S
H1015 C1011 0.930 . S
H1016 C1013 0.929 . S
S1017 N1018 1.613 . S
S1017 N1019 1.610 . S
N1018 S1017 1.613 . S
N1018 C1021 1.350 . S
N1019 S1017 1.610 . S
N1019 C1020 1.351 . S
C1020 C1014 1.428 . S
C1020 N1019 1.351 . S
C1020 C1021 1.434 . S
C1021 C1012 1.429 . S
C1021 N1018 1.350 . S
C1021 C1020 1.434 . S
C1022 C1023 1.369 . S
C1022 C1024 1.419 . S
C1022 H1026 0.930 . S
C1023 C1022 1.369 . S
C1023 C1032 1.429 . S
C1024 C1022 1.419 . S
C1024 C1025 1.363 . S
C1024 H1027 0.929 . S
C1025 C1024 1.363 . S
C1025 C1031 1.428 . S
H1026 C1022 0.930 . S
H1027 C1024 0.929 . S
S1028 N1029 1.613 . S
S1028 N1030 1.610 . S
N1029 S1028 1.613 . S
N1029 C1032 1.350 . S
N1030 S1028 1.610 . S
N1030 C1031 1.351 . S
C1031 C1025 1.428 . S
C1031 N1030 1.351 . S
C1031 C1032 1.434 . S
C1032 C1023 1.429 . S
C1032 N1029 1.350 . S
C1032 C1031 1.434 . S
C1033 C1034 1.369 . S
C1033 C1035 1.419 . S
C1033 H1037 0.930 . S
C1034 C1033 1.369 . S
C1034 C1043 1.429 . S
C1035 C1033 1.419 . S
C1035 C1036 1.363 . S
C1035 H1038 0.929 . S
C1036 C1035 1.363 . S
C1036 C1042 1.428 . S
H1037 C1033 0.930 . S
H1038 C1035 0.929 . S
S1039 N1040 1.613 . S
S1039 N1041 1.610 . S
N1040 S1039 1.613 . S
N1040 C1043 1.350 . S
N1041 S1039 1.610 . S
N1041 C1042 1.351 . S
C1042 C1036 1.428 . S
C1042 N1041 1.351 . S
C1042 C1043 1.434 . S
C1043 C1034 1.429 . S
C1043 N1040 1.350 . S
C1043 C1042 1.434 . S
C1044 C1045 1.369 . S
C1044 C1046 1.419 . S
C1044 H1048 0.930 . S
C1045 C1044 1.369 . S
C1045 C1054 1.429 . S
C1046 C1044 1.419 . S
C1046 C1047 1.363 . S
C1046 H1049 0.929 . S
C1047 C1046 1.363 . S
C1047 C1053 1.428 . S
H1048 C1044 0.930 . S
H1049 C1046 0.929 . S
S1050 N1051 1.613 . S
S1050 N1052 1.610 . S
N1051 S1050 1.613 . S
N1051 C1054 1.350 . S
N1052 S1050 1.610 . S
N1052 C1053 1.351 . S
C1053 C1047 1.428 . S
C1053 N1052 1.351 . S
C1053 C1054 1.434 . S
C1054 C1045 1.429 . S
C1054 N1051 1.350 . S
C1054 C1053 1.434 . S
C1055 C1056 1.369 . S
C1055 C1057 1.419 . S
C1055 H1059 0.930 . S
C1056 C1055 1.369 . S
C1056 C1065 1.429 . S
C1057 C1055 1.419 . S
C1057 C1058 1.363 . S
C1057 H1060 0.929 . S
C1058 C1057 1.363 . S
C1058 C1064 1.428 . S
H1059 C1055 0.930 . S
H1060 C1057 0.929 . S
S1061 N1062 1.613 . S
S1061 N1063 1.610 . S
N1062 S1061 1.613 . S
N1062 C1065 1.350 . S
N1063 S1061 1.610 . S
N1063 C1064 1.351 . S
C1064 C1058 1.428 . S
C1064 N1063 1.351 . S
C1064 C1065 1.434 . S
C1065 C1056 1.429 . S
C1065 N1062 1.350 . S
C1065 C1064 1.434 . S
C1066 C1067 1.371 . S
C1066 C1068 1.419 . S
C1066 H1070 0.930 . S
C1067 C1066 1.371 . S
C1067 C1076 1.430 1_545 S
C1068 C1066 1.419 . S
C1068 C1069 1.363 . S
C1068 H1071 0.929 . S
C1069 C1068 1.363 . S
C1069 C1075 1.428 1_545 S
H1070 C1066 0.930 . S
H1071 C1068 0.929 . S
S1072 N1073 1.613 . S
S1072 N1074 1.610 . S
N1073 S1072 1.613 . S
N1073 C1076 1.350 . S
N1074 S1072 1.610 . S
N1074 C1075 1.351 . S
C1075 C1069 1.428 1_565 S
C1075 N1074 1.351 . S
C1075 C1076 1.434 . S
C1076 C1067 1.430 1_565 S
C1076 N1073 1.350 . S
C1076 C1075 1.434 . S
C1077 C1078 1.369 . S
C1077 C1079 1.419 . S
C1077 H1081 0.930 . S
C1078 C1077 1.369 . S
C1078 C1087 1.429 . S
C1079 C1077 1.419 . S
C1079 C1080 1.363 . S
C1079 H1082 0.933 . S
C1080 C1079 1.363 . S
C1080 C1086 1.428 . S
H1081 C1077 0.930 . S
H1082 C1079 0.933 . S
S1083 N1084 1.613 . S
S1083 N1085 1.610 . S
N1084 S1083 1.613 . S
N1084 C1087 1.350 . S
N1085 S1083 1.610 . S
N1085 C1086 1.351 . S
C1086 C1080 1.428 . S
C1086 N1085 1.351 . S
C1086 C1087 1.434 . S
C1087 C1078 1.429 . S
C1087 N1084 1.350 . S
C1087 C1086 1.434 . S
C1088 C1089 1.369 . S
C1088 C1090 1.419 . S
C1088 H1092 0.930 1_455 S
C1089 C1088 1.369 . S
C1089 C1098 1.429 . S
C1090 C1088 1.419 . S
C1090 C1091 1.363 . S
C1090 H1093 0.926 1_455 S
C1091 C1090 1.363 . S
C1091 C1097 1.428 . S
H1092 C1088 0.930 1_655 S
H1093 C1090 0.926 1_655 S
S1094 N1095 1.613 . S
S1094 N1096 1.610 . S
N1095 S1094 1.613 . S
N1095 C1098 1.350 . S
N1096 S1094 1.610 . S
N1096 C1097 1.351 . S
C1097 C1091 1.428 . S
C1097 N1096 1.351 . S
C1097 C1098 1.434 . S
C1098 C1089 1.429 . S
C1098 N1095 1.350 . S
C1098 C1097 1.434 . S
C1099 C1100 1.369 . S
C1099 C1101 1.419 . S
C1099 H1103 0.930 . S
C1100 C1099 1.369 . S
C1100 C1109 1.429 . S
C1101 C1099 1.419 . S
C1101 C1102 1.363 . S
C1101 H1104 0.929 . S
C1102 C1101 1.363 . S
C1102 C1108 1.428 . S
H1103 C1099 0.930 . S
H1104 C1101 0.929 . S
S1105 N1106 1.613 . S
S1105 N1107 1.610 . S
N1106 S1105 1.613 . S
N1106 C1109 1.350 . S
N1107 S1105 1.610 . S
N1107 C1108 1.351 . S
C1108 C1102 1.428 . S
C1108 N1107 1.351 . S
C1108 C1109 1.434 . S
C1109 C1100 1.429 . S
C1109 N1106 1.350 . S
C1109 C1108 1.434 . S
C1110 C1111 1.369 . S
C1110 C1112 1.419 . S
C1110 H1114 0.930 . S
C1111 C1110 1.369 . S
C1111 C1120 1.429 . S
C1112 C1110 1.419 . S
C1112 C1113 1.363 . S
C1112 H1115 0.929 . S
C1113 C1112 1.363 . S
C1113 C1119 1.428 . S
H1114 C1110 0.930 . S
H1115 C1112 0.929 . S
S1116 N1117 1.613 . S
S1116 N1118 1.610 . S
N1117 S1116 1.613 . S
N1117 C1120 1.350 . S
N1118 S1116 1.610 . S
N1118 C1119 1.351 . S
C1119 C1113 1.428 . S
C1119 N1118 1.351 . S
C1119 C1120 1.434 . S
C1120 C1111 1.429 . S
C1120 N1117 1.350 . S
C1120 C1119 1.434 . S
C1121 C1122 1.369 . S
C1121 C1123 1.419 . S
C1121 H1125 0.930 . S
C1122 C1121 1.369 . S
C1122 C1131 1.429 . S
C1123 C1121 1.419 . S
C1123 C1124 1.363 . S
C1123 H1126 0.929 . S
C1124 C1123 1.363 . S
C1124 C1130 1.428 . S
H1125 C1121 0.930 . S
H1126 C1123 0.929 . S
S1127 N1128 1.613 . S
S1127 N1129 1.610 . S
N1128 S1127 1.613 . S
N1128 C1131 1.350 . S
N1129 S1127 1.610 . S
N1129 C1130 1.351 . S
C1130 C1124 1.428 . S
C1130 N1129 1.351 . S
C1130 C1131 1.434 . S
C1131 C1122 1.429 . S
C1131 N1128 1.350 . S
C1131 C1130 1.434 . S
C1132 C1133 1.369 . S
C1132 C1134 1.419 . S
C1132 H1136 0.930 1_545 S
C1133 C1132 1.369 . S
C1133 C1142 1.429 . S
C1134 C1132 1.419 . S
C1134 C1135 1.363 . S
C1134 H1137 0.929 . S
C1135 C1134 1.363 . S
C1135 C1141 1.428 . S
H1136 C1132 0.930 1_565 S
H1137 C1134 0.929 . S
S1138 N1139 1.613 . S
S1138 N1140 1.610 . S
N1139 S1138 1.613 . S
N1139 C1142 1.350 . S
N1140 S1138 1.610 . S
N1140 C1141 1.351 . S
C1141 C1135 1.428 . S
C1141 N1140 1.351 . S
C1141 C1142 1.434 . S
C1142 C1133 1.429 . S
C1142 N1139 1.350 . S
C1142 C1141 1.434 . S
C1143 C1144 1.369 . S
C1143 C1145 1.419 . S
C1143 H1147 0.930 . S
C1144 C1143 1.369 . S
C1144 C1153 1.429 . S
C1145 C1143 1.419 . S
C1145 C1146 1.363 . S
C1145 H1148 0.929 . S
C1146 C1145 1.363 . S
C1146 C1152 1.428 . S
H1147 C1143 0.930 . S
H1148 C1145 0.929 . S
S1149 N1150 1.613 . S
S1149 N1151 1.610 . S
N1150 S1149 1.613 . S
N1150 C1153 1.350 . S
N1151 S1149 1.610 . S
N1151 C1152 1.351 . S
C1152 C1146 1.428 . S
C1152 N1151 1.351 . S
C1152 C1153 1.434 . S
C1153 C1144 1.429 . S
C1153 N1150 1.350 . S
C1153 C1152 1.434 . S
C1154 C1155 1.369 . S
C1154 C1156 1.419 . S
C1154 H1158 0.930 . S
C1155 C1154 1.369 . S
C1155 C1164 1.429 1_455 S
C1156 C1154 1.419 . S
C1156 C1157 1.363 . S
C1156 H1159 0.929 . S
C1157 C1156 1.363 . S
C1157 C1163 1.428 1_455 S
H1158 C1154 0.930 . S
H1159 C1156 0.929 . S
S1160 N1161 1.613 . S
S1160 N1162 1.610 . S
N1161 S1160 1.613 . S
N1161 C1164 1.350 . S
N1162 S1160 1.610 . S
N1162 C1163 1.351 . S
C1163 C1157 1.428 1_655 S
C1163 N1162 1.351 . S
C1163 C1164 1.434 . S
C1164 C1155 1.429 1_655 S
C1164 N1161 1.350 . S
C1164 C1163 1.434 . S
C1165 C1166 1.369 . S
C1165 C1167 1.419 . S
C1165 H1169 0.930 . S
C1166 C1165 1.369 . S
C1166 C1175 1.429 . S
C1167 C1165 1.419 . S
C1167 C1168 1.363 . S
C1167 H1170 0.929 . S
C1168 C1167 1.363 . S
C1168 C1174 1.428 . S
H1169 C1165 0.930 . S
H1170 C1167 0.929 . S
S1171 N1172 1.613 . S
S1171 N1173 1.610 . S
N1172 S1171 1.613 . S
N1172 C1175 1.350 . S
N1173 S1171 1.610 . S
N1173 C1174 1.351 . S
C1174 C1168 1.428 . S
C1174 N1173 1.351 . S
C1174 C1175 1.434 . S
C1175 C1166 1.429 . S
C1175 N1172 1.350 . S
C1175 C1174 1.434 . S
C1176 C1177 1.369 . S
C1176 C1178 1.419 . S
C1176 H1180 0.930 . S
C1177 C1176 1.369 . S
C1177 C1186 1.429 . S
C1178 C1176 1.419 . S
C1178 C1179 1.363 . S
C1178 H1181 0.929 . S
C1179 C1178 1.363 . S
C1179 C1185 1.428 . S
H1180 C1176 0.930 . S
H1181 C1178 0.929 . S
S1182 N1183 1.613 . S
S1182 N1184 1.610 . S
N1183 S1182 1.613 . S
N1183 C1186 1.350 . S
N1184 S1182 1.610 . S
N1184 C1185 1.351 . S
C1185 C1179 1.428 . S
C1185 N1184 1.351 . S
C1185 C1186 1.434 . S
C1186 C1177 1.429 . S
C1186 N1183 1.350 . S
C1186 C1185 1.434 . S
C1187 C1188 1.369 . S
C1187 C1189 1.419 . S
C1187 H1191 0.930 . S
C1188 C1187 1.369 . S
C1188 C1197 1.429 . S
C1189 C1187 1.419 . S
C1189 C1190 1.363 . S
C1189 H1192 0.929 . S
C1190 C1189 1.363 . S
C1190 C1196 1.428 . S
H1191 C1187 0.930 . S
H1192 C1189 0.929 . S
S1193 N1194 1.613 . S
S1193 N1195 1.610 . S
N1194 S1193 1.613 . S
N1194 C1197 1.350 . S
N1195 S1193 1.610 . S
N1195 C1196 1.351 . S
C1196 C1190 1.428 . S
C1196 N1195 1.351 . S
C1196 C1197 1.434 . S
C1197 C1188 1.429 . S
C1197 N1194 1.350 . S
C1197 C1196 1.434 . S
C1198 C1199 1.369 . S
C1198 C1200 1.419 . S
C1198 H1202 0.930 . S
C1199 C1198 1.369 . S
C1199 C1208 1.429 . S
C1200 C1198 1.419 . S
C1200 C1201 1.363 . S
C1200 H1203 0.929 . S
C1201 C1200 1.363 . S
C1201 C1207 1.428 . S
H1202 C1198 0.930 . S
H1203 C1200 0.929 . S
S1204 N1205 1.613 . S
S1204 N1206 1.610 . S
N1205 S1204 1.613 . S
N1205 C1208 1.350 . S
N1206 S1204 1.610 . S
N1206 C1207 1.351 . S
C1207 C1201 1.428 . S
C1207 N1206 1.351 . S
C1207 C1208 1.434 . S
C1208 C1199 1.429 . S
C1208 N1205 1.350 . S
C1208 C1207 1.434 . S
C1209 C1210 1.369 . S
C1209 C1211 1.419 . S
C1209 H1213 0.930 . S
C1210 C1209 1.369 . S
C1210 C1219 1.429 . S
C1211 C1209 1.419 . S
C1211 C1212 1.363 1_556 S
C1211 H1214 0.929 . S
C1212 C1211 1.363 1_554 S
C1212 C1218 1.428 1_554 S
H1213 C1209 0.930 . S
H1214 C1211 0.929 . S
S1215 N1216 1.613 . S
S1215 N1217 1.610 1_556 S
N1216 S1215 1.613 . S
N1216 C1219 1.350 . S
N1217 S1215 1.610 1_554 S
N1217 C1218 1.351 1_554 S
C1218 C1212 1.428 1_556 S
C1218 N1217 1.351 1_556 S
C1218 C1219 1.434 . S
C1219 C1210 1.429 . S
C1219 N1216 1.350 . S
C1219 C1218 1.434 . S
C1220 C1221 1.369 . S
C1220 C1222 1.419 . S
C1220 H1224 0.930 . S
C1221 C1220 1.369 . S
C1221 C1230 1.429 . S
C1222 C1220 1.419 . S
C1222 C1223 1.363 . S
C1222 H1225 0.929 1_556 S
C1223 C1222 1.363 . S
C1223 C1229 1.428 . S
H1224 C1220 0.930 . S
H1225 C1222 0.929 1_554 S
S1226 N1227 1.613 . S
S1226 N1228 1.610 . S
N1227 S1226 1.613 . S
N1227 C1230 1.350 . S
N1228 S1226 1.610 . S
N1228 C1229 1.351 . S
C1229 C1223 1.428 . S
C1229 N1228 1.351 . S
C1229 C1230 1.434 . S
C1230 C1221 1.429 . S
C1230 N1227 1.350 . S
C1230 C1229 1.434 . S
C1231 C1232 1.369 . S
C1231 C1233 1.419 . S
C1231 H1235 0.930 . S
C1232 C1231 1.369 . S
C1232 C1241 1.429 . S
C1233 C1231 1.419 . S
C1233 C1234 1.363 1_556 S
C1233 H1236 0.929 . S
C1234 C1233 1.363 1_554 S
C1234 C1240 1.428 . S
H1235 C1231 0.930 . S
H1236 C1233 0.929 . S
S1237 N1238 1.613 1_554 S
S1237 N1239 1.610 . S
N1238 S1237 1.613 1_556 S
N1238 C1241 1.350 . S
N1239 S1237 1.610 . S
N1239 C1240 1.351 . S
C1240 C1234 1.428 . S
C1240 N1239 1.351 . S
C1240 C1241 1.434 1_554 S
C1241 C1232 1.429 . S
C1241 N1238 1.350 . S
C1241 C1240 1.434 1_556 S
C1242 C1243 1.369 . S
C1242 C1244 1.419 . S
C1242 H1246 0.930 . S
C1243 C1242 1.369 . S
C1243 C1252 1.429 . S
C1244 C1242 1.419 . S
C1244 C1245 1.363 . S
C1244 H1247 0.929 . S
C1245 C1244 1.363 . S
C1245 C1251 1.428 . S
H1246 C1242 0.930 . S
H1247 C1244 0.929 . S
S1248 N1249 1.613 . S
S1248 N1250 1.610 . S
N1249 S1248 1.613 . S
N1249 C1252 1.350 . S
N1250 S1248 1.610 . S
N1250 C1251 1.351 . S
C1251 C1245 1.428 . S
C1251 N1250 1.351 . S
C1251 C1252 1.434 . S
C1252 C1243 1.429 . S
C1252 N1249 1.350 . S
C1252 C1251 1.434 . S
C1253 C1254 1.369 . S
C1253 C1255 1.419 . S
C1253 H1257 0.930 . S
C1254 C1253 1.369 . S
C1254 C1263 1.429 . S
C1255 C1253 1.419 . S
C1255 C1256 1.363 . S
C1255 H1258 0.929 . S
C1256 C1255 1.363 . S
C1256 C1262 1.428 . S
H1257 C1253 0.930 . S
H1258 C1255 0.929 . S
S1259 N1260 1.613 . S
S1259 N1261 1.610 . S
N1260 S1259 1.613 . S
N1260 C1263 1.350 . S
N1261 S1259 1.610 . S
N1261 C1262 1.351 . S
C1262 C1256 1.428 . S
C1262 N1261 1.351 . S
C1262 C1263 1.434 . S
C1263 C1254 1.429 . S
C1263 N1260 1.350 . S
C1263 C1262 1.434 . S
C1264 C1265 1.369 . S
C1264 C1266 1.419 . S
C1264 H1268 0.930 . S
C1265 C1264 1.369 . S
C1265 C1274 1.429 . S
C1266 C1264 1.419 . S
C1266 C1267 1.363 . S
C1266 H1269 0.929 . S
C1267 C1266 1.363 . S
C1267 C1273 1.428 . S
H1268 C1264 0.930 . S
H1269 C1266 0.929 . S
S1270 N1271 1.613 . S
S1270 N1272 1.610 . S
N1271 S1270 1.613 . S
N1271 C1274 1.350 . S
N1272 S1270 1.610 . S
N1272 C1273 1.351 . S
C1273 C1267 1.428 . S
C1273 N1272 1.351 . S
C1273 C1274 1.434 . S
C1274 C1265 1.429 . S
C1274 N1271 1.350 . S
C1274 C1273 1.434 . S
C1275 C1276 1.369 . S
C1275 C1277 1.419 . S
C1275 H1279 0.930 . S
C1276 C1275 1.369 . S
C1276 C1285 1.429 . S
C1277 C1275 1.419 . S
C1277 C1278 1.363 . S
C1277 H1280 0.929 . S
C1278 C1277 1.363 . S
C1278 C1284 1.428 . S
H1279 C1275 0.930 . S
H1280 C1277 0.929 . S
S1281 N1282 1.613 . S
S1281 N1283 1.610 . S
N1282 S1281 1.613 . S
N1282 C1285 1.350 . S
N1283 S1281 1.610 . S
N1283 C1284 1.351 . S
C1284 C1278 1.428 . S
C1284 N1283 1.351 . S
C1284 C1285 1.434 . S
C1285 C1276 1.429 . S
C1285 N1282 1.350 . S
C1285 C1284 1.434 . S
C1286 C1287 1.369 . S
C1286 C1288 1.419 . S
C1286 H1290 0.930 . S
C1287 C1286 1.369 . S
C1287 C1296 1.429 . S
C1288 C1286 1.419 . S
C1288 C1289 1.363 . S
C1288 H1291 0.929 . S
C1289 C1288 1.363 . S
C1289 C1295 1.428 . S
H1290 C1286 0.930 . S
H1291 C1288 0.929 . S
S1292 N1293 1.613 . S
S1292 N1294 1.610 . S
N1293 S1292 1.613 . S
N1293 C1296 1.350 . S
N1294 S1292 1.610 . S
N1294 C1295 1.351 . S
C1295 C1289 1.428 . S
C1295 N1294 1.351 . S
C1295 C1296 1.434 . S
C1296 C1287 1.429 . S
C1296 N1293 1.350 . S
C1296 C1295 1.434 . S
C1297 C1298 1.369 . S
C1297 C1299 1.419 . S
C1297 H1301 0.930 . S
C1298 C1297 1.369 . S
C1298 C1307 1.429 . S
C1299 C1297 1.419 . S
C1299 C1300 1.363 . S
C1299 H1302 0.929 . S
C1300 C1299 1.363 . S
C1300 C1306 1.428 . S
H1301 C1297 0.930 . S
H1302 C1299 0.929 . S
S1303 N1304 1.613 . S
S1303 N1305 1.610 . S
N1304 S1303 1.613 . S
N1304 C1307 1.350 . S
N1305 S1303 1.610 . S
N1305 C1306 1.351 . S
C1306 C1300 1.428 . S
C1306 N1305 1.351 . S
C1306 C1307 1.434 . S
C1307 C1298 1.429 . S
C1307 N1304 1.350 . S
C1307 C1306 1.434 . S
C1308 C1309 1.369 . S
C1308 C1310 1.419 . S
C1308 H1312 0.930 . S
C1309 C1308 1.369 . S
C1309 C1318 1.429 . S
C1310 C1308 1.419 . S
C1310 C1311 1.363 . S
C1310 H1313 0.929 . S
C1311 C1310 1.363 . S
C1311 C1317 1.428 . S
H1312 C1308 0.930 . S
H1313 C1310 0.929 . S
S1314 N1315 1.613 . S
S1314 N1316 1.610 . S
N1315 S1314 1.613 . S
N1315 C1318 1.350 . S
N1316 S1314 1.610 . S
N1316 C1317 1.351 . S
C1317 C1311 1.428 . S
C1317 N1316 1.351 . S
C1317 C1318 1.434 . S
C1318 C1309 1.429 . S
C1318 N1315 1.350 . S
C1318 C1317 1.434 . S
C1319 C1320 1.369 . S
C1319 C1321 1.419 . S
C1319 H1323 0.930 . S
C1320 C1319 1.369 . S
C1320 C1329 1.429 . S
C1321 C1319 1.419 . S
C1321 C1322 1.363 . S
C1321 H1324 0.929 . S
C1322 C1321 1.363 . S
C1322 C1328 1.428 . S
H1323 C1319 0.930 . S
H1324 C1321 0.929 . S
S1325 N1326 1.613 . S
S1325 N1327 1.610 . S
N1326 S1325 1.613 . S
N1326 C1329 1.350 . S
N1327 S1325 1.610 . S
N1327 C1328 1.351 . S
C1328 C1322 1.428 . S
C1328 N1327 1.351 . S
C1328 C1329 1.434 . S
C1329 C1320 1.429 . S
C1329 N1326 1.350 . S
C1329 C1328 1.434 . S
C1330 C1331 1.369 . S
C1330 C1332 1.419 . S
C1330 H1334 0.930 . S
C1331 C1330 1.369 . S
C1331 C1340 1.429 . S
C1332 C1330 1.419 . S
C1332 C1333 1.363 . S
C1332 H1335 0.929 . S
C1333 C1332 1.363 . S
C1333 C1339 1.428 . S
H1334 C1330 0.930 . S
H1335 C1332 0.929 . S
S1336 N1337 1.613 . S
S1336 N1338 1.610 . S
N1337 S1336 1.613 . S
N1337 C1340 1.350 . S
N1338 S1336 1.610 . S
N1338 C1339 1.351 . S
C1339 C1333 1.428 . S
C1339 N1338 1.351 . S
C1339 C1340 1.434 . S
C1340 C1331 1.429 . S
C1340 N1337 1.350 . S
C1340 C1339 1.434 . S
C1341 C1342 1.369 . S
C1341 C1343 1.419 . S
C1341 H1345 0.930 . S
C1342 C1341 1.369 . S
C1342 C1351 1.429 . S
C1343 C1341 1.419 . S
C1343 C1344 1.363 . S
C1343 H1346 0.929 . S
C1344 C1343 1.363 . S
C1344 C1350 1.428 . S
H1345 C1341 0.930 . S
H1346 C1343 0.929 . S
S1347 N1348 1.613 . S
S1347 N1349 1.610 . S
N1348 S1347 1.613 . S
N1348 C1351 1.350 . S
N1349 S1347 1.610 . S
N1349 C1350 1.351 . S
C1350 C1344 1.428 . S
C1350 N1349 1.351 . S
C1350 C1351 1.434 . S
C1351 C1342 1.429 . S
C1351 N1348 1.350 . S
C1351 C1350 1.434 . S
C1352 C1353 1.369 . S
C1352 C1354 1.419 . S
C1352 H1356 0.930 . S
C1353 C1352 1.369 . S
C1353 C1362 1.429 . S
C1354 C1352 1.419 . S
C1354 C1355 1.363 . S
C1354 H1357 0.929 . S
C1355 C1354 1.363 . S
C1355 C1361 1.428 . S
H1356 C1352 0.930 . S
H1357 C1354 0.929 . S
S1358 N1359 1.613 . S
S1358 N1360 1.610 . S
N1359 S1358 1.613 . S
N1359 C1362 1.350 . S
N1360 S1358 1.610 . S
N1360 C1361 1.351 . S
C1361 C1355 1.428 . S
C1361 N1360 1.351 . S
C1361 C1362 1.434 . S
C1362 C1353 1.429 . S
C1362 N1359 1.350 . S
C1362 C1361 1.434 . S
C1363 C1364 1.369 . S
C1363 C1365 1.419 . S
C1363 H1367 0.930 . S
C1364 C1363 1.369 . S
C1364 C1373 1.429 . S
C1365 C1363 1.419 . S
C1365 C1366 1.363 . S
C1365 H1368 0.929 . S
C1366 C1365 1.363 . S
C1366 C1372 1.428 . S
H1367 C1363 0.930 . S
H1368 C1365 0.929 . S
S1369 N1370 1.613 . S
S1369 N1371 1.610 . S
N1370 S1369 1.613 . S
N1370 C1373 1.350 . S
N1371 S1369 1.610 . S
N1371 C1372 1.351 . S
C1372 C1366 1.428 . S
C1372 N1371 1.351 . S
C1372 C1373 1.434 . S
C1373 C1364 1.429 . S
C1373 N1370 1.350 . S
C1373 C1372 1.434 . S
C1374 C1375 1.369 . S
C1374 C1376 1.419 . S
C1374 H1378 0.930 . S
C1375 C1374 1.369 . S
C1375 C1384 1.429 . S
C1376 C1374 1.419 . S
C1376 C1377 1.363 . S
C1376 H1379 0.929 . S
C1377 C1376 1.363 . S
C1377 C1383 1.428 . S
H1378 C1374 0.930 . S
H1379 C1376 0.929 . S
S1380 N1381 1.613 . S
S1380 N1382 1.610 . S
N1381 S1380 1.613 . S
N1381 C1384 1.350 . S
N1382 S1380 1.610 . S
N1382 C1383 1.351 . S
C1383 C1377 1.428 . S
C1383 N1382 1.351 . S
C1383 C1384 1.434 . S
C1384 C1375 1.429 . S
C1384 N1381 1.350 . S
C1384 C1383 1.434 . S
C1385 C1386 1.369 . S
C1385 C1387 1.419 . S
C1385 H1389 0.930 . S
C1386 C1385 1.369 . S
C1386 C1395 1.429 . S
C1387 C1385 1.419 . S
C1387 C1388 1.363 . S
C1387 H1390 0.929 . S
C1388 C1387 1.363 . S
C1388 C1394 1.428 . S
H1389 C1385 0.930 . S
H1390 C1387 0.929 . S
S1391 N1392 1.613 . S
S1391 N1393 1.610 . S
N1392 S1391 1.613 . S
N1392 C1395 1.350 . S
N1393 S1391 1.610 . S
N1393 C1394 1.351 . S
C1394 C1388 1.428 . S
C1394 N1393 1.351 . S
C1394 C1395 1.434 . S
C1395 C1386 1.429 . S
C1395 N1392 1.350 . S
C1395 C1394 1.434 . S
C1396 C1397 1.369 . S
C1396 C1398 1.419 . S
C1396 H1400 0.930 . S
C1397 C1396 1.369 . S
C1397 C1406 1.429 . S
C1398 C1396 1.419 . S
C1398 C1399 1.363 . S
C1398 H1401 0.929 . S
C1399 C1398 1.363 . S
C1399 C1405 1.428 . S
H1400 C1396 0.930 . S
H1401 C1398 0.929 . S
S1402 N1403 1.613 . S
S1402 N1404 1.610 . S
N1403 S1402 1.613 . S
N1403 C1406 1.350 . S
N1404 S1402 1.610 . S
N1404 C1405 1.351 . S
C1405 C1399 1.428 . S
C1405 N1404 1.351 . S
C1405 C1406 1.434 . S
C1406 C1397 1.429 . S
C1406 N1403 1.350 . S
C1406 C1405 1.434 . S
C1407 C1408 1.369 . S
C1407 C1409 1.419 . S
C1407 H1411 0.930 . S
C1408 C1407 1.369 . S
C1408 C1417 1.429 . S
C1409 C1407 1.419 . S
C1409 C1410 1.363 1_554 S
C1409 H1412 0.929 . S
C1410 C1409 1.363 1_556 S
C1410 C1416 1.428 . S
H1411 C1407 0.930 . S
H1412 C1409 0.929 . S
S1413 N1414 1.613 1_556 S
S1413 N1415 1.610 . S
N1414 S1413 1.613 1_554 S
N1414 C1417 1.350 . S
N1415 S1413 1.610 . S
N1415 C1416 1.351 . S
C1416 C1410 1.428 . S
C1416 N1415 1.351 . S
C1416 C1417 1.434 1_556 S
C1417 C1408 1.429 . S
C1417 N1414 1.350 . S
C1417 C1416 1.434 1_554 S
C1418 C1419 1.369 . S
C1418 C1420 1.419 . S
C1418 H1422 0.930 . S
C1419 C1418 1.369 . S
C1419 C1428 1.429 . S
C1420 C1418 1.419 . S
C1420 C1421 1.363 . S
C1420 H1423 0.929 . S
C1421 C1420 1.363 . S
C1421 C1427 1.428 . S
H1422 C1418 0.930 . S
H1423 C1420 0.929 . S
S1424 N1425 1.613 . S
S1424 N1426 1.610 . S
N1425 S1424 1.613 . S
N1425 C1428 1.350 . S
N1426 S1424 1.610 . S
N1426 C1427 1.351 . S
C1427 C1421 1.428 . S
C1427 N1426 1.351 . S
C1427 C1428 1.434 . S
C1428 C1419 1.429 . S
C1428 N1425 1.350 . S
C1428 C1427 1.434 . S
C1429 C1430 1.369 . S
C1429 C1431 1.419 . S
C1429 H1433 0.930 . S
C1430 C1429 1.369 . S
C1430 C1439 1.429 . S
C1431 C1429 1.419 . S
C1431 C1432 1.363 . S
C1431 H1434 0.929 . S
C1432 C1431 1.363 . S
C1432 C1438 1.428 1_554 S
H1433 C1429 0.930 . S
H1434 C1431 0.929 . S
S1435 N1436 1.613 1_556 S
S1435 N1437 1.610 . S
N1436 S1435 1.613 1_554 S
N1436 C1439 1.350 . S
N1437 S1435 1.610 . S
N1437 C1438 1.351 . S
C1438 C1432 1.428 1_556 S
C1438 N1437 1.351 . S
C1438 C1439 1.434 1_556 S
C1439 C1430 1.429 . S
C1439 N1436 1.350 . S
C1439 C1438 1.434 1_554 S
C649 C7 1.370 . S
C651 C565 1.351 . S
C662 C536 1.728 . S
C660 C39 1.779 . S
C673 C552 1.534 . S
C671 C62 1.560 . S
C682 C76 1.751 . S
C684 C617 1.664 . S
C693 C108 1.376 . S
C695 C627 1.346 . S
C704 N117 1.289 . S
C706 C640 1.259 . S
C717 C596 1.364 1_455 S
C715 C16 1.372 . S
C726 C30 1.820 . S
C728 C575 1.776 . S
C739 C593 1.540 . S
C737 C53 1.526 . S
C748 C85 1.799 . S
C750 C502 1.782 1_545 S
C761 C510 1.596 . S
C759 C99 1.621 . S
C770 N127 1.225 . S
C772 C526 1.224 . S
C781 N150 1.121 . S
C783 C643 1.127 . S
C794 C614 1.490 . S
C792 N173 1.511 . S
C805 C630 1.389 . S
C803 C200 1.402 . S
C814 C214 1.561 . S
C816 C461 1.505 . S
C825 N232 1.447 . S
C827 C471 1.416 . S
C836 C260 1.400 . S
C838 C484 1.361 . S
C849 C440 1.222 . S
C847 N140 1.197 . S
C858 N163 1.258 . S
C860 C419 1.282 . S
C871 C437 1.624 . S
C869 C191 1.616 . S
C882 C580 1.888 . S
C880 C223 1.887 . S
C893 C588 1.419 . S
C891 N242 1.372 . S
C904 C604 1.399 . S
C902 C269 1.455 . S
C913 N288 1.277 . S
C915 C487 1.293 . S
C924 C315 1.499 . S
C926 C458 1.476 . S
C935 C338 1.628 . S
C937 C474 1.585 . S
C946 C352 1.750 . S
C948 C539 1.675 . S
C959 C549 1.465 . S
C957 N370 1.498 . S
C970 C562 1.442 . S
C968 C398 1.454 . S
C981 C518 1.181 . S
C979 N278 1.145 . S
C990 C306 1.734 . S
C992 C497 1.684 . S
C1001 C329 1.617 . S
C1003 C515 1.626 1_655 S
C1014 C424 1.542 . S
C1012 C361 1.531 . S
C1023 N380 1.402 . S
C1025 C432 1.451 . S
C1036 C448 1.363 . S
C1034 C407 1.412 . S
C1047 C453 1.411 . S
C1045 N12 1.399 . S
C1056 N25 1.562 . S
C1058 C476 1.583 . S
C1069 C489 1.314 . S
C1067 N48 1.293 1_545 S
C1080 C479 1.299 . S
C1078 N81 1.313 . S
C1091 C463 1.538 . S
C1089 N94 1.529 . S
C1102 C466 1.468 . S
C1100 C131 1.487 . S
C1113 C414 1.385 . S
C1111 N2 1.392 . S
C1122 N35 1.450 . S
C1124 C435 1.433 . S
C1133 N58 1.265 . S
C1135 C445 1.299 . S
C1146 C450 1.290 . S
C1144 N71 1.261 . S
C1157 C422 1.322 . S
C1155 N104 1.349 . S
C1168 C427 1.493 . S
C1166 C122 1.528 . S
C1177 C145 2.015 . S
C1179 C531 1.975 . S
C1188 C168 1.719 . S
C1190 C554 1.747 . S
C1199 N186 1.398 . S
C1201 C567 1.409 . S
C1212 C557 1.241 . S
C1210 N219 1.264 . S
C1223 C541 1.779 1_556 S
C1221 C246 1.780 . S
C1234 C544 1.396 . S
C1232 N265 1.389 . S
C1245 C492 1.847 . S
C1243 C154 1.883 . S
C1254 C177 1.788 . S
C1256 C513 1.763 . S
C1265 N196 1.220 . S
C1267 C523 1.224 . S
C1276 N209 1.103 . S
C1278 C528 1.140 . S
C1287 C237 1.821 . S
C1289 C500 1.757 . S
C1300 C505 1.347 . S
C1298 N255 1.351 . S
C1309 C283 1.742 . S
C1311 C609 1.717 . S
C1320 N301 1.438 . S
C1322 C632 1.447 . S
C1331 N324 1.310 . S
C1333 C645 1.320 . S
C1344 C635 1.126 . S
C1342 N357 1.104 . S
C1355 C619 1.787 . S
C1353 C384 1.795 . S
C1364 N403 1.244 . S
C1366 C622 1.233 . S
C1375 C292 1.824 . S
C1377 C570 1.779 . S
C1388 C591 1.302 . S
C1386 N311 1.342 . S
C1397 N334 1.345 . S
C1399 C601 1.369 . S
C1408 N347 1.319 . S
C1410 C606 1.336 . S
C1421 C578 1.825 1_554 S
C1419 C375 1.877 . S
C1430 N393 1.297 . S
C1432 C583 1.306 1_554 S
