# Generated by pormake.
# Topology ctn, (3,4)-cn, num edge types: 1
# Building blocks:
#     Node 0, Type 0, BuildingBlock: WUSLED_clean_sbu_0, # of connection points: 3
#     Node 1, Type 0, BuildingBlock: WUSLED_clean_sbu_0, # of connection points: 3
#     Node 2, Type 0, BuildingBlock: WUSLED_clean_sbu_0, # of connection points: 3
#     Node 3, Type 0, BuildingBlock: WUSLED_clean_sbu_0, # of connection points: 3
#     Node 4, Type 0, BuildingBlock: WUSLED_clean_sbu_0, # of connection points: 3
#     Node 5, Type 0, BuildingBlock: WUSLED_clean_sbu_0, # of connection points: 3
#     Node 6, Type 0, BuildingBlock: WUSLED_clean_sbu_0, # of connection points: 3
#     Node 7, Type 0, BuildingBlock: WUSLED_clean_sbu_0, # of connection points: 3
#     Node 8, Type 0, BuildingBlock: WUSLED_clean_sbu_0, # of connection points: 3
#     Node 9, Type 0, BuildingBlock: WUSLED_clean_sbu_0, # of connection points: 3
#     Node 10, Type 0, BuildingBlock: WUSLED_clean_sbu_0, # of connection points: 3
#     Node 11, Type 0, BuildingBlock: WUSLED_clean_sbu_0, # of connection points: 3
#     Node 12, Type 0, BuildingBlock: WUSLED_clean_sbu_0, # of connection points: 3
#     Node 13, Type 0, BuildingBlock: WUSLED_clean_sbu_0, # of connection points: 3
#     Node 14, Type 0, BuildingBlock: WUSLED_clean_sbu_0, # of connection points: 3
#     Node 15, Type 0, BuildingBlock: WUSLED_clean_sbu_0, # of connection points: 3
#     Node 16, Type 1, BuildingBlock: NAHDIM_clean_sbu_0, # of connection points: 4
#     Node 17, Type 1, BuildingBlock: NAHDIM_clean_sbu_0, # of connection points: 4
#     Node 18, Type 1, BuildingBlock: NAHDIM_clean_sbu_0, # of connection points: 4
#     Node 19, Type 1, BuildingBlock: NAHDIM_clean_sbu_0, # of connection points: 4
#     Node 20, Type 1, BuildingBlock: NAHDIM_clean_sbu_0, # of connection points: 4
#     Node 21, Type 1, BuildingBlock: NAHDIM_clean_sbu_0, # of connection points: 4
#     Node 22, Type 1, BuildingBlock: NAHDIM_clean_sbu_0, # of connection points: 4
#     Node 23, Type 1, BuildingBlock: NAHDIM_clean_sbu_0, # of connection points: 4
#     Node 24, Type 1, BuildingBlock: NAHDIM_clean_sbu_0, # of connection points: 4
#     Node 25, Type 1, BuildingBlock: NAHDIM_clean_sbu_0, # of connection points: 4
#     Node 26, Type 1, BuildingBlock: NAHDIM_clean_sbu_0, # of connection points: 4
#     Node 27, Type 1, BuildingBlock: NAHDIM_clean_sbu_0, # of connection points: 4
#     Edge 28, Type (0, 1), BuildingBlock: KIFKEQ_clean_linker_1, # of connection points: 2
#     Edge 29, Type (0, 1), BuildingBlock: KIFKEQ_clean_linker_1, # of connection points: 2
#     Edge 30, Type (0, 1), BuildingBlock: KIFKEQ_clean_linker_1, # of connection points: 2
#     Edge 31, Type (0, 1), BuildingBlock: KIFKEQ_clean_linker_1, # of connection points: 2
#     Edge 32, Type (0, 1), BuildingBlock: KIFKEQ_clean_linker_1, # of connection points: 2
#     Edge 33, Type (0, 1), BuildingBlock: KIFKEQ_clean_linker_1, # of connection points: 2
#     Edge 34, Type (0, 1), BuildingBlock: KIFKEQ_clean_linker_1, # of connection points: 2
#     Edge 35, Type (0, 1), BuildingBlock: KIFKEQ_clean_linker_1, # of connection points: 2
#     Edge 36, Type (0, 1), BuildingBlock: KIFKEQ_clean_linker_1, # of connection points: 2
#     Edge 37, Type (0, 1), BuildingBlock: KIFKEQ_clean_linker_1, # of connection points: 2
#     Edge 38, Type (0, 1), BuildingBlock: KIFKEQ_clean_linker_1, # of connection points: 2
#     Edge 39, Type (0, 1), BuildingBlock: KIFKEQ_clean_linker_1, # of connection points: 2
#     Edge 40, Type (0, 1), BuildingBlock: KIFKEQ_clean_linker_1, # of connection points: 2
#     Edge 41, Type (0, 1), BuildingBlock: KIFKEQ_clean_linker_1, # of connection points: 2
#     Edge 42, Type (0, 1), BuildingBlock: KIFKEQ_clean_linker_1, # of connection points: 2
#     Edge 43, Type (0, 1), BuildingBlock: KIFKEQ_clean_linker_1, # of connection points: 2
#     Edge 44, Type (0, 1), BuildingBlock: KIFKEQ_clean_linker_1, # of connection points: 2
#     Edge 45, Type (0, 1), BuildingBlock: KIFKEQ_clean_linker_1, # of connection points: 2
#     Edge 46, Type (0, 1), BuildingBlock: KIFKEQ_clean_linker_1, # of connection points: 2
#     Edge 47, Type (0, 1), BuildingBlock: KIFKEQ_clean_linker_1, # of connection points: 2
#     Edge 48, Type (0, 1), BuildingBlock: KIFKEQ_clean_linker_1, # of connection points: 2
#     Edge 49, Type (0, 1), BuildingBlock: KIFKEQ_clean_linker_1, # of connection points: 2
#     Edge 50, Type (0, 1), BuildingBlock: KIFKEQ_clean_linker_1, # of connection points: 2
#     Edge 51, Type (0, 1), BuildingBlock: KIFKEQ_clean_linker_1, # of connection points: 2
#     Edge 52, Type (0, 1), BuildingBlock: KIFKEQ_clean_linker_1, # of connection points: 2
#     Edge 53, Type (0, 1), BuildingBlock: KIFKEQ_clean_linker_1, # of connection points: 2
#     Edge 54, Type (0, 1), BuildingBlock: KIFKEQ_clean_linker_1, # of connection points: 2
#     Edge 55, Type (0, 1), BuildingBlock: KIFKEQ_clean_linker_1, # of connection points: 2
#     Edge 56, Type (0, 1), BuildingBlock: KIFKEQ_clean_linker_1, # of connection points: 2
#     Edge 57, Type (0, 1), BuildingBlock: KIFKEQ_clean_linker_1, # of connection points: 2
#     Edge 58, Type (0, 1), BuildingBlock: KIFKEQ_clean_linker_1, # of connection points: 2
#     Edge 59, Type (0, 1), BuildingBlock: KIFKEQ_clean_linker_1, # of connection points: 2
#     Edge 60, Type (0, 1), BuildingBlock: KIFKEQ_clean_linker_1, # of connection points: 2
#     Edge 61, Type (0, 1), BuildingBlock: KIFKEQ_clean_linker_1, # of connection points: 2
#     Edge 62, Type (0, 1), BuildingBlock: KIFKEQ_clean_linker_1, # of connection points: 2
#     Edge 63, Type (0, 1), BuildingBlock: KIFKEQ_clean_linker_1, # of connection points: 2
#     Edge 64, Type (0, 1), BuildingBlock: KIFKEQ_clean_linker_1, # of connection points: 2
#     Edge 65, Type (0, 1), BuildingBlock: KIFKEQ_clean_linker_1, # of connection points: 2
#     Edge 66, Type (0, 1), BuildingBlock: KIFKEQ_clean_linker_1, # of connection points: 2
#     Edge 67, Type (0, 1), BuildingBlock: KIFKEQ_clean_linker_1, # of connection points: 2
#     Edge 68, Type (0, 1), BuildingBlock: KIFKEQ_clean_linker_1, # of connection points: 2
#     Edge 69, Type (0, 1), BuildingBlock: KIFKEQ_clean_linker_1, # of connection points: 2
#     Edge 70, Type (0, 1), BuildingBlock: KIFKEQ_clean_linker_1, # of connection points: 2
#     Edge 71, Type (0, 1), BuildingBlock: KIFKEQ_clean_linker_1, # of connection points: 2
#     Edge 72, Type (0, 1), BuildingBlock: KIFKEQ_clean_linker_1, # of connection points: 2
#     Edge 73, Type (0, 1), BuildingBlock: KIFKEQ_clean_linker_1, # of connection points: 2
#     Edge 74, Type (0, 1), BuildingBlock: KIFKEQ_clean_linker_1, # of connection points: 2
#     Edge 75, Type (0, 1), BuildingBlock: KIFKEQ_clean_linker_1, # of connection points: 2
# Relax obj value: 0.002
# Max RMSD: 0.034
# Mean RMSD: 0.019
data_MOF--net-ctn--node1-WUSLED_clean_sbu_0--node2-NAHDIM_clean_sbu_0--edge1-KIFKEQ_clean_linker_1
_symmetry_space_group_name_H-M    P1
_symmetry_Int_Tables_number       1
_symmetry_cell_setting            triclinic
loop_
_symmetry_equiv_pos_as_xyz
'x, y, z'
_cell_length_a     71.01112
_cell_length_b     71.757409
_cell_length_c     70.985011
_cell_angle_alpha  91.606683
_cell_angle_beta   90.0004
_cell_angle_gamma 91.895604
loop_
_atom_site_label
_atom_site_type_symbol
_atom_site_fract_x
_atom_site_fract_y
_atom_site_fract_z
_atom_type_partial_charge
C0 C 0.01778 0.07403 0.09888 0.0
C1 C 0.01849 0.0561 0.10624 0.0
C2 C 0.99796 0.06537 0.13218 0.0
C3 C 1.00859 0.05179 0.12271 0.0
C4 C 0.99742 0.08332 0.12474 0.0
C5 C 1.00722 0.08758 0.10824 0.0
U6 U 0.05683 0.06643 0.06243 0.0
O7 O 0.05603 0.0685 0.03158 0.0
O8 O 0.07504 0.08714 0.0483 0.0
C9 C 0.06781 0.08303 0.0316 0.0
C10 C 0.02796 0.07893 0.08154 0.0
C11 C 0.06167 0.09903 0.02092 0.0
C12 C 0.03947 0.12337 1.01531 0.0
C13 C 0.04504 0.10811 0.02562 0.0
C14 C 0.06714 0.12062 0.99559 0.0
C15 C 0.05049 0.12984 1.00018 0.0
C16 C 0.07266 0.10537 1.00587 0.0
C17 C 0.09098 0.02668 0.0684 0.0
C18 C 0.11719 0.02104 0.04718 0.0
C19 C 0.11141 1.00081 0.07346 0.0
C20 C 0.09594 1.01129 0.07879 0.0
C21 C 0.12226 1.00554 0.05759 0.0
C22 C 0.10166 0.03152 0.05253 0.0
C23 C 0.07474 0.03757 0.07444 0.0
O24 O 0.04528 0.08557 0.08396 0.0
O25 O 0.02627 0.06682 0.06734 0.0
O26 O 0.05985 0.03604 0.06344 0.0
O27 O 0.07869 0.05482 0.0802 0.0
H28 H 0.02669 0.04548 0.09926 0.0
H29 H 1.00947 0.03791 0.12818 0.0
H30 H 0.98919 0.09403 0.13152 0.0
H31 H 1.00651 0.10148 0.10276 0.0
H32 H 0.02669 0.13025 0.01937 0.0
H33 H 0.03642 0.10344 0.03727 0.0
H34 H 0.07582 0.12505 0.98389 0.0
H35 H 0.08553 0.0985 1.00203 0.0
H36 H 0.12509 0.02496 0.03477 0.0
H37 H 0.11505 0.98916 0.08198 0.0
H38 H 0.08788 1.00741 0.09112 0.0
H39 H 0.09799 0.04337 0.04432 0.0
C40 C 0.28374 0.75144 0.18314 0.0
C41 C 0.29686 0.76651 0.18329 0.0
C42 C 0.28335 0.77773 0.15427 0.0
C43 C 0.29665 0.77957 0.16899 0.0
C44 C 0.27019 0.76262 0.15432 0.0
C45 C 0.2704 0.74962 0.16862 0.0
U46 U 0.30435 0.73098 0.22762 0.0
O47 O 0.28975 0.71891 0.25203 0.0
O48 O 0.30836 0.70173 0.23462 0.0
C49 C 0.29607 0.70217 0.24847 0.0
C50 C 0.28379 0.73745 0.19789 0.0
C51 C 0.28182 0.68679 0.24849 0.0
C52 C 0.25914 0.66585 0.2323 0.0
C53 C 0.27228 0.68084 0.23196 0.0
C54 C 0.2647 0.66289 0.26573 0.0
C55 C 0.25526 0.6566 0.24918 0.0
C56 C 0.27785 0.6778 0.26536 0.0
C57 C 0.34761 0.75437 0.25173 0.0
C58 C 0.36918 0.73973 0.27301 0.0
C59 C 0.36794 0.77341 0.27263 0.0
C60 C 0.35405 0.77192 0.25865 0.0
C61 C 0.37574 0.75734 0.27991 0.0
C62 C 0.35516 0.73825 0.25912 0.0
C63 C 0.33317 0.75326 0.23677 0.0
O64 O 0.29808 0.72627 0.19747 0.0
O65 O 0.2797 0.74359 0.21497 0.0
O66 O 0.31585 0.75635 0.24226 0.0
O67 O 0.33425 0.73922 0.22454 0.0
H68 H 0.30729 0.7681 0.19441 0.0
H69 H 0.30709 0.79092 0.16928 0.0
H70 H 0.25958 0.76092 0.1434 0.0
H71 H 0.26013 0.73811 0.16833 0.0
H72 H 0.25229 0.6613 0.21926 0.0
H73 H 0.27511 0.68767 0.21879 0.0
H74 H 0.26183 0.65637 0.27905 0.0
H75 H 0.28499 0.68228 0.27828 0.0
H76 H 0.37476 0.7271 0.27849 0.0
H77 H 0.37282 0.78718 0.27748 0.0
H78 H 0.34841 0.78452 0.25314 0.0
H79 H 0.35028 0.72452 0.25411 0.0
C80 C 0.9724 0.44829 0.01569 0.0
C81 C 0.96965 0.4301 0.02233 0.0
C82 C 0.98303 0.41696 0.99342 0.0
C83 C 0.97491 0.41464 1.01132 0.0
C84 C 0.9859 0.43518 0.9869 0.0
C85 C 0.98056 0.45062 0.99786 0.0
U86 U 0.97651 0.48297 0.05791 0.0
O87 O 0.97403 0.51347 0.05892 0.0
O88 O 0.95441 0.4959 0.07508 0.0
C89 C 0.95879 0.51278 0.06941 0.0
C90 C 0.96625 0.46487 0.02672 0.0
C91 C 0.94293 0.5235 0.06272 0.0
C92 C 0.91819 0.52869 0.03995 0.0
C93 C 0.93327 0.51827 0.04605 0.0
C94 C 0.92235 0.54964 0.0671 0.0
C95 C 0.91256 0.54453 0.05039 0.0
C96 C 0.93738 0.53922 0.07318 0.0
C97 C 1.01508 0.47662 0.09485 0.0
C98 C 0.02095 0.49814 0.12143 0.0
C99 C 0.03935 0.47043 0.11773 0.0
C100 C 0.02933 0.46538 0.10132 0.0
C101 C 0.03531 0.48688 0.128 0.0
C102 C 1.0109 0.49304 0.10499 0.0
C103 C 1.0049 0.47103 0.07745 0.0
O104 O 0.95834 0.46186 0.04317 0.0
O105 O 0.97799 0.47944 0.02703 0.0
O106 O 1.00697 0.48245 0.06339 0.0
O107 O 0.98742 0.46489 0.07966 0.0
H108 H 0.96326 0.42775 0.03595 0.0
H109 H 0.97223 0.40083 0.01671 0.0
H110 H 0.99237 0.43757 0.97333 0.0
H111 H 0.98276 0.46444 0.99232 0.0
H112 H 0.91111 0.52447 0.02693 0.0
H113 H 0.93741 0.50617 0.03777 0.0
H114 H 0.91823 0.56156 0.07565 0.0
H115 H 0.94464 0.54341 0.08612 0.0
H116 H 0.01735 0.51079 0.12909 0.0
H117 H 0.05048 0.46159 0.1222 0.0
H118 H 0.03278 0.4527 0.09362 0.0
H119 H 0.99989 0.50187 0.10019 0.0
C120 C 0.71725 0.77346 0.19239 0.0
C121 C 0.73149 0.78031 0.18048 0.0
C122 C 0.72747 0.75277 0.15976 0.0
C123 C 0.73652 0.77007 0.16428 0.0
C124 C 0.71331 0.74594 0.17188 0.0
C125 C 0.70825 0.75622 0.18803 0.0
U126 U 0.72466 0.81419 0.22759 0.0
O127 O 0.70404 0.83277 0.24071 0.0
O128 O 0.72125 0.81537 0.25839 0.0
C129 C 0.70715 0.82676 0.25771 0.0
C130 C 0.71158 0.78417 0.2093 0.0
C131 C 0.69021 0.82122 0.26841 0.0
C132 C 0.6659 0.79823 0.27672 0.0
C133 C 0.68208 0.80317 0.26647 0.0
C134 C 0.66575 0.82939 0.29079 0.0
C135 C 0.65751 0.81132 0.28896 0.0
C136 C 0.68195 0.83426 0.28062 0.0
C137 C 0.76699 0.84804 0.22097 0.0
C138 C 0.77265 0.87635 0.24005 0.0
C139 C 0.79565 0.86684 0.21679 0.0
C140 C 0.78424 0.85123 0.21187 0.0
C141 C 0.79002 0.87961 0.23094 0.0
C142 C 0.76123 0.86066 0.23513 0.0
C143 C 0.75527 0.83152 0.21542 0.0
O144 O 0.72307 0.78362 0.22378 0.0
O145 O 0.70569 0.801 0.20628 0.0
O146 O 0.73827 0.83484 0.20928 0.0
O147 O 0.75557 0.81754 0.22697 0.0
H148 H 0.73866 0.79358 0.18369 0.0
H149 H 0.74763 0.77562 0.15538 0.0
H150 H 0.70589 0.7328 0.16871 0.0
H151 H 0.69721 0.75074 0.19707 0.0
H152 H 0.65978 0.78428 0.27483 0.0
H153 H 0.6882 0.79293 0.25699 0.0
H154 H 0.65978 0.83972 0.30024 0.0
H155 H 0.68805 0.84825 0.28229 0.0
H156 H 0.76798 0.88581 0.25112 0.0
H157 H 0.80878 0.86905 0.20928 0.0
H158 H 0.78886 0.84165 0.20087 0.0
H159 H 0.74795 0.85836 0.24235 0.0
C160 C 1.01543 0.9763 0.44311 0.0
C161 C 1.01243 0.99501 0.43896 0.0
C162 C 0.99448 0.98518 0.41091 0.0
C163 C 1.00196 0.9994 0.42305 0.0
C164 C 0.9977 0.9665 0.41506 0.0
C165 C 1.00802 0.96212 0.43101 0.0
U166 U 0.05582 0.98396 0.47876 0.0
O167 O 0.05597 0.9806 0.50946 0.0
O168 O 0.07394 0.96336 0.49142 0.0
C169 C 0.06747 0.96662 0.5085 0.0
C170 C 0.02607 0.97116 0.45994 0.0
C171 C 0.06155 0.95005 0.519 0.0
C172 C 0.03939 0.9243 0.52483 0.0
C173 C 0.04485 0.93991 0.51447 0.0
C174 C 0.06734 0.92878 0.54422 0.0
C175 C 0.05055 0.91858 0.53989 0.0
C176 C 0.07276 0.94436 0.53388 0.0
C177 C 0.091 0.02527 0.47418 0.0
C178 C 0.12297 0.02772 0.48657 0.0
C179 C 0.10682 0.05565 0.47861 0.0
C180 C 0.09099 0.04474 0.47304 0.0
C181 C 0.12303 0.04726 0.48534 0.0
C182 C 0.10707 0.01683 0.48114 0.0
C183 C 0.07423 1.0141 0.46786 0.0
O184 O 0.04313 0.96525 0.45676 0.0
O185 O 0.0251 0.9825 0.47476 0.0
O186 O 0.05957 1.01459 0.47915 0.0
O187 O 0.07732 0.9973 0.46089 0.0
H188 H 0.01814 1.00622 0.44801 0.0
H189 H 0.99989 1.01393 0.42012 0.0
H190 H 0.99195 0.95521 0.40613 0.0
H191 H 1.01015 0.94761 0.43397 0.0
H192 H 0.0263 0.91688 0.52123 0.0
H193 H 0.03601 0.94414 0.50302 0.0
H194 H 0.07643 0.92462 0.5555 0.0
H195 H 0.08574 0.95199 0.5375 0.0
H196 H 0.13516 0.02088 0.49191 0.0
H197 H 0.10648 0.07064 0.47733 0.0
H198 H 0.07875 0.05152 0.46771 0.0
H199 H 0.10737 1.00182 0.48232 0.0
C200 C 0.21949 0.77392 0.84741 0.0
C201 C 0.2385 0.7761 0.85272 0.0
C202 C 0.22993 0.79621 0.87945 0.0
C203 C 0.24367 0.78719 0.86854 0.0
C204 C 0.21088 0.79371 0.87418 0.0
C205 C 0.20574 0.78273 0.85831 0.0
U206 U 0.22508 0.73243 0.81294 0.0
O207 O 0.2034 0.7138 0.79963 0.0
O208 O 0.22223 0.73083 0.78207 0.0
C209 C 0.20728 0.71955 0.78261 0.0
C210 C 0.21368 0.76267 0.83058 0.0
C211 C 0.19098 0.72521 0.77161 0.0
C212 C 0.16631 0.74695 0.7655 0.0
C213 C 0.18193 0.74186 0.776 0.0
C214 C 0.16868 0.71878 0.74613 0.0
C215 C 0.15947 0.73545 0.75043 0.0
C216 C 0.18428 0.71373 0.75662 0.0
C217 C 0.26462 0.69816 0.82116 0.0
C218 C 0.27809 0.67656 0.79823 0.0
C219 C 0.28244 0.67202 0.83161 0.0
C220 C 0.27207 0.68785 0.83571 0.0
C221 C 0.28564 0.66622 0.81283 0.0
C222 C 0.26758 0.69235 0.80235 0.0
C223 C 0.25403 0.71496 0.82603 0.0
O224 O 0.22538 0.76299 0.81622 0.0
O225 O 0.2066 0.74591 0.83382 0.0
O226 O 0.23668 0.71192 0.83193 0.0
O227 O 0.25568 0.72887 0.8144 0.0
H228 H 0.24936 0.76935 0.84457 0.0
H229 H 0.25849 0.78894 0.87201 0.0
H230 H 0.19987 0.80012 0.88241 0.0
H231 H 0.19098 0.78111 0.85451 0.0
H232 H 0.15972 0.75997 0.76907 0.0
H233 H 0.18695 0.7509 0.78754 0.0
H234 H 0.16364 0.70945 0.73483 0.0
H235 H 0.19106 0.70078 0.7531 0.0
H236 H 0.28014 0.67233 0.78362 0.0
H237 H 0.28824 0.66452 0.84318 0.0
H238 H 0.26996 0.69212 0.8503 0.0
H239 H 0.26183 0.70003 0.79088 0.0
C240 C 0.97103 0.5944 0.52575 0.0
C241 C 0.97963 0.6102 0.51774 0.0
C242 C 0.97981 0.62659 0.54835 0.0
C243 C 0.98394 0.62617 0.52893 0.0
C244 C 0.97152 0.61055 0.5563 0.0
C245 C 0.96714 0.59466 0.5451 0.0
U246 U 0.97786 0.56026 0.48379 0.0
O247 O 0.97479 0.52964 0.4826 0.0
O248 O 0.9566 0.54632 0.46521 0.0
C249 C 0.9602 0.52965 0.47122 0.0
C250 C 0.96568 0.57763 0.51425 0.0
C251 C 0.94371 0.51831 0.47711 0.0
C252 C 0.9178 0.51223 0.4987 0.0
C253 C 0.93326 0.52337 0.49312 0.0
C254 C 0.92307 0.49094 0.47227 0.0
C255 C 0.91256 0.49582 0.48838 0.0
C256 C 0.9385 0.50209 0.46671 0.0
C257 C 0.01895 0.56797 0.44941 0.0
C258 C 0.02149 0.5543 0.41779 0.0
C259 C 0.0491 0.56833 0.43322 0.0
C260 C 0.03825 0.57266 0.44908 0.0
C261 C 0.04085 0.55927 0.41727 0.0
C262 C 1.01065 0.55858 0.43373 0.0
C263 C 1.00781 0.57324 0.46614 0.0
O264 O 0.95922 0.58052 0.49725 0.0
O265 O 0.9774 0.56386 0.51472 0.0
O266 O 1.0087 0.562 0.48039 0.0
O267 O 0.99069 0.57885 0.46293 0.0
H268 H 0.98282 0.61027 0.50282 0.0
H269 H 0.99017 0.63829 0.52229 0.0
H270 H 0.96848 0.61019 0.57123 0.0
H271 H 0.96063 0.58256 0.55156 0.0
H272 H 0.91015 0.51629 0.51128 0.0
H273 H 0.93715 0.53586 0.50135 0.0
H274 H 0.91928 0.47857 0.46384 0.0
H275 H 0.94639 0.49802 0.45428 0.0
H276 H 1.01461 0.54747 0.40573 0.0
H277 H 0.06401 0.57204 0.43351 0.0
H278 H 0.04494 0.57979 0.4611 0.0
H279 H 0.99577 0.55473 0.43372 0.0
C280 C 0.78675 0.78967 0.85234 0.0
C281 C 0.80314 0.78283 0.86041 0.0
C282 C 0.78415 0.76186 0.87973 0.0
C283 C 0.80184 0.76912 0.87405 0.0
C284 C 0.76782 0.7686 0.87143 0.0
C285 C 0.76913 0.78239 0.85792 0.0
U286 U 0.80895 0.81321 0.80943 0.0
O287 O 0.79532 0.82584 0.7853 0.0
O288 O 0.81392 0.843 0.80393 0.0
C289 C 0.80201 0.84269 0.78975 0.0
C290 C 0.78762 0.80446 0.83829 0.0
C291 C 0.78818 0.85752 0.79019 0.0
C292 C 0.75965 0.87118 0.8025 0.0
C293 C 0.77256 0.85683 0.80229 0.0
C294 C 0.7779 0.88702 0.77857 0.0
C295 C 0.76221 0.8865 0.79068 0.0
C296 C 0.79074 0.87267 0.77834 0.0
C297 C 0.85206 0.79212 0.78564 0.0
C298 C 0.86769 0.80579 0.7586 0.0
C299 C 0.87886 0.77715 0.77123 0.0
C300 C 0.86477 0.77761 0.78496 0.0
C301 C 0.88054 0.79124 0.75787 0.0
C302 C 0.85357 0.80623 0.77238 0.0
C303 C 0.83733 0.79222 0.80019 0.0
O304 O 0.80208 0.81636 0.83952 0.0
O305 O 0.78358 0.79907 0.82086 0.0
O306 O 0.82004 0.78887 0.79409 0.0
O307 O 0.83863 0.80601 0.81276 0.0
H308 H 0.81694 0.78811 0.85622 0.0
H309 H 0.81467 0.76407 0.88004 0.0
H310 H 0.75398 0.76346 0.87563 0.0
H311 H 0.75632 0.78748 0.85189 0.0
H312 H 0.74783 0.87044 0.81213 0.0
H313 H 0.77041 0.84523 0.8116 0.0
H314 H 0.78017 0.89845 0.76909 0.0
H315 H 0.8027 0.87339 0.76887 0.0
H316 H 0.86868 0.81697 0.74867 0.0
H317 H 0.88829 0.76558 0.77092 0.0
H318 H 0.86375 0.76656 0.79505 0.0
H319 H 0.84385 0.81757 0.77272 0.0
C320 C 0.28854 0.29276 0.35532 0.0
C321 C 0.30072 0.2778 0.35381 0.0
C322 C 0.28744 0.26467 0.38244 0.0
C323 C 0.30017 0.26386 0.36724 0.0
C324 C 0.27531 0.27978 0.38385 0.0
C325 C 0.27587 0.29368 0.37042 0.0
U326 U 0.30946 0.31533 0.31164 0.0
O327 O 0.29543 0.32784 0.28768 0.0
O328 O 0.31477 0.34497 0.30559 0.0
C329 C 0.30248 0.34464 0.29173 0.0
C330 C 0.28885 0.30747 0.34129 0.0
C331 C 0.28888 0.35968 0.29228 0.0
C332 C 0.26064 0.37372 0.30484 0.0
C333 C 0.27348 0.3593 0.30467 0.0
C334 C 0.27856 0.38903 0.28033 0.0
C335 C 0.26306 0.38879 0.29268 0.0
C336 C 0.29133 0.37461 0.28014 0.0
C337 C 0.35165 0.2925 0.28715 0.0
C338 C 0.37528 0.30689 0.26684 0.0
C339 C 0.3711 0.27326 0.26685 0.0
C340 C 0.35678 0.27491 0.28024 0.0
C341 C 0.38072 0.28921 0.26013 0.0
C342 C 0.36085 0.30853 0.2802 0.0
C343 C 0.33709 0.29361 0.30192 0.0
O344 O 0.30364 0.31897 0.34195 0.0
O345 O 0.28423 0.30196 0.32404 0.0
O346 O 0.31961 0.2905 0.29629 0.0
O347 O 0.33899 0.30752 0.31431 0.0
H348 H 0.31066 0.27691 0.34226 0.0
H349 H 0.30984 0.25255 0.36583 0.0
H350 H 0.26516 0.28073 0.39519 0.0
H351 H 0.26633 0.30512 0.37177 0.0
H352 H 0.24898 0.3732 0.31466 0.0
H353 H 0.27142 0.34788 0.3142 0.0
H354 H 0.28071 0.40026 0.27059 0.0
H355 H 0.30311 0.37509 0.27044 0.0
H356 H 0.38244 0.31946 0.2621 0.0
H357 H 0.3746 0.25944 0.26174 0.0
H358 H 0.34979 0.26238 0.28533 0.0
H359 H 0.35707 0.32228 0.28528 0.0
C360 C 0.47353 0.94906 0.51436 0.0
C361 C 0.47077 0.93108 0.52153 0.0
C362 C 0.4844 0.91721 0.49312 0.0
C363 C 0.47612 0.91534 0.511 0.0
C364 C 0.48719 0.93518 0.48602 0.0
C365 C 0.48173 0.9509 0.49648 0.0
U366 U 0.47788 0.98478 0.55564 0.0
O367 O 0.47566 1.01534 0.55572 0.0
O368 O 0.45607 0.99837 0.57259 0.0
C369 C 0.46039 1.015 0.56618 0.0
C370 C 0.46744 0.96594 0.52494 0.0
C371 C 0.44458 0.02579 0.55924 0.0
C372 C 0.41332 0.02757 0.54545 0.0
C373 C 0.42829 0.01697 0.55146 0.0
C374 C 0.43089 0.05592 0.55449 0.0
C375 C 0.41444 0.04718 0.54692 0.0
C376 C 0.44577 0.04532 0.56062 0.0
C377 C 0.5168 0.97881 0.59254 0.0
C378 C 0.51947 0.99596 0.62251 0.0
C379 C 0.54462 0.97616 0.61206 0.0
C380 C 0.5345 0.97143 0.59563 0.0
C381 C 0.53718 0.98837 0.6258 0.0
C382 C 0.50936 0.99123 0.60601 0.0
C383 C 0.50633 0.97314 0.57532 0.0
O384 O 0.45955 0.9634 0.54148 0.0
O385 O 0.47924 0.98045 0.52485 0.0
O386 O 0.50841 0.98427 0.56103 0.0
O387 O 0.48881 0.96718 0.57774 0.0
H388 H 0.46443 0.92911 0.53523 0.0
H389 H 0.47392 0.90169 0.51692 0.0
H390 H 0.49327 0.93709 0.47218 0.0
H391 H 0.48382 0.96454 0.49049 0.0
H392 H 0.40094 0.02042 0.53949 0.0
H393 H 0.42709 1.0019 0.55009 0.0
H394 H 0.43212 0.07097 0.556 0.0
H395 H 0.45819 0.0524 0.56658 0.0
H396 H 0.51325 1.00528 0.63285 0.0
H397 H 0.55834 0.97032 0.61392 0.0
H398 H 0.54051 0.9619 0.58533 0.0
H399 H 0.4957 0.99711 0.60384 0.0
C400 C 0.21641 0.27424 0.6911 0.0
C401 C 0.23314 0.27848 0.68137 0.0
C402 C 0.22568 0.25367 0.65809 0.0
C403 C 0.23776 0.26825 0.66502 0.0
C404 C 0.20895 0.24952 0.66798 0.0
C405 C 0.20437 0.25971 0.68433 0.0
U406 U 0.22525 0.31428 0.72691 0.0
O407 O 0.20517 0.33306 0.7406 0.0
O408 O 0.22214 0.31495 0.75774 0.0
C409 C 0.20828 0.32664 0.75744 0.0
C410 C 0.21125 0.28491 0.7082 0.0
C411 C 0.19134 0.32107 0.76809 0.0
C412 C 0.16565 0.29892 0.77446 0.0
C413 C 0.18174 0.304 0.76417 0.0
C414 C 0.16856 0.32798 0.79261 0.0
C415 C 0.15885 0.31085 0.78884 0.0
C416 C 0.18465 0.33301 0.78234 0.0
C417 C 0.26819 0.34737 0.72081 0.0
C418 C 0.27364 0.3761 0.73928 0.0
C419 C 0.29781 0.36497 0.71808 0.0
C420 C 0.28616 0.34961 0.71289 0.0
C421 C 0.2917 0.37844 0.73131 0.0
C422 C 0.262 0.36065 0.73411 0.0
C423 C 0.25616 0.33118 0.7149 0.0
O424 O 0.22283 0.28382 0.72255 0.0
O425 O 0.20584 0.30196 0.70547 0.0
O426 O 0.23923 0.33497 0.7089 0.0
O427 O 0.25622 0.31692 0.7261 0.0
H428 H 0.24256 0.28972 0.68638 0.0
H429 H 0.25063 0.27196 0.65764 0.0
H430 H 0.19946 0.23823 0.66321 0.0
H431 H 0.19142 0.25624 0.6917 0.0
H432 H 0.15867 0.28555 0.77131 0.0
H433 H 0.18673 0.29461 0.75318 0.0
H434 H 0.16358 0.33764 0.80334 0.0
H435 H 0.19185 0.34629 0.78548 0.0
H436 H 0.26859 0.38611 0.74964 0.0
H437 H 0.31151 0.36647 0.71147 0.0
H438 H 0.29114 0.33951 0.70257 0.0
H439 H 0.24818 0.35908 0.74045 0.0
C440 C 0.78353 0.25052 0.6848 0.0
C441 C 0.79477 0.26699 0.68549 0.0
C442 C 0.78136 0.27644 0.6557 0.0
C443 C 0.79366 0.27988 0.67107 0.0
C444 C 0.77017 0.25986 0.65516 0.0
C445 C 0.77127 0.24706 0.66956 0.0
U446 U 0.80567 0.2305 0.72895 0.0
O447 O 0.79185 0.21846 0.75374 0.0
O448 O 0.80982 0.20117 0.73577 0.0
C449 C 0.79794 0.20167 0.74995 0.0
C450 C 0.7843 0.23676 0.69974 0.0
C451 C 0.78352 0.18647 0.75007 0.0
C452 C 0.75377 0.17233 0.7391 0.0
C453 C 0.76744 0.18684 0.73861 0.0
C454 C 0.77224 0.1569 0.76236 0.0
C455 C 0.75601 0.15717 0.751 0.0
C456 C 0.78584 0.17142 0.7619 0.0
C457 C 0.84952 0.25414 0.75184 0.0
C458 C 0.87138 0.23981 0.77305 0.0
C459 C 0.87096 0.27345 0.77132 0.0
C460 C 0.85658 0.27177 0.75788 0.0
C461 C 0.87871 0.2575 0.77896 0.0
C462 C 0.85689 0.23815 0.75965 0.0
C463 C 0.83467 0.25285 0.73729 0.0
O464 O 0.79868 0.2257 0.69896 0.0
O465 O 0.78067 0.24301 0.7169 0.0
O466 O 0.81749 0.25593 0.74323 0.0
O467 O 0.83548 0.23873 0.72514 0.0
H468 H 0.80438 0.26986 0.69714 0.0
H469 H 0.80258 0.29241 0.67184 0.0
H470 H 0.76034 0.25688 0.64373 0.0
H471 H 0.76246 0.23444 0.66883 0.0
H472 H 0.74156 0.17287 0.73002 0.0
H473 H 0.76546 0.19834 0.72931 0.0
H474 H 0.7743 0.14558 0.77185 0.0
H475 H 0.79816 0.17094 0.77086 0.0
H476 H 0.87708 0.22722 0.77848 0.0
H477 H 0.87593 0.2873 0.7758 0.0
H478 H 0.85098 0.28428 0.75214 0.0
H479 H 0.85157 0.22438 0.75526 0.0
C480 C 0.51819 0.57399 0.59673 0.0
C481 C 0.52405 0.55974 0.6083 0.0
C482 C 0.49725 0.5647 0.62917 0.0
C483 C 0.51368 0.55515 0.62441 0.0
C484 C 0.49145 0.5789 0.6174 0.0
C485 C 0.50183 0.58348 0.60135 0.0
U486 U 0.5582 0.56664 0.56139 0.0
O487 O 0.55838 0.56957 0.53062 0.0
O488 O 0.5773 0.58732 0.54835 0.0
C489 C 0.57054 0.58377 0.53134 0.0
C490 C 0.529 0.57925 0.57991 0.0
C491 C 0.56526 0.60016 0.52078 0.0
C492 C 0.54543 0.62667 0.51634 0.0
C493 C 0.5502 0.6111 0.5266 0.0
C494 C 0.57069 0.62042 0.49435 0.0
C495 C 0.55561 0.63151 0.50006 0.0
C496 C 0.57544 0.60491 0.50462 0.0
C497 C 0.5911 0.52559 0.56674 0.0
C498 C 0.6238 0.5227 0.55706 0.0
C499 C 0.604 0.49496 0.56097 0.0
C500 C 0.58892 0.50608 0.5661 0.0
C501 C 0.62165 0.50313 0.55649 0.0
C502 C 0.60865 0.53383 0.56205 0.0
C503 C 0.57502 0.53689 0.57274 0.0
O504 O 0.54638 0.5854 0.58304 0.0
O505 O 0.52749 0.56754 0.56538 0.0
O506 O 0.56031 0.53606 0.56147 0.0
O507 O 0.57906 0.55384 0.57942 0.0
H508 H 0.53663 0.55221 0.60488 0.0
H509 H 0.51844 0.54401 0.63304 0.0
H510 H 0.47904 0.58671 0.62076 0.0
H511 H 0.49714 0.59456 0.59259 0.0
H512 H 0.53363 0.63477 0.52103 0.0
H513 H 0.54214 0.60759 0.53904 0.0
H514 H 0.57901 0.62389 0.48207 0.0
H515 H 0.58715 0.59663 0.49996 0.0
H516 H 0.63715 0.52942 0.55347 0.0
H517 H 0.60193 0.47993 0.56086 0.0
H518 H 0.57554 0.49941 0.56972 0.0
H519 H 0.61071 0.54886 0.5623 0.0
C520 C 0.51496 0.47918 0.94363 0.0
C521 C 0.52273 0.4925 0.93151 0.0
C522 C 0.49494 0.48931 0.9113 0.0
C523 C 0.51282 0.49749 0.91544 0.0
C524 C 0.48724 0.47605 0.92361 0.0
C525 C 0.49717 0.47104 0.93961 0.0
U526 U 0.55526 0.48541 0.97938 0.0
O527 O 0.55471 0.48242 1.01019 0.0
O528 O 0.57241 0.46443 0.99261 0.0
C529 C 0.56558 0.46795 1.00952 0.0
C530 C 0.52517 0.47356 0.96048 0.0
C531 C 0.55893 0.45169 0.02029 0.0
C532 C 0.54704 0.41956 0.02192 0.0
C533 C 0.55267 0.43492 1.01128 0.0
C534 C 0.55343 0.43764 0.05067 0.0
C535 C 0.5474 0.42074 0.04174 0.0
C536 C 0.55918 0.45292 0.04004 0.0
C537 C 0.59176 0.52565 0.97491 0.0
C538 C 0.62334 0.52746 0.98831 0.0
C539 C 0.60843 0.55564 0.97896 0.0
C540 C 0.59246 0.54507 0.97318 0.0
C541 C 0.6241 0.54695 0.98652 0.0
C542 C 0.60728 0.51691 0.98265 0.0
C543 C 0.5748 0.51488 0.96846 0.0
O544 O 0.54204 0.46707 0.95746 0.0
O545 O 0.52454 0.48518 0.97508 0.0
O546 O 0.56001 0.51592 0.97952 0.0
O547 O 0.57748 0.4979 0.96174 0.0
H548 H 0.53644 0.499 0.93446 0.0
H549 H 0.51907 0.50789 0.90638 0.0
H550 H 0.47365 0.46928 0.92073 0.0
H551 H 0.49098 0.46072 0.94881 0.0
H552 H 0.54226 0.40681 1.01463 0.0
H553 H 0.5522 0.43364 0.99605 0.0
H554 H 0.55406 0.43895 0.06589 0.0
H555 H 0.56399 0.46571 0.04727 0.0
H556 H 0.63509 0.52039 0.99428 0.0
H557 H 0.60864 0.57059 0.97722 0.0
H558 H 0.58064 0.55208 0.96724 0.0
H559 H 0.60701 0.50193 0.98429 0.0
C560 C 0.71876 0.2744 0.34682 0.0
C561 C 0.72801 0.26627 0.36185 0.0
C562 C 0.72963 0.29624 0.37902 0.0
C563 C 0.73333 0.27707 0.37783 0.0
C564 C 0.72054 0.3043 0.36377 0.0
C565 C 0.71514 0.29347 0.34786 0.0
U566 U 0.72388 0.23263 0.31281 0.0
O567 O 0.70226 0.214 0.29948 0.0
O568 O 0.72125 0.23083 0.2819 0.0
C569 C 0.70635 0.2195 0.28241 0.0
C570 C 0.71281 0.26325 0.32998 0.0
C571 C 0.69019 0.22476 0.27098 0.0
C572 C 0.66304 0.24379 0.26591 0.0
C573 C 0.6787 0.23941 0.27673 0.0
C574 C 0.67037 0.21908 0.2434 0.0
C575 C 0.6586 0.23358 0.24916 0.0
C576 C 0.68599 0.21472 0.25422 0.0
C577 C 0.76293 0.19818 0.32153 0.0
C578 C 0.76985 0.17224 0.30015 0.0
C579 C 0.78608 0.17575 0.33013 0.0
C580 C 0.7761 0.1918 0.33433 0.0
C581 C 0.78308 0.16573 0.313 0.0
C582 C 0.75982 0.18831 0.3044 0.0
C583 C 0.75259 0.21508 0.32636 0.0
O584 O 0.72479 0.26329 0.31587 0.0
O585 O 0.70533 0.24662 0.33314 0.0
O586 O 0.73516 0.21226 0.33211 0.0
O587 O 0.75443 0.22875 0.31449 0.0
H588 H 0.73101 0.25156 0.36129 0.0
H589 H 0.74009 0.27032 0.38935 0.0
H590 H 0.71776 0.31905 0.364 0.0
H591 H 0.70814 0.30002 0.33633 0.0
H592 H 0.65419 0.25491 0.27086 0.0
H593 H 0.68175 0.2473 0.28967 0.0
H594 H 0.66757 0.21113 0.23045 0.0
H595 H 0.69476 0.20342 0.24954 0.0
H596 H 0.76706 0.16476 0.28693 0.0
H597 H 0.79633 0.1713 0.34022 0.0
H598 H 0.77869 0.19928 0.3476 0.0
H599 H 0.74963 0.19302 0.29438 0.0
C600 C 0.47358 0.09609 0.02305 0.0
C601 C 0.48441 0.11019 1.01445 0.0
C602 C 0.485 0.12871 0.04382 0.0
C603 C 0.49001 0.12637 0.02472 0.0
C604 C 0.47431 0.11439 0.05237 0.0
C605 C 0.46865 0.09828 0.04206 0.0
U606 U 0.47928 0.05997 0.98295 0.0
O607 O 0.4753 0.02944 0.983 0.0
O608 O 0.45788 0.04591 0.96462 0.0
C609 C 0.46086 0.02941 0.9714 0.0
C610 C 0.46737 0.07901 1.0125 0.0
C611 C 0.44395 0.01885 0.97754 0.0
C612 C 0.41817 1.01395 0.99958 0.0
C613 C 0.4341 0.02431 0.9938 0.0
C614 C 0.42176 0.99266 0.97282 0.0
C615 C 0.41181 0.99796 0.98916 0.0
C616 C 0.43767 1.00301 0.96709 0.0
C617 C 0.52143 0.06557 0.94926 0.0
C618 C 0.52549 0.04814 0.91973 0.0
C619 C 0.55146 0.067 0.93291 0.0
C620 C 0.54012 0.07228 0.9481 0.0
C621 C 0.5443 0.05487 0.91851 0.0
C622 C 0.51416 0.05339 0.93503 0.0
C623 C 0.50988 0.07155 0.96541 0.0
O624 O 0.46117 0.08136 0.9953 0.0
O625 O 0.47847 0.06481 1.01372 0.0
O626 O 0.51016 0.0608 0.98009 0.0
O627 O 0.49296 0.07725 0.96145 0.0
H628 H 0.48845 0.10872 0.99977 0.0
H629 H 0.49804 0.13716 0.0176 0.0
H630 H 0.47048 0.11551 0.06711 0.0
H631 H 0.46041 0.08748 0.04898 0.0
H632 H 0.41074 0.01856 1.0121 0.0
H633 H 0.43875 0.03656 1.00202 0.0
H634 H 0.41744 0.9803 0.96461 0.0
H635 H 0.44515 0.99857 0.95452 0.0
H636 H 0.51961 0.03865 0.90898 0.0
H637 H 0.56576 0.07266 0.93229 0.0
H638 H 0.54596 0.08172 0.95894 0.0
H639 H 0.49976 0.04798 0.93574 0.0
C640 C 0.23565 0.92923 0.02389 0.0
O641 O 0.2457 0.93282 1.0088 0.0
O642 O 0.25538 0.88381 1.0043 0.0
Zn643 Zn 0.26235 0.89981 0.02745 0.0
O644 O 0.28506 0.91669 0.0216 0.0
C645 C 0.27615 0.86802 0.04757 0.0
O646 O 0.28292 0.86338 0.03094 0.0
O647 O 0.24019 0.9158 0.03411 0.0
C648 C 0.30096 0.91608 0.02979 0.0
O649 O 0.30322 0.904 0.0431 0.0
C650 C 0.26759 0.87869 0.99226 0.0
O651 O 0.28532 0.88397 0.99479 0.0
O652 O 0.26724 0.88306 0.04949 0.0
C653 C 0.17297 0.49502 0.28699 0.0
O654 O 0.17699 0.511 0.29583 0.0
O655 O 0.12533 0.51958 0.29583 0.0
Zn656 Zn 0.142 0.51586 0.27284 0.0
O657 O 0.15901 0.53887 0.26978 0.0
C658 C 0.11319 0.52149 0.24415 0.0
O659 O 0.11041 0.53701 0.25383 0.0
O660 O 0.15844 0.49367 0.27648 0.0
C661 C 0.16351 0.5457 0.25399 0.0
O662 O 0.1568 0.5377 0.23842 0.0
C663 C 0.12015 0.53581 0.30075 0.0
O664 O 0.12575 0.55009 0.29075 0.0
O665 O 0.12581 0.51065 0.24958 0.0
C666 C 0.80116 0.62004 1.01274 0.0
O667 O 0.79091 0.61522 0.99787 0.0
O668 O 0.77876 0.66574 0.9953 0.0
Zn669 Zn 0.77353 0.64898 0.01748 0.0
O670 O 0.75124 0.63133 1.01142 0.0
C671 C 0.75652 0.67816 0.04071 0.0
O672 O 0.7478 0.68174 0.02497 0.0
O673 O 0.79648 0.63398 0.02295 0.0
C674 C 0.73891 0.62695 0.02367 0.0
O675 O 0.74072 0.63381 0.04095 0.0
C676 C 0.76555 0.6697 0.98411 0.0
O677 O 0.74854 0.66258 0.98696 0.0
O678 O 0.76802 0.66494 0.04078 0.0
C679 C 0.85889 0.05073 0.28669 0.0
O680 O 0.85369 0.03472 0.29396 0.0
O681 O 0.90584 0.02469 0.29485 0.0
Zn682 Zn 0.88932 0.02872 0.27205 0.0
O683 O 0.87172 1.00612 0.2675 0.0
C684 C 0.92231 0.03979 0.25012 0.0
O685 O 0.9292 0.04458 0.26681 0.0
O686 O 0.87381 0.0516 0.27679 0.0
C687 C 0.87541 0.99351 0.25521 0.0
O688 O 0.89095 0.99521 0.24528 0.0
C689 C 0.91261 1.00883 0.29776 0.0
O690 O 0.9087 0.99495 0.28579 0.0
O691 O 0.90564 0.03282 0.24895 0.0
C692 C 0.30674 0.12785 0.51024 0.0
O693 O 0.3053 0.13396 0.49304 0.0
O694 O 0.27897 0.16682 0.49604 0.0
Zn695 Zn 0.27268 0.14902 0.5171 0.0
O696 O 0.24971 0.13266 0.51012 0.0
C697 C 0.25605 0.17795 0.54006 0.0
O698 O 0.24812 0.18167 0.52393 0.0
O699 O 0.2946 0.13254 0.52251 0.0
C700 C 0.23768 0.12756 0.52239 0.0
O701 O 0.24022 0.133 0.54006 0.0
C702 C 0.27237 0.16447 0.47945 0.0
O703 O 0.26158 0.14965 0.4755 0.0
O704 O 0.26719 0.16446 0.54066 0.0
C705 C 0.36811 0.55518 0.79082 0.0
O706 O 0.37254 0.54508 0.80522 0.0
O707 O 0.4069 0.52498 0.79366 0.0
Zn708 Zn 0.39045 0.52812 0.77065 0.0
O709 O 0.37332 0.50513 0.7669 0.0
C710 C 0.42159 0.54189 0.7477 0.0
O711 O 0.42676 0.55043 0.76358 0.0
O712 O 0.37426 0.55065 0.77454 0.0
C713 C 0.37813 0.49142 0.75643 0.0
O714 O 0.39458 0.49222 0.74797 0.0
C715 C 0.42058 0.51398 0.7934 0.0
O716 O 0.42427 0.50459 0.77775 0.0
O717 O 0.40661 0.53167 0.74738 0.0
C718 C 0.73059 0.4211 0.52247 0.0
O719 O 0.73406 0.41693 0.50469 0.0
O720 O 0.75595 0.38251 0.50483 0.0
Zn721 Zn 0.76307 0.39859 0.52791 0.0
O722 O 0.78564 0.4155 0.5219 0.0
C723 C 0.75954 0.36651 0.55125 0.0
O724 O 0.74614 0.36216 0.53898 0.0
O725 O 0.74114 0.41475 0.53511 0.0
C726 C 0.80237 0.41196 0.52674 0.0
O727 O 0.80532 0.39676 0.53605 0.0
C728 C 0.76825 0.37612 0.49356 0.0
O729 O 0.78616 0.38007 0.49687 0.0
O730 O 0.76894 0.38177 0.54956 0.0
C731 C 0.67318 0.99362 0.78601 0.0
O732 O 0.67761 1.00953 0.79479 0.0
O733 O 0.62568 0.01936 0.79375 0.0
Zn734 Zn 0.64317 1.01543 0.77145 0.0
O735 O 0.66116 0.03783 0.76895 0.0
C736 C 0.61167 0.01792 0.74529 0.0
O737 O 0.6046 0.02828 0.75892 0.0
O738 O 0.65873 0.99264 0.77539 0.0
C739 C 0.65792 0.05189 0.75908 0.0
O740 O 0.64195 0.05239 0.7498 0.0
C741 C 0.6308 0.02938 0.80804 0.0
O742 O 0.64779 0.03721 0.80831 0.0
O743 O 0.62785 1.01116 0.74749 0.0
C744 C 1.01292 0.24005 0.92391 0.0
O745 O 0.99769 0.24921 0.92811 0.0
O746 O 0.99504 0.26312 0.87863 0.0
Zn747 Zn 0.01795 0.26844 0.89548 0.0
O748 O 1.01302 0.29026 0.91356 0.0
C749 C 0.04034 0.27955 0.86258 0.0
O750 O 0.02381 0.2815 0.85473 0.0
O751 O 0.0234 0.24563 0.91053 0.0
C752 C 0.01852 0.30685 0.90994 0.0
O753 O 0.02775 0.30987 0.89422 0.0
C754 C 0.9847 0.27631 0.87373 0.0
O755 O 0.98889 0.29337 0.87991 0.0
O756 O 0.04113 0.27427 0.87953 0.0
C757 C 0.52993 0.7461 0.42516 0.0
O758 O 0.53745 0.76231 0.43072 0.0
O759 O 0.49353 0.76347 0.3777 0.0
Zn760 Zn 0.51637 0.76816 0.39477 0.0
O761 O 0.51187 0.7902 0.41271 0.0
C762 C 0.53912 0.77968 0.36255 0.0
O763 O 0.52262 0.78329 0.35542 0.0
O764 O 0.52022 0.74513 0.41007 0.0
C765 C 0.51756 0.80673 0.40912 0.0
O766 O 0.52674 0.8097 0.39337 0.0
C767 C 0.48297 0.77662 0.37315 0.0
O768 O 0.48689 0.7936 0.37971 0.0
O769 O 0.5399 0.77316 0.37902 0.0
C770 C 1.01577 0.80497 0.61579 0.0
O771 O 1.0006 0.79466 0.61175 0.0
O772 O 0.99916 0.78216 0.66247 0.0
Zn773 Zn 0.02079 0.77731 0.64447 0.0
O774 O 1.01449 0.75519 0.62689 0.0
C775 C 0.043 0.76506 0.67596 0.0
O776 O 0.02629 0.76153 0.68322 0.0
O777 O 0.02638 0.80028 0.62918 0.0
C778 C 1.00881 0.73965 0.63338 0.0
O779 O 1.00685 0.73817 0.65169 0.0
C780 C 0.98193 0.77874 0.65837 0.0
O781 O 0.97754 0.77199 0.64149 0.0
O782 O 0.04413 0.7718 0.65959 0.0
C783 C 0.51299 0.31075 0.12265 0.0
O784 O 0.49549 0.30751 0.12796 0.0
O785 O 0.49789 0.28319 0.16192 0.0
Zn786 Zn 0.51988 0.27782 0.14442 0.0
O787 O 0.51317 0.2553 0.1275 0.0
C788 C 0.5429 0.2598 0.1719 0.0
O789 O 0.52758 0.24922 0.17364 0.0
O790 O 0.5257 0.29999 0.12805 0.0
C791 C 0.52524 0.24366 0.12189 0.0
O792 O 0.54293 0.24629 0.12701 0.0
C793 C 0.48626 0.27015 0.16631 0.0
O794 O 0.48855 0.25328 0.15919 0.0
O795 O 0.54297 0.27291 0.1602 0.0
H796 H 0.25762 0.79063 0.90556 0.0
H797 H 0.21473 0.82922 0.89128 0.0
H798 H 0.2667 0.81054 0.93268 0.0
H799 H 0.2236 0.84886 0.91862 0.0
H800 H 0.23191 0.86811 0.9807 0.0
H801 H 0.2228 0.84807 0.95363 0.0
H802 H 0.28143 0.84195 0.93938 0.0
H803 H 0.29058 0.86188 0.96648 0.0
C804 C 0.2502 0.8034 0.90809 0.0
C805 C 0.23542 0.80827 0.89616 0.0
C806 C 0.25539 0.81479 0.92368 0.0
C807 C 0.24585 0.83127 0.92781 0.0
C808 C 0.23104 0.83612 0.91597 0.0
C809 C 0.22593 0.82481 0.90031 0.0
C810 C 0.24286 0.86249 0.9718 0.0
C811 C 0.26198 0.86661 0.97576 0.0
C812 C 0.23763 0.85108 0.95623 0.0
C813 C 0.25139 0.84341 0.94436 0.0
C814 C 0.2705 0.84748 0.94837 0.0
C815 C 0.27573 0.859 0.96384 0.0
H816 H 0.03923 0.52825 0.39356 0.0
H817 H 0.06852 0.58158 0.40193 0.0
H818 H 0.05774 0.52239 0.36517 0.0
H819 H 0.08761 0.57532 0.37421 0.0
H820 H 0.10459 0.56822 0.31304 0.0
H821 H 0.08509 0.57343 0.34071 0.0
H822 H 0.08914 0.51546 0.35463 0.0
H823 H 0.10831 0.51012 0.32654 0.0
C824 C 0.0496 0.53873 0.38937 0.0
C825 C 0.05234 0.5554 0.40009 0.0
C826 C 0.06039 0.53526 0.3732 0.0
C827 C 0.07419 0.54838 0.36734 0.0
C828 C 0.07696 0.565 0.37812 0.0
C829 C 0.06616 0.56848 0.39421 0.0
C830 C 0.10132 0.55655 0.32196 0.0
C831 C 0.10808 0.53876 0.31757 0.0
C832 C 0.09021 0.55957 0.33793 0.0
C833 C 0.08561 0.54491 0.35003 0.0
C834 C 0.09222 0.52704 0.34554 0.0
C835 C 0.10331 0.524 0.32949 0.0
H836 H 0.76146 0.73032 0.87952 0.0
H837 H 0.80333 0.76092 0.91316 0.0
H838 H 0.75784 0.70746 0.90412 0.0
H839 H 0.7995 0.73825 0.93798 0.0
H840 H 0.79926 0.68536 0.97251 0.0
H841 H 0.80463 0.70674 0.94674 0.0
H842 H 0.74489 0.70503 0.93489 0.0
H843 H 0.73965 0.68333 0.96016 0.0
C844 C 0.76983 0.73221 0.89223 0.0
C845 C 0.78261 0.74749 0.89442 0.0
C846 C 0.76773 0.71912 0.90638 0.0
C847 C 0.77826 0.72104 0.92316 0.0
C848 C 0.79132 0.73616 0.92518 0.0
C849 C 0.7935 0.74919 0.91096 0.0
C850 C 0.7873 0.68951 0.96434 0.0
C851 C 0.76903 0.68259 0.9684 0.0
C852 C 0.79036 0.70186 0.94962 0.0
C853 C 0.77521 0.70763 0.93865 0.0
C854 C 0.75696 0.70067 0.94276 0.0
C855 C 0.75393 0.68828 0.95738 0.0
H856 H 0.99675 0.96989 0.37531 0.0
H857 H 0.96672 1.01064 0.40839 0.0
H858 H 0.9775 0.97625 0.34797 0.0
H859 H 0.94718 0.01681 0.38112 0.0
H860 H 0.92653 0.03504 0.32349 0.0
H861 H 0.94694 0.03009 0.35045 0.0
H862 H 0.94613 0.971 0.33675 0.0
H863 H 0.92627 0.97603 0.3096 0.0
C864 C 0.98594 0.98014 0.37676 0.0
C865 C 0.98321 0.98969 0.39405 0.0
C866 C 0.97486 0.98376 0.3611 0.0
C867 C 0.96064 0.99695 0.36232 0.0
C868 C 0.95812 1.00674 0.37956 0.0
C869 C 0.96931 1.00318 0.39522 0.0
C870 C 0.93073 0.021 0.32624 0.0
C871 C 0.92479 1.00594 0.31434 0.0
C872 C 0.94237 0.01814 0.34176 0.0
C873 C 0.94828 1.00014 0.3458 0.0
C874 C 0.94219 0.9851 0.33392 0.0
C875 C 0.93066 0.98797 0.31838 0.0
H876 H 0.20197 0.24193 0.62942 0.0
H877 H 0.26011 0.24091 0.64717 0.0
H878 H 0.20948 0.22359 0.60117 0.0
H879 H 0.26776 0.22312 0.61853 0.0
H880 H 0.26958 0.17374 0.5758 0.0
H881 H 0.26241 0.19215 0.60417 0.0
H882 H 0.22634 0.22638 0.57164 0.0
H883 H 0.23322 0.2078 0.54337 0.0
C884 C 0.21636 0.23778 0.62731 0.0
C885 C 0.23042 0.24285 0.64061 0.0
C886 C 0.22071 0.22744 0.61099 0.0
C887 C 0.23923 0.22189 0.60754 0.0
C888 C 0.25332 0.227 0.62082 0.0
C889 C 0.24897 0.23739 0.63714 0.0
C890 C 0.26012 0.1852 0.5747 0.0
C891 C 0.25194 0.18926 0.5573 0.0
C892 C 0.2561 0.19583 0.59095 0.0
C893 C 0.24378 0.21075 0.59021 0.0
C894 C 0.23568 0.21484 0.57278 0.0
C895 C 0.23971 0.20423 0.55654 0.0
H896 H 0.4589 0.56197 0.63324 0.0
H897 H 0.51079 0.55709 0.66421 0.0
H898 H 0.44094 0.55599 0.66182 0.0
H899 H 0.4928 0.55047 0.69268 0.0
H900 H 0.45453 0.56227 0.74375 0.0
H901 H 0.47286 0.56691 0.71514 0.0
H902 H 0.43298 0.53145 0.68377 0.0
H903 H 0.41445 0.52703 0.71234 0.0
C904 C 0.46648 0.55958 0.64614 0.0
C905 C 0.4863 0.5601 0.64643 0.0
C906 C 0.45617 0.55594 0.66249 0.0
C907 C 0.46541 0.55277 0.67958 0.0
C908 C 0.48523 0.55306 0.67982 0.0
C909 C 0.49555 0.55665 0.66344 0.0
C910 C 0.44967 0.55543 0.73077 0.0
C911 C 0.43297 0.54433 0.73035 0.0
C912 C 0.46026 0.558 0.71437 0.0
C913 C 0.4544 0.54957 0.69713 0.0
C914 C 0.43777 0.53835 0.69675 0.0
C915 C 0.4272 0.53574 0.71316 0.0
H916 H 0.78097 0.31468 0.65872 0.0
H917 H 0.77862 0.26899 0.61776 0.0
H918 H 0.77669 0.33669 0.63353 0.0
H919 H 0.77431 0.29092 0.59267 0.0
H920 H 0.74321 0.33223 0.55718 0.0
H921 H 0.74957 0.31097 0.58231 0.0
H922 H 0.79161 0.3501 0.60535 0.0
H923 H 0.78505 0.37161 0.58021 0.0
C924 C 0.77979 0.30934 0.64433 0.0
C925 C 0.77996 0.29004 0.6403 0.0
C926 C 0.77733 0.32196 0.62989 0.0
C927 C 0.77498 0.31556 0.61109 0.0
C928 C 0.77568 0.29631 0.60703 0.0
C929 C 0.77814 0.28372 0.62143 0.0
C930 C 0.75382 0.33635 0.56758 0.0
C931 C 0.76362 0.35365 0.56665 0.0
C932 C 0.75756 0.32408 0.58194 0.0
C933 C 0.77118 0.32877 0.59581 0.0
C934 C 0.78093 0.34611 0.59497 0.0
C935 C 0.77724 0.3584 0.58051 0.0
H936 H 0.55735 0.96485 0.64715 0.0
H937 H 0.54116 0.02224 0.64466 0.0
H938 H 0.57534 0.9723 0.67572 0.0
H939 H 0.55913 0.02967 0.67338 0.0
H940 H 0.57708 0.03063 0.73588 0.0
H941 H 0.559 0.02368 0.70718 0.0
H942 H 0.60379 0.98969 0.6859 0.0
H943 H 0.62175 0.99639 0.7147 0.0
C944 C 0.55775 0.97911 0.65259 0.0
C945 C 0.54786 0.99296 0.64351 0.0
C946 C 0.56808 0.98337 0.669 0.0
C947 C 0.56876 1.0016 0.67682 0.0
C948 C 0.55873 1.01544 0.66786 0.0
C949 C 0.54841 1.01117 0.6514 0.0
C950 C 0.58309 0.02169 0.72508 0.0
C951 C 0.60086 1.01403 0.72764 0.0
C952 C 0.57276 0.01779 0.70856 0.0
C953 C 0.57991 1.0061 0.69424 0.0
C954 C 0.59774 0.99854 0.69675 0.0
C955 C 0.60809 1.00247 0.71324 0.0
H956 H 0.88461 0.23677 0.81037 0.0
H957 H 0.90872 0.28248 0.779 0.0
H958 H 0.91016 0.24058 0.83336 0.0
H959 H 0.93393 0.28644 0.80212 0.0
H960 H 0.96259 0.30212 0.85808 0.0
H961 H 0.9371 0.2969 0.83546 0.0
H962 H 0.94515 0.23755 0.83629 0.0
H963 H 0.97074 0.24274 0.85915 0.0
C964 C 0.89541 0.24752 0.80826 0.0
C965 C 0.89447 0.25941 0.79286 0.0
C966 C 0.91003 0.24971 0.82147 0.0
C967 C 0.92399 0.26391 0.81965 0.0
C968 C 0.9232 0.27559 0.80413 0.0
C969 C 0.90869 0.27334 0.79089 0.0
C970 C 0.95894 0.28793 0.85352 0.0
C971 C 0.96878 0.27285 0.86041 0.0
C972 C 0.94438 0.28496 0.84045 0.0
C973 C 0.93918 0.26682 0.83397 0.0
C974 C 0.94876 0.25168 0.84109 0.0
C975 C 0.96347 0.25466 0.85412 0.0
H976 H 0.46437 0.88423 0.4876 0.0
H977 H 0.51677 0.91242 0.47292 0.0
H978 H 0.47276 0.85736 0.46792 0.0
H979 H 0.52534 0.88547 0.45349 0.0
H980 H 0.52451 0.84384 0.40368 0.0
H981 H 0.51677 0.87002 0.42441 0.0
H982 H 0.4936 0.8318 0.46501 0.0
H983 H 0.50088 0.80556 0.44394 0.0
C984 C 0.4778 0.88458 0.48036 0.0
C985 C 0.48986 0.9005 0.48176 0.0
C986 C 0.48264 0.86915 0.4691 0.0
C987 C 0.49971 0.86922 0.45902 0.0
C988 C 0.51192 0.88504 0.46072 0.0
C989 C 0.50703 0.90049 0.4719 0.0
C990 C 0.5178 0.84098 0.41704 0.0
C991 C 0.5133 0.82258 0.42212 0.0
C992 C 0.51346 0.85603 0.42901 0.0
C993 C 0.50458 0.85308 0.44645 0.0
C994 C 0.5002 0.83463 0.45159 0.0
C995 C 0.50448 0.81957 0.43955 0.0
H996 H 0.12621 0.29346 0.77581 0.0
H997 H 0.15251 0.31625 0.82668 0.0
H998 H 0.09803 0.28509 0.79367 0.0
H999 H 0.12401 0.30866 0.84436 0.0
H1000 H 0.07691 0.27592 0.87396 0.0
H1001 H 0.10559 0.28269 0.85617 0.0
H1002 H 0.07207 0.29973 0.80926 0.0
H1003 H 0.04343 0.29255 0.82685 0.0
C1004 C 0.12602 0.29664 0.79081 0.0
C1005 C 0.14166 0.30556 0.79978 0.0
C1006 C 0.10975 0.29204 0.80102 0.0
C1007 C 0.10868 0.29626 0.82047 0.0
C1008 C 0.12438 0.30503 0.82946 0.0
C1009 C 0.14066 0.30961 0.81926 0.0
C1010 C 0.07565 0.28108 0.85984 0.0
C1011 C 0.05785 0.28367 0.85184 0.0
C1012 C 0.09212 0.28507 0.84966 0.0
C1013 C 0.09118 0.29177 0.83126 0.0
C1014 C 0.07335 0.29433 0.82328 0.0
C1015 C 0.0569 0.29032 0.83343 0.0
H1016 H 0.54563 0.66595 0.51368 0.0
H1017 H 0.55454 0.63475 0.4617 0.0
H1018 H 0.53836 0.69334 0.49577 0.0
H1019 H 0.54795 0.66231 0.44383 0.0
H1020 H 0.51736 0.71018 0.41725 0.0
H1021 H 0.52254 0.68248 0.43552 0.0
H1022 H 0.55465 0.71609 0.47634 0.0
H1023 H 0.54923 0.74378 0.45829 0.0
C1024 C 0.54595 0.66489 0.49843 0.0
C1025 C 0.55072 0.64813 0.48915 0.0
C1026 C 0.54199 0.68067 0.48816 0.0
C1027 C 0.54264 0.68008 0.46835 0.0
C1028 C 0.54714 0.66324 0.45906 0.0
C1029 C 0.55115 0.64748 0.46932 0.0
C1030 C 0.52548 0.71167 0.43015 0.0
C1031 C 0.53289 0.72922 0.43628 0.0
C1032 C 0.52854 0.69576 0.44058 0.0
C1033 C 0.53902 0.69703 0.45741 0.0
C1034 C 0.5463 0.71462 0.46359 0.0
C1035 C 0.54329 0.7305 0.45315 0.0
H1036 H 0.91723 0.78147 0.76209 0.0
H1037 H 0.87794 0.79959 0.72047 0.0
H1038 H 0.94145 0.779 0.73795 0.0
H1039 H 0.90244 0.7979 0.69644 0.0
H1040 H 0.94406 0.77101 0.65494 0.0
H1041 H 0.91976 0.77482 0.67884 0.0
H1042 H 0.96166 0.79746 0.71805 0.0
H1043 H 0.98604 0.79324 0.69429 0.0
C1044 C 0.91376 0.78496 0.74779 0.0
C1045 C 0.89557 0.79063 0.74323 0.0
C1046 C 0.92773 0.78378 0.73397 0.0
C1047 C 0.92393 0.78825 0.71521 0.0
C1048 C 0.90581 0.79414 0.71069 0.0
C1049 C 0.89182 0.79533 0.72452 0.0
C1050 C 0.9481 0.77686 0.66864 0.0
C1051 C 0.96703 0.78176 0.67269 0.0
C1052 C 0.93412 0.77915 0.68233 0.0
C1053 C 0.93872 0.78643 0.70042 0.0
C1054 C 0.95763 0.79156 0.70438 0.0
C1055 C 0.97161 0.78923 0.6907 0.0
H1056 H 0.03508 0.88502 0.52707 0.0
H1057 H 0.05295 0.91473 0.57809 0.0
H1058 H 0.02641 0.85778 0.54539 0.0
H1059 H 0.04431 0.88753 0.59638 0.0
H1060 H 0.04646 0.82888 0.61991 0.0
H1061 H 0.0545 0.8562 0.60154 0.0
H1062 H 1.00381 0.84665 0.56854 0.0
H1063 H 0.99594 0.8191 0.58667 0.0
C1064 C 0.03698 0.88582 0.54222 0.0
C1065 C 0.04479 0.90207 0.55108 0.0
C1066 C 0.03201 0.87019 0.55273 0.0
C1067 C 0.03472 0.87042 0.57237 0.0
C1068 C 0.04234 0.88673 0.58125 0.0
C1069 C 0.0473 0.90235 0.57075 0.0
C1070 C 0.03701 0.8326 0.60874 0.0
C1071 C 0.02055 0.82176 0.60477 0.0
C1072 C 0.04157 0.84834 0.59827 0.0
C1073 C 0.02979 0.85367 0.58355 0.0
C1074 C 1.01332 0.84283 0.5796 0.0
C1075 C 1.00876 0.82708 0.59008 0.0
H1076 H 0.15386 0.73174 0.71226 0.0
H1077 H 0.12701 0.75091 0.76353 0.0
H1078 H 0.12588 0.73902 0.69436 0.0
H1079 H 0.09935 0.75892 0.74551 0.0
H1080 H 0.04525 0.75016 0.71087 0.0
H1081 H 0.07346 0.74351 0.72862 0.0
H1082 H 0.10812 0.76491 0.68358 0.0
H1083 H 0.07985 0.77121 0.6656 0.0
C1084 C 0.142 0.73753 0.71972 0.0
C1085 C 0.14268 0.74065 0.73937 0.0
C1086 C 0.12603 0.74192 0.70941 0.0
C1087 C 0.11032 0.74954 0.71847 0.0
C1088 C 0.11109 0.75286 0.73809 0.0
C1089 C 0.12706 0.74847 0.74841 0.0
C1090 C 0.05888 0.75346 0.70473 0.0
C1091 C 0.06026 0.7612 0.68678 0.0
C1092 C 0.07508 0.74976 0.71498 0.0
C1093 C 0.09309 0.75371 0.70757 0.0
C1094 C 0.09448 0.76148 0.68962 0.0
C1095 C 0.07826 0.76519 0.67935 0.0
H1096 H 1.01057 0.65083 0.54692 0.0
H1097 H 0.9583 0.64122 0.57683 0.0
H1098 H 0.01741 0.67843 0.56698 0.0
H1099 H 0.96528 0.66859 0.59696 0.0
H1100 H 0.99462 0.70529 0.64274 0.0
H1101 H 0.98771 0.6784 0.62189 0.0
H1102 H 1.00613 0.71015 0.57409 0.0
H1103 H 1.01325 0.7371 0.59501 0.0
C1104 C 1.00045 0.65466 0.55764 0.0
C1105 C 0.98393 0.64368 0.5603 0.0
C1106 C 1.00439 0.67048 0.56916 0.0
C1107 C 0.99194 0.67566 0.58365 0.0
C1108 C 0.97533 0.66481 0.58616 0.0
C1109 C 0.97136 0.64907 0.57462 0.0
C1110 C 0.9972 0.70659 0.62779 0.0
C1111 C 1.00448 0.72338 0.62056 0.0
C1112 C 0.99313 0.69118 0.61581 0.0
C1113 C 0.99632 0.69213 0.59631 0.0
C1114 C 1.00368 0.7089 0.58907 0.0
C1115 C 1.00766 0.72437 0.60105 0.0
H1116 H 0.77944 0.91554 0.23826 0.0
H1117 H 0.82835 0.88138 0.23505 0.0
H1118 H 0.7998 0.94306 0.24482 0.0
H1119 H 0.84865 0.90881 0.2416 0.0
H1120 H 0.87981 0.96405 0.23063 0.0
H1121 H 0.85897 0.93677 0.22564 0.0
H1122 H 0.82119 0.95785 0.26828 0.0
H1123 H 0.84195 0.98542 0.27308 0.0
C1124 C 0.79451 0.91386 0.23919 0.0
C1125 C 0.80226 0.89627 0.23598 0.0
C1126 C 0.80618 0.92964 0.24294 0.0
C1127 C 0.82588 0.92819 0.24358 0.0
C1128 C 0.83357 0.91051 0.24082 0.0
C1129 C 0.82192 0.89477 0.23707 0.0
C1130 C 0.86707 0.96291 0.23896 0.0
C1131 C 0.86258 0.97694 0.25227 0.0
C1132 C 0.85516 0.94718 0.23618 0.0
C1133 C 0.83844 0.94504 0.24663 0.0
C1134 C 0.83388 0.95913 0.25988 0.0
C1135 C 0.84583 0.97489 0.26269 0.0
H1136 H 0.79903 0.15486 0.27941 0.0
H1137 H 0.79124 0.13776 0.33682 0.0
H1138 H 0.81682 0.12691 0.27257 0.0
H1139 H 0.80953 0.11023 0.33018 0.0
H1140 H 0.8263 0.05332 0.30695 0.0
H1141 H 0.8076 0.08076 0.31266 0.0
H1142 H 0.84707 0.11364 0.28002 0.0
H1143 H 0.86563 0.08608 0.274 0.0
C1144 C 0.80105 0.14511 0.29055 0.0
C1145 C 0.79372 0.14858 0.30867 0.0
C1146 C 0.81143 0.1292 0.28669 0.0
C1147 C 0.81465 0.11632 0.30083 0.0
C1148 C 0.80717 0.11973 0.3189 0.0
C1149 C 0.79686 0.13565 0.32277 0.0
C1150 C 0.83101 0.06639 0.30096 0.0
C1151 C 0.84751 0.06748 0.29005 0.0
C1152 C 0.82032 0.08216 0.30432 0.0
C1153 C 0.82584 0.09945 0.29686 0.0
C1154 C 0.84227 0.10051 0.28581 0.0
C1155 C 0.85299 0.08473 0.28246 0.0
H1156 H 0.40203 0.98853 0.02513 0.0
H1157 H 0.38357 0.98187 0.96727 0.0
H1158 H 0.37487 0.96965 0.0352 0.0
H1159 H 0.35684 0.96239 0.97726 0.0
H1160 H 0.30098 0.94323 1.00339 0.0
H1161 H 0.32725 0.96367 0.99401 0.0
H1162 H 0.36337 0.93756 0.03376 0.0
H1163 H 0.33703 0.91742 0.04342 0.0
C1164 C 0.39214 0.98311 1.01455 0.0
C1165 C 0.39502 0.98672 0.99538 0.0
C1166 C 0.37667 0.97209 0.02031 0.0
C1167 C 0.36368 0.96441 1.00704 0.0
C1168 C 0.36645 0.9682 0.98789 0.0
C1169 C 0.38192 0.9792 0.98213 0.0
C1170 C 0.31451 0.94188 1.01017 0.0
C1171 C 0.31688 0.92867 0.02417 0.0
C1172 C 0.32962 0.95354 1.00471 0.0
C1173 C 0.34747 0.95227 1.0131 0.0
C1174 C 0.34978 0.93911 0.02718 0.0
C1175 C 0.33468 0.92747 0.03264 0.0
H1176 H 0.22447 0.38629 0.29501 0.0
H1177 H 0.27097 0.42626 0.29054 0.0
H1178 H 0.20236 0.41164 0.29462 0.0
H1179 H 0.24889 0.45148 0.28953 0.0
H1180 H 0.20563 0.4939 0.30726 0.0
H1181 H 0.22688 0.46809 0.30952 0.0
H1182 H 0.19037 0.43424 0.27275 0.0
H1183 H 0.16892 0.45999 0.27072 0.0
C1184 C 0.22999 0.40048 0.29403 0.0
C1185 C 0.24951 0.40422 0.29278 0.0
C1186 C 0.2173 0.415 0.2936 0.0
C1187 C 0.22383 0.43361 0.29202 0.0
C1188 C 0.24336 0.43734 0.29095 0.0
C1189 C 0.25603 0.42285 0.29132 0.0
C1190 C 0.20206 0.48094 0.29971 0.0
C1191 C 0.18557 0.47906 0.28877 0.0
C1192 C 0.21432 0.46616 0.30092 0.0
C1193 C 0.21039 0.4491 0.29125 0.0
C1194 C 0.19374 0.44711 0.28054 0.0
C1195 C 0.18149 0.46193 0.27929 0.0
H1196 H 0.15995 0.041 0.4769 0.0
H1197 H 0.12439 0.07982 0.50636 0.0
H1198 H 0.18773 0.06024 0.4859 0.0
H1199 H 0.15211 0.0992 0.51508 0.0
H1200 H 0.20777 0.11725 0.54444 0.0
H1201 H 0.18028 0.09771 0.53555 0.0
H1202 H 0.20211 0.09146 0.47903 0.0
H1203 H 0.22973 0.11095 0.48793 0.0
C1204 C 0.15808 0.0536 0.48536 0.0
C1205 C 0.13997 0.05888 0.49093 0.0
C1206 C 0.17397 0.06471 0.49035 0.0
C1207 C 0.17212 0.08126 0.50118 0.0
C1208 C 0.15402 0.08646 0.50686 0.0
C1209 C 0.13813 0.07545 0.50173 0.0
C1210 C 0.20675 0.11172 0.53011 0.0
C1211 C 0.22097 0.11568 0.5169 0.0
C1212 C 0.19092 0.10059 0.525 0.0
C1213 C 0.189 0.09305 0.50659 0.0
C1214 C 0.20327 0.09692 0.49338 0.0
C1215 C 0.21904 0.10817 0.49846 0.0
H1216 H 0.71758 0.15976 0.7513 0.0
H1217 H 0.76157 0.11965 0.75227 0.0
H1218 H 0.69385 0.13452 0.75325 0.0
H1219 H 0.73788 0.09441 0.75408 0.0
H1220 H 0.69168 0.05595 0.7776 0.0
H1221 H 0.71507 0.08143 0.77557 0.0
H1222 H 0.67997 0.10837 0.7355 0.0
H1223 H 0.65637 0.08309 0.73787 0.0
C1224 C 0.72219 0.14554 0.75172 0.0
C1225 C 0.74149 0.14175 0.75168 0.0
C1226 C 0.70857 0.13106 0.75284 0.0
C1227 C 0.71392 0.1124 0.75389 0.0
C1228 C 0.73324 0.10862 0.75365 0.0
C1229 C 0.74683 0.1231 0.75259 0.0
C1230 C 0.68893 0.06731 0.76837 0.0
C1231 C 0.67213 0.06745 0.75789 0.0
C1232 C 0.70241 0.08189 0.76711 0.0
C1233 C 0.69946 0.09696 0.75532 0.0
C1234 C 0.68262 0.09712 0.7449 0.0
C1235 C 0.66912 0.08256 0.74618 0.0
H1236 H 0.37679 0.04094 0.55352 0.0
H1237 H 0.41594 0.0791 0.52666 0.0
H1238 H 0.35063 0.05995 0.54418 0.0
H1239 H 0.38984 0.09831 0.51768 0.0
H1240 H 0.33644 0.1173 0.48824 0.0
H1241 H 0.36216 0.09737 0.4966 0.0
H1242 H 0.33826 0.09098 0.55207 0.0
H1243 H 0.31243 0.11076 0.54369 0.0
C1244 C 0.3798 0.05333 0.54553 0.0
C1245 C 0.39845 0.05851 0.54084 0.0
C1246 C 0.36483 0.06432 0.54035 0.0
C1247 C 0.36815 0.08068 0.53023 0.0
C1248 C 0.38678 0.08572 0.52533 0.0
C1249 C 0.40175 0.07481 0.53063 0.0
C1250 C 0.33664 0.11164 0.50222 0.0
C1251 C 0.32236 0.11567 0.51529 0.0
C1252 C 0.35145 0.10028 0.50704 0.0
C1253 C 0.35227 0.09259 0.52501 0.0
C1254 C 0.33793 0.09651 0.53804 0.0
C1255 C 0.32318 0.10795 0.53326 0.0
H1256 H 0.65824 0.50706 0.56856 0.0
H1257 H 0.62148 0.47226 0.53297 0.0
H1258 H 0.68461 0.48735 0.56037 0.0
H1259 H 0.64774 0.45237 0.52506 0.0
H1260 H 0.70375 0.43416 0.49911 0.0
H1261 H 0.67767 0.45407 0.50732 0.0
H1262 H 0.69511 0.45518 0.56562 0.0
H1263 H 0.72135 0.43532 0.55741 0.0
C1264 C 0.65581 0.49524 0.55893 0.0
C1265 C 0.63776 0.49124 0.5514 0.0
C1266 C 0.67087 0.48385 0.55439 0.0
C1267 C 0.66827 0.46827 0.54208 0.0
C1268 C 0.65025 0.46434 0.53447 0.0
C1269 C 0.63516 0.47564 0.53912 0.0
C1270 C 0.70205 0.43863 0.51369 0.0
C1271 C 0.71466 0.43312 0.5276 0.0
C1272 C 0.68702 0.44997 0.51841 0.0
C1273 C 0.68429 0.4562 0.53713 0.0
C1274 C 0.69694 0.45077 0.55104 0.0
C1275 C 0.71191 0.4393 0.54635 0.0
H1276 H 0.76172 0.29434 0.40039 0.0
H1277 H 0.71016 0.32433 0.39636 0.0
H1278 H 0.77065 0.31302 0.42833 0.0
H1279 H 0.71958 0.34369 0.42366 0.0
H1280 H 0.73284 0.36255 0.48426 0.0
H1281 H 0.72351 0.34292 0.45704 0.0
H1282 H 0.78123 0.3438 0.43767 0.0
H1283 H 0.79062 0.36294 0.46516 0.0
C1284 C 0.75226 0.30489 0.40545 0.0
C1285 C 0.7352 0.30778 0.39606 0.0
C1286 C 0.75751 0.3158 0.42136 0.0
C1287 C 0.74588 0.32995 0.42827 0.0
C1288 C 0.72881 0.3328 0.4189 0.0
C1289 C 0.72352 0.32184 0.40305 0.0
C1290 C 0.74354 0.35854 0.4742 0.0
C1291 C 0.76248 0.36432 0.47691 0.0
C1292 C 0.73818 0.34736 0.45851 0.0
C1293 C 0.7516 0.34175 0.44509 0.0
C1294 C 0.77054 0.34758 0.44783 0.0
C1295 C 0.77591 0.35868 0.46356 0.0
H1296 H 0.53487 0.05223 0.88101 0.0
H1297 H 0.58129 0.04543 0.91924 0.0
H1298 H 0.55544 0.0453 0.85432 0.0
H1299 H 0.6018 0.03844 0.89264 0.0
H1300 H 0.63776 0.04959 0.8406 0.0
H1301 H 0.61656 0.05482 0.867 0.0
H1302 H 0.57326 0.02085 0.83868 0.0
H1303 H 0.59442 1.0159 0.812 0.0
C1304 C 0.54939 0.04901 0.88374 0.0
C1305 C 0.55646 0.04953 0.90227 0.0
C1306 C 0.56119 0.04503 0.86844 0.0
C1307 C 0.58033 0.04146 0.8713 0.0
C1308 C 0.58725 0.04151 0.88987 0.0
C1309 C 0.57548 0.04551 0.90514 0.0
C1310 C 0.62373 0.04321 0.83997 0.0
C1311 C 0.61782 0.03231 0.82416 0.0
C1312 C 0.61159 0.04611 0.85519 0.0
C1313 C 0.5932 0.03819 0.85504 0.0
C1314 C 0.58726 0.02731 0.8392 0.0
C1315 C 0.59943 0.02438 0.82395 0.0
H1316 H 0.28959 0.22688 0.37641 0.0
H1317 H 0.2834 0.26872 0.42073 0.0
H1318 H 0.28751 0.20249 0.39965 0.0
H1319 H 0.2806 0.24431 0.44385 0.0
H1320 H 0.29343 0.1971 0.48297 0.0
H1321 H 0.29836 0.22095 0.45946 0.0
H1322 H 0.26407 0.18806 0.41981 0.0
H1323 H 0.25947 0.16409 0.44313 0.0
C1324 C 0.28789 0.23089 0.39112 0.0
C1325 C 0.28662 0.24978 0.39667 0.0
C1326 C 0.28648 0.21689 0.40443 0.0
C1327 C 0.28381 0.22141 0.42364 0.0
C1328 C 0.28283 0.24031 0.42922 0.0
C1329 C 0.28421 0.25431 0.41591 0.0
C1330 C 0.28704 0.19491 0.4692 0.0
C1331 C 0.27603 0.17867 0.46497 0.0
C1332 C 0.28977 0.20864 0.45575 0.0
C1333 C 0.28157 0.20648 0.43774 0.0
C1334 C 0.2708 0.1901 0.43344 0.0
C1335 C 0.26807 0.17638 0.44688 0.0
H1336 H 0.45719 0.49525 0.90789 0.0
H1337 H 0.50883 0.49466 0.87574 0.0
H1338 H 0.43967 0.50182 0.87944 0.0
H1339 H 0.49138 0.50188 0.84739 0.0
H1340 H 0.45058 0.49151 0.79749 0.0
H1341 H 0.46874 0.48653 0.82592 0.0
H1342 H 0.43484 0.52592 0.85669 0.0
H1343 H 0.41642 0.53067 0.8283 0.0
C1344 C 0.46482 0.49657 0.89476 0.0
C1345 C 0.48442 0.49432 0.8941 0.0
C1346 C 0.45479 0.50055 0.87847 0.0
C1347 C 0.46409 0.50235 0.86109 0.0
C1348 C 0.48373 0.50038 0.86049 0.0
C1349 C 0.49377 0.49645 0.87679 0.0
C1350 C 0.44701 0.49916 0.81029 0.0
C1351 C 0.43199 0.51145 0.8106 0.0
C1352 C 0.45752 0.49639 0.82659 0.0
C1353 C 0.45327 0.50582 0.84362 0.0
C1354 C 0.43835 0.51825 0.84388 0.0
C1355 C 0.42785 0.52104 0.82757 0.0
H1356 H 0.73462 0.76597 0.12454 0.0
H1357 H 0.73181 0.71507 0.15565 0.0
H1358 H 0.74243 0.74818 0.09597 0.0
H1359 H 0.73902 0.69722 0.12695 0.0
H1360 H 0.77098 0.67358 0.07601 0.0
H1361 H 0.76469 0.69181 0.10473 0.0
H1362 H 0.72716 0.72591 0.07375 0.0
H1363 H 0.73364 0.70789 0.045 0.0
C1364 C 0.73576 0.751 0.12531 0.0
C1365 C 0.73257 0.74195 0.1424 0.0
C1366 C 0.74003 0.74077 0.10888 0.0
C1367 C 0.74129 0.72126 0.10914 0.0
C1368 C 0.73832 0.71224 0.12627 0.0
C1369 C 0.73398 0.72246 0.14269 0.0
C1370 C 0.76141 0.68499 0.07531 0.0
C1371 C 0.75282 0.68926 0.05819 0.0
C1372 C 0.75773 0.69538 0.09181 0.0
C1373 C 0.74542 0.71033 0.09156 0.0
C1374 C 0.73691 0.71464 0.0744 0.0
C1375 C 0.74054 0.70423 0.05793 0.0
H1376 H 0.99528 0.08695 0.1644 0.0
H1377 H 0.9768 0.03378 0.13967 0.0
H1378 H 0.97714 0.0803 0.19271 0.0
H1379 H 0.95908 0.02686 0.16828 0.0
H1380 H 0.91243 0.03159 0.21341 0.0
H1381 H 0.93105 0.03725 0.18512 0.0
H1382 H 0.97686 0.06 0.21959 0.0
H1383 H 0.95817 0.05465 0.24783 0.0
C1384 C 0.98734 0.07383 0.16501 0.0
C1385 C 0.98744 0.06093 0.14972 0.0
C1386 C 0.97711 0.06992 0.18133 0.0
C1387 C 0.96665 0.05304 0.18279 0.0
C1388 C 0.96683 0.04007 0.16755 0.0
C1389 C 0.97715 0.04395 0.15123 0.0
C1390 C 0.92649 0.03778 0.21496 0.0
C1391 C 0.93376 0.04275 0.2329 0.0
C1392 C 0.93721 0.04091 0.19874 0.0
C1393 C 0.95545 0.04913 0.20007 0.0
C1394 C 0.96277 0.0539 0.21803 0.0
C1395 C 0.95207 0.05075 0.23424 0.0
H1396 H 0.28821 0.81585 0.15697 0.0
H1397 H 0.27815 0.7705 0.11655 0.0
H1398 H 0.28761 0.83809 0.13155 0.0
H1399 H 0.27687 0.7927 0.09132 0.0
H1400 H 0.29433 0.83506 0.04793 0.0
H1401 H 0.29704 0.81385 0.07388 0.0
H1402 H 0.2654 0.85113 0.10962 0.0
H1403 H 0.26298 0.87259 0.0837 0.0
C1404 C 0.28594 0.81061 0.14267 0.0
C1405 C 0.2832 0.79137 0.13882 0.0
C1406 C 0.28539 0.82338 0.12812 0.0
C1407 C 0.28218 0.8172 0.10937 0.0
C1408 C 0.27959 0.79795 0.10554 0.0
C1409 C 0.28009 0.78522 0.12006 0.0
C1410 C 0.28801 0.83881 0.06133 0.0
C1411 C 0.27837 0.85552 0.06368 0.0
C1412 C 0.28948 0.82657 0.0762 0.0
C1413 C 0.28133 0.8307 0.09383 0.0
C1414 C 0.27199 0.84759 0.0963 0.0
C1415 C 0.27051 0.85985 0.0814 0.0
H1416 H 0.04882 0.52166 0.13937 0.0
H1417 H 0.04638 0.4642 0.15606 0.0
H1418 H 0.06747 0.53015 0.16737 0.0
H1419 H 0.06497 0.47268 0.18403 0.0
H1420 H 0.11567 0.49079 0.22059 0.0
H1421 H 0.09674 0.48276 0.19272 0.0
H1422 H 0.06549 0.53292 0.20148 0.0
H1423 H 0.08468 0.54115 0.22915 0.0
C1424 C 0.05208 0.51087 0.14911 0.0
C1425 C 0.04615 0.49223 0.14541 0.0
C1426 C 0.06279 0.51574 0.16517 0.0
C1427 C 0.06782 0.50209 0.17794 0.0
C1428 C 0.06167 0.4835 0.17434 0.0
C1429 C 0.05099 0.47864 0.15829 0.0
C1430 C 0.10477 0.50013 0.21657 0.0
C1431 C 0.1017 0.51662 0.22714 0.0
C1432 C 0.09383 0.49546 0.20064 0.0
C1433 C 0.07953 0.50716 0.19486 0.0
C1434 C 0.07652 0.52369 0.20538 0.0
C1435 C 0.08747 0.52836 0.22133 0.0
H1436 H 0.40837 0.73813 0.2815 0.0
H1437 H 0.37724 0.78046 0.3112 0.0
H1438 H 0.43387 0.74217 0.30445 0.0
H1439 H 0.40252 0.7843 0.33433 0.0
H1440 H 0.45993 0.80224 0.35849 0.0
H1441 H 0.43394 0.79687 0.33654 0.0
H1442 H 0.44302 0.73761 0.33655 0.0
H1443 H 0.46949 0.74308 0.35818 0.0
C1444 C 0.40686 0.74811 0.29309 0.0
C1445 C 0.39083 0.75906 0.29446 0.0
C1446 C 0.42147 0.75041 0.30628 0.0
C1447 C 0.42035 0.76365 0.32122 0.0
C1448 C 0.40408 0.77426 0.3228 0.0
C1449 C 0.38955 0.77203 0.30956 0.0
C1450 C 0.45639 0.78804 0.35386 0.0
C1451 C 0.46683 0.7731 0.36011 0.0
C1452 C 0.44136 0.78494 0.34134 0.0
C1453 C 0.43627 0.76679 0.33478 0.0
C1454 C 0.44667 0.7518 0.34111 0.0
C1455 C 0.46179 0.75492 0.3536 0.0
H1456 H 0.99873 0.3845 1.00452 0.0
H1457 H 0.97909 0.41199 0.95517 0.0
H1458 H 1.00733 0.35769 0.98479 0.0
H1459 H 0.98798 0.38537 0.93552 0.0
H1460 H 0.02527 0.34397 0.90439 0.0
H1461 H 0.0169 0.37022 0.92484 0.0
H1462 H 0.99254 0.33213 0.96485 0.0
H1463 H 1.00106 0.30574 0.94441 0.0
C1464 C 0.99611 0.3848 0.98951 0.0
C1465 C 0.98827 0.4005 0.98147 0.0
C1466 C 1.00107 0.36943 0.9782 0.0
C1467 C 0.99842 0.36943 0.95858 0.0
C1468 C 0.99051 0.38506 0.95055 0.0
C1469 C 0.98545 0.40036 0.96184 0.0
C1470 C 0.01818 0.34114 0.91756 0.0
C1471 C 1.01381 0.32272 0.92273 0.0
C1472 C 1.01328 0.35622 0.92924 0.0
C1473 C 1.00397 0.35328 0.94643 0.0
C1474 C 0.99984 0.33486 0.95176 0.0
C1475 C 1.00464 0.31974 0.94 0.0
H1476 H 0.62633 0.83214 0.29453 0.0
H1477 H 0.64938 0.77908 0.30763 0.0
H1478 H 0.59805 0.82421 0.31246 0.0
H1479 H 0.62082 0.77093 0.32521 0.0
H1480 H 0.57562 0.77291 0.3723 0.0
H1481 H 0.60425 0.78024 0.35449 0.0
H1482 H 0.57064 0.80264 0.3103 0.0
H1483 H 0.54212 0.79554 0.32812 0.0
C1484 C 0.62537 0.81879 0.30127 0.0
C1485 C 0.64014 0.80626 0.29967 0.0
C1486 C 0.60908 0.81416 0.31139 0.0
C1487 C 0.60715 0.79692 0.32025 0.0
C1488 C 0.62192 0.78439 0.3187 0.0
C1489 C 0.6382 0.78898 0.30846 0.0
C1490 C 0.57435 0.77938 0.35877 0.0
C1491 C 0.55656 0.78368 0.35168 0.0
C1492 C 0.59075 0.78348 0.34852 0.0
C1493 C 0.58974 0.79208 0.33099 0.0
C1494 C 0.57194 0.79625 0.32387 0.0
C1495 C 0.55557 0.79208 0.33406 0.0
H1496 H 0.07286 0.15857 0.98728 0.0
H1497 H 1.01502 0.13803 0.98826 0.0
H1498 H 0.06359 0.18493 0.9689 0.0
H1499 H 1.00573 0.16441 0.96981 0.0
H1500 H 0.99377 0.22448 0.95338 0.0
H1501 H 1.00268 0.19805 0.97193 0.0
H1502 H 0.05249 0.19186 0.93769 0.0
H1503 H 0.04378 0.21848 0.91937 0.0
C1504 C 0.05818 0.15959 0.98344 0.0
C1505 C 0.0447 0.14612 0.98922 0.0
C1506 C 0.05286 0.17471 0.97288 0.0
C1507 C 0.03391 0.17679 0.96779 0.0
C1508 C 0.0204 0.1634 0.97368 0.0
C1509 C 0.02573 0.14826 0.98427 0.0
C1510 C 1.00662 0.21748 0.94979 0.0
C1511 C 0.01808 0.22366 0.9349 0.0
C1512 C 1.01167 0.20224 0.96037 0.0
C1513 C 0.02833 0.19283 0.95635 0.0
C1514 C 0.03971 0.19894 0.94137 0.0
C1515 C 0.03465 0.21415 0.93078 0.0
H1516 H 0.3895 0.31096 0.22981 0.0
H1517 H 0.40798 0.26311 0.25955 0.0
H1518 H 0.41508 0.30707 0.20713 0.0
H1519 H 0.43324 0.2591 0.23679 0.0
H1520 H 0.46143 0.24455 0.18083 0.0
H1521 H 0.43614 0.24983 0.20327 0.0
H1522 H 0.45026 0.30884 0.20479 0.0
H1523 H 0.47563 0.30359 0.18211 0.0
C1524 C 0.39908 0.29971 0.23163 0.0
C1525 C 0.39654 0.28726 0.24646 0.0
C1526 C 0.41372 0.29748 0.21861 0.0
C1527 C 0.4261 0.28268 0.22007 0.0
C1528 C 0.42373 0.27043 0.23505 0.0
C1529 C 0.40919 0.27271 0.24808 0.0
C1530 C 0.45917 0.25868 0.18588 0.0
C1531 C 0.47063 0.27364 0.17969 0.0
C1532 C 0.44471 0.26168 0.19885 0.0
C1533 C 0.44125 0.27974 0.20592 0.0
C1534 C 0.4525 0.29478 0.19952 0.0
C1535 C 0.46709 0.29175 0.1866 0.0
H1536 H 0.52534 0.42015 0.07335 0.0
H1537 H 0.55679 0.38432 0.03594 0.0
H1538 H 0.51702 0.39351 0.0927 0.0
H1539 H 0.54814 0.35759 0.05508 0.0
H1540 H 0.54711 0.31971 0.10666 0.0
H1541 H 0.55504 0.34608 0.08683 0.0
H1542 H 0.49778 0.3642 0.09113 0.0
H1543 H 0.48985 0.33794 0.11108 0.0
C1544 C 0.53047 0.40658 0.06926 0.0
C1545 C 0.54176 0.40437 0.05313 0.0
C1546 C 0.52556 0.39128 0.08024 0.0
C1547 C 0.53193 0.37342 0.07544 0.0
C1548 C 0.54315 0.37119 0.05926 0.0
C1549 C 0.54794 0.38647 0.04819 0.0
C1550 C 0.5362 0.32931 0.10339 0.0
C1551 C 0.51784 0.32671 0.1105 0.0
C1552 C 0.54072 0.34436 0.09192 0.0
C1553 C 0.52704 0.35724 0.08739 0.0
C1554 C 0.50869 0.35464 0.09451 0.0
C1555 C 0.50413 0.33953 0.10588 0.0
H1556 H 0.63364 0.20874 0.23188 0.0
H1557 H 0.64501 0.26783 0.24093 0.0
H1558 H 0.60612 0.21536 0.21307 0.0
H1559 H 0.61698 0.27445 0.22266 0.0
H1560 H 0.5771 0.27877 0.17178 0.0
H1561 H 0.60502 0.27265 0.19041 0.0
H1562 H 0.57483 0.22715 0.21686 0.0
H1563 H 0.54711 0.23301 0.19803 0.0
C1564 C 0.6303 0.22316 0.22983 0.0
C1565 C 0.64161 0.23775 0.23789 0.0
C1566 C 0.61437 0.22695 0.21921 0.0
C1567 C 0.60928 0.24544 0.21637 0.0
C1568 C 0.62058 0.26005 0.22441 0.0
C1569 C 0.63653 0.25625 0.23507 0.0
C1570 C 0.57642 0.26746 0.18157 0.0
C1571 C 0.55986 0.25635 0.18336 0.0
C1572 C 0.5924 0.26402 0.19234 0.0
C1573 C 0.59221 0.24938 0.20512 0.0
C1574 C 0.57559 0.23836 0.20696 0.0
C1575 C 0.55963 0.2418 0.19622 0.0
H1576 H 0.46464 0.14794 0.07036 0.0
H1577 H 0.51862 0.14868 0.04224 0.0
H1578 H 0.4745 0.17548 0.08905 0.0
H1579 H 0.5281 0.17685 0.06021 0.0
H1580 H 0.5467 0.21453 0.11031 0.0
H1581 H 0.53696 0.18708 0.09137 0.0
H1582 H 0.48088 0.20821 0.08704 0.0
H1583 H 0.4905 0.2354 0.10648 0.0
C1584 C 0.47862 0.15396 0.06814 0.0
C1585 C 0.49085 0.14597 0.05482 0.0
C1586 C 0.48419 0.16995 0.07869 0.0
C1587 C 0.50211 0.17846 0.07616 0.0
C1588 C 0.51428 0.17057 0.06273 0.0
C1589 C 0.50874 0.15452 0.05222 0.0
C1590 C 0.5323 0.21334 0.10531 0.0
C1591 C 0.51938 0.22717 0.10996 0.0
C1592 C 0.52672 0.19763 0.09432 0.0
C1593 C 0.50811 0.19537 0.08763 0.0
C1594 C 0.49524 0.20931 0.09218 0.0
C1595 C 0.50079 0.22498 0.10324 0.0
H1596 H 0.32962 0.37928 0.73829 0.0
H1597 H 0.28188 0.41491 0.73607 0.0
H1598 H 0.35028 0.40638 0.74522 0.0
H1599 H 0.30257 0.44209 0.74291 0.0
H1600 H 0.34322 0.48487 0.77195 0.0
H1601 H 0.32228 0.45748 0.76707 0.0
H1602 H 0.363 0.43322 0.72926 0.0
H1603 H 0.38404 0.46033 0.73442 0.0
C1604 C 0.32354 0.39292 0.7392 0.0
C1605 C 0.3041 0.39492 0.7365 0.0
C1606 C 0.33539 0.40848 0.74316 0.0
C1607 C 0.32813 0.42646 0.7445 0.0
C1608 C 0.30862 0.42844 0.7422 0.0
C1609 C 0.29675 0.41285 0.73826 0.0
C1610 C 0.34772 0.47366 0.76263 0.0
C1611 C 0.36533 0.4748 0.7536 0.0
C1612 C 0.33567 0.458 0.75976 0.0
C1613 C 0.34095 0.4431 0.74779 0.0
C1614 C 0.35858 0.44428 0.7388 0.0
C1615 C 0.37062 0.45991 0.74167 0.0
H1616 H 0.28379 0.63256 0.82997 0.0
H1617 H 0.31325 0.6622 0.78619 0.0
H1618 H 0.30328 0.60571 0.82412 0.0
H1619 H 0.33301 0.63542 0.78047 0.0
H1620 H 0.35372 0.57738 0.76384 0.0
H1621 H 0.33322 0.60375 0.76847 0.0
H1622 H 0.33492 0.59647 0.82867 0.0
H1623 H 0.35493 0.56986 0.82399 0.0
C1624 C 0.29452 0.63337 0.81916 0.0
C1625 C 0.29702 0.64955 0.80861 0.0
C1626 C 0.30574 0.61798 0.81582 0.0
C1627 C 0.31986 0.6184 0.80191 0.0
C1628 C 0.32215 0.63449 0.79114 0.0
C1629 C 0.31083 0.64986 0.79442 0.0
C1630 C 0.3497 0.58141 0.77806 0.0
C1631 C 0.35594 0.57146 0.79354 0.0
C1632 C 0.33802 0.5966 0.78073 0.0
C1633 C 0.33233 0.60225 0.79895 0.0
C1634 C 0.33871 0.59234 0.81441 0.0
C1635 C 0.35031 0.57713 0.81174 0.0
H1636 H 0.87819 0.50653 0.50176 0.0
H1637 H 0.91019 0.45767 0.48872 0.0
H1638 H 0.85168 0.48659 0.51166 0.0
H1639 H 0.88351 0.43777 0.49795 0.0
H1640 H 0.83975 0.40815 0.53452 0.0
H1641 H 0.86618 0.42865 0.52583 0.0
H1642 H 0.82789 0.46474 0.49833 0.0
H1643 H 0.80137 0.4444 0.50732 0.0
C1644 C 0.87959 0.49155 0.50105 0.0
C1645 C 0.89633 0.48372 0.49443 0.0
C1646 C 0.86432 0.48011 0.50652 0.0
C1647 C 0.86544 0.46057 0.50559 0.0
C1648 C 0.88221 0.45276 0.49905 0.0
C1649 C 0.89745 0.46418 0.49354 0.0
C1650 C 0.83693 0.42047 0.52666 0.0
C1651 C 0.81842 0.4246 0.5216 0.0
C1652 C 0.85212 0.43218 0.52158 0.0
C1653 C 0.84919 0.44833 0.51132 0.0
C1654 C 0.83065 0.45254 0.50641 0.0
C1655 C 0.81544 0.44081 0.51147 0.0
H1656 H 0.72359 0.88405 0.79246 0.0
H1657 H 0.77027 0.924 0.78954 0.0
H1658 H 0.70156 0.90952 0.79243 0.0
H1659 H 0.74832 0.94932 0.78888 0.0
H1660 H 0.70532 0.99162 0.80693 0.0
H1661 H 0.72619 0.96551 0.80901 0.0
H1662 H 0.68992 0.93277 0.77105 0.0
H1663 H 0.66881 0.95884 0.76919 0.0
C1664 C 0.72916 0.89826 0.79189 0.0
C1665 C 0.74871 0.90197 0.79097 0.0
C1666 C 0.71652 0.91284 0.79167 0.0
C1667 C 0.72315 0.93148 0.79064 0.0
C1668 C 0.74271 0.93516 0.78989 0.0
C1669 C 0.75531 0.92061 0.79005 0.0
C1670 C 0.70171 0.97884 0.79908 0.0
C1671 C 0.68541 0.97738 0.78783 0.0
C1672 C 0.71376 0.96388 0.8002 0.0
C1673 C 0.70981 0.94706 0.79011 0.0
C1674 C 0.6933 0.94546 0.77915 0.0
C1675 C 0.68125 0.96045 0.778 0.0
H1676 H 0.62571 0.58009 1.00655 0.0
H1677 H 0.66107 0.53934 0.97974 0.0
H1678 H 0.65363 0.59904 0.01551 0.0
H1679 H 0.68905 0.55815 0.98903 0.0
H1680 H 0.73198 0.60829 0.99002 0.0
H1681 H 0.70444 0.58862 0.98134 0.0
H1682 H 0.68107 0.59796 0.03683 0.0
H1683 H 0.70848 0.61771 0.0455 0.0
C1684 C 0.63945 0.57519 1.00256 0.0
C1685 C 0.64117 0.55822 0.99241 0.0
C1686 C 0.65546 0.58596 1.00785 0.0
C1687 C 0.67357 0.5801 1.00298 0.0
C1688 C 0.6753 0.56312 0.99285 0.0
C1689 C 0.65928 0.55226 0.98769 0.0
C1690 C 0.72099 0.60612 1.00039 0.0
C1691 C 0.72243 0.61462 0.01845 0.0
C1692 C 0.70526 0.59476 0.99544 0.0
C1693 C 0.69055 0.59175 1.00838 0.0
C1694 C 0.69205 0.60017 0.02646 0.0
C1695 C 0.70783 0.61142 0.03146 0.0
H1696 H 0.25811 0.62446 0.2688 0.0
H1697 H 0.2215 0.65183 0.23042 0.0
H1698 H 0.23569 0.59811 0.26994 0.0
H1699 H 0.19916 0.62527 0.2314 0.0
H1700 H 0.17437 0.56514 0.22293 0.0
H1701 H 0.19634 0.59196 0.2216 0.0
H1702 H 0.2039 0.59074 0.28191 0.0
H1703 H 0.18211 0.56383 0.28326 0.0
C1704 C 0.24521 0.62496 0.26072 0.0
C1705 C 0.24161 0.64036 0.24958 0.0
C1706 C 0.23235 0.60981 0.26137 0.0
C1707 C 0.21559 0.6096 0.25082 0.0
C1708 C 0.21204 0.6249 0.23953 0.0
C1709 C 0.22487 0.64011 0.23895 0.0
C1710 C 0.1807 0.5706 0.23592 0.0
C1711 C 0.17651 0.56228 0.2532 0.0
C1712 C 0.19321 0.58605 0.23516 0.0
C1713 C 0.20192 0.59347 0.25164 0.0
C1714 C 0.19763 0.58521 0.26892 0.0
C1715 C 0.18504 0.56985 0.2697 0.0
H1716 H 0.90995 0.58256 0.05108 0.0
H1717 H 0.87881 0.53178 0.03529 0.0
H1718 H 0.8834 0.60081 0.04157 0.0
H1719 H 0.85223 0.55005 0.02578 0.0
H1720 H 0.81515 0.58966 0.99391 0.0
H1721 H 0.84229 0.57165 1.00231 0.0
H1722 H 0.8517 0.60749 0.05156 0.0
H1723 H 0.82482 0.62572 0.04297 0.0
C1724 C 0.89739 0.57527 0.04569 0.0
C1725 C 0.89652 0.55568 0.04403 0.0
C1726 C 0.88215 0.58574 0.04024 0.0
C1727 C 0.86562 0.57692 0.03297 0.0
C1728 C 0.86482 0.55733 0.03109 0.0
C1729 C 0.88008 0.54685 0.03654 0.0
C1730 C 0.82303 0.59373 1.00651 0.0
C1731 C 0.81779 0.60916 0.01775 0.0
C1732 C 0.83854 0.58333 1.01139 0.0
C1733 C 0.8492 0.58809 0.02762 0.0
C1734 C 0.84398 0.60357 0.03882 0.0
C1735 C 0.82848 0.61397 0.03394 0.0
H1736 H 0.12527 0.96756 0.05766 0.0
H1737 H 0.1568 0.0182 0.04505 0.0
H1738 H 0.1526 0.94932 0.04951 0.0
H1739 H 0.18414 0.99993 0.03685 0.0
H1740 H 0.22268 0.95926 1.00548 0.0
H1741 H 0.19528 0.9776 1.01322 0.0
H1742 H 0.18396 0.94339 0.0613 0.0
H1743 H 0.21117 0.92486 0.0534 0.0
C1744 C 0.13807 0.97483 0.05328 0.0
C1745 C 0.13882 0.99438 0.05208 0.0
C1746 C 0.15376 0.96436 0.04861 0.0
C1747 C 0.17061 0.97315 0.04259 0.0
C1748 C 0.17132 0.99268 0.0412 0.0
C1749 C 0.15562 1.00316 0.04589 0.0
C1750 C 0.21436 0.95564 0.01771 0.0
C1751 C 0.21913 0.94056 0.02879 0.0
C1752 C 0.19869 0.96623 0.0222 0.0
C1753 C 0.18738 0.96197 0.03787 0.0
C1754 C 0.1922 0.94691 0.04898 0.0
C1755 C 0.20789 0.93635 0.04452 0.0
loop_
_geom_bond_atom_site_label_1
_geom_bond_atom_site_label_2
_geom_bond_distance
_geom_bond_site_symmetry_2
_ccdc_geom_bond_type
C0 C1 1.264 . S
C0 C5 1.479 . S
C0 C10 1.465 1_655 S
C1 C0 1.264 . S
C1 C3 1.339 . S
C1 H28 0.931 1_655 S
C2 C3 1.395 . S
C2 C4 1.320 . S
C3 C1 1.339 . S
C3 C2 1.395 . S
C3 H29 0.929 . S
C4 C2 1.320 . S
C4 C5 1.405 . S
C4 H30 0.930 . S
C5 C0 1.479 . S
C5 C4 1.405 . S
C5 H31 0.931 . S
U6 O7 2.454 . S
U6 O8 2.458 . S
U6 C9 2.984 . S
U6 C10 2.847 . S
U6 C23 2.882 . S
U6 O24 2.441 . S
U6 O25 2.420 . S
U6 O26 2.455 . S
U6 O27 2.449 . S
O7 U6 2.454 . S
O7 C9 1.353 . S
O8 U6 2.458 . S
O8 C9 1.286 . S
C9 U6 2.984 . S
C9 O7 1.353 . S
C9 O8 1.286 . S
C9 C11 1.363 . S
C10 C0 1.465 1_455 S
C10 U6 2.847 . S
C10 O24 1.249 . S
C10 O25 1.202 . S
C11 C9 1.363 . S
C11 C13 1.408 . S
C11 C16 1.342 1_554 S
C12 C13 1.310 1_556 S
C12 C15 1.461 . S
C12 H32 0.936 . S
C13 C11 1.408 . S
C13 C12 1.310 1_554 S
C13 H33 0.930 . S
C14 C15 1.474 . S
C14 C16 1.285 . S
C14 H34 0.929 . S
C15 C12 1.461 . S
C15 C14 1.474 . S
C16 C11 1.342 1_556 S
C16 C14 1.285 . S
C16 H35 0.930 . S
C17 C20 1.424 1_545 S
C17 C22 1.245 . S
C17 C23 1.428 . S
C18 C21 1.260 . S
C18 C22 1.477 1_565 S
C18 H36 0.932 . S
C19 C20 1.384 . S
C19 C21 1.479 . S
C19 H37 0.929 . S
C20 C17 1.424 1_565 S
C20 C19 1.384 . S
C20 H38 0.928 . S
C21 C18 1.260 . S
C21 C19 1.479 . S
C22 C17 1.245 . S
C22 C18 1.477 1_545 S
C22 H39 0.932 . S
C23 U6 2.882 . S
C23 C17 1.428 . S
C23 O26 1.301 . S
C23 O27 1.282 . S
O24 U6 2.441 . S
O24 C10 1.249 . S
O25 U6 2.420 . S
O25 C10 1.202 . S
O26 U6 2.455 . S
O26 C23 1.301 . S
O27 U6 2.449 . S
O27 C23 1.282 . S
H28 C1 0.931 1_455 S
H29 C3 0.929 . S
H30 C4 0.930 . S
H31 C5 0.931 . S
H32 C12 0.936 . S
H33 C13 0.930 . S
H34 C14 0.929 . S
H35 C16 0.930 . S
H36 C18 0.932 . S
H37 C19 0.929 . S
H38 C20 0.928 . S
H39 C22 0.932 . S
C40 C41 1.264 . S
C40 C45 1.479 . S
C40 C50 1.465 . S
C41 C40 1.264 . S
C41 C43 1.339 . S
C41 H68 0.931 . S
C42 C43 1.395 . S
C42 C44 1.320 . S
C43 C41 1.339 . S
C43 C42 1.395 . S
C43 H69 0.929 . S
C44 C42 1.320 . S
C44 C45 1.405 . S
C44 H70 0.930 . S
C45 C40 1.479 . S
C45 C44 1.405 . S
C45 H71 0.931 . S
U46 O47 2.454 . S
U46 O48 2.458 . S
U46 C49 2.984 . S
U46 C50 2.847 . S
U46 C63 2.882 . S
U46 O64 2.441 . S
U46 O65 2.420 . S
U46 O66 2.455 . S
U46 O67 2.449 . S
O47 U46 2.454 . S
O47 C49 1.353 . S
O48 U46 2.458 . S
O48 C49 1.286 . S
C49 U46 2.984 . S
C49 O47 1.353 . S
C49 O48 1.286 . S
C49 C51 1.363 . S
C50 C40 1.465 . S
C50 U46 2.847 . S
C50 O64 1.249 . S
C50 O65 1.202 . S
C51 C49 1.363 . S
C51 C53 1.408 . S
C51 C56 1.342 . S
C52 C53 1.310 . S
C52 C55 1.461 . S
C52 H72 0.932 . S
C53 C51 1.408 . S
C53 C52 1.310 . S
C53 H73 0.930 . S
C54 C55 1.474 . S
C54 C56 1.285 . S
C54 H74 0.929 . S
C55 C52 1.461 . S
C55 C54 1.474 . S
C56 C51 1.342 . S
C56 C54 1.285 . S
C56 H75 0.930 . S
C57 C60 1.424 . S
C57 C62 1.245 . S
C57 C63 1.428 . S
C58 C61 1.260 . S
C58 C62 1.477 . S
C58 H76 0.932 . S
C59 C60 1.384 . S
C59 C61 1.479 . S
C59 H77 0.929 . S
C60 C57 1.424 . S
C60 C59 1.384 . S
C60 H78 0.928 . S
C61 C58 1.260 . S
C61 C59 1.479 . S
C62 C57 1.245 . S
C62 C58 1.477 . S
C62 H79 0.932 . S
C63 U46 2.882 . S
C63 C57 1.428 . S
C63 O66 1.301 . S
C63 O67 1.282 . S
O64 U46 2.441 . S
O64 C50 1.249 . S
O65 U46 2.420 . S
O65 C50 1.202 . S
O66 U46 2.455 . S
O66 C63 1.301 . S
O67 U46 2.449 . S
O67 C63 1.282 . S
H68 C41 0.931 . S
H69 C43 0.929 . S
H70 C44 0.930 . S
H71 C45 0.931 . S
H72 C52 0.932 . S
H73 C53 0.930 . S
H74 C54 0.929 . S
H75 C56 0.930 . S
H76 C58 0.932 . S
H77 C59 0.929 . S
H78 C60 0.928 . S
H79 C62 0.932 . S
C80 C81 1.264 . S
C80 C85 1.479 . S
C80 C90 1.465 1_556 S
C81 C80 1.264 . S
C81 C83 1.339 . S
C81 H108 0.931 1_656 S
C82 C83 1.395 . S
C82 C84 1.320 . S
C83 C81 1.339 . S
C83 C82 1.395 . S
C83 H109 0.929 1_655 S
C84 C82 1.320 . S
C84 C85 1.405 . S
C84 H110 0.930 . S
C85 C80 1.479 . S
C85 C84 1.405 . S
C85 H111 0.931 . S
U86 O87 2.454 . S
U86 O88 2.458 . S
U86 C89 2.984 . S
U86 C90 2.847 . S
U86 C103 2.882 . S
U86 O104 2.441 . S
U86 O105 2.420 . S
U86 O106 2.455 . S
U86 O107 2.462 . S
O87 U86 2.454 . S
O87 C89 1.353 . S
O88 U86 2.458 . S
O88 C89 1.286 . S
C89 U86 2.984 . S
C89 O87 1.353 . S
C89 O88 1.286 . S
C89 C91 1.363 . S
C90 C80 1.465 1_554 S
C90 U86 2.847 . S
C90 O104 1.249 . S
C90 O105 1.202 . S
C91 C89 1.363 . S
C91 C93 1.408 . S
C91 C96 1.342 . S
C92 C93 1.310 . S
C92 C95 1.461 . S
C92 H112 0.935 1_554 S
C93 C91 1.408 . S
C93 C92 1.310 . S
C93 H113 0.930 . S
C94 C95 1.474 . S
C94 C96 1.285 . S
C94 H114 0.929 . S
C95 C92 1.461 . S
C95 C94 1.474 . S
C96 C91 1.342 . S
C96 C94 1.285 . S
C96 H115 0.930 . S
C97 C100 1.424 . S
C97 C102 1.245 . S
C97 C103 1.428 1_455 S
C98 C101 1.260 . S
C98 C102 1.477 . S
C98 H116 0.932 . S
C99 C100 1.384 . S
C99 C101 1.479 . S
C99 H117 0.929 . S
C100 C97 1.424 . S
C100 C99 1.384 . S
C100 H118 0.928 . S
C101 C98 1.260 . S
C101 C99 1.479 . S
C102 C97 1.245 . S
C102 C98 1.477 . S
C102 H119 0.932 1_455 S
C103 U86 2.882 . S
C103 C97 1.428 1_655 S
C103 O106 1.301 . S
C103 O107 1.285 . S
O104 U86 2.441 . S
O104 C90 1.249 . S
O105 U86 2.420 . S
O105 C90 1.202 . S
O106 U86 2.455 . S
O106 C103 1.301 . S
O107 U86 2.462 . S
O107 C103 1.285 . S
H108 C81 0.931 1_454 S
H109 C83 0.929 1_455 S
H110 C84 0.930 . S
H111 C85 0.931 . S
H112 C92 0.935 1_556 S
H113 C93 0.930 . S
H114 C94 0.929 . S
H115 C96 0.930 . S
H116 C98 0.932 . S
H117 C99 0.929 . S
H118 C100 0.928 . S
H119 C102 0.932 1_655 S
C120 C121 1.264 . S
C120 C125 1.479 . S
C120 C130 1.465 . S
C121 C120 1.264 . S
C121 C123 1.339 . S
C121 H148 0.931 . S
C122 C123 1.395 . S
C122 C124 1.320 . S
C123 C121 1.339 . S
C123 C122 1.395 . S
C123 H149 0.929 . S
C124 C122 1.320 . S
C124 C125 1.405 . S
C124 H150 0.930 . S
C125 C120 1.479 . S
C125 C124 1.405 . S
C125 H151 0.931 . S
U126 O127 2.454 . S
U126 O128 2.458 . S
U126 C129 2.984 . S
U126 C130 2.847 . S
U126 C143 2.882 . S
U126 O144 2.441 . S
U126 O145 2.420 . S
U126 O146 2.455 . S
U126 O147 2.449 . S
O127 U126 2.454 . S
O127 C129 1.353 . S
O128 U126 2.458 . S
O128 C129 1.286 . S
C129 U126 2.984 . S
C129 O127 1.353 . S
C129 O128 1.286 . S
C129 C131 1.363 . S
C130 C120 1.465 . S
C130 U126 2.847 . S
C130 O144 1.249 . S
C130 O145 1.202 . S
C131 C129 1.363 . S
C131 C133 1.408 . S
C131 C136 1.342 . S
C132 C133 1.310 . S
C132 C135 1.461 . S
C132 H152 0.932 . S
C133 C131 1.408 . S
C133 C132 1.310 . S
C133 H153 0.930 . S
C134 C135 1.474 . S
C134 C136 1.285 . S
C134 H154 0.929 . S
C135 C132 1.461 . S
C135 C134 1.474 . S
C136 C131 1.342 . S
C136 C134 1.285 . S
C136 H155 0.930 . S
C137 C140 1.424 . S
C137 C142 1.245 . S
C137 C143 1.428 . S
C138 C141 1.260 . S
C138 C142 1.477 . S
C138 H156 0.932 . S
C139 C140 1.384 . S
C139 C141 1.479 . S
C139 H157 0.929 . S
C140 C137 1.424 . S
C140 C139 1.384 . S
C140 H158 0.928 . S
C141 C138 1.260 . S
C141 C139 1.479 . S
C142 C137 1.245 . S
C142 C138 1.477 . S
C142 H159 0.932 . S
C143 U126 2.882 . S
C143 C137 1.428 . S
C143 O146 1.301 . S
C143 O147 1.282 . S
O144 U126 2.441 . S
O144 C130 1.249 . S
O145 U126 2.420 . S
O145 C130 1.202 . S
O146 U126 2.455 . S
O146 C143 1.301 . S
O147 U126 2.449 . S
O147 C143 1.282 . S
H148 C121 0.931 . S
H149 C123 0.929 . S
H150 C124 0.930 . S
H151 C125 0.931 . S
H152 C132 0.932 . S
H153 C133 0.930 . S
H154 C134 0.929 . S
H155 C136 0.930 . S
H156 C138 0.932 . S
H157 C139 0.929 . S
H158 C140 0.928 . S
H159 C142 0.932 . S
C160 C161 1.261 1_665 S
C160 C165 1.479 . S
C160 C170 1.465 1_655 S
C161 C160 1.261 1_445 S
C161 C163 1.307 1_455 S
C161 H188 0.970 . S
C162 C163 1.395 1_565 S
C162 C164 1.320 . S
C163 C161 1.307 1_655 S
C163 C162 1.395 1_545 S
C163 H189 0.929 . S
C164 C162 1.320 . S
C164 C165 1.405 . S
C164 H190 0.930 . S
C165 C160 1.479 . S
C165 C164 1.405 . S
C165 H191 0.931 . S
U166 O167 2.454 . S
U166 O168 2.458 . S
U166 C169 2.984 . S
U166 C170 2.847 . S
U166 C183 2.882 1_565 S
U166 O184 2.441 . S
U166 O185 2.420 . S
U166 O186 2.455 . S
U166 O187 2.449 1_565 S
O167 U166 2.454 . S
O167 C169 1.353 . S
O168 U166 2.458 . S
O168 C169 1.286 . S
C169 U166 2.984 . S
C169 O167 1.353 . S
C169 O168 1.286 . S
C169 C171 1.363 . S
C170 C160 1.465 1_455 S
C170 U166 2.847 . S
C170 O184 1.249 . S
C170 O185 1.202 . S
C171 C169 1.363 . S
C171 C173 1.408 . S
C171 C176 1.342 . S
C172 C173 1.310 . S
C172 C175 1.461 . S
C172 H192 0.932 . S
C173 C171 1.408 . S
C173 C172 1.310 . S
C173 H193 0.930 . S
C174 C175 1.474 . S
C174 C176 1.285 . S
C174 H194 0.929 . S
C175 C172 1.461 . S
C175 C174 1.474 . S
C176 C171 1.342 . S
C176 C174 1.285 . S
C176 H195 0.930 . S
C177 C180 1.424 . S
C177 C182 1.245 . S
C177 C183 1.428 . S
C178 C181 1.260 . S
C178 C182 1.477 . S
C178 H196 0.932 . S
C179 C180 1.384 . S
C179 C181 1.479 . S
C179 H197 0.929 . S
C180 C177 1.424 . S
C180 C179 1.384 . S
C180 H198 0.928 . S
C181 C178 1.260 . S
C181 C179 1.479 . S
C182 C177 1.245 . S
C182 C178 1.477 . S
C182 H199 0.904 1_545 S
C183 U166 2.882 1_545 S
C183 C177 1.428 . S
C183 O186 1.301 1_545 S
C183 O187 1.282 . S
O184 U166 2.441 . S
O184 C170 1.249 . S
O185 U166 2.420 . S
O185 C170 1.202 . S
O186 U166 2.455 . S
O186 C183 1.301 1_565 S
O187 U166 2.449 1_545 S
O187 C183 1.282 . S
H188 C161 0.970 . S
H189 C163 0.929 . S
H190 C164 0.930 . S
H191 C165 0.931 . S
H192 C172 0.932 . S
H193 C173 0.930 . S
H194 C174 0.929 . S
H195 C176 0.930 . S
H196 C178 0.932 . S
H197 C179 0.929 . S
H198 C180 0.928 . S
H199 C182 0.904 1_565 S
C200 C201 1.264 . S
C200 C205 1.479 . S
C200 C210 1.465 . S
C201 C200 1.264 . S
C201 C203 1.339 . S
C201 H228 0.931 . S
C202 C203 1.395 . S
C202 C204 1.320 . S
C203 C201 1.339 . S
C203 C202 1.395 . S
C203 H229 0.929 . S
C204 C202 1.320 . S
C204 C205 1.405 . S
C204 H230 0.930 . S
C205 C200 1.479 . S
C205 C204 1.405 . S
C205 H231 0.931 . S
U206 O207 2.454 . S
U206 O208 2.458 . S
U206 C209 2.984 . S
U206 C210 2.847 . S
U206 C223 2.882 . S
U206 O224 2.441 . S
U206 O225 2.420 . S
U206 O226 2.455 . S
U206 O227 2.449 . S
O207 U206 2.454 . S
O207 C209 1.353 . S
O208 U206 2.458 . S
O208 C209 1.286 . S
C209 U206 2.984 . S
C209 O207 1.353 . S
C209 O208 1.286 . S
C209 C211 1.363 . S
C210 C200 1.465 . S
C210 U206 2.847 . S
C210 O224 1.249 . S
C210 O225 1.202 . S
C211 C209 1.363 . S
C211 C213 1.408 . S
C211 C216 1.342 . S
C212 C213 1.310 . S
C212 C215 1.461 . S
C212 H232 0.932 . S
C213 C211 1.408 . S
C213 C212 1.310 . S
C213 H233 0.930 . S
C214 C215 1.474 . S
C214 C216 1.285 . S
C214 H234 0.929 . S
C215 C212 1.461 . S
C215 C214 1.474 . S
C216 C211 1.342 . S
C216 C214 1.285 . S
C216 H235 0.930 . S
C217 C220 1.424 . S
C217 C222 1.245 . S
C217 C223 1.428 . S
C218 C221 1.260 . S
C218 C222 1.477 . S
C218 H236 0.932 . S
C219 C220 1.384 . S
C219 C221 1.479 . S
C219 H237 0.929 . S
C220 C217 1.424 . S
C220 C219 1.384 . S
C220 H238 0.928 . S
C221 C218 1.260 . S
C221 C219 1.479 . S
C222 C217 1.245 . S
C222 C218 1.477 . S
C222 H239 0.932 . S
C223 U206 2.882 . S
C223 C217 1.428 . S
C223 O226 1.301 . S
C223 O227 1.282 . S
O224 U206 2.441 . S
O224 C210 1.249 . S
O225 U206 2.420 . S
O225 C210 1.202 . S
O226 U206 2.455 . S
O226 C223 1.301 . S
O227 U206 2.449 . S
O227 C223 1.282 . S
H228 C201 0.931 . S
H229 C203 0.929 . S
H230 C204 0.930 . S
H231 C205 0.931 . S
H232 C212 0.932 . S
H233 C213 0.930 . S
H234 C214 0.929 . S
H235 C216 0.930 . S
H236 C218 0.932 . S
H237 C219 0.929 . S
H238 C220 0.928 . S
H239 C222 0.932 . S
C240 C241 1.264 . S
C240 C245 1.479 . S
C240 C250 1.465 . S
C241 C240 1.264 . S
C241 C243 1.339 . S
C241 H268 0.931 1_655 S
C242 C243 1.395 . S
C242 C244 1.320 . S
C243 C241 1.339 . S
C243 C242 1.395 . S
C243 H269 0.929 1_655 S
C244 C242 1.320 . S
C244 C245 1.405 . S
C244 H270 0.930 . S
C245 C240 1.479 . S
C245 C244 1.405 . S
C245 H271 0.931 . S
U246 O247 2.454 . S
U246 O248 2.458 . S
U246 C249 2.984 . S
U246 C250 2.847 . S
U246 C263 2.882 . S
U246 O264 2.441 . S
U246 O265 2.420 . S
U246 O266 2.455 . S
U246 O267 2.449 . S
O247 U246 2.454 . S
O247 C249 1.353 . S
O248 U246 2.458 . S
O248 C249 1.286 . S
C249 U246 2.984 . S
C249 O247 1.353 . S
C249 O248 1.286 . S
C249 C251 1.363 . S
C250 C240 1.465 . S
C250 U246 2.847 . S
C250 O264 1.249 . S
C250 O265 1.202 . S
C251 C249 1.363 . S
C251 C253 1.408 . S
C251 C256 1.342 . S
C252 C253 1.310 . S
C252 C255 1.461 . S
C252 H272 0.932 . S
C253 C251 1.408 . S
C253 C252 1.310 . S
C253 H273 0.930 . S
C254 C255 1.474 . S
C254 C256 1.285 . S
C254 H274 0.929 . S
C255 C252 1.461 . S
C255 C254 1.474 . S
C256 C251 1.342 . S
C256 C254 1.285 . S
C256 H275 0.930 . S
C257 C260 1.424 . S
C257 C262 1.255 . S
C257 C263 1.428 1_455 S
C258 C261 1.260 . S
C258 C262 1.506 . S
C258 H276 0.932 . S
C259 C260 1.384 . S
C259 C261 1.479 . S
C259 H277 0.929 . S
C260 C257 1.424 . S
C260 C259 1.384 . S
C260 H278 0.928 . S
C261 C258 1.260 . S
C261 C259 1.479 . S
C262 C257 1.255 . S
C262 C258 1.506 . S
C262 H279 0.897 1_455 S
C263 U246 2.882 . S
C263 C257 1.428 1_655 S
C263 O266 1.301 . S
C263 O267 1.282 . S
O264 U246 2.441 . S
O264 C250 1.249 . S
O265 U246 2.420 . S
O265 C250 1.202 . S
O266 U246 2.455 . S
O266 C263 1.301 . S
O267 U246 2.449 . S
O267 C263 1.282 . S
H268 C241 0.931 1_455 S
H269 C243 0.929 1_455 S
H270 C244 0.930 . S
H271 C245 0.931 . S
H272 C252 0.932 . S
H273 C253 0.930 . S
H274 C254 0.929 . S
H275 C256 0.930 . S
H276 C258 0.932 . S
H277 C259 0.929 . S
H278 C260 0.928 . S
H279 C262 0.897 1_655 S
C280 C281 1.264 . S
C280 C285 1.479 . S
C280 C290 1.465 . S
C281 C280 1.264 . S
C281 C283 1.339 . S
C281 H308 0.931 . S
C282 C283 1.395 . S
C282 C284 1.320 . S
C283 C281 1.339 . S
C283 C282 1.395 . S
C283 H309 0.929 . S
C284 C282 1.320 . S
C284 C285 1.405 . S
C284 H310 0.930 . S
C285 C280 1.479 . S
C285 C284 1.405 . S
C285 H311 0.931 . S
U286 O287 2.454 . S
U286 O288 2.458 . S
U286 C289 2.984 . S
U286 C290 2.847 . S
U286 C303 2.882 . S
U286 O304 2.441 . S
U286 O305 2.420 . S
U286 O306 2.455 . S
U286 O307 2.449 . S
O287 U286 2.454 . S
O287 C289 1.353 . S
O288 U286 2.458 . S
O288 C289 1.286 . S
C289 U286 2.984 . S
C289 O287 1.353 . S
C289 O288 1.286 . S
C289 C291 1.363 . S
C290 C280 1.465 . S
C290 U286 2.847 . S
C290 O304 1.249 . S
C290 O305 1.202 . S
C291 C289 1.363 . S
C291 C293 1.408 . S
C291 C296 1.342 . S
C292 C293 1.310 . S
C292 C295 1.461 . S
C292 H312 0.932 . S
C293 C291 1.408 . S
C293 C292 1.310 . S
C293 H313 0.930 . S
C294 C295 1.474 . S
C294 C296 1.285 . S
C294 H314 0.929 . S
C295 C292 1.461 . S
C295 C294 1.474 . S
C296 C291 1.342 . S
C296 C294 1.285 . S
C296 H315 0.930 . S
C297 C300 1.424 . S
C297 C302 1.245 . S
C297 C303 1.428 . S
C298 C301 1.260 . S
C298 C302 1.477 . S
C298 H316 0.932 . S
C299 C300 1.384 . S
C299 C301 1.479 . S
C299 H317 0.929 . S
C300 C297 1.424 . S
C300 C299 1.384 . S
C300 H318 0.928 . S
C301 C298 1.260 . S
C301 C299 1.479 . S
C302 C297 1.245 . S
C302 C298 1.477 . S
C302 H319 0.932 . S
C303 U286 2.882 . S
C303 C297 1.428 . S
C303 O306 1.301 . S
C303 O307 1.282 . S
O304 U286 2.441 . S
O304 C290 1.249 . S
O305 U286 2.420 . S
O305 C290 1.202 . S
O306 U286 2.455 . S
O306 C303 1.301 . S
O307 U286 2.449 . S
O307 C303 1.282 . S
H308 C281 0.931 . S
H309 C283 0.929 . S
H310 C284 0.930 . S
H311 C285 0.931 . S
H312 C292 0.932 . S
H313 C293 0.930 . S
H314 C294 0.929 . S
H315 C296 0.930 . S
H316 C298 0.932 . S
H317 C299 0.929 . S
H318 C300 0.928 . S
H319 C302 0.932 . S
C320 C321 1.264 . S
C320 C325 1.479 . S
C320 C330 1.465 . S
C321 C320 1.264 . S
C321 C323 1.339 . S
C321 H348 0.931 . S
C322 C323 1.395 . S
C322 C324 1.320 . S
C323 C321 1.339 . S
C323 C322 1.395 . S
C323 H349 0.929 . S
C324 C322 1.320 . S
C324 C325 1.405 . S
C324 H350 0.930 . S
C325 C320 1.479 . S
C325 C324 1.405 . S
C325 H351 0.931 . S
U326 O327 2.454 . S
U326 O328 2.458 . S
U326 C329 2.984 . S
U326 C330 2.847 . S
U326 C343 2.882 . S
U326 O344 2.441 . S
U326 O345 2.420 . S
U326 O346 2.455 . S
U326 O347 2.449 . S
O327 U326 2.454 . S
O327 C329 1.353 . S
O328 U326 2.458 . S
O328 C329 1.286 . S
C329 U326 2.984 . S
C329 O327 1.353 . S
C329 O328 1.286 . S
C329 C331 1.363 . S
C330 C320 1.465 . S
C330 U326 2.847 . S
C330 O344 1.249 . S
C330 O345 1.202 . S
C331 C329 1.363 . S
C331 C333 1.408 . S
C331 C336 1.342 . S
C332 C333 1.310 . S
C332 C335 1.461 . S
C332 H352 0.932 . S
C333 C331 1.408 . S
C333 C332 1.310 . S
C333 H353 0.930 . S
C334 C335 1.474 . S
C334 C336 1.285 . S
C334 H354 0.929 . S
C335 C332 1.461 . S
C335 C334 1.474 . S
C336 C331 1.342 . S
C336 C334 1.285 . S
C336 H355 0.930 . S
C337 C340 1.424 . S
C337 C342 1.245 . S
C337 C343 1.428 . S
C338 C341 1.260 . S
C338 C342 1.477 . S
C338 H356 0.932 . S
C339 C340 1.384 . S
C339 C341 1.479 . S
C339 H357 0.929 . S
C340 C337 1.424 . S
C340 C339 1.384 . S
C340 H358 0.928 . S
C341 C338 1.260 . S
C341 C339 1.479 . S
C342 C337 1.245 . S
C342 C338 1.477 . S
C342 H359 0.932 . S
C343 U326 2.882 . S
C343 C337 1.428 . S
C343 O346 1.301 . S
C343 O347 1.282 . S
O344 U326 2.441 . S
O344 C330 1.249 . S
O345 U326 2.420 . S
O345 C330 1.202 . S
O346 U326 2.455 . S
O346 C343 1.301 . S
O347 U326 2.449 . S
O347 C343 1.282 . S
H348 C321 0.931 . S
H349 C323 0.929 . S
H350 C324 0.930 . S
H351 C325 0.931 . S
H352 C332 0.932 . S
H353 C333 0.930 . S
H354 C334 0.929 . S
H355 C336 0.930 . S
H356 C338 0.932 . S
H357 C339 0.929 . S
H358 C340 0.928 . S
H359 C342 0.932 . S
C360 C361 1.264 . S
C360 C365 1.479 . S
C360 C370 1.465 . S
C361 C360 1.264 . S
C361 C363 1.339 . S
C361 H388 0.931 . S
C362 C363 1.395 . S
C362 C364 1.320 . S
C363 C361 1.339 . S
C363 C362 1.395 . S
C363 H389 0.929 . S
C364 C362 1.320 . S
C364 C365 1.405 . S
C364 H390 0.930 . S
C365 C360 1.479 . S
C365 C364 1.405 . S
C365 H391 0.931 . S
U366 O367 2.454 . S
U366 O368 2.458 . S
U366 C369 2.984 . S
U366 C370 2.847 . S
U366 C383 2.882 . S
U366 O384 2.441 . S
U366 O385 2.420 . S
U366 O386 2.455 . S
U366 O387 2.449 . S
O367 U366 2.454 . S
O367 C369 1.353 . S
O368 U366 2.458 . S
O368 C369 1.286 . S
C369 U366 2.984 . S
C369 O367 1.353 . S
C369 O368 1.286 . S
C369 C371 1.363 1_565 S
C370 C360 1.465 . S
C370 U366 2.847 . S
C370 O384 1.249 . S
C370 O385 1.202 . S
C371 C369 1.363 1_545 S
C371 C373 1.408 . S
C371 C376 1.342 . S
C372 C373 1.310 . S
C372 C375 1.461 . S
C372 H392 0.932 . S
C373 C371 1.408 . S
C373 C372 1.310 . S
C373 H393 0.930 1_545 S
C374 C375 1.474 . S
C374 C376 1.285 . S
C374 H394 0.929 . S
C375 C372 1.461 . S
C375 C374 1.474 . S
C376 C371 1.342 . S
C376 C374 1.285 . S
C376 H395 0.930 . S
C377 C380 1.424 . S
C377 C382 1.245 . S
C377 C383 1.428 . S
C378 C381 1.260 . S
C378 C382 1.477 . S
C378 H396 0.932 1_565 S
C379 C380 1.384 . S
C379 C381 1.479 . S
C379 H397 0.929 . S
C380 C377 1.424 . S
C380 C379 1.384 . S
C380 H398 0.928 . S
C381 C378 1.260 . S
C381 C379 1.479 . S
C382 C377 1.245 . S
C382 C378 1.477 . S
C382 H399 0.932 1_565 S
C383 U366 2.882 . S
C383 C377 1.428 . S
C383 O386 1.301 . S
C383 O387 1.282 . S
O384 U366 2.441 . S
O384 C370 1.249 . S
O385 U366 2.420 . S
O385 C370 1.202 . S
O386 U366 2.455 . S
O386 C383 1.301 . S
O387 U366 2.449 . S
O387 C383 1.282 . S
H388 C361 0.931 . S
H389 C363 0.929 . S
H390 C364 0.930 . S
H391 C365 0.931 . S
H392 C372 0.932 . S
H393 C373 0.930 1_565 S
H394 C374 0.929 . S
H395 C376 0.930 . S
H396 C378 0.932 1_545 S
H397 C379 0.929 . S
H398 C380 0.928 . S
H399 C382 0.932 1_545 S
C400 C401 1.264 . S
C400 C405 1.479 . S
C400 C410 1.465 . S
C401 C400 1.264 . S
C401 C403 1.339 . S
C401 H428 0.931 . S
C402 C403 1.395 . S
C402 C404 1.320 . S
C403 C401 1.339 . S
C403 C402 1.395 . S
C403 H429 0.929 . S
C404 C402 1.320 . S
C404 C405 1.405 . S
C404 H430 0.930 . S
C405 C400 1.479 . S
C405 C404 1.405 . S
C405 H431 0.931 . S
U406 O407 2.454 . S
U406 O408 2.458 . S
U406 C409 2.984 . S
U406 C410 2.847 . S
U406 C423 2.882 . S
U406 O424 2.441 . S
U406 O425 2.420 . S
U406 O426 2.455 . S
U406 O427 2.449 . S
O407 U406 2.454 . S
O407 C409 1.353 . S
O408 U406 2.458 . S
O408 C409 1.286 . S
C409 U406 2.984 . S
C409 O407 1.353 . S
C409 O408 1.286 . S
C409 C411 1.363 . S
C410 C400 1.465 . S
C410 U406 2.847 . S
C410 O424 1.249 . S
C410 O425 1.202 . S
C411 C409 1.363 . S
C411 C413 1.408 . S
C411 C416 1.342 . S
C412 C413 1.310 . S
C412 C415 1.461 . S
C412 H432 0.932 . S
C413 C411 1.408 . S
C413 C412 1.310 . S
C413 H433 0.930 . S
C414 C415 1.474 . S
C414 C416 1.285 . S
C414 H434 0.929 . S
C415 C412 1.461 . S
C415 C414 1.474 . S
C416 C411 1.342 . S
C416 C414 1.285 . S
C416 H435 0.930 . S
C417 C420 1.424 . S
C417 C422 1.245 . S
C417 C423 1.428 . S
C418 C421 1.260 . S
C418 C422 1.477 . S
C418 H436 0.932 . S
C419 C420 1.384 . S
C419 C421 1.479 . S
C419 H437 0.929 . S
C420 C417 1.424 . S
C420 C419 1.384 . S
C420 H438 0.928 . S
C421 C418 1.260 . S
C421 C419 1.479 . S
C422 C417 1.245 . S
C422 C418 1.477 . S
C422 H439 0.932 . S
C423 U406 2.882 . S
C423 C417 1.428 . S
C423 O426 1.301 . S
C423 O427 1.282 . S
O424 U406 2.441 . S
O424 C410 1.249 . S
O425 U406 2.420 . S
O425 C410 1.202 . S
O426 U406 2.455 . S
O426 C423 1.301 . S
O427 U406 2.449 . S
O427 C423 1.282 . S
H428 C401 0.931 . S
H429 C403 0.929 . S
H430 C404 0.930 . S
H431 C405 0.931 . S
H432 C412 0.932 . S
H433 C413 0.930 . S
H434 C414 0.929 . S
H435 C416 0.930 . S
H436 C418 0.932 . S
H437 C419 0.929 . S
H438 C420 0.928 . S
H439 C422 0.932 . S
C440 C441 1.264 . S
C440 C445 1.479 . S
C440 C450 1.465 . S
C441 C440 1.264 . S
C441 C443 1.339 . S
C441 H468 0.931 . S
C442 C443 1.395 . S
C442 C444 1.320 . S
C443 C441 1.339 . S
C443 C442 1.395 . S
C443 H469 0.929 . S
C444 C442 1.320 . S
C444 C445 1.405 . S
C444 H470 0.930 . S
C445 C440 1.479 . S
C445 C444 1.405 . S
C445 H471 0.931 . S
U446 O447 2.454 . S
U446 O448 2.458 . S
U446 C449 2.984 . S
U446 C450 2.847 . S
U446 C463 2.882 . S
U446 O464 2.441 . S
U446 O465 2.420 . S
U446 O466 2.455 . S
U446 O467 2.449 . S
O447 U446 2.454 . S
O447 C449 1.353 . S
O448 U446 2.458 . S
O448 C449 1.286 . S
C449 U446 2.984 . S
C449 O447 1.353 . S
C449 O448 1.286 . S
C449 C451 1.363 . S
C450 C440 1.465 . S
C450 U446 2.847 . S
C450 O464 1.249 . S
C450 O465 1.202 . S
C451 C449 1.363 . S
C451 C453 1.408 . S
C451 C456 1.342 . S
C452 C453 1.310 . S
C452 C455 1.461 . S
C452 H472 0.932 . S
C453 C451 1.408 . S
C453 C452 1.310 . S
C453 H473 0.930 . S
C454 C455 1.474 . S
C454 C456 1.285 . S
C454 H474 0.929 . S
C455 C452 1.461 . S
C455 C454 1.474 . S
C456 C451 1.342 . S
C456 C454 1.285 . S
C456 H475 0.930 . S
C457 C460 1.424 . S
C457 C462 1.245 . S
C457 C463 1.428 . S
C458 C461 1.260 . S
C458 C462 1.477 . S
C458 H476 0.932 . S
C459 C460 1.384 . S
C459 C461 1.479 . S
C459 H477 0.929 . S
C460 C457 1.424 . S
C460 C459 1.384 . S
C460 H478 0.928 . S
C461 C458 1.260 . S
C461 C459 1.479 . S
C462 C457 1.245 . S
C462 C458 1.477 . S
C462 H479 0.932 . S
C463 U446 2.882 . S
C463 C457 1.428 . S
C463 O466 1.301 . S
C463 O467 1.282 . S
O464 U446 2.441 . S
O464 C450 1.249 . S
O465 U446 2.420 . S
O465 C450 1.202 . S
O466 U446 2.455 . S
O466 C463 1.301 . S
O467 U446 2.449 . S
O467 C463 1.282 . S
H468 C441 0.931 . S
H469 C443 0.929 . S
H470 C444 0.930 . S
H471 C445 0.931 . S
H472 C452 0.932 . S
H473 C453 0.930 . S
H474 C454 0.929 . S
H475 C456 0.930 . S
H476 C458 0.932 . S
H477 C459 0.929 . S
H478 C460 0.928 . S
H479 C462 0.932 . S
C480 C481 1.264 . S
C480 C485 1.479 . S
C480 C490 1.465 . S
C481 C480 1.264 . S
C481 C483 1.339 . S
C481 H508 0.931 . S
C482 C483 1.395 . S
C482 C484 1.320 . S
C483 C481 1.339 . S
C483 C482 1.395 . S
C483 H509 0.929 . S
C484 C482 1.320 . S
C484 C485 1.405 . S
C484 H510 0.930 . S
C485 C480 1.479 . S
C485 C484 1.405 . S
C485 H511 0.931 . S
U486 O487 2.454 . S
U486 O488 2.458 . S
U486 C489 2.984 . S
U486 C490 2.847 . S
U486 C503 2.882 . S
U486 O504 2.441 . S
U486 O505 2.420 . S
U486 O506 2.455 . S
U486 O507 2.449 . S
O487 U486 2.454 . S
O487 C489 1.353 . S
O488 U486 2.458 . S
O488 C489 1.286 . S
C489 U486 2.984 . S
C489 O487 1.353 . S
C489 O488 1.286 . S
C489 C491 1.363 . S
C490 C480 1.465 . S
C490 U486 2.847 . S
C490 O504 1.249 . S
C490 O505 1.202 . S
C491 C489 1.363 . S
C491 C493 1.408 . S
C491 C496 1.342 . S
C492 C493 1.310 . S
C492 C495 1.461 . S
C492 H512 0.932 . S
C493 C491 1.408 . S
C493 C492 1.310 . S
C493 H513 0.930 . S
C494 C495 1.474 . S
C494 C496 1.285 . S
C494 H514 0.929 . S
C495 C492 1.461 . S
C495 C494 1.474 . S
C496 C491 1.342 . S
C496 C494 1.285 . S
C496 H515 0.930 . S
C497 C500 1.424 . S
C497 C502 1.245 . S
C497 C503 1.428 . S
C498 C501 1.260 . S
C498 C502 1.477 . S
C498 H516 0.932 . S
C499 C500 1.384 . S
C499 C501 1.479 . S
C499 H517 0.929 . S
C500 C497 1.424 . S
C500 C499 1.384 . S
C500 H518 0.928 . S
C501 C498 1.260 . S
C501 C499 1.479 . S
C502 C497 1.245 . S
C502 C498 1.477 . S
C502 H519 0.932 . S
C503 U486 2.882 . S
C503 C497 1.428 . S
C503 O506 1.301 . S
C503 O507 1.282 . S
O504 U486 2.441 . S
O504 C490 1.249 . S
O505 U486 2.420 . S
O505 C490 1.202 . S
O506 U486 2.455 . S
O506 C503 1.301 . S
O507 U486 2.449 . S
O507 C503 1.282 . S
H508 C481 0.931 . S
H509 C483 0.929 . S
H510 C484 0.930 . S
H511 C485 0.931 . S
H512 C492 0.932 . S
H513 C493 0.930 . S
H514 C494 0.929 . S
H515 C496 0.930 . S
H516 C498 0.932 . S
H517 C499 0.929 . S
H518 C500 0.928 . S
H519 C502 0.932 . S
C520 C521 1.264 . S
C520 C525 1.479 . S
C520 C530 1.465 . S
C521 C520 1.264 . S
C521 C523 1.339 . S
C521 H548 0.931 . S
C522 C523 1.395 . S
C522 C524 1.320 . S
C523 C521 1.339 . S
C523 C522 1.395 . S
C523 H549 0.929 . S
C524 C522 1.320 . S
C524 C525 1.405 . S
C524 H550 0.930 . S
C525 C520 1.479 . S
C525 C524 1.405 . S
C525 H551 0.931 . S
U526 O527 2.454 . S
U526 O528 2.458 . S
U526 C529 2.984 . S
U526 C530 2.847 . S
U526 C543 2.882 . S
U526 O544 2.441 . S
U526 O545 2.420 . S
U526 O546 2.455 . S
U526 O547 2.449 . S
O527 U526 2.454 . S
O527 C529 1.353 . S
O528 U526 2.458 . S
O528 C529 1.286 . S
C529 U526 2.984 . S
C529 O527 1.353 . S
C529 O528 1.286 . S
C529 C531 1.352 1_556 S
C530 C520 1.465 . S
C530 U526 2.847 . S
C530 O544 1.249 . S
C530 O545 1.202 . S
C531 C529 1.352 1_554 S
C531 C533 1.405 1_554 S
C531 C536 1.354 . S
C532 C533 1.310 1_554 S
C532 C535 1.461 . S
C532 H552 0.932 . S
C533 C531 1.405 1_556 S
C533 C532 1.310 1_556 S
C533 H553 0.930 . S
C534 C535 1.474 . S
C534 C536 1.285 . S
C534 H554 0.929 . S
C535 C532 1.461 . S
C535 C534 1.474 . S
C536 C531 1.354 . S
C536 C534 1.285 . S
C536 H555 0.930 . S
C537 C540 1.424 . S
C537 C542 1.245 . S
C537 C543 1.428 . S
C538 C541 1.260 . S
C538 C542 1.477 . S
C538 H556 0.932 . S
C539 C540 1.384 . S
C539 C541 1.479 . S
C539 H557 0.929 . S
C540 C537 1.424 . S
C540 C539 1.384 . S
C540 H558 0.928 . S
C541 C538 1.260 . S
C541 C539 1.479 . S
C542 C537 1.245 . S
C542 C538 1.477 . S
C542 H559 0.932 . S
C543 U526 2.882 . S
C543 C537 1.428 . S
C543 O546 1.301 . S
C543 O547 1.282 . S
O544 U526 2.441 . S
O544 C530 1.249 . S
O545 U526 2.420 . S
O545 C530 1.202 . S
O546 U526 2.455 . S
O546 C543 1.301 . S
O547 U526 2.449 . S
O547 C543 1.282 . S
H548 C521 0.931 . S
H549 C523 0.929 . S
H550 C524 0.930 . S
H551 C525 0.931 . S
H552 C532 0.932 . S
H553 C533 0.930 . S
H554 C534 0.929 . S
H555 C536 0.930 . S
H556 C538 0.932 . S
H557 C539 0.929 . S
H558 C540 0.928 . S
H559 C542 0.932 . S
C560 C561 1.264 . S
C560 C565 1.479 . S
C560 C570 1.465 . S
C561 C560 1.264 . S
C561 C563 1.339 . S
C561 H588 0.931 . S
C562 C563 1.395 . S
C562 C564 1.320 . S
C563 C561 1.339 . S
C563 C562 1.395 . S
C563 H589 0.929 . S
C564 C562 1.320 . S
C564 C565 1.405 . S
C564 H590 0.930 . S
C565 C560 1.479 . S
C565 C564 1.405 . S
C565 H591 0.931 . S
U566 O567 2.454 . S
U566 O568 2.458 . S
U566 C569 2.984 . S
U566 C570 2.847 . S
U566 C583 2.882 . S
U566 O584 2.441 . S
U566 O585 2.420 . S
U566 O586 2.455 . S
U566 O587 2.449 . S
O567 U566 2.454 . S
O567 C569 1.353 . S
O568 U566 2.458 . S
O568 C569 1.286 . S
C569 U566 2.984 . S
C569 O567 1.353 . S
C569 O568 1.286 . S
C569 C571 1.363 . S
C570 C560 1.465 . S
C570 U566 2.847 . S
C570 O584 1.249 . S
C570 O585 1.202 . S
C571 C569 1.363 . S
C571 C573 1.408 . S
C571 C576 1.342 . S
C572 C573 1.310 . S
C572 C575 1.461 . S
C572 H592 0.932 . S
C573 C571 1.408 . S
C573 C572 1.310 . S
C573 H593 0.930 . S
C574 C575 1.474 . S
C574 C576 1.285 . S
C574 H594 0.929 . S
C575 C572 1.461 . S
C575 C574 1.474 . S
C576 C571 1.342 . S
C576 C574 1.285 . S
C576 H595 0.930 . S
C577 C580 1.424 . S
C577 C582 1.245 . S
C577 C583 1.428 . S
C578 C581 1.260 . S
C578 C582 1.477 . S
C578 H596 0.932 . S
C579 C580 1.384 . S
C579 C581 1.479 . S
C579 H597 0.929 . S
C580 C577 1.424 . S
C580 C579 1.384 . S
C580 H598 0.928 . S
C581 C578 1.260 . S
C581 C579 1.479 . S
C582 C577 1.245 . S
C582 C578 1.477 . S
C582 H599 0.932 . S
C583 U566 2.882 . S
C583 C577 1.428 . S
C583 O586 1.301 . S
C583 O587 1.282 . S
O584 U566 2.441 . S
O584 C570 1.249 . S
O585 U566 2.420 . S
O585 C570 1.202 . S
O586 U566 2.455 . S
O586 C583 1.301 . S
O587 U566 2.449 . S
O587 C583 1.282 . S
H588 C561 0.931 . S
H589 C563 0.929 . S
H590 C564 0.930 . S
H591 C565 0.931 . S
H592 C572 0.932 . S
H593 C573 0.930 . S
H594 C574 0.929 . S
H595 C576 0.930 . S
H596 C578 0.932 . S
H597 C579 0.929 . S
H598 C580 0.928 . S
H599 C582 0.932 . S
C600 C601 1.264 . S
C600 C605 1.479 . S
C600 C610 1.465 . S
C601 C600 1.264 . S
C601 C603 1.339 . S
C601 H628 0.931 1_554 S
C602 C603 1.395 . S
C602 C604 1.320 . S
C603 C601 1.339 . S
C603 C602 1.395 . S
C603 H629 0.929 . S
C604 C602 1.320 . S
C604 C605 1.405 . S
C604 H630 0.930 . S
C605 C600 1.479 . S
C605 C604 1.405 . S
C605 H631 0.931 . S
U606 O607 2.454 . S
U606 O608 2.458 . S
U606 C609 2.984 . S
U606 C610 2.847 1_556 S
U606 C623 2.882 . S
U606 O624 2.441 1_556 S
U606 O625 2.420 . S
U606 O626 2.455 . S
U606 O627 2.449 . S
O607 U606 2.454 . S
O607 C609 1.353 . S
O608 U606 2.458 . S
O608 C609 1.286 . S
C609 U606 2.984 . S
C609 O607 1.353 . S
C609 O608 1.286 . S
C609 C611 1.363 . S
C610 C600 1.465 . S
C610 U606 2.847 1_554 S
C610 O624 1.249 . S
C610 O625 1.202 1_554 S
C611 C609 1.363 . S
C611 C613 1.408 . S
C611 C616 1.342 1_545 S
C612 C613 1.310 1_565 S
C612 C615 1.461 . S
C612 H632 0.932 1_556 S
C613 C611 1.408 . S
C613 C612 1.310 1_545 S
C613 H633 0.930 1_556 S
C614 C615 1.474 . S
C614 C616 1.285 . S
C614 H634 0.929 . S
C615 C612 1.461 . S
C615 C614 1.474 . S
C616 C611 1.342 1_565 S
C616 C614 1.285 . S
C616 H635 0.930 . S
C617 C620 1.424 . S
C617 C622 1.245 . S
C617 C623 1.428 . S
C618 C621 1.260 . S
C618 C622 1.477 . S
C618 H636 0.932 . S
C619 C620 1.384 . S
C619 C621 1.479 . S
C619 H637 0.929 . S
C620 C617 1.424 . S
C620 C619 1.384 . S
C620 H638 0.928 . S
C621 C618 1.260 . S
C621 C619 1.479 . S
C622 C617 1.245 . S
C622 C618 1.477 . S
C622 H639 0.932 . S
C623 U606 2.882 . S
C623 C617 1.428 . S
C623 O626 1.301 . S
C623 O627 1.282 . S
O624 U606 2.441 1_554 S
O624 C610 1.249 . S
O625 U606 2.420 . S
O625 C610 1.202 1_556 S
O626 U606 2.455 . S
O626 C623 1.301 . S
O627 U606 2.449 . S
O627 C623 1.282 . S
H628 C601 0.931 1_556 S
H629 C603 0.929 . S
H630 C604 0.930 . S
H631 C605 0.931 . S
H632 C612 0.932 1_554 S
H633 C613 0.930 1_554 S
H634 C614 0.929 . S
H635 C616 0.930 . S
H636 C618 0.932 . S
H637 C619 0.929 . S
H638 C620 0.928 . S
H639 C622 0.932 . S
C640 O641 1.194 . S
C640 O647 1.185 . S
O641 C640 1.194 . S
O642 Zn643 1.858 1_556 S
O642 C650 1.332 . S
Zn643 O642 1.858 1_554 S
Zn643 O644 2.032 . S
Zn643 O647 2.086 . S
Zn643 O652 1.977 . S
O644 Zn643 2.032 . S
O644 C648 1.278 . S
C645 O646 1.203 . S
C645 O652 1.267 . S
O646 C645 1.203 . S
O647 C640 1.185 . S
O647 Zn643 2.086 . S
C648 O644 1.278 . S
C648 O649 1.211 . S
O649 C648 1.211 . S
C650 O642 1.332 . S
C650 O651 1.273 . S
O651 C650 1.273 . S
O652 Zn643 1.977 . S
O652 C645 1.267 . S
C653 O654 1.160 . S
C653 O660 1.185 . S
O654 C653 1.160 . S
O655 Zn656 1.899 . S
O655 C663 1.284 . S
Zn656 O655 1.899 . S
Zn656 O657 2.032 . S
Zn656 O660 2.086 . S
Zn656 O665 1.977 . S
O657 Zn656 2.032 . S
O657 C661 1.278 . S
C658 O659 1.203 . S
C658 O665 1.267 . S
O659 C658 1.203 . S
O660 C653 1.185 . S
O660 Zn656 2.086 . S
C661 O657 1.278 . S
C661 O662 1.211 . S
O662 C661 1.211 . S
C663 O655 1.284 . S
C663 O664 1.273 . S
O664 C663 1.273 . S
O665 Zn656 1.977 . S
O665 C658 1.267 . S
C666 O667 1.160 1_554 S
C666 O673 1.185 . S
O667 C666 1.160 1_556 S
O668 Zn669 1.899 1_556 S
O668 C676 1.284 . S
Zn669 O668 1.899 1_554 S
Zn669 O670 2.032 1_554 S
Zn669 O673 2.086 . S
Zn669 O678 1.977 . S
O670 Zn669 2.032 1_556 S
O670 C674 1.278 . S
C671 O672 1.203 . S
C671 O678 1.267 . S
O672 C671 1.203 . S
O673 C666 1.185 . S
O673 Zn669 2.086 . S
C674 O670 1.278 . S
C674 O675 1.211 1_556 S
O675 C674 1.211 1_554 S
C676 O668 1.284 . S
C676 O677 1.273 . S
O677 C676 1.273 . S
O678 Zn669 1.977 . S
O678 C671 1.267 . S
C679 O680 1.160 . S
C679 O686 1.185 . S
O680 C679 1.160 . S
O681 Zn682 1.899 . S
O681 C689 1.284 . S
Zn682 O681 1.899 . S
Zn682 O683 2.055 . S
Zn682 O686 2.086 . S
Zn682 O691 1.977 . S
O683 Zn682 2.055 . S
O683 C687 1.247 1_545 S
C684 O685 1.203 . S
C684 O691 1.267 . S
O685 C684 1.203 . S
O686 C679 1.185 . S
O686 Zn682 2.086 . S
C687 O683 1.247 1_565 S
C687 O688 1.211 . S
O688 C687 1.211 . S
C689 O681 1.284 . S
C689 O690 1.273 1_545 S
O690 C689 1.273 1_565 S
O691 Zn682 1.977 . S
O691 C684 1.267 . S
C692 O693 1.160 . S
C692 O699 1.185 . S
O693 C692 1.160 . S
O694 Zn695 1.899 . S
O694 C702 1.284 . S
Zn695 O694 1.899 . S
Zn695 O696 2.032 . S
Zn695 O699 2.086 . S
Zn695 O704 1.977 . S
O696 Zn695 2.032 . S
O696 C700 1.278 . S
C697 O698 1.203 . S
C697 O704 1.267 . S
O698 C697 1.203 . S
O699 C692 1.185 . S
O699 Zn695 2.086 . S
C700 O696 1.278 . S
C700 O701 1.211 . S
O701 C700 1.211 . S
C702 O694 1.284 . S
C702 O703 1.273 . S
O703 C702 1.273 . S
O704 Zn695 1.977 . S
O704 C697 1.267 . S
C705 O706 1.160 . S
C705 O712 1.185 . S
O706 C705 1.160 . S
O707 Zn708 1.899 . S
O707 C715 1.284 . S
Zn708 O707 1.899 . S
Zn708 O709 2.032 . S
Zn708 O712 2.086 . S
Zn708 O717 1.977 . S
O709 Zn708 2.032 . S
O709 C713 1.278 . S
C710 O711 1.203 . S
C710 O717 1.267 . S
O711 C710 1.203 . S
O712 C705 1.185 . S
O712 Zn708 2.086 . S
C713 O709 1.278 . S
C713 O714 1.211 . S
O714 C713 1.211 . S
C715 O707 1.284 . S
C715 O716 1.273 . S
O716 C715 1.273 . S
O717 Zn708 1.977 . S
O717 C710 1.267 . S
C718 O719 1.160 . S
C718 O725 1.185 . S
O719 C718 1.160 . S
O720 Zn721 1.899 . S
O720 C728 1.284 . S
Zn721 O720 1.899 . S
Zn721 O722 2.032 . S
Zn721 O725 2.086 . S
Zn721 O730 1.977 . S
O722 Zn721 2.032 . S
O722 C726 1.278 . S
C723 O724 1.203 . S
C723 O730 1.267 . S
O724 C723 1.203 . S
O725 C718 1.185 . S
O725 Zn721 2.086 . S
C726 O722 1.278 . S
C726 O727 1.211 . S
O727 C726 1.211 . S
C728 O720 1.284 . S
C728 O729 1.273 . S
O729 C728 1.273 . S
O730 Zn721 1.977 . S
O730 C723 1.267 . S
C731 O732 1.160 . S
C731 O738 1.185 . S
O732 C731 1.160 . S
O733 Zn734 1.899 . S
O733 C741 1.284 1_565 S
Zn734 O733 1.899 . S
Zn734 O735 2.032 1_565 S
Zn734 O738 2.086 . S
Zn734 O743 1.977 . S
O735 Zn734 2.032 1_545 S
O735 C739 1.278 . S
C736 O737 1.203 1_565 S
C736 O743 1.267 . S
O737 C736 1.203 1_545 S
O738 C731 1.185 . S
O738 Zn734 2.086 . S
C739 O735 1.278 . S
C739 O740 1.211 . S
O740 C739 1.211 . S
C741 O733 1.284 1_545 S
C741 O742 1.273 . S
O742 C741 1.273 . S
O743 Zn734 1.977 . S
O743 C736 1.267 . S
C744 O745 1.160 1_455 S
C744 O751 1.185 . S
O745 C744 1.160 1_655 S
O746 Zn747 1.899 1_655 S
O746 C754 1.284 . S
Zn747 O746 1.899 1_455 S
Zn747 O748 2.034 . S
Zn747 O751 2.086 . S
Zn747 O756 1.977 . S
O748 Zn747 2.034 . S
O748 C752 1.278 . S
C749 O750 1.203 . S
C749 O756 1.267 . S
O750 C749 1.203 . S
O751 C744 1.185 . S
O751 Zn747 2.086 . S
C752 O748 1.278 . S
C752 O753 1.211 . S
O753 C752 1.211 . S
C754 O746 1.284 . S
C754 O755 1.273 . S
O755 C754 1.273 . S
O756 Zn747 1.977 . S
O756 C749 1.267 . S
C757 O758 1.160 . S
C757 O764 1.185 . S
O758 C757 1.160 . S
O759 Zn760 1.899 . S
O759 C767 1.284 . S
Zn760 O759 1.899 . S
Zn760 O761 2.032 . S
Zn760 O764 2.086 . S
Zn760 O769 1.977 . S
O761 Zn760 2.032 . S
O761 C765 1.278 . S
C762 O763 1.203 . S
C762 O769 1.267 . S
O763 C762 1.203 . S
O764 C757 1.185 . S
O764 Zn760 2.086 . S
C765 O761 1.278 . S
C765 O766 1.211 . S
O766 C765 1.211 . S
C767 O759 1.284 . S
C767 O768 1.273 . S
O768 C767 1.273 . S
O769 Zn760 1.977 . S
O769 C762 1.267 . S
C770 O771 1.160 1_455 S
C770 O777 1.185 . S
O771 C770 1.160 1_655 S
O772 Zn773 1.899 1_655 S
O772 C780 1.284 . S
Zn773 O772 1.899 1_455 S
Zn773 O774 2.033 . S
Zn773 O777 2.086 . S
Zn773 O782 1.977 . S
O774 Zn773 2.033 . S
O774 C778 1.278 . S
C775 O776 1.203 . S
C775 O782 1.267 . S
O776 C775 1.203 . S
O777 C770 1.185 . S
O777 Zn773 2.086 . S
C778 O774 1.278 . S
C778 O779 1.211 . S
O779 C778 1.211 . S
C780 O772 1.284 . S
C780 O781 1.273 . S
O781 C780 1.273 . S
O782 Zn773 1.977 . S
O782 C775 1.267 . S
C783 O784 1.160 . S
C783 O790 1.185 . S
O784 C783 1.160 . S
O785 Zn786 1.899 . S
O785 C793 1.284 . S
Zn786 O785 1.899 . S
Zn786 O787 2.032 . S
Zn786 O790 2.086 . S
Zn786 O795 1.977 . S
O787 Zn786 2.032 . S
O787 C791 1.278 . S
C788 O789 1.203 . S
C788 O795 1.267 . S
O789 C788 1.203 . S
O790 C783 1.185 . S
O790 Zn786 2.086 . S
C791 O787 1.278 . S
C791 O792 1.211 . S
O792 C791 1.211 . S
C793 O785 1.284 . S
C793 O794 1.273 . S
O794 C793 1.273 . S
O795 Zn786 1.977 . S
O795 C788 1.267 . S
H796 C804 0.950 . S
H797 C809 0.950 . S
H798 C806 0.950 . S
H799 C808 0.950 . S
H800 C810 0.950 . S
H801 C812 0.950 . S
H802 C814 0.950 . S
H803 C815 0.950 . S
C804 H796 0.950 . S
C804 C805 1.386 . S
C804 C806 1.391 . S
C805 C804 1.386 . S
C805 C809 1.393 . S
C806 H798 0.950 . S
C806 C804 1.391 . S
C806 C807 1.400 . S
C807 C806 1.400 . S
C807 C808 1.398 . S
C807 C813 1.491 . S
C808 H799 0.950 . S
C808 C807 1.398 . S
C808 C809 1.391 . S
C809 H797 0.950 . S
C809 C805 1.393 . S
C809 C808 1.391 . S
C810 H800 0.950 . S
C810 C811 1.386 . S
C810 C812 1.391 . S
C811 C810 1.386 . S
C811 C815 1.393 . S
C812 H801 0.950 . S
C812 C810 1.391 . S
C812 C813 1.400 . S
C813 C807 1.491 . S
C813 C812 1.400 . S
C813 C814 1.398 . S
C814 H802 0.950 . S
C814 C813 1.398 . S
C814 C815 1.391 . S
C815 H803 0.950 . S
C815 C811 1.393 . S
C815 C814 1.391 . S
H816 C824 0.950 . S
H817 C829 0.950 . S
H818 C826 0.950 . S
H819 C828 0.950 . S
H820 C830 0.950 . S
H821 C832 0.950 . S
H822 C834 0.950 . S
H823 C835 0.950 . S
C824 H816 0.950 . S
C824 C825 1.386 . S
C824 C826 1.391 . S
C825 C824 1.386 . S
C825 C829 1.393 . S
C826 H818 0.950 . S
C826 C824 1.391 . S
C826 C827 1.400 . S
C827 C826 1.400 . S
C827 C828 1.398 . S
C827 C833 1.491 . S
C828 H819 0.950 . S
C828 C827 1.398 . S
C828 C829 1.391 . S
C829 H817 0.950 . S
C829 C825 1.393 . S
C829 C828 1.391 . S
C830 H820 0.950 . S
C830 C831 1.386 . S
C830 C832 1.391 . S
C831 C830 1.386 . S
C831 C835 1.393 . S
C832 H821 0.950 . S
C832 C830 1.391 . S
C832 C833 1.400 . S
C833 C827 1.491 . S
C833 C832 1.400 . S
C833 C834 1.398 . S
C834 H822 0.950 . S
C834 C833 1.398 . S
C834 C835 1.391 . S
C835 H823 0.950 . S
C835 C831 1.393 . S
C835 C834 1.391 . S
H836 C844 0.950 . S
H837 C849 0.950 . S
H838 C846 0.950 . S
H839 C848 0.950 . S
H840 C850 0.950 . S
H841 C852 0.950 . S
H842 C854 0.950 . S
H843 C855 0.950 . S
C844 H836 0.950 . S
C844 C845 1.386 . S
C844 C846 1.391 . S
C845 C844 1.386 . S
C845 C849 1.393 . S
C846 H838 0.950 . S
C846 C844 1.391 . S
C846 C847 1.400 . S
C847 C846 1.400 . S
C847 C848 1.398 . S
C847 C853 1.491 . S
C848 H839 0.950 . S
C848 C847 1.398 . S
C848 C849 1.391 . S
C849 H837 0.950 . S
C849 C845 1.393 . S
C849 C848 1.391 . S
C850 H840 0.950 . S
C850 C851 1.386 . S
C850 C852 1.391 . S
C851 C850 1.386 . S
C851 C855 1.393 . S
C852 H841 0.950 . S
C852 C850 1.391 . S
C852 C853 1.400 . S
C853 C847 1.491 . S
C853 C852 1.400 . S
C853 C854 1.398 . S
C854 H842 0.950 . S
C854 C853 1.398 . S
C854 C855 1.391 . S
C855 H843 0.950 . S
C855 C851 1.393 . S
C855 C854 1.391 . S
H856 C864 0.950 . S
H857 C869 0.950 . S
H858 C866 0.950 . S
H859 C868 0.950 . S
H860 C870 0.950 . S
H861 C872 0.950 . S
H862 C874 0.950 . S
H863 C875 0.950 . S
C864 H856 0.950 . S
C864 C865 1.386 . S
C864 C866 1.391 . S
C865 C864 1.386 . S
C865 C869 1.393 1_565 S
C866 H858 0.950 . S
C866 C864 1.391 . S
C866 C867 1.400 . S
C867 C866 1.400 . S
C867 C868 1.398 1_565 S
C867 C873 1.490 1_565 S
C868 H859 0.950 . S
C868 C867 1.398 1_545 S
C868 C869 1.391 . S
C869 H857 0.950 . S
C869 C865 1.393 1_545 S
C869 C868 1.391 . S
C870 H860 0.950 . S
C870 C871 1.386 . S
C870 C872 1.391 . S
C871 C870 1.386 . S
C871 C875 1.393 1_545 S
C872 H861 0.950 . S
C872 C870 1.391 . S
C872 C873 1.404 . S
C873 C867 1.490 1_545 S
C873 C872 1.404 . S
C873 C874 1.396 1_545 S
C874 H862 0.950 . S
C874 C873 1.396 1_565 S
C874 C875 1.391 . S
C875 H863 0.950 . S
C875 C871 1.393 1_565 S
C875 C874 1.391 . S
H876 C884 0.950 . S
H877 C889 0.950 . S
H878 C886 0.950 . S
H879 C888 0.950 . S
H880 C890 0.950 . S
H881 C892 0.950 . S
H882 C894 0.950 . S
H883 C895 0.950 . S
C884 H876 0.950 . S
C884 C885 1.386 . S
C884 C886 1.391 . S
C885 C884 1.386 . S
C885 C889 1.393 . S
C886 H878 0.950 . S
C886 C884 1.391 . S
C886 C887 1.400 . S
C887 C886 1.400 . S
C887 C888 1.398 . S
C887 C893 1.491 . S
C888 H879 0.950 . S
C888 C887 1.398 . S
C888 C889 1.391 . S
C889 H877 0.950 . S
C889 C885 1.393 . S
C889 C888 1.391 . S
C890 H880 0.950 . S
C890 C891 1.386 . S
C890 C892 1.391 . S
C891 C890 1.386 . S
C891 C895 1.393 . S
C892 H881 0.950 . S
C892 C890 1.391 . S
C892 C893 1.400 . S
C893 C887 1.491 . S
C893 C892 1.400 . S
C893 C894 1.398 . S
C894 H882 0.950 . S
C894 C893 1.398 . S
C894 C895 1.391 . S
C895 H883 0.950 . S
C895 C891 1.393 . S
C895 C894 1.391 . S
H896 C904 0.950 . S
H897 C909 0.950 . S
H898 C906 0.950 . S
H899 C908 0.950 . S
H900 C910 0.950 . S
H901 C912 0.950 . S
H902 C914 0.950 . S
H903 C915 0.950 . S
C904 H896 0.950 . S
C904 C905 1.386 . S
C904 C906 1.391 . S
C905 C904 1.386 . S
C905 C909 1.393 . S
C906 H898 0.950 . S
C906 C904 1.391 . S
C906 C907 1.400 . S
C907 C906 1.400 . S
C907 C908 1.398 . S
C907 C913 1.491 . S
C908 H899 0.950 . S
C908 C907 1.398 . S
C908 C909 1.391 . S
C909 H897 0.950 . S
C909 C905 1.393 . S
C909 C908 1.391 . S
C910 H900 0.950 . S
C910 C911 1.386 . S
C910 C912 1.391 . S
C911 C910 1.386 . S
C911 C915 1.393 . S
C912 H901 0.950 . S
C912 C910 1.391 . S
C912 C913 1.400 . S
C913 C907 1.491 . S
C913 C912 1.400 . S
C913 C914 1.398 . S
C914 H902 0.950 . S
C914 C913 1.398 . S
C914 C915 1.391 . S
C915 H903 0.950 . S
C915 C911 1.393 . S
C915 C914 1.391 . S
H916 C924 0.950 . S
H917 C929 0.950 . S
H918 C926 0.950 . S
H919 C928 0.950 . S
H920 C930 0.950 . S
H921 C932 0.950 . S
H922 C934 0.950 . S
H923 C935 0.950 . S
C924 H916 0.950 . S
C924 C925 1.386 . S
C924 C926 1.391 . S
C925 C924 1.386 . S
C925 C929 1.393 . S
C926 H918 0.950 . S
C926 C924 1.391 . S
C926 C927 1.400 . S
C927 C926 1.400 . S
C927 C928 1.398 . S
C927 C933 1.491 . S
C928 H919 0.950 . S
C928 C927 1.398 . S
C928 C929 1.391 . S
C929 H917 0.950 . S
C929 C925 1.393 . S
C929 C928 1.391 . S
C930 H920 0.950 . S
C930 C931 1.386 . S
C930 C932 1.391 . S
C931 C930 1.386 . S
C931 C935 1.393 . S
C932 H921 0.950 . S
C932 C930 1.391 . S
C932 C933 1.400 . S
C933 C927 1.491 . S
C933 C932 1.400 . S
C933 C934 1.398 . S
C934 H922 0.950 . S
C934 C933 1.398 . S
C934 C935 1.391 . S
C935 H923 0.950 . S
C935 C931 1.393 . S
C935 C934 1.391 . S
H936 C944 0.950 . S
H937 C949 0.935 1_545 S
H938 C946 0.950 . S
H939 C948 0.950 . S
H940 C950 0.950 . S
H941 C952 0.950 . S
H942 C954 0.950 . S
H943 C955 0.950 . S
C944 H936 0.950 . S
C944 C945 1.386 . S
C944 C946 1.391 . S
C945 C944 1.386 . S
C945 C949 1.409 . S
C946 H938 0.950 . S
C946 C944 1.391 . S
C946 C947 1.400 . S
C947 C946 1.400 . S
C947 C948 1.398 1_565 S
C947 C953 1.491 . S
C948 H939 0.950 . S
C948 C947 1.398 1_545 S
C948 C949 1.390 1_545 S
C949 H937 0.935 1_565 S
C949 C945 1.409 . S
C949 C948 1.390 1_565 S
C950 H940 0.950 . S
C950 C951 1.386 1_545 S
C950 C952 1.391 . S
C951 C950 1.386 1_565 S
C951 C955 1.393 . S
C952 H941 0.950 . S
C952 C950 1.391 . S
C952 C953 1.400 1_545 S
C953 C947 1.491 . S
C953 C952 1.400 1_565 S
C953 C954 1.398 . S
C954 H942 0.950 . S
C954 C953 1.398 . S
C954 C955 1.391 . S
C955 H943 0.950 . S
C955 C951 1.393 . S
C955 C954 1.391 . S
H956 C964 0.950 . S
H957 C969 0.950 . S
H958 C966 0.950 . S
H959 C968 0.950 . S
H960 C970 0.950 . S
H961 C972 0.950 . S
H962 C974 0.950 . S
H963 C975 0.950 . S
C964 H956 0.950 . S
C964 C965 1.386 . S
C964 C966 1.391 . S
C965 C964 1.386 . S
C965 C969 1.393 . S
C966 H958 0.950 . S
C966 C964 1.391 . S
C966 C967 1.400 . S
C967 C966 1.400 . S
C967 C968 1.398 . S
C967 C973 1.491 . S
C968 H959 0.950 . S
C968 C967 1.398 . S
C968 C969 1.391 . S
C969 H957 0.950 . S
C969 C965 1.393 . S
C969 C968 1.391 . S
C970 H960 0.950 . S
C970 C971 1.386 . S
C970 C972 1.391 . S
C971 C970 1.386 . S
C971 C975 1.393 . S
C972 H961 0.950 . S
C972 C970 1.391 . S
C972 C973 1.400 . S
C973 C967 1.491 . S
C973 C972 1.400 . S
C973 C974 1.398 . S
C974 H962 0.950 . S
C974 C973 1.398 . S
C974 C975 1.391 . S
C975 H963 0.950 . S
C975 C971 1.393 . S
C975 C974 1.391 . S
H976 C984 0.950 . S
H977 C989 0.950 . S
H978 C986 0.950 . S
H979 C988 0.950 . S
H980 C990 0.950 . S
H981 C992 0.950 . S
H982 C994 0.950 . S
H983 C995 0.950 . S
C984 H976 0.950 . S
C984 C985 1.386 . S
C984 C986 1.391 . S
C985 C984 1.386 . S
C985 C989 1.393 . S
C986 H978 0.950 . S
C986 C984 1.391 . S
C986 C987 1.400 . S
C987 C986 1.400 . S
C987 C988 1.398 . S
C987 C993 1.491 . S
C988 H979 0.950 . S
C988 C987 1.398 . S
C988 C989 1.391 . S
C989 H977 0.950 . S
C989 C985 1.393 . S
C989 C988 1.391 . S
C990 H980 0.950 . S
C990 C991 1.386 . S
C990 C992 1.391 . S
C991 C990 1.386 . S
C991 C995 1.393 . S
C992 H981 0.950 . S
C992 C990 1.391 . S
C992 C993 1.400 . S
C993 C987 1.491 . S
C993 C992 1.400 . S
C993 C994 1.398 . S
C994 H982 0.950 . S
C994 C993 1.398 . S
C994 C995 1.391 . S
C995 H983 0.950 . S
C995 C991 1.393 . S
C995 C994 1.391 . S
H996 C1004 0.950 . S
H997 C1009 0.950 . S
H998 C1006 0.950 . S
H999 C1008 0.950 . S
H1000 C1010 0.950 . S
H1001 C1012 0.950 . S
H1002 C1014 0.950 . S
H1003 C1015 0.950 . S
C1004 H996 0.950 . S
C1004 C1005 1.386 . S
C1004 C1006 1.391 . S
C1005 C1004 1.386 . S
C1005 C1009 1.393 . S
C1006 H998 0.950 . S
C1006 C1004 1.391 . S
C1006 C1007 1.400 . S
C1007 C1006 1.400 . S
C1007 C1008 1.398 . S
C1007 C1013 1.491 . S
C1008 H999 0.950 . S
C1008 C1007 1.398 . S
C1008 C1009 1.391 . S
C1009 H997 0.950 . S
C1009 C1005 1.393 . S
C1009 C1008 1.391 . S
C1010 H1000 0.950 . S
C1010 C1011 1.386 . S
C1010 C1012 1.391 . S
C1011 C1010 1.386 . S
C1011 C1015 1.393 . S
C1012 H1001 0.950 . S
C1012 C1010 1.391 . S
C1012 C1013 1.400 . S
C1013 C1007 1.491 . S
C1013 C1012 1.400 . S
C1013 C1014 1.398 . S
C1014 H1002 0.950 . S
C1014 C1013 1.398 . S
C1014 C1015 1.391 . S
C1015 H1003 0.950 . S
C1015 C1011 1.393 . S
C1015 C1014 1.391 . S
H1016 C1024 0.950 . S
H1017 C1029 0.950 . S
H1018 C1026 0.950 . S
H1019 C1028 0.950 . S
H1020 C1030 0.950 . S
H1021 C1032 0.950 . S
H1022 C1034 0.950 . S
H1023 C1035 0.950 . S
C1024 H1016 0.950 . S
C1024 C1025 1.386 . S
C1024 C1026 1.391 . S
C1025 C1024 1.386 . S
C1025 C1029 1.393 . S
C1026 H1018 0.950 . S
C1026 C1024 1.391 . S
C1026 C1027 1.400 . S
C1027 C1026 1.400 . S
C1027 C1028 1.398 . S
C1027 C1033 1.491 . S
C1028 H1019 0.950 . S
C1028 C1027 1.398 . S
C1028 C1029 1.391 . S
C1029 H1017 0.950 . S
C1029 C1025 1.393 . S
C1029 C1028 1.391 . S
C1030 H1020 0.950 . S
C1030 C1031 1.386 . S
C1030 C1032 1.391 . S
C1031 C1030 1.386 . S
C1031 C1035 1.393 . S
C1032 H1021 0.950 . S
C1032 C1030 1.391 . S
C1032 C1033 1.400 . S
C1033 C1027 1.491 . S
C1033 C1032 1.400 . S
C1033 C1034 1.398 . S
C1034 H1022 0.950 . S
C1034 C1033 1.398 . S
C1034 C1035 1.391 . S
C1035 H1023 0.950 . S
C1035 C1031 1.393 . S
C1035 C1034 1.391 . S
H1036 C1044 0.950 . S
H1037 C1049 0.950 . S
H1038 C1046 0.950 . S
H1039 C1048 0.950 . S
H1040 C1050 0.950 . S
H1041 C1052 0.950 . S
H1042 C1054 0.950 . S
H1043 C1055 0.950 . S
C1044 H1036 0.950 . S
C1044 C1045 1.386 . S
C1044 C1046 1.391 . S
C1045 C1044 1.386 . S
C1045 C1049 1.393 . S
C1046 H1038 0.950 . S
C1046 C1044 1.391 . S
C1046 C1047 1.400 . S
C1047 C1046 1.400 . S
C1047 C1048 1.398 . S
C1047 C1053 1.491 . S
C1048 H1039 0.950 . S
C1048 C1047 1.398 . S
C1048 C1049 1.391 . S
C1049 H1037 0.950 . S
C1049 C1045 1.393 . S
C1049 C1048 1.391 . S
C1050 H1040 0.950 . S
C1050 C1051 1.386 . S
C1050 C1052 1.391 . S
C1051 C1050 1.386 . S
C1051 C1055 1.393 . S
C1052 H1041 0.950 . S
C1052 C1050 1.391 . S
C1052 C1053 1.400 . S
C1053 C1047 1.491 . S
C1053 C1052 1.400 . S
C1053 C1054 1.398 . S
C1054 H1042 0.950 . S
C1054 C1053 1.398 . S
C1054 C1055 1.391 . S
C1055 H1043 0.950 . S
C1055 C1051 1.393 . S
C1055 C1054 1.391 . S
H1056 C1064 0.958 . S
H1057 C1069 0.950 . S
H1058 C1066 0.950 1_655 S
H1059 C1068 0.950 . S
H1060 C1070 0.950 . S
H1061 C1072 0.950 . S
H1062 C1074 0.908 1_655 S
H1063 C1075 0.950 . S
C1064 H1056 0.958 . S
C1064 C1065 1.386 . S
C1064 C1066 1.391 . S
C1065 C1064 1.386 . S
C1065 C1069 1.393 . S
C1066 H1058 0.950 1_455 S
C1066 C1064 1.391 . S
C1066 C1067 1.400 . S
C1067 C1066 1.400 . S
C1067 C1068 1.398 . S
C1067 C1073 1.491 . S
C1068 H1059 0.950 . S
C1068 C1067 1.398 . S
C1068 C1069 1.391 . S
C1069 H1057 0.950 . S
C1069 C1065 1.393 . S
C1069 C1068 1.391 . S
C1070 H1060 0.950 . S
C1070 C1071 1.386 . S
C1070 C1072 1.391 . S
C1071 C1070 1.386 . S
C1071 C1075 1.393 1_455 S
C1072 H1061 0.950 . S
C1072 C1070 1.391 . S
C1072 C1073 1.400 . S
C1073 C1067 1.491 . S
C1073 C1072 1.400 . S
C1073 C1074 1.446 . S
C1074 H1062 0.908 1_455 S
C1074 C1073 1.446 . S
C1074 C1075 1.386 1_455 S
C1075 H1063 0.950 . S
C1075 C1071 1.393 1_655 S
C1075 C1074 1.386 1_655 S
H1076 C1084 0.950 . S
H1077 C1089 0.950 . S
H1078 C1086 0.950 . S
H1079 C1088 0.950 . S
H1080 C1090 0.950 . S
H1081 C1092 0.950 . S
H1082 C1094 0.950 . S
H1083 C1095 0.950 . S
C1084 H1076 0.950 . S
C1084 C1085 1.386 . S
C1084 C1086 1.391 . S
C1085 C1084 1.386 . S
C1085 C1089 1.393 . S
C1086 H1078 0.950 . S
C1086 C1084 1.391 . S
C1086 C1087 1.400 . S
C1087 C1086 1.400 . S
C1087 C1088 1.398 . S
C1087 C1093 1.491 . S
C1088 H1079 0.950 . S
C1088 C1087 1.398 . S
C1088 C1089 1.391 . S
C1089 H1077 0.950 . S
C1089 C1085 1.393 . S
C1089 C1088 1.391 . S
C1090 H1080 0.950 . S
C1090 C1091 1.386 . S
C1090 C1092 1.391 . S
C1091 C1090 1.386 . S
C1091 C1095 1.393 . S
C1092 H1081 0.950 . S
C1092 C1090 1.391 . S
C1092 C1093 1.400 . S
C1093 C1087 1.491 . S
C1093 C1092 1.400 . S
C1093 C1094 1.398 . S
C1094 H1082 0.950 . S
C1094 C1093 1.398 . S
C1094 C1095 1.391 . S
C1095 H1083 0.950 . S
C1095 C1091 1.393 . S
C1095 C1094 1.391 . S
H1096 C1104 0.950 . S
H1097 C1109 0.950 . S
H1098 C1106 0.950 . S
H1099 C1108 0.950 . S
H1100 C1110 0.950 . S
H1101 C1112 0.950 . S
H1102 C1114 0.950 . S
H1103 C1115 0.950 . S
C1104 H1096 0.950 . S
C1104 C1105 1.386 1_455 S
C1104 C1106 1.391 . S
C1105 C1104 1.386 1_655 S
C1105 C1109 1.393 . S
C1106 H1098 0.950 . S
C1106 C1104 1.391 . S
C1106 C1107 1.400 1_455 S
C1107 C1106 1.400 1_655 S
C1107 C1108 1.398 . S
C1107 C1113 1.491 . S
C1108 H1099 0.950 . S
C1108 C1107 1.398 . S
C1108 C1109 1.391 . S
C1109 H1097 0.950 . S
C1109 C1105 1.393 . S
C1109 C1108 1.391 . S
C1110 H1100 0.950 . S
C1110 C1111 1.386 . S
C1110 C1112 1.391 . S
C1111 C1110 1.386 . S
C1111 C1115 1.393 1_655 S
C1112 H1101 0.950 . S
C1112 C1110 1.391 . S
C1112 C1113 1.400 . S
C1113 C1107 1.491 . S
C1113 C1112 1.400 . S
C1113 C1114 1.398 1_655 S
C1114 H1102 0.950 . S
C1114 C1113 1.398 1_455 S
C1114 C1115 1.391 . S
C1115 H1103 0.950 . S
C1115 C1111 1.393 1_455 S
C1115 C1114 1.391 . S
H1116 C1124 0.950 . S
H1117 C1129 0.950 . S
H1118 C1126 0.950 . S
H1119 C1128 0.950 . S
H1120 C1130 0.950 . S
H1121 C1132 0.950 . S
H1122 C1134 0.950 . S
H1123 C1135 0.950 . S
C1124 H1116 0.950 . S
C1124 C1125 1.386 . S
C1124 C1126 1.391 . S
C1125 C1124 1.386 . S
C1125 C1129 1.393 . S
C1126 H1118 0.950 . S
C1126 C1124 1.391 . S
C1126 C1127 1.400 . S
C1127 C1126 1.400 . S
C1127 C1128 1.398 . S
C1127 C1133 1.491 . S
C1128 H1119 0.950 . S
C1128 C1127 1.398 . S
C1128 C1129 1.391 . S
C1129 H1117 0.950 . S
C1129 C1125 1.393 . S
C1129 C1128 1.391 . S
C1130 H1120 0.950 . S
C1130 C1131 1.386 . S
C1130 C1132 1.391 . S
C1131 C1130 1.386 . S
C1131 C1135 1.393 . S
C1132 H1121 0.950 . S
C1132 C1130 1.391 . S
C1132 C1133 1.400 . S
C1133 C1127 1.491 . S
C1133 C1132 1.400 . S
C1133 C1134 1.398 . S
C1134 H1122 0.950 . S
C1134 C1133 1.398 . S
C1134 C1135 1.391 . S
C1135 H1123 0.950 . S
C1135 C1131 1.393 . S
C1135 C1134 1.391 . S
H1136 C1144 0.950 . S
H1137 C1149 0.950 . S
H1138 C1146 0.950 . S
H1139 C1148 0.950 . S
H1140 C1150 0.950 . S
H1141 C1152 0.950 . S
H1142 C1154 0.950 . S
H1143 C1155 0.950 . S
C1144 H1136 0.950 . S
C1144 C1145 1.386 . S
C1144 C1146 1.391 . S
C1145 C1144 1.386 . S
C1145 C1149 1.393 . S
C1146 H1138 0.950 . S
C1146 C1144 1.391 . S
C1146 C1147 1.400 . S
C1147 C1146 1.400 . S
C1147 C1148 1.398 . S
C1147 C1153 1.491 . S
C1148 H1139 0.950 . S
C1148 C1147 1.398 . S
C1148 C1149 1.391 . S
C1149 H1137 0.950 . S
C1149 C1145 1.393 . S
C1149 C1148 1.391 . S
C1150 H1140 0.950 . S
C1150 C1151 1.386 . S
C1150 C1152 1.391 . S
C1151 C1150 1.386 . S
C1151 C1155 1.393 . S
C1152 H1141 0.950 . S
C1152 C1150 1.391 . S
C1152 C1153 1.400 . S
C1153 C1147 1.491 . S
C1153 C1152 1.400 . S
C1153 C1154 1.398 . S
C1154 H1142 0.950 . S
C1154 C1153 1.398 . S
C1154 C1155 1.391 . S
C1155 H1143 0.950 . S
C1155 C1151 1.393 . S
C1155 C1154 1.391 . S
H1156 C1164 0.961 . S
H1157 C1169 0.950 . S
H1158 C1166 0.950 . S
H1159 C1168 0.950 . S
H1160 C1170 0.950 . S
H1161 C1172 0.950 . S
H1162 C1174 0.950 . S
H1163 C1175 0.950 . S
C1164 H1156 0.961 . S
C1164 C1165 1.370 1_554 S
C1164 C1166 1.396 . S
C1165 C1164 1.370 1_556 S
C1165 C1169 1.393 . S
C1166 H1158 0.950 . S
C1166 C1164 1.396 . S
C1166 C1167 1.400 1_554 S
C1167 C1166 1.400 1_556 S
C1167 C1168 1.398 . S
C1167 C1173 1.491 . S
C1168 H1159 0.950 . S
C1168 C1167 1.398 . S
C1168 C1169 1.391 . S
C1169 H1157 0.950 . S
C1169 C1165 1.393 . S
C1169 C1168 1.391 . S
C1170 H1160 0.950 . S
C1170 C1171 1.386 1_556 S
C1170 C1172 1.391 . S
C1171 C1170 1.386 1_554 S
C1171 C1175 1.393 . S
C1172 H1161 0.950 . S
C1172 C1170 1.391 . S
C1172 C1173 1.400 . S
C1173 C1167 1.491 . S
C1173 C1172 1.400 . S
C1173 C1174 1.398 1_556 S
C1174 H1162 0.950 . S
C1174 C1173 1.398 1_554 S
C1174 C1175 1.391 . S
C1175 H1163 0.950 . S
C1175 C1171 1.393 . S
C1175 C1174 1.391 . S
H1176 C1184 0.950 . S
H1177 C1189 0.950 . S
H1178 C1186 0.950 . S
H1179 C1188 0.950 . S
H1180 C1190 0.950 . S
H1181 C1192 0.950 . S
H1182 C1194 0.950 . S
H1183 C1195 0.950 . S
C1184 H1176 0.950 . S
C1184 C1185 1.386 . S
C1184 C1186 1.391 . S
C1185 C1184 1.386 . S
C1185 C1189 1.393 . S
C1186 H1178 0.950 . S
C1186 C1184 1.391 . S
C1186 C1187 1.400 . S
C1187 C1186 1.400 . S
C1187 C1188 1.398 . S
C1187 C1193 1.491 . S
C1188 H1179 0.950 . S
C1188 C1187 1.398 . S
C1188 C1189 1.391 . S
C1189 H1177 0.950 . S
C1189 C1185 1.393 . S
C1189 C1188 1.391 . S
C1190 H1180 0.950 . S
C1190 C1191 1.386 . S
C1190 C1192 1.391 . S
C1191 C1190 1.386 . S
C1191 C1195 1.393 . S
C1192 H1181 0.950 . S
C1192 C1190 1.391 . S
C1192 C1193 1.400 . S
C1193 C1187 1.491 . S
C1193 C1192 1.400 . S
C1193 C1194 1.398 . S
C1194 H1182 0.950 . S
C1194 C1193 1.398 . S
C1194 C1195 1.391 . S
C1195 H1183 0.950 . S
C1195 C1191 1.393 . S
C1195 C1194 1.391 . S
H1196 C1204 0.950 . S
H1197 C1209 0.950 . S
H1198 C1206 0.950 . S
H1199 C1208 0.950 . S
H1200 C1210 0.950 . S
H1201 C1212 0.950 . S
H1202 C1214 0.950 . S
H1203 C1215 0.950 . S
C1204 H1196 0.950 . S
C1204 C1205 1.386 . S
C1204 C1206 1.391 . S
C1205 C1204 1.386 . S
C1205 C1209 1.393 . S
C1206 H1198 0.950 . S
C1206 C1204 1.391 . S
C1206 C1207 1.400 . S
C1207 C1206 1.400 . S
C1207 C1208 1.398 . S
C1207 C1213 1.491 . S
C1208 H1199 0.950 . S
C1208 C1207 1.398 . S
C1208 C1209 1.391 . S
C1209 H1197 0.950 . S
C1209 C1205 1.393 . S
C1209 C1208 1.391 . S
C1210 H1200 0.950 . S
C1210 C1211 1.386 . S
C1210 C1212 1.391 . S
C1211 C1210 1.386 . S
C1211 C1215 1.393 . S
C1212 H1201 0.950 . S
C1212 C1210 1.391 . S
C1212 C1213 1.400 . S
C1213 C1207 1.491 . S
C1213 C1212 1.400 . S
C1213 C1214 1.398 . S
C1214 H1202 0.950 . S
C1214 C1213 1.398 . S
C1214 C1215 1.391 . S
C1215 H1203 0.950 . S
C1215 C1211 1.393 . S
C1215 C1214 1.391 . S
H1216 C1224 0.950 . S
H1217 C1229 0.950 . S
H1218 C1226 0.950 . S
H1219 C1228 0.950 . S
H1220 C1230 0.950 . S
H1221 C1232 0.950 . S
H1222 C1234 0.950 . S
H1223 C1235 0.950 . S
C1224 H1216 0.950 . S
C1224 C1225 1.386 . S
C1224 C1226 1.391 . S
C1225 C1224 1.386 . S
C1225 C1229 1.393 . S
C1226 H1218 0.950 . S
C1226 C1224 1.391 . S
C1226 C1227 1.400 . S
C1227 C1226 1.400 . S
C1227 C1228 1.398 . S
C1227 C1233 1.491 . S
C1228 H1219 0.950 . S
C1228 C1227 1.398 . S
C1228 C1229 1.391 . S
C1229 H1217 0.950 . S
C1229 C1225 1.393 . S
C1229 C1228 1.391 . S
C1230 H1220 0.950 . S
C1230 C1231 1.386 . S
C1230 C1232 1.391 . S
C1231 C1230 1.386 . S
C1231 C1235 1.393 . S
C1232 H1221 0.950 . S
C1232 C1230 1.391 . S
C1232 C1233 1.400 . S
C1233 C1227 1.491 . S
C1233 C1232 1.400 . S
C1233 C1234 1.398 . S
C1234 H1222 0.950 . S
C1234 C1233 1.398 . S
C1234 C1235 1.391 . S
C1235 H1223 0.950 . S
C1235 C1231 1.393 . S
C1235 C1234 1.391 . S
H1236 C1244 0.950 . S
H1237 C1249 0.950 . S
H1238 C1246 0.950 . S
H1239 C1248 0.950 . S
H1240 C1250 0.950 . S
H1241 C1252 0.950 . S
H1242 C1254 0.950 . S
H1243 C1255 0.950 . S
C1244 H1236 0.950 . S
C1244 C1245 1.386 . S
C1244 C1246 1.391 . S
C1245 C1244 1.386 . S
C1245 C1249 1.393 . S
C1246 H1238 0.950 . S
C1246 C1244 1.391 . S
C1246 C1247 1.400 . S
C1247 C1246 1.400 . S
C1247 C1248 1.398 . S
C1247 C1253 1.491 . S
C1248 H1239 0.950 . S
C1248 C1247 1.398 . S
C1248 C1249 1.391 . S
C1249 H1237 0.950 . S
C1249 C1245 1.393 . S
C1249 C1248 1.391 . S
C1250 H1240 0.950 . S
C1250 C1251 1.386 . S
C1250 C1252 1.391 . S
C1251 C1250 1.386 . S
C1251 C1255 1.393 . S
C1252 H1241 0.950 . S
C1252 C1250 1.391 . S
C1252 C1253 1.400 . S
C1253 C1247 1.491 . S
C1253 C1252 1.400 . S
C1253 C1254 1.398 . S
C1254 H1242 0.950 . S
C1254 C1253 1.398 . S
C1254 C1255 1.391 . S
C1255 H1243 0.950 . S
C1255 C1251 1.393 . S
C1255 C1254 1.391 . S
H1256 C1264 0.950 . S
H1257 C1269 0.950 . S
H1258 C1266 0.950 . S
H1259 C1268 0.950 . S
H1260 C1270 0.950 . S
H1261 C1272 0.950 . S
H1262 C1274 0.950 . S
H1263 C1275 0.950 . S
C1264 H1256 0.950 . S
C1264 C1265 1.386 . S
C1264 C1266 1.391 . S
C1265 C1264 1.386 . S
C1265 C1269 1.393 . S
C1266 H1258 0.950 . S
C1266 C1264 1.391 . S
C1266 C1267 1.400 . S
C1267 C1266 1.400 . S
C1267 C1268 1.398 . S
C1267 C1273 1.491 . S
C1268 H1259 0.950 . S
C1268 C1267 1.398 . S
C1268 C1269 1.391 . S
C1269 H1257 0.950 . S
C1269 C1265 1.393 . S
C1269 C1268 1.391 . S
C1270 H1260 0.950 . S
C1270 C1271 1.386 . S
C1270 C1272 1.391 . S
C1271 C1270 1.386 . S
C1271 C1275 1.393 . S
C1272 H1261 0.950 . S
C1272 C1270 1.391 . S
C1272 C1273 1.400 . S
C1273 C1267 1.491 . S
C1273 C1272 1.400 . S
C1273 C1274 1.398 . S
C1274 H1262 0.950 . S
C1274 C1273 1.398 . S
C1274 C1275 1.391 . S
C1275 H1263 0.950 . S
C1275 C1271 1.393 . S
C1275 C1274 1.391 . S
H1276 C1284 0.950 . S
H1277 C1289 0.950 . S
H1278 C1286 0.950 . S
H1279 C1288 0.950 . S
H1280 C1290 0.950 . S
H1281 C1292 0.950 . S
H1282 C1294 0.950 . S
H1283 C1295 0.950 . S
C1284 H1276 0.950 . S
C1284 C1285 1.386 . S
C1284 C1286 1.391 . S
C1285 C1284 1.386 . S
C1285 C1289 1.393 . S
C1286 H1278 0.950 . S
C1286 C1284 1.391 . S
C1286 C1287 1.400 . S
C1287 C1286 1.400 . S
C1287 C1288 1.398 . S
C1287 C1293 1.491 . S
C1288 H1279 0.950 . S
C1288 C1287 1.398 . S
C1288 C1289 1.391 . S
C1289 H1277 0.950 . S
C1289 C1285 1.393 . S
C1289 C1288 1.391 . S
C1290 H1280 0.950 . S
C1290 C1291 1.386 . S
C1290 C1292 1.391 . S
C1291 C1290 1.386 . S
C1291 C1295 1.393 . S
C1292 H1281 0.950 . S
C1292 C1290 1.391 . S
C1292 C1293 1.400 . S
C1293 C1287 1.491 . S
C1293 C1292 1.400 . S
C1293 C1294 1.398 . S
C1294 H1282 0.950 . S
C1294 C1293 1.398 . S
C1294 C1295 1.391 . S
C1295 H1283 0.950 . S
C1295 C1291 1.393 . S
C1295 C1294 1.391 . S
H1296 C1304 0.950 . S
H1297 C1309 0.950 . S
H1298 C1306 0.950 . S
H1299 C1308 0.950 . S
H1300 C1310 0.950 . S
H1301 C1312 0.950 . S
H1302 C1314 0.950 . S
H1303 C1315 0.950 1_565 S
C1304 H1296 0.950 . S
C1304 C1305 1.386 . S
C1304 C1306 1.391 . S
C1305 C1304 1.386 . S
C1305 C1309 1.393 . S
C1306 H1298 0.950 . S
C1306 C1304 1.391 . S
C1306 C1307 1.400 . S
C1307 C1306 1.400 . S
C1307 C1308 1.398 . S
C1307 C1313 1.491 . S
C1308 H1299 0.950 . S
C1308 C1307 1.398 . S
C1308 C1309 1.391 . S
C1309 H1297 0.950 . S
C1309 C1305 1.393 . S
C1309 C1308 1.391 . S
C1310 H1300 0.950 . S
C1310 C1311 1.386 . S
C1310 C1312 1.391 . S
C1311 C1310 1.386 . S
C1311 C1315 1.393 . S
C1312 H1301 0.950 . S
C1312 C1310 1.391 . S
C1312 C1313 1.400 . S
C1313 C1307 1.491 . S
C1313 C1312 1.400 . S
C1313 C1314 1.398 . S
C1314 H1302 0.950 . S
C1314 C1313 1.398 . S
C1314 C1315 1.391 . S
C1315 H1303 0.950 1_545 S
C1315 C1311 1.393 . S
C1315 C1314 1.391 . S
H1316 C1324 0.950 . S
H1317 C1329 0.950 . S
H1318 C1326 0.950 . S
H1319 C1328 0.950 . S
H1320 C1330 0.950 . S
H1321 C1332 0.950 . S
H1322 C1334 0.950 . S
H1323 C1335 0.950 . S
C1324 H1316 0.950 . S
C1324 C1325 1.386 . S
C1324 C1326 1.391 . S
C1325 C1324 1.386 . S
C1325 C1329 1.393 . S
C1326 H1318 0.950 . S
C1326 C1324 1.391 . S
C1326 C1327 1.400 . S
C1327 C1326 1.400 . S
C1327 C1328 1.398 . S
C1327 C1333 1.491 . S
C1328 H1319 0.950 . S
C1328 C1327 1.398 . S
C1328 C1329 1.391 . S
C1329 H1317 0.950 . S
C1329 C1325 1.393 . S
C1329 C1328 1.391 . S
C1330 H1320 0.950 . S
C1330 C1331 1.386 . S
C1330 C1332 1.391 . S
C1331 C1330 1.386 . S
C1331 C1335 1.393 . S
C1332 H1321 0.950 . S
C1332 C1330 1.391 . S
C1332 C1333 1.400 . S
C1333 C1327 1.491 . S
C1333 C1332 1.400 . S
C1333 C1334 1.398 . S
C1334 H1322 0.950 . S
C1334 C1333 1.398 . S
C1334 C1335 1.391 . S
C1335 H1323 0.950 . S
C1335 C1331 1.393 . S
C1335 C1334 1.391 . S
H1336 C1344 0.950 . S
H1337 C1349 0.950 . S
H1338 C1346 0.950 . S
H1339 C1348 0.950 . S
H1340 C1350 0.950 . S
H1341 C1352 0.950 . S
H1342 C1354 0.950 . S
H1343 C1355 0.950 . S
C1344 H1336 0.950 . S
C1344 C1345 1.386 . S
C1344 C1346 1.391 . S
C1345 C1344 1.386 . S
C1345 C1349 1.393 . S
C1346 H1338 0.950 . S
C1346 C1344 1.391 . S
C1346 C1347 1.400 . S
C1347 C1346 1.400 . S
C1347 C1348 1.398 . S
C1347 C1353 1.491 . S
C1348 H1339 0.950 . S
C1348 C1347 1.398 . S
C1348 C1349 1.391 . S
C1349 H1337 0.950 . S
C1349 C1345 1.393 . S
C1349 C1348 1.391 . S
C1350 H1340 0.950 . S
C1350 C1351 1.386 . S
C1350 C1352 1.391 . S
C1351 C1350 1.386 . S
C1351 C1355 1.393 . S
C1352 H1341 0.950 . S
C1352 C1350 1.391 . S
C1352 C1353 1.400 . S
C1353 C1347 1.491 . S
C1353 C1352 1.400 . S
C1353 C1354 1.398 . S
C1354 H1342 0.950 . S
C1354 C1353 1.398 . S
C1354 C1355 1.391 . S
C1355 H1343 0.950 . S
C1355 C1351 1.393 . S
C1355 C1354 1.391 . S
H1356 C1364 0.950 . S
H1357 C1369 0.950 . S
H1358 C1366 0.950 . S
H1359 C1368 0.950 . S
H1360 C1370 0.950 . S
H1361 C1372 0.950 . S
H1362 C1374 0.950 . S
H1363 C1375 0.950 . S
C1364 H1356 0.950 . S
C1364 C1365 1.386 . S
C1364 C1366 1.391 . S
C1365 C1364 1.386 . S
C1365 C1369 1.393 . S
C1366 H1358 0.950 . S
C1366 C1364 1.391 . S
C1366 C1367 1.400 . S
C1367 C1366 1.400 . S
C1367 C1368 1.398 . S
C1367 C1373 1.491 . S
C1368 H1359 0.950 . S
C1368 C1367 1.398 . S
C1368 C1369 1.391 . S
C1369 H1357 0.950 . S
C1369 C1365 1.393 . S
C1369 C1368 1.391 . S
C1370 H1360 0.950 . S
C1370 C1371 1.386 . S
C1370 C1372 1.391 . S
C1371 C1370 1.386 . S
C1371 C1375 1.393 . S
C1372 H1361 0.950 . S
C1372 C1370 1.391 . S
C1372 C1373 1.400 . S
C1373 C1367 1.491 . S
C1373 C1372 1.400 . S
C1373 C1374 1.398 . S
C1374 H1362 0.950 . S
C1374 C1373 1.398 . S
C1374 C1375 1.391 . S
C1375 H1363 0.950 . S
C1375 C1371 1.393 . S
C1375 C1374 1.391 . S
H1376 C1384 0.950 . S
H1377 C1389 0.950 . S
H1378 C1386 0.950 . S
H1379 C1388 0.950 . S
H1380 C1390 0.950 . S
H1381 C1392 0.950 . S
H1382 C1394 0.950 . S
H1383 C1395 0.950 . S
C1384 H1376 0.950 . S
C1384 C1385 1.386 . S
C1384 C1386 1.391 . S
C1385 C1384 1.386 . S
C1385 C1389 1.393 . S
C1386 H1378 0.950 . S
C1386 C1384 1.391 . S
C1386 C1387 1.400 . S
C1387 C1386 1.400 . S
C1387 C1388 1.398 . S
C1387 C1393 1.491 . S
C1388 H1379 0.950 . S
C1388 C1387 1.398 . S
C1388 C1389 1.391 . S
C1389 H1377 0.950 . S
C1389 C1385 1.393 . S
C1389 C1388 1.391 . S
C1390 H1380 0.950 . S
C1390 C1391 1.386 . S
C1390 C1392 1.391 . S
C1391 C1390 1.386 . S
C1391 C1395 1.393 . S
C1392 H1381 0.950 . S
C1392 C1390 1.391 . S
C1392 C1393 1.400 . S
C1393 C1387 1.491 . S
C1393 C1392 1.400 . S
C1393 C1394 1.398 . S
C1394 H1382 0.950 . S
C1394 C1393 1.398 . S
C1394 C1395 1.391 . S
C1395 H1383 0.950 . S
C1395 C1391 1.393 . S
C1395 C1394 1.391 . S
H1396 C1404 0.950 . S
H1397 C1409 0.950 . S
H1398 C1406 0.950 . S
H1399 C1408 0.950 . S
H1400 C1410 0.950 . S
H1401 C1412 0.950 . S
H1402 C1414 0.950 . S
H1403 C1415 0.950 . S
C1404 H1396 0.950 . S
C1404 C1405 1.386 . S
C1404 C1406 1.391 . S
C1405 C1404 1.386 . S
C1405 C1409 1.393 . S
C1406 H1398 0.950 . S
C1406 C1404 1.391 . S
C1406 C1407 1.400 . S
C1407 C1406 1.400 . S
C1407 C1408 1.398 . S
C1407 C1413 1.491 . S
C1408 H1399 0.950 . S
C1408 C1407 1.398 . S
C1408 C1409 1.391 . S
C1409 H1397 0.950 . S
C1409 C1405 1.393 . S
C1409 C1408 1.391 . S
C1410 H1400 0.950 . S
C1410 C1411 1.386 . S
C1410 C1412 1.391 . S
C1411 C1410 1.386 . S
C1411 C1415 1.393 . S
C1412 H1401 0.950 . S
C1412 C1410 1.391 . S
C1412 C1413 1.400 . S
C1413 C1407 1.491 . S
C1413 C1412 1.400 . S
C1413 C1414 1.398 . S
C1414 H1402 0.950 . S
C1414 C1413 1.398 . S
C1414 C1415 1.391 . S
C1415 H1403 0.950 . S
C1415 C1411 1.393 . S
C1415 C1414 1.391 . S
H1416 C1424 0.950 . S
H1417 C1429 0.950 . S
H1418 C1426 0.950 . S
H1419 C1428 0.950 . S
H1420 C1430 0.950 . S
H1421 C1432 0.950 . S
H1422 C1434 0.950 . S
H1423 C1435 0.950 . S
C1424 H1416 0.950 . S
C1424 C1425 1.386 . S
C1424 C1426 1.391 . S
C1425 C1424 1.386 . S
C1425 C1429 1.393 . S
C1426 H1418 0.950 . S
C1426 C1424 1.391 . S
C1426 C1427 1.400 . S
C1427 C1426 1.400 . S
C1427 C1428 1.398 . S
C1427 C1433 1.491 . S
C1428 H1419 0.950 . S
C1428 C1427 1.398 . S
C1428 C1429 1.391 . S
C1429 H1417 0.950 . S
C1429 C1425 1.393 . S
C1429 C1428 1.391 . S
C1430 H1420 0.950 . S
C1430 C1431 1.386 . S
C1430 C1432 1.391 . S
C1431 C1430 1.386 . S
C1431 C1435 1.393 . S
C1432 H1421 0.950 . S
C1432 C1430 1.391 . S
C1432 C1433 1.400 . S
C1433 C1427 1.491 . S
C1433 C1432 1.400 . S
C1433 C1434 1.398 . S
C1434 H1422 0.950 . S
C1434 C1433 1.398 . S
C1434 C1435 1.391 . S
C1435 H1423 0.950 . S
C1435 C1431 1.393 . S
C1435 C1434 1.391 . S
H1436 C1444 0.950 . S
H1437 C1449 0.950 . S
H1438 C1446 0.950 . S
H1439 C1448 0.950 . S
H1440 C1450 0.950 . S
H1441 C1452 0.950 . S
H1442 C1454 0.950 . S
H1443 C1455 0.950 . S
C1444 H1436 0.950 . S
C1444 C1445 1.386 . S
C1444 C1446 1.391 . S
C1445 C1444 1.386 . S
C1445 C1449 1.393 . S
C1446 H1438 0.950 . S
C1446 C1444 1.391 . S
C1446 C1447 1.400 . S
C1447 C1446 1.400 . S
C1447 C1448 1.398 . S
C1447 C1453 1.491 . S
C1448 H1439 0.950 . S
C1448 C1447 1.398 . S
C1448 C1449 1.391 . S
C1449 H1437 0.950 . S
C1449 C1445 1.393 . S
C1449 C1448 1.391 . S
C1450 H1440 0.950 . S
C1450 C1451 1.386 . S
C1450 C1452 1.391 . S
C1451 C1450 1.386 . S
C1451 C1455 1.393 . S
C1452 H1441 0.950 . S
C1452 C1450 1.391 . S
C1452 C1453 1.400 . S
C1453 C1447 1.491 . S
C1453 C1452 1.400 . S
C1453 C1454 1.398 . S
C1454 H1442 0.950 . S
C1454 C1453 1.398 . S
C1454 C1455 1.391 . S
C1455 H1443 0.950 . S
C1455 C1451 1.393 . S
C1455 C1454 1.391 . S
H1456 C1464 0.969 . S
H1457 C1469 0.950 . S
H1458 C1466 0.950 . S
H1459 C1468 0.950 . S
H1460 C1470 0.950 . S
H1461 C1472 0.950 . S
H1462 C1474 0.950 . S
H1463 C1475 0.950 . S
C1464 H1456 0.969 . S
C1464 C1465 1.362 1_455 S
C1464 C1466 1.396 . S
C1465 C1464 1.362 1_655 S
C1465 C1469 1.393 . S
C1466 H1458 0.950 . S
C1466 C1464 1.396 . S
C1466 C1467 1.400 1_455 S
C1467 C1466 1.400 1_655 S
C1467 C1468 1.398 . S
C1467 C1473 1.491 . S
C1468 H1459 0.950 . S
C1468 C1467 1.398 . S
C1468 C1469 1.391 . S
C1469 H1457 0.950 . S
C1469 C1465 1.393 . S
C1469 C1468 1.391 . S
C1470 H1460 0.950 . S
C1470 C1471 1.386 . S
C1470 C1472 1.391 . S
C1471 C1470 1.386 . S
C1471 C1475 1.393 1_655 S
C1472 H1461 0.950 . S
C1472 C1470 1.391 . S
C1472 C1473 1.400 . S
C1473 C1467 1.491 . S
C1473 C1472 1.400 . S
C1473 C1474 1.398 1_655 S
C1474 H1462 0.950 . S
C1474 C1473 1.398 1_455 S
C1474 C1475 1.391 . S
C1475 H1463 0.950 . S
C1475 C1471 1.393 1_455 S
C1475 C1474 1.391 . S
H1476 C1484 0.950 . S
H1477 C1489 0.950 . S
H1478 C1486 0.950 . S
H1479 C1488 0.950 . S
H1480 C1490 0.950 . S
H1481 C1492 0.950 . S
H1482 C1494 0.950 . S
H1483 C1495 0.950 . S
C1484 H1476 0.950 . S
C1484 C1485 1.386 . S
C1484 C1486 1.391 . S
C1485 C1484 1.386 . S
C1485 C1489 1.393 . S
C1486 H1478 0.950 . S
C1486 C1484 1.391 . S
C1486 C1487 1.400 . S
C1487 C1486 1.400 . S
C1487 C1488 1.398 . S
C1487 C1493 1.491 . S
C1488 H1479 0.950 . S
C1488 C1487 1.398 . S
C1488 C1489 1.391 . S
C1489 H1477 0.950 . S
C1489 C1485 1.393 . S
C1489 C1488 1.391 . S
C1490 H1480 0.950 . S
C1490 C1491 1.386 . S
C1490 C1492 1.391 . S
C1491 C1490 1.386 . S
C1491 C1495 1.393 . S
C1492 H1481 0.950 . S
C1492 C1490 1.391 . S
C1492 C1493 1.400 . S
C1493 C1487 1.491 . S
C1493 C1492 1.400 . S
C1493 C1494 1.398 . S
C1494 H1482 0.950 . S
C1494 C1493 1.398 . S
C1494 C1495 1.391 . S
C1495 H1483 0.950 . S
C1495 C1491 1.393 . S
C1495 C1494 1.391 . S
H1496 C1504 0.950 . S
H1497 C1509 0.950 1_655 S
H1498 C1506 0.950 . S
H1499 C1508 0.950 1_655 S
H1500 C1510 0.950 . S
H1501 C1512 0.956 . S
H1502 C1514 0.950 . S
H1503 C1515 0.950 . S
C1504 H1496 0.950 . S
C1504 C1505 1.386 . S
C1504 C1506 1.391 . S
C1505 C1504 1.386 . S
C1505 C1509 1.393 . S
C1506 H1498 0.950 . S
C1506 C1504 1.391 . S
C1506 C1507 1.400 . S
C1507 C1506 1.400 . S
C1507 C1508 1.398 . S
C1507 C1513 1.491 . S
C1508 H1499 0.950 1_455 S
C1508 C1507 1.398 . S
C1508 C1509 1.391 . S
C1509 H1497 0.950 1_455 S
C1509 C1505 1.393 . S
C1509 C1508 1.391 . S
C1510 H1500 0.950 . S
C1510 C1511 1.386 1_655 S
C1510 C1512 1.393 . S
C1511 C1510 1.386 1_455 S
C1511 C1515 1.393 . S
C1512 H1501 0.956 . S
C1512 C1510 1.393 . S
C1512 C1513 1.393 1_655 S
C1513 C1507 1.491 . S
C1513 C1512 1.393 1_455 S
C1513 C1514 1.398 . S
C1514 H1502 0.950 . S
C1514 C1513 1.398 . S
C1514 C1515 1.391 . S
C1515 H1503 0.950 . S
C1515 C1511 1.393 . S
C1515 C1514 1.391 . S
H1516 C1524 0.950 . S
H1517 C1529 0.950 . S
H1518 C1526 0.950 . S
H1519 C1528 0.950 . S
H1520 C1530 0.950 . S
H1521 C1532 0.950 . S
H1522 C1534 0.950 . S
H1523 C1535 0.950 . S
C1524 H1516 0.950 . S
C1524 C1525 1.386 . S
C1524 C1526 1.391 . S
C1525 C1524 1.386 . S
C1525 C1529 1.393 . S
C1526 H1518 0.950 . S
C1526 C1524 1.391 . S
C1526 C1527 1.400 . S
C1527 C1526 1.400 . S
C1527 C1528 1.398 . S
C1527 C1533 1.491 . S
C1528 H1519 0.950 . S
C1528 C1527 1.398 . S
C1528 C1529 1.391 . S
C1529 H1517 0.950 . S
C1529 C1525 1.393 . S
C1529 C1528 1.391 . S
C1530 H1520 0.950 . S
C1530 C1531 1.386 . S
C1530 C1532 1.391 . S
C1531 C1530 1.386 . S
C1531 C1535 1.393 . S
C1532 H1521 0.950 . S
C1532 C1530 1.391 . S
C1532 C1533 1.400 . S
C1533 C1527 1.491 . S
C1533 C1532 1.400 . S
C1533 C1534 1.398 . S
C1534 H1522 0.950 . S
C1534 C1533 1.398 . S
C1534 C1535 1.391 . S
C1535 H1523 0.950 . S
C1535 C1531 1.393 . S
C1535 C1534 1.391 . S
H1536 C1544 0.950 . S
H1537 C1549 0.950 . S
H1538 C1546 0.950 . S
H1539 C1548 0.950 . S
H1540 C1550 0.950 . S
H1541 C1552 0.950 . S
H1542 C1554 0.950 . S
H1543 C1555 0.950 . S
C1544 H1536 0.950 . S
C1544 C1545 1.386 . S
C1544 C1546 1.391 . S
C1545 C1544 1.386 . S
C1545 C1549 1.393 . S
C1546 H1538 0.950 . S
C1546 C1544 1.391 . S
C1546 C1547 1.400 . S
C1547 C1546 1.400 . S
C1547 C1548 1.398 . S
C1547 C1553 1.491 . S
C1548 H1539 0.950 . S
C1548 C1547 1.398 . S
C1548 C1549 1.391 . S
C1549 H1537 0.950 . S
C1549 C1545 1.393 . S
C1549 C1548 1.391 . S
C1550 H1540 0.950 . S
C1550 C1551 1.386 . S
C1550 C1552 1.391 . S
C1551 C1550 1.386 . S
C1551 C1555 1.393 . S
C1552 H1541 0.950 . S
C1552 C1550 1.391 . S
C1552 C1553 1.400 . S
C1553 C1547 1.491 . S
C1553 C1552 1.400 . S
C1553 C1554 1.398 . S
C1554 H1542 0.950 . S
C1554 C1553 1.398 . S
C1554 C1555 1.391 . S
C1555 H1543 0.950 . S
C1555 C1551 1.393 . S
C1555 C1554 1.391 . S
H1556 C1564 0.950 . S
H1557 C1569 0.950 . S
H1558 C1566 0.950 . S
H1559 C1568 0.950 . S
H1560 C1570 0.950 . S
H1561 C1572 0.950 . S
H1562 C1574 0.950 . S
H1563 C1575 0.950 . S
C1564 H1556 0.950 . S
C1564 C1565 1.386 . S
C1564 C1566 1.391 . S
C1565 C1564 1.386 . S
C1565 C1569 1.393 . S
C1566 H1558 0.950 . S
C1566 C1564 1.391 . S
C1566 C1567 1.400 . S
C1567 C1566 1.400 . S
C1567 C1568 1.398 . S
C1567 C1573 1.491 . S
C1568 H1559 0.950 . S
C1568 C1567 1.398 . S
C1568 C1569 1.391 . S
C1569 H1557 0.950 . S
C1569 C1565 1.393 . S
C1569 C1568 1.391 . S
C1570 H1560 0.950 . S
C1570 C1571 1.386 . S
C1570 C1572 1.391 . S
C1571 C1570 1.386 . S
C1571 C1575 1.393 . S
C1572 H1561 0.950 . S
C1572 C1570 1.391 . S
C1572 C1573 1.400 . S
C1573 C1567 1.491 . S
C1573 C1572 1.400 . S
C1573 C1574 1.398 . S
C1574 H1562 0.950 . S
C1574 C1573 1.398 . S
C1574 C1575 1.391 . S
C1575 H1563 0.950 . S
C1575 C1571 1.393 . S
C1575 C1574 1.391 . S
H1576 C1584 0.950 . S
H1577 C1589 0.950 . S
H1578 C1586 0.950 . S
H1579 C1588 0.950 . S
H1580 C1590 0.950 . S
H1581 C1592 0.950 . S
H1582 C1594 0.950 . S
H1583 C1595 0.950 . S
C1584 H1576 0.950 . S
C1584 C1585 1.386 . S
C1584 C1586 1.391 . S
C1585 C1584 1.386 . S
C1585 C1589 1.393 . S
C1586 H1578 0.950 . S
C1586 C1584 1.391 . S
C1586 C1587 1.400 . S
C1587 C1586 1.400 . S
C1587 C1588 1.398 . S
C1587 C1593 1.491 . S
C1588 H1579 0.950 . S
C1588 C1587 1.398 . S
C1588 C1589 1.391 . S
C1589 H1577 0.950 . S
C1589 C1585 1.393 . S
C1589 C1588 1.391 . S
C1590 H1580 0.950 . S
C1590 C1591 1.386 . S
C1590 C1592 1.391 . S
C1591 C1590 1.386 . S
C1591 C1595 1.393 . S
C1592 H1581 0.950 . S
C1592 C1590 1.391 . S
C1592 C1593 1.400 . S
C1593 C1587 1.491 . S
C1593 C1592 1.400 . S
C1593 C1594 1.398 . S
C1594 H1582 0.950 . S
C1594 C1593 1.398 . S
C1594 C1595 1.391 . S
C1595 H1583 0.950 . S
C1595 C1591 1.393 . S
C1595 C1594 1.391 . S
H1596 C1604 0.950 . S
H1597 C1609 0.950 . S
H1598 C1606 0.950 . S
H1599 C1608 0.950 . S
H1600 C1610 0.950 . S
H1601 C1612 0.950 . S
H1602 C1614 0.950 . S
H1603 C1615 0.950 . S
C1604 H1596 0.950 . S
C1604 C1605 1.386 . S
C1604 C1606 1.391 . S
C1605 C1604 1.386 . S
C1605 C1609 1.393 . S
C1606 H1598 0.950 . S
C1606 C1604 1.391 . S
C1606 C1607 1.400 . S
C1607 C1606 1.400 . S
C1607 C1608 1.398 . S
C1607 C1613 1.491 . S
C1608 H1599 0.950 . S
C1608 C1607 1.398 . S
C1608 C1609 1.391 . S
C1609 H1597 0.950 . S
C1609 C1605 1.393 . S
C1609 C1608 1.391 . S
C1610 H1600 0.950 . S
C1610 C1611 1.386 . S
C1610 C1612 1.391 . S
C1611 C1610 1.386 . S
C1611 C1615 1.393 . S
C1612 H1601 0.950 . S
C1612 C1610 1.391 . S
C1612 C1613 1.400 . S
C1613 C1607 1.491 . S
C1613 C1612 1.400 . S
C1613 C1614 1.398 . S
C1614 H1602 0.950 . S
C1614 C1613 1.398 . S
C1614 C1615 1.391 . S
C1615 H1603 0.950 . S
C1615 C1611 1.393 . S
C1615 C1614 1.391 . S
H1616 C1624 0.950 . S
H1617 C1629 0.950 . S
H1618 C1626 0.950 . S
H1619 C1628 0.950 . S
H1620 C1630 0.950 . S
H1621 C1632 0.950 . S
H1622 C1634 0.950 . S
H1623 C1635 0.950 . S
C1624 H1616 0.950 . S
C1624 C1625 1.386 . S
C1624 C1626 1.391 . S
C1625 C1624 1.386 . S
C1625 C1629 1.393 . S
C1626 H1618 0.950 . S
C1626 C1624 1.391 . S
C1626 C1627 1.400 . S
C1627 C1626 1.400 . S
C1627 C1628 1.398 . S
C1627 C1633 1.491 . S
C1628 H1619 0.950 . S
C1628 C1627 1.398 . S
C1628 C1629 1.391 . S
C1629 H1617 0.950 . S
C1629 C1625 1.393 . S
C1629 C1628 1.391 . S
C1630 H1620 0.950 . S
C1630 C1631 1.386 . S
C1630 C1632 1.391 . S
C1631 C1630 1.386 . S
C1631 C1635 1.393 . S
C1632 H1621 0.950 . S
C1632 C1630 1.391 . S
C1632 C1633 1.400 . S
C1633 C1627 1.491 . S
C1633 C1632 1.400 . S
C1633 C1634 1.398 . S
C1634 H1622 0.950 . S
C1634 C1633 1.398 . S
C1634 C1635 1.391 . S
C1635 H1623 0.950 . S
C1635 C1631 1.393 . S
C1635 C1634 1.391 . S
H1636 C1644 0.950 . S
H1637 C1649 0.950 . S
H1638 C1646 0.950 . S
H1639 C1648 0.950 . S
H1640 C1650 0.950 . S
H1641 C1652 0.950 . S
H1642 C1654 0.950 . S
H1643 C1655 0.950 . S
C1644 H1636 0.950 . S
C1644 C1645 1.386 . S
C1644 C1646 1.391 . S
C1645 C1644 1.386 . S
C1645 C1649 1.393 . S
C1646 H1638 0.950 . S
C1646 C1644 1.391 . S
C1646 C1647 1.400 . S
C1647 C1646 1.400 . S
C1647 C1648 1.398 . S
C1647 C1653 1.491 . S
C1648 H1639 0.950 . S
C1648 C1647 1.398 . S
C1648 C1649 1.391 . S
C1649 H1637 0.950 . S
C1649 C1645 1.393 . S
C1649 C1648 1.391 . S
C1650 H1640 0.950 . S
C1650 C1651 1.386 . S
C1650 C1652 1.391 . S
C1651 C1650 1.386 . S
C1651 C1655 1.393 . S
C1652 H1641 0.950 . S
C1652 C1650 1.391 . S
C1652 C1653 1.400 . S
C1653 C1647 1.491 . S
C1653 C1652 1.400 . S
C1653 C1654 1.398 . S
C1654 H1642 0.950 . S
C1654 C1653 1.398 . S
C1654 C1655 1.391 . S
C1655 H1643 0.950 . S
C1655 C1651 1.393 . S
C1655 C1654 1.391 . S
H1656 C1664 0.950 . S
H1657 C1669 0.950 . S
H1658 C1666 0.950 . S
H1659 C1668 0.950 . S
H1660 C1670 0.950 . S
H1661 C1672 0.950 . S
H1662 C1674 0.950 . S
H1663 C1675 0.950 . S
C1664 H1656 0.950 . S
C1664 C1665 1.386 . S
C1664 C1666 1.391 . S
C1665 C1664 1.386 . S
C1665 C1669 1.393 . S
C1666 H1658 0.950 . S
C1666 C1664 1.391 . S
C1666 C1667 1.400 . S
C1667 C1666 1.400 . S
C1667 C1668 1.398 . S
C1667 C1673 1.491 . S
C1668 H1659 0.950 . S
C1668 C1667 1.398 . S
C1668 C1669 1.391 . S
C1669 H1657 0.950 . S
C1669 C1665 1.393 . S
C1669 C1668 1.391 . S
C1670 H1660 0.950 . S
C1670 C1671 1.386 . S
C1670 C1672 1.391 . S
C1671 C1670 1.386 . S
C1671 C1675 1.393 . S
C1672 H1661 0.950 . S
C1672 C1670 1.391 . S
C1672 C1673 1.400 . S
C1673 C1667 1.491 . S
C1673 C1672 1.400 . S
C1673 C1674 1.398 . S
C1674 H1662 0.950 . S
C1674 C1673 1.398 . S
C1674 C1675 1.391 . S
C1675 H1663 0.950 . S
C1675 C1671 1.393 . S
C1675 C1674 1.391 . S
H1676 C1684 0.950 . S
H1677 C1689 0.950 . S
H1678 C1686 0.950 . S
H1679 C1688 0.950 . S
H1680 C1690 0.950 . S
H1681 C1692 0.950 . S
H1682 C1694 0.950 . S
H1683 C1695 0.951 1_554 S
C1684 H1676 0.950 . S
C1684 C1685 1.386 . S
C1684 C1686 1.391 . S
C1685 C1684 1.386 . S
C1685 C1689 1.393 . S
C1686 H1678 0.950 . S
C1686 C1684 1.391 . S
C1686 C1687 1.400 . S
C1687 C1686 1.400 . S
C1687 C1688 1.398 . S
C1687 C1693 1.491 . S
C1688 H1679 0.950 . S
C1688 C1687 1.398 . S
C1688 C1689 1.391 . S
C1689 H1677 0.950 . S
C1689 C1685 1.393 . S
C1689 C1688 1.391 . S
C1690 H1680 0.950 . S
C1690 C1691 1.386 . S
C1690 C1692 1.391 . S
C1691 C1690 1.386 . S
C1691 C1695 1.393 . S
C1692 H1681 0.950 . S
C1692 C1690 1.391 . S
C1692 C1693 1.400 . S
C1693 C1687 1.491 . S
C1693 C1692 1.400 . S
C1693 C1694 1.398 . S
C1694 H1682 0.950 . S
C1694 C1693 1.398 . S
C1694 C1695 1.391 . S
C1695 H1683 0.951 1_556 S
C1695 C1691 1.393 . S
C1695 C1694 1.391 . S
H1696 C1704 0.950 . S
H1697 C1709 0.950 . S
H1698 C1706 0.950 . S
H1699 C1708 0.950 . S
H1700 C1710 0.950 . S
H1701 C1712 0.950 . S
H1702 C1714 0.950 . S
H1703 C1715 0.950 . S
C1704 H1696 0.950 . S
C1704 C1705 1.386 . S
C1704 C1706 1.391 . S
C1705 C1704 1.386 . S
C1705 C1709 1.393 . S
C1706 H1698 0.950 . S
C1706 C1704 1.391 . S
C1706 C1707 1.400 . S
C1707 C1706 1.400 . S
C1707 C1708 1.398 . S
C1707 C1713 1.491 . S
C1708 H1699 0.950 . S
C1708 C1707 1.398 . S
C1708 C1709 1.391 . S
C1709 H1697 0.950 . S
C1709 C1705 1.393 . S
C1709 C1708 1.391 . S
C1710 H1700 0.950 . S
C1710 C1711 1.386 . S
C1710 C1712 1.391 . S
C1711 C1710 1.386 . S
C1711 C1715 1.393 . S
C1712 H1701 0.950 . S
C1712 C1710 1.391 . S
C1712 C1713 1.400 . S
C1713 C1707 1.491 . S
C1713 C1712 1.400 . S
C1713 C1714 1.398 . S
C1714 H1702 0.950 . S
C1714 C1713 1.398 . S
C1714 C1715 1.391 . S
C1715 H1703 0.950 . S
C1715 C1711 1.393 . S
C1715 C1714 1.391 . S
H1716 C1724 0.950 . S
H1717 C1729 0.950 1_556 S
H1718 C1726 0.950 . S
H1719 C1728 0.950 1_556 S
H1720 C1730 0.950 . S
H1721 C1732 0.950 . S
H1722 C1734 0.950 . S
H1723 C1735 0.950 . S
C1724 H1716 0.950 . S
C1724 C1725 1.386 . S
C1724 C1726 1.391 . S
C1725 C1724 1.386 . S
C1725 C1729 1.393 . S
C1726 H1718 0.950 . S
C1726 C1724 1.391 . S
C1726 C1727 1.400 . S
C1727 C1726 1.400 . S
C1727 C1728 1.398 . S
C1727 C1733 1.491 . S
C1728 H1719 0.950 1_554 S
C1728 C1727 1.398 . S
C1728 C1729 1.391 . S
C1729 H1717 0.950 1_554 S
C1729 C1725 1.393 . S
C1729 C1728 1.391 . S
C1730 H1720 0.950 . S
C1730 C1731 1.386 1_556 S
C1730 C1732 1.391 . S
C1731 C1730 1.386 1_554 S
C1731 C1735 1.393 . S
C1732 H1721 0.950 . S
C1732 C1730 1.391 . S
C1732 C1733 1.400 1_556 S
C1733 C1727 1.491 . S
C1733 C1732 1.400 1_554 S
C1733 C1734 1.398 . S
C1734 H1722 0.950 . S
C1734 C1733 1.398 . S
C1734 C1735 1.391 . S
C1735 H1723 0.950 . S
C1735 C1731 1.393 . S
C1735 C1734 1.391 . S
H1736 C1744 0.950 . S
H1737 C1749 0.950 . S
H1738 C1746 0.950 . S
H1739 C1748 0.950 . S
H1740 C1750 0.950 . S
H1741 C1752 0.950 . S
H1742 C1754 0.950 . S
H1743 C1755 0.950 . S
C1744 H1736 0.950 . S
C1744 C1745 1.386 . S
C1744 C1746 1.391 . S
C1745 C1744 1.386 . S
C1745 C1749 1.393 . S
C1746 H1738 0.950 . S
C1746 C1744 1.391 . S
C1746 C1747 1.400 . S
C1747 C1746 1.400 . S
C1747 C1748 1.398 . S
C1747 C1753 1.491 . S
C1748 H1739 0.950 . S
C1748 C1747 1.398 . S
C1748 C1749 1.391 . S
C1749 H1737 0.950 . S
C1749 C1745 1.393 . S
C1749 C1748 1.391 . S
C1750 H1740 0.950 . S
C1750 C1751 1.386 . S
C1750 C1752 1.391 . S
C1751 C1750 1.386 . S
C1751 C1755 1.393 . S
C1752 H1741 0.950 . S
C1752 C1750 1.391 . S
C1752 C1753 1.400 . S
C1753 C1747 1.491 . S
C1753 C1752 1.400 . S
C1753 C1754 1.398 . S
C1754 H1742 0.950 . S
C1754 C1753 1.398 . S
C1754 C1755 1.391 . S
C1755 H1743 0.950 . S
C1755 C1751 1.393 . S
C1755 C1754 1.391 . S
C811 C650 1.404 . S
C805 C202 1.403 . S
C831 C663 1.616 . S
C825 C261 1.631 . S
C845 C282 1.438 . S
C851 C676 1.453 . S
C871 C689 1.526 . S
C865 C162 1.521 . S
C891 C697 1.458 . S
C885 C402 1.471 . S
C911 C710 1.418 . S
C905 C482 1.424 . S
C925 C442 1.520 . S
C931 C723 1.509 . S
C951 C736 1.511 . S
C945 C381 1.519 . S
C965 C461 1.472 . S
C971 C754 1.457 . S
C991 C765 1.475 . S
C985 C362 1.510 . S
C1005 C415 1.413 . S
C1011 C749 1.382 . S
C1031 C757 1.473 . S
C1025 C495 1.506 . S
C1045 C301 1.523 . S
C1051 C780 1.532 . S
C1065 C175 1.536 . S
C1071 C770 1.494 . S
C1085 C215 1.471 . S
C1091 C775 1.446 . S
C1105 C242 1.545 . S
C1111 C778 1.508 1_655 S
C1125 C141 1.488 . S
C1131 C687 1.455 . S
C1145 C581 1.454 . S
C1151 C679 1.443 . S
C1171 C648 1.503 . S
C1165 C615 1.530 . S
C1191 C653 1.482 . S
C1185 C335 1.498 . S
C1205 C181 1.593 . S
C1211 C700 1.570 . S
C1231 C739 1.493 . S
C1225 C455 1.515 . S
C1251 C692 1.434 . S
C1245 C375 1.464 . S
C1271 C718 1.495 . S
C1265 C501 1.525 . S
C1291 C728 1.401 . S
C1285 C562 1.398 . S
C1305 C621 1.630 . S
C1311 C741 1.625 . S
C1325 C322 1.450 . S
C1331 C702 1.439 . S
C1351 C715 1.521 . S
C1345 C522 1.530 . S
C1365 C122 1.475 . S
C1371 C671 1.450 . S
C1391 C684 1.405 . S
C1385 C2 1.420 . S
C1411 C645 1.502 . S
C1405 C42 1.519 . S
C1431 C658 1.517 . S
C1425 C101 1.527 . S
C1445 C61 1.471 . S
C1451 C767 1.460 . S
C1465 C82 1.512 . S
C1471 C752 1.474 1_655 S
C1485 C135 1.415 . S
C1491 C762 1.395 . S
C1505 C15 1.507 . S
C1511 C744 1.482 . S
C1531 C793 1.519 . S
C1525 C341 1.532 . S
C1551 C783 1.508 . S
C1545 C535 1.536 . S
C1571 C788 1.448 . S
C1565 C575 1.471 . S
C1585 C602 1.535 . S
C1591 C791 1.522 . S
C1605 C421 1.481 . S
C1611 C713 1.467 . S
C1631 C705 1.438 . S
C1625 C221 1.448 . S
C1651 C726 1.498 . S
C1645 C255 1.532 . S
C1671 C731 1.483 . S
C1665 C295 1.501 . S
C1685 C541 1.593 . S
C1691 C674 1.572 . S
C1711 C661 1.488 . S
C1705 C55 1.517 . S
C1725 C95 1.464 . S
C1731 C666 1.445 . S
C1751 C640 1.508 . S
C1745 C21 1.522 . S
