# Generated by pormake.
# Topology myd, (4,6)-cn, num edge types: 1
# Building blocks:
#     Node 0, Type 0, BuildingBlock: KOZSID_clean_sbu_0, # of connection points: 4
#     Node 1, Type 0, BuildingBlock: KOZSID_clean_sbu_0, # of connection points: 4
#     Node 2, Type 0, BuildingBlock: KOZSID_clean_sbu_0, # of connection points: 4
#     Node 3, Type 0, BuildingBlock: KOZSID_clean_sbu_0, # of connection points: 4
#     Node 4, Type 0, BuildingBlock: KOZSID_clean_sbu_0, # of connection points: 4
#     Node 5, Type 0, BuildingBlock: KOZSID_clean_sbu_0, # of connection points: 4
#     Node 6, Type 0, BuildingBlock: KOZSID_clean_sbu_0, # of connection points: 4
#     Node 7, Type 0, BuildingBlock: KOZSID_clean_sbu_0, # of connection points: 4
#     Node 8, Type 0, BuildingBlock: KOZSID_clean_sbu_0, # of connection points: 4
#     Node 9, Type 0, BuildingBlock: KOZSID_clean_sbu_0, # of connection points: 4
#     Node 10, Type 0, BuildingBlock: KOZSID_clean_sbu_0, # of connection points: 4
#     Node 11, Type 0, BuildingBlock: KOZSID_clean_sbu_0, # of connection points: 4
#     Node 12, Type 1, BuildingBlock: VOLQOD_clean_sbu_1, # of connection points: 6
#     Node 13, Type 1, BuildingBlock: VOLQOD_clean_sbu_1, # of connection points: 6
#     Node 14, Type 1, BuildingBlock: VOLQOD_clean_sbu_1, # of connection points: 6
#     Node 15, Type 1, BuildingBlock: VOLQOD_clean_sbu_1, # of connection points: 6
#     Node 16, Type 1, BuildingBlock: VOLQOD_clean_sbu_1, # of connection points: 6
#     Node 17, Type 1, BuildingBlock: VOLQOD_clean_sbu_1, # of connection points: 6
#     Node 18, Type 1, BuildingBlock: VOLQOD_clean_sbu_1, # of connection points: 6
#     Node 19, Type 1, BuildingBlock: VOLQOD_clean_sbu_1, # of connection points: 6
#     Edge 20, Type (0, 1), BuildingBlock: KIFKEQ_clean_linker_1, # of connection points: 2
#     Edge 21, Type (0, 1), BuildingBlock: KIFKEQ_clean_linker_1, # of connection points: 2
#     Edge 22, Type (0, 1), BuildingBlock: KIFKEQ_clean_linker_1, # of connection points: 2
#     Edge 23, Type (0, 1), BuildingBlock: KIFKEQ_clean_linker_1, # of connection points: 2
#     Edge 24, Type (0, 1), BuildingBlock: KIFKEQ_clean_linker_1, # of connection points: 2
#     Edge 25, Type (0, 1), BuildingBlock: KIFKEQ_clean_linker_1, # of connection points: 2
#     Edge 26, Type (0, 1), BuildingBlock: KIFKEQ_clean_linker_1, # of connection points: 2
#     Edge 27, Type (0, 1), BuildingBlock: KIFKEQ_clean_linker_1, # of connection points: 2
#     Edge 28, Type (0, 1), BuildingBlock: KIFKEQ_clean_linker_1, # of connection points: 2
#     Edge 29, Type (0, 1), BuildingBlock: KIFKEQ_clean_linker_1, # of connection points: 2
#     Edge 30, Type (0, 1), BuildingBlock: KIFKEQ_clean_linker_1, # of connection points: 2
#     Edge 31, Type (0, 1), BuildingBlock: KIFKEQ_clean_linker_1, # of connection points: 2
#     Edge 32, Type (0, 1), BuildingBlock: KIFKEQ_clean_linker_1, # of connection points: 2
#     Edge 33, Type (0, 1), BuildingBlock: KIFKEQ_clean_linker_1, # of connection points: 2
#     Edge 34, Type (0, 1), BuildingBlock: KIFKEQ_clean_linker_1, # of connection points: 2
#     Edge 35, Type (0, 1), BuildingBlock: KIFKEQ_clean_linker_1, # of connection points: 2
#     Edge 36, Type (0, 1), BuildingBlock: KIFKEQ_clean_linker_1, # of connection points: 2
#     Edge 37, Type (0, 1), BuildingBlock: KIFKEQ_clean_linker_1, # of connection points: 2
#     Edge 38, Type (0, 1), BuildingBlock: KIFKEQ_clean_linker_1, # of connection points: 2
#     Edge 39, Type (0, 1), BuildingBlock: KIFKEQ_clean_linker_1, # of connection points: 2
#     Edge 40, Type (0, 1), BuildingBlock: KIFKEQ_clean_linker_1, # of connection points: 2
#     Edge 41, Type (0, 1), BuildingBlock: KIFKEQ_clean_linker_1, # of connection points: 2
#     Edge 42, Type (0, 1), BuildingBlock: KIFKEQ_clean_linker_1, # of connection points: 2
#     Edge 43, Type (0, 1), BuildingBlock: KIFKEQ_clean_linker_1, # of connection points: 2
#     Edge 44, Type (0, 1), BuildingBlock: KIFKEQ_clean_linker_1, # of connection points: 2
#     Edge 45, Type (0, 1), BuildingBlock: KIFKEQ_clean_linker_1, # of connection points: 2
#     Edge 46, Type (0, 1), BuildingBlock: KIFKEQ_clean_linker_1, # of connection points: 2
#     Edge 47, Type (0, 1), BuildingBlock: KIFKEQ_clean_linker_1, # of connection points: 2
#     Edge 48, Type (0, 1), BuildingBlock: KIFKEQ_clean_linker_1, # of connection points: 2
#     Edge 49, Type (0, 1), BuildingBlock: KIFKEQ_clean_linker_1, # of connection points: 2
#     Edge 50, Type (0, 1), BuildingBlock: KIFKEQ_clean_linker_1, # of connection points: 2
#     Edge 51, Type (0, 1), BuildingBlock: KIFKEQ_clean_linker_1, # of connection points: 2
#     Edge 52, Type (0, 1), BuildingBlock: KIFKEQ_clean_linker_1, # of connection points: 2
#     Edge 53, Type (0, 1), BuildingBlock: KIFKEQ_clean_linker_1, # of connection points: 2
#     Edge 54, Type (0, 1), BuildingBlock: KIFKEQ_clean_linker_1, # of connection points: 2
#     Edge 55, Type (0, 1), BuildingBlock: KIFKEQ_clean_linker_1, # of connection points: 2
#     Edge 56, Type (0, 1), BuildingBlock: KIFKEQ_clean_linker_1, # of connection points: 2
#     Edge 57, Type (0, 1), BuildingBlock: KIFKEQ_clean_linker_1, # of connection points: 2
#     Edge 58, Type (0, 1), BuildingBlock: KIFKEQ_clean_linker_1, # of connection points: 2
#     Edge 59, Type (0, 1), BuildingBlock: KIFKEQ_clean_linker_1, # of connection points: 2
#     Edge 60, Type (0, 1), BuildingBlock: KIFKEQ_clean_linker_1, # of connection points: 2
#     Edge 61, Type (0, 1), BuildingBlock: KIFKEQ_clean_linker_1, # of connection points: 2
#     Edge 62, Type (0, 1), BuildingBlock: KIFKEQ_clean_linker_1, # of connection points: 2
#     Edge 63, Type (0, 1), BuildingBlock: KIFKEQ_clean_linker_1, # of connection points: 2
#     Edge 64, Type (0, 1), BuildingBlock: KIFKEQ_clean_linker_1, # of connection points: 2
#     Edge 65, Type (0, 1), BuildingBlock: KIFKEQ_clean_linker_1, # of connection points: 2
#     Edge 66, Type (0, 1), BuildingBlock: KIFKEQ_clean_linker_1, # of connection points: 2
#     Edge 67, Type (0, 1), BuildingBlock: KIFKEQ_clean_linker_1, # of connection points: 2
# Relax obj value: 0.174
# Max RMSD: 0.167
# Mean RMSD: 0.128
data_MOF--net-myd--node1-KOZSID_clean_sbu_0--node2-VOLQOD_clean_sbu_1--edge1-KIFKEQ_clean_linker_1
_symmetry_space_group_name_H-M    P1
_symmetry_Int_Tables_number       1
_symmetry_cell_setting            triclinic
loop_
_symmetry_equiv_pos_as_xyz
'x, y, z'
_cell_length_a     52.712814
_cell_length_b     52.826366
_cell_length_c     52.866989
_cell_angle_alpha  92.590709
_cell_angle_beta   90.422218
_cell_angle_gamma 93.032444
loop_
_atom_site_label
_atom_site_type_symbol
_atom_site_fract_x
_atom_site_fract_y
_atom_site_fract_z
_atom_type_partial_charge
C0 C 0.97782 0.2834 0.35044 0.0
C1 C 0.95299 0.2885 0.35651 0.0
C2 C 0.93772 0.2707 0.3434 0.0
C3 C 0.95402 0.25591 0.33 0.0
N4 N 0.97882 0.26274 0.33431 0.0
Co5 Co 0.00887 0.24877 0.31637 0.0
N6 N 0.98643 0.22654 0.29288 0.0
C7 C 0.96083 0.22318 0.29392 0.0
C8 C 0.95071 0.20618 0.27575 0.0
C9 C 0.97103 0.19817 0.26231 0.0
C10 C 0.99249 0.21092 0.27299 0.0
N11 N 0.03899 0.23562 0.29801 0.0
C12 C 0.0401 0.21987 0.27712 0.0
C13 C 0.06505 0.21686 0.26971 0.0
C14 C 0.0802 0.23082 0.28673 0.0
C15 C 0.06377 0.24176 0.30335 0.0
N16 N 0.03123 0.27074 0.34007 0.0
C17 C 0.05683 0.2712 0.34195 0.0
C18 C 0.0668 0.28915 0.35935 0.0
C19 C 0.04637 0.30127 0.36867 0.0
C20 C 0.02512 0.29 0.35627 0.0
N21 N 0.0097 0.22023 0.34 0.0
C22 C 0.01062 0.17431 0.36545 0.0
C23 C 0.03311 0.18817 0.36016 0.0
C24 C 0.03222 0.21093 0.34764 0.0
C25 C 0.98771 0.18481 0.35957 0.0
C26 C 0.98769 0.20768 0.34728 0.0
N27 N 0.00793 0.27668 0.29268 0.0
C28 C 0.02898 0.31029 0.26981 0.0
C29 C 0.00613 0.31546 0.25795 0.0
C30 C 0.98422 0.30107 0.26406 0.0
C31 C 0.98554 0.28194 0.28125 0.0
C32 C 0.02943 0.29103 0.28714 0.0
H33 H 0.96823 0.27144 0.28485 0.0
H34 H 0.04733 0.28792 0.2958 0.0
H35 H 0.05005 0.22019 0.34376 0.0
H36 H 0.96952 0.21433 0.34343 0.0
C37 C 0.94671 0.23737 0.31122 0.0
C38 C 0.99984 0.2996 0.35884 0.0
C39 C 0.01818 0.20732 0.26376 0.0
C40 C 0.07102 0.25789 0.32413 0.0
H41 H 0.94652 0.30401 0.36841 0.0
H42 H 0.91716 0.26954 0.34266 0.0
H43 H 0.93088 0.2005 0.27248 0.0
H44 H 0.97013 0.18449 0.24641 0.0
H45 H 0.07172 0.20579 0.25362 0.0
H46 H 0.10074 0.23289 0.28688 0.0
H47 H 0.08665 0.294 0.36349 0.0
H48 H 0.04707 0.31736 0.38213 0.0
H49 H 0.05141 0.18099 0.36464 0.0
H50 H 0.96974 0.17522 0.36407 0.0
H51 H 0.04641 0.3211 0.26583 0.0
H52 H 0.96614 0.30408 0.25511 0.0
C53 C 0.99284 0.71438 0.12669 0.0
C54 C 0.96985 0.70599 0.11545 0.0
C55 C 0.95164 0.71994 0.12667 0.0
C56 C 0.96448 0.73588 0.14411 0.0
N57 N 0.98988 0.73336 0.14432 0.0
Co58 Co 0.0157 0.75123 0.16783 0.0
N59 N 0.98854 0.76869 0.18717 0.0
C60 C 0.9633 0.76732 0.18198 0.0
C61 C 0.94948 0.78196 0.19822 0.0
C62 C 0.96689 0.79335 0.21485 0.0
C63 C 0.99042 0.7848 0.20784 0.0
N64 N 0.04158 0.76876 0.19149 0.0
C65 C 0.03836 0.78424 0.21221 0.0
C66 C 0.06141 0.79131 0.22414 0.0
C67 C 0.07983 0.78025 0.21023 0.0
C68 C 0.0671 0.76691 0.19084 0.0
N69 N 0.04281 0.73387 0.14836 0.0
C70 C 0.06825 0.73702 0.15176 0.0
C71 C 0.08182 0.72166 0.13591 0.0
C72 C 0.06394 0.70748 0.1219 0.0
C73 C 0.0405 0.71508 0.13015 0.0
N74 N 0.01881 0.78038 0.14516 0.0
C75 C 0.02273 0.82588 0.11918 0.0
C76 C 0.04442 0.81445 0.12733 0.0
C77 C 0.04205 0.79189 0.14013 0.0
C78 C 0.99917 0.81338 0.12285 0.0
C79 C 0.99769 0.79074 0.13552 0.0
N80 N 0.01259 0.72249 0.19068 0.0
C81 C 0.03196 0.69365 0.21835 0.0
C82 C 0.00816 0.68503 0.22701 0.0
C83 C 0.9866 0.69471 0.21622 0.0
C84 C 0.98922 0.71317 0.19817 0.0
C85 C 0.03372 0.71216 0.20028 0.0
H86 H 0.9721 0.72006 0.19089 0.0
H87 H 0.05239 0.71815 0.19461 0.0
H88 H 0.05929 0.78461 0.14632 0.0
H89 H 0.97915 0.78239 0.13771 0.0
C90 C 0.95306 0.75176 0.16198 0.0
C91 C 0.01663 0.70235 0.1218 0.0
C92 C 0.01396 0.79261 0.22135 0.0
C93 C 0.07857 0.75221 0.17197 0.0
H94 H 0.9664 0.69079 0.10125 0.0
H95 H 0.93133 0.71792 0.12331 0.0
H96 H 0.92917 0.78407 0.19803 0.0
H97 H 0.9627 0.80649 0.23036 0.0
H98 H 0.06466 0.80312 0.24123 0.0
H99 H 0.10009 0.78159 0.21396 0.0
H100 H 0.1022 0.72004 0.1355 0.0
H101 H 0.06758 0.6925 0.10795 0.0
H102 H 0.06315 0.8234 0.12486 0.0
H103 H 0.98185 0.82123 0.11628 0.0
H104 H 0.04924 0.68632 0.22564 0.0
H105 H 0.96772 0.68876 0.22228 0.0
C106 C 0.36679 0.9735 0.28784 0.0
C107 C 0.37342 0.9489 0.29182 0.0
C108 C 0.36271 0.93392 0.27245 0.0
C109 C 0.35013 0.9501 0.25784 0.0
N110 N 0.35264 0.97462 0.26641 0.0
Co111 Co 0.3358 0.00418 0.25227 0.0
N112 N 0.31485 0.98141 0.22784 0.0
C113 C 0.31543 0.95586 0.22491 0.0
C114 C 0.29818 0.94526 0.20749 0.0
C115 C 0.28574 0.96519 0.19881 0.0
C116 C 0.29631 0.98696 0.21133 0.0
N117 N 0.31929 0.03384 0.23802 0.0
C118 C 0.30088 0.03455 0.22003 0.0
C119 C 0.29558 0.05933 0.21508 0.0
C120 C 0.31091 0.07479 0.23069 0.0
C121 C 0.3248 0.05869 0.24412 0.0
N122 N 0.35613 0.02679 0.27727 0.0
C123 C 0.35685 0.05242 0.2794 0.0
C124 C 0.37104 0.06248 0.29964 0.0
C125 C 0.37928 0.04201 0.31157 0.0
C126 C 0.36957 0.02062 0.29786 0.0
N127 N 0.36307 0.00763 0.22637 0.0
C128 C 0.39344 0.01477 0.18318 0.0
C129 C 0.39017 0.03467 0.20097 0.0
C130 C 0.37526 0.03066 0.22233 0.0
C131 C 0.38323 0.99073 0.18864 0.0
C132 C 0.36849 0.98759 0.21026 0.0
N133 N 0.30858 1.00081 0.27758 0.0
C134 C 0.27972 0.01979 0.30726 0.0
C135 C 0.26896 0.9959 0.31266 0.0
C136 C 0.27866 0.97453 0.30045 0.0
C137 C 0.29829 0.97739 0.28311 0.0
C138 C 0.29944 0.02179 0.28983 0.0
H139 H 0.30471 0.96041 0.27421 0.0
H140 H 0.30699 0.04048 0.28642 0.0
H141 H 0.37339 0.04673 0.2348 0.0
H142 H 0.36101 0.96888 0.2129 0.0
C143 C 0.33232 0.94236 0.23895 0.0
C144 C 0.37242 0.99487 0.30587 0.0
C145 C 0.28798 0.0124 0.20707 0.0
C146 C 0.34208 0.06628 0.26353 0.0
H147 H 0.38386 0.94222 0.30766 0.0
H148 H 0.36264 0.91344 0.27029 0.0
H149 H 0.29489 0.92538 0.20192 0.0
H150 H 0.27049 0.96377 0.18492 0.0
H151 H 0.28198 0.06563 0.2016 0.0
H152 H 0.31164 0.09531 0.23226 0.0
H153 H 0.37405 0.08228 0.30566 0.0
H154 H 0.39046 0.04266 0.32887 0.0
H155 H 0.39853 0.05349 0.19814 0.0
H156 H 0.38545 0.97454 0.17568 0.0
H157 H 0.27302 0.03687 0.31647 0.0
H158 H 0.27072 0.95565 0.30375 0.0
C159 C 0.64171 0.47923 0.22749 0.0
C160 C 0.62983 0.45639 0.21877 0.0
C161 C 0.64006 0.43787 0.23216 0.0
C162 C 0.65761 0.4504 0.24811 0.0
N163 N 0.65878 0.47587 0.24616 0.0
Co164 Co 0.68324 0.50128 0.26386 0.0
N165 N 0.70139 0.47376 0.28017 0.0
C166 C 0.69506 0.44857 0.27859 0.0
C167 C 0.71053 0.43444 0.29259 0.0
C168 C 0.72778 0.4516 0.30384 0.0
C169 C 0.7219 0.47532 0.29586 0.0
N170 N 0.70794 0.52678 0.281 0.0
C171 C 0.72839 0.52325 0.29583 0.0
C172 C 0.74136 0.54616 0.30274 0.0
C173 C 0.72835 0.5648 0.29233 0.0
C174 C 0.70844 0.55232 0.27948 0.0
N175 N 0.66483 0.52874 0.2478 0.0
C176 C 0.66908 0.55411 0.25155 0.0
C177 C 0.65375 0.56803 0.23711 0.0
C178 C 0.63922 0.5505 0.2229 0.0
C179 C 0.64667 0.52689 0.22952 0.0
N180 N 0.66057 0.50344 0.29392 0.0
C181 C 0.63684 0.50564 0.34171 0.0
C182 C 0.64584 0.52771 0.33038 0.0
C183 C 0.65737 0.52621 0.30668 0.0
C184 C 0.63805 0.48266 0.32773 0.0
C185 C 0.64967 0.48204 0.30401 0.0
N186 N 0.70625 0.49909 0.23434 0.0
C187 C 0.73495 0.51951 0.20509 0.0
C188 C 0.7434 0.49608 0.19623 0.0
C189 C 0.73189 0.47414 0.20594 0.0
C190 C 0.71343 0.47606 0.22472 0.0
C191 C 0.71646 0.52057 0.22391 0.0
H192 H 0.70561 0.45868 0.23163 0.0
H193 H 0.71101 0.53899 0.23008 0.0
H194 H 0.66416 0.54372 0.2995 0.0
H195 H 0.65027 0.46387 0.29466 0.0
C196 C 0.6748 0.43869 0.26337 0.0
C197 C 0.63784 0.50339 0.21618 0.0
C198 C 0.73618 0.49873 0.30391 0.0
C199 C 0.68986 0.5641 0.26595 0.0
H200 H 0.61588 0.45324 0.20371 0.0
H201 H 0.63603 0.4176 0.22973 0.0
H202 H 0.70941 0.41408 0.29439 0.0
H203 H 0.74292 0.44715 0.31656 0.0
H204 H 0.75849 0.54919 0.3141 0.0
H205 H 0.73292 0.58503 0.29388 0.0
H206 H 0.65411 0.58846 0.236 0.0
H207 H 0.62553 0.55453 0.20845 0.0
H208 H 0.64452 0.54614 0.33997 0.0
H209 H 0.6311 0.46499 0.33546 0.0
H210 H 0.74271 0.53705 0.19773 0.0
H211 H 0.73769 0.4555 0.1998 0.0
C212 C 0.30735 0.37658 0.98583 0.0
C213 C 0.3104 0.38819 0.96296 0.0
C214 C 0.29045 0.37908 0.94764 0.0
C215 C 0.27647 0.36237 0.96192 0.0
N216 N 0.28645 0.36057 0.98519 0.0
Co217 Co 0.27393 0.33764 0.01149 0.0
N218 N 0.25503 0.31509 0.9861 0.0
C219 C 0.24828 0.32146 0.96268 0.0
C220 C 0.23438 0.30236 0.94962 0.0
C221 C 0.23196 0.28296 0.96597 0.0
C222 C 0.24461 0.29131 0.98822 0.0
N223 N 0.26168 0.31491 0.0381 0.0
C224 C 0.25141 0.29089 0.03588 0.0
C225 C 0.24602 0.28171 0.0596 0.0
C226 C 0.25241 0.30101 0.07706 0.0
C227 C 0.26157 0.32077 0.06319 0.0
N228 N 0.29266 0.3604 0.03664 0.0
C229 C 0.28864 0.3622 0.06171 0.0
C230 C 0.3055 0.37937 0.07408 0.0
C231 C 0.32107 0.38874 0.05556 0.0
C232 C 0.31276 0.37665 0.03297 0.0
N233 N 0.24357 0.35726 0.01586 0.0
C234 C 0.1985 0.38306 0.01504 0.0
C235 C 0.198 0.35682 0.01745 0.0
C236 C 0.22053 0.34439 0.01786 0.0
C237 C 0.22219 0.39649 0.01461 0.0
C238 C 0.2446 0.38316 0.01502 0.0
N239 N 0.30376 0.31754 0.00675 0.0
C240 C 0.335 0.29111 0.02372 0.0
C241 C 0.34069 0.28183 0.99926 0.0
C242 C 0.32885 0.29225 0.97864 0.0
C243 C 0.31055 0.31004 0.98278 0.0
C244 C 0.3165 0.30902 0.02706 0.0
H245 H 0.30111 0.3169 0.96652 0.0
H246 H 0.3117 0.31513 0.04608 0.0
H247 H 0.21905 0.32411 0.01888 0.0
H248 H 0.26267 0.39365 0.01385 0.0
C249 C 0.25811 0.34406 0.9526 0.0
C250 C 0.32383 0.38116 0.00822 0.0
C251 C 0.2435 0.27758 0.01181 0.0
C252 C 0.27345 0.34349 0.07314 0.0
H253 H 0.32553 0.40147 0.95766 0.0
H254 H 0.2875 0.38293 0.92793 0.0
H255 H 0.22723 0.30234 0.93038 0.0
H256 H 0.22151 0.265 0.96216 0.0
H257 H 0.23776 0.26321 0.06384 0.0
H258 H 0.25113 0.30044 0.09745 0.0
H259 H 0.30736 0.38337 0.09429 0.0
H260 H 0.33692 0.40248 0.05832 0.0
H261 H 0.18016 0.34576 0.01856 0.0
H262 H 0.22338 0.41688 0.01304 0.0
H263 H 0.34377 0.28366 0.04021 0.0
H264 H 0.3331 0.28611 0.95938 0.0
C265 C 0.2197 0.62523 0.47716 0.0
C266 C 0.2149 0.61331 0.45355 0.0
C267 C 0.23239 0.62346 0.43746 0.0
C268 C 0.2467 0.64101 0.45207 0.0
N269 N 0.23981 0.64228 0.47666 0.0
Co270 Co 0.25377 0.66672 0.50408 0.0
N271 N 0.2761 0.68494 0.47947 0.0
C272 C 0.27905 0.67863 0.45461 0.0
C273 C 0.29614 0.69438 0.44271 0.0
C274 C 0.3046 0.71186 0.46103 0.0
C275 C 0.29198 0.7058 0.48312 0.0
N276 N 0.26727 0.69136 0.5315 0.0
C277 C 0.28348 0.71201 0.53009 0.0
C278 C 0.28694 0.72474 0.55355 0.0
C279 C 0.27268 0.71149 0.57039 0.0
C280 C 0.26119 0.69163 0.55634 0.0
N281 N 0.23153 0.64834 0.52863 0.0
C282 C 0.23058 0.65261 0.55401 0.0
C283 C 0.21265 0.63741 0.56552 0.0
C284 C 0.20108 0.62295 0.54626 0.0
C285 C 0.21266 0.63032 0.5241 0.0
N286 N 0.28201 0.64406 0.51101 0.0
C287 C 0.32753 0.62004 0.52114 0.0
C288 C 0.31205 0.62853 0.54077 0.0
C289 C 0.2896 0.64022 0.53534 0.0
C290 C 0.31874 0.62197 0.49633 0.0
C291 C 0.29603 0.63371 0.49176 0.0
N292 N 0.22612 0.6897 0.49727 0.0
C293 C 0.19458 0.71817 0.51264 0.0
C294 C 0.1907 0.72665 0.4883 0.0
C295 C 0.20403 0.71536 0.46836 0.0
C296 C 0.22133 0.69692 0.47319 0.0
C297 C 0.21222 0.69985 0.51667 0.0
H298 H 0.231 0.68905 0.45725 0.0
H299 H 0.21474 0.69457 0.53573 0.0
H300 H 0.27915 0.64656 0.55125 0.0
H301 H 0.29072 0.63479 0.47245 0.0
C302 C 0.26491 0.65828 0.44279 0.0
C303 C 0.20359 0.62134 0.49908 0.0
C304 C 0.29582 0.72036 0.50705 0.0
C305 C 0.24433 0.67319 0.5659 0.0
H306 H 0.19981 0.5994 0.44821 0.0
H307 H 0.2337 0.61942 0.41727 0.0
H308 H 0.30166 0.69337 0.42303 0.0
H309 H 0.31848 0.72732 0.4584 0.0
H310 H 0.29844 0.74194 0.55807 0.0
H311 H 0.27073 0.71595 0.59044 0.0
H312 H 0.20765 0.63777 0.58535 0.0
H313 H 0.1852 0.60933 0.54809 0.0
H314 H 0.31744 0.62663 0.56037 0.0
H315 H 0.32979 0.61546 0.48036 0.0
H316 H 0.18475 0.7263 0.52873 0.0
H317 H 0.20126 0.72084 0.44908 0.0
C318 C 0.78805 0.84615 0.46934 0.0
C319 C 0.79336 0.8526 0.44473 0.0
C320 C 0.77615 0.83891 0.42945 0.0
C321 C 0.76134 0.82501 0.44557 0.0
N322 N 0.76764 0.82951 0.47029 0.0
Co323 Co 0.75256 0.8122 0.50009 0.0
N324 N 0.73094 0.78814 0.47752 0.0
C325 C 0.72916 0.78802 0.45195 0.0
C326 C 0.7131 0.76897 0.44168 0.0
C327 C 0.7041 0.75611 0.46186 0.0
C328 C 0.71515 0.76818 0.48339 0.0
N329 N 0.73778 0.79479 0.52996 0.0
C330 C 0.72124 0.77433 0.53089 0.0
C331 C 0.71551 0.76869 0.55569 0.0
C332 C 0.72918 0.78595 0.57096 0.0
C333 C 0.74231 0.80117 0.55472 0.0
N334 N 0.77433 0.83618 0.52258 0.0
C335 C 0.77437 0.83803 0.54818 0.0
C336 C 0.79276 0.85482 0.55836 0.0
C337 C 0.80565 0.86386 0.53811 0.0
C338 C 0.7942 0.85211 0.51659 0.0
N339 N 0.72434 0.83613 0.50144 0.0
C340 C 0.67879 0.86212 0.5037 0.0
C341 C 0.69313 0.85898 0.52556 0.0
C342 C 0.71574 0.84619 0.52399 0.0
C343 C 0.6887 0.85385 0.48057 0.0
C344 C 0.71133 0.84128 0.47987 0.0
N345 N 0.78021 0.7882 0.49864 0.0
C346 C 0.8117 0.76429 0.51924 0.0
C347 C 0.81862 0.75304 0.496 0.0
C348 C 0.80612 0.75994 0.47417 0.0
C349 C 0.78716 0.77732 0.47591 0.0
C350 C 0.79265 0.78184 0.52011 0.0
H351 H 0.77817 0.78151 0.4586 0.0
H352 H 0.78815 0.78998 0.53831 0.0
H353 H 0.72546 0.84413 0.54138 0.0
H354 H 0.7174 0.83541 0.4616 0.0
C355 C 0.74358 0.80543 0.43803 0.0
C356 C 0.80393 0.85496 0.49102 0.0
C357 C 0.71042 0.75973 0.50894 0.0
C358 C 0.75937 0.82127 0.56212 0.0
H359 H 0.80871 0.86516 0.43846 0.0
H360 H 0.7754 0.83817 0.40896 0.0
H361 H 0.70874 0.7647 0.42186 0.0
H362 H 0.69105 0.73957 0.46079 0.0
H363 H 0.70276 0.75364 0.56213 0.0
H364 H 0.7296 0.78718 0.59145 0.0
H365 H 0.79725 0.85886 0.5782 0.0
H366 H 0.82225 0.87676 0.53932 0.0
H367 H 0.68645 0.86538 0.54397 0.0
H368 H 0.67878 0.85664 0.46297 0.0
H369 H 0.82099 0.75968 0.53666 0.0
H370 H 0.81046 0.75148 0.45577 0.0
C371 C 0.48466 0.80316 0.86692 0.0
C372 C 0.46077 0.80941 0.87519 0.0
C373 C 0.44415 0.79013 0.86672 0.0
C374 C 0.45872 0.77336 0.85362 0.0
N375 N 0.48377 0.78042 0.85376 0.0
Co376 Co 0.51118 0.76354 0.83409 0.0
N377 N 0.48613 0.73799 0.81749 0.0
C378 C 0.46109 0.73495 0.82271 0.0
C379 C 0.44889 0.71509 0.80921 0.0
C380 C 0.46724 0.70473 0.79456 0.0
C381 C 0.48966 0.71904 0.79985 0.0
N382 N 0.53855 0.74758 0.81369 0.0
C383 C 0.53702 0.72856 0.79555 0.0
C384 C 0.56063 0.7245 0.78501 0.0
C385 C 0.5777 0.74114 0.79727 0.0
C386 C 0.56363 0.75459 0.8143 0.0
N387 N 0.53626 0.78862 0.85119 0.0
C388 C 0.56184 0.78902 0.84952 0.0
C389 C 0.57397 0.80891 0.86307 0.0
C390 C 0.55495 0.82233 0.87359 0.0
C391 C 0.53227 0.80985 0.86564 0.0
N392 N 0.5161 0.73926 0.86147 0.0
C393 C 0.52093 0.69651 0.89107 0.0
C394 C 0.54228 0.70883 0.88073 0.0
C395 C 0.53947 0.7301 0.86625 0.0
C396 C 0.49759 0.70742 0.8884 0.0
C397 C 0.4957 0.72881 0.87402 0.0
N398 N 0.50613 0.78712 0.80663 0.0
C399 C 0.52275 0.81663 0.77637 0.0
C400 C 0.49856 0.81836 0.76572 0.0
C401 C 0.47819 0.80486 0.7765 0.0
C402 C 0.48234 0.78957 0.79677 0.0
C403 C 0.52611 0.80095 0.7967 0.0
H404 H 0.46603 0.77967 0.80403 0.0
H405 H 0.54502 0.79999 0.80392 0.0
H406 H 0.5564 0.73816 0.8584 0.0
H407 H 0.47731 0.73592 0.87277 0.0
C408 C 0.4493 0.75197 0.83927 0.0
C409 C 0.50749 0.81992 0.87063 0.0
C410 C 0.51384 0.71365 0.78792 0.0
C411 C 0.57348 0.77335 0.83165 0.0
H412 H 0.45567 0.82649 0.88555 0.0
H413 H 0.42372 0.78904 0.86887 0.0
H414 H 0.42898 0.709 0.80978 0.0
H415 H 0.46443 0.68845 0.78148 0.0
H416 H 0.56517 0.71087 0.77006 0.0
H417 H 0.59797 0.74313 0.79419 0.0
H418 H 0.59413 0.81399 0.86388 0.0
H419 H 0.55742 0.83992 0.88487 0.0
H420 H 0.56091 0.70137 0.88265 0.0
H421 H 0.48064 0.69912 0.89689 0.0
H422 H 0.53913 0.82672 0.76863 0.0
H423 H 0.45901 0.80601 0.76929 0.0
C424 C 0.54441 0.29094 0.6525 0.0
C425 C 0.56742 0.29729 0.64121 0.0
C426 C 0.58328 0.2782 0.64603 0.0
C427 C 0.56919 0.26137 0.66006 0.0
N428 N 0.54552 0.26879 0.66424 0.0
Co429 Co 0.51928 0.25136 0.68473 0.0
N430 N 0.54502 0.23264 0.70271 0.0
C431 C 0.56889 0.22917 0.69487 0.0
C432 C 0.58242 0.21552 0.71129 0.0
C433 C 0.56591 0.2098 0.73043 0.0
C434 C 0.54304 0.22016 0.72451 0.0
N435 N 0.49279 0.23392 0.70496 0.0
C436 C 0.49505 0.2211 0.72641 0.0
C437 C 0.47154 0.21086 0.73367 0.0
C438 C 0.45414 0.21743 0.71601 0.0
C439 C 0.46788 0.23121 0.69893 0.0
N440 N 0.49374 0.2701 0.66676 0.0
C441 C 0.46879 0.2637 0.66445 0.0
C442 C 0.45595 0.28105 0.65136 0.0
C443 C 0.47407 0.2994 0.64517 0.0
C444 C 0.49692 0.29216 0.65493 0.0
N445 N 0.51587 0.22371 0.65898 0.0
C446 C 0.50986 0.18349 0.6232 0.0
C447 C 0.5106 0.20849 0.61553 0.0
C448 C 0.51392 0.22845 0.63381 0.0
C449 C 0.51236 0.17894 0.64884 0.0
C450 C 0.51515 0.19923 0.6664 0.0
N451 N 0.52271 0.27878 0.71049 0.0
C452 C 0.50373 0.30777 0.74009 0.0
C453 C 0.52781 0.31612 0.74936 0.0
C454 C 0.54928 0.30607 0.73819 0.0
C455 C 0.54633 0.2875 0.71873 0.0
C456 C 0.50159 0.28899 0.72069 0.0
H457 H 0.56316 0.27987 0.71065 0.0
H458 H 0.48285 0.28235 0.71426 0.0
H459 H 0.51462 0.24769 0.62767 0.0
H460 H 0.51642 0.19499 0.68606 0.0
C461 C 0.57893 0.2423 0.67437 0.0
C462 C 0.52158 0.30568 0.65166 0.0
C463 C 0.5193 0.21591 0.73861 0.0
C464 C 0.45775 0.24483 0.67935 0.0
H465 H 0.57247 0.31408 0.63101 0.0
H466 H 0.60319 0.27758 0.6413 0.0
H467 H 0.60216 0.21097 0.70998 0.0
H468 H 0.5702 0.19901 0.74669 0.0
H469 H 0.46743 0.1994 0.74975 0.0
H470 H 0.43383 0.21314 0.71599 0.0
H471 H 0.43569 0.28114 0.64793 0.0
H472 H 0.47087 0.31618 0.63483 0.0
H473 H 0.50851 0.21251 0.59574 0.0
H474 H 0.51152 0.15974 0.65532 0.0
H475 H 0.48667 0.31498 0.7484 0.0
H476 H 0.56824 0.31229 0.74467 0.0
C477 C 0.877 0.48305 0.79427 0.0
C478 C 0.88463 0.45918 0.79977 0.0
C479 C 0.87153 0.44226 0.78356 0.0
C480 C 0.8568 0.45675 0.76908 0.0
N481 N 0.86023 0.48193 0.77465 0.0
Co482 Co 0.84185 0.50987 0.75949 0.0
N483 N 0.81768 0.48499 0.74062 0.0
C484 C 0.8179 0.45936 0.74038 0.0
C485 C 0.79823 0.44726 0.72681 0.0
C486 C 0.7845 0.46625 0.71798 0.0
C487 C 0.79677 0.48899 0.72652 0.0
N488 N 0.82363 0.5379 0.74418 0.0
C489 C 0.80261 0.53694 0.72914 0.0
C490 C 0.79669 0.56097 0.72213 0.0
C491 C 0.81434 0.5777 0.73344 0.0
C492 C 0.83009 0.56303 0.74653 0.0
N493 N 0.86551 0.53467 0.77911 0.0
C494 C 0.86656 0.56025 0.77816 0.0
C495 C 0.88272 0.57232 0.79578 0.0
C496 C 0.89203 0.55338 0.80929 0.0
C497 C 0.88113 0.53071 0.79893 0.0
N498 N 0.86533 0.50948 0.72993 0.0
C499 C 0.89072 0.5104 0.68303 0.0
C500 C 0.88947 0.53236 0.69859 0.0
C501 C 0.87705 0.53143 0.72183 0.0
C502 C 0.88092 0.48762 0.69229 0.0
C503 C 0.8686 0.48758 0.71562 0.0
N504 N 0.8184 0.51027 0.78844 0.0
C505 C 0.79395 0.53337 0.8193 0.0
C506 C 0.7834 0.51071 0.82833 0.0
C507 C 0.79121 0.48785 0.81741 0.0
C508 C 0.80863 0.48806 0.79769 0.0
C509 C 0.8113 0.53273 0.79948 0.0
H510 H 0.8137 0.47004 0.78993 0.0
H511 H 0.81862 0.55058 0.79318 0.0
H512 H 0.87674 0.5489 0.73248 0.0
H513 H 0.86127 0.46963 0.72113 0.0
C514 C 0.83658 0.44723 0.75354 0.0
C515 C 0.88449 0.50599 0.80949 0.0
C516 C 0.78766 0.51386 0.72105 0.0
C517 C 0.84987 0.57239 0.76267 0.0
H518 H 0.89742 0.45446 0.81476 0.0
H519 H 0.87146 0.42177 0.78353 0.0
H520 H 0.79414 0.42703 0.72398 0.0
H521 H 0.76727 0.46359 0.70672 0.0
H522 H 0.78111 0.56595 0.71021 0.0
H523 H 0.81528 0.59817 0.73263 0.0
H524 H 0.88616 0.59255 0.79937 0.0
H525 H 0.90456 0.55621 0.82554 0.0
H526 H 0.89758 0.55039 0.69266 0.0
H527 H 0.88161 0.46999 0.68111 0.0
H528 H 0.78879 0.55157 0.82739 0.0
H529 H 0.78337 0.46977 0.82348 0.0
C530 C 0.16262 0.03307 0.79071 0.0
C531 C 0.15875 0.0579 0.79891 0.0
C532 C 0.16883 0.07313 0.78094 0.0
C533 C 0.17844 0.05685 0.76297 0.0
N534 N 0.17457 0.03207 0.76806 0.0
Co535 Co 0.18812 0.00222 0.74865 0.0
N536 N 0.20695 0.02476 0.72476 0.0
C537 C 0.20567 0.05021 0.72367 0.0
C538 C 0.22085 0.06056 0.70548 0.0
C539 C 0.23258 0.04059 0.69431 0.0
C540 C 0.22379 0.01904 0.70632 0.0
N541 N 0.20261 0.97239 0.73007 0.0
C542 C 0.22038 0.97163 0.71165 0.0
C543 C 0.22566 0.94685 0.70453 0.0
C544 C 0.21104 0.93143 0.71926 0.0
C545 C 0.19769 0.94758 0.73444 0.0
N546 N 0.16884 0.97966 0.77208 0.0
C547 C 0.16625 0.95404 0.77038 0.0
C548 C 0.15236 0.94387 0.78964 0.0
C549 C 0.14609 0.96418 0.80477 0.0
C550 C 0.15669 0.98563 0.79388 0.0
N551 N 0.15839 1.00049 0.72497 0.0
C552 C 0.12426 0.9987 0.68365 0.0
C553 C 0.13198 0.97641 0.69384 0.0
C554 C 0.14874 0.97774 0.71448 0.0
C555 C 0.13176 0.02174 0.69608 0.0
C556 C 0.14843 0.02216 0.71672 0.0
N557 N 0.21766 0.00402 0.77179 0.0
C558 C 0.24613 0.98405 0.79975 0.0
C559 C 0.26063 0.00682 0.80348 0.0
C560 C 0.25298 0.02822 0.79158 0.0
C561 C 0.23155 0.02644 0.776 0.0
C562 C 0.22485 0.98303 0.78377 0.0
H563 H 0.22662 0.0434 0.76743 0.0
H564 H 0.21457 0.9651 0.78114 0.0
H565 H 0.15424 0.96008 0.72088 0.0
H566 H 0.1535 0.04038 0.72499 0.0
C567 C 0.19257 0.06416 0.74198 0.0
C568 C 0.15592 0.0111 0.8056 0.0
C569 C 0.23271 0.99374 0.70029 0.0
C570 C 0.18043 0.94009 0.75299 0.0
H571 H 0.1502 0.06444 0.81638 0.0
H572 H 0.16992 0.09367 0.78141 0.0
H573 H 0.22383 0.08041 0.70149 0.0
H574 H 0.2465 0.0419 0.67943 0.0
H575 H 0.23878 0.94056 0.69021 0.0
H576 H 0.21036 0.91091 0.71904 0.0
H577 H 0.14848 0.92399 0.79305 0.0
H578 H 0.1357 0.96329 0.82233 0.0
H579 H 0.12638 0.95802 0.68506 0.0
H580 H 0.1255 0.03948 0.68938 0.0
H581 H 0.25151 0.96701 0.80861 0.0
H582 H 0.26346 0.04636 0.79434 0.0
C583 C 0.73487 0.14453 0.97274 0.0
C584 C 0.72681 0.13305 0.94976 0.0
C585 C 0.74141 0.14399 0.93157 0.0
C586 C 0.75752 0.16135 0.94449 0.0
N587 N 0.75442 0.16175 0.96986 0.0
Co588 Co 0.77309 0.18426 0.99598 0.0
N589 N 0.7904 0.20439 0.96918 0.0
C590 C 0.78777 0.20056 0.94378 0.0
C591 C 0.8013 0.21809 0.93023 0.0
C592 C 0.81317 0.23418 0.94801 0.0
C593 C 0.80628 0.22537 0.97148 0.0
N594 N 0.79216 0.20635 0.0222 0.0
C595 C 0.80852 0.22662 0.01943 0.0
C596 C 0.81845 0.23608 0.04259 0.0
C597 C 0.80776 0.22139 0.06065 0.0
C598 C 0.7921 0.20379 0.04755 0.0
N599 N 0.75496 0.16462 0.0227 0.0
C600 C 0.75821 0.16763 0.04808 0.0
C601 C 0.74139 0.15302 0.06157 0.0
C602 C 0.72603 0.14038 0.04377 0.0
C603 C 0.73458 0.14791 0.02036 0.0
N604 N 0.80165 0.16074 0.99565 0.0
C605 C 0.84807 0.13627 0.99653 0.0
C606 C 0.83388 0.13963 0.01852 0.0
C607 C 0.81088 0.15165 0.01763 0.0
C608 C 0.83759 0.14344 0.97379 0.0
C609 C 0.81444 0.1552 0.97374 0.0
N610 N 0.74522 0.20809 0.99634 0.0
C611 C 0.71989 0.23825 0.01916 0.0
C612 C 0.70959 0.24621 0.99655 0.0
C613 C 0.71661 0.23377 0.97392 0.0
C614 C 0.73421 0.21483 0.97426 0.0
C615 C 0.73747 0.2193 0.01864 0.0
H616 H 0.73912 0.20627 0.95639 0.0
H617 H 0.74493 0.21428 0.03646 0.0
H618 H 0.80142 0.15396 0.03517 0.0
H619 H 0.80775 0.16018 0.95576 0.0
C620 C 0.77271 0.18011 0.93327 0.0
C621 C 0.72183 0.14029 0.99647 0.0
C622 C 0.81508 0.23764 0.9954 0.0
C623 C 0.77585 0.18583 0.05863 0.0
H624 H 0.71121 0.11909 0.94649 0.0
H625 H 0.73945 0.14076 0.91127 0.0
H626 H 0.80235 0.21909 0.90986 0.0
H627 H 0.82545 0.25059 0.94413 0.0
H628 H 0.83192 0.25206 0.0461 0.0
H629 H 0.81072 0.22354 0.08093 0.0
H630 H 0.73975 0.1525 0.08194 0.0
H631 H 0.7099 0.12774 0.04774 0.0
H632 H 0.84099 0.13409 0.03662 0.0
H633 H 0.84742 0.1404 0.95608 0.0
H634 H 0.71461 0.24672 0.03726 0.0
H635 H 0.70929 0.23915 0.95586 0.0
O636 O 0.12047 0.04662 0.09873 0.0
Zn637 Zn 0.08562 0.0534 0.08551 0.0
O638 O 0.08799 0.06635 0.05162 0.0
Zn639 Zn 0.07636 0.10089 0.05214 0.0
Zn640 Zn 0.12311 0.06595 0.04016 0.0
Zn641 Zn 0.0665 0.04481 0.02843 0.0
O642 O 0.04305 0.10208 0.03303 0.0
O643 O 0.03383 0.06178 0.02097 0.0
O644 O 0.0701 0.07838 0.11033 0.0
O645 O 0.06858 0.11284 0.08793 0.0
O646 O 0.10328 0.12554 0.03874 0.0
O647 O 0.13662 0.10158 0.03551 0.0
O648 O 0.12519 0.04837 0.00533 0.0
O649 O 0.06591 0.01969 0.08475 0.0
O650 O 0.0848 0.03798 0.99548 0.0
O651 O 0.05738 0.01127 0.04391 0.0
C652 C 0.14246 0.04563 0.089 0.0
C653 C 0.02779 0.08484 0.02305 0.0
C654 C 0.1268 0.123 0.03433 0.0
C655 C 0.06563 0.10174 0.1087 0.0
C656 C 0.10821 0.03957 0.98947 0.0
C657 C 0.05721 0.0047 0.06682 0.0
O658 O 0.1463 0.05128 0.06607 0.0
O659 O 0.91928 0.47492 0.09741 0.0
Zn660 Zn 0.95546 0.46988 0.08687 0.0
O661 O 0.95675 0.45559 0.05224 0.0
Zn662 Zn 0.97035 0.422 0.05274 0.0
Zn663 Zn 0.92248 0.45397 0.03768 0.0
Zn664 Zn 0.97891 0.47661 0.03131 0.0
O665 O 0.00484 0.42136 0.03656 0.0
O666 O 0.01267 0.46087 0.02509 0.0
O667 O 0.97017 0.44686 0.11227 0.0
O668 O 0.97613 0.41201 0.0885 0.0
O669 O 0.94612 0.39571 0.03581 0.0
O670 O 0.91251 0.41782 0.02765 0.0
O671 O 0.92124 0.47259 0.00513 0.0
O672 O 0.97369 0.50428 0.08891 0.0
O673 O 0.96193 0.48229 0.99748 0.0
O674 O 0.98668 0.51033 0.04957 0.0
C675 C 0.89781 0.47318 0.08606 0.0
C676 C 0.01974 0.43841 0.02758 0.0
C677 C 0.92355 0.39695 0.02733 0.0
C678 C 0.97643 0.42389 0.11002 0.0
C679 C 0.93862 0.48105 0.99061 0.0
C680 C 0.9843 0.51821 0.07253 0.0
O681 O 0.89602 0.46615 0.06268 0.0
O682 O 0.09547 0.89968 0.46294 0.0
Zn683 Zn 0.08468 0.9352 0.45741 0.0
O684 O 0.05101 0.93456 0.44193 0.0
Zn685 Zn 0.05351 0.94778 0.40817 0.0
Zn686 Zn 0.0369 0.89956 0.44039 0.0
Zn687 Zn 0.0287 0.95593 0.46175 0.0
O688 O 0.03682 0.98103 0.40593 0.0
O689 O 0.02375 0.98935 0.44508 0.0
O690 O 0.11139 0.9514 0.43523 0.0
O691 O 0.09003 0.95561 0.39947 0.0
O692 O 0.03885 0.92243 0.38185 0.0
O693 O 0.03087 0.88819 0.40404 0.0
O694 O 0.00242 0.8971 0.45692 0.0
O695 O 0.08426 0.95361 0.49146 0.0
O696 O 0.99439 0.93745 0.4659 0.0
O697 O 0.0442 0.96416 0.49632 0.0
C698 C 0.08414 0.87774 0.46176 0.0
C699 C 0.02712 0.9959 0.42237 0.0
C700 C 0.03159 0.89914 0.38307 0.0
C701 C 0.11072 0.95733 0.41215 0.0
C702 C 0.98735 0.91393 0.46446 0.0
C703 C 0.06679 0.96307 0.50484 0.0
O704 O 0.06095 0.87476 0.4547 0.0
O705 O 0.97823 0.59042 0.40061 0.0
Zn706 Zn 0.9722 0.58039 0.43651 0.0
O707 O 0.9574 0.54579 0.43718 0.0
Zn708 Zn 0.92369 0.54661 0.45193 0.0
Zn709 Zn 0.95497 0.53137 0.40258 0.0
Zn710 Zn 0.97836 0.52468 0.45755 0.0
O711 O 0.92274 0.53048 0.48552 0.0
O712 O 0.96192 0.51838 0.49159 0.0
O713 O 0.94936 0.60625 0.45266 0.0
O714 O 0.9143 0.58255 0.45948 0.0
O715 O 0.89684 0.53013 0.42841 0.0
O716 O 0.91844 0.52436 0.39289 0.0
O717 O 0.97053 0.49734 0.39983 0.0
O718 O 0.00652 0.58233 0.45341 0.0
O719 O 0.98333 0.49059 0.43898 0.0
O720 O 0.0126 0.54296 0.46455 0.0
C721 C 0.97734 0.57857 0.37907 0.0
C722 C 0.93937 0.52116 0.49944 0.0
C723 C 0.89765 0.52352 0.40498 0.0
C724 C 0.92634 0.6041 0.45988 0.0
C725 C 0.97988 0.48302 0.41587 0.0
C726 C 0.02053 0.56603 0.46264 0.0
O727 O 0.96993 0.5552 0.3769 0.0
O728 O 0.40398 0.96417 0.59586 0.0
Zn729 Zn 0.43962 0.95852 0.58425 0.0
O730 O 0.4392 0.94207 0.55042 0.0
Zn731 Zn 0.45187 0.9083 0.55244 0.0
Zn732 Zn 0.40434 0.94005 0.53708 0.0
Zn733 Zn 0.4614 0.96121 0.52781 0.0
O734 O 0.4855 0.90544 0.53514 0.0
O735 O 0.49458 0.94398 0.52156 0.0
O736 O 0.45567 0.93714 0.61058 0.0
O737 O 0.45878 0.90066 0.5886 0.0
O738 O 0.42662 0.8815 0.53817 0.0
O739 O 0.39275 0.90349 0.53086 0.0
O740 O 0.40282 0.95566 0.50269 0.0
O741 O 0.45692 0.99333 0.58319 0.0
O742 O 0.44335 0.96558 0.49436 0.0
O743 O 0.46997 0.99606 0.54343 0.0
C744 C 0.38211 0.96278 0.58531 0.0
C745 C 0.50076 0.92134 0.52491 0.0
C746 C 0.40351 0.88249 0.53126 0.0
C747 C 0.46083 0.91379 0.60938 0.0
C748 C 0.41999 0.96362 0.48762 0.0
C749 C 0.46731 0.00589 0.56563 0.0
O750 O 0.37922 0.955 0.5622 0.0
O751 O 0.60528 0.53704 0.6325 0.0
Zn752 Zn 0.56885 0.54079 0.62133 0.0
O753 O 0.56771 0.55164 0.58638 0.0
Zn754 Zn 0.55528 0.5857 0.58576 0.0
Zn755 Zn 0.60182 0.55178 0.57232 0.0
Zn756 Zn 0.54505 0.5284 0.56564 0.0
O757 O 0.52108 0.58512 0.56837 0.0
O758 O 0.51149 0.54441 0.5585 0.0
O759 O 0.55362 0.56672 0.64597 0.0
O760 O 0.54949 0.59915 0.62119 0.0
O761 O 0.58006 0.61038 0.5692 0.0
O762 O 0.61317 0.58682 0.56246 0.0
O763 O 0.60229 0.53081 0.53963 0.0
O764 O 0.55167 0.50568 0.62332 0.0
O765 O 0.56159 0.52001 0.53178 0.0
O766 O 0.53824 0.49571 0.58395 0.0
C767 C 0.62643 0.53672 0.62096 0.0
C768 C 0.5055 0.56753 0.55966 0.0
C769 C 0.60269 0.60792 0.5615 0.0
C770 C 0.54828 0.5897 0.64292 0.0
C771 C 0.58477 0.5211 0.52492 0.0
C772 C 0.54146 0.48979 0.60687 0.0
O773 O 0.62781 0.5409 0.59744 0.0
O774 O 0.61646 0.42243 0.98545 0.0
Zn775 Zn 0.60606 0.45846 0.98224 0.0
O776 O 0.5719 0.45941 0.96811 0.0
Zn777 Zn 0.57353 0.4738 0.93482 0.0
Zn778 Zn 0.55741 0.42466 0.96534 0.0
Zn779 Zn 0.55058 0.48039 0.98981 0.0
O780 O 0.55605 0.50667 0.93422 0.0
O781 O 0.54469 0.5143 0.9741 0.0
O782 O 0.63233 0.47559 0.96021 0.0
O783 O 0.60975 0.48235 0.9258 0.0
O784 O 0.55897 0.44933 0.90755 0.0
O785 O 0.55053 0.41476 0.92897 0.0
O786 O 0.52333 0.4221 0.98201 0.0
O787 O 0.60696 0.47458 0.01729 0.0
O788 O 0.51625 0.4617 0.99502 0.0
O789 O 0.56793 0.48743 0.0239 0.0
C790 C 0.60456 0.40078 0.98401 0.0
C791 C 0.54685 0.52115 0.95133 0.0
C792 C 0.55129 0.42612 0.90827 0.0
C793 C 0.63089 0.48303 0.93768 0.0
C794 C 0.50877 0.43837 0.99167 0.0
C795 C 0.59053 0.48452 0.03166 0.0
O796 O 0.58107 0.39867 0.97795 0.0
O797 O 0.49716 0.11476 0.91025 0.0
Zn798 Zn 0.48988 0.10353 0.94559 0.0
O799 O 0.47459 0.06903 0.9443 0.0
Zn800 Zn 0.44035 0.07001 0.95764 0.0
Zn801 Zn 0.47376 0.05533 0.90937 0.0
Zn802 Zn 0.49426 0.04705 0.96478 0.0
O803 O 0.43821 0.05403 0.99131 0.0
O804 O 0.47672 0.04053 0.99822 0.0
O805 O 0.46657 0.12926 0.96122 0.0
O806 O 0.43053 0.10598 0.96412 0.0
O807 O 0.41463 0.05276 0.9334 0.0
O808 O 0.43777 0.04657 0.89896 0.0
O809 O 0.49006 0.02146 0.90607 0.0
O810 O 0.52342 0.10454 0.96408 0.0
O811 O 0.49874 0.01316 0.94594 0.0
O812 O 0.52877 0.06421 0.97249 0.0
C813 C 0.49591 0.10409 0.88814 0.0
C814 C 0.45408 0.04393 0.00551 0.0
C815 C 0.41655 0.04532 0.91028 0.0
C816 C 0.44291 0.12735 0.96611 0.0
C817 C 0.49723 0.00629 0.92249 0.0
C818 C 0.53698 0.08736 0.97236 0.0
O819 O 0.48808 0.08089 0.88474 0.0
H820 H 0.0403 0.15817 0.40391 0.0
H821 H 0.98189 0.132 0.34977 0.0
H822 H 0.04205 0.11503 0.41881 0.0
H823 H 0.98349 0.08911 0.36477 0.0
H824 H 0.02155 0.01275 0.37469 0.0
H825 H 0.01599 0.05602 0.36237 0.0
H826 H 0.01486 0.08145 0.44108 0.0
H827 H 0.02035 0.03796 0.45355 0.0
C828 C 0.02777 0.14325 0.3953 0.0
C829 C 0.01096 0.14852 0.37568 0.0
C830 C 0.02861 0.11862 0.40396 0.0
C831 C 0.01292 0.09867 0.39294 0.0
C832 C 0.99593 0.10403 0.37354 0.0
C833 C 0.99487 0.12865 0.3651 0.0
C834 C 0.01987 0.02748 0.38942 0.0
C835 C 0.0214 0.02185 0.41512 0.0
C836 C 0.01659 0.05228 0.38234 0.0
C837 C 0.01505 0.07216 0.40075 0.0
C838 C 0.01619 0.06654 0.42648 0.0
C839 C 0.01912 0.0416 0.43359 0.0
H840 H 0.98055 0.318 0.40353 0.0
H841 H 0.01401 0.34147 0.33368 0.0
H842 H 0.97703 0.36255 0.41758 0.0
H843 H 0.01127 0.38599 0.34776 0.0
H844 H 0.97473 0.46079 0.36825 0.0
H845 H 0.97986 0.41676 0.35501 0.0
H846 H 0.00214 0.40074 0.43119 0.0
H847 H 0.99645 0.44491 0.44468 0.0
C848 C 0.98705 0.3328 0.39122 0.0
C849 C 0.99714 0.32651 0.36742 0.0
C850 C 0.98534 0.35827 0.39932 0.0
C851 C 0.99381 0.37793 0.38379 0.0
C852 C 0.00418 0.37142 0.36005 0.0
C853 C 0.00586 0.34599 0.352 0.0
C854 C 0.98089 0.448 0.38222 0.0
C855 C 0.98514 0.45651 0.40759 0.0
C856 C 0.98396 0.42268 0.37456 0.0
C857 C 0.99138 0.4051 0.39201 0.0
C858 C 0.99606 0.41366 0.4173 0.0
C859 C 0.99301 0.43907 0.425 0.0
H860 H 0.99388 0.86597 0.13093 0.0
H861 H 0.05607 0.8435 0.0837 0.0
H862 H 0.99911 0.9091 0.1163 0.0
H863 H 0.06148 0.8868 0.06927 0.0
H864 H 0.04985 0.96326 0.03402 0.0
H865 H 0.0389 0.91945 0.04462 0.0
H866 H 0.03381 0.94335 0.12351 0.0
H867 H 0.04475 0.98701 0.11306 0.0
C868 C 0.0084 0.87016 0.11711 0.0
C869 C 0.0246 0.85138 0.10848 0.0
C870 C 0.01152 0.89488 0.10892 0.0
C871 C 0.03075 0.9013 0.09174 0.0
C872 C 0.04638 0.88233 0.08239 0.0
C873 C 0.04343 0.85763 0.09079 0.0
C874 C 0.04608 0.95921 0.05358 0.0
C875 C 0.04825 0.97861 0.07272 0.0
C876 C 0.03998 0.93412 0.05964 0.0
C877 C 0.03556 0.92802 0.08487 0.0
C878 C 0.03689 0.94753 0.10386 0.0
C879 C 0.04329 0.97252 0.09788 0.0
H880 H 0.00611 0.68094 0.07478 0.0
H881 H 0.02642 0.66328 0.15087 0.0
H882 H 0.00144 0.63561 0.06283 0.0
H883 H 0.02285 0.61796 0.13894 0.0
H884 H 0.977 0.54355 0.11781 0.0
H885 H 0.98817 0.58778 0.12918 0.0
H886 H 0.023 0.59671 0.05614 0.0
H887 H 0.01116 0.55249 0.0444 0.0
C888 C 0.00987 0.66721 0.08877 0.0
C889 C 0.01617 0.67522 0.11373 0.0
C890 C 0.00745 0.64135 0.08196 0.0
C891 C 0.01157 0.62318 0.10002 0.0
C892 C 0.01908 0.63145 0.12474 0.0
C893 C 0.0213 0.65728 0.13154 0.0
C894 C 0.98723 0.55484 0.10422 0.0
C895 C 0.99301 0.54452 0.08012 0.0
C896 C 0.99379 0.5802 0.11082 0.0
C897 C 0.00645 0.59579 0.09355 0.0
C898 C 0.01293 0.58528 0.06972 0.0
C899 C 0.00624 0.55991 0.06305 0.0
H900 H 0.42567 0.98468 0.15596 0.0
H901 H 0.38795 0.05522 0.15372 0.0
H902 H 0.44126 0.99062 0.11302 0.0
H903 H 0.40416 0.06149 0.11143 0.0
H904 H 0.40734 0.04839 0.02654 0.0
H905 H 0.39471 0.04108 0.06975 0.0
H906 H 0.47005 0.01809 0.08711 0.0
H907 H 0.48282 0.02517 0.04344 0.0
C908 C 0.42089 0.00154 0.14643 0.0
C909 C 0.40547 0.01942 0.15829 0.0
C910 C 0.43 0.00503 0.12193 0.0
C911 C 0.42371 0.02638 0.10872 0.0
C912 C 0.40901 0.04462 0.12093 0.0
C913 C 0.4 0.04119 0.14536 0.0
C914 C 0.42128 0.04166 0.03943 0.0
C915 C 0.44619 0.03753 0.03147 0.0
C916 C 0.41404 0.03764 0.06432 0.0
C917 C 0.43147 0.02937 0.08198 0.0
C918 C 0.45617 0.02444 0.07392 0.0
C919 C 0.46349 0.02854 0.04892 0.0
H920 H 0.66739 0.51695 0.17704 0.0
H921 H 0.59083 0.49185 0.1953 0.0
H922 H 0.65575 0.51658 0.13221 0.0
H923 H 0.5792 0.49027 0.15029 0.0
H924 H 0.56149 0.50649 0.06869 0.0
H925 H 0.57259 0.51449 0.11337 0.0
H926 H 0.6463 0.4847 0.09971 0.0
H927 H 0.63562 0.47746 0.05525 0.0
C928 C 0.64804 0.51134 0.17129 0.0
C929 C 0.63005 0.504 0.18928 0.0
C930 C 0.64139 0.51097 0.14569 0.0
C931 C 0.61661 0.50309 0.1376 0.0
C932 C 0.59838 0.4966 0.15587 0.0
C933 C 0.60504 0.4972 0.18154 0.0
C934 C 0.58016 0.50193 0.0752 0.0
C935 C 0.59762 0.49126 0.05837 0.0
C936 C 0.58646 0.50636 0.10083 0.0
C937 C 0.61031 0.50018 0.11015 0.0
C938 C 0.62792 0.49008 0.09316 0.0
C939 C 0.6217 0.48577 0.06761 0.0
H940 H 0.3441 0.00318 0.34777 0.0
H941 H 0.41686 0.97781 0.32394 0.0
H942 H 0.35552 0.99715 0.39197 0.0
H943 H 0.42819 0.9708 0.36797 0.0
H944 H 0.45049 0.98395 0.45102 0.0
H945 H 0.43906 0.99235 0.40758 0.0
H946 H 0.36196 0.96461 0.42091 0.0
H947 H 0.3732 0.95688 0.46452 0.0
C948 C 0.36249 0.99611 0.35211 0.0
C949 C 0.37951 0.99063 0.3326 0.0
C950 C 0.36901 0.99249 0.37736 0.0
C951 C 0.39277 0.98335 0.38366 0.0
C952 C 0.40987 0.97813 0.36396 0.0
C953 C 0.40334 0.98186 0.33872 0.0
C954 C 0.43105 0.97976 0.44476 0.0
C955 C 0.41279 0.96972 0.46138 0.0
C956 C 0.42453 0.98441 0.41973 0.0
C957 C 0.39959 0.97907 0.41057 0.0
C958 C 0.38127 0.9693 0.4273 0.0
C959 C 0.38776 0.96474 0.45236 0.0
H960 H 0.65673 0.53485 0.38168 0.0
H961 H 0.59685 0.47809 0.36239 0.0
H962 H 0.64328 0.53583 0.4255 0.0
H963 H 0.58394 0.47836 0.40677 0.0
H964 H 0.55273 0.51058 0.48408 0.0
H965 H 0.56456 0.50522 0.43962 0.0
H966 H 0.64383 0.50944 0.46147 0.0
H967 H 0.63213 0.5153 0.50564 0.0
C968 C 0.64056 0.52267 0.38673 0.0
C969 C 0.62781 0.50649 0.36839 0.0
C970 C 0.63308 0.52293 0.41201 0.0
C971 C 0.61269 0.50696 0.41977 0.0
C972 C 0.59968 0.49095 0.40143 0.0
C973 C 0.60721 0.49066 0.37604 0.0
C974 C 0.57266 0.50995 0.47942 0.0
C975 C 0.59147 0.51367 0.49846 0.0
C976 C 0.57945 0.50686 0.45391 0.0
C977 C 0.60517 0.50736 0.44691 0.0
C978 C 0.62386 0.50962 0.46611 0.0
C979 C 0.61712 0.51279 0.4915 0.0
H980 H 0.159 0.36788 0.98379 0.0
H981 H 0.18271 0.42613 0.0402 0.0
H982 H 0.11634 0.38339 0.98375 0.0
H983 H 0.13966 0.44181 0.04017 0.0
H984 H 0.06084 0.4714 0.02023 0.0
H985 H 0.10519 0.46094 0.01423 0.0
H986 H 0.08294 0.38123 0.01637 0.0
H987 H 0.03891 0.39153 0.02227 0.0
C988 C 0.15511 0.38419 0.99604 0.0
C989 C 0.17406 0.39552 0.01235 0.0
C990 C 0.13066 0.39304 0.99603 0.0
C991 C 0.1245 0.41352 0.01228 0.0
C992 C 0.14386 0.42599 0.02741 0.0
C993 C 0.16848 0.41706 0.02744 0.0
C994 C 0.0654 0.45164 0.0191 0.0
C995 C 0.04628 0.43229 0.0217 0.0
C996 C 0.09082 0.44569 0.01586 0.0
C997 C 0.09756 0.42028 0.01478 0.0
C998 C 0.07835 0.40099 0.0168 0.0
C999 C 0.05308 0.40691 0.0203 0.0
H1000 H 0.18431 0.57362 0.48529 0.0
H1001 H 0.16253 0.64926 0.50586 0.0
H1002 H 0.13963 0.55997 0.47793 0.0
H1003 H 0.11782 0.63563 0.49973 0.0
H1004 H 0.04566 0.61154 0.45521 0.0
H1005 H 0.08958 0.62417 0.46533 0.0
H1006 H 0.09938 0.55168 0.49787 0.0
H1007 H 0.0554 0.53863 0.48696 0.0
C1008 C 0.16983 0.58721 0.48831 0.0
C1009 C 0.17661 0.61251 0.49562 0.0
C1010 C 0.14428 0.57941 0.4844 0.0
C1011 C 0.12511 0.59675 0.48805 0.0
C1012 C 0.13208 0.62191 0.49622 0.0
C1013 C 0.15759 0.6297 0.4999 0.0
C1014 C 0.05707 0.59828 0.46465 0.0
C1015 C 0.04696 0.57403 0.47023 0.0
C1016 C 0.08229 0.60561 0.47061 0.0
C1017 C 0.09805 0.58898 0.48248 0.0
C1018 C 0.08787 0.56484 0.48842 0.0
C1019 C 0.06261 0.55742 0.48231 0.0
H1020 H 0.84212 0.82849 0.47079 0.0
H1021 H 0.82543 0.90264 0.50148 0.0
H1022 H 0.88618 0.84313 0.46435 0.0
H1023 H 0.86986 0.91706 0.49699 0.0
H1024 H 0.94578 0.94265 0.46353 0.0
H1025 H 0.90152 0.92881 0.46918 0.0
H1026 H 0.92447 0.85364 0.48493 0.0
H1027 H 0.96855 0.86726 0.47778 0.0
C1028 C 0.84809 0.84791 0.47637 0.0
C1029 C 0.83064 0.86436 0.48699 0.0
C1030 C 0.87339 0.85628 0.47299 0.0
C1031 C 0.88192 0.88126 0.48046 0.0
C1032 C 0.86415 0.89779 0.49076 0.0
C1033 C 0.83873 0.8895 0.49366 0.0
C1034 C 0.94134 0.92321 0.46835 0.0
C1035 C 0.96067 0.90604 0.47014 0.0
C1036 C 0.9159 0.91524 0.47171 0.0
C1037 C 0.90915 0.88999 0.47742 0.0
C1038 C 0.92869 0.87305 0.47993 0.0
C1039 C 0.95407 0.8809 0.47608 0.0
H1040 H 0.36167 0.63832 0.55751 0.0
H1041 H 0.35183 0.5809 0.4969 0.0
H1042 H 0.40396 0.62448 0.56593 0.0
H1043 H 0.39487 0.56769 0.5047 0.0
H1044 H 0.46446 0.53556 0.54513 0.0
H1045 H 0.42127 0.54719 0.5354 0.0
H1046 H 0.445 0.62646 0.54645 0.0
H1047 H 0.48774 0.61495 0.55661 0.0
C1048 C 0.36842 0.62259 0.54607 0.0
C1049 C 0.35318 0.6107 0.52656 0.0
C1050 C 0.39291 0.61488 0.55067 0.0
C1051 C 0.403 0.59512 0.53584 0.0
C1052 C 0.38767 0.5829 0.51657 0.0
C1053 C 0.36308 0.59064 0.51194 0.0
C1054 C 0.46048 0.55547 0.54534 0.0
C1055 C 0.47961 0.57428 0.55188 0.0
C1056 C 0.43572 0.56214 0.53967 0.0
C1057 C 0.42954 0.58776 0.54043 0.0
C1058 C 0.44888 0.60652 0.54624 0.0
C1059 C 0.47352 0.59989 0.55192 0.0
H1060 H 0.55638 0.6821 0.92531 0.0
H1061 H 0.48945 0.65432 0.88299 0.0
H1062 H 0.56038 0.63984 0.9419 0.0
H1063 H 0.49347 0.61231 0.89951 0.0
H1064 H 0.5346 0.5366 0.90454 0.0
H1065 H 0.52666 0.57939 0.89219 0.0
H1066 H 0.53624 0.60711 0.9699 0.0
H1067 H 0.54393 0.56398 0.98246 0.0
C1068 C 0.54244 0.66704 0.91972 0.0
C1069 C 0.52259 0.67156 0.90286 0.0
C1070 C 0.54462 0.64293 0.92935 0.0
C1071 C 0.52726 0.62277 0.92195 0.0
C1072 C 0.50719 0.62744 0.90545 0.0
C1073 C 0.5048 0.65156 0.89615 0.0
C1074 C 0.53477 0.55173 0.91909 0.0
C1075 C 0.53989 0.54686 0.9445 0.0
C1076 C 0.53013 0.57624 0.912 0.0
C1077 C 0.53087 0.5966 0.93007 0.0
C1078 C 0.53569 0.59178 0.95556 0.0
C1079 C 0.5399 0.56708 0.96276 0.0
H1080 H 0.49261 0.84116 0.91601 0.0
H1081 H 0.51989 0.86019 0.84227 0.0
H1082 H 0.49132 0.88632 0.92829 0.0
H1083 H 0.5197 0.90534 0.85462 0.0
H1084 H 0.48943 0.98317 0.87544 0.0
H1085 H 0.49197 0.9385 0.86313 0.0
H1086 H 0.51739 0.92367 0.93867 0.0
H1087 H 0.51408 0.96836 0.95123 0.0
C1088 C 0.4982 0.85512 0.90243 0.0
C1089 C 0.50588 0.84734 0.87808 0.0
C1090 C 0.49782 0.88098 0.90952 0.0
C1091 C 0.5054 0.89965 0.89247 0.0
C1092 C 0.51331 0.89165 0.86814 0.0
C1093 C 0.51354 0.86581 0.86105 0.0
C1094 C 0.49581 0.97048 0.88941 0.0
C1095 C 0.50151 0.97949 0.91438 0.0
C1096 C 0.49735 0.94476 0.8823 0.0
C1097 C 0.50477 0.92728 0.8999 0.0
C1098 C 0.51114 0.93642 0.9247 0.0
C1099 C 0.50947 0.96215 0.93186 0.0
H1100 H 0.51084 0.34642 0.68191 0.0
H1101 H 0.53404 0.32545 0.6062 0.0
H1102 H 0.51268 0.39118 0.67146 0.0
H1103 H 0.53688 0.37014 0.59577 0.0
H1104 H 0.51934 0.45028 0.57751 0.0
H1105 H 0.51245 0.40611 0.58841 0.0
H1106 H 0.54334 0.42483 0.66325 0.0
H1107 H 0.5496 0.46902 0.65262 0.0
C1108 C 0.5165 0.35153 0.66307 0.0
C1109 C 0.52282 0.33272 0.64499 0.0
C1110 C 0.51769 0.37712 0.65708 0.0
C1111 C 0.52511 0.3844 0.6328 0.0
C1112 C 0.53088 0.36532 0.61458 0.0
C1113 C 0.52961 0.33975 0.62059 0.0
C1114 C 0.52441 0.44506 0.59639 0.0
C1115 C 0.5351 0.46331 0.61413 0.0
C1116 C 0.52065 0.41963 0.60259 0.0
C1117 C 0.52752 0.41176 0.62667 0.0
C1118 C 0.53754 0.43016 0.64462 0.0
C1119 C 0.54125 0.45557 0.63846 0.0
H1120 H 0.5438 0.15102 0.60425 0.0
H1121 H 0.46422 0.1661 0.60442 0.0
H1122 H 0.53359 0.10833 0.58553 0.0
H1123 H 0.45387 0.12333 0.58608 0.0
H1124 H 0.45076 0.03704 0.60369 0.0
H1125 H 0.46105 0.08226 0.6111 0.0
H1126 H 0.51075 0.08162 0.54659 0.0
H1127 H 0.50016 0.03614 0.53876 0.0
C1128 C 0.52426 0.14546 0.59927 0.0
C1129 C 0.50475 0.16167 0.60539 0.0
C1130 C 0.51841 0.12111 0.5887 0.0
C1131 C 0.49296 0.1126 0.58466 0.0
C1132 C 0.47362 0.12951 0.58917 0.0
C1133 C 0.47951 0.15395 0.59939 0.0
C1134 C 0.46393 0.04645 0.59109 0.0
C1135 C 0.47471 0.03301 0.57069 0.0
C1136 C 0.46958 0.07239 0.59517 0.0
C1137 C 0.4864 0.08538 0.57918 0.0
C1138 C 0.49759 0.07197 0.55904 0.0
C1139 C 0.49157 0.04602 0.55464 0.0
H1140 H 0.92074 0.47698 0.65727 0.0
H1141 H 0.88195 0.5462 0.64897 0.0
H1142 H 0.93303 0.47739 0.61268 0.0
H1143 H 0.89469 0.54689 0.60488 0.0
H1144 H 0.89309 0.5245 0.52176 0.0
H1145 H 0.88283 0.52088 0.56618 0.0
H1146 H 0.95998 0.50258 0.58228 0.0
H1147 H 0.97042 0.50605 0.53746 0.0
C1148 C 0.91499 0.49235 0.64601 0.0
C1149 C 0.90034 0.51155 0.65669 0.0
C1150 C 0.92217 0.49266 0.62054 0.0
C1151 C 0.9146 0.51202 0.60521 0.0
C1152 C 0.90049 0.5315 0.61609 0.0
C1153 C 0.89348 0.53128 0.64148 0.0
C1154 C 0.90791 0.51947 0.53462 0.0
C1155 C 0.93268 0.5158 0.52599 0.0
C1156 C 0.90202 0.51756 0.56016 0.0
C1157 C 0.92069 0.51187 0.5778 0.0
C1158 C 0.94519 0.507 0.56911 0.0
C1159 C 0.95115 0.50901 0.54344 0.0
H1160 H 0.1347 0.02892 0.64438 0.0
H1161 H 0.08467 0.96647 0.66647 0.0
H1162 H 0.11796 0.0239 0.60128 0.0
H1163 H 0.06816 0.96124 0.62303 0.0
H1164 H 0.03374 0.97113 0.54377 0.0
H1165 H 0.04443 0.98332 0.58798 0.0
H1166 H 0.12409 0.98757 0.56926 0.0
H1167 H 0.11358 0.97535 0.52534 0.0
C1168 C 0.11967 0.01452 0.64019 0.0
C1169 C 0.11106 0.998 0.65877 0.0
C1170 C 0.11028 0.01152 0.61546 0.0
C1171 C 0.09198 0.99205 0.60884 0.0
C1172 C 0.08222 0.97647 0.6277 0.0
C1173 C 0.09178 0.97933 0.65246 0.0
C1174 C 0.0535 0.97494 0.54908 0.0
C1175 C 0.07284 0.97219 0.53112 0.0
C1176 C 0.05958 0.98179 0.57435 0.0
C1177 C 0.08504 0.98644 0.58194 0.0
C1178 C 0.10428 0.98439 0.56384 0.0
C1179 C 0.09826 0.97721 0.53874 0.0
H1180 H 0.85728 0.4862 0.84786 0.0
H1181 H 0.93101 0.52001 0.83089 0.0
H1182 H 0.8708 0.48119 0.89147 0.0
H1183 H 0.94426 0.51685 0.87497 0.0
H1184 H 0.9689 0.48282 0.94881 0.0
H1185 H 0.95621 0.48931 0.90532 0.0
H1186 H 0.87976 0.50196 0.93025 0.0
H1187 H 0.89225 0.49405 0.97344 0.0
C1188 C 0.87632 0.4929 0.85369 0.0
C1189 C 0.89297 0.50388 0.83623 0.0
C1190 C 0.88405 0.49031 0.87876 0.0
C1191 C 0.90862 0.49888 0.8871 0.0
C1192 C 0.9253 0.50979 0.86939 0.0
C1193 C 0.91765 0.51197 0.84418 0.0
C1194 C 0.94943 0.4872 0.945 0.0
C1195 C 0.93157 0.48778 0.9646 0.0
C1196 C 0.94212 0.49104 0.91999 0.0
C1197 C 0.91682 0.496 0.91397 0.0
C1198 C 0.89923 0.49753 0.93385 0.0
C1199 C 0.90645 0.49323 0.95876 0.0
H1200 H 0.11251 0.02967 0.82522 0.0
H1201 H 0.18337 0.99925 0.84667 0.0
H1202 H 0.10118 0.03516 0.86989 0.0
H1203 H 0.17197 0.00395 0.8914 0.0
H1204 H 0.15553 0.04407 0.96835 0.0
H1205 H 0.16689 0.03643 0.9242 0.0
H1206 H 0.08912 0.01175 0.90635 0.0
H1207 H 0.0776 0.01993 0.9504 0.0
C1208 C 0.1256 0.02417 0.83962 0.0
C1209 C 0.1489 0.01439 0.83272 0.0
C1210 C 0.11907 0.02704 0.86516 0.0
C1211 C 0.13566 0.02002 0.88434 0.0
C1212 C 0.15889 0.00992 0.87723 0.0
C1213 C 0.1654 0.00709 0.85167 0.0
C1214 C 0.14086 0.03682 0.95509 0.0
C1215 C 0.11561 0.03273 0.96302 0.0
C1216 C 0.14741 0.03233 0.92972 0.0
C1217 C 0.12891 0.0236 0.9116 0.0
C1218 C 0.10379 0.0189 0.91966 0.0
C1219 C 0.09722 0.02341 0.94502 0.0
H1220 H 0.6632 0.90309 0.53244 0.0
H1221 H 0.63607 0.84429 0.47793 0.0
H1222 H 0.6202 0.91843 0.53547 0.0
H1223 H 0.59344 0.85982 0.48067 0.0
H1224 H 0.51717 0.87325 0.52031 0.0
H1225 H 0.56037 0.8603 0.5139 0.0
H1226 H 0.58674 0.93873 0.5094 0.0
H1227 H 0.54328 0.95184 0.51587 0.0
C1228 C 0.64812 0.89353 0.52104 0.0
C1229 C 0.65308 0.87249 0.50493 0.0
C1230 C 0.62357 0.90245 0.5226 0.0
C1231 C 0.60343 0.89031 0.50832 0.0
C1232 C 0.6085 0.86947 0.49204 0.0
C1233 C 0.633 0.86072 0.49031 0.0
C1234 C 0.53209 0.88778 0.51773 0.0
C1235 C 0.52672 0.9136 0.5186 0.0
C1236 C 0.55686 0.88033 0.51396 0.0
C1237 C 0.57699 0.89849 0.5112 0.0
C1238 C 0.57164 0.92431 0.51168 0.0
C1239 C 0.54673 0.93179 0.51516 0.0
H1240 H 0.69905 0.09618 0.0125 0.0
H1241 H 0.68357 0.16623 0.97807 0.0
H1242 H 0.65376 0.08331 0.01068 0.0
H1243 H 0.63865 0.15298 0.97463 0.0
H1244 H 0.55688 0.13404 0.98841 0.0
H1245 H 0.60121 0.14652 0.99752 0.0
H1246 H 0.62143 0.06914 0.98172 0.0
H1247 H 0.57688 0.05652 0.9739 0.0
C1248 C 0.68581 0.10881 0.00467 0.0
C1249 C 0.69448 0.13231 0.99581 0.0
C1250 C 0.65996 0.10138 0.00332 0.0
C1251 C 0.64242 0.11714 0.99263 0.0
C1252 C 0.65139 0.14059 0.98357 0.0
C1253 C 0.67712 0.14812 0.98526 0.0
C1254 C 0.57078 0.11966 0.9872 0.0
C1255 C 0.56344 0.09435 0.98029 0.0
C1256 C 0.59625 0.12683 0.99223 0.0
C1257 C 0.61505 0.10894 0.98999 0.0
C1258 C 0.60752 0.08342 0.98392 0.0
C1259 C 0.58196 0.07617 0.97932 0.0
H1260 H 0.34368 0.42706 0.99323 0.0
H1261 H 0.36464 0.35547 0.02084 0.0
H1262 H 0.38859 0.44106 0.99087 0.0
H1263 H 0.40948 0.36964 0.01968 0.0
H1264 H 0.48625 0.39078 0.9847 0.0
H1265 H 0.44185 0.37764 0.98947 0.0
H1266 H 0.4259 0.45368 0.01593 0.0
H1267 H 0.4705 0.46714 0.01044 0.0
C1268 C 0.358 0.41428 0.99855 0.0
C1269 C 0.35092 0.38996 0.00648 0.0
C1270 C 0.38369 0.42241 0.99765 0.0
C1271 C 0.40276 0.40644 0.00495 0.0
C1272 C 0.39542 0.38227 0.01344 0.0
C1273 C 0.36978 0.37416 0.01422 0.0
C1274 C 0.4734 0.40474 0.99174 0.0
C1275 C 0.48205 0.43009 0.99712 0.0
C1276 C 0.44785 0.39712 0.9946 0.0
C1277 C 0.43018 0.41457 0.00304 0.0
C1278 C 0.43889 0.43981 0.00902 0.0
C1279 C 0.46453 0.44748 0.00608 0.0
H1280 H 0.89037 0.15445 0.97237 0.0
H1281 H 0.86487 0.09691 0.02328 0.0
H1282 H 0.93377 0.14099 0.976 0.0
H1283 H 0.90845 0.08371 0.02723 0.0
H1284 H 0.98655 0.05262 0.01087 0.0
H1285 H 0.94303 0.0638 0.00228 0.0
H1286 H 0.96658 0.14331 0.01017 0.0
H1287 H 0.01003 0.13225 0.01868 0.0
C1288 C 0.89397 0.1387 0.98409 0.0
C1289 C 0.87414 0.12675 0.99753 0.0
C1290 C 0.91889 0.13117 0.98636 0.0
C1291 C 0.92458 0.11135 0.00197 0.0
C1292 C 0.90466 0.09891 0.0149 0.0
C1293 C 0.87974 0.10662 0.01281 0.0
C1294 C 0.98253 0.0725 0.01049 0.0
C1295 C 0.00184 0.09153 0.01552 0.0
C1296 C 0.95754 0.07888 0.00575 0.0
C1297 C 0.95133 0.10443 0.00564 0.0
C1298 C 0.97077 0.12344 0.0099 0.0
C1299 C 0.99568 0.11708 0.01489 0.0
H1300 H 0.04057 0.16199 0.262 0.0
H1301 H 0.00502 0.2146 0.21483 0.0
H1302 H 0.0509 0.13593 0.22451 0.0
H1303 H 0.01414 0.18808 0.1772 0.0
H1304 H 0.06227 0.15313 0.11473 0.0
H1305 H 0.04917 0.17747 0.15201 0.0
H1306 H 0.03526 0.10803 0.19108 0.0
H1307 H 0.04934 0.0837 0.15399 0.0
C1308 C 0.03467 0.16769 0.24352 0.0
C1309 C 0.02225 0.1903 0.24112 0.0
C1310 C 0.0404 0.15272 0.22203 0.0
C1311 C 0.03353 0.15991 0.19769 0.0
C1312 C 0.02022 0.18217 0.19553 0.0
C1313 C 0.01474 0.19726 0.21703 0.0
C1314 C 0.05638 0.143 0.13124 0.0
C1315 C 0.05696 0.11643 0.13135 0.0
C1316 C 0.04865 0.15699 0.15263 0.0
C1317 C 0.04103 0.14479 0.17466 0.0
C1318 C 0.04134 0.11815 0.17464 0.0
C1319 C 0.04931 0.10416 0.1533 0.0
H1320 H 0.97026 0.35043 0.2525 0.0
H1321 H 0.03929 0.32418 0.21933 0.0
H1322 H 0.96549 0.37865 0.21771 0.0
H1323 H 0.03489 0.35292 0.18482 0.0
H1324 H 0.99579 0.37701 0.11157 0.0
H1325 H 0.0055 0.35357 0.14865 0.0
H1326 H 0.98359 0.41646 0.19726 0.0
H1327 H 0.97353 0.43998 0.16002 0.0
C1328 C 0.98457 0.35091 0.23791 0.0
C1329 C 0.00502 0.33489 0.23854 0.0
C1330 C 0.98197 0.36726 0.2181 0.0
C1331 C 0.99972 0.36791 0.19839 0.0
C1332 C 0.02072 0.35263 0.19956 0.0
C1333 C 0.02339 0.33635 0.21946 0.0
C1334 C 0.99315 0.38598 0.13013 0.0
C1335 C 0.98372 0.41036 0.13277 0.0
C1336 C 0.99894 0.37258 0.15142 0.0
C1337 C 0.99536 0.38314 0.17592 0.0
C1338 C 0.98636 0.40771 0.17862 0.0
C1339 C 0.9807 0.42122 0.15728 0.0
H1340 H 0.03293 0.84128 0.22814 0.0
H1341 H 0.99295 0.78107 0.26636 0.0
H1342 H 0.03453 0.8676 0.26734 0.0
H1343 H 0.99298 0.80774 0.30535 0.0
H1344 H 0.02904 0.84769 0.37624 0.0
H1345 H 0.02222 0.82275 0.33691 0.0
H1346 H 0.01173 0.8914 0.29734 0.0
H1347 H 0.01981 0.91648 0.33668 0.0
C1348 C 0.02418 0.83394 0.24498 0.0
C1349 C 0.01311 0.80922 0.24458 0.0
C1350 C 0.02481 0.84902 0.26735 0.0
C1351 C 0.01397 0.83977 0.2896 0.0
C1352 C 0.00198 0.81529 0.28875 0.0
C1353 C 0.00174 0.80008 0.26647 0.0
C1354 C 0.02507 0.85746 0.35919 0.0
C1355 C 0.02514 0.88406 0.35952 0.0
C1356 C 0.02097 0.84313 0.33661 0.0
C1357 C 0.01646 0.85503 0.31387 0.0
C1358 C 0.01564 0.88163 0.31439 0.0
C1359 C 0.02012 0.89601 0.33695 0.0
H1360 H 0.97298 0.64533 0.23213 0.0
H1361 H 0.03793 0.68431 0.2696 0.0
H1362 H 0.9671 0.61859 0.26829 0.0
H1363 H 0.03271 0.6569 0.30518 0.0
H1364 H 0.99438 0.62819 0.37683 0.0
H1365 H 0.00319 0.65214 0.33944 0.0
H1366 H 0.98494 0.58498 0.29175 0.0
H1367 H 0.97557 0.56098 0.3293 0.0
C1368 C 0.98612 0.64809 0.24798 0.0
C1369 C 0.00584 0.66712 0.24797 0.0
C1370 C 0.98293 0.63254 0.2686 0.0
C1371 C 0.99935 0.63566 0.28974 0.0
C1372 C 0.01949 0.65419 0.28938 0.0
C1373 C 0.02268 0.66972 0.2688 0.0
C1374 C 0.99235 0.61841 0.35841 0.0
C1375 C 0.98418 0.59262 0.35615 0.0
C1376 C 0.99759 0.63216 0.33692 0.0
C1377 C 0.99482 0.62051 0.31254 0.0
C1378 C 0.987 0.59462 0.31023 0.0
C1379 C 0.98178 0.58082 0.33178 0.0
H1380 H 0.28682 0.00405 0.1557 0.0
H1381 H 0.24138 0.02919 0.21845 0.0
H1382 H 0.25172 0.01029 0.12641 0.0
H1383 H 0.20657 0.03653 0.18936 0.0
H1384 H 0.14012 0.02466 0.13528 0.0
H1385 H 0.17508 0.01526 0.16295 0.0
H1386 H 0.22871 0.04236 0.10759 0.0
H1387 H 0.19359 0.05097 0.07947 0.0
C1388 C 0.26923 0.01092 0.16313 0.0
C1389 C 0.26658 0.01595 0.18924 0.0
C1390 C 0.24921 0.01474 0.1464 0.0
C1391 C 0.22618 0.02388 0.15544 0.0
C1392 C 0.22376 0.02901 0.18168 0.0
C1393 C 0.24371 0.02501 0.19837 0.0
C1394 C 0.15936 0.0285 0.1289 0.0
C1395 C 0.16399 0.03867 0.10514 0.0
C1396 C 0.17947 0.02327 0.14489 0.0
C1397 C 0.20482 0.02827 0.13771 0.0
C1398 C 0.20948 0.03799 0.1137 0.0
C1399 C 0.18931 0.04304 0.09758 0.0
H1400 H 0.78657 0.52721 0.19472 0.0
H1401 H 0.7491 0.46136 0.1565 0.0
H1402 H 0.82266 0.52361 0.16661 0.0
H1403 H 0.78578 0.45712 0.12903 0.0
H1404 H 0.84793 0.46889 0.06989 0.0
H1405 H 0.80994 0.47599 0.09492 0.0
H1406 H 0.8571 0.49594 0.16072 0.0
H1407 H 0.89488 0.48938 0.13577 0.0
C1408 C 0.78588 0.51209 0.18017 0.0
C1409 C 0.76484 0.49456 0.17798 0.0
C1410 C 0.80678 0.50982 0.16423 0.0
C1411 C 0.8073 0.48994 0.14564 0.0
C1412 C 0.786 0.47277 0.14299 0.0
C1413 C 0.76507 0.47503 0.15897 0.0
C1414 C 0.85019 0.47498 0.08965 0.0
C1415 C 0.87455 0.47854 0.10075 0.0
C1416 C 0.82838 0.47889 0.10406 0.0
C1417 C 0.83039 0.48655 0.12988 0.0
C1418 C 0.85476 0.49042 0.14083 0.0
C1419 C 0.8765 0.48649 0.12649 0.0
H1420 H 0.26117 0.96089 0.34877 0.0
H1421 H 0.22735 0.02462 0.31582 0.0
H1422 H 0.22342 0.95379 0.37442 0.0
H1423 H 0.18994 0.01803 0.34209 0.0
H1424 H 0.15937 0.95959 0.43127 0.0
H1425 H 0.19852 0.97162 0.40941 0.0
H1426 H 0.15497 0.98575 0.34245 0.0
H1427 H 0.11592 0.97416 0.36426 0.0
C1428 C 0.24576 0.97351 0.34717 0.0
C1429 C 0.24716 0.99318 0.33011 0.0
C1430 C 0.22425 0.96962 0.36208 0.0
C1431 C 0.20364 0.98527 0.36019 0.0
C1432 C 0.20539 0.00546 0.34374 0.0
C1433 C 0.22693 0.0094 0.32889 0.0
C1434 C 0.15813 0.96546 0.41195 0.0
C1435 C 0.13448 0.96579 0.3995 0.0
C1436 C 0.18058 0.97224 0.3994 0.0
C1437 C 0.17984 0.97962 0.3742 0.0
C1438 C 0.15617 0.98048 0.36197 0.0
C1439 C 0.13378 0.97363 0.37445 0.0
H1440 H 0.74225 0.51702 0.35256 0.0
H1441 H 0.78089 0.47818 0.29193 0.0
H1442 H 0.78123 0.51983 0.37797 0.0
H1443 H 0.81963 0.47943 0.31772 0.0
H1444 H 0.89038 0.51999 0.35391 0.0
H1445 H 0.85093 0.51057 0.33078 0.0
H1446 H 0.8117 0.4991 0.40126 0.0
H1447 H 0.85123 0.50973 0.42457 0.0
C1448 C 0.75909 0.50867 0.34498 0.0
C1449 C 0.75892 0.49771 0.32035 0.0
C1450 C 0.78134 0.51003 0.35954 0.0
C1451 C 0.8037 0.50004 0.34983 0.0
C1452 C 0.80296 0.48783 0.32558 0.0
C1453 C 0.78081 0.48687 0.31089 0.0
C1454 C 0.8734 0.51526 0.36451 0.0
C1455 C 0.87389 0.51577 0.39109 0.0
C1456 C 0.85075 0.50964 0.3512 0.0
C1457 C 0.82806 0.50403 0.36412 0.0
C1458 C 0.82873 0.50374 0.39072 0.0
C1459 C 0.85139 0.50972 0.40408 0.0
H1460 H 0.19584 0.27499 0.03057 0.0
H1461 H 0.25171 0.22931 0.99441 0.0
H1462 H 0.16734 0.23751 0.03418 0.0
H1463 H 0.22273 0.19163 0.99668 0.0
H1464 H 0.17859 0.12679 0.03445 0.0
H1465 H 0.20622 0.16385 0.02699 0.0
H1466 H 0.14052 0.20681 0.0123 0.0
H1467 H 0.11277 0.16985 0.02087 0.0
C1468 C 0.20184 0.25679 0.02325 0.0
C1469 C 0.22602 0.25471 0.01271 0.0
C1470 C 0.18544 0.23536 0.025 0.0
C1471 C 0.1927 0.21143 0.0158 0.0
C1472 C 0.21669 0.20964 0.00443 0.0
C1473 C 0.23324 0.23112 0.00297 0.0
C1474 C 0.17 0.1441 0.02951 0.0
C1475 C 0.14343 0.14539 0.02841 0.0
C1476 C 0.1859 0.16536 0.02503 0.0
C1477 C 0.17568 0.18841 0.01904 0.0
C1478 C 0.14908 0.18952 0.01732 0.0
C1479 C 0.13314 0.16829 0.02211 0.0
H1480 H 0.19962 0.76695 0.45835 0.0
H1481 H 0.14377 0.73463 0.50864 0.0
H1482 H 0.17315 0.80274 0.45247 0.0
H1483 H 0.11742 0.7708 0.5031 0.0
H1484 H 0.06667 0.82783 0.46388 0.0
H1485 H 0.09161 0.79083 0.47024 0.0
H1486 H 0.15973 0.83968 0.47832 0.0
H1487 H 0.13503 0.87653 0.47189 0.0
C1488 C 0.18158 0.76736 0.46799 0.0
C1489 C 0.17383 0.74787 0.48396 0.0
C1490 C 0.16653 0.78804 0.46485 0.0
C1491 C 0.14323 0.78975 0.47745 0.0
C1492 C 0.1352 0.77002 0.49303 0.0
C1493 C 0.15039 0.7494 0.49636 0.0
C1494 C 0.08694 0.8307 0.46717 0.0
C1495 C 0.09879 0.85523 0.46729 0.0
C1496 C 0.10122 0.80948 0.4709 0.0
C1497 C 0.1277 0.81226 0.47458 0.0
C1498 C 0.13944 0.83681 0.47513 0.0
C1499 C 0.12519 0.85799 0.47162 0.0
H1500 H 0.85611 0.74804 0.46086 0.0
H1501 H 0.82461 0.7136 0.52705 0.0
H1502 H 0.88403 0.713 0.45469 0.0
H1503 H 0.85318 0.67891 0.52137 0.0
H1504 H 0.87865 0.60592 0.47954 0.0
H1505 H 0.85537 0.64315 0.49098 0.0
H1506 H 0.92013 0.69159 0.47126 0.0
H1507 H 0.94346 0.65416 0.45934 0.0
C1508 C 0.85535 0.73311 0.47427 0.0
C1509 C 0.83791 0.73347 0.49428 0.0
C1510 C 0.87157 0.71315 0.47089 0.0
C1511 C 0.87073 0.69302 0.48742 0.0
C1512 C 0.85406 0.69394 0.50808 0.0
C1513 C 0.83788 0.71396 0.51151 0.0
C1514 C 0.88807 0.62447 0.47775 0.0
C1515 C 0.91293 0.62699 0.46833 0.0
C1516 C 0.87474 0.64587 0.48454 0.0
C1517 C 0.88586 0.67039 0.48206 0.0
C1518 C 0.91092 0.67296 0.47316 0.0
C1519 C 0.92433 0.6515 0.46643 0.0
H1520 H 0.28772 0.76481 0.4853 0.0
H1521 H 0.34164 0.72789 0.53079 0.0
H1522 H 0.31491 0.80383 0.48778 0.0
H1523 H 0.36839 0.76711 0.53453 0.0
H1524 H 0.42092 0.83517 0.52151 0.0
H1525 H 0.39575 0.79569 0.51267 0.0
H1526 H 0.32693 0.83657 0.51829 0.0
H1527 H 0.35205 0.87602 0.5261 0.0
C1528 C 0.30545 0.76522 0.49586 0.0
C1529 C 0.31268 0.74369 0.50803 0.0
C1530 C 0.32092 0.7875 0.49746 0.0
C1531 C 0.34377 0.78869 0.51151 0.0
C1532 C 0.35113 0.76681 0.52327 0.0
C1533 C 0.33578 0.74446 0.52139 0.0
C1534 C 0.40041 0.83572 0.52065 0.0
C1535 C 0.38848 0.85871 0.52459 0.0
C1536 C 0.38598 0.81307 0.51572 0.0
C1537 C 0.35929 0.8129 0.51489 0.0
C1538 C 0.34743 0.83601 0.51837 0.0
C1539 C 0.36186 0.85865 0.52302 0.0
H1540 H 0.53779 0.66927 0.79022 0.0
H1541 H 0.49274 0.71187 0.74071 0.0
H1542 H 0.54418 0.63788 0.75571 0.0
H1543 H 0.49793 0.68003 0.70639 0.0
H1544 H 0.54158 0.64053 0.64362 0.0
H1545 H 0.53089 0.66839 0.67908 0.0
H1546 H 0.52674 0.60464 0.72761 0.0
H1547 H 0.53839 0.57663 0.69194 0.0
C1548 C 0.5289 0.67157 0.77198 0.0
C1549 C 0.51505 0.69301 0.76789 0.0
C1550 C 0.53238 0.65354 0.75225 0.0
C1551 C 0.52183 0.65649 0.72808 0.0
C1552 C 0.50685 0.6774 0.72453 0.0
C1553 C 0.50363 0.69553 0.74419 0.0
C1554 C 0.5383 0.63231 0.66179 0.0
C1555 C 0.5409 0.60625 0.66485 0.0
C1556 C 0.53193 0.64835 0.68218 0.0
C1557 C 0.52771 0.63884 0.70629 0.0
C1558 C 0.53008 0.61271 0.70939 0.0
C1559 C 0.53666 0.5966 0.68891 0.0
H1560 H 0.51861 0.86594 0.75555 0.0
H1561 H 0.46918 0.80435 0.72433 0.0
H1562 H 0.51117 0.89008 0.71787 0.0
H1563 H 0.46131 0.82852 0.68729 0.0
H1564 H 0.47408 0.86484 0.61283 0.0
H1565 H 0.48479 0.84295 0.65052 0.0
H1566 H 0.47609 0.91162 0.69636 0.0
H1567 H 0.46557 0.93389 0.65834 0.0
C1568 C 0.50623 0.85756 0.74065 0.0
C1569 C 0.49444 0.83326 0.74296 0.0
C1570 C 0.50179 0.87146 0.71921 0.0
C1571 C 0.48571 0.86119 0.69956 0.0
C1572 C 0.47403 0.83688 0.70192 0.0
C1573 C 0.47834 0.82312 0.72331 0.0
C1574 C 0.47452 0.87543 0.63087 0.0
C1575 C 0.46873 0.90114 0.6325 0.0
C1576 C 0.48058 0.86278 0.65253 0.0
C1577 C 0.48103 0.87545 0.67648 0.0
C1578 C 0.47602 0.90137 0.67815 0.0
C1579 C 0.46987 0.91409 0.65638 0.0
H1580 H 0.5042 0.36053 0.75845 0.0
H1581 H 0.55733 0.31122 0.79082 0.0
H1582 H 0.50777 0.38857 0.79679 0.0
H1583 H 0.56102 0.33915 0.82874 0.0
H1584 H 0.53733 0.37578 0.90284 0.0
H1585 H 0.53022 0.35043 0.86371 0.0
H1586 H 0.5428 0.41735 0.8206 0.0
H1587 H 0.54998 0.44307 0.85994 0.0
C1588 C 0.51665 0.35578 0.77372 0.0
C1589 C 0.53054 0.3338 0.77175 0.0
C1590 C 0.51878 0.37182 0.79549 0.0
C1591 C 0.53451 0.36584 0.81568 0.0
C1592 C 0.54854 0.344 0.81353 0.0
C1593 C 0.54662 0.32818 0.79176 0.0
C1594 C 0.53838 0.38524 0.8851 0.0
C1595 C 0.54451 0.41143 0.88451 0.0
C1596 C 0.53439 0.37066 0.8627 0.0
C1597 C 0.53628 0.38194 0.83923 0.0
C1598 C 0.54122 0.40827 0.83853 0.0
C1599 C 0.54541 0.42292 0.86102 0.0
H1600 H 0.50698 0.22929 0.78713 0.0
H1601 H 0.52899 0.1658 0.73977 0.0
H1602 H 0.50269 0.20188 0.82314 0.0
H1603 H 0.52573 0.13841 0.7758 0.0
H1604 H 0.48779 0.0914 0.83766 0.0
H1605 H 0.49475 0.11837 0.80187 0.0
H1606 H 0.52573 0.17881 0.85263 0.0
H1607 H 0.51809 0.15215 0.88842 0.0
C1608 C 0.51135 0.20953 0.78466 0.0
C1609 C 0.51876 0.1997 0.76094 0.0
C1610 C 0.50901 0.1938 0.80524 0.0
C1611 C 0.51397 0.16786 0.80251 0.0
C1612 C 0.52151 0.15817 0.77864 0.0
C1613 C 0.5237 0.17388 0.75807 0.0
C1614 C 0.49629 0.11036 0.84117 0.0
C1615 C 0.50226 0.11958 0.86599 0.0
C1616 C 0.50038 0.12585 0.8206 0.0
C1617 C 0.5107 0.15091 0.82428 0.0
C1618 C 0.5173 0.15983 0.84905 0.0
C1619 C 0.51308 0.14442 0.86961 0.0
H1620 H 0.74347 0.53275 0.73776 0.0
H1621 H 0.77828 0.49992 0.6714 0.0
H1622 H 0.70453 0.53782 0.71348 0.0
H1623 H 0.73911 0.50395 0.64711 0.0
H1624 H 0.67573 0.54101 0.60485 0.0
H1625 H 0.71429 0.53498 0.62897 0.0
H1626 H 0.66902 0.51503 0.69365 0.0
H1627 H 0.63049 0.52184 0.66977 0.0
C1628 C 0.74257 0.52639 0.71799 0.0
C1629 C 0.76366 0.51584 0.7064 0.0
C1630 C 0.72026 0.5291 0.70408 0.0
C1631 C 0.71855 0.52124 0.67827 0.0
C1632 C 0.73978 0.51053 0.66681 0.0
C1633 C 0.76213 0.50798 0.68071 0.0
C1634 C 0.67397 0.53526 0.62419 0.0
C1635 C 0.64994 0.53199 0.63535 0.0
C1636 C 0.69613 0.53165 0.63802 0.0
C1637 C 0.69488 0.52453 0.66334 0.0
C1638 C 0.67081 0.52093 0.67436 0.0
C1639 C 0.64865 0.52469 0.66058 0.0
H1640 H 0.27993 0.97947 0.71208 0.0
H1641 H 0.23396 0.99969 0.64915 0.0
H1642 H 0.31548 0.9726 0.68362 0.0
H1643 H 0.26974 0.99374 0.6205 0.0
H1644 H 0.33131 0.95404 0.57363 0.0
H1645 H 0.29506 0.96198 0.60087 0.0
H1646 H 0.34612 0.99494 0.65916 0.0
H1647 H 0.38217 0.98638 0.63236 0.0
C1648 C 0.27762 0.98266 0.69211 0.0
C1649 C 0.25442 0.99031 0.68277 0.0
C1650 C 0.29799 0.97891 0.67578 0.0
C1651 C 0.29565 0.9828 0.64968 0.0
C1652 C 0.27223 0.99035 0.64039 0.0
C1653 C 0.25181 0.99398 0.65676 0.0
C1654 C 0.33477 0.96313 0.59219 0.0
C1655 C 0.35973 0.96939 0.60081 0.0
C1656 C 0.31395 0.96778 0.60782 0.0
C1657 C 0.31758 0.9789 0.6324 0.0
C1658 C 0.34253 0.98582 0.64063 0.0
C1659 C 0.36327 0.98106 0.62513 0.0
H1660 H 0.74407 0.5423 0.83315 0.0
H1661 H 0.77724 0.47912 0.86781 0.0
H1662 H 0.70887 0.53973 0.86261 0.0
H1663 H 0.74135 0.47574 0.89644 0.0
H1664 H 0.68019 0.48447 0.95512 0.0
H1665 H 0.7187 0.49502 0.93154 0.0
H1666 H 0.6729 0.51024 0.86639 0.0
H1667 H 0.63462 0.50037 0.88994 0.0
C1668 C 0.74406 0.52808 0.84728 0.0
C1669 C 0.76338 0.51076 0.84796 0.0
C1670 C 0.7237 0.52642 0.86398 0.0
C1671 C 0.72212 0.50734 0.88168 0.0
C1672 C 0.74203 0.49076 0.88315 0.0
C1673 C 0.76245 0.49248 0.8665 0.0
C1674 C 0.67835 0.49038 0.93587 0.0
C1675 C 0.6543 0.49141 0.92439 0.0
C1676 C 0.70043 0.49629 0.92233 0.0
C1677 C 0.69889 0.5034 0.89706 0.0
C1678 C 0.67481 0.5052 0.88592 0.0
C1679 C 0.6528 0.49932 0.89941 0.0
H1680 H 0.3065 0.02849 0.79164 0.0
H1681 H 0.26715 0.989 0.85077 0.0
H1682 H 0.3442 0.03448 0.81846 0.0
H1683 H 0.30534 0.99454 0.87766 0.0
H1684 H 0.36686 0.04463 0.92539 0.0
H1685 H 0.32923 0.03152 0.89987 0.0
H1686 H 0.37718 0.01005 0.83744 0.0
H1687 H 0.41467 0.02343 0.86259 0.0
C1688 C 0.30603 0.02095 0.81036 0.0
C1689 C 0.28392 0.00846 0.81925 0.0
C1690 C 0.32768 0.02414 0.82562 0.0
C1691 C 0.32769 0.01493 0.85012 0.0
C1692 C 0.30574 0.00195 0.85889 0.0
C1693 C 0.28404 0.99861 0.84349 0.0
C1694 C 0.36936 0.03689 0.9063 0.0
C1695 C 0.39374 0.03545 0.89589 0.0
C1696 C 0.34783 0.02923 0.89177 0.0
C1697 C 0.35033 0.02 0.86662 0.0
C1698 C 0.37471 0.01751 0.85664 0.0
C1699 C 0.39617 0.02517 0.87109 0.0
H1700 H 0.72543 0.71509 0.52564 0.0
H1701 H 0.65914 0.75264 0.50227 0.0
H1702 H 0.69868 0.67824 0.53694 0.0
H1703 H 0.63211 0.71542 0.51265 0.0
H1704 H 0.59127 0.65807 0.56407 0.0
H1705 H 0.61685 0.69419 0.54921 0.0
H1706 H 0.67249 0.64333 0.52032 0.0
H1707 H 0.64742 0.60746 0.53584 0.0
C1708 C 0.7051 0.71511 0.5225 0.0
C1709 C 0.69424 0.73643 0.51301 0.0
C1710 C 0.68974 0.69403 0.52884 0.0
C1711 C 0.66318 0.6938 0.52571 0.0
C1712 C 0.65243 0.71506 0.51563 0.0
C1713 C 0.66784 0.73623 0.50942 0.0
C1714 C 0.60891 0.65462 0.55446 0.0
C1715 C 0.61738 0.62989 0.55137 0.0
C1716 C 0.62353 0.67532 0.54578 0.0
C1717 C 0.64684 0.67173 0.53366 0.0
C1718 C 0.65491 0.6469 0.53001 0.0
C1719 C 0.64044 0.62628 0.53883 0.0
H1720 H 0.66775 0.25207 0.96623 0.0
H1721 H 0.71287 0.28996 0.02664 0.0
H1722 H 0.64188 0.28888 0.96448 0.0
H1723 H 0.68627 0.32613 0.02573 0.0
H1724 H 0.58647 0.35088 0.98172 0.0
H1725 H 0.61055 0.31309 0.98635 0.0
H1726 H 0.67912 0.36052 0.99932 0.0
H1727 H 0.65508 0.39814 0.99534 0.0
C1728 C 0.67211 0.26816 0.97923 0.0
C1729 C 0.69255 0.26796 0.9965 0.0
C1730 C 0.65703 0.28919 0.97845 0.0
C1731 C 0.66197 0.31061 0.99491 0.0
C1732 C 0.68207 0.31018 0.01251 0.0
C1733 C 0.69716 0.2892 0.01327 0.0
C1734 C 0.60665 0.35326 0.98578 0.0
C1735 C 0.61877 0.37765 0.98816 0.0
C1736 C 0.62051 0.33155 0.98825 0.0
C1737 C 0.64685 0.33365 0.99317 0.0
C1738 C 0.65884 0.35807 0.99591 0.0
C1739 C 0.64501 0.37973 0.99348 0.0
H1740 H 0.33183 0.24068 0.96703 0.0
H1741 H 0.38628 0.27326 0.02236 0.0
H1742 H 0.35757 0.20419 0.96032 0.0
H1743 H 0.41202 0.23614 0.01593 0.0
H1744 H 0.46209 0.17674 0.97284 0.0
H1745 H 0.43833 0.21463 0.98201 0.0
H1746 H 0.36887 0.16781 0.98499 0.0
H1747 H 0.3923 0.13017 0.97572 0.0
C1748 C 0.34945 0.24015 0.97763 0.0
C1749 C 0.35709 0.25997 0.99512 0.0
C1750 C 0.36406 0.21906 0.97399 0.0
C1751 C 0.38675 0.21718 0.98771 0.0
C1752 C 0.39466 0.23712 0.00501 0.0
C1753 C 0.37986 0.25825 0.00882 0.0
C1754 C 0.44177 0.17453 0.97561 0.0
C1755 C 0.42912 0.15037 0.97332 0.0
C1756 C 0.4282 0.19623 0.98098 0.0
C1757 C 0.4017 0.19422 0.98397 0.0
C1758 C 0.38921 0.17003 0.98236 0.0
C1759 C 0.40272 0.14841 0.97715 0.0
H1760 H 0.86468 0.2433 0.98213 0.0
H1761 H 0.80143 0.28473 0.00961 0.0
H1762 H 0.89218 0.28225 0.98562 0.0
H1763 H 0.82875 0.32354 0.01384 0.0
H1764 H 0.87811 0.39317 0.00205 0.0
H1765 H 0.85257 0.35473 0.99013 0.0
H1766 H 0.91068 0.3094 0.02013 0.0
H1767 H 0.93658 0.34784 0.03151 0.0
C1768 C 0.85675 0.2609 0.98867 0.0
C1769 C 0.83115 0.26138 0.99553 0.0
C1770 C 0.8724 0.28307 0.99085 0.0
C1771 C 0.86263 0.30595 1.00002 0.0
C1772 C 0.83676 0.30634 0.00633 0.0
C1773 C 0.82116 0.28421 0.00408 0.0
C1774 C 0.88558 0.375 0.00589 0.0
C1775 C 0.90926 0.37356 0.01799 0.0
C1776 C 0.87089 0.35299 0.99913 0.0
C1777 C 0.87949 0.32907 0.00443 0.0
C1778 C 0.90362 0.32756 0.01557 0.0
C1779 C 0.91841 0.3496 0.02223 0.0
loop_
_geom_bond_atom_site_label_1
_geom_bond_atom_site_label_2
_geom_bond_distance
_geom_bond_site_symmetry_2
_ccdc_geom_bond_type
C0 C1 1.443 . S
C0 N4 1.376 . S
C0 C38 1.389 . S
C1 C0 1.443 . S
C1 C2 1.340 . S
C1 H41 0.951 . S
C2 C1 1.340 . S
C2 C3 1.439 . S
C2 H42 0.950 . S
C3 C2 1.439 . S
C3 N4 1.374 . S
C3 C37 1.395 . S
N4 C0 1.376 . S
N4 C3 1.374 . S
N4 Co5 2.008 1_655 S
Co5 N4 2.008 1_455 S
Co5 N6 1.995 1_455 S
Co5 N11 2.008 . S
Co5 N16 1.995 . S
Co5 N21 2.282 . S
Co5 N27 2.282 1_455 S
N6 Co5 1.995 1_655 S
N6 C7 1.376 . S
N6 C10 1.383 . S
C7 N6 1.376 . S
C7 C8 1.446 . S
C7 C37 1.391 . S
C8 C7 1.446 . S
C8 C9 1.339 . S
C8 H43 0.949 . S
C9 C8 1.339 . S
C9 C10 1.439 . S
C9 H44 0.950 . S
C10 N6 1.383 . S
C10 C9 1.439 . S
C10 C39 1.392 1_655 S
N11 Co5 2.008 . S
N11 C12 1.376 . S
N11 C15 1.374 . S
C12 N11 1.376 . S
C12 C13 1.443 . S
C12 C39 1.389 . S
C13 C12 1.443 . S
C13 C14 1.340 . S
C13 H45 0.951 . S
C14 C13 1.340 . S
C14 C15 1.439 . S
C14 H46 0.950 . S
C15 N11 1.374 . S
C15 C14 1.439 . S
C15 C40 1.395 . S
N16 Co5 1.995 . S
N16 C17 1.376 . S
N16 C20 1.383 . S
C17 N16 1.376 . S
C17 C18 1.446 . S
C17 C40 1.391 . S
C18 C17 1.446 . S
C18 C19 1.339 . S
C18 H47 0.949 . S
C19 C18 1.339 . S
C19 C20 1.439 . S
C19 H48 0.950 . S
C20 N16 1.383 . S
C20 C19 1.439 . S
C20 C38 1.392 1_455 S
N21 Co5 2.282 . S
N21 C24 1.332 . S
N21 C26 1.332 1_455 S
C22 C23 1.386 . S
C22 C25 1.388 1_455 S
C23 C22 1.386 . S
C23 C24 1.382 . S
C23 H49 0.950 . S
C24 N21 1.332 . S
C24 C23 1.382 . S
C24 H35 0.952 . S
C25 C22 1.388 1_655 S
C25 C26 1.382 . S
C25 H50 0.950 . S
C26 N21 1.332 1_655 S
C26 C25 1.382 . S
C26 H36 0.948 . S
N27 Co5 2.282 1_655 S
N27 C31 1.332 . S
N27 C32 1.332 1_655 S
C28 C29 1.388 1_455 S
C28 C32 1.382 . S
C28 H51 0.950 . S
C29 C28 1.388 1_655 S
C29 C30 1.386 . S
C30 C29 1.386 . S
C30 C31 1.382 . S
C30 H52 0.950 . S
C31 N27 1.332 . S
C31 C30 1.382 . S
C31 H33 0.952 . S
C32 N27 1.332 1_455 S
C32 C28 1.382 . S
C32 H34 0.948 . S
H33 C31 0.952 . S
H34 C32 0.948 . S
H35 C24 0.952 . S
H36 C26 0.948 . S
C37 C3 1.395 . S
C37 C7 1.391 . S
C38 C0 1.389 . S
C38 C20 1.392 1_655 S
C39 C10 1.392 1_455 S
C39 C12 1.389 . S
C40 C15 1.395 . S
C40 C17 1.391 . S
H41 C1 0.951 . S
H42 C2 0.950 . S
H43 C8 0.949 . S
H44 C9 0.950 . S
H45 C13 0.951 . S
H46 C14 0.950 . S
H47 C18 0.949 . S
H48 C19 0.950 . S
H49 C23 0.950 . S
H50 C25 0.950 . S
H51 C28 0.950 . S
H52 C30 0.950 . S
C53 C54 1.443 . S
C53 N57 1.376 . S
C53 C91 1.389 1_655 S
C54 C53 1.443 . S
C54 C55 1.340 . S
C54 H94 0.951 . S
C55 C54 1.340 . S
C55 C56 1.439 . S
C55 H95 0.950 . S
C56 C55 1.439 . S
C56 N57 1.374 . S
C56 C90 1.395 . S
N57 C53 1.376 . S
N57 C56 1.374 . S
N57 Co58 2.008 1_655 S
Co58 N57 2.008 1_455 S
Co58 N59 1.992 . S
Co58 N64 2.008 . S
Co58 N69 1.995 . S
Co58 N74 2.282 . S
Co58 N80 2.282 . S
N59 Co58 1.992 . S
N59 C60 1.380 1_455 S
N59 C63 1.382 . S
C60 N59 1.380 1_655 S
C60 C61 1.446 . S
C60 C90 1.391 . S
C61 C60 1.446 . S
C61 C62 1.339 . S
C61 H96 0.949 . S
C62 C61 1.339 . S
C62 C63 1.439 1_655 S
C62 H97 0.950 . S
C63 N59 1.382 . S
C63 C62 1.439 1_455 S
C63 C92 1.392 . S
N64 Co58 2.008 . S
N64 C65 1.376 . S
N64 C68 1.374 . S
C65 N64 1.376 . S
C65 C66 1.443 . S
C65 C92 1.389 . S
C66 C65 1.443 . S
C66 C67 1.340 . S
C66 H98 0.951 . S
C67 C66 1.340 . S
C67 C68 1.439 . S
C67 H99 0.950 . S
C68 N64 1.374 . S
C68 C67 1.439 . S
C68 C93 1.395 . S
N69 Co58 1.995 . S
N69 C70 1.376 . S
N69 C73 1.383 . S
C70 N69 1.376 . S
C70 C71 1.446 . S
C70 C93 1.391 . S
C71 C70 1.446 . S
C71 C72 1.339 . S
C71 H100 0.949 . S
C72 C71 1.339 . S
C72 C73 1.439 . S
C72 H101 0.950 . S
C73 N69 1.383 . S
C73 C72 1.439 . S
C73 C91 1.392 . S
N74 Co58 2.282 . S
N74 C77 1.332 . S
N74 C79 1.332 . S
C75 C76 1.386 . S
C75 C78 1.388 . S
C76 C75 1.386 . S
C76 C77 1.382 . S
C76 H102 0.950 . S
C77 N74 1.332 . S
C77 C76 1.382 . S
C77 H88 0.952 . S
C78 C75 1.388 . S
C78 C79 1.382 . S
C78 H103 0.950 . S
C79 N74 1.332 . S
C79 C78 1.382 . S
C79 H89 0.948 1_455 S
N80 Co58 2.282 . S
N80 C84 1.332 1_455 S
N80 C85 1.332 . S
C81 C82 1.388 . S
C81 C85 1.382 . S
C81 H104 0.950 . S
C82 C81 1.388 . S
C82 C83 1.386 1_455 S
C83 C82 1.386 1_655 S
C83 C84 1.382 . S
C83 H105 0.950 . S
C84 N80 1.332 1_655 S
C84 C83 1.382 . S
C84 H86 0.952 . S
C85 N80 1.332 . S
C85 C81 1.382 . S
C85 H87 0.948 . S
H86 C84 0.952 . S
H87 C85 0.948 . S
H88 C77 0.952 . S
H89 C79 0.948 1_655 S
C90 C56 1.395 . S
C90 C60 1.391 . S
C91 C53 1.389 1_455 S
C91 C73 1.392 . S
C92 C63 1.392 . S
C92 C65 1.389 . S
C93 C68 1.395 . S
C93 C70 1.391 . S
H94 C54 0.951 . S
H95 C55 0.950 . S
H96 C61 0.949 . S
H97 C62 0.950 . S
H98 C66 0.951 . S
H99 C67 0.950 . S
H100 C71 0.949 . S
H101 C72 0.950 . S
H102 C76 0.950 . S
H103 C78 0.950 . S
H104 C81 0.950 . S
H105 C83 0.950 . S
C106 C107 1.443 . S
C106 N110 1.376 . S
C106 C144 1.389 . S
C107 C106 1.443 . S
C107 C108 1.340 . S
C107 H147 0.951 . S
C108 C107 1.340 . S
C108 C109 1.439 . S
C108 H148 0.950 . S
C109 C108 1.439 . S
C109 N110 1.374 . S
C109 C143 1.395 . S
N110 C106 1.376 . S
N110 C109 1.374 . S
N110 Co111 2.008 1_565 S
Co111 N110 2.008 1_545 S
Co111 N112 1.995 1_545 S
Co111 N117 2.008 . S
Co111 N122 1.995 . S
Co111 N127 2.282 . S
Co111 N133 2.279 1_545 S
N112 Co111 1.995 1_565 S
N112 C113 1.376 . S
N112 C116 1.383 . S
C113 N112 1.376 . S
C113 C114 1.446 . S
C113 C143 1.391 . S
C114 C113 1.446 . S
C114 C115 1.339 . S
C114 H149 0.949 . S
C115 C114 1.339 . S
C115 C116 1.439 . S
C115 H150 0.950 . S
C116 N112 1.383 . S
C116 C115 1.439 . S
C116 C145 1.392 1_565 S
N117 Co111 2.008 . S
N117 C118 1.376 . S
N117 C121 1.374 . S
C118 N117 1.376 . S
C118 C119 1.443 . S
C118 C145 1.389 . S
C119 C118 1.443 . S
C119 C120 1.340 . S
C119 H151 0.951 . S
C120 C119 1.340 . S
C120 C121 1.439 . S
C120 H152 0.950 . S
C121 N117 1.374 . S
C121 C120 1.439 . S
C121 C146 1.395 . S
N122 Co111 1.995 . S
N122 C123 1.376 . S
N122 C126 1.383 . S
C123 N122 1.376 . S
C123 C124 1.446 . S
C123 C146 1.391 . S
C124 C123 1.446 . S
C124 C125 1.339 . S
C124 H153 0.949 . S
C125 C124 1.339 . S
C125 C126 1.439 . S
C125 H154 0.950 . S
C126 N122 1.383 . S
C126 C125 1.439 . S
C126 C144 1.392 1_545 S
N127 Co111 2.282 . S
N127 C130 1.332 . S
N127 C132 1.332 1_545 S
C128 C129 1.386 . S
C128 C131 1.388 . S
C129 C128 1.386 . S
C129 C130 1.382 . S
C129 H155 0.950 . S
C130 N127 1.332 . S
C130 C129 1.382 . S
C130 H141 0.952 . S
C131 C128 1.388 . S
C131 C132 1.382 1_545 S
C131 H156 0.950 1_545 S
C132 N127 1.332 1_565 S
C132 C131 1.382 1_565 S
C132 H142 0.948 . S
N133 Co111 2.279 1_565 S
N133 C137 1.358 . S
N133 C138 1.314 1_565 S
C134 C135 1.388 1_545 S
C134 C138 1.382 . S
C134 H157 0.950 . S
C135 C134 1.388 1_565 S
C135 C136 1.386 . S
C136 C135 1.386 . S
C136 C137 1.382 . S
C136 H158 0.950 . S
C137 N133 1.358 . S
C137 C136 1.382 . S
C137 H139 0.952 . S
C138 N133 1.314 1_545 S
C138 C134 1.382 . S
C138 H140 0.948 . S
H139 C137 0.952 . S
H140 C138 0.948 . S
H141 C130 0.952 . S
H142 C132 0.948 . S
C143 C109 1.395 . S
C143 C113 1.391 . S
C144 C106 1.389 . S
C144 C126 1.392 1_565 S
C145 C116 1.392 1_545 S
C145 C118 1.389 . S
C146 C121 1.395 . S
C146 C123 1.391 . S
H147 C107 0.951 . S
H148 C108 0.950 . S
H149 C114 0.949 . S
H150 C115 0.950 . S
H151 C119 0.951 . S
H152 C120 0.950 . S
H153 C124 0.949 . S
H154 C125 0.950 . S
H155 C129 0.950 . S
H156 C131 0.950 1_565 S
H157 C134 0.950 . S
H158 C136 0.950 . S
C159 C160 1.443 . S
C159 N163 1.376 . S
C159 C197 1.389 . S
C160 C159 1.443 . S
C160 C161 1.340 . S
C160 H200 0.951 . S
C161 C160 1.340 . S
C161 C162 1.439 . S
C161 H201 0.950 . S
C162 C161 1.439 . S
C162 N163 1.374 . S
C162 C196 1.395 . S
N163 C159 1.376 . S
N163 C162 1.374 . S
N163 Co164 2.008 . S
Co164 N163 2.008 . S
Co164 N165 1.995 . S
Co164 N170 2.008 . S
Co164 N175 1.995 . S
Co164 N180 2.282 . S
Co164 N186 2.282 . S
N165 Co164 1.995 . S
N165 C166 1.376 . S
N165 C169 1.383 . S
C166 N165 1.376 . S
C166 C167 1.446 . S
C166 C196 1.391 . S
C167 C166 1.446 . S
C167 C168 1.339 . S
C167 H202 0.949 . S
C168 C167 1.339 . S
C168 C169 1.439 . S
C168 H203 0.950 . S
C169 N165 1.383 . S
C169 C168 1.439 . S
C169 C198 1.392 . S
N170 Co164 2.008 . S
N170 C171 1.376 . S
N170 C174 1.374 . S
C171 N170 1.376 . S
C171 C172 1.443 . S
C171 C198 1.389 . S
C172 C171 1.443 . S
C172 C173 1.340 . S
C172 H204 0.951 . S
C173 C172 1.340 . S
C173 C174 1.439 . S
C173 H205 0.950 . S
C174 N170 1.374 . S
C174 C173 1.439 . S
C174 C199 1.395 . S
N175 Co164 1.995 . S
N175 C176 1.376 . S
N175 C179 1.383 . S
C176 N175 1.376 . S
C176 C177 1.446 . S
C176 C199 1.391 . S
C177 C176 1.446 . S
C177 C178 1.339 . S
C177 H206 0.949 . S
C178 C177 1.339 . S
C178 C179 1.439 . S
C178 H207 0.950 . S
C179 N175 1.383 . S
C179 C178 1.439 . S
C179 C197 1.392 . S
N180 Co164 2.282 . S
N180 C183 1.332 . S
N180 C185 1.332 . S
C181 C182 1.386 . S
C181 C184 1.388 . S
C182 C181 1.386 . S
C182 C183 1.382 . S
C182 H208 0.950 . S
C183 N180 1.332 . S
C183 C182 1.382 . S
C183 H194 0.952 . S
C184 C181 1.388 . S
C184 C185 1.382 . S
C184 H209 0.950 . S
C185 N180 1.332 . S
C185 C184 1.382 . S
C185 H195 0.948 . S
N186 Co164 2.282 . S
N186 C190 1.332 . S
N186 C191 1.332 . S
C187 C188 1.388 . S
C187 C191 1.382 . S
C187 H210 0.950 . S
C188 C187 1.388 . S
C188 C189 1.386 . S
C189 C188 1.386 . S
C189 C190 1.382 . S
C189 H211 0.950 . S
C190 N186 1.332 . S
C190 C189 1.382 . S
C190 H192 0.952 . S
C191 N186 1.332 . S
C191 C187 1.382 . S
C191 H193 0.948 . S
H192 C190 0.952 . S
H193 C191 0.948 . S
H194 C183 0.952 . S
H195 C185 0.948 . S
C196 C162 1.395 . S
C196 C166 1.391 . S
C197 C159 1.389 . S
C197 C179 1.392 . S
C198 C169 1.392 . S
C198 C171 1.389 . S
C199 C174 1.395 . S
C199 C176 1.391 . S
H200 C160 0.951 . S
H201 C161 0.950 . S
H202 C167 0.949 . S
H203 C168 0.950 . S
H204 C172 0.951 . S
H205 C173 0.950 . S
H206 C177 0.949 . S
H207 C178 0.950 . S
H208 C182 0.950 . S
H209 C184 0.950 . S
H210 C187 0.950 . S
H211 C189 0.950 . S
C212 C213 1.443 . S
C212 N216 1.376 . S
C212 C250 1.389 1_556 S
C213 C212 1.443 . S
C213 C214 1.340 . S
C213 H253 0.951 . S
C214 C213 1.340 . S
C214 C215 1.439 . S
C214 H254 0.950 . S
C215 C214 1.439 . S
C215 N216 1.374 . S
C215 C249 1.395 . S
N216 C212 1.376 . S
N216 C215 1.374 . S
N216 Co217 2.008 1_556 S
Co217 N216 2.008 1_554 S
Co217 N218 1.995 1_554 S
Co217 N223 2.008 . S
Co217 N228 1.995 . S
Co217 N233 2.282 . S
Co217 N239 2.282 . S
N218 Co217 1.995 1_556 S
N218 C219 1.376 . S
N218 C222 1.383 1_556 S
C219 N218 1.376 . S
C219 C220 1.446 . S
C219 C249 1.391 . S
C220 C219 1.446 . S
C220 C221 1.339 . S
C220 H255 0.949 . S
C221 C220 1.339 . S
C221 C222 1.439 1_556 S
C221 H256 0.950 . S
C222 N218 1.383 1_554 S
C222 C221 1.439 1_554 S
C222 C251 1.392 . S
N223 Co217 2.008 . S
N223 C224 1.376 . S
N223 C227 1.374 . S
C224 N223 1.376 . S
C224 C225 1.443 . S
C224 C251 1.389 . S
C225 C224 1.443 . S
C225 C226 1.340 . S
C225 H257 0.951 . S
C226 C225 1.340 . S
C226 C227 1.439 . S
C226 H258 0.950 . S
C227 N223 1.374 . S
C227 C226 1.439 . S
C227 C252 1.395 . S
N228 Co217 1.995 . S
N228 C229 1.376 . S
N228 C232 1.383 . S
C229 N228 1.376 . S
C229 C230 1.446 . S
C229 C252 1.391 . S
C230 C229 1.446 . S
C230 C231 1.339 . S
C230 H259 0.949 . S
C231 C230 1.339 . S
C231 C232 1.439 . S
C231 H260 0.950 . S
C232 N228 1.383 . S
C232 C231 1.439 . S
C232 C250 1.392 . S
N233 Co217 2.282 . S
N233 C236 1.332 . S
N233 C238 1.332 . S
C234 C235 1.386 . S
C234 C237 1.388 . S
C235 C234 1.386 . S
C235 C236 1.382 . S
C235 H261 0.950 . S
C236 N233 1.332 . S
C236 C235 1.382 . S
C236 H247 0.952 . S
C237 C234 1.388 . S
C237 C238 1.382 . S
C237 H262 0.953 1_554 S
C238 N233 1.332 . S
C238 C237 1.382 . S
C238 H248 0.948 1_554 S
N239 Co217 2.282 . S
N239 C243 1.332 1_554 S
N239 C244 1.332 . S
C240 C241 1.388 . S
C240 C244 1.382 . S
C240 H263 0.950 . S
C241 C240 1.388 . S
C241 C242 1.386 1_554 S
C242 C241 1.386 1_556 S
C242 C243 1.382 . S
C242 H264 0.950 . S
C243 N239 1.332 1_556 S
C243 C242 1.382 . S
C243 H245 0.952 . S
C244 N239 1.332 . S
C244 C240 1.382 . S
C244 H246 0.948 . S
H245 C243 0.952 . S
H246 C244 0.948 . S
H247 C236 0.952 . S
H248 C238 0.948 1_556 S
C249 C215 1.395 . S
C249 C219 1.391 . S
C250 C212 1.389 1_554 S
C250 C232 1.392 . S
C251 C222 1.392 . S
C251 C224 1.389 . S
C252 C227 1.395 . S
C252 C229 1.391 . S
H253 C213 0.951 . S
H254 C214 0.950 . S
H255 C220 0.949 . S
H256 C221 0.950 . S
H257 C225 0.951 . S
H258 C226 0.950 . S
H259 C230 0.949 . S
H260 C231 0.950 . S
H261 C235 0.950 . S
H262 C237 0.953 1_556 S
H263 C240 0.950 . S
H264 C242 0.950 . S
C265 C266 1.443 . S
C265 N269 1.376 . S
C265 C303 1.389 . S
C266 C265 1.443 . S
C266 C267 1.340 . S
C266 H306 0.951 . S
C267 C266 1.340 . S
C267 C268 1.439 . S
C267 H307 0.950 . S
C268 C267 1.439 . S
C268 N269 1.374 . S
C268 C302 1.395 . S
N269 C265 1.376 . S
N269 C268 1.374 . S
N269 Co270 2.008 . S
Co270 N269 2.008 . S
Co270 N271 1.995 . S
Co270 N276 2.008 . S
Co270 N281 1.995 . S
Co270 N286 2.282 . S
Co270 N292 2.282 . S
N271 Co270 1.995 . S
N271 C272 1.376 . S
N271 C275 1.383 . S
C272 N271 1.376 . S
C272 C273 1.446 . S
C272 C302 1.391 . S
C273 C272 1.446 . S
C273 C274 1.339 . S
C273 H308 0.949 . S
C274 C273 1.339 . S
C274 C275 1.439 . S
C274 H309 0.950 . S
C275 N271 1.383 . S
C275 C274 1.439 . S
C275 C304 1.392 . S
N276 Co270 2.008 . S
N276 C277 1.376 . S
N276 C280 1.374 . S
C277 N276 1.376 . S
C277 C278 1.443 . S
C277 C304 1.389 . S
C278 C277 1.443 . S
C278 C279 1.340 . S
C278 H310 0.951 . S
C279 C278 1.340 . S
C279 C280 1.439 . S
C279 H311 0.950 . S
C280 N276 1.374 . S
C280 C279 1.439 . S
C280 C305 1.395 . S
N281 Co270 1.995 . S
N281 C282 1.376 . S
N281 C285 1.383 . S
C282 N281 1.376 . S
C282 C283 1.446 . S
C282 C305 1.391 . S
C283 C282 1.446 . S
C283 C284 1.339 . S
C283 H312 0.949 . S
C284 C283 1.339 . S
C284 C285 1.439 . S
C284 H313 0.950 . S
C285 N281 1.383 . S
C285 C284 1.439 . S
C285 C303 1.392 . S
N286 Co270 2.282 . S
N286 C289 1.332 . S
N286 C291 1.332 . S
C287 C288 1.386 . S
C287 C290 1.388 . S
C288 C287 1.386 . S
C288 C289 1.382 . S
C288 H314 0.950 . S
C289 N286 1.332 . S
C289 C288 1.382 . S
C289 H300 0.952 . S
C290 C287 1.388 . S
C290 C291 1.382 . S
C290 H315 0.950 . S
C291 N286 1.332 . S
C291 C290 1.382 . S
C291 H301 0.948 . S
N292 Co270 2.282 . S
N292 C296 1.332 . S
N292 C297 1.332 . S
C293 C294 1.388 . S
C293 C297 1.382 . S
C293 H316 0.950 . S
C294 C293 1.388 . S
C294 C295 1.386 . S
C295 C294 1.386 . S
C295 C296 1.382 . S
C295 H317 0.950 . S
C296 N292 1.332 . S
C296 C295 1.382 . S
C296 H298 0.952 . S
C297 N292 1.332 . S
C297 C293 1.382 . S
C297 H299 0.948 . S
H298 C296 0.952 . S
H299 C297 0.948 . S
H300 C289 0.952 . S
H301 C291 0.948 . S
C302 C268 1.395 . S
C302 C272 1.391 . S
C303 C265 1.389 . S
C303 C285 1.392 . S
C304 C275 1.392 . S
C304 C277 1.389 . S
C305 C280 1.395 . S
C305 C282 1.391 . S
H306 C266 0.951 . S
H307 C267 0.950 . S
H308 C273 0.949 . S
H309 C274 0.950 . S
H310 C278 0.951 . S
H311 C279 0.950 . S
H312 C283 0.949 . S
H313 C284 0.950 . S
H314 C288 0.950 . S
H315 C290 0.950 . S
H316 C293 0.950 . S
H317 C295 0.950 . S
C318 C319 1.443 . S
C318 N322 1.376 . S
C318 C356 1.389 . S
C319 C318 1.443 . S
C319 C320 1.340 . S
C319 H359 0.951 . S
C320 C319 1.340 . S
C320 C321 1.439 . S
C320 H360 0.950 . S
C321 C320 1.439 . S
C321 N322 1.374 . S
C321 C355 1.395 . S
N322 C318 1.376 . S
N322 C321 1.374 . S
N322 Co323 2.008 . S
Co323 N322 2.008 . S
Co323 N324 1.995 . S
Co323 N329 2.008 . S
Co323 N334 1.995 . S
Co323 N339 2.282 . S
Co323 N345 2.282 . S
N324 Co323 1.995 . S
N324 C325 1.376 . S
N324 C328 1.383 . S
C325 N324 1.376 . S
C325 C326 1.446 . S
C325 C355 1.391 . S
C326 C325 1.446 . S
C326 C327 1.339 . S
C326 H361 0.949 . S
C327 C326 1.339 . S
C327 C328 1.439 . S
C327 H362 0.950 . S
C328 N324 1.383 . S
C328 C327 1.439 . S
C328 C357 1.392 . S
N329 Co323 2.008 . S
N329 C330 1.376 . S
N329 C333 1.374 . S
C330 N329 1.376 . S
C330 C331 1.443 . S
C330 C357 1.389 . S
C331 C330 1.443 . S
C331 C332 1.340 . S
C331 H363 0.951 . S
C332 C331 1.340 . S
C332 C333 1.439 . S
C332 H364 0.950 . S
C333 N329 1.374 . S
C333 C332 1.439 . S
C333 C358 1.395 . S
N334 Co323 1.995 . S
N334 C335 1.376 . S
N334 C338 1.383 . S
C335 N334 1.376 . S
C335 C336 1.446 . S
C335 C358 1.391 . S
C336 C335 1.446 . S
C336 C337 1.339 . S
C336 H365 0.949 . S
C337 C336 1.339 . S
C337 C338 1.439 . S
C337 H366 0.950 . S
C338 N334 1.383 . S
C338 C337 1.439 . S
C338 C356 1.392 . S
N339 Co323 2.282 . S
N339 C342 1.332 . S
N339 C344 1.332 . S
C340 C341 1.386 . S
C340 C343 1.388 . S
C341 C340 1.386 . S
C341 C342 1.382 . S
C341 H367 0.950 . S
C342 N339 1.332 . S
C342 C341 1.382 . S
C342 H353 0.952 . S
C343 C340 1.388 . S
C343 C344 1.382 . S
C343 H368 0.950 . S
C344 N339 1.332 . S
C344 C343 1.382 . S
C344 H354 0.948 . S
N345 Co323 2.282 . S
N345 C349 1.332 . S
N345 C350 1.332 . S
C346 C347 1.388 . S
C346 C350 1.382 . S
C346 H369 0.950 . S
C347 C346 1.388 . S
C347 C348 1.386 . S
C348 C347 1.386 . S
C348 C349 1.382 . S
C348 H370 0.950 . S
C349 N345 1.332 . S
C349 C348 1.382 . S
C349 H351 0.952 . S
C350 N345 1.332 . S
C350 C346 1.382 . S
C350 H352 0.948 . S
H351 C349 0.952 . S
H352 C350 0.948 . S
H353 C342 0.952 . S
H354 C344 0.948 . S
C355 C321 1.395 . S
C355 C325 1.391 . S
C356 C318 1.389 . S
C356 C338 1.392 . S
C357 C328 1.392 . S
C357 C330 1.389 . S
C358 C333 1.395 . S
C358 C335 1.391 . S
H359 C319 0.951 . S
H360 C320 0.950 . S
H361 C326 0.949 . S
H362 C327 0.950 . S
H363 C331 0.951 . S
H364 C332 0.950 . S
H365 C336 0.949 . S
H366 C337 0.950 . S
H367 C341 0.950 . S
H368 C343 0.950 . S
H369 C346 0.950 . S
H370 C348 0.950 . S
C371 C372 1.443 . S
C371 N375 1.376 . S
C371 C409 1.389 . S
C372 C371 1.443 . S
C372 C373 1.340 . S
C372 H412 0.951 . S
C373 C372 1.340 . S
C373 C374 1.439 . S
C373 H413 0.950 . S
C374 C373 1.439 . S
C374 N375 1.374 . S
C374 C408 1.395 . S
N375 C371 1.376 . S
N375 C374 1.374 . S
N375 Co376 2.008 . S
Co376 N375 2.008 . S
Co376 N377 1.995 . S
Co376 N382 2.008 . S
Co376 N387 1.995 . S
Co376 N392 2.282 . S
Co376 N398 2.282 . S
N377 Co376 1.995 . S
N377 C378 1.376 . S
N377 C381 1.383 . S
C378 N377 1.376 . S
C378 C379 1.446 . S
C378 C408 1.391 . S
C379 C378 1.446 . S
C379 C380 1.339 . S
C379 H414 0.949 . S
C380 C379 1.339 . S
C380 C381 1.439 . S
C380 H415 0.950 . S
C381 N377 1.383 . S
C381 C380 1.439 . S
C381 C410 1.392 . S
N382 Co376 2.008 . S
N382 C383 1.376 . S
N382 C386 1.374 . S
C383 N382 1.376 . S
C383 C384 1.443 . S
C383 C410 1.389 . S
C384 C383 1.443 . S
C384 C385 1.340 . S
C384 H416 0.951 . S
C385 C384 1.340 . S
C385 C386 1.439 . S
C385 H417 0.950 . S
C386 N382 1.374 . S
C386 C385 1.439 . S
C386 C411 1.395 . S
N387 Co376 1.995 . S
N387 C388 1.376 . S
N387 C391 1.383 . S
C388 N387 1.376 . S
C388 C389 1.446 . S
C388 C411 1.391 . S
C389 C388 1.446 . S
C389 C390 1.339 . S
C389 H418 0.949 . S
C390 C389 1.339 . S
C390 C391 1.439 . S
C390 H419 0.950 . S
C391 N387 1.383 . S
C391 C390 1.439 . S
C391 C409 1.392 . S
N392 Co376 2.282 . S
N392 C395 1.332 . S
N392 C397 1.332 . S
C393 C394 1.386 . S
C393 C396 1.388 . S
C394 C393 1.386 . S
C394 C395 1.382 . S
C394 H420 0.950 . S
C395 N392 1.332 . S
C395 C394 1.382 . S
C395 H406 0.952 . S
C396 C393 1.388 . S
C396 C397 1.382 . S
C396 H421 0.950 . S
C397 N392 1.332 . S
C397 C396 1.382 . S
C397 H407 0.948 . S
N398 Co376 2.282 . S
N398 C402 1.332 . S
N398 C403 1.332 . S
C399 C400 1.388 . S
C399 C403 1.382 . S
C399 H422 0.950 . S
C400 C399 1.388 . S
C400 C401 1.386 . S
C401 C400 1.386 . S
C401 C402 1.382 . S
C401 H423 0.950 . S
C402 N398 1.332 . S
C402 C401 1.382 . S
C402 H404 0.952 . S
C403 N398 1.332 . S
C403 C399 1.382 . S
C403 H405 0.948 . S
H404 C402 0.952 . S
H405 C403 0.948 . S
H406 C395 0.952 . S
H407 C397 0.948 . S
C408 C374 1.395 . S
C408 C378 1.391 . S
C409 C371 1.389 . S
C409 C391 1.392 . S
C410 C381 1.392 . S
C410 C383 1.389 . S
C411 C386 1.395 . S
C411 C388 1.391 . S
H412 C372 0.951 . S
H413 C373 0.950 . S
H414 C379 0.949 . S
H415 C380 0.950 . S
H416 C384 0.951 . S
H417 C385 0.950 . S
H418 C389 0.949 . S
H419 C390 0.950 . S
H420 C394 0.950 . S
H421 C396 0.950 . S
H422 C399 0.950 . S
H423 C401 0.950 . S
C424 C425 1.443 . S
C424 N428 1.376 . S
C424 C462 1.389 . S
C425 C424 1.443 . S
C425 C426 1.340 . S
C425 H465 0.951 . S
C426 C425 1.340 . S
C426 C427 1.439 . S
C426 H466 0.950 . S
C427 C426 1.439 . S
C427 N428 1.374 . S
C427 C461 1.395 . S
N428 C424 1.376 . S
N428 C427 1.374 . S
N428 Co429 2.008 . S
Co429 N428 2.008 . S
Co429 N430 1.995 . S
Co429 N435 2.008 . S
Co429 N440 1.995 . S
Co429 N445 2.282 . S
Co429 N451 2.282 . S
N430 Co429 1.995 . S
N430 C431 1.376 . S
N430 C434 1.383 . S
C431 N430 1.376 . S
C431 C432 1.446 . S
C431 C461 1.391 . S
C432 C431 1.446 . S
C432 C433 1.339 . S
C432 H467 0.949 . S
C433 C432 1.339 . S
C433 C434 1.439 . S
C433 H468 0.950 . S
C434 N430 1.383 . S
C434 C433 1.439 . S
C434 C463 1.392 . S
N435 Co429 2.008 . S
N435 C436 1.376 . S
N435 C439 1.374 . S
C436 N435 1.376 . S
C436 C437 1.443 . S
C436 C463 1.389 . S
C437 C436 1.443 . S
C437 C438 1.340 . S
C437 H469 0.951 . S
C438 C437 1.340 . S
C438 C439 1.439 . S
C438 H470 0.950 . S
C439 N435 1.374 . S
C439 C438 1.439 . S
C439 C464 1.395 . S
N440 Co429 1.995 . S
N440 C441 1.376 . S
N440 C444 1.383 . S
C441 N440 1.376 . S
C441 C442 1.446 . S
C441 C464 1.391 . S
C442 C441 1.446 . S
C442 C443 1.339 . S
C442 H471 0.949 . S
C443 C442 1.339 . S
C443 C444 1.439 . S
C443 H472 0.950 . S
C444 N440 1.383 . S
C444 C443 1.439 . S
C444 C462 1.392 . S
N445 Co429 2.282 . S
N445 C448 1.332 . S
N445 C450 1.332 . S
C446 C447 1.386 . S
C446 C449 1.388 . S
C447 C446 1.386 . S
C447 C448 1.382 . S
C447 H473 0.950 . S
C448 N445 1.332 . S
C448 C447 1.382 . S
C448 H459 0.952 . S
C449 C446 1.388 . S
C449 C450 1.382 . S
C449 H474 0.950 . S
C450 N445 1.332 . S
C450 C449 1.382 . S
C450 H460 0.948 . S
N451 Co429 2.282 . S
N451 C455 1.332 . S
N451 C456 1.332 . S
C452 C453 1.388 . S
C452 C456 1.382 . S
C452 H475 0.950 . S
C453 C452 1.388 . S
C453 C454 1.386 . S
C454 C453 1.386 . S
C454 C455 1.382 . S
C454 H476 0.950 . S
C455 N451 1.332 . S
C455 C454 1.382 . S
C455 H457 0.952 . S
C456 N451 1.332 . S
C456 C452 1.382 . S
C456 H458 0.948 . S
H457 C455 0.952 . S
H458 C456 0.948 . S
H459 C448 0.952 . S
H460 C450 0.948 . S
C461 C427 1.395 . S
C461 C431 1.391 . S
C462 C424 1.389 . S
C462 C444 1.392 . S
C463 C434 1.392 . S
C463 C436 1.389 . S
C464 C439 1.395 . S
C464 C441 1.391 . S
H465 C425 0.951 . S
H466 C426 0.950 . S
H467 C432 0.949 . S
H468 C433 0.950 . S
H469 C437 0.951 . S
H470 C438 0.950 . S
H471 C442 0.949 . S
H472 C443 0.950 . S
H473 C447 0.950 . S
H474 C449 0.950 . S
H475 C452 0.950 . S
H476 C454 0.950 . S
C477 C478 1.443 . S
C477 N481 1.376 . S
C477 C515 1.389 . S
C478 C477 1.443 . S
C478 C479 1.340 . S
C478 H518 0.951 . S
C479 C478 1.340 . S
C479 C480 1.439 . S
C479 H519 0.950 . S
C480 C479 1.439 . S
C480 N481 1.374 . S
C480 C514 1.395 . S
N481 C477 1.376 . S
N481 C480 1.374 . S
N481 Co482 2.008 . S
Co482 N481 2.008 . S
Co482 N483 1.995 . S
Co482 N488 2.008 . S
Co482 N493 1.995 . S
Co482 N498 2.282 . S
Co482 N504 2.282 . S
N483 Co482 1.995 . S
N483 C484 1.376 . S
N483 C487 1.383 . S
C484 N483 1.376 . S
C484 C485 1.446 . S
C484 C514 1.391 . S
C485 C484 1.446 . S
C485 C486 1.339 . S
C485 H520 0.949 . S
C486 C485 1.339 . S
C486 C487 1.439 . S
C486 H521 0.950 . S
C487 N483 1.383 . S
C487 C486 1.439 . S
C487 C516 1.392 . S
N488 Co482 2.008 . S
N488 C489 1.376 . S
N488 C492 1.374 . S
C489 N488 1.376 . S
C489 C490 1.443 . S
C489 C516 1.389 . S
C490 C489 1.443 . S
C490 C491 1.340 . S
C490 H522 0.951 . S
C491 C490 1.340 . S
C491 C492 1.439 . S
C491 H523 0.950 . S
C492 N488 1.374 . S
C492 C491 1.439 . S
C492 C517 1.395 . S
N493 Co482 1.995 . S
N493 C494 1.376 . S
N493 C497 1.383 . S
C494 N493 1.376 . S
C494 C495 1.446 . S
C494 C517 1.391 . S
C495 C494 1.446 . S
C495 C496 1.339 . S
C495 H524 0.949 . S
C496 C495 1.339 . S
C496 C497 1.439 . S
C496 H525 0.950 . S
C497 N493 1.383 . S
C497 C496 1.439 . S
C497 C515 1.392 . S
N498 Co482 2.282 . S
N498 C501 1.332 . S
N498 C503 1.332 . S
C499 C500 1.386 . S
C499 C502 1.388 . S
C500 C499 1.386 . S
C500 C501 1.382 . S
C500 H526 0.950 . S
C501 N498 1.332 . S
C501 C500 1.382 . S
C501 H512 0.952 . S
C502 C499 1.388 . S
C502 C503 1.382 . S
C502 H527 0.950 . S
C503 N498 1.332 . S
C503 C502 1.382 . S
C503 H513 0.948 . S
N504 Co482 2.282 . S
N504 C508 1.332 . S
N504 C509 1.332 . S
C505 C506 1.388 . S
C505 C509 1.382 . S
C505 H528 0.950 . S
C506 C505 1.388 . S
C506 C507 1.386 . S
C507 C506 1.386 . S
C507 C508 1.382 . S
C507 H529 0.950 . S
C508 N504 1.332 . S
C508 C507 1.382 . S
C508 H510 0.952 . S
C509 N504 1.332 . S
C509 C505 1.382 . S
C509 H511 0.948 . S
H510 C508 0.952 . S
H511 C509 0.948 . S
H512 C501 0.952 . S
H513 C503 0.948 . S
C514 C480 1.395 . S
C514 C484 1.391 . S
C515 C477 1.389 . S
C515 C497 1.392 . S
C516 C487 1.392 . S
C516 C489 1.389 . S
C517 C492 1.395 . S
C517 C494 1.391 . S
H518 C478 0.951 . S
H519 C479 0.950 . S
H520 C485 0.949 . S
H521 C486 0.950 . S
H522 C490 0.951 . S
H523 C491 0.950 . S
H524 C495 0.949 . S
H525 C496 0.950 . S
H526 C500 0.950 . S
H527 C502 0.950 . S
H528 C505 0.950 . S
H529 C507 0.950 . S
C530 C531 1.443 . S
C530 N534 1.376 . S
C530 C568 1.389 . S
C531 C530 1.443 . S
C531 C532 1.340 . S
C531 H571 0.951 . S
C532 C531 1.340 . S
C532 C533 1.439 . S
C532 H572 0.950 . S
C533 C532 1.439 . S
C533 N534 1.374 . S
C533 C567 1.395 . S
N534 C530 1.376 . S
N534 C533 1.374 . S
N534 Co535 2.008 . S
Co535 N534 2.008 . S
Co535 N536 1.995 . S
Co535 N541 2.008 1_545 S
Co535 N546 1.995 1_545 S
Co535 N551 2.282 . S
Co535 N557 2.282 . S
N536 Co535 1.995 . S
N536 C537 1.376 . S
N536 C540 1.383 . S
C537 N536 1.376 . S
C537 C538 1.446 . S
C537 C567 1.391 . S
C538 C537 1.446 . S
C538 C539 1.339 . S
C538 H573 0.949 . S
C539 C538 1.339 . S
C539 C540 1.439 . S
C539 H574 0.950 . S
C540 N536 1.383 . S
C540 C539 1.439 . S
C540 C569 1.377 1_545 S
N541 Co535 2.008 1_565 S
N541 C542 1.376 . S
N541 C545 1.374 . S
C542 N541 1.376 . S
C542 C543 1.443 . S
C542 C569 1.401 . S
C543 C542 1.443 . S
C543 C544 1.340 . S
C543 H575 0.951 . S
C544 C543 1.340 . S
C544 C545 1.439 . S
C544 H576 0.950 . S
C545 N541 1.374 . S
C545 C544 1.439 . S
C545 C570 1.395 . S
N546 Co535 1.995 1_565 S
N546 C547 1.376 . S
N546 C550 1.383 1_565 S
C547 N546 1.376 . S
C547 C548 1.446 . S
C547 C570 1.391 . S
C548 C547 1.446 . S
C548 C549 1.339 . S
C548 H577 0.949 . S
C549 C548 1.339 . S
C549 C550 1.439 1_565 S
C549 H578 0.950 . S
C550 N546 1.383 1_545 S
C550 C549 1.439 1_545 S
C550 C568 1.392 . S
N551 Co535 2.282 . S
N551 C554 1.332 1_545 S
N551 C556 1.332 . S
C552 C553 1.386 . S
C552 C555 1.388 1_565 S
C553 C552 1.386 . S
C553 C554 1.382 . S
C553 H579 0.950 . S
C554 N551 1.332 1_565 S
C554 C553 1.382 . S
C554 H565 0.952 . S
C555 C552 1.388 1_545 S
C555 C556 1.382 . S
C555 H580 0.950 . S
C556 N551 1.332 . S
C556 C555 1.382 . S
C556 H566 0.948 . S
N557 Co535 2.282 . S
N557 C561 1.332 . S
N557 C562 1.332 . S
C558 C559 1.388 . S
C558 C562 1.382 . S
C558 H581 0.950 1_545 S
C559 C558 1.388 . S
C559 C560 1.386 . S
C560 C559 1.386 . S
C560 C561 1.382 . S
C560 H582 0.950 . S
C561 N557 1.332 . S
C561 C560 1.382 . S
C561 H563 0.952 . S
C562 N557 1.332 . S
C562 C558 1.382 . S
C562 H564 0.948 1_545 S
H563 C561 0.952 . S
H564 C562 0.948 1_565 S
H565 C554 0.952 . S
H566 C556 0.948 . S
C567 C533 1.395 . S
C567 C537 1.391 . S
C568 C530 1.389 . S
C568 C550 1.392 . S
C569 C540 1.377 1_565 S
C569 C542 1.401 . S
C570 C545 1.395 . S
C570 C547 1.391 . S
H571 C531 0.951 . S
H572 C532 0.950 . S
H573 C538 0.949 . S
H574 C539 0.950 . S
H575 C543 0.951 . S
H576 C544 0.950 . S
H577 C548 0.949 . S
H578 C549 0.950 . S
H579 C553 0.950 . S
H580 C555 0.950 . S
H581 C558 0.950 1_565 S
H582 C560 0.950 . S
C583 C584 1.443 . S
C583 N587 1.376 . S
C583 C621 1.389 . S
C584 C583 1.443 . S
C584 C585 1.340 . S
C584 H624 0.951 . S
C585 C584 1.340 . S
C585 C586 1.439 . S
C585 H625 0.950 . S
C586 C585 1.439 . S
C586 N587 1.374 . S
C586 C620 1.395 . S
N587 C583 1.376 . S
N587 C586 1.374 . S
N587 Co588 2.008 1_556 S
Co588 N587 2.008 1_554 S
Co588 N589 1.995 1_554 S
Co588 N594 2.008 . S
Co588 N599 1.995 . S
Co588 N604 2.282 . S
Co588 N610 2.282 1_554 S
N589 Co588 1.995 1_556 S
N589 C590 1.376 . S
N589 C593 1.383 . S
C590 N589 1.376 . S
C590 C591 1.446 . S
C590 C620 1.391 . S
C591 C590 1.446 . S
C591 C592 1.339 . S
C591 H626 0.949 . S
C592 C591 1.339 . S
C592 C593 1.439 . S
C592 H627 0.950 . S
C593 N589 1.383 . S
C593 C592 1.439 . S
C593 C622 1.392 1_556 S
N594 Co588 2.008 . S
N594 C595 1.376 . S
N594 C598 1.374 . S
C595 N594 1.376 . S
C595 C596 1.443 . S
C595 C622 1.389 . S
C596 C595 1.443 . S
C596 C597 1.340 . S
C596 H628 0.951 . S
C597 C596 1.340 . S
C597 C598 1.439 . S
C597 H629 0.950 . S
C598 N594 1.374 . S
C598 C597 1.439 . S
C598 C623 1.395 . S
N599 Co588 1.995 . S
N599 C600 1.376 . S
N599 C603 1.383 . S
C600 N599 1.376 . S
C600 C601 1.446 . S
C600 C623 1.391 . S
C601 C600 1.446 . S
C601 C602 1.339 . S
C601 H630 0.949 . S
C602 C601 1.339 . S
C602 C603 1.439 . S
C602 H631 0.950 . S
C603 N599 1.383 . S
C603 C602 1.439 . S
C603 C621 1.392 1_554 S
N604 Co588 2.282 . S
N604 C607 1.332 . S
N604 C609 1.332 1_554 S
C605 C606 1.386 . S
C605 C608 1.388 1_554 S
C606 C605 1.386 . S
C606 C607 1.382 . S
C606 H632 0.950 . S
C607 N604 1.332 . S
C607 C606 1.382 . S
C607 H618 0.952 . S
C608 C605 1.388 1_556 S
C608 C609 1.382 . S
C608 H633 0.950 . S
C609 N604 1.332 1_556 S
C609 C608 1.382 . S
C609 H619 0.948 . S
N610 Co588 2.282 1_556 S
N610 C614 1.332 . S
N610 C615 1.332 1_556 S
C611 C612 1.388 1_554 S
C611 C615 1.382 . S
C611 H634 0.950 . S
C612 C611 1.388 1_556 S
C612 C613 1.386 . S
C613 C612 1.386 . S
C613 C614 1.382 . S
C613 H635 0.950 . S
C614 N610 1.332 . S
C614 C613 1.382 . S
C614 H616 0.952 . S
C615 N610 1.332 1_554 S
C615 C611 1.382 . S
C615 H617 0.948 . S
H616 C614 0.952 . S
H617 C615 0.948 . S
H618 C607 0.952 . S
H619 C609 0.948 . S
C620 C586 1.395 . S
C620 C590 1.391 . S
C621 C583 1.389 . S
C621 C603 1.392 1_556 S
C622 C593 1.392 1_554 S
C622 C595 1.389 . S
C623 C598 1.395 . S
C623 C600 1.391 . S
H624 C584 0.951 . S
H625 C585 0.950 . S
H626 C591 0.949 . S
H627 C592 0.950 . S
H628 C596 0.951 . S
H629 C597 0.950 . S
H630 C601 0.949 . S
H631 C602 0.950 . S
H632 C606 0.950 . S
H633 C608 0.950 . S
H634 C611 0.950 . S
H635 C613 0.950 . S
O636 Zn637 1.953 . S
O636 C652 1.225 . S
Zn637 O636 1.953 . S
Zn637 O638 1.949 . S
Zn637 O644 1.919 . S
Zn637 O649 1.924 . S
O638 Zn637 1.949 . S
O638 Zn639 1.923 . S
O638 Zn640 1.950 . S
O638 Zn641 1.945 . S
Zn639 O638 1.923 . S
Zn639 O642 1.933 . S
Zn639 O645 1.941 . S
Zn639 O646 1.965 . S
Zn640 O638 1.950 . S
Zn640 O647 1.938 . S
Zn640 O648 1.906 . S
Zn640 O658 1.953 . S
Zn641 O638 1.945 . S
Zn641 O643 1.932 . S
Zn641 O650 1.977 . S
Zn641 O651 1.910 . S
O642 Zn639 1.933 . S
O642 C653 1.226 . S
O643 Zn641 1.932 . S
O643 C653 1.307 . S
O644 Zn637 1.919 . S
O644 C655 1.253 . S
O645 Zn639 1.941 . S
O645 C655 1.283 . S
O646 Zn639 1.965 . S
O646 C654 1.303 . S
O647 Zn640 1.938 . S
O647 C654 1.247 . S
O648 Zn640 1.906 . S
O648 C656 1.304 1_554 S
O649 Zn637 1.924 . S
O649 C657 1.311 . S
O650 Zn641 1.977 . S
O650 C656 1.272 1_554 S
O651 Zn641 1.910 . S
O651 C657 1.231 . S
C652 O636 1.225 . S
C652 O658 1.298 . S
C653 O642 1.226 . S
C653 O643 1.307 . S
C654 O646 1.303 . S
C654 O647 1.247 . S
C655 O644 1.253 . S
C655 O645 1.283 . S
C656 O648 1.304 1_556 S
C656 O650 1.272 1_556 S
C657 O649 1.311 . S
C657 O651 1.231 . S
O658 Zn640 1.953 . S
O658 C652 1.298 . S
O659 Zn660 1.953 . S
O659 C675 1.225 . S
Zn660 O659 1.953 . S
Zn660 O661 1.949 . S
Zn660 O667 1.919 . S
Zn660 O672 1.924 . S
O661 Zn660 1.949 . S
O661 Zn662 1.923 . S
O661 Zn663 1.950 . S
O661 Zn664 1.945 . S
Zn662 O661 1.923 . S
Zn662 O665 1.933 . S
Zn662 O668 1.941 . S
Zn662 O669 1.965 . S
Zn663 O661 1.950 . S
Zn663 O670 1.938 . S
Zn663 O671 1.906 1_554 S
Zn663 O681 1.953 . S
Zn664 O661 1.945 . S
Zn664 O666 1.932 1_655 S
Zn664 O673 1.977 . S
Zn664 O674 1.910 . S
O665 Zn662 1.933 . S
O665 C676 1.226 1_655 S
O666 Zn664 1.932 1_455 S
O666 C676 1.307 . S
O667 Zn660 1.919 . S
O667 C678 1.253 . S
O668 Zn662 1.941 . S
O668 C678 1.283 . S
O669 Zn662 1.965 . S
O669 C677 1.303 . S
O670 Zn663 1.938 . S
O670 C677 1.247 . S
O671 Zn663 1.906 1_556 S
O671 C679 1.304 . S
O672 Zn660 1.924 . S
O672 C680 1.311 . S
O673 Zn664 1.977 . S
O673 C679 1.272 1_554 S
O674 Zn664 1.910 . S
O674 C680 1.231 . S
C675 O659 1.225 . S
C675 O681 1.298 . S
C676 O665 1.226 1_455 S
C676 O666 1.307 . S
C677 O669 1.303 . S
C677 O670 1.247 . S
C678 O667 1.253 . S
C678 O668 1.283 . S
C679 O671 1.304 . S
C679 O673 1.272 1_556 S
C680 O672 1.311 . S
C680 O674 1.231 . S
O681 Zn663 1.953 . S
O681 C675 1.298 . S
O682 Zn683 1.953 . S
O682 C698 1.225 . S
Zn683 O682 1.953 . S
Zn683 O684 1.949 . S
Zn683 O690 1.919 . S
Zn683 O695 1.924 . S
O684 Zn683 1.949 . S
O684 Zn685 1.923 . S
O684 Zn686 1.950 . S
O684 Zn687 1.945 . S
Zn685 O684 1.923 . S
Zn685 O688 1.933 . S
Zn685 O691 1.941 . S
Zn685 O692 1.965 . S
Zn686 O684 1.950 . S
Zn686 O693 1.938 . S
Zn686 O694 1.906 . S
Zn686 O704 1.953 . S
Zn687 O684 1.945 . S
Zn687 O689 1.932 . S
Zn687 O696 1.977 . S
Zn687 O697 1.910 . S
O688 Zn685 1.933 . S
O688 C699 1.226 . S
O689 Zn687 1.932 . S
O689 C699 1.307 . S
O690 Zn683 1.919 . S
O690 C701 1.253 . S
O691 Zn685 1.941 . S
O691 C701 1.283 . S
O692 Zn685 1.965 . S
O692 C700 1.303 . S
O693 Zn686 1.938 . S
O693 C700 1.247 . S
O694 Zn686 1.906 . S
O694 C702 1.304 1_455 S
O695 Zn683 1.924 . S
O695 C703 1.311 . S
O696 Zn687 1.977 . S
O696 C702 1.272 1_455 S
O697 Zn687 1.910 . S
O697 C703 1.231 . S
C698 O682 1.225 . S
C698 O704 1.298 . S
C699 O688 1.226 . S
C699 O689 1.307 . S
C700 O692 1.303 . S
C700 O693 1.247 . S
C701 O690 1.253 . S
C701 O691 1.283 . S
C702 O694 1.304 1_655 S
C702 O696 1.272 1_655 S
C703 O695 1.311 . S
C703 O697 1.231 . S
O704 Zn686 1.953 . S
O704 C698 1.298 . S
O705 Zn706 1.953 . S
O705 C721 1.225 . S
Zn706 O705 1.953 . S
Zn706 O707 1.949 . S
Zn706 O713 1.919 . S
Zn706 O718 1.924 . S
O707 Zn706 1.949 . S
O707 Zn708 1.923 . S
O707 Zn709 1.950 . S
O707 Zn710 1.945 . S
Zn708 O707 1.923 . S
Zn708 O711 1.933 . S
Zn708 O714 1.941 . S
Zn708 O715 1.965 . S
Zn709 O707 1.950 . S
Zn709 O716 1.938 . S
Zn709 O717 1.906 . S
Zn709 O727 1.953 . S
Zn710 O707 1.945 . S
Zn710 O712 1.932 . S
Zn710 O719 1.977 . S
Zn710 O720 1.910 1_655 S
O711 Zn708 1.933 . S
O711 C722 1.226 . S
O712 Zn710 1.932 . S
O712 C722 1.307 . S
O713 Zn706 1.919 . S
O713 C724 1.253 . S
O714 Zn708 1.941 . S
O714 C724 1.283 . S
O715 Zn708 1.965 . S
O715 C723 1.303 . S
O716 Zn709 1.938 . S
O716 C723 1.247 . S
O717 Zn709 1.906 . S
O717 C725 1.304 . S
O718 Zn706 1.924 . S
O718 C726 1.311 1_655 S
O719 Zn710 1.977 . S
O719 C725 1.272 . S
O720 Zn710 1.910 1_455 S
O720 C726 1.231 . S
C721 O705 1.225 . S
C721 O727 1.298 . S
C722 O711 1.226 . S
C722 O712 1.307 . S
C723 O715 1.303 . S
C723 O716 1.247 . S
C724 O713 1.253 . S
C724 O714 1.283 . S
C725 O717 1.304 . S
C725 O719 1.272 . S
C726 O718 1.311 1_455 S
C726 O720 1.231 . S
O727 Zn709 1.953 . S
O727 C721 1.298 . S
O728 Zn729 1.953 . S
O728 C744 1.225 . S
Zn729 O728 1.953 . S
Zn729 O730 1.949 . S
Zn729 O736 1.919 . S
Zn729 O741 1.924 . S
O730 Zn729 1.949 . S
O730 Zn731 1.923 . S
O730 Zn732 1.950 . S
O730 Zn733 1.945 . S
Zn731 O730 1.923 . S
Zn731 O734 1.933 . S
Zn731 O737 1.941 . S
Zn731 O738 1.965 . S
Zn732 O730 1.950 . S
Zn732 O739 1.938 . S
Zn732 O740 1.906 . S
Zn732 O750 1.953 . S
Zn733 O730 1.945 . S
Zn733 O735 1.932 . S
Zn733 O742 1.977 . S
Zn733 O743 1.910 . S
O734 Zn731 1.933 . S
O734 C745 1.226 . S
O735 Zn733 1.932 . S
O735 C745 1.307 . S
O736 Zn729 1.919 . S
O736 C747 1.253 . S
O737 Zn731 1.941 . S
O737 C747 1.283 . S
O738 Zn731 1.965 . S
O738 C746 1.303 . S
O739 Zn732 1.938 . S
O739 C746 1.247 . S
O740 Zn732 1.906 . S
O740 C748 1.304 . S
O741 Zn729 1.924 . S
O741 C749 1.311 . S
O742 Zn733 1.977 . S
O742 C748 1.272 . S
O743 Zn733 1.910 . S
O743 C749 1.231 . S
C744 O728 1.225 . S
C744 O750 1.298 . S
C745 O734 1.226 . S
C745 O735 1.307 . S
C746 O738 1.303 . S
C746 O739 1.247 . S
C747 O736 1.253 . S
C747 O737 1.283 . S
C748 O740 1.304 . S
C748 O742 1.272 . S
C749 O741 1.311 . S
C749 O743 1.231 . S
O750 Zn732 1.953 . S
O750 C744 1.298 . S
O751 Zn752 1.953 . S
O751 C767 1.225 . S
Zn752 O751 1.953 . S
Zn752 O753 1.949 . S
Zn752 O759 1.919 . S
Zn752 O764 1.924 . S
O753 Zn752 1.949 . S
O753 Zn754 1.923 . S
O753 Zn755 1.950 . S
O753 Zn756 1.945 . S
Zn754 O753 1.923 . S
Zn754 O757 1.933 . S
Zn754 O760 1.941 . S
Zn754 O761 1.965 . S
Zn755 O753 1.950 . S
Zn755 O762 1.938 . S
Zn755 O763 1.906 . S
Zn755 O773 1.953 . S
Zn756 O753 1.945 . S
Zn756 O758 1.932 . S
Zn756 O765 1.977 . S
Zn756 O766 1.910 . S
O757 Zn754 1.933 . S
O757 C768 1.226 . S
O758 Zn756 1.932 . S
O758 C768 1.307 . S
O759 Zn752 1.919 . S
O759 C770 1.253 . S
O760 Zn754 1.941 . S
O760 C770 1.283 . S
O761 Zn754 1.965 . S
O761 C769 1.303 . S
O762 Zn755 1.938 . S
O762 C769 1.247 . S
O763 Zn755 1.906 . S
O763 C771 1.304 . S
O764 Zn752 1.924 . S
O764 C772 1.311 . S
O765 Zn756 1.977 . S
O765 C771 1.272 . S
O766 Zn756 1.910 . S
O766 C772 1.231 . S
C767 O751 1.225 . S
C767 O773 1.298 . S
C768 O757 1.226 . S
C768 O758 1.307 . S
C769 O761 1.303 . S
C769 O762 1.247 . S
C770 O759 1.253 . S
C770 O760 1.283 . S
C771 O763 1.304 . S
C771 O765 1.272 . S
C772 O764 1.311 . S
C772 O766 1.231 . S
O773 Zn755 1.953 . S
O773 C767 1.298 . S
O774 Zn775 1.953 . S
O774 C790 1.225 . S
Zn775 O774 1.953 . S
Zn775 O776 1.949 . S
Zn775 O782 1.919 . S
Zn775 O787 1.924 1_556 S
O776 Zn775 1.949 . S
O776 Zn777 1.923 . S
O776 Zn778 1.950 . S
O776 Zn779 1.945 . S
Zn777 O776 1.923 . S
Zn777 O780 1.933 . S
Zn777 O783 1.941 . S
Zn777 O784 1.965 . S
Zn778 O776 1.950 . S
Zn778 O785 1.938 . S
Zn778 O786 1.906 . S
Zn778 O796 1.953 . S
Zn779 O776 1.945 . S
Zn779 O781 1.932 . S
Zn779 O788 1.977 . S
Zn779 O789 1.910 1_556 S
O780 Zn777 1.933 . S
O780 C791 1.226 . S
O781 Zn779 1.932 . S
O781 C791 1.307 . S
O782 Zn775 1.919 . S
O782 C793 1.253 . S
O783 Zn777 1.941 . S
O783 C793 1.283 . S
O784 Zn777 1.965 . S
O784 C792 1.303 . S
O785 Zn778 1.938 . S
O785 C792 1.247 . S
O786 Zn778 1.906 . S
O786 C794 1.304 . S
O787 Zn775 1.924 1_554 S
O787 C795 1.311 . S
O788 Zn779 1.977 . S
O788 C794 1.272 . S
O789 Zn779 1.910 1_554 S
O789 C795 1.231 . S
C790 O774 1.225 . S
C790 O796 1.298 . S
C791 O780 1.226 . S
C791 O781 1.307 . S
C792 O784 1.303 . S
C792 O785 1.247 . S
C793 O782 1.253 . S
C793 O783 1.283 . S
C794 O786 1.304 . S
C794 O788 1.272 . S
C795 O787 1.311 . S
C795 O789 1.231 . S
O796 Zn778 1.953 . S
O796 C790 1.298 . S
O797 Zn798 1.953 . S
O797 C813 1.225 . S
Zn798 O797 1.953 . S
Zn798 O799 1.949 . S
Zn798 O805 1.919 . S
Zn798 O810 1.924 . S
O799 Zn798 1.949 . S
O799 Zn800 1.923 . S
O799 Zn801 1.950 . S
O799 Zn802 1.945 . S
Zn800 O799 1.923 . S
Zn800 O803 1.933 . S
Zn800 O806 1.941 . S
Zn800 O807 1.965 . S
Zn801 O799 1.950 . S
Zn801 O808 1.938 . S
Zn801 O809 1.906 . S
Zn801 O819 1.953 . S
Zn802 O799 1.945 . S
Zn802 O804 1.932 . S
Zn802 O811 1.977 . S
Zn802 O812 1.910 . S
O803 Zn800 1.933 . S
O803 C814 1.226 . S
O804 Zn802 1.932 . S
O804 C814 1.307 . S
O805 Zn798 1.919 . S
O805 C816 1.253 . S
O806 Zn800 1.941 . S
O806 C816 1.283 . S
O807 Zn800 1.965 . S
O807 C815 1.303 . S
O808 Zn801 1.938 . S
O808 C815 1.247 . S
O809 Zn801 1.906 . S
O809 C817 1.304 . S
O810 Zn798 1.924 . S
O810 C818 1.311 . S
O811 Zn802 1.977 . S
O811 C817 1.272 . S
O812 Zn802 1.910 . S
O812 C818 1.231 . S
C813 O797 1.225 . S
C813 O819 1.298 . S
C814 O803 1.226 . S
C814 O804 1.307 . S
C815 O807 1.303 . S
C815 O808 1.247 . S
C816 O805 1.253 . S
C816 O806 1.283 . S
C817 O809 1.304 . S
C817 O811 1.272 . S
C818 O810 1.311 . S
C818 O812 1.231 . S
O819 Zn801 1.953 . S
O819 C813 1.298 . S
H820 C828 0.950 . S
H821 C833 0.950 . S
H822 C830 0.950 . S
H823 C832 0.950 . S
H824 C834 0.950 . S
H825 C836 0.950 . S
H826 C838 0.950 . S
H827 C839 0.950 . S
C828 H820 0.950 . S
C828 C829 1.386 . S
C828 C830 1.391 . S
C829 C828 1.386 . S
C829 C833 1.393 . S
C830 H822 0.950 . S
C830 C828 1.391 . S
C830 C831 1.400 . S
C831 C830 1.400 . S
C831 C832 1.398 . S
C831 C837 1.491 . S
C832 H823 0.950 . S
C832 C831 1.398 . S
C832 C833 1.391 . S
C833 H821 0.950 . S
C833 C829 1.393 . S
C833 C832 1.391 . S
C834 H824 0.950 . S
C834 C835 1.386 . S
C834 C836 1.391 . S
C835 C834 1.386 . S
C835 C839 1.393 . S
C836 H825 0.950 . S
C836 C834 1.391 . S
C836 C837 1.400 . S
C837 C831 1.491 . S
C837 C836 1.400 . S
C837 C838 1.398 . S
C838 H826 0.950 . S
C838 C837 1.398 . S
C838 C839 1.391 . S
C839 H827 0.950 . S
C839 C835 1.393 . S
C839 C838 1.391 . S
H840 C848 0.950 . S
H841 C853 0.950 . S
H842 C850 0.950 . S
H843 C852 0.950 . S
H844 C854 0.950 . S
H845 C856 0.950 . S
H846 C858 0.950 . S
H847 C859 0.950 . S
C848 H840 0.950 . S
C848 C849 1.386 . S
C848 C850 1.391 . S
C849 C848 1.386 . S
C849 C853 1.393 . S
C850 H842 0.950 . S
C850 C848 1.391 . S
C850 C851 1.400 . S
C851 C850 1.400 . S
C851 C852 1.398 . S
C851 C857 1.491 . S
C852 H843 0.950 . S
C852 C851 1.398 . S
C852 C853 1.391 . S
C853 H841 0.950 . S
C853 C849 1.393 . S
C853 C852 1.391 . S
C854 H844 0.950 . S
C854 C855 1.386 . S
C854 C856 1.391 . S
C855 C854 1.386 . S
C855 C859 1.393 . S
C856 H845 0.950 . S
C856 C854 1.391 . S
C856 C857 1.400 . S
C857 C851 1.491 . S
C857 C856 1.400 . S
C857 C858 1.398 . S
C858 H846 0.950 . S
C858 C857 1.398 . S
C858 C859 1.391 . S
C859 H847 0.950 . S
C859 C855 1.393 . S
C859 C858 1.391 . S
H860 C868 0.950 . S
H861 C873 0.950 . S
H862 C870 0.950 . S
H863 C872 0.950 . S
H864 C874 0.950 . S
H865 C876 0.950 . S
H866 C878 0.950 . S
H867 C879 0.950 . S
C868 H860 0.950 . S
C868 C869 1.386 . S
C868 C870 1.391 . S
C869 C868 1.386 . S
C869 C873 1.393 . S
C870 H862 0.950 . S
C870 C868 1.391 . S
C870 C871 1.400 . S
C871 C870 1.400 . S
C871 C872 1.398 . S
C871 C877 1.491 . S
C872 H863 0.950 . S
C872 C871 1.398 . S
C872 C873 1.391 . S
C873 H861 0.950 . S
C873 C869 1.393 . S
C873 C872 1.391 . S
C874 H864 0.950 . S
C874 C875 1.386 . S
C874 C876 1.391 . S
C875 C874 1.386 . S
C875 C879 1.393 . S
C876 H865 0.950 . S
C876 C874 1.391 . S
C876 C877 1.400 . S
C877 C871 1.491 . S
C877 C876 1.400 . S
C877 C878 1.398 . S
C878 H866 0.950 . S
C878 C877 1.398 . S
C878 C879 1.391 . S
C879 H867 0.950 . S
C879 C875 1.393 . S
C879 C878 1.391 . S
H880 C888 0.950 . S
H881 C893 0.950 . S
H882 C890 0.950 . S
H883 C892 0.950 . S
H884 C894 0.950 . S
H885 C896 0.950 . S
H886 C898 0.950 . S
H887 C899 0.950 . S
C888 H880 0.950 . S
C888 C889 1.386 . S
C888 C890 1.391 . S
C889 C888 1.386 . S
C889 C893 1.393 1_455 S
C890 H882 0.950 . S
C890 C888 1.391 . S
C890 C891 1.400 1_455 S
C891 C890 1.400 1_655 S
C891 C892 1.398 . S
C891 C897 1.491 . S
C892 H883 0.950 . S
C892 C891 1.398 . S
C892 C893 1.391 . S
C893 H881 0.950 . S
C893 C889 1.393 1_655 S
C893 C892 1.391 . S
C894 H884 0.950 . S
C894 C895 1.386 . S
C894 C896 1.391 . S
C895 C894 1.386 . S
C895 C899 1.393 1_655 S
C896 H885 0.950 . S
C896 C894 1.391 . S
C896 C897 1.400 . S
C897 C891 1.491 . S
C897 C896 1.400 . S
C897 C898 1.398 1_655 S
C898 H886 0.950 . S
C898 C897 1.398 1_455 S
C898 C899 1.391 . S
C899 H887 0.950 . S
C899 C895 1.393 1_455 S
C899 C898 1.391 . S
H900 C908 0.950 1_565 S
H901 C913 0.950 . S
H902 C910 0.950 1_565 S
H903 C912 0.950 . S
H904 C914 0.950 . S
H905 C916 0.950 . S
H906 C918 0.926 1_565 S
H907 C919 0.939 1_565 S
C908 H900 0.950 1_545 S
C908 C909 1.386 . S
C908 C910 1.391 . S
C909 C908 1.386 . S
C909 C913 1.393 . S
C910 H902 0.950 1_545 S
C910 C908 1.391 . S
C910 C911 1.400 . S
C911 C910 1.400 . S
C911 C912 1.398 . S
C911 C917 1.491 . S
C912 H903 0.950 . S
C912 C911 1.398 . S
C912 C913 1.391 . S
C913 H901 0.950 . S
C913 C909 1.393 . S
C913 C912 1.391 . S
C914 H904 0.950 . S
C914 C915 1.386 . S
C914 C916 1.391 . S
C915 C914 1.386 . S
C915 C919 1.393 . S
C916 H905 0.950 . S
C916 C914 1.391 . S
C916 C917 1.400 . S
C917 C911 1.491 . S
C917 C916 1.400 . S
C917 C918 1.398 . S
C918 H906 0.926 1_545 S
C918 C917 1.398 . S
C918 C919 1.391 . S
C919 H907 0.939 1_545 S
C919 C915 1.393 . S
C919 C918 1.391 . S
H920 C928 0.950 . S
H921 C933 0.950 . S
H922 C930 0.950 . S
H923 C932 0.950 . S
H924 C934 0.950 . S
H925 C936 0.950 . S
H926 C938 0.950 . S
H927 C939 0.950 . S
C928 H920 0.950 . S
C928 C929 1.386 . S
C928 C930 1.391 . S
C929 C928 1.386 . S
C929 C933 1.393 . S
C930 H922 0.950 . S
C930 C928 1.391 . S
C930 C931 1.400 . S
C931 C930 1.400 . S
C931 C932 1.398 . S
C931 C937 1.491 . S
C932 H923 0.950 . S
C932 C931 1.398 . S
C932 C933 1.391 . S
C933 H921 0.950 . S
C933 C929 1.393 . S
C933 C932 1.391 . S
C934 H924 0.950 . S
C934 C935 1.386 . S
C934 C936 1.391 . S
C935 C934 1.386 . S
C935 C939 1.393 . S
C936 H925 0.950 . S
C936 C934 1.391 . S
C936 C937 1.400 . S
C937 C931 1.491 . S
C937 C936 1.400 . S
C937 C938 1.398 . S
C938 H926 0.950 . S
C938 C937 1.398 . S
C938 C939 1.391 . S
C939 H927 0.950 . S
C939 C935 1.393 . S
C939 C938 1.391 . S
H940 C948 0.950 . S
H941 C953 0.950 . S
H942 C950 0.950 . S
H943 C952 0.950 1_545 S
H944 C954 0.959 . S
H945 C956 0.950 1_545 S
H946 C958 0.950 . S
H947 C959 0.950 . S
C948 H940 0.950 . S
C948 C949 1.386 . S
C948 C950 1.391 . S
C949 C948 1.386 . S
C949 C953 1.393 1_565 S
C950 H942 0.950 . S
C950 C948 1.391 . S
C950 C951 1.400 . S
C951 C950 1.400 . S
C951 C952 1.398 . S
C951 C957 1.491 . S
C952 H943 0.950 1_565 S
C952 C951 1.398 . S
C952 C953 1.391 1_565 S
C953 H941 0.950 . S
C953 C949 1.393 1_545 S
C953 C952 1.391 1_545 S
C954 H944 0.959 . S
C954 C955 1.386 . S
C954 C956 1.391 . S
C955 C954 1.386 . S
C955 C959 1.393 . S
C956 H945 0.950 1_565 S
C956 C954 1.391 . S
C956 C957 1.400 . S
C957 C951 1.491 . S
C957 C956 1.400 . S
C957 C958 1.398 . S
C958 H946 0.950 . S
C958 C957 1.398 . S
C958 C959 1.391 . S
C959 H947 0.950 . S
C959 C955 1.393 . S
C959 C958 1.391 . S
H960 C968 0.950 . S
H961 C973 0.950 . S
H962 C970 0.950 . S
H963 C972 0.950 . S
H964 C974 0.950 . S
H965 C976 0.950 . S
H966 C978 0.950 . S
H967 C979 0.950 . S
C968 H960 0.950 . S
C968 C969 1.386 . S
C968 C970 1.391 . S
C969 C968 1.386 . S
C969 C973 1.393 . S
C970 H962 0.950 . S
C970 C968 1.391 . S
C970 C971 1.400 . S
C971 C970 1.400 . S
C971 C972 1.398 . S
C971 C977 1.491 . S
C972 H963 0.950 . S
C972 C971 1.398 . S
C972 C973 1.391 . S
C973 H961 0.950 . S
C973 C969 1.393 . S
C973 C972 1.391 . S
C974 H964 0.950 . S
C974 C975 1.386 . S
C974 C976 1.391 . S
C975 C974 1.386 . S
C975 C979 1.393 . S
C976 H965 0.950 . S
C976 C974 1.391 . S
C976 C977 1.400 . S
C977 C971 1.491 . S
C977 C976 1.400 . S
C977 C978 1.398 . S
C978 H966 0.950 . S
C978 C977 1.398 . S
C978 C979 1.391 . S
C979 H967 0.950 . S
C979 C975 1.393 . S
C979 C978 1.391 . S
H980 C988 0.950 . S
H981 C993 0.950 1_556 S
H982 C990 0.950 . S
H983 C992 0.950 1_556 S
H984 C994 0.950 . S
H985 C996 0.950 1_556 S
H986 C998 0.950 . S
H987 C999 0.950 . S
C988 H980 0.950 . S
C988 C989 1.386 . S
C988 C990 1.391 . S
C989 C988 1.386 . S
C989 C993 1.393 . S
C990 H982 0.950 . S
C990 C988 1.391 . S
C990 C991 1.400 . S
C991 C990 1.400 . S
C991 C992 1.398 . S
C991 C997 1.491 . S
C992 H983 0.950 1_554 S
C992 C991 1.398 . S
C992 C993 1.391 . S
C993 H981 0.950 1_554 S
C993 C989 1.393 . S
C993 C992 1.391 . S
C994 H984 0.950 . S
C994 C995 1.386 1_556 S
C994 C996 1.391 1_556 S
C995 C994 1.386 1_554 S
C995 C999 1.393 . S
C996 H985 0.950 1_554 S
C996 C994 1.391 1_554 S
C996 C997 1.400 . S
C997 C991 1.491 . S
C997 C996 1.400 . S
C997 C998 1.398 . S
C998 H986 0.950 . S
C998 C997 1.398 . S
C998 C999 1.391 . S
C999 H987 0.950 . S
C999 C995 1.393 . S
C999 C998 1.391 . S
H1000 C1008 0.950 . S
H1001 C1013 0.950 . S
H1002 C1010 0.950 . S
H1003 C1012 0.950 . S
H1004 C1014 0.950 . S
H1005 C1016 0.950 . S
H1006 C1018 0.950 . S
H1007 C1019 0.950 . S
C1008 H1000 0.950 . S
C1008 C1009 1.386 . S
C1008 C1010 1.391 . S
C1009 C1008 1.386 . S
C1009 C1013 1.393 . S
C1010 H1002 0.950 . S
C1010 C1008 1.391 . S
C1010 C1011 1.400 . S
C1011 C1010 1.400 . S
C1011 C1012 1.398 . S
C1011 C1017 1.491 . S
C1012 H1003 0.950 . S
C1012 C1011 1.398 . S
C1012 C1013 1.391 . S
C1013 H1001 0.950 . S
C1013 C1009 1.393 . S
C1013 C1012 1.391 . S
C1014 H1004 0.950 . S
C1014 C1015 1.386 . S
C1014 C1016 1.391 . S
C1015 C1014 1.386 . S
C1015 C1019 1.393 . S
C1016 H1005 0.950 . S
C1016 C1014 1.391 . S
C1016 C1017 1.400 . S
C1017 C1011 1.491 . S
C1017 C1016 1.400 . S
C1017 C1018 1.398 . S
C1018 H1006 0.950 . S
C1018 C1017 1.398 . S
C1018 C1019 1.391 . S
C1019 H1007 0.950 . S
C1019 C1015 1.393 . S
C1019 C1018 1.391 . S
H1020 C1028 0.950 . S
H1021 C1033 0.950 . S
H1022 C1030 0.950 . S
H1023 C1032 0.950 . S
H1024 C1034 0.950 . S
H1025 C1036 0.950 . S
H1026 C1038 0.950 . S
H1027 C1039 0.950 . S
C1028 H1020 0.950 . S
C1028 C1029 1.386 . S
C1028 C1030 1.391 . S
C1029 C1028 1.386 . S
C1029 C1033 1.393 . S
C1030 H1022 0.950 . S
C1030 C1028 1.391 . S
C1030 C1031 1.400 . S
C1031 C1030 1.400 . S
C1031 C1032 1.398 . S
C1031 C1037 1.491 . S
C1032 H1023 0.950 . S
C1032 C1031 1.398 . S
C1032 C1033 1.391 . S
C1033 H1021 0.950 . S
C1033 C1029 1.393 . S
C1033 C1032 1.391 . S
C1034 H1024 0.950 . S
C1034 C1035 1.386 . S
C1034 C1036 1.391 . S
C1035 C1034 1.386 . S
C1035 C1039 1.393 . S
C1036 H1025 0.950 . S
C1036 C1034 1.391 . S
C1036 C1037 1.400 . S
C1037 C1031 1.491 . S
C1037 C1036 1.400 . S
C1037 C1038 1.398 . S
C1038 H1026 0.950 . S
C1038 C1037 1.398 . S
C1038 C1039 1.391 . S
C1039 H1027 0.950 . S
C1039 C1035 1.393 . S
C1039 C1038 1.391 . S
H1040 C1048 0.950 . S
H1041 C1053 0.950 . S
H1042 C1050 0.950 . S
H1043 C1052 0.950 . S
H1044 C1054 0.950 . S
H1045 C1056 0.950 . S
H1046 C1058 0.950 . S
H1047 C1059 0.950 . S
C1048 H1040 0.950 . S
C1048 C1049 1.386 . S
C1048 C1050 1.391 . S
C1049 C1048 1.386 . S
C1049 C1053 1.393 . S
C1050 H1042 0.950 . S
C1050 C1048 1.391 . S
C1050 C1051 1.400 . S
C1051 C1050 1.400 . S
C1051 C1052 1.398 . S
C1051 C1057 1.491 . S
C1052 H1043 0.950 . S
C1052 C1051 1.398 . S
C1052 C1053 1.391 . S
C1053 H1041 0.950 . S
C1053 C1049 1.393 . S
C1053 C1052 1.391 . S
C1054 H1044 0.950 . S
C1054 C1055 1.386 . S
C1054 C1056 1.391 . S
C1055 C1054 1.386 . S
C1055 C1059 1.393 . S
C1056 H1045 0.950 . S
C1056 C1054 1.391 . S
C1056 C1057 1.400 . S
C1057 C1051 1.491 . S
C1057 C1056 1.400 . S
C1057 C1058 1.398 . S
C1058 H1046 0.950 . S
C1058 C1057 1.398 . S
C1058 C1059 1.391 . S
C1059 H1047 0.950 . S
C1059 C1055 1.393 . S
C1059 C1058 1.391 . S
H1060 C1068 0.950 . S
H1061 C1073 0.950 . S
H1062 C1070 0.950 . S
H1063 C1072 0.950 . S
H1064 C1074 0.950 . S
H1065 C1076 0.950 . S
H1066 C1078 0.950 . S
H1067 C1079 0.950 . S
C1068 H1060 0.950 . S
C1068 C1069 1.386 . S
C1068 C1070 1.391 . S
C1069 C1068 1.386 . S
C1069 C1073 1.393 . S
C1070 H1062 0.950 . S
C1070 C1068 1.391 . S
C1070 C1071 1.400 . S
C1071 C1070 1.400 . S
C1071 C1072 1.398 . S
C1071 C1077 1.491 . S
C1072 H1063 0.950 . S
C1072 C1071 1.398 . S
C1072 C1073 1.391 . S
C1073 H1061 0.950 . S
C1073 C1069 1.393 . S
C1073 C1072 1.391 . S
C1074 H1064 0.950 . S
C1074 C1075 1.386 . S
C1074 C1076 1.391 . S
C1075 C1074 1.386 . S
C1075 C1079 1.393 . S
C1076 H1065 0.950 . S
C1076 C1074 1.391 . S
C1076 C1077 1.400 . S
C1077 C1071 1.491 . S
C1077 C1076 1.400 . S
C1077 C1078 1.398 . S
C1078 H1066 0.950 . S
C1078 C1077 1.398 . S
C1078 C1079 1.391 . S
C1079 H1067 0.950 . S
C1079 C1075 1.393 . S
C1079 C1078 1.391 . S
H1080 C1088 0.950 . S
H1081 C1093 0.950 . S
H1082 C1090 0.950 . S
H1083 C1092 0.950 . S
H1084 C1094 0.950 . S
H1085 C1096 0.950 . S
H1086 C1098 0.950 . S
H1087 C1099 0.950 . S
C1088 H1080 0.950 . S
C1088 C1089 1.386 . S
C1088 C1090 1.391 . S
C1089 C1088 1.386 . S
C1089 C1093 1.393 . S
C1090 H1082 0.950 . S
C1090 C1088 1.391 . S
C1090 C1091 1.400 . S
C1091 C1090 1.400 . S
C1091 C1092 1.398 . S
C1091 C1097 1.491 . S
C1092 H1083 0.950 . S
C1092 C1091 1.398 . S
C1092 C1093 1.391 . S
C1093 H1081 0.950 . S
C1093 C1089 1.393 . S
C1093 C1092 1.391 . S
C1094 H1084 0.950 . S
C1094 C1095 1.386 . S
C1094 C1096 1.391 . S
C1095 C1094 1.386 . S
C1095 C1099 1.393 . S
C1096 H1085 0.950 . S
C1096 C1094 1.391 . S
C1096 C1097 1.400 . S
C1097 C1091 1.491 . S
C1097 C1096 1.400 . S
C1097 C1098 1.398 . S
C1098 H1086 0.950 . S
C1098 C1097 1.398 . S
C1098 C1099 1.391 . S
C1099 H1087 0.950 . S
C1099 C1095 1.393 . S
C1099 C1098 1.391 . S
H1100 C1108 0.950 . S
H1101 C1113 0.950 . S
H1102 C1110 0.950 . S
H1103 C1112 0.950 . S
H1104 C1114 0.950 . S
H1105 C1116 0.950 . S
H1106 C1118 0.950 . S
H1107 C1119 0.950 . S
C1108 H1100 0.950 . S
C1108 C1109 1.386 . S
C1108 C1110 1.391 . S
C1109 C1108 1.386 . S
C1109 C1113 1.393 . S
C1110 H1102 0.950 . S
C1110 C1108 1.391 . S
C1110 C1111 1.400 . S
C1111 C1110 1.400 . S
C1111 C1112 1.398 . S
C1111 C1117 1.491 . S
C1112 H1103 0.950 . S
C1112 C1111 1.398 . S
C1112 C1113 1.391 . S
C1113 H1101 0.950 . S
C1113 C1109 1.393 . S
C1113 C1112 1.391 . S
C1114 H1104 0.950 . S
C1114 C1115 1.386 . S
C1114 C1116 1.391 . S
C1115 C1114 1.386 . S
C1115 C1119 1.393 . S
C1116 H1105 0.950 . S
C1116 C1114 1.391 . S
C1116 C1117 1.400 . S
C1117 C1111 1.491 . S
C1117 C1116 1.400 . S
C1117 C1118 1.398 . S
C1118 H1106 0.950 . S
C1118 C1117 1.398 . S
C1118 C1119 1.391 . S
C1119 H1107 0.950 . S
C1119 C1115 1.393 . S
C1119 C1118 1.391 . S
H1120 C1128 0.950 . S
H1121 C1133 0.950 . S
H1122 C1130 0.950 . S
H1123 C1132 0.950 . S
H1124 C1134 0.950 . S
H1125 C1136 0.950 . S
H1126 C1138 0.950 . S
H1127 C1139 0.950 . S
C1128 H1120 0.950 . S
C1128 C1129 1.386 . S
C1128 C1130 1.391 . S
C1129 C1128 1.386 . S
C1129 C1133 1.393 . S
C1130 H1122 0.950 . S
C1130 C1128 1.391 . S
C1130 C1131 1.400 . S
C1131 C1130 1.400 . S
C1131 C1132 1.398 . S
C1131 C1137 1.491 . S
C1132 H1123 0.950 . S
C1132 C1131 1.398 . S
C1132 C1133 1.391 . S
C1133 H1121 0.950 . S
C1133 C1129 1.393 . S
C1133 C1132 1.391 . S
C1134 H1124 0.950 . S
C1134 C1135 1.386 . S
C1134 C1136 1.391 . S
C1135 C1134 1.386 . S
C1135 C1139 1.393 . S
C1136 H1125 0.950 . S
C1136 C1134 1.391 . S
C1136 C1137 1.400 . S
C1137 C1131 1.491 . S
C1137 C1136 1.400 . S
C1137 C1138 1.398 . S
C1138 H1126 0.950 . S
C1138 C1137 1.398 . S
C1138 C1139 1.391 . S
C1139 H1127 0.950 . S
C1139 C1135 1.393 . S
C1139 C1138 1.391 . S
H1140 C1148 0.950 . S
H1141 C1153 0.950 . S
H1142 C1150 0.950 . S
H1143 C1152 0.950 . S
H1144 C1154 0.950 . S
H1145 C1156 0.950 . S
H1146 C1158 0.950 . S
H1147 C1159 0.950 . S
C1148 H1140 0.950 . S
C1148 C1149 1.386 . S
C1148 C1150 1.391 . S
C1149 C1148 1.386 . S
C1149 C1153 1.393 . S
C1150 H1142 0.950 . S
C1150 C1148 1.391 . S
C1150 C1151 1.400 . S
C1151 C1150 1.400 . S
C1151 C1152 1.398 . S
C1151 C1157 1.491 . S
C1152 H1143 0.950 . S
C1152 C1151 1.398 . S
C1152 C1153 1.391 . S
C1153 H1141 0.950 . S
C1153 C1149 1.393 . S
C1153 C1152 1.391 . S
C1154 H1144 0.950 . S
C1154 C1155 1.386 . S
C1154 C1156 1.391 . S
C1155 C1154 1.386 . S
C1155 C1159 1.393 . S
C1156 H1145 0.950 . S
C1156 C1154 1.391 . S
C1156 C1157 1.400 . S
C1157 C1151 1.491 . S
C1157 C1156 1.400 . S
C1157 C1158 1.398 . S
C1158 H1146 0.950 . S
C1158 C1157 1.398 . S
C1158 C1159 1.391 . S
C1159 H1147 0.950 . S
C1159 C1155 1.393 . S
C1159 C1158 1.391 . S
H1160 C1168 0.950 1_545 S
H1161 C1173 0.950 . S
H1162 C1170 0.950 . S
H1163 C1172 0.950 . S
H1164 C1174 0.950 . S
H1165 C1176 0.950 . S
H1166 C1178 0.950 . S
H1167 C1179 0.950 . S
C1168 H1160 0.950 1_565 S
C1168 C1169 1.386 . S
C1168 C1170 1.391 . S
C1169 C1168 1.386 . S
C1169 C1173 1.393 . S
C1170 H1162 0.950 . S
C1170 C1168 1.391 . S
C1170 C1171 1.400 . S
C1171 C1170 1.400 . S
C1171 C1172 1.398 . S
C1171 C1177 1.491 . S
C1172 H1163 0.950 . S
C1172 C1171 1.398 . S
C1172 C1173 1.391 . S
C1173 H1161 0.950 . S
C1173 C1169 1.393 . S
C1173 C1172 1.391 . S
C1174 H1164 0.950 . S
C1174 C1175 1.386 . S
C1174 C1176 1.391 . S
C1175 C1174 1.386 . S
C1175 C1179 1.393 . S
C1176 H1165 0.950 . S
C1176 C1174 1.391 . S
C1176 C1177 1.400 . S
C1177 C1171 1.491 . S
C1177 C1176 1.400 . S
C1177 C1178 1.398 . S
C1178 H1166 0.950 . S
C1178 C1177 1.398 . S
C1178 C1179 1.391 . S
C1179 H1167 0.950 . S
C1179 C1175 1.393 . S
C1179 C1178 1.391 . S
H1180 C1188 0.950 . S
H1181 C1193 0.950 . S
H1182 C1190 0.950 . S
H1183 C1192 0.950 . S
H1184 C1194 0.950 . S
H1185 C1196 0.950 . S
H1186 C1198 0.950 . S
H1187 C1199 0.950 . S
C1188 H1180 0.950 . S
C1188 C1189 1.386 . S
C1188 C1190 1.391 . S
C1189 C1188 1.386 . S
C1189 C1193 1.393 . S
C1190 H1182 0.950 . S
C1190 C1188 1.391 . S
C1190 C1191 1.400 . S
C1191 C1190 1.400 . S
C1191 C1192 1.398 . S
C1191 C1197 1.491 . S
C1192 H1183 0.950 . S
C1192 C1191 1.398 . S
C1192 C1193 1.391 . S
C1193 H1181 0.950 . S
C1193 C1189 1.393 . S
C1193 C1192 1.391 . S
C1194 H1184 0.950 . S
C1194 C1195 1.386 . S
C1194 C1196 1.391 . S
C1195 C1194 1.386 . S
C1195 C1199 1.393 . S
C1196 H1185 0.950 . S
C1196 C1194 1.391 . S
C1196 C1197 1.400 . S
C1197 C1191 1.491 . S
C1197 C1196 1.400 . S
C1197 C1198 1.398 . S
C1198 H1186 0.950 . S
C1198 C1197 1.398 . S
C1198 C1199 1.391 . S
C1199 H1187 0.950 . S
C1199 C1195 1.393 . S
C1199 C1198 1.391 . S
H1200 C1208 0.950 . S
H1201 C1213 0.950 . S
H1202 C1210 0.950 . S
H1203 C1212 0.950 . S
H1204 C1214 0.950 . S
H1205 C1216 0.950 . S
H1206 C1218 0.950 . S
H1207 C1219 0.950 . S
C1208 H1200 0.950 . S
C1208 C1209 1.386 . S
C1208 C1210 1.391 . S
C1209 C1208 1.386 . S
C1209 C1213 1.393 . S
C1210 H1202 0.950 . S
C1210 C1208 1.391 . S
C1210 C1211 1.400 . S
C1211 C1210 1.400 . S
C1211 C1212 1.398 . S
C1211 C1217 1.491 . S
C1212 H1203 0.950 . S
C1212 C1211 1.398 . S
C1212 C1213 1.391 . S
C1213 H1201 0.950 . S
C1213 C1209 1.393 . S
C1213 C1212 1.391 . S
C1214 H1204 0.950 . S
C1214 C1215 1.386 . S
C1214 C1216 1.391 . S
C1215 C1214 1.386 . S
C1215 C1219 1.393 . S
C1216 H1205 0.950 . S
C1216 C1214 1.391 . S
C1216 C1217 1.400 . S
C1217 C1211 1.491 . S
C1217 C1216 1.400 . S
C1217 C1218 1.398 . S
C1218 H1206 0.950 . S
C1218 C1217 1.398 . S
C1218 C1219 1.391 . S
C1219 H1207 0.950 . S
C1219 C1215 1.393 . S
C1219 C1218 1.391 . S
H1220 C1228 0.950 . S
H1221 C1233 0.950 . S
H1222 C1230 0.950 . S
H1223 C1232 0.950 . S
H1224 C1234 0.950 . S
H1225 C1236 0.950 . S
H1226 C1238 0.950 . S
H1227 C1239 0.950 . S
C1228 H1220 0.950 . S
C1228 C1229 1.386 . S
C1228 C1230 1.391 . S
C1229 C1228 1.386 . S
C1229 C1233 1.393 . S
C1230 H1222 0.950 . S
C1230 C1228 1.391 . S
C1230 C1231 1.400 . S
C1231 C1230 1.400 . S
C1231 C1232 1.398 . S
C1231 C1237 1.491 . S
C1232 H1223 0.950 . S
C1232 C1231 1.398 . S
C1232 C1233 1.391 . S
C1233 H1221 0.950 . S
C1233 C1229 1.393 . S
C1233 C1232 1.391 . S
C1234 H1224 0.950 . S
C1234 C1235 1.386 . S
C1234 C1236 1.391 . S
C1235 C1234 1.386 . S
C1235 C1239 1.393 . S
C1236 H1225 0.950 . S
C1236 C1234 1.391 . S
C1236 C1237 1.400 . S
C1237 C1231 1.491 . S
C1237 C1236 1.400 . S
C1237 C1238 1.398 . S
C1238 H1226 0.950 . S
C1238 C1237 1.398 . S
C1238 C1239 1.391 . S
C1239 H1227 0.950 . S
C1239 C1235 1.393 . S
C1239 C1238 1.391 . S
H1240 C1248 0.950 . S
H1241 C1253 0.950 1_554 S
H1242 C1250 0.950 . S
H1243 C1252 0.950 1_554 S
H1244 C1254 0.950 . S
H1245 C1256 0.950 . S
H1246 C1258 0.950 . S
H1247 C1259 0.950 . S
C1248 H1240 0.950 . S
C1248 C1249 1.386 . S
C1248 C1250 1.391 . S
C1249 C1248 1.386 . S
C1249 C1253 1.393 . S
C1250 H1242 0.950 . S
C1250 C1248 1.391 . S
C1250 C1251 1.400 . S
C1251 C1250 1.400 . S
C1251 C1252 1.398 . S
C1251 C1257 1.491 . S
C1252 H1243 0.950 1_556 S
C1252 C1251 1.398 . S
C1252 C1253 1.391 . S
C1253 H1241 0.950 1_556 S
C1253 C1249 1.393 . S
C1253 C1252 1.391 . S
C1254 H1244 0.950 . S
C1254 C1255 1.386 . S
C1254 C1256 1.391 . S
C1255 C1254 1.386 . S
C1255 C1259 1.393 . S
C1256 H1245 0.950 . S
C1256 C1254 1.391 . S
C1256 C1257 1.400 . S
C1257 C1251 1.491 . S
C1257 C1256 1.400 . S
C1257 C1258 1.398 . S
C1258 H1246 0.950 . S
C1258 C1257 1.398 . S
C1258 C1259 1.391 . S
C1259 H1247 0.950 . S
C1259 C1255 1.393 . S
C1259 C1258 1.391 . S
H1260 C1268 0.950 . S
H1261 C1273 0.950 . S
H1262 C1270 0.950 . S
H1263 C1272 0.950 . S
H1264 C1274 0.950 . S
H1265 C1276 0.950 . S
H1266 C1278 0.950 . S
H1267 C1279 0.950 . S
C1268 H1260 0.950 . S
C1268 C1269 1.386 . S
C1268 C1270 1.391 . S
C1269 C1268 1.386 . S
C1269 C1273 1.393 1_554 S
C1270 H1262 0.950 . S
C1270 C1268 1.391 . S
C1270 C1271 1.420 . S
C1271 C1270 1.420 . S
C1271 C1272 1.383 1_554 S
C1271 C1277 1.487 1_554 S
C1272 H1263 0.950 . S
C1272 C1271 1.383 1_556 S
C1272 C1273 1.391 . S
C1273 H1261 0.950 . S
C1273 C1269 1.393 1_556 S
C1273 C1272 1.391 . S
C1274 H1264 0.950 . S
C1274 C1275 1.386 . S
C1274 C1276 1.391 . S
C1275 C1274 1.386 . S
C1275 C1279 1.393 1_556 S
C1276 H1265 0.950 . S
C1276 C1274 1.391 . S
C1276 C1277 1.400 . S
C1277 C1271 1.487 1_556 S
C1277 C1276 1.400 . S
C1277 C1278 1.398 1_556 S
C1278 H1266 0.950 . S
C1278 C1277 1.398 1_554 S
C1278 C1279 1.391 . S
C1279 H1267 0.950 . S
C1279 C1275 1.393 1_554 S
C1279 C1278 1.391 . S
H1280 C1288 0.950 . S
H1281 C1293 0.950 . S
H1282 C1290 0.950 . S
H1283 C1292 0.950 . S
H1284 C1294 0.950 . S
H1285 C1296 0.950 . S
H1286 C1298 0.950 . S
H1287 C1299 0.950 1_455 S
C1288 H1280 0.950 . S
C1288 C1289 1.386 . S
C1288 C1290 1.391 . S
C1289 C1288 1.386 . S
C1289 C1293 1.393 . S
C1290 H1282 0.950 . S
C1290 C1288 1.391 . S
C1290 C1291 1.400 . S
C1291 C1290 1.400 . S
C1291 C1292 1.398 . S
C1291 C1297 1.491 . S
C1292 H1283 0.950 . S
C1292 C1291 1.398 . S
C1292 C1293 1.391 . S
C1293 H1281 0.950 . S
C1293 C1289 1.393 . S
C1293 C1292 1.391 . S
C1294 H1284 0.950 . S
C1294 C1295 1.386 . S
C1294 C1296 1.391 . S
C1295 C1294 1.386 . S
C1295 C1299 1.393 . S
C1296 H1285 0.950 . S
C1296 C1294 1.391 . S
C1296 C1297 1.400 . S
C1297 C1291 1.491 . S
C1297 C1296 1.400 . S
C1297 C1298 1.398 . S
C1298 H1286 0.950 . S
C1298 C1297 1.398 . S
C1298 C1299 1.391 . S
C1299 H1287 0.950 1_655 S
C1299 C1295 1.393 . S
C1299 C1298 1.391 . S
H1300 C1308 0.950 . S
H1301 C1313 0.950 . S
H1302 C1310 0.950 . S
H1303 C1312 0.950 . S
H1304 C1314 0.950 . S
H1305 C1316 0.950 . S
H1306 C1318 0.950 . S
H1307 C1319 0.950 . S
C1308 H1300 0.950 . S
C1308 C1309 1.386 . S
C1308 C1310 1.391 . S
C1309 C1308 1.386 . S
C1309 C1313 1.393 . S
C1310 H1302 0.950 . S
C1310 C1308 1.391 . S
C1310 C1311 1.400 . S
C1311 C1310 1.400 . S
C1311 C1312 1.398 . S
C1311 C1317 1.491 . S
C1312 H1303 0.950 . S
C1312 C1311 1.398 . S
C1312 C1313 1.391 . S
C1313 H1301 0.950 . S
C1313 C1309 1.393 . S
C1313 C1312 1.391 . S
C1314 H1304 0.950 . S
C1314 C1315 1.386 . S
C1314 C1316 1.391 . S
C1315 C1314 1.386 . S
C1315 C1319 1.393 . S
C1316 H1305 0.950 . S
C1316 C1314 1.391 . S
C1316 C1317 1.400 . S
C1317 C1311 1.491 . S
C1317 C1316 1.400 . S
C1317 C1318 1.398 . S
C1318 H1306 0.950 . S
C1318 C1317 1.398 . S
C1318 C1319 1.391 . S
C1319 H1307 0.950 . S
C1319 C1315 1.393 . S
C1319 C1318 1.391 . S
H1320 C1328 0.950 . S
H1321 C1333 0.950 1_455 S
H1322 C1330 0.950 . S
H1323 C1332 0.950 1_455 S
H1324 C1334 0.950 1_455 S
H1325 C1336 0.950 1_455 S
H1326 C1338 0.950 . S
H1327 C1339 0.950 . S
C1328 H1320 0.950 . S
C1328 C1329 1.386 . S
C1328 C1330 1.391 . S
C1329 C1328 1.386 . S
C1329 C1333 1.393 . S
C1330 H1322 0.950 . S
C1330 C1328 1.391 . S
C1330 C1331 1.400 . S
C1331 C1330 1.400 . S
C1331 C1332 1.398 . S
C1331 C1337 1.491 . S
C1332 H1323 0.950 1_655 S
C1332 C1331 1.398 . S
C1332 C1333 1.391 . S
C1333 H1321 0.950 1_655 S
C1333 C1329 1.393 . S
C1333 C1332 1.391 . S
C1334 H1324 0.950 1_655 S
C1334 C1335 1.386 . S
C1334 C1336 1.391 . S
C1335 C1334 1.386 . S
C1335 C1339 1.393 . S
C1336 H1325 0.950 1_655 S
C1336 C1334 1.391 . S
C1336 C1337 1.400 . S
C1337 C1331 1.491 . S
C1337 C1336 1.400 . S
C1337 C1338 1.398 . S
C1338 H1326 0.950 . S
C1338 C1337 1.398 . S
C1338 C1339 1.391 . S
C1339 H1327 0.950 . S
C1339 C1335 1.393 . S
C1339 C1338 1.391 . S
H1340 C1348 0.951 . S
H1341 C1353 0.950 . S
H1342 C1350 0.950 . S
H1343 C1352 0.950 . S
H1344 C1354 0.950 . S
H1345 C1356 0.950 . S
H1346 C1358 0.950 . S
H1347 C1359 0.950 . S
C1348 H1340 0.951 . S
C1348 C1349 1.386 . S
C1348 C1350 1.391 . S
C1349 C1348 1.386 . S
C1349 C1353 1.393 . S
C1350 H1342 0.950 . S
C1350 C1348 1.391 . S
C1350 C1351 1.400 . S
C1351 C1350 1.400 . S
C1351 C1352 1.398 . S
C1351 C1357 1.491 . S
C1352 H1343 0.950 . S
C1352 C1351 1.398 . S
C1352 C1353 1.391 . S
C1353 H1341 0.950 . S
C1353 C1349 1.393 . S
C1353 C1352 1.391 . S
C1354 H1344 0.950 . S
C1354 C1355 1.386 . S
C1354 C1356 1.391 . S
C1355 C1354 1.386 . S
C1355 C1359 1.393 . S
C1356 H1345 0.950 . S
C1356 C1354 1.391 . S
C1356 C1357 1.400 . S
C1357 C1351 1.491 . S
C1357 C1356 1.400 . S
C1357 C1358 1.398 . S
C1358 H1346 0.950 . S
C1358 C1357 1.398 . S
C1358 C1359 1.391 . S
C1359 H1347 0.950 . S
C1359 C1355 1.393 . S
C1359 C1358 1.391 . S
H1360 C1368 0.950 . S
H1361 C1373 0.950 . S
H1362 C1370 0.950 . S
H1363 C1372 0.950 . S
H1364 C1374 0.950 . S
H1365 C1376 0.950 . S
H1366 C1378 0.950 . S
H1367 C1379 0.950 . S
C1368 H1360 0.950 . S
C1368 C1369 1.384 1_455 S
C1368 C1370 1.391 . S
C1369 C1368 1.384 1_655 S
C1369 C1373 1.395 . S
C1370 H1362 0.950 . S
C1370 C1368 1.391 . S
C1370 C1371 1.400 1_455 S
C1371 C1370 1.400 1_655 S
C1371 C1372 1.398 . S
C1371 C1377 1.491 . S
C1372 H1363 0.950 . S
C1372 C1371 1.398 . S
C1372 C1373 1.391 . S
C1373 H1361 0.950 . S
C1373 C1369 1.395 . S
C1373 C1372 1.391 . S
C1374 H1364 0.950 . S
C1374 C1375 1.386 . S
C1374 C1376 1.391 . S
C1375 C1374 1.386 . S
C1375 C1379 1.393 . S
C1376 H1365 0.950 . S
C1376 C1374 1.391 . S
C1376 C1377 1.400 . S
C1377 C1371 1.491 . S
C1377 C1376 1.400 . S
C1377 C1378 1.398 . S
C1378 H1366 0.950 . S
C1378 C1377 1.398 . S
C1378 C1379 1.391 . S
C1379 H1367 0.950 . S
C1379 C1375 1.393 . S
C1379 C1378 1.391 . S
H1380 C1388 0.950 . S
H1381 C1393 0.950 1_565 S
H1382 C1390 0.950 . S
H1383 C1392 0.950 1_565 S
H1384 C1394 0.950 . S
H1385 C1396 0.950 1_565 S
H1386 C1398 0.950 . S
H1387 C1399 0.950 . S
C1388 H1380 0.950 . S
C1388 C1389 1.386 . S
C1388 C1390 1.391 . S
C1389 C1388 1.386 . S
C1389 C1393 1.393 . S
C1390 H1382 0.950 . S
C1390 C1388 1.391 . S
C1390 C1391 1.400 . S
C1391 C1390 1.400 . S
C1391 C1392 1.398 . S
C1391 C1397 1.491 . S
C1392 H1383 0.950 1_545 S
C1392 C1391 1.398 . S
C1392 C1393 1.391 . S
C1393 H1381 0.950 1_545 S
C1393 C1389 1.393 . S
C1393 C1392 1.391 . S
C1394 H1384 0.950 . S
C1394 C1395 1.386 . S
C1394 C1396 1.391 . S
C1395 C1394 1.386 . S
C1395 C1399 1.393 . S
C1396 H1385 0.950 1_545 S
C1396 C1394 1.391 . S
C1396 C1397 1.400 . S
C1397 C1391 1.491 . S
C1397 C1396 1.400 . S
C1397 C1398 1.398 . S
C1398 H1386 0.950 . S
C1398 C1397 1.398 . S
C1398 C1399 1.391 . S
C1399 H1387 0.950 . S
C1399 C1395 1.393 . S
C1399 C1398 1.391 . S
H1400 C1408 0.950 . S
H1401 C1413 0.950 . S
H1402 C1410 0.950 . S
H1403 C1412 0.950 . S
H1404 C1414 0.950 . S
H1405 C1416 0.950 . S
H1406 C1418 0.950 . S
H1407 C1419 0.950 . S
C1408 H1400 0.950 . S
C1408 C1409 1.386 . S
C1408 C1410 1.391 . S
C1409 C1408 1.386 . S
C1409 C1413 1.393 . S
C1410 H1402 0.950 . S
C1410 C1408 1.391 . S
C1410 C1411 1.400 . S
C1411 C1410 1.400 . S
C1411 C1412 1.398 . S
C1411 C1417 1.491 . S
C1412 H1403 0.950 . S
C1412 C1411 1.398 . S
C1412 C1413 1.391 . S
C1413 H1401 0.950 . S
C1413 C1409 1.393 . S
C1413 C1412 1.391 . S
C1414 H1404 0.950 . S
C1414 C1415 1.386 . S
C1414 C1416 1.391 . S
C1415 C1414 1.386 . S
C1415 C1419 1.393 . S
C1416 H1405 0.950 . S
C1416 C1414 1.391 . S
C1416 C1417 1.400 . S
C1417 C1411 1.491 . S
C1417 C1416 1.400 . S
C1417 C1418 1.398 . S
C1418 H1406 0.950 . S
C1418 C1417 1.398 . S
C1418 C1419 1.391 . S
C1419 H1407 0.950 . S
C1419 C1415 1.393 . S
C1419 C1418 1.391 . S
H1420 C1428 0.950 . S
H1421 C1433 0.950 1_545 S
H1422 C1430 0.950 . S
H1423 C1432 0.950 1_545 S
H1424 C1434 0.947 . S
H1425 C1436 0.950 1_545 S
H1426 C1438 0.950 . S
H1427 C1439 0.950 . S
C1428 H1420 0.950 . S
C1428 C1429 1.386 . S
C1428 C1430 1.391 . S
C1429 C1428 1.386 . S
C1429 C1433 1.393 . S
C1430 H1422 0.950 . S
C1430 C1428 1.391 . S
C1430 C1431 1.400 . S
C1431 C1430 1.400 . S
C1431 C1432 1.398 . S
C1431 C1437 1.491 . S
C1432 H1423 0.950 1_565 S
C1432 C1431 1.398 . S
C1432 C1433 1.391 . S
C1433 H1421 0.950 1_565 S
C1433 C1429 1.393 . S
C1433 C1432 1.391 . S
C1434 H1424 0.947 . S
C1434 C1435 1.386 . S
C1434 C1436 1.391 . S
C1435 C1434 1.386 . S
C1435 C1439 1.393 . S
C1436 H1425 0.950 1_565 S
C1436 C1434 1.391 . S
C1436 C1437 1.400 . S
C1437 C1431 1.491 . S
C1437 C1436 1.400 . S
C1437 C1438 1.398 . S
C1438 H1426 0.950 . S
C1438 C1437 1.398 . S
C1438 C1439 1.391 . S
C1439 H1427 0.950 . S
C1439 C1435 1.393 . S
C1439 C1438 1.391 . S
H1440 C1448 0.950 . S
H1441 C1453 0.950 . S
H1442 C1450 0.950 . S
H1443 C1452 0.950 . S
H1444 C1454 0.950 . S
H1445 C1456 0.950 . S
H1446 C1458 0.950 . S
H1447 C1459 0.950 . S
C1448 H1440 0.950 . S
C1448 C1449 1.386 . S
C1448 C1450 1.391 . S
C1449 C1448 1.386 . S
C1449 C1453 1.393 . S
C1450 H1442 0.950 . S
C1450 C1448 1.391 . S
C1450 C1451 1.400 . S
C1451 C1450 1.400 . S
C1451 C1452 1.398 . S
C1451 C1457 1.491 . S
C1452 H1443 0.950 . S
C1452 C1451 1.398 . S
C1452 C1453 1.391 . S
C1453 H1441 0.950 . S
C1453 C1449 1.393 . S
C1453 C1452 1.391 . S
C1454 H1444 0.950 . S
C1454 C1455 1.386 . S
C1454 C1456 1.391 . S
C1455 C1454 1.386 . S
C1455 C1459 1.393 . S
C1456 H1445 0.950 . S
C1456 C1454 1.391 . S
C1456 C1457 1.400 . S
C1457 C1451 1.491 . S
C1457 C1456 1.400 . S
C1457 C1458 1.398 . S
C1458 H1446 0.950 . S
C1458 C1457 1.398 . S
C1458 C1459 1.391 . S
C1459 H1447 0.950 . S
C1459 C1455 1.393 . S
C1459 C1458 1.391 . S
H1460 C1468 0.975 . S
H1461 C1473 0.950 . S
H1462 C1470 0.950 . S
H1463 C1472 0.950 . S
H1464 C1474 0.950 . S
H1465 C1476 0.950 . S
H1466 C1478 0.950 . S
H1467 C1479 0.950 . S
C1468 H1460 0.975 . S
C1468 C1469 1.386 . S
C1468 C1470 1.391 . S
C1469 C1468 1.386 . S
C1469 C1473 1.393 . S
C1470 H1462 0.950 . S
C1470 C1468 1.391 . S
C1470 C1471 1.400 . S
C1471 C1470 1.400 . S
C1471 C1472 1.398 . S
C1471 C1477 1.491 . S
C1472 H1463 0.950 . S
C1472 C1471 1.398 . S
C1472 C1473 1.391 . S
C1473 H1461 0.950 . S
C1473 C1469 1.393 . S
C1473 C1472 1.391 . S
C1474 H1464 0.950 . S
C1474 C1475 1.386 . S
C1474 C1476 1.391 . S
C1475 C1474 1.386 . S
C1475 C1479 1.393 . S
C1476 H1465 0.950 . S
C1476 C1474 1.391 . S
C1476 C1477 1.400 . S
C1477 C1471 1.491 . S
C1477 C1476 1.400 . S
C1477 C1478 1.398 . S
C1478 H1466 0.950 . S
C1478 C1477 1.398 . S
C1478 C1479 1.391 . S
C1479 H1467 0.950 . S
C1479 C1475 1.393 . S
C1479 C1478 1.391 . S
H1480 C1488 0.950 . S
H1481 C1493 0.950 . S
H1482 C1490 0.950 . S
H1483 C1492 0.950 . S
H1484 C1494 0.950 . S
H1485 C1496 0.950 . S
H1486 C1498 0.950 . S
H1487 C1499 0.950 . S
C1488 H1480 0.950 . S
C1488 C1489 1.386 . S
C1488 C1490 1.391 . S
C1489 C1488 1.386 . S
C1489 C1493 1.393 . S
C1490 H1482 0.950 . S
C1490 C1488 1.391 . S
C1490 C1491 1.400 . S
C1491 C1490 1.400 . S
C1491 C1492 1.398 . S
C1491 C1497 1.491 . S
C1492 H1483 0.950 . S
C1492 C1491 1.398 . S
C1492 C1493 1.391 . S
C1493 H1481 0.950 . S
C1493 C1489 1.393 . S
C1493 C1492 1.391 . S
C1494 H1484 0.950 . S
C1494 C1495 1.386 . S
C1494 C1496 1.391 . S
C1495 C1494 1.386 . S
C1495 C1499 1.393 . S
C1496 H1485 0.950 . S
C1496 C1494 1.391 . S
C1496 C1497 1.400 . S
C1497 C1491 1.491 . S
C1497 C1496 1.400 . S
C1497 C1498 1.398 . S
C1498 H1486 0.950 . S
C1498 C1497 1.398 . S
C1498 C1499 1.391 . S
C1499 H1487 0.950 . S
C1499 C1495 1.393 . S
C1499 C1498 1.391 . S
H1500 C1508 0.950 . S
H1501 C1513 0.950 . S
H1502 C1510 0.950 . S
H1503 C1512 0.950 . S
H1504 C1514 0.950 . S
H1505 C1516 0.950 . S
H1506 C1518 0.950 . S
H1507 C1519 0.950 . S
C1508 H1500 0.950 . S
C1508 C1509 1.386 . S
C1508 C1510 1.391 . S
C1509 C1508 1.386 . S
C1509 C1513 1.393 . S
C1510 H1502 0.950 . S
C1510 C1508 1.391 . S
C1510 C1511 1.400 . S
C1511 C1510 1.400 . S
C1511 C1512 1.398 . S
C1511 C1517 1.491 . S
C1512 H1503 0.950 . S
C1512 C1511 1.398 . S
C1512 C1513 1.391 . S
C1513 H1501 0.950 . S
C1513 C1509 1.393 . S
C1513 C1512 1.391 . S
C1514 H1504 0.950 . S
C1514 C1515 1.386 . S
C1514 C1516 1.391 . S
C1515 C1514 1.386 . S
C1515 C1519 1.393 . S
C1516 H1505 0.950 . S
C1516 C1514 1.391 . S
C1516 C1517 1.400 . S
C1517 C1511 1.491 . S
C1517 C1516 1.400 . S
C1517 C1518 1.398 . S
C1518 H1506 0.950 . S
C1518 C1517 1.398 . S
C1518 C1519 1.391 . S
C1519 H1507 0.950 . S
C1519 C1515 1.393 . S
C1519 C1518 1.391 . S
H1520 C1528 0.950 . S
H1521 C1533 0.950 . S
H1522 C1530 0.950 . S
H1523 C1532 0.950 . S
H1524 C1534 0.950 . S
H1525 C1536 0.950 . S
H1526 C1538 0.950 . S
H1527 C1539 0.950 . S
C1528 H1520 0.950 . S
C1528 C1529 1.386 . S
C1528 C1530 1.391 . S
C1529 C1528 1.386 . S
C1529 C1533 1.393 . S
C1530 H1522 0.950 . S
C1530 C1528 1.391 . S
C1530 C1531 1.400 . S
C1531 C1530 1.400 . S
C1531 C1532 1.398 . S
C1531 C1537 1.491 . S
C1532 H1523 0.950 . S
C1532 C1531 1.398 . S
C1532 C1533 1.391 . S
C1533 H1521 0.950 . S
C1533 C1529 1.393 . S
C1533 C1532 1.391 . S
C1534 H1524 0.950 . S
C1534 C1535 1.386 . S
C1534 C1536 1.391 . S
C1535 C1534 1.386 . S
C1535 C1539 1.393 . S
C1536 H1525 0.950 . S
C1536 C1534 1.391 . S
C1536 C1537 1.400 . S
C1537 C1531 1.491 . S
C1537 C1536 1.400 . S
C1537 C1538 1.398 . S
C1538 H1526 0.950 . S
C1538 C1537 1.398 . S
C1538 C1539 1.391 . S
C1539 H1527 0.950 . S
C1539 C1535 1.393 . S
C1539 C1538 1.391 . S
H1540 C1548 0.950 . S
H1541 C1553 0.950 . S
H1542 C1550 0.950 . S
H1543 C1552 0.950 . S
H1544 C1554 0.950 . S
H1545 C1556 0.950 . S
H1546 C1558 0.950 . S
H1547 C1559 0.950 . S
C1548 H1540 0.950 . S
C1548 C1549 1.386 . S
C1548 C1550 1.391 . S
C1549 C1548 1.386 . S
C1549 C1553 1.393 . S
C1550 H1542 0.950 . S
C1550 C1548 1.391 . S
C1550 C1551 1.400 . S
C1551 C1550 1.400 . S
C1551 C1552 1.398 . S
C1551 C1557 1.491 . S
C1552 H1543 0.950 . S
C1552 C1551 1.398 . S
C1552 C1553 1.391 . S
C1553 H1541 0.950 . S
C1553 C1549 1.393 . S
C1553 C1552 1.391 . S
C1554 H1544 0.950 . S
C1554 C1555 1.386 . S
C1554 C1556 1.391 . S
C1555 C1554 1.386 . S
C1555 C1559 1.393 . S
C1556 H1545 0.950 . S
C1556 C1554 1.391 . S
C1556 C1557 1.400 . S
C1557 C1551 1.491 . S
C1557 C1556 1.400 . S
C1557 C1558 1.398 . S
C1558 H1546 0.950 . S
C1558 C1557 1.398 . S
C1558 C1559 1.391 . S
C1559 H1547 0.950 . S
C1559 C1555 1.393 . S
C1559 C1558 1.391 . S
H1560 C1568 0.950 . S
H1561 C1573 0.950 . S
H1562 C1570 0.950 . S
H1563 C1572 0.950 . S
H1564 C1574 0.950 . S
H1565 C1576 0.950 . S
H1566 C1578 0.950 . S
H1567 C1579 0.950 . S
C1568 H1560 0.950 . S
C1568 C1569 1.386 . S
C1568 C1570 1.391 . S
C1569 C1568 1.386 . S
C1569 C1573 1.393 . S
C1570 H1562 0.950 . S
C1570 C1568 1.391 . S
C1570 C1571 1.400 . S
C1571 C1570 1.400 . S
C1571 C1572 1.398 . S
C1571 C1577 1.491 . S
C1572 H1563 0.950 . S
C1572 C1571 1.398 . S
C1572 C1573 1.391 . S
C1573 H1561 0.950 . S
C1573 C1569 1.393 . S
C1573 C1572 1.391 . S
C1574 H1564 0.950 . S
C1574 C1575 1.386 . S
C1574 C1576 1.391 . S
C1575 C1574 1.386 . S
C1575 C1579 1.393 . S
C1576 H1565 0.950 . S
C1576 C1574 1.391 . S
C1576 C1577 1.400 . S
C1577 C1571 1.491 . S
C1577 C1576 1.400 . S
C1577 C1578 1.398 . S
C1578 H1566 0.950 . S
C1578 C1577 1.398 . S
C1578 C1579 1.391 . S
C1579 H1567 0.950 . S
C1579 C1575 1.393 . S
C1579 C1578 1.391 . S
H1580 C1588 0.950 . S
H1581 C1593 0.950 . S
H1582 C1590 0.950 . S
H1583 C1592 0.950 . S
H1584 C1594 0.950 . S
H1585 C1596 0.950 . S
H1586 C1598 0.950 . S
H1587 C1599 0.950 . S
C1588 H1580 0.950 . S
C1588 C1589 1.386 . S
C1588 C1590 1.391 . S
C1589 C1588 1.386 . S
C1589 C1593 1.393 . S
C1590 H1582 0.950 . S
C1590 C1588 1.391 . S
C1590 C1591 1.400 . S
C1591 C1590 1.400 . S
C1591 C1592 1.398 . S
C1591 C1597 1.491 . S
C1592 H1583 0.950 . S
C1592 C1591 1.398 . S
C1592 C1593 1.391 . S
C1593 H1581 0.950 . S
C1593 C1589 1.393 . S
C1593 C1592 1.391 . S
C1594 H1584 0.950 . S
C1594 C1595 1.386 . S
C1594 C1596 1.391 . S
C1595 C1594 1.386 . S
C1595 C1599 1.393 . S
C1596 H1585 0.950 . S
C1596 C1594 1.391 . S
C1596 C1597 1.400 . S
C1597 C1591 1.491 . S
C1597 C1596 1.400 . S
C1597 C1598 1.398 . S
C1598 H1586 0.950 . S
C1598 C1597 1.398 . S
C1598 C1599 1.391 . S
C1599 H1587 0.950 . S
C1599 C1595 1.393 . S
C1599 C1598 1.391 . S
H1600 C1608 0.950 . S
H1601 C1613 0.950 . S
H1602 C1610 0.950 . S
H1603 C1612 0.950 . S
H1604 C1614 0.950 . S
H1605 C1616 0.950 . S
H1606 C1618 0.950 . S
H1607 C1619 0.950 . S
C1608 H1600 0.950 . S
C1608 C1609 1.386 . S
C1608 C1610 1.391 . S
C1609 C1608 1.386 . S
C1609 C1613 1.393 . S
C1610 H1602 0.950 . S
C1610 C1608 1.391 . S
C1610 C1611 1.400 . S
C1611 C1610 1.400 . S
C1611 C1612 1.398 . S
C1611 C1617 1.491 . S
C1612 H1603 0.950 . S
C1612 C1611 1.398 . S
C1612 C1613 1.391 . S
C1613 H1601 0.950 . S
C1613 C1609 1.393 . S
C1613 C1612 1.391 . S
C1614 H1604 0.950 . S
C1614 C1615 1.386 . S
C1614 C1616 1.391 . S
C1615 C1614 1.386 . S
C1615 C1619 1.393 . S
C1616 H1605 0.950 . S
C1616 C1614 1.391 . S
C1616 C1617 1.400 . S
C1617 C1611 1.491 . S
C1617 C1616 1.400 . S
C1617 C1618 1.398 . S
C1618 H1606 0.950 . S
C1618 C1617 1.398 . S
C1618 C1619 1.391 . S
C1619 H1607 0.950 . S
C1619 C1615 1.393 . S
C1619 C1618 1.391 . S
H1620 C1628 0.950 . S
H1621 C1633 0.950 . S
H1622 C1630 0.950 . S
H1623 C1632 0.950 . S
H1624 C1634 0.950 . S
H1625 C1636 0.950 . S
H1626 C1638 0.950 . S
H1627 C1639 0.950 . S
C1628 H1620 0.950 . S
C1628 C1629 1.386 . S
C1628 C1630 1.391 . S
C1629 C1628 1.386 . S
C1629 C1633 1.393 . S
C1630 H1622 0.950 . S
C1630 C1628 1.391 . S
C1630 C1631 1.400 . S
C1631 C1630 1.400 . S
C1631 C1632 1.398 . S
C1631 C1637 1.491 . S
C1632 H1623 0.950 . S
C1632 C1631 1.398 . S
C1632 C1633 1.391 . S
C1633 H1621 0.950 . S
C1633 C1629 1.393 . S
C1633 C1632 1.391 . S
C1634 H1624 0.950 . S
C1634 C1635 1.386 . S
C1634 C1636 1.391 . S
C1635 C1634 1.386 . S
C1635 C1639 1.393 . S
C1636 H1625 0.950 . S
C1636 C1634 1.391 . S
C1636 C1637 1.400 . S
C1637 C1631 1.491 . S
C1637 C1636 1.400 . S
C1637 C1638 1.398 . S
C1638 H1626 0.950 . S
C1638 C1637 1.398 . S
C1638 C1639 1.391 . S
C1639 H1627 0.950 . S
C1639 C1635 1.393 . S
C1639 C1638 1.391 . S
H1640 C1648 0.950 . S
H1641 C1653 0.950 . S
H1642 C1650 0.950 . S
H1643 C1652 0.950 . S
H1644 C1654 0.950 . S
H1645 C1656 0.950 . S
H1646 C1658 0.950 1_545 S
H1647 C1659 0.950 1_545 S
C1648 H1640 0.950 . S
C1648 C1649 1.386 1_545 S
C1648 C1650 1.391 . S
C1649 C1648 1.386 1_565 S
C1649 C1653 1.393 . S
C1650 H1642 0.950 . S
C1650 C1648 1.391 . S
C1650 C1651 1.400 1_545 S
C1651 C1650 1.400 1_565 S
C1651 C1652 1.398 . S
C1651 C1657 1.491 . S
C1652 H1643 0.950 . S
C1652 C1651 1.398 . S
C1652 C1653 1.391 . S
C1653 H1641 0.950 . S
C1653 C1649 1.393 . S
C1653 C1652 1.391 . S
C1654 H1644 0.950 . S
C1654 C1655 1.386 . S
C1654 C1656 1.391 . S
C1655 C1654 1.386 . S
C1655 C1659 1.393 . S
C1656 H1645 0.950 . S
C1656 C1654 1.391 . S
C1656 C1657 1.400 . S
C1657 C1651 1.491 . S
C1657 C1656 1.400 . S
C1657 C1658 1.398 . S
C1658 H1646 0.950 1_565 S
C1658 C1657 1.398 . S
C1658 C1659 1.391 . S
C1659 H1647 0.950 1_565 S
C1659 C1655 1.393 . S
C1659 C1658 1.391 . S
H1660 C1668 0.950 . S
H1661 C1673 0.950 . S
H1662 C1670 0.950 . S
H1663 C1672 0.950 . S
H1664 C1674 0.950 . S
H1665 C1676 0.950 . S
H1666 C1678 0.950 . S
H1667 C1679 0.950 . S
C1668 H1660 0.950 . S
C1668 C1669 1.386 . S
C1668 C1670 1.391 . S
C1669 C1668 1.386 . S
C1669 C1673 1.393 . S
C1670 H1662 0.950 . S
C1670 C1668 1.391 . S
C1670 C1671 1.400 . S
C1671 C1670 1.400 . S
C1671 C1672 1.398 . S
C1671 C1677 1.491 . S
C1672 H1663 0.950 . S
C1672 C1671 1.398 . S
C1672 C1673 1.391 . S
C1673 H1661 0.950 . S
C1673 C1669 1.393 . S
C1673 C1672 1.391 . S
C1674 H1664 0.950 . S
C1674 C1675 1.386 . S
C1674 C1676 1.391 . S
C1675 C1674 1.386 . S
C1675 C1679 1.393 . S
C1676 H1665 0.950 . S
C1676 C1674 1.391 . S
C1676 C1677 1.400 . S
C1677 C1671 1.491 . S
C1677 C1676 1.400 . S
C1677 C1678 1.398 . S
C1678 H1666 0.950 . S
C1678 C1677 1.398 . S
C1678 C1679 1.391 . S
C1679 H1667 0.950 . S
C1679 C1675 1.393 . S
C1679 C1678 1.391 . S
H1680 C1688 0.950 . S
H1681 C1693 0.950 . S
H1682 C1690 0.950 . S
H1683 C1692 0.950 . S
H1684 C1694 0.950 . S
H1685 C1696 0.950 . S
H1686 C1698 0.950 . S
H1687 C1699 0.950 . S
C1688 H1680 0.950 . S
C1688 C1689 1.386 . S
C1688 C1690 1.391 . S
C1689 C1688 1.386 . S
C1689 C1693 1.393 . S
C1690 H1682 0.950 . S
C1690 C1688 1.391 . S
C1690 C1691 1.400 . S
C1691 C1690 1.400 . S
C1691 C1692 1.398 . S
C1691 C1697 1.491 . S
C1692 H1683 0.950 . S
C1692 C1691 1.398 . S
C1692 C1693 1.391 . S
C1693 H1681 0.950 . S
C1693 C1689 1.393 . S
C1693 C1692 1.391 . S
C1694 H1684 0.950 . S
C1694 C1695 1.386 . S
C1694 C1696 1.391 . S
C1695 C1694 1.386 . S
C1695 C1699 1.393 . S
C1696 H1685 0.950 . S
C1696 C1694 1.391 . S
C1696 C1697 1.400 . S
C1697 C1691 1.491 . S
C1697 C1696 1.400 . S
C1697 C1698 1.398 . S
C1698 H1686 0.950 . S
C1698 C1697 1.398 . S
C1698 C1699 1.391 . S
C1699 H1687 0.950 . S
C1699 C1695 1.393 . S
C1699 C1698 1.391 . S
H1700 C1708 0.950 . S
H1701 C1713 0.950 . S
H1702 C1710 0.950 . S
H1703 C1712 0.950 . S
H1704 C1714 0.950 . S
H1705 C1716 0.950 . S
H1706 C1718 0.950 . S
H1707 C1719 0.950 . S
C1708 H1700 0.950 . S
C1708 C1709 1.386 . S
C1708 C1710 1.391 . S
C1709 C1708 1.386 . S
C1709 C1713 1.393 . S
C1710 H1702 0.950 . S
C1710 C1708 1.391 . S
C1710 C1711 1.400 . S
C1711 C1710 1.400 . S
C1711 C1712 1.398 . S
C1711 C1717 1.491 . S
C1712 H1703 0.950 . S
C1712 C1711 1.398 . S
C1712 C1713 1.391 . S
C1713 H1701 0.950 . S
C1713 C1709 1.393 . S
C1713 C1712 1.391 . S
C1714 H1704 0.950 . S
C1714 C1715 1.386 . S
C1714 C1716 1.391 . S
C1715 C1714 1.386 . S
C1715 C1719 1.393 . S
C1716 H1705 0.950 . S
C1716 C1714 1.391 . S
C1716 C1717 1.400 . S
C1717 C1711 1.491 . S
C1717 C1716 1.400 . S
C1717 C1718 1.398 . S
C1718 H1706 0.950 . S
C1718 C1717 1.398 . S
C1718 C1719 1.391 . S
C1719 H1707 0.950 . S
C1719 C1715 1.393 . S
C1719 C1718 1.391 . S
H1720 C1728 0.950 . S
H1721 C1733 0.950 . S
H1722 C1730 0.950 . S
H1723 C1732 0.950 . S
H1724 C1734 0.950 . S
H1725 C1736 0.950 . S
H1726 C1738 0.950 . S
H1727 C1739 0.950 . S
C1728 H1720 0.950 . S
C1728 C1729 1.386 . S
C1728 C1730 1.391 . S
C1729 C1728 1.386 . S
C1729 C1733 1.393 1_556 S
C1730 H1722 0.950 . S
C1730 C1728 1.391 . S
C1730 C1731 1.400 . S
C1731 C1730 1.400 . S
C1731 C1732 1.398 1_556 S
C1731 C1737 1.491 . S
C1732 H1723 0.950 . S
C1732 C1731 1.398 1_554 S
C1732 C1733 1.391 . S
C1733 H1721 0.950 . S
C1733 C1729 1.393 1_554 S
C1733 C1732 1.391 . S
C1734 H1724 0.950 . S
C1734 C1735 1.386 1_554 S
C1734 C1736 1.391 . S
C1735 C1734 1.386 1_556 S
C1735 C1739 1.393 . S
C1736 H1725 0.950 . S
C1736 C1734 1.391 . S
C1736 C1737 1.400 1_554 S
C1737 C1731 1.491 . S
C1737 C1736 1.400 1_556 S
C1737 C1738 1.398 . S
C1738 H1726 0.950 . S
C1738 C1737 1.398 . S
C1738 C1739 1.391 . S
C1739 H1727 0.950 . S
C1739 C1735 1.393 . S
C1739 C1738 1.391 . S
H1740 C1748 0.950 . S
H1741 C1753 0.950 . S
H1742 C1750 0.950 . S
H1743 C1752 0.950 . S
H1744 C1754 0.950 1_554 S
H1745 C1756 0.938 1_554 S
H1746 C1758 0.950 . S
H1747 C1759 0.950 . S
C1748 H1740 0.950 . S
C1748 C1749 1.386 . S
C1748 C1750 1.391 . S
C1749 C1748 1.386 . S
C1749 C1753 1.393 1_556 S
C1750 H1742 0.950 . S
C1750 C1748 1.391 . S
C1750 C1751 1.400 . S
C1751 C1750 1.400 . S
C1751 C1752 1.398 1_556 S
C1751 C1757 1.491 . S
C1752 H1743 0.950 . S
C1752 C1751 1.398 1_554 S
C1752 C1753 1.391 . S
C1753 H1741 0.950 . S
C1753 C1749 1.393 1_554 S
C1753 C1752 1.391 . S
C1754 H1744 0.950 1_556 S
C1754 C1755 1.386 . S
C1754 C1756 1.394 . S
C1755 C1754 1.386 . S
C1755 C1759 1.393 . S
C1756 H1745 0.938 1_556 S
C1756 C1754 1.394 . S
C1756 C1757 1.410 . S
C1757 C1751 1.491 . S
C1757 C1756 1.410 . S
C1757 C1758 1.398 . S
C1758 H1746 0.950 . S
C1758 C1757 1.398 . S
C1758 C1759 1.391 . S
C1759 H1747 0.950 . S
C1759 C1755 1.393 . S
C1759 C1758 1.391 . S
H1760 C1768 0.950 . S
H1761 C1773 0.950 . S
H1762 C1770 0.950 . S
H1763 C1772 0.950 . S
H1764 C1774 0.950 . S
H1765 C1776 0.950 . S
H1766 C1778 0.950 . S
H1767 C1779 0.950 . S
C1768 H1760 0.950 . S
C1768 C1769 1.386 . S
C1768 C1770 1.391 . S
C1769 C1768 1.386 . S
C1769 C1773 1.393 . S
C1770 H1762 0.950 . S
C1770 C1768 1.391 . S
C1770 C1771 1.400 . S
C1771 C1770 1.400 . S
C1771 C1772 1.398 . S
C1771 C1777 1.491 . S
C1772 H1763 0.950 . S
C1772 C1771 1.398 . S
C1772 C1773 1.391 . S
C1773 H1761 0.950 . S
C1773 C1769 1.393 . S
C1773 C1772 1.391 . S
C1774 H1764 0.950 . S
C1774 C1775 1.386 . S
C1774 C1776 1.391 . S
C1775 C1774 1.386 . S
C1775 C1779 1.393 . S
C1776 H1765 0.950 . S
C1776 C1774 1.391 . S
C1776 C1777 1.400 . S
C1777 C1771 1.491 . S
C1777 C1776 1.400 . S
C1777 C1778 1.398 . S
C1778 H1766 0.950 . S
C1778 C1777 1.398 . S
C1778 C1779 1.391 . S
C1779 H1767 0.950 . S
C1779 C1775 1.393 . S
C1779 C1778 1.391 . S
C829 C22 1.659 . S
C835 C699 1.657 1_545 S
C855 C725 1.780 . S
C849 C38 1.799 . S
C875 C657 1.754 1_565 S
C869 C75 1.730 . S
C889 C91 1.516 . S
C895 C680 1.534 . S
C909 C128 1.602 . S
C915 C814 1.618 1_554 S
C929 C197 1.443 . S
C935 C795 1.451 . S
C955 C748 1.828 . S
C949 C144 1.857 . S
C969 C181 1.751 . S
C975 C771 1.752 . S
C995 C676 1.799 . S
C989 C234 1.813 . S
C1015 C726 1.584 . S
C1009 C303 1.566 . S
C1029 C356 1.704 . S
C1035 C702 1.681 . S
C1049 C287 1.830 . S
C1055 C768 1.834 . S
C1075 C791 1.609 . S
C1069 C393 1.607 . S
C1095 C817 1.837 1_565 S
C1089 C409 1.832 . S
C1109 C462 1.933 . S
C1115 C772 1.947 . S
C1135 C749 1.436 1_545 S
C1129 C446 1.418 . S
C1149 C499 1.612 . S
C1155 C722 1.609 . S
C1169 C552 1.415 . S
C1175 C703 1.431 . S
C1195 C679 1.698 . S
C1189 C515 1.736 . S
C1209 C568 1.995 . S
C1215 C656 1.991 . S
C1235 C745 1.873 . S
C1229 C340 1.875 . S
C1255 C818 1.478 . S
C1249 C621 1.472 . S
C1269 C250 1.605 . S
C1275 C794 1.594 . S
C1289 C605 1.771 . S
C1295 C653 1.773 1_655 S
C1315 C655 1.417 . S
C1309 C39 1.442 . S
C1329 C29 1.265 . S
C1335 C678 1.203 . S
C1355 C700 1.345 . S
C1349 C92 1.308 . S
C1375 C721 1.199 . S
C1369 C82 1.173 1_655 S
C1389 C145 1.552 . S
C1395 C652 1.549 . S
C1409 C188 1.244 . S
C1415 C675 1.269 . S
C1435 C701 1.305 . S
C1429 C135 1.340 . S
C1449 C198 1.441 . S
C1455 C723 1.480 . S
C1469 C251 1.345 . S
C1475 C654 1.368 . S
C1495 C698 1.213 . S
C1489 C294 1.208 . S
C1509 C347 1.318 . S
C1515 C724 1.275 . S
C1529 C304 1.380 . S
C1535 C746 1.389 . S
C1555 C770 1.419 . S
C1549 C410 1.461 . S
C1569 C400 1.266 . S
C1575 C747 1.237 . S
C1589 C453 1.031 . S
C1595 C792 1.065 . S
C1609 C463 1.491 . S
C1615 C813 1.498 . S
C1629 C516 1.527 . S
C1635 C767 1.545 . S
C1655 C744 1.571 . S
C1649 C569 1.552 . S
C1669 C506 1.264 . S
C1675 C793 1.234 . S
C1695 C815 1.244 . S
C1689 C559 1.236 . S
C1715 C769 1.344 . S
C1709 C357 1.338 . S
C1735 C790 1.223 . S
C1729 C612 1.223 . S
C1755 C816 1.260 . S
C1749 C241 1.288 1_556 S
C1769 C622 1.258 . S
C1775 C677 1.290 . S
