# Generated by pormake.
# Topology gar, (4,6)-cn, num edge types: 1
# Building blocks:
#     Node 0, Type 0, BuildingBlock: AZAVOO_clean_sbu_0, # of connection points: 4
#     Node 1, Type 0, BuildingBlock: AZAVOO_clean_sbu_0, # of connection points: 4
#     Node 2, Type 0, BuildingBlock: AZAVOO_clean_sbu_0, # of connection points: 4
#     Node 3, Type 0, BuildingBlock: AZAVOO_clean_sbu_0, # of connection points: 4
#     Node 4, Type 0, BuildingBlock: AZAVOO_clean_sbu_0, # of connection points: 4
#     Node 5, Type 0, BuildingBlock: AZAVOO_clean_sbu_0, # of connection points: 4
#     Node 6, Type 0, BuildingBlock: AZAVOO_clean_sbu_0, # of connection points: 4
#     Node 7, Type 0, BuildingBlock: AZAVOO_clean_sbu_0, # of connection points: 4
#     Node 8, Type 0, BuildingBlock: AZAVOO_clean_sbu_0, # of connection points: 4
#     Node 9, Type 0, BuildingBlock: AZAVOO_clean_sbu_0, # of connection points: 4
#     Node 10, Type 0, BuildingBlock: AZAVOO_clean_sbu_0, # of connection points: 4
#     Node 11, Type 0, BuildingBlock: AZAVOO_clean_sbu_0, # of connection points: 4
#     Node 12, Type 0, BuildingBlock: AZAVOO_clean_sbu_0, # of connection points: 4
#     Node 13, Type 0, BuildingBlock: AZAVOO_clean_sbu_0, # of connection points: 4
#     Node 14, Type 0, BuildingBlock: AZAVOO_clean_sbu_0, # of connection points: 4
#     Node 15, Type 0, BuildingBlock: AZAVOO_clean_sbu_0, # of connection points: 4
#     Node 16, Type 0, BuildingBlock: AZAVOO_clean_sbu_0, # of connection points: 4
#     Node 17, Type 0, BuildingBlock: AZAVOO_clean_sbu_0, # of connection points: 4
#     Node 18, Type 0, BuildingBlock: AZAVOO_clean_sbu_0, # of connection points: 4
#     Node 19, Type 0, BuildingBlock: AZAVOO_clean_sbu_0, # of connection points: 4
#     Node 20, Type 0, BuildingBlock: AZAVOO_clean_sbu_0, # of connection points: 4
#     Node 21, Type 0, BuildingBlock: AZAVOO_clean_sbu_0, # of connection points: 4
#     Node 22, Type 0, BuildingBlock: AZAVOO_clean_sbu_0, # of connection points: 4
#     Node 23, Type 0, BuildingBlock: AZAVOO_clean_sbu_0, # of connection points: 4
#     Node 24, Type 1, BuildingBlock: BETFEN_clean_sbu_0, # of connection points: 6
#     Node 25, Type 1, BuildingBlock: BETFEN_clean_sbu_0, # of connection points: 6
#     Node 26, Type 1, BuildingBlock: BETFEN_clean_sbu_0, # of connection points: 6
#     Node 27, Type 1, BuildingBlock: BETFEN_clean_sbu_0, # of connection points: 6
#     Node 28, Type 1, BuildingBlock: BETFEN_clean_sbu_0, # of connection points: 6
#     Node 29, Type 1, BuildingBlock: BETFEN_clean_sbu_0, # of connection points: 6
#     Node 30, Type 1, BuildingBlock: BETFEN_clean_sbu_0, # of connection points: 6
#     Node 31, Type 1, BuildingBlock: BETFEN_clean_sbu_0, # of connection points: 6
#     Node 32, Type 1, BuildingBlock: BETFEN_clean_sbu_0, # of connection points: 6
#     Node 33, Type 1, BuildingBlock: BETFEN_clean_sbu_0, # of connection points: 6
#     Node 34, Type 1, BuildingBlock: BETFEN_clean_sbu_0, # of connection points: 6
#     Node 35, Type 1, BuildingBlock: BETFEN_clean_sbu_0, # of connection points: 6
#     Node 36, Type 1, BuildingBlock: BETFEN_clean_sbu_0, # of connection points: 6
#     Node 37, Type 1, BuildingBlock: BETFEN_clean_sbu_0, # of connection points: 6
#     Node 38, Type 1, BuildingBlock: BETFEN_clean_sbu_0, # of connection points: 6
#     Node 39, Type 1, BuildingBlock: BETFEN_clean_sbu_0, # of connection points: 6
#     Edge 40, Type (0, 1), BuildingBlock: MIFKUJ_clean_linker_0, # of connection points: 2
#     Edge 41, Type (0, 1), BuildingBlock: MIFKUJ_clean_linker_0, # of connection points: 2
#     Edge 42, Type (0, 1), BuildingBlock: MIFKUJ_clean_linker_0, # of connection points: 2
#     Edge 43, Type (0, 1), BuildingBlock: MIFKUJ_clean_linker_0, # of connection points: 2
#     Edge 44, Type (0, 1), BuildingBlock: MIFKUJ_clean_linker_0, # of connection points: 2
#     Edge 45, Type (0, 1), BuildingBlock: MIFKUJ_clean_linker_0, # of connection points: 2
#     Edge 46, Type (0, 1), BuildingBlock: MIFKUJ_clean_linker_0, # of connection points: 2
#     Edge 47, Type (0, 1), BuildingBlock: MIFKUJ_clean_linker_0, # of connection points: 2
#     Edge 48, Type (0, 1), BuildingBlock: MIFKUJ_clean_linker_0, # of connection points: 2
#     Edge 49, Type (0, 1), BuildingBlock: MIFKUJ_clean_linker_0, # of connection points: 2
#     Edge 50, Type (0, 1), BuildingBlock: MIFKUJ_clean_linker_0, # of connection points: 2
#     Edge 51, Type (0, 1), BuildingBlock: MIFKUJ_clean_linker_0, # of connection points: 2
#     Edge 52, Type (0, 1), BuildingBlock: MIFKUJ_clean_linker_0, # of connection points: 2
#     Edge 53, Type (0, 1), BuildingBlock: MIFKUJ_clean_linker_0, # of connection points: 2
#     Edge 54, Type (0, 1), BuildingBlock: MIFKUJ_clean_linker_0, # of connection points: 2
#     Edge 55, Type (0, 1), BuildingBlock: MIFKUJ_clean_linker_0, # of connection points: 2
#     Edge 56, Type (0, 1), BuildingBlock: MIFKUJ_clean_linker_0, # of connection points: 2
#     Edge 57, Type (0, 1), BuildingBlock: MIFKUJ_clean_linker_0, # of connection points: 2
#     Edge 58, Type (0, 1), BuildingBlock: MIFKUJ_clean_linker_0, # of connection points: 2
#     Edge 59, Type (0, 1), BuildingBlock: MIFKUJ_clean_linker_0, # of connection points: 2
#     Edge 60, Type (0, 1), BuildingBlock: MIFKUJ_clean_linker_0, # of connection points: 2
#     Edge 61, Type (0, 1), BuildingBlock: MIFKUJ_clean_linker_0, # of connection points: 2
#     Edge 62, Type (0, 1), BuildingBlock: MIFKUJ_clean_linker_0, # of connection points: 2
#     Edge 63, Type (0, 1), BuildingBlock: MIFKUJ_clean_linker_0, # of connection points: 2
#     Edge 64, Type (0, 1), BuildingBlock: MIFKUJ_clean_linker_0, # of connection points: 2
#     Edge 65, Type (0, 1), BuildingBlock: MIFKUJ_clean_linker_0, # of connection points: 2
#     Edge 66, Type (0, 1), BuildingBlock: MIFKUJ_clean_linker_0, # of connection points: 2
#     Edge 67, Type (0, 1), BuildingBlock: MIFKUJ_clean_linker_0, # of connection points: 2
#     Edge 68, Type (0, 1), BuildingBlock: MIFKUJ_clean_linker_0, # of connection points: 2
#     Edge 69, Type (0, 1), BuildingBlock: MIFKUJ_clean_linker_0, # of connection points: 2
#     Edge 70, Type (0, 1), BuildingBlock: MIFKUJ_clean_linker_0, # of connection points: 2
#     Edge 71, Type (0, 1), BuildingBlock: MIFKUJ_clean_linker_0, # of connection points: 2
#     Edge 72, Type (0, 1), BuildingBlock: MIFKUJ_clean_linker_0, # of connection points: 2
#     Edge 73, Type (0, 1), BuildingBlock: MIFKUJ_clean_linker_0, # of connection points: 2
#     Edge 74, Type (0, 1), BuildingBlock: MIFKUJ_clean_linker_0, # of connection points: 2
#     Edge 75, Type (0, 1), BuildingBlock: MIFKUJ_clean_linker_0, # of connection points: 2
#     Edge 76, Type (0, 1), BuildingBlock: MIFKUJ_clean_linker_0, # of connection points: 2
#     Edge 77, Type (0, 1), BuildingBlock: MIFKUJ_clean_linker_0, # of connection points: 2
#     Edge 78, Type (0, 1), BuildingBlock: MIFKUJ_clean_linker_0, # of connection points: 2
#     Edge 79, Type (0, 1), BuildingBlock: MIFKUJ_clean_linker_0, # of connection points: 2
#     Edge 80, Type (0, 1), BuildingBlock: MIFKUJ_clean_linker_0, # of connection points: 2
#     Edge 81, Type (0, 1), BuildingBlock: MIFKUJ_clean_linker_0, # of connection points: 2
#     Edge 82, Type (0, 1), BuildingBlock: MIFKUJ_clean_linker_0, # of connection points: 2
#     Edge 83, Type (0, 1), BuildingBlock: MIFKUJ_clean_linker_0, # of connection points: 2
#     Edge 84, Type (0, 1), BuildingBlock: MIFKUJ_clean_linker_0, # of connection points: 2
#     Edge 85, Type (0, 1), BuildingBlock: MIFKUJ_clean_linker_0, # of connection points: 2
#     Edge 86, Type (0, 1), BuildingBlock: MIFKUJ_clean_linker_0, # of connection points: 2
#     Edge 87, Type (0, 1), BuildingBlock: MIFKUJ_clean_linker_0, # of connection points: 2
#     Edge 88, Type (0, 1), BuildingBlock: MIFKUJ_clean_linker_0, # of connection points: 2
#     Edge 89, Type (0, 1), BuildingBlock: MIFKUJ_clean_linker_0, # of connection points: 2
#     Edge 90, Type (0, 1), BuildingBlock: MIFKUJ_clean_linker_0, # of connection points: 2
#     Edge 91, Type (0, 1), BuildingBlock: MIFKUJ_clean_linker_0, # of connection points: 2
#     Edge 92, Type (0, 1), BuildingBlock: MIFKUJ_clean_linker_0, # of connection points: 2
#     Edge 93, Type (0, 1), BuildingBlock: MIFKUJ_clean_linker_0, # of connection points: 2
#     Edge 94, Type (0, 1), BuildingBlock: MIFKUJ_clean_linker_0, # of connection points: 2
#     Edge 95, Type (0, 1), BuildingBlock: MIFKUJ_clean_linker_0, # of connection points: 2
#     Edge 96, Type (0, 1), BuildingBlock: MIFKUJ_clean_linker_0, # of connection points: 2
#     Edge 97, Type (0, 1), BuildingBlock: MIFKUJ_clean_linker_0, # of connection points: 2
#     Edge 98, Type (0, 1), BuildingBlock: MIFKUJ_clean_linker_0, # of connection points: 2
#     Edge 99, Type (0, 1), BuildingBlock: MIFKUJ_clean_linker_0, # of connection points: 2
#     Edge 100, Type (0, 1), BuildingBlock: MIFKUJ_clean_linker_0, # of connection points: 2
#     Edge 101, Type (0, 1), BuildingBlock: MIFKUJ_clean_linker_0, # of connection points: 2
#     Edge 102, Type (0, 1), BuildingBlock: MIFKUJ_clean_linker_0, # of connection points: 2
#     Edge 103, Type (0, 1), BuildingBlock: MIFKUJ_clean_linker_0, # of connection points: 2
#     Edge 104, Type (0, 1), BuildingBlock: MIFKUJ_clean_linker_0, # of connection points: 2
#     Edge 105, Type (0, 1), BuildingBlock: MIFKUJ_clean_linker_0, # of connection points: 2
#     Edge 106, Type (0, 1), BuildingBlock: MIFKUJ_clean_linker_0, # of connection points: 2
#     Edge 107, Type (0, 1), BuildingBlock: MIFKUJ_clean_linker_0, # of connection points: 2
#     Edge 108, Type (0, 1), BuildingBlock: MIFKUJ_clean_linker_0, # of connection points: 2
#     Edge 109, Type (0, 1), BuildingBlock: MIFKUJ_clean_linker_0, # of connection points: 2
#     Edge 110, Type (0, 1), BuildingBlock: MIFKUJ_clean_linker_0, # of connection points: 2
#     Edge 111, Type (0, 1), BuildingBlock: MIFKUJ_clean_linker_0, # of connection points: 2
#     Edge 112, Type (0, 1), BuildingBlock: MIFKUJ_clean_linker_0, # of connection points: 2
#     Edge 113, Type (0, 1), BuildingBlock: MIFKUJ_clean_linker_0, # of connection points: 2
#     Edge 114, Type (0, 1), BuildingBlock: MIFKUJ_clean_linker_0, # of connection points: 2
#     Edge 115, Type (0, 1), BuildingBlock: MIFKUJ_clean_linker_0, # of connection points: 2
#     Edge 116, Type (0, 1), BuildingBlock: MIFKUJ_clean_linker_0, # of connection points: 2
#     Edge 117, Type (0, 1), BuildingBlock: MIFKUJ_clean_linker_0, # of connection points: 2
#     Edge 118, Type (0, 1), BuildingBlock: MIFKUJ_clean_linker_0, # of connection points: 2
#     Edge 119, Type (0, 1), BuildingBlock: MIFKUJ_clean_linker_0, # of connection points: 2
#     Edge 120, Type (0, 1), BuildingBlock: MIFKUJ_clean_linker_0, # of connection points: 2
#     Edge 121, Type (0, 1), BuildingBlock: MIFKUJ_clean_linker_0, # of connection points: 2
#     Edge 122, Type (0, 1), BuildingBlock: MIFKUJ_clean_linker_0, # of connection points: 2
#     Edge 123, Type (0, 1), BuildingBlock: MIFKUJ_clean_linker_0, # of connection points: 2
#     Edge 124, Type (0, 1), BuildingBlock: MIFKUJ_clean_linker_0, # of connection points: 2
#     Edge 125, Type (0, 1), BuildingBlock: MIFKUJ_clean_linker_0, # of connection points: 2
#     Edge 126, Type (0, 1), BuildingBlock: MIFKUJ_clean_linker_0, # of connection points: 2
#     Edge 127, Type (0, 1), BuildingBlock: MIFKUJ_clean_linker_0, # of connection points: 2
#     Edge 128, Type (0, 1), BuildingBlock: MIFKUJ_clean_linker_0, # of connection points: 2
#     Edge 129, Type (0, 1), BuildingBlock: MIFKUJ_clean_linker_0, # of connection points: 2
#     Edge 130, Type (0, 1), BuildingBlock: MIFKUJ_clean_linker_0, # of connection points: 2
#     Edge 131, Type (0, 1), BuildingBlock: MIFKUJ_clean_linker_0, # of connection points: 2
#     Edge 132, Type (0, 1), BuildingBlock: MIFKUJ_clean_linker_0, # of connection points: 2
#     Edge 133, Type (0, 1), BuildingBlock: MIFKUJ_clean_linker_0, # of connection points: 2
#     Edge 134, Type (0, 1), BuildingBlock: MIFKUJ_clean_linker_0, # of connection points: 2
#     Edge 135, Type (0, 1), BuildingBlock: MIFKUJ_clean_linker_0, # of connection points: 2
# Relax obj value: 0.192
# Max RMSD: 0.298
# Mean RMSD: 0.194
data_MOF--net-gar--node1-AZAVOO_clean_sbu_0--node2-BETFEN_clean_sbu_0--edge1-MIFKUJ_clean_linker_0
_symmetry_space_group_name_H-M    P1
_symmetry_Int_Tables_number       1
_symmetry_cell_setting            triclinic
loop_
_symmetry_equiv_pos_as_xyz
'x, y, z'
_cell_length_a     80.903351
_cell_length_b     71.240429
_cell_length_c     72.885888
_cell_angle_alpha  96.82409
_cell_angle_beta   97.994561
_cell_angle_gamma 103.10875
loop_
_atom_site_label
_atom_site_type_symbol
_atom_site_fract_x
_atom_site_fract_y
_atom_site_fract_z
_atom_type_partial_charge
Mg0 Mg 0.01407 0.29679 0.40722 0.0
O1 O 0.01867 0.32667 0.42647 0.0
O2 O 0.99526 0.32449 0.43997 0.0
Mg3 Mg 0.9765 0.29438 0.43027 0.0
C4 C 0.00982 0.33417 0.43721 0.0
C5 C 0.04885 0.31522 0.39374 0.0
O6 O 0.03974 0.32703 0.38766 0.0
O7 O 0.01939 0.28046 0.43181 0.0
O8 O 0.995 0.27712 0.44348 0.0
O9 O 1.00075 0.30831 0.38367 0.0
O10 O 0.98732 0.29336 0.40419 0.0
C11 C 0.00972 0.27344 0.44306 0.0
C12 C 0.98657 0.30248 0.38997 0.0
O13 O 0.04224 0.30234 0.40308 0.0
Mg14 Mg 0.04941 0.83216 0.65671 0.0
O15 O 0.04473 0.80247 0.63731 0.0
O16 O 0.019 0.79747 0.61929 0.0
Mg17 Mg 0.00671 0.82259 0.62758 0.0
C18 C 0.03272 0.79205 0.62437 0.0
C19 C 0.08368 0.83213 0.68189 0.0
O20 O 0.07276 0.83086 0.69372 0.0
O21 O 0.05408 0.85048 0.63278 0.0
O22 O 0.0271 0.84538 0.61759 0.0
O23 O 0.03609 0.81722 0.67835 0.0
O24 O 0.02281 0.82882 0.65557 0.0
C25 C 0.04309 0.85405 0.62006 0.0
C26 C 0.02189 0.82003 0.66993 0.0
O27 O 0.07818 0.83294 0.66482 0.0
Mg28 Mg 0.51164 0.7899 0.90433 0.0
O29 O 0.51588 0.8186 0.92489 0.0
O30 O 0.49285 0.81542 0.93906 0.0
Mg31 Mg 0.47402 0.78563 0.92745 0.0
C32 C 0.50738 0.82538 0.93649 0.0
C33 C 0.54205 0.78597 0.88608 0.0
O34 O 0.52876 0.77233 0.87677 0.0
O35 O 0.51736 0.77251 0.9281 0.0
O36 O 0.49288 0.76846 0.93974 0.0
O37 O 0.49792 0.80266 0.882 0.0
O38 O 0.48484 0.78545 0.9014 0.0
C39 C 0.50768 0.76504 0.93918 0.0
C40 C 0.4838 0.7955 0.88792 0.0
O41 O 0.53976 0.79712 0.89997 0.0
Mg42 Mg 0.55092 0.32501 0.15205 0.0
O43 O 0.54725 0.29671 0.13093 0.0
O44 O 0.5224 0.29303 0.11159 0.0
Mg45 Mg 0.51002 0.31793 0.12012 0.0
C46 C 0.53579 0.28716 0.11704 0.0
C47 C 0.58356 0.3231 0.17885 0.0
O48 O 0.5716 0.32007 0.1894 0.0
O49 O 0.55766 0.3453 0.13036 0.0
O50 O 0.53173 0.34152 0.11297 0.0
O51 O 0.53585 0.30808 0.17117 0.0
O52 O 0.52427 0.32174 0.14885 0.0
C53 C 0.5478 0.3499 0.11723 0.0
C54 C 0.5222 0.3116 0.16217 0.0
O55 O 0.57928 0.3255 0.16197 0.0
Mg56 Mg 0.06059 0.83756 0.15437 0.0
O57 O 0.05555 0.80742 0.13604 0.0
O58 O 0.0298 0.80152 0.11789 0.0
Mg59 Mg 0.01812 0.82743 0.12449 0.0
C60 C 0.04356 0.79643 0.12347 0.0
C61 C 0.09186 0.82281 0.17106 0.0
O62 O 0.07867 0.80903 0.17308 0.0
O63 O 0.06582 0.85415 0.12959 0.0
O64 O 0.03913 0.84808 0.11315 0.0
O65 O 0.04692 0.82406 0.17626 0.0
O66 O 0.03405 0.83505 0.15267 0.0
C67 C 0.0552 0.85644 0.11577 0.0
C68 C 0.03288 0.82681 0.16736 0.0
O69 O 0.08896 0.83702 0.16314 0.0
Mg70 Mg 0.50399 0.78802 0.39472 0.0
O71 O 0.50871 0.81725 0.41464 0.0
O72 O 0.4868 0.81415 0.43057 0.0
Mg73 Mg 0.46775 0.78437 0.42009 0.0
C74 C 0.5009 0.82409 0.42695 0.0
C75 C 0.53496 0.78419 0.37598 0.0
O76 O 0.52215 0.77023 0.36625 0.0
O77 O 0.51093 0.77188 0.419 0.0
O78 O 0.48728 0.76788 0.43213 0.0
O79 O 0.48921 0.79956 0.37217 0.0
O80 O 0.47724 0.78389 0.39316 0.0
C81 C 0.50209 0.76479 0.43092 0.0
C82 C 0.47551 0.79316 0.37915 0.0
O83 O 0.53196 0.79512 0.3896 0.0
Mg84 Mg 0.5574 0.34013 0.65877 0.0
O85 O 0.55256 0.30972 0.64098 0.0
O86 O 0.5262 0.30271 0.62396 0.0
Mg87 Mg 0.51368 0.32783 0.63114 0.0
C88 C 0.5404 0.29825 0.62893 0.0
C89 C 0.5937 0.34858 0.68305 0.0
O90 O 0.58513 0.35731 0.69392 0.0
O91 O 0.56079 0.35615 0.63299 0.0
O92 O 0.53326 0.34913 0.61887 0.0
O93 O 0.54506 0.32693 0.68184 0.0
O94 O 0.53088 0.3368 0.65842 0.0
C95 C 0.54906 0.35806 0.62006 0.0
C96 C 0.53057 0.3291 0.67346 0.0
O97 O 0.58614 0.34042 0.66658 0.0
Mg98 Mg 1.00007 0.28349 0.895 0.0
O99 O 0.0047 0.31231 0.91545 0.0
O100 O 0.98254 0.30941 0.93102 0.0
Mg101 Mg 0.96353 0.27974 0.92005 0.0
C102 C 0.99683 0.31919 0.92769 0.0
C103 C 0.03392 0.27803 0.88164 0.0
O104 O 0.02357 0.26056 0.87617 0.0
O105 O 0.00661 0.26679 0.91904 0.0
O106 O 0.98311 0.26341 0.93239 0.0
O107 O 0.98567 0.29572 0.87271 0.0
O108 O 0.97321 0.27961 0.89316 0.0
C109 C 0.99782 0.26006 0.93114 0.0
C110 C 0.97182 0.28936 0.87944 0.0
O111 O 0.02829 0.29116 0.89038 0.0
Mg112 Mg 0.45456 0.16833 0.3206 0.0
O113 O 0.43732 0.13841 0.32242 0.0
O114 O 0.4269 0.1415 0.3492 0.0
Mg115 Mg 0.43744 0.17287 0.36424 0.0
C116 C 0.42812 0.13128 0.33404 0.0
C117 C 0.46481 0.17088 0.28211 0.0
O118 O 0.47346 0.18777 0.29196 0.0
O119 O 0.4306 0.17874 0.31308 0.0
O120 O 0.42111 0.18283 0.34032 0.0
O121 O 0.47664 0.15967 0.33522 0.0
O122 O 0.45973 0.17453 0.34977 0.0
C123 C 0.41987 0.18362 0.32276 0.0
C124 C 0.47177 0.16532 0.3507 0.0
O125 O 0.45495 0.15895 0.28989 0.0
Mg126 Mg 0.27665 0.19396 0.50586 0.0
O127 O 0.27964 0.21422 0.53415 0.0
O128 O 0.30556 0.23492 0.53909 0.0
Mg129 Mg 0.31929 0.228 0.5144 0.0
C130 C 0.2912 0.22833 0.54428 0.0
C131 C 0.23936 0.16638 0.4976 0.0
O132 O 0.24763 0.15611 0.48777 0.0
O133 O 0.27319 0.21773 0.48748 0.0
O134 O 0.30009 0.23654 0.49222 0.0
O135 O 0.2891 0.17321 0.52049 0.0
O136 O 0.30358 0.19751 0.50861 0.0
C137 C 0.28441 0.23204 0.48385 0.0
C138 C 0.30378 0.18291 0.51741 0.0
O139 O 0.24752 0.1832 0.50638 0.0
Mg140 Mg 0.14803 0.06308 0.82314 0.0
O141 O 0.15694 0.09625 0.82506 0.0
O142 O 0.17158 0.10747 0.85411 0.0
Mg143 Mg 0.1694 0.08255 0.87156 0.0
C144 C 0.16616 0.1102 0.83755 0.0
C145 C 0.13591 0.01843 0.8063 0.0
O146 O 0.13369 0.99957 0.80612 0.0
O147 O 0.17549 0.06132 0.82388 0.0
O148 O 0.18731 0.06972 0.85422 0.0
O149 O 0.12289 0.0652 0.83256 0.0
O150 O 0.1461 0.06585 0.8519 0.0
C151 C 0.18808 0.06351 0.83723 0.0
C152 C 0.13034 0.0666 0.84956 0.0
O153 O 0.14049 0.02992 0.82182 0.0
Mg154 Mg 0.30108 0.92986 0.04107 0.0
O155 O 0.29623 0.90987 0.01197 0.0
O156 O 0.3175 0.89454 0.01319 0.0
Mg157 Mg 0.33621 0.90535 0.04118 0.0
C158 C 0.30395 0.89793 0.00438 0.0
C159 C 0.2683 0.94251 0.02299 0.0
O160 O 0.27805 0.94624 0.01023 0.0
O161 O 0.29348 0.90466 0.05802 0.0
O162 O 0.31668 0.8925 0.05958 0.0
O163 O 0.31698 0.9543 0.02954 0.0
O164 O 0.32773 0.93272 0.04326 0.0
C165 C 0.3022 0.8932 0.0644 0.0
C166 C 0.33025 0.9477 0.03476 0.0
O167 O 0.27369 0.9347 0.03671 0.0
Mg168 Mg 0.30779 0.43066 0.05095 0.0
O169 O 0.30355 0.40991 0.02257 0.0
O170 O 0.32501 0.39496 0.02466 0.0
Mg171 Mg 0.34324 0.40649 0.05306 0.0
C172 C 0.31144 0.39793 0.01545 0.0
C173 C 0.27702 0.44832 0.05634 0.0
O174 O 0.28923 0.45765 0.07041 0.0
O175 O 0.2994 0.40553 0.06801 0.0
O176 O 0.32322 0.39448 0.07122 0.0
O177 O 0.32478 0.45473 0.03928 0.0
O178 O 0.33463 0.43365 0.05453 0.0
C179 C 0.3084 0.39478 0.07532 0.0
C180 C 0.33782 0.44831 0.04575 0.0
O181 O 0.28023 0.43518 0.0449 0.0
Mg182 Mg 0.78755 0.1997 0.01529 0.0
O183 O 0.79198 0.22047 0.04342 0.0
O184 O 0.81849 0.23977 0.04737 0.0
Mg185 Mg 0.83132 0.23088 0.02246 0.0
C186 C 0.80418 0.23424 0.05306 0.0
C187 C 0.74912 0.17646 0.00425 0.0
O188 O 0.75616 0.16831 0.99127 0.0
O189 O 0.78482 0.22385 0.9972 0.0
O190 O 0.81247 0.23982 1.00032 0.0
O191 O 0.79879 0.1781 0.02993 0.0
O192 O 0.81409 0.20136 0.01751 0.0
C193 C 0.79669 0.23677 0.99262 0.0
C194 C 0.81365 0.18686 0.02654 0.0
O195 O 0.75856 0.19064 0.01623 0.0
Mg196 Mg 0.11415 0.46031 0.23401 0.0
O197 O 0.12907 0.49189 0.24527 0.0
O198 O 0.13353 0.49622 0.27661 0.0
Mg199 Mg 0.12109 0.46725 0.28539 0.0
C200 C 0.13518 0.50264 0.26117 0.0
C201 C 0.11006 0.45321 0.19096 0.0
O202 O 0.09927 0.43755 0.19402 0.0
O203 O 0.13879 0.45044 0.24176 0.0
O204 O 0.14089 0.45362 0.27299 0.0
O205 O 0.0896 0.46932 0.2349 0.0
O206 O 0.10356 0.45889 0.25833 0.0
C207 C 0.14623 0.44868 0.25789 0.0
C208 C 0.09131 0.46653 0.25222 0.0
O209 O 0.11946 0.46498 0.20495 0.0
Mg210 Mg 0.80993 0.93268 0.54764 0.0
O211 O 0.80468 0.91205 0.51905 0.0
O212 O 0.82501 0.89541 0.52047 0.0
Mg213 Mg 0.84376 0.90602 0.54853 0.0
C214 C 0.81173 0.89934 0.51165 0.0
C215 C 0.78109 0.95482 0.538 0.0
O216 O 0.79497 0.96753 0.53586 0.0
O217 O 0.80091 0.90763 0.56453 0.0
O218 O 0.82333 0.89413 0.56623 0.0
O219 O 0.8276 0.95598 0.53579 0.0
O220 O 0.83656 0.93412 0.55065 0.0
C221 C 0.80889 0.89547 0.57082 0.0
C222 C 0.84022 0.94873 0.54186 0.0
O223 O 0.78262 0.93839 0.54228 0.0
Mg224 Mg 0.90927 0.05391 0.20792 0.0
O225 O 0.89508 0.02268 0.21147 0.0
O226 O 0.88861 0.02602 0.24039 0.0
Mg227 Mg 0.89615 0.05778 0.254 0.0
C228 C 0.88887 0.01547 0.22505 0.0
C229 C 0.91865 0.03415 0.17249 0.0
O230 O 0.92423 0.02435 0.18518 0.0
O231 O 0.88392 0.06253 0.20224 0.0
O232 O 0.87725 0.06526 0.23103 0.0
O233 O 0.93396 0.04897 0.22172 0.0
O234 O 0.91631 0.06184 0.23681 0.0
C235 C 0.87401 0.06635 0.21356 0.0
C236 C 0.9299 0.05527 0.23746 0.0
O237 O 0.90927 0.04544 0.17691 0.0
Mg238 Mg 0.28801 0.69736 0.51706 0.0
O239 O 0.29274 0.71733 0.54576 0.0
O240 O 0.31901 0.73714 0.5493 0.0
Mg241 Mg 0.33192 0.72782 0.52452 0.0
C242 C 0.30487 0.73128 0.55522 0.0
C243 C 0.24855 0.67934 0.50326 0.0
O244 O 0.25458 0.67515 0.48786 0.0
O245 O 0.28583 0.72203 0.49942 0.0
O246 O 0.31362 0.73729 0.50222 0.0
O247 O 0.29854 0.67495 0.531 0.0
O248 O 0.31439 0.69834 0.51919 0.0
C249 C 0.29785 0.73462 0.49466 0.0
C250 C 0.31354 0.68343 0.52774 0.0
O251 O 0.25901 0.68904 0.51773 0.0
Mg252 Mg 0.40896 0.56147 0.72062 0.0
O253 O 0.39484 0.52916 0.72128 0.0
O254 O 0.38509 0.53074 0.74866 0.0
Mg255 Mg 0.38988 0.56186 0.76327 0.0
C256 C 0.38737 0.52102 0.73374 0.0
C257 C 0.42854 0.56765 0.69093 0.0
O258 O 0.4365 0.57863 0.7069 0.0
O259 O 0.38357 0.56909 0.7116 0.0
O260 O 0.37316 0.56964 0.73844 0.0
O261 O 0.43245 0.55668 0.73715 0.0
O262 O 0.41243 0.56762 0.74968 0.0
C263 C 0.37198 0.57168 0.72115 0.0
C264 C 0.4263 0.56158 0.75195 0.0
O265 O 0.41389 0.55618 0.69059 0.0
Mg266 Mg 0.61284 0.97028 0.74111 0.0
O267 O 0.63121 1.00027 0.75215 0.0
O268 O 0.63409 0.00559 0.78341 0.0
Mg269 Mg 0.61797 0.97843 0.79232 0.0
C270 C 0.63746 0.01108 0.76798 0.0
C271 C 0.6089 0.96103 0.69873 0.0
O272 O 0.59663 0.94739 0.70276 0.0
O273 O 0.63433 0.95588 0.75025 0.0
O274 O 0.6355 0.95986 0.78141 0.0
O275 O 0.59131 0.98466 0.74013 0.0
O276 O 0.60125 0.97254 0.7648 0.0
C277 C 0.64042 0.95322 0.76659 0.0
C278 C 0.59168 0.98296 0.75765 0.0
O279 O 0.61966 0.97222 0.71216 0.0
Mg280 Mg 0.77728 0.6946 0.00358 0.0
O281 O 0.78122 0.71476 0.03199 0.0
O282 O 0.80739 0.73494 0.03678 0.0
Mg283 Mg 0.82086 0.72686 0.01216 0.0
C284 C 0.79298 0.72871 0.04203 0.0
C285 C 0.74371 0.67787 0.01897 0.0
O286 O 0.75589 0.6774 0.03274 0.0
O287 O 0.77459 0.7191 0.98558 0.0
O288 O 0.80214 0.73582 0.99005 0.0
O289 O 0.78907 0.67295 0.01776 0.0
O290 O 0.80404 0.69701 0.00607 0.0
C291 C 0.78653 0.73256 0.98176 0.0
C292 C 0.80386 0.6822 0.0146 0.0
O293 O 0.74809 0.68474 0.00449 0.0
Mg294 Mg 0.961 0.67309 0.81923 0.0
O295 O 0.94221 0.6438 0.82067 0.0
O296 O 0.93265 0.64704 0.84796 0.0
Mg297 Mg 0.944 0.67824 0.86286 0.0
C298 C 0.93319 0.63683 0.83252 0.0
C299 C 0.96458 0.67717 0.77829 0.0
O300 O 0.96704 0.6955 0.7858 0.0
O301 O 0.93855 0.68616 0.81207 0.0
O302 O 0.92838 0.68898 0.83893 0.0
O303 O 0.98189 0.66228 0.83345 0.0
O304 O 0.96621 0.67874 0.84838 0.0
C305 C 0.92773 0.69095 0.82165 0.0
C306 C 0.97738 0.66833 0.84902 0.0
O307 O 0.96107 0.66394 0.7884 0.0
Mg308 Mg 0.8011 0.43326 0.53984 0.0
O309 O 0.79547 0.41182 0.51177 0.0
O310 O 0.81499 0.39411 0.51384 0.0
Mg311 Mg 0.83353 0.40478 0.54198 0.0
C312 C 0.80212 0.39854 0.50474 0.0
C313 C 0.77503 0.45828 0.53341 0.0
O314 O 0.79013 0.47078 0.53582 0.0
O315 O 0.79146 0.40974 0.5578 0.0
O316 O 0.81285 0.39456 0.55999 0.0
O317 O 0.81892 0.45497 0.52713 0.0
O318 O 0.82733 0.43348 0.5432 0.0
C319 C 0.79874 0.39723 0.5645 0.0
C320 C 0.83122 0.44746 0.53368 0.0
O321 O 0.77459 0.44035 0.5338 0.0
Mg322 Mg 0.67529 0.56051 0.33774 0.0
O323 O 0.68236 0.59321 0.33634 0.0
O324 O 0.69109 0.60827 0.36602 0.0
Mg325 Mg 0.68621 0.58592 0.38612 0.0
C326 C 0.68862 0.60867 0.34837 0.0
C327 C 0.67805 0.55917 0.29239 0.0
O328 O 0.68432 0.55152 0.27844 0.0
O329 O 0.70329 0.56213 0.34757 0.0
O330 O 0.70908 0.57416 0.37813 0.0
O331 O 0.64727 0.55935 0.33804 0.0
O332 O 0.66743 0.56598 0.36315 0.0
C333 C 0.71349 0.56678 0.36327 0.0
C334 C 0.65152 0.56375 0.3561 0.0
O335 O 0.67998 0.55278 0.3079 0.0
Pr336 Pr 0.02263 0.05966 0.03179 0.0
Pr337 Pr 0.06333 0.07516 0.03679 0.0
C338 C 0.9893 0.05562 0.03542 0.0
C339 C 0.97672 0.06768 0.03601 0.0
C340 C 0.95907 0.05862 0.03241 0.0
C341 C 0.94693 0.06978 0.03299 0.0
C342 C 0.95217 0.09027 0.03738 0.0
C343 C 0.96994 0.0993 0.04091 0.0
C344 C 0.98209 0.08811 0.04018 0.0
C345 C 0.03673 0.04995 1.00061 0.0
C346 C 0.04048 0.10509 0.02384 0.0
C347 C 0.0976 0.07998 0.03826 0.0
C348 C 0.1099 0.06757 0.03602 0.0
C349 C 0.12238 0.06728 0.05138 0.0
C350 C 0.13401 0.05557 0.04968 0.0
C351 C 0.13348 0.04383 0.03254 0.0
C352 C 0.12102 0.0442 0.01714 0.0
C353 C 0.10944 0.05598 0.01884 0.0
C354 C 0.04783 0.08364 0.06739 0.0
C355 C 0.04562 0.02879 0.04111 0.0
O356 O 0.00195 0.05951 0.0497 0.0
O357 O 0.99418 0.05182 0.01929 0.0
O358 O 0.04156 0.06599 0.01154 0.0
O359 O 0.0228 0.03882 0.00425 0.0
O360 O 0.05549 0.10074 0.02348 0.0
O361 O 0.02735 0.09318 0.02893 0.0
O362 O 0.08721 0.08133 0.02326 0.0
O363 O 0.09019 0.07908 0.0531 0.0
O364 O 0.04456 0.06765 0.05672 0.0
O365 O 0.05976 0.09671 0.06251 0.0
O366 O 0.03096 0.03339 0.04316 0.0
O367 O 0.05837 0.04096 0.03572 0.0
H368 H 0.95466 0.04287 0.02909 0.0
H369 H 0.93339 0.06232 0.02978 0.0
H370 H 0.97449 0.11501 0.04449 0.0
H371 H 0.99567 0.0954 0.04297 0.0
H372 H 0.12317 0.07619 0.06475 0.0
H373 H 0.14361 0.05598 0.06176 0.0
H374 H 0.12007 0.03524 0.00378 0.0
H375 H 0.10015 0.05594 0.00666 0.0
Pr376 Pr 0.2943 0.83641 0.28886 0.0
Pr377 Pr 0.27325 0.79195 0.26875 0.0
C378 C 0.3163 0.8686 0.30898 0.0
C379 C 0.32319 0.88939 0.30847 0.0
C380 C 0.32907 0.90224 0.3254 0.0
C381 C 0.33619 0.922 0.3254 0.0
C382 C 0.33755 0.92927 0.30841 0.0
C383 C 0.33148 0.91635 0.2914 0.0
C384 C 0.32429 0.89654 0.29143 0.0
C385 C 0.26072 0.83231 0.27103 0.0
C386 C 0.28905 0.82549 0.24263 0.0
C387 C 0.24818 0.76012 0.25301 0.0
C388 C 0.24148 0.73964 0.25534 0.0
C389 C 0.23891 0.72481 0.24 0.0
C390 C 0.23156 0.70543 0.2415 0.0
C391 C 0.22646 0.70049 0.25836 0.0
C392 C 0.2294 0.71535 0.27386 0.0
C393 C 0.23687 0.73472 0.27238 0.0
C394 C 0.30844 0.79459 0.28129 0.0
C395 C 0.28054 0.80161 0.31533 0.0
O396 O 0.321 0.85619 0.29722 0.0
O397 O 0.30014 0.86316 0.31104 0.0
O398 O 0.2658 0.81999 0.28011 0.0
O399 O 0.2728 0.84827 0.27268 0.0
O400 O 0.27719 0.80951 0.2436 0.0
O401 O 0.29925 0.83656 0.25779 0.0
O402 O 0.24614 0.77365 0.26574 0.0
O403 O 0.26297 0.76458 0.24712 0.0
O404 O 0.30043 0.80768 0.28177 0.0
O405 O 0.29778 0.77829 0.27292 0.0
O406 O 0.28897 0.8197 0.31445 0.0
O407 O 0.27301 0.78856 0.30028 0.0
H408 H 0.32835 0.89692 0.33867 0.0
H409 H 0.34097 0.93152 0.33873 0.0
H410 H 0.33223 0.92157 0.27811 0.0
H411 H 0.31971 0.88681 0.27819 0.0
H412 H 0.2424 0.72825 0.22674 0.0
H413 H 0.22981 0.69433 0.2294 0.0
H414 H 0.2255 0.71214 0.287 0.0
H415 H 0.23874 0.74585 0.2845 0.0
Pr416 Pr 0.56042 0.06952 0.53137 0.0
Pr417 Pr 0.52 0.06151 0.52524 0.0
C418 C 0.59393 0.0685 0.53758 0.0
C419 C 0.6059 0.05548 0.53647 0.0
C420 C 0.61597 0.05606 0.52221 0.0
C421 C 0.62856 0.04547 0.5219 0.0
C422 C 0.63157 0.0341 0.53595 0.0
C423 C 0.62116 0.03306 0.54994 0.0
C424 C 0.60851 0.04367 0.55024 0.0
C425 C 0.54522 0.08472 0.5019 0.0
C426 C 0.5356 0.02655 0.50815 0.0
C427 C 0.4867 0.06314 0.51792 0.0
C428 C 0.47477 0.07572 0.5216 0.0
C429 C 0.46217 0.07006 0.53268 0.0
C430 C 0.44977 0.08063 0.53497 0.0
C431 C 0.44939 0.09701 0.52597 0.0
C432 C 0.46232 0.10294 0.51524 0.0
C433 C 0.47491 0.09253 0.5132 0.0
C434 C 0.53511 0.04655 0.55505 0.0
C435 C 0.54479 0.10461 0.54895 0.0
O436 O 0.58426 0.06731 0.55059 0.0
O437 O 0.5862 0.072 0.52181 0.0
O438 O 0.53972 0.06792 0.50582 0.0
O439 O 0.55938 0.09424 0.51302 0.0
O440 O 0.52247 0.03462 0.50522 0.0
O441 O 0.55014 0.03583 0.51954 0.0
O442 O 0.49778 0.06822 0.50679 0.0
O443 O 0.4929 0.05535 0.53189 0.0
O444 O 0.5407 0.06314 0.55072 0.0
O445 O 0.52054 0.03734 0.54446 0.0
O446 O 0.5585 0.09734 0.55068 0.0
O447 O 0.52985 0.09461 0.53876 0.0
H448 H 0.61438 0.06509 0.51145 0.0
H449 H 0.63608 0.04638 0.51071 0.0
H450 H 0.62318 0.0246 0.56108 0.0
H451 H 0.60108 0.04297 0.56153 0.0
H452 H 0.46172 0.05719 0.53936 0.0
H453 H 0.44039 0.07579 0.54374 0.0
H454 H 0.46245 0.11529 0.50787 0.0
H455 H 0.48443 0.09734 0.50458 0.0
Pr456 Pr 0.26299 0.31212 0.77165 0.0
Pr457 Pr 0.29978 0.30785 0.78141 0.0
C458 C 0.22926 0.31156 0.76919 0.0
C459 C 0.21557 0.31112 0.78067 0.0
C460 C 0.19854 0.30174 0.7724 0.0
C461 C 0.18524 0.30091 0.78285 0.0
C462 C 0.18866 0.30946 0.80183 0.0
C463 C 0.20575 0.31909 0.81007 0.0
C464 C 0.21912 0.31983 0.79959 0.0
C465 C 0.28766 0.34118 0.76138 0.0
C466 C 0.2842 0.326 0.81628 0.0
C467 C 0.3332 0.30694 0.78434 0.0
C468 C 0.34755 0.30733 0.77376 0.0
C469 C 0.35765 0.29393 0.77624 0.0
C470 C 0.37199 0.29462 0.76739 0.0
C471 C 0.37661 0.30881 0.7559 0.0
C472 C 0.36622 0.322 0.75312 0.0
C473 C 0.35182 0.32126 0.76196 0.0
C474 C 0.27424 0.27816 0.78998 0.0
C475 C 0.27948 0.29481 0.73685 0.0
O476 O 0.23483 0.29575 0.76659 0.0
O477 O 0.2415 0.32764 0.77164 0.0
O478 O 0.2894 0.33465 0.77674 0.0
O479 O 0.27251 0.33356 0.75135 0.0
O480 O 0.29861 0.32503 0.81016 0.0
O481 O 0.26909 0.32023 0.80493 0.0
O482 O 0.32814 0.32303 0.78762 0.0
O483 O 0.32055 0.29118 0.7808 0.0
O484 O 0.27347 0.28538 0.77505 0.0
O485 O 0.28886 0.28581 0.80105 0.0
O486 O 0.26476 0.2947 0.74284 0.0
O487 O 0.2944 0.3015 0.74834 0.0
H488 H 0.19554 0.29499 0.75782 0.0
H489 H 0.17222 0.29356 0.77602 0.0
H490 H 0.20884 0.32558 0.82473 0.0
H491 H 0.2322 0.32706 0.80629 0.0
H492 H 0.35457 0.28304 0.78525 0.0
H493 H 0.37946 0.284 0.76958 0.0
H494 H 0.36946 0.33322 0.74451 0.0
H495 H 0.34421 0.33177 0.75979 0.0
Pr496 Pr 0.02975 0.05221 0.50993 0.0
Pr497 Pr 0.05012 0.07681 0.5504 0.0
C498 C 0.00535 0.03073 0.48177 0.0
C499 C 1.0011 0.02953 0.46136 0.0
C500 C 0.01392 0.03075 0.45007 0.0
C501 C 0.00978 0.03102 0.43087 0.0
C502 C 0.9928 0.03027 0.42272 0.0
C503 C 0.97996 0.02865 0.43401 0.0
C504 C 0.98409 0.0283 0.45317 0.0
C505 C 0.06471 0.06816 0.50852 0.0
C506 C 0.03511 0.10038 0.51654 0.0
C507 C 0.07161 0.09934 0.58027 0.0
C508 C 0.07841 0.09655 0.59932 0.0
C509 C 0.06732 0.09047 0.61186 0.0
C510 C 0.07387 0.08621 0.6292 0.0
C511 C 0.0916 0.0878 0.63425 0.0
C512 C 0.10272 0.09423 0.62186 0.0
C513 C 0.09618 0.09867 0.60458 0.0
C514 C 0.0162 0.0554 0.54912 0.0
C515 C 0.04734 0.02994 0.54264 0.0
O516 O 0.0036 0.0465 0.49173 0.0
O517 O 0.01909 0.02515 0.48829 0.0
O518 O 0.0569 0.06913 0.52213 0.0
O519 O 0.05398 0.05769 0.494 0.0
O520 O 0.04475 0.10143 0.53312 0.0
O521 O 0.02728 0.08358 0.5056 0.0
O522 O 0.07695 0.08991 0.56663 0.0
O523 O 0.05523 0.09924 0.57651 0.0
O524 O 0.02174 0.06487 0.53677 0.0
O525 O 0.02822 0.05783 0.56368 0.0
O526 O 0.03426 0.02862 0.52898 0.0
O527 O 0.05749 0.04697 0.55099 0.0
H528 H 0.0272 0.03195 0.45614 0.0
H529 H 0.01995 0.03251 0.42253 0.0
H530 H 0.96674 0.02787 0.42805 0.0
H531 H 0.97407 0.02751 0.46169 0.0
H532 H 0.05353 0.08852 0.60814 0.0
H533 H 0.065 0.08107 0.63841 0.0
H534 H 0.11645 0.09572 0.62549 0.0
H535 H 0.10497 0.10332 0.59512 0.0
Pr536 Pr 0.2803 0.79501 0.77381 0.0
Pr537 Pr 0.29703 0.84101 0.77708 0.0
C538 C 0.26492 0.75728 0.7604 0.0
C539 C 0.26912 0.74001 0.75057 0.0
C540 C 0.2755 0.72694 0.76084 0.0
C541 C 0.27953 0.71068 0.75165 0.0
C542 C 0.27712 0.70695 0.73194 0.0
C543 C 0.27057 0.71992 0.72163 0.0
C544 C 0.26656 0.73625 0.73084 0.0
C545 C 0.28276 0.81658 0.80906 0.0
C546 C 0.32186 0.81152 0.78898 0.0
C547 C 0.30864 0.87934 0.7902 0.0
C548 C 0.30096 0.8955 0.79545 0.0
C549 C 0.31131 0.91308 0.80579 0.0
C550 C 0.3043 0.92909 0.80939 0.0
C551 C 0.28687 0.92771 0.80252 0.0
C552 C 0.27644 0.90985 0.79264 0.0
C553 C 0.28342 0.89385 0.7892 0.0
C554 C 0.30237 0.8207 0.74346 0.0
C555 C 0.25526 0.82452 0.76 0.0
O556 O 0.26376 0.7715 0.75084 0.0
O557 O 0.27229 0.76344 0.77794 0.0
O558 O 0.27877 0.82235 0.79358 0.0
O559 O 0.28396 0.79859 0.80641 0.0
O560 O 0.31919 0.82918 0.79203 0.0
O561 O 0.30982 0.79632 0.77946 0.0
O562 O 0.30788 0.86599 0.8012 0.0
O563 O 0.30521 0.87213 0.77232 0.0
O564 O 0.295 0.81395 0.75614 0.0
O565 O 0.30773 0.83951 0.74813 0.0
O566 O 0.25662 0.80672 0.76218 0.0
O567 O 0.26841 0.84003 0.76505 0.0
H568 H 0.2775 0.72932 0.77603 0.0
H569 H 0.28486 0.70121 0.76006 0.0
H570 H 0.26841 0.71738 0.70644 0.0
H571 H 0.26148 0.74592 0.72248 0.0
H572 H 0.32489 0.91456 0.81069 0.0
H573 H 0.3126 0.94271 0.817 0.0
H574 H 0.26291 0.90832 0.78746 0.0
H575 H 0.27522 0.88031 0.78129 0.0
Pr576 Pr 0.54516 0.06078 0.04353 0.0
Pr577 Pr 0.53524 0.06184 0.9996 0.0
C578 C 0.549 0.06477 0.08113 0.0
C579 C 0.54114 0.07381 0.0956 0.0
C580 C 0.54308 0.06883 0.11362 0.0
C581 C 0.53586 0.07767 0.12756 0.0
C582 C 0.52663 0.0917 0.12368 0.0
C583 C 0.52451 0.09638 0.10542 0.0
C584 C 0.53171 0.08749 0.09151 0.0
C585 C 0.5472 0.02799 0.0194 0.0
C586 C 0.50398 0.04812 0.02339 0.0
C587 C 0.5287 0.05249 0.96215 0.0
C588 C 0.53346 0.06017 0.94532 0.0
C589 C 0.52205 0.05367 0.92831 0.0
C590 C 0.52705 0.0588 0.91167 0.0
C591 C 0.54361 0.07054 0.91177 0.0
C592 C 0.55469 0.07794 0.92905 0.0
C593 C 0.54963 0.07281 0.94573 0.0
C594 C 0.5369 0.09846 0.0203 0.0
C595 C 0.57596 0.07875 0.02052 0.0
O596 O 0.55839 0.07685 0.07221 0.0
O597 O 0.53908 0.04931 0.07011 0.0
O598 O 0.53567 0.03724 0.01737 0.0
O599 O 0.55801 0.03526 0.03491 0.0
O600 O 0.50897 0.04626 0.00692 0.0
O601 O 0.51499 0.05632 0.03901 0.0
O602 O 0.54077 0.04726 0.97285 0.0
O603 O 0.5191 0.06124 0.97147 0.0
O604 O 0.53933 0.08343 0.02641 0.0
O605 O 0.53386 0.09513 0.00209 0.0
O606 O 0.57077 0.07957 0.03696 0.0
O607 O 0.56545 0.06992 0.00478 0.0
H608 H 0.55022 0.05816 0.11693 0.0
H609 H 0.53743 0.0734 0.14134 0.0
H610 H 0.51765 0.10725 0.10197 0.0
H611 H 0.53007 0.09141 0.07761 0.0
H612 H 0.50952 0.04392 0.92779 0.0
H613 H 0.5183 0.05259 0.89862 0.0
H614 H 0.56745 0.08714 0.92958 0.0
H615 H 0.55856 0.07812 0.95883 0.0
Pr616 Pr 0.26578 0.29578 0.27487 0.0
Pr617 Pr 0.30454 0.32328 0.27924 0.0
C618 C 0.23754 0.27611 0.28644 0.0
C619 C 0.22197 0.27937 0.29337 0.0
C620 C 0.21111 0.28947 0.28421 0.0
C621 C 0.19697 0.29313 0.29188 0.0
C622 C 0.19351 0.2869 0.30891 0.0
C623 C 0.20448 0.27678 0.31795 0.0
C624 C 0.21846 0.27301 0.31022 0.0
C625 C 0.27051 0.31127 0.24157 0.0
C626 C 0.27353 0.34452 0.28413 0.0
C627 C 0.33721 0.33923 0.27582 0.0
C628 C 0.35003 0.33319 0.2654 0.0
C629 C 0.3538 0.31494 0.2662 0.0
C630 C 0.36602 0.30947 0.25632 0.0
C631 C 0.37465 0.32208 0.24534 0.0
C632 C 0.3707 0.34022 0.24438 0.0
C633 C 0.35853 0.34572 0.25435 0.0
C634 C 0.29423 0.31042 0.3117 0.0
C635 C 0.29532 0.27575 0.26065 0.0
O636 O 0.25211 0.28439 0.29769 0.0
O637 O 0.23847 0.27655 0.26865 0.0
O638 O 0.28112 0.31386 0.25655 0.0
O639 O 0.25605 0.29965 0.24341 0.0
O640 O 0.28891 0.34675 0.27928 0.0
O641 O 0.26414 0.32744 0.28659 0.0
O642 O 0.32395 0.34306 0.26585 0.0
O643 O 0.33315 0.32975 0.28953 0.0
O644 O 0.29112 0.30036 0.29555 0.0
O645 O 0.30327 0.32801 0.31154 0.0
O646 O 0.2801 0.27211 0.26603 0.0
O647 O 0.30523 0.2936 0.26225 0.0
H648 H 0.21362 0.29468 0.27125 0.0
H649 H 0.18873 0.30079 0.28442 0.0
H650 H 0.20251 0.2721 0.33125 0.0
H651 H 0.22678 0.26537 0.31764 0.0
H652 H 0.34732 0.30485 0.27447 0.0
H653 H 0.36864 0.29531 0.25716 0.0
H654 H 0.37726 0.35034 0.23621 0.0
H655 H 0.35582 0.35984 0.2535 0.0
Pr656 Pr 0.53494 0.55457 0.02181 0.0
Pr657 Pr 0.54849 0.57723 0.06009 0.0
C658 C 0.51851 0.52914 0.99086 0.0
C659 C 0.51125 0.53072 0.97177 0.0
C660 C 0.50575 0.51409 0.95804 0.0
C661 C 0.49877 0.51561 0.9398 0.0
C662 C 0.49717 0.53379 0.93515 0.0
C663 C 0.50282 0.55043 0.949 0.0
C664 C 0.50985 0.54891 0.96718 0.0
C665 C 0.5684 0.57738 0.02489 0.0
C666 C 0.53449 0.59998 0.02549 0.0
C667 C 0.56319 0.60265 0.09174 0.0
C668 C 0.56997 0.60326 0.11174 0.0
C669 C 0.56343 0.61349 0.12553 0.0
C670 C 0.57014 0.61494 0.14454 0.0
C671 C 0.58366 0.60635 0.15007 0.0
C672 C 0.59008 0.59594 0.13624 0.0
C673 C 0.58328 0.59435 0.11727 0.0
C674 C 0.51453 0.55473 0.05542 0.0
C675 C 0.55088 0.53237 0.05574 0.0
O676 O 0.51062 0.53517 0.00402 0.0
O677 O 0.53529 0.53482 0.99526 0.0
O678 O 0.56314 0.56751 0.03726 0.0
O679 O 0.55651 0.57497 0.01028 0.0
O680 O 0.54485 0.60158 0.04161 0.0
O681 O 0.52664 0.58273 0.01569 0.0
O682 O 0.57192 0.59673 0.07937 0.0
O683 O 0.54652 0.59655 0.08639 0.0
O684 O 0.52055 0.56535 0.04403 0.0
O685 O 0.52612 0.55553 0.06992 0.0
O686 O 0.54007 0.53059 0.03993 0.0
O687 O 0.55815 0.54965 0.06581 0.0
H688 H 0.5068 0.49996 0.96144 0.0
H689 H 0.4944 0.50254 0.92941 0.0
H690 H 0.50198 0.56466 0.94573 0.0
H691 H 0.51419 0.56192 0.97766 0.0
H692 H 0.55322 0.62055 0.12158 0.0
H693 H 0.56501 0.62313 0.15489 0.0
H694 H 0.60031 0.5889 0.14012 0.0
H695 H 0.58853 0.58627 0.10697 0.0
Pr696 Pr 0.78294 0.2979 0.27465 0.0
Pr697 Pr 0.79603 0.34232 0.27513 0.0
C698 C 0.77139 0.25931 0.26262 0.0
C699 C 0.77671 0.24385 0.25166 0.0
C700 C 0.76972 0.22433 0.25306 0.0
C701 C 0.7756 0.20955 0.2437 0.0
C702 C 0.78855 0.21409 0.23273 0.0
C703 C 0.7952 0.23373 0.23104 0.0
C704 C 0.78936 0.24846 0.24051 0.0
C705 C 0.77875 0.31683 0.3094 0.0
C706 C 0.82399 0.31716 0.29063 0.0
C707 C 0.81009 0.38115 0.28273 0.0
C708 C 0.80688 0.39762 0.29451 0.0
C709 C 0.81796 0.41622 0.29655 0.0
C710 C 0.81464 0.43202 0.30747 0.0
C711 C 0.80019 0.42936 0.31652 0.0
C712 C 0.78936 0.41051 0.31472 0.0
C713 C 0.79264 0.3948 0.30373 0.0
C714 C 0.79328 0.31941 0.24018 0.0
C715 C 0.75509 0.32435 0.26487 0.0
O716 O 0.76665 0.27247 0.25341 0.0
O717 O 0.78105 0.26667 0.27898 0.0
O718 O 0.78469 0.32496 0.29646 0.0
O719 O 0.7746 0.29807 0.30446 0.0
O720 O 0.82061 0.33436 0.28987 0.0
O721 O 0.81235 0.3007 0.28374 0.0
O722 O 0.81601 0.36859 0.2917 0.0
O723 O 0.79806 0.37284 0.26833 0.0
O724 O 0.7993 0.31541 0.2558 0.0
O725 O 0.78922 0.33599 0.24234 0.0
O726 O 0.75914 0.30766 0.26044 0.0
O727 O 0.76669 0.3397 0.27452 0.0
H728 H 0.76001 0.22057 0.26175 0.0
H729 H 0.77039 0.19463 0.24557 0.0
H730 H 0.80497 0.23773 0.22247 0.0
H731 H 0.79491 0.26349 0.23943 0.0
H732 H 0.82903 0.41858 0.2895 0.0
H733 H 0.8231 0.44639 0.30839 0.0
H734 H 0.77827 0.40791 0.32171 0.0
H735 H 0.78395 0.38049 0.30224 0.0
Pr736 Pr 0.04657 0.56803 0.5453 0.0
Pr737 Pr 0.03125 0.57183 0.50104 0.0
C738 C 0.05559 0.57696 0.58265 0.0
C739 C 0.04885 0.58821 0.59662 0.0
C740 C 0.05693 0.59241 0.6154 0.0
C741 C 0.05032 0.60316 0.62862 0.0
C742 C 0.03559 0.60992 0.62317 0.0
C743 C 0.0277 0.6058 0.60421 0.0
C744 C 0.03423 0.59497 0.59108 0.0
C745 C 0.04827 0.53581 0.51997 0.0
C746 C 0.00432 0.55148 0.52783 0.0
C747 C 0.02016 0.56544 0.46385 0.0
C748 C 0.02532 0.55903 0.44618 0.0
C749 C 0.01286 0.553 0.4299 0.0
C750 C 0.0176 0.5475 0.41275 0.0
C751 C 0.0349 0.54799 0.41165 0.0
C752 C 0.04734 0.55392 0.42811 0.0
C753 C 0.04257 0.55937 0.44527 0.0
C754 C 0.02893 0.60339 0.52723 0.0
C755 C 0.07339 0.58791 0.5179 0.0
O756 O 0.06347 0.5871 0.57113 0.0
O757 O 0.04505 0.56039 0.57428 0.0
O758 O 0.04288 0.55043 0.51628 0.0
O759 O 0.05405 0.53805 0.53788 0.0
O760 O 0.0072 0.55369 0.5107 0.0
O761 O 0.01643 0.55751 0.54301 0.0
O762 O 0.01607 0.55214 0.47456 0.0
O763 O 0.02918 0.5824 0.47313 0.0
O764 O 0.03466 0.58888 0.53018 0.0
O765 O 0.02342 0.60168 0.50935 0.0
O766 O 0.07041 0.58647 0.53517 0.0
O767 O 0.06131 0.58124 0.50276 0.0
H768 H 0.06822 0.58724 0.61986 0.0
H769 H 0.05654 0.60581 0.64316 0.0
H770 H 0.01648 0.61094 0.59948 0.0
H771 H 0.02787 0.59183 0.57656 0.0
H772 H 0.99947 0.55263 0.43043 0.0
H773 H 0.00768 0.54269 0.40039 0.0
H774 H 0.06079 0.55462 0.42769 0.0
H775 H 0.05235 0.56404 0.45777 0.0
Pr776 Pr 0.7658 0.8094 0.26941 0.0
Pr777 Pr 0.80452 0.81087 0.27922 0.0
C778 C 0.73155 0.805 0.26738 0.0
C779 C 0.71802 0.80349 0.27908 0.0
C780 C 0.7008 0.7994 0.27032 0.0
C781 C 0.68763 0.79802 0.28098 0.0
C782 C 0.6914 0.80066 0.3007 0.0
C783 C 0.70876 0.80488 0.30948 0.0
C784 C 0.72198 0.80624 0.29875 0.0
C785 C 0.78773 0.83994 0.25764 0.0
C786 C 0.78724 0.82771 0.31307 0.0
C787 C 0.83882 0.81536 0.28163 0.0
C788 C 0.85243 0.81416 0.27023 0.0
C789 C 0.86197 0.80019 0.27269 0.0
C790 C 0.87566 0.79953 0.26306 0.0
C791 C 0.88025 0.81294 0.25083 0.0
C792 C 0.87049 0.82674 0.24813 0.0
C793 C 0.85673 0.82735 0.25773 0.0
C794 C 0.78217 0.77959 0.28971 0.0
C795 C 0.78347 0.79283 0.23522 0.0
O796 O 0.73866 0.79028 0.26536 0.0
O797 O 0.74253 0.82199 0.26929 0.0
O798 O 0.79032 0.8344 0.27338 0.0
O799 O 0.7729 0.83047 0.24785 0.0
O800 O 0.80178 0.8299 0.30639 0.0
O801 O 0.77235 0.81803 0.30256 0.0
O802 O 0.83134 0.82977 0.28055 0.0
O803 O 0.82826 0.79897 0.28317 0.0
O804 O 0.78001 0.78575 0.27429 0.0
O805 O 0.79664 0.78919 0.30023 0.0
O806 O 0.76862 0.79221 0.24108 0.0
O807 O 0.79841 0.80065 0.24646 0.0
H808 H 0.69753 0.79735 0.25516 0.0
H809 H 0.67447 0.79512 0.27374 0.0
H810 H 0.71211 0.80688 0.32462 0.0
H811 H 0.73524 0.80941 0.30576 0.0
H812 H 0.85898 0.7899 0.28229 0.0
H813 H 0.88268 0.7885 0.26526 0.0
H814 H 0.87377 0.83744 0.23899 0.0
H815 H 0.84969 0.83837 0.25557 0.0
Pr816 Pr 0.7953 0.34315 0.79068 0.0
Pr817 Pr 0.7723 0.29782 0.76844 0.0
C818 C 0.82214 0.3728 0.80703 0.0
C819 C 0.83032 0.3934 0.80684 0.0
C820 C 0.82062 0.40661 0.80185 0.0
C821 C 0.82879 0.4263 0.80253 0.0
C822 C 0.84676 0.43305 0.80817 0.0
C823 C 0.85638 0.4196 0.81275 0.0
C824 C 0.84823 0.39998 0.8121 0.0
C825 C 0.76071 0.34139 0.77681 0.0
C826 C 0.78803 0.33267 0.74335 0.0
C827 C 0.7453 0.26807 0.75281 0.0
C828 C 0.73761 0.24804 0.75532 0.0
C829 C 0.74545 0.23929 0.76921 0.0
C830 C 0.73791 0.22018 0.77148 0.0
C831 C 0.72244 0.20955 0.75985 0.0
C832 C 0.71459 0.21853 0.74607 0.0
C833 C 0.72211 0.23763 0.74385 0.0
C834 C 0.80689 0.29956 0.78256 0.0
C835 C 0.77968 0.30796 0.81563 0.0
O836 O 0.82285 0.36022 0.79264 0.0
O837 O 0.80749 0.36892 0.81336 0.0
O838 O 0.76846 0.328 0.77629 0.0
O839 O 0.7713 0.35743 0.78607 0.0
O840 O 0.77798 0.31515 0.74357 0.0
O841 O 0.79657 0.34491 0.75873 0.0
O842 O 0.74446 0.28185 0.76605 0.0
O843 O 0.76012 0.27105 0.74679 0.0
O844 O 0.79917 0.31298 0.78293 0.0
O845 O 0.79626 0.28351 0.77337 0.0
O846 O 0.78972 0.3255 0.81547 0.0
O847 O 0.7711 0.2958 0.80026 0.0
H848 H 0.80677 0.40176 0.79767 0.0
H849 H 0.82098 0.4363 0.79906 0.0
H850 H 0.87026 0.42422 0.81682 0.0
H851 H 0.85591 0.38994 0.81587 0.0
H852 H 0.75741 0.24722 0.77823 0.0
H853 H 0.74434 0.21362 0.78211 0.0
H854 H 0.70254 0.21085 0.7371 0.0
H855 H 0.71582 0.24429 0.7332 0.0
Pr856 Pr 0.76305 0.79618 0.76835 0.0
Pr857 Pr 0.79782 0.82428 0.77632 0.0
C858 C 0.73058 0.77643 0.76913 0.0
C859 C 0.71717 0.77926 0.7802 0.0
C860 C 0.69984 0.77387 0.77158 0.0
C861 C 0.68697 0.77664 0.78181 0.0
C862 C 0.69116 0.78478 0.80096 0.0
C863 C 0.70862 0.79041 0.80949 0.0
C864 C 0.7215 0.78775 0.79919 0.0
C865 C 0.77355 0.81014 0.73633 0.0
C866 C 0.76651 0.84257 0.78434 0.0
C867 C 0.83032 0.84379 0.77528 0.0
C868 C 0.84517 0.83879 0.76799 0.0
C869 C 0.84886 0.82054 0.76918 0.0
C870 C 0.86267 0.81585 0.76158 0.0
C871 C 0.87283 0.8292 0.75242 0.0
C872 C 0.86912 0.84743 0.75132 0.0
C873 C 0.85544 0.85217 0.75904 0.0
C874 C 0.78717 0.81051 0.80833 0.0
C875 C 0.79453 0.77749 0.76167 0.0
O876 O 0.7442 0.77236 0.77803 0.0
O877 O 0.73429 0.78884 0.7576 0.0
O878 O 0.77525 0.82034 0.7522 0.0
O879 O 0.76596 0.79201 0.73651 0.0
O880 O 0.78138 0.84698 0.77847 0.0
O881 O 0.75907 0.82436 0.78552 0.0
O882 O 0.81714 0.84387 0.76271 0.0
O883 O 0.82582 0.83606 0.78979 0.0
O884 O 0.78557 0.80018 0.79254 0.0
O885 O 0.79481 0.82861 0.80811 0.0
O886 O 0.7793 0.77331 0.76671 0.0
O887 O 0.80247 0.79559 0.76078 0.0
H888 H 0.69626 0.76754 0.75688 0.0
H889 H 0.67372 0.77252 0.77465 0.0
H890 H 0.71236 0.79654 0.82421 0.0
H891 H 0.73484 0.79225 0.80609 0.0
H892 H 0.84098 0.80984 0.77581 0.0
H893 H 0.86518 0.80166 0.76251 0.0
H894 H 0.87691 0.85807 0.74455 0.0
H895 H 0.85278 0.86627 0.7579 0.0
Pr896 Pr 0.52075 0.55661 0.5189 0.0
Pr897 Pr 0.56072 0.57493 0.53411 0.0
C898 C 0.48601 0.54939 0.51232 0.0
C899 C 0.47302 0.56041 0.51575 0.0
C900 C 0.45617 0.5505 0.51668 0.0
C901 C 0.44378 0.56087 0.51991 0.0
C902 C 0.44804 0.58144 0.52242 0.0
C903 C 0.46511 0.59127 0.52176 0.0
C904 C 0.47737 0.58087 0.51828 0.0
C905 C 0.54249 0.54913 0.49398 0.0
C906 C 0.53894 0.60362 0.51642 0.0
C907 C 0.59536 0.58219 0.54217 0.0
C908 C 0.60837 0.57102 0.53988 0.0
C909 C 0.6256 0.57932 0.54804 0.0
C910 C 0.63809 0.56883 0.54608 0.0
C911 C 0.63359 0.54979 0.53588 0.0
C912 C 0.61619 0.5415 0.52782 0.0
C913 C 0.60371 0.55204 0.52975 0.0
C914 C 0.53866 0.58321 0.55819 0.0
C915 C 0.54327 0.52771 0.53556 0.0
O916 O 0.49466 0.54513 0.52713 0.0
O917 O 0.49564 0.55496 0.49997 0.0
O918 O 0.5444 0.56491 0.5048 0.0
O919 O 0.52796 0.53692 0.49446 0.0
O920 O 0.55444 0.6003 0.51931 0.0
O921 O 0.52499 0.59059 0.51844 0.0
O922 O 0.58713 0.58578 0.52674 0.0
O923 O 0.58531 0.57713 0.55427 0.0
O924 O 0.53699 0.56718 0.54793 0.0
O925 O 0.55323 0.59539 0.5579 0.0
O926 O 0.52757 0.53051 0.53239 0.0
O927 O 0.55704 0.5412 0.53404 0.0
H928 H 0.45253 0.5347 0.51473 0.0
H929 H 0.43078 0.55269 0.52003 0.0
H930 H 0.4691 0.60705 0.52402 0.0
H931 H 0.4903 0.58884 0.51766 0.0
H932 H 0.6294 0.59391 0.55602 0.0
H933 H 0.65124 0.57558 0.55284 0.0
H934 H 0.61219 0.52693 0.51987 0.0
H935 H 0.59044 0.54539 0.52334 0.0
Pr936 Pr 0.05876 0.56523 0.02849 0.0
Pr937 Pr 0.01825 0.55747 0.02238 0.0
C938 C 0.09236 0.56478 0.03575 0.0
C939 C 0.10453 0.55221 0.03749 0.0
C940 C 0.12207 0.56101 0.04367 0.0
C941 C 0.13409 0.54969 0.04527 0.0
C942 C 0.12885 0.52922 0.04072 0.0
C943 C 0.11117 0.52039 0.0345 0.0
C944 C 0.0991 0.5318 0.03295 0.0
C945 C 0.04396 0.58179 0.99984 0.0
C946 C 0.03369 0.52257 0.00466 0.0
C947 C 0.98484 0.55877 0.01541 0.0
C948 C 0.97293 0.57165 0.01809 0.0
C949 C 0.96389 0.57083 0.03324 0.0
C950 C 0.9515 0.58154 0.03498 0.0
C951 C 0.9477 0.59328 0.02155 0.0
C952 C 0.95699 0.5944 0.00658 0.0
C953 C 0.9694 0.58368 0.00483 0.0
C954 C 0.03326 0.54102 0.05112 0.0
C955 C 0.04312 0.60034 0.0462 0.0
O956 O 0.08288 0.56584 0.0488 0.0
O957 O 0.08417 0.56479 0.01895 0.0
O958 O 0.03812 0.56483 0.00321 0.0
O959 O 0.05841 0.59058 0.01084 0.0
O960 O 0.02051 0.53063 0.00228 0.0
O961 O 0.04843 0.5318 0.01577 0.0
O962 O 0.99536 0.56231 0.00339 0.0
O963 O 0.99168 0.55271 0.03024 0.0
O964 O 0.03889 0.5579 0.04748 0.0
O965 O 0.01865 0.53225 0.0404 0.0
O966 O 0.05675 0.59295 0.04784 0.0
O967 O 0.02814 0.5905 0.03602 0.0
H968 H 0.12653 0.57674 0.04717 0.0
H969 H 0.14757 0.55706 0.04978 0.0
H970 H 0.10665 0.50468 0.03103 0.0
H971 H 0.08558 0.52472 0.02821 0.0
H972 H 0.96614 0.5616 0.04363 0.0
H973 H 0.94482 0.58051 0.04685 0.0
H974 H 0.95429 0.60308 0.99582 0.0
H975 H 0.97595 0.5845 0.99285 0.0
H976 H 0.98432 0.24586 0.96066 0.0
H977 H 0.99298 0.22195 0.97877 0.0
H978 H 0.03371 0.21945 0.94684 0.0
H979 H 0.02536 0.24373 0.9289 0.0
H980 H 0.99244 0.18555 0.96797 0.0
H981 H 0.06655 0.2064 0.97243 0.0
H982 H 0.09015 0.23579 0.97441 0.0
H983 H 0.06025 0.27124 0.99935 0.0
H984 H 0.03657 0.24205 0.99775 0.0
H985 H 0.05829 0.12627 1.00074 0.0
H986 H 0.0519 0.15415 0.98721 0.0
H987 H 0.01059 0.15344 0.01895 0.0
H988 H 0.01641 0.12496 0.03179 0.0
H989 H 0.05199 0.18973 0.99909 0.0
H990 H 0.97849 0.16945 0.99595 0.0
H991 H 0.95481 0.14037 0.99486 0.0
H992 H 0.98316 0.10424 0.96802 0.0
H993 H 0.00685 0.13316 0.9686 0.0
C994 C 0.99527 0.24044 0.9576 0.0
C995 C 0.00413 0.2468 0.94327 0.0
C996 C 1.00017 0.22666 0.96796 0.0
C997 C 0.01406 0.21888 0.96431 0.0
C998 C 0.02313 0.22543 0.95021 0.0
C999 C 0.0183 0.23932 0.93989 0.0
C1000 C 0.0185 0.2033 0.97467 0.0
C1001 C 0.00543 0.18662 0.975 0.0
C1002 C 0.03549 0.20441 0.98358 0.0
C1003 C 0.04972 0.22205 0.98479 0.0
C1004 C 0.06504 0.22046 0.9784 0.0
C1005 C 0.07842 0.23708 0.97944 0.0
C1006 C 0.07668 0.25538 0.98694 0.0
C1007 C 0.06156 0.25707 0.99347 0.0
C1008 C 0.04814 0.2405 0.99248 0.0
C1009 C 0.04791 0.13212 0.00492 0.0
C1010 C 0.03775 0.12326 0.0172 0.0
C1011 C 0.04426 0.14811 0.99718 0.0
C1012 C 0.0305 0.15575 0.00167 0.0
C1013 C 0.02094 0.14753 0.01475 0.0
C1014 C 0.02435 0.13129 0.0222 0.0
C1015 C 0.02595 0.17191 0.99229 0.0
C1016 C 0.039 0.18868 0.9921 0.0
C1017 C 0.00891 0.17091 0.98354 0.0
C1018 C 0.99452 0.15346 0.98252 0.0
C1019 C 0.97962 0.15532 0.98972 0.0
C1020 C 0.96621 0.13886 0.98921 0.0
C1021 C 0.96753 0.12045 0.98149 0.0
C1022 C 0.98219 0.11849 0.97408 0.0
C1023 C 0.99561 0.13492 0.97447 0.0
H1024 H 0.95717 0.10772 0.9812 0.0
H1025 H 0.08705 0.26823 0.98772 0.0
H1026 H 0.10158 0.79507 0.18987 0.0
H1027 H 0.13039 0.79497 0.20507 0.0
H1028 H 0.15135 0.84902 0.18602 0.0
H1029 H 0.12243 0.84921 0.17061 0.0
H1030 H 0.17194 0.82265 0.18269 0.0
H1031 H 0.14433 0.84993 0.23002 0.0
H1032 H 0.12112 0.85055 0.24856 0.0
H1033 H 0.12771 0.79789 0.26841 0.0
H1034 H 0.15081 0.7968 0.24978 0.0
H1035 H 0.25099 0.85473 0.24608 0.0
H1036 H 0.22257 0.85086 0.22748 0.0
H1037 H 0.20301 0.79928 0.25117 0.0
H1038 H 0.23151 0.80342 0.27023 0.0
H1039 H 0.18151 0.82273 0.25145 0.0
H1040 H 0.21038 0.79631 0.20612 0.0
H1041 H 0.23339 0.79499 0.18746 0.0
H1042 H 0.22448 0.84477 0.16349 0.0
H1043 H 0.20166 0.84668 0.18232 0.0
C1044 C 0.11229 0.80691 0.18877 0.0
C1045 C 0.10963 0.82225 0.17912 0.0
C1046 C 0.12878 0.80684 0.19752 0.0
C1047 C 0.14301 0.82211 0.1969 0.0
C1048 C 0.14054 0.8371 0.18672 0.0
C1049 C 0.124 0.83722 0.17797 0.0
C1050 C 0.1603 0.82275 0.2075 0.0
C1051 C 0.17412 0.82292 0.19775 0.0
C1052 C 0.16301 0.82251 0.22708 0.0
C1053 C 0.14917 0.82318 0.23835 0.0
C1054 C 0.14073 0.83839 0.23822 0.0
C1055 C 0.12762 0.83885 0.24877 0.0
C1056 C 0.12291 0.82424 0.25961 0.0
C1057 C 0.13135 0.80918 0.25998 0.0
C1058 C 0.14447 0.80864 0.24944 0.0
C1059 C 0.24065 0.84252 0.2473 0.0
C1060 C 0.24348 0.82929 0.25953 0.0
C1061 C 0.22443 0.84024 0.23654 0.0
C1062 C 0.21067 0.82462 0.2377 0.0
C1063 C 0.21345 0.81138 0.24995 0.0
C1064 C 0.22975 0.81365 0.26073 0.0
C1065 C 0.19326 0.82272 0.22669 0.0
C1066 C 0.17939 0.82235 0.23637 0.0
C1067 C 0.19053 0.8227 0.20703 0.0
C1068 C 0.20437 0.82173 0.19577 0.0
C1069 C 0.21343 0.80711 0.19703 0.0
C1070 C 0.22643 0.80624 0.1864 0.0
C1071 C 0.23038 0.81978 0.1743 0.0
C1072 C 0.2214 0.83429 0.17287 0.0
C1073 C 0.20843 0.83527 0.18352 0.0
H1074 H 0.24032 0.81893 0.16595 0.0
H1075 H 0.11276 0.82462 0.26777 0.0
H1076 H 0.49146 0.84166 0.4579 0.0
H1077 H 0.49973 0.87616 0.47131 0.0
H1078 H 0.53311 0.88806 0.4306 0.0
H1079 H 0.52519 0.85334 0.41734 0.0
H1080 H 0.54763 0.91037 0.46322 0.0
H1081 H 0.49288 0.89635 0.42395 0.0
H1082 H 0.46269 0.87869 0.41167 0.0
H1083 H 0.44882 0.89375 0.46527 0.0
H1084 H 0.479 0.91129 0.47795 0.0
H1085 H 0.51537 0.00767 0.47498 0.0
H1086 H 0.51223 0.97412 0.46016 0.0
H1087 H 0.54771 0.96571 0.50667 0.0
H1088 H 0.55164 0.9996 0.5209 0.0
H1089 H 0.49947 0.94202 0.4684 0.0
H1090 H 0.56673 0.92918 0.49503 0.0
H1091 H 0.59721 0.94759 0.50287 0.0
H1092 H 0.58679 0.98868 0.46702 0.0
H1093 H 0.55633 0.97035 0.45871 0.0
C1094 C 0.50071 0.85154 0.45189 0.0
C1095 C 0.50751 0.8447 0.43639 0.0
C1096 C 0.50539 0.87132 0.45955 0.0
C1097 C 0.51676 0.88484 0.45173 0.0
C1098 C 0.52424 0.87795 0.43684 0.0
C1099 C 0.51969 0.85807 0.42925 0.0
C1100 C 0.52009 0.90617 0.45853 0.0
C1101 C 0.53713 0.91734 0.46437 0.0
C1102 C 0.50643 0.91543 0.45951 0.0
C1103 C 0.48823 0.90499 0.45194 0.0
C1104 C 0.48341 0.89579 0.43315 0.0
C1105 C 0.4663 0.88581 0.42611 0.0
C1106 C 0.45385 0.88506 0.43769 0.0
C1107 C 0.45849 0.89433 0.45632 0.0
C1108 C 0.47559 0.9043 0.46344 0.0
C1109 C 0.52262 0.9987 0.48193 0.0
C1110 C 0.53382 0.0063 0.49903 0.0
C1111 C 0.5208 0.97947 0.47347 0.0
C1112 C 0.52988 0.96726 0.48209 0.0
C1113 C 0.54092 0.97484 0.49935 0.0
C1114 C 0.54308 0.99423 0.50757 0.0
C1115 C 0.52709 0.94641 0.47346 0.0
C1116 C 0.51008 0.93523 0.46726 0.0
C1117 C 0.54084 0.93737 0.47158 0.0
C1118 C 0.55918 0.94848 0.47641 0.0
C1119 C 0.57095 0.94211 0.48877 0.0
C1120 C 0.58823 0.95253 0.4933 0.0
C1121 C 0.59392 0.96933 0.4855 0.0
C1122 C 0.58235 0.97571 0.47311 0.0
C1123 C 0.56507 0.96531 0.46849 0.0
H1124 H 0.60729 0.97738 0.48904 0.0
H1125 H 0.44061 0.87733 0.43222 0.0
H1126 H 0.52584 0.31526 0.70647 0.0
H1127 H 0.49964 0.31042 0.72047 0.0
H1128 H 0.47254 0.32664 0.67195 0.0
H1129 H 0.49864 0.33204 0.65823 0.0
H1130 H 0.46659 0.34541 0.70237 0.0
H1131 H 0.46528 0.27863 0.68079 0.0
H1132 H 0.47666 0.24931 0.67777 0.0
H1133 H 0.48216 0.2502 0.73734 0.0
H1134 H 0.47102 0.2797 0.74074 0.0
H1135 H 0.38115 0.31635 0.72057 0.0
H1136 H 0.40726 0.3187 0.7067 0.0
H1137 H 0.43387 0.30624 0.75756 0.0
H1138 H 0.40794 0.30412 0.77163 0.0
H1139 H 0.44028 0.28553 0.7267 0.0
H1140 H 0.44109 0.35231 0.74792 0.0
H1141 H 0.42916 0.38128 0.75049 0.0
H1142 H 0.42419 0.38003 0.69092 0.0
H1143 H 0.43586 0.35089 0.68795 0.0
C1144 C 0.51423 0.31753 0.69868 0.0
C1145 C 0.51436 0.32393 0.68116 0.0
C1146 C 0.49924 0.31473 0.70669 0.0
C1147 C 0.48403 0.31807 0.69723 0.0
C1148 C 0.48408 0.32401 0.67956 0.0
C1149 C 0.49904 0.32693 0.67164 0.0
C1150 C 0.46826 0.31625 0.70597 0.0
C1151 C 0.46073 0.3322 0.70745 0.0
C1152 C 0.46079 0.29923 0.71305 0.0
C1153 C 0.46748 0.28149 0.71104 0.0
C1154 C 0.46905 0.27266 0.69326 0.0
C1155 C 0.47543 0.256 0.69148 0.0
C1156 C 0.48018 0.24793 0.70736 0.0
C1157 C 0.47851 0.25648 0.72505 0.0
C1158 C 0.47214 0.27317 0.72692 0.0
C1159 C 0.39259 0.31428 0.72888 0.0
C1160 C 0.3924 0.31006 0.74725 0.0
C1161 C 0.4075 0.31557 0.72091 0.0
C1162 C 0.42258 0.31279 0.73114 0.0
C1163 C 0.42238 0.30837 0.74937 0.0
C1164 C 0.4075 0.3071 0.75737 0.0
C1165 C 0.43858 0.3146 0.72291 0.0
C1166 C 0.44617 0.29871 0.72159 0.0
C1167 C 0.44608 0.33165 0.71591 0.0
C1168 C 0.4392 0.3493 0.71769 0.0
C1169 C 0.43734 0.35813 0.73535 0.0
C1170 C 0.43064 0.37459 0.73689 0.0
C1171 C 0.42588 0.38245 0.72087 0.0
C1172 C 0.42786 0.37391 0.7033 0.0
C1173 C 0.43453 0.35743 0.70169 0.0
H1174 H 0.42067 0.39517 0.72208 0.0
H1175 H 0.48512 0.23502 0.70595 0.0
H1176 H 0.02407 0.86269 0.58972 0.0
H1177 H 0.02954 0.89236 0.57587 0.0
H1178 H 0.07889 0.91303 0.61225 0.0
H1179 H 0.07323 0.88329 0.62672 0.0
H1180 H 0.06285 0.94126 0.61257 0.0
H1181 H 0.07537 0.89942 0.56384 0.0
H1182 H 0.07141 0.86984 0.54074 0.0
H1183 H 0.02467 0.87987 0.51259 0.0
H1184 H 0.0282 0.90936 0.53568 0.0
H1185 H 0.07546 0.02523 0.56584 0.0
H1186 H 0.07944 0.99552 0.57763 0.0
H1187 H 0.02925 0.96405 0.54724 0.0
H1188 H 0.02543 0.99347 0.53493 0.0
H1189 H 0.05124 0.94222 0.54409 0.0
H1190 H 0.03836 0.98282 0.59663 0.0
H1191 H 0.04451 0.01353 0.61885 0.0
H1192 H 0.09477 0.00642 0.63926 0.0
H1193 H 0.08899 0.97578 0.61701 0.0
C1194 C 0.03626 0.87332 0.59463 0.0
C1195 C 0.0482 0.87049 0.60941 0.0
C1196 C 0.03941 0.89035 0.58658 0.0
C1197 C 0.05471 0.90501 0.59283 0.0
C1198 C 0.06699 0.90198 0.60713 0.0
C1199 C 0.0638 0.88486 0.61529 0.0
C1200 C 0.05714 0.92383 0.58512 0.0
C1201 C 0.06064 0.94147 0.59758 0.0
C1202 C 0.0542 0.92429 0.56556 0.0
C1203 C 0.05201 0.90656 0.55159 0.0
C1204 C 0.06418 0.89525 0.5528 0.0
C1205 C 0.06202 0.87851 0.53969 0.0
C1206 C 0.04778 0.87297 0.52522 0.0
C1207 C 0.03569 0.88418 0.52381 0.0
C1208 C 0.03778 0.90093 0.53689 0.0
C1209 C 0.06528 0.01197 0.5616 0.0
C1210 C 0.05009 0.01181 0.54946 0.0
C1211 C 0.06755 0.99497 0.56845 0.0
C1212 C 0.05454 0.9775 0.56361 0.0
C1213 C 0.0395 0.97727 0.55123 0.0
C1214 C 0.03732 0.99417 0.5442 0.0
C1215 C 0.0563 0.95947 0.57151 0.0
C1216 C 0.05362 0.94199 0.55907 0.0
C1217 C 0.06021 0.95923 0.59105 0.0
C1218 C 0.06331 0.97713 0.60503 0.0
C1219 C 0.05073 0.98782 0.60585 0.0
C1220 C 0.05416 0.00522 0.61843 0.0
C1221 C 0.07007 0.01197 0.63037 0.0
C1222 C 0.08248 0.0012 0.62995 0.0
C1223 C 0.07913 0.98381 0.61738 0.0
H1224 H 0.07279 0.02556 0.63993 0.0
H1225 H 0.04613 0.86 0.51509 0.0
H1226 H 0.478 0.82276 0.86598 0.0
H1227 H 0.45021 0.82541 0.84953 0.0
H1228 H 0.42407 0.77633 0.87267 0.0
H1229 H 0.45172 0.77389 0.88954 0.0
H1230 H 0.416 0.77528 0.83086 0.0
H1231 H 0.41933 0.81547 0.89045 0.0
H1232 H 0.43368 0.84237 0.91624 0.0
H1233 H 0.43548 0.8835 0.87757 0.0
H1234 H 0.42136 0.85679 0.85148 0.0
H1235 H 0.32931 0.7786 0.80031 0.0
H1236 H 0.35672 0.77563 0.8172 0.0
H1237 H 0.38009 0.83543 0.81294 0.0
H1238 H 0.35254 0.83869 0.79699 0.0
H1239 H 0.38996 0.83071 0.84575 0.0
H1240 H 0.38818 0.79342 0.78628 0.0
H1241 H 0.37647 0.768 0.75853 0.0
H1242 H 0.37439 0.72349 0.79363 0.0
H1243 H 0.38589 0.74865 0.82163 0.0
C1244 C 0.46632 0.81266 0.86772 0.0
C1245 C 0.46703 0.79814 0.87908 0.0
C1246 C 0.45048 0.81419 0.85831 0.0
C1247 C 0.43513 0.80101 0.85986 0.0
C1248 C 0.43579 0.78659 0.87128 0.0
C1249 C 0.45158 0.78531 0.88099 0.0
C1250 C 0.41842 0.80206 0.84925 0.0
C1251 C 0.41012 0.78723 0.83421 0.0
C1252 C 0.41117 0.81802 0.85328 0.0
C1253 C 0.41945 0.8341 0.86899 0.0
C1254 C 0.42292 0.83023 0.88742 0.0
C1255 C 0.43098 0.84545 0.9021 0.0
C1256 C 0.43554 0.86463 0.89854 0.0
C1257 C 0.43197 0.86864 0.8803 0.0
C1258 C 0.42392 0.85346 0.86557 0.0
C1259 C 0.34037 0.79101 0.80279 0.0
C1260 C 0.33878 0.80886 0.79731 0.0
C1261 C 0.35608 0.7893 0.81241 0.0
C1262 C 0.37065 0.80525 0.81625 0.0
C1263 C 0.3691 0.82292 0.8103 0.0
C1264 C 0.35334 0.82475 0.80108 0.0
C1265 C 0.38731 0.80388 0.82708 0.0
C1266 C 0.39569 0.81867 0.84224 0.0
C1267 C 0.39485 0.7881 0.82284 0.0
C1268 C 0.38773 0.77293 0.80607 0.0
C1269 C 0.38508 0.77822 0.7881 0.0
C1270 C 0.37851 0.76386 0.77233 0.0
C1271 C 0.37466 0.74415 0.77433 0.0
C1272 C 0.37736 0.73876 0.79211 0.0
C1273 C 0.38392 0.75306 0.80793 0.0
H1274 H 0.36967 0.73306 0.76211 0.0
H1275 H 0.4418 0.87639 0.90992 0.0
H1276 H 0.56251 0.26931 0.12335 0.0
H1277 H 0.56436 0.23744 0.10807 0.0
H1278 H 0.51422 0.22955 0.07464 0.0
H1279 H 0.51244 0.26135 0.0894 0.0
H1280 H 0.54581 0.20094 0.10636 0.0
H1281 H 0.51178 0.20489 0.03203 0.0
H1282 H 0.50827 0.22964 0.01183 0.0
H1283 H 0.55602 0.2677 0.04126 0.0
H1284 H 0.55993 0.24308 0.06147 0.0
H1285 H 0.52255 0.10584 0.05116 0.0
H1286 H 0.5238 0.13774 0.06894 0.0
H1287 H 0.55674 0.16574 0.03309 0.0
H1288 H 0.55448 0.13392 0.01475 0.0
H1289 H 0.53586 0.18527 0.03698 0.0
H1290 H 0.56978 0.15953 0.08262 0.0
H1291 H 0.57615 0.13618 0.10336 0.0
H1292 H 0.53443 0.14352 0.13175 0.0
H1293 H 0.52754 0.16655 0.11089 0.0
C1294 C 0.55193 0.26086 0.11264 0.0
C1295 C 0.5374 0.26809 0.10752 0.0
C1296 C 0.55296 0.24256 0.10399 0.0
C1297 C 0.53952 0.23111 0.09002 0.0
C1298 C 0.52493 0.2382 0.0851 0.0
C1299 C 0.52393 0.25646 0.09362 0.0
C1300 C 0.54069 0.21186 0.08041 0.0
C1301 C 0.54372 0.1975 0.09118 0.0
C1302 C 0.53818 0.20738 0.06061 0.0
C1303 C 0.53605 0.2222 0.04837 0.0
C1304 C 0.52156 0.21851 0.03414 0.0
C1305 C 0.5195 0.23252 0.0227 0.0
C1306 C 0.53189 0.25025 0.0253 0.0
C1307 C 0.5464 0.25398 0.0393 0.0
C1308 C 0.54854 0.24001 0.05077 0.0
C1309 C 0.53026 0.11885 0.04738 0.0
C1310 C 0.53858 0.11751 0.03181 0.0
C1311 C 0.53103 0.13712 0.05755 0.0
C1312 C 0.54062 0.15438 0.05268 0.0
C1313 C 0.54918 0.15282 0.03721 0.0
C1314 C 0.54797 0.13462 0.02675 0.0
C1315 C 0.54105 0.1741 0.06285 0.0
C1316 C 0.53814 0.1886 0.05216 0.0
C1317 C 0.54409 0.17877 0.08273 0.0
C1318 C 0.54809 0.1647 0.09512 0.0
C1319 C 0.56188 0.15605 0.09319 0.0
C1320 C 0.56558 0.14287 0.10497 0.0
C1321 C 0.55573 0.13841 0.11889 0.0
C1322 C 0.54208 0.14703 0.121 0.0
C1323 C 0.53826 0.16012 0.10918 0.0
H1324 H 0.55864 0.12823 0.12801 0.0
H1325 H 0.53026 0.26109 0.01643 0.0
H1326 H 0.06738 0.3415 0.37507 0.0
H1327 H 0.09326 0.33932 0.36204 0.0
H1328 H 0.0937 0.28618 0.38477 0.0
H1329 H 0.06813 0.28856 0.39828 0.0
H1330 H 0.12544 0.30718 0.38817 0.0
H1331 H 0.07677 0.28612 0.33806 0.0
H1332 H 0.05077 0.28901 0.31764 0.0
H1333 H 0.08036 0.33918 0.29928 0.0
H1334 H 0.10651 0.33674 0.31981 0.0
H1335 H 0.17227 0.2634 0.32774 0.0
H1336 H 0.14931 0.27101 0.34341 0.0
H1337 H 0.15776 0.32713 0.32488 0.0
H1338 H 0.18123 0.31996 0.30962 0.0
H1339 H 0.12276 0.30708 0.31971 0.0
H1340 H 0.17217 0.32578 0.36868 0.0
H1341 H 0.19782 0.32115 0.38842 0.0
H1342 H 0.16631 0.27339 0.40829 0.0
H1343 H 0.14048 0.27754 0.38843 0.0
C1344 C 0.07309 0.32947 0.37749 0.0
C1345 C 0.06558 0.31512 0.3876 0.0
C1346 C 0.08785 0.32818 0.36993 0.0
C1347 C 0.09526 0.31235 0.37207 0.0
C1348 C 0.08821 0.29848 0.38285 0.0
C1349 C 0.07355 0.29986 0.39056 0.0
C1350 C 0.10991 0.30979 0.36252 0.0
C1351 C 0.12477 0.307 0.37318 0.0
C1352 C 0.10924 0.30989 0.34299 0.0
C1353 C 0.09355 0.31138 0.33063 0.0
C1354 C 0.0777 0.29786 0.32978 0.0
C1355 C 0.06295 0.2994 0.31817 0.0
C1356 C 0.0639 0.31431 0.30721 0.0
C1357 C 0.07963 0.32767 0.30781 0.0
C1358 C 0.09443 0.32621 0.31942 0.0
C1359 C 0.16943 0.27748 0.32713 0.0
C1360 C 0.17878 0.29112 0.31751 0.0
C1361 C 0.15623 0.28176 0.33606 0.0
C1362 C 0.15197 0.29972 0.3355 0.0
C1363 C 0.16088 0.31319 0.3255 0.0
C1364 C 0.17422 0.30899 0.31669 0.0
C1365 C 0.13815 0.30432 0.34535 0.0
C1366 C 0.12346 0.30745 0.33473 0.0
C1367 C 0.13891 0.30432 0.36487 0.0
C1368 C 0.1544 0.30187 0.37693 0.0
C1369 C 0.17072 0.31419 0.37714 0.0
C1370 C 0.18529 0.31167 0.38837 0.0
C1371 C 0.1837 0.29696 0.39957 0.0
C1372 C 0.16752 0.28477 0.39959 0.0
C1373 C 0.15291 0.28721 0.38836 0.0
H1374 H 0.195 0.29503 0.40826 0.0
H1375 H 0.05246 0.31547 0.29823 0.0
H1376 H 0.91249 0.0559 0.14479 0.0
H1377 H 0.93248 0.06814 0.12407 0.0
H1378 H 0.96565 0.03251 0.14368 0.0
H1379 H 0.94575 0.01995 0.16411 0.0
H1380 H 0.97993 0.0754 0.15033 0.0
H1381 H 0.95044 0.02076 0.1025 0.0
H1382 H 0.92516 0.9994 0.08106 0.0
H1383 H 0.91712 0.048 0.05459 0.0
H1384 H 0.94239 0.0698 0.07601 0.0
H1385 H 0.0437 0.06597 0.09734 0.0
H1386 H 0.01959 0.06385 0.11441 0.0
H1387 H 1.00121 0.10495 0.08307 0.0
H1388 H 0.02591 0.10759 0.06633 0.0
H1389 H 0.977 0.06684 0.0813 0.0
H1390 H 0.01147 0.11979 0.12643 0.0
H1391 H 0.03777 0.13914 0.1477 0.0
H1392 H 0.03714 0.09205 0.17951 0.0
H1393 H 0.01098 0.07229 0.15827 0.0
C1394 C 0.92376 0.05018 0.14424 0.0
C1395 C 0.92768 0.0372 0.15636 0.0
C1396 C 0.93516 0.05723 0.13242 0.0
C1397 C 0.9506 0.05143 0.13264 0.0
C1398 C 0.95382 0.03725 0.14349 0.0
C1399 C 0.94237 0.03002 0.1551 0.0
C1400 C 0.96443 0.06177 0.12358 0.0
C1401 C 0.97933 0.07356 0.13524 0.0
C1402 C 0.96327 0.05988 0.1039 0.0
C1403 C 0.94811 0.04696 0.09105 0.0
C1404 C 0.94317 0.02696 0.09225 0.0
C1405 C 0.92891 0.01477 0.08005 0.0
C1406 C 0.91953 0.02239 0.06651 0.0
C1407 C 0.92443 0.0422 0.06511 0.0
C1408 C 0.93873 0.05447 0.07725 0.0
C1409 C 0.03494 0.07521 0.09474 0.0
C1410 C 0.03672 0.08721 0.0809 0.0
C1411 C 0.02113 0.0739 0.10435 0.0
C1412 C 0.00867 0.08425 0.09997 0.0
C1413 C 0.0108 0.09697 0.08669 0.0
C1414 C 0.02494 0.09863 0.07733 0.0
C1415 C 0.99277 0.07992 0.10812 0.0
C1416 C 0.97743 0.06923 0.09636 0.0
C1417 C 0.99354 0.08267 0.12777 0.0
C1418 C 0.00926 0.09452 0.14069 0.0
C1419 C 0.017 0.1135 0.13788 0.0
C1420 C 0.03188 0.12456 0.14995 0.0
C1421 C 0.03913 0.11683 0.16494 0.0
C1422 C 0.0315 0.09803 0.1679 0.0
C1423 C 0.01662 0.0869 0.15587 0.0
H1424 H 0.05065 0.12541 0.17426 0.0
H1425 H 0.90848 0.01294 0.05708 0.0
H1426 H 0.32093 0.75559 0.47613 0.0
H1427 H 0.31535 0.76807 0.44699 0.0
H1428 H 0.26064 0.74913 0.44609 0.0
H1429 H 0.26619 0.73552 0.47508 0.0
H1430 H 0.26555 0.74078 0.41295 0.0
H1431 H 0.28458 0.79968 0.45576 0.0
H1432 H 0.30308 0.82395 0.48176 0.0
H1433 H 0.34523 0.82981 0.45124 0.0
H1434 H 0.32705 0.80537 0.42515 0.0
H1435 H 0.27921 0.8237 0.34824 0.0
H1436 H 0.27881 0.81373 0.3792 0.0
H1437 H 0.28221 0.7563 0.35612 0.0
H1438 H 0.2813 0.76588 0.32498 0.0
H1439 H 0.29919 0.80486 0.40254 0.0
H1440 H 0.26767 0.72167 0.38062 0.0
H1441 H 0.2458 0.6998 0.35548 0.0
H1442 H 0.22199 0.74669 0.3461 0.0
H1443 H 0.24357 0.76878 0.37134 0.0
C1444 C 0.30765 0.75426 0.46999 0.0
C1445 C 0.29401 0.74458 0.47819 0.0
C1446 C 0.30447 0.76157 0.45322 0.0
C1447 C 0.28755 0.75996 0.44428 0.0
C1448 C 0.27384 0.75065 0.45261 0.0
C1449 C 0.27703 0.74298 0.46931 0.0
C1450 C 0.28438 0.76724 0.42591 0.0
C1451 C 0.27284 0.75486 0.41075 0.0
C1452 C 0.29346 0.78584 0.4229 0.0
C1453 C 0.30447 0.80058 0.43855 0.0
C1454 C 0.29783 0.80604 0.45464 0.0
C1455 C 0.30825 0.81985 0.46939 0.0
C1456 C 0.32532 0.82839 0.46816 0.0
C1457 C 0.332 0.82317 0.45217 0.0
C1458 C 0.32163 0.80936 0.43738 0.0
C1459 C 0.27963 0.80887 0.34977 0.0
C1460 C 0.28006 0.79551 0.33412 0.0
C1461 C 0.27948 0.80316 0.36753 0.0
C1462 C 0.28017 0.78407 0.37022 0.0
C1463 C 0.28102 0.77088 0.35456 0.0
C1464 C 0.28063 0.77641 0.3367 0.0
C1465 C 0.28063 0.77823 0.38942 0.0
C1466 C 0.29173 0.79087 0.40474 0.0
C1467 C 0.2706 0.76022 0.39272 0.0
C1468 C 0.25733 0.74692 0.37778 0.0
C1469 C 0.25771 0.72729 0.37327 0.0
C1470 C 0.24537 0.71486 0.35898 0.0
C1471 C 0.23254 0.72187 0.34916 0.0
C1472 C 0.23197 0.7413 0.35367 0.0
C1473 C 0.24425 0.75378 0.36796 0.0
H1474 H 0.22304 0.71223 0.33807 0.0
H1475 H 0.33337 0.83907 0.4796 0.0
H1476 H 0.58496 0.94288 0.66783 0.0
H1477 H 0.57771 0.95669 0.63967 0.0
H1478 H 0.62175 0.00567 0.65839 0.0
H1479 H 0.62896 0.9921 0.68683 0.0
H1480 H 0.59276 0.01721 0.6528 0.0
H1481 H 0.61831 0.97441 0.61736 0.0
H1482 H 0.62419 0.9431 0.6056 0.0
H1483 H 0.57089 0.92036 0.58092 0.0
H1484 H 0.56463 0.95144 0.59275 0.0
H1485 H 0.56589 0.06365 0.57767 0.0
H1486 H 0.58331 0.04832 0.59845 0.0
H1487 H 0.54396 0.99421 0.58398 0.0
H1488 H 0.52699 0.00921 0.56227 0.0
H1489 H 0.57457 0.98686 0.58602 0.0
H1490 H 0.5482 0.02675 0.62531 0.0
H1491 H 0.54128 0.05727 0.6377 0.0
H1492 H 0.59513 0.08434 0.65595 0.0
H1493 H 0.60239 0.05403 0.64345 0.0
C1494 C 0.59342 0.95631 0.66573 0.0
C1495 C 0.60736 0.96657 0.67975 0.0
C1496 C 0.5893 0.96414 0.64953 0.0
C1497 C 0.59914 0.98227 0.64695 0.0
C1498 C 0.61394 0.9917 0.66015 0.0
C1499 C 0.61806 0.98389 0.67638 0.0
C1500 C 0.59245 0.99267 0.63225 0.0
C1501 C 0.58919 0.01078 0.6381 0.0
C1502 C 0.58727 0.98399 0.61321 0.0
C1503 C 0.59099 0.96525 0.60606 0.0
C1504 C 0.60781 0.96269 0.60955 0.0
C1505 C 0.61122 0.94499 0.60285 0.0
C1506 C 0.59792 0.92974 0.59255 0.0
C1507 C 0.58119 0.93218 0.5889 0.0
C1508 C 0.5777 0.94986 0.59558 0.0
C1509 C 0.56107 0.04842 0.57876 0.0
C1510 C 0.54515 0.03758 0.56833 0.0
C1511 C 0.57097 0.03971 0.59075 0.0
C1512 C 0.56486 0.02017 0.59296 0.0
C1513 C 0.54896 0.0093 0.58247 0.0
C1514 C 0.5392 0.01792 0.57023 0.0
C1515 C 0.5747 0.01121 0.60668 0.0
C1516 C 0.57846 0.9934 0.60066 0.0
C1517 C 0.5802 0.02002 0.62567 0.0
C1518 C 0.57584 0.03821 0.63326 0.0
C1519 C 0.55857 0.03926 0.63185 0.0
C1520 C 0.55458 0.05651 0.63891 0.0
C1521 C 0.56776 0.07275 0.64755 0.0
C1522 C 0.58494 0.07176 0.64921 0.0
C1523 C 0.589 0.05455 0.64216 0.0
H1524 H 0.56465 0.0861 0.653 0.0
H1525 H 0.60059 0.91604 0.58738 0.0
H1526 H 0.32549 0.37227 0.99544 0.0
H1527 H 0.31865 0.35985 0.96192 0.0
H1528 H 0.27816 0.39004 0.95579 0.0
H1529 H 0.28485 0.40252 0.98953 0.0
H1530 H 0.26857 0.35328 0.93402 0.0
H1531 H 0.31695 0.40951 0.94453 0.0
H1532 H 0.346 0.42949 0.95894 0.0
H1533 H 0.36825 0.38348 0.93867 0.0
H1534 H 0.33935 0.36312 0.92438 0.0
H1535 H 0.26121 0.34203 0.83349 0.0
H1536 H 0.26364 0.3542 0.86693 0.0
H1537 H 0.31117 0.33651 0.87853 0.0
H1538 H 0.30926 0.32549 0.84521 0.0
H1539 H 0.31593 0.36904 0.89759 0.0
H1540 H 0.26861 0.3118 0.8885 0.0
H1541 H 0.23997 0.29059 0.87441 0.0
H1542 H 0.21611 0.33607 0.89215 0.0
H1543 H 0.24463 0.35766 0.90612 0.0
C1544 C 0.31499 0.37616 0.98709 0.0
C1545 C 0.30583 0.38858 0.99534 0.0
C1546 C 0.31113 0.36908 0.96782 0.0
C1547 C 0.29807 0.37424 0.95616 0.0
C1548 C 0.28835 0.38589 0.96442 0.0
C1549 C 0.29222 0.39304 0.98376 0.0
C1550 C 0.29513 0.36809 0.93534 0.0
C1551 C 0.27886 0.3569 0.92599 0.0
C1552 C 0.30859 0.37248 0.92481 0.0
C1553 C 0.32596 0.38473 0.9335 0.0
C1554 C 0.32803 0.40359 0.94328 0.0
C1555 C 0.34447 0.415 0.9514 0.0
C1556 C 0.35894 0.40774 0.94973 0.0
C1557 C 0.35702 0.38907 0.93995 0.0
C1558 C 0.34062 0.3776 0.93183 0.0
C1559 C 0.27216 0.34075 0.84321 0.0
C1560 C 0.28509 0.33289 0.83661 0.0
C1561 C 0.27349 0.34758 0.86242 0.0
C1562 C 0.28751 0.34614 0.87557 0.0
C1563 C 0.30026 0.338 0.86888 0.0
C1564 C 0.29914 0.33164 0.84972 0.0
C1565 C 0.28946 0.35361 0.89615 0.0
C1566 C 0.30557 0.36527 0.9055 0.0
C1567 C 0.27591 0.34938 0.90666 0.0
C1568 C 0.25877 0.33641 0.8982 0.0
C1569 C 0.25727 0.31733 0.88927 0.0
C1570 C 0.24105 0.30523 0.88132 0.0
C1571 C 0.22624 0.312 0.88237 0.0
C1572 C 0.2276 0.33087 0.89134 0.0
C1573 C 0.24378 0.34303 0.89928 0.0
H1574 H 0.21369 0.30262 0.87631 0.0
H1575 H 0.37166 0.41657 0.95594 0.0
H1576 H 0.95297 0.03302 0.24366 0.0
H1577 H 0.96747 0.02846 0.27406 0.0
H1578 H 0.94282 0.06834 0.30232 0.0
H1579 H 0.92835 0.07299 0.2721 0.0
H1580 H 0.97751 0.0747 0.31716 0.0
H1581 H 0.92606 0.02144 0.30244 0.0
H1582 H 0.9056 0.99321 0.28216 0.0
H1583 H 0.94625 0.96408 0.27805 0.0
H1584 H 0.96695 0.9921 0.29868 0.0
H1585 H 0.97366 0.05339 0.40791 0.0
H1586 H 0.967 0.05718 0.37506 0.0
H1587 H 0.99617 0.01586 0.35954 0.0
H1588 H 0.00272 0.01177 0.39254 0.0
H1589 H 0.96385 0.00924 0.33661 0.0
H1590 H 0.01347 0.0621 0.35945 0.0
H1591 H 0.03145 0.09081 0.38137 0.0
H1592 H 0.99239 0.12198 0.37068 0.0
H1593 H 0.97405 0.09336 0.3489 0.0
C1594 C 0.95076 0.04092 0.25636 0.0
C1595 C 0.93945 0.05325 0.25556 0.0
C1596 C 0.95899 0.03825 0.27367 0.0
C1597 C 0.95611 0.048 0.29036 0.0
C1598 C 0.94521 0.06072 0.28956 0.0
C1599 C 0.93688 0.06326 0.2723 0.0
C1600 C 0.96393 0.04451 0.30879 0.0
C1601 C 0.97455 0.06042 0.32146 0.0
C1602 C 0.96032 0.02579 0.31416 0.0
C1603 C 0.94804 0.00889 0.30188 0.0
C1604 C 0.93064 0.00904 0.29712 0.0
C1605 C 0.91901 0.99309 0.2856 0.0
C1606 C 0.92465 0.97696 0.27863 0.0
C1607 C 0.94192 0.97663 0.2834 0.0
C1608 C 0.95359 0.9925 0.29509 0.0
C1609 C 0.97855 0.04499 0.3975 0.0
C1610 C 0.98866 0.03224 0.40274 0.0
C1611 C 0.97488 0.04731 0.37878 0.0
C1612 C 0.98129 0.03697 0.36497 0.0
C1613 C 0.99122 0.02404 0.37007 0.0
C1614 C 0.99499 0.02179 0.38887 0.0
C1615 C 0.97718 0.03953 0.34518 0.0
C1616 C 0.96723 0.02345 0.33222 0.0
C1617 C 0.98126 0.05818 0.33963 0.0
C1618 C 0.99233 0.07552 0.35261 0.0
C1619 C 0.00866 0.07503 0.36186 0.0
C1620 C 0.01893 0.0913 0.37425 0.0
C1621 C 0.01306 0.1082 0.37743 0.0
C1622 C 0.99692 0.10888 0.3682 0.0
C1623 C 0.98659 0.09264 0.35581 0.0
H1624 H 0.02103 0.12078 0.38703 0.0
H1625 H 0.91561 0.96471 0.2696 0.0
H1626 H 0.32027 0.76807 0.57413 0.0
H1627 H 0.31917 0.7814 0.60628 0.0
H1628 H 0.28556 0.72686 0.61231 0.0
H1629 H 0.28577 0.71396 0.5797 0.0
H1630 H 0.2758 0.75277 0.63085 0.0
H1631 H 0.33151 0.742 0.63108 0.0
H1632 H 0.35972 0.74366 0.62129 0.0
H1633 H 0.37313 0.80607 0.63572 0.0
H1634 H 0.3449 0.80481 0.64537 0.0
H1635 H 0.29104 0.78116 0.73111 0.0
H1636 H 0.2916 0.7636 0.70016 0.0
H1637 H 0.31632 0.81779 0.68368 0.0
H1638 H 0.316 0.83522 0.71454 0.0
H1639 H 0.33074 0.7887 0.67198 0.0
H1640 H 0.27194 0.79648 0.67093 0.0
H1641 H 0.24525 0.79148 0.68441 0.0
H1642 H 0.23914 0.72947 0.67446 0.0
H1643 H 0.26604 0.73414 0.6613 0.0
C1644 C 0.31251 0.75898 0.58225 0.0
C1645 C 0.30316 0.73992 0.57432 0.0
C1646 C 0.31202 0.76655 0.60078 0.0
C1647 C 0.30271 0.75502 0.61216 0.0
C1648 C 0.29294 0.73614 0.60403 0.0
C1649 C 0.29306 0.72874 0.58532 0.0
C1650 C 0.30332 0.7626 0.63247 0.0
C1651 C 0.28789 0.76038 0.63981 0.0
C1652 C 0.31902 0.77246 0.64456 0.0
C1653 C 0.33602 0.77332 0.63878 0.0
C1654 C 0.34043 0.75609 0.63204 0.0
C1655 C 0.35643 0.75696 0.62654 0.0
C1656 C 0.36819 0.77496 0.62784 0.0
C1657 C 0.364 0.79214 0.6347 0.0
C1658 C 0.34801 0.79136 0.64021 0.0
C1659 C 0.29664 0.78927 0.72089 0.0
C1660 C 0.30335 0.8096 0.72521 0.0
C1661 C 0.29692 0.77924 0.70317 0.0
C1662 C 0.3038 0.78938 0.68939 0.0
C1663 C 0.31092 0.8096 0.69397 0.0
C1664 C 0.31068 0.81958 0.71163 0.0
C1665 C 0.30326 0.7793 0.67001 0.0
C1666 C 0.31871 0.78101 0.66291 0.0
C1667 C 0.28769 0.76848 0.65838 0.0
C1668 C 0.27101 0.76566 0.6652 0.0
C1669 C 0.26488 0.78178 0.67159 0.0
C1670 C 0.24973 0.77901 0.6792 0.0
C1671 C 0.24047 0.76017 0.68025 0.0
C1672 C 0.24631 0.74405 0.67361 0.0
C1673 C 0.2615 0.74675 0.66607 0.0
H1674 H 0.22878 0.75806 0.68622 0.0
H1675 H 0.38057 0.7756 0.62357 0.0
H1676 H 0.58298 0.97721 0.79163 0.0
H1677 H 0.57291 0.99947 0.81316 0.0
H1678 H 0.57404 0.03955 0.77315 0.0
H1679 H 0.58381 0.01715 0.75134 0.0
H1680 H 0.59161 0.05622 0.81156 0.0
H1681 H 0.53702 0.01873 0.77743 0.0
H1682 H 0.51529 0.98851 0.76278 0.0
H1683 H 0.5142 0.96971 0.81653 0.0
H1684 H 0.53612 0.99969 0.83146 0.0
H1685 H 0.52637 0.07746 0.87909 0.0
H1686 H 0.53385 0.07182 0.84785 0.0
H1687 H 0.5822 0.06196 0.87249 0.0
H1688 H 0.57481 0.06742 0.90356 0.0
H1689 H 0.53659 0.03652 0.83517 0.0
H1690 H 0.61074 0.06734 0.84405 0.0
H1691 H 0.63275 0.09725 0.85889 0.0
H1692 H 0.59447 0.13031 0.85524 0.0
H1693 H 0.57223 0.10061 0.84026 0.0
C1694 C 0.58087 0.99064 0.78734 0.0
C1695 C 0.58406 0.99542 0.76982 0.0
C1696 C 0.57514 0.00332 0.79961 0.0
C1697 C 0.57274 0.02107 0.79465 0.0
C1698 C 0.5758 0.02587 0.77714 0.0
C1699 C 0.58125 0.01301 0.76469 0.0
C1700 C 0.56749 0.03472 0.8082 0.0
C1701 C 0.5795 0.05213 0.81663 0.0
C1702 C 0.55157 0.02944 0.81444 0.0
C1703 C 0.53828 0.01144 0.80555 0.0
C1704 C 0.53223 0.0081 0.78611 0.0
C1705 C 0.51987 0.99102 0.77775 0.0
C1706 C 0.51338 0.97719 0.78871 0.0
C1707 C 0.51923 0.98044 0.80805 0.0
C1708 C 0.5316 0.99749 0.81648 0.0
C1709 C 0.5388 0.07462 0.87785 0.0
C1710 C 0.54988 0.07258 0.89376 0.0
C1711 C 0.54308 0.07149 0.86002 0.0
C1712 C 0.55855 0.06642 0.85783 0.0
C1713 C 0.57031 0.06616 0.87382 0.0
C1714 C 0.56605 0.06928 0.89164 0.0
C1715 C 0.56099 0.05778 0.8392 0.0
C1716 C 0.54849 0.04108 0.82983 0.0
C1717 C 0.57648 0.06375 0.83216 0.0
C1718 C 0.5898 0.08171 0.84108 0.0
C1719 C 0.60702 0.081 0.84634 0.0
C1720 C 0.61953 0.09791 0.85483 0.0
C1721 C 0.61501 0.11566 0.85803 0.0
C1722 C 0.59795 0.11653 0.85278 0.0
C1723 C 0.58538 0.09965 0.84435 0.0
H1724 H 0.62473 0.12875 0.86454 0.0
H1725 H 0.50381 0.96397 0.78222 0.0
H1726 H 0.27553 0.38153 0.08312 0.0
H1727 H 0.26757 0.36602 0.11004 0.0
H1728 H 0.32127 0.37082 0.13067 0.0
H1729 H 0.32901 0.38482 0.10336 0.0
H1730 H 0.30625 0.33966 0.13792 0.0
H1731 H 0.29424 0.40282 0.1482 0.0
H1732 H 0.28072 0.42938 0.14075 0.0
H1733 H 0.23057 0.39148 0.1377 0.0
H1734 H 0.24379 0.36461 0.1449 0.0
H1735 H 0.30117 0.33158 0.23379 0.0
H1736 H 0.30636 0.34522 0.20513 0.0
H1737 H 0.25234 0.32415 0.18185 0.0
H1738 H 0.24713 0.31052 0.21048 0.0
H1739 H 0.26596 0.36218 0.17565 0.0
H1740 H 0.28049 0.29963 0.16771 0.0
H1741 H 0.29597 0.27552 0.17788 0.0
H1742 H 0.34443 0.31635 0.17967 0.0
H1743 H 0.32922 0.34077 0.16968 0.0
C1744 C 0.28557 0.37904 0.09331 0.0
C1745 C 0.3029 0.38436 0.09094 0.0
C1746 C 0.28105 0.37036 0.10889 0.0
C1747 C 0.2938 0.36748 0.12286 0.0
C1748 C 0.31106 0.37266 0.12026 0.0
C1749 C 0.3155 0.38075 0.10452 0.0
C1750 C 0.2895 0.35919 0.14019 0.0
C1751 C 0.29758 0.34488 0.1462 0.0
C1752 C 0.27797 0.36552 0.15114 0.0
C1753 C 0.27 0.38165 0.14687 0.0
C1754 C 0.28032 0.40012 0.14582 0.0
C1755 C 0.27272 0.41523 0.14165 0.0
C1756 C 0.2548 0.4121 0.13868 0.0
C1757 C 0.24445 0.39387 0.13995 0.0
C1758 C 0.25199 0.3787 0.14408 0.0
C1759 C 0.2904 0.32995 0.2226 0.0
C1760 C 0.27375 0.31993 0.22441 0.0
C1761 C 0.29338 0.33769 0.20618 0.0
C1762 C 0.27976 0.33562 0.19119 0.0
C1763 C 0.26307 0.32596 0.19315 0.0
C1764 C 0.26012 0.3181 0.20951 0.0
C1765 C 0.28297 0.34311 0.17333 0.0
C1766 C 0.27462 0.35712 0.16725 0.0
C1767 C 0.29459 0.33692 0.16257 0.0
C1768 C 0.30372 0.32205 0.16806 0.0
C1769 C 0.29445 0.30348 0.17033 0.0
C1770 C 0.30317 0.28976 0.17606 0.0
C1771 C 0.32117 0.29441 0.17945 0.0
C1772 C 0.33048 0.31277 0.17703 0.0
C1773 C 0.32182 0.32653 0.1713 0.0
H1774 H 0.3279 0.28379 0.18392 0.0
H1775 H 0.24893 0.4238 0.13545 0.0
H1776 H 0.25233 0.95772 0.99482 0.0
H1777 H 0.22791 0.97248 0.99538 0.0
H1778 H 0.22391 0.95875 0.0509 0.0
H1779 H 0.24812 0.94351 0.05027 0.0
H1780 H 0.19258 0.95347 0.03101 0.0
H1781 H 0.24447 0.00474 0.04394 0.0
H1782 H 0.27243 0.02343 0.03828 0.0
H1783 H 0.24775 0.03523 0.98634 0.0
H1784 H 0.21967 0.01638 0.99158 0.0
H1785 H 0.14587 0.02291 0.05829 0.0
H1786 H 0.16727 0.00389 0.05571 0.0
H1787 H 0.17055 0.01707 0.99988 0.0
H1788 H 0.14968 0.03677 0.00264 0.0
H1789 H 0.20181 0.02206 0.01958 0.0
H1790 H 0.14903 0.97183 0.00851 0.0
H1791 H 0.12147 0.95392 0.01578 0.0
H1792 H 0.1482 0.94069 0.06586 0.0
H1793 H 0.17585 0.9589 0.05914 0.0
C1794 C 0.24616 0.95763 0.00709 0.0
C1795 C 0.25231 0.94957 0.02257 0.0
C1796 C 0.23222 0.96618 0.00742 0.0
C1797 C 0.22425 0.96713 0.02334 0.0
C1798 C 0.22987 0.9583 0.03849 0.0
C1799 C 0.24375 0.94961 0.03811 0.0
C1800 C 0.21058 0.978 0.02449 0.0
C1801 C 0.19466 0.96853 0.0287 0.0
C1802 C 0.21315 0.99759 0.02122 0.0
C1803 C 0.23 0.00898 0.01806 0.0
C1804 C 0.24503 0.0112 0.03125 0.0
C1805 C 0.26089 0.02184 0.02813 0.0
C1806 C 0.26187 0.03047 0.01194 0.0
C1807 C 0.24698 0.02851 0.99886 0.0
C1808 C 0.23108 0.01786 0.0019 0.0
C1809 C 0.15121 0.0219 0.04549 0.0
C1810 C 0.14602 0.03148 0.0307 0.0
C1811 C 0.16332 0.01079 0.04395 0.0
C1812 C 0.17043 0.00882 0.02751 0.0
C1813 C 0.16523 0.01828 0.01269 0.0
C1814 C 0.15315 0.02943 0.01423 0.0
C1815 C 0.18374 0.99752 0.02599 0.0
C1816 C 0.19966 0.00695 0.02177 0.0
C1817 C 0.18119 0.97798 0.02943 0.0
C1818 C 0.16452 0.96692 0.03341 0.0
C1819 C 0.14902 0.96526 0.02117 0.0
C1820 C 0.13336 0.95505 0.0252 0.0
C1821 C 0.13305 0.94625 0.04133 0.0
C1822 C 0.14841 0.94759 0.05343 0.0
C1823 C 0.16408 0.95785 0.04951 0.0
H1824 H 0.12092 0.93835 0.04442 0.0
H1825 H 0.27416 0.0387 0.00955 0.0
H1826 H 0.7308 0.66445 0.04894 0.0
H1827 H 0.70108 0.64886 0.05071 0.0
H1828 H 0.68506 0.65619 0.99361 0.0
H1829 H 0.71492 0.67218 0.99181 0.0
H1830 H 0.66208 0.66376 0.01535 0.0
H1831 H 0.69029 0.61208 0.00433 0.0
H1832 H 0.71286 0.59432 0.01023 0.0
H1833 H 0.7006 0.58791 0.06496 0.0
H1834 H 0.67809 0.60587 0.05948 0.0
H1835 H 0.58142 0.59519 0.99727 0.0
H1836 H 0.61088 0.61316 0.99736 0.0
H1837 H 0.62574 0.60319 0.05386 0.0
H1838 H 0.5961 0.58455 0.05363 0.0
H1839 H 0.64933 0.59759 0.03327 0.0
H1840 H 0.62032 0.64848 0.0438 0.0
H1841 H 0.5973 0.66553 0.03737 0.0
H1842 H 0.61064 0.67297 0.98324 0.0
H1843 H 0.63362 0.65575 0.98925 0.0
C1844 C 0.72099 0.66286 0.03673 0.0
C1845 C 0.72533 0.66946 0.02016 0.0
C1846 C 0.70396 0.65384 0.03777 0.0
C1847 C 0.6908 0.65099 0.0222 0.0
C1848 C 0.69497 0.65813 0.0058 0.0
C1849 C 0.71206 0.66724 0.00477 0.0
C1850 C 0.67284 0.6402 0.02299 0.0
C1851 C 0.65927 0.6492 0.01905 0.0
C1852 C 0.66914 0.62135 0.02826 0.0
C1853 C 0.68262 0.61049 0.03156 0.0
C1854 C 0.69249 0.60701 0.01768 0.0
C1855 C 0.70526 0.59689 0.02094 0.0
C1856 C 0.7082 0.59004 0.03798 0.0
C1857 C 0.69833 0.59325 0.05178 0.0
C1858 C 0.68556 0.60338 0.0486 0.0
C1859 C 0.59093 0.5968 0.00976 0.0
C1860 C 0.58642 0.58844 0.02546 0.0
C1861 C 0.6078 0.60723 0.00983 0.0
C1862 C 0.62056 0.60989 0.02573 0.0
C1863 C 0.61613 0.60143 0.04144 0.0
C1864 C 0.5992 0.59082 0.04132 0.0
C1865 C 0.63855 0.62114 0.02566 0.0
C1866 C 0.65213 0.6122 0.02969 0.0
C1867 C 0.64224 0.64003 0.02047 0.0
C1868 C 0.62864 0.65072 0.01695 0.0
C1869 C 0.6183 0.65368 0.03049 0.0
C1870 C 0.60526 0.66338 0.02693 0.0
C1871 C 0.60252 0.67033 0.00991 0.0
C1872 C 0.61281 0.6676 0.99643 0.0
C1873 C 0.62586 0.6579 0.99992 0.0
H1874 H 0.59245 0.67789 0.0072 0.0
H1875 H 0.71809 0.5822 0.04048 0.0
H1876 H 0.72997 0.55878 0.33435 0.0
H1877 H 0.75295 0.54195 0.33467 0.0
H1878 H 0.75792 0.54545 0.39477 0.0
H1879 H 0.7345 0.56208 0.39453 0.0
H1880 H 0.78563 0.54449 0.34967 0.0
H1881 H 0.76036 0.50028 0.40437 0.0
H1882 H 0.73479 0.49259 0.41972 0.0
H1883 H 0.70258 0.49917 0.37005 0.0
H1884 H 0.72792 0.50666 0.35439 0.0
H1885 H 0.82201 0.46077 0.34034 0.0
H1886 H 0.81441 0.48926 0.35612 0.0
H1887 H 0.76099 0.46451 0.33169 0.0
H1888 H 0.76843 0.43635 0.31585 0.0
H1889 H 0.76422 0.47958 0.36791 0.0
H1890 H 0.78672 0.49866 0.31229 0.0
H1891 H 0.80927 0.50468 0.29262 0.0
H1892 H 0.84279 0.546 0.33777 0.0
H1893 H 0.82048 0.54002 0.35778 0.0
C1894 C 0.73619 0.5564 0.34773 0.0
C1895 C 0.73012 0.5613 0.36436 0.0
C1896 C 0.74948 0.54693 0.34791 0.0
C1897 C 0.75692 0.54212 0.36469 0.0
C1898 C 0.75217 0.54882 0.38163 0.0
C1899 C 0.73881 0.55834 0.38146 0.0
C1900 C 0.76718 0.52735 0.36362 0.0
C1901 C 0.78124 0.53044 0.35407 0.0
C1902 C 0.76135 0.50894 0.36917 0.0
C1903 C 0.74603 0.50429 0.37836 0.0
C1904 C 0.7478 0.50006 0.39676 0.0
C1905 C 0.73336 0.49573 0.40549 0.0
C1906 C 0.71709 0.49548 0.39589 0.0
C1907 C 0.7152 0.49945 0.3775 0.0
C1908 C 0.72959 0.50373 0.36869 0.0
C1909 C 0.80866 0.46145 0.33836 0.0
C1910 C 0.79581 0.44628 0.32688 0.0
C1911 C 0.80434 0.47767 0.34745 0.0
C1912 C 0.78714 0.47896 0.34509 0.0
C1913 C 0.77432 0.4637 0.33389 0.0
C1914 C 0.77859 0.44757 0.32486 0.0
C1915 C 0.78223 0.49648 0.35334 0.0
C1916 C 0.76917 0.49389 0.36429 0.0
C1917 C 0.78867 0.51514 0.3486 0.0
C1918 C 0.80205 0.5187 0.3366 0.0
C1919 C 0.79896 0.50891 0.31806 0.0
C1920 C 0.81168 0.51233 0.30685 0.0
C1921 C 0.82748 0.52566 0.31397 0.0
C1922 C 0.83057 0.53564 0.3323 0.0
C1923 C 0.81789 0.53224 0.34358 0.0
H1924 H 0.83731 0.52831 0.30526 0.0
H1925 H 0.70593 0.49215 0.40269 0.0
H1926 H 0.86038 0.44152 0.55326 0.0
H1927 H 0.89027 0.45792 0.55238 0.0
H1928 H 0.87285 0.48794 0.50839 0.0
H1929 H 0.84285 0.47189 0.50942 0.0
H1930 H 0.90276 0.47144 0.50355 0.0
H1931 H 0.88202 0.51234 0.54865 0.0
H1932 H 0.86883 0.51861 0.57656 0.0
H1933 H 0.909 0.50174 0.61074 0.0
H1934 H 0.92228 0.49509 0.58295 0.0
H1935 H 0.97465 0.54719 0.50322 0.0
H1936 H 0.94588 0.52836 0.50477 0.0
H1937 H 0.96508 0.51312 0.55779 0.0
H1938 H 0.994 0.53262 0.55662 0.0
H1939 H 0.93482 0.51994 0.55889 0.0
H1940 H 0.95692 0.48066 0.51602 0.0
H1941 H 0.97071 0.47278 0.48897 0.0
H1942 H 0.92916 0.48364 0.45164 0.0
H1943 H 0.91524 0.4919 0.4785 0.0
C1944 C 0.8629 0.4514 0.5432 0.0
C1945 C 0.84925 0.45546 0.53144 0.0
C1946 C 0.87998 0.46081 0.54278 0.0
C1947 C 0.88372 0.47423 0.53042 0.0
C1948 C 0.87019 0.47763 0.51804 0.0
C1949 C 0.85308 0.46848 0.51866 0.0
C1950 C 0.90169 0.48541 0.53103 0.0
C1951 C 0.90975 0.4822 0.51553 0.0
C1952 C 0.91095 0.4989 0.54697 0.0
C1953 C 0.90303 0.503 0.56369 0.0
C1954 C 0.88795 0.50979 0.56208 0.0
C1955 C 0.88048 0.51345 0.57789 0.0
C1956 C 0.88804 0.51052 0.5954 0.0
C1957 C 0.90313 0.50397 0.59716 0.0
C1958 C 0.91064 0.50027 0.58139 0.0
C1959 C 0.97279 0.53992 0.51528 0.0
C1960 C 0.98667 0.54126 0.52973 0.0
C1961 C 0.9563 0.52904 0.51609 0.0
C1962 C 0.95335 0.51886 0.53115 0.0
C1963 C 0.96705 0.52072 0.54595 0.0
C1964 C 0.98357 0.53188 0.54528 0.0
C1965 C 0.93595 0.50625 0.53124 0.0
C1966 C 0.92796 0.50913 0.54689 0.0
C1967 C 0.92686 0.49217 0.51555 0.0
C1968 C 0.93511 0.48706 0.49931 0.0
C1969 C 0.95078 0.4815 0.50205 0.0
C1970 C 0.95861 0.47695 0.48675 0.0
C1971 C 0.95083 0.47775 0.4686 0.0
C1972 C 0.93517 0.48305 0.46571 0.0
C1973 C 0.9273 0.48765 0.48097 0.0
H1974 H 0.95691 0.47422 0.45677 0.0
H1975 H 0.88224 0.51337 0.60763 0.0
H1976 H 0.40221 0.169 0.28761 0.0
H1977 H 0.37734 0.17807 0.27147 0.0
H1978 H 0.37985 0.22103 0.31957 0.0
H1979 H 0.40398 0.21093 0.3362 0.0
H1980 H 0.34884 0.20624 0.30741 0.0
H1981 H 0.3959 0.23204 0.27708 0.0
H1982 H 0.42028 0.23176 0.26023 0.0
H1983 H 0.38654 0.19136 0.21459 0.0
H1984 H 0.36197 0.19126 0.23128 0.0
H1985 H 0.32606 0.27816 0.24869 0.0
H1986 H 0.34357 0.25503 0.252 0.0
H1987 H 0.29996 0.21253 0.26243 0.0
H1988 H 0.2826 0.23646 0.26076 0.0
H1989 H 0.34874 0.22194 0.24286 0.0
H1990 H 0.31091 0.19259 0.2983 0.0
H1991 H 0.28883 0.20131 0.31559 0.0
H1992 H 0.3106 0.26211 0.31517 0.0
H1993 H 0.33284 0.25373 0.29807 0.0
C1994 C 0.39741 0.18038 0.2947 0.0
C1995 C 0.40505 0.18942 0.31306 0.0
C1996 C 0.38324 0.18561 0.28545 0.0
C1997 C 0.37686 0.20053 0.2941 0.0
C1998 C 0.38446 0.20945 0.31256 0.0
C1999 C 0.3983 0.20378 0.32204 0.0
C2000 C 0.36246 0.20707 0.28394 0.0
C2001 C 0.34884 0.20954 0.29326 0.0
C2002 C 0.3624 0.21162 0.26551 0.0
C2003 C 0.37716 0.21144 0.25553 0.0
C2004 C 0.39372 0.22297 0.26353 0.0
C2005 C 0.40756 0.2229 0.25399 0.0
C2006 C 0.40497 0.21149 0.23638 0.0
C2007 C 0.38853 0.20015 0.22825 0.0
C2008 C 0.37464 0.20015 0.23773 0.0
C2009 C 0.32001 0.26379 0.25138 0.0
C2010 C 0.3032 0.2595 0.25547 0.0
C2011 C 0.33006 0.25042 0.25303 0.0
C2012 C 0.32331 0.23232 0.25832 0.0
C2013 C 0.30561 0.22673 0.25907 0.0
C2014 C 0.29565 0.24039 0.25799 0.0
C2015 C 0.33547 0.22152 0.2665 0.0
C2016 C 0.34863 0.21817 0.25684 0.0
C2017 C 0.33574 0.21732 0.28505 0.0
C2018 C 0.32337 0.22251 0.29676 0.0
C2019 C 0.31105 0.20781 0.30207 0.0
C2020 C 0.29845 0.21269 0.31172 0.0
C2021 C 0.29816 0.23223 0.31623 0.0
C2022 C 0.31069 0.24697 0.31148 0.0
C2023 C 0.32334 0.24217 0.30188 0.0
H2024 H 0.28836 0.23595 0.32363 0.0
H2025 H 0.4157 0.21149 0.22901 0.0
H2026 H 0.30729 0.14919 0.53026 0.0
H2027 H 0.33309 0.13672 0.53423 0.0
H2028 H 0.36269 0.18956 0.51961 0.0
H2029 H 0.33676 0.20177 0.51494 0.0
H2030 H 0.37035 0.16061 0.50143 0.0
H2031 H 0.36708 0.17764 0.56571 0.0
H2032 H 0.35362 0.17868 0.59404 0.0
H2033 H 0.34445 0.11644 0.59005 0.0
H2034 H 0.35763 0.11498 0.56152 0.0
H2035 H 0.45101 0.1363 0.5267 0.0
H2036 H 0.4275 0.1526 0.52744 0.0
H2037 H 0.3923 0.09791 0.52962 0.0
H2038 H 0.41541 0.08128 0.52804 0.0
H2039 H 0.38903 0.12967 0.55552 0.0
H2040 H 0.39151 0.1138 0.4897 0.0
H2041 H 0.40599 0.11408 0.46208 0.0
H2042 H 0.41816 0.17671 0.47054 0.0
H2043 H 0.40396 0.17679 0.4984 0.0
C2044 C 0.31934 0.15831 0.52817 0.0
C2045 C 0.31991 0.17654 0.52233 0.0
C2046 C 0.33416 0.15117 0.53051 0.0
C2047 C 0.35001 0.16222 0.5274 0.0
C2048 C 0.35068 0.18068 0.52208 0.0
C2049 C 0.33582 0.18773 0.51953 0.0
C2050 C 0.36559 0.1541 0.52866 0.0
C2051 C 0.37457 0.1542 0.51346 0.0
C2052 C 0.37109 0.14539 0.54417 0.0
C2053 C 0.36321 0.14619 0.56137 0.0
C2054 C 0.36208 0.16415 0.57079 0.0
C2055 C 0.35452 0.16482 0.5869 0.0
C2056 C 0.34815 0.14763 0.59381 0.0
C2057 C 0.34937 0.12974 0.58466 0.0
C2058 C 0.35691 0.12899 0.56853 0.0
C2059 C 0.43826 0.12762 0.52714 0.0
C2060 C 0.43526 0.10735 0.52727 0.0
C2061 C 0.42483 0.13704 0.52771 0.0
C2062 C 0.40811 0.12648 0.52857 0.0
C2063 C 0.40511 0.10639 0.5291 0.0
C2064 C 0.41845 0.09692 0.5283 0.0
C2065 C 0.39358 0.13618 0.52831 0.0
C2066 C 0.38482 0.13631 0.54364 0.0
C2067 C 0.38842 0.14535 0.51307 0.0
C2068 C 0.39684 0.1453 0.49625 0.0
C2069 C 0.3974 0.12763 0.48577 0.0
C2070 C 0.40553 0.12773 0.47005 0.0
C2071 C 0.41304 0.14541 0.46459 0.0
C2072 C 0.41237 0.16303 0.47481 0.0
C2073 C 0.40427 0.16301 0.49055 0.0
H2074 H 0.41933 0.14545 0.45242 0.0
H2075 H 0.3423 0.14818 0.60628 0.0
H2076 H 0.70848 0.64302 0.36874 0.0
H2077 H 0.72052 0.67288 0.3572 0.0
H2078 H 0.69421 0.64693 0.30114 0.0
H2079 H 0.68231 0.61683 0.31261 0.0
H2080 H 0.72358 0.66399 0.29833 0.0
H2081 H 0.68284 0.68613 0.33074 0.0
H2082 H 0.66715 0.69184 0.35667 0.0
H2083 H 0.71406 0.72677 0.39093 0.0
H2084 H 0.73007 0.72102 0.36525 0.0
H2085 H 0.75315 0.75575 0.26785 0.0
H2086 H 0.73339 0.72787 0.27633 0.0
H2087 H 0.76384 0.73866 0.33175 0.0
H2088 H 0.78358 0.76657 0.32337 0.0
H2089 H 0.72843 0.73029 0.33193 0.0
H2090 H 0.76883 0.70416 0.29906 0.0
H2091 H 0.78324 0.69884 0.2719 0.0
H2092 H 0.73423 0.67198 0.23703 0.0
H2093 H 0.71951 0.67738 0.26395 0.0
C2094 C 0.70495 0.64376 0.35401 0.0
C2095 C 0.69437 0.6275 0.34162 0.0
C2096 C 0.71176 0.66099 0.34741 0.0
C2097 C 0.70788 0.66255 0.32834 0.0
C2098 C 0.69716 0.64636 0.31598 0.0
C2099 C 0.6904 0.62907 0.32255 0.0
C2100 C 0.7161 0.68051 0.32118 0.0
C2101 C 0.72424 0.67846 0.30549 0.0
C2102 C 0.71722 0.69953 0.33052 0.0
C2103 C 0.70766 0.703 0.34606 0.0
C2104 C 0.68983 0.69489 0.34383 0.0
C2105 C 0.68087 0.69817 0.35849 0.0
C2106 C 0.68961 0.70964 0.37546 0.0
C2107 C 0.70731 0.71788 0.37778 0.0
C2108 C 0.71632 0.71464 0.36316 0.0
C2109 C 0.75557 0.7522 0.28186 0.0
C2110 C 0.76996 0.76318 0.29493 0.0
C2111 C 0.74429 0.73629 0.28667 0.0
C2112 C 0.74724 0.73112 0.30461 0.0
C2113 C 0.76135 0.74241 0.31783 0.0
C2114 C 0.77266 0.75826 0.313 0.0
C2115 C 0.73607 0.71355 0.30952 0.0
C2116 C 0.7274 0.71574 0.32471 0.0
C2117 C 0.7342 0.6947 0.29957 0.0
C2118 C 0.74307 0.69138 0.28345 0.0
C2119 C 0.76112 0.69726 0.28556 0.0
C2120 C 0.76934 0.69421 0.27023 0.0
C2121 C 0.75965 0.68514 0.25274 0.0
C2122 C 0.74172 0.67904 0.25057 0.0
C2123 C 0.73343 0.68209 0.26586 0.0
H2124 H 0.76604 0.68278 0.24088 0.0
H2125 H 0.68265 0.71216 0.38679 0.0
H2126 H 0.91148 0.61753 0.85356 0.0
H2127 H 0.89641 0.58308 0.84809 0.0
H2128 H 0.91762 0.57443 0.79755 0.0
H2129 H 0.93285 0.60899 0.80287 0.0
H2130 H 0.87219 0.56037 0.81889 0.0
H2131 H 0.92738 0.52905 0.79593 0.0
H2132 H 0.95914 0.53819 0.80028 0.0
H2133 H 0.9614 0.5734 0.85306 0.0
H2134 H 0.92968 0.56417 0.8492 0.0
H2135 H 0.84065 0.4586 0.78418 0.0
H2136 H 0.85495 0.49329 0.78718 0.0
H2137 H 0.88684 0.48967 0.83859 0.0
H2138 H 0.87254 0.45513 0.8358 0.0
H2139 H 0.90568 0.51001 0.81664 0.0
H2140 H 0.85273 0.50939 0.83969 0.0
H2141 H 0.82123 0.5007 0.83819 0.0
H2142 H 0.81492 0.52996 0.79042 0.0
H2143 H 0.8464 0.53859 0.79149 0.0
C2144 C 0.91289 0.60839 0.84118 0.0
C2145 C 0.92342 0.61607 0.82865 0.0
C2146 C 0.90419 0.58869 0.83806 0.0
C2147 C 0.90595 0.57622 0.82247 0.0
C2148 C 0.9162 0.58383 0.80974 0.0
C2149 C 0.92485 0.60359 0.81279 0.0
C2150 C 0.89747 0.55512 0.81993 0.0
C2151 C 0.87949 0.54933 0.81827 0.0
C2152 C 0.90705 0.54079 0.81948 0.0
C2153 C 0.92615 0.54609 0.82215 0.0
C2154 C 0.93466 0.53867 0.8085 0.0
C2155 C 0.95265 0.54386 0.81089 0.0
C2156 C 0.96227 0.55641 0.82691 0.0
C2157 C 0.95392 0.56372 0.84064 0.0
C2158 C 0.93594 0.55852 0.83835 0.0
C2159 C 0.85062 0.46523 0.79619 0.0
C2160 C 0.85545 0.45408 0.80975 0.0
C2161 C 0.85882 0.48503 0.79785 0.0
C2162 C 0.87191 0.49408 0.81316 0.0
C2163 C 0.87685 0.48296 0.82661 0.0
C2164 C 0.86868 0.4632 0.82496 0.0
C2165 C 0.88035 0.5152 0.81539 0.0
C2166 C 0.89835 0.521 0.81703 0.0
C2167 C 0.87081 0.52957 0.81618 0.0
C2168 C 0.8519 0.52445 0.81555 0.0
C2169 C 0.84462 0.51383 0.82877 0.0
C2170 C 0.82677 0.50894 0.82802 0.0
C2171 C 0.81608 0.51473 0.81418 0.0
C2172 C 0.82322 0.52546 0.80111 0.0
C2173 C 0.84106 0.53037 0.80179 0.0
H2174 H 0.80226 0.51093 0.81362 0.0
H2175 H 0.97619 0.56044 0.82871 0.0
H2176 H 0.04499 0.85489 0.07832 0.0
H2177 H 0.04772 0.88246 0.06099 0.0
H2178 H 0.0783 0.92056 0.11049 0.0
H2179 H 0.07649 0.89273 0.12736 0.0
H2180 H 0.03417 0.90971 0.06601 0.0
H2181 H 0.09969 0.96379 0.10168 0.0
H2182 H 0.12948 0.9626 0.11331 0.0
H2183 H 0.12211 0.90838 0.07678 0.0
H2184 H 0.09236 0.9094 0.06469 0.0
H2185 H 0.02778 0.00521 0.06237 0.0
H2186 H 0.03273 0.97483 0.07138 0.0
H2187 H 0.07396 0.97857 0.03918 0.0
H2188 H 0.06955 0.0096 0.03081 0.0
H2189 H 0.08359 0.96654 0.06947 0.0
H2190 H 0.03287 0.94562 0.02379 0.0
H2191 H 0.00368 0.94489 0.00797 0.0
H2192 H 0.98299 0.92896 0.05667 0.0
H2193 H 0.01209 0.92985 0.07288 0.0
C2194 C 0.05288 0.86903 0.08522 0.0
C2195 C 0.06063 0.87164 0.10413 0.0
C2196 C 0.0543 0.88486 0.07538 0.0
C2197 C 0.06314 0.90379 0.08435 0.0
C2198 C 0.0717 0.90618 0.10299 0.0
C2199 C 0.07067 0.89021 0.11268 0.0
C2200 C 0.06156 0.92111 0.07506 0.0
C2201 C 0.04507 0.92201 0.06667 0.0
C2202 C 0.07573 0.93717 0.07542 0.0
C2203 C 0.09371 0.93658 0.08242 0.0
C2204 C 0.10444 0.95166 0.09605 0.0
C2205 C 0.12132 0.951 0.10275 0.0
C2206 C 0.12764 0.93536 0.09588 0.0
C2207 C 0.11714 0.92041 0.0822 0.0
C2208 C 0.10027 0.92102 0.07542 0.0
C2209 C 0.03782 0.99952 0.05707 0.0
C2210 C 0.04816 0.00977 0.04573 0.0
C2211 C 0.04062 0.98205 0.06219 0.0
C2212 C 0.05351 0.97406 0.05568 0.0
C2213 C 0.06391 0.98433 0.04438 0.0
C2214 C 0.06131 0.00204 0.03952 0.0
C2215 C 0.05618 0.95519 0.06096 0.0
C2216 C 0.0728 0.95406 0.06862 0.0
C2217 C 0.04226 0.93858 0.0593 0.0
C2218 C 0.02469 0.93793 0.0496 0.0
C2219 C 0.02211 0.94207 0.03117 0.0
C2220 C 0.00558 0.94162 0.02213 0.0
C2221 C 0.99149 0.93691 0.03132 0.0
C2222 C 0.99391 0.93261 0.04956 0.0
C2223 C 0.01042 0.93306 0.05868 0.0
H2224 H 0.9787 0.93657 0.02429 0.0
H2225 H 0.14071 0.93487 0.10109 0.0
H2226 H 0.96372 0.30188 0.84617 0.0
H2227 H 0.93593 0.30585 0.83175 0.0
H2228 H 0.91427 0.28967 0.88017 0.0
H2229 H 0.94189 0.28468 0.89421 0.0
H2230 H 0.89226 0.27282 0.85208 0.0
H2231 H 0.92364 0.33885 0.86945 0.0
H2232 H 0.94774 0.36786 0.87219 0.0
H2233 H 0.9405 0.36372 0.81224 0.0
H2234 H 0.91641 0.33458 0.80911 0.0
H2235 H 0.82748 0.32933 0.80895 0.0
H2236 H 0.85549 0.33009 0.82737 0.0
H2237 H 0.85361 0.27331 0.79768 0.0
H2238 H 0.82559 0.27244 0.77951 0.0
H2239 H 0.88639 0.32937 0.82028 0.0
H2240 H 0.87043 0.24644 0.82644 0.0
H2241 H 0.845 0.22034 0.82805 0.0
H2242 H 0.81962 0.26313 0.84901 0.0
H2243 H 0.845 0.28944 0.84783 0.0
C2244 C 0.95309 0.29931 0.85384 0.0
C2245 C 0.95511 0.29302 0.87141 0.0
C2246 C 0.93716 0.30172 0.8456 0.0
C2247 C 0.92291 0.29841 0.85493 0.0
C2248 C 0.92497 0.29234 0.87261 0.0
C2249 C 0.94085 0.28957 0.8807 0.0
C2250 C 0.90574 0.30046 0.84586 0.0
C2251 C 0.89105 0.28525 0.84521 0.0
C2252 C 0.90384 0.3169 0.83727 0.0
C2253 C 0.91831 0.33443 0.83905 0.0
C2254 C 0.92726 0.34404 0.85685 0.0
C2255 C 0.94091 0.36052 0.85847 0.0
C2256 C 0.9457 0.36758 0.84241 0.0
C2257 C 0.93679 0.35822 0.82468 0.0
C2258 C 0.92311 0.34174 0.82297 0.0
C2259 C 0.83318 0.31716 0.8062 0.0
C2260 C 0.82439 0.30086 0.79274 0.0
C2261 C 0.84917 0.31757 0.81677 0.0
C2262 C 0.85663 0.30164 0.81414 0.0
C2263 C 0.84804 0.28563 0.80027 0.0
C2264 C 0.83205 0.28518 0.7898 0.0
C2265 C 0.87317 0.30147 0.82605 0.0
C2266 C 0.88768 0.31702 0.82725 0.0
C2267 C 0.87478 0.28573 0.83579 0.0
C2268 C 0.85958 0.26992 0.83686 0.0
C2269 C 0.85947 0.25027 0.83149 0.0
C2270 C 0.84505 0.23544 0.83232 0.0
C2271 C 0.83069 0.24008 0.83858 0.0
C2272 C 0.83074 0.25955 0.84411 0.0
C2273 C 0.84513 0.27443 0.84334 0.0
H2274 H 0.81954 0.22858 0.83918 0.0
H2275 H 0.95628 0.38034 0.84371 0.0
H2276 H 0.56822 0.28246 0.63645 0.0
H2277 H 0.57084 0.24995 0.62416 0.0
H2278 H 0.52003 0.2376 0.59102 0.0
H2279 H 0.51721 0.26986 0.60333 0.0
H2280 H 0.52372 0.20783 0.60884 0.0
H2281 H 0.5567 0.24798 0.57127 0.0
H2282 H 0.57963 0.27502 0.56578 0.0
H2283 H 0.61799 0.2512 0.59495 0.0
H2284 H 0.59525 0.22414 0.60082 0.0
H2285 H 0.52053 0.12552 0.54443 0.0
H2286 H 0.52192 0.15835 0.55933 0.0
H2287 H 0.57281 0.16259 0.58935 0.0
H2288 H 0.57167 0.12955 0.57411 0.0
H2289 H 0.57104 0.19612 0.57597 0.0
H2290 H 0.53798 0.15477 0.61181 0.0
H2291 H 0.51495 0.12748 0.61666 0.0
H2292 H 0.47667 0.15352 0.59064 0.0
H2293 H 0.49949 0.18086 0.58542 0.0
C2294 C 0.55763 0.27288 0.62647 0.0
C2295 C 0.54249 0.27886 0.62091 0.0
C2296 C 0.55918 0.25429 0.6194 0.0
C2297 C 0.54567 0.24132 0.60657 0.0
C2298 C 0.53062 0.2473 0.60093 0.0
C2299 C 0.52906 0.26584 0.60797 0.0
C2300 C 0.54691 0.22132 0.59926 0.0
C2301 C 0.53399 0.20531 0.6015 0.0
C2302 C 0.56059 0.21792 0.59019 0.0
C2303 C 0.57427 0.23416 0.58667 0.0
C2304 C 0.57001 0.2486 0.57665 0.0
C2305 C 0.58298 0.26391 0.57344 0.0
C2306 C 0.60025 0.26486 0.58007 0.0
C2307 C 0.6046 0.25047 0.58986 0.0
C2308 C 0.59168 0.23513 0.59312 0.0
C2309 C 0.53205 0.13331 0.55425 0.0
C2310 C 0.54594 0.12474 0.5582 0.0
C2311 C 0.53279 0.15214 0.56281 0.0
C2312 C 0.54734 0.16287 0.57575 0.0
C2313 C 0.5614 0.15456 0.57949 0.0
C2314 C 0.56071 0.13565 0.57081 0.0
C2315 C 0.54766 0.1827 0.58524 0.0
C2316 C 0.56087 0.19865 0.58346 0.0
C2317 C 0.53424 0.18609 0.59476 0.0
C2318 C 0.52046 0.16981 0.59812 0.0
C2319 C 0.52466 0.15463 0.60703 0.0
C2320 C 0.51164 0.13916 0.60986 0.0
C2321 C 0.49436 0.13875 0.60393 0.0
C2322 C 0.49006 0.15385 0.59522 0.0
C2323 C 0.50303 0.16936 0.59236 0.0
H2324 H 0.4843 0.12675 0.60611 0.0
H2325 H 0.61027 0.27673 0.57757 0.0
H2326 H 0.54466 0.76323 0.34742 0.0
H2327 H 0.57317 0.76717 0.33894 0.0
H2328 H 0.59365 0.81487 0.38462 0.0
H2329 H 0.56488 0.81118 0.39312 0.0
H2330 H 0.60575 0.82333 0.353 0.0
H2331 H 0.60201 0.77056 0.38789 0.0
H2332 H 0.58888 0.73909 0.39707 0.0
H2333 H 0.58894 0.70947 0.34223 0.0
H2334 H 0.60184 0.7408 0.33262 0.0
H2335 H 0.69025 0.82352 0.33351 0.0
H2336 H 0.66599 0.82159 0.35056 0.0
H2337 H 0.63597 0.77253 0.30983 0.0
H2338 H 0.66024 0.77392 0.29318 0.0
H2339 H 0.63125 0.76647 0.34418 0.0
H2340 H 0.63145 0.81977 0.30843 0.0
H2341 H 0.64431 0.85126 0.29905 0.0
H2342 H 0.65099 0.87979 0.35585 0.0
H2343 H 0.63835 0.8484 0.3656 0.0
C2344 C 0.55519 0.77456 0.35574 0.0
C2345 C 0.55246 0.78684 0.37102 0.0
C2346 C 0.57155 0.77673 0.35091 0.0
C2347 C 0.58565 0.7911 0.36132 0.0
C2348 C 0.58298 0.8036 0.37645 0.0
C2349 C 0.56654 0.80145 0.3813 0.0
C2350 C 0.60303 0.79312 0.35601 0.0
C2351 C 0.6115 0.811 0.35145 0.0
C2352 C 0.61048 0.77699 0.35375 0.0
C2353 C 0.6028 0.75807 0.3595 0.0
C2354 C 0.59911 0.75736 0.37774 0.0
C2355 C 0.59173 0.73953 0.38303 0.0
C2356 C 0.58805 0.72229 0.37023 0.0
C2357 C 0.59179 0.72283 0.35213 0.0
C2358 C 0.59916 0.74062 0.34676 0.0
C2359 C 0.67856 0.81215 0.32834 0.0
C2360 C 0.67714 0.799 0.31184 0.0
C2361 C 0.66464 0.81118 0.33801 0.0
C2362 C 0.64903 0.79709 0.33133 0.0
C2363 C 0.64782 0.78358 0.31523 0.0
C2364 C 0.66168 0.78452 0.3056 0.0
C2365 C 0.63371 0.79651 0.34067 0.0
C2366 C 0.62563 0.77888 0.34602 0.0
C2367 C 0.62664 0.81286 0.34365 0.0
C2368 C 0.63414 0.83172 0.33777 0.0
C2369 C 0.63578 0.83274 0.31894 0.0
C2370 C 0.643 0.85057 0.31355 0.0
C2371 C 0.64851 0.86751 0.32686 0.0
C2372 C 0.64675 0.86666 0.34557 0.0
C2373 C 0.63955 0.84886 0.35103 0.0
H2374 H 0.6541 0.8813 0.32267 0.0
H2375 H 0.58233 0.70851 0.37436 0.0
H2376 H 0.03889 0.25951 0.44439 0.0
H2377 H 0.04449 0.23164 0.45856 0.0
H2378 H 0.99683 0.22495 0.48012 0.0
H2379 H 0.9913 0.253 0.46637 0.0
H2380 H 0.02005 0.21733 0.50497 0.0
H2381 H 0.99996 0.19699 0.43901 0.0
H2382 H 0.99986 0.19771 0.40525 0.0
H2383 H 0.05039 0.1872 0.41084 0.0
H2384 H 0.05088 0.18668 0.44471 0.0
H2385 H 0.01334 0.10487 0.48583 0.0
H2386 H 0.00995 0.13522 0.47513 0.0
H2387 H 0.04931 0.16821 0.52097 0.0
H2388 H 0.05246 0.13796 0.53204 0.0
H2389 H 0.02993 0.16268 0.46252 0.0
H2390 H 0.04199 0.2125 0.53436 0.0
H2391 H 0.03822 0.20982 0.56705 0.0
H2392 H 0.99721 0.15819 0.54798 0.0
H2393 H 1.00059 0.1607 0.51518 0.0
C2394 C 0.02972 0.25235 0.45241 0.0
C2395 C 0.01456 0.25852 0.45406 0.0
C2396 C 0.03289 0.23627 0.46041 0.0
C2397 C 0.02092 0.22586 0.47012 0.0
C2398 C 0.00625 0.23263 0.47265 0.0
C2399 C 0.0031 0.24873 0.46473 0.0
C2400 C 0.02319 0.20743 0.47688 0.0
C2401 C 0.02231 0.20544 0.4957 0.0
C2402 C 0.02576 0.19163 0.46476 0.0
C2403 C 0.02553 0.19202 0.44443 0.0
C2404 C 0.01111 0.195 0.43307 0.0
C2405 C 0.01097 0.19534 0.41391 0.0
C2406 C 0.02513 0.19256 0.40592 0.0
C2407 C 0.03944 0.18939 0.41706 0.0
C2408 C 0.03966 0.18907 0.43624 0.0
C2409 C 0.02126 0.11856 0.4937 0.0
C2410 C 0.03311 0.11888 0.5099 0.0
C2411 C 0.01934 0.13596 0.48751 0.0
C2412 C 0.02922 0.15413 0.49731 0.0
C2413 C 0.04125 0.15447 0.51333 0.0
C2414 C 0.04309 0.13709 0.51962 0.0
C2415 C 0.02697 0.17263 0.49068 0.0
C2416 C 0.02784 0.17463 0.47186 0.0
C2417 C 0.02394 0.18823 0.50268 0.0
C2418 C 0.02168 0.18669 0.52234 0.0
C2419 C 0.03214 0.20062 0.53715 0.0
C2420 C 0.03007 0.19912 0.55569 0.0
C2421 C 0.01753 0.18381 0.55959 0.0
C2422 C 0.00697 0.17 0.54495 0.0
C2423 C 0.00897 0.17144 0.52638 0.0
H2424 H 0.01596 0.18267 0.57396 0.0
H2425 H 0.02499 0.19281 0.39108 0.0
H2426 H 0.59578 0.31496 0.21301 0.0
H2427 H 0.62557 0.31769 0.22689 0.0
H2428 H 0.64251 0.33711 0.17721 0.0
H2429 H 0.61251 0.33395 0.16297 0.0
H2430 H 0.65973 0.31244 0.1885 0.0
H2431 H 0.64745 0.3695 0.21809 0.0
H2432 H 0.63121 0.38906 0.23511 0.0
H2433 H 0.63804 0.35924 0.28239 0.0
H2434 H 0.65412 0.33929 0.26555 0.0
H2435 H 0.74353 0.35762 0.263 0.0
H2436 H 0.71525 0.35995 0.24769 0.0
H2437 H 0.69869 0.29716 0.23509 0.0
H2438 H 0.72689 0.29473 0.24986 0.0
H2439 H 0.68322 0.34826 0.25292 0.0
H2440 H 0.67315 0.2827 0.19315 0.0
H2441 H 0.69092 0.26623 0.17516 0.0
H2442 H 0.73133 0.31896 0.18576 0.0
H2443 H 0.7137 0.33584 0.20353 0.0
C2444 C 0.6058 0.31981 0.20498 0.0
C2445 C 0.60174 0.32433 0.18689 0.0
C2446 C 0.62289 0.32147 0.21301 0.0
C2447 C 0.63637 0.32797 0.20327 0.0
C2448 C 0.63235 0.33216 0.18505 0.0
C2449 C 0.61519 0.33036 0.17693 0.0
C2450 C 0.65457 0.33007 0.21212 0.0
C2451 C 0.66487 0.32033 0.20255 0.0
C2452 C 0.66152 0.34081 0.23028 0.0
C2453 C 0.65188 0.3528 0.2405 0.0
C2454 C 0.64538 0.36701 0.23207 0.0
C2455 C 0.63622 0.37818 0.24169 0.0
C2456 C 0.63356 0.37537 0.2598 0.0
C2457 C 0.64009 0.36139 0.26835 0.0
C2458 C 0.64925 0.35017 0.25878 0.0
C2459 C 0.73381 0.34431 0.25709 0.0
C2460 C 0.73753 0.326 0.25749 0.0
C2461 C 0.71765 0.34566 0.24833 0.0
C2462 C 0.70494 0.32874 0.23987 0.0
C2463 C 0.70841 0.31045 0.24107 0.0
C2464 C 0.72454 0.30909 0.24963 0.0
C2465 C 0.68812 0.33005 0.22956 0.0
C2466 C 0.6781 0.34047 0.23882 0.0
C2467 C 0.68162 0.32038 0.21092 0.0
C2468 C 0.69214 0.31048 0.19981 0.0
C2469 C 0.68578 0.29082 0.19153 0.0
C2470 C 0.69584 0.2814 0.18139 0.0
C2471 C 0.71226 0.29153 0.17936 0.0
C2472 C 0.71863 0.31112 0.18739 0.0
C2473 C 0.70861 0.32061 0.1975 0.0
H2474 H 0.72004 0.2842 0.17155 0.0
H2475 H 0.62647 0.38403 0.26723 0.0
H2476 H 0.49392 0.84415 0.96363 0.0
H2477 H 0.50246 0.87862 0.97724 0.0
H2478 H 0.54369 0.88801 0.94511 0.0
H2479 H 0.53512 0.85349 0.93122 0.0
H2480 H 0.53065 0.90237 0.99825 0.0
H2481 H 0.5477 0.93318 0.93138 0.0
H2482 H 0.53987 0.92414 0.89698 0.0
H2483 H 0.49066 0.88928 0.90284 0.0
H2484 H 0.49811 0.89833 0.93723 0.0
H2485 H 0.56843 0.00354 0.02495 0.0
H2486 H 0.56364 0.96955 0.01027 0.0
H2487 H 0.51673 0.97344 0.97639 0.0
H2488 H 0.52166 0.00753 0.99075 0.0
H2489 H 0.53267 0.95241 0.95615 0.0
H2490 H 0.51616 0.9528 0.01679 0.0
H2491 H 0.52008 0.96154 0.05116 0.0
H2492 H 0.56167 0.93331 0.05772 0.0
H2493 H 0.55813 0.92462 0.02335 0.0
C2494 C 0.50491 0.85345 0.95952 0.0
C2495 C 0.51375 0.84595 0.9462 0.0
C2496 C 0.5098 0.87321 0.96739 0.0
C2497 C 0.52359 0.88602 0.96206 0.0
C2498 C 0.53285 0.87849 0.94926 0.0
C2499 C 0.52798 0.85869 0.9414 0.0
C2500 C 0.52787 0.9073 0.96953 0.0
C2501 C 0.53122 0.9133 0.98903 0.0
C2502 C 0.52823 0.92163 0.95756 0.0
C2503 C 0.52357 0.91625 0.93688 0.0
C2504 C 0.5352 0.92363 0.92531 0.0
C2505 C 0.53083 0.9185 0.90582 0.0
C2506 C 0.51481 0.90608 0.89773 0.0
C2507 C 0.50309 0.89883 0.90912 0.0
C2508 C 0.5074 0.90393 0.92861 0.0
C2509 C 0.55721 0.99721 0.0142 0.0
C2510 C 0.54534 0.00816 0.00912 0.0
C2511 C 0.55443 0.97774 0.00588 0.0
C2512 C 0.53965 0.96875 0.99243 0.0
C2513 C 0.5282 0.97996 0.98675 0.0
C2514 C 0.53101 0.99946 0.99501 0.0
C2515 C 0.53571 0.9475 0.98489 0.0
C2516 C 0.53236 0.9415 0.96537 0.0
C2517 C 0.53488 0.93312 0.99684 0.0
C2518 C 0.537 0.93824 0.0175 0.0
C2519 C 0.52622 0.94858 0.02556 0.0
C2520 C 0.52836 0.9535 0.04504 0.0
C2521 C 0.54115 0.94803 0.05662 0.0
C2522 C 0.55179 0.93757 0.04873 0.0
C2523 C 0.54971 0.93263 0.02926 0.0
H2524 H 0.54279 0.95185 0.07169 0.0
H2525 H 0.51145 0.90212 0.88264 0.0
H2526 H 0.01657 0.80652 0.70296 0.0
H2527 H 0.99059 0.80382 0.71728 0.0
H2528 H 0.96435 0.8199 0.66816 0.0
H2529 H 0.99017 0.82298 0.65403 0.0
H2530 H 0.96259 0.84263 0.69906 0.0
H2531 H 0.95405 0.7734 0.67981 0.0
H2532 H 0.9618 0.74179 0.67848 0.0
H2533 H 0.966 0.74588 0.73827 0.0
H2534 H 0.95853 0.77767 0.74001 0.0
H2535 H 0.87893 0.83258 0.71704 0.0
H2536 H 0.9036 0.82685 0.70336 0.0
H2537 H 0.92423 0.80971 0.75482 0.0
H2538 H 0.89905 0.81462 0.76831 0.0
H2539 H 0.92996 0.78729 0.7252 0.0
H2540 H 0.9392 0.8557 0.74521 0.0
H2541 H 0.93187 0.88757 0.74777 0.0
H2542 H 0.9276 0.88558 0.68815 0.0
H2543 H 0.93466 0.85355 0.68519 0.0
C2544 C 0.00514 0.80907 0.69506 0.0
C2545 C 0.00551 0.81504 0.67735 0.0
C2546 C 0.99028 0.80749 0.70326 0.0
C2547 C 0.97549 0.81169 0.69382 0.0
C2548 C 0.97561 0.81667 0.67577 0.0
C2549 C 0.99041 0.81834 0.66764 0.0
C2550 C 0.96044 0.81279 0.70321 0.0
C2551 C 0.95533 0.8304 0.70452 0.0
C2552 C 0.95139 0.79715 0.71111 0.0
C2553 C 0.95595 0.77806 0.71006 0.0
C2554 C 0.95681 0.76767 0.6927 0.0
C2555 C 0.96111 0.74969 0.69187 0.0
C2556 C 0.96446 0.74186 0.70829 0.0
C2557 C 0.96345 0.75198 0.72557 0.0
C2558 C 0.95918 0.76998 0.72649 0.0
C2559 C 0.88866 0.82743 0.72538 0.0
C2560 C 0.8872 0.82427 0.7438 0.0
C2561 C 0.90277 0.82419 0.71757 0.0
C2562 C 0.91597 0.81818 0.72817 0.0
C2563 C 0.91421 0.81429 0.74635 0.0
C2564 C 0.89988 0.81718 0.75407 0.0
C2565 C 0.93189 0.81694 0.72049 0.0
C2566 C 0.93725 0.79946 0.71969 0.0
C2567 C 0.94137 0.83277 0.71322 0.0
C2568 C 0.93732 0.85215 0.71497 0.0
C2569 C 0.9366 0.862 0.73263 0.0
C2570 C 0.9325 0.8801 0.73416 0.0
C2571 C 0.92924 0.88857 0.71813 0.0
C2572 C 0.93012 0.87899 0.70055 0.0
C2573 C 0.93418 0.86087 0.69894 0.0
H2574 H 0.92606 0.90258 0.71934 0.0
H2575 H 0.96778 0.72794 0.70761 0.0
H2576 H 0.09597 0.06361 0.84755 0.0
H2577 H 0.07926 0.05944 0.87278 0.0
H2578 H 0.12599 0.06646 0.91236 0.0
H2579 H 0.14276 0.06997 0.887 0.0
H2580 H 0.10314 0.03602 0.91701 0.0
H2581 H 0.10279 0.10194 0.91174 0.0
H2582 H 0.09875 0.12982 0.89612 0.0
H2583 H 0.04494 0.10211 0.87862 0.0
H2584 H 0.0487 0.07392 0.89393 0.0
H2585 H 0.07008 0.052 1.00078 0.0
H2586 H 0.08505 0.05276 0.97382 0.0
H2587 H 0.0361 0.03945 0.9366 0.0
H2588 H 0.02125 0.03947 0.96391 0.0
H2589 H 0.05886 0.07156 0.92984 0.0
H2590 H 0.06069 0.00591 0.93836 0.0
H2591 H 0.06638 0.98068 0.95706 0.0
H2592 H 0.11978 0.01123 0.97175 0.0
H2593 H 0.11437 0.03677 0.95334 0.0
C2594 C 0.10274 0.06459 0.86167 0.0
C2595 C 0.12069 0.06713 0.86529 0.0
C2596 C 0.09316 0.06224 0.87611 0.0
C2597 C 0.10137 0.06272 0.89449 0.0
C2598 C 0.11938 0.06596 0.89826 0.0
C2599 C 0.12896 0.06812 0.88378 0.0
C2600 C 0.09108 0.05877 0.90955 0.0
C2601 C 0.0936 0.04396 0.91994 0.0
C2602 C 0.07838 0.06883 0.91314 0.0
C2603 C 0.07607 0.08571 0.90381 0.0
C2604 C 0.09013 0.1017 0.90441 0.0
C2605 C 0.08788 0.11758 0.89564 0.0
C2606 C 0.07161 0.11771 0.88633 0.0
C2607 C 0.05754 0.10197 0.88581 0.0
C2608 C 0.05972 0.08604 0.89454 0.0
C2609 C 0.06265 0.04918 0.98681 0.0
C2610 C 0.04475 0.04604 0.98427 0.0
C2611 C 0.07111 0.04933 0.97144 0.0
C2612 C 0.06168 0.04609 0.95322 0.0
C2613 C 0.04359 0.04195 0.95059 0.0
C2614 C 0.03513 0.04179 0.96609 0.0
C2615 C 0.07092 0.04884 0.93722 0.0
C2616 C 0.06826 0.06348 0.9267 0.0
C2617 C 0.08374 0.03891 0.9338 0.0
C2618 C 0.0871 0.02329 0.94451 0.0
C2619 C 0.07363 0.00728 0.94563 0.0
C2620 C 0.07681 0.99292 0.95618 0.0
C2621 C 0.09342 0.99436 0.9656 0.0
C2622 C 0.10691 0.01012 0.96443 0.0
C2623 C 0.10381 0.02452 0.95391 0.0
H2624 H 0.09585 0.98325 0.97379 0.0
H2625 H 0.0699 0.13002 0.87956 0.0
H2626 H 0.80239 0.36237 0.57455 0.0
H2627 H 0.79785 0.35063 0.60421 0.0
H2628 H 0.77834 0.40029 0.62104 0.0
H2629 H 0.78231 0.41183 0.59116 0.0
H2630 H 0.80968 0.39201 0.64628 0.0
H2631 H 0.7507 0.36429 0.61511 0.0
H2632 H 0.72829 0.34424 0.58943 0.0
H2633 H 0.74654 0.29353 0.5989 0.0
H2634 H 0.76924 0.31336 0.62448 0.0
H2635 H 0.79256 0.36982 0.73518 0.0
H2636 H 0.79205 0.38015 0.70436 0.0
H2637 H 0.78586 0.32058 0.67873 0.0
H2638 H 0.78524 0.31012 0.70943 0.0
H2639 H 0.76684 0.3344 0.65725 0.0
H2640 H 0.8258 0.35939 0.68618 0.0
H2641 H 0.8503 0.37764 0.71058 0.0
H2642 H 0.83546 0.43096 0.70402 0.0
H2643 H 0.81074 0.41298 0.67973 0.0
C2644 C 0.79667 0.3705 0.58433 0.0
C2645 C 0.79262 0.38799 0.58041 0.0
C2646 C 0.79415 0.36381 0.60131 0.0
C2647 C 0.78786 0.37465 0.61487 0.0
C2648 C 0.78321 0.39171 0.61076 0.0
C2649 C 0.78533 0.39818 0.59358 0.0
C2650 C 0.78742 0.36893 0.63383 0.0
C2651 C 0.80016 0.37961 0.64881 0.0
C2652 C 0.77544 0.35229 0.63691 0.0
C2653 C 0.76179 0.34036 0.62157 0.0
C2654 C 0.75005 0.34891 0.61159 0.0
C2655 C 0.73727 0.33758 0.59708 0.0
C2656 C 0.73602 0.31764 0.5925 0.0
C2657 C 0.74753 0.30898 0.60245 0.0
C2658 C 0.76035 0.32026 0.61696 0.0
C2659 C 0.79124 0.35896 0.72298 0.0
C2660 C 0.78908 0.33917 0.72479 0.0
C2661 C 0.79103 0.36489 0.70529 0.0
C2662 C 0.78926 0.35127 0.68901 0.0
C2663 C 0.78722 0.33148 0.69091 0.0
C2664 C 0.78697 0.32549 0.70853 0.0
C2665 C 0.78919 0.35751 0.67003 0.0
C2666 C 0.77639 0.34688 0.65493 0.0
C2667 C 0.80144 0.37394 0.66672 0.0
C2668 C 0.81632 0.38481 0.68128 0.0
C2669 C 0.8277 0.37499 0.69003 0.0
C2670 C 0.84163 0.38529 0.70383 0.0
C2671 C 0.8444 0.40544 0.70889 0.0
C2672 C 0.83328 0.41535 0.70011 0.0
C2673 C 0.81931 0.40511 0.68632 0.0
H2674 H 0.8552 0.41339 0.71957 0.0
H2675 H 0.72611 0.30888 0.58127 0.0
H2676 H 0.47134 0.18079 0.38686 0.0
H2677 H 0.48136 0.16882 0.41568 0.0
H2678 H 0.49538 0.1225 0.38251 0.0
H2679 H 0.48596 0.13459 0.35389 0.0
H2680 H 0.47355 0.11251 0.41301 0.0
H2681 H 0.52617 0.15489 0.39966 0.0
H2682 H 0.54312 0.18662 0.39441 0.0
H2683 H 0.53643 0.21355 0.44788 0.0
H2684 H 0.51922 0.18198 0.45331 0.0
H2685 H 0.52649 0.06746 0.4679 0.0
H2686 H 0.51126 0.0827 0.44492 0.0
H2687 H 0.52502 0.13669 0.48391 0.0
H2688 H 0.54156 0.12181 0.50615 0.0
H2689 H 0.52954 0.14586 0.45345 0.0
H2690 H 0.48072 0.10393 0.46998 0.0
H2691 H 0.46215 0.07335 0.4759 0.0
H2692 H 0.45913 0.04709 0.41905 0.0
H2693 H 0.47768 0.07739 0.41275 0.0
C2694 C 0.47663 0.16812 0.38578 0.0
C2695 C 0.478 0.1587 0.36819 0.0
C2696 C 0.48229 0.1613 0.40219 0.0
C2697 C 0.48901 0.14477 0.40109 0.0
C2698 C 0.49017 0.13524 0.38355 0.0
C2699 C 0.4849 0.14226 0.36726 0.0
C2700 C 0.49525 0.13742 0.41815 0.0
C2701 C 0.48578 0.1197 0.42196 0.0
C2702 C 0.51085 0.14726 0.43004 0.0
C2703 C 0.52122 0.16617 0.42677 0.0
C2704 C 0.52816 0.16762 0.4102 0.0
C2705 C 0.53785 0.18556 0.40721 0.0
C2706 C 0.54079 0.20211 0.42077 0.0
C2707 C 0.5341 0.20073 0.43737 0.0
C2708 C 0.52439 0.18282 0.44041 0.0
C2709 C 0.52618 0.08257 0.47147 0.0
C2710 C 0.53527 0.09359 0.48857 0.0
C2711 C 0.51727 0.09124 0.45847 0.0
C2712 C 0.5166 0.11082 0.46273 0.0
C2713 C 0.52533 0.12161 0.48018 0.0
C2714 C 0.53478 0.11315 0.49288 0.0
C2715 C 0.50803 0.12044 0.44843 0.0
C2716 C 0.51708 0.13867 0.445 0.0
C2717 C 0.49179 0.11121 0.43714 0.0
C2718 C 0.4807 0.09291 0.44094 0.0
C2719 C 0.4762 0.09159 0.45878 0.0
C2720 C 0.46567 0.07432 0.4622 0.0
C2721 C 0.45956 0.0583 0.44791 0.0
C2722 C 0.46389 0.05951 0.43012 0.0
C2723 C 0.47437 0.07674 0.4266 0.0
H2724 H 0.45142 0.04496 0.45061 0.0
H2725 H 0.54831 0.21598 0.41843 0.0
H2726 H 0.81298 0.76122 0.06583 0.0
H2727 H 0.81036 0.77256 0.0981 0.0
H2728 H 0.76488 0.72587 0.09377 0.0
H2729 H 0.76732 0.71447 0.06148 0.0
H2730 H 0.78484 0.78479 0.11502 0.0
H2731 H 0.76759 0.708 0.13578 0.0
H2732 H 0.77164 0.67512 0.12641 0.0
H2733 H 0.81794 0.70021 0.10645 0.0
H2734 H 0.81429 0.73323 0.11594 0.0
H2735 H 0.75766 0.78737 0.20492 0.0
H2736 H 0.75866 0.77695 0.17185 0.0
H2737 H 0.81034 0.77084 0.18732 0.0
H2738 H 0.80959 0.78162 0.22032 0.0
H2739 H 0.78804 0.73883 0.16076 0.0
H2740 H 0.80719 0.8087 0.17059 0.0
H2741 H 0.8048 0.84205 0.18098 0.0
H2742 H 0.75835 0.83225 0.14083 0.0
H2743 H 0.76029 0.79866 0.13045 0.0
C2744 C 0.80229 0.75346 0.07163 0.0
C2745 C 0.79042 0.73683 0.06099 0.0
C2746 C 0.80078 0.76003 0.0901 0.0
C2747 C 0.78752 0.74999 0.09847 0.0
C2748 C 0.77532 0.73378 0.0877 0.0
C2749 C 0.77671 0.72731 0.06917 0.0
C2750 C 0.78698 0.75583 0.11872 0.0
C2751 C 0.78544 0.7747 0.12498 0.0
C2752 C 0.78806 0.74282 0.13187 0.0
C2753 C 0.79055 0.72306 0.12639 0.0
C2754 C 0.77866 0.70649 0.12946 0.0
C2755 C 0.78089 0.68783 0.12412 0.0
C2756 C 0.79501 0.68558 0.11578 0.0
C2757 C 0.80697 0.70198 0.11284 0.0
C2758 C 0.80482 0.72066 0.11818 0.0
C2759 C 0.76919 0.78367 0.20131 0.0
C2760 C 0.78355 0.78534 0.21529 0.0
C2761 C 0.76976 0.77777 0.18239 0.0
C2762 C 0.78459 0.77314 0.17709 0.0
C2763 C 0.79875 0.77429 0.19107 0.0
C2764 C 0.79832 0.78053 0.20993 0.0
C2765 C 0.78554 0.76761 0.15696 0.0
C2766 C 0.78723 0.74884 0.15075 0.0
C2767 C 0.78481 0.78078 0.14393 0.0
C2768 C 0.78378 0.80109 0.14988 0.0
C2769 C 0.79638 0.81359 0.16408 0.0
C2770 C 0.79513 0.83255 0.16996 0.0
C2771 C 0.78141 0.83925 0.16161 0.0
C2772 C 0.76896 0.82702 0.14731 0.0
C2773 C 0.77013 0.80802 0.14142 0.0
H2774 H 0.78046 0.85393 0.16619 0.0
H2775 H 0.7967 0.67112 0.11164 0.0
H2776 H 0.14536 0.00708 0.77306 0.0
H2777 H 0.13975 0.01977 0.74347 0.0
H2778 H 0.11396 0.0593 0.77032 0.0
H2779 H 0.11948 0.04666 0.79969 0.0
H2780 H 0.09522 0.03695 0.73594 0.0
H2781 H 0.15132 0.07826 0.76225 0.0
H2782 H 0.18198 0.08467 0.77633 0.0
H2783 H 0.19202 0.05351 0.72662 0.0
H2784 H 0.16135 0.0467 0.71233 0.0
H2785 H 0.08421 0.09791 0.66888 0.0
H2786 H 0.09363 0.08658 0.69802 0.0
H2787 H 0.12321 0.05321 0.66908 0.0
H2788 H 0.11395 0.06468 0.63988 0.0
H2789 H 0.14067 0.07134 0.7039 0.0
H2790 H 0.08423 0.03039 0.67753 0.0
H2791 H 0.05329 0.02343 0.66422 0.0
H2792 H 0.04385 0.05384 0.71464 0.0
H2793 H 0.07471 0.06108 0.72822 0.0
C2794 C 0.13859 0.01856 0.77259 0.0
C2795 C 0.13309 0.02621 0.78866 0.0
C2796 C 0.13547 0.02582 0.75578 0.0
C2797 C 0.12656 0.04054 0.75484 0.0
C2798 C 0.12095 0.04803 0.77085 0.0
C2799 C 0.12427 0.04098 0.78765 0.0
C2800 C 0.12249 0.04775 0.73701 0.0
C2801 C 0.10513 0.04463 0.729 0.0
C2802 C 0.13549 0.05739 0.72789 0.0
C2803 C 0.154 0.06178 0.73629 0.0
C2804 C 0.16004 0.07265 0.75437 0.0
C2805 C 0.17742 0.07638 0.76238 0.0
C2806 C 0.18892 0.06943 0.7524 0.0
C2807 C 0.18309 0.05885 0.73434 0.0
C2808 C 0.16571 0.05507 0.72627 0.0
C2809 C 0.09277 0.08821 0.66876 0.0
C2810 C 0.09828 0.08207 0.65214 0.0
C2811 C 0.09814 0.08176 0.68539 0.0
C2812 C 0.10891 0.06884 0.68562 0.0
C2813 C 0.1149 0.06318 0.66918 0.0
C2814 C 0.10962 0.06975 0.65255 0.0
C2815 C 0.11334 0.06069 0.70288 0.0
C2816 C 0.13076 0.06358 0.71077 0.0
C2817 C 0.10037 0.05083 0.71197 0.0
C2818 C 0.0818 0.04641 0.70383 0.0
C2819 C 0.07557 0.0357 0.68573 0.0
C2820 C 0.05805 0.03169 0.67814 0.0
C2821 C 0.04665 0.03826 0.68854 0.0
C2822 C 0.0527 0.04878 0.70659 0.0
C2823 C 0.07019 0.05281 0.71426 0.0
H2824 H 0.0331 0.03515 0.68263 0.0
H2825 H 0.20236 0.07225 0.75864 0.0
H2826 H 0.78759 0.41429 0.47596 0.0
H2827 H 0.78235 0.40184 0.44241 0.0
H2828 H 0.79805 0.34995 0.45442 0.0
H2829 H 0.80423 0.36293 0.4879 0.0
H2830 H 0.81209 0.36048 0.4277 0.0
H2831 H 0.75377 0.3524 0.43781 0.0
H2832 H 0.72881 0.36226 0.44818 0.0
H2833 H 0.7318 0.4045 0.41059 0.0
H2834 H 0.75692 0.39506 0.40015 0.0
H2835 H 0.7736 0.29955 0.34007 0.0
H2836 H 0.77626 0.31514 0.37246 0.0
H2837 H 0.78725 0.37174 0.35502 0.0
H2838 H 0.78517 0.35612 0.32245 0.0
H2839 H 0.75987 0.36054 0.38309 0.0
H2840 H 0.81893 0.36648 0.37315 0.0
H2841 H 0.84202 0.35313 0.3621 0.0
H2842 H 0.83529 0.31091 0.3996 0.0
H2843 H 0.81193 0.3238 0.41062 0.0
C2844 C 0.78962 0.40006 0.47147 0.0
C2845 C 0.79625 0.38957 0.48466 0.0
C2846 C 0.78658 0.39289 0.4522 0.0
C2847 C 0.78961 0.37477 0.44563 0.0
C2848 C 0.79567 0.364 0.45892 0.0
C2849 C 0.79909 0.37137 0.47814 0.0
C2850 C 0.7873 0.3674 0.42502 0.0
C2851 C 0.80054 0.36039 0.4181 0.0
C2852 C 0.77244 0.36746 0.41211 0.0
C2853 C 0.75734 0.37317 0.41835 0.0
C2854 C 0.74918 0.36389 0.43186 0.0
C2855 C 0.73499 0.36939 0.43773 0.0
C2856 C 0.72876 0.38403 0.43009 0.0
C2857 C 0.73667 0.39318 0.41652 0.0
C2858 C 0.75087 0.38775 0.41061 0.0
C2859 C 0.77646 0.31532 0.34306 0.0
C2860 C 0.77916 0.32663 0.32868 0.0
C2861 C 0.77797 0.3242 0.36159 0.0
C2862 C 0.78192 0.34458 0.36616 0.0
C2863 C 0.78411 0.35597 0.35178 0.0
C2864 C 0.78294 0.34706 0.33321 0.0
C2865 C 0.78456 0.35372 0.38614 0.0
C2866 C 0.7714 0.3609 0.39285 0.0
C2867 C 0.79932 0.35352 0.39893 0.0
C2868 C 0.81357 0.34598 0.39258 0.0
C2869 C 0.82227 0.35424 0.37892 0.0
C2870 C 0.83542 0.34678 0.37268 0.0
C2871 C 0.84009 0.33116 0.38012 0.0
C2872 C 0.83165 0.323 0.39384 0.0
C2873 C 0.81846 0.33039 0.4001 0.0
H2874 H 0.8503 0.32544 0.37531 0.0
H2875 H 0.71777 0.38827 0.43465 0.0
H2876 H 0.44749 0.13843 0.25691 0.0
H2877 H 0.4554 0.12672 0.22724 0.0
H2878 H 0.49766 0.17788 0.23496 0.0
H2879 H 0.48955 0.18996 0.26431 0.0
H2880 H 0.48401 0.16742 0.19864 0.0
H2881 H 0.50365 0.13549 0.24947 0.0
H2882 H 0.49986 0.11641 0.27537 0.0
H2883 H 0.46541 0.06856 0.23709 0.0
H2884 H 0.46884 0.08748 0.211 0.0
H2885 H 0.54137 0.10396 0.16053 0.0
H2886 H 0.52912 0.11891 0.18553 0.0
H2887 H 0.48391 0.11767 0.14588 0.0
H2888 H 0.49575 0.10199 0.12082 0.0
H2889 H 0.49831 0.10315 0.19731 0.0
H2890 H 0.47181 0.16075 0.16099 0.0
H2891 H 0.47836 0.18123 0.13661 0.0
H2892 H 0.53158 0.18004 0.14837 0.0
H2893 H 0.52537 0.15967 0.17285 0.0
C2894 C 0.4583 0.14734 0.25213 0.0
C2895 C 0.46807 0.16497 0.26309 0.0
C2896 C 0.4628 0.14062 0.23519 0.0
C2897 C 0.47733 0.15125 0.2291 0.0
C2898 C 0.48644 0.16942 0.23942 0.0
C2899 C 0.48183 0.17625 0.25625 0.0
C2900 C 0.48404 0.14268 0.21304 0.0
C2901 C 0.487 0.1533 0.19826 0.0
C2902 C 0.48827 0.12442 0.21272 0.0
C2903 C 0.48637 0.11296 0.22834 0.0
C2904 C 0.49519 0.12094 0.24661 0.0
C2905 C 0.49312 0.11015 0.26131 0.0
C2906 C 0.48237 0.0913 0.25788 0.0
C2907 C 0.47371 0.08317 0.23973 0.0
C2908 C 0.47573 0.09391 0.22498 0.0
C2909 C 0.52872 0.10662 0.15712 0.0
C2910 C 0.51946 0.10155 0.13869 0.0
C2911 C 0.52182 0.1153 0.1714 0.0
C2912 C 0.50565 0.11936 0.1675 0.0
C2913 C 0.49649 0.11475 0.14909 0.0
C2914 C 0.50331 0.10586 0.1348 0.0
C2915 C 0.49818 0.12782 0.1829 0.0
C2916 C 0.49509 0.11715 0.19756 0.0
C2917 C 0.49419 0.14617 0.18325 0.0
C2918 C 0.49806 0.15848 0.16859 0.0
C2919 C 0.48491 0.16487 0.15837 0.0
C2920 C 0.48856 0.17644 0.14452 0.0
C2921 C 0.50536 0.18184 0.14086 0.0
C2922 C 0.51855 0.17574 0.15111 0.0
C2923 C 0.51496 0.16412 0.16493 0.0
H2924 H 0.50816 0.19079 0.13014 0.0
H2925 H 0.48077 0.08297 0.26929 0.0
H2926 H 0.80907 0.76187 0.97045 0.0
H2927 H 0.806 0.77486 0.94113 0.0
H2928 H 0.75369 0.74007 0.92603 0.0
H2929 H 0.75672 0.72653 0.9555 0.0
H2930 H 0.79925 0.75241 0.90547 0.0
H2931 H 0.73243 0.76856 0.89714 0.0
H2932 H 0.71197 0.77742 0.91672 0.0
H2933 H 0.75391 0.8051 0.96159 0.0
H2934 H 0.77461 0.79664 0.9422 0.0
H2935 H 0.77726 0.77209 0.81266 0.0
H2936 H 0.77382 0.75881 0.84184 0.0
H2937 H 0.78601 0.81719 0.87252 0.0
H2938 H 0.78954 0.83055 0.8434 0.0
H2939 H 0.75903 0.79191 0.88463 0.0
H2940 H 0.81672 0.79328 0.87239 0.0
H2941 H 0.8375 0.78532 0.85283 0.0
H2942 H 0.81503 0.72415 0.85015 0.0
H2943 H 0.79397 0.73177 0.86951 0.0
C2944 C 0.79676 0.75706 0.96112 0.0
C2945 C 0.78317 0.74296 0.96546 0.0
C2946 C 0.79508 0.7645 0.94423 0.0
C2947 C 0.7797 0.75834 0.93123 0.0
C2948 C 0.76572 0.74505 0.93583 0.0
C2949 C 0.76745 0.73739 0.95276 0.0
C2950 C 0.77884 0.76524 0.9126 0.0
C2951 C 0.79034 0.76092 0.90089 0.0
C2952 C 0.76731 0.77641 0.90653 0.0
C2953 C 0.75503 0.78173 0.91829 0.0
C2954 C 0.73727 0.77656 0.91118 0.0
C2955 C 0.72564 0.78152 0.92224 0.0
C2956 C 0.73163 0.79175 0.94042 0.0
C2957 C 0.74928 0.79709 0.94755 0.0
C2958 C 0.76096 0.79219 0.93653 0.0
C2959 C 0.77907 0.7821 0.8256 0.0
C2960 C 0.78384 0.80239 0.82574 0.0
C2961 C 0.7771 0.77449 0.84229 0.0
C2962 C 0.77977 0.78698 0.85947 0.0
C2963 C 0.78386 0.80724 0.85948 0.0
C2964 C 0.78597 0.81486 0.84283 0.0
C2965 C 0.77941 0.77903 0.87754 0.0
C2966 C 0.76774 0.78316 0.88912 0.0
C2967 C 0.79081 0.76767 0.88355 0.0
C2968 C 0.80368 0.76309 0.87224 0.0
C2969 C 0.81616 0.77814 0.86754 0.0
C2970 C 0.82799 0.77369 0.8565 0.0
C2971 C 0.82755 0.75425 0.85021 0.0
C2972 C 0.81533 0.73921 0.85501 0.0
C2973 C 0.80346 0.74358 0.86603 0.0
H2974 H 0.83671 0.75083 0.84164 0.0
H2975 H 0.72261 0.79557 0.94896 0.0
H2976 H 0.84624 0.20192 0.02018 0.0
H2977 H 0.87103 0.18778 0.02457 0.0
H2978 H 0.84135 0.14088 0.0477 0.0
H2979 H 0.81649 0.15517 0.04364 0.0
H2980 H 0.87433 0.15248 0.06639 0.0
H2981 H 0.84626 0.13474 0.00194 0.0
H2982 H 0.83414 0.14087 0.97091 0.0
H2983 H 0.88369 0.17534 0.9656 0.0
H2984 H 0.89605 0.16962 0.99674 0.0
H2985 H 0.92205 0.08186 0.05143 0.0
H2986 H 0.90005 0.10019 0.05152 0.0
H2987 H 0.93078 0.14425 0.02605 0.0
H2988 H 0.95259 0.12545 0.0252 0.0
H2989 H 0.89827 0.13564 0.00929 0.0
H2990 H 0.92679 0.1517 0.07322 0.0
H2991 H 0.9388 0.14486 0.10399 0.0
H2992 H 0.88854 0.11321 0.11027 0.0
H2993 H 0.87626 0.11962 0.0794 0.0
C2994 C 0.84502 0.18878 0.0265 0.0
C2995 C 0.82931 0.17965 0.03148 0.0
C2996 C 0.85921 0.18063 0.02889 0.0
C2997 C 0.858 0.16305 0.03615 0.0
C2998 C 0.8426 0.1544 0.042 0.0
C2999 C 0.82838 0.16259 0.03965 0.0
C3000 C 0.87244 0.15321 0.03674 0.0
C3001 C 0.87946 0.14863 0.05388 0.0
C3002 C 0.87943 0.14853 0.0205 0.0
C3003 C 0.87204 0.15193 0.00175 0.0
C3004 C 0.85454 0.14375 0.99422 0.0
C3005 C 0.84763 0.14713 0.9766 0.0
C3006 C 0.85813 0.15853 0.96631 0.0
C3007 C 0.87557 0.16654 0.9736 0.0
C3008 C 0.88254 0.16322 0.99123 0.0
C3009 C 0.92412 0.09534 0.0457 0.0
C3010 C 0.93911 0.10205 0.03821 0.0
C3011 C 0.91158 0.10599 0.04599 0.0
C3012 C 0.9138 0.12379 0.03903 0.0
C3013 C 0.92878 0.13061 0.0316 0.0
C3014 C 0.94132 0.11991 0.03125 0.0
C3015 C 0.9002 0.13487 0.03894 0.0
C3016 C 0.89328 0.13963 0.02186 0.0
C3017 C 0.89332 0.13968 0.05523 0.0
C3018 C 0.90063 0.13601 0.07392 0.0
C3019 C 0.91831 0.14317 0.0811 0.0
C3020 C 0.92517 0.13938 0.09857 0.0
C3021 C 0.91445 0.12857 0.10906 0.0
C3022 C 0.89683 0.12157 0.10213 0.0
C3023 C 0.88991 0.1253 0.08465 0.0
H3024 H 0.91978 0.12563 0.12257 0.0
H3025 H 0.85275 0.16113 0.95267 0.0
H3026 H 0.34882 0.47731 0.0252 0.0
H3027 H 0.3786 0.49505 0.02507 0.0
H3028 H 0.39722 0.45946 0.063 0.0
H3029 H 0.36763 0.44163 0.06309 0.0
H3030 H 0.41151 0.49933 0.07464 0.0
H3031 H 0.40162 0.45229 0.01842 0.0
H3032 H 0.38582 0.43539 0.98734 0.0
H3033 H 0.39483 0.48968 0.96577 0.0
H3034 H 0.41045 0.50698 0.99688 0.0
H3035 H 0.50085 0.52713 0.07567 0.0
H3036 H 0.47087 0.50878 0.07224 0.0
H3037 H 0.45684 0.53885 0.02672 0.0
H3038 H 0.48707 0.55665 0.02964 0.0
H3039 H 0.43943 0.503 0.0183 0.0
H3040 H 0.44876 0.55057 0.07295 0.0
H3041 H 0.46325 0.56915 0.10395 0.0
H3042 H 0.454 0.5165 0.12825 0.0
H3043 H 0.43964 0.49755 0.09733 0.0
C3044 C 0.35927 0.4731 0.03333 0.0
C3045 C 0.3558 0.45799 0.04411 0.0
C3046 C 0.37629 0.48326 0.03324 0.0
C3047 C 0.39019 0.47861 0.04404 0.0
C3048 C 0.38674 0.46335 0.05459 0.0
C3049 C 0.36978 0.45308 0.05453 0.0
C3050 C 0.40829 0.48997 0.04492 0.0
C3051 C 0.41769 0.49994 0.06236 0.0
C3052 C 0.41619 0.49138 0.02881 0.0
C3053 C 0.40704 0.48096 0.01003 0.0
C3054 C 0.40012 0.46065 0.00709 0.0
C3055 C 0.3912 0.45099 0.98945 0.0
C3056 C 0.38927 0.46146 0.97458 0.0
C3057 C 0.39631 0.4816 0.97731 0.0
C3058 C 0.4052 0.49134 0.99495 0.0
C3059 C 0.49138 0.52983 0.06493 0.0
C3060 C 0.4963 0.54349 0.05306 0.0
C3061 C 0.47417 0.51939 0.06302 0.0
C3062 C 0.46136 0.52268 0.04949 0.0
C3063 C 0.46637 0.53605 0.03734 0.0
C3064 C 0.48366 0.5463 0.03906 0.0
C3065 C 0.44283 0.51223 0.04814 0.0
C3066 C 0.4333 0.50247 0.03061 0.0
C3067 C 0.43468 0.51127 0.06415 0.0
C3068 C 0.44326 0.52262 0.08279 0.0
C3069 C 0.44992 0.54293 0.08488 0.0
C3070 C 0.45809 0.55353 0.10244 0.0
C3071 C 0.45958 0.54401 0.11805 0.0
C3072 C 0.45285 0.52386 0.11614 0.0
C3073 C 0.44468 0.51318 0.09861 0.0
H3074 H 0.46591 0.55224 0.13163 0.0
H3075 H 0.38236 0.45397 0.96093 0.0
H3076 H 0.34176 0.57163 0.73369 0.0
H3077 H 0.32118 0.59032 0.7242 0.0
H3078 H 0.34932 0.60861 0.68063 0.0
H3079 H 0.37011 0.58989 0.69012 0.0
H3080 H 0.34605 0.63911 0.70448 0.0
H3081 H 0.30801 0.582 0.66858 0.0
H3082 H 0.29176 0.54751 0.66157 0.0
H3083 H 0.2636 0.55676 0.70619 0.0
H3084 H 0.27984 0.59124 0.71368 0.0
H3085 H 0.29317 0.70504 0.70121 0.0
H3086 H 0.30439 0.67815 0.68829 0.0
H3087 H 0.28401 0.64382 0.72872 0.0
H3088 H 0.272 0.67016 0.74102 0.0
H3089 H 0.28226 0.62072 0.69662 0.0
H3090 H 0.32538 0.67343 0.73759 0.0
H3091 H 0.34201 0.70764 0.74692 0.0
H3092 H 0.36121 0.70586 0.69485 0.0
H3093 H 0.34442 0.67168 0.68508 0.0
C3094 C 0.34336 0.57922 0.72178 0.0
C3095 C 0.35769 0.57948 0.71281 0.0
C3096 C 0.33148 0.58979 0.71626 0.0
C3097 C 0.33369 0.60083 0.70167 0.0
C3098 C 0.34736 0.60012 0.69189 0.0
C3099 C 0.3592 0.58939 0.69731 0.0
C3100 C 0.32332 0.61526 0.69883 0.0
C3101 C 0.33207 0.63506 0.70214 0.0
C3102 C 0.30511 0.60998 0.69621 0.0
C3103 C 0.29521 0.58924 0.69173 0.0
C3104 C 0.29843 0.57666 0.67699 0.0
C3105 C 0.28921 0.55711 0.67291 0.0
C3106 C 0.27667 0.54994 0.68343 0.0
C3107 C 0.27331 0.56233 0.69803 0.0
C3108 C 0.2825 0.5819 0.70218 0.0
C3109 C 0.29065 0.69156 0.707 0.0
C3110 C 0.28198 0.68988 0.72241 0.0
C3111 C 0.29717 0.67625 0.69967 0.0
C3112 C 0.29534 0.65913 0.70778 0.0
C3113 C 0.28566 0.65692 0.72228 0.0
C3114 C 0.27901 0.67212 0.72949 0.0
C3115 C 0.30506 0.64445 0.7029 0.0
C3116 C 0.2962 0.62468 0.69825 0.0
C3117 C 0.32322 0.64969 0.70456 0.0
C3118 C 0.33349 0.67012 0.71051 0.0
C3119 C 0.33307 0.68038 0.72809 0.0
C3120 C 0.34253 0.69976 0.73346 0.0
C3121 C 0.35264 0.70895 0.72146 0.0
C3122 C 0.35334 0.69874 0.7041 0.0
C3123 C 0.34385 0.67937 0.69864 0.0
H3124 H 0.35994 0.72396 0.72563 0.0
H3125 H 0.26955 0.5348 0.68026 0.0
H3126 H 0.23229 0.68211 0.53373 0.0
H3127 H 0.20224 0.66729 0.53537 0.0
H3128 H 0.19291 0.64392 0.47648 0.0
H3129 H 0.22288 0.65881 0.47466 0.0
H3130 H 0.16634 0.65846 0.48619 0.0
H3131 H 0.1993 0.61505 0.50885 0.0
H3132 H 0.22259 0.6062 0.52893 0.0
H3133 H 0.2029 0.62446 0.57799 0.0
H3134 H 0.17961 0.63367 0.55821 0.0
H3135 H 0.08709 0.58908 0.48543 0.0
H3136 H 0.11647 0.605 0.48214 0.0
H3137 H 0.12903 0.62506 0.54179 0.0
H3138 H 0.09997 0.60882 0.54526 0.0
H3139 H 0.15406 0.61189 0.53094 0.0
H3140 H 0.12136 0.65571 0.50883 0.0
H3141 H 0.09812 0.66503 0.48912 0.0
H3142 H 0.11719 0.64673 0.43962 0.0
H3143 H 0.14043 0.63706 0.45904 0.0
C3144 C 0.22383 0.67395 0.52108 0.0
C3145 C 0.23005 0.67156 0.50409 0.0
C3146 C 0.20666 0.66541 0.52206 0.0
C3147 C 0.19536 0.65426 0.5061 0.0
C3148 C 0.20138 0.6524 0.48899 0.0
C3149 C 0.21856 0.66089 0.488 0.0
C3150 C 0.17742 0.6441 0.50735 0.0
C3151 C 0.16364 0.6481 0.49582 0.0
C3152 C 0.17387 0.63085 0.52014 0.0
C3153 C 0.18781 0.62522 0.53206 0.0
C3154 C 0.20001 0.61731 0.52393 0.0
C3155 C 0.2132 0.61221 0.53525 0.0
C3156 C 0.21425 0.61481 0.55472 0.0
C3157 C 0.20208 0.62247 0.56291 0.0
C3158 C 0.18888 0.62762 0.55164 0.0
C3159 C 0.0961 0.5969 0.49784 0.0
C3160 C 0.09112 0.59764 0.51561 0.0
C3161 C 0.11289 0.60609 0.49593 0.0
C3162 C 0.12497 0.61647 0.51169 0.0
C3163 C 0.12001 0.61715 0.52941 0.0
C3164 C 0.10332 0.60784 0.53136 0.0
C3165 C 0.14288 0.62637 0.50991 0.0
C3166 C 0.1567 0.62227 0.52132 0.0
C3167 C 0.14643 0.6396 0.49707 0.0
C3168 C 0.13253 0.64548 0.48538 0.0
C3169 C 0.12053 0.65354 0.49374 0.0
C3170 C 0.10737 0.65891 0.48262 0.0
C3171 C 0.10615 0.65643 0.46313 0.0
C3172 C 0.11813 0.64862 0.45472 0.0
C3173 C 0.13131 0.64321 0.46577 0.0
H3174 H 0.09596 0.66059 0.45455 0.0
H3175 H 0.22447 0.61085 0.56347 0.0
H3176 H 0.64252 0.92553 0.78868 0.0
H3177 H 0.66521 0.90816 0.79313 0.0
H3178 H 0.69188 0.9403 0.75478 0.0
H3179 H 0.66838 0.95651 0.74921 0.0
H3180 H 0.69502 0.906 0.74884 0.0
H3181 H 0.70372 0.95092 0.80646 0.0
H3182 H 0.69506 0.96629 0.83452 0.0
H3183 H 0.68216 0.91075 0.85337 0.0
H3184 H 0.69061 0.89504 0.82535 0.0
H3185 H 0.77253 0.87894 0.77419 0.0
H3186 H 0.75299 0.90062 0.77383 0.0
H3187 H 0.71886 0.86147 0.80085 0.0
H3188 H 0.73828 0.83978 0.80134 0.0
H3189 H 0.72116 0.9009 0.81325 0.0
H3190 H 0.71155 0.85623 0.75518 0.0
H3191 H 0.72087 0.84089 0.72759 0.0
H3192 H 0.736 0.89673 0.70989 0.0
H3193 H 0.72702 0.91246 0.73757 0.0
C3194 C 0.65321 0.92875 0.78115 0.0
C3195 C 0.65383 0.94236 0.76868 0.0
C3196 C 0.66627 0.91899 0.78384 0.0
C3197 C 0.68062 0.92335 0.77478 0.0
C3198 C 0.68104 0.93675 0.76204 0.0
C3199 C 0.66765 0.94601 0.75886 0.0
C3200 C 0.69503 0.91377 0.77838 0.0
C3201 C 0.70092 0.90527 0.76296 0.0
C3202 C 0.70258 0.91234 0.79678 0.0
C3203 C 0.69773 0.92181 0.81377 0.0
C3204 C 0.69899 0.94199 0.81657 0.0
C3205 C 0.69412 0.95076 0.83247 0.0
C3206 C 0.68805 0.9395 0.84571 0.0
C3207 C 0.68688 0.91946 0.84311 0.0
C3208 C 0.69174 0.91062 0.82725 0.0
C3209 C 0.7611 0.8752 0.7805 0.0
C3210 C 0.75684 0.85755 0.78759 0.0
C3211 C 0.74993 0.88756 0.78021 0.0
C3212 C 0.73439 0.88244 0.78704 0.0
C3213 C 0.73077 0.86562 0.79545 0.0
C3214 C 0.74187 0.85322 0.79566 0.0
C3215 C 0.72109 0.89345 0.78376 0.0
C3216 C 0.71537 0.90201 0.79919 0.0
C3217 C 0.71375 0.89504 0.76541 0.0
C3218 C 0.71878 0.88554 0.74854 0.0
C3219 C 0.71696 0.86525 0.74546 0.0
C3220 C 0.72218 0.85649 0.72981 0.0
C3221 C 0.72907 0.86783 0.71702 0.0
C3222 C 0.73069 0.88797 0.71982 0.0
C3223 C 0.72553 0.89681 0.73549 0.0
H3224 H 0.73312 0.86102 0.70492 0.0
H3225 H 0.68426 0.94632 0.85799 0.0
H3226 H 0.77399 0.98796 0.52729 0.0
H3227 H 0.74746 0.99866 0.52726 0.0
H3228 H 0.72348 0.94548 0.54591 0.0
H3229 H 0.75014 0.93446 0.54576 0.0
H3230 H 0.70085 0.95613 0.51965 0.0
H3231 H 0.73829 0.98683 0.57708 0.0
H3232 H 0.76543 0.00563 0.59727 0.0
H3233 H 0.76331 0.05533 0.5698 0.0
H3234 H 0.73628 0.03673 0.54925 0.0
H3235 H 0.63229 0.99769 0.54494 0.0
H3236 H 0.65639 0.98206 0.54604 0.0
H3237 H 0.68757 0.03223 0.52873 0.0
H3238 H 0.66387 0.04816 0.52825 0.0
H3239 H 0.70556 0.02078 0.55674 0.0
H3240 H 0.66852 0.98906 0.49822 0.0
H3241 H 0.64074 0.97045 0.47914 0.0
H3242 H 0.64158 0.92258 0.50962 0.0
H3243 H 0.66924 0.94104 0.52911 0.0
C3244 C 0.76309 0.97841 0.5313 0.0
C3245 C 0.76432 0.96039 0.5367 0.0
C3246 C 0.74788 0.98461 0.53132 0.0
C3247 C 0.7335 0.97307 0.53691 0.0
C3248 C 0.73441 0.95471 0.54163 0.0
C3249 C 0.74968 0.94844 0.54157 0.0
C3250 C 0.7179 0.98068 0.53839 0.0
C3251 C 0.70183 0.97012 0.52799 0.0
C3252 C 0.7191 0.99904 0.54913 0.0
C3253 C 0.73533 0.01032 0.56152 0.0
C3254 C 0.74368 0.00172 0.57525 0.0
C3255 C 0.75903 0.01235 0.58678 0.0
C3256 C 0.76611 0.03165 0.5848 0.0
C3257 C 0.75782 0.04037 0.57131 0.0
C3258 C 0.74247 0.0298 0.55973 0.0
C3259 C 0.64431 0.00545 0.54148 0.0
C3260 C 0.64603 0.02418 0.53638 0.0
C3261 C 0.65805 0.99641 0.54195 0.0
C3262 C 0.6738 0.00585 0.53727 0.0
C3263 C 0.67557 0.02458 0.53235 0.0
C3264 C 0.66189 0.03361 0.53189 0.0
C3265 C 0.6886 0.9965 0.53763 0.0
C3266 C 0.70453 0.00673 0.54846 0.0
C3267 C 0.68721 0.97785 0.52735 0.0
C3268 C 0.67086 0.96651 0.51525 0.0
C3269 C 0.66274 0.9746 0.50092 0.0
C3270 C 0.64702 0.96408 0.49003 0.0
C3271 C 0.63937 0.94537 0.4932 0.0
C3272 C 0.6475 0.93709 0.5072 0.0
C3273 C 0.6632 0.94757 0.51817 0.0
H3274 H 0.62718 0.93728 0.48479 0.0
H3275 H 0.778 0.03986 0.59373 0.0
H3276 H 0.39117 0.49941 0.76113 0.0
H3277 H 0.37798 0.46495 0.76049 0.0
H3278 H 0.357 0.45967 0.70181 0.0
H3279 H 0.37053 0.49448 0.70243 0.0
H3280 H 0.33243 0.44795 0.7232 0.0
H3281 H 0.386 0.43469 0.71503 0.0
H3282 H 0.41736 0.43811 0.72087 0.0
H3283 H 0.4148 0.42376 0.77613 0.0
H3284 H 0.38347 0.42067 0.77082 0.0
H3285 H 0.28746 0.35199 0.72695 0.0
H3286 H 0.30758 0.3788 0.71765 0.0
H3287 H 0.33708 0.39227 0.7737 0.0
H3288 H 0.3172 0.36489 0.78291 0.0
H3289 H 0.35809 0.39736 0.74851 0.0
H3290 H 0.3066 0.41715 0.75921 0.0
H3291 H 0.27533 0.41452 0.75472 0.0
H3292 H 0.27453 0.41775 0.69616 0.0
H3293 H 0.30578 0.42016 0.70026 0.0
C3294 C 0.38406 0.49078 0.74798 0.0
C3295 C 0.38173 0.49957 0.73187 0.0
C3296 C 0.37664 0.47105 0.7476 0.0
C3297 C 0.36655 0.45967 0.73109 0.0
C3298 C 0.36482 0.46818 0.71468 0.0
C3299 C 0.37256 0.48799 0.715 0.0
C3300 C 0.35604 0.43987 0.73195 0.0
C3301 C 0.33806 0.43668 0.72824 0.0
C3302 C 0.3634 0.42543 0.73915 0.0
C3303 C 0.38234 0.42758 0.74255 0.0
C3304 C 0.39213 0.43248 0.72852 0.0
C3305 C 0.40991 0.43433 0.73173 0.0
C3306 C 0.41807 0.43119 0.74887 0.0
C3307 C 0.40846 0.42617 0.76284 0.0
C3308 C 0.39068 0.42438 0.75975 0.0
C3309 C 0.2983 0.36059 0.73727 0.0
C3310 C 0.30062 0.35661 0.75575 0.0
C3311 C 0.30979 0.37593 0.73194 0.0
C3312 C 0.32364 0.38786 0.74507 0.0
C3313 C 0.32644 0.38334 0.76334 0.0
C3314 C 0.31504 0.36778 0.76863 0.0
C3315 C 0.33455 0.40568 0.74007 0.0
C3316 C 0.35252 0.40851 0.74311 0.0
C3317 C 0.32725 0.41998 0.73247 0.0
C3318 C 0.30848 0.4186 0.73 0.0
C3319 C 0.29973 0.41715 0.74535 0.0
C3320 C 0.28201 0.41573 0.74288 0.0
C3321 C 0.27294 0.4159 0.72516 0.0
C3322 C 0.28157 0.41757 0.70987 0.0
C3323 C 0.29928 0.41898 0.71226 0.0
H3324 H 0.25922 0.4148 0.72327 0.0
H3325 H 0.43183 0.43259 0.75131 0.0
H3326 H 0.15677 0.52735 0.29083 0.0
H3327 H 0.17268 0.56103 0.29149 0.0
H3328 H 0.15118 0.55787 0.23328 0.0
H3329 H 0.13534 0.52414 0.23248 0.0
H3330 H 0.1848 0.57421 0.2396 0.0
H3331 H 0.13658 0.58337 0.26857 0.0
H3332 H 0.11686 0.57807 0.29145 0.0
H3333 H 0.15938 0.60103 0.3368 0.0
H3334 H 0.17936 0.60646 0.31417 0.0
H3335 H 0.20251 0.67432 0.23154 0.0
H3336 H 0.18808 0.64076 0.23334 0.0
H3337 H 0.21528 0.64677 0.28979 0.0
H3338 H 0.23018 0.68033 0.28799 0.0
H3339 H 0.18011 0.62903 0.28579 0.0
H3340 H 0.228 0.62184 0.25609 0.0
H3341 H 0.24731 0.62699 0.23281 0.0
H3342 H 0.20491 0.59982 0.1883 0.0
H3343 H 0.18529 0.59476 0.21131 0.0
C3344 C 0.15528 0.53389 0.27823 0.0
C3345 C 0.14467 0.52312 0.26166 0.0
C3346 C 0.16439 0.55315 0.27862 0.0
C3347 C 0.16297 0.56206 0.26249 0.0
C3348 C 0.15246 0.55129 0.2459 0.0
C3349 C 0.1434 0.53202 0.24548 0.0
C3350 C 0.17267 0.58247 0.26275 0.0
C3351 C 0.1836 0.58622 0.24955 0.0
C3352 C 0.17148 0.59807 0.27606 0.0
C3353 C 0.15947 0.59517 0.28969 0.0
C3354 C 0.14172 0.58724 0.28343 0.0
C3355 C 0.1305 0.58426 0.29634 0.0
C3356 C 0.13687 0.58914 0.31557 0.0
C3357 C 0.15446 0.59721 0.32191 0.0
C3358 C 0.16574 0.60032 0.30904 0.0
C3359 C 0.20566 0.66847 0.24427 0.0
C3360 C 0.21765 0.68002 0.25956 0.0
C3361 C 0.1973 0.6493 0.2453 0.0
C3362 C 0.20072 0.64124 0.26164 0.0
C3363 C 0.21245 0.65275 0.27706 0.0
C3364 C 0.22092 0.67194 0.27601 0.0
C3365 C 0.19202 0.62076 0.26247 0.0
C3366 C 0.18133 0.61699 0.27589 0.0
C3367 C 0.19337 0.60513 0.2493 0.0
C3368 C 0.20515 0.60809 0.23542 0.0
C3369 C 0.22277 0.61711 0.24133 0.0
C3370 C 0.23377 0.61999 0.22818 0.0
C3371 C 0.22733 0.61378 0.20908 0.0
C3372 C 0.20988 0.60464 0.2031 0.0
C3373 C 0.19881 0.60175 0.21619 0.0
H3374 H 0.23588 0.61602 0.19893 0.0
H3375 H 0.12817 0.5867 0.32555 0.0
H3376 H 0.48506 0.74347 0.45453 0.0
H3377 H 0.49385 0.71865 0.47103 0.0
H3378 H 0.54213 0.73013 0.45058 0.0
H3379 H 0.53318 0.75473 0.43346 0.0
H3380 H 0.52945 0.69263 0.44628 0.0
H3381 H 0.53907 0.74377 0.49786 0.0
H3382 H 0.53232 0.7699 0.51865 0.0
H3383 H 0.49059 0.72832 0.53295 0.0
H3384 H 0.49693 0.70196 0.51205 0.0
H3385 H 0.56274 0.63049 0.50351 0.0
H3386 H 0.55881 0.65996 0.49118 0.0
H3387 H 0.50684 0.64835 0.50247 0.0
H3388 H 0.51067 0.61893 0.5149 0.0
H3389 H 0.52402 0.6874 0.51256 0.0
H3390 H 0.51392 0.63684 0.45895 0.0
H3391 H 0.5215 0.61103 0.43856 0.0
H3392 H 0.56564 0.65256 0.42875 0.0
H3393 H 0.55845 0.67858 0.44932 0.0
C3394 C 0.49767 0.74097 0.45368 0.0
C3395 C 0.5084 0.7512 0.44262 0.0
C3396 C 0.50273 0.72675 0.46325 0.0
C3397 C 0.51878 0.72258 0.4623 0.0
C3398 C 0.52969 0.73305 0.45158 0.0
C3399 C 0.52458 0.7472 0.44185 0.0
C3400 C 0.52365 0.70659 0.47166 0.0
C3401 C 0.52859 0.69174 0.46088 0.0
C3402 C 0.52225 0.7051 0.49064 0.0
C3403 C 0.5184 0.72091 0.50326 0.0
C3404 C 0.52837 0.74022 0.50533 0.0
C3405 C 0.52463 0.75507 0.51715 0.0
C3406 C 0.51101 0.75078 0.52708 0.0
C3407 C 0.50113 0.73162 0.52524 0.0
C3408 C 0.5048 0.71671 0.51342 0.0
C3409 C 0.55051 0.63427 0.50353 0.0
C3410 C 0.53697 0.62221 0.51009 0.0
C3411 C 0.54826 0.6511 0.49639 0.0
C3412 C 0.53246 0.65628 0.49571 0.0
C3413 C 0.51913 0.64464 0.50281 0.0
C3414 C 0.52132 0.62774 0.50983 0.0
C3415 C 0.52963 0.67349 0.48711 0.0
C3416 C 0.52505 0.68849 0.49802 0.0
C3417 C 0.5315 0.67521 0.46831 0.0
C3418 C 0.53576 0.65961 0.45584 0.0
C3419 C 0.52532 0.64044 0.45257 0.0
C3420 C 0.52953 0.62578 0.44096 0.0
C3421 C 0.54407 0.63014 0.43241 0.0
C3422 C 0.5544 0.64919 0.43541 0.0
C3423 C 0.55026 0.66391 0.44703 0.0
H3424 H 0.54731 0.61877 0.42343 0.0
H3425 H 0.50814 0.7623 0.53623 0.0
H3426 H 0.61443 0.36873 0.71538 0.0
H3427 H 0.6429 0.36585 0.72885 0.0
H3428 H 0.64177 0.32261 0.68167 0.0
H3429 H 0.61307 0.32544 0.66798 0.0
H3430 H 0.65318 0.31203 0.71638 0.0
H3431 H 0.66656 0.36663 0.68403 0.0
H3432 H 0.66447 0.3983 0.67478 0.0
H3433 H 0.68154 0.42609 0.73204 0.0
H3434 H 0.68351 0.39451 0.74168 0.0
H3435 H 0.74201 0.3144 0.74698 0.0
H3436 H 0.71415 0.31425 0.72872 0.0
H3437 H 0.71199 0.36513 0.76605 0.0
H3438 H 0.74023 0.36587 0.7836 0.0
H3439 H 0.7026 0.37029 0.73274 0.0
H3440 H 0.68696 0.31534 0.76563 0.0
H3441 H 0.68968 0.28387 0.77501 0.0
H3442 H 0.67708 0.25684 0.7173 0.0
H3443 H 0.67447 0.28822 0.70755 0.0
C3444 C 0.62022 0.35866 0.70776 0.0
C3445 C 0.61145 0.34738 0.69053 0.0
C3446 C 0.63655 0.35705 0.7155 0.0
C3447 C 0.64455 0.34408 0.70625 0.0
C3448 C 0.63585 0.33271 0.68906 0.0
C3449 C 0.6195 0.33445 0.6812 0.0
C3450 C 0.66198 0.34256 0.71473 0.0
C3451 C 0.66408 0.32468 0.71972 0.0
C3452 C 0.67614 0.35912 0.71935 0.0
C3453 C 0.67505 0.37816 0.71359 0.0
C3454 C 0.66974 0.37946 0.69467 0.0
C3455 C 0.6686 0.39741 0.68935 0.0
C3456 C 0.67283 0.41419 0.70282 0.0
C3457 C 0.67826 0.41307 0.72163 0.0
C3458 C 0.67941 0.39516 0.72702 0.0
C3459 C 0.73545 0.32539 0.75137 0.0
C3460 C 0.74319 0.34006 0.76679 0.0
C3461 C 0.71949 0.32529 0.74096 0.0
C3462 C 0.7107 0.33952 0.74608 0.0
C3463 C 0.71841 0.35399 0.7617 0.0
C3464 C 0.73452 0.35435 0.77183 0.0
C3465 C 0.69378 0.33988 0.73501 0.0
C3466 C 0.69177 0.35757 0.72942 0.0
C3467 C 0.6797 0.32316 0.72996 0.0
C3468 C 0.68067 0.30416 0.73586 0.0
C3469 C 0.68481 0.30269 0.75494 0.0
C3470 C 0.68634 0.28488 0.76032 0.0
C3471 C 0.68361 0.26838 0.74675 0.0
C3472 C 0.67921 0.26964 0.72778 0.0
C3473 C 0.67768 0.28742 0.72233 0.0
H3474 H 0.68487 0.25463 0.75094 0.0
H3475 H 0.67194 0.42807 0.69868 0.0
H3476 H 0.98697 0.33694 0.95832 0.0
H3477 H 0.99575 0.37145 0.97197 0.0
H3478 H 0.03077 0.38248 0.93277 0.0
H3479 H 0.02209 0.34792 0.91899 0.0
H3480 H 0.02635 0.39792 0.98857 0.0
H3481 H 0.026 0.42516 0.91681 0.0
H3482 H 0.01241 0.41346 0.88369 0.0
H3483 H 0.96977 0.37603 0.90102 0.0
H3484 H 0.98291 0.3878 0.93414 0.0
H3485 H 0.05775 0.50091 0.00595 0.0
H3486 H 0.05362 0.46668 0.99273 0.0
H3487 H 1.00074 0.46358 0.97005 0.0
H3488 H 0.00481 0.49788 0.9829 0.0
H3489 H 0.01449 0.44405 0.94544 0.0
H3490 H 0.0112 0.44677 0.01081 0.0
H3491 H 0.02189 0.459 0.04445 0.0
H3492 H 0.0662 0.43586 0.04149 0.0
H3493 H 0.05592 0.42377 0.0077 0.0
C3494 C 0.99671 0.34662 0.95272 0.0
C3495 C 0.00371 0.33964 0.93742 0.0
C3496 C 1.00178 0.36636 0.96063 0.0
C3497 C 0.01379 0.37958 0.95329 0.0
C3498 C 0.02138 0.37255 0.93856 0.0
C3499 C 0.01642 0.35276 0.93073 0.0
C3500 C 0.01734 0.40087 0.96008 0.0
C3501 C 0.0239 0.40803 0.97913 0.0
C3502 C 0.01374 0.41403 0.94786 0.0
C3503 C 0.00557 0.40718 0.92794 0.0
C3504 C 0.01369 0.41449 0.91352 0.0
C3505 C 0.00606 0.40786 0.89475 0.0
C3506 C 0.99025 0.39396 0.89023 0.0
C3507 C 0.98202 0.38676 0.90449 0.0
C3508 C 0.98956 0.3934 0.92327 0.0
C3509 C 0.04526 0.49303 0.99802 0.0
C3510 C 0.03158 0.50217 0.9956 0.0
C3511 C 0.04292 0.47341 0.99051 0.0
C3512 C 0.0268 0.46245 0.98059 0.0
C3513 C 0.01329 0.47171 0.97765 0.0
C3514 C 0.01563 0.49134 0.98508 0.0
C3515 C 0.02378 0.44119 0.97389 0.0
C3516 C 0.01722 0.43401 0.95486 0.0
C3517 C 0.02697 0.42797 0.98623 0.0
C3518 C 0.03287 0.43452 0.00669 0.0
C3519 C 0.02326 0.44435 0.01731 0.0
C3520 C 0.02924 0.45126 0.0364 0.0
C3521 C 0.04473 0.44825 0.04508 0.0
C3522 C 0.05422 0.4382 0.03473 0.0
C3523 C 0.04831 0.4313 0.01561 0.0
H3524 H 0.04934 0.45369 0.05983 0.0
H3525 H 0.98438 0.38881 0.87569 0.0
H3526 H 0.02684 0.81264 0.1998 0.0
H3527 H 1.00021 0.80823 0.21289 0.0
H3528 H 0.9748 0.82529 0.16383 0.0
H3529 H 1.00142 0.83029 0.15097 0.0
H3530 H 0.96848 0.84422 0.19389 0.0
H3531 H 0.96587 0.77718 0.17267 0.0
H3532 H 0.97646 0.74731 0.16967 0.0
H3533 H 0.98148 0.7481 0.2292 0.0
H3534 H 0.97114 0.77815 0.2326 0.0
H3535 H 0.88362 0.81875 0.21479 0.0
H3536 H 0.9089 0.81935 0.19974 0.0
H3537 H 0.93647 0.80731 0.25025 0.0
H3538 H 0.91139 0.80698 0.2655 0.0
H3539 H 0.94117 0.78526 0.21897 0.0
H3540 H 0.94414 0.85287 0.23985 0.0
H3541 H 0.93303 0.88242 0.24239 0.0
H3542 H 0.92684 0.88005 0.18263 0.0
H3543 H 0.93768 0.85032 0.17969 0.0
C3544 C 0.01551 0.81517 0.19167 0.0
C3545 C 0.01628 0.82175 0.17429 0.0
C3546 C 1.00026 0.8126 0.19916 0.0
C3547 C 0.98541 0.81631 0.1893 0.0
C3548 C 0.98606 0.82237 0.17173 0.0
C3549 C 1.00131 0.82508 0.16432 0.0
C3550 C 0.96948 0.81491 0.19769 0.0
C3551 C 0.96237 0.83119 0.19909 0.0
C3552 C 0.96169 0.79811 0.2049 0.0
C3553 C 0.96789 0.78003 0.2029 0.0
C3554 C 0.96936 0.77108 0.18514 0.0
C3555 C 0.9753 0.75409 0.18336 0.0
C3556 C 0.97968 0.74584 0.19924 0.0
C3557 C 0.9781 0.75453 0.21692 0.0
C3558 C 0.97219 0.77152 0.21878 0.0
C3559 C 0.89509 0.81637 0.22276 0.0
C3560 C 0.89544 0.81285 0.24139 0.0
C3561 C 0.90952 0.81665 0.2141 0.0
C3562 C 0.92462 0.81351 0.22392 0.0
C3563 C 0.92493 0.80969 0.24238 0.0
C3564 C 0.91054 0.80944 0.25106 0.0
C3565 C 0.94022 0.8145 0.21507 0.0
C3566 C 0.94727 0.79821 0.21366 0.0
C3567 C 0.94793 0.83126 0.20777 0.0
C3568 C 0.94156 0.84925 0.20954 0.0
C3569 C 0.94029 0.85856 0.22723 0.0
C3570 C 0.93406 0.87536 0.22875 0.0
C3571 C 0.92919 0.88307 0.21268 0.0
C3572 C 0.93059 0.87404 0.19506 0.0
C3573 C 0.93679 0.85723 0.19347 0.0
H3574 H 0.92436 0.89605 0.21386 0.0
H3575 H 0.98428 0.73269 0.19783 0.0
H3576 H 0.57562 0.38087 0.13126 0.0
H3577 H 0.58175 0.41276 0.12068 0.0
H3578 H 0.54016 0.39101 0.07377 0.0
H3579 H 0.53396 0.35922 0.08421 0.0
H3580 H 0.56797 0.41605 0.06421 0.0
H3581 H 0.53321 0.41438 0.11353 0.0
H3582 H 0.5273 0.4099 0.14523 0.0
H3583 H 0.57261 0.45513 0.16956 0.0
H3584 H 0.57892 0.45967 0.13798 0.0
H3585 H 0.53598 0.49464 0.03961 0.0
H3586 H 0.54089 0.46492 0.05011 0.0
H3587 H 0.57851 0.49904 0.09694 0.0
H3588 H 0.57335 0.52913 0.08667 0.0
H3589 H 0.55821 0.4696 0.10822 0.0
H3590 H 0.59077 0.47478 0.05886 0.0
H3591 H 0.59674 0.47954 0.02725 0.0
H3592 H 0.55666 0.42836 0.00308 0.0
H3593 H 0.55027 0.42343 0.03453 0.0
C3594 C 0.5681 0.3827 0.11839 0.0
C3595 C 0.55421 0.3675 0.10866 0.0
C3596 C 0.57153 0.40101 0.11245 0.0
C3597 C 0.56122 0.40439 0.0966 0.0
C3598 C 0.54824 0.3888 0.08608 0.0
C3599 C 0.5447 0.3706 0.09208 0.0
C3600 C 0.56281 0.4244 0.09178 0.0
C3601 C 0.56581 0.42776 0.0738 0.0
C3602 C 0.56047 0.43988 0.10446 0.0
C3603 C 0.55666 0.43719 0.12342 0.0
C3604 C 0.54199 0.42325 0.12565 0.0
C3605 C 0.53855 0.42072 0.14359 0.0
C3606 C 0.5496 0.43218 0.15941 0.0
C3607 C 0.56409 0.44623 0.1573 0.0
C3608 C 0.5676 0.44879 0.13939 0.0
C3609 C 0.54538 0.49594 0.05211 0.0
C3610 C 0.55432 0.51437 0.06223 0.0
C3611 C 0.54827 0.47885 0.05805 0.0
C3612 C 0.56033 0.47965 0.07414 0.0
C3613 C 0.56922 0.49801 0.08441 0.0
C3614 C 0.56627 0.51521 0.0785 0.0
C3615 C 0.56302 0.46121 0.08045 0.0
C3616 C 0.56076 0.45809 0.09871 0.0
C3617 C 0.56613 0.44599 0.06803 0.0
C3618 C 0.56998 0.44881 0.04907 0.0
C3619 C 0.58315 0.46461 0.0468 0.0
C3620 C 0.58662 0.46733 0.02891 0.0
C3621 C 0.57707 0.45428 0.01316 0.0
C3622 C 0.56405 0.43845 0.01529 0.0
C3623 C 0.56052 0.43568 0.03315 0.0
H3624 H 0.57978 0.45641 0.99932 0.0
H3625 H 0.54692 0.4302 0.17329 0.0
H3626 H 0.97975 0.31363 0.35579 0.0
H3627 H 0.95232 0.31718 0.33981 0.0
H3628 H 0.92892 0.30321 0.38782 0.0
H3629 H 0.95613 0.2987 0.40345 0.0
H3630 H 0.90784 0.28518 0.35897 0.0
H3631 H 0.93948 0.35114 0.37638 0.0
H3632 H 0.96394 0.37985 0.37947 0.0
H3633 H 0.958 0.37526 0.31952 0.0
H3634 H 0.93364 0.34635 0.31606 0.0
H3635 H 0.84679 0.34582 0.31596 0.0
H3636 H 0.87416 0.34432 0.33379 0.0
H3637 H 0.86774 0.28587 0.30507 0.0
H3638 H 0.83989 0.28701 0.28773 0.0
H3639 H 0.90326 0.34162 0.3265 0.0
H3640 H 0.88577 0.25884 0.3327 0.0
H3641 H 0.86014 0.23317 0.33469 0.0
H3642 H 0.83586 0.27674 0.35633 0.0
H3643 H 0.8614 0.30261 0.35465 0.0
C3644 C 0.9688 0.31146 0.36301 0.0
C3645 C 0.97017 0.30596 0.38095 0.0
C3646 C 0.9531 0.31359 0.35388 0.0
C3647 C 0.93851 0.31075 0.36266 0.0
C3648 C 0.93993 0.30546 0.38068 0.0
C3649 C 0.95556 0.30299 0.38969 0.0
C3650 C 0.92167 0.31268 0.35281 0.0
C3651 C 0.90688 0.29755 0.3519 0.0
C3652 C 0.92019 0.32905 0.34397 0.0
C3653 C 0.93482 0.34646 0.34596 0.0
C3654 C 0.94347 0.35616 0.36385 0.0
C3655 C 0.9573 0.37249 0.36567 0.0
C3656 C 0.96254 0.37935 0.3497 0.0
C3657 C 0.95394 0.36992 0.33188 0.0
C3658 C 0.9401 0.35357 0.32998 0.0
C3659 C 0.85122 0.33266 0.31335 0.0
C3660 C 0.84113 0.31651 0.30043 0.0
C3661 C 0.86692 0.33183 0.32357 0.0
C3662 C 0.87301 0.31491 0.32099 0.0
C3663 C 0.86319 0.29896 0.30766 0.0
C3664 C 0.8473 0.29965 0.29766 0.0
C3665 C 0.88952 0.31396 0.33241 0.0
C3666 C 0.90425 0.32926 0.33358 0.0
C3667 C 0.89079 0.29818 0.34221 0.0
C3668 C 0.87543 0.28266 0.34337 0.0
C3669 C 0.87498 0.26292 0.33794 0.0
C3670 C 0.86046 0.24834 0.33899 0.0
C3671 C 0.84635 0.25332 0.34557 0.0
C3672 C 0.84676 0.27289 0.35117 0.0
C3673 C 0.86124 0.28752 0.35014 0.0
H3674 H 0.83513 0.24201 0.34637 0.0
H3675 H 0.97325 0.392 0.35113 0.0
H3676 H 0.05719 0.7721 0.63459 0.0
H3677 H 0.05776 0.73893 0.6217 0.0
H3678 H 0.01189 0.73449 0.58173 0.0
H3679 H 0.01104 0.76733 0.59468 0.0
H3680 H 0.0087 0.70256 0.59699 0.0
H3681 H 0.05318 0.74133 0.56967 0.0
H3682 H 0.08019 0.766 0.57022 0.0
H3683 H 0.10847 0.73378 0.6032 0.0
H3684 H 0.08157 0.70904 0.60304 0.0
H3685 H 0.00832 0.62828 0.52401 0.0
H3686 H 0.00986 0.65832 0.54491 0.0
H3687 H 0.05174 0.64772 0.58242 0.0
H3688 H 0.05014 0.61737 0.56137 0.0
H3689 H 0.05873 0.68553 0.57301 0.0
H3690 H 0.01502 0.64634 0.5998 0.0
H3691 H 0.98809 0.62182 0.60014 0.0
H3692 H 0.95897 0.65463 0.56908 0.0
H3693 H 0.98572 0.67929 0.56845 0.0
C3694 C 0.04731 0.76414 0.62294 0.0
C3695 C 0.03407 0.7725 0.61571 0.0
C3696 C 0.04767 0.74514 0.61554 0.0
C3697 C 0.03491 0.73412 0.60063 0.0
C3698 C 0.02185 0.74257 0.59327 0.0
C3699 C 0.02143 0.76146 0.60067 0.0
C3700 C 0.03477 0.71368 0.59285 0.0
C3701 C 0.01964 0.69892 0.59168 0.0
C3702 C 0.04918 0.70862 0.58644 0.0
C3703 C 0.06534 0.72347 0.58654 0.0
C3704 C 0.06514 0.7396 0.57717 0.0
C3705 C 0.08043 0.75357 0.57739 0.0
C3706 C 0.09603 0.75149 0.58679 0.0
C3707 C 0.09637 0.7354 0.59595 0.0
C3708 C 0.08111 0.72139 0.5958 0.0
C3709 C 0.01769 0.63218 0.53686 0.0
C3710 C 0.02902 0.62041 0.54114 0.0
C3711 C 0.01852 0.64933 0.54885 0.0
C3712 C 0.03084 0.65528 0.56534 0.0
C3713 C 0.04207 0.64341 0.56983 0.0
C3714 C 0.04108 0.62602 0.55788 0.0
C3715 C 0.03257 0.67461 0.57689 0.0
C3716 C 0.04793 0.68915 0.57869 0.0
C3717 C 0.01843 0.6795 0.58399 0.0
C3718 C 0.00237 0.66453 0.58392 0.0
C3719 C 0.00289 0.64819 0.59287 0.0
C3720 C 0.98766 0.63433 0.59319 0.0
C3721 C 0.97186 0.63664 0.58461 0.0
C3722 C 0.97123 0.65284 0.57569 0.0
C3723 C 0.98641 0.66679 0.57538 0.0
H3724 H 0.96009 0.6259 0.5849 0.0
H3725 H 0.10786 0.76233 0.58694 0.0
H3726 H 0.55043 0.76267 0.85837 0.0
H3727 H 0.57808 0.76568 0.84802 0.0
H3728 H 0.60019 0.81695 0.88951 0.0
H3729 H 0.57223 0.81411 0.90002 0.0
H3730 H 0.60984 0.82118 0.85444 0.0
H3731 H 0.6103 0.77615 0.89755 0.0
H3732 H 0.5988 0.74758 0.91219 0.0
H3733 H 0.59491 0.70963 0.86057 0.0
H3734 H 0.60615 0.73799 0.84552 0.0
H3735 H 0.69147 0.81468 0.82885 0.0
H3736 H 0.66881 0.8176 0.84723 0.0
H3737 H 0.63665 0.76332 0.81595 0.0
H3738 H 0.65949 0.75974 0.79833 0.0
H3739 H 0.63545 0.76409 0.85171 0.0
H3740 H 0.63153 0.81017 0.80783 0.0
H3741 H 0.64333 0.8389 0.79351 0.0
H3742 H 0.65446 0.87519 0.84734 0.0
H3743 H 0.64286 0.84661 0.862 0.0
C3744 C 0.56112 0.77461 0.86538 0.0
C3745 C 0.55911 0.7881 0.88012 0.0
C3746 C 0.57697 0.77627 0.85944 0.0
C3747 C 0.59127 0.7914 0.86812 0.0
C3748 C 0.58932 0.80513 0.88266 0.0
C3749 C 0.57338 0.80343 0.8887 0.0
C3750 C 0.60811 0.79248 0.86181 0.0
C3751 C 0.61566 0.80887 0.85416 0.0
C3752 C 0.61565 0.77639 0.86136 0.0
C3753 C 0.60898 0.75923 0.87037 0.0
C3754 C 0.60688 0.76172 0.88928 0.0
C3755 C 0.60043 0.74556 0.89765 0.0
C3756 C 0.59611 0.72681 0.88731 0.0
C3757 C 0.59827 0.72417 0.86856 0.0
C3758 C 0.6047 0.74028 0.86011 0.0
C3759 C 0.67964 0.80325 0.82601 0.0
C3760 C 0.67732 0.78699 0.81201 0.0
C3761 C 0.66661 0.80507 0.8364 0.0
C3762 C 0.6509 0.79081 0.83284 0.0
C3763 C 0.64862 0.77456 0.81895 0.0
C3764 C 0.66165 0.77264 0.8087 0.0
C3765 C 0.63679 0.79242 0.84357 0.0
C3766 C 0.62979 0.77653 0.85217 0.0
C3767 C 0.62984 0.80901 0.84493 0.0
C3768 C 0.63649 0.82623 0.83604 0.0
C3769 C 0.63657 0.82426 0.81662 0.0
C3770 C 0.64321 0.84052 0.80844 0.0
C3771 C 0.64969 0.85885 0.81952 0.0
C3772 C 0.64946 0.86098 0.83878 0.0
C3773 C 0.64283 0.84476 0.84703 0.0
H3774 H 0.65486 0.87142 0.81317 0.0
H3775 H 0.59111 0.71431 0.89382 0.0
H3776 H 0.46235 0.58163 0.69059 0.0
H3777 H 0.47651 0.58725 0.66382 0.0
H3778 H 0.42795 0.56383 0.6264 0.0
H3779 H 0.41356 0.55762 0.65354 0.0
H3780 H 0.45317 0.55151 0.6125 0.0
H3781 H 0.44544 0.61277 0.63493 0.0
H3782 H 0.44507 0.64125 0.6575 0.0
H3783 H 0.50007 0.65387 0.67302 0.0
H3784 H 0.50075 0.62533 0.65068 0.0
H3785 H 0.50522 0.57926 0.54505 0.0
H3786 H 0.48208 0.58072 0.56319 0.0
H3787 H 0.51986 0.59763 0.61405 0.0
H3788 H 0.54292 0.59656 0.59556 0.0
H3789 H 0.49379 0.61596 0.61542 0.0
H3790 H 0.49825 0.5485 0.59668 0.0
H3791 H 0.49763 0.5213 0.572 0.0
H3792 H 0.44651 0.52228 0.54728 0.0
H3793 H 0.44696 0.54971 0.57162 0.0
C3794 C 0.45461 0.57761 0.67669 0.0
C3795 C 0.4368 0.56935 0.67417 0.0
C3796 C 0.46273 0.58097 0.66137 0.0
C3797 C 0.45322 0.57652 0.64313 0.0
C3798 C 0.43549 0.5676 0.6404 0.0
C3799 C 0.42731 0.564 0.65586 0.0
C3800 C 0.46226 0.58099 0.6272 0.0
C3801 C 0.46173 0.56574 0.61289 0.0
C3802 C 0.47336 0.59961 0.62757 0.0
C3803 C 0.47311 0.61685 0.6411 0.0
C3804 C 0.45744 0.62157 0.6432 0.0
C3805 C 0.45718 0.63773 0.65596 0.0
C3806 C 0.47254 0.64936 0.6667 0.0
C3807 C 0.48819 0.64486 0.66468 0.0
C3808 C 0.48851 0.62871 0.65193 0.0
C3809 C 0.50842 0.58337 0.56005 0.0
C3810 C 0.52556 0.58729 0.56901 0.0
C3811 C 0.4953 0.58432 0.57041 0.0
C3812 C 0.49921 0.58878 0.59003 0.0
C3813 C 0.51656 0.59404 0.59891 0.0
C3814 C 0.5297 0.5934 0.58842 0.0
C3815 C 0.48533 0.58624 0.60149 0.0
C3816 C 0.48493 0.60189 0.61486 0.0
C3817 C 0.47316 0.56812 0.60004 0.0
C3818 C 0.47266 0.55116 0.5859 0.0
C3819 C 0.48689 0.54289 0.58597 0.0
C3820 C 0.48658 0.52748 0.57202 0.0
C3821 C 0.47205 0.52009 0.55807 0.0
C3822 C 0.45776 0.52803 0.55809 0.0
C3823 C 0.45803 0.5435 0.57195 0.0
H3824 H 0.47185 0.50819 0.54725 0.0
H3825 H 0.47231 0.66187 0.67658 0.0
H3826 H 0.81961 0.25746 0.9738 0.0
H3827 H 0.81384 0.2704 0.94497 0.0
H3828 H 0.7592 0.25218 0.94491 0.0
H3829 H 0.76494 0.23807 0.97358 0.0
H3830 H 0.76365 0.24438 0.91142 0.0
H3831 H 0.78368 0.30246 0.95532 0.0
H3832 H 0.80263 0.32602 0.98156 0.0
H3833 H 0.84436 0.33196 0.95043 0.0
H3834 H 0.82573 0.30824 0.92409 0.0
H3835 H 0.77841 0.32929 0.8489 0.0
H3836 H 0.77762 0.31838 0.87944 0.0
H3837 H 0.77995 0.26104 0.85477 0.0
H3838 H 0.77932 0.27158 0.82403 0.0
H3839 H 0.79784 0.30862 0.90206 0.0
H3840 H 0.7653 0.22586 0.87863 0.0
H3841 H 0.74312 0.20468 0.85334 0.0
H3842 H 0.7199 0.25233 0.84552 0.0
H3843 H 0.7418 0.27373 0.87091 0.0
C3844 C 0.80631 0.25638 0.96791 0.0
C3845 C 0.79275 0.24679 0.97625 0.0
C3846 C 0.80302 0.26394 0.95132 0.0
C3847 C 0.78607 0.26272 0.94275 0.0
C3848 C 0.77243 0.25342 0.95117 0.0
C3849 C 0.77572 0.24547 0.96768 0.0
C3850 C 0.7828 0.27048 0.92467 0.0
C3851 C 0.77104 0.2585 0.90944 0.0
C3852 C 0.79204 0.28913 0.92199 0.0
C3853 C 0.80332 0.30346 0.93778 0.0
C3854 C 0.79693 0.3087 0.95412 0.0
C3855 C 0.80761 0.3221 0.969 0.0
C3856 C 0.82469 0.33046 0.96768 0.0
C3857 C 0.83112 0.32547 0.95144 0.0
C3858 C 0.8205 0.31207 0.93652 0.0
C3859 C 0.77846 0.31427 0.85 0.0
C3860 C 0.77869 0.30122 0.83405 0.0
C3861 C 0.7781 0.30802 0.86751 0.0
C3862 C 0.77843 0.2887 0.86962 0.0
C3863 C 0.77902 0.27579 0.85364 0.0
C3864 C 0.7788 0.28187 0.83602 0.0
C3865 C 0.77893 0.28238 0.88861 0.0
C3866 C 0.79024 0.2946 0.90403 0.0
C3867 C 0.76874 0.26432 0.89161 0.0
C3868 C 0.75529 0.25143 0.87658 0.0
C3869 C 0.7554 0.23179 0.87159 0.0
C3870 C 0.7429 0.21975 0.85721 0.0
C3871 C 0.73014 0.22717 0.84779 0.0
C3872 C 0.72982 0.24662 0.85278 0.0
C3873 C 0.74228 0.25871 0.86716 0.0
H3874 H 0.7205 0.21784 0.83663 0.0
H3875 H 0.83295 0.34083 0.97922 0.0
H3876 H 0.08783 0.4341 0.15901 0.0
H3877 H 0.07979 0.44816 0.1312 0.0
H3878 H 0.11984 0.50056 0.15277 0.0
H3879 H 0.12788 0.4867 0.18075 0.0
H3880 H 0.08861 0.50774 0.14711 0.0
H3881 H 0.12062 0.47359 0.11082 0.0
H3882 H 0.13043 0.44529 0.09774 0.0
H3883 H 0.07858 0.41656 0.07118 0.0
H3884 H 0.06843 0.44453 0.0844 0.0
H3885 H 0.06337 0.55767 0.07491 0.0
H3886 H 0.08076 0.54162 0.09491 0.0
H3887 H 0.04322 0.48665 0.07584 0.0
H3888 H 0.02614 0.50254 0.0551 0.0
H3889 H 0.07567 0.48169 0.07909 0.0
H3890 H 0.04332 0.51399 0.1174 0.0
H3891 H 0.03294 0.54182 0.13055 0.0
H3892 H 0.08493 0.57313 0.15413 0.0
H3893 H 0.09563 0.54557 0.1409 0.0
C3894 C 0.09529 0.44838 0.15761 0.0
C3895 C 0.10826 0.45944 0.17228 0.0
C3896 C 0.09072 0.45637 0.14161 0.0
C3897 C 0.09914 0.47546 0.13997 0.0
C3898 C 0.11313 0.48582 0.15381 0.0
C3899 C 0.1177 0.47786 0.1698 0.0
C3900 C 0.09152 0.48568 0.12571 0.0
C3901 C 0.08617 0.50229 0.13219 0.0
C3902 C 0.08775 0.47815 0.10634 0.0
C3903 C 0.09376 0.46115 0.09863 0.0
C3904 C 0.11129 0.46117 0.10232 0.0
C3905 C 0.11692 0.44519 0.09486 0.0
C3906 C 0.10514 0.42913 0.08364 0.0
C3907 C 0.0877 0.42901 0.07986 0.0
C3908 C 0.08201 0.44494 0.0873 0.0
C3909 C 0.05894 0.54212 0.07483 0.0
C3910 C 0.04342 0.53134 0.06354 0.0
C3911 C 0.06883 0.53299 0.08631 0.0
C3912 C 0.06318 0.51299 0.08702 0.0
C3913 C 0.04781 0.5021 0.07549 0.0
C3914 C 0.03799 0.51122 0.06383 0.0
C3915 C 0.07283 0.50371 0.10057 0.0
C3916 C 0.07839 0.48725 0.09399 0.0
C3917 C 0.07671 0.51125 0.11994 0.0
C3918 C 0.07029 0.52781 0.12799 0.0
C3919 C 0.05254 0.52687 0.12527 0.0
C3920 C 0.0466 0.54259 0.13276 0.0
C3921 C 0.05827 0.55926 0.14312 0.0
C3922 C 0.07591 0.56022 0.14607 0.0
C3923 C 0.08192 0.54455 0.13859 0.0
H3924 H 0.05365 0.57141 0.1489 0.0
H3925 H 0.10952 0.41679 0.07787 0.0
H3926 H 0.81747 0.86597 0.49378 0.0
H3927 H 0.81072 0.85323 0.46029 0.0
H3928 H 0.78604 0.89961 0.45025 0.0
H3929 H 0.79222 0.91203 0.48395 0.0
H3930 H 0.76916 0.86833 0.42681 0.0
H3931 H 0.8286 0.90186 0.44375 0.0
H3932 H 0.85811 0.90976 0.46177 0.0
H3933 H 0.86205 0.85145 0.44425 0.0
H3934 H 0.83246 0.84313 0.42633 0.0
H3935 H 0.81093 0.85854 0.33501 0.0
H3936 H 0.81253 0.87084 0.36811 0.0
H3937 H 0.76728 0.82576 0.36999 0.0
H3938 H 0.76507 0.81425 0.33653 0.0
H3939 H 0.81879 0.85789 0.39749 0.0
H3940 H 0.74694 0.83704 0.40538 0.0
H3941 H 0.71832 0.83306 0.38627 0.0
H3942 H 0.74058 0.87384 0.3522 0.0
H3943 H 0.76928 0.87824 0.37123 0.0
C3944 C 0.81039 0.87333 0.48451 0.0
C3945 C 0.80554 0.89016 0.49162 0.0
C3946 C 0.80661 0.86607 0.46528 0.0
C3947 C 0.79824 0.8757 0.45253 0.0
C3948 C 0.79258 0.89192 0.45969 0.0
C3949 C 0.79614 0.89903 0.47902 0.0
C3950 C 0.79627 0.86945 0.43178 0.0
C3951 C 0.78002 0.86604 0.4204 0.0
C3952 C 0.81044 0.86686 0.42316 0.0
C3953 C 0.82826 0.87182 0.43385 0.0
C3954 C 0.83572 0.89069 0.44385 0.0
C3955 C 0.85247 0.89525 0.45403 0.0
C3956 C 0.86193 0.8811 0.45419 0.0
C3957 C 0.85469 0.86238 0.44413 0.0
C3958 C 0.83794 0.85774 0.43395 0.0
C3959 C 0.8012 0.8514 0.34244 0.0
C3960 C 0.78781 0.8355 0.33309 0.0
C3961 C 0.80215 0.8584 0.36145 0.0
C3962 C 0.78994 0.84946 0.37178 0.0
C3963 C 0.77663 0.83339 0.36243 0.0
C3964 C 0.77542 0.8267 0.34325 0.0
C3965 C 0.79163 0.8566 0.39237 0.0
C3966 C 0.80787 0.86016 0.40379 0.0
C3967 C 0.77755 0.85993 0.40085 0.0
C3968 C 0.76028 0.85782 0.38963 0.0
C3969 C 0.7457 0.84524 0.39387 0.0
C3970 C 0.72948 0.84288 0.38304 0.0
C3971 C 0.72764 0.85313 0.36799 0.0
C3972 C 0.74202 0.86585 0.36381 0.0
C3973 C 0.75828 0.86827 0.37461 0.0
H3974 H 0.71508 0.85125 0.35958 0.0
H3975 H 0.87489 0.88466 0.46208 0.0
H3976 H 0.45041 0.54117 0.76004 0.0
H3977 H 0.46266 0.53574 0.79101 0.0
H3978 H 0.43183 0.56982 0.81678 0.0
H3979 H 0.41959 0.57543 0.7859 0.0
H3980 H 0.46574 0.57954 0.83451 0.0
H3981 H 0.41945 0.52189 0.81422 0.0
H3982 H 0.40225 0.49285 0.79218 0.0
H3983 H 0.44671 0.46942 0.79257 0.0
H3984 H 0.46417 0.4983 0.81481 0.0
H3985 H 0.47338 0.5539 0.92499 0.0
H3986 H 0.46175 0.55789 0.89332 0.0
H3987 H 0.49224 0.52154 0.8703 0.0
H3988 H 0.50389 0.51741 0.90203 0.0
H3989 H 0.45956 0.51279 0.85061 0.0
H3990 H 0.50513 0.57058 0.87409 0.0
H3991 H 0.52093 0.5997 0.89688 0.0
H3992 H 0.47664 0.62356 0.89049 0.0
H3993 H 0.46048 0.59445 0.86788 0.0
C3994 C 0.44628 0.54755 0.77231 0.0
C3995 C 0.43399 0.55864 0.77058 0.0
C3996 C 0.45322 0.54435 0.78995 0.0
C3997 C 0.44801 0.55225 0.80609 0.0
C3998 C 0.43595 0.56358 0.80443 0.0
C3999 C 0.42893 0.56668 0.7868 0.0
C4000 C 0.45523 0.54882 0.82476 0.0
C4001 C 0.46426 0.56498 0.83814 0.0
C4002 C 0.45356 0.52978 0.82923 0.0
C4003 C 0.44314 0.51233 0.816 0.0
C4004 C 0.42558 0.51059 0.80952 0.0
C4005 C 0.41578 0.49416 0.79702 0.0
C4006 C 0.42341 0.47939 0.79084 0.0
C4007 C 0.44083 0.48092 0.79733 0.0
C4008 C 0.45067 0.49727 0.80995 0.0
C4009 C 0.47765 0.54683 0.91318 0.0
C4010 C 0.48963 0.53549 0.91594 0.0
C4011 C 0.47099 0.54909 0.89512 0.0
C4012 C 0.47636 0.54026 0.87953 0.0
C4013 C 0.48798 0.5285 0.88219 0.0
C4014 C 0.49459 0.52614 0.90027 0.0
C4015 C 0.46998 0.54355 0.86048 0.0
C4016 C 0.46115 0.52736 0.84699 0.0
C4017 C 0.47175 0.56261 0.85595 0.0
C4018 C 0.48154 0.58024 0.86939 0.0
C4019 C 0.49872 0.58197 0.87763 0.0
C4020 C 0.50774 0.59849 0.89051 0.0
C4021 C 0.49978 0.61345 0.89516 0.0
C4022 C 0.48279 0.61195 0.88689 0.0
C4023 C 0.47369 0.59546 0.87403 0.0
H4024 H 0.50676 0.62622 0.90513 0.0
H4025 H 0.41581 0.46675 0.78109 0.0
H4026 H 0.77563 0.22706 0.07024 0.0
H4027 H 0.77291 0.24074 0.10178 0.0
H4028 H 0.82552 0.27477 0.11065 0.0
H4029 H 0.82824 0.26154 0.07907 0.0
H4030 H 0.78811 0.23873 0.1354 0.0
H4031 H 0.83062 0.317 0.1399 0.0
H4032 H 0.83879 0.34103 0.11895 0.0
H4033 H 0.79186 0.31483 0.08016 0.0
H4034 H 0.78331 0.29081 0.10099 0.0
H4035 H 0.81083 0.29164 0.23081 0.0
H4036 H 0.81101 0.27517 0.19917 0.0
H4037 H 0.77649 0.3075 0.17553 0.0
H4038 H 0.77585 0.32335 0.20693 0.0
H4039 H 0.80367 0.30996 0.15788 0.0
H4040 H 0.76284 0.26068 0.17743 0.0
H4041 H 0.74995 0.23549 0.19519 0.0
H4042 H 0.78692 0.20307 0.18314 0.0
H4043 H 0.80051 0.22846 0.16598 0.0
C4044 C 0.7866 0.23759 0.07881 0.0
C4045 C 0.80213 0.24324 0.07195 0.0
C4046 C 0.78505 0.24533 0.09694 0.0
C4047 C 0.79895 0.25895 0.10867 0.0
C4048 C 0.81448 0.26457 0.10186 0.0
C4049 C 0.81602 0.25692 0.08372 0.0
C4050 C 0.79729 0.26715 0.12803 0.0
C4051 C 0.79161 0.2543 0.14037 0.0
C4052 C 0.80148 0.2875 0.13446 0.0
C4053 C 0.80643 0.30198 0.12192 0.0
C4054 C 0.82203 0.31641 0.12693 0.0
C4055 C 0.82673 0.33002 0.11507 0.0
C4056 C 0.81588 0.32941 0.0982 0.0
C4057 C 0.80028 0.31523 0.09319 0.0
C4058 C 0.79551 0.3016 0.105 0.0
C4059 C 0.80293 0.29478 0.21888 0.0
C4060 C 0.79313 0.30856 0.2214 0.0
C4061 C 0.80314 0.28549 0.20078 0.0
C4062 C 0.79374 0.29005 0.18489 0.0
C4063 C 0.78388 0.30373 0.18749 0.0
C4064 C 0.78354 0.3128 0.20549 0.0
C4065 C 0.79478 0.28153 0.16544 0.0
C4066 C 0.80036 0.29435 0.15305 0.0
C4067 C 0.79015 0.26116 0.15891 0.0
C4068 C 0.78287 0.24668 0.17058 0.0
C4069 C 0.7685 0.24844 0.17893 0.0
C4070 C 0.76101 0.23406 0.18883 0.0
C4071 C 0.76756 0.21766 0.19024 0.0
C4072 C 0.78184 0.21578 0.18204 0.0
C4073 C 0.7895 0.23022 0.17231 0.0
H4074 H 0.76159 0.20643 0.19771 0.0
H4075 H 0.81955 0.33995 0.08904 0.0
H4076 H 0.07087 0.49196 0.2465 0.0
H4077 H 0.05878 0.50933 0.27044 0.0
H4078 H 0.07844 0.47763 0.3117 0.0
H4079 H 0.08994 0.45982 0.28796 0.0
H4080 H 0.03596 0.49369 0.29848 0.0
H4081 H 0.10257 0.51645 0.34783 0.0
H4082 H 0.1334 0.52467 0.34547 0.0
H4083 H 0.12144 0.54079 0.2912 0.0
H4084 H 0.09062 0.53347 0.29353 0.0
H4085 H 0.0575 0.52586 0.40479 0.0
H4086 H 0.06529 0.51561 0.37469 0.0
H4087 H 0.03131 0.54631 0.34714 0.0
H4088 H 0.02359 0.55689 0.37731 0.0
H4089 H 0.08009 0.53668 0.34962 0.0
H4090 H 0.01356 0.51835 0.30314 0.0
H4091 H 0.98278 0.50935 0.30587 0.0
H4092 H 0.99493 0.48283 0.35428 0.0
H4093 H 0.02572 0.49145 0.35168 0.0
C4094 C 0.07229 0.48842 0.26059 0.0
C4095 C 0.08168 0.47485 0.26548 0.0
C4096 C 0.06541 0.49836 0.2742 0.0
C4097 C 0.06807 0.49495 0.2928 0.0
C4098 C 0.07654 0.48062 0.29743 0.0
C4099 C 0.08318 0.47055 0.28386 0.0
C4100 C 0.06298 0.5069 0.3079 0.0
C4101 C 0.04553 0.50349 0.30946 0.0
C4102 C 0.07559 0.51945 0.32224 0.0
C4103 C 0.0942 0.52418 0.32079 0.0
C4104 C 0.1065 0.52189 0.33544 0.0
C4105 C 0.124 0.52645 0.33413 0.0
C4106 C 0.12938 0.53329 0.31821 0.0
C4107 C 0.11726 0.53555 0.30355 0.0
C4108 C 0.09977 0.5312 0.30486 0.0
C4109 C 0.05185 0.53066 0.39238 0.0
C4110 C 0.0399 0.54214 0.39342 0.0
C4111 C 0.05628 0.52475 0.3752 0.0
C4112 C 0.04879 0.53012 0.35871 0.0
C4113 C 0.03706 0.54184 0.35969 0.0
C4114 C 0.03263 0.54778 0.37691 0.0
C4115 C 0.05311 0.52297 0.34054 0.0
C4116 C 0.07046 0.52729 0.33843 0.0
C4117 C 0.04042 0.51125 0.32574 0.0
C4118 C 0.02194 0.50578 0.32735 0.0
C4119 C 0.00964 0.51056 0.31434 0.0
C4120 C 0.9922 0.50553 0.31586 0.0
C4121 C 0.98691 0.4956 0.33029 0.0
C4122 C 0.99905 0.4906 0.34317 0.0
C4123 C 0.01649 0.49558 0.34169 0.0
H4124 H 0.97341 0.49172 0.33145 0.0
H4125 H 0.14293 0.53689 0.3173 0.0
H4126 H 0.82258 0.86821 0.58672 0.0
H4127 H 0.8152 0.85297 0.61365 0.0
H4128 H 0.77395 0.88179 0.61611 0.0
H4129 H 0.78128 0.89726 0.58897 0.0
H4130 H 0.81674 0.87044 0.64865 0.0
H4131 H 0.74247 0.85258 0.63595 0.0
H4132 H 0.71807 0.84387 0.60954 0.0
H4133 H 0.74874 0.81931 0.57442 0.0
H4134 H 0.77322 0.82764 0.60068 0.0
H4135 H 0.78627 0.84839 0.73293 0.0
H4136 H 0.79098 0.86209 0.70425 0.0
H4137 H 0.77291 0.80444 0.67181 0.0
H4138 H 0.76798 0.79072 0.70044 0.0
H4139 H 0.75962 0.82982 0.65402 0.0
H4140 H 0.81626 0.82781 0.68356 0.0
H4141 H 0.84144 0.83509 0.70899 0.0
H4142 H 0.8472 0.89649 0.70891 0.0
H4143 H 0.82192 0.8896 0.68371 0.0
C4144 C 0.81177 0.8712 0.59275 0.0
C4145 C 0.80257 0.8841 0.58556 0.0
C4146 C 0.80762 0.86249 0.6083 0.0
C4147 C 0.79407 0.86624 0.61707 0.0
C4148 C 0.78441 0.87854 0.60957 0.0
C4149 C 0.78861 0.88737 0.59398 0.0
C4150 C 0.79067 0.85785 0.63448 0.0
C4151 C 0.80421 0.86161 0.64981 0.0
C4152 C 0.7744 0.84617 0.63607 0.0
C4153 C 0.75973 0.84094 0.62023 0.0
C4154 C 0.74398 0.84528 0.6226 0.0
C4155 C 0.73014 0.84041 0.60766 0.0
C4156 C 0.73187 0.83111 0.5903 0.0
C4157 C 0.74743 0.82659 0.58785 0.0
C4158 C 0.76131 0.83141 0.60275 0.0
C4159 C 0.78334 0.83862 0.71969 0.0
C4160 C 0.7768 0.81844 0.71899 0.0
C4161 C 0.78607 0.84648 0.70327 0.0
C4162 C 0.78244 0.83432 0.68577 0.0
C4163 C 0.77579 0.81417 0.68507 0.0
C4164 C 0.77305 0.80631 0.70148 0.0
C4165 C 0.78567 0.84253 0.66824 0.0
C4166 C 0.77211 0.83876 0.6529 0.0
C4167 C 0.80199 0.85408 0.66657 0.0
C4168 C 0.8171 0.85819 0.68185 0.0
C4169 C 0.82281 0.84286 0.68908 0.0
C4170 C 0.83711 0.84692 0.70343 0.0
C4171 C 0.84589 0.86624 0.71054 0.0
C4172 C 0.84038 0.88154 0.70338 0.0
C4173 C 0.82607 0.87757 0.68907 0.0
H4174 H 0.85701 0.8694 0.72155 0.0
H4175 H 0.72115 0.82736 0.57875 0.0
H4176 H 0.77253 0.49527 0.53023 0.0
H4177 H 0.74708 0.50816 0.52927 0.0
H4178 H 0.71581 0.45097 0.53128 0.0
H4179 H 0.74143 0.43776 0.53206 0.0
H4180 H 0.69926 0.47074 0.50667 0.0
H4181 H 0.72782 0.48326 0.57042 0.0
H4182 H 0.75238 0.49469 0.59653 0.0
H4183 H 0.75971 0.55301 0.58374 0.0
H4184 H 0.73533 0.54187 0.55737 0.0
H4185 H 0.63087 0.51057 0.5362 0.0
H4186 H 0.65336 0.49292 0.53396 0.0
H4187 H 0.68935 0.5462 0.52926 0.0
H4188 H 0.66687 0.56384 0.53082 0.0
H4189 H 0.70212 0.52609 0.55628 0.0
H4190 H 0.67428 0.51313 0.4917 0.0
H4191 H 0.64933 0.50183 0.46603 0.0
H4192 H 0.64001 0.44437 0.48114 0.0
H4193 H 0.66486 0.45539 0.50702 0.0
C4194 C 0.76026 0.48532 0.53036 0.0
C4195 C 0.75909 0.46548 0.53141 0.0
C4196 C 0.74569 0.49276 0.52984 0.0
C4197 C 0.72956 0.48063 0.53052 0.0
C4198 C 0.72814 0.46063 0.53082 0.0
C4199 C 0.74279 0.45312 0.53131 0.0
C4200 C 0.71449 0.48921 0.53169 0.0
C4201 C 0.69976 0.48262 0.51769 0.0
C4202 C 0.7152 0.50491 0.54592 0.0
C4203 C 0.72983 0.51169 0.56182 0.0
C4204 C 0.73475 0.4985 0.57309 0.0
C4205 C 0.74863 0.50493 0.58795 0.0
C4206 C 0.75762 0.52455 0.59177 0.0
C4207 C 0.75273 0.5378 0.58076 0.0
C4208 C 0.73887 0.53145 0.56586 0.0
C4209 C 0.64348 0.51851 0.53439 0.0
C4210 C 0.64703 0.53872 0.53383 0.0
C4211 C 0.65635 0.50838 0.53318 0.0
C4212 C 0.67305 0.51825 0.53148 0.0
C4213 C 0.67659 0.53832 0.53071 0.0
C4214 C 0.66372 0.54841 0.53172 0.0
C4215 C 0.68705 0.50788 0.53111 0.0
C4216 C 0.70157 0.51413 0.54532 0.0
C4217 C 0.68609 0.49187 0.51714 0.0
C4218 C 0.67132 0.48513 0.50141 0.0
C4219 C 0.66684 0.49812 0.48963 0.0
C4220 C 0.65274 0.49176 0.47502 0.0
C4221 C 0.64304 0.47242 0.47201 0.0
C4222 C 0.64751 0.45936 0.48352 0.0
C4223 C 0.66163 0.46564 0.49813 0.0
H4224 H 0.63209 0.46754 0.46073 0.0
H4225 H 0.76837 0.5295 0.60328 0.0
H4226 H 0.21778 0.13286 0.47753 0.0
H4227 H 0.18812 0.11807 0.48035 0.0
H4228 H 0.1896 0.16548 0.52372 0.0
H4229 H 0.21947 0.18046 0.52099 0.0
H4230 H 0.17497 0.12926 0.53285 0.0
H4231 H 0.16783 0.16385 0.48105 0.0
H4232 H 0.17275 0.1739 0.45063 0.0
H4233 H 0.15295 0.11455 0.42336 0.0
H4234 H 0.14814 0.1041 0.45368 0.0
H4235 H 0.08454 0.09978 0.53309 0.0
H4236 H 0.11378 0.11817 0.53199 0.0
H4237 H 0.11473 0.07867 0.48262 0.0
H4238 H 0.08518 0.06086 0.48327 0.0
H4239 H 0.12812 0.11332 0.47756 0.0
H4240 H 0.13677 0.07821 0.52937 0.0
H4241 H 0.13138 0.0679 0.55959 0.0
H4242 H 0.14821 0.12752 0.58672 0.0
H4243 H 0.15352 0.13821 0.55661 0.0
C4244 C 0.21183 0.14024 0.48763 0.0
C4245 C 0.22104 0.15792 0.49898 0.0
C4246 C 0.19481 0.13176 0.4892 0.0
C4247 C 0.18653 0.1407 0.50216 0.0
C4248 C 0.19569 0.1583 0.51361 0.0
C4249 C 0.21274 0.1669 0.51196 0.0
C4250 C 0.16836 0.13151 0.50368 0.0
C4251 C 0.16466 0.12602 0.52084 0.0
C4252 C 0.15494 0.12693 0.48794 0.0
C4253 C 0.15776 0.13317 0.46967 0.0
C4254 C 0.16465 0.15292 0.4686 0.0
C4255 C 0.1674 0.15869 0.45137 0.0
C4256 C 0.1632 0.14486 0.43508 0.0
C4257 C 0.15621 0.12524 0.43599 0.0
C4258 C 0.15346 0.11939 0.45319 0.0
C4259 C 0.09108 0.09494 0.52213 0.0
C4260 C 0.08268 0.07877 0.50839 0.0
C4261 C 0.10784 0.10544 0.52152 0.0
C4262 C 0.11673 0.09968 0.50741 0.0
C4263 C 0.10825 0.08348 0.49367 0.0
C4264 C 0.09138 0.07323 0.49409 0.0
C4265 C 0.13469 0.11064 0.50666 0.0
C4266 C 0.13837 0.11654 0.48962 0.0
C4267 C 0.14809 0.11548 0.52249 0.0
C4268 C 0.1454 0.10902 0.54071 0.0
C4269 C 0.13927 0.08912 0.54177 0.0
C4270 C 0.13623 0.08322 0.55888 0.0
C4271 C 0.13941 0.09705 0.57505 0.0
C4272 C 0.14574 0.11682 0.57418 0.0
C4273 C 0.14879 0.12281 0.5571 0.0
H4274 H 0.13698 0.09246 0.58827 0.0
H4275 H 0.16534 0.14936 0.42176 0.0
H4276 H 0.19635 0.05434 0.80276 0.0
H4277 H 0.21754 0.03637 0.79547 0.0
H4278 H 0.23507 0.03858 0.85452 0.0
H4279 H 0.214 0.05677 0.86203 0.0
H4280 H 0.26173 0.04037 0.83255 0.0
H4281 H 0.20403 0.00152 0.8332 0.0
H4282 H 0.17247 0.99272 0.82329 0.0
H4283 H 0.17856 0.97995 0.7659 0.0
H4284 H 0.21019 0.989 0.77546 0.0
H4285 H 0.29023 0.9532 0.83474 0.0
H4286 H 0.277 0.98074 0.83913 0.0
H4287 H 0.25429 0.96873 0.78044 0.0
H4288 H 0.26719 0.94099 0.77612 0.0
H4289 H 0.23115 0.97359 0.8004 0.0
H4290 H 0.28839 0.00904 0.79912 0.0
H4291 H 0.32002 0.01896 0.80795 0.0
H4292 H 0.31545 0.03885 0.86455 0.0
H4293 H 0.28377 0.02879 0.85613 0.0
C4294 C 0.20496 0.05141 0.81424 0.0
C4295 C 0.20322 0.05658 0.83299 0.0
C4296 C 0.21709 0.04119 0.81002 0.0
C4297 C 0.22758 0.03584 0.82446 0.0
C4298 C 0.22702 0.04254 0.8432 0.0
C4299 C 0.21492 0.05286 0.84745 0.0
C4300 C 0.23718 0.02102 0.82009 0.0
C4301 C 0.25512 0.02572 0.82562 0.0
C4302 C 0.22848 0.00207 0.8107 0.0
C4303 C 0.20946 0.9961 0.80502 0.0
C4304 C 0.19863 0.99692 0.81846 0.0
C4305 C 0.18074 0.9919 0.81291 0.0
C4306 C 0.17352 0.98581 0.79397 0.0
C4307 C 0.18418 0.98469 0.78056 0.0
C4308 C 0.20208 0.98975 0.78604 0.0
C4309 C 0.28256 0.9566 0.82277 0.0
C4310 C 0.27962 0.94493 0.80513 0.0
C4311 C 0.27507 0.97238 0.82525 0.0
C4312 C 0.26479 0.97693 0.81006 0.0
C4313 C 0.26214 0.96548 0.79236 0.0
C4314 C 0.26946 0.94961 0.78992 0.0
C4315 C 0.25587 0.99281 0.81284 0.0
C4316 C 0.23794 0.98827 0.80711 0.0
C4317 C 0.26464 0.01191 0.82189 0.0
C4318 C 0.28369 0.01799 0.82702 0.0
C4319 C 0.29412 0.01538 0.81349 0.0
C4320 C 0.31207 0.02106 0.81842 0.0
C4321 C 0.31974 0.02949 0.83681 0.0
C4322 C 0.30949 0.0323 0.85031 0.0
C4323 C 0.29153 0.02663 0.84547 0.0
H4324 H 0.33364 0.03388 0.8406 0.0
H4325 H 0.15967 0.98192 0.7897 0.0
H4326 H 0.34052 0.98371 0.02477 0.0
H4327 H 0.36967 0.0013 0.02273 0.0
H4328 H 0.38864 0.95168 0.0359 0.0
H4329 H 0.35962 0.93439 0.03882 0.0
H4330 H 0.40978 0.98221 0.05459 0.0
H4331 H 0.3835 0.96458 0.99012 0.0
H4332 H 0.36161 0.96194 0.96215 0.0
H4333 H 0.37195 0.0244 0.96809 0.0
H4334 H 0.39376 0.02741 0.99625 0.0
H4335 H 0.48022 0.02236 0.99643 0.0
H4336 H 0.45082 0.00595 0.9983 0.0
H4337 H 0.45644 0.03778 0.05394 0.0
H4338 H 0.48633 0.05376 0.05244 0.0
H4339 H 0.42305 0.01588 1.00068 0.0
H4340 H 0.43175 0.01103 0.08003 0.0
H4341 H 0.45458 0.00951 0.10567 0.0
H4342 H 0.48092 0.98433 0.06576 0.0
H4343 H 0.45816 0.98548 0.03994 0.0
C4344 C 0.35086 0.97646 0.02705 0.0
C4345 C 0.34769 0.95757 0.03185 0.0
C4346 C 0.36757 0.98654 0.02584 0.0
C4347 C 0.38143 0.97779 0.02894 0.0
C4348 C 0.37822 0.95882 0.03348 0.0
C4349 C 0.36156 0.94886 0.03502 0.0
C4350 C 0.3993 0.98855 0.02784 0.0
C4351 C 0.41265 0.98955 0.04278 0.0
C4352 C 0.40322 0.99795 0.01234 0.0
C4353 C 0.39014 0.99621 0.9954 0.0
C4354 C 0.38101 0.97775 0.98554 0.0
C4355 C 0.36864 0.97619 0.96964 0.0
C4356 C 0.36536 0.99299 0.96337 0.0
C4357 C 0.37449 0.0114 0.97297 0.0
C4358 C 0.38687 0.01304 0.9889 0.0
C4359 C 0.47524 0.02599 0.00907 0.0
C4360 C 0.4857 0.03935 0.02433 0.0
C4361 C 0.45834 0.01658 0.0101 0.0
C4362 C 0.45137 0.02038 0.02633 0.0
C4363 C 0.46159 0.03423 0.04139 0.0
C4364 C 0.47866 0.04346 0.04049 0.0
C4365 C 0.43353 0.00952 0.02741 0.0
C4366 C 0.42016 0.00857 0.01251 0.0
C4367 C 0.42972 0.99956 0.0426 0.0
C4368 C 0.44335 0.99855 0.05806 0.0
C4369 C 0.44239 0.00511 0.07675 0.0
C4370 C 0.45532 0.00432 0.09131 0.0
C4371 C 0.46922 0.99689 0.08734 0.0
C4372 C 0.47018 0.99015 0.06881 0.0
C4373 C 0.45728 0.99088 0.05421 0.0
H4374 H 0.47922 0.99632 0.09863 0.0
H4375 H 0.35577 0.99176 0.95106 0.0
H4376 H 0.9243 0.7013 0.78659 0.0
H4377 H 0.90051 0.7124 0.77057 0.0
H4378 H 0.87547 0.70822 0.81896 0.0
H4379 H 0.89915 0.69709 0.83513 0.0
H4380 H 0.85351 0.69104 0.78421 0.0
H4381 H 0.89689 0.75225 0.81153 0.0
H4382 H 0.92584 0.7744 0.81533 0.0
H4383 H 0.91998 0.7737 0.75576 0.0
H4384 H 0.89097 0.75166 0.75165 0.0
H4385 H 0.79382 0.74796 0.78191 0.0
H4386 H 0.81525 0.72912 0.78578 0.0
H4387 H 0.83902 0.75438 0.74187 0.0
H4388 H 0.81825 0.77449 0.73912 0.0
H4389 H 0.86228 0.75789 0.76812 0.0
H4390 H 0.81856 0.70236 0.73939 0.0
H4391 H 0.79002 0.67908 0.73233 0.0
H4392 H 0.79649 0.6658 0.78843 0.0
H4393 H 0.82497 0.6892 0.79592 0.0
C4394 C 0.91376 0.70278 0.79387 0.0
C4395 C 0.91365 0.69835 0.81219 0.0
C4396 C 0.9002 0.70913 0.78468 0.0
C4397 C 0.88629 0.71113 0.79361 0.0
C4398 C 0.8861 0.70669 0.81183 0.0
C4399 C 0.89969 0.70046 0.82109 0.0
C4400 C 0.87194 0.71804 0.78414 0.0
C4401 C 0.8553 0.70567 0.78074 0.0
C4402 C 0.87453 0.73671 0.77869 0.0
C4403 C 0.89186 0.75018 0.78128 0.0
C4404 C 0.90181 0.75678 0.79926 0.0
C4405 C 0.91821 0.76938 0.80147 0.0
C4406 C 0.92474 0.77548 0.7858 0.0
C4407 C 0.91488 0.76906 0.7679 0.0
C4408 C 0.89845 0.75655 0.76562 0.0
C4409 C 0.80327 0.749 0.77266 0.0
C4410 C 0.80439 0.76259 0.76017 0.0
C4411 C 0.81553 0.73811 0.7748 0.0
C4412 C 0.82876 0.74006 0.76397 0.0
C4413 C 0.82903 0.75262 0.75046 0.0
C4414 C 0.8171 0.764 0.74877 0.0
C4415 C 0.84344 0.73111 0.76859 0.0
C4416 C 0.86026 0.74306 0.77112 0.0
C4417 C 0.84103 0.7118 0.77265 0.0
C4418 C 0.8239 0.69764 0.76824 0.0
C4419 C 0.81386 0.69458 0.75026 0.0
C4420 C 0.79769 0.68134 0.74618 0.0
C4421 C 0.79144 0.67098 0.75993 0.0
C4422 C 0.80135 0.67382 0.77779 0.0
C4423 C 0.81753 0.68705 0.78195 0.0
H4424 H 0.77892 0.66075 0.75674 0.0
H4425 H 0.93745 0.78519 0.78753 0.0
H4426 H 0.80715 0.64942 0.02966 0.0
H4427 H 0.83244 0.63587 0.03312 0.0
H4428 H 0.86172 0.68537 0.013 0.0
H4429 H 0.83644 0.69874 0.00911 0.0
H4430 H 0.8661 0.65304 0.99529 0.0
H4431 H 0.86883 0.67852 0.05976 0.0
H4432 H 0.85777 0.68332 0.08938 0.0
H4433 H 0.84842 0.6219 0.09154 0.0
H4434 H 0.85919 0.61669 0.06176 0.0
H4435 H 0.94725 0.63012 0.01395 0.0
H4436 H 0.92382 0.64652 0.01493 0.0
H4437 H 0.89299 0.59664 0.03299 0.0
H4438 H 0.91627 0.5801 0.03194 0.0
H4439 H 0.88998 0.62993 0.0524 0.0
H4440 H 0.88622 0.60445 0.98741 0.0
H4441 H 0.89717 0.59961 0.95772 0.0
H4442 H 0.90841 0.66131 0.95667 0.0
H4443 H 0.89773 0.66654 0.98651 0.0
C4444 C 0.81905 0.65759 0.02625 0.0
C4445 C 0.81973 0.67522 0.01915 0.0
C4446 C 0.83355 0.64983 0.02828 0.0
C4447 C 0.8491 0.65961 0.02341 0.0
C4448 C 0.84991 0.67749 0.01682 0.0
C4449 C 0.83542 0.6852 0.01472 0.0
C4450 C 0.86422 0.65078 0.02419 0.0
C4451 C 0.87148 0.6483 0.0079 0.0
C4452 C 0.87105 0.64409 0.04046 0.0
C4453 C 0.86467 0.64719 0.05843 0.0
C4454 C 0.86429 0.66602 0.06647 0.0
C4455 C 0.8581 0.66881 0.0833 0.0
C4456 C 0.85236 0.65292 0.09231 0.0
C4457 C 0.85285 0.63419 0.08453 0.0
C4458 C 0.85902 0.63131 0.06768 0.0
C4459 C 0.93546 0.62257 0.01804 0.0
C4460 C 0.93369 0.60371 0.0228 0.0
C4461 C 0.92207 0.63201 0.01864 0.0
C4462 C 0.90651 0.62276 0.02385 0.0
C4463 C 0.90485 0.60413 0.02898 0.0
C4464 C 0.91824 0.5947 0.02842 0.0
C4465 C 0.89183 0.63227 0.02353 0.0
C4466 C 0.88464 0.6348 0.03985 0.0
C4467 C 0.88504 0.63903 0.0073 0.0
C4468 C 0.89134 0.6359 0.98929 0.0
C4469 C 0.89114 0.61699 0.98092 0.0
C4470 C 0.89728 0.61418 0.96405 0.0
C4471 C 0.90353 0.63015 0.95534 0.0
C4472 C 0.90359 0.64896 0.96345 0.0
C4473 C 0.89749 0.65185 0.98033 0.0
H4474 H 0.90828 0.62794 0.94228 0.0
H4475 H 0.84756 0.65511 0.10534 0.0
H4476 H 0.16165 0.12068 0.80251 0.0
H4477 H 0.17625 0.15094 0.79288 0.0
H4478 H 0.20014 0.17371 0.8503 0.0
H4479 H 0.18545 0.14368 0.86014 0.0
H4480 H 0.19094 0.20207 0.83165 0.0
H4481 H 0.22125 0.15133 0.82127 0.0
H4482 H 0.22317 0.11852 0.80805 0.0
H4483 H 0.20878 0.13011 0.75235 0.0
H4484 H 0.20656 0.16292 0.76527 0.0
H4485 H 0.27033 0.26652 0.82371 0.0
H4486 H 0.24801 0.23964 0.83008 0.0
H4487 H 0.22539 0.22683 0.77143 0.0
H4488 H 0.24742 0.25403 0.76505 0.0
H4489 H 0.23152 0.19378 0.78789 0.0
H4490 H 0.2039 0.24488 0.79703 0.0
H4491 H 0.19993 0.27693 0.80886 0.0
H4492 H 0.20737 0.26478 0.86531 0.0
H4493 H 0.21176 0.23259 0.85379 0.0
C4494 C 0.16972 0.13226 0.81317 0.0
C4495 C 0.17253 0.12961 0.83209 0.0
C4496 C 0.17812 0.14952 0.80761 0.0
C4497 C 0.18953 0.16441 0.82083 0.0
C4498 C 0.19145 0.16236 0.83986 0.0
C4499 C 0.18307 0.14513 0.84544 0.0
C4500 C 0.20054 0.18142 0.81478 0.0
C4501 C 0.19993 0.20029 0.82223 0.0
C4502 C 0.2119 0.17904 0.80204 0.0
C4503 C 0.2136 0.1595 0.79424 0.0
C4504 C 0.21842 0.14684 0.80621 0.0
C4505 C 0.21956 0.12825 0.79878 0.0
C4506 C 0.21608 0.12223 0.77938 0.0
C4507 C 0.21147 0.1348 0.76738 0.0
C4508 C 0.21028 0.1534 0.77474 0.0
C4509 C 0.26054 0.25801 0.81221 0.0
C4510 C 0.26062 0.26225 0.79388 0.0
C4511 C 0.24778 0.24275 0.81587 0.0
C4512 C 0.23506 0.23129 0.80122 0.0
C4513 C 0.2351 0.23551 0.78291 0.0
C4514 C 0.24766 0.25103 0.7793 0.0
C4515 C 0.22214 0.21446 0.80503 0.0
C4516 C 0.22245 0.1956 0.79721 0.0
C4517 C 0.21046 0.21685 0.81735 0.0
C4518 C 0.2084 0.23641 0.82455 0.0
C4519 C 0.20496 0.24913 0.812 0.0
C4520 C 0.20256 0.26733 0.81866 0.0
C4521 C 0.2034 0.273 0.83784 0.0
C4522 C 0.20673 0.26043 0.85044 0.0
C4523 C 0.20919 0.24217 0.84385 0.0
H4524 H 0.20139 0.28708 0.84291 0.0
H4525 H 0.217 0.10786 0.77366 0.0
H4526 H 0.43121 0.10291 0.3067 0.0
H4527 H 0.41576 0.06845 0.30059 0.0
H4528 H 0.38776 0.07828 0.3456 0.0
H4529 H 0.4034 0.11253 0.35209 0.0
H4530 H 0.39895 0.04668 0.3478 0.0
H4531 H 0.36929 0.07251 0.29847 0.0
H4532 H 0.36714 0.08992 0.27127 0.0
H4533 H 0.38823 0.04882 0.24001 0.0
H4534 H 0.39071 0.0313 0.26712 0.0
H4535 H 0.33264 0.96079 0.3302 0.0
H4536 H 0.34794 0.99498 0.3326 0.0
H4537 H 0.37618 0.97932 0.2896 0.0
H4538 H 0.36092 0.94499 0.28715 0.0
H4539 H 0.3661 0.01312 0.28542 0.0
H4540 H 0.39485 0.98677 0.33452 0.0
H4541 H 0.39686 0.96936 0.36172 0.0
H4542 H 0.37746 0.01172 0.39352 0.0
H4543 H 0.37508 0.02922 0.3664 0.0
C4544 C 0.42172 0.09775 0.31525 0.0
C4545 C 0.41856 0.11049 0.3299 0.0
C4546 C 0.41284 0.07806 0.31169 0.0
C4547 C 0.40047 0.07082 0.32251 0.0
C4548 C 0.39727 0.08353 0.33708 0.0
C4549 C 0.40622 0.10314 0.34075 0.0
C4550 C 0.39111 0.04992 0.3191 0.0
C4551 C 0.39159 0.03943 0.33421 0.0
C4552 C 0.38194 0.04028 0.30123 0.0
C4553 C 0.38034 0.05072 0.28488 0.0
C4554 C 0.37358 0.06727 0.28584 0.0
C4555 C 0.37229 0.07714 0.27043 0.0
C4556 C 0.37759 0.07051 0.25394 0.0
C4557 C 0.38415 0.05395 0.2528 0.0
C4558 C 0.38549 0.04404 0.26818 0.0
C4559 C 0.3421 0.96462 0.32125 0.0
C4560 C 0.34571 0.95018 0.30863 0.0
C4561 C 0.3508 0.98416 0.32261 0.0
C4562 C 0.36339 0.98962 0.3115 0.0
C4563 C 0.36653 0.97538 0.29832 0.0
C4564 C 0.35778 0.9558 0.29691 0.0
C4565 C 0.3737 0.01008 0.31421 0.0
C4566 C 0.37348 0.02042 0.29898 0.0
C4567 C 0.38312 0.01963 0.33198 0.0
C4568 C 0.38465 0.00921 0.34837 0.0
C4569 C 0.39089 0.99229 0.34727 0.0
C4570 C 0.39211 0.98242 0.36268 0.0
C4571 C 0.38725 0.98941 0.37932 0.0
C4572 C 0.3812 0.00631 0.38061 0.0
C4573 C 0.37993 0.01622 0.36523 0.0
H4574 H 0.38821 0.98174 0.39124 0.0
H4575 H 0.37658 0.07818 0.24203 0.0
H4576 H 0.57836 0.38792 0.62282 0.0
H4577 H 0.58143 0.41589 0.60578 0.0
H4578 H 0.53094 0.39053 0.57281 0.0
H4579 H 0.52815 0.36244 0.589 0.0
H4580 H 0.54936 0.40853 0.55169 0.0
H4581 H 0.53911 0.42567 0.61453 0.0
H4582 H 0.54529 0.42979 0.64908 0.0
H4583 H 0.59407 0.46939 0.64941 0.0
H4584 H 0.58824 0.46531 0.61482 0.0
H4585 H 0.5191 0.49324 0.53427 0.0
H4586 H 0.52368 0.4636 0.54603 0.0
H4587 H 0.57778 0.4911 0.56333 0.0
H4588 H 0.57345 0.52054 0.55134 0.0
H4589 H 0.56105 0.47311 0.5916 0.0
H4590 H 0.5682 0.45824 0.52766 0.0
H4591 H 0.55983 0.45446 0.49332 0.0
H4592 H 0.51421 0.41065 0.49545 0.0
H4593 H 0.52217 0.41439 0.52985 0.0
C4594 C 0.56813 0.38807 0.61159 0.0
C4595 C 0.55291 0.37299 0.60752 0.0
C4596 C 0.5698 0.4042 0.60198 0.0
C4597 C 0.5562 0.40568 0.58831 0.0
C4598 C 0.5416 0.38994 0.58333 0.0
C4599 C 0.54 0.37382 0.59273 0.0
C4600 C 0.55637 0.42396 0.58004 0.0
C4601 C 0.55186 0.4226 0.56048 0.0
C4602 C 0.55982 0.44251 0.59134 0.0
C4603 C 0.56334 0.445 0.61211 0.0
C4604 C 0.5512 0.43515 0.62197 0.0
C4605 C 0.55463 0.43749 0.64156 0.0
C4606 C 0.57009 0.44979 0.65143 0.0
C4607 C 0.58212 0.45983 0.64174 0.0
C4608 C 0.57876 0.45751 0.62215 0.0
C4609 C 0.53199 0.49293 0.54044 0.0
C4610 C 0.54589 0.5093 0.54181 0.0
C4611 C 0.53459 0.47598 0.54713 0.0
C4612 C 0.55109 0.47514 0.55554 0.0
C4613 C 0.56496 0.49142 0.5569 0.0
C4614 C 0.56244 0.50822 0.54995 0.0
C4615 C 0.55377 0.4575 0.56341 0.0
C4616 C 0.55879 0.45903 0.58286 0.0
C4617 C 0.55049 0.43909 0.55205 0.0
C4618 C 0.54571 0.43673 0.53135 0.0
C4619 C 0.55631 0.44792 0.52083 0.0
C4620 C 0.55165 0.44576 0.50135 0.0
C4621 C 0.53648 0.43236 0.49221 0.0
C4622 C 0.52595 0.42104 0.50254 0.0
C4623 C 0.53054 0.42316 0.52203 0.0
H4624 H 0.53289 0.4307 0.47713 0.0
H4625 H 0.57273 0.45159 0.66659 0.0
H4626 H 0.46717 0.80657 0.34638 0.0
H4627 H 0.43888 0.80883 0.3316 0.0
H4628 H 0.41708 0.78884 0.37869 0.0
H4629 H 0.44525 0.78571 0.39313 0.0
H4630 H 0.39644 0.77115 0.34939 0.0
H4631 H 0.42355 0.83783 0.37024 0.0
H4632 H 0.44613 0.86855 0.37499 0.0
H4633 H 0.43993 0.86829 0.31548 0.0
H4634 H 0.41746 0.8374 0.31035 0.0
H4635 H 0.32793 0.82419 0.3083 0.0
H4636 H 0.35617 0.82602 0.32663 0.0
H4637 H 0.35694 0.77097 0.29527 0.0
H4638 H 0.32851 0.76894 0.27729 0.0
H4639 H 0.38708 0.82821 0.32024 0.0
H4640 H 0.37633 0.74467 0.32228 0.0
H4641 H 0.35225 0.71638 0.32242 0.0
H4642 H 0.32335 0.75457 0.34489 0.0
H4643 H 0.34735 0.78304 0.34516 0.0
C4644 C 0.4564 0.80282 0.3537 0.0
C4645 C 0.45854 0.79603 0.37101 0.0
C4646 C 0.44018 0.80422 0.34525 0.0
C4647 C 0.42575 0.79927 0.35408 0.0
C4648 C 0.42794 0.79275 0.37152 0.0
C4649 C 0.44412 0.79107 0.37985 0.0
C4650 C 0.40832 0.80009 0.34474 0.0
C4651 C 0.39445 0.78367 0.34307 0.0
C4652 C 0.40541 0.81661 0.33693 0.0
C4653 C 0.41891 0.8352 0.33991 0.0
C4654 C 0.42709 0.84424 0.35816 0.0
C4655 C 0.43985 0.8617 0.36092 0.0
C4656 C 0.44449 0.87034 0.34554 0.0
C4657 C 0.43634 0.86156 0.32737 0.0
C4658 C 0.42357 0.84409 0.32453 0.0
C4659 C 0.33425 0.81264 0.30517 0.0
C4660 C 0.32608 0.79647 0.29133 0.0
C4661 C 0.35038 0.81365 0.31569 0.0
C4662 C 0.35866 0.79851 0.31257 0.0
C4663 C 0.35071 0.78265 0.29827 0.0
C4664 C 0.3345 0.78155 0.2879 0.0
C4665 C 0.37542 0.79906 0.32444 0.0
C4666 C 0.38913 0.81573 0.3266 0.0
C4667 C 0.37799 0.78311 0.33342 0.0
C4668 C 0.36359 0.766 0.33356 0.0
C4669 C 0.36488 0.74702 0.32734 0.0
C4670 C 0.35123 0.73095 0.32733 0.0
C4671 C 0.33626 0.73368 0.33361 0.0
C4672 C 0.33493 0.75248 0.33998 0.0
C4673 C 0.34854 0.76859 0.34004 0.0
H4674 H 0.32571 0.72122 0.33357 0.0
H4675 H 0.45438 0.88385 0.34771 0.0
H4676 H 0.07023 0.77922 0.13242 0.0
H4677 H 0.07195 0.74619 0.12063 0.0
H4678 H 0.02247 0.73612 0.08516 0.0
H4679 H 0.02054 0.76891 0.09693 0.0
H4680 H 0.02401 0.70611 0.10373 0.0
H4681 H 0.06006 0.7444 0.06728 0.0
H4682 H 0.08429 0.77041 0.06261 0.0
H4683 H 0.12008 0.74467 0.09366 0.0
H4684 H 0.09602 0.71863 0.09872 0.0
H4685 H 0.01963 0.62212 0.04091 0.0
H4686 H 0.02171 0.65531 0.05538 0.0
H4687 H 0.07172 0.65798 0.08672 0.0
H4688 H 0.06992 0.62463 0.07186 0.0
H4689 H 0.07169 0.69138 0.07318 0.0
H4690 H 0.03578 0.65192 0.10802 0.0
H4691 H 0.01156 0.62569 0.11233 0.0
H4692 H 0.97559 0.65356 0.0846 0.0
H4693 H 0.99961 0.67985 0.0799 0.0
C4694 C 0.05975 0.77004 0.12201 0.0
C4695 C 0.04523 0.7768 0.11565 0.0
C4696 C 0.06078 0.75115 0.11525 0.0
C4697 C 0.04736 0.73867 0.10193 0.0
C4698 C 0.03296 0.74544 0.09546 0.0
C4699 C 0.03192 0.76427 0.10218 0.0
C4700 C 0.04799 0.71835 0.095 0.0
C4701 C 0.03436 0.70292 0.09689 0.0
C4702 C 0.06176 0.71408 0.08662 0.0
C4703 C 0.07623 0.7297 0.08356 0.0
C4704 C 0.07309 0.74438 0.07325 0.0
C4705 C 0.08679 0.75911 0.0705 0.0
C4706 C 0.10371 0.75923 0.07788 0.0
C4707 C 0.10696 0.74458 0.08798 0.0
C4708 C 0.0933 0.72983 0.09078 0.0
C4709 C 0.03108 0.62964 0.05094 0.0
C4710 C 0.04455 0.62056 0.05535 0.0
C4711 C 0.03222 0.64868 0.05926 0.0
C4712 C 0.04673 0.65907 0.07243 0.0
C4713 C 0.06036 0.65022 0.07668 0.0
C4714 C 0.05928 0.63113 0.06822 0.0
C4715 C 0.04753 0.67919 0.08159 0.0
C4716 C 0.06142 0.69456 0.08017 0.0
C4717 C 0.03401 0.68344 0.09046 0.0
C4718 C 0.01951 0.66779 0.0935 0.0
C4719 C 0.02271 0.65241 0.10275 0.0
C4720 C 0.00902 0.63753 0.10528 0.0
C4721 C 0.99205 0.63794 0.09871 0.0
C4722 C 0.98874 0.65326 0.08967 0.0
C4723 C 0.00239 0.66817 0.0871 0.0
H4724 H 0.98147 0.6264 0.10066 0.0
H4725 H 0.11431 0.77064 0.07574 0.0
H4726 H 0.05876 0.31276 0.88988 0.0
H4727 H 0.08709 0.32 0.88025 0.0
H4728 H 0.07704 0.26063 0.85244 0.0
H4729 H 0.04896 0.25322 0.86226 0.0
H4730 H 0.10956 0.27248 0.87024 0.0
H4731 H 0.07191 0.29861 0.82823 0.0
H4732 H 0.05199 0.31916 0.82034 0.0
H4733 H 0.09094 0.37049 0.84686 0.0
H4734 H 0.11103 0.3502 0.85511 0.0
H4735 H 0.1632 0.27696 0.80196 0.0
H4736 H 0.13908 0.27392 0.81905 0.0
H4737 H 0.15798 0.33426 0.84459 0.0
H4738 H 0.18206 0.33753 0.82708 0.0
H4739 H 0.12328 0.32497 0.83162 0.0
H4740 H 0.16212 0.2991 0.87036 0.0
H4741 H 0.18238 0.27858 0.87665 0.0
H4742 H 0.14173 0.22697 0.85587 0.0
H4743 H 0.12123 0.24721 0.84921 0.0
C4744 C 0.06263 0.30122 0.88182 0.0
C4745 C 0.0515 0.28243 0.87675 0.0
C4746 C 0.07882 0.30539 0.87626 0.0
C4747 C 0.08416 0.29093 0.8654 0.0
C4748 C 0.07326 0.27205 0.8608 0.0
C4749 C 0.05713 0.26786 0.86638 0.0
C4750 C 0.10078 0.29544 0.8582 0.0
C4751 C 0.1125 0.2839 0.86172 0.0
C4752 C 0.10493 0.31068 0.84748 0.0
C4753 C 0.09289 0.32288 0.84247 0.0
C4754 C 0.07618 0.31426 0.8325 0.0
C4755 C 0.06487 0.32587 0.82794 0.0
C4756 C 0.07018 0.34612 0.83315 0.0
C4757 C 0.08683 0.35481 0.84287 0.0
C4758 C 0.09819 0.34326 0.84748 0.0
C4759 C 0.1622 0.28964 0.81113 0.0
C4760 C 0.17448 0.30754 0.81304 0.0
C4761 C 0.14848 0.28782 0.82105 0.0
C4762 C 0.14676 0.30382 0.83323 0.0
C4763 C 0.15905 0.32171 0.83529 0.0
C4764 C 0.17286 0.32352 0.82539 0.0
C4765 C 0.13185 0.30178 0.84339 0.0
C4766 C 0.12047 0.31376 0.8404 0.0
C4767 C 0.12803 0.28697 0.85461 0.0
C4768 C 0.14015 0.27469 0.85918 0.0
C4769 C 0.1575 0.28337 0.86706 0.0
C4770 C 0.16904 0.27179 0.87069 0.0
C4771 C 0.16336 0.25148 0.86661 0.0
C4772 C 0.14611 0.24271 0.85901 0.0
C4773 C 0.13451 0.25423 0.85534 0.0
H4774 H 0.17233 0.24254 0.86936 0.0
H4775 H 0.06141 0.35507 0.82961 0.0
H4776 H 0.48806 0.74172 0.95935 0.0
H4777 H 0.49509 0.71568 0.97519 0.0
H4778 H 0.54595 0.72896 0.96074 0.0
H4779 H 0.53873 0.75477 0.94412 0.0
H4780 H 0.53448 0.69165 0.95518 0.0
H4781 H 0.53831 0.74048 0.00685 0.0
H4782 H 0.52941 0.76575 0.02652 0.0
H4783 H 0.48537 0.72298 0.03472 0.0
H4784 H 0.49388 0.69749 0.01488 0.0
H4785 H 0.54866 0.638 0.04182 0.0
H4786 H 0.54677 0.66756 0.02862 0.0
H4787 H 0.51441 0.63255 0.97858 0.0
H4788 H 0.51636 0.60286 0.9916 0.0
H4789 H 0.52094 0.6831 0.01847 0.0
H4790 H 0.52348 0.65455 0.94053 0.0
H4791 H 0.53697 0.6318 0.9233 0.0
H4792 H 0.57595 0.63836 0.97165 0.0
H4793 H 0.56288 0.66134 0.98906 0.0
C4794 C 0.50084 0.73934 0.95967 0.0
C4795 C 0.51284 0.75052 0.95047 0.0
C4796 C 0.50488 0.7244 0.96885 0.0
C4797 C 0.52116 0.72041 0.96947 0.0
C4798 C 0.53329 0.73169 0.96051 0.0
C4799 C 0.52918 0.74656 0.9511 0.0
C4800 C 0.52516 0.70405 0.97893 0.0
C4801 C 0.53153 0.68984 0.96903 0.0
C4802 C 0.52185 0.70183 0.99727 0.0
C4803 C 0.51668 0.7171 0.00925 0.0
C4804 C 0.52667 0.73649 0.01274 0.0
C4805 C 0.5217 0.75085 0.02394 0.0
C4806 C 0.50682 0.74599 0.03184 0.0
C4807 C 0.49689 0.72673 0.02859 0.0
C4808 C 0.50179 0.71231 0.01738 0.0
C4809 C 0.54107 0.63653 0.02803 0.0
C4810 C 0.53265 0.61798 0.0178 0.0
C4811 C 0.54 0.6535 0.02051 0.0
C4812 C 0.53057 0.65234 0.00253 0.0
C4813 C 0.52196 0.63385 0.99238 0.0
C4814 C 0.523 0.61686 0.9999 0.0
C4815 C 0.52966 0.67044 0.99445 0.0
C4816 C 0.52389 0.68496 0.00463 0.0
C4817 C 0.53411 0.67327 0.97667 0.0
C4818 C 0.54209 0.65954 0.96616 0.0
C4819 C 0.53496 0.6512 0.94746 0.0
C4820 C 0.54252 0.63824 0.93766 0.0
C4821 C 0.55725 0.63357 0.94639 0.0
C4822 C 0.5645 0.64192 0.96492 0.0
C4823 C 0.55701 0.65489 0.97476 0.0
H4824 H 0.56306 0.62353 0.93878 0.0
H4825 H 0.50299 0.75713 0.0405 0.0
H4826 H 0.09816 0.82764 0.71667 0.0
H4827 H 0.12816 0.82873 0.72814 0.0
H4828 H 0.14105 0.8394 0.67421 0.0
H4829 H 0.11078 0.83787 0.66242 0.0
H4830 H 0.15698 0.81411 0.68659 0.0
H4831 H 0.15175 0.87636 0.71256 0.0
H4832 H 0.1392 0.9002 0.72955 0.0
H4833 H 0.14817 0.87558 0.7799 0.0
H4834 H 0.16055 0.8514 0.76314 0.0
H4835 H 0.24642 0.85845 0.75313 0.0
H4836 H 0.21861 0.862 0.73785 0.0
H4837 H 0.19777 0.79984 0.73206 0.0
H4838 H 0.22547 0.7961 0.74698 0.0
H4839 H 0.18775 0.85499 0.74688 0.0
H4840 H 0.16868 0.78327 0.69295 0.0
H4841 H 0.18253 0.76295 0.67331 0.0
H4842 H 0.22469 0.8125 0.67491 0.0
H4843 H 0.21109 0.83309 0.69451 0.0
C4844 C 0.10734 0.83025 0.7072 0.0
C4845 C 0.10203 0.83275 0.68861 0.0
C4846 C 0.12456 0.83098 0.71384 0.0
C4847 C 0.137 0.83449 0.70218 0.0
C4848 C 0.13173 0.83675 0.68353 0.0
C4849 C 0.11442 0.83591 0.6768 0.0
C4850 C 0.15537 0.83536 0.70946 0.0
C4851 C 0.1637 0.82309 0.69975 0.0
C4852 C 0.16441 0.84746 0.72639 0.0
C4853 C 0.15696 0.86196 0.73654 0.0
C4854 C 0.15093 0.87593 0.72722 0.0
C4855 C 0.14386 0.88952 0.73681 0.0
C4856 C 0.14286 0.88938 0.75578 0.0
C4857 C 0.14894 0.87566 0.7652 0.0
C4858 C 0.15601 0.86202 0.75567 0.0
C4859 C 0.23593 0.84551 0.74859 0.0
C4860 C 0.23826 0.82697 0.75129 0.0
C4861 C 0.22001 0.84758 0.73986 0.0
C4862 C 0.20612 0.83116 0.73353 0.0
C4863 C 0.20836 0.8127 0.73645 0.0
C4864 C 0.22423 0.81061 0.74514 0.0
C4865 C 0.18912 0.83327 0.72431 0.0
C4866 C 0.18105 0.84608 0.73368 0.0
C4867 C 0.1805 0.82207 0.70681 0.0
C4868 C 0.18892 0.80967 0.69532 0.0
C4869 C 0.18091 0.78981 0.68911 0.0
C4870 C 0.18873 0.77824 0.67801 0.0
C4871 C 0.2045 0.78641 0.6729 0.0
C4872 C 0.21252 0.80615 0.67895 0.0
C4873 C 0.20479 0.81777 0.69011 0.0
H4874 H 0.21047 0.77746 0.6642 0.0
H4875 H 0.13739 0.89992 0.76319 0.0
H4876 H 0.98993 0.35774 0.44922 0.0
H4877 H 0.99846 0.39279 0.46058 0.0
H4878 H 0.05098 0.39392 0.45503 0.0
H4879 H 0.04246 0.3587 0.443 0.0
H4880 H 0.03995 0.41316 0.49331 0.0
H4881 H 0.03825 0.41241 0.42591 0.0
H4882 H 0.02387 0.40142 0.39301 0.0
H4883 H 0.98128 0.42482 0.40453 0.0
H4884 H 0.99531 0.43571 0.4376 0.0
H4885 H 0.0713 0.51368 0.51916 0.0
H4886 H 0.06681 0.4807 0.50229 0.0
H4887 H 0.01597 0.48268 0.4765 0.0
H4888 H 0.0211 0.51641 0.49241 0.0
H4889 H 0.02671 0.4612 0.45307 0.0
H4890 H 0.02469 0.4609 0.51796 0.0
H4891 H 0.03457 0.46983 0.55212 0.0
H4892 H 0.0785 0.44634 0.54749 0.0
H4893 H 0.069 0.4375 0.51325 0.0
C4894 C 0.00335 0.36533 0.45049 0.0
C4895 C 0.01554 0.3553 0.44526 0.0
C4896 C 0.00816 0.38542 0.4569 0.0
C4897 C 0.02531 0.39596 0.45855 0.0
C4898 C 0.03765 0.38603 0.45377 0.0
C4899 C 0.03277 0.36592 0.44694 0.0
C4900 C 0.03019 0.41729 0.46553 0.0
C4901 C 0.03744 0.42377 0.48446 0.0
C4902 C 0.02604 0.43092 0.45419 0.0
C4903 C 0.01775 0.42469 0.43426 0.0
C4904 C 0.02575 0.41506 0.42147 0.0
C4905 C 0.01768 0.40888 0.40278 0.0
C4906 C 1.00166 0.41238 0.39669 0.0
C4907 C 0.99369 0.42211 0.40927 0.0
C4908 C 1.0017 0.42831 0.42798 0.0
C4909 C 0.05935 0.50723 0.50949 0.0
C4910 C 0.04656 0.51755 0.50706 0.0
C4911 C 0.05667 0.48825 0.50002 0.0
C4912 C 0.04078 0.47874 0.48858 0.0
C4913 C 0.02831 0.4895 0.48531 0.0
C4914 C 0.03124 0.50882 0.49436 0.0
C4915 C 0.03692 0.45739 0.48097 0.0
C4916 C 0.02958 0.45079 0.46198 0.0
C4917 C 0.04048 0.44347 0.49243 0.0
C4918 C 0.04623 0.44873 0.51302 0.0
C4919 C 0.03652 0.45776 0.52421 0.0
C4920 C 0.04205 0.46279 0.54359 0.0
C4921 C 0.05718 0.45871 0.55196 0.0
C4922 C 0.0668 0.44953 0.54098 0.0
C4923 C 0.06134 0.44449 0.52159 0.0
H4924 H 0.06144 0.46261 0.56697 0.0
H4925 H 0.99543 0.40758 0.38222 0.0
H4926 H 0.51443 0.29519 0.1931 0.0
H4927 H 0.48748 0.29186 0.20557 0.0
H4928 H 0.46465 0.3123 0.15717 0.0
H4929 H 0.49147 0.316 0.14487 0.0
H4930 H 0.46217 0.33341 0.18874 0.0
H4931 H 0.45134 0.26508 0.1652 0.0
H4932 H 0.45748 0.23261 0.16151 0.0
H4933 H 0.45971 0.23179 0.22061 0.0
H4934 H 0.4539 0.26442 0.22472 0.0
H4935 H 0.37913 0.32623 0.20941 0.0
H4936 H 0.40255 0.31967 0.19379 0.0
H4937 H 0.42392 0.29915 0.2429 0.0
H4938 H 0.40042 0.30552 0.25856 0.0
H4939 H 0.427 0.27709 0.21132 0.0
H4940 H 0.43987 0.3453 0.23553 0.0
H4941 H 0.43428 0.37799 0.24029 0.0
H4942 H 0.42923 0.37924 0.18105 0.0
H4943 H 0.43456 0.3464 0.1759 0.0
C4944 C 0.50353 0.29854 0.18491 0.0
C4945 C 0.50516 0.30597 0.16803 0.0
C4946 C 0.48811 0.29658 0.19204 0.0
C4947 C 0.47403 0.30188 0.18232 0.0
C4948 C 0.47535 0.30821 0.16495 0.0
C4949 C 0.49073 0.31024 0.15789 0.0
C4950 C 0.45864 0.30293 0.19103 0.0
C4951 C 0.45432 0.32097 0.19336 0.0
C4952 C 0.44878 0.28691 0.19774 0.0
C4953 C 0.45238 0.26733 0.1953 0.0
C4954 C 0.45333 0.25808 0.17745 0.0
C4955 C 0.45671 0.23963 0.17528 0.0
C4956 C 0.45904 0.23018 0.19083 0.0
C4957 C 0.45795 0.23915 0.20858 0.0
C4958 C 0.4546 0.25763 0.21084 0.0
C4959 C 0.3888 0.32028 0.21686 0.0
C4960 C 0.38805 0.31662 0.2353 0.0
C4961 C 0.40215 0.31648 0.20791 0.0
C4962 C 0.41516 0.30923 0.21729 0.0
C4963 C 0.41404 0.30476 0.23539 0.0
C4964 C 0.40061 0.30842 0.24432 0.0
C4965 C 0.43044 0.30745 0.20865 0.0
C4966 C 0.43482 0.28942 0.20653 0.0
C4967 C 0.44053 0.32351 0.20225 0.0
C4968 C 0.43744 0.34331 0.20531 0.0
C4969 C 0.43745 0.35248 0.2235 0.0
C4970 C 0.43434 0.37105 0.22627 0.0
C4971 C 0.43136 0.38066 0.21098 0.0
C4972 C 0.43152 0.37176 0.19288 0.0
C4973 C 0.43459 0.35318 0.19003 0.0
H4974 H 0.42896 0.39504 0.21315 0.0
H4975 H 0.46165 0.21588 0.18911 0.0
H4976 H 0.61693 0.54709 0.3476 0.0
H4977 H 0.59671 0.5425 0.36971 0.0
H4978 H 0.63661 0.5768 0.41446 0.0
H4979 H 0.65687 0.58095 0.39261 0.0
H4980 H 0.62236 0.544 0.42473 0.0
H4981 H 0.60127 0.59327 0.39591 0.0
H4982 H 0.58972 0.60835 0.36985 0.0
H4983 H 0.54562 0.55943 0.35492 0.0
H4984 H 0.55702 0.54394 0.38077 0.0
H4985 H 0.57419 0.57154 0.49336 0.0
H4986 H 0.59162 0.56998 0.46874 0.0
H4987 H 0.55234 0.5213 0.43672 0.0
H4988 H 0.53508 0.52225 0.46193 0.0
H4989 H 0.56421 0.55672 0.41837 0.0
H4990 H 0.58492 0.50928 0.44983 0.0
H4991 H 0.59721 0.49491 0.47601 0.0
H4992 H 0.64263 0.5422 0.48694 0.0
H4993 H 0.63053 0.55703 0.46093 0.0
C4994 C 0.62127 0.55401 0.36207 0.0
C4995 C 0.63853 0.56426 0.3684 0.0
C4996 C 0.6097 0.55135 0.37471 0.0
C4997 C 0.61516 0.55922 0.39379 0.0
C4998 C 0.63215 0.57039 0.39985 0.0
C4999 C 0.64372 0.57283 0.38731 0.0
C5000 C 0.60367 0.55485 0.40775 0.0
C5001 C 0.60972 0.547 0.42341 0.0
C5002 C 0.58693 0.5581 0.40573 0.0
C5003 C 0.5801 0.56733 0.39012 0.0
C5004 C 0.58919 0.58564 0.38696 0.0
C5005 C 0.58265 0.59428 0.37225 0.0
C5006 C 0.56698 0.58482 0.3607 0.0
C5007 C 0.55778 0.56672 0.36386 0.0
C5008 C 0.56426 0.55801 0.37854 0.0
C5009 C 0.56946 0.56019 0.48134 0.0
C5010 C 0.55337 0.54695 0.47963 0.0
C5011 C 0.5794 0.55935 0.46726 0.0
C5012 C 0.57326 0.54549 0.45101 0.0
C5013 C 0.55728 0.53203 0.44926 0.0
C5014 C 0.54748 0.53258 0.46363 0.0
C5015 C 0.58312 0.54633 0.43541 0.0
C5016 C 0.57678 0.55354 0.4195 0.0
C5017 C 0.59969 0.54274 0.43731 0.0
C5018 C 0.60673 0.53435 0.45349 0.0
C5019 C 0.59742 0.51677 0.45796 0.0
C5020 C 0.6044 0.5085 0.47271 0.0
C5021 C 0.6207 0.51762 0.48308 0.0
C5022 C 0.63002 0.53514 0.47885 0.0
C5023 C 0.62311 0.54347 0.46408 0.0
H5024 H 0.62614 0.51108 0.49436 0.0
H5025 H 0.56193 0.59155 0.34933 0.0
H5026 H 0.3131 0.86241 0.07658 0.0
H5027 H 0.30894 0.84914 0.10545 0.0
H5028 H 0.27664 0.88796 0.11768 0.0
H5029 H 0.28031 0.90082 0.08845 0.0
H5030 H 0.31929 0.86538 0.13921 0.0
H5031 H 0.25017 0.87091 0.14843 0.0
H5032 H 0.22175 0.86736 0.12914 0.0
H5033 H 0.23502 0.83085 0.08516 0.0
H5034 H 0.26341 0.8339 0.10431 0.0
H5035 H 0.3093 0.85891 0.2341 0.0
H5036 H 0.31004 0.86923 0.2033 0.0
H5037 H 0.27212 0.81631 0.17767 0.0
H5038 H 0.27097 0.80616 0.20835 0.0
H5039 H 0.26433 0.84503 0.16262 0.0
H5040 H 0.31625 0.82359 0.17502 0.0
H5041 H 0.3441 0.82265 0.19312 0.0
H5042 H 0.36426 0.88335 0.1908 0.0
H5043 H 0.33644 0.8847 0.17288 0.0
C5044 C 0.30477 0.86783 0.08518 0.0
C5045 C 0.29701 0.88268 0.08007 0.0
C5046 C 0.3025 0.86031 0.10183 0.0
C5047 C 0.2925 0.86749 0.11397 0.0
C5048 C 0.28422 0.88185 0.10856 0.0
C5049 C 0.28631 0.88922 0.09174 0.0
C5050 C 0.2917 0.8608 0.13269 0.0
C5051 C 0.30721 0.86088 0.14422 0.0
C5052 C 0.27602 0.85471 0.13942 0.0
C5053 C 0.25902 0.85288 0.12772 0.0
C5054 C 0.24702 0.86212 0.13465 0.0
C5055 C 0.23091 0.86018 0.12374 0.0
C5056 C 0.22661 0.84897 0.10589 0.0
C5057 C 0.2384 0.83961 0.09894 0.0
C5058 C 0.25452 0.84147 0.10981 0.0
C5059 C 0.30117 0.8494 0.22191 0.0
C5060 C 0.29019 0.83159 0.22382 0.0
C5061 C 0.30163 0.85531 0.20424 0.0
C5062 C 0.29127 0.84349 0.18797 0.0
C5063 C 0.28024 0.82577 0.1899 0.0
C5064 C 0.2797 0.8199 0.20753 0.0
C5065 C 0.29185 0.84948 0.16898 0.0
C5066 C 0.27635 0.84943 0.15749 0.0
C5067 C 0.30747 0.85506 0.16205 0.0
C5068 C 0.32422 0.85429 0.17277 0.0
C5069 C 0.32659 0.83677 0.17848 0.0
C5070 C 0.34237 0.83616 0.18869 0.0
C5071 C 0.35593 0.85295 0.19315 0.0
C5072 C 0.35374 0.87037 0.18736 0.0
C5073 C 0.33798 0.87106 0.17717 0.0
H5074 H 0.36814 0.85245 0.20105 0.0
H5075 H 0.21413 0.84749 0.09747 0.0
H5076 H 0.98843 0.63538 0.85161 0.0
H5077 H 0.99678 0.62231 0.88003 0.0
H5078 H 0.98743 0.67147 0.91388 0.0
H5079 H 0.97849 0.68446 0.88531 0.0
H5080 H 0.0225 0.65906 0.92192 0.0
H5081 H 0.96045 0.63691 0.91373 0.0
H5082 H 0.93195 0.62115 0.89461 0.0
H5083 H 0.94723 0.56745 0.88454 0.0
H5084 H 0.97602 0.58305 0.90311 0.0
H5085 H 0.0431 0.61982 0.00352 0.0
H5086 H 0.02848 0.63598 0.98085 0.0
H5087 H 0.01019 0.5813 0.94299 0.0
H5088 H 0.02368 0.5649 0.9664 0.0
H5089 H 0.98702 0.59922 0.93887 0.0
H5090 H 0.04804 0.61907 0.94024 0.0
H5091 H 0.07857 0.6328 0.9545 0.0
H5092 H 0.06763 0.68762 0.97259 0.0
H5093 H 0.03698 0.67412 0.95861 0.0
C5094 C 0.98819 0.64346 0.86509 0.0
C5095 C 0.98292 0.66099 0.86631 0.0
C5096 C 0.99286 0.63592 0.88126 0.0
C5097 C 0.99261 0.64592 0.89892 0.0
C5098 C 0.98761 0.66357 0.90028 0.0
C5099 C 0.98254 0.67094 0.88403 0.0
C5100 C 0.99806 0.63795 0.91587 0.0
C5101 C 0.01465 0.64625 0.92599 0.0
C5102 C 0.98796 0.62079 0.92047 0.0
C5103 C 0.97048 0.61123 0.90969 0.0
C5104 C 0.95781 0.6218 0.90728 0.0
C5105 C 0.94159 0.61289 0.89654 0.0
C5106 C 0.9378 0.59333 0.8883 0.0
C5107 C 0.9502 0.58262 0.89088 0.0
C5108 C 0.96647 0.5915 0.9015 0.0
C5109 C 0.03586 0.6113 0.99037 0.0
C5110 C 0.03471 0.59126 0.98644 0.0
C5111 C 0.02757 0.62053 0.97739 0.0
C5112 C 0.01865 0.61003 0.9599 0.0
C5113 C 0.01704 0.58979 0.95631 0.0
C5114 C 0.02483 0.58044 0.96959 0.0
C5115 C 0.0117 0.6202 0.94505 0.0
C5116 C 0.99484 0.61225 0.93517 0.0
C5117 C 0.02179 0.63736 0.9402 0.0
C5118 C 0.0402 0.64552 0.94858 0.0
C5119 C 0.05214 0.63401 0.94737 0.0
C5120 C 0.06946 0.64175 0.95538 0.0
C5121 C 0.07502 0.66105 0.96449 0.0
C5122 C 0.06329 0.67266 0.96556 0.0
C5123 C 0.04595 0.66498 0.95758 0.0
H5124 H 0.08844 0.66702 0.97069 0.0
H5125 H 0.92525 0.58647 0.87998 0.0
H5126 H 0.31479 0.25372 0.57215 0.0
H5127 H 0.31122 0.26462 0.60408 0.0
H5128 H 0.25811 0.23201 0.59181 0.0
H5129 H 0.26157 0.22086 0.55972 0.0
H5130 H 0.2631 0.26958 0.61295 0.0
H5131 H 0.28608 0.21325 0.61544 0.0
H5132 H 0.30655 0.19321 0.60968 0.0
H5133 H 0.34809 0.23832 0.64274 0.0
H5134 H 0.3279 0.25877 0.64847 0.0
H5135 H 0.25192 0.27594 0.70909 0.0
H5136 H 0.25247 0.26443 0.67619 0.0
H5137 H 0.30766 0.28685 0.68595 0.0
H5138 H 0.30726 0.29786 0.71881 0.0
H5139 H 0.30021 0.25293 0.66554 0.0
H5140 H 0.27844 0.30994 0.66226 0.0
H5141 H 0.25884 0.33119 0.66758 0.0
H5142 H 0.21611 0.28655 0.63593 0.0
H5143 H 0.23544 0.26491 0.63062 0.0
C5144 C 0.30227 0.24896 0.5761 0.0
C5145 C 0.28849 0.2363 0.56325 0.0
C5146 C 0.30028 0.25517 0.59445 0.0
C5147 C 0.28445 0.24899 0.60047 0.0
C5148 C 0.27046 0.23695 0.58754 0.0
C5149 C 0.27249 0.23055 0.56917 0.0
C5150 C 0.28276 0.25463 0.62043 0.0
C5151 C 0.27102 0.2657 0.62446 0.0
C5152 C 0.29335 0.24996 0.6355 0.0
C5153 C 0.3055 0.23762 0.63224 0.0
C5154 C 0.2996 0.21896 0.62136 0.0
C5155 C 0.31115 0.20752 0.61812 0.0
C5156 C 0.32861 0.2145 0.6258 0.0
C5157 C 0.33456 0.23293 0.63678 0.0
C5158 C 0.32307 0.24445 0.64005 0.0
C5159 C 0.26417 0.27844 0.70423 0.0
C5160 C 0.27953 0.28786 0.7167 0.0
C5161 C 0.26447 0.27192 0.68533 0.0
C5162 C 0.2801 0.27492 0.67836 0.0
C5163 C 0.29542 0.28427 0.69085 0.0
C5164 C 0.29515 0.29063 0.70972 0.0
C5165 C 0.28066 0.26816 0.65821 0.0
C5166 C 0.2922 0.25681 0.6541 0.0
C5167 C 0.27 0.27275 0.64308 0.0
C5168 C 0.25835 0.28573 0.64622 0.0
C5169 C 0.26484 0.30459 0.65655 0.0
C5170 C 0.25378 0.31672 0.65955 0.0
C5171 C 0.23623 0.3102 0.65214 0.0
C5172 C 0.2297 0.29156 0.64168 0.0
C5173 C 0.24071 0.27937 0.63867 0.0
H5174 H 0.22769 0.31961 0.65447 0.0
H5175 H 0.33753 0.20562 0.62326 0.0
H5176 H 0.6866 0.58898 0.27313 0.0
H5177 H 0.6672 0.60689 0.25909 0.0
H5178 H 0.62807 0.5803 0.28923 0.0
H5179 H 0.6476 0.56202 0.30307 0.0
H5180 H 0.61712 0.57108 0.25353 0.0
H5181 H 0.63964 0.63174 0.29189 0.0
H5182 H 0.66021 0.66081 0.3106 0.0
H5183 H 0.68175 0.67435 0.26172 0.0
H5184 H 0.6612 0.64534 0.24264 0.0
H5185 H 0.56669 0.60149 0.17985 0.0
H5186 H 0.57937 0.60205 0.21258 0.0
H5187 H 0.63022 0.61591 0.19816 0.0
H5188 H 0.61767 0.61561 0.1656 0.0
H5189 H 0.62869 0.63607 0.23311 0.0
H5190 H 0.61014 0.56949 0.19811 0.0
H5191 H 0.58823 0.54122 0.1796 0.0
H5192 H 0.55869 0.53965 0.22425 0.0
H5193 H 0.58036 0.56808 0.24293 0.0
C5194 C 0.67411 0.58759 0.27736 0.0
C5195 C 0.66855 0.57415 0.28917 0.0
C5196 C 0.66303 0.59799 0.26945 0.0
C5197 C 0.64609 0.59499 0.27305 0.0
C5198 C 0.6411 0.58295 0.28631 0.0
C5199 C 0.65229 0.57262 0.29436 0.0
C5200 C 0.63301 0.60058 0.25981 0.0
C5201 C 0.61932 0.58554 0.24956 0.0
C5202 C 0.63589 0.61932 0.25435 0.0
C5203 C 0.64884 0.63633 0.26582 0.0
C5204 C 0.64882 0.64083 0.28513 0.0
C5205 C 0.66041 0.6574 0.29579 0.0
C5206 C 0.67221 0.66953 0.28733 0.0
C5207 C 0.67251 0.66503 0.26822 0.0
C5208 C 0.66083 0.64856 0.25746 0.0
C5209 C 0.58058 0.605 0.18376 0.0
C5210 C 0.5912 0.60826 0.17015 0.0
C5211 C 0.58779 0.60529 0.20243 0.0
C5212 C 0.60573 0.60892 0.20775 0.0
C5213 C 0.61635 0.61313 0.19436 0.0
C5214 C 0.60917 0.61272 0.17573 0.0
C5215 C 0.61353 0.60638 0.22663 0.0
C5216 C 0.62619 0.62192 0.2377 0.0
C5217 C 0.60967 0.58814 0.23297 0.0
C5218 C 0.59672 0.57103 0.22179 0.0
C5219 C 0.5989 0.56319 0.20391 0.0
C5220 C 0.58655 0.54714 0.1934 0.0
C5221 C 0.57205 0.53869 0.20072 0.0
C5222 C 0.56991 0.54624 0.21858 0.0
C5223 C 0.58221 0.56232 0.22913 0.0
H5224 H 0.5625 0.52625 0.19257 0.0
H5225 H 0.68122 0.68232 0.2956 0.0
H5226 H 0.2841 0.91039 0.97666 0.0
H5227 H 0.27927 0.89926 0.94276 0.0
H5228 H 0.30682 0.85509 0.95216 0.0
H5229 H 0.31209 0.86648 0.98583 0.0
H5230 H 0.31809 0.87233 0.92572 0.0
H5231 H 0.26101 0.84555 0.93782 0.0
H5232 H 0.23386 0.84668 0.94916 0.0
H5233 H 0.22452 0.88666 0.91159 0.0
H5234 H 0.25174 0.88595 0.90018 0.0
H5235 H 0.29417 0.80604 0.84199 0.0
H5236 H 0.29646 0.82269 0.87374 0.0
H5237 H 0.27717 0.86865 0.85178 0.0
H5238 H 0.2749 0.85187 0.81952 0.0
H5239 H 0.26178 0.85504 0.88289 0.0
H5240 H 0.31791 0.87851 0.86857 0.0
H5241 H 0.34444 0.87549 0.85673 0.0
H5242 H 0.35522 0.84027 0.89858 0.0
H5243 H 0.32859 0.84279 0.91049 0.0
C5244 C 0.28885 0.89807 0.97153 0.0
C5245 C 0.29849 0.88936 0.98408 0.0
C5246 C 0.28609 0.89169 0.95207 0.0
C5247 C 0.29265 0.87624 0.94469 0.0
C5248 C 0.30171 0.86712 0.95731 0.0
C5249 C 0.30464 0.8736 0.97667 0.0
C5250 C 0.29086 0.86998 0.92392 0.0
C5251 C 0.30571 0.8684 0.91646 0.0
C5252 C 0.27485 0.86544 0.91149 0.0
C5253 C 0.2585 0.86587 0.91832 0.0
C5254 C 0.25323 0.8547 0.93209 0.0
C5255 C 0.23782 0.85524 0.9385 0.0
C5256 C 0.2275 0.86678 0.93114 0.0
C5257 C 0.23255 0.87776 0.9173 0.0
C5258 C 0.24796 0.87728 0.91085 0.0
C5259 C 0.29042 0.81971 0.84381 0.0
C5260 C 0.28434 0.82761 0.82817 0.0
C5261 C 0.29177 0.82925 0.86205 0.0
C5262 C 0.28707 0.847 0.86525 0.0
C5263 C 0.28086 0.85496 0.84969 0.0
C5264 C 0.27964 0.84542 0.83127 0.0
C5265 C 0.28891 0.85694 0.88497 0.0
C5266 C 0.27414 0.85922 0.89219 0.0
C5267 C 0.30497 0.86202 0.89726 0.0
C5268 C 0.32117 0.86074 0.89035 0.0
C5269 C 0.32587 0.87001 0.87518 0.0
C5270 C 0.34094 0.8684 0.86846 0.0
C5271 C 0.35149 0.85767 0.87688 0.0
C5272 C 0.34703 0.84857 0.89207 0.0
C5273 C 0.33196 0.85011 0.89883 0.0
H5274 H 0.36314 0.85642 0.87164 0.0
H5275 H 0.21557 0.86718 0.93613 0.0
H5276 H 0.96065 0.64085 0.75871 0.0
H5277 H 0.97139 0.63273 0.72987 0.0
H5278 H 0.9882 0.69391 0.72622 0.0
H5279 H 0.97725 0.70221 0.75497 0.0
H5280 H 0.9762 0.67136 0.69119 0.0
H5281 H 0.01637 0.67288 0.74668 0.0
H5282 H 0.02559 0.66451 0.77772 0.0
H5283 H 0.01331 0.60387 0.75403 0.0
H5284 H 0.00378 0.61185 0.72288 0.0
H5285 H 0.0527 0.63776 0.65317 0.0
H5286 H 0.04025 0.65333 0.67774 0.0
H5287 H 0.98923 0.62218 0.64947 0.0
H5288 H 1.00154 0.60599 0.6253 0.0
H5289 H 0.02079 0.63406 0.70086 0.0
H5290 H 0.9621 0.65221 0.6571 0.0
H5291 H 0.95499 0.66324 0.62679 0.0
H5292 H 0.00855 0.68928 0.62803 0.0
H5293 H 0.01595 0.67863 0.65836 0.0
C5294 C 0.96634 0.65259 0.75162 0.0
C5295 C 0.96839 0.67219 0.75932 0.0
C5296 C 0.97247 0.64792 0.73514 0.0
C5297 C 0.98089 0.66275 0.72617 0.0
C5298 C 0.98182 0.68227 0.73301 0.0
C5299 C 0.97561 0.68697 0.74948 0.0
C5300 C 0.99023 0.65789 0.71091 0.0
C5301 C 0.98592 0.66318 0.69325 0.0
C5302 C 0.00332 0.64778 0.71382 0.0
C5303 C 0.00923 0.64295 0.73249 0.0
C5304 C 0.01554 0.65775 0.74811 0.0
C5305 C 0.02083 0.65308 0.76572 0.0
C5306 C 0.02 0.63367 0.76785 0.0
C5307 C 0.01393 0.61889 0.75236 0.0
C5308 C 0.00859 0.62348 0.73472 0.0
C5309 C 0.03883 0.6342 0.6522 0.0
C5310 C 0.02811 0.62059 0.6373 0.0
C5311 C 0.03175 0.6432 0.66616 0.0
C5312 C 0.01385 0.63897 0.66532 0.0
C5313 C 0.00308 0.62585 0.6502 0.0
C5314 C 0.01015 0.61668 0.63636 0.0
C5315 C 0.00641 0.64699 0.68097 0.0
C5316 C 0.0111 0.64228 0.69876 0.0
C5317 C 0.99398 0.65796 0.67822 0.0
C5318 C 0.98957 0.66449 0.65997 0.0
C5319 C 0.97234 0.66035 0.65093 0.0
C5320 C 0.96827 0.66653 0.63373 0.0
C5321 C 0.9813 0.67697 0.62549 0.0
C5322 C 0.99845 0.68118 0.63439 0.0
C5323 C 0.0026 0.67503 0.65156 0.0
H5324 H 0.97811 0.68186 0.61225 0.0
H5325 H 0.0241 0.63008 0.7815 0.0
H5326 H 0.29853 0.26936 0.47863 0.0
H5327 H 0.29633 0.28281 0.44916 0.0
H5328 H 0.26017 0.22946 0.42157 0.0
H5329 H 0.26183 0.21614 0.45115 0.0
H5330 H 0.29459 0.24499 0.40665 0.0
H5331 H 0.24282 0.26102 0.42201 0.0
H5332 H 0.22554 0.27582 0.44209 0.0
H5333 H 0.25931 0.33237 0.44441 0.0
H5334 H 0.27693 0.31785 0.42452 0.0
H5335 H 0.28089 0.27232 0.31559 0.0
H5336 H 0.27654 0.25911 0.34463 0.0
H5337 H 0.29564 0.317 0.37634 0.0
H5338 H 0.29986 0.33027 0.34735 0.0
H5339 H 0.26844 0.2983 0.3891 0.0
H5340 H 0.32009 0.2843 0.3745 0.0
H5341 H 0.34025 0.27113 0.35743 0.0
H5342 H 0.31052 0.21278 0.35652 0.0
H5343 H 0.28982 0.22559 0.37302 0.0
C5344 C 0.2897 0.26071 0.46643 0.0
C5345 C 0.28027 0.24171 0.46733 0.0
C5346 C 0.2885 0.2684 0.44958 0.0
C5347 C 0.27813 0.25713 0.43313 0.0
C5348 C 0.26821 0.23845 0.4341 0.0
C5349 C 0.26907 0.23091 0.45108 0.0
C5350 C 0.27898 0.26419 0.41472 0.0
C5351 C 0.28857 0.25635 0.40256 0.0
C5352 C 0.27174 0.27958 0.40982 0.0
C5353 C 0.26132 0.28831 0.42197 0.0
C5354 C 0.24669 0.27658 0.42699 0.0
C5355 C 0.23679 0.28492 0.43828 0.0
C5356 C 0.24136 0.30501 0.44457 0.0
C5357 C 0.25581 0.3168 0.43955 0.0
C5358 C 0.26574 0.30852 0.42826 0.0
C5359 C 0.28407 0.28225 0.32874 0.0
C5360 C 0.29075 0.30237 0.32914 0.0
C5361 C 0.28168 0.27465 0.34537 0.0
C5362 C 0.28594 0.28698 0.36282 0.0
C5363 C 0.29225 0.30713 0.36314 0.0
C5364 C 0.2947 0.31471 0.34653 0.0
C5365 C 0.28394 0.27894 0.38071 0.0
C5366 C 0.27428 0.28672 0.39292 0.0
C5367 C 0.29139 0.26366 0.3858 0.0
C5368 C 0.30323 0.25595 0.3748 0.0
C5369 C 0.31764 0.26867 0.37036 0.0
C5370 C 0.32923 0.26126 0.36086 0.0
C5371 C 0.32671 0.24113 0.35596 0.0
C5372 C 0.3125 0.22837 0.36039 0.0
C5373 C 0.30077 0.23571 0.36972 0.0
H5374 H 0.3357 0.23542 0.34863 0.0
H5375 H 0.23367 0.31145 0.45329 0.0
H5376 H 0.34602 0.6969 0.52036 0.0
H5377 H 0.36954 0.68054 0.52248 0.0
H5378 H 0.3389 0.63447 0.54573 0.0
H5379 H 0.31531 0.65088 0.54384 0.0
H5380 H 0.37315 0.64353 0.56233 0.0
H5381 H 0.34036 0.62825 0.49989 0.0
H5382 H 0.32658 0.63576 0.47022 0.0
H5383 H 0.37577 0.66732 0.46077 0.0
H5384 H 0.38982 0.66022 0.49054 0.0
H5385 H 0.42052 0.5727 0.54119 0.0
H5386 H 0.39823 0.59034 0.54431 0.0
H5387 H 0.42356 0.63385 0.51419 0.0
H5388 H 0.44506 0.61558 0.50973 0.0
H5389 H 0.39139 0.62566 0.50177 0.0
H5390 H 0.42448 0.64035 0.5644 0.0
H5391 H 0.43792 0.63254 0.59413 0.0
H5392 H 0.38833 0.60196 0.60338 0.0
H5393 H 0.37462 0.60934 0.5736 0.0
C5394 C 0.34436 0.68348 0.52626 0.0
C5395 C 0.3287 0.67514 0.53181 0.0
C5396 C 0.35781 0.67408 0.52737 0.0
C5397 C 0.35589 0.65608 0.53395 0.0
C5398 C 0.34067 0.64829 0.54053 0.0
C5399 C 0.32718 0.6577 0.53942 0.0
C5400 C 0.36925 0.64482 0.53274 0.0
C5401 C 0.37706 0.63946 0.54908 0.0
C5402 C 0.37451 0.63969 0.51549 0.0
C5403 C 0.36611 0.64387 0.49753 0.0
C5404 C 0.34822 0.63691 0.49155 0.0
C5405 C 0.34037 0.64108 0.47471 0.0
C5406 C 0.35029 0.65206 0.46364 0.0
C5407 C 0.3681 0.65884 0.46937 0.0
C5408 C 0.37601 0.65474 0.48622 0.0
C5409 C 0.42128 0.5859 0.53502 0.0
C5410 C 0.43473 0.59262 0.5252 0.0
C5411 C 0.40863 0.59619 0.5371 0.0
C5412 C 0.40928 0.61369 0.52977 0.0
C5413 C 0.42273 0.62046 0.52007 0.0
C5414 C 0.43521 0.61006 0.51773 0.0
C5415 C 0.39567 0.62461 0.53145 0.0
C5416 C 0.38766 0.62982 0.51511 0.0
C5417 C 0.39029 0.62958 0.54871 0.0
C5418 C 0.39854 0.62526 0.56668 0.0
C5419 C 0.41646 0.63185 0.57271 0.0
C5420 C 0.42412 0.62751 0.58958 0.0
C5421 C 0.41398 0.61672 0.6006 0.0
C5422 C 0.39616 0.61029 0.59481 0.0
C5423 C 0.38844 0.61456 0.57795 0.0
H5424 H 0.4199 0.61337 0.61364 0.0
H5425 H 0.34419 0.65527 0.4506 0.0
H5426 H 0.86967 0.94101 0.55902 0.0
H5427 H 0.89949 0.95787 0.55856 0.0
H5428 H 0.88179 0.99327 0.51985 0.0
H5429 H 0.8518 0.97661 0.52043 0.0
H5430 H 0.91159 0.97904 0.5115 0.0
H5431 H 0.89239 0.01293 0.56275 0.0
H5432 H 0.87957 0.01511 0.59146 0.0
H5433 H 0.91906 0.99253 0.62015 0.0
H5434 H 0.93197 0.98994 0.59149 0.0
H5435 H 0.98834 0.05455 0.52286 0.0
H5436 H 0.95872 0.03526 0.52022 0.0
H5437 H 0.97402 0.00959 0.56854 0.0
H5438 H 0.0036 0.02934 0.5715 0.0
H5439 H 0.94516 0.01814 0.57149 0.0
H5440 H 0.96519 0.98451 0.52209 0.0
H5441 H 0.97855 0.98084 0.4939 0.0
H5442 H 0.93865 1.00037 0.46217 0.0
H5443 H 0.92518 0.00448 0.49027 0.0
C5444 C 0.87207 0.95219 0.55019 0.0
C5445 C 0.85829 0.95748 0.5398 0.0
C5446 C 0.88916 0.96187 0.55 0.0
C5447 C 0.8929 0.97694 0.53928 0.0
C5448 C 0.87922 0.98169 0.52822 0.0
C5449 C 0.86208 0.97217 0.5286 0.0
C5450 C 0.91102 0.98843 0.54051 0.0
C5451 C 0.9189 0.9878 0.52453 0.0
C5452 C 0.92072 0.99939 0.55765 0.0
C5453 C 0.91304 0.00105 0.57492 0.0
C5454 C 0.89825 0.00827 0.57513 0.0
C5455 C 0.89098 0.00961 0.5914 0.0
C5456 C 0.89847 0.00391 0.6076 0.0
C5457 C 0.91326 0.99691 0.60758 0.0
C5458 C 0.92057 0.99552 0.59133 0.0
C5459 C 0.9854 0.0447 0.53285 0.0
C5460 C 0.99831 0.04341 0.54735 0.0
C5461 C 0.96845 0.03359 0.53129 0.0
C5462 C 0.96405 0.02065 0.544 0.0
C5463 C 0.97699 0.0194 0.55852 0.0
C5464 C 0.99392 0.03068 0.5602 0.0
C5465 C 0.94593 0.00883 0.54245 0.0
C5466 C 0.93798 0.00938 0.5584 0.0
C5467 C 0.93628 0.99756 0.52533 0.0
C5468 C 0.94424 0.99496 0.50834 0.0
C5469 C 0.95931 0.98815 0.50914 0.0
C5470 C 0.9669 0.98597 0.49317 0.0
C5471 C 0.95945 0.99036 0.47626 0.0
C5472 C 0.94439 0.99695 0.47528 0.0
C5473 C 0.93677 0.99921 0.49122 0.0
H5474 H 0.96533 0.98863 0.46391 0.0
H5475 H 0.89282 0.00496 0.62019 0.0
H5476 H 0.87042 0.08567 0.18352 0.0
H5477 H 0.85195 0.1082 0.17916 0.0
H5478 H 0.82705 0.08945 0.22477 0.0
H5479 H 0.84561 0.0672 0.22945 0.0
H5480 H 0.81612 0.11082 0.17605 0.0
H5481 H 0.83357 0.1297 0.25636 0.0
H5482 H 0.85546 0.12609 0.282 0.0
H5483 H 0.89206 0.1273 0.24449 0.0
H5484 H 0.87049 0.13127 0.21875 0.0
H5485 H 0.77121 0.17693 0.21594 0.0
H5486 H 0.7837 0.15021 0.20547 0.0
H5487 H 0.8344 0.1894 0.21847 0.0
H5488 H 0.82217 0.21588 0.22982 0.0
H5489 H 0.83382 0.15876 0.23481 0.0
H5490 H 0.81505 0.17012 0.17335 0.0
H5491 H 0.79444 0.175 0.14719 0.0
H5492 H 0.76344 0.11695 0.14493 0.0
H5493 H 0.78368 0.11185 0.17136 0.0
C5494 C 0.86057 0.0858 0.19215 0.0
C5495 C 0.85974 0.07506 0.20715 0.0
C5496 C 0.84997 0.09863 0.18957 0.0
C5497 C 0.83842 0.10072 0.20189 0.0
C5498 C 0.83605 0.08817 0.21527 0.0
C5499 C 0.84673 0.07553 0.21798 0.0
C5500 C 0.83171 0.11837 0.20356 0.0
C5501 C 0.81989 0.12133 0.18885 0.0
C5502 C 0.83713 0.13234 0.22007 0.0
C5503 C 0.85036 0.13057 0.23561 0.0
C5504 C 0.84632 0.12931 0.25363 0.0
C5505 C 0.85867 0.12719 0.26817 0.0
C5506 C 0.87512 0.1264 0.26486 0.0
C5507 C 0.8793 0.12785 0.24703 0.0
C5508 C 0.86702 0.13003 0.23246 0.0
C5509 C 0.78502 0.17987 0.21654 0.0
C5510 C 0.79571 0.19849 0.22398 0.0
C5511 C 0.7921 0.16464 0.21028 0.0
C5512 C 0.80998 0.16783 0.21116 0.0
C5513 C 0.82057 0.18663 0.21767 0.0
C5514 C 0.81353 0.2018 0.22404 0.0
C5515 C 0.81784 0.15122 0.20745 0.0
C5516 C 0.82998 0.1484 0.22189 0.0
C5517 C 0.81293 0.13774 0.19054 0.0
C5518 C 0.80083 0.14065 0.17446 0.0
C5519 C 0.80377 0.15844 0.16738 0.0
C5520 C 0.79216 0.16124 0.15249 0.0
C5521 C 0.77763 0.14631 0.14442 0.0
C5522 C 0.7747 0.12852 0.15121 0.0
C5523 C 0.78625 0.12565 0.16614 0.0
H5524 H 0.76865 0.1485 0.13288 0.0
H5525 H 0.88464 0.12471 0.27612 0.0
H5526 H 0.73128 0.18654 0.03178 0.0
H5527 H 0.70166 0.1712 0.03481 0.0
H5528 H 0.69599 0.13223 0.98307 0.0
H5529 H 0.72546 0.14753 0.97985 0.0
H5530 H 0.6674 0.14571 0.98503 0.0
H5531 H 0.70414 0.11705 0.02508 0.0
H5532 H 0.72779 0.11762 0.05061 0.0
H5533 H 0.70309 0.14597 0.09017 0.0
H5534 H 0.67939 0.1458 0.06481 0.0
H5535 H 0.59378 0.07346 0.99184 0.0
H5536 H 0.62297 0.09076 0.98961 0.0
H5537 H 0.62792 0.12442 0.04425 0.0
H5538 H 0.59893 0.10659 0.04688 0.0
H5539 H 0.65674 0.11513 0.04138 0.0
H5540 H 0.61943 0.14294 0.00182 0.0
H5541 H 0.59549 0.14204 0.97651 0.0
H5542 H 0.62095 0.11589 0.93628 0.0
H5543 H 0.64496 0.1164 0.9614 0.0
C5544 C 0.72369 0.17481 0.02097 0.0
C5545 C 0.73081 0.16821 0.00562 0.0
C5546 C 0.70677 0.16599 0.02277 0.0
C5547 C 0.69664 0.15038 0.00928 0.0
C5548 C 0.70354 0.1442 0.99367 0.0
C5549 C 0.72044 0.15295 0.99189 0.0
C5550 C 0.67901 0.14012 0.01159 0.0
C5551 C 0.66509 0.13887 0.99727 0.0
C5552 C 0.67589 0.13157 0.02775 0.0
C5553 C 0.69009 0.1316 0.04302 0.0
C5554 C 0.70382 0.12354 0.0392 0.0
C5555 C 0.71722 0.12377 0.05364 0.0
C5556 C 0.71697 0.13188 0.07199 0.0
C5557 C 0.70328 0.13972 0.07594 0.0
C5558 C 0.68986 0.13955 0.06155 0.0
C5559 C 0.60109 0.08449 0.00343 0.0
C5560 C 0.59397 0.08868 0.01951 0.0
C5561 C 0.61778 0.09449 0.00208 0.0
C5562 C 0.62759 0.10926 0.01658 0.0
C5563 C 0.62063 0.11317 0.03283 0.0
C5564 C 0.60403 0.10295 0.03431 0.0
C5565 C 0.64506 0.12062 0.01478 0.0
C5566 C 0.65899 0.12208 0.02918 0.0
C5567 C 0.64816 0.12946 0.99873 0.0
C5568 C 0.63393 0.12957 0.98352 0.0
C5569 C 0.61989 0.13693 0.98759 0.0
C5570 C 0.60631 0.13648 0.97327 0.0
C5571 C 0.60668 0.12887 0.9548 0.0
C5572 C 0.62068 0.12177 0.95059 0.0
C5573 C 0.63429 0.12215 0.96486 0.0
H5574 H 0.59613 0.12849 0.94375 0.0
H5575 H 0.72735 0.13204 0.08315 0.0
H5576 H 0.17038 0.45046 0.23477 0.0
H5577 H 0.19667 0.43862 0.23926 0.0
H5578 H 0.1823 0.41656 0.28898 0.0
H5579 H 0.15667 0.42905 0.28504 0.0
H5580 H 0.21444 0.43348 0.296 0.0
H5581 H 0.17698 0.38713 0.24439 0.0
H5582 H 0.15925 0.37695 0.21284 0.0
H5583 H 0.20313 0.40022 0.18806 0.0
H5584 H 0.22107 0.41075 0.2195 0.0
H5585 H 0.24752 0.35008 0.30258 0.0
H5586 H 0.23093 0.3745 0.29875 0.0
H5587 H 0.26414 0.40019 0.26217 0.0
H5588 H 0.28103 0.37603 0.26619 0.0
H5589 H 0.22774 0.38757 0.24681 0.0
H5590 H 0.26596 0.4274 0.30011 0.0
H5591 H 0.28257 0.43462 0.33223 0.0
H5592 H 0.23569 0.42038 0.35458 0.0
H5593 H 0.21879 0.4128 0.32258 0.0
C5594 C 0.17287 0.443 0.24658 0.0
C5595 C 0.16154 0.44067 0.25957 0.0
C5596 C 0.18786 0.43624 0.24914 0.0
C5597 C 0.19144 0.42662 0.26443 0.0
C5598 C 0.17995 0.42411 0.2772 0.0
C5599 C 0.16524 0.43117 0.27487 0.0
C5600 C 0.20698 0.41888 0.26735 0.0
C5601 C 0.21731 0.4234 0.28524 0.0
C5602 C 0.21109 0.40621 0.25316 0.0
C5603 C 0.20029 0.39997 0.23429 0.0
C5604 C 0.1828 0.39022 0.23222 0.0
C5605 C 0.17272 0.38436 0.21436 0.0
C5606 C 0.18004 0.38801 0.19846 0.0
C5607 C 0.19747 0.39746 0.20039 0.0
C5608 C 0.2076 0.40338 0.21822 0.0
C5609 C 0.25155 0.36122 0.2941 0.0
C5610 C 0.26553 0.36115 0.28467 0.0
C5611 C 0.2421 0.37517 0.29196 0.0
C5612 C 0.24637 0.38908 0.28018 0.0
C5613 C 0.26074 0.38958 0.27136 0.0
C5614 C 0.2704 0.37584 0.27377 0.0
C5615 C 0.23462 0.40158 0.27561 0.0
C5616 C 0.22507 0.398 0.25741 0.0
C5617 C 0.231 0.41477 0.2896 0.0
C5618 C 0.24111 0.41942 0.30891 0.0
C5619 C 0.25919 0.42566 0.31186 0.0
C5620 C 0.26866 0.42985 0.33006 0.0
C5621 C 0.26019 0.42794 0.34544 0.0
C5622 C 0.24223 0.42187 0.34265 0.0
C5623 C 0.2327 0.41765 0.32449 0.0
H5624 H 0.26755 0.43118 0.35951 0.0
H5625 H 0.17222 0.38345 0.18465 0.0
H5626 H 0.26703 0.47543 0.079 0.0
H5627 H 0.23987 0.48498 0.0752 0.0
H5628 H 0.22128 0.44297 0.02464 0.0
H5629 H 0.24877 0.43342 0.02823 0.0
H5630 H 0.21379 0.47734 0.01993 0.0
H5631 H 0.20614 0.43456 0.06521 0.0
H5632 H 0.21402 0.42132 0.09402 0.0
H5633 H 0.21547 0.47571 0.12745 0.0
H5634 H 0.20787 0.4894 0.09882 0.0
H5635 H 0.13068 0.4972 0.01658 0.0
H5636 H 0.15334 0.47942 0.01835 0.0
H5637 H 0.17958 0.51703 0.06986 0.0
H5638 H 0.15678 0.5344 0.0685 0.0
H5639 H 0.18077 0.48032 0.07225 0.0
H5640 H 0.19183 0.52396 0.02686 0.0
H5641 H 0.18465 0.53759 0.99807 0.0
H5642 H 0.17689 0.48131 0.96492 0.0
H5643 H 0.18381 0.46729 0.99357 0.0
C5644 C 0.25719 0.4681 0.06708 0.0
C5645 C 0.26013 0.45357 0.05395 0.0
C5646 C 0.24157 0.47354 0.06498 0.0
C5647 C 0.22835 0.46452 0.04979 0.0
C5648 C 0.23124 0.45009 0.03654 0.0
C5649 C 0.24694 0.44461 0.03863 0.0
C5650 C 0.21179 0.47065 0.04771 0.0
C5651 C 0.20637 0.4776 0.03123 0.0
C5652 C 0.20219 0.47132 0.06253 0.0
C5653 C 0.20655 0.46305 0.07983 0.0
C5654 C 0.20825 0.44375 0.07869 0.0
C5655 C 0.21265 0.43615 0.095 0.0
C5656 C 0.21528 0.44767 0.11255 0.0
C5657 C 0.21344 0.4668 0.11384 0.0
C5658 C 0.20906 0.47448 0.09757 0.0
C5659 C 0.14113 0.5015 0.02843 0.0
C5660 C 0.14195 0.5174 0.0423 0.0
C5661 C 0.15419 0.49142 0.02934 0.0
C5662 C 0.16837 0.49704 0.04409 0.0
C5663 C 0.16886 0.51244 0.05828 0.0
C5664 C 0.15586 0.52249 0.05738 0.0
C5665 C 0.18299 0.48739 0.04464 0.0
C5666 C 0.18805 0.47979 0.06085 0.0
C5667 C 0.19224 0.48612 0.02957 0.0
C5668 C 0.18813 0.49454 0.01236 0.0
C5669 C 0.18846 0.51446 0.01344 0.0
C5670 C 0.18446 0.52226 0.99715 0.0
C5671 C 0.18026 0.51031 0.97968 0.0
C5672 C 0.1801 0.49054 0.97847 0.0
C5673 C 0.18407 0.48266 0.99472 0.0
H5674 H 0.17717 0.51637 0.96709 0.0
H5675 H 0.21871 0.44177 0.12516 0.0
H5676 H 0.88808 0.99451 0.25358 0.0
H5677 H 0.87463 0.96011 0.25251 0.0
H5678 H 0.86008 0.95367 0.19244 0.0
H5679 H 0.87408 0.9884 0.19342 0.0
H5680 H 0.83267 0.94121 0.21096 0.0
H5681 H 0.88757 0.93006 0.20882 0.0
H5682 H 0.91892 0.93434 0.21699 0.0
H5683 H 0.91324 0.92049 0.27186 0.0
H5684 H 0.8819 0.91665 0.26426 0.0
H5685 H 0.78745 0.84664 0.22166 0.0
H5686 H 0.8076 0.87171 0.21007 0.0
H5687 H 0.83633 0.89144 0.26624 0.0
H5688 H 0.81653 0.86587 0.27774 0.0
H5689 H 0.85774 0.89314 0.24182 0.0
H5690 H 0.80476 0.91382 0.24625 0.0
H5691 H 0.77335 0.90996 0.2388 0.0
H5692 H 0.77604 0.90618 0.18009 0.0
H5693 H 0.80746 0.90986 0.18721 0.0
C5694 C 0.88231 0.98572 0.24008 0.0
C5695 C 0.88204 0.99416 0.22361 0.0
C5696 C 0.87472 0.96601 0.23948 0.0
C5697 C 0.86646 0.95428 0.22239 0.0
C5698 C 0.86652 0.96247 0.20576 0.0
C5699 C 0.87449 0.98225 0.20633 0.0
C5700 C 0.85612 0.93429 0.22259 0.0
C5701 C 0.8382 0.93045 0.21722 0.0
C5702 C 0.86334 0.92044 0.23111 0.0
C5703 C 0.8823 0.92316 0.23597 0.0
C5704 C 0.89299 0.92816 0.22272 0.0
C5705 C 0.91078 0.93049 0.22725 0.0
C5706 C 0.91807 0.92768 0.24493 0.0
C5707 C 0.90757 0.9226 0.25815 0.0
C5708 C 0.88979 0.92039 0.25375 0.0
C5709 C 0.79811 0.8563 0.23151 0.0
C5710 C 0.8003 0.85459 0.25066 0.0
C5711 C 0.80962 0.87061 0.22487 0.0
C5712 C 0.82329 0.88374 0.23733 0.0
C5713 C 0.82585 0.88152 0.25635 0.0
C5714 C 0.81449 0.86701 0.26295 0.0
C5715 C 0.83432 0.90053 0.23093 0.0
C5716 C 0.8523 0.90372 0.23515 0.0
C5717 C 0.82721 0.91391 0.2215 0.0
C5718 C 0.80838 0.91191 0.21724 0.0
C5719 C 0.79862 0.91207 0.23175 0.0
C5720 C 0.78083 0.90993 0.22759 0.0
C5721 C 0.7727 0.90777 0.20898 0.0
C5722 C 0.78235 0.90783 0.19449 0.0
C5723 C 0.80015 0.90996 0.19858 0.0
H5724 H 0.75892 0.9061 0.20578 0.0
H5725 H 0.93184 0.92943 0.24838 0.0
H5726 H 0.65266 0.039 0.79865 0.0
H5727 H 0.66858 0.07259 0.79886 0.0
H5728 H 0.66206 0.06217 0.73847 0.0
H5729 H 0.6464 0.02853 0.73809 0.0
H5730 H 0.69398 0.08275 0.75331 0.0
H5731 H 0.63652 0.08514 0.76136 0.0
H5732 H 0.61076 0.07957 0.77646 0.0
H5733 H 0.64035 0.11508 0.82733 0.0
H5734 H 0.66639 0.12044 0.8127 0.0
H5735 H 0.70833 0.17855 0.73195 0.0
H5736 H 0.69525 0.14492 0.73514 0.0
H5737 H 0.70601 0.16042 0.79538 0.0
H5738 H 0.71878 0.1943 0.79229 0.0
H5739 H 0.67328 0.13755 0.78273 0.0
H5740 H 0.73058 0.13596 0.77387 0.0
H5741 H 0.75596 0.14174 0.75815 0.0
H5742 H 0.72601 0.10509 0.70803 0.0
H5743 H 0.70037 0.0993 0.72336 0.0
C5744 C 0.65471 0.04379 0.7854 0.0
C5745 C 0.64815 0.03105 0.76834 0.0
C5746 C 0.66375 0.06303 0.78556 0.0
C5747 C 0.66629 0.06996 0.76866 0.0
C5748 C 0.66022 0.05714 0.75167 0.0
C5749 C 0.65123 0.0379 0.75149 0.0
C5750 C 0.67497 0.09066 0.76857 0.0
C5751 C 0.68936 0.09472 0.7596 0.0
C5752 C 0.66915 0.10629 0.77715 0.0
C5753 C 0.65348 0.103 0.78599 0.0
C5754 C 0.63759 0.09158 0.77583 0.0
C5755 C 0.62292 0.08846 0.78431 0.0
C5756 C 0.62392 0.0969 0.80287 0.0
C5757 C 0.63959 0.10847 0.81299 0.0
C5758 C 0.65432 0.11154 0.80462 0.0
C5759 C 0.7078 0.17485 0.74588 0.0
C5760 C 0.7146 0.18909 0.76187 0.0
C5761 C 0.70046 0.15559 0.74769 0.0
C5762 C 0.69983 0.15013 0.7655 0.0
C5763 C 0.70643 0.16432 0.78151 0.0
C5764 C 0.71383 0.18362 0.77972 0.0
C5765 C 0.69217 0.12959 0.76732 0.0
C5766 C 0.67797 0.12557 0.77659 0.0
C5767 C 0.69809 0.11397 0.75895 0.0
C5768 C 0.71352 0.11733 0.74972 0.0
C5769 C 0.72937 0.12925 0.75945 0.0
C5770 C 0.74381 0.1325 0.75062 0.0
C5771 C 0.74259 0.12382 0.73209 0.0
C5772 C 0.72693 0.11182 0.72237 0.0
C5773 C 0.71245 0.10853 0.73113 0.0
H5774 H 0.75378 0.12636 0.72528 0.0
H5775 H 0.61253 0.09455 0.80936 0.0
loop_
_geom_bond_atom_site_label_1
_geom_bond_atom_site_label_2
_geom_bond_distance
_geom_bond_site_symmetry_2
_ccdc_geom_bond_type
Mg0 O1 2.028 . S
Mg0 O7 1.986 . S
Mg0 O9 2.114 1_455 S
Mg0 O10 2.251 1_455 S
Mg0 O13 2.010 . S
O1 Mg0 2.028 . S
O1 C4 1.250 . S
O2 Mg3 2.028 . S
O2 C4 1.248 1_655 S
Mg3 O2 2.028 . S
Mg3 O8 2.032 . S
Mg3 O10 2.079 . S
C4 O1 1.250 . S
C4 O2 1.248 1_455 S
C5 O6 1.264 . S
C5 O13 1.249 . S
O6 C5 1.264 . S
O7 Mg0 1.986 . S
O7 C11 1.224 1_455 S
O8 Mg3 2.032 . S
O8 C11 1.294 . S
O9 Mg0 2.114 1_655 S
O9 C12 1.252 . S
O10 Mg0 2.251 1_655 S
O10 Mg3 2.079 . S
O10 C12 1.273 . S
C11 O7 1.224 1_655 S
C11 O8 1.294 . S
C12 O9 1.252 . S
C12 O10 1.273 . S
O13 Mg0 2.010 . S
O13 C5 1.249 . S
Mg14 O15 2.028 . S
Mg14 O21 1.986 . S
Mg14 O23 2.114 . S
Mg14 O24 2.251 . S
Mg14 O27 2.010 . S
O15 Mg14 2.028 . S
O15 C18 1.250 . S
O16 Mg17 2.028 . S
O16 C18 1.248 . S
Mg17 O16 2.028 . S
Mg17 O22 2.032 . S
Mg17 O24 2.079 . S
C18 O15 1.250 . S
C18 O16 1.248 . S
C19 O20 1.264 . S
C19 O27 1.249 . S
O20 C19 1.264 . S
O21 Mg14 1.986 . S
O21 C25 1.246 . S
O22 Mg17 2.032 . S
O22 C25 1.259 . S
O23 Mg14 2.114 . S
O23 C26 1.252 . S
O24 Mg14 2.251 . S
O24 Mg17 2.079 . S
O24 C26 1.273 . S
C25 O21 1.246 . S
C25 O22 1.259 . S
C26 O23 1.252 . S
C26 O24 1.273 . S
O27 Mg14 2.010 . S
O27 C19 1.249 . S
Mg28 O29 2.028 . S
Mg28 O35 1.986 . S
Mg28 O37 2.114 . S
Mg28 O38 2.251 . S
Mg28 O41 2.010 . S
O29 Mg28 2.028 . S
O29 C32 1.250 . S
O30 Mg31 2.028 . S
O30 C32 1.248 . S
Mg31 O30 2.028 . S
Mg31 O36 2.032 . S
Mg31 O38 2.079 . S
C32 O29 1.250 . S
C32 O30 1.248 . S
C33 O34 1.264 . S
C33 O41 1.249 . S
O34 C33 1.264 . S
O35 Mg28 1.986 . S
O35 C39 1.246 . S
O36 Mg31 2.032 . S
O36 C39 1.259 . S
O37 Mg28 2.114 . S
O37 C40 1.252 . S
O38 Mg28 2.251 . S
O38 Mg31 2.079 . S
O38 C40 1.273 . S
C39 O35 1.246 . S
C39 O36 1.259 . S
C40 O37 1.252 . S
C40 O38 1.273 . S
O41 Mg28 2.010 . S
O41 C33 1.249 . S
Mg42 O43 2.028 . S
Mg42 O49 1.986 . S
Mg42 O51 2.114 . S
Mg42 O52 2.251 . S
Mg42 O55 2.010 . S
O43 Mg42 2.028 . S
O43 C46 1.250 . S
O44 Mg45 2.028 . S
O44 C46 1.248 . S
Mg45 O44 2.028 . S
Mg45 O50 2.032 . S
Mg45 O52 2.079 . S
C46 O43 1.250 . S
C46 O44 1.248 . S
C47 O48 1.264 . S
C47 O55 1.249 . S
O48 C47 1.264 . S
O49 Mg42 1.986 . S
O49 C53 1.246 . S
O50 Mg45 2.032 . S
O50 C53 1.259 . S
O51 Mg42 2.114 . S
O51 C54 1.252 . S
O52 Mg42 2.251 . S
O52 Mg45 2.079 . S
O52 C54 1.273 . S
C53 O49 1.246 . S
C53 O50 1.259 . S
C54 O51 1.252 . S
C54 O52 1.273 . S
O55 Mg42 2.010 . S
O55 C47 1.249 . S
Mg56 O57 2.028 . S
Mg56 O63 1.986 . S
Mg56 O65 2.114 . S
Mg56 O66 2.251 . S
Mg56 O69 2.010 . S
O57 Mg56 2.028 . S
O57 C60 1.250 . S
O58 Mg59 2.028 . S
O58 C60 1.248 . S
Mg59 O58 2.028 . S
Mg59 O64 2.032 . S
Mg59 O66 2.079 . S
C60 O57 1.250 . S
C60 O58 1.248 . S
C61 O62 1.264 . S
C61 O69 1.249 . S
O62 C61 1.264 . S
O63 Mg56 1.986 . S
O63 C67 1.246 . S
O64 Mg59 2.032 . S
O64 C67 1.259 . S
O65 Mg56 2.114 . S
O65 C68 1.252 . S
O66 Mg56 2.251 . S
O66 Mg59 2.079 . S
O66 C68 1.273 . S
C67 O63 1.246 . S
C67 O64 1.259 . S
C68 O65 1.252 . S
C68 O66 1.273 . S
O69 Mg56 2.010 . S
O69 C61 1.249 . S
Mg70 O71 2.028 . S
Mg70 O77 1.986 . S
Mg70 O79 2.114 . S
Mg70 O80 2.251 . S
Mg70 O83 2.010 . S
O71 Mg70 2.028 . S
O71 C74 1.250 . S
O72 Mg73 2.028 . S
O72 C74 1.248 . S
Mg73 O72 2.028 . S
Mg73 O78 2.032 . S
Mg73 O80 2.079 . S
C74 O71 1.250 . S
C74 O72 1.248 . S
C75 O76 1.264 . S
C75 O83 1.249 . S
O76 C75 1.264 . S
O77 Mg70 1.986 . S
O77 C81 1.246 . S
O78 Mg73 2.032 . S
O78 C81 1.259 . S
O79 Mg70 2.114 . S
O79 C82 1.252 . S
O80 Mg70 2.251 . S
O80 Mg73 2.079 . S
O80 C82 1.273 . S
C81 O77 1.246 . S
C81 O78 1.259 . S
C82 O79 1.252 . S
C82 O80 1.273 . S
O83 Mg70 2.010 . S
O83 C75 1.249 . S
Mg84 O85 2.028 . S
Mg84 O91 1.986 . S
Mg84 O93 2.114 . S
Mg84 O94 2.251 . S
Mg84 O97 2.010 . S
O85 Mg84 2.028 . S
O85 C88 1.250 . S
O86 Mg87 2.028 . S
O86 C88 1.248 . S
Mg87 O86 2.028 . S
Mg87 O92 2.032 . S
Mg87 O94 2.079 . S
C88 O85 1.250 . S
C88 O86 1.248 . S
C89 O90 1.264 . S
C89 O97 1.249 . S
O90 C89 1.264 . S
O91 Mg84 1.986 . S
O91 C95 1.246 . S
O92 Mg87 2.032 . S
O92 C95 1.259 . S
O93 Mg84 2.114 . S
O93 C96 1.252 . S
O94 Mg84 2.251 . S
O94 Mg87 2.079 . S
O94 C96 1.273 . S
C95 O91 1.246 . S
C95 O92 1.259 . S
C96 O93 1.252 . S
C96 O94 1.273 . S
O97 Mg84 2.010 . S
O97 C89 1.249 . S
Mg98 O99 2.028 . S
Mg98 O105 1.986 . S
Mg98 O107 2.114 1_455 S
Mg98 O108 2.251 1_455 S
Mg98 O111 2.010 . S
O99 Mg98 2.028 . S
O99 C102 1.250 . S
O100 Mg101 2.028 1_455 S
O100 C102 1.248 . S
Mg101 O100 2.028 1_655 S
Mg101 O106 2.032 . S
Mg101 O108 2.079 . S
C102 O99 1.250 . S
C102 O100 1.248 . S
C103 O104 1.264 . S
C103 O111 1.249 . S
O104 C103 1.264 . S
O105 Mg98 1.986 . S
O105 C109 1.246 . S
O106 Mg101 2.032 . S
O106 C109 1.259 1_655 S
O107 Mg98 2.114 1_655 S
O107 C110 1.252 . S
O108 Mg98 2.251 1_655 S
O108 Mg101 2.079 . S
O108 C110 1.273 . S
C109 O105 1.246 . S
C109 O106 1.259 1_455 S
C110 O107 1.252 . S
C110 O108 1.273 . S
O111 Mg98 2.010 . S
O111 C103 1.249 . S
Mg112 O113 2.028 . S
Mg112 O119 1.986 . S
Mg112 O121 2.114 . S
Mg112 O122 2.251 . S
Mg112 O125 2.010 . S
O113 Mg112 2.028 . S
O113 C116 1.250 . S
O114 Mg115 2.028 . S
O114 C116 1.248 . S
Mg115 O114 2.028 . S
Mg115 O120 2.032 . S
Mg115 O122 2.079 . S
C116 O113 1.250 . S
C116 O114 1.248 . S
C117 O118 1.264 . S
C117 O125 1.249 . S
O118 C117 1.264 . S
O119 Mg112 1.986 . S
O119 C123 1.246 . S
O120 Mg115 2.032 . S
O120 C123 1.259 . S
O121 Mg112 2.114 . S
O121 C124 1.252 . S
O122 Mg112 2.251 . S
O122 Mg115 2.079 . S
O122 C124 1.273 . S
C123 O119 1.246 . S
C123 O120 1.259 . S
C124 O121 1.252 . S
C124 O122 1.273 . S
O125 Mg112 2.010 . S
O125 C117 1.249 . S
Mg126 O127 2.028 . S
Mg126 O133 1.986 . S
Mg126 O135 2.114 . S
Mg126 O136 2.251 . S
Mg126 O139 2.010 . S
O127 Mg126 2.028 . S
O127 C130 1.250 . S
O128 Mg129 2.028 . S
O128 C130 1.248 . S
Mg129 O128 2.028 . S
Mg129 O134 2.032 . S
Mg129 O136 2.079 . S
C130 O127 1.250 . S
C130 O128 1.248 . S
C131 O132 1.264 . S
C131 O139 1.249 . S
O132 C131 1.264 . S
O133 Mg126 1.986 . S
O133 C137 1.246 . S
O134 Mg129 2.032 . S
O134 C137 1.259 . S
O135 Mg126 2.114 . S
O135 C138 1.252 . S
O136 Mg126 2.251 . S
O136 Mg129 2.079 . S
O136 C138 1.273 . S
C137 O133 1.246 . S
C137 O134 1.259 . S
C138 O135 1.252 . S
C138 O136 1.273 . S
O139 Mg126 2.010 . S
O139 C131 1.249 . S
Mg140 O141 2.028 . S
Mg140 O147 1.986 . S
Mg140 O149 2.114 . S
Mg140 O150 2.251 . S
Mg140 O153 2.010 . S
O141 Mg140 2.028 . S
O141 C144 1.250 . S
O142 Mg143 2.028 . S
O142 C144 1.248 . S
Mg143 O142 2.028 . S
Mg143 O148 2.032 . S
Mg143 O150 2.079 . S
C144 O141 1.250 . S
C144 O142 1.248 . S
C145 O146 1.264 . S
C145 O153 1.249 . S
O146 C145 1.264 . S
O147 Mg140 1.986 . S
O147 C151 1.246 . S
O148 Mg143 2.032 . S
O148 C151 1.259 . S
O149 Mg140 2.114 . S
O149 C152 1.252 . S
O150 Mg140 2.251 . S
O150 Mg143 2.079 . S
O150 C152 1.273 . S
C151 O147 1.246 . S
C151 O148 1.259 . S
C152 O149 1.252 . S
C152 O150 1.273 . S
O153 Mg140 2.010 . S
O153 C145 1.249 . S
Mg154 O155 2.028 . S
Mg154 O161 1.986 . S
Mg154 O163 2.114 . S
Mg154 O164 2.251 . S
Mg154 O167 2.010 . S
O155 Mg154 2.028 . S
O155 C158 1.250 . S
O156 Mg157 2.028 . S
O156 C158 1.248 . S
Mg157 O156 2.028 . S
Mg157 O162 2.032 . S
Mg157 O164 2.079 . S
C158 O155 1.250 . S
C158 O156 1.248 . S
C159 O160 1.264 . S
C159 O167 1.249 . S
O160 C159 1.264 . S
O161 Mg154 1.986 . S
O161 C165 1.246 . S
O162 Mg157 2.032 . S
O162 C165 1.259 . S
O163 Mg154 2.114 . S
O163 C166 1.252 . S
O164 Mg154 2.251 . S
O164 Mg157 2.079 . S
O164 C166 1.273 . S
C165 O161 1.246 . S
C165 O162 1.259 . S
C166 O163 1.252 . S
C166 O164 1.273 . S
O167 Mg154 2.010 . S
O167 C159 1.249 . S
Mg168 O169 2.028 . S
Mg168 O175 1.986 . S
Mg168 O177 2.114 . S
Mg168 O178 2.251 . S
Mg168 O181 2.010 . S
O169 Mg168 2.028 . S
O169 C172 1.250 . S
O170 Mg171 2.028 . S
O170 C172 1.248 . S
Mg171 O170 2.028 . S
Mg171 O176 2.032 . S
Mg171 O178 2.079 . S
C172 O169 1.250 . S
C172 O170 1.248 . S
C173 O174 1.264 . S
C173 O181 1.249 . S
O174 C173 1.264 . S
O175 Mg168 1.986 . S
O175 C179 1.246 . S
O176 Mg171 2.032 . S
O176 C179 1.259 . S
O177 Mg168 2.114 . S
O177 C180 1.252 . S
O178 Mg168 2.251 . S
O178 Mg171 2.079 . S
O178 C180 1.273 . S
C179 O175 1.246 . S
C179 O176 1.259 . S
C180 O177 1.252 . S
C180 O178 1.273 . S
O181 Mg168 2.010 . S
O181 C173 1.249 . S
Mg182 O183 2.028 1_556 S
Mg182 O189 1.986 . S
Mg182 O191 2.114 1_556 S
Mg182 O192 2.251 . S
Mg182 O195 2.010 . S
O183 Mg182 2.028 1_554 S
O183 C186 1.250 . S
O184 Mg185 2.028 . S
O184 C186 1.248 . S
Mg185 O184 2.028 . S
Mg185 O190 2.032 1_554 S
Mg185 O192 2.079 1_554 S
C186 O183 1.250 . S
C186 O184 1.248 . S
C187 O188 1.264 . S
C187 O195 1.249 . S
O188 C187 1.264 . S
O189 Mg182 1.986 . S
O189 C193 1.246 . S
O190 Mg185 2.032 1_556 S
O190 C193 1.259 . S
O191 Mg182 2.114 1_554 S
O191 C194 1.252 . S
O192 Mg182 2.251 . S
O192 Mg185 2.079 1_556 S
O192 C194 1.273 1_556 S
C193 O189 1.246 . S
C193 O190 1.259 . S
C194 O191 1.252 . S
C194 O192 1.273 1_554 S
O195 Mg182 2.010 . S
O195 C187 1.249 . S
Mg196 O197 2.028 . S
Mg196 O203 1.986 . S
Mg196 O205 2.114 . S
Mg196 O206 2.251 . S
Mg196 O209 2.010 . S
O197 Mg196 2.028 . S
O197 C200 1.250 . S
O198 Mg199 2.028 . S
O198 C200 1.248 . S
Mg199 O198 2.028 . S
Mg199 O204 2.032 . S
Mg199 O206 2.079 . S
C200 O197 1.250 . S
C200 O198 1.248 . S
C201 O202 1.264 . S
C201 O209 1.249 . S
O202 C201 1.264 . S
O203 Mg196 1.986 . S
O203 C207 1.246 . S
O204 Mg199 2.032 . S
O204 C207 1.259 . S
O205 Mg196 2.114 . S
O205 C208 1.252 . S
O206 Mg196 2.251 . S
O206 Mg199 2.079 . S
O206 C208 1.273 . S
C207 O203 1.246 . S
C207 O204 1.259 . S
C208 O205 1.252 . S
C208 O206 1.273 . S
O209 Mg196 2.010 . S
O209 C201 1.249 . S
Mg210 O211 2.028 . S
Mg210 O217 1.986 . S
Mg210 O219 2.114 . S
Mg210 O220 2.251 . S
Mg210 O223 2.010 . S
O211 Mg210 2.028 . S
O211 C214 1.250 . S
O212 Mg213 2.028 . S
O212 C214 1.248 . S
Mg213 O212 2.028 . S
Mg213 O218 2.032 . S
Mg213 O220 2.079 . S
C214 O211 1.250 . S
C214 O212 1.248 . S
C215 O216 1.264 . S
C215 O223 1.249 . S
O216 C215 1.264 . S
O217 Mg210 1.986 . S
O217 C221 1.246 . S
O218 Mg213 2.032 . S
O218 C221 1.259 . S
O219 Mg210 2.114 . S
O219 C222 1.252 . S
O220 Mg210 2.251 . S
O220 Mg213 2.079 . S
O220 C222 1.273 . S
C221 O217 1.246 . S
C221 O218 1.259 . S
C222 O219 1.252 . S
C222 O220 1.273 . S
O223 Mg210 2.010 . S
O223 C215 1.249 . S
Mg224 O225 2.028 . S
Mg224 O231 1.986 . S
Mg224 O233 2.114 . S
Mg224 O234 2.251 . S
Mg224 O237 2.010 . S
O225 Mg224 2.028 . S
O225 C228 1.250 . S
O226 Mg227 2.028 . S
O226 C228 1.248 . S
Mg227 O226 2.028 . S
Mg227 O232 2.032 . S
Mg227 O234 2.079 . S
C228 O225 1.250 . S
C228 O226 1.248 . S
C229 O230 1.264 . S
C229 O237 1.249 . S
O230 C229 1.264 . S
O231 Mg224 1.986 . S
O231 C235 1.246 . S
O232 Mg227 2.032 . S
O232 C235 1.259 . S
O233 Mg224 2.114 . S
O233 C236 1.252 . S
O234 Mg224 2.251 . S
O234 Mg227 2.079 . S
O234 C236 1.273 . S
C235 O231 1.246 . S
C235 O232 1.259 . S
C236 O233 1.252 . S
C236 O234 1.273 . S
O237 Mg224 2.010 . S
O237 C229 1.249 . S
Mg238 O239 2.028 . S
Mg238 O245 1.986 . S
Mg238 O247 2.114 . S
Mg238 O248 2.251 . S
Mg238 O251 2.010 . S
O239 Mg238 2.028 . S
O239 C242 1.250 . S
O240 Mg241 2.028 . S
O240 C242 1.248 . S
Mg241 O240 2.028 . S
Mg241 O246 2.032 . S
Mg241 O248 2.079 . S
C242 O239 1.250 . S
C242 O240 1.248 . S
C243 O244 1.264 . S
C243 O251 1.249 . S
O244 C243 1.264 . S
O245 Mg238 1.986 . S
O245 C249 1.246 . S
O246 Mg241 2.032 . S
O246 C249 1.259 . S
O247 Mg238 2.114 . S
O247 C250 1.252 . S
O248 Mg238 2.251 . S
O248 Mg241 2.079 . S
O248 C250 1.273 . S
C249 O245 1.246 . S
C249 O246 1.259 . S
C250 O247 1.252 . S
C250 O248 1.273 . S
O251 Mg238 2.010 . S
O251 C243 1.249 . S
Mg252 O253 2.028 . S
Mg252 O259 1.986 . S
Mg252 O261 2.114 . S
Mg252 O262 2.251 . S
Mg252 O265 2.010 . S
O253 Mg252 2.028 . S
O253 C256 1.250 . S
O254 Mg255 2.028 . S
O254 C256 1.248 . S
Mg255 O254 2.028 . S
Mg255 O260 2.032 . S
Mg255 O262 2.079 . S
C256 O253 1.250 . S
C256 O254 1.248 . S
C257 O258 1.264 . S
C257 O265 1.249 . S
O258 C257 1.264 . S
O259 Mg252 1.986 . S
O259 C263 1.246 . S
O260 Mg255 2.032 . S
O260 C263 1.259 . S
O261 Mg252 2.114 . S
O261 C264 1.252 . S
O262 Mg252 2.251 . S
O262 Mg255 2.079 . S
O262 C264 1.273 . S
C263 O259 1.246 . S
C263 O260 1.259 . S
C264 O261 1.252 . S
C264 O262 1.273 . S
O265 Mg252 2.010 . S
O265 C257 1.249 . S
Mg266 O267 2.028 1_565 S
Mg266 O273 1.986 . S
Mg266 O275 2.114 1_565 S
Mg266 O276 2.251 . S
Mg266 O279 2.010 . S
O267 Mg266 2.028 1_545 S
O267 C270 1.250 . S
O268 Mg269 2.028 . S
O268 C270 1.248 . S
Mg269 O268 2.028 . S
Mg269 O274 2.032 1_545 S
Mg269 O276 2.079 1_545 S
C270 O267 1.250 . S
C270 O268 1.248 . S
C271 O272 1.264 . S
C271 O279 1.249 . S
O272 C271 1.264 . S
O273 Mg266 1.986 . S
O273 C277 1.246 . S
O274 Mg269 2.032 1_565 S
O274 C277 1.259 . S
O275 Mg266 2.114 1_545 S
O275 C278 1.252 . S
O276 Mg266 2.251 . S
O276 Mg269 2.079 1_565 S
O276 C278 1.273 1_565 S
C277 O273 1.246 . S
C277 O274 1.259 . S
C278 O275 1.252 . S
C278 O276 1.273 1_545 S
O279 Mg266 2.010 . S
O279 C271 1.249 . S
Mg280 O281 2.028 . S
Mg280 O287 1.986 1_554 S
Mg280 O289 2.114 . S
Mg280 O290 2.251 . S
Mg280 O293 2.010 . S
O281 Mg280 2.028 . S
O281 C284 1.250 . S
O282 Mg283 2.028 . S
O282 C284 1.248 . S
Mg283 O282 2.028 . S
Mg283 O288 2.032 . S
Mg283 O290 2.079 . S
C284 O281 1.250 . S
C284 O282 1.248 . S
C285 O286 1.269 . S
C285 O293 1.249 . S
O286 C285 1.269 . S
O287 Mg280 1.986 1_556 S
O287 C291 1.246 . S
O288 Mg283 2.032 . S
O288 C291 1.259 1_554 S
O289 Mg280 2.114 . S
O289 C292 1.252 . S
O290 Mg280 2.251 . S
O290 Mg283 2.079 . S
O290 C292 1.273 . S
C291 O287 1.246 . S
C291 O288 1.259 1_556 S
C292 O289 1.252 . S
C292 O290 1.273 . S
O293 Mg280 2.010 . S
O293 C285 1.249 . S
Mg294 O295 2.028 . S
Mg294 O301 1.986 . S
Mg294 O303 2.114 . S
Mg294 O304 2.251 . S
Mg294 O307 2.010 . S
O295 Mg294 2.028 . S
O295 C298 1.250 . S
O296 Mg297 2.028 . S
O296 C298 1.248 . S
Mg297 O296 2.028 . S
Mg297 O302 2.032 . S
Mg297 O304 2.079 . S
C298 O295 1.250 . S
C298 O296 1.248 . S
C299 O300 1.264 . S
C299 O307 1.249 . S
O300 C299 1.264 . S
O301 Mg294 1.986 . S
O301 C305 1.246 . S
O302 Mg297 2.032 . S
O302 C305 1.259 . S
O303 Mg294 2.114 . S
O303 C306 1.252 . S
O304 Mg294 2.251 . S
O304 Mg297 2.079 . S
O304 C306 1.273 . S
C305 O301 1.246 . S
C305 O302 1.259 . S
C306 O303 1.252 . S
C306 O304 1.273 . S
O307 Mg294 2.010 . S
O307 C299 1.249 . S
Mg308 O309 2.028 . S
Mg308 O315 1.986 . S
Mg308 O317 2.114 . S
Mg308 O318 2.251 . S
Mg308 O321 2.010 . S
O309 Mg308 2.028 . S
O309 C312 1.250 . S
O310 Mg311 2.028 . S
O310 C312 1.248 . S
Mg311 O310 2.028 . S
Mg311 O316 2.032 . S
Mg311 O318 2.079 . S
C312 O309 1.250 . S
C312 O310 1.248 . S
C313 O314 1.264 . S
C313 O321 1.249 . S
O314 C313 1.264 . S
O315 Mg308 1.986 . S
O315 C319 1.246 . S
O316 Mg311 2.032 . S
O316 C319 1.259 . S
O317 Mg308 2.114 . S
O317 C320 1.252 . S
O318 Mg308 2.251 . S
O318 Mg311 2.079 . S
O318 C320 1.273 . S
C319 O315 1.246 . S
C319 O316 1.259 . S
C320 O317 1.252 . S
C320 O318 1.273 . S
O321 Mg308 2.010 . S
O321 C313 1.249 . S
Mg322 O323 2.028 . S
Mg322 O329 1.986 . S
Mg322 O331 2.114 . S
Mg322 O332 2.251 . S
Mg322 O335 2.010 . S
O323 Mg322 2.028 . S
O323 C326 1.250 . S
O324 Mg325 2.028 . S
O324 C326 1.248 . S
Mg325 O324 2.028 . S
Mg325 O330 2.032 . S
Mg325 O332 2.079 . S
C326 O323 1.250 . S
C326 O324 1.248 . S
C327 O328 1.264 . S
C327 O335 1.249 . S
O328 C327 1.264 . S
O329 Mg322 1.986 . S
O329 C333 1.246 . S
O330 Mg325 2.032 . S
O330 C333 1.259 . S
O331 Mg322 2.114 . S
O331 C334 1.252 . S
O332 Mg322 2.251 . S
O332 Mg325 2.079 . S
O332 C334 1.273 . S
C333 O329 1.246 . S
C333 O330 1.259 . S
C334 O331 1.252 . S
C334 O332 1.273 . S
O335 Mg322 2.010 . S
O335 C327 1.249 . S
Pr336 C338 2.880 1_454 S
Pr336 O356 2.562 1_455 S
Pr336 O357 2.490 1_454 S
Pr336 O358 2.695 . S
Pr336 O359 2.512 1_554 S
Pr336 O361 2.437 . S
Pr336 O364 2.436 . S
Pr336 O366 2.438 . S
Pr337 C347 2.880 . S
Pr337 O358 2.436 . S
Pr337 O360 2.438 . S
Pr337 O362 2.562 . S
Pr337 O363 2.490 . S
Pr337 O364 2.695 . S
Pr337 O365 2.512 . S
Pr337 O367 2.437 . S
C338 Pr336 2.880 1_656 S
C338 C339 1.491 . S
C338 O356 1.254 1_556 S
C338 O357 1.225 . S
C339 C338 1.491 . S
C339 C340 1.392 . S
C339 C344 1.356 1_556 S
C340 C339 1.392 . S
C340 C341 1.368 . S
C340 H368 0.929 . S
C341 C340 1.368 . S
C341 C342 1.386 . S
C341 H369 0.929 . S
C342 C341 1.386 . S
C342 C343 1.373 . S
C343 C342 1.373 . S
C343 C344 1.409 1_556 S
C343 H370 0.931 1_556 S
C344 C339 1.356 1_554 S
C344 C343 1.409 1_554 S
C344 H371 0.930 . S
C345 O358 1.270 1_556 S
C345 O359 1.248 . S
C346 O360 1.267 . S
C346 O361 1.278 . S
C347 Pr337 2.880 . S
C347 C348 1.491 . S
C347 O362 1.254 . S
C347 O363 1.225 . S
C348 C347 1.491 . S
C348 C349 1.392 . S
C348 C353 1.356 . S
C349 C348 1.392 . S
C349 C350 1.368 . S
C349 H372 0.929 . S
C350 C349 1.368 . S
C350 C351 1.386 . S
C350 H373 0.929 . S
C351 C350 1.386 . S
C351 C352 1.373 . S
C352 C351 1.373 . S
C352 C353 1.409 . S
C352 H374 0.931 . S
C353 C348 1.356 . S
C353 C352 1.409 . S
C353 H375 0.930 . S
C354 O364 1.270 . S
C354 O365 1.248 . S
C355 O366 1.267 . S
C355 O367 1.278 . S
O356 Pr336 2.562 1_655 S
O356 C338 1.254 1_554 S
O357 Pr336 2.490 1_656 S
O357 C338 1.225 . S
O358 Pr336 2.695 . S
O358 Pr337 2.436 . S
O358 C345 1.270 1_554 S
O359 Pr336 2.512 1_556 S
O359 C345 1.248 . S
O360 Pr337 2.438 . S
O360 C346 1.267 . S
O361 Pr336 2.437 . S
O361 C346 1.278 . S
O362 Pr337 2.562 . S
O362 C347 1.254 . S
O363 Pr337 2.490 . S
O363 C347 1.225 . S
O364 Pr336 2.436 . S
O364 Pr337 2.695 . S
O364 C354 1.270 . S
O365 Pr337 2.512 . S
O365 C354 1.248 . S
O366 Pr336 2.438 . S
O366 C355 1.267 . S
O367 Pr337 2.437 . S
O367 C355 1.278 . S
H368 C340 0.929 . S
H369 C341 0.929 . S
H370 C343 0.931 1_554 S
H371 C344 0.930 . S
H372 C349 0.929 . S
H373 C350 0.929 . S
H374 C352 0.931 . S
H375 C353 0.930 . S
Pr376 C378 2.880 . S
Pr376 O396 2.562 . S
Pr376 O397 2.490 . S
Pr376 O398 2.695 . S
Pr376 O399 2.512 . S
Pr376 O401 2.437 . S
Pr376 O404 2.436 . S
Pr376 O406 2.438 . S
Pr377 C387 2.880 . S
Pr377 O398 2.436 . S
Pr377 O400 2.438 . S
Pr377 O402 2.562 . S
Pr377 O403 2.490 . S
Pr377 O404 2.695 . S
Pr377 O405 2.512 . S
Pr377 O407 2.437 . S
C378 Pr376 2.880 . S
C378 C379 1.491 . S
C378 O396 1.254 . S
C378 O397 1.225 . S
C379 C378 1.491 . S
C379 C380 1.392 . S
C379 C384 1.356 . S
C380 C379 1.392 . S
C380 C381 1.368 . S
C380 H408 0.929 . S
C381 C380 1.368 . S
C381 C382 1.386 . S
C381 H409 0.929 . S
C382 C381 1.386 . S
C382 C383 1.373 . S
C383 C382 1.373 . S
C383 C384 1.409 . S
C383 H410 0.931 . S
C384 C379 1.356 . S
C384 C383 1.409 . S
C384 H411 0.930 . S
C385 O398 1.270 . S
C385 O399 1.248 . S
C386 O400 1.267 . S
C386 O401 1.278 . S
C387 Pr377 2.880 . S
C387 C388 1.491 . S
C387 O402 1.254 . S
C387 O403 1.225 . S
C388 C387 1.491 . S
C388 C389 1.392 . S
C388 C393 1.356 . S
C389 C388 1.392 . S
C389 C390 1.368 . S
C389 H412 0.929 . S
C390 C389 1.368 . S
C390 C391 1.386 . S
C390 H413 0.929 . S
C391 C390 1.386 . S
C391 C392 1.373 . S
C392 C391 1.373 . S
C392 C393 1.409 . S
C392 H414 0.931 . S
C393 C388 1.356 . S
C393 C392 1.409 . S
C393 H415 0.930 . S
C394 O404 1.270 . S
C394 O405 1.248 . S
C395 O406 1.267 . S
C395 O407 1.278 . S
O396 Pr376 2.562 . S
O396 C378 1.254 . S
O397 Pr376 2.490 . S
O397 C378 1.225 . S
O398 Pr376 2.695 . S
O398 Pr377 2.436 . S
O398 C385 1.270 . S
O399 Pr376 2.512 . S
O399 C385 1.248 . S
O400 Pr377 2.438 . S
O400 C386 1.267 . S
O401 Pr376 2.437 . S
O401 C386 1.278 . S
O402 Pr377 2.562 . S
O402 C387 1.254 . S
O403 Pr377 2.490 . S
O403 C387 1.225 . S
O404 Pr376 2.436 . S
O404 Pr377 2.695 . S
O404 C394 1.270 . S
O405 Pr377 2.512 . S
O405 C394 1.248 . S
O406 Pr376 2.438 . S
O406 C395 1.267 . S
O407 Pr377 2.437 . S
O407 C395 1.278 . S
H408 C380 0.929 . S
H409 C381 0.929 . S
H410 C383 0.931 . S
H411 C384 0.930 . S
H412 C389 0.929 . S
H413 C390 0.929 . S
H414 C392 0.931 . S
H415 C393 0.930 . S
Pr416 C418 2.880 . S
Pr416 O436 2.562 . S
Pr416 O437 2.490 . S
Pr416 O438 2.695 . S
Pr416 O439 2.512 . S
Pr416 O441 2.437 . S
Pr416 O444 2.436 . S
Pr416 O446 2.438 . S
Pr417 C427 2.880 . S
Pr417 O438 2.436 . S
Pr417 O440 2.438 . S
Pr417 O442 2.562 . S
Pr417 O443 2.490 . S
Pr417 O444 2.695 . S
Pr417 O445 2.512 . S
Pr417 O447 2.437 . S
C418 Pr416 2.880 . S
C418 C419 1.491 . S
C418 O436 1.254 . S
C418 O437 1.225 . S
C419 C418 1.491 . S
C419 C420 1.392 . S
C419 C424 1.356 . S
C420 C419 1.392 . S
C420 C421 1.368 . S
C420 H448 0.929 . S
C421 C420 1.368 . S
C421 C422 1.386 . S
C421 H449 0.929 . S
C422 C421 1.386 . S
C422 C423 1.373 . S
C423 C422 1.373 . S
C423 C424 1.409 . S
C423 H450 0.931 . S
C424 C419 1.356 . S
C424 C423 1.409 . S
C424 H451 0.930 . S
C425 O438 1.270 . S
C425 O439 1.248 . S
C426 O440 1.267 . S
C426 O441 1.278 . S
C427 Pr417 2.880 . S
C427 C428 1.491 . S
C427 O442 1.254 . S
C427 O443 1.225 . S
C428 C427 1.491 . S
C428 C429 1.392 . S
C428 C433 1.356 . S
C429 C428 1.392 . S
C429 C430 1.368 . S
C429 H452 0.929 . S
C430 C429 1.368 . S
C430 C431 1.386 . S
C430 H453 0.929 . S
C431 C430 1.386 . S
C431 C432 1.373 . S
C432 C431 1.373 . S
C432 C433 1.409 . S
C432 H454 0.931 . S
C433 C428 1.356 . S
C433 C432 1.409 . S
C433 H455 0.930 . S
C434 O444 1.270 . S
C434 O445 1.248 . S
C435 O446 1.267 . S
C435 O447 1.278 . S
O436 Pr416 2.562 . S
O436 C418 1.254 . S
O437 Pr416 2.490 . S
O437 C418 1.225 . S
O438 Pr416 2.695 . S
O438 Pr417 2.436 . S
O438 C425 1.270 . S
O439 Pr416 2.512 . S
O439 C425 1.248 . S
O440 Pr417 2.438 . S
O440 C426 1.267 . S
O441 Pr416 2.437 . S
O441 C426 1.278 . S
O442 Pr417 2.562 . S
O442 C427 1.254 . S
O443 Pr417 2.490 . S
O443 C427 1.225 . S
O444 Pr416 2.436 . S
O444 Pr417 2.695 . S
O444 C434 1.270 . S
O445 Pr417 2.512 . S
O445 C434 1.248 . S
O446 Pr416 2.438 . S
O446 C435 1.267 . S
O447 Pr417 2.437 . S
O447 C435 1.278 . S
H448 C420 0.929 . S
H449 C421 0.929 . S
H450 C423 0.931 . S
H451 C424 0.930 . S
H452 C429 0.929 . S
H453 C430 0.929 . S
H454 C432 0.931 . S
H455 C433 0.930 . S
Pr456 C458 2.880 . S
Pr456 O476 2.562 . S
Pr456 O477 2.490 . S
Pr456 O478 2.695 . S
Pr456 O479 2.512 . S
Pr456 O481 2.437 . S
Pr456 O484 2.436 . S
Pr456 O486 2.438 . S
Pr457 C467 2.880 . S
Pr457 O478 2.436 . S
Pr457 O480 2.438 . S
Pr457 O482 2.562 . S
Pr457 O483 2.490 . S
Pr457 O484 2.695 . S
Pr457 O485 2.512 . S
Pr457 O487 2.437 . S
C458 Pr456 2.880 . S
C458 C459 1.491 . S
C458 O476 1.254 . S
C458 O477 1.225 . S
C459 C458 1.491 . S
C459 C460 1.392 . S
C459 C464 1.356 . S
C460 C459 1.392 . S
C460 C461 1.368 . S
C460 H488 0.929 . S
C461 C460 1.368 . S
C461 C462 1.386 . S
C461 H489 0.929 . S
C462 C461 1.386 . S
C462 C463 1.373 . S
C463 C462 1.373 . S
C463 C464 1.409 . S
C463 H490 0.931 . S
C464 C459 1.356 . S
C464 C463 1.409 . S
C464 H491 0.930 . S
C465 O478 1.270 . S
C465 O479 1.248 . S
C466 O480 1.267 . S
C466 O481 1.278 . S
C467 Pr457 2.880 . S
C467 C468 1.491 . S
C467 O482 1.254 . S
C467 O483 1.225 . S
C468 C467 1.491 . S
C468 C469 1.392 . S
C468 C473 1.356 . S
C469 C468 1.392 . S
C469 C470 1.368 . S
C469 H492 0.929 . S
C470 C469 1.368 . S
C470 C471 1.386 . S
C470 H493 0.929 . S
C471 C470 1.386 . S
C471 C472 1.373 . S
C472 C471 1.373 . S
C472 C473 1.409 . S
C472 H494 0.931 . S
C473 C468 1.356 . S
C473 C472 1.409 . S
C473 H495 0.930 . S
C474 O484 1.270 . S
C474 O485 1.248 . S
C475 O486 1.267 . S
C475 O487 1.278 . S
O476 Pr456 2.562 . S
O476 C458 1.254 . S
O477 Pr456 2.490 . S
O477 C458 1.225 . S
O478 Pr456 2.695 . S
O478 Pr457 2.436 . S
O478 C465 1.270 . S
O479 Pr456 2.512 . S
O479 C465 1.248 . S
O480 Pr457 2.438 . S
O480 C466 1.267 . S
O481 Pr456 2.437 . S
O481 C466 1.278 . S
O482 Pr457 2.562 . S
O482 C467 1.254 . S
O483 Pr457 2.490 . S
O483 C467 1.225 . S
O484 Pr456 2.436 . S
O484 Pr457 2.695 . S
O484 C474 1.270 . S
O485 Pr457 2.512 . S
O485 C474 1.248 . S
O486 Pr456 2.438 . S
O486 C475 1.267 . S
O487 Pr457 2.437 . S
O487 C475 1.278 . S
H488 C460 0.929 . S
H489 C461 0.929 . S
H490 C463 0.931 . S
H491 C464 0.930 . S
H492 C469 0.929 . S
H493 C470 0.929 . S
H494 C472 0.931 . S
H495 C473 0.930 . S
Pr496 C498 2.880 . S
Pr496 O516 2.562 . S
Pr496 O517 2.490 . S
Pr496 O518 2.695 . S
Pr496 O519 2.512 . S
Pr496 O521 2.437 . S
Pr496 O524 2.436 . S
Pr496 O526 2.438 . S
Pr497 C507 2.880 . S
Pr497 O518 2.436 . S
Pr497 O520 2.438 . S
Pr497 O522 2.562 . S
Pr497 O523 2.490 . S
Pr497 O524 2.695 . S
Pr497 O525 2.567 . S
Pr497 O527 2.437 . S
C498 Pr496 2.880 . S
C498 C499 1.491 . S
C498 O516 1.254 . S
C498 O517 1.225 . S
C499 C498 1.491 . S
C499 C500 1.392 . S
C499 C504 1.356 1_455 S
C500 C499 1.392 . S
C500 C501 1.368 . S
C500 H528 0.929 . S
C501 C500 1.368 . S
C501 C502 1.386 1_455 S
C501 H529 0.929 . S
C502 C501 1.386 1_655 S
C502 C503 1.373 . S
C503 C502 1.373 . S
C503 C504 1.409 . S
C503 H530 0.931 . S
C504 C499 1.356 1_655 S
C504 C503 1.409 . S
C504 H531 0.930 . S
C505 O518 1.270 . S
C505 O519 1.248 . S
C506 O520 1.267 . S
C506 O521 1.278 . S
C507 Pr497 2.880 . S
C507 C508 1.491 . S
C507 O522 1.254 . S
C507 O523 1.225 . S
C508 C507 1.491 . S
C508 C509 1.392 . S
C508 C513 1.356 . S
C509 C508 1.392 . S
C509 C510 1.368 . S
C509 H532 0.929 . S
C510 C509 1.368 . S
C510 C511 1.386 . S
C510 H533 0.929 . S
C511 C510 1.386 . S
C511 C512 1.373 . S
C512 C511 1.373 . S
C512 C513 1.409 . S
C512 H534 0.931 . S
C513 C508 1.356 . S
C513 C512 1.409 . S
C513 H535 0.930 . S
C514 O524 1.270 1_655 S
C514 O525 1.254 1_655 S
C515 O526 1.267 . S
C515 O527 1.278 . S
O516 Pr496 2.562 . S
O516 C498 1.254 . S
O517 Pr496 2.490 . S
O517 C498 1.225 . S
O518 Pr496 2.695 . S
O518 Pr497 2.436 . S
O518 C505 1.270 . S
O519 Pr496 2.512 . S
O519 C505 1.248 . S
O520 Pr497 2.438 . S
O520 C506 1.267 . S
O521 Pr496 2.437 . S
O521 C506 1.278 . S
O522 Pr497 2.562 . S
O522 C507 1.254 . S
O523 Pr497 2.490 . S
O523 C507 1.225 . S
O524 Pr496 2.436 . S
O524 Pr497 2.695 . S
O524 C514 1.270 1_455 S
O525 Pr497 2.567 . S
O525 C514 1.254 1_455 S
O526 Pr496 2.438 . S
O526 C515 1.267 . S
O527 Pr497 2.437 . S
O527 C515 1.278 . S
H528 C500 0.929 . S
H529 C501 0.929 . S
H530 C503 0.931 . S
H531 C504 0.930 . S
H532 C509 0.929 . S
H533 C510 0.929 . S
H534 C512 0.931 . S
H535 C513 0.930 . S
Pr536 C538 2.880 . S
Pr536 O556 2.562 . S
Pr536 O557 2.490 . S
Pr536 O558 2.695 . S
Pr536 O559 2.512 . S
Pr536 O561 2.437 . S
Pr536 O564 2.436 . S
Pr536 O566 2.438 . S
Pr537 C547 2.880 . S
Pr537 O558 2.436 . S
Pr537 O560 2.438 . S
Pr537 O562 2.562 . S
Pr537 O563 2.490 . S
Pr537 O564 2.695 . S
Pr537 O565 2.512 . S
Pr537 O567 2.437 . S
C538 Pr536 2.880 . S
C538 C539 1.491 . S
C538 O556 1.254 . S
C538 O557 1.225 . S
C539 C538 1.491 . S
C539 C540 1.392 . S
C539 C544 1.356 . S
C540 C539 1.392 . S
C540 C541 1.368 . S
C540 H568 0.929 . S
C541 C540 1.368 . S
C541 C542 1.386 . S
C541 H569 0.929 . S
C542 C541 1.386 . S
C542 C543 1.373 . S
C543 C542 1.373 . S
C543 C544 1.409 . S
C543 H570 0.931 . S
C544 C539 1.356 . S
C544 C543 1.409 . S
C544 H571 0.930 . S
C545 O558 1.270 . S
C545 O559 1.248 . S
C546 O560 1.267 . S
C546 O561 1.278 . S
C547 Pr537 2.880 . S
C547 C548 1.491 . S
C547 O562 1.254 . S
C547 O563 1.225 . S
C548 C547 1.491 . S
C548 C549 1.392 . S
C548 C553 1.356 . S
C549 C548 1.392 . S
C549 C550 1.368 . S
C549 H572 0.929 . S
C550 C549 1.368 . S
C550 C551 1.386 . S
C550 H573 0.929 . S
C551 C550 1.386 . S
C551 C552 1.373 . S
C552 C551 1.373 . S
C552 C553 1.409 . S
C552 H574 0.931 . S
C553 C548 1.356 . S
C553 C552 1.409 . S
C553 H575 0.930 . S
C554 O564 1.270 . S
C554 O565 1.248 . S
C555 O566 1.267 . S
C555 O567 1.278 . S
O556 Pr536 2.562 . S
O556 C538 1.254 . S
O557 Pr536 2.490 . S
O557 C538 1.225 . S
O558 Pr536 2.695 . S
O558 Pr537 2.436 . S
O558 C545 1.270 . S
O559 Pr536 2.512 . S
O559 C545 1.248 . S
O560 Pr537 2.438 . S
O560 C546 1.267 . S
O561 Pr536 2.437 . S
O561 C546 1.278 . S
O562 Pr537 2.562 . S
O562 C547 1.254 . S
O563 Pr537 2.490 . S
O563 C547 1.225 . S
O564 Pr536 2.436 . S
O564 Pr537 2.695 . S
O564 C554 1.270 . S
O565 Pr537 2.512 . S
O565 C554 1.248 . S
O566 Pr536 2.438 . S
O566 C555 1.267 . S
O567 Pr537 2.437 . S
O567 C555 1.278 . S
H568 C540 0.929 . S
H569 C541 0.929 . S
H570 C543 0.931 . S
H571 C544 0.930 . S
H572 C549 0.929 . S
H573 C550 0.929 . S
H574 C552 0.931 . S
H575 C553 0.930 . S
Pr576 C578 2.880 . S
Pr576 O596 2.562 . S
Pr576 O597 2.490 . S
Pr576 O598 2.695 . S
Pr576 O599 2.512 . S
Pr576 O601 2.437 . S
Pr576 O604 2.436 . S
Pr576 O606 2.438 . S
Pr577 C587 2.880 . S
Pr577 O598 2.436 1_556 S
Pr577 O600 2.438 1_556 S
Pr577 O602 2.562 . S
Pr577 O603 2.490 . S
Pr577 O604 2.695 1_556 S
Pr577 O605 2.512 1_556 S
Pr577 O607 2.437 1_556 S
C578 Pr576 2.880 . S
C578 C579 1.491 . S
C578 O596 1.254 . S
C578 O597 1.225 . S
C579 C578 1.491 . S
C579 C580 1.392 . S
C579 C584 1.356 . S
C580 C579 1.392 . S
C580 C581 1.368 . S
C580 H608 0.929 . S
C581 C580 1.368 . S
C581 C582 1.386 . S
C581 H609 0.929 . S
C582 C581 1.386 . S
C582 C583 1.373 . S
C583 C582 1.373 . S
C583 C584 1.409 . S
C583 H610 0.931 . S
C584 C579 1.356 . S
C584 C583 1.409 . S
C584 H611 0.930 . S
C585 O598 1.270 . S
C585 O599 1.248 . S
C586 O600 1.267 . S
C586 O601 1.278 . S
C587 Pr577 2.880 . S
C587 C588 1.491 . S
C587 O602 1.254 . S
C587 O603 1.225 . S
C588 C587 1.491 . S
C588 C589 1.392 . S
C588 C593 1.356 . S
C589 C588 1.392 . S
C589 C590 1.368 . S
C589 H612 0.929 . S
C590 C589 1.368 . S
C590 C591 1.386 . S
C590 H613 0.929 . S
C591 C590 1.386 . S
C591 C592 1.373 . S
C592 C591 1.373 . S
C592 C593 1.409 . S
C592 H614 0.931 . S
C593 C588 1.356 . S
C593 C592 1.409 . S
C593 H615 0.930 . S
C594 O604 1.270 . S
C594 O605 1.248 . S
C595 O606 1.267 . S
C595 O607 1.278 . S
O596 Pr576 2.562 . S
O596 C578 1.254 . S
O597 Pr576 2.490 . S
O597 C578 1.225 . S
O598 Pr576 2.695 . S
O598 Pr577 2.436 1_554 S
O598 C585 1.270 . S
O599 Pr576 2.512 . S
O599 C585 1.248 . S
O600 Pr577 2.438 1_554 S
O600 C586 1.267 . S
O601 Pr576 2.437 . S
O601 C586 1.278 . S
O602 Pr577 2.562 . S
O602 C587 1.254 . S
O603 Pr577 2.490 . S
O603 C587 1.225 . S
O604 Pr576 2.436 . S
O604 Pr577 2.695 1_554 S
O604 C594 1.270 . S
O605 Pr577 2.512 1_554 S
O605 C594 1.248 . S
O606 Pr576 2.438 . S
O606 C595 1.267 . S
O607 Pr577 2.437 1_554 S
O607 C595 1.278 . S
H608 C580 0.929 . S
H609 C581 0.929 . S
H610 C583 0.931 . S
H611 C584 0.930 . S
H612 C589 0.929 . S
H613 C590 0.929 . S
H614 C592 0.931 . S
H615 C593 0.930 . S
Pr616 C618 2.880 . S
Pr616 O636 2.562 . S
Pr616 O637 2.490 . S
Pr616 O638 2.695 . S
Pr616 O639 2.512 . S
Pr616 O641 2.437 . S
Pr616 O644 2.436 . S
Pr616 O646 2.438 . S
Pr617 C627 2.880 . S
Pr617 O638 2.436 . S
Pr617 O640 2.438 . S
Pr617 O642 2.562 . S
Pr617 O643 2.490 . S
Pr617 O644 2.695 . S
Pr617 O645 2.512 . S
Pr617 O647 2.437 . S
C618 Pr616 2.880 . S
C618 C619 1.491 . S
C618 O636 1.254 . S
C618 O637 1.225 . S
C619 C618 1.491 . S
C619 C620 1.392 . S
C619 C624 1.356 . S
C620 C619 1.392 . S
C620 C621 1.368 . S
C620 H648 0.929 . S
C621 C620 1.368 . S
C621 C622 1.386 . S
C621 H649 0.929 . S
C622 C621 1.386 . S
C622 C623 1.373 . S
C623 C622 1.373 . S
C623 C624 1.409 . S
C623 H650 0.931 . S
C624 C619 1.356 . S
C624 C623 1.409 . S
C624 H651 0.930 . S
C625 O638 1.270 . S
C625 O639 1.248 . S
C626 O640 1.267 . S
C626 O641 1.278 . S
C627 Pr617 2.880 . S
C627 C628 1.491 . S
C627 O642 1.254 . S
C627 O643 1.225 . S
C628 C627 1.491 . S
C628 C629 1.392 . S
C628 C633 1.356 . S
C629 C628 1.392 . S
C629 C630 1.368 . S
C629 H652 0.929 . S
C630 C629 1.368 . S
C630 C631 1.386 . S
C630 H653 0.929 . S
C631 C630 1.386 . S
C631 C632 1.373 . S
C632 C631 1.373 . S
C632 C633 1.409 . S
C632 H654 0.931 . S
C633 C628 1.356 . S
C633 C632 1.409 . S
C633 H655 0.930 . S
C634 O644 1.270 . S
C634 O645 1.248 . S
C635 O646 1.267 . S
C635 O647 1.278 . S
O636 Pr616 2.562 . S
O636 C618 1.254 . S
O637 Pr616 2.490 . S
O637 C618 1.225 . S
O638 Pr616 2.695 . S
O638 Pr617 2.436 . S
O638 C625 1.270 . S
O639 Pr616 2.512 . S
O639 C625 1.248 . S
O640 Pr617 2.438 . S
O640 C626 1.267 . S
O641 Pr616 2.437 . S
O641 C626 1.278 . S
O642 Pr617 2.562 . S
O642 C627 1.254 . S
O643 Pr617 2.490 . S
O643 C627 1.225 . S
O644 Pr616 2.436 . S
O644 Pr617 2.695 . S
O644 C634 1.270 . S
O645 Pr617 2.512 . S
O645 C634 1.248 . S
O646 Pr616 2.438 . S
O646 C635 1.267 . S
O647 Pr617 2.437 . S
O647 C635 1.278 . S
H648 C620 0.929 . S
H649 C621 0.929 . S
H650 C623 0.931 . S
H651 C624 0.930 . S
H652 C629 0.929 . S
H653 C630 0.929 . S
H654 C632 0.931 . S
H655 C633 0.930 . S
Pr656 C658 2.824 1_554 S
Pr656 O676 2.524 1_554 S
Pr656 O677 2.428 1_554 S
Pr656 O678 2.736 . S
Pr656 O679 2.506 . S
Pr656 O681 2.431 . S
Pr656 O684 2.481 . S
Pr656 O686 2.485 . S
Pr657 C667 2.880 . S
Pr657 O678 2.436 . S
Pr657 O680 2.438 . S
Pr657 O682 2.562 . S
Pr657 O683 2.490 . S
Pr657 O684 2.695 . S
Pr657 O685 2.512 . S
Pr657 O687 2.437 . S
C658 Pr656 2.824 1_556 S
C658 C659 1.491 . S
C658 O676 1.254 . S
C658 O677 1.225 . S
C659 C658 1.491 . S
C659 C660 1.392 . S
C659 C664 1.356 . S
C660 C659 1.392 . S
C660 C661 1.368 . S
C660 H688 0.929 . S
C661 C660 1.368 . S
C661 C662 1.386 . S
C661 H689 0.929 . S
C662 C661 1.386 . S
C662 C663 1.373 . S
C663 C662 1.373 . S
C663 C664 1.409 . S
C663 H690 0.931 . S
C664 C659 1.356 . S
C664 C663 1.409 . S
C664 H691 0.930 . S
C665 O678 1.270 . S
C665 O679 1.248 . S
C666 O680 1.267 . S
C666 O681 1.278 . S
C667 Pr657 2.880 . S
C667 C668 1.491 . S
C667 O682 1.254 . S
C667 O683 1.225 . S
C668 C667 1.491 . S
C668 C669 1.392 . S
C668 C673 1.356 . S
C669 C668 1.392 . S
C669 C670 1.368 . S
C669 H692 0.929 . S
C670 C669 1.368 . S
C670 C671 1.386 . S
C670 H693 0.929 . S
C671 C670 1.386 . S
C671 C672 1.373 . S
C672 C671 1.373 . S
C672 C673 1.409 . S
C672 H694 0.931 . S
C673 C668 1.356 . S
C673 C672 1.409 . S
C673 H695 0.930 . S
C674 O684 1.270 . S
C674 O685 1.248 . S
C675 O686 1.267 . S
C675 O687 1.278 . S
O676 Pr656 2.524 1_556 S
O676 C658 1.254 . S
O677 Pr656 2.428 1_556 S
O677 C658 1.225 . S
O678 Pr656 2.736 . S
O678 Pr657 2.436 . S
O678 C665 1.270 . S
O679 Pr656 2.506 . S
O679 C665 1.248 . S
O680 Pr657 2.438 . S
O680 C666 1.267 . S
O681 Pr656 2.431 . S
O681 C666 1.278 . S
O682 Pr657 2.562 . S
O682 C667 1.254 . S
O683 Pr657 2.490 . S
O683 C667 1.225 . S
O684 Pr656 2.481 . S
O684 Pr657 2.695 . S
O684 C674 1.270 . S
O685 Pr657 2.512 . S
O685 C674 1.248 . S
O686 Pr656 2.485 . S
O686 C675 1.267 . S
O687 Pr657 2.437 . S
O687 C675 1.278 . S
H688 C660 0.929 . S
H689 C661 0.929 . S
H690 C663 0.931 . S
H691 C664 0.930 . S
H692 C669 0.929 . S
H693 C670 0.929 . S
H694 C672 0.931 . S
H695 C673 0.930 . S
Pr696 C698 2.880 . S
Pr696 O716 2.562 . S
Pr696 O717 2.490 . S
Pr696 O718 2.695 . S
Pr696 O719 2.512 . S
Pr696 O721 2.437 . S
Pr696 O724 2.436 . S
Pr696 O726 2.438 . S
Pr697 C707 2.880 . S
Pr697 O718 2.436 . S
Pr697 O720 2.438 . S
Pr697 O722 2.562 . S
Pr697 O723 2.490 . S
Pr697 O724 2.695 . S
Pr697 O725 2.512 . S
Pr697 O727 2.437 . S
C698 Pr696 2.880 . S
C698 C699 1.491 . S
C698 O716 1.254 . S
C698 O717 1.225 . S
C699 C698 1.491 . S
C699 C700 1.392 . S
C699 C704 1.356 . S
C700 C699 1.392 . S
C700 C701 1.368 . S
C700 H728 0.929 . S
C701 C700 1.368 . S
C701 C702 1.386 . S
C701 H729 0.929 . S
C702 C701 1.386 . S
C702 C703 1.373 . S
C703 C702 1.373 . S
C703 C704 1.409 . S
C703 H730 0.931 . S
C704 C699 1.356 . S
C704 C703 1.409 . S
C704 H731 0.930 . S
C705 O718 1.270 . S
C705 O719 1.248 . S
C706 O720 1.267 . S
C706 O721 1.278 . S
C707 Pr697 2.880 . S
C707 C708 1.491 . S
C707 O722 1.254 . S
C707 O723 1.225 . S
C708 C707 1.491 . S
C708 C709 1.392 . S
C708 C713 1.356 . S
C709 C708 1.392 . S
C709 C710 1.368 . S
C709 H732 0.929 . S
C710 C709 1.368 . S
C710 C711 1.386 . S
C710 H733 0.929 . S
C711 C710 1.386 . S
C711 C712 1.373 . S
C712 C711 1.373 . S
C712 C713 1.409 . S
C712 H734 0.931 . S
C713 C708 1.356 . S
C713 C712 1.409 . S
C713 H735 0.930 . S
C714 O724 1.270 . S
C714 O725 1.248 . S
C715 O726 1.267 . S
C715 O727 1.278 . S
O716 Pr696 2.562 . S
O716 C698 1.254 . S
O717 Pr696 2.490 . S
O717 C698 1.225 . S
O718 Pr696 2.695 . S
O718 Pr697 2.436 . S
O718 C705 1.270 . S
O719 Pr696 2.512 . S
O719 C705 1.248 . S
O720 Pr697 2.438 . S
O720 C706 1.267 . S
O721 Pr696 2.437 . S
O721 C706 1.278 . S
O722 Pr697 2.562 . S
O722 C707 1.254 . S
O723 Pr697 2.490 . S
O723 C707 1.225 . S
O724 Pr696 2.436 . S
O724 Pr697 2.695 . S
O724 C714 1.270 . S
O725 Pr697 2.512 . S
O725 C714 1.248 . S
O726 Pr696 2.438 . S
O726 C715 1.267 . S
O727 Pr697 2.437 . S
O727 C715 1.278 . S
H728 C700 0.929 . S
H729 C701 0.929 . S
H730 C703 0.931 . S
H731 C704 0.930 . S
H732 C709 0.929 . S
H733 C710 0.929 . S
H734 C712 0.931 . S
H735 C713 0.930 . S
Pr736 C738 2.880 . S
Pr736 O756 2.562 . S
Pr736 O757 2.490 . S
Pr736 O758 2.695 . S
Pr736 O759 2.512 . S
Pr736 O761 2.437 . S
Pr736 O764 2.436 . S
Pr736 O766 2.438 . S
Pr737 C747 2.880 . S
Pr737 O758 2.436 . S
Pr737 O760 2.438 . S
Pr737 O762 2.562 . S
Pr737 O763 2.490 . S
Pr737 O764 2.695 . S
Pr737 O765 2.512 . S
Pr737 O767 2.437 . S
C738 Pr736 2.880 . S
C738 C739 1.491 . S
C738 O756 1.254 . S
C738 O757 1.225 . S
C739 C738 1.491 . S
C739 C740 1.392 . S
C739 C744 1.356 . S
C740 C739 1.392 . S
C740 C741 1.368 . S
C740 H768 0.929 . S
C741 C740 1.368 . S
C741 C742 1.366 1_455 S
C741 H769 0.929 . S
C742 C741 1.366 1_655 S
C742 C743 1.378 . S
C743 C742 1.378 . S
C743 C744 1.409 1_655 S
C743 H770 0.931 . S
C744 C739 1.356 . S
C744 C743 1.409 1_455 S
C744 H771 0.930 . S
C745 O758 1.270 . S
C745 O759 1.248 . S
C746 O760 1.267 1_655 S
C746 O761 1.279 1_655 S
C747 Pr737 2.880 . S
C747 C748 1.491 . S
C747 O762 1.254 . S
C747 O763 1.225 . S
C748 C747 1.491 . S
C748 C749 1.392 . S
C748 C753 1.356 . S
C749 C748 1.392 . S
C749 C750 1.368 . S
C749 H772 0.929 . S
C750 C749 1.368 . S
C750 C751 1.386 . S
C750 H773 0.929 . S
C751 C750 1.386 . S
C751 C752 1.373 . S
C752 C751 1.373 . S
C752 C753 1.409 . S
C752 H774 0.931 . S
C753 C748 1.356 . S
C753 C752 1.409 . S
C753 H775 0.930 . S
C754 O764 1.270 . S
C754 O765 1.248 . S
C755 O766 1.267 . S
C755 O767 1.278 . S
O756 Pr736 2.562 . S
O756 C738 1.254 . S
O757 Pr736 2.490 . S
O757 C738 1.225 . S
O758 Pr736 2.695 . S
O758 Pr737 2.436 . S
O758 C745 1.270 . S
O759 Pr736 2.512 . S
O759 C745 1.248 . S
O760 Pr737 2.438 . S
O760 C746 1.267 1_455 S
O761 Pr736 2.437 . S
O761 C746 1.279 1_455 S
O762 Pr737 2.562 . S
O762 C747 1.254 . S
O763 Pr737 2.490 . S
O763 C747 1.225 . S
O764 Pr736 2.436 . S
O764 Pr737 2.695 . S
O764 C754 1.270 . S
O765 Pr737 2.512 . S
O765 C754 1.248 . S
O766 Pr736 2.438 . S
O766 C755 1.267 . S
O767 Pr737 2.437 . S
O767 C755 1.278 . S
H768 C740 0.929 . S
H769 C741 0.929 . S
H770 C743 0.931 . S
H771 C744 0.930 . S
H772 C749 0.929 . S
H773 C750 0.929 . S
H774 C752 0.931 . S
H775 C753 0.930 . S
Pr776 C778 2.880 . S
Pr776 O796 2.562 . S
Pr776 O797 2.490 . S
Pr776 O798 2.695 . S
Pr776 O799 2.512 . S
Pr776 O801 2.437 . S
Pr776 O804 2.436 . S
Pr776 O806 2.438 . S
Pr777 C787 2.880 . S
Pr777 O798 2.436 . S
Pr777 O800 2.438 . S
Pr777 O802 2.562 . S
Pr777 O803 2.490 . S
Pr777 O804 2.695 . S
Pr777 O805 2.512 . S
Pr777 O807 2.437 . S
C778 Pr776 2.880 . S
C778 C779 1.491 . S
C778 O796 1.254 . S
C778 O797 1.225 . S
C779 C778 1.491 . S
C779 C780 1.392 . S
C779 C784 1.356 . S
C780 C779 1.392 . S
C780 C781 1.368 . S
C780 H808 0.929 . S
C781 C780 1.368 . S
C781 C782 1.386 . S
C781 H809 0.929 . S
C782 C781 1.386 . S
C782 C783 1.373 . S
C783 C782 1.373 . S
C783 C784 1.409 . S
C783 H810 0.931 . S
C784 C779 1.356 . S
C784 C783 1.409 . S
C784 H811 0.930 . S
C785 O798 1.270 . S
C785 O799 1.248 . S
C786 O800 1.267 . S
C786 O801 1.278 . S
C787 Pr777 2.880 . S
C787 C788 1.491 . S
C787 O802 1.254 . S
C787 O803 1.225 . S
C788 C787 1.491 . S
C788 C789 1.392 . S
C788 C793 1.356 . S
C789 C788 1.392 . S
C789 C790 1.368 . S
C789 H812 0.929 . S
C790 C789 1.368 . S
C790 C791 1.386 . S
C790 H813 0.929 . S
C791 C790 1.386 . S
C791 C792 1.373 . S
C792 C791 1.373 . S
C792 C793 1.409 . S
C792 H814 0.931 . S
C793 C788 1.356 . S
C793 C792 1.409 . S
C793 H815 0.930 . S
C794 O804 1.270 . S
C794 O805 1.248 . S
C795 O806 1.267 . S
C795 O807 1.278 . S
O796 Pr776 2.562 . S
O796 C778 1.254 . S
O797 Pr776 2.490 . S
O797 C778 1.225 . S
O798 Pr776 2.695 . S
O798 Pr777 2.436 . S
O798 C785 1.270 . S
O799 Pr776 2.512 . S
O799 C785 1.248 . S
O800 Pr777 2.438 . S
O800 C786 1.267 . S
O801 Pr776 2.437 . S
O801 C786 1.278 . S
O802 Pr777 2.562 . S
O802 C787 1.254 . S
O803 Pr777 2.490 . S
O803 C787 1.225 . S
O804 Pr776 2.436 . S
O804 Pr777 2.695 . S
O804 C794 1.270 . S
O805 Pr777 2.512 . S
O805 C794 1.248 . S
O806 Pr776 2.438 . S
O806 C795 1.267 . S
O807 Pr777 2.437 . S
O807 C795 1.278 . S
H808 C780 0.929 . S
H809 C781 0.929 . S
H810 C783 0.931 . S
H811 C784 0.930 . S
H812 C789 0.929 . S
H813 C790 0.929 . S
H814 C792 0.931 . S
H815 C793 0.930 . S
Pr816 C818 2.880 . S
Pr816 O836 2.562 . S
Pr816 O837 2.490 . S
Pr816 O838 2.695 . S
Pr816 O839 2.512 . S
Pr816 O841 2.437 . S
Pr816 O844 2.436 . S
Pr816 O846 2.438 . S
Pr817 C827 2.880 . S
Pr817 O838 2.436 . S
Pr817 O840 2.438 . S
Pr817 O842 2.562 . S
Pr817 O843 2.490 . S
Pr817 O844 2.695 . S
Pr817 O845 2.512 . S
Pr817 O847 2.437 . S
C818 Pr816 2.880 . S
C818 C819 1.491 . S
C818 O836 1.254 . S
C818 O837 1.225 . S
C819 C818 1.491 . S
C819 C820 1.392 . S
C819 C824 1.356 . S
C820 C819 1.392 . S
C820 C821 1.368 . S
C820 H848 0.929 . S
C821 C820 1.368 . S
C821 C822 1.386 . S
C821 H849 0.929 . S
C822 C821 1.386 . S
C822 C823 1.373 . S
C823 C822 1.373 . S
C823 C824 1.409 . S
C823 H850 0.931 . S
C824 C819 1.356 . S
C824 C823 1.409 . S
C824 H851 0.930 . S
C825 O838 1.270 . S
C825 O839 1.248 . S
C826 O840 1.267 . S
C826 O841 1.278 . S
C827 Pr817 2.880 . S
C827 C828 1.491 . S
C827 O842 1.254 . S
C827 O843 1.225 . S
C828 C827 1.491 . S
C828 C829 1.392 . S
C828 C833 1.356 . S
C829 C828 1.392 . S
C829 C830 1.368 . S
C829 H852 0.929 . S
C830 C829 1.368 . S
C830 C831 1.386 . S
C830 H853 0.929 . S
C831 C830 1.386 . S
C831 C832 1.373 . S
C832 C831 1.373 . S
C832 C833 1.409 . S
C832 H854 0.931 . S
C833 C828 1.356 . S
C833 C832 1.409 . S
C833 H855 0.930 . S
C834 O844 1.270 . S
C834 O845 1.248 . S
C835 O846 1.267 . S
C835 O847 1.278 . S
O836 Pr816 2.562 . S
O836 C818 1.254 . S
O837 Pr816 2.490 . S
O837 C818 1.225 . S
O838 Pr816 2.695 . S
O838 Pr817 2.436 . S
O838 C825 1.270 . S
O839 Pr816 2.512 . S
O839 C825 1.248 . S
O840 Pr817 2.438 . S
O840 C826 1.267 . S
O841 Pr816 2.437 . S
O841 C826 1.278 . S
O842 Pr817 2.562 . S
O842 C827 1.254 . S
O843 Pr817 2.490 . S
O843 C827 1.225 . S
O844 Pr816 2.436 . S
O844 Pr817 2.695 . S
O844 C834 1.270 . S
O845 Pr817 2.512 . S
O845 C834 1.248 . S
O846 Pr816 2.438 . S
O846 C835 1.267 . S
O847 Pr817 2.437 . S
O847 C835 1.278 . S
H848 C820 0.929 . S
H849 C821 0.929 . S
H850 C823 0.931 . S
H851 C824 0.930 . S
H852 C829 0.929 . S
H853 C830 0.929 . S
H854 C832 0.931 . S
H855 C833 0.930 . S
Pr856 C858 2.880 . S
Pr856 O876 2.562 . S
Pr856 O877 2.490 . S
Pr856 O878 2.695 . S
Pr856 O879 2.512 . S
Pr856 O881 2.437 . S
Pr856 O884 2.436 . S
Pr856 O886 2.438 . S
Pr857 C867 2.880 . S
Pr857 O878 2.436 . S
Pr857 O880 2.438 . S
Pr857 O882 2.562 . S
Pr857 O883 2.490 . S
Pr857 O884 2.695 . S
Pr857 O885 2.512 . S
Pr857 O887 2.437 . S
C858 Pr856 2.880 . S
C858 C859 1.491 . S
C858 O876 1.254 . S
C858 O877 1.225 . S
C859 C858 1.491 . S
C859 C860 1.392 . S
C859 C864 1.356 . S
C860 C859 1.392 . S
C860 C861 1.368 . S
C860 H888 0.929 . S
C861 C860 1.368 . S
C861 C862 1.386 . S
C861 H889 0.929 . S
C862 C861 1.386 . S
C862 C863 1.373 . S
C863 C862 1.373 . S
C863 C864 1.409 . S
C863 H890 0.931 . S
C864 C859 1.356 . S
C864 C863 1.409 . S
C864 H891 0.930 . S
C865 O878 1.270 . S
C865 O879 1.248 . S
C866 O880 1.267 . S
C866 O881 1.278 . S
C867 Pr857 2.880 . S
C867 C868 1.491 . S
C867 O882 1.254 . S
C867 O883 1.225 . S
C868 C867 1.491 . S
C868 C869 1.392 . S
C868 C873 1.356 . S
C869 C868 1.392 . S
C869 C870 1.368 . S
C869 H892 0.929 . S
C870 C869 1.368 . S
C870 C871 1.386 . S
C870 H893 0.929 . S
C871 C870 1.386 . S
C871 C872 1.373 . S
C872 C871 1.373 . S
C872 C873 1.409 . S
C872 H894 0.931 . S
C873 C868 1.356 . S
C873 C872 1.409 . S
C873 H895 0.930 . S
C874 O884 1.270 . S
C874 O885 1.248 . S
C875 O886 1.267 . S
C875 O887 1.278 . S
O876 Pr856 2.562 . S
O876 C858 1.254 . S
O877 Pr856 2.490 . S
O877 C858 1.225 . S
O878 Pr856 2.695 . S
O878 Pr857 2.436 . S
O878 C865 1.270 . S
O879 Pr856 2.512 . S
O879 C865 1.248 . S
O880 Pr857 2.438 . S
O880 C866 1.267 . S
O881 Pr856 2.437 . S
O881 C866 1.278 . S
O882 Pr857 2.562 . S
O882 C867 1.254 . S
O883 Pr857 2.490 . S
O883 C867 1.225 . S
O884 Pr856 2.436 . S
O884 Pr857 2.695 . S
O884 C874 1.270 . S
O885 Pr857 2.512 . S
O885 C874 1.248 . S
O886 Pr856 2.438 . S
O886 C875 1.267 . S
O887 Pr857 2.437 . S
O887 C875 1.278 . S
H888 C860 0.929 . S
H889 C861 0.929 . S
H890 C863 0.931 . S
H891 C864 0.930 . S
H892 C869 0.929 . S
H893 C870 0.929 . S
H894 C872 0.931 . S
H895 C873 0.930 . S
Pr896 C898 2.880 . S
Pr896 O916 2.562 . S
Pr896 O917 2.490 . S
Pr896 O918 2.695 . S
Pr896 O919 2.512 . S
Pr896 O921 2.437 . S
Pr896 O924 2.436 . S
Pr896 O926 2.438 . S
Pr897 C907 2.880 . S
Pr897 O918 2.436 . S
Pr897 O920 2.438 . S
Pr897 O922 2.562 . S
Pr897 O923 2.490 . S
Pr897 O924 2.695 . S
Pr897 O925 2.512 . S
Pr897 O927 2.437 . S
C898 Pr896 2.880 . S
C898 C899 1.491 . S
C898 O916 1.254 . S
C898 O917 1.225 . S
C899 C898 1.491 . S
C899 C900 1.392 . S
C899 C904 1.356 . S
C900 C899 1.392 . S
C900 C901 1.368 . S
C900 H928 0.929 . S
C901 C900 1.368 . S
C901 C902 1.386 . S
C901 H929 0.929 . S
C902 C901 1.386 . S
C902 C903 1.373 . S
C903 C902 1.373 . S
C903 C904 1.409 . S
C903 H930 0.931 . S
C904 C899 1.356 . S
C904 C903 1.409 . S
C904 H931 0.930 . S
C905 O918 1.270 . S
C905 O919 1.248 . S
C906 O920 1.267 . S
C906 O921 1.278 . S
C907 Pr897 2.880 . S
C907 C908 1.491 . S
C907 O922 1.254 . S
C907 O923 1.225 . S
C908 C907 1.491 . S
C908 C909 1.392 . S
C908 C913 1.356 . S
C909 C908 1.392 . S
C909 C910 1.368 . S
C909 H932 0.929 . S
C910 C909 1.368 . S
C910 C911 1.386 . S
C910 H933 0.929 . S
C911 C910 1.386 . S
C911 C912 1.373 . S
C912 C911 1.373 . S
C912 C913 1.409 . S
C912 H934 0.931 . S
C913 C908 1.356 . S
C913 C912 1.409 . S
C913 H935 0.930 . S
C914 O924 1.270 . S
C914 O925 1.248 . S
C915 O926 1.267 . S
C915 O927 1.278 . S
O916 Pr896 2.562 . S
O916 C898 1.254 . S
O917 Pr896 2.490 . S
O917 C898 1.225 . S
O918 Pr896 2.695 . S
O918 Pr897 2.436 . S
O918 C905 1.270 . S
O919 Pr896 2.512 . S
O919 C905 1.248 . S
O920 Pr897 2.438 . S
O920 C906 1.267 . S
O921 Pr896 2.437 . S
O921 C906 1.278 . S
O922 Pr897 2.562 . S
O922 C907 1.254 . S
O923 Pr897 2.490 . S
O923 C907 1.225 . S
O924 Pr896 2.436 . S
O924 Pr897 2.695 . S
O924 C914 1.270 . S
O925 Pr897 2.512 . S
O925 C914 1.248 . S
O926 Pr896 2.438 . S
O926 C915 1.267 . S
O927 Pr897 2.437 . S
O927 C915 1.278 . S
H928 C900 0.929 . S
H929 C901 0.929 . S
H930 C903 0.931 . S
H931 C904 0.930 . S
H932 C909 0.929 . S
H933 C910 0.929 . S
H934 C912 0.931 . S
H935 C913 0.930 . S
Pr936 C938 2.880 . S
Pr936 O956 2.562 . S
Pr936 O957 2.490 . S
Pr936 O958 2.695 . S
Pr936 O959 2.512 1_554 S
Pr936 O961 2.437 . S
Pr936 O964 2.436 . S
Pr936 O966 2.438 . S
Pr937 C947 2.880 1_455 S
Pr937 O958 2.436 . S
Pr937 O960 2.438 . S
Pr937 O962 2.562 1_455 S
Pr937 O963 2.490 1_455 S
Pr937 O964 2.695 . S
Pr937 O965 2.512 . S
Pr937 O967 2.437 . S
C938 Pr936 2.880 . S
C938 C939 1.491 . S
C938 O956 1.254 . S
C938 O957 1.225 . S
C939 C938 1.491 . S
C939 C940 1.392 1_554 S
C939 C944 1.356 . S
C940 C939 1.392 1_556 S
C940 C941 1.368 . S
C940 H968 0.929 . S
C941 C940 1.368 . S
C941 C942 1.386 . S
C941 H969 0.929 . S
C942 C941 1.386 . S
C942 C943 1.373 1_556 S
C943 C942 1.373 1_554 S
C943 C944 1.409 . S
C943 H970 0.931 . S
C944 C939 1.356 . S
C944 C943 1.409 . S
C944 H971 0.930 . S
C945 O958 1.270 1_556 S
C945 O959 1.248 . S
C946 O960 1.267 . S
C946 O961 1.278 . S
C947 Pr937 2.880 1_655 S
C947 C948 1.491 . S
C947 O962 1.254 . S
C947 O963 1.225 . S
C948 C947 1.491 . S
C948 C949 1.392 . S
C948 C953 1.356 . S
C949 C948 1.392 . S
C949 C950 1.368 . S
C949 H972 0.929 . S
C950 C949 1.368 . S
C950 C951 1.386 . S
C950 H973 0.929 . S
C951 C950 1.386 . S
C951 C952 1.373 . S
C952 C951 1.373 . S
C952 C953 1.409 . S
C952 H974 0.931 . S
C953 C948 1.356 . S
C953 C952 1.409 . S
C953 H975 0.930 . S
C954 O964 1.270 . S
C954 O965 1.248 . S
C955 O966 1.267 . S
C955 O967 1.278 . S
O956 Pr936 2.562 . S
O956 C938 1.254 . S
O957 Pr936 2.490 . S
O957 C938 1.225 . S
O958 Pr936 2.695 . S
O958 Pr937 2.436 . S
O958 C945 1.270 1_554 S
O959 Pr936 2.512 1_556 S
O959 C945 1.248 . S
O960 Pr937 2.438 . S
O960 C946 1.267 . S
O961 Pr936 2.437 . S
O961 C946 1.278 . S
O962 Pr937 2.562 1_655 S
O962 C947 1.254 . S
O963 Pr937 2.490 1_655 S
O963 C947 1.225 . S
O964 Pr936 2.436 . S
O964 Pr937 2.695 . S
O964 C954 1.270 . S
O965 Pr937 2.512 . S
O965 C954 1.248 . S
O966 Pr936 2.438 . S
O966 C955 1.267 . S
O967 Pr937 2.437 . S
O967 C955 1.278 . S
H968 C940 0.929 . S
H969 C941 0.929 . S
H970 C943 0.931 . S
H971 C944 0.930 . S
H972 C949 0.929 . S
H973 C950 0.929 . S
H974 C952 0.931 . S
H975 C953 0.930 . S
H976 C994 0.951 . S
H977 C996 0.951 . S
H978 C998 0.950 . S
H979 C999 0.950 . S
H980 C1001 0.967 . S
H981 C1004 0.950 . S
H982 C1005 0.950 . S
H983 C1007 0.950 . S
H984 C1008 0.950 . S
H985 C1009 0.951 . S
H986 C1011 0.951 . S
H987 C1013 0.950 . S
H988 C1014 0.950 . S
H989 C1016 0.950 1_554 S
H990 C1019 0.950 . S
H991 C1020 0.950 . S
H992 C1022 0.950 . S
H993 C1023 0.988 . S
C994 H976 0.951 . S
C994 C995 1.366 . S
C994 C996 1.388 . S
C995 C994 1.366 . S
C995 C999 1.385 . S
C996 H977 0.951 . S
C996 C994 1.388 . S
C996 C997 1.366 . S
C997 C996 1.366 . S
C997 C998 1.414 . S
C997 C1000 1.499 . S
C998 H978 0.950 . S
C998 C997 1.414 . S
C998 C999 1.374 . S
C999 H979 0.950 . S
C999 C995 1.385 . S
C999 C998 1.374 . S
C1000 C997 1.499 . S
C1000 C1001 1.373 . S
C1000 C1002 1.389 . S
C1001 H980 0.967 . S
C1001 C1000 1.373 . S
C1001 C1017 1.377 . S
C1002 C1000 1.389 . S
C1002 C1003 1.524 . S
C1002 C1016 1.377 . S
C1003 C1002 1.524 . S
C1003 C1004 1.397 . S
C1003 C1008 1.363 1_556 S
C1004 H981 0.950 . S
C1004 C1003 1.397 . S
C1004 C1005 1.334 . S
C1005 H982 0.950 . S
C1005 C1004 1.334 . S
C1005 C1006 1.287 1_556 S
C1006 C1005 1.287 1_554 S
C1006 C1007 1.524 . S
C1006 H1025 0.913 . S
C1007 H983 0.950 . S
C1007 C1006 1.524 . S
C1007 C1008 1.415 . S
C1008 H984 0.950 . S
C1008 C1003 1.363 1_554 S
C1008 C1007 1.415 . S
C1009 H985 0.951 . S
C1009 C1010 1.366 1_556 S
C1009 C1011 1.388 . S
C1010 C1009 1.366 1_554 S
C1010 C1014 1.385 . S
C1011 H986 0.951 . S
C1011 C1009 1.388 . S
C1011 C1012 1.366 . S
C1012 C1011 1.366 . S
C1012 C1013 1.414 1_556 S
C1012 C1015 1.499 . S
C1013 H987 0.950 . S
C1013 C1012 1.414 1_554 S
C1013 C1014 1.374 . S
C1014 H988 0.950 . S
C1014 C1010 1.385 . S
C1014 C1013 1.374 . S
C1015 C1012 1.499 . S
C1015 C1016 1.373 . S
C1015 C1017 1.389 . S
C1016 H989 0.950 1_556 S
C1016 C1002 1.377 . S
C1016 C1015 1.373 . S
C1017 C1001 1.377 . S
C1017 C1015 1.389 . S
C1017 C1018 1.524 1_455 S
C1018 C1017 1.524 1_655 S
C1018 C1019 1.397 . S
C1018 C1023 1.363 . S
C1019 H990 0.950 . S
C1019 C1018 1.397 . S
C1019 C1020 1.334 . S
C1020 H991 0.950 . S
C1020 C1019 1.334 . S
C1020 C1021 1.287 . S
C1021 C1020 1.287 . S
C1021 C1022 1.524 . S
C1021 H1024 0.999 . S
C1022 H992 0.950 . S
C1022 C1021 1.524 . S
C1022 C1023 1.415 . S
C1023 H993 0.988 . S
C1023 C1018 1.363 . S
C1023 C1022 1.415 . S
H1024 C1021 0.999 . S
H1025 C1006 0.913 . S
H1026 C1044 0.951 . S
H1027 C1046 0.951 . S
H1028 C1048 0.950 . S
H1029 C1049 0.950 . S
H1030 C1051 0.950 . S
H1031 C1054 0.950 . S
H1032 C1055 0.950 . S
H1033 C1057 0.950 . S
H1034 C1058 0.950 . S
H1035 C1059 0.951 . S
H1036 C1061 0.951 . S
H1037 C1063 0.950 . S
H1038 C1064 0.950 . S
H1039 C1066 0.950 . S
H1040 C1069 0.950 . S
H1041 C1070 0.950 . S
H1042 C1072 0.950 . S
H1043 C1073 0.950 . S
C1044 H1026 0.951 . S
C1044 C1045 1.366 . S
C1044 C1046 1.388 . S
C1045 C1044 1.366 . S
C1045 C1049 1.385 . S
C1046 H1027 0.951 . S
C1046 C1044 1.388 . S
C1046 C1047 1.366 . S
C1047 C1046 1.366 . S
C1047 C1048 1.414 . S
C1047 C1050 1.499 . S
C1048 H1028 0.950 . S
C1048 C1047 1.414 . S
C1048 C1049 1.374 . S
C1049 H1029 0.950 . S
C1049 C1045 1.385 . S
C1049 C1048 1.374 . S
C1050 C1047 1.499 . S
C1050 C1051 1.373 . S
C1050 C1052 1.389 . S
C1051 H1030 0.950 . S
C1051 C1050 1.373 . S
C1051 C1067 1.377 . S
C1052 C1050 1.389 . S
C1052 C1053 1.524 . S
C1052 C1066 1.377 . S
C1053 C1052 1.524 . S
C1053 C1054 1.397 . S
C1053 C1058 1.363 . S
C1054 H1031 0.950 . S
C1054 C1053 1.397 . S
C1054 C1055 1.334 . S
C1055 H1032 0.950 . S
C1055 C1054 1.334 . S
C1055 C1056 1.287 . S
C1056 C1055 1.287 . S
C1056 C1057 1.524 . S
C1056 H1075 0.913 . S
C1057 H1033 0.950 . S
C1057 C1056 1.524 . S
C1057 C1058 1.415 . S
C1058 H1034 0.950 . S
C1058 C1053 1.363 . S
C1058 C1057 1.415 . S
C1059 H1035 0.951 . S
C1059 C1060 1.366 . S
C1059 C1061 1.388 . S
C1060 C1059 1.366 . S
C1060 C1064 1.385 . S
C1061 H1036 0.951 . S
C1061 C1059 1.388 . S
C1061 C1062 1.366 . S
C1062 C1061 1.366 . S
C1062 C1063 1.414 . S
C1062 C1065 1.499 . S
C1063 H1037 0.950 . S
C1063 C1062 1.414 . S
C1063 C1064 1.374 . S
C1064 H1038 0.950 . S
C1064 C1060 1.385 . S
C1064 C1063 1.374 . S
C1065 C1062 1.499 . S
C1065 C1066 1.373 . S
C1065 C1067 1.389 . S
C1066 H1039 0.950 . S
C1066 C1052 1.377 . S
C1066 C1065 1.373 . S
C1067 C1051 1.377 . S
C1067 C1065 1.389 . S
C1067 C1068 1.524 . S
C1068 C1067 1.524 . S
C1068 C1069 1.397 . S
C1068 C1073 1.363 . S
C1069 H1040 0.950 . S
C1069 C1068 1.397 . S
C1069 C1070 1.334 . S
C1070 H1041 0.950 . S
C1070 C1069 1.334 . S
C1070 C1071 1.287 . S
C1071 C1070 1.287 . S
C1071 C1072 1.524 . S
C1071 H1074 0.999 . S
C1072 H1042 0.950 . S
C1072 C1071 1.524 . S
C1072 C1073 1.415 . S
C1073 H1043 0.950 . S
C1073 C1068 1.363 . S
C1073 C1072 1.415 . S
H1074 C1071 0.999 . S
H1075 C1056 0.913 . S
H1076 C1094 0.951 . S
H1077 C1096 0.951 . S
H1078 C1098 0.950 . S
H1079 C1099 0.950 . S
H1080 C1101 0.950 . S
H1081 C1104 0.950 . S
H1082 C1105 0.950 . S
H1083 C1107 0.950 . S
H1084 C1108 0.950 . S
H1085 C1109 0.951 . S
H1086 C1111 0.951 . S
H1087 C1113 0.950 . S
H1088 C1114 0.948 1_545 S
H1089 C1116 0.950 . S
H1090 C1119 0.950 . S
H1091 C1120 0.950 . S
H1092 C1122 0.950 . S
H1093 C1123 0.950 . S
C1094 H1076 0.951 . S
C1094 C1095 1.366 . S
C1094 C1096 1.388 . S
C1095 C1094 1.366 . S
C1095 C1099 1.385 . S
C1096 H1077 0.951 . S
C1096 C1094 1.388 . S
C1096 C1097 1.366 . S
C1097 C1096 1.366 . S
C1097 C1098 1.414 . S
C1097 C1100 1.499 . S
C1098 H1078 0.950 . S
C1098 C1097 1.414 . S
C1098 C1099 1.374 . S
C1099 H1079 0.950 . S
C1099 C1095 1.385 . S
C1099 C1098 1.374 . S
C1100 C1097 1.499 . S
C1100 C1101 1.373 . S
C1100 C1102 1.389 . S
C1101 H1080 0.950 . S
C1101 C1100 1.373 . S
C1101 C1117 1.377 . S
C1102 C1100 1.389 . S
C1102 C1103 1.524 . S
C1102 C1116 1.377 . S
C1103 C1102 1.524 . S
C1103 C1104 1.397 . S
C1103 C1108 1.363 . S
C1104 H1081 0.950 . S
C1104 C1103 1.397 . S
C1104 C1105 1.334 . S
C1105 H1082 0.950 . S
C1105 C1104 1.334 . S
C1105 C1106 1.287 . S
C1106 C1105 1.287 . S
C1106 C1107 1.524 . S
C1106 H1125 0.913 . S
C1107 H1083 0.950 . S
C1107 C1106 1.524 . S
C1107 C1108 1.415 . S
C1108 H1084 0.950 . S
C1108 C1103 1.363 . S
C1108 C1107 1.415 . S
C1109 H1085 0.951 . S
C1109 C1110 1.366 . S
C1109 C1111 1.388 1_545 S
C1110 C1109 1.366 . S
C1110 C1114 1.385 1_545 S
C1111 H1086 0.951 . S
C1111 C1109 1.388 1_565 S
C1111 C1112 1.366 . S
C1112 C1111 1.366 . S
C1112 C1113 1.414 . S
C1112 C1115 1.499 . S
C1113 H1087 0.950 . S
C1113 C1112 1.414 . S
C1113 C1114 1.374 . S
C1114 H1088 0.948 1_565 S
C1114 C1110 1.385 1_565 S
C1114 C1113 1.374 . S
C1115 C1112 1.499 . S
C1115 C1116 1.373 . S
C1115 C1117 1.389 . S
C1116 H1089 0.950 . S
C1116 C1102 1.377 . S
C1116 C1115 1.373 . S
C1117 C1101 1.377 . S
C1117 C1115 1.389 . S
C1117 C1118 1.524 . S
C1118 C1117 1.524 . S
C1118 C1119 1.397 . S
C1118 C1123 1.363 . S
C1119 H1090 0.950 . S
C1119 C1118 1.397 . S
C1119 C1120 1.334 . S
C1120 H1091 0.950 . S
C1120 C1119 1.334 . S
C1120 C1121 1.287 . S
C1121 C1120 1.287 . S
C1121 C1122 1.524 . S
C1121 H1124 0.999 . S
C1122 H1092 0.950 . S
C1122 C1121 1.524 . S
C1122 C1123 1.415 . S
C1123 H1093 0.950 . S
C1123 C1118 1.363 . S
C1123 C1122 1.415 . S
H1124 C1121 0.999 . S
H1125 C1106 0.913 . S
H1126 C1144 0.951 . S
H1127 C1146 0.951 . S
H1128 C1148 0.950 . S
H1129 C1149 0.950 . S
H1130 C1151 0.950 . S
H1131 C1154 0.950 . S
H1132 C1155 0.950 . S
H1133 C1157 0.950 . S
H1134 C1158 0.950 . S
H1135 C1159 0.951 . S
H1136 C1161 0.951 . S
H1137 C1163 0.950 . S
H1138 C1164 0.950 . S
H1139 C1166 0.950 . S
H1140 C1169 0.950 . S
H1141 C1170 0.950 . S
H1142 C1172 0.950 . S
H1143 C1173 0.950 . S
C1144 H1126 0.951 . S
C1144 C1145 1.366 . S
C1144 C1146 1.388 . S
C1145 C1144 1.366 . S
C1145 C1149 1.385 . S
C1146 H1127 0.951 . S
C1146 C1144 1.388 . S
C1146 C1147 1.366 . S
C1147 C1146 1.366 . S
C1147 C1148 1.414 . S
C1147 C1150 1.499 . S
C1148 H1128 0.950 . S
C1148 C1147 1.414 . S
C1148 C1149 1.374 . S
C1149 H1129 0.950 . S
C1149 C1145 1.385 . S
C1149 C1148 1.374 . S
C1150 C1147 1.499 . S
C1150 C1151 1.373 . S
C1150 C1152 1.389 . S
C1151 H1130 0.950 . S
C1151 C1150 1.373 . S
C1151 C1167 1.377 . S
C1152 C1150 1.389 . S
C1152 C1153 1.524 . S
C1152 C1166 1.377 . S
C1153 C1152 1.524 . S
C1153 C1154 1.397 . S
C1153 C1158 1.363 . S
C1154 H1131 0.950 . S
C1154 C1153 1.397 . S
C1154 C1155 1.334 . S
C1155 H1132 0.950 . S
C1155 C1154 1.334 . S
C1155 C1156 1.287 . S
C1156 C1155 1.287 . S
C1156 C1157 1.524 . S
C1156 H1175 0.913 . S
C1157 H1133 0.950 . S
C1157 C1156 1.524 . S
C1157 C1158 1.415 . S
C1158 H1134 0.950 . S
C1158 C1153 1.363 . S
C1158 C1157 1.415 . S
C1159 H1135 0.951 . S
C1159 C1160 1.366 . S
C1159 C1161 1.388 . S
C1160 C1159 1.366 . S
C1160 C1164 1.385 . S
C1161 H1136 0.951 . S
C1161 C1159 1.388 . S
C1161 C1162 1.366 . S
C1162 C1161 1.366 . S
C1162 C1163 1.414 . S
C1162 C1165 1.499 . S
C1163 H1137 0.950 . S
C1163 C1162 1.414 . S
C1163 C1164 1.374 . S
C1164 H1138 0.950 . S
C1164 C1160 1.385 . S
C1164 C1163 1.374 . S
C1165 C1162 1.499 . S
C1165 C1166 1.373 . S
C1165 C1167 1.389 . S
C1166 H1139 0.950 . S
C1166 C1152 1.377 . S
C1166 C1165 1.373 . S
C1167 C1151 1.377 . S
C1167 C1165 1.389 . S
C1167 C1168 1.524 . S
C1168 C1167 1.524 . S
C1168 C1169 1.397 . S
C1168 C1173 1.363 . S
C1169 H1140 0.950 . S
C1169 C1168 1.397 . S
C1169 C1170 1.334 . S
C1170 H1141 0.950 . S
C1170 C1169 1.334 . S
C1170 C1171 1.287 . S
C1171 C1170 1.287 . S
C1171 C1172 1.524 . S
C1171 H1174 0.999 . S
C1172 H1142 0.950 . S
C1172 C1171 1.524 . S
C1172 C1173 1.415 . S
C1173 H1143 0.950 . S
C1173 C1168 1.363 . S
C1173 C1172 1.415 . S
H1174 C1171 0.999 . S
H1175 C1156 0.913 . S
H1176 C1194 0.951 . S
H1177 C1196 0.951 . S
H1178 C1198 0.950 . S
H1179 C1199 0.950 . S
H1180 C1201 0.950 . S
H1181 C1204 0.950 . S
H1182 C1205 0.950 . S
H1183 C1207 0.950 . S
H1184 C1208 0.950 . S
H1185 C1209 0.951 . S
H1186 C1211 0.950 . S
H1187 C1213 0.950 . S
H1188 C1214 0.950 . S
H1189 C1216 0.950 . S
H1190 C1219 0.950 . S
H1191 C1220 0.979 . S
H1192 C1222 0.950 . S
H1193 C1223 0.950 . S
C1194 H1176 0.951 . S
C1194 C1195 1.366 . S
C1194 C1196 1.388 . S
C1195 C1194 1.366 . S
C1195 C1199 1.385 . S
C1196 H1177 0.951 . S
C1196 C1194 1.388 . S
C1196 C1197 1.366 . S
C1197 C1196 1.366 . S
C1197 C1198 1.414 . S
C1197 C1200 1.499 . S
C1198 H1178 0.950 . S
C1198 C1197 1.414 . S
C1198 C1199 1.374 . S
C1199 H1179 0.950 . S
C1199 C1195 1.385 . S
C1199 C1198 1.374 . S
C1200 C1197 1.499 . S
C1200 C1201 1.373 . S
C1200 C1202 1.389 . S
C1201 H1180 0.950 . S
C1201 C1200 1.373 . S
C1201 C1217 1.377 . S
C1202 C1200 1.389 . S
C1202 C1203 1.524 . S
C1202 C1216 1.377 . S
C1203 C1202 1.524 . S
C1203 C1204 1.397 . S
C1203 C1208 1.363 . S
C1204 H1181 0.950 . S
C1204 C1203 1.397 . S
C1204 C1205 1.334 . S
C1205 H1182 0.950 . S
C1205 C1204 1.334 . S
C1205 C1206 1.287 . S
C1206 C1205 1.287 . S
C1206 C1207 1.524 . S
C1206 H1225 0.913 . S
C1207 H1183 0.950 . S
C1207 C1206 1.524 . S
C1207 C1208 1.415 . S
C1208 H1184 0.950 . S
C1208 C1203 1.363 . S
C1208 C1207 1.415 . S
C1209 H1185 0.951 . S
C1209 C1210 1.366 . S
C1209 C1211 1.395 . S
C1210 C1209 1.366 . S
C1210 C1214 1.385 1_545 S
C1211 H1186 0.950 . S
C1211 C1209 1.395 . S
C1211 C1212 1.359 1_545 S
C1212 C1211 1.359 1_565 S
C1212 C1213 1.414 . S
C1212 C1215 1.499 . S
C1213 H1187 0.950 . S
C1213 C1212 1.414 . S
C1213 C1214 1.374 . S
C1214 H1188 0.950 . S
C1214 C1210 1.385 1_565 S
C1214 C1213 1.374 . S
C1215 C1212 1.499 . S
C1215 C1216 1.373 . S
C1215 C1217 1.389 . S
C1216 H1189 0.950 . S
C1216 C1202 1.377 . S
C1216 C1215 1.373 . S
C1217 C1201 1.377 . S
C1217 C1215 1.389 . S
C1217 C1218 1.524 . S
C1218 C1217 1.524 . S
C1218 C1219 1.397 . S
C1218 C1223 1.363 . S
C1219 H1190 0.950 . S
C1219 C1218 1.397 . S
C1219 C1220 1.298 1_565 S
C1220 H1191 0.979 . S
C1220 C1219 1.298 1_545 S
C1220 C1221 1.296 . S
C1221 C1220 1.296 . S
C1221 C1222 1.524 . S
C1221 H1224 0.999 . S
C1222 H1192 0.950 . S
C1222 C1221 1.524 . S
C1222 C1223 1.415 1_545 S
C1223 H1193 0.950 . S
C1223 C1218 1.363 . S
C1223 C1222 1.415 1_565 S
H1224 C1221 0.999 . S
H1225 C1206 0.913 . S
H1226 C1244 0.951 . S
H1227 C1246 0.951 . S
H1228 C1248 0.950 . S
H1229 C1249 0.950 . S
H1230 C1251 0.950 . S
H1231 C1254 0.950 . S
H1232 C1255 0.950 . S
H1233 C1257 0.950 . S
H1234 C1258 0.950 . S
H1235 C1259 0.951 . S
H1236 C1261 0.951 . S
H1237 C1263 0.950 . S
H1238 C1264 0.950 . S
H1239 C1266 0.950 . S
H1240 C1269 0.950 . S
H1241 C1270 0.950 . S
H1242 C1272 0.950 . S
H1243 C1273 0.950 . S
C1244 H1226 0.951 . S
C1244 C1245 1.366 . S
C1244 C1246 1.388 . S
C1245 C1244 1.366 . S
C1245 C1249 1.385 . S
C1246 H1227 0.951 . S
C1246 C1244 1.388 . S
C1246 C1247 1.366 . S
C1247 C1246 1.366 . S
C1247 C1248 1.414 . S
C1247 C1250 1.499 . S
C1248 H1228 0.950 . S
C1248 C1247 1.414 . S
C1248 C1249 1.374 . S
C1249 H1229 0.950 . S
C1249 C1245 1.385 . S
C1249 C1248 1.374 . S
C1250 C1247 1.499 . S
C1250 C1251 1.373 . S
C1250 C1252 1.389 . S
C1251 H1230 0.950 . S
C1251 C1250 1.373 . S
C1251 C1267 1.377 . S
C1252 C1250 1.389 . S
C1252 C1253 1.524 . S
C1252 C1266 1.377 . S
C1253 C1252 1.524 . S
C1253 C1254 1.397 . S
C1253 C1258 1.363 . S
C1254 H1231 0.950 . S
C1254 C1253 1.397 . S
C1254 C1255 1.334 . S
C1255 H1232 0.950 . S
C1255 C1254 1.334 . S
C1255 C1256 1.287 . S
C1256 C1255 1.287 . S
C1256 C1257 1.524 . S
C1256 H1275 0.913 . S
C1257 H1233 0.950 . S
C1257 C1256 1.524 . S
C1257 C1258 1.415 . S
C1258 H1234 0.950 . S
C1258 C1253 1.363 . S
C1258 C1257 1.415 . S
C1259 H1235 0.951 . S
C1259 C1260 1.366 . S
C1259 C1261 1.388 . S
C1260 C1259 1.366 . S
C1260 C1264 1.385 . S
C1261 H1236 0.951 . S
C1261 C1259 1.388 . S
C1261 C1262 1.366 . S
C1262 C1261 1.366 . S
C1262 C1263 1.414 . S
C1262 C1265 1.499 . S
C1263 H1237 0.950 . S
C1263 C1262 1.414 . S
C1263 C1264 1.374 . S
C1264 H1238 0.950 . S
C1264 C1260 1.385 . S
C1264 C1263 1.374 . S
C1265 C1262 1.499 . S
C1265 C1266 1.373 . S
C1265 C1267 1.389 . S
C1266 H1239 0.950 . S
C1266 C1252 1.377 . S
C1266 C1265 1.373 . S
C1267 C1251 1.377 . S
C1267 C1265 1.389 . S
C1267 C1268 1.524 . S
C1268 C1267 1.524 . S
C1268 C1269 1.397 . S
C1268 C1273 1.363 . S
C1269 H1240 0.950 . S
C1269 C1268 1.397 . S
C1269 C1270 1.334 . S
C1270 H1241 0.950 . S
C1270 C1269 1.334 . S
C1270 C1271 1.287 . S
C1271 C1270 1.287 . S
C1271 C1272 1.524 . S
C1271 H1274 0.999 . S
C1272 H1242 0.950 . S
C1272 C1271 1.524 . S
C1272 C1273 1.415 . S
C1273 H1243 0.950 . S
C1273 C1268 1.363 . S
C1273 C1272 1.415 . S
H1274 C1271 0.999 . S
H1275 C1256 0.913 . S
H1276 C1294 0.951 . S
H1277 C1296 0.951 . S
H1278 C1298 0.950 . S
H1279 C1299 0.950 . S
H1280 C1301 0.950 . S
H1281 C1304 0.950 . S
H1282 C1305 0.950 . S
H1283 C1307 0.950 . S
H1284 C1308 0.950 . S
H1285 C1309 0.951 . S
H1286 C1311 0.951 . S
H1287 C1313 0.950 . S
H1288 C1314 0.950 . S
H1289 C1316 0.950 . S
H1290 C1319 0.950 . S
H1291 C1320 0.950 . S
H1292 C1322 0.950 . S
H1293 C1323 0.950 . S
C1294 H1276 0.951 . S
C1294 C1295 1.366 . S
C1294 C1296 1.388 . S
C1295 C1294 1.366 . S
C1295 C1299 1.385 . S
C1296 H1277 0.951 . S
C1296 C1294 1.388 . S
C1296 C1297 1.366 . S
C1297 C1296 1.366 . S
C1297 C1298 1.414 . S
C1297 C1300 1.499 . S
C1298 H1278 0.950 . S
C1298 C1297 1.414 . S
C1298 C1299 1.374 . S
C1299 H1279 0.950 . S
C1299 C1295 1.385 . S
C1299 C1298 1.374 . S
C1300 C1297 1.499 . S
C1300 C1301 1.373 . S
C1300 C1302 1.389 . S
C1301 H1280 0.950 . S
C1301 C1300 1.373 . S
C1301 C1317 1.377 . S
C1302 C1300 1.389 . S
C1302 C1303 1.524 . S
C1302 C1316 1.377 . S
C1303 C1302 1.524 . S
C1303 C1304 1.397 . S
C1303 C1308 1.363 . S
C1304 H1281 0.950 . S
C1304 C1303 1.397 . S
C1304 C1305 1.334 . S
C1305 H1282 0.950 . S
C1305 C1304 1.334 . S
C1305 C1306 1.287 . S
C1306 C1305 1.287 . S
C1306 C1307 1.524 . S
C1306 H1325 0.913 . S
C1307 H1283 0.950 . S
C1307 C1306 1.524 . S
C1307 C1308 1.415 . S
C1308 H1284 0.950 . S
C1308 C1303 1.363 . S
C1308 C1307 1.415 . S
C1309 H1285 0.951 . S
C1309 C1310 1.366 . S
C1309 C1311 1.388 . S
C1310 C1309 1.366 . S
C1310 C1314 1.385 . S
C1311 H1286 0.951 . S
C1311 C1309 1.388 . S
C1311 C1312 1.366 . S
C1312 C1311 1.366 . S
C1312 C1313 1.414 . S
C1312 C1315 1.499 . S
C1313 H1287 0.950 . S
C1313 C1312 1.414 . S
C1313 C1314 1.374 . S
C1314 H1288 0.950 . S
C1314 C1310 1.385 . S
C1314 C1313 1.374 . S
C1315 C1312 1.499 . S
C1315 C1316 1.373 . S
C1315 C1317 1.389 . S
C1316 H1289 0.950 . S
C1316 C1302 1.377 . S
C1316 C1315 1.373 . S
C1317 C1301 1.377 . S
C1317 C1315 1.389 . S
C1317 C1318 1.524 . S
C1318 C1317 1.524 . S
C1318 C1319 1.397 . S
C1318 C1323 1.363 . S
C1319 H1290 0.950 . S
C1319 C1318 1.397 . S
C1319 C1320 1.334 . S
C1320 H1291 0.950 . S
C1320 C1319 1.334 . S
C1320 C1321 1.287 . S
C1321 C1320 1.287 . S
C1321 C1322 1.524 . S
C1321 H1324 0.999 . S
C1322 H1292 0.950 . S
C1322 C1321 1.524 . S
C1322 C1323 1.415 . S
C1323 H1293 0.950 . S
C1323 C1318 1.363 . S
C1323 C1322 1.415 . S
H1324 C1321 0.999 . S
H1325 C1306 0.913 . S
H1326 C1344 0.951 . S
H1327 C1346 0.951 . S
H1328 C1348 0.950 . S
H1329 C1349 0.950 . S
H1330 C1351 0.950 . S
H1331 C1354 0.950 . S
H1332 C1355 0.950 . S
H1333 C1357 0.950 . S
H1334 C1358 0.950 . S
H1335 C1359 0.951 . S
H1336 C1361 0.951 . S
H1337 C1363 0.950 . S
H1338 C1364 0.950 . S
H1339 C1366 0.950 . S
H1340 C1369 0.950 . S
H1341 C1370 0.950 . S
H1342 C1372 0.950 . S
H1343 C1373 0.950 . S
C1344 H1326 0.951 . S
C1344 C1345 1.366 . S
C1344 C1346 1.388 . S
C1345 C1344 1.366 . S
C1345 C1349 1.385 . S
C1346 H1327 0.951 . S
C1346 C1344 1.388 . S
C1346 C1347 1.366 . S
C1347 C1346 1.366 . S
C1347 C1348 1.414 . S
C1347 C1350 1.499 . S
C1348 H1328 0.950 . S
C1348 C1347 1.414 . S
C1348 C1349 1.374 . S
C1349 H1329 0.950 . S
C1349 C1345 1.385 . S
C1349 C1348 1.374 . S
C1350 C1347 1.499 . S
C1350 C1351 1.373 . S
C1350 C1352 1.389 . S
C1351 H1330 0.950 . S
C1351 C1350 1.373 . S
C1351 C1367 1.377 . S
C1352 C1350 1.389 . S
C1352 C1353 1.524 . S
C1352 C1366 1.377 . S
C1353 C1352 1.524 . S
C1353 C1354 1.397 . S
C1353 C1358 1.363 . S
C1354 H1331 0.950 . S
C1354 C1353 1.397 . S
C1354 C1355 1.334 . S
C1355 H1332 0.950 . S
C1355 C1354 1.334 . S
C1355 C1356 1.287 . S
C1356 C1355 1.287 . S
C1356 C1357 1.524 . S
C1356 H1375 0.913 . S
C1357 H1333 0.950 . S
C1357 C1356 1.524 . S
C1357 C1358 1.415 . S
C1358 H1334 0.950 . S
C1358 C1353 1.363 . S
C1358 C1357 1.415 . S
C1359 H1335 0.951 . S
C1359 C1360 1.366 . S
C1359 C1361 1.388 . S
C1360 C1359 1.366 . S
C1360 C1364 1.385 . S
C1361 H1336 0.951 . S
C1361 C1359 1.388 . S
C1361 C1362 1.366 . S
C1362 C1361 1.366 . S
C1362 C1363 1.414 . S
C1362 C1365 1.499 . S
C1363 H1337 0.950 . S
C1363 C1362 1.414 . S
C1363 C1364 1.374 . S
C1364 H1338 0.950 . S
C1364 C1360 1.385 . S
C1364 C1363 1.374 . S
C1365 C1362 1.499 . S
C1365 C1366 1.373 . S
C1365 C1367 1.389 . S
C1366 H1339 0.950 . S
C1366 C1352 1.377 . S
C1366 C1365 1.373 . S
C1367 C1351 1.377 . S
C1367 C1365 1.389 . S
C1367 C1368 1.524 . S
C1368 C1367 1.524 . S
C1368 C1369 1.397 . S
C1368 C1373 1.363 . S
C1369 H1340 0.950 . S
C1369 C1368 1.397 . S
C1369 C1370 1.334 . S
C1370 H1341 0.950 . S
C1370 C1369 1.334 . S
C1370 C1371 1.287 . S
C1371 C1370 1.287 . S
C1371 C1372 1.524 . S
C1371 H1374 0.999 . S
C1372 H1342 0.950 . S
C1372 C1371 1.524 . S
C1372 C1373 1.415 . S
C1373 H1343 0.950 . S
C1373 C1368 1.363 . S
C1373 C1372 1.415 . S
H1374 C1371 0.999 . S
H1375 C1356 0.913 . S
H1376 C1394 0.951 . S
H1377 C1396 0.951 . S
H1378 C1398 0.950 . S
H1379 C1399 0.950 . S
H1380 C1401 0.950 . S
H1381 C1404 0.950 . S
H1382 C1405 0.950 1_565 S
H1383 C1407 0.950 . S
H1384 C1408 0.950 . S
H1385 C1409 0.951 . S
H1386 C1411 0.951 . S
H1387 C1413 0.950 . S
H1388 C1414 0.950 1_655 S
H1389 C1416 0.950 . S
H1390 C1419 0.950 . S
H1391 C1420 0.950 . S
H1392 C1422 0.950 . S
H1393 C1423 0.950 . S
C1394 H1376 0.951 . S
C1394 C1395 1.366 . S
C1394 C1396 1.388 . S
C1395 C1394 1.366 . S
C1395 C1399 1.385 . S
C1396 H1377 0.951 . S
C1396 C1394 1.388 . S
C1396 C1397 1.366 . S
C1397 C1396 1.366 . S
C1397 C1398 1.414 . S
C1397 C1400 1.499 . S
C1398 H1378 0.950 . S
C1398 C1397 1.414 . S
C1398 C1399 1.374 . S
C1399 H1379 0.950 . S
C1399 C1395 1.385 . S
C1399 C1398 1.374 . S
C1400 C1397 1.499 . S
C1400 C1401 1.373 . S
C1400 C1402 1.389 . S
C1401 H1380 0.950 . S
C1401 C1400 1.373 . S
C1401 C1417 1.377 . S
C1402 C1400 1.389 . S
C1402 C1403 1.524 . S
C1402 C1416 1.377 . S
C1403 C1402 1.524 . S
C1403 C1404 1.397 . S
C1403 C1408 1.363 . S
C1404 H1381 0.950 . S
C1404 C1403 1.397 . S
C1404 C1405 1.334 . S
C1405 H1382 0.950 1_545 S
C1405 C1404 1.334 . S
C1405 C1406 1.287 . S
C1406 C1405 1.287 . S
C1406 C1407 1.524 . S
C1406 H1425 0.892 1_545 S
C1407 H1383 0.950 . S
C1407 C1406 1.524 . S
C1407 C1408 1.415 . S
C1408 H1384 0.950 . S
C1408 C1403 1.363 . S
C1408 C1407 1.415 . S
C1409 H1385 0.951 . S
C1409 C1410 1.366 . S
C1409 C1411 1.388 . S
C1410 C1409 1.366 . S
C1410 C1414 1.385 . S
C1411 H1386 0.951 . S
C1411 C1409 1.388 . S
C1411 C1412 1.366 1_455 S
C1412 C1411 1.366 1_655 S
C1412 C1413 1.414 . S
C1412 C1415 1.499 . S
C1413 H1387 0.950 . S
C1413 C1412 1.414 . S
C1413 C1414 1.374 1_655 S
C1414 H1388 0.950 1_455 S
C1414 C1410 1.385 . S
C1414 C1413 1.374 1_455 S
C1415 C1412 1.499 . S
C1415 C1416 1.373 . S
C1415 C1417 1.389 . S
C1416 H1389 0.950 . S
C1416 C1402 1.377 . S
C1416 C1415 1.373 . S
C1417 C1401 1.377 . S
C1417 C1415 1.389 . S
C1417 C1418 1.524 1_655 S
C1418 C1417 1.524 1_455 S
C1418 C1419 1.397 . S
C1418 C1423 1.363 . S
C1419 H1390 0.950 . S
C1419 C1418 1.397 . S
C1419 C1420 1.334 . S
C1420 H1391 0.950 . S
C1420 C1419 1.334 . S
C1420 C1421 1.287 . S
C1421 C1420 1.287 . S
C1421 C1422 1.524 . S
C1421 H1424 0.999 . S
C1422 H1392 0.950 . S
C1422 C1421 1.524 . S
C1422 C1423 1.415 . S
C1423 H1393 0.950 . S
C1423 C1418 1.363 . S
C1423 C1422 1.415 . S
H1424 C1421 0.999 . S
H1425 C1406 0.892 1_565 S
H1426 C1444 0.951 . S
H1427 C1446 0.951 . S
H1428 C1448 0.950 . S
H1429 C1449 0.950 . S
H1430 C1451 0.950 . S
H1431 C1454 0.950 . S
H1432 C1455 0.950 . S
H1433 C1457 0.950 . S
H1434 C1458 0.950 . S
H1435 C1459 0.951 . S
H1436 C1461 0.951 . S
H1437 C1463 0.950 . S
H1438 C1464 0.950 . S
H1439 C1466 0.950 . S
H1440 C1469 0.950 . S
H1441 C1470 0.950 . S
H1442 C1472 0.950 . S
H1443 C1473 0.950 . S
C1444 H1426 0.951 . S
C1444 C1445 1.366 . S
C1444 C1446 1.388 . S
C1445 C1444 1.366 . S
C1445 C1449 1.385 . S
C1446 H1427 0.951 . S
C1446 C1444 1.388 . S
C1446 C1447 1.366 . S
C1447 C1446 1.366 . S
C1447 C1448 1.414 . S
C1447 C1450 1.499 . S
C1448 H1428 0.950 . S
C1448 C1447 1.414 . S
C1448 C1449 1.374 . S
C1449 H1429 0.950 . S
C1449 C1445 1.385 . S
C1449 C1448 1.374 . S
C1450 C1447 1.499 . S
C1450 C1451 1.373 . S
C1450 C1452 1.389 . S
C1451 H1430 0.950 . S
C1451 C1450 1.373 . S
C1451 C1467 1.377 . S
C1452 C1450 1.389 . S
C1452 C1453 1.524 . S
C1452 C1466 1.377 . S
C1453 C1452 1.524 . S
C1453 C1454 1.397 . S
C1453 C1458 1.363 . S
C1454 H1431 0.950 . S
C1454 C1453 1.397 . S
C1454 C1455 1.334 . S
C1455 H1432 0.950 . S
C1455 C1454 1.334 . S
C1455 C1456 1.287 . S
C1456 C1455 1.287 . S
C1456 C1457 1.524 . S
C1456 H1475 0.913 . S
C1457 H1433 0.950 . S
C1457 C1456 1.524 . S
C1457 C1458 1.415 . S
C1458 H1434 0.950 . S
C1458 C1453 1.363 . S
C1458 C1457 1.415 . S
C1459 H1435 0.951 . S
C1459 C1460 1.366 . S
C1459 C1461 1.388 . S
C1460 C1459 1.366 . S
C1460 C1464 1.385 . S
C1461 H1436 0.951 . S
C1461 C1459 1.388 . S
C1461 C1462 1.366 . S
C1462 C1461 1.366 . S
C1462 C1463 1.414 . S
C1462 C1465 1.499 . S
C1463 H1437 0.950 . S
C1463 C1462 1.414 . S
C1463 C1464 1.374 . S
C1464 H1438 0.950 . S
C1464 C1460 1.385 . S
C1464 C1463 1.374 . S
C1465 C1462 1.499 . S
C1465 C1466 1.373 . S
C1465 C1467 1.389 . S
C1466 H1439 0.950 . S
C1466 C1452 1.377 . S
C1466 C1465 1.373 . S
C1467 C1451 1.377 . S
C1467 C1465 1.389 . S
C1467 C1468 1.524 . S
C1468 C1467 1.524 . S
C1468 C1469 1.397 . S
C1468 C1473 1.363 . S
C1469 H1440 0.950 . S
C1469 C1468 1.397 . S
C1469 C1470 1.334 . S
C1470 H1441 0.950 . S
C1470 C1469 1.334 . S
C1470 C1471 1.287 . S
C1471 C1470 1.287 . S
C1471 C1472 1.524 . S
C1471 H1474 0.999 . S
C1472 H1442 0.950 . S
C1472 C1471 1.524 . S
C1472 C1473 1.415 . S
C1473 H1443 0.950 . S
C1473 C1468 1.363 . S
C1473 C1472 1.415 . S
H1474 C1471 0.999 . S
H1475 C1456 0.913 . S
H1476 C1494 0.951 . S
H1477 C1496 0.951 . S
H1478 C1498 0.946 1_565 S
H1479 C1499 0.950 . S
H1480 C1501 0.950 . S
H1481 C1504 0.950 . S
H1482 C1505 0.950 . S
H1483 C1507 0.959 . S
H1484 C1508 0.950 . S
H1485 C1509 0.951 . S
H1486 C1511 0.951 . S
H1487 C1513 0.950 . S
H1488 C1514 0.950 . S
H1489 C1516 0.950 . S
H1490 C1519 0.950 . S
H1491 C1520 0.950 . S
H1492 C1522 0.950 . S
H1493 C1523 0.950 . S
C1494 H1476 0.951 . S
C1494 C1495 1.366 1_545 S
C1494 C1496 1.388 . S
C1495 C1494 1.366 1_565 S
C1495 C1499 1.385 . S
C1496 H1477 0.951 . S
C1496 C1494 1.388 . S
C1496 C1497 1.366 . S
C1497 C1496 1.366 . S
C1497 C1498 1.433 . S
C1497 C1500 1.499 . S
C1498 H1478 0.946 1_545 S
C1498 C1497 1.433 . S
C1498 C1499 1.360 1_545 S
C1499 H1479 0.950 . S
C1499 C1495 1.385 . S
C1499 C1498 1.360 1_565 S
C1500 C1497 1.499 . S
C1500 C1501 1.373 . S
C1500 C1502 1.389 . S
C1501 H1480 0.950 . S
C1501 C1500 1.373 . S
C1501 C1517 1.377 . S
C1502 C1500 1.389 . S
C1502 C1503 1.524 . S
C1502 C1516 1.377 . S
C1503 C1502 1.524 . S
C1503 C1504 1.397 1_545 S
C1503 C1508 1.363 . S
C1504 H1481 0.950 . S
C1504 C1503 1.397 1_565 S
C1504 C1505 1.334 . S
C1505 H1482 0.950 . S
C1505 C1504 1.334 . S
C1505 C1506 1.287 . S
C1506 C1505 1.287 . S
C1506 C1507 1.524 . S
C1506 H1525 0.913 . S
C1507 H1483 0.959 . S
C1507 C1506 1.524 . S
C1507 C1508 1.415 1_565 S
C1508 H1484 0.950 . S
C1508 C1503 1.363 . S
C1508 C1507 1.415 1_545 S
C1509 H1485 0.951 . S
C1509 C1510 1.366 . S
C1509 C1511 1.388 . S
C1510 C1509 1.366 . S
C1510 C1514 1.385 . S
C1511 H1486 0.951 . S
C1511 C1509 1.388 . S
C1511 C1512 1.366 . S
C1512 C1511 1.366 . S
C1512 C1513 1.414 . S
C1512 C1515 1.499 . S
C1513 H1487 0.950 . S
C1513 C1512 1.414 . S
C1513 C1514 1.374 . S
C1514 H1488 0.950 . S
C1514 C1510 1.385 . S
C1514 C1513 1.374 . S
C1515 C1512 1.499 . S
C1515 C1516 1.373 . S
C1515 C1517 1.389 . S
C1516 H1489 0.950 . S
C1516 C1502 1.377 . S
C1516 C1515 1.373 . S
C1517 C1501 1.377 . S
C1517 C1515 1.389 . S
C1517 C1518 1.524 . S
C1518 C1517 1.524 . S
C1518 C1519 1.397 . S
C1518 C1523 1.363 . S
C1519 H1490 0.950 . S
C1519 C1518 1.397 . S
C1519 C1520 1.334 . S
C1520 H1491 0.950 . S
C1520 C1519 1.334 . S
C1520 C1521 1.287 . S
C1521 C1520 1.287 . S
C1521 C1522 1.524 . S
C1521 H1524 0.999 . S
C1522 H1492 0.950 . S
C1522 C1521 1.524 . S
C1522 C1523 1.415 . S
C1523 H1493 0.950 . S
C1523 C1518 1.363 . S
C1523 C1522 1.415 . S
H1524 C1521 0.999 . S
H1525 C1506 0.913 . S
H1526 C1544 0.951 . S
H1527 C1546 0.951 . S
H1528 C1548 0.950 . S
H1529 C1549 0.950 . S
H1530 C1551 0.950 . S
H1531 C1554 0.950 . S
H1532 C1555 0.950 . S
H1533 C1557 0.950 . S
H1534 C1558 0.950 . S
H1535 C1559 0.951 . S
H1536 C1561 0.951 . S
H1537 C1563 0.950 . S
H1538 C1564 0.950 . S
H1539 C1566 0.950 . S
H1540 C1569 0.950 . S
H1541 C1570 0.950 . S
H1542 C1572 0.950 . S
H1543 C1573 0.950 . S
C1544 H1526 0.951 . S
C1544 C1545 1.366 . S
C1544 C1546 1.388 . S
C1545 C1544 1.366 . S
C1545 C1549 1.385 . S
C1546 H1527 0.951 . S
C1546 C1544 1.388 . S
C1546 C1547 1.366 . S
C1547 C1546 1.366 . S
C1547 C1548 1.414 . S
C1547 C1550 1.499 . S
C1548 H1528 0.950 . S
C1548 C1547 1.414 . S
C1548 C1549 1.374 . S
C1549 H1529 0.950 . S
C1549 C1545 1.385 . S
C1549 C1548 1.374 . S
C1550 C1547 1.499 . S
C1550 C1551 1.373 . S
C1550 C1552 1.389 . S
C1551 H1530 0.950 . S
C1551 C1550 1.373 . S
C1551 C1567 1.377 . S
C1552 C1550 1.389 . S
C1552 C1553 1.524 . S
C1552 C1566 1.377 . S
C1553 C1552 1.524 . S
C1553 C1554 1.397 . S
C1553 C1558 1.363 . S
C1554 H1531 0.950 . S
C1554 C1553 1.397 . S
C1554 C1555 1.334 . S
C1555 H1532 0.950 . S
C1555 C1554 1.334 . S
C1555 C1556 1.287 . S
C1556 C1555 1.287 . S
C1556 C1557 1.524 . S
C1556 H1575 0.913 . S
C1557 H1533 0.950 . S
C1557 C1556 1.524 . S
C1557 C1558 1.415 . S
C1558 H1534 0.950 . S
C1558 C1553 1.363 . S
C1558 C1557 1.415 . S
C1559 H1535 0.951 . S
C1559 C1560 1.366 . S
C1559 C1561 1.388 . S
C1560 C1559 1.366 . S
C1560 C1564 1.385 . S
C1561 H1536 0.951 . S
C1561 C1559 1.388 . S
C1561 C1562 1.366 . S
C1562 C1561 1.366 . S
C1562 C1563 1.414 . S
C1562 C1565 1.499 . S
C1563 H1537 0.950 . S
C1563 C1562 1.414 . S
C1563 C1564 1.374 . S
C1564 H1538 0.950 . S
C1564 C1560 1.385 . S
C1564 C1563 1.374 . S
C1565 C1562 1.499 . S
C1565 C1566 1.373 . S
C1565 C1567 1.389 . S
C1566 H1539 0.950 . S
C1566 C1552 1.377 . S
C1566 C1565 1.373 . S
C1567 C1551 1.377 . S
C1567 C1565 1.389 . S
C1567 C1568 1.524 . S
C1568 C1567 1.524 . S
C1568 C1569 1.397 . S
C1568 C1573 1.363 . S
C1569 H1540 0.950 . S
C1569 C1568 1.397 . S
C1569 C1570 1.334 . S
C1570 H1541 0.950 . S
C1570 C1569 1.334 . S
C1570 C1571 1.287 . S
C1571 C1570 1.287 . S
C1571 C1572 1.524 . S
C1571 H1574 0.999 . S
C1572 H1542 0.950 . S
C1572 C1571 1.524 . S
C1572 C1573 1.415 . S
C1573 H1543 0.950 . S
C1573 C1568 1.363 . S
C1573 C1572 1.415 . S
H1574 C1571 0.999 . S
H1575 C1556 0.913 . S
H1576 C1594 0.951 . S
H1577 C1596 0.951 . S
H1578 C1598 0.950 . S
H1579 C1599 0.950 . S
H1580 C1601 0.950 . S
H1581 C1604 0.950 . S
H1582 C1605 0.950 . S
H1583 C1607 0.950 . S
H1584 C1608 0.950 . S
H1585 C1609 0.951 . S
H1586 C1611 0.951 . S
H1587 C1613 0.950 1_455 S
H1588 C1614 0.950 . S
H1589 C1616 0.950 . S
H1590 C1619 0.950 . S
H1591 C1620 0.950 . S
H1592 C1622 0.950 . S
H1593 C1623 0.950 . S
C1594 H1576 0.951 . S
C1594 C1595 1.366 . S
C1594 C1596 1.388 . S
C1595 C1594 1.366 . S
C1595 C1599 1.385 . S
C1596 H1577 0.951 . S
C1596 C1594 1.388 . S
C1596 C1597 1.366 . S
C1597 C1596 1.366 . S
C1597 C1598 1.414 . S
C1597 C1600 1.499 . S
C1598 H1578 0.950 . S
C1598 C1597 1.414 . S
C1598 C1599 1.374 . S
C1599 H1579 0.950 . S
C1599 C1595 1.385 . S
C1599 C1598 1.374 . S
C1600 C1597 1.499 . S
C1600 C1601 1.373 . S
C1600 C1602 1.389 . S
C1601 H1580 0.950 . S
C1601 C1600 1.373 . S
C1601 C1617 1.377 . S
C1602 C1600 1.389 . S
C1602 C1603 1.524 . S
C1602 C1616 1.377 . S
C1603 C1602 1.524 . S
C1603 C1604 1.397 . S
C1603 C1608 1.363 . S
C1604 H1581 0.950 . S
C1604 C1603 1.397 . S
C1604 C1605 1.334 1_545 S
C1605 H1582 0.950 . S
C1605 C1604 1.334 1_565 S
C1605 C1606 1.287 . S
C1606 C1605 1.287 . S
C1606 C1607 1.524 . S
C1606 H1625 0.913 . S
C1607 H1583 0.950 . S
C1607 C1606 1.524 . S
C1607 C1608 1.415 1_565 S
C1608 H1584 0.950 . S
C1608 C1603 1.363 . S
C1608 C1607 1.415 1_545 S
C1609 H1585 0.951 . S
C1609 C1610 1.366 . S
C1609 C1611 1.388 . S
C1610 C1609 1.366 . S
C1610 C1614 1.385 1_655 S
C1611 H1586 0.951 . S
C1611 C1609 1.388 . S
C1611 C1612 1.366 . S
C1612 C1611 1.366 . S
C1612 C1613 1.414 . S
C1612 C1615 1.499 . S
C1613 H1587 0.950 1_655 S
C1613 C1612 1.414 . S
C1613 C1614 1.374 1_655 S
C1614 H1588 0.950 . S
C1614 C1610 1.385 1_455 S
C1614 C1613 1.374 1_455 S
C1615 C1612 1.499 . S
C1615 C1616 1.373 . S
C1615 C1617 1.389 . S
C1616 H1589 0.950 . S
C1616 C1602 1.377 . S
C1616 C1615 1.373 . S
C1617 C1601 1.377 . S
C1617 C1615 1.389 . S
C1617 C1618 1.524 . S
C1618 C1617 1.524 . S
C1618 C1619 1.397 . S
C1618 C1623 1.363 . S
C1619 H1590 0.950 . S
C1619 C1618 1.397 . S
C1619 C1620 1.334 . S
C1620 H1591 0.950 . S
C1620 C1619 1.334 . S
C1620 C1621 1.287 . S
C1621 C1620 1.287 . S
C1621 C1622 1.524 . S
C1621 H1624 0.999 . S
C1622 H1592 0.950 . S
C1622 C1621 1.524 . S
C1622 C1623 1.415 . S
C1623 H1593 0.950 . S
C1623 C1618 1.363 . S
C1623 C1622 1.415 . S
H1624 C1621 0.999 . S
H1625 C1606 0.913 . S
H1626 C1644 0.951 . S
H1627 C1646 0.951 . S
H1628 C1648 0.950 . S
H1629 C1649 0.950 . S
H1630 C1651 0.950 . S
H1631 C1654 0.950 . S
H1632 C1655 0.950 . S
H1633 C1657 0.950 . S
H1634 C1658 0.950 . S
H1635 C1659 0.951 . S
H1636 C1661 0.951 . S
H1637 C1663 0.950 . S
H1638 C1664 0.950 . S
H1639 C1666 0.950 . S
H1640 C1669 0.950 . S
H1641 C1670 0.950 . S
H1642 C1672 0.950 . S
H1643 C1673 0.950 . S
C1644 H1626 0.951 . S
C1644 C1645 1.366 . S
C1644 C1646 1.388 . S
C1645 C1644 1.366 . S
C1645 C1649 1.385 . S
C1646 H1627 0.951 . S
C1646 C1644 1.388 . S
C1646 C1647 1.366 . S
C1647 C1646 1.366 . S
C1647 C1648 1.414 . S
C1647 C1650 1.499 . S
C1648 H1628 0.950 . S
C1648 C1647 1.414 . S
C1648 C1649 1.374 . S
C1649 H1629 0.950 . S
C1649 C1645 1.385 . S
C1649 C1648 1.374 . S
C1650 C1647 1.499 . S
C1650 C1651 1.373 . S
C1650 C1652 1.389 . S
C1651 H1630 0.950 . S
C1651 C1650 1.373 . S
C1651 C1667 1.377 . S
C1652 C1650 1.389 . S
C1652 C1653 1.524 . S
C1652 C1666 1.377 . S
C1653 C1652 1.524 . S
C1653 C1654 1.397 . S
C1653 C1658 1.363 . S
C1654 H1631 0.950 . S
C1654 C1653 1.397 . S
C1654 C1655 1.334 . S
C1655 H1632 0.950 . S
C1655 C1654 1.334 . S
C1655 C1656 1.287 . S
C1656 C1655 1.287 . S
C1656 C1657 1.524 . S
C1656 H1675 0.913 . S
C1657 H1633 0.950 . S
C1657 C1656 1.524 . S
C1657 C1658 1.415 . S
C1658 H1634 0.950 . S
C1658 C1653 1.363 . S
C1658 C1657 1.415 . S
C1659 H1635 0.951 . S
C1659 C1660 1.366 . S
C1659 C1661 1.388 . S
C1660 C1659 1.366 . S
C1660 C1664 1.385 . S
C1661 H1636 0.951 . S
C1661 C1659 1.388 . S
C1661 C1662 1.366 . S
C1662 C1661 1.366 . S
C1662 C1663 1.414 . S
C1662 C1665 1.499 . S
C1663 H1637 0.950 . S
C1663 C1662 1.414 . S
C1663 C1664 1.374 . S
C1664 H1638 0.950 . S
C1664 C1660 1.385 . S
C1664 C1663 1.374 . S
C1665 C1662 1.499 . S
C1665 C1666 1.373 . S
C1665 C1667 1.389 . S
C1666 H1639 0.950 . S
C1666 C1652 1.377 . S
C1666 C1665 1.373 . S
C1667 C1651 1.377 . S
C1667 C1665 1.389 . S
C1667 C1668 1.524 . S
C1668 C1667 1.524 . S
C1668 C1669 1.397 . S
C1668 C1673 1.363 . S
C1669 H1640 0.950 . S
C1669 C1668 1.397 . S
C1669 C1670 1.334 . S
C1670 H1641 0.950 . S
C1670 C1669 1.334 . S
C1670 C1671 1.287 . S
C1671 C1670 1.287 . S
C1671 C1672 1.524 . S
C1671 H1674 0.999 . S
C1672 H1642 0.950 . S
C1672 C1671 1.524 . S
C1672 C1673 1.415 . S
C1673 H1643 0.950 . S
C1673 C1668 1.363 . S
C1673 C1672 1.415 . S
H1674 C1671 0.999 . S
H1675 C1656 0.913 . S
H1676 C1694 0.951 . S
H1677 C1696 0.939 1_565 S
H1678 C1698 0.950 . S
H1679 C1699 0.950 . S
H1680 C1701 0.950 . S
H1681 C1704 0.950 . S
H1682 C1705 0.950 . S
H1683 C1707 0.950 . S
H1684 C1708 0.950 . S
H1685 C1709 0.951 . S
H1686 C1711 0.951 . S
H1687 C1713 0.950 . S
H1688 C1714 0.950 . S
H1689 C1716 0.950 . S
H1690 C1719 0.950 . S
H1691 C1720 0.950 . S
H1692 C1722 0.950 . S
H1693 C1723 0.950 . S
C1694 H1676 0.951 . S
C1694 C1695 1.369 1_565 S
C1694 C1696 1.377 1_565 S
C1695 C1694 1.369 1_545 S
C1695 C1699 1.379 . S
C1696 H1677 0.939 1_545 S
C1696 C1694 1.377 1_545 S
C1696 C1697 1.388 . S
C1697 C1696 1.388 . S
C1697 C1698 1.414 . S
C1697 C1700 1.499 . S
C1698 H1678 0.950 . S
C1698 C1697 1.414 . S
C1698 C1699 1.374 . S
C1699 H1679 0.950 . S
C1699 C1695 1.379 . S
C1699 C1698 1.374 . S
C1700 C1697 1.499 . S
C1700 C1701 1.373 . S
C1700 C1702 1.389 . S
C1701 H1680 0.950 . S
C1701 C1700 1.373 . S
C1701 C1717 1.377 . S
C1702 C1700 1.389 . S
C1702 C1703 1.524 . S
C1702 C1716 1.377 . S
C1703 C1702 1.524 . S
C1703 C1704 1.397 . S
C1703 C1708 1.363 1_545 S
C1704 H1681 0.950 . S
C1704 C1703 1.397 . S
C1704 C1705 1.334 1_545 S
C1705 H1682 0.950 . S
C1705 C1704 1.334 1_565 S
C1705 C1706 1.287 . S
C1706 C1705 1.287 . S
C1706 C1707 1.524 . S
C1706 H1725 0.913 . S
C1707 H1683 0.950 . S
C1707 C1706 1.524 . S
C1707 C1708 1.415 . S
C1708 H1684 0.950 . S
C1708 C1703 1.363 1_565 S
C1708 C1707 1.415 . S
C1709 H1685 0.951 . S
C1709 C1710 1.366 . S
C1709 C1711 1.388 . S
C1710 C1709 1.366 . S
C1710 C1714 1.385 . S
C1711 H1686 0.951 . S
C1711 C1709 1.388 . S
C1711 C1712 1.366 . S
C1712 C1711 1.366 . S
C1712 C1713 1.414 . S
C1712 C1715 1.499 . S
C1713 H1687 0.950 . S
C1713 C1712 1.414 . S
C1713 C1714 1.374 . S
C1714 H1688 0.950 . S
C1714 C1710 1.385 . S
C1714 C1713 1.374 . S
C1715 C1712 1.499 . S
C1715 C1716 1.373 . S
C1715 C1717 1.389 . S
C1716 H1689 0.950 . S
C1716 C1702 1.377 . S
C1716 C1715 1.373 . S
C1717 C1701 1.377 . S
C1717 C1715 1.389 . S
C1717 C1718 1.524 . S
C1718 C1717 1.524 . S
C1718 C1719 1.397 . S
C1718 C1723 1.363 . S
C1719 H1690 0.950 . S
C1719 C1718 1.397 . S
C1719 C1720 1.334 . S
C1720 H1691 0.950 . S
C1720 C1719 1.334 . S
C1720 C1721 1.287 . S
C1721 C1720 1.287 . S
C1721 C1722 1.524 . S
C1721 H1724 0.999 . S
C1722 H1692 0.950 . S
C1722 C1721 1.524 . S
C1722 C1723 1.415 . S
C1723 H1693 0.950 . S
C1723 C1718 1.363 . S
C1723 C1722 1.415 . S
H1724 C1721 0.999 . S
H1725 C1706 0.913 . S
H1726 C1744 0.951 . S
H1727 C1746 0.951 . S
H1728 C1748 0.950 . S
H1729 C1749 0.950 . S
H1730 C1751 0.950 . S
H1731 C1754 0.950 . S
H1732 C1755 0.950 . S
H1733 C1757 0.950 . S
H1734 C1758 0.950 . S
H1735 C1759 0.951 . S
H1736 C1761 0.951 . S
H1737 C1763 0.950 . S
H1738 C1764 0.950 . S
H1739 C1766 0.950 . S
H1740 C1769 0.950 . S
H1741 C1770 0.950 . S
H1742 C1772 0.950 . S
H1743 C1773 0.950 . S
C1744 H1726 0.951 . S
C1744 C1745 1.366 . S
C1744 C1746 1.388 . S
C1745 C1744 1.366 . S
C1745 C1749 1.385 . S
C1746 H1727 0.951 . S
C1746 C1744 1.388 . S
C1746 C1747 1.366 . S
C1747 C1746 1.366 . S
C1747 C1748 1.414 . S
C1747 C1750 1.499 . S
C1748 H1728 0.950 . S
C1748 C1747 1.414 . S
C1748 C1749 1.374 . S
C1749 H1729 0.950 . S
C1749 C1745 1.385 . S
C1749 C1748 1.374 . S
C1750 C1747 1.499 . S
C1750 C1751 1.373 . S
C1750 C1752 1.389 . S
C1751 H1730 0.950 . S
C1751 C1750 1.373 . S
C1751 C1767 1.377 . S
C1752 C1750 1.389 . S
C1752 C1753 1.524 . S
C1752 C1766 1.377 . S
C1753 C1752 1.524 . S
C1753 C1754 1.397 . S
C1753 C1758 1.363 . S
C1754 H1731 0.950 . S
C1754 C1753 1.397 . S
C1754 C1755 1.334 . S
C1755 H1732 0.950 . S
C1755 C1754 1.334 . S
C1755 C1756 1.287 . S
C1756 C1755 1.287 . S
C1756 C1757 1.524 . S
C1756 H1775 0.913 . S
C1757 H1733 0.950 . S
C1757 C1756 1.524 . S
C1757 C1758 1.415 . S
C1758 H1734 0.950 . S
C1758 C1753 1.363 . S
C1758 C1757 1.415 . S
C1759 H1735 0.951 . S
C1759 C1760 1.366 . S
C1759 C1761 1.388 . S
C1760 C1759 1.366 . S
C1760 C1764 1.385 . S
C1761 H1736 0.951 . S
C1761 C1759 1.388 . S
C1761 C1762 1.366 . S
C1762 C1761 1.366 . S
C1762 C1763 1.414 . S
C1762 C1765 1.499 . S
C1763 H1737 0.950 . S
C1763 C1762 1.414 . S
C1763 C1764 1.374 . S
C1764 H1738 0.950 . S
C1764 C1760 1.385 . S
C1764 C1763 1.374 . S
C1765 C1762 1.499 . S
C1765 C1766 1.373 . S
C1765 C1767 1.389 . S
C1766 H1739 0.950 . S
C1766 C1752 1.377 . S
C1766 C1765 1.373 . S
C1767 C1751 1.377 . S
C1767 C1765 1.389 . S
C1767 C1768 1.524 . S
C1768 C1767 1.524 . S
C1768 C1769 1.397 . S
C1768 C1773 1.363 . S
C1769 H1740 0.950 . S
C1769 C1768 1.397 . S
C1769 C1770 1.334 . S
C1770 H1741 0.950 . S
C1770 C1769 1.334 . S
C1770 C1771 1.287 . S
C1771 C1770 1.287 . S
C1771 C1772 1.524 . S
C1771 H1774 0.999 . S
C1772 H1742 0.950 . S
C1772 C1771 1.524 . S
C1772 C1773 1.415 . S
C1773 H1743 0.950 . S
C1773 C1768 1.363 . S
C1773 C1772 1.415 . S
H1774 C1771 0.999 . S
H1775 C1756 0.913 . S
H1776 C1794 0.951 . S
H1777 C1796 0.951 . S
H1778 C1798 0.950 . S
H1779 C1799 0.950 . S
H1780 C1801 0.950 . S
H1781 C1804 0.950 . S
H1782 C1805 0.950 . S
H1783 C1807 0.950 . S
H1784 C1808 0.950 . S
H1785 C1809 0.958 . S
H1786 C1811 0.951 . S
H1787 C1813 0.950 . S
H1788 C1814 0.950 . S
H1789 C1816 0.950 . S
H1790 C1819 0.950 . S
H1791 C1820 0.950 . S
H1792 C1822 0.950 . S
H1793 C1823 0.950 . S
C1794 H1776 0.951 . S
C1794 C1795 1.366 . S
C1794 C1796 1.388 . S
C1795 C1794 1.366 . S
C1795 C1799 1.385 . S
C1796 H1777 0.951 . S
C1796 C1794 1.388 . S
C1796 C1797 1.366 . S
C1797 C1796 1.366 . S
C1797 C1798 1.414 . S
C1797 C1800 1.499 . S
C1798 H1778 0.950 . S
C1798 C1797 1.414 . S
C1798 C1799 1.374 . S
C1799 H1779 0.950 . S
C1799 C1795 1.385 . S
C1799 C1798 1.374 . S
C1800 C1797 1.499 . S
C1800 C1801 1.373 . S
C1800 C1802 1.389 1_565 S
C1801 H1780 0.950 . S
C1801 C1800 1.373 . S
C1801 C1817 1.377 . S
C1802 C1800 1.389 1_545 S
C1802 C1803 1.524 . S
C1802 C1816 1.377 . S
C1803 C1802 1.524 . S
C1803 C1804 1.397 . S
C1803 C1808 1.363 . S
C1804 H1781 0.950 . S
C1804 C1803 1.397 . S
C1804 C1805 1.334 . S
C1805 H1782 0.950 . S
C1805 C1804 1.334 . S
C1805 C1806 1.287 . S
C1806 C1805 1.287 . S
C1806 C1807 1.524 . S
C1806 H1825 0.913 . S
C1807 H1783 0.950 . S
C1807 C1806 1.524 . S
C1807 C1808 1.415 . S
C1808 H1784 0.950 . S
C1808 C1803 1.363 . S
C1808 C1807 1.415 . S
C1809 H1785 0.958 . S
C1809 C1810 1.366 . S
C1809 C1811 1.388 1_545 S
C1810 C1809 1.366 . S
C1810 C1814 1.385 . S
C1811 H1786 0.951 . S
C1811 C1809 1.388 1_565 S
C1811 C1812 1.366 1_565 S
C1812 C1811 1.366 1_545 S
C1812 C1813 1.414 . S
C1812 C1815 1.494 1_545 S
C1813 H1787 0.950 . S
C1813 C1812 1.414 . S
C1813 C1814 1.374 . S
C1814 H1788 0.950 . S
C1814 C1810 1.385 . S
C1814 C1813 1.374 . S
C1815 C1812 1.494 1_565 S
C1815 C1816 1.370 1_565 S
C1815 C1817 1.398 . S
C1816 H1789 0.950 . S
C1816 C1802 1.377 . S
C1816 C1815 1.370 1_545 S
C1817 C1801 1.377 . S
C1817 C1815 1.398 . S
C1817 C1818 1.524 . S
C1818 C1817 1.524 . S
C1818 C1819 1.397 . S
C1818 C1823 1.363 . S
C1819 H1790 0.950 . S
C1819 C1818 1.397 . S
C1819 C1820 1.334 . S
C1820 H1791 0.950 . S
C1820 C1819 1.334 . S
C1820 C1821 1.287 . S
C1821 C1820 1.287 . S
C1821 C1822 1.524 . S
C1821 H1824 0.999 . S
C1822 H1792 0.950 . S
C1822 C1821 1.524 . S
C1822 C1823 1.415 . S
C1823 H1793 0.950 . S
C1823 C1818 1.363 . S
C1823 C1822 1.415 . S
H1824 C1821 0.999 . S
H1825 C1806 0.913 . S
H1826 C1844 0.951 . S
H1827 C1846 0.951 . S
H1828 C1848 0.950 1_556 S
H1829 C1849 0.950 1_556 S
H1830 C1851 0.950 . S
H1831 C1854 0.950 1_556 S
H1832 C1855 0.950 1_556 S
H1833 C1857 0.950 . S
H1834 C1858 0.950 . S
H1835 C1859 0.951 . S
H1836 C1861 0.951 . S
H1837 C1863 0.950 . S
H1838 C1864 0.950 . S
H1839 C1866 0.950 . S
H1840 C1869 0.950 . S
H1841 C1870 0.950 . S
H1842 C1872 0.950 . S
H1843 C1873 0.950 . S
C1844 H1826 0.951 . S
C1844 C1845 1.366 . S
C1844 C1846 1.388 . S
C1845 C1844 1.366 . S
C1845 C1849 1.385 . S
C1846 H1827 0.951 . S
C1846 C1844 1.388 . S
C1846 C1847 1.366 . S
C1847 C1846 1.366 . S
C1847 C1848 1.414 . S
C1847 C1850 1.499 . S
C1848 H1828 0.950 1_554 S
C1848 C1847 1.414 . S
C1848 C1849 1.374 . S
C1849 H1829 0.950 1_554 S
C1849 C1845 1.385 . S
C1849 C1848 1.374 . S
C1850 C1847 1.499 . S
C1850 C1851 1.373 . S
C1850 C1852 1.389 . S
C1851 H1830 0.950 . S
C1851 C1850 1.373 . S
C1851 C1867 1.377 . S
C1852 C1850 1.389 . S
C1852 C1853 1.524 . S
C1852 C1866 1.377 . S
C1853 C1852 1.524 . S
C1853 C1854 1.397 . S
C1853 C1858 1.363 . S
C1854 H1831 0.950 1_554 S
C1854 C1853 1.397 . S
C1854 C1855 1.334 . S
C1855 H1832 0.950 1_554 S
C1855 C1854 1.334 . S
C1855 C1856 1.287 . S
C1856 C1855 1.287 . S
C1856 C1857 1.524 . S
C1856 H1875 0.913 . S
C1857 H1833 0.950 . S
C1857 C1856 1.524 . S
C1857 C1858 1.415 . S
C1858 H1834 0.950 . S
C1858 C1853 1.363 . S
C1858 C1857 1.415 . S
C1859 H1835 0.951 . S
C1859 C1860 1.366 . S
C1859 C1861 1.388 . S
C1860 C1859 1.366 . S
C1860 C1864 1.385 . S
C1861 H1836 0.951 . S
C1861 C1859 1.388 . S
C1861 C1862 1.366 . S
C1862 C1861 1.366 . S
C1862 C1863 1.414 . S
C1862 C1865 1.499 . S
C1863 H1837 0.950 . S
C1863 C1862 1.414 . S
C1863 C1864 1.374 . S
C1864 H1838 0.950 . S
C1864 C1860 1.385 . S
C1864 C1863 1.374 . S
C1865 C1862 1.499 . S
C1865 C1866 1.373 . S
C1865 C1867 1.389 . S
C1866 H1839 0.950 . S
C1866 C1852 1.377 . S
C1866 C1865 1.373 . S
C1867 C1851 1.377 . S
C1867 C1865 1.389 . S
C1867 C1868 1.524 . S
C1868 C1867 1.524 . S
C1868 C1869 1.397 . S
C1868 C1873 1.363 . S
C1869 H1840 0.950 . S
C1869 C1868 1.397 . S
C1869 C1870 1.334 . S
C1870 H1841 0.950 . S
C1870 C1869 1.334 . S
C1870 C1871 1.287 . S
C1871 C1870 1.287 . S
C1871 C1872 1.524 . S
C1871 H1874 0.999 . S
C1872 H1842 0.950 . S
C1872 C1871 1.524 . S
C1872 C1873 1.415 . S
C1873 H1843 0.950 . S
C1873 C1868 1.363 . S
C1873 C1872 1.415 . S
H1874 C1871 0.999 . S
H1875 C1856 0.913 . S
H1876 C1894 0.951 . S
H1877 C1896 0.951 . S
H1878 C1898 0.950 . S
H1879 C1899 0.950 . S
H1880 C1901 0.950 . S
H1881 C1904 0.950 . S
H1882 C1905 0.950 . S
H1883 C1907 0.950 . S
H1884 C1908 0.950 . S
H1885 C1909 0.951 . S
H1886 C1911 0.951 . S
H1887 C1913 0.950 . S
H1888 C1914 0.950 . S
H1889 C1916 0.950 . S
H1890 C1919 0.950 . S
H1891 C1920 0.950 . S
H1892 C1922 0.950 . S
H1893 C1923 0.950 . S
C1894 H1876 0.951 . S
C1894 C1895 1.366 . S
C1894 C1896 1.388 . S
C1895 C1894 1.366 . S
C1895 C1899 1.385 . S
C1896 H1877 0.951 . S
C1896 C1894 1.388 . S
C1896 C1897 1.366 . S
C1897 C1896 1.366 . S
C1897 C1898 1.414 . S
C1897 C1900 1.499 . S
C1898 H1878 0.950 . S
C1898 C1897 1.414 . S
C1898 C1899 1.374 . S
C1899 H1879 0.950 . S
C1899 C1895 1.385 . S
C1899 C1898 1.374 . S
C1900 C1897 1.499 . S
C1900 C1901 1.373 . S
C1900 C1902 1.389 . S
C1901 H1880 0.950 . S
C1901 C1900 1.373 . S
C1901 C1917 1.377 . S
C1902 C1900 1.389 . S
C1902 C1903 1.524 . S
C1902 C1916 1.377 . S
C1903 C1902 1.524 . S
C1903 C1904 1.397 . S
C1903 C1908 1.363 . S
C1904 H1881 0.950 . S
C1904 C1903 1.397 . S
C1904 C1905 1.334 . S
C1905 H1882 0.950 . S
C1905 C1904 1.334 . S
C1905 C1906 1.287 . S
C1906 C1905 1.287 . S
C1906 C1907 1.524 . S
C1906 H1925 0.913 . S
C1907 H1883 0.950 . S
C1907 C1906 1.524 . S
C1907 C1908 1.415 . S
C1908 H1884 0.950 . S
C1908 C1903 1.363 . S
C1908 C1907 1.415 . S
C1909 H1885 0.951 . S
C1909 C1910 1.366 . S
C1909 C1911 1.388 . S
C1910 C1909 1.366 . S
C1910 C1914 1.385 . S
C1911 H1886 0.951 . S
C1911 C1909 1.388 . S
C1911 C1912 1.366 . S
C1912 C1911 1.366 . S
C1912 C1913 1.414 . S
C1912 C1915 1.499 . S
C1913 H1887 0.950 . S
C1913 C1912 1.414 . S
C1913 C1914 1.374 . S
C1914 H1888 0.950 . S
C1914 C1910 1.385 . S
C1914 C1913 1.374 . S
C1915 C1912 1.499 . S
C1915 C1916 1.373 . S
C1915 C1917 1.389 . S
C1916 H1889 0.950 . S
C1916 C1902 1.377 . S
C1916 C1915 1.373 . S
C1917 C1901 1.377 . S
C1917 C1915 1.389 . S
C1917 C1918 1.524 . S
C1918 C1917 1.524 . S
C1918 C1919 1.397 . S
C1918 C1923 1.363 . S
C1919 H1890 0.950 . S
C1919 C1918 1.397 . S
C1919 C1920 1.334 . S
C1920 H1891 0.950 . S
C1920 C1919 1.334 . S
C1920 C1921 1.287 . S
C1921 C1920 1.287 . S
C1921 C1922 1.524 . S
C1921 H1924 0.999 . S
C1922 H1892 0.950 . S
C1922 C1921 1.524 . S
C1922 C1923 1.415 . S
C1923 H1893 0.950 . S
C1923 C1918 1.363 . S
C1923 C1922 1.415 . S
H1924 C1921 0.999 . S
H1925 C1906 0.913 . S
H1926 C1944 0.951 . S
H1927 C1946 0.951 . S
H1928 C1948 0.950 . S
H1929 C1949 0.950 . S
H1930 C1951 0.950 . S
H1931 C1954 0.950 . S
H1932 C1955 0.950 . S
H1933 C1957 0.950 . S
H1934 C1958 0.950 . S
H1935 C1959 0.951 . S
H1936 C1961 0.951 . S
H1937 C1963 0.950 . S
H1938 C1964 0.950 . S
H1939 C1966 0.950 . S
H1940 C1969 0.950 . S
H1941 C1970 0.950 . S
H1942 C1972 0.950 . S
H1943 C1973 0.950 . S
C1944 H1926 0.951 . S
C1944 C1945 1.366 . S
C1944 C1946 1.388 . S
C1945 C1944 1.366 . S
C1945 C1949 1.385 . S
C1946 H1927 0.951 . S
C1946 C1944 1.388 . S
C1946 C1947 1.366 . S
C1947 C1946 1.366 . S
C1947 C1948 1.414 . S
C1947 C1950 1.499 . S
C1948 H1928 0.950 . S
C1948 C1947 1.414 . S
C1948 C1949 1.374 . S
C1949 H1929 0.950 . S
C1949 C1945 1.385 . S
C1949 C1948 1.374 . S
C1950 C1947 1.499 . S
C1950 C1951 1.373 . S
C1950 C1952 1.389 . S
C1951 H1930 0.950 . S
C1951 C1950 1.373 . S
C1951 C1967 1.377 . S
C1952 C1950 1.389 . S
C1952 C1953 1.524 . S
C1952 C1966 1.377 . S
C1953 C1952 1.524 . S
C1953 C1954 1.397 . S
C1953 C1958 1.363 . S
C1954 H1931 0.950 . S
C1954 C1953 1.397 . S
C1954 C1955 1.334 . S
C1955 H1932 0.950 . S
C1955 C1954 1.334 . S
C1955 C1956 1.287 . S
C1956 C1955 1.287 . S
C1956 C1957 1.524 . S
C1956 H1975 0.913 . S
C1957 H1933 0.950 . S
C1957 C1956 1.524 . S
C1957 C1958 1.415 . S
C1958 H1934 0.950 . S
C1958 C1953 1.363 . S
C1958 C1957 1.415 . S
C1959 H1935 0.951 . S
C1959 C1960 1.366 . S
C1959 C1961 1.388 . S
C1960 C1959 1.366 . S
C1960 C1964 1.385 . S
C1961 H1936 0.951 . S
C1961 C1959 1.388 . S
C1961 C1962 1.366 . S
C1962 C1961 1.366 . S
C1962 C1963 1.414 . S
C1962 C1965 1.499 . S
C1963 H1937 0.950 . S
C1963 C1962 1.414 . S
C1963 C1964 1.374 . S
C1964 H1938 0.950 . S
C1964 C1960 1.385 . S
C1964 C1963 1.374 . S
C1965 C1962 1.499 . S
C1965 C1966 1.373 . S
C1965 C1967 1.389 . S
C1966 H1939 0.950 . S
C1966 C1952 1.377 . S
C1966 C1965 1.373 . S
C1967 C1951 1.377 . S
C1967 C1965 1.389 . S
C1967 C1968 1.524 . S
C1968 C1967 1.524 . S
C1968 C1969 1.397 . S
C1968 C1973 1.363 . S
C1969 H1940 0.950 . S
C1969 C1968 1.397 . S
C1969 C1970 1.334 . S
C1970 H1941 0.950 . S
C1970 C1969 1.334 . S
C1970 C1971 1.287 . S
C1971 C1970 1.287 . S
C1971 C1972 1.524 . S
C1971 H1974 0.999 . S
C1972 H1942 0.950 . S
C1972 C1971 1.524 . S
C1972 C1973 1.415 . S
C1973 H1943 0.950 . S
C1973 C1968 1.363 . S
C1973 C1972 1.415 . S
H1974 C1971 0.999 . S
H1975 C1956 0.913 . S
H1976 C1994 0.951 . S
H1977 C1996 0.951 . S
H1978 C1998 0.950 . S
H1979 C1999 0.950 . S
H1980 C2001 0.950 . S
H1981 C2004 0.950 . S
H1982 C2005 0.950 . S
H1983 C2007 0.950 . S
H1984 C2008 0.950 . S
H1985 C2009 0.951 . S
H1986 C2011 0.951 . S
H1987 C2013 0.950 . S
H1988 C2014 0.950 . S
H1989 C2016 0.950 . S
H1990 C2019 0.950 . S
H1991 C2020 0.950 . S
H1992 C2022 0.950 . S
H1993 C2023 0.950 . S
C1994 H1976 0.951 . S
C1994 C1995 1.366 . S
C1994 C1996 1.388 . S
C1995 C1994 1.366 . S
C1995 C1999 1.385 . S
C1996 H1977 0.951 . S
C1996 C1994 1.388 . S
C1996 C1997 1.366 . S
C1997 C1996 1.366 . S
C1997 C1998 1.414 . S
C1997 C2000 1.499 . S
C1998 H1978 0.950 . S
C1998 C1997 1.414 . S
C1998 C1999 1.374 . S
C1999 H1979 0.950 . S
C1999 C1995 1.385 . S
C1999 C1998 1.374 . S
C2000 C1997 1.499 . S
C2000 C2001 1.373 . S
C2000 C2002 1.389 . S
C2001 H1980 0.950 . S
C2001 C2000 1.373 . S
C2001 C2017 1.377 . S
C2002 C2000 1.389 . S
C2002 C2003 1.524 . S
C2002 C2016 1.377 . S
C2003 C2002 1.524 . S
C2003 C2004 1.397 . S
C2003 C2008 1.363 . S
C2004 H1981 0.950 . S
C2004 C2003 1.397 . S
C2004 C2005 1.334 . S
C2005 H1982 0.950 . S
C2005 C2004 1.334 . S
C2005 C2006 1.287 . S
C2006 C2005 1.287 . S
C2006 C2007 1.524 . S
C2006 H2025 0.913 . S
C2007 H1983 0.950 . S
C2007 C2006 1.524 . S
C2007 C2008 1.415 . S
C2008 H1984 0.950 . S
C2008 C2003 1.363 . S
C2008 C2007 1.415 . S
C2009 H1985 0.951 . S
C2009 C2010 1.366 . S
C2009 C2011 1.388 . S
C2010 C2009 1.366 . S
C2010 C2014 1.385 . S
C2011 H1986 0.951 . S
C2011 C2009 1.388 . S
C2011 C2012 1.366 . S
C2012 C2011 1.366 . S
C2012 C2013 1.414 . S
C2012 C2015 1.499 . S
C2013 H1987 0.950 . S
C2013 C2012 1.414 . S
C2013 C2014 1.374 . S
C2014 H1988 0.950 . S
C2014 C2010 1.385 . S
C2014 C2013 1.374 . S
C2015 C2012 1.499 . S
C2015 C2016 1.373 . S
C2015 C2017 1.389 . S
C2016 H1989 0.950 . S
C2016 C2002 1.377 . S
C2016 C2015 1.373 . S
C2017 C2001 1.377 . S
C2017 C2015 1.389 . S
C2017 C2018 1.524 . S
C2018 C2017 1.524 . S
C2018 C2019 1.397 . S
C2018 C2023 1.363 . S
C2019 H1990 0.950 . S
C2019 C2018 1.397 . S
C2019 C2020 1.334 . S
C2020 H1991 0.950 . S
C2020 C2019 1.334 . S
C2020 C2021 1.287 . S
C2021 C2020 1.287 . S
C2021 C2022 1.524 . S
C2021 H2024 0.999 . S
C2022 H1992 0.950 . S
C2022 C2021 1.524 . S
C2022 C2023 1.415 . S
C2023 H1993 0.950 . S
C2023 C2018 1.363 . S
C2023 C2022 1.415 . S
H2024 C2021 0.999 . S
H2025 C2006 0.913 . S
H2026 C2044 0.951 . S
H2027 C2046 0.951 . S
H2028 C2048 0.950 . S
H2029 C2049 0.950 . S
H2030 C2051 0.950 . S
H2031 C2054 0.950 . S
H2032 C2055 0.950 . S
H2033 C2057 0.950 . S
H2034 C2058 0.950 . S
H2035 C2059 0.951 . S
H2036 C2061 0.951 . S
H2037 C2063 0.950 . S
H2038 C2064 0.950 . S
H2039 C2066 0.950 . S
H2040 C2069 0.950 . S
H2041 C2070 0.950 . S
H2042 C2072 0.950 . S
H2043 C2073 0.950 . S
C2044 H2026 0.951 . S
C2044 C2045 1.366 . S
C2044 C2046 1.388 . S
C2045 C2044 1.366 . S
C2045 C2049 1.385 . S
C2046 H2027 0.951 . S
C2046 C2044 1.388 . S
C2046 C2047 1.366 . S
C2047 C2046 1.366 . S
C2047 C2048 1.414 . S
C2047 C2050 1.499 . S
C2048 H2028 0.950 . S
C2048 C2047 1.414 . S
C2048 C2049 1.374 . S
C2049 H2029 0.950 . S
C2049 C2045 1.385 . S
C2049 C2048 1.374 . S
C2050 C2047 1.499 . S
C2050 C2051 1.373 . S
C2050 C2052 1.389 . S
C2051 H2030 0.950 . S
C2051 C2050 1.373 . S
C2051 C2067 1.377 . S
C2052 C2050 1.389 . S
C2052 C2053 1.524 . S
C2052 C2066 1.377 . S
C2053 C2052 1.524 . S
C2053 C2054 1.397 . S
C2053 C2058 1.363 . S
C2054 H2031 0.950 . S
C2054 C2053 1.397 . S
C2054 C2055 1.334 . S
C2055 H2032 0.950 . S
C2055 C2054 1.334 . S
C2055 C2056 1.287 . S
C2056 C2055 1.287 . S
C2056 C2057 1.524 . S
C2056 H2075 0.913 . S
C2057 H2033 0.950 . S
C2057 C2056 1.524 . S
C2057 C2058 1.415 . S
C2058 H2034 0.950 . S
C2058 C2053 1.363 . S
C2058 C2057 1.415 . S
C2059 H2035 0.951 . S
C2059 C2060 1.366 . S
C2059 C2061 1.388 . S
C2060 C2059 1.366 . S
C2060 C2064 1.385 . S
C2061 H2036 0.951 . S
C2061 C2059 1.388 . S
C2061 C2062 1.366 . S
C2062 C2061 1.366 . S
C2062 C2063 1.414 . S
C2062 C2065 1.499 . S
C2063 H2037 0.950 . S
C2063 C2062 1.414 . S
C2063 C2064 1.374 . S
C2064 H2038 0.950 . S
C2064 C2060 1.385 . S
C2064 C2063 1.374 . S
C2065 C2062 1.499 . S
C2065 C2066 1.373 . S
C2065 C2067 1.389 . S
C2066 H2039 0.950 . S
C2066 C2052 1.377 . S
C2066 C2065 1.373 . S
C2067 C2051 1.377 . S
C2067 C2065 1.389 . S
C2067 C2068 1.524 . S
C2068 C2067 1.524 . S
C2068 C2069 1.397 . S
C2068 C2073 1.363 . S
C2069 H2040 0.950 . S
C2069 C2068 1.397 . S
C2069 C2070 1.334 . S
C2070 H2041 0.950 . S
C2070 C2069 1.334 . S
C2070 C2071 1.287 . S
C2071 C2070 1.287 . S
C2071 C2072 1.524 . S
C2071 H2074 0.999 . S
C2072 H2042 0.950 . S
C2072 C2071 1.524 . S
C2072 C2073 1.415 . S
C2073 H2043 0.950 . S
C2073 C2068 1.363 . S
C2073 C2072 1.415 . S
H2074 C2071 0.999 . S
H2075 C2056 0.913 . S
H2076 C2094 0.951 . S
H2077 C2096 0.951 . S
H2078 C2098 0.950 . S
H2079 C2099 0.950 . S
H2080 C2101 0.950 . S
H2081 C2104 0.950 . S
H2082 C2105 0.950 . S
H2083 C2107 0.950 . S
H2084 C2108 0.950 . S
H2085 C2109 0.951 . S
H2086 C2111 0.951 . S
H2087 C2113 0.950 . S
H2088 C2114 0.950 . S
H2089 C2116 0.950 . S
H2090 C2119 0.950 . S
H2091 C2120 0.950 . S
H2092 C2122 0.950 . S
H2093 C2123 0.950 . S
C2094 H2076 0.951 . S
C2094 C2095 1.366 . S
C2094 C2096 1.388 . S
C2095 C2094 1.366 . S
C2095 C2099 1.385 . S
C2096 H2077 0.951 . S
C2096 C2094 1.388 . S
C2096 C2097 1.366 . S
C2097 C2096 1.366 . S
C2097 C2098 1.414 . S
C2097 C2100 1.499 . S
C2098 H2078 0.950 . S
C2098 C2097 1.414 . S
C2098 C2099 1.374 . S
C2099 H2079 0.950 . S
C2099 C2095 1.385 . S
C2099 C2098 1.374 . S
C2100 C2097 1.499 . S
C2100 C2101 1.373 . S
C2100 C2102 1.389 . S
C2101 H2080 0.950 . S
C2101 C2100 1.373 . S
C2101 C2117 1.377 . S
C2102 C2100 1.389 . S
C2102 C2103 1.524 . S
C2102 C2116 1.377 . S
C2103 C2102 1.524 . S
C2103 C2104 1.397 . S
C2103 C2108 1.363 . S
C2104 H2081 0.950 . S
C2104 C2103 1.397 . S
C2104 C2105 1.334 . S
C2105 H2082 0.950 . S
C2105 C2104 1.334 . S
C2105 C2106 1.287 . S
C2106 C2105 1.287 . S
C2106 C2107 1.524 . S
C2106 H2125 0.913 . S
C2107 H2083 0.950 . S
C2107 C2106 1.524 . S
C2107 C2108 1.415 . S
C2108 H2084 0.950 . S
C2108 C2103 1.363 . S
C2108 C2107 1.415 . S
C2109 H2085 0.951 . S
C2109 C2110 1.366 . S
C2109 C2111 1.388 . S
C2110 C2109 1.366 . S
C2110 C2114 1.385 . S
C2111 H2086 0.951 . S
C2111 C2109 1.388 . S
C2111 C2112 1.366 . S
C2112 C2111 1.366 . S
C2112 C2113 1.414 . S
C2112 C2115 1.499 . S
C2113 H2087 0.950 . S
C2113 C2112 1.414 . S
C2113 C2114 1.374 . S
C2114 H2088 0.950 . S
C2114 C2110 1.385 . S
C2114 C2113 1.374 . S
C2115 C2112 1.499 . S
C2115 C2116 1.373 . S
C2115 C2117 1.389 . S
C2116 H2089 0.950 . S
C2116 C2102 1.377 . S
C2116 C2115 1.373 . S
C2117 C2101 1.377 . S
C2117 C2115 1.389 . S
C2117 C2118 1.524 . S
C2118 C2117 1.524 . S
C2118 C2119 1.397 . S
C2118 C2123 1.363 . S
C2119 H2090 0.950 . S
C2119 C2118 1.397 . S
C2119 C2120 1.334 . S
C2120 H2091 0.950 . S
C2120 C2119 1.334 . S
C2120 C2121 1.287 . S
C2121 C2120 1.287 . S
C2121 C2122 1.524 . S
C2121 H2124 0.999 . S
C2122 H2092 0.950 . S
C2122 C2121 1.524 . S
C2122 C2123 1.415 . S
C2123 H2093 0.950 . S
C2123 C2118 1.363 . S
C2123 C2122 1.415 . S
H2124 C2121 0.999 . S
H2125 C2106 0.913 . S
H2126 C2144 0.951 . S
H2127 C2146 0.951 . S
H2128 C2148 0.950 . S
H2129 C2149 0.950 . S
H2130 C2151 0.950 . S
H2131 C2154 0.950 . S
H2132 C2155 0.950 . S
H2133 C2157 0.950 . S
H2134 C2158 0.950 . S
H2135 C2159 0.951 . S
H2136 C2161 0.951 . S
H2137 C2163 0.950 . S
H2138 C2164 0.950 . S
H2139 C2166 0.950 . S
H2140 C2169 0.950 . S
H2141 C2170 0.950 . S
H2142 C2172 0.950 . S
H2143 C2173 0.950 . S
C2144 H2126 0.951 . S
C2144 C2145 1.366 . S
C2144 C2146 1.388 . S
C2145 C2144 1.366 . S
C2145 C2149 1.385 . S
C2146 H2127 0.951 . S
C2146 C2144 1.388 . S
C2146 C2147 1.366 . S
C2147 C2146 1.366 . S
C2147 C2148 1.414 . S
C2147 C2150 1.499 . S
C2148 H2128 0.950 . S
C2148 C2147 1.414 . S
C2148 C2149 1.374 . S
C2149 H2129 0.950 . S
C2149 C2145 1.385 . S
C2149 C2148 1.374 . S
C2150 C2147 1.499 . S
C2150 C2151 1.373 . S
C2150 C2152 1.389 . S
C2151 H2130 0.950 . S
C2151 C2150 1.373 . S
C2151 C2167 1.377 . S
C2152 C2150 1.389 . S
C2152 C2153 1.524 . S
C2152 C2166 1.377 . S
C2153 C2152 1.524 . S
C2153 C2154 1.397 . S
C2153 C2158 1.363 . S
C2154 H2131 0.950 . S
C2154 C2153 1.397 . S
C2154 C2155 1.334 . S
C2155 H2132 0.950 . S
C2155 C2154 1.334 . S
C2155 C2156 1.287 . S
C2156 C2155 1.287 . S
C2156 C2157 1.524 . S
C2156 H2175 0.913 . S
C2157 H2133 0.950 . S
C2157 C2156 1.524 . S
C2157 C2158 1.415 . S
C2158 H2134 0.950 . S
C2158 C2153 1.363 . S
C2158 C2157 1.415 . S
C2159 H2135 0.951 . S
C2159 C2160 1.366 . S
C2159 C2161 1.388 . S
C2160 C2159 1.366 . S
C2160 C2164 1.385 . S
C2161 H2136 0.951 . S
C2161 C2159 1.388 . S
C2161 C2162 1.366 . S
C2162 C2161 1.366 . S
C2162 C2163 1.414 . S
C2162 C2165 1.499 . S
C2163 H2137 0.950 . S
C2163 C2162 1.414 . S
C2163 C2164 1.374 . S
C2164 H2138 0.950 . S
C2164 C2160 1.385 . S
C2164 C2163 1.374 . S
C2165 C2162 1.499 . S
C2165 C2166 1.373 . S
C2165 C2167 1.389 . S
C2166 H2139 0.950 . S
C2166 C2152 1.377 . S
C2166 C2165 1.373 . S
C2167 C2151 1.377 . S
C2167 C2165 1.389 . S
C2167 C2168 1.524 . S
C2168 C2167 1.524 . S
C2168 C2169 1.397 . S
C2168 C2173 1.363 . S
C2169 H2140 0.950 . S
C2169 C2168 1.397 . S
C2169 C2170 1.334 . S
C2170 H2141 0.950 . S
C2170 C2169 1.334 . S
C2170 C2171 1.287 . S
C2171 C2170 1.287 . S
C2171 C2172 1.524 . S
C2171 H2174 0.999 . S
C2172 H2142 0.950 . S
C2172 C2171 1.524 . S
C2172 C2173 1.415 . S
C2173 H2143 0.950 . S
C2173 C2168 1.363 . S
C2173 C2172 1.415 . S
H2174 C2171 0.999 . S
H2175 C2156 0.913 . S
H2176 C2194 0.951 . S
H2177 C2196 0.951 . S
H2178 C2198 0.950 . S
H2179 C2199 0.950 . S
H2180 C2201 0.950 . S
H2181 C2204 0.950 . S
H2182 C2205 0.950 . S
H2183 C2207 0.950 . S
H2184 C2208 0.950 . S
H2185 C2209 0.951 1_545 S
H2186 C2211 0.951 . S
H2187 C2213 0.950 . S
H2188 C2214 0.950 . S
H2189 C2216 0.950 . S
H2190 C2219 0.950 . S
H2191 C2220 0.950 . S
H2192 C2222 0.950 . S
H2193 C2223 0.950 . S
C2194 H2176 0.951 . S
C2194 C2195 1.366 . S
C2194 C2196 1.388 . S
C2195 C2194 1.366 . S
C2195 C2199 1.385 . S
C2196 H2177 0.951 . S
C2196 C2194 1.388 . S
C2196 C2197 1.366 . S
C2197 C2196 1.366 . S
C2197 C2198 1.414 . S
C2197 C2200 1.499 . S
C2198 H2178 0.950 . S
C2198 C2197 1.414 . S
C2198 C2199 1.374 . S
C2199 H2179 0.950 . S
C2199 C2195 1.385 . S
C2199 C2198 1.374 . S
C2200 C2197 1.499 . S
C2200 C2201 1.373 . S
C2200 C2202 1.389 . S
C2201 H2180 0.950 . S
C2201 C2200 1.373 . S
C2201 C2217 1.377 . S
C2202 C2200 1.389 . S
C2202 C2203 1.524 . S
C2202 C2216 1.377 . S
C2203 C2202 1.524 . S
C2203 C2204 1.397 . S
C2203 C2208 1.363 . S
C2204 H2181 0.950 . S
C2204 C2203 1.397 . S
C2204 C2205 1.334 . S
C2205 H2182 0.950 . S
C2205 C2204 1.334 . S
C2205 C2206 1.287 . S
C2206 C2205 1.287 . S
C2206 C2207 1.524 . S
C2206 H2225 0.913 . S
C2207 H2183 0.950 . S
C2207 C2206 1.524 . S
C2207 C2208 1.415 . S
C2208 H2184 0.950 . S
C2208 C2203 1.363 . S
C2208 C2207 1.415 . S
C2209 H2185 0.951 1_565 S
C2209 C2210 1.364 1_565 S
C2209 C2211 1.388 . S
C2210 C2209 1.364 1_545 S
C2210 C2214 1.377 1_545 S
C2211 H2186 0.951 . S
C2211 C2209 1.388 . S
C2211 C2212 1.366 . S
C2212 C2211 1.366 . S
C2212 C2213 1.414 . S
C2212 C2215 1.499 . S
C2213 H2187 0.950 . S
C2213 C2212 1.414 . S
C2213 C2214 1.374 . S
C2214 H2188 0.950 . S
C2214 C2210 1.377 1_565 S
C2214 C2213 1.374 . S
C2215 C2212 1.499 . S
C2215 C2216 1.373 . S
C2215 C2217 1.389 . S
C2216 H2189 0.950 . S
C2216 C2202 1.377 . S
C2216 C2215 1.373 . S
C2217 C2201 1.377 . S
C2217 C2215 1.389 . S
C2217 C2218 1.524 . S
C2218 C2217 1.524 . S
C2218 C2219 1.397 . S
C2218 C2223 1.363 . S
C2219 H2190 0.950 . S
C2219 C2218 1.397 . S
C2219 C2220 1.334 1_455 S
C2220 H2191 0.950 . S
C2220 C2219 1.334 1_655 S
C2220 C2221 1.287 . S
C2221 C2220 1.287 . S
C2221 C2222 1.524 . S
C2221 H2224 0.999 . S
C2222 H2192 0.950 . S
C2222 C2221 1.524 . S
C2222 C2223 1.415 1_655 S
C2223 H2193 0.950 . S
C2223 C2218 1.363 . S
C2223 C2222 1.415 1_455 S
H2224 C2221 0.999 . S
H2225 C2206 0.913 . S
H2226 C2244 0.951 . S
H2227 C2246 0.951 . S
H2228 C2248 0.950 . S
H2229 C2249 0.950 . S
H2230 C2251 0.950 . S
H2231 C2254 0.950 . S
H2232 C2255 0.950 . S
H2233 C2257 0.950 . S
H2234 C2258 0.950 . S
H2235 C2259 0.951 . S
H2236 C2261 0.951 . S
H2237 C2263 0.950 . S
H2238 C2264 0.950 . S
H2239 C2266 0.950 . S
H2240 C2269 0.950 . S
H2241 C2270 0.950 . S
H2242 C2272 0.950 . S
H2243 C2273 0.950 . S
C2244 H2226 0.951 . S
C2244 C2245 1.366 . S
C2244 C2246 1.388 . S
C2245 C2244 1.366 . S
C2245 C2249 1.385 . S
C2246 H2227 0.951 . S
C2246 C2244 1.388 . S
C2246 C2247 1.366 . S
C2247 C2246 1.366 . S
C2247 C2248 1.414 . S
C2247 C2250 1.499 . S
C2248 H2228 0.950 . S
C2248 C2247 1.414 . S
C2248 C2249 1.374 . S
C2249 H2229 0.950 . S
C2249 C2245 1.385 . S
C2249 C2248 1.374 . S
C2250 C2247 1.499 . S
C2250 C2251 1.373 . S
C2250 C2252 1.389 . S
C2251 H2230 0.950 . S
C2251 C2250 1.373 . S
C2251 C2267 1.377 . S
C2252 C2250 1.389 . S
C2252 C2253 1.524 . S
C2252 C2266 1.377 . S
C2253 C2252 1.524 . S
C2253 C2254 1.397 . S
C2253 C2258 1.363 . S
C2254 H2231 0.950 . S
C2254 C2253 1.397 . S
C2254 C2255 1.334 . S
C2255 H2232 0.950 . S
C2255 C2254 1.334 . S
C2255 C2256 1.287 . S
C2256 C2255 1.287 . S
C2256 C2257 1.524 . S
C2256 H2275 0.913 . S
C2257 H2233 0.950 . S
C2257 C2256 1.524 . S
C2257 C2258 1.415 . S
C2258 H2234 0.950 . S
C2258 C2253 1.363 . S
C2258 C2257 1.415 . S
C2259 H2235 0.951 . S
C2259 C2260 1.366 . S
C2259 C2261 1.388 . S
C2260 C2259 1.366 . S
C2260 C2264 1.385 . S
C2261 H2236 0.951 . S
C2261 C2259 1.388 . S
C2261 C2262 1.366 . S
C2262 C2261 1.366 . S
C2262 C2263 1.414 . S
C2262 C2265 1.499 . S
C2263 H2237 0.950 . S
C2263 C2262 1.414 . S
C2263 C2264 1.374 . S
C2264 H2238 0.950 . S
C2264 C2260 1.385 . S
C2264 C2263 1.374 . S
C2265 C2262 1.499 . S
C2265 C2266 1.373 . S
C2265 C2267 1.389 . S
C2266 H2239 0.950 . S
C2266 C2252 1.377 . S
C2266 C2265 1.373 . S
C2267 C2251 1.377 . S
C2267 C2265 1.389 . S
C2267 C2268 1.524 . S
C2268 C2267 1.524 . S
C2268 C2269 1.397 . S
C2268 C2273 1.363 . S
C2269 H2240 0.950 . S
C2269 C2268 1.397 . S
C2269 C2270 1.334 . S
C2270 H2241 0.950 . S
C2270 C2269 1.334 . S
C2270 C2271 1.287 . S
C2271 C2270 1.287 . S
C2271 C2272 1.524 . S
C2271 H2274 0.999 . S
C2272 H2242 0.950 . S
C2272 C2271 1.524 . S
C2272 C2273 1.415 . S
C2273 H2243 0.950 . S
C2273 C2268 1.363 . S
C2273 C2272 1.415 . S
H2274 C2271 0.999 . S
H2275 C2256 0.913 . S
H2276 C2294 0.951 . S
H2277 C2296 0.951 . S
H2278 C2298 0.950 . S
H2279 C2299 0.950 . S
H2280 C2301 0.950 . S
H2281 C2304 0.950 . S
H2282 C2305 0.950 . S
H2283 C2307 0.950 . S
H2284 C2308 0.950 . S
H2285 C2309 0.951 . S
H2286 C2311 0.951 . S
H2287 C2313 0.950 . S
H2288 C2314 0.950 . S
H2289 C2316 0.950 . S
H2290 C2319 0.950 . S
H2291 C2320 0.950 . S
H2292 C2322 0.950 . S
H2293 C2323 0.950 . S
C2294 H2276 0.951 . S
C2294 C2295 1.366 . S
C2294 C2296 1.388 . S
C2295 C2294 1.366 . S
C2295 C2299 1.385 . S
C2296 H2277 0.951 . S
C2296 C2294 1.388 . S
C2296 C2297 1.366 . S
C2297 C2296 1.366 . S
C2297 C2298 1.414 . S
C2297 C2300 1.499 . S
C2298 H2278 0.950 . S
C2298 C2297 1.414 . S
C2298 C2299 1.374 . S
C2299 H2279 0.950 . S
C2299 C2295 1.385 . S
C2299 C2298 1.374 . S
C2300 C2297 1.499 . S
C2300 C2301 1.373 . S
C2300 C2302 1.389 . S
C2301 H2280 0.950 . S
C2301 C2300 1.373 . S
C2301 C2317 1.377 . S
C2302 C2300 1.389 . S
C2302 C2303 1.524 . S
C2302 C2316 1.377 . S
C2303 C2302 1.524 . S
C2303 C2304 1.397 . S
C2303 C2308 1.363 . S
C2304 H2281 0.950 . S
C2304 C2303 1.397 . S
C2304 C2305 1.334 . S
C2305 H2282 0.950 . S
C2305 C2304 1.334 . S
C2305 C2306 1.287 . S
C2306 C2305 1.287 . S
C2306 C2307 1.524 . S
C2306 H2325 0.913 . S
C2307 H2283 0.950 . S
C2307 C2306 1.524 . S
C2307 C2308 1.415 . S
C2308 H2284 0.950 . S
C2308 C2303 1.363 . S
C2308 C2307 1.415 . S
C2309 H2285 0.951 . S
C2309 C2310 1.366 . S
C2309 C2311 1.388 . S
C2310 C2309 1.366 . S
C2310 C2314 1.385 . S
C2311 H2286 0.951 . S
C2311 C2309 1.388 . S
C2311 C2312 1.366 . S
C2312 C2311 1.366 . S
C2312 C2313 1.414 . S
C2312 C2315 1.499 . S
C2313 H2287 0.950 . S
C2313 C2312 1.414 . S
C2313 C2314 1.374 . S
C2314 H2288 0.950 . S
C2314 C2310 1.385 . S
C2314 C2313 1.374 . S
C2315 C2312 1.499 . S
C2315 C2316 1.373 . S
C2315 C2317 1.389 . S
C2316 H2289 0.950 . S
C2316 C2302 1.377 . S
C2316 C2315 1.373 . S
C2317 C2301 1.377 . S
C2317 C2315 1.389 . S
C2317 C2318 1.524 . S
C2318 C2317 1.524 . S
C2318 C2319 1.397 . S
C2318 C2323 1.363 . S
C2319 H2290 0.950 . S
C2319 C2318 1.397 . S
C2319 C2320 1.334 . S
C2320 H2291 0.950 . S
C2320 C2319 1.334 . S
C2320 C2321 1.287 . S
C2321 C2320 1.287 . S
C2321 C2322 1.524 . S
C2321 H2324 0.999 . S
C2322 H2292 0.950 . S
C2322 C2321 1.524 . S
C2322 C2323 1.415 . S
C2323 H2293 0.950 . S
C2323 C2318 1.363 . S
C2323 C2322 1.415 . S
H2324 C2321 0.999 . S
H2325 C2306 0.913 . S
H2326 C2344 0.951 . S
H2327 C2346 0.951 . S
H2328 C2348 0.950 . S
H2329 C2349 0.950 . S
H2330 C2351 0.950 . S
H2331 C2354 0.950 . S
H2332 C2355 0.950 . S
H2333 C2357 0.950 . S
H2334 C2358 0.950 . S
H2335 C2359 0.951 . S
H2336 C2361 0.951 . S
H2337 C2363 0.950 . S
H2338 C2364 0.950 . S
H2339 C2366 0.950 . S
H2340 C2369 0.950 . S
H2341 C2370 0.950 . S
H2342 C2372 0.950 . S
H2343 C2373 0.950 . S
C2344 H2326 0.951 . S
C2344 C2345 1.366 . S
C2344 C2346 1.388 . S
C2345 C2344 1.366 . S
C2345 C2349 1.385 . S
C2346 H2327 0.951 . S
C2346 C2344 1.388 . S
C2346 C2347 1.366 . S
C2347 C2346 1.366 . S
C2347 C2348 1.414 . S
C2347 C2350 1.499 . S
C2348 H2328 0.950 . S
C2348 C2347 1.414 . S
C2348 C2349 1.374 . S
C2349 H2329 0.950 . S
C2349 C2345 1.385 . S
C2349 C2348 1.374 . S
C2350 C2347 1.499 . S
C2350 C2351 1.373 . S
C2350 C2352 1.389 . S
C2351 H2330 0.950 . S
C2351 C2350 1.373 . S
C2351 C2367 1.377 . S
C2352 C2350 1.389 . S
C2352 C2353 1.524 . S
C2352 C2366 1.377 . S
C2353 C2352 1.524 . S
C2353 C2354 1.397 . S
C2353 C2358 1.363 . S
C2354 H2331 0.950 . S
C2354 C2353 1.397 . S
C2354 C2355 1.334 . S
C2355 H2332 0.950 . S
C2355 C2354 1.334 . S
C2355 C2356 1.287 . S
C2356 C2355 1.287 . S
C2356 C2357 1.524 . S
C2356 H2375 0.913 . S
C2357 H2333 0.950 . S
C2357 C2356 1.524 . S
C2357 C2358 1.415 . S
C2358 H2334 0.950 . S
C2358 C2353 1.363 . S
C2358 C2357 1.415 . S
C2359 H2335 0.951 . S
C2359 C2360 1.366 . S
C2359 C2361 1.388 . S
C2360 C2359 1.366 . S
C2360 C2364 1.385 . S
C2361 H2336 0.951 . S
C2361 C2359 1.388 . S
C2361 C2362 1.366 . S
C2362 C2361 1.366 . S
C2362 C2363 1.414 . S
C2362 C2365 1.499 . S
C2363 H2337 0.950 . S
C2363 C2362 1.414 . S
C2363 C2364 1.374 . S
C2364 H2338 0.950 . S
C2364 C2360 1.385 . S
C2364 C2363 1.374 . S
C2365 C2362 1.499 . S
C2365 C2366 1.373 . S
C2365 C2367 1.389 . S
C2366 H2339 0.950 . S
C2366 C2352 1.377 . S
C2366 C2365 1.373 . S
C2367 C2351 1.377 . S
C2367 C2365 1.389 . S
C2367 C2368 1.524 . S
C2368 C2367 1.524 . S
C2368 C2369 1.397 . S
C2368 C2373 1.363 . S
C2369 H2340 0.950 . S
C2369 C2368 1.397 . S
C2369 C2370 1.334 . S
C2370 H2341 0.950 . S
C2370 C2369 1.334 . S
C2370 C2371 1.287 . S
C2371 C2370 1.287 . S
C2371 C2372 1.524 . S
C2371 H2374 0.999 . S
C2372 H2342 0.950 . S
C2372 C2371 1.524 . S
C2372 C2373 1.415 . S
C2373 H2343 0.950 . S
C2373 C2368 1.363 . S
C2373 C2372 1.415 . S
H2374 C2371 0.999 . S
H2375 C2356 0.913 . S
H2376 C2394 0.951 . S
H2377 C2396 0.951 . S
H2378 C2398 0.950 . S
H2379 C2399 0.950 . S
H2380 C2401 0.950 . S
H2381 C2404 0.950 . S
H2382 C2405 0.950 . S
H2383 C2407 0.950 . S
H2384 C2408 0.950 . S
H2385 C2409 0.949 . S
H2386 C2411 0.951 . S
H2387 C2413 0.950 . S
H2388 C2414 0.950 . S
H2389 C2416 0.950 . S
H2390 C2419 0.950 . S
H2391 C2420 0.950 1_455 S
H2392 C2422 0.950 . S
H2393 C2423 0.950 . S
C2394 H2376 0.951 . S
C2394 C2395 1.366 . S
C2394 C2396 1.388 . S
C2395 C2394 1.366 . S
C2395 C2399 1.385 1_455 S
C2396 H2377 0.951 . S
C2396 C2394 1.388 . S
C2396 C2397 1.366 . S
C2397 C2396 1.366 . S
C2397 C2398 1.414 1_455 S
C2397 C2400 1.499 . S
C2398 H2378 0.950 . S
C2398 C2397 1.414 1_655 S
C2398 C2399 1.374 . S
C2399 H2379 0.950 . S
C2399 C2395 1.385 1_655 S
C2399 C2398 1.374 . S
C2400 C2397 1.499 . S
C2400 C2401 1.373 1_455 S
C2400 C2402 1.389 . S
C2401 H2380 0.950 . S
C2401 C2400 1.373 1_655 S
C2401 C2417 1.377 1_655 S
C2402 C2400 1.389 . S
C2402 C2403 1.524 . S
C2402 C2416 1.377 . S
C2403 C2402 1.524 . S
C2403 C2404 1.397 . S
C2403 C2408 1.363 . S
C2404 H2381 0.950 . S
C2404 C2403 1.397 . S
C2404 C2405 1.334 . S
C2405 H2382 0.950 . S
C2405 C2404 1.334 . S
C2405 C2406 1.287 . S
C2406 C2405 1.287 . S
C2406 C2407 1.524 . S
C2406 H2425 0.913 . S
C2407 H2383 0.950 . S
C2407 C2406 1.524 . S
C2407 C2408 1.415 . S
C2408 H2384 0.950 . S
C2408 C2403 1.363 . S
C2408 C2407 1.415 . S
C2409 H2385 0.949 . S
C2409 C2410 1.369 1_655 S
C2409 C2411 1.387 . S
C2410 C2409 1.369 1_455 S
C2410 C2414 1.385 . S
C2411 H2386 0.951 . S
C2411 C2409 1.387 . S
C2411 C2412 1.366 1_655 S
C2412 C2411 1.366 1_455 S
C2412 C2413 1.414 . S
C2412 C2415 1.499 . S
C2413 H2387 0.950 . S
C2413 C2412 1.414 . S
C2413 C2414 1.374 . S
C2414 H2388 0.950 . S
C2414 C2410 1.385 . S
C2414 C2413 1.374 . S
C2415 C2412 1.499 . S
C2415 C2416 1.373 . S
C2415 C2417 1.389 . S
C2416 H2389 0.950 . S
C2416 C2402 1.377 . S
C2416 C2415 1.373 . S
C2417 C2401 1.377 1_455 S
C2417 C2415 1.389 . S
C2417 C2418 1.524 1_455 S
C2418 C2417 1.524 1_655 S
C2418 C2419 1.397 1_655 S
C2418 C2423 1.363 . S
C2419 H2390 0.950 . S
C2419 C2418 1.397 1_455 S
C2419 C2420 1.334 1_455 S
C2420 H2391 0.950 1_655 S
C2420 C2419 1.334 1_655 S
C2420 C2421 1.287 . S
C2421 C2420 1.287 . S
C2421 C2422 1.524 . S
C2421 H2424 0.999 . S
C2422 H2392 0.950 . S
C2422 C2421 1.524 . S
C2422 C2423 1.415 . S
C2423 H2393 0.950 . S
C2423 C2418 1.363 . S
C2423 C2422 1.415 . S
H2424 C2421 0.999 . S
H2425 C2406 0.913 . S
H2426 C2444 0.951 . S
H2427 C2446 0.951 . S
H2428 C2448 0.950 . S
H2429 C2449 0.950 . S
H2430 C2451 0.950 . S
H2431 C2454 0.950 . S
H2432 C2455 0.950 . S
H2433 C2457 0.950 . S
H2434 C2458 0.950 . S
H2435 C2459 0.951 . S
H2436 C2461 0.951 . S
H2437 C2463 0.950 . S
H2438 C2464 0.950 . S
H2439 C2466 0.950 . S
H2440 C2469 0.950 . S
H2441 C2470 0.950 . S
H2442 C2472 0.950 . S
H2443 C2473 0.950 . S
C2444 H2426 0.951 . S
C2444 C2445 1.366 . S
C2444 C2446 1.388 . S
C2445 C2444 1.366 . S
C2445 C2449 1.385 . S
C2446 H2427 0.951 . S
C2446 C2444 1.388 . S
C2446 C2447 1.366 . S
C2447 C2446 1.366 . S
C2447 C2448 1.414 . S
C2447 C2450 1.499 . S
C2448 H2428 0.950 . S
C2448 C2447 1.414 . S
C2448 C2449 1.374 . S
C2449 H2429 0.950 . S
C2449 C2445 1.385 . S
C2449 C2448 1.374 . S
C2450 C2447 1.499 . S
C2450 C2451 1.373 . S
C2450 C2452 1.389 . S
C2451 H2430 0.950 . S
C2451 C2450 1.373 . S
C2451 C2467 1.377 . S
C2452 C2450 1.389 . S
C2452 C2453 1.524 . S
C2452 C2466 1.377 . S
C2453 C2452 1.524 . S
C2453 C2454 1.397 . S
C2453 C2458 1.363 . S
C2454 H2431 0.950 . S
C2454 C2453 1.397 . S
C2454 C2455 1.334 . S
C2455 H2432 0.950 . S
C2455 C2454 1.334 . S
C2455 C2456 1.287 . S
C2456 C2455 1.287 . S
C2456 C2457 1.524 . S
C2456 H2475 0.913 . S
C2457 H2433 0.950 . S
C2457 C2456 1.524 . S
C2457 C2458 1.415 . S
C2458 H2434 0.950 . S
C2458 C2453 1.363 . S
C2458 C2457 1.415 . S
C2459 H2435 0.951 . S
C2459 C2460 1.366 . S
C2459 C2461 1.388 . S
C2460 C2459 1.366 . S
C2460 C2464 1.385 . S
C2461 H2436 0.951 . S
C2461 C2459 1.388 . S
C2461 C2462 1.366 . S
C2462 C2461 1.366 . S
C2462 C2463 1.414 . S
C2462 C2465 1.499 . S
C2463 H2437 0.950 . S
C2463 C2462 1.414 . S
C2463 C2464 1.374 . S
C2464 H2438 0.950 . S
C2464 C2460 1.385 . S
C2464 C2463 1.374 . S
C2465 C2462 1.499 . S
C2465 C2466 1.373 . S
C2465 C2467 1.389 . S
C2466 H2439 0.950 . S
C2466 C2452 1.377 . S
C2466 C2465 1.373 . S
C2467 C2451 1.377 . S
C2467 C2465 1.389 . S
C2467 C2468 1.524 . S
C2468 C2467 1.524 . S
C2468 C2469 1.397 . S
C2468 C2473 1.363 . S
C2469 H2440 0.950 . S
C2469 C2468 1.397 . S
C2469 C2470 1.334 . S
C2470 H2441 0.950 . S
C2470 C2469 1.334 . S
C2470 C2471 1.287 . S
C2471 C2470 1.287 . S
C2471 C2472 1.524 . S
C2471 H2474 0.999 . S
C2472 H2442 0.950 . S
C2472 C2471 1.524 . S
C2472 C2473 1.415 . S
C2473 H2443 0.950 . S
C2473 C2468 1.363 . S
C2473 C2472 1.415 . S
H2474 C2471 0.999 . S
H2475 C2456 0.913 . S
H2476 C2494 0.951 . S
H2477 C2496 0.951 . S
H2478 C2498 0.950 . S
H2479 C2499 0.950 . S
H2480 C2501 0.950 . S
H2481 C2504 0.950 . S
H2482 C2505 0.950 . S
H2483 C2507 0.950 . S
H2484 C2508 0.950 . S
H2485 C2509 0.951 . S
H2486 C2511 0.951 . S
H2487 C2513 0.950 . S
H2488 C2514 0.950 1_545 S
H2489 C2516 0.950 . S
H2490 C2519 0.950 . S
H2491 C2520 0.950 . S
H2492 C2522 0.950 . S
H2493 C2523 0.950 . S
C2494 H2476 0.951 . S
C2494 C2495 1.366 . S
C2494 C2496 1.388 . S
C2495 C2494 1.366 . S
C2495 C2499 1.385 . S
C2496 H2477 0.951 . S
C2496 C2494 1.388 . S
C2496 C2497 1.366 . S
C2497 C2496 1.366 . S
C2497 C2498 1.414 . S
C2497 C2500 1.499 . S
C2498 H2478 0.950 . S
C2498 C2497 1.414 . S
C2498 C2499 1.374 . S
C2499 H2479 0.950 . S
C2499 C2495 1.385 . S
C2499 C2498 1.374 . S
C2500 C2497 1.499 . S
C2500 C2501 1.373 . S
C2500 C2502 1.389 . S
C2501 H2480 0.950 . S
C2501 C2500 1.373 . S
C2501 C2517 1.377 . S
C2502 C2500 1.389 . S
C2502 C2503 1.524 . S
C2502 C2516 1.377 . S
C2503 C2502 1.524 . S
C2503 C2504 1.397 . S
C2503 C2508 1.363 . S
C2504 H2481 0.950 . S
C2504 C2503 1.397 . S
C2504 C2505 1.334 . S
C2505 H2482 0.950 . S
C2505 C2504 1.334 . S
C2505 C2506 1.287 . S
C2506 C2505 1.287 . S
C2506 C2507 1.524 . S
C2506 H2525 0.913 . S
C2507 H2483 0.950 . S
C2507 C2506 1.524 . S
C2507 C2508 1.415 . S
C2508 H2484 0.950 . S
C2508 C2503 1.363 . S
C2508 C2507 1.415 . S
C2509 H2485 0.951 . S
C2509 C2510 1.366 1_565 S
C2509 C2511 1.388 . S
C2510 C2509 1.366 1_545 S
C2510 C2514 1.385 1_544 S
C2511 H2486 0.951 . S
C2511 C2509 1.388 . S
C2511 C2512 1.366 1_554 S
C2512 C2511 1.366 1_556 S
C2512 C2513 1.414 . S
C2512 C2515 1.499 . S
C2513 H2487 0.950 . S
C2513 C2512 1.414 . S
C2513 C2514 1.374 . S
C2514 H2488 0.950 1_565 S
C2514 C2510 1.385 1_566 S
C2514 C2513 1.374 . S
C2515 C2512 1.499 . S
C2515 C2516 1.373 . S
C2515 C2517 1.389 . S
C2516 H2489 0.950 . S
C2516 C2502 1.377 . S
C2516 C2515 1.373 . S
C2517 C2501 1.377 . S
C2517 C2515 1.389 . S
C2517 C2518 1.524 1_556 S
C2518 C2517 1.524 1_554 S
C2518 C2519 1.397 . S
C2518 C2523 1.363 . S
C2519 H2490 0.950 . S
C2519 C2518 1.397 . S
C2519 C2520 1.334 . S
C2520 H2491 0.950 . S
C2520 C2519 1.334 . S
C2520 C2521 1.287 . S
C2521 C2520 1.287 . S
C2521 C2522 1.524 . S
C2521 H2524 0.999 . S
C2522 H2492 0.950 . S
C2522 C2521 1.524 . S
C2522 C2523 1.415 . S
C2523 H2493 0.950 . S
C2523 C2518 1.363 . S
C2523 C2522 1.415 . S
H2524 C2521 0.999 . S
H2525 C2506 0.913 . S
H2526 C2544 0.951 . S
H2527 C2546 0.951 . S
H2528 C2548 0.950 . S
H2529 C2549 0.950 . S
H2530 C2551 0.950 . S
H2531 C2554 0.950 . S
H2532 C2555 0.950 . S
H2533 C2557 0.950 . S
H2534 C2558 0.950 . S
H2535 C2559 0.951 . S
H2536 C2561 0.951 . S
H2537 C2563 0.950 . S
H2538 C2564 0.950 . S
H2539 C2566 0.950 . S
H2540 C2569 0.950 . S
H2541 C2570 0.950 . S
H2542 C2572 0.950 . S
H2543 C2573 0.950 . S
C2544 H2526 0.951 . S
C2544 C2545 1.366 . S
C2544 C2546 1.388 . S
C2545 C2544 1.366 . S
C2545 C2549 1.385 . S
C2546 H2527 0.951 . S
C2546 C2544 1.388 . S
C2546 C2547 1.366 1_455 S
C2547 C2546 1.366 1_655 S
C2547 C2548 1.414 . S
C2547 C2550 1.499 . S
C2548 H2528 0.950 . S
C2548 C2547 1.414 . S
C2548 C2549 1.374 1_655 S
C2549 H2529 0.950 . S
C2549 C2545 1.385 . S
C2549 C2548 1.374 1_455 S
C2550 C2547 1.499 . S
C2550 C2551 1.373 . S
C2550 C2552 1.389 . S
C2551 H2530 0.950 . S
C2551 C2550 1.373 . S
C2551 C2567 1.377 . S
C2552 C2550 1.389 . S
C2552 C2553 1.524 1_655 S
C2552 C2566 1.377 . S
C2553 C2552 1.524 1_455 S
C2553 C2554 1.397 . S
C2553 C2558 1.363 . S
C2554 H2531 0.950 . S
C2554 C2553 1.397 . S
C2554 C2555 1.334 . S
C2555 H2532 0.950 . S
C2555 C2554 1.334 . S
C2555 C2556 1.287 . S
C2556 C2555 1.287 . S
C2556 C2557 1.524 . S
C2556 H2575 0.913 . S
C2557 H2533 0.950 . S
C2557 C2556 1.524 . S
C2557 C2558 1.415 . S
C2558 H2534 0.950 . S
C2558 C2553 1.363 . S
C2558 C2557 1.415 . S
C2559 H2535 0.951 . S
C2559 C2560 1.366 . S
C2559 C2561 1.388 . S
C2560 C2559 1.366 . S
C2560 C2564 1.385 . S
C2561 H2536 0.951 . S
C2561 C2559 1.388 . S
C2561 C2562 1.366 . S
C2562 C2561 1.366 . S
C2562 C2563 1.414 . S
C2562 C2565 1.499 . S
C2563 H2537 0.950 . S
C2563 C2562 1.414 . S
C2563 C2564 1.374 . S
C2564 H2538 0.950 . S
C2564 C2560 1.385 . S
C2564 C2563 1.374 . S
C2565 C2562 1.499 . S
C2565 C2566 1.373 . S
C2565 C2567 1.389 . S
C2566 H2539 0.950 . S
C2566 C2552 1.377 . S
C2566 C2565 1.373 . S
C2567 C2551 1.377 . S
C2567 C2565 1.389 . S
C2567 C2568 1.524 . S
C2568 C2567 1.524 . S
C2568 C2569 1.397 . S
C2568 C2573 1.363 . S
C2569 H2540 0.950 . S
C2569 C2568 1.397 . S
C2569 C2570 1.334 . S
C2570 H2541 0.950 . S
C2570 C2569 1.334 . S
C2570 C2571 1.287 . S
C2571 C2570 1.287 . S
C2571 C2572 1.524 . S
C2571 H2574 0.999 . S
C2572 H2542 0.950 . S
C2572 C2571 1.524 . S
C2572 C2573 1.415 . S
C2573 H2543 0.950 . S
C2573 C2568 1.363 . S
C2573 C2572 1.415 . S
H2574 C2571 0.999 . S
H2575 C2556 0.913 . S
H2576 C2594 0.951 . S
H2577 C2596 0.951 . S
H2578 C2598 0.950 . S
H2579 C2599 0.950 . S
H2580 C2601 0.950 . S
H2581 C2604 0.950 . S
H2582 C2605 0.950 . S
H2583 C2607 0.950 . S
H2584 C2608 0.950 . S
H2585 C2609 0.951 . S
H2586 C2611 0.951 . S
H2587 C2613 0.950 . S
H2588 C2614 0.950 . S
H2589 C2616 0.950 . S
H2590 C2619 0.950 . S
H2591 C2620 0.950 1_565 S
H2592 C2622 0.950 . S
H2593 C2623 0.950 . S
C2594 H2576 0.951 . S
C2594 C2595 1.366 . S
C2594 C2596 1.388 . S
C2595 C2594 1.366 . S
C2595 C2599 1.385 . S
C2596 H2577 0.951 . S
C2596 C2594 1.388 . S
C2596 C2597 1.366 . S
C2597 C2596 1.366 . S
C2597 C2598 1.414 . S
C2597 C2600 1.499 . S
C2598 H2578 0.950 . S
C2598 C2597 1.414 . S
C2598 C2599 1.374 . S
C2599 H2579 0.950 . S
C2599 C2595 1.385 . S
C2599 C2598 1.374 . S
C2600 C2597 1.499 . S
C2600 C2601 1.373 . S
C2600 C2602 1.389 . S
C2601 H2580 0.950 . S
C2601 C2600 1.373 . S
C2601 C2617 1.377 . S
C2602 C2600 1.389 . S
C2602 C2603 1.524 . S
C2602 C2616 1.377 . S
C2603 C2602 1.524 . S
C2603 C2604 1.397 . S
C2603 C2608 1.363 . S
C2604 H2581 0.950 . S
C2604 C2603 1.397 . S
C2604 C2605 1.334 . S
C2605 H2582 0.950 . S
C2605 C2604 1.334 . S
C2605 C2606 1.287 . S
C2606 C2605 1.287 . S
C2606 C2607 1.524 . S
C2606 H2625 0.913 . S
C2607 H2583 0.950 . S
C2607 C2606 1.524 . S
C2607 C2608 1.415 . S
C2608 H2584 0.950 . S
C2608 C2603 1.363 . S
C2608 C2607 1.415 . S
C2609 H2585 0.951 . S
C2609 C2610 1.366 . S
C2609 C2611 1.388 . S
C2610 C2609 1.366 . S
C2610 C2614 1.385 . S
C2611 H2586 0.951 . S
C2611 C2609 1.388 . S
C2611 C2612 1.366 . S
C2612 C2611 1.366 . S
C2612 C2613 1.414 . S
C2612 C2615 1.499 . S
C2613 H2587 0.950 . S
C2613 C2612 1.414 . S
C2613 C2614 1.374 . S
C2614 H2588 0.950 . S
C2614 C2610 1.385 . S
C2614 C2613 1.374 . S
C2615 C2612 1.499 . S
C2615 C2616 1.373 . S
C2615 C2617 1.389 . S
C2616 H2589 0.950 . S
C2616 C2602 1.377 . S
C2616 C2615 1.373 . S
C2617 C2601 1.377 . S
C2617 C2615 1.389 . S
C2617 C2618 1.524 . S
C2618 C2617 1.524 . S
C2618 C2619 1.397 . S
C2618 C2623 1.363 . S
C2619 H2590 0.950 . S
C2619 C2618 1.397 . S
C2619 C2620 1.334 . S
C2620 H2591 0.950 1_545 S
C2620 C2619 1.334 . S
C2620 C2621 1.287 1_545 S
C2621 C2620 1.287 1_565 S
C2621 C2622 1.524 . S
C2621 H2624 0.999 . S
C2622 H2592 0.950 . S
C2622 C2621 1.524 . S
C2622 C2623 1.415 1_565 S
C2623 H2593 0.950 . S
C2623 C2618 1.363 . S
C2623 C2622 1.415 1_545 S
H2624 C2621 0.999 . S
H2625 C2606 0.913 . S
H2626 C2644 0.951 . S
H2627 C2646 0.951 . S
H2628 C2648 0.950 . S
H2629 C2649 0.950 . S
H2630 C2651 0.950 . S
H2631 C2654 0.950 . S
H2632 C2655 0.950 . S
H2633 C2657 0.950 . S
H2634 C2658 0.950 . S
H2635 C2659 0.951 . S
H2636 C2661 0.951 . S
H2637 C2663 0.950 . S
H2638 C2664 0.950 . S
H2639 C2666 0.950 . S
H2640 C2669 0.950 . S
H2641 C2670 0.950 . S
H2642 C2672 0.950 . S
H2643 C2673 0.950 . S
C2644 H2626 0.951 . S
C2644 C2645 1.366 . S
C2644 C2646 1.388 . S
C2645 C2644 1.366 . S
C2645 C2649 1.385 . S
C2646 H2627 0.951 . S
C2646 C2644 1.388 . S
C2646 C2647 1.366 . S
C2647 C2646 1.366 . S
C2647 C2648 1.414 . S
C2647 C2650 1.499 . S
C2648 H2628 0.950 . S
C2648 C2647 1.414 . S
C2648 C2649 1.374 . S
C2649 H2629 0.950 . S
C2649 C2645 1.385 . S
C2649 C2648 1.374 . S
C2650 C2647 1.499 . S
C2650 C2651 1.373 . S
C2650 C2652 1.389 . S
C2651 H2630 0.950 . S
C2651 C2650 1.373 . S
C2651 C2667 1.377 . S
C2652 C2650 1.389 . S
C2652 C2653 1.524 . S
C2652 C2666 1.377 . S
C2653 C2652 1.524 . S
C2653 C2654 1.397 . S
C2653 C2658 1.363 . S
C2654 H2631 0.950 . S
C2654 C2653 1.397 . S
C2654 C2655 1.334 . S
C2655 H2632 0.950 . S
C2655 C2654 1.334 . S
C2655 C2656 1.287 . S
C2656 C2655 1.287 . S
C2656 C2657 1.524 . S
C2656 H2675 0.913 . S
C2657 H2633 0.950 . S
C2657 C2656 1.524 . S
C2657 C2658 1.415 . S
C2658 H2634 0.950 . S
C2658 C2653 1.363 . S
C2658 C2657 1.415 . S
C2659 H2635 0.951 . S
C2659 C2660 1.366 . S
C2659 C2661 1.388 . S
C2660 C2659 1.366 . S
C2660 C2664 1.385 . S
C2661 H2636 0.951 . S
C2661 C2659 1.388 . S
C2661 C2662 1.366 . S
C2662 C2661 1.366 . S
C2662 C2663 1.414 . S
C2662 C2665 1.499 . S
C2663 H2637 0.950 . S
C2663 C2662 1.414 . S
C2663 C2664 1.374 . S
C2664 H2638 0.950 . S
C2664 C2660 1.385 . S
C2664 C2663 1.374 . S
C2665 C2662 1.499 . S
C2665 C2666 1.373 . S
C2665 C2667 1.389 . S
C2666 H2639 0.950 . S
C2666 C2652 1.377 . S
C2666 C2665 1.373 . S
C2667 C2651 1.377 . S
C2667 C2665 1.389 . S
C2667 C2668 1.524 . S
C2668 C2667 1.524 . S
C2668 C2669 1.397 . S
C2668 C2673 1.363 . S
C2669 H2640 0.950 . S
C2669 C2668 1.397 . S
C2669 C2670 1.334 . S
C2670 H2641 0.950 . S
C2670 C2669 1.334 . S
C2670 C2671 1.287 . S
C2671 C2670 1.287 . S
C2671 C2672 1.524 . S
C2671 H2674 0.999 . S
C2672 H2642 0.950 . S
C2672 C2671 1.524 . S
C2672 C2673 1.415 . S
C2673 H2643 0.950 . S
C2673 C2668 1.363 . S
C2673 C2672 1.415 . S
H2674 C2671 0.999 . S
H2675 C2656 0.913 . S
H2676 C2694 0.951 . S
H2677 C2696 0.951 . S
H2678 C2698 0.950 . S
H2679 C2699 0.950 . S
H2680 C2701 0.950 . S
H2681 C2704 0.950 . S
H2682 C2705 0.950 . S
H2683 C2707 0.950 . S
H2684 C2708 0.950 . S
H2685 C2709 0.951 . S
H2686 C2711 0.951 . S
H2687 C2713 0.950 . S
H2688 C2714 0.950 . S
H2689 C2716 0.950 . S
H2690 C2719 0.950 . S
H2691 C2720 0.950 . S
H2692 C2722 0.950 . S
H2693 C2723 0.950 . S
C2694 H2676 0.951 . S
C2694 C2695 1.366 . S
C2694 C2696 1.388 . S
C2695 C2694 1.366 . S
C2695 C2699 1.385 . S
C2696 H2677 0.951 . S
C2696 C2694 1.388 . S
C2696 C2697 1.366 . S
C2697 C2696 1.366 . S
C2697 C2698 1.414 . S
C2697 C2700 1.499 . S
C2698 H2678 0.950 . S
C2698 C2697 1.414 . S
C2698 C2699 1.374 . S
C2699 H2679 0.950 . S
C2699 C2695 1.385 . S
C2699 C2698 1.374 . S
C2700 C2697 1.499 . S
C2700 C2701 1.373 . S
C2700 C2702 1.389 . S
C2701 H2680 0.950 . S
C2701 C2700 1.373 . S
C2701 C2717 1.377 . S
C2702 C2700 1.389 . S
C2702 C2703 1.524 . S
C2702 C2716 1.377 . S
C2703 C2702 1.524 . S
C2703 C2704 1.397 . S
C2703 C2708 1.363 . S
C2704 H2681 0.950 . S
C2704 C2703 1.397 . S
C2704 C2705 1.334 . S
C2705 H2682 0.950 . S
C2705 C2704 1.334 . S
C2705 C2706 1.287 . S
C2706 C2705 1.287 . S
C2706 C2707 1.524 . S
C2706 H2725 0.913 . S
C2707 H2683 0.950 . S
C2707 C2706 1.524 . S
C2707 C2708 1.415 . S
C2708 H2684 0.950 . S
C2708 C2703 1.363 . S
C2708 C2707 1.415 . S
C2709 H2685 0.951 . S
C2709 C2710 1.366 . S
C2709 C2711 1.388 . S
C2710 C2709 1.366 . S
C2710 C2714 1.385 . S
C2711 H2686 0.951 . S
C2711 C2709 1.388 . S
C2711 C2712 1.366 . S
C2712 C2711 1.366 . S
C2712 C2713 1.414 . S
C2712 C2715 1.499 . S
C2713 H2687 0.950 . S
C2713 C2712 1.414 . S
C2713 C2714 1.374 . S
C2714 H2688 0.950 . S
C2714 C2710 1.385 . S
C2714 C2713 1.374 . S
C2715 C2712 1.499 . S
C2715 C2716 1.373 . S
C2715 C2717 1.389 . S
C2716 H2689 0.950 . S
C2716 C2702 1.377 . S
C2716 C2715 1.373 . S
C2717 C2701 1.377 . S
C2717 C2715 1.389 . S
C2717 C2718 1.524 . S
C2718 C2717 1.524 . S
C2718 C2719 1.397 . S
C2718 C2723 1.363 . S
C2719 H2690 0.950 . S
C2719 C2718 1.397 . S
C2719 C2720 1.334 . S
C2720 H2691 0.950 . S
C2720 C2719 1.334 . S
C2720 C2721 1.287 . S
C2721 C2720 1.287 . S
C2721 C2722 1.524 . S
C2721 H2724 0.999 . S
C2722 H2692 0.950 . S
C2722 C2721 1.524 . S
C2722 C2723 1.415 . S
C2723 H2693 0.950 . S
C2723 C2718 1.363 . S
C2723 C2722 1.415 . S
H2724 C2721 0.999 . S
H2725 C2706 0.913 . S
H2726 C2744 0.951 . S
H2727 C2746 0.951 . S
H2728 C2748 0.950 . S
H2729 C2749 0.950 . S
H2730 C2751 0.950 . S
H2731 C2754 0.950 . S
H2732 C2755 0.950 . S
H2733 C2757 0.950 . S
H2734 C2758 0.950 . S
H2735 C2759 0.951 . S
H2736 C2761 0.951 . S
H2737 C2763 0.950 . S
H2738 C2764 0.950 . S
H2739 C2766 0.950 . S
H2740 C2769 0.950 . S
H2741 C2770 0.950 . S
H2742 C2772 0.950 . S
H2743 C2773 0.950 . S
C2744 H2726 0.951 . S
C2744 C2745 1.366 . S
C2744 C2746 1.388 . S
C2745 C2744 1.366 . S
C2745 C2749 1.385 . S
C2746 H2727 0.951 . S
C2746 C2744 1.388 . S
C2746 C2747 1.366 . S
C2747 C2746 1.366 . S
C2747 C2748 1.414 . S
C2747 C2750 1.499 . S
C2748 H2728 0.950 . S
C2748 C2747 1.414 . S
C2748 C2749 1.374 . S
C2749 H2729 0.950 . S
C2749 C2745 1.385 . S
C2749 C2748 1.374 . S
C2750 C2747 1.499 . S
C2750 C2751 1.373 . S
C2750 C2752 1.389 . S
C2751 H2730 0.950 . S
C2751 C2750 1.373 . S
C2751 C2767 1.377 . S
C2752 C2750 1.389 . S
C2752 C2753 1.524 . S
C2752 C2766 1.377 . S
C2753 C2752 1.524 . S
C2753 C2754 1.397 . S
C2753 C2758 1.363 . S
C2754 H2731 0.950 . S
C2754 C2753 1.397 . S
C2754 C2755 1.334 . S
C2755 H2732 0.950 . S
C2755 C2754 1.334 . S
C2755 C2756 1.287 . S
C2756 C2755 1.287 . S
C2756 C2757 1.524 . S
C2756 H2775 0.913 . S
C2757 H2733 0.950 . S
C2757 C2756 1.524 . S
C2757 C2758 1.415 . S
C2758 H2734 0.950 . S
C2758 C2753 1.363 . S
C2758 C2757 1.415 . S
C2759 H2735 0.951 . S
C2759 C2760 1.366 . S
C2759 C2761 1.388 . S
C2760 C2759 1.366 . S
C2760 C2764 1.385 . S
C2761 H2736 0.951 . S
C2761 C2759 1.388 . S
C2761 C2762 1.366 . S
C2762 C2761 1.366 . S
C2762 C2763 1.414 . S
C2762 C2765 1.499 . S
C2763 H2737 0.950 . S
C2763 C2762 1.414 . S
C2763 C2764 1.374 . S
C2764 H2738 0.950 . S
C2764 C2760 1.385 . S
C2764 C2763 1.374 . S
C2765 C2762 1.499 . S
C2765 C2766 1.373 . S
C2765 C2767 1.389 . S
C2766 H2739 0.950 . S
C2766 C2752 1.377 . S
C2766 C2765 1.373 . S
C2767 C2751 1.377 . S
C2767 C2765 1.389 . S
C2767 C2768 1.524 . S
C2768 C2767 1.524 . S
C2768 C2769 1.397 . S
C2768 C2773 1.363 . S
C2769 H2740 0.950 . S
C2769 C2768 1.397 . S
C2769 C2770 1.334 . S
C2770 H2741 0.950 . S
C2770 C2769 1.334 . S
C2770 C2771 1.287 . S
C2771 C2770 1.287 . S
C2771 C2772 1.524 . S
C2771 H2774 0.999 . S
C2772 H2742 0.950 . S
C2772 C2771 1.524 . S
C2772 C2773 1.415 . S
C2773 H2743 0.950 . S
C2773 C2768 1.363 . S
C2773 C2772 1.415 . S
H2774 C2771 0.999 . S
H2775 C2756 0.913 . S
H2776 C2794 0.951 . S
H2777 C2796 0.951 . S
H2778 C2798 0.950 . S
H2779 C2799 0.950 . S
H2780 C2801 0.950 . S
H2781 C2804 0.950 . S
H2782 C2805 0.950 . S
H2783 C2807 0.950 . S
H2784 C2808 0.950 . S
H2785 C2809 0.951 . S
H2786 C2811 0.951 . S
H2787 C2813 0.950 . S
H2788 C2814 0.950 . S
H2789 C2816 0.950 . S
H2790 C2819 0.950 . S
H2791 C2820 0.950 . S
H2792 C2822 0.950 . S
H2793 C2823 0.950 . S
C2794 H2776 0.951 . S
C2794 C2795 1.366 . S
C2794 C2796 1.388 . S
C2795 C2794 1.366 . S
C2795 C2799 1.385 . S
C2796 H2777 0.951 . S
C2796 C2794 1.388 . S
C2796 C2797 1.366 . S
C2797 C2796 1.366 . S
C2797 C2798 1.414 . S
C2797 C2800 1.499 . S
C2798 H2778 0.950 . S
C2798 C2797 1.414 . S
C2798 C2799 1.374 . S
C2799 H2779 0.950 . S
C2799 C2795 1.385 . S
C2799 C2798 1.374 . S
C2800 C2797 1.499 . S
C2800 C2801 1.373 . S
C2800 C2802 1.389 . S
C2801 H2780 0.950 . S
C2801 C2800 1.373 . S
C2801 C2817 1.377 . S
C2802 C2800 1.389 . S
C2802 C2803 1.524 . S
C2802 C2816 1.377 . S
C2803 C2802 1.524 . S
C2803 C2804 1.397 . S
C2803 C2808 1.363 . S
C2804 H2781 0.950 . S
C2804 C2803 1.397 . S
C2804 C2805 1.334 . S
C2805 H2782 0.950 . S
C2805 C2804 1.334 . S
C2805 C2806 1.287 . S
C2806 C2805 1.287 . S
C2806 C2807 1.524 . S
C2806 H2825 0.913 . S
C2807 H2783 0.950 . S
C2807 C2806 1.524 . S
C2807 C2808 1.415 . S
C2808 H2784 0.950 . S
C2808 C2803 1.363 . S
C2808 C2807 1.415 . S
C2809 H2785 0.951 . S
C2809 C2810 1.366 . S
C2809 C2811 1.388 . S
C2810 C2809 1.366 . S
C2810 C2814 1.385 . S
C2811 H2786 0.951 . S
C2811 C2809 1.388 . S
C2811 C2812 1.366 . S
C2812 C2811 1.366 . S
C2812 C2813 1.414 . S
C2812 C2815 1.499 . S
C2813 H2787 0.950 . S
C2813 C2812 1.414 . S
C2813 C2814 1.374 . S
C2814 H2788 0.950 . S
C2814 C2810 1.385 . S
C2814 C2813 1.374 . S
C2815 C2812 1.499 . S
C2815 C2816 1.373 . S
C2815 C2817 1.389 . S
C2816 H2789 0.950 . S
C2816 C2802 1.377 . S
C2816 C2815 1.373 . S
C2817 C2801 1.377 . S
C2817 C2815 1.389 . S
C2817 C2818 1.524 . S
C2818 C2817 1.524 . S
C2818 C2819 1.397 . S
C2818 C2823 1.363 . S
C2819 H2790 0.950 . S
C2819 C2818 1.397 . S
C2819 C2820 1.334 . S
C2820 H2791 0.950 . S
C2820 C2819 1.334 . S
C2820 C2821 1.287 . S
C2821 C2820 1.287 . S
C2821 C2822 1.524 . S
C2821 H2824 0.999 . S
C2822 H2792 0.950 . S
C2822 C2821 1.524 . S
C2822 C2823 1.415 . S
C2823 H2793 0.950 . S
C2823 C2818 1.363 . S
C2823 C2822 1.415 . S
H2824 C2821 0.999 . S
H2825 C2806 0.913 . S
H2826 C2844 0.951 . S
H2827 C2846 0.951 . S
H2828 C2848 0.950 . S
H2829 C2849 0.950 . S
H2830 C2851 0.950 . S
H2831 C2854 0.950 . S
H2832 C2855 0.950 . S
H2833 C2857 0.950 . S
H2834 C2858 0.950 . S
H2835 C2859 0.951 . S
H2836 C2861 0.951 . S
H2837 C2863 0.950 . S
H2838 C2864 0.950 . S
H2839 C2866 0.950 . S
H2840 C2869 0.950 . S
H2841 C2870 0.950 . S
H2842 C2872 0.950 . S
H2843 C2873 0.950 . S
C2844 H2826 0.951 . S
C2844 C2845 1.366 . S
C2844 C2846 1.388 . S
C2845 C2844 1.366 . S
C2845 C2849 1.385 . S
C2846 H2827 0.951 . S
C2846 C2844 1.388 . S
C2846 C2847 1.366 . S
C2847 C2846 1.366 . S
C2847 C2848 1.414 . S
C2847 C2850 1.499 . S
C2848 H2828 0.950 . S
C2848 C2847 1.414 . S
C2848 C2849 1.374 . S
C2849 H2829 0.950 . S
C2849 C2845 1.385 . S
C2849 C2848 1.374 . S
C2850 C2847 1.499 . S
C2850 C2851 1.373 . S
C2850 C2852 1.389 . S
C2851 H2830 0.950 . S
C2851 C2850 1.373 . S
C2851 C2867 1.377 . S
C2852 C2850 1.389 . S
C2852 C2853 1.524 . S
C2852 C2866 1.377 . S
C2853 C2852 1.524 . S
C2853 C2854 1.397 . S
C2853 C2858 1.363 . S
C2854 H2831 0.950 . S
C2854 C2853 1.397 . S
C2854 C2855 1.334 . S
C2855 H2832 0.950 . S
C2855 C2854 1.334 . S
C2855 C2856 1.287 . S
C2856 C2855 1.287 . S
C2856 C2857 1.524 . S
C2856 H2875 0.913 . S
C2857 H2833 0.950 . S
C2857 C2856 1.524 . S
C2857 C2858 1.415 . S
C2858 H2834 0.950 . S
C2858 C2853 1.363 . S
C2858 C2857 1.415 . S
C2859 H2835 0.951 . S
C2859 C2860 1.366 . S
C2859 C2861 1.388 . S
C2860 C2859 1.366 . S
C2860 C2864 1.385 . S
C2861 H2836 0.951 . S
C2861 C2859 1.388 . S
C2861 C2862 1.366 . S
C2862 C2861 1.366 . S
C2862 C2863 1.414 . S
C2862 C2865 1.499 . S
C2863 H2837 0.950 . S
C2863 C2862 1.414 . S
C2863 C2864 1.374 . S
C2864 H2838 0.950 . S
C2864 C2860 1.385 . S
C2864 C2863 1.374 . S
C2865 C2862 1.499 . S
C2865 C2866 1.373 . S
C2865 C2867 1.389 . S
C2866 H2839 0.950 . S
C2866 C2852 1.377 . S
C2866 C2865 1.373 . S
C2867 C2851 1.377 . S
C2867 C2865 1.389 . S
C2867 C2868 1.524 . S
C2868 C2867 1.524 . S
C2868 C2869 1.397 . S
C2868 C2873 1.363 . S
C2869 H2840 0.950 . S
C2869 C2868 1.397 . S
C2869 C2870 1.334 . S
C2870 H2841 0.950 . S
C2870 C2869 1.334 . S
C2870 C2871 1.287 . S
C2871 C2870 1.287 . S
C2871 C2872 1.524 . S
C2871 H2874 0.999 . S
C2872 H2842 0.950 . S
C2872 C2871 1.524 . S
C2872 C2873 1.415 . S
C2873 H2843 0.950 . S
C2873 C2868 1.363 . S
C2873 C2872 1.415 . S
H2874 C2871 0.999 . S
H2875 C2856 0.913 . S
H2876 C2894 0.951 . S
H2877 C2896 0.951 . S
H2878 C2898 0.950 . S
H2879 C2899 0.950 . S
H2880 C2901 0.950 . S
H2881 C2904 0.950 . S
H2882 C2905 0.950 . S
H2883 C2907 0.950 . S
H2884 C2908 0.950 . S
H2885 C2909 0.951 . S
H2886 C2911 0.951 . S
H2887 C2913 0.950 . S
H2888 C2914 0.950 . S
H2889 C2916 0.950 . S
H2890 C2919 0.950 . S
H2891 C2920 0.950 . S
H2892 C2922 0.950 . S
H2893 C2923 0.950 . S
C2894 H2876 0.951 . S
C2894 C2895 1.366 . S
C2894 C2896 1.388 . S
C2895 C2894 1.366 . S
C2895 C2899 1.385 . S
C2896 H2877 0.951 . S
C2896 C2894 1.388 . S
C2896 C2897 1.366 . S
C2897 C2896 1.366 . S
C2897 C2898 1.414 . S
C2897 C2900 1.499 . S
C2898 H2878 0.950 . S
C2898 C2897 1.414 . S
C2898 C2899 1.374 . S
C2899 H2879 0.950 . S
C2899 C2895 1.385 . S
C2899 C2898 1.374 . S
C2900 C2897 1.499 . S
C2900 C2901 1.373 . S
C2900 C2902 1.389 . S
C2901 H2880 0.950 . S
C2901 C2900 1.373 . S
C2901 C2917 1.377 . S
C2902 C2900 1.389 . S
C2902 C2903 1.524 . S
C2902 C2916 1.377 . S
C2903 C2902 1.524 . S
C2903 C2904 1.397 . S
C2903 C2908 1.363 . S
C2904 H2881 0.950 . S
C2904 C2903 1.397 . S
C2904 C2905 1.334 . S
C2905 H2882 0.950 . S
C2905 C2904 1.334 . S
C2905 C2906 1.287 . S
C2906 C2905 1.287 . S
C2906 C2907 1.524 . S
C2906 H2925 0.913 . S
C2907 H2883 0.950 . S
C2907 C2906 1.524 . S
C2907 C2908 1.415 . S
C2908 H2884 0.950 . S
C2908 C2903 1.363 . S
C2908 C2907 1.415 . S
C2909 H2885 0.951 . S
C2909 C2910 1.366 . S
C2909 C2911 1.388 . S
C2910 C2909 1.366 . S
C2910 C2914 1.385 . S
C2911 H2886 0.951 . S
C2911 C2909 1.388 . S
C2911 C2912 1.366 . S
C2912 C2911 1.366 . S
C2912 C2913 1.414 . S
C2912 C2915 1.499 . S
C2913 H2887 0.950 . S
C2913 C2912 1.414 . S
C2913 C2914 1.374 . S
C2914 H2888 0.950 . S
C2914 C2910 1.385 . S
C2914 C2913 1.374 . S
C2915 C2912 1.499 . S
C2915 C2916 1.373 . S
C2915 C2917 1.389 . S
C2916 H2889 0.950 . S
C2916 C2902 1.377 . S
C2916 C2915 1.373 . S
C2917 C2901 1.377 . S
C2917 C2915 1.389 . S
C2917 C2918 1.524 . S
C2918 C2917 1.524 . S
C2918 C2919 1.397 . S
C2918 C2923 1.363 . S
C2919 H2890 0.950 . S
C2919 C2918 1.397 . S
C2919 C2920 1.334 . S
C2920 H2891 0.950 . S
C2920 C2919 1.334 . S
C2920 C2921 1.287 . S
C2921 C2920 1.287 . S
C2921 C2922 1.524 . S
C2921 H2924 0.999 . S
C2922 H2892 0.950 . S
C2922 C2921 1.524 . S
C2922 C2923 1.415 . S
C2923 H2893 0.950 . S
C2923 C2918 1.363 . S
C2923 C2922 1.415 . S
H2924 C2921 0.999 . S
H2925 C2906 0.913 . S
H2926 C2944 0.951 . S
H2927 C2946 0.951 . S
H2928 C2948 0.950 . S
H2929 C2949 0.950 . S
H2930 C2951 0.950 . S
H2931 C2954 0.950 . S
H2932 C2955 0.950 . S
H2933 C2957 0.950 . S
H2934 C2958 0.950 . S
H2935 C2959 0.951 . S
H2936 C2961 0.951 . S
H2937 C2963 0.950 . S
H2938 C2964 0.950 . S
H2939 C2966 0.950 . S
H2940 C2969 0.950 . S
H2941 C2970 0.950 . S
H2942 C2972 0.950 . S
H2943 C2973 0.950 . S
C2944 H2926 0.951 . S
C2944 C2945 1.366 . S
C2944 C2946 1.388 . S
C2945 C2944 1.366 . S
C2945 C2949 1.385 . S
C2946 H2927 0.951 . S
C2946 C2944 1.388 . S
C2946 C2947 1.366 . S
C2947 C2946 1.366 . S
C2947 C2948 1.414 . S
C2947 C2950 1.499 . S
C2948 H2928 0.950 . S
C2948 C2947 1.414 . S
C2948 C2949 1.374 . S
C2949 H2929 0.950 . S
C2949 C2945 1.385 . S
C2949 C2948 1.374 . S
C2950 C2947 1.499 . S
C2950 C2951 1.373 . S
C2950 C2952 1.389 . S
C2951 H2930 0.950 . S
C2951 C2950 1.373 . S
C2951 C2967 1.377 . S
C2952 C2950 1.389 . S
C2952 C2953 1.524 . S
C2952 C2966 1.377 . S
C2953 C2952 1.524 . S
C2953 C2954 1.397 . S
C2953 C2958 1.363 . S
C2954 H2931 0.950 . S
C2954 C2953 1.397 . S
C2954 C2955 1.334 . S
C2955 H2932 0.950 . S
C2955 C2954 1.334 . S
C2955 C2956 1.287 . S
C2956 C2955 1.287 . S
C2956 C2957 1.524 . S
C2956 H2975 0.913 . S
C2957 H2933 0.950 . S
C2957 C2956 1.524 . S
C2957 C2958 1.415 . S
C2958 H2934 0.950 . S
C2958 C2953 1.363 . S
C2958 C2957 1.415 . S
C2959 H2935 0.951 . S
C2959 C2960 1.366 . S
C2959 C2961 1.388 . S
C2960 C2959 1.366 . S
C2960 C2964 1.385 . S
C2961 H2936 0.951 . S
C2961 C2959 1.388 . S
C2961 C2962 1.366 . S
C2962 C2961 1.366 . S
C2962 C2963 1.414 . S
C2962 C2965 1.499 . S
C2963 H2937 0.950 . S
C2963 C2962 1.414 . S
C2963 C2964 1.374 . S
C2964 H2938 0.950 . S
C2964 C2960 1.385 . S
C2964 C2963 1.374 . S
C2965 C2962 1.499 . S
C2965 C2966 1.373 . S
C2965 C2967 1.389 . S
C2966 H2939 0.950 . S
C2966 C2952 1.377 . S
C2966 C2965 1.373 . S
C2967 C2951 1.377 . S
C2967 C2965 1.389 . S
C2967 C2968 1.524 . S
C2968 C2967 1.524 . S
C2968 C2969 1.397 . S
C2968 C2973 1.363 . S
C2969 H2940 0.950 . S
C2969 C2968 1.397 . S
C2969 C2970 1.334 . S
C2970 H2941 0.950 . S
C2970 C2969 1.334 . S
C2970 C2971 1.287 . S
C2971 C2970 1.287 . S
C2971 C2972 1.524 . S
C2971 H2974 0.999 . S
C2972 H2942 0.950 . S
C2972 C2971 1.524 . S
C2972 C2973 1.415 . S
C2973 H2943 0.950 . S
C2973 C2968 1.363 . S
C2973 C2972 1.415 . S
H2974 C2971 0.999 . S
H2975 C2956 0.913 . S
H2976 C2994 0.951 . S
H2977 C2996 0.951 . S
H2978 C2998 0.967 . S
H2979 C2999 0.950 . S
H2980 C3001 0.950 . S
H2981 C3004 0.950 . S
H2982 C3005 0.950 . S
H2983 C3007 0.950 . S
H2984 C3008 0.950 . S
H2985 C3009 0.951 . S
H2986 C3011 0.951 . S
H2987 C3013 0.950 . S
H2988 C3014 0.950 . S
H2989 C3016 0.950 . S
H2990 C3019 0.950 . S
H2991 C3020 0.950 . S
H2992 C3022 0.950 . S
H2993 C3023 0.950 . S
C2994 H2976 0.951 . S
C2994 C2995 1.350 1_556 S
C2994 C2996 1.388 . S
C2995 C2994 1.350 1_554 S
C2995 C2999 1.394 . S
C2996 H2977 0.951 . S
C2996 C2994 1.388 . S
C2996 C2997 1.366 . S
C2997 C2996 1.366 . S
C2997 C2998 1.388 1_556 S
C2997 C3000 1.499 . S
C2998 H2978 0.967 . S
C2998 C2997 1.388 1_554 S
C2998 C2999 1.386 . S
C2999 H2979 0.950 . S
C2999 C2995 1.394 . S
C2999 C2998 1.386 . S
C3000 C2997 1.499 . S
C3000 C3001 1.373 1_556 S
C3000 C3002 1.389 . S
C3001 H2980 0.950 . S
C3001 C3000 1.373 1_554 S
C3001 C3017 1.377 . S
C3002 C3000 1.389 . S
C3002 C3003 1.524 . S
C3002 C3016 1.377 . S
C3003 C3002 1.524 . S
C3003 C3004 1.397 . S
C3003 C3008 1.363 . S
C3004 H2981 0.950 . S
C3004 C3003 1.397 . S
C3004 C3005 1.334 . S
C3005 H2982 0.950 . S
C3005 C3004 1.334 . S
C3005 C3006 1.287 . S
C3006 C3005 1.287 . S
C3006 C3007 1.524 . S
C3006 H3025 0.913 . S
C3007 H2983 0.950 . S
C3007 C3006 1.524 . S
C3007 C3008 1.415 . S
C3008 H2984 0.950 . S
C3008 C3003 1.363 . S
C3008 C3007 1.415 . S
C3009 H2985 0.951 . S
C3009 C3010 1.366 . S
C3009 C3011 1.388 . S
C3010 C3009 1.366 . S
C3010 C3014 1.385 . S
C3011 H2986 0.951 . S
C3011 C3009 1.388 . S
C3011 C3012 1.366 . S
C3012 C3011 1.366 . S
C3012 C3013 1.414 . S
C3012 C3015 1.499 . S
C3013 H2987 0.950 . S
C3013 C3012 1.414 . S
C3013 C3014 1.374 . S
C3014 H2988 0.950 . S
C3014 C3010 1.385 . S
C3014 C3013 1.374 . S
C3015 C3012 1.499 . S
C3015 C3016 1.373 . S
C3015 C3017 1.389 1_556 S
C3016 H2989 0.950 . S
C3016 C3002 1.377 . S
C3016 C3015 1.373 . S
C3017 C3001 1.377 . S
C3017 C3015 1.389 1_554 S
C3017 C3018 1.524 . S
C3018 C3017 1.524 . S
C3018 C3019 1.397 . S
C3018 C3023 1.363 . S
C3019 H2990 0.950 . S
C3019 C3018 1.397 . S
C3019 C3020 1.334 . S
C3020 H2991 0.950 . S
C3020 C3019 1.334 . S
C3020 C3021 1.287 . S
C3021 C3020 1.287 . S
C3021 C3022 1.524 . S
C3021 H3024 0.999 . S
C3022 H2992 0.950 . S
C3022 C3021 1.524 . S
C3022 C3023 1.415 . S
C3023 H2993 0.950 . S
C3023 C3018 1.363 . S
C3023 C3022 1.415 . S
H3024 C3021 0.999 . S
H3025 C3006 0.913 . S
H3026 C3044 0.951 . S
H3027 C3046 0.951 . S
H3028 C3048 0.950 . S
H3029 C3049 0.950 . S
H3030 C3051 0.950 . S
H3031 C3054 0.950 1_554 S
H3032 C3055 0.950 . S
H3033 C3057 0.950 . S
H3034 C3058 0.950 . S
H3035 C3059 0.951 . S
H3036 C3061 0.951 . S
H3037 C3063 0.950 . S
H3038 C3064 0.950 . S
H3039 C3066 0.950 . S
H3040 C3069 0.950 . S
H3041 C3070 0.950 . S
H3042 C3072 0.950 . S
H3043 C3073 0.950 . S
C3044 H3026 0.951 . S
C3044 C3045 1.366 . S
C3044 C3046 1.388 . S
C3045 C3044 1.366 . S
C3045 C3049 1.385 . S
C3046 H3027 0.951 . S
C3046 C3044 1.388 . S
C3046 C3047 1.366 . S
C3047 C3046 1.366 . S
C3047 C3048 1.414 . S
C3047 C3050 1.499 . S
C3048 H3028 0.950 . S
C3048 C3047 1.414 . S
C3048 C3049 1.374 . S
C3049 H3029 0.950 . S
C3049 C3045 1.385 . S
C3049 C3048 1.374 . S
C3050 C3047 1.499 . S
C3050 C3051 1.373 . S
C3050 C3052 1.389 . S
C3051 H3030 0.950 . S
C3051 C3050 1.373 . S
C3051 C3067 1.377 . S
C3052 C3050 1.389 . S
C3052 C3053 1.524 1_554 S
C3052 C3066 1.377 . S
C3053 C3052 1.524 1_556 S
C3053 C3054 1.397 . S
C3053 C3058 1.363 . S
C3054 H3031 0.950 1_556 S
C3054 C3053 1.397 . S
C3054 C3055 1.334 . S
C3055 H3032 0.950 . S
C3055 C3054 1.334 . S
C3055 C3056 1.287 . S
C3056 C3055 1.287 . S
C3056 C3057 1.524 . S
C3056 H3075 0.913 . S
C3057 H3033 0.950 . S
C3057 C3056 1.524 . S
C3057 C3058 1.415 . S
C3058 H3034 0.950 . S
C3058 C3053 1.363 . S
C3058 C3057 1.415 . S
C3059 H3035 0.951 . S
C3059 C3060 1.366 . S
C3059 C3061 1.388 . S
C3060 C3059 1.366 . S
C3060 C3064 1.385 . S
C3061 H3036 0.951 . S
C3061 C3059 1.388 . S
C3061 C3062 1.366 . S
C3062 C3061 1.366 . S
C3062 C3063 1.414 . S
C3062 C3065 1.499 . S
C3063 H3037 0.950 . S
C3063 C3062 1.414 . S
C3063 C3064 1.374 . S
C3064 H3038 0.950 . S
C3064 C3060 1.385 . S
C3064 C3063 1.374 . S
C3065 C3062 1.499 . S
C3065 C3066 1.373 . S
C3065 C3067 1.389 . S
C3066 H3039 0.950 . S
C3066 C3052 1.377 . S
C3066 C3065 1.373 . S
C3067 C3051 1.377 . S
C3067 C3065 1.389 . S
C3067 C3068 1.524 . S
C3068 C3067 1.524 . S
C3068 C3069 1.397 . S
C3068 C3073 1.363 . S
C3069 H3040 0.950 . S
C3069 C3068 1.397 . S
C3069 C3070 1.334 . S
C3070 H3041 0.950 . S
C3070 C3069 1.334 . S
C3070 C3071 1.287 . S
C3071 C3070 1.287 . S
C3071 C3072 1.524 . S
C3071 H3074 0.999 . S
C3072 H3042 0.950 . S
C3072 C3071 1.524 . S
C3072 C3073 1.415 . S
C3073 H3043 0.950 . S
C3073 C3068 1.363 . S
C3073 C3072 1.415 . S
H3074 C3071 0.999 . S
H3075 C3056 0.913 . S
H3076 C3094 0.951 . S
H3077 C3096 0.951 . S
H3078 C3098 0.950 . S
H3079 C3099 0.950 . S
H3080 C3101 0.950 . S
H3081 C3104 0.950 . S
H3082 C3105 0.950 . S
H3083 C3107 0.950 . S
H3084 C3108 0.950 . S
H3085 C3109 0.951 . S
H3086 C3111 0.951 . S
H3087 C3113 0.950 . S
H3088 C3114 0.950 . S
H3089 C3116 0.950 . S
H3090 C3119 0.950 . S
H3091 C3120 0.950 . S
H3092 C3122 0.950 . S
H3093 C3123 0.950 . S
C3094 H3076 0.951 . S
C3094 C3095 1.366 . S
C3094 C3096 1.388 . S
C3095 C3094 1.366 . S
C3095 C3099 1.385 . S
C3096 H3077 0.951 . S
C3096 C3094 1.388 . S
C3096 C3097 1.366 . S
C3097 C3096 1.366 . S
C3097 C3098 1.414 . S
C3097 C3100 1.499 . S
C3098 H3078 0.950 . S
C3098 C3097 1.414 . S
C3098 C3099 1.374 . S
C3099 H3079 0.950 . S
C3099 C3095 1.385 . S
C3099 C3098 1.374 . S
C3100 C3097 1.499 . S
C3100 C3101 1.373 . S
C3100 C3102 1.389 . S
C3101 H3080 0.950 . S
C3101 C3100 1.373 . S
C3101 C3117 1.377 . S
C3102 C3100 1.389 . S
C3102 C3103 1.524 . S
C3102 C3116 1.377 . S
C3103 C3102 1.524 . S
C3103 C3104 1.397 . S
C3103 C3108 1.363 . S
C3104 H3081 0.950 . S
C3104 C3103 1.397 . S
C3104 C3105 1.334 . S
C3105 H3082 0.950 . S
C3105 C3104 1.334 . S
C3105 C3106 1.287 . S
C3106 C3105 1.287 . S
C3106 C3107 1.524 . S
C3106 H3125 0.913 . S
C3107 H3083 0.950 . S
C3107 C3106 1.524 . S
C3107 C3108 1.415 . S
C3108 H3084 0.950 . S
C3108 C3103 1.363 . S
C3108 C3107 1.415 . S
C3109 H3085 0.951 . S
C3109 C3110 1.366 . S
C3109 C3111 1.388 . S
C3110 C3109 1.366 . S
C3110 C3114 1.385 . S
C3111 H3086 0.951 . S
C3111 C3109 1.388 . S
C3111 C3112 1.366 . S
C3112 C3111 1.366 . S
C3112 C3113 1.414 . S
C3112 C3115 1.499 . S
C3113 H3087 0.950 . S
C3113 C3112 1.414 . S
C3113 C3114 1.374 . S
C3114 H3088 0.950 . S
C3114 C3110 1.385 . S
C3114 C3113 1.374 . S
C3115 C3112 1.499 . S
C3115 C3116 1.373 . S
C3115 C3117 1.389 . S
C3116 H3089 0.950 . S
C3116 C3102 1.377 . S
C3116 C3115 1.373 . S
C3117 C3101 1.377 . S
C3117 C3115 1.389 . S
C3117 C3118 1.524 . S
C3118 C3117 1.524 . S
C3118 C3119 1.397 . S
C3118 C3123 1.363 . S
C3119 H3090 0.950 . S
C3119 C3118 1.397 . S
C3119 C3120 1.334 . S
C3120 H3091 0.950 . S
C3120 C3119 1.334 . S
C3120 C3121 1.287 . S
C3121 C3120 1.287 . S
C3121 C3122 1.524 . S
C3121 H3124 0.999 . S
C3122 H3092 0.950 . S
C3122 C3121 1.524 . S
C3122 C3123 1.415 . S
C3123 H3093 0.950 . S
C3123 C3118 1.363 . S
C3123 C3122 1.415 . S
H3124 C3121 0.999 . S
H3125 C3106 0.913 . S
H3126 C3144 0.951 . S
H3127 C3146 0.951 . S
H3128 C3148 0.950 . S
H3129 C3149 0.950 . S
H3130 C3151 0.950 . S
H3131 C3154 0.950 . S
H3132 C3155 0.950 . S
H3133 C3157 0.950 . S
H3134 C3158 0.950 . S
H3135 C3159 0.951 . S
H3136 C3161 0.951 . S
H3137 C3163 0.950 . S
H3138 C3164 0.950 . S
H3139 C3166 0.950 . S
H3140 C3169 0.950 . S
H3141 C3170 0.950 . S
H3142 C3172 0.950 . S
H3143 C3173 0.950 . S
C3144 H3126 0.951 . S
C3144 C3145 1.366 . S
C3144 C3146 1.388 . S
C3145 C3144 1.366 . S
C3145 C3149 1.385 . S
C3146 H3127 0.951 . S
C3146 C3144 1.388 . S
C3146 C3147 1.366 . S
C3147 C3146 1.366 . S
C3147 C3148 1.414 . S
C3147 C3150 1.499 . S
C3148 H3128 0.950 . S
C3148 C3147 1.414 . S
C3148 C3149 1.374 . S
C3149 H3129 0.950 . S
C3149 C3145 1.385 . S
C3149 C3148 1.374 . S
C3150 C3147 1.499 . S
C3150 C3151 1.373 . S
C3150 C3152 1.389 . S
C3151 H3130 0.950 . S
C3151 C3150 1.373 . S
C3151 C3167 1.377 . S
C3152 C3150 1.389 . S
C3152 C3153 1.524 . S
C3152 C3166 1.377 . S
C3153 C3152 1.524 . S
C3153 C3154 1.397 . S
C3153 C3158 1.363 . S
C3154 H3131 0.950 . S
C3154 C3153 1.397 . S
C3154 C3155 1.334 . S
C3155 H3132 0.950 . S
C3155 C3154 1.334 . S
C3155 C3156 1.287 . S
C3156 C3155 1.287 . S
C3156 C3157 1.524 . S
C3156 H3175 0.913 . S
C3157 H3133 0.950 . S
C3157 C3156 1.524 . S
C3157 C3158 1.415 . S
C3158 H3134 0.950 . S
C3158 C3153 1.363 . S
C3158 C3157 1.415 . S
C3159 H3135 0.951 . S
C3159 C3160 1.366 . S
C3159 C3161 1.388 . S
C3160 C3159 1.366 . S
C3160 C3164 1.385 . S
C3161 H3136 0.951 . S
C3161 C3159 1.388 . S
C3161 C3162 1.366 . S
C3162 C3161 1.366 . S
C3162 C3163 1.414 . S
C3162 C3165 1.499 . S
C3163 H3137 0.950 . S
C3163 C3162 1.414 . S
C3163 C3164 1.374 . S
C3164 H3138 0.950 . S
C3164 C3160 1.385 . S
C3164 C3163 1.374 . S
C3165 C3162 1.499 . S
C3165 C3166 1.373 . S
C3165 C3167 1.389 . S
C3166 H3139 0.950 . S
C3166 C3152 1.377 . S
C3166 C3165 1.373 . S
C3167 C3151 1.377 . S
C3167 C3165 1.389 . S
C3167 C3168 1.524 . S
C3168 C3167 1.524 . S
C3168 C3169 1.397 . S
C3168 C3173 1.363 . S
C3169 H3140 0.950 . S
C3169 C3168 1.397 . S
C3169 C3170 1.334 . S
C3170 H3141 0.950 . S
C3170 C3169 1.334 . S
C3170 C3171 1.287 . S
C3171 C3170 1.287 . S
C3171 C3172 1.524 . S
C3171 H3174 0.999 . S
C3172 H3142 0.950 . S
C3172 C3171 1.524 . S
C3172 C3173 1.415 . S
C3173 H3143 0.950 . S
C3173 C3168 1.363 . S
C3173 C3172 1.415 . S
H3174 C3171 0.999 . S
H3175 C3156 0.913 . S
H3176 C3194 0.951 . S
H3177 C3196 0.951 . S
H3178 C3198 0.950 . S
H3179 C3199 0.950 . S
H3180 C3201 0.950 . S
H3181 C3204 0.950 . S
H3182 C3205 0.950 . S
H3183 C3207 0.950 . S
H3184 C3208 0.950 . S
H3185 C3209 0.951 . S
H3186 C3211 0.951 . S
H3187 C3213 0.950 . S
H3188 C3214 0.950 . S
H3189 C3216 0.950 . S
H3190 C3219 0.950 . S
H3191 C3220 0.950 . S
H3192 C3222 0.950 . S
H3193 C3223 0.950 . S
C3194 H3176 0.951 . S
C3194 C3195 1.366 . S
C3194 C3196 1.388 . S
C3195 C3194 1.366 . S
C3195 C3199 1.385 . S
C3196 H3177 0.951 . S
C3196 C3194 1.388 . S
C3196 C3197 1.366 . S
C3197 C3196 1.366 . S
C3197 C3198 1.414 . S
C3197 C3200 1.499 . S
C3198 H3178 0.950 . S
C3198 C3197 1.414 . S
C3198 C3199 1.374 . S
C3199 H3179 0.950 . S
C3199 C3195 1.385 . S
C3199 C3198 1.374 . S
C3200 C3197 1.499 . S
C3200 C3201 1.373 . S
C3200 C3202 1.389 . S
C3201 H3180 0.950 . S
C3201 C3200 1.373 . S
C3201 C3217 1.377 . S
C3202 C3200 1.389 . S
C3202 C3203 1.524 . S
C3202 C3216 1.377 . S
C3203 C3202 1.524 . S
C3203 C3204 1.397 . S
C3203 C3208 1.363 . S
C3204 H3181 0.950 . S
C3204 C3203 1.397 . S
C3204 C3205 1.334 . S
C3205 H3182 0.950 . S
C3205 C3204 1.334 . S
C3205 C3206 1.287 . S
C3206 C3205 1.287 . S
C3206 C3207 1.524 . S
C3206 H3225 0.913 . S
C3207 H3183 0.950 . S
C3207 C3206 1.524 . S
C3207 C3208 1.415 . S
C3208 H3184 0.950 . S
C3208 C3203 1.363 . S
C3208 C3207 1.415 . S
C3209 H3185 0.951 . S
C3209 C3210 1.366 . S
C3209 C3211 1.388 . S
C3210 C3209 1.366 . S
C3210 C3214 1.385 . S
C3211 H3186 0.951 . S
C3211 C3209 1.388 . S
C3211 C3212 1.366 . S
C3212 C3211 1.366 . S
C3212 C3213 1.414 . S
C3212 C3215 1.499 . S
C3213 H3187 0.950 . S
C3213 C3212 1.414 . S
C3213 C3214 1.374 . S
C3214 H3188 0.950 . S
C3214 C3210 1.385 . S
C3214 C3213 1.374 . S
C3215 C3212 1.499 . S
C3215 C3216 1.373 . S
C3215 C3217 1.389 . S
C3216 H3189 0.950 . S
C3216 C3202 1.377 . S
C3216 C3215 1.373 . S
C3217 C3201 1.377 . S
C3217 C3215 1.389 . S
C3217 C3218 1.524 . S
C3218 C3217 1.524 . S
C3218 C3219 1.397 . S
C3218 C3223 1.363 . S
C3219 H3190 0.950 . S
C3219 C3218 1.397 . S
C3219 C3220 1.334 . S
C3220 H3191 0.950 . S
C3220 C3219 1.334 . S
C3220 C3221 1.287 . S
C3221 C3220 1.287 . S
C3221 C3222 1.524 . S
C3221 H3224 0.999 . S
C3222 H3192 0.950 . S
C3222 C3221 1.524 . S
C3222 C3223 1.415 . S
C3223 H3193 0.950 . S
C3223 C3218 1.363 . S
C3223 C3222 1.415 . S
H3224 C3221 0.999 . S
H3225 C3206 0.913 . S
H3226 C3244 0.951 . S
H3227 C3246 0.951 . S
H3228 C3248 0.950 . S
H3229 C3249 0.950 . S
H3230 C3251 0.950 . S
H3231 C3254 0.950 . S
H3232 C3255 0.950 . S
H3233 C3257 0.950 . S
H3234 C3258 0.950 . S
H3235 C3259 0.951 . S
H3236 C3261 0.951 . S
H3237 C3263 0.950 . S
H3238 C3264 0.950 . S
H3239 C3266 0.950 1_545 S
H3240 C3269 0.950 . S
H3241 C3270 0.950 . S
H3242 C3272 0.950 . S
H3243 C3273 0.950 . S
C3244 H3226 0.951 . S
C3244 C3245 1.366 . S
C3244 C3246 1.388 . S
C3245 C3244 1.366 . S
C3245 C3249 1.385 . S
C3246 H3227 0.951 . S
C3246 C3244 1.388 . S
C3246 C3247 1.366 . S
C3247 C3246 1.366 . S
C3247 C3248 1.414 . S
C3247 C3250 1.499 . S
C3248 H3228 0.950 . S
C3248 C3247 1.414 . S
C3248 C3249 1.374 . S
C3249 H3229 0.950 . S
C3249 C3245 1.385 . S
C3249 C3248 1.374 . S
C3250 C3247 1.499 . S
C3250 C3251 1.373 . S
C3250 C3252 1.389 . S
C3251 H3230 0.950 . S
C3251 C3250 1.373 . S
C3251 C3267 1.377 . S
C3252 C3250 1.389 . S
C3252 C3253 1.524 . S
C3252 C3266 1.377 . S
C3253 C3252 1.524 . S
C3253 C3254 1.397 . S
C3253 C3258 1.363 1_565 S
C3254 H3231 0.950 . S
C3254 C3253 1.397 . S
C3254 C3255 1.334 . S
C3255 H3232 0.950 . S
C3255 C3254 1.334 . S
C3255 C3256 1.287 1_565 S
C3256 C3255 1.287 1_545 S
C3256 C3257 1.524 . S
C3256 H3275 0.913 . S
C3257 H3233 0.950 . S
C3257 C3256 1.524 . S
C3257 C3258 1.415 . S
C3258 H3234 0.950 . S
C3258 C3253 1.363 1_545 S
C3258 C3257 1.415 . S
C3259 H3235 0.951 . S
C3259 C3260 1.366 1_565 S
C3259 C3261 1.388 . S
C3260 C3259 1.366 1_545 S
C3260 C3264 1.385 . S
C3261 H3236 0.951 . S
C3261 C3259 1.388 . S
C3261 C3262 1.366 . S
C3262 C3261 1.366 . S
C3262 C3263 1.414 1_565 S
C3262 C3265 1.499 . S
C3263 H3237 0.950 . S
C3263 C3262 1.414 1_545 S
C3263 C3264 1.374 . S
C3264 H3238 0.950 . S
C3264 C3260 1.385 . S
C3264 C3263 1.374 . S
C3265 C3262 1.499 . S
C3265 C3266 1.373 . S
C3265 C3267 1.389 . S
C3266 H3239 0.950 1_565 S
C3266 C3252 1.377 . S
C3266 C3265 1.373 . S
C3267 C3251 1.377 . S
C3267 C3265 1.389 . S
C3267 C3268 1.524 . S
C3268 C3267 1.524 . S
C3268 C3269 1.397 . S
C3268 C3273 1.363 . S
C3269 H3240 0.950 . S
C3269 C3268 1.397 . S
C3269 C3270 1.334 . S
C3270 H3241 0.950 . S
C3270 C3269 1.334 . S
C3270 C3271 1.287 . S
C3271 C3270 1.287 . S
C3271 C3272 1.524 . S
C3271 H3274 0.999 . S
C3272 H3242 0.950 . S
C3272 C3271 1.524 . S
C3272 C3273 1.415 . S
C3273 H3243 0.950 . S
C3273 C3268 1.363 . S
C3273 C3272 1.415 . S
H3274 C3271 0.999 . S
H3275 C3256 0.913 . S
H3276 C3294 0.951 . S
H3277 C3296 0.951 . S
H3278 C3298 0.950 . S
H3279 C3299 0.950 . S
H3280 C3301 0.950 . S
H3281 C3304 0.950 . S
H3282 C3305 0.950 . S
H3283 C3307 0.950 . S
H3284 C3308 0.950 . S
H3285 C3309 0.951 . S
H3286 C3311 0.951 . S
H3287 C3313 0.950 . S
H3288 C3314 0.950 . S
H3289 C3316 0.950 . S
H3290 C3319 0.950 . S
H3291 C3320 0.950 . S
H3292 C3322 0.950 . S
H3293 C3323 0.950 . S
C3294 H3276 0.951 . S
C3294 C3295 1.366 . S
C3294 C3296 1.388 . S
C3295 C3294 1.366 . S
C3295 C3299 1.385 . S
C3296 H3277 0.951 . S
C3296 C3294 1.388 . S
C3296 C3297 1.366 . S
C3297 C3296 1.366 . S
C3297 C3298 1.414 . S
C3297 C3300 1.499 . S
C3298 H3278 0.950 . S
C3298 C3297 1.414 . S
C3298 C3299 1.374 . S
C3299 H3279 0.950 . S
C3299 C3295 1.385 . S
C3299 C3298 1.374 . S
C3300 C3297 1.499 . S
C3300 C3301 1.373 . S
C3300 C3302 1.389 . S
C3301 H3280 0.950 . S
C3301 C3300 1.373 . S
C3301 C3317 1.377 . S
C3302 C3300 1.389 . S
C3302 C3303 1.524 . S
C3302 C3316 1.377 . S
C3303 C3302 1.524 . S
C3303 C3304 1.397 . S
C3303 C3308 1.363 . S
C3304 H3281 0.950 . S
C3304 C3303 1.397 . S
C3304 C3305 1.334 . S
C3305 H3282 0.950 . S
C3305 C3304 1.334 . S
C3305 C3306 1.287 . S
C3306 C3305 1.287 . S
C3306 C3307 1.524 . S
C3306 H3325 0.913 . S
C3307 H3283 0.950 . S
C3307 C3306 1.524 . S
C3307 C3308 1.415 . S
C3308 H3284 0.950 . S
C3308 C3303 1.363 . S
C3308 C3307 1.415 . S
C3309 H3285 0.951 . S
C3309 C3310 1.366 . S
C3309 C3311 1.388 . S
C3310 C3309 1.366 . S
C3310 C3314 1.385 . S
C3311 H3286 0.951 . S
C3311 C3309 1.388 . S
C3311 C3312 1.366 . S
C3312 C3311 1.366 . S
C3312 C3313 1.414 . S
C3312 C3315 1.499 . S
C3313 H3287 0.950 . S
C3313 C3312 1.414 . S
C3313 C3314 1.374 . S
C3314 H3288 0.950 . S
C3314 C3310 1.385 . S
C3314 C3313 1.374 . S
C3315 C3312 1.499 . S
C3315 C3316 1.373 . S
C3315 C3317 1.389 . S
C3316 H3289 0.950 . S
C3316 C3302 1.377 . S
C3316 C3315 1.373 . S
C3317 C3301 1.377 . S
C3317 C3315 1.389 . S
C3317 C3318 1.524 . S
C3318 C3317 1.524 . S
C3318 C3319 1.397 . S
C3318 C3323 1.363 . S
C3319 H3290 0.950 . S
C3319 C3318 1.397 . S
C3319 C3320 1.334 . S
C3320 H3291 0.950 . S
C3320 C3319 1.334 . S
C3320 C3321 1.287 . S
C3321 C3320 1.287 . S
C3321 C3322 1.524 . S
C3321 H3324 0.999 . S
C3322 H3292 0.950 . S
C3322 C3321 1.524 . S
C3322 C3323 1.415 . S
C3323 H3293 0.950 . S
C3323 C3318 1.363 . S
C3323 C3322 1.415 . S
H3324 C3321 0.999 . S
H3325 C3306 0.913 . S
H3326 C3344 0.951 . S
H3327 C3346 0.951 . S
H3328 C3348 0.950 . S
H3329 C3349 0.950 . S
H3330 C3351 0.950 . S
H3331 C3354 0.950 . S
H3332 C3355 0.950 . S
H3333 C3357 0.950 . S
H3334 C3358 0.950 . S
H3335 C3359 0.951 . S
H3336 C3361 0.951 . S
H3337 C3363 0.950 . S
H3338 C3364 0.950 . S
H3339 C3366 0.950 . S
H3340 C3369 0.950 . S
H3341 C3370 0.950 . S
H3342 C3372 0.950 . S
H3343 C3373 0.950 . S
C3344 H3326 0.951 . S
C3344 C3345 1.366 . S
C3344 C3346 1.388 . S
C3345 C3344 1.366 . S
C3345 C3349 1.385 . S
C3346 H3327 0.951 . S
C3346 C3344 1.388 . S
C3346 C3347 1.366 . S
C3347 C3346 1.366 . S
C3347 C3348 1.414 . S
C3347 C3350 1.499 . S
C3348 H3328 0.950 . S
C3348 C3347 1.414 . S
C3348 C3349 1.374 . S
C3349 H3329 0.950 . S
C3349 C3345 1.385 . S
C3349 C3348 1.374 . S
C3350 C3347 1.499 . S
C3350 C3351 1.373 . S
C3350 C3352 1.389 . S
C3351 H3330 0.950 . S
C3351 C3350 1.373 . S
C3351 C3367 1.377 . S
C3352 C3350 1.389 . S
C3352 C3353 1.524 . S
C3352 C3366 1.377 . S
C3353 C3352 1.524 . S
C3353 C3354 1.397 . S
C3353 C3358 1.363 . S
C3354 H3331 0.950 . S
C3354 C3353 1.397 . S
C3354 C3355 1.334 . S
C3355 H3332 0.950 . S
C3355 C3354 1.334 . S
C3355 C3356 1.287 . S
C3356 C3355 1.287 . S
C3356 C3357 1.524 . S
C3356 H3375 0.913 . S
C3357 H3333 0.950 . S
C3357 C3356 1.524 . S
C3357 C3358 1.415 . S
C3358 H3334 0.950 . S
C3358 C3353 1.363 . S
C3358 C3357 1.415 . S
C3359 H3335 0.951 . S
C3359 C3360 1.366 . S
C3359 C3361 1.388 . S
C3360 C3359 1.366 . S
C3360 C3364 1.385 . S
C3361 H3336 0.951 . S
C3361 C3359 1.388 . S
C3361 C3362 1.366 . S
C3362 C3361 1.366 . S
C3362 C3363 1.414 . S
C3362 C3365 1.499 . S
C3363 H3337 0.950 . S
C3363 C3362 1.414 . S
C3363 C3364 1.374 . S
C3364 H3338 0.950 . S
C3364 C3360 1.385 . S
C3364 C3363 1.374 . S
C3365 C3362 1.499 . S
C3365 C3366 1.373 . S
C3365 C3367 1.389 . S
C3366 H3339 0.950 . S
C3366 C3352 1.377 . S
C3366 C3365 1.373 . S
C3367 C3351 1.377 . S
C3367 C3365 1.389 . S
C3367 C3368 1.524 . S
C3368 C3367 1.524 . S
C3368 C3369 1.397 . S
C3368 C3373 1.363 . S
C3369 H3340 0.950 . S
C3369 C3368 1.397 . S
C3369 C3370 1.334 . S
C3370 H3341 0.950 . S
C3370 C3369 1.334 . S
C3370 C3371 1.287 . S
C3371 C3370 1.287 . S
C3371 C3372 1.524 . S
C3371 H3374 0.999 . S
C3372 H3342 0.950 . S
C3372 C3371 1.524 . S
C3372 C3373 1.415 . S
C3373 H3343 0.950 . S
C3373 C3368 1.363 . S
C3373 C3372 1.415 . S
H3374 C3371 0.999 . S
H3375 C3356 0.913 . S
H3376 C3394 0.951 . S
H3377 C3396 0.951 . S
H3378 C3398 0.950 . S
H3379 C3399 0.950 . S
H3380 C3401 0.950 . S
H3381 C3404 0.950 . S
H3382 C3405 0.950 . S
H3383 C3407 0.950 . S
H3384 C3408 0.950 . S
H3385 C3409 0.951 . S
H3386 C3411 0.951 . S
H3387 C3413 0.950 . S
H3388 C3414 0.950 . S
H3389 C3416 0.950 . S
H3390 C3419 0.950 . S
H3391 C3420 0.950 . S
H3392 C3422 0.950 . S
H3393 C3423 0.950 . S
C3394 H3376 0.951 . S
C3394 C3395 1.366 . S
C3394 C3396 1.388 . S
C3395 C3394 1.366 . S
C3395 C3399 1.385 . S
C3396 H3377 0.951 . S
C3396 C3394 1.388 . S
C3396 C3397 1.366 . S
C3397 C3396 1.366 . S
C3397 C3398 1.414 . S
C3397 C3400 1.499 . S
C3398 H3378 0.950 . S
C3398 C3397 1.414 . S
C3398 C3399 1.374 . S
C3399 H3379 0.950 . S
C3399 C3395 1.385 . S
C3399 C3398 1.374 . S
C3400 C3397 1.499 . S
C3400 C3401 1.373 . S
C3400 C3402 1.389 . S
C3401 H3380 0.950 . S
C3401 C3400 1.373 . S
C3401 C3417 1.377 . S
C3402 C3400 1.389 . S
C3402 C3403 1.524 . S
C3402 C3416 1.377 . S
C3403 C3402 1.524 . S
C3403 C3404 1.397 . S
C3403 C3408 1.363 . S
C3404 H3381 0.950 . S
C3404 C3403 1.397 . S
C3404 C3405 1.334 . S
C3405 H3382 0.950 . S
C3405 C3404 1.334 . S
C3405 C3406 1.287 . S
C3406 C3405 1.287 . S
C3406 C3407 1.524 . S
C3406 H3425 0.913 . S
C3407 H3383 0.950 . S
C3407 C3406 1.524 . S
C3407 C3408 1.415 . S
C3408 H3384 0.950 . S
C3408 C3403 1.363 . S
C3408 C3407 1.415 . S
C3409 H3385 0.951 . S
C3409 C3410 1.366 . S
C3409 C3411 1.388 . S
C3410 C3409 1.366 . S
C3410 C3414 1.385 . S
C3411 H3386 0.951 . S
C3411 C3409 1.388 . S
C3411 C3412 1.366 . S
C3412 C3411 1.366 . S
C3412 C3413 1.414 . S
C3412 C3415 1.499 . S
C3413 H3387 0.950 . S
C3413 C3412 1.414 . S
C3413 C3414 1.374 . S
C3414 H3388 0.950 . S
C3414 C3410 1.385 . S
C3414 C3413 1.374 . S
C3415 C3412 1.499 . S
C3415 C3416 1.373 . S
C3415 C3417 1.389 . S
C3416 H3389 0.950 . S
C3416 C3402 1.377 . S
C3416 C3415 1.373 . S
C3417 C3401 1.377 . S
C3417 C3415 1.389 . S
C3417 C3418 1.524 . S
C3418 C3417 1.524 . S
C3418 C3419 1.397 . S
C3418 C3423 1.363 . S
C3419 H3390 0.950 . S
C3419 C3418 1.397 . S
C3419 C3420 1.334 . S
C3420 H3391 0.950 . S
C3420 C3419 1.334 . S
C3420 C3421 1.287 . S
C3421 C3420 1.287 . S
C3421 C3422 1.524 . S
C3421 H3424 0.999 . S
C3422 H3392 0.950 . S
C3422 C3421 1.524 . S
C3422 C3423 1.415 . S
C3423 H3393 0.950 . S
C3423 C3418 1.363 . S
C3423 C3422 1.415 . S
H3424 C3421 0.999 . S
H3425 C3406 0.913 . S
H3426 C3444 0.951 . S
H3427 C3446 0.951 . S
H3428 C3448 0.950 . S
H3429 C3449 0.950 . S
H3430 C3451 0.950 . S
H3431 C3454 0.950 . S
H3432 C3455 0.950 . S
H3433 C3457 0.950 . S
H3434 C3458 0.950 . S
H3435 C3459 0.951 . S
H3436 C3461 0.951 . S
H3437 C3463 0.950 . S
H3438 C3464 0.950 . S
H3439 C3466 0.950 . S
H3440 C3469 0.950 . S
H3441 C3470 0.950 . S
H3442 C3472 0.950 . S
H3443 C3473 0.950 . S
C3444 H3426 0.951 . S
C3444 C3445 1.366 . S
C3444 C3446 1.388 . S
C3445 C3444 1.366 . S
C3445 C3449 1.385 . S
C3446 H3427 0.951 . S
C3446 C3444 1.388 . S
C3446 C3447 1.366 . S
C3447 C3446 1.366 . S
C3447 C3448 1.414 . S
C3447 C3450 1.499 . S
C3448 H3428 0.950 . S
C3448 C3447 1.414 . S
C3448 C3449 1.374 . S
C3449 H3429 0.950 . S
C3449 C3445 1.385 . S
C3449 C3448 1.374 . S
C3450 C3447 1.499 . S
C3450 C3451 1.373 . S
C3450 C3452 1.389 . S
C3451 H3430 0.950 . S
C3451 C3450 1.373 . S
C3451 C3467 1.377 . S
C3452 C3450 1.389 . S
C3452 C3453 1.524 . S
C3452 C3466 1.377 . S
C3453 C3452 1.524 . S
C3453 C3454 1.397 . S
C3453 C3458 1.363 . S
C3454 H3431 0.950 . S
C3454 C3453 1.397 . S
C3454 C3455 1.334 . S
C3455 H3432 0.950 . S
C3455 C3454 1.334 . S
C3455 C3456 1.287 . S
C3456 C3455 1.287 . S
C3456 C3457 1.524 . S
C3456 H3475 0.913 . S
C3457 H3433 0.950 . S
C3457 C3456 1.524 . S
C3457 C3458 1.415 . S
C3458 H3434 0.950 . S
C3458 C3453 1.363 . S
C3458 C3457 1.415 . S
C3459 H3435 0.951 . S
C3459 C3460 1.366 . S
C3459 C3461 1.388 . S
C3460 C3459 1.366 . S
C3460 C3464 1.385 . S
C3461 H3436 0.951 . S
C3461 C3459 1.388 . S
C3461 C3462 1.366 . S
C3462 C3461 1.366 . S
C3462 C3463 1.414 . S
C3462 C3465 1.499 . S
C3463 H3437 0.950 . S
C3463 C3462 1.414 . S
C3463 C3464 1.374 . S
C3464 H3438 0.950 . S
C3464 C3460 1.385 . S
C3464 C3463 1.374 . S
C3465 C3462 1.499 . S
C3465 C3466 1.373 . S
C3465 C3467 1.389 . S
C3466 H3439 0.950 . S
C3466 C3452 1.377 . S
C3466 C3465 1.373 . S
C3467 C3451 1.377 . S
C3467 C3465 1.389 . S
C3467 C3468 1.524 . S
C3468 C3467 1.524 . S
C3468 C3469 1.397 . S
C3468 C3473 1.363 . S
C3469 H3440 0.950 . S
C3469 C3468 1.397 . S
C3469 C3470 1.334 . S
C3470 H3441 0.950 . S
C3470 C3469 1.334 . S
C3470 C3471 1.287 . S
C3471 C3470 1.287 . S
C3471 C3472 1.524 . S
C3471 H3474 0.999 . S
C3472 H3442 0.950 . S
C3472 C3471 1.524 . S
C3472 C3473 1.415 . S
C3473 H3443 0.950 . S
C3473 C3468 1.363 . S
C3473 C3472 1.415 . S
H3474 C3471 0.999 . S
H3475 C3456 0.913 . S
H3476 C3494 0.951 . S
H3477 C3496 0.951 . S
H3478 C3498 0.950 . S
H3479 C3499 0.950 . S
H3480 C3501 0.950 . S
H3481 C3504 0.950 . S
H3482 C3505 0.950 . S
H3483 C3507 0.950 . S
H3484 C3508 0.950 . S
H3485 C3509 0.951 . S
H3486 C3511 0.951 . S
H3487 C3513 0.950 . S
H3488 C3514 0.950 . S
H3489 C3516 0.950 . S
H3490 C3519 0.950 . S
H3491 C3520 0.942 1_655 S
H3492 C3522 0.950 . S
H3493 C3523 0.950 . S
C3494 H3476 0.951 . S
C3494 C3495 1.366 . S
C3494 C3496 1.388 . S
C3495 C3494 1.366 . S
C3495 C3499 1.385 . S
C3496 H3477 0.951 . S
C3496 C3494 1.388 . S
C3496 C3497 1.366 . S
C3497 C3496 1.366 . S
C3497 C3498 1.414 . S
C3497 C3500 1.499 . S
C3498 H3478 0.950 . S
C3498 C3497 1.414 . S
C3498 C3499 1.374 . S
C3499 H3479 0.950 . S
C3499 C3495 1.385 . S
C3499 C3498 1.374 . S
C3500 C3497 1.499 . S
C3500 C3501 1.373 . S
C3500 C3502 1.389 . S
C3501 H3480 0.950 . S
C3501 C3500 1.373 . S
C3501 C3517 1.377 . S
C3502 C3500 1.389 . S
C3502 C3503 1.524 . S
C3502 C3516 1.377 . S
C3503 C3502 1.524 . S
C3503 C3504 1.397 . S
C3503 C3508 1.363 . S
C3504 H3481 0.950 . S
C3504 C3503 1.397 . S
C3504 C3505 1.334 . S
C3505 H3482 0.950 . S
C3505 C3504 1.334 . S
C3505 C3506 1.287 . S
C3506 C3505 1.287 . S
C3506 C3507 1.524 . S
C3506 H3525 0.913 . S
C3507 H3483 0.950 . S
C3507 C3506 1.524 . S
C3507 C3508 1.415 . S
C3508 H3484 0.950 . S
C3508 C3503 1.363 . S
C3508 C3507 1.415 . S
C3509 H3485 0.951 . S
C3509 C3510 1.366 . S
C3509 C3511 1.388 . S
C3510 C3509 1.366 . S
C3510 C3514 1.385 1_554 S
C3511 H3486 0.951 . S
C3511 C3509 1.388 . S
C3511 C3512 1.366 1_554 S
C3512 C3511 1.366 1_556 S
C3512 C3513 1.414 . S
C3512 C3515 1.499 . S
C3513 H3487 0.950 . S
C3513 C3512 1.414 . S
C3513 C3514 1.374 . S
C3514 H3488 0.950 . S
C3514 C3510 1.385 1_556 S
C3514 C3513 1.374 . S
C3515 C3512 1.499 . S
C3515 C3516 1.373 . S
C3515 C3517 1.389 . S
C3516 H3489 0.950 . S
C3516 C3502 1.377 . S
C3516 C3515 1.373 . S
C3517 C3501 1.377 . S
C3517 C3515 1.389 . S
C3517 C3518 1.524 1_556 S
C3518 C3517 1.524 1_554 S
C3518 C3519 1.397 . S
C3518 C3523 1.363 . S
C3519 H3490 0.950 . S
C3519 C3518 1.397 . S
C3519 C3520 1.334 . S
C3520 H3491 0.942 1_455 S
C3520 C3519 1.334 . S
C3520 C3521 1.287 . S
C3521 C3520 1.287 . S
C3521 C3522 1.524 . S
C3521 H3524 0.999 . S
C3522 H3492 0.950 . S
C3522 C3521 1.524 . S
C3522 C3523 1.415 . S
C3523 H3493 0.950 . S
C3523 C3518 1.363 . S
C3523 C3522 1.415 . S
H3524 C3521 0.999 . S
H3525 C3506 0.913 . S
H3526 C3544 0.951 . S
H3527 C3546 0.945 . S
H3528 C3548 0.950 . S
H3529 C3549 0.963 . S
H3530 C3551 0.950 . S
H3531 C3554 0.950 . S
H3532 C3555 0.950 . S
H3533 C3557 0.951 . S
H3534 C3558 0.950 . S
H3535 C3559 0.951 . S
H3536 C3561 0.951 . S
H3537 C3563 0.950 . S
H3538 C3564 0.950 . S
H3539 C3566 0.950 . S
H3540 C3569 0.950 . S
H3541 C3570 0.950 . S
H3542 C3572 0.950 . S
H3543 C3573 0.950 . S
C3544 H3526 0.951 . S
C3544 C3545 1.366 . S
C3544 C3546 1.356 1_455 S
C3545 C3544 1.366 . S
C3545 C3549 1.413 . S
C3546 H3527 0.945 . S
C3546 C3544 1.356 1_655 S
C3546 C3547 1.389 . S
C3547 C3546 1.389 . S
C3547 C3548 1.414 . S
C3547 C3550 1.499 . S
C3548 H3528 0.950 . S
C3548 C3547 1.414 . S
C3548 C3549 1.333 1_655 S
C3549 H3529 0.963 . S
C3549 C3545 1.413 . S
C3549 C3548 1.333 1_455 S
C3550 C3547 1.499 . S
C3550 C3551 1.373 . S
C3550 C3552 1.389 . S
C3551 H3530 0.950 . S
C3551 C3550 1.373 . S
C3551 C3567 1.377 . S
C3552 C3550 1.389 . S
C3552 C3553 1.524 . S
C3552 C3566 1.377 . S
C3553 C3552 1.524 . S
C3553 C3554 1.397 . S
C3553 C3558 1.363 . S
C3554 H3531 0.950 . S
C3554 C3553 1.397 . S
C3554 C3555 1.334 1_655 S
C3555 H3532 0.950 . S
C3555 C3554 1.334 1_455 S
C3555 C3556 1.287 . S
C3556 C3555 1.287 . S
C3556 C3557 1.530 . S
C3556 H3575 0.913 . S
C3557 H3533 0.951 . S
C3557 C3556 1.530 . S
C3557 C3558 1.407 1_455 S
C3558 H3534 0.950 . S
C3558 C3553 1.363 . S
C3558 C3557 1.407 1_655 S
C3559 H3535 0.951 . S
C3559 C3560 1.366 . S
C3559 C3561 1.388 . S
C3560 C3559 1.366 . S
C3560 C3564 1.385 . S
C3561 H3536 0.951 . S
C3561 C3559 1.388 . S
C3561 C3562 1.366 . S
C3562 C3561 1.366 . S
C3562 C3563 1.414 . S
C3562 C3565 1.499 . S
C3563 H3537 0.950 . S
C3563 C3562 1.414 . S
C3563 C3564 1.374 . S
C3564 H3538 0.950 . S
C3564 C3560 1.385 . S
C3564 C3563 1.374 . S
C3565 C3562 1.499 . S
C3565 C3566 1.373 . S
C3565 C3567 1.389 . S
C3566 H3539 0.950 . S
C3566 C3552 1.377 . S
C3566 C3565 1.373 . S
C3567 C3551 1.377 . S
C3567 C3565 1.389 . S
C3567 C3568 1.524 . S
C3568 C3567 1.524 . S
C3568 C3569 1.397 . S
C3568 C3573 1.363 . S
C3569 H3540 0.950 . S
C3569 C3568 1.397 . S
C3569 C3570 1.334 . S
C3570 H3541 0.950 . S
C3570 C3569 1.334 . S
C3570 C3571 1.287 . S
C3571 C3570 1.287 . S
C3571 C3572 1.524 . S
C3571 H3574 0.999 . S
C3572 H3542 0.950 . S
C3572 C3571 1.524 . S
C3572 C3573 1.415 . S
C3573 H3543 0.950 . S
C3573 C3568 1.363 . S
C3573 C3572 1.415 . S
H3574 C3571 0.999 . S
H3575 C3556 0.913 . S
H3576 C3594 0.951 . S
H3577 C3596 0.951 . S
H3578 C3598 0.950 . S
H3579 C3599 0.950 . S
H3580 C3601 0.950 . S
H3581 C3604 0.950 . S
H3582 C3605 0.950 . S
H3583 C3607 0.950 . S
H3584 C3608 0.950 . S
H3585 C3609 0.951 . S
H3586 C3611 0.951 . S
H3587 C3613 0.950 . S
H3588 C3614 0.950 . S
H3589 C3616 0.950 . S
H3590 C3619 0.950 . S
H3591 C3620 0.950 . S
H3592 C3622 0.950 . S
H3593 C3623 0.950 . S
C3594 H3576 0.951 . S
C3594 C3595 1.366 . S
C3594 C3596 1.388 . S
C3595 C3594 1.366 . S
C3595 C3599 1.385 . S
C3596 H3577 0.951 . S
C3596 C3594 1.388 . S
C3596 C3597 1.366 . S
C3597 C3596 1.366 . S
C3597 C3598 1.414 . S
C3597 C3600 1.499 . S
C3598 H3578 0.950 . S
C3598 C3597 1.414 . S
C3598 C3599 1.374 . S
C3599 H3579 0.950 . S
C3599 C3595 1.385 . S
C3599 C3598 1.374 . S
C3600 C3597 1.499 . S
C3600 C3601 1.373 . S
C3600 C3602 1.389 . S
C3601 H3580 0.950 . S
C3601 C3600 1.373 . S
C3601 C3617 1.377 . S
C3602 C3600 1.389 . S
C3602 C3603 1.524 . S
C3602 C3616 1.377 . S
C3603 C3602 1.524 . S
C3603 C3604 1.397 . S
C3603 C3608 1.363 . S
C3604 H3581 0.950 . S
C3604 C3603 1.397 . S
C3604 C3605 1.334 . S
C3605 H3582 0.950 . S
C3605 C3604 1.334 . S
C3605 C3606 1.287 . S
C3606 C3605 1.287 . S
C3606 C3607 1.524 . S
C3606 H3625 0.913 . S
C3607 H3583 0.950 . S
C3607 C3606 1.524 . S
C3607 C3608 1.415 . S
C3608 H3584 0.950 . S
C3608 C3603 1.363 . S
C3608 C3607 1.415 . S
C3609 H3585 0.951 . S
C3609 C3610 1.366 . S
C3609 C3611 1.388 . S
C3610 C3609 1.366 . S
C3610 C3614 1.385 . S
C3611 H3586 0.951 . S
C3611 C3609 1.388 . S
C3611 C3612 1.366 . S
C3612 C3611 1.366 . S
C3612 C3613 1.414 . S
C3612 C3615 1.499 . S
C3613 H3587 0.950 . S
C3613 C3612 1.414 . S
C3613 C3614 1.374 . S
C3614 H3588 0.950 . S
C3614 C3610 1.385 . S
C3614 C3613 1.374 . S
C3615 C3612 1.499 . S
C3615 C3616 1.373 . S
C3615 C3617 1.389 . S
C3616 H3589 0.950 . S
C3616 C3602 1.377 . S
C3616 C3615 1.373 . S
C3617 C3601 1.377 . S
C3617 C3615 1.389 . S
C3617 C3618 1.524 . S
C3618 C3617 1.524 . S
C3618 C3619 1.397 . S
C3618 C3623 1.363 . S
C3619 H3590 0.950 . S
C3619 C3618 1.397 . S
C3619 C3620 1.334 . S
C3620 H3591 0.950 . S
C3620 C3619 1.334 . S
C3620 C3621 1.287 . S
C3621 C3620 1.287 . S
C3621 C3622 1.524 . S
C3621 H3624 0.999 . S
C3622 H3592 0.950 . S
C3622 C3621 1.524 . S
C3622 C3623 1.415 . S
C3623 H3593 0.950 . S
C3623 C3618 1.363 . S
C3623 C3622 1.415 . S
H3624 C3621 0.999 . S
H3625 C3606 0.913 . S
H3626 C3644 0.951 . S
H3627 C3646 0.951 . S
H3628 C3648 0.950 . S
H3629 C3649 0.950 . S
H3630 C3651 0.950 . S
H3631 C3654 0.950 . S
H3632 C3655 0.950 . S
H3633 C3657 0.950 . S
H3634 C3658 0.950 . S
H3635 C3659 0.951 . S
H3636 C3661 0.951 . S
H3637 C3663 0.950 . S
H3638 C3664 0.950 . S
H3639 C3666 0.950 . S
H3640 C3669 0.950 . S
H3641 C3670 0.950 . S
H3642 C3672 0.950 . S
H3643 C3673 0.950 . S
C3644 H3626 0.951 . S
C3644 C3645 1.366 . S
C3644 C3646 1.388 . S
C3645 C3644 1.366 . S
C3645 C3649 1.385 . S
C3646 H3627 0.951 . S
C3646 C3644 1.388 . S
C3646 C3647 1.366 . S
C3647 C3646 1.366 . S
C3647 C3648 1.414 . S
C3647 C3650 1.499 . S
C3648 H3628 0.950 . S
C3648 C3647 1.414 . S
C3648 C3649 1.374 . S
C3649 H3629 0.950 . S
C3649 C3645 1.385 . S
C3649 C3648 1.374 . S
C3650 C3647 1.499 . S
C3650 C3651 1.373 . S
C3650 C3652 1.389 . S
C3651 H3630 0.950 . S
C3651 C3650 1.373 . S
C3651 C3667 1.377 . S
C3652 C3650 1.389 . S
C3652 C3653 1.524 . S
C3652 C3666 1.377 . S
C3653 C3652 1.524 . S
C3653 C3654 1.397 . S
C3653 C3658 1.363 . S
C3654 H3631 0.950 . S
C3654 C3653 1.397 . S
C3654 C3655 1.334 . S
C3655 H3632 0.950 . S
C3655 C3654 1.334 . S
C3655 C3656 1.287 . S
C3656 C3655 1.287 . S
C3656 C3657 1.524 . S
C3656 H3675 0.913 . S
C3657 H3633 0.950 . S
C3657 C3656 1.524 . S
C3657 C3658 1.415 . S
C3658 H3634 0.950 . S
C3658 C3653 1.363 . S
C3658 C3657 1.415 . S
C3659 H3635 0.951 . S
C3659 C3660 1.366 . S
C3659 C3661 1.388 . S
C3660 C3659 1.366 . S
C3660 C3664 1.385 . S
C3661 H3636 0.951 . S
C3661 C3659 1.388 . S
C3661 C3662 1.366 . S
C3662 C3661 1.366 . S
C3662 C3663 1.414 . S
C3662 C3665 1.499 . S
C3663 H3637 0.950 . S
C3663 C3662 1.414 . S
C3663 C3664 1.374 . S
C3664 H3638 0.950 . S
C3664 C3660 1.385 . S
C3664 C3663 1.374 . S
C3665 C3662 1.499 . S
C3665 C3666 1.373 . S
C3665 C3667 1.389 . S
C3666 H3639 0.950 . S
C3666 C3652 1.377 . S
C3666 C3665 1.373 . S
C3667 C3651 1.377 . S
C3667 C3665 1.389 . S
C3667 C3668 1.524 . S
C3668 C3667 1.524 . S
C3668 C3669 1.397 . S
C3668 C3673 1.363 . S
C3669 H3640 0.950 . S
C3669 C3668 1.397 . S
C3669 C3670 1.334 . S
C3670 H3641 0.950 . S
C3670 C3669 1.334 . S
C3670 C3671 1.287 . S
C3671 C3670 1.287 . S
C3671 C3672 1.524 . S
C3671 H3674 0.999 . S
C3672 H3642 0.950 . S
C3672 C3671 1.524 . S
C3672 C3673 1.415 . S
C3673 H3643 0.950 . S
C3673 C3668 1.363 . S
C3673 C3672 1.415 . S
H3674 C3671 0.999 . S
H3675 C3656 0.913 . S
H3676 C3694 0.951 . S
H3677 C3696 0.951 . S
H3678 C3698 0.950 . S
H3679 C3699 0.950 . S
H3680 C3701 0.950 . S
H3681 C3704 0.950 . S
H3682 C3705 0.950 . S
H3683 C3707 0.950 . S
H3684 C3708 0.950 . S
H3685 C3709 0.951 . S
H3686 C3711 0.951 . S
H3687 C3713 0.950 . S
H3688 C3714 0.950 . S
H3689 C3716 0.950 . S
H3690 C3719 0.950 . S
H3691 C3720 0.950 . S
H3692 C3722 0.950 . S
H3693 C3723 0.950 . S
C3694 H3676 0.951 . S
C3694 C3695 1.366 . S
C3694 C3696 1.388 . S
C3695 C3694 1.366 . S
C3695 C3699 1.385 . S
C3696 H3677 0.951 . S
C3696 C3694 1.388 . S
C3696 C3697 1.366 . S
C3697 C3696 1.366 . S
C3697 C3698 1.414 . S
C3697 C3700 1.499 . S
C3698 H3678 0.950 . S
C3698 C3697 1.414 . S
C3698 C3699 1.374 . S
C3699 H3679 0.950 . S
C3699 C3695 1.385 . S
C3699 C3698 1.374 . S
C3700 C3697 1.499 . S
C3700 C3701 1.373 . S
C3700 C3702 1.389 . S
C3701 H3680 0.950 . S
C3701 C3700 1.373 . S
C3701 C3717 1.377 . S
C3702 C3700 1.389 . S
C3702 C3703 1.524 . S
C3702 C3716 1.377 . S
C3703 C3702 1.524 . S
C3703 C3704 1.397 . S
C3703 C3708 1.363 . S
C3704 H3681 0.950 . S
C3704 C3703 1.397 . S
C3704 C3705 1.334 . S
C3705 H3682 0.950 . S
C3705 C3704 1.334 . S
C3705 C3706 1.287 . S
C3706 C3705 1.287 . S
C3706 C3707 1.524 . S
C3706 H3725 0.913 . S
C3707 H3683 0.950 . S
C3707 C3706 1.524 . S
C3707 C3708 1.415 . S
C3708 H3684 0.950 . S
C3708 C3703 1.363 . S
C3708 C3707 1.415 . S
C3709 H3685 0.951 . S
C3709 C3710 1.366 . S
C3709 C3711 1.388 . S
C3710 C3709 1.366 . S
C3710 C3714 1.385 . S
C3711 H3686 0.951 . S
C3711 C3709 1.388 . S
C3711 C3712 1.366 . S
C3712 C3711 1.366 . S
C3712 C3713 1.414 . S
C3712 C3715 1.499 . S
C3713 H3687 0.950 . S
C3713 C3712 1.414 . S
C3713 C3714 1.374 . S
C3714 H3688 0.950 . S
C3714 C3710 1.385 . S
C3714 C3713 1.374 . S
C3715 C3712 1.499 . S
C3715 C3716 1.373 . S
C3715 C3717 1.389 . S
C3716 H3689 0.950 . S
C3716 C3702 1.377 . S
C3716 C3715 1.373 . S
C3717 C3701 1.377 . S
C3717 C3715 1.389 . S
C3717 C3718 1.524 . S
C3718 C3717 1.524 . S
C3718 C3719 1.397 . S
C3718 C3723 1.363 . S
C3719 H3690 0.950 . S
C3719 C3718 1.397 . S
C3719 C3720 1.334 1_455 S
C3720 H3691 0.950 . S
C3720 C3719 1.334 1_655 S
C3720 C3721 1.287 . S
C3721 C3720 1.287 . S
C3721 C3722 1.524 . S
C3721 H3724 0.999 . S
C3722 H3692 0.950 . S
C3722 C3721 1.524 . S
C3722 C3723 1.415 1_655 S
C3723 H3693 0.950 . S
C3723 C3718 1.363 . S
C3723 C3722 1.415 1_455 S
H3724 C3721 0.999 . S
H3725 C3706 0.913 . S
H3726 C3744 0.951 . S
H3727 C3746 0.951 . S
H3728 C3748 0.950 . S
H3729 C3749 0.950 . S
H3730 C3751 0.950 . S
H3731 C3754 0.950 . S
H3732 C3755 0.950 . S
H3733 C3757 0.950 . S
H3734 C3758 0.950 . S
H3735 C3759 0.951 . S
H3736 C3761 0.951 . S
H3737 C3763 0.950 . S
H3738 C3764 0.950 . S
H3739 C3766 0.950 . S
H3740 C3769 0.950 . S
H3741 C3770 0.950 . S
H3742 C3772 0.950 . S
H3743 C3773 0.950 . S
C3744 H3726 0.951 . S
C3744 C3745 1.366 . S
C3744 C3746 1.388 . S
C3745 C3744 1.366 . S
C3745 C3749 1.385 . S
C3746 H3727 0.951 . S
C3746 C3744 1.388 . S
C3746 C3747 1.366 . S
C3747 C3746 1.366 . S
C3747 C3748 1.414 . S
C3747 C3750 1.499 . S
C3748 H3728 0.950 . S
C3748 C3747 1.414 . S
C3748 C3749 1.374 . S
C3749 H3729 0.950 . S
C3749 C3745 1.385 . S
C3749 C3748 1.374 . S
C3750 C3747 1.499 . S
C3750 C3751 1.373 . S
C3750 C3752 1.389 . S
C3751 H3730 0.950 . S
C3751 C3750 1.373 . S
C3751 C3767 1.377 . S
C3752 C3750 1.389 . S
C3752 C3753 1.524 . S
C3752 C3766 1.377 . S
C3753 C3752 1.524 . S
C3753 C3754 1.397 . S
C3753 C3758 1.363 . S
C3754 H3731 0.950 . S
C3754 C3753 1.397 . S
C3754 C3755 1.334 . S
C3755 H3732 0.950 . S
C3755 C3754 1.334 . S
C3755 C3756 1.287 . S
C3756 C3755 1.287 . S
C3756 C3757 1.524 . S
C3756 H3775 0.913 . S
C3757 H3733 0.950 . S
C3757 C3756 1.524 . S
C3757 C3758 1.415 . S
C3758 H3734 0.950 . S
C3758 C3753 1.363 . S
C3758 C3757 1.415 . S
C3759 H3735 0.951 . S
C3759 C3760 1.366 . S
C3759 C3761 1.388 . S
C3760 C3759 1.366 . S
C3760 C3764 1.385 . S
C3761 H3736 0.951 . S
C3761 C3759 1.388 . S
C3761 C3762 1.366 . S
C3762 C3761 1.366 . S
C3762 C3763 1.414 . S
C3762 C3765 1.499 . S
C3763 H3737 0.950 . S
C3763 C3762 1.414 . S
C3763 C3764 1.374 . S
C3764 H3738 0.950 . S
C3764 C3760 1.385 . S
C3764 C3763 1.374 . S
C3765 C3762 1.499 . S
C3765 C3766 1.373 . S
C3765 C3767 1.389 . S
C3766 H3739 0.950 . S
C3766 C3752 1.377 . S
C3766 C3765 1.373 . S
C3767 C3751 1.377 . S
C3767 C3765 1.389 . S
C3767 C3768 1.524 . S
C3768 C3767 1.524 . S
C3768 C3769 1.397 . S
C3768 C3773 1.363 . S
C3769 H3740 0.950 . S
C3769 C3768 1.397 . S
C3769 C3770 1.334 . S
C3770 H3741 0.950 . S
C3770 C3769 1.334 . S
C3770 C3771 1.287 . S
C3771 C3770 1.287 . S
C3771 C3772 1.524 . S
C3771 H3774 0.999 . S
C3772 H3742 0.950 . S
C3772 C3771 1.524 . S
C3772 C3773 1.415 . S
C3773 H3743 0.950 . S
C3773 C3768 1.363 . S
C3773 C3772 1.415 . S
H3774 C3771 0.999 . S
H3775 C3756 0.913 . S
H3776 C3794 0.951 . S
H3777 C3796 0.951 . S
H3778 C3798 0.950 . S
H3779 C3799 0.950 . S
H3780 C3801 0.950 . S
H3781 C3804 0.950 . S
H3782 C3805 0.950 . S
H3783 C3807 0.950 . S
H3784 C3808 0.950 . S
H3785 C3809 0.951 . S
H3786 C3811 0.951 . S
H3787 C3813 0.950 . S
H3788 C3814 0.950 . S
H3789 C3816 0.950 . S
H3790 C3819 0.950 . S
H3791 C3820 0.950 . S
H3792 C3822 0.950 . S
H3793 C3823 0.950 . S
C3794 H3776 0.951 . S
C3794 C3795 1.366 . S
C3794 C3796 1.388 . S
C3795 C3794 1.366 . S
C3795 C3799 1.385 . S
C3796 H3777 0.951 . S
C3796 C3794 1.388 . S
C3796 C3797 1.366 . S
C3797 C3796 1.366 . S
C3797 C3798 1.414 . S
C3797 C3800 1.499 . S
C3798 H3778 0.950 . S
C3798 C3797 1.414 . S
C3798 C3799 1.374 . S
C3799 H3779 0.950 . S
C3799 C3795 1.385 . S
C3799 C3798 1.374 . S
C3800 C3797 1.499 . S
C3800 C3801 1.373 . S
C3800 C3802 1.389 . S
C3801 H3780 0.950 . S
C3801 C3800 1.373 . S
C3801 C3817 1.377 . S
C3802 C3800 1.389 . S
C3802 C3803 1.524 . S
C3802 C3816 1.377 . S
C3803 C3802 1.524 . S
C3803 C3804 1.397 . S
C3803 C3808 1.363 . S
C3804 H3781 0.950 . S
C3804 C3803 1.397 . S
C3804 C3805 1.334 . S
C3805 H3782 0.950 . S
C3805 C3804 1.334 . S
C3805 C3806 1.287 . S
C3806 C3805 1.287 . S
C3806 C3807 1.524 . S
C3806 H3825 0.913 . S
C3807 H3783 0.950 . S
C3807 C3806 1.524 . S
C3807 C3808 1.415 . S
C3808 H3784 0.950 . S
C3808 C3803 1.363 . S
C3808 C3807 1.415 . S
C3809 H3785 0.951 . S
C3809 C3810 1.366 . S
C3809 C3811 1.388 . S
C3810 C3809 1.366 . S
C3810 C3814 1.385 . S
C3811 H3786 0.951 . S
C3811 C3809 1.388 . S
C3811 C3812 1.366 . S
C3812 C3811 1.366 . S
C3812 C3813 1.414 . S
C3812 C3815 1.499 . S
C3813 H3787 0.950 . S
C3813 C3812 1.414 . S
C3813 C3814 1.374 . S
C3814 H3788 0.950 . S
C3814 C3810 1.385 . S
C3814 C3813 1.374 . S
C3815 C3812 1.499 . S
C3815 C3816 1.373 . S
C3815 C3817 1.389 . S
C3816 H3789 0.950 . S
C3816 C3802 1.377 . S
C3816 C3815 1.373 . S
C3817 C3801 1.377 . S
C3817 C3815 1.389 . S
C3817 C3818 1.524 . S
C3818 C3817 1.524 . S
C3818 C3819 1.397 . S
C3818 C3823 1.363 . S
C3819 H3790 0.950 . S
C3819 C3818 1.397 . S
C3819 C3820 1.334 . S
C3820 H3791 0.950 . S
C3820 C3819 1.334 . S
C3820 C3821 1.287 . S
C3821 C3820 1.287 . S
C3821 C3822 1.524 . S
C3821 H3824 0.999 . S
C3822 H3792 0.950 . S
C3822 C3821 1.524 . S
C3822 C3823 1.415 . S
C3823 H3793 0.950 . S
C3823 C3818 1.363 . S
C3823 C3822 1.415 . S
H3824 C3821 0.999 . S
H3825 C3806 0.913 . S
H3826 C3844 0.951 . S
H3827 C3846 0.951 . S
H3828 C3848 0.950 . S
H3829 C3849 0.950 . S
H3830 C3851 0.950 . S
H3831 C3854 0.950 . S
H3832 C3855 0.950 . S
H3833 C3857 0.950 . S
H3834 C3858 0.950 . S
H3835 C3859 0.951 . S
H3836 C3861 0.951 . S
H3837 C3863 0.950 . S
H3838 C3864 0.950 . S
H3839 C3866 0.950 . S
H3840 C3869 0.950 . S
H3841 C3870 0.950 . S
H3842 C3872 0.950 . S
H3843 C3873 0.950 . S
C3844 H3826 0.951 . S
C3844 C3845 1.366 . S
C3844 C3846 1.388 . S
C3845 C3844 1.366 . S
C3845 C3849 1.385 . S
C3846 H3827 0.951 . S
C3846 C3844 1.388 . S
C3846 C3847 1.366 . S
C3847 C3846 1.366 . S
C3847 C3848 1.414 . S
C3847 C3850 1.499 . S
C3848 H3828 0.950 . S
C3848 C3847 1.414 . S
C3848 C3849 1.374 . S
C3849 H3829 0.950 . S
C3849 C3845 1.385 . S
C3849 C3848 1.374 . S
C3850 C3847 1.499 . S
C3850 C3851 1.373 . S
C3850 C3852 1.389 . S
C3851 H3830 0.950 . S
C3851 C3850 1.373 . S
C3851 C3867 1.377 . S
C3852 C3850 1.389 . S
C3852 C3853 1.524 . S
C3852 C3866 1.377 . S
C3853 C3852 1.524 . S
C3853 C3854 1.397 . S
C3853 C3858 1.363 . S
C3854 H3831 0.950 . S
C3854 C3853 1.397 . S
C3854 C3855 1.334 . S
C3855 H3832 0.950 . S
C3855 C3854 1.334 . S
C3855 C3856 1.287 . S
C3856 C3855 1.287 . S
C3856 C3857 1.524 . S
C3856 H3875 0.913 . S
C3857 H3833 0.950 . S
C3857 C3856 1.524 . S
C3857 C3858 1.415 . S
C3858 H3834 0.950 . S
C3858 C3853 1.363 . S
C3858 C3857 1.415 . S
C3859 H3835 0.951 . S
C3859 C3860 1.366 . S
C3859 C3861 1.388 . S
C3860 C3859 1.366 . S
C3860 C3864 1.385 . S
C3861 H3836 0.951 . S
C3861 C3859 1.388 . S
C3861 C3862 1.366 . S
C3862 C3861 1.366 . S
C3862 C3863 1.414 . S
C3862 C3865 1.499 . S
C3863 H3837 0.950 . S
C3863 C3862 1.414 . S
C3863 C3864 1.374 . S
C3864 H3838 0.950 . S
C3864 C3860 1.385 . S
C3864 C3863 1.374 . S
C3865 C3862 1.499 . S
C3865 C3866 1.373 . S
C3865 C3867 1.389 . S
C3866 H3839 0.950 . S
C3866 C3852 1.377 . S
C3866 C3865 1.373 . S
C3867 C3851 1.377 . S
C3867 C3865 1.389 . S
C3867 C3868 1.524 . S
C3868 C3867 1.524 . S
C3868 C3869 1.397 . S
C3868 C3873 1.363 . S
C3869 H3840 0.950 . S
C3869 C3868 1.397 . S
C3869 C3870 1.334 . S
C3870 H3841 0.950 . S
C3870 C3869 1.334 . S
C3870 C3871 1.287 . S
C3871 C3870 1.287 . S
C3871 C3872 1.524 . S
C3871 H3874 0.999 . S
C3872 H3842 0.950 . S
C3872 C3871 1.524 . S
C3872 C3873 1.415 . S
C3873 H3843 0.950 . S
C3873 C3868 1.363 . S
C3873 C3872 1.415 . S
H3874 C3871 0.999 . S
H3875 C3856 0.913 . S
H3876 C3894 0.951 . S
H3877 C3896 0.951 . S
H3878 C3898 0.950 . S
H3879 C3899 0.950 . S
H3880 C3901 0.950 . S
H3881 C3904 0.950 . S
H3882 C3905 0.950 . S
H3883 C3907 0.950 . S
H3884 C3908 0.950 . S
H3885 C3909 0.951 . S
H3886 C3911 0.951 . S
H3887 C3913 0.950 . S
H3888 C3914 0.950 . S
H3889 C3916 0.950 . S
H3890 C3919 0.950 . S
H3891 C3920 0.950 . S
H3892 C3922 0.950 . S
H3893 C3923 0.950 . S
C3894 H3876 0.951 . S
C3894 C3895 1.366 . S
C3894 C3896 1.388 . S
C3895 C3894 1.366 . S
C3895 C3899 1.385 . S
C3896 H3877 0.951 . S
C3896 C3894 1.388 . S
C3896 C3897 1.366 . S
C3897 C3896 1.366 . S
C3897 C3898 1.414 . S
C3897 C3900 1.499 . S
C3898 H3878 0.950 . S
C3898 C3897 1.414 . S
C3898 C3899 1.374 . S
C3899 H3879 0.950 . S
C3899 C3895 1.385 . S
C3899 C3898 1.374 . S
C3900 C3897 1.499 . S
C3900 C3901 1.373 . S
C3900 C3902 1.389 . S
C3901 H3880 0.950 . S
C3901 C3900 1.373 . S
C3901 C3917 1.377 . S
C3902 C3900 1.389 . S
C3902 C3903 1.524 . S
C3902 C3916 1.377 . S
C3903 C3902 1.524 . S
C3903 C3904 1.397 . S
C3903 C3908 1.363 . S
C3904 H3881 0.950 . S
C3904 C3903 1.397 . S
C3904 C3905 1.334 . S
C3905 H3882 0.950 . S
C3905 C3904 1.334 . S
C3905 C3906 1.287 . S
C3906 C3905 1.287 . S
C3906 C3907 1.524 . S
C3906 H3925 0.913 . S
C3907 H3883 0.950 . S
C3907 C3906 1.524 . S
C3907 C3908 1.415 . S
C3908 H3884 0.950 . S
C3908 C3903 1.363 . S
C3908 C3907 1.415 . S
C3909 H3885 0.951 . S
C3909 C3910 1.366 . S
C3909 C3911 1.388 . S
C3910 C3909 1.366 . S
C3910 C3914 1.385 . S
C3911 H3886 0.951 . S
C3911 C3909 1.388 . S
C3911 C3912 1.366 . S
C3912 C3911 1.366 . S
C3912 C3913 1.414 . S
C3912 C3915 1.499 . S
C3913 H3887 0.950 . S
C3913 C3912 1.414 . S
C3913 C3914 1.374 . S
C3914 H3888 0.950 . S
C3914 C3910 1.385 . S
C3914 C3913 1.374 . S
C3915 C3912 1.499 . S
C3915 C3916 1.373 . S
C3915 C3917 1.389 . S
C3916 H3889 0.950 . S
C3916 C3902 1.377 . S
C3916 C3915 1.373 . S
C3917 C3901 1.377 . S
C3917 C3915 1.389 . S
C3917 C3918 1.524 . S
C3918 C3917 1.524 . S
C3918 C3919 1.397 . S
C3918 C3923 1.363 . S
C3919 H3890 0.950 . S
C3919 C3918 1.397 . S
C3919 C3920 1.334 . S
C3920 H3891 0.950 . S
C3920 C3919 1.334 . S
C3920 C3921 1.287 . S
C3921 C3920 1.287 . S
C3921 C3922 1.524 . S
C3921 H3924 0.999 . S
C3922 H3892 0.950 . S
C3922 C3921 1.524 . S
C3922 C3923 1.415 . S
C3923 H3893 0.950 . S
C3923 C3918 1.363 . S
C3923 C3922 1.415 . S
H3924 C3921 0.999 . S
H3925 C3906 0.913 . S
H3926 C3944 0.951 . S
H3927 C3946 0.951 . S
H3928 C3948 0.950 . S
H3929 C3949 0.950 . S
H3930 C3951 0.950 . S
H3931 C3954 0.950 . S
H3932 C3955 0.950 . S
H3933 C3957 0.950 . S
H3934 C3958 0.950 . S
H3935 C3959 0.951 . S
H3936 C3961 0.951 . S
H3937 C3963 0.950 . S
H3938 C3964 0.950 . S
H3939 C3966 0.950 . S
H3940 C3969 0.950 . S
H3941 C3970 0.950 . S
H3942 C3972 0.950 . S
H3943 C3973 0.950 . S
C3944 H3926 0.951 . S
C3944 C3945 1.366 . S
C3944 C3946 1.388 . S
C3945 C3944 1.366 . S
C3945 C3949 1.385 . S
C3946 H3927 0.951 . S
C3946 C3944 1.388 . S
C3946 C3947 1.366 . S
C3947 C3946 1.366 . S
C3947 C3948 1.414 . S
C3947 C3950 1.499 . S
C3948 H3928 0.950 . S
C3948 C3947 1.414 . S
C3948 C3949 1.374 . S
C3949 H3929 0.950 . S
C3949 C3945 1.385 . S
C3949 C3948 1.374 . S
C3950 C3947 1.499 . S
C3950 C3951 1.373 . S
C3950 C3952 1.389 . S
C3951 H3930 0.950 . S
C3951 C3950 1.373 . S
C3951 C3967 1.377 . S
C3952 C3950 1.389 . S
C3952 C3953 1.524 . S
C3952 C3966 1.377 . S
C3953 C3952 1.524 . S
C3953 C3954 1.397 . S
C3953 C3958 1.363 . S
C3954 H3931 0.950 . S
C3954 C3953 1.397 . S
C3954 C3955 1.334 . S
C3955 H3932 0.950 . S
C3955 C3954 1.334 . S
C3955 C3956 1.287 . S
C3956 C3955 1.287 . S
C3956 C3957 1.524 . S
C3956 H3975 0.913 . S
C3957 H3933 0.950 . S
C3957 C3956 1.524 . S
C3957 C3958 1.415 . S
C3958 H3934 0.950 . S
C3958 C3953 1.363 . S
C3958 C3957 1.415 . S
C3959 H3935 0.951 . S
C3959 C3960 1.366 . S
C3959 C3961 1.388 . S
C3960 C3959 1.366 . S
C3960 C3964 1.385 . S
C3961 H3936 0.951 . S
C3961 C3959 1.388 . S
C3961 C3962 1.366 . S
C3962 C3961 1.366 . S
C3962 C3963 1.414 . S
C3962 C3965 1.499 . S
C3963 H3937 0.950 . S
C3963 C3962 1.414 . S
C3963 C3964 1.374 . S
C3964 H3938 0.950 . S
C3964 C3960 1.385 . S
C3964 C3963 1.374 . S
C3965 C3962 1.499 . S
C3965 C3966 1.373 . S
C3965 C3967 1.389 . S
C3966 H3939 0.950 . S
C3966 C3952 1.377 . S
C3966 C3965 1.373 . S
C3967 C3951 1.377 . S
C3967 C3965 1.389 . S
C3967 C3968 1.524 . S
C3968 C3967 1.524 . S
C3968 C3969 1.397 . S
C3968 C3973 1.363 . S
C3969 H3940 0.950 . S
C3969 C3968 1.397 . S
C3969 C3970 1.334 . S
C3970 H3941 0.950 . S
C3970 C3969 1.334 . S
C3970 C3971 1.287 . S
C3971 C3970 1.287 . S
C3971 C3972 1.524 . S
C3971 H3974 0.999 . S
C3972 H3942 0.950 . S
C3972 C3971 1.524 . S
C3972 C3973 1.415 . S
C3973 H3943 0.950 . S
C3973 C3968 1.363 . S
C3973 C3972 1.415 . S
H3974 C3971 0.999 . S
H3975 C3956 0.913 . S
H3976 C3994 0.951 . S
H3977 C3996 0.951 . S
H3978 C3998 0.950 . S
H3979 C3999 0.950 . S
H3980 C4001 0.950 . S
H3981 C4004 0.950 . S
H3982 C4005 0.950 . S
H3983 C4007 0.950 . S
H3984 C4008 0.950 . S
H3985 C4009 0.951 . S
H3986 C4011 0.951 . S
H3987 C4013 0.950 . S
H3988 C4014 0.950 . S
H3989 C4016 0.950 . S
H3990 C4019 0.950 . S
H3991 C4020 0.950 . S
H3992 C4022 0.950 . S
H3993 C4023 0.950 . S
C3994 H3976 0.951 . S
C3994 C3995 1.366 . S
C3994 C3996 1.388 . S
C3995 C3994 1.366 . S
C3995 C3999 1.385 . S
C3996 H3977 0.951 . S
C3996 C3994 1.388 . S
C3996 C3997 1.366 . S
C3997 C3996 1.366 . S
C3997 C3998 1.414 . S
C3997 C4000 1.499 . S
C3998 H3978 0.950 . S
C3998 C3997 1.414 . S
C3998 C3999 1.374 . S
C3999 H3979 0.950 . S
C3999 C3995 1.385 . S
C3999 C3998 1.374 . S
C4000 C3997 1.499 . S
C4000 C4001 1.373 . S
C4000 C4002 1.389 . S
C4001 H3980 0.950 . S
C4001 C4000 1.373 . S
C4001 C4017 1.377 . S
C4002 C4000 1.389 . S
C4002 C4003 1.524 . S
C4002 C4016 1.377 . S
C4003 C4002 1.524 . S
C4003 C4004 1.397 . S
C4003 C4008 1.363 . S
C4004 H3981 0.950 . S
C4004 C4003 1.397 . S
C4004 C4005 1.334 . S
C4005 H3982 0.950 . S
C4005 C4004 1.334 . S
C4005 C4006 1.287 . S
C4006 C4005 1.287 . S
C4006 C4007 1.524 . S
C4006 H4025 0.913 . S
C4007 H3983 0.950 . S
C4007 C4006 1.524 . S
C4007 C4008 1.415 . S
C4008 H3984 0.950 . S
C4008 C4003 1.363 . S
C4008 C4007 1.415 . S
C4009 H3985 0.951 . S
C4009 C4010 1.366 . S
C4009 C4011 1.388 . S
C4010 C4009 1.366 . S
C4010 C4014 1.385 . S
C4011 H3986 0.951 . S
C4011 C4009 1.388 . S
C4011 C4012 1.366 . S
C4012 C4011 1.366 . S
C4012 C4013 1.414 . S
C4012 C4015 1.499 . S
C4013 H3987 0.950 . S
C4013 C4012 1.414 . S
C4013 C4014 1.374 . S
C4014 H3988 0.950 . S
C4014 C4010 1.385 . S
C4014 C4013 1.374 . S
C4015 C4012 1.499 . S
C4015 C4016 1.373 . S
C4015 C4017 1.389 . S
C4016 H3989 0.950 . S
C4016 C4002 1.377 . S
C4016 C4015 1.373 . S
C4017 C4001 1.377 . S
C4017 C4015 1.389 . S
C4017 C4018 1.524 . S
C4018 C4017 1.524 . S
C4018 C4019 1.397 . S
C4018 C4023 1.363 . S
C4019 H3990 0.950 . S
C4019 C4018 1.397 . S
C4019 C4020 1.334 . S
C4020 H3991 0.950 . S
C4020 C4019 1.334 . S
C4020 C4021 1.287 . S
C4021 C4020 1.287 . S
C4021 C4022 1.524 . S
C4021 H4024 0.999 . S
C4022 H3992 0.950 . S
C4022 C4021 1.524 . S
C4022 C4023 1.415 . S
C4023 H3993 0.950 . S
C4023 C4018 1.363 . S
C4023 C4022 1.415 . S
H4024 C4021 0.999 . S
H4025 C4006 0.913 . S
H4026 C4044 0.951 . S
H4027 C4046 0.951 . S
H4028 C4048 0.950 . S
H4029 C4049 0.950 . S
H4030 C4051 0.950 . S
H4031 C4054 0.950 . S
H4032 C4055 0.950 . S
H4033 C4057 0.950 . S
H4034 C4058 0.950 . S
H4035 C4059 0.951 . S
H4036 C4061 0.951 . S
H4037 C4063 0.950 . S
H4038 C4064 0.950 . S
H4039 C4066 0.950 . S
H4040 C4069 0.950 . S
H4041 C4070 0.950 . S
H4042 C4072 0.950 . S
H4043 C4073 0.950 . S
C4044 H4026 0.951 . S
C4044 C4045 1.366 . S
C4044 C4046 1.388 . S
C4045 C4044 1.366 . S
C4045 C4049 1.385 . S
C4046 H4027 0.951 . S
C4046 C4044 1.388 . S
C4046 C4047 1.366 . S
C4047 C4046 1.366 . S
C4047 C4048 1.414 . S
C4047 C4050 1.499 . S
C4048 H4028 0.950 . S
C4048 C4047 1.414 . S
C4048 C4049 1.374 . S
C4049 H4029 0.950 . S
C4049 C4045 1.385 . S
C4049 C4048 1.374 . S
C4050 C4047 1.499 . S
C4050 C4051 1.373 . S
C4050 C4052 1.389 . S
C4051 H4030 0.950 . S
C4051 C4050 1.373 . S
C4051 C4067 1.377 . S
C4052 C4050 1.389 . S
C4052 C4053 1.524 . S
C4052 C4066 1.377 . S
C4053 C4052 1.524 . S
C4053 C4054 1.397 . S
C4053 C4058 1.363 . S
C4054 H4031 0.950 . S
C4054 C4053 1.397 . S
C4054 C4055 1.334 . S
C4055 H4032 0.950 . S
C4055 C4054 1.334 . S
C4055 C4056 1.287 . S
C4056 C4055 1.287 . S
C4056 C4057 1.524 . S
C4056 H4075 0.913 . S
C4057 H4033 0.950 . S
C4057 C4056 1.524 . S
C4057 C4058 1.415 . S
C4058 H4034 0.950 . S
C4058 C4053 1.363 . S
C4058 C4057 1.415 . S
C4059 H4035 0.951 . S
C4059 C4060 1.366 . S
C4059 C4061 1.388 . S
C4060 C4059 1.366 . S
C4060 C4064 1.385 . S
C4061 H4036 0.951 . S
C4061 C4059 1.388 . S
C4061 C4062 1.366 . S
C4062 C4061 1.366 . S
C4062 C4063 1.414 . S
C4062 C4065 1.499 . S
C4063 H4037 0.950 . S
C4063 C4062 1.414 . S
C4063 C4064 1.374 . S
C4064 H4038 0.950 . S
C4064 C4060 1.385 . S
C4064 C4063 1.374 . S
C4065 C4062 1.499 . S
C4065 C4066 1.373 . S
C4065 C4067 1.389 . S
C4066 H4039 0.950 . S
C4066 C4052 1.377 . S
C4066 C4065 1.373 . S
C4067 C4051 1.377 . S
C4067 C4065 1.389 . S
C4067 C4068 1.524 . S
C4068 C4067 1.524 . S
C4068 C4069 1.397 . S
C4068 C4073 1.363 . S
C4069 H4040 0.950 . S
C4069 C4068 1.397 . S
C4069 C4070 1.334 . S
C4070 H4041 0.950 . S
C4070 C4069 1.334 . S
C4070 C4071 1.287 . S
C4071 C4070 1.287 . S
C4071 C4072 1.524 . S
C4071 H4074 0.999 . S
C4072 H4042 0.950 . S
C4072 C4071 1.524 . S
C4072 C4073 1.415 . S
C4073 H4043 0.950 . S
C4073 C4068 1.363 . S
C4073 C4072 1.415 . S
H4074 C4071 0.999 . S
H4075 C4056 0.913 . S
H4076 C4094 0.951 . S
H4077 C4096 0.951 . S
H4078 C4098 0.950 . S
H4079 C4099 0.950 . S
H4080 C4101 0.950 . S
H4081 C4104 0.950 . S
H4082 C4105 0.950 . S
H4083 C4107 0.950 . S
H4084 C4108 0.950 . S
H4085 C4109 0.951 . S
H4086 C4111 0.951 . S
H4087 C4113 0.950 . S
H4088 C4114 0.950 . S
H4089 C4116 0.950 . S
H4090 C4119 0.950 . S
H4091 C4120 0.950 . S
H4092 C4122 0.950 . S
H4093 C4123 0.950 . S
C4094 H4076 0.951 . S
C4094 C4095 1.366 . S
C4094 C4096 1.388 . S
C4095 C4094 1.366 . S
C4095 C4099 1.385 . S
C4096 H4077 0.951 . S
C4096 C4094 1.388 . S
C4096 C4097 1.366 . S
C4097 C4096 1.366 . S
C4097 C4098 1.414 . S
C4097 C4100 1.499 . S
C4098 H4078 0.950 . S
C4098 C4097 1.414 . S
C4098 C4099 1.374 . S
C4099 H4079 0.950 . S
C4099 C4095 1.385 . S
C4099 C4098 1.374 . S
C4100 C4097 1.499 . S
C4100 C4101 1.373 . S
C4100 C4102 1.389 . S
C4101 H4080 0.950 . S
C4101 C4100 1.373 . S
C4101 C4117 1.377 . S
C4102 C4100 1.389 . S
C4102 C4103 1.524 . S
C4102 C4116 1.377 . S
C4103 C4102 1.524 . S
C4103 C4104 1.397 . S
C4103 C4108 1.363 . S
C4104 H4081 0.950 . S
C4104 C4103 1.397 . S
C4104 C4105 1.334 . S
C4105 H4082 0.950 . S
C4105 C4104 1.334 . S
C4105 C4106 1.287 . S
C4106 C4105 1.287 . S
C4106 C4107 1.524 . S
C4106 H4125 0.913 . S
C4107 H4083 0.950 . S
C4107 C4106 1.524 . S
C4107 C4108 1.415 . S
C4108 H4084 0.950 . S
C4108 C4103 1.363 . S
C4108 C4107 1.415 . S
C4109 H4085 0.951 . S
C4109 C4110 1.366 . S
C4109 C4111 1.388 . S
C4110 C4109 1.366 . S
C4110 C4114 1.385 . S
C4111 H4086 0.951 . S
C4111 C4109 1.388 . S
C4111 C4112 1.366 . S
C4112 C4111 1.366 . S
C4112 C4113 1.414 . S
C4112 C4115 1.499 . S
C4113 H4087 0.950 . S
C4113 C4112 1.414 . S
C4113 C4114 1.374 . S
C4114 H4088 0.950 . S
C4114 C4110 1.385 . S
C4114 C4113 1.374 . S
C4115 C4112 1.499 . S
C4115 C4116 1.373 . S
C4115 C4117 1.389 . S
C4116 H4089 0.950 . S
C4116 C4102 1.377 . S
C4116 C4115 1.373 . S
C4117 C4101 1.377 . S
C4117 C4115 1.389 . S
C4117 C4118 1.524 . S
C4118 C4117 1.524 . S
C4118 C4119 1.397 . S
C4118 C4123 1.363 . S
C4119 H4090 0.950 . S
C4119 C4118 1.397 . S
C4119 C4120 1.334 . S
C4120 H4091 0.950 . S
C4120 C4119 1.334 . S
C4120 C4121 1.287 . S
C4121 C4120 1.287 . S
C4121 C4122 1.524 . S
C4121 H4124 0.999 . S
C4122 H4092 0.950 . S
C4122 C4121 1.524 . S
C4122 C4123 1.415 . S
C4123 H4093 0.950 . S
C4123 C4118 1.363 . S
C4123 C4122 1.415 . S
H4124 C4121 0.999 . S
H4125 C4106 0.913 . S
H4126 C4144 0.951 . S
H4127 C4146 0.951 . S
H4128 C4148 0.950 . S
H4129 C4149 0.950 . S
H4130 C4151 0.950 . S
H4131 C4154 0.950 . S
H4132 C4155 0.950 . S
H4133 C4157 0.950 . S
H4134 C4158 0.950 . S
H4135 C4159 0.951 . S
H4136 C4161 0.951 . S
H4137 C4163 0.950 . S
H4138 C4164 0.950 . S
H4139 C4166 0.950 . S
H4140 C4169 0.950 . S
H4141 C4170 0.950 . S
H4142 C4172 0.950 . S
H4143 C4173 0.950 . S
C4144 H4126 0.951 . S
C4144 C4145 1.366 . S
C4144 C4146 1.388 . S
C4145 C4144 1.366 . S
C4145 C4149 1.385 . S
C4146 H4127 0.951 . S
C4146 C4144 1.388 . S
C4146 C4147 1.366 . S
C4147 C4146 1.366 . S
C4147 C4148 1.414 . S
C4147 C4150 1.499 . S
C4148 H4128 0.950 . S
C4148 C4147 1.414 . S
C4148 C4149 1.374 . S
C4149 H4129 0.950 . S
C4149 C4145 1.385 . S
C4149 C4148 1.374 . S
C4150 C4147 1.499 . S
C4150 C4151 1.373 . S
C4150 C4152 1.389 . S
C4151 H4130 0.950 . S
C4151 C4150 1.373 . S
C4151 C4167 1.377 . S
C4152 C4150 1.389 . S
C4152 C4153 1.524 . S
C4152 C4166 1.377 . S
C4153 C4152 1.524 . S
C4153 C4154 1.397 . S
C4153 C4158 1.363 . S
C4154 H4131 0.950 . S
C4154 C4153 1.397 . S
C4154 C4155 1.334 . S
C4155 H4132 0.950 . S
C4155 C4154 1.334 . S
C4155 C4156 1.287 . S
C4156 C4155 1.287 . S
C4156 C4157 1.524 . S
C4156 H4175 0.913 . S
C4157 H4133 0.950 . S
C4157 C4156 1.524 . S
C4157 C4158 1.415 . S
C4158 H4134 0.950 . S
C4158 C4153 1.363 . S
C4158 C4157 1.415 . S
C4159 H4135 0.951 . S
C4159 C4160 1.366 . S
C4159 C4161 1.388 . S
C4160 C4159 1.366 . S
C4160 C4164 1.385 . S
C4161 H4136 0.951 . S
C4161 C4159 1.388 . S
C4161 C4162 1.366 . S
C4162 C4161 1.366 . S
C4162 C4163 1.414 . S
C4162 C4165 1.499 . S
C4163 H4137 0.950 . S
C4163 C4162 1.414 . S
C4163 C4164 1.374 . S
C4164 H4138 0.950 . S
C4164 C4160 1.385 . S
C4164 C4163 1.374 . S
C4165 C4162 1.499 . S
C4165 C4166 1.373 . S
C4165 C4167 1.389 . S
C4166 H4139 0.950 . S
C4166 C4152 1.377 . S
C4166 C4165 1.373 . S
C4167 C4151 1.377 . S
C4167 C4165 1.389 . S
C4167 C4168 1.524 . S
C4168 C4167 1.524 . S
C4168 C4169 1.397 . S
C4168 C4173 1.363 . S
C4169 H4140 0.950 . S
C4169 C4168 1.397 . S
C4169 C4170 1.334 . S
C4170 H4141 0.950 . S
C4170 C4169 1.334 . S
C4170 C4171 1.287 . S
C4171 C4170 1.287 . S
C4171 C4172 1.524 . S
C4171 H4174 0.999 . S
C4172 H4142 0.950 . S
C4172 C4171 1.524 . S
C4172 C4173 1.415 . S
C4173 H4143 0.950 . S
C4173 C4168 1.363 . S
C4173 C4172 1.415 . S
H4174 C4171 0.999 . S
H4175 C4156 0.913 . S
H4176 C4194 0.951 . S
H4177 C4196 0.951 . S
H4178 C4198 0.950 . S
H4179 C4199 0.950 . S
H4180 C4201 0.950 . S
H4181 C4204 0.950 . S
H4182 C4205 0.950 . S
H4183 C4207 0.950 . S
H4184 C4208 0.950 . S
H4185 C4209 0.951 . S
H4186 C4211 0.951 . S
H4187 C4213 0.950 . S
H4188 C4214 0.950 . S
H4189 C4216 0.950 . S
H4190 C4219 0.950 . S
H4191 C4220 0.950 . S
H4192 C4222 0.950 . S
H4193 C4223 0.950 . S
C4194 H4176 0.951 . S
C4194 C4195 1.366 . S
C4194 C4196 1.388 . S
C4195 C4194 1.366 . S
C4195 C4199 1.385 . S
C4196 H4177 0.951 . S
C4196 C4194 1.388 . S
C4196 C4197 1.366 . S
C4197 C4196 1.366 . S
C4197 C4198 1.414 . S
C4197 C4200 1.499 . S
C4198 H4178 0.950 . S
C4198 C4197 1.414 . S
C4198 C4199 1.374 . S
C4199 H4179 0.950 . S
C4199 C4195 1.385 . S
C4199 C4198 1.374 . S
C4200 C4197 1.499 . S
C4200 C4201 1.373 . S
C4200 C4202 1.389 . S
C4201 H4180 0.950 . S
C4201 C4200 1.373 . S
C4201 C4217 1.377 . S
C4202 C4200 1.389 . S
C4202 C4203 1.524 . S
C4202 C4216 1.377 . S
C4203 C4202 1.524 . S
C4203 C4204 1.397 . S
C4203 C4208 1.363 . S
C4204 H4181 0.950 . S
C4204 C4203 1.397 . S
C4204 C4205 1.334 . S
C4205 H4182 0.950 . S
C4205 C4204 1.334 . S
C4205 C4206 1.287 . S
C4206 C4205 1.287 . S
C4206 C4207 1.524 . S
C4206 H4225 0.913 . S
C4207 H4183 0.950 . S
C4207 C4206 1.524 . S
C4207 C4208 1.415 . S
C4208 H4184 0.950 . S
C4208 C4203 1.363 . S
C4208 C4207 1.415 . S
C4209 H4185 0.951 . S
C4209 C4210 1.366 . S
C4209 C4211 1.388 . S
C4210 C4209 1.366 . S
C4210 C4214 1.385 . S
C4211 H4186 0.951 . S
C4211 C4209 1.388 . S
C4211 C4212 1.366 . S
C4212 C4211 1.366 . S
C4212 C4213 1.414 . S
C4212 C4215 1.499 . S
C4213 H4187 0.950 . S
C4213 C4212 1.414 . S
C4213 C4214 1.374 . S
C4214 H4188 0.950 . S
C4214 C4210 1.385 . S
C4214 C4213 1.374 . S
C4215 C4212 1.499 . S
C4215 C4216 1.373 . S
C4215 C4217 1.389 . S
C4216 H4189 0.950 . S
C4216 C4202 1.377 . S
C4216 C4215 1.373 . S
C4217 C4201 1.377 . S
C4217 C4215 1.389 . S
C4217 C4218 1.524 . S
C4218 C4217 1.524 . S
C4218 C4219 1.397 . S
C4218 C4223 1.363 . S
C4219 H4190 0.950 . S
C4219 C4218 1.397 . S
C4219 C4220 1.334 . S
C4220 H4191 0.950 . S
C4220 C4219 1.334 . S
C4220 C4221 1.287 . S
C4221 C4220 1.287 . S
C4221 C4222 1.524 . S
C4221 H4224 0.999 . S
C4222 H4192 0.950 . S
C4222 C4221 1.524 . S
C4222 C4223 1.415 . S
C4223 H4193 0.950 . S
C4223 C4218 1.363 . S
C4223 C4222 1.415 . S
H4224 C4221 0.999 . S
H4225 C4206 0.913 . S
H4226 C4244 0.951 . S
H4227 C4246 0.951 . S
H4228 C4248 0.950 . S
H4229 C4249 0.950 . S
H4230 C4251 0.950 . S
H4231 C4254 0.950 . S
H4232 C4255 0.950 . S
H4233 C4257 0.950 . S
H4234 C4258 0.950 . S
H4235 C4259 0.951 . S
H4236 C4261 0.951 . S
H4237 C4263 0.950 . S
H4238 C4264 0.950 . S
H4239 C4266 0.950 . S
H4240 C4269 0.950 . S
H4241 C4270 0.950 . S
H4242 C4272 0.950 . S
H4243 C4273 0.950 . S
C4244 H4226 0.951 . S
C4244 C4245 1.366 . S
C4244 C4246 1.388 . S
C4245 C4244 1.366 . S
C4245 C4249 1.385 . S
C4246 H4227 0.951 . S
C4246 C4244 1.388 . S
C4246 C4247 1.366 . S
C4247 C4246 1.366 . S
C4247 C4248 1.414 . S
C4247 C4250 1.499 . S
C4248 H4228 0.950 . S
C4248 C4247 1.414 . S
C4248 C4249 1.374 . S
C4249 H4229 0.950 . S
C4249 C4245 1.385 . S
C4249 C4248 1.374 . S
C4250 C4247 1.499 . S
C4250 C4251 1.373 . S
C4250 C4252 1.389 . S
C4251 H4230 0.950 . S
C4251 C4250 1.373 . S
C4251 C4267 1.377 . S
C4252 C4250 1.389 . S
C4252 C4253 1.524 . S
C4252 C4266 1.377 . S
C4253 C4252 1.524 . S
C4253 C4254 1.397 . S
C4253 C4258 1.363 . S
C4254 H4231 0.950 . S
C4254 C4253 1.397 . S
C4254 C4255 1.334 . S
C4255 H4232 0.950 . S
C4255 C4254 1.334 . S
C4255 C4256 1.287 . S
C4256 C4255 1.287 . S
C4256 C4257 1.524 . S
C4256 H4275 0.913 . S
C4257 H4233 0.950 . S
C4257 C4256 1.524 . S
C4257 C4258 1.415 . S
C4258 H4234 0.950 . S
C4258 C4253 1.363 . S
C4258 C4257 1.415 . S
C4259 H4235 0.951 . S
C4259 C4260 1.366 . S
C4259 C4261 1.388 . S
C4260 C4259 1.366 . S
C4260 C4264 1.385 . S
C4261 H4236 0.951 . S
C4261 C4259 1.388 . S
C4261 C4262 1.366 . S
C4262 C4261 1.366 . S
C4262 C4263 1.414 . S
C4262 C4265 1.499 . S
C4263 H4237 0.950 . S
C4263 C4262 1.414 . S
C4263 C4264 1.374 . S
C4264 H4238 0.950 . S
C4264 C4260 1.385 . S
C4264 C4263 1.374 . S
C4265 C4262 1.499 . S
C4265 C4266 1.373 . S
C4265 C4267 1.389 . S
C4266 H4239 0.950 . S
C4266 C4252 1.377 . S
C4266 C4265 1.373 . S
C4267 C4251 1.377 . S
C4267 C4265 1.389 . S
C4267 C4268 1.524 . S
C4268 C4267 1.524 . S
C4268 C4269 1.397 . S
C4268 C4273 1.363 . S
C4269 H4240 0.950 . S
C4269 C4268 1.397 . S
C4269 C4270 1.334 . S
C4270 H4241 0.950 . S
C4270 C4269 1.334 . S
C4270 C4271 1.287 . S
C4271 C4270 1.287 . S
C4271 C4272 1.524 . S
C4271 H4274 0.999 . S
C4272 H4242 0.950 . S
C4272 C4271 1.524 . S
C4272 C4273 1.415 . S
C4273 H4243 0.950 . S
C4273 C4268 1.363 . S
C4273 C4272 1.415 . S
H4274 C4271 0.999 . S
H4275 C4256 0.913 . S
H4276 C4294 0.951 . S
H4277 C4296 0.951 . S
H4278 C4298 0.950 . S
H4279 C4299 0.950 . S
H4280 C4301 0.950 . S
H4281 C4304 0.950 . S
H4282 C4305 0.950 . S
H4283 C4307 0.950 . S
H4284 C4308 0.950 . S
H4285 C4309 0.951 . S
H4286 C4311 0.951 . S
H4287 C4313 0.950 . S
H4288 C4314 0.950 . S
H4289 C4316 0.950 . S
H4290 C4319 0.950 . S
H4291 C4320 0.954 . S
H4292 C4322 0.950 . S
H4293 C4323 0.950 . S
C4294 H4276 0.951 . S
C4294 C4295 1.366 . S
C4294 C4296 1.388 . S
C4295 C4294 1.366 . S
C4295 C4299 1.385 . S
C4296 H4277 0.951 . S
C4296 C4294 1.388 . S
C4296 C4297 1.366 . S
C4297 C4296 1.366 . S
C4297 C4298 1.414 . S
C4297 C4300 1.499 1_545 S
C4298 H4278 0.950 . S
C4298 C4297 1.414 . S
C4298 C4299 1.374 . S
C4299 H4279 0.950 . S
C4299 C4295 1.385 . S
C4299 C4298 1.374 . S
C4300 C4297 1.499 1_565 S
C4300 C4301 1.373 1_565 S
C4300 C4302 1.389 . S
C4301 H4280 0.950 . S
C4301 C4300 1.373 1_545 S
C4301 C4317 1.377 1_545 S
C4302 C4300 1.389 . S
C4302 C4303 1.524 . S
C4302 C4316 1.377 . S
C4303 C4302 1.524 . S
C4303 C4304 1.397 . S
C4303 C4308 1.363 . S
C4304 H4281 0.950 . S
C4304 C4303 1.397 . S
C4304 C4305 1.334 . S
C4305 H4282 0.950 . S
C4305 C4304 1.334 . S
C4305 C4306 1.287 . S
C4306 C4305 1.287 . S
C4306 C4307 1.524 . S
C4306 H4325 0.913 . S
C4307 H4283 0.950 . S
C4307 C4306 1.524 . S
C4307 C4308 1.415 . S
C4308 H4284 0.950 . S
C4308 C4303 1.363 . S
C4308 C4307 1.415 . S
C4309 H4285 0.951 . S
C4309 C4310 1.366 . S
C4309 C4311 1.388 . S
C4310 C4309 1.366 . S
C4310 C4314 1.385 . S
C4311 H4286 0.951 . S
C4311 C4309 1.388 . S
C4311 C4312 1.366 . S
C4312 C4311 1.366 . S
C4312 C4313 1.414 . S
C4312 C4315 1.499 . S
C4313 H4287 0.950 . S
C4313 C4312 1.414 . S
C4313 C4314 1.374 . S
C4314 H4288 0.950 . S
C4314 C4310 1.385 . S
C4314 C4313 1.374 . S
C4315 C4312 1.499 . S
C4315 C4316 1.373 . S
C4315 C4317 1.389 . S
C4316 H4289 0.950 . S
C4316 C4302 1.377 . S
C4316 C4315 1.373 . S
C4317 C4301 1.377 1_565 S
C4317 C4315 1.389 . S
C4317 C4318 1.534 . S
C4318 C4317 1.534 . S
C4318 C4319 1.406 . S
C4318 C4323 1.342 1_565 S
C4319 H4290 0.950 . S
C4319 C4318 1.406 . S
C4319 C4320 1.337 . S
C4320 H4291 0.954 . S
C4320 C4319 1.337 . S
C4320 C4321 1.281 1_565 S
C4321 C4320 1.281 1_545 S
C4321 C4322 1.524 . S
C4321 H4324 0.999 . S
C4322 H4292 0.950 . S
C4322 C4321 1.524 . S
C4322 C4323 1.415 . S
C4323 H4293 0.950 . S
C4323 C4318 1.342 1_545 S
C4323 C4322 1.415 . S
H4324 C4321 0.999 . S
H4325 C4306 0.913 . S
H4326 C4344 0.951 . S
H4327 C4346 0.951 1_545 S
H4328 C4348 0.950 . S
H4329 C4349 0.950 . S
H4330 C4351 0.950 . S
H4331 C4354 0.950 . S
H4332 C4355 0.950 . S
H4333 C4357 0.950 . S
H4334 C4358 0.950 . S
H4335 C4359 0.951 . S
H4336 C4361 0.951 . S
H4337 C4363 0.950 . S
H4338 C4364 0.950 . S
H4339 C4366 0.950 . S
H4340 C4369 0.950 1_545 S
H4341 C4370 0.950 . S
H4342 C4372 0.950 . S
H4343 C4373 0.950 . S
C4344 H4326 0.951 . S
C4344 C4345 1.366 . S
C4344 C4346 1.388 . S
C4345 C4344 1.366 . S
C4345 C4349 1.385 . S
C4346 H4327 0.951 1_565 S
C4346 C4344 1.388 . S
C4346 C4347 1.366 . S
C4347 C4346 1.366 . S
C4347 C4348 1.414 . S
C4347 C4350 1.499 . S
C4348 H4328 0.950 . S
C4348 C4347 1.414 . S
C4348 C4349 1.374 . S
C4349 H4329 0.950 . S
C4349 C4345 1.385 . S
C4349 C4348 1.374 . S
C4350 C4347 1.499 . S
C4350 C4351 1.373 . S
C4350 C4352 1.389 1_565 S
C4351 H4330 0.950 . S
C4351 C4350 1.373 . S
C4351 C4367 1.377 . S
C4352 C4350 1.389 1_545 S
C4352 C4353 1.524 . S
C4352 C4366 1.377 . S
C4353 C4352 1.524 . S
C4353 C4354 1.397 . S
C4353 C4358 1.363 . S
C4354 H4331 0.950 . S
C4354 C4353 1.397 . S
C4354 C4355 1.334 . S
C4355 H4332 0.950 . S
C4355 C4354 1.334 . S
C4355 C4356 1.287 . S
C4356 C4355 1.287 . S
C4356 C4357 1.524 . S
C4356 H4375 0.913 . S
C4357 H4333 0.950 . S
C4357 C4356 1.524 . S
C4357 C4358 1.415 . S
C4358 H4334 0.950 . S
C4358 C4353 1.363 . S
C4358 C4357 1.415 . S
C4359 H4335 0.951 . S
C4359 C4360 1.366 . S
C4359 C4361 1.388 . S
C4360 C4359 1.366 . S
C4360 C4364 1.385 . S
C4361 H4336 0.951 . S
C4361 C4359 1.388 . S
C4361 C4362 1.366 . S
C4362 C4361 1.366 . S
C4362 C4363 1.414 . S
C4362 C4365 1.499 . S
C4363 H4337 0.950 . S
C4363 C4362 1.414 . S
C4363 C4364 1.374 . S
C4364 H4338 0.950 . S
C4364 C4360 1.385 . S
C4364 C4363 1.374 . S
C4365 C4362 1.499 . S
C4365 C4366 1.373 . S
C4365 C4367 1.389 1_545 S
C4366 H4339 0.950 . S
C4366 C4352 1.377 . S
C4366 C4365 1.373 . S
C4367 C4351 1.377 . S
C4367 C4365 1.389 1_565 S
C4367 C4368 1.524 . S
C4368 C4367 1.524 . S
C4368 C4369 1.397 . S
C4368 C4373 1.363 . S
C4369 H4340 0.950 1_565 S
C4369 C4368 1.397 . S
C4369 C4370 1.334 . S
C4370 H4341 0.950 . S
C4370 C4369 1.334 . S
C4370 C4371 1.287 . S
C4371 C4370 1.287 . S
C4371 C4372 1.524 . S
C4371 H4374 0.999 . S
C4372 H4342 0.950 . S
C4372 C4371 1.524 . S
C4372 C4373 1.415 . S
C4373 H4343 0.950 . S
C4373 C4368 1.363 . S
C4373 C4372 1.415 . S
H4374 C4371 0.999 . S
H4375 C4356 0.913 . S
H4376 C4394 0.951 . S
H4377 C4396 0.951 . S
H4378 C4398 0.950 . S
H4379 C4399 0.950 . S
H4380 C4401 0.950 . S
H4381 C4404 0.950 . S
H4382 C4405 0.950 . S
H4383 C4407 0.950 . S
H4384 C4408 0.950 . S
H4385 C4409 0.951 . S
H4386 C4411 0.951 . S
H4387 C4413 0.950 . S
H4388 C4414 0.950 . S
H4389 C4416 0.950 . S
H4390 C4419 0.950 . S
H4391 C4420 0.950 . S
H4392 C4422 0.950 . S
H4393 C4423 0.950 . S
C4394 H4376 0.951 . S
C4394 C4395 1.366 . S
C4394 C4396 1.388 . S
C4395 C4394 1.366 . S
C4395 C4399 1.385 . S
C4396 H4377 0.951 . S
C4396 C4394 1.388 . S
C4396 C4397 1.366 . S
C4397 C4396 1.366 . S
C4397 C4398 1.414 . S
C4397 C4400 1.499 . S
C4398 H4378 0.950 . S
C4398 C4397 1.414 . S
C4398 C4399 1.374 . S
C4399 H4379 0.950 . S
C4399 C4395 1.385 . S
C4399 C4398 1.374 . S
C4400 C4397 1.499 . S
C4400 C4401 1.373 . S
C4400 C4402 1.389 . S
C4401 H4380 0.950 . S
C4401 C4400 1.373 . S
C4401 C4417 1.377 . S
C4402 C4400 1.389 . S
C4402 C4403 1.524 . S
C4402 C4416 1.377 . S
C4403 C4402 1.524 . S
C4403 C4404 1.397 . S
C4403 C4408 1.363 . S
C4404 H4381 0.950 . S
C4404 C4403 1.397 . S
C4404 C4405 1.334 . S
C4405 H4382 0.950 . S
C4405 C4404 1.334 . S
C4405 C4406 1.287 . S
C4406 C4405 1.287 . S
C4406 C4407 1.524 . S
C4406 H4425 0.913 . S
C4407 H4383 0.950 . S
C4407 C4406 1.524 . S
C4407 C4408 1.415 . S
C4408 H4384 0.950 . S
C4408 C4403 1.363 . S
C4408 C4407 1.415 . S
C4409 H4385 0.951 . S
C4409 C4410 1.366 . S
C4409 C4411 1.388 . S
C4410 C4409 1.366 . S
C4410 C4414 1.385 . S
C4411 H4386 0.951 . S
C4411 C4409 1.388 . S
C4411 C4412 1.366 . S
C4412 C4411 1.366 . S
C4412 C4413 1.414 . S
C4412 C4415 1.499 . S
C4413 H4387 0.950 . S
C4413 C4412 1.414 . S
C4413 C4414 1.374 . S
C4414 H4388 0.950 . S
C4414 C4410 1.385 . S
C4414 C4413 1.374 . S
C4415 C4412 1.499 . S
C4415 C4416 1.373 . S
C4415 C4417 1.389 . S
C4416 H4389 0.950 . S
C4416 C4402 1.377 . S
C4416 C4415 1.373 . S
C4417 C4401 1.377 . S
C4417 C4415 1.389 . S
C4417 C4418 1.524 . S
C4418 C4417 1.524 . S
C4418 C4419 1.397 . S
C4418 C4423 1.363 . S
C4419 H4390 0.950 . S
C4419 C4418 1.397 . S
C4419 C4420 1.334 . S
C4420 H4391 0.950 . S
C4420 C4419 1.334 . S
C4420 C4421 1.287 . S
C4421 C4420 1.287 . S
C4421 C4422 1.524 . S
C4421 H4424 0.999 . S
C4422 H4392 0.950 . S
C4422 C4421 1.524 . S
C4422 C4423 1.415 . S
C4423 H4393 0.950 . S
C4423 C4418 1.363 . S
C4423 C4422 1.415 . S
H4424 C4421 0.999 . S
H4425 C4406 0.913 . S
H4426 C4444 0.951 . S
H4427 C4446 0.951 . S
H4428 C4448 0.950 . S
H4429 C4449 0.950 . S
H4430 C4451 0.950 . S
H4431 C4454 0.950 . S
H4432 C4455 0.950 . S
H4433 C4457 0.950 . S
H4434 C4458 0.950 . S
H4435 C4459 0.951 . S
H4436 C4461 0.951 . S
H4437 C4463 0.950 . S
H4438 C4464 0.950 . S
H4439 C4466 0.950 . S
H4440 C4469 0.950 . S
H4441 C4470 0.950 . S
H4442 C4472 0.950 . S
H4443 C4473 0.950 . S
C4444 H4426 0.951 . S
C4444 C4445 1.366 . S
C4444 C4446 1.388 . S
C4445 C4444 1.366 . S
C4445 C4449 1.385 . S
C4446 H4427 0.951 . S
C4446 C4444 1.388 . S
C4446 C4447 1.366 . S
C4447 C4446 1.366 . S
C4447 C4448 1.414 . S
C4447 C4450 1.499 . S
C4448 H4428 0.950 . S
C4448 C4447 1.414 . S
C4448 C4449 1.374 . S
C4449 H4429 0.950 . S
C4449 C4445 1.385 . S
C4449 C4448 1.374 . S
C4450 C4447 1.499 . S
C4450 C4451 1.373 . S
C4450 C4452 1.389 . S
C4451 H4430 0.950 . S
C4451 C4450 1.373 . S
C4451 C4467 1.377 . S
C4452 C4450 1.389 . S
C4452 C4453 1.524 . S
C4452 C4466 1.377 . S
C4453 C4452 1.524 . S
C4453 C4454 1.397 . S
C4453 C4458 1.363 . S
C4454 H4431 0.950 . S
C4454 C4453 1.397 . S
C4454 C4455 1.334 . S
C4455 H4432 0.950 . S
C4455 C4454 1.334 . S
C4455 C4456 1.287 . S
C4456 C4455 1.287 . S
C4456 C4457 1.524 . S
C4456 H4475 0.913 . S
C4457 H4433 0.950 . S
C4457 C4456 1.524 . S
C4457 C4458 1.415 . S
C4458 H4434 0.950 . S
C4458 C4453 1.363 . S
C4458 C4457 1.415 . S
C4459 H4435 0.951 . S
C4459 C4460 1.366 . S
C4459 C4461 1.388 . S
C4460 C4459 1.366 . S
C4460 C4464 1.385 . S
C4461 H4436 0.951 . S
C4461 C4459 1.388 . S
C4461 C4462 1.366 . S
C4462 C4461 1.366 . S
C4462 C4463 1.414 . S
C4462 C4465 1.499 . S
C4463 H4437 0.950 . S
C4463 C4462 1.414 . S
C4463 C4464 1.374 . S
C4464 H4438 0.950 . S
C4464 C4460 1.385 . S
C4464 C4463 1.374 . S
C4465 C4462 1.499 . S
C4465 C4466 1.373 . S
C4465 C4467 1.389 . S
C4466 H4439 0.950 . S
C4466 C4452 1.377 . S
C4466 C4465 1.373 . S
C4467 C4451 1.377 . S
C4467 C4465 1.389 . S
C4467 C4468 1.524 . S
C4468 C4467 1.524 . S
C4468 C4469 1.397 . S
C4468 C4473 1.363 . S
C4469 H4440 0.950 . S
C4469 C4468 1.397 . S
C4469 C4470 1.334 1_554 S
C4470 H4441 0.950 . S
C4470 C4469 1.334 1_556 S
C4470 C4471 1.287 . S
C4471 C4470 1.287 . S
C4471 C4472 1.524 . S
C4471 H4474 0.999 . S
C4472 H4442 0.950 . S
C4472 C4471 1.524 . S
C4472 C4473 1.415 1_556 S
C4473 H4443 0.950 . S
C4473 C4468 1.363 . S
C4473 C4472 1.415 1_554 S
H4474 C4471 0.999 . S
H4475 C4456 0.913 . S
H4476 C4494 0.951 . S
H4477 C4496 0.951 . S
H4478 C4498 0.950 . S
H4479 C4499 0.950 . S
H4480 C4501 0.950 . S
H4481 C4504 0.950 . S
H4482 C4505 0.950 . S
H4483 C4507 0.950 . S
H4484 C4508 0.950 . S
H4485 C4509 0.951 . S
H4486 C4511 0.951 . S
H4487 C4513 0.950 . S
H4488 C4514 0.950 . S
H4489 C4516 0.950 . S
H4490 C4519 0.950 . S
H4491 C4520 0.950 . S
H4492 C4522 0.950 . S
H4493 C4523 0.950 . S
C4494 H4476 0.951 . S
C4494 C4495 1.366 . S
C4494 C4496 1.388 . S
C4495 C4494 1.366 . S
C4495 C4499 1.385 . S
C4496 H4477 0.951 . S
C4496 C4494 1.388 . S
C4496 C4497 1.366 . S
C4497 C4496 1.366 . S
C4497 C4498 1.414 . S
C4497 C4500 1.499 . S
C4498 H4478 0.950 . S
C4498 C4497 1.414 . S
C4498 C4499 1.374 . S
C4499 H4479 0.950 . S
C4499 C4495 1.385 . S
C4499 C4498 1.374 . S
C4500 C4497 1.499 . S
C4500 C4501 1.373 . S
C4500 C4502 1.389 . S
C4501 H4480 0.950 . S
C4501 C4500 1.373 . S
C4501 C4517 1.377 . S
C4502 C4500 1.389 . S
C4502 C4503 1.524 . S
C4502 C4516 1.377 . S
C4503 C4502 1.524 . S
C4503 C4504 1.397 . S
C4503 C4508 1.363 . S
C4504 H4481 0.950 . S
C4504 C4503 1.397 . S
C4504 C4505 1.334 . S
C4505 H4482 0.950 . S
C4505 C4504 1.334 . S
C4505 C4506 1.287 . S
C4506 C4505 1.287 . S
C4506 C4507 1.524 . S
C4506 H4525 0.913 . S
C4507 H4483 0.950 . S
C4507 C4506 1.524 . S
C4507 C4508 1.415 . S
C4508 H4484 0.950 . S
C4508 C4503 1.363 . S
C4508 C4507 1.415 . S
C4509 H4485 0.951 . S
C4509 C4510 1.366 . S
C4509 C4511 1.388 . S
C4510 C4509 1.366 . S
C4510 C4514 1.385 . S
C4511 H4486 0.951 . S
C4511 C4509 1.388 . S
C4511 C4512 1.366 . S
C4512 C4511 1.366 . S
C4512 C4513 1.414 . S
C4512 C4515 1.499 . S
C4513 H4487 0.950 . S
C4513 C4512 1.414 . S
C4513 C4514 1.374 . S
C4514 H4488 0.950 . S
C4514 C4510 1.385 . S
C4514 C4513 1.374 . S
C4515 C4512 1.499 . S
C4515 C4516 1.373 . S
C4515 C4517 1.389 . S
C4516 H4489 0.950 . S
C4516 C4502 1.377 . S
C4516 C4515 1.373 . S
C4517 C4501 1.377 . S
C4517 C4515 1.389 . S
C4517 C4518 1.524 . S
C4518 C4517 1.524 . S
C4518 C4519 1.397 . S
C4518 C4523 1.363 . S
C4519 H4490 0.950 . S
C4519 C4518 1.397 . S
C4519 C4520 1.334 . S
C4520 H4491 0.950 . S
C4520 C4519 1.334 . S
C4520 C4521 1.287 . S
C4521 C4520 1.287 . S
C4521 C4522 1.524 . S
C4521 H4524 0.999 . S
C4522 H4492 0.950 . S
C4522 C4521 1.524 . S
C4522 C4523 1.415 . S
C4523 H4493 0.950 . S
C4523 C4518 1.363 . S
C4523 C4522 1.415 . S
H4524 C4521 0.999 . S
H4525 C4506 0.913 . S
H4526 C4544 0.951 . S
H4527 C4546 0.951 . S
H4528 C4548 0.950 . S
H4529 C4549 0.950 . S
H4530 C4551 0.950 . S
H4531 C4554 0.950 . S
H4532 C4555 0.950 . S
H4533 C4557 0.950 . S
H4534 C4558 0.950 . S
H4535 C4559 0.951 . S
H4536 C4561 0.951 . S
H4537 C4563 0.950 . S
H4538 C4564 0.950 . S
H4539 C4566 0.950 1_565 S
H4540 C4569 0.938 1_565 S
H4541 C4570 0.950 . S
H4542 C4572 0.950 . S
H4543 C4573 0.950 . S
C4544 H4526 0.951 . S
C4544 C4545 1.366 . S
C4544 C4546 1.388 . S
C4545 C4544 1.366 . S
C4545 C4549 1.385 . S
C4546 H4527 0.951 . S
C4546 C4544 1.388 . S
C4546 C4547 1.366 . S
C4547 C4546 1.366 . S
C4547 C4548 1.414 . S
C4547 C4550 1.499 . S
C4548 H4528 0.950 . S
C4548 C4547 1.414 . S
C4548 C4549 1.374 . S
C4549 H4529 0.950 . S
C4549 C4545 1.385 . S
C4549 C4548 1.374 . S
C4550 C4547 1.499 . S
C4550 C4551 1.373 . S
C4550 C4552 1.389 . S
C4551 H4530 0.950 . S
C4551 C4550 1.373 . S
C4551 C4567 1.377 . S
C4552 C4550 1.389 . S
C4552 C4553 1.524 . S
C4552 C4566 1.377 . S
C4553 C4552 1.524 . S
C4553 C4554 1.397 . S
C4553 C4558 1.363 . S
C4554 H4531 0.950 . S
C4554 C4553 1.397 . S
C4554 C4555 1.334 . S
C4555 H4532 0.950 . S
C4555 C4554 1.334 . S
C4555 C4556 1.287 . S
C4556 C4555 1.287 . S
C4556 C4557 1.524 . S
C4556 H4575 0.913 . S
C4557 H4533 0.950 . S
C4557 C4556 1.524 . S
C4557 C4558 1.415 . S
C4558 H4534 0.950 . S
C4558 C4553 1.363 . S
C4558 C4557 1.415 . S
C4559 H4535 0.951 . S
C4559 C4560 1.366 . S
C4559 C4561 1.388 . S
C4560 C4559 1.366 . S
C4560 C4564 1.385 . S
C4561 H4536 0.951 . S
C4561 C4559 1.388 . S
C4561 C4562 1.366 . S
C4562 C4561 1.366 . S
C4562 C4563 1.414 . S
C4562 C4565 1.491 1_565 S
C4563 H4537 0.950 . S
C4563 C4562 1.414 . S
C4563 C4564 1.374 . S
C4564 H4538 0.950 . S
C4564 C4560 1.385 . S
C4564 C4563 1.374 . S
C4565 C4562 1.491 1_545 S
C4565 C4566 1.374 . S
C4565 C4567 1.397 . S
C4566 H4539 0.950 1_545 S
C4566 C4552 1.377 . S
C4566 C4565 1.374 . S
C4567 C4551 1.377 . S
C4567 C4565 1.397 . S
C4567 C4568 1.524 . S
C4568 C4567 1.524 . S
C4568 C4569 1.410 . S
C4568 C4573 1.363 . S
C4569 H4540 0.938 1_545 S
C4569 C4568 1.410 . S
C4569 C4570 1.333 1_545 S
C4570 H4541 0.950 . S
C4570 C4569 1.333 1_565 S
C4570 C4571 1.287 1_565 S
C4571 C4570 1.287 1_545 S
C4571 C4572 1.524 . S
C4571 H4574 0.999 . S
C4572 H4542 0.950 . S
C4572 C4571 1.524 . S
C4572 C4573 1.415 . S
C4573 H4543 0.950 . S
C4573 C4568 1.363 . S
C4573 C4572 1.415 . S
H4574 C4571 0.999 . S
H4575 C4556 0.913 . S
H4576 C4594 0.951 . S
H4577 C4596 0.951 . S
H4578 C4598 0.950 . S
H4579 C4599 0.950 . S
H4580 C4601 0.950 . S
H4581 C4604 0.950 . S
H4582 C4605 0.950 . S
H4583 C4607 0.950 . S
H4584 C4608 0.950 . S
H4585 C4609 0.951 . S
H4586 C4611 0.951 . S
H4587 C4613 0.950 . S
H4588 C4614 0.950 . S
H4589 C4616 0.950 . S
H4590 C4619 0.950 . S
H4591 C4620 0.950 . S
H4592 C4622 0.950 . S
H4593 C4623 0.950 . S
C4594 H4576 0.951 . S
C4594 C4595 1.366 . S
C4594 C4596 1.388 . S
C4595 C4594 1.366 . S
C4595 C4599 1.385 . S
C4596 H4577 0.951 . S
C4596 C4594 1.388 . S
C4596 C4597 1.366 . S
C4597 C4596 1.366 . S
C4597 C4598 1.414 . S
C4597 C4600 1.499 . S
C4598 H4578 0.950 . S
C4598 C4597 1.414 . S
C4598 C4599 1.374 . S
C4599 H4579 0.950 . S
C4599 C4595 1.385 . S
C4599 C4598 1.374 . S
C4600 C4597 1.499 . S
C4600 C4601 1.373 . S
C4600 C4602 1.389 . S
C4601 H4580 0.950 . S
C4601 C4600 1.373 . S
C4601 C4617 1.377 . S
C4602 C4600 1.389 . S
C4602 C4603 1.524 . S
C4602 C4616 1.377 . S
C4603 C4602 1.524 . S
C4603 C4604 1.397 . S
C4603 C4608 1.363 . S
C4604 H4581 0.950 . S
C4604 C4603 1.397 . S
C4604 C4605 1.334 . S
C4605 H4582 0.950 . S
C4605 C4604 1.334 . S
C4605 C4606 1.287 . S
C4606 C4605 1.287 . S
C4606 C4607 1.524 . S
C4606 H4625 0.913 . S
C4607 H4583 0.950 . S
C4607 C4606 1.524 . S
C4607 C4608 1.415 . S
C4608 H4584 0.950 . S
C4608 C4603 1.363 . S
C4608 C4607 1.415 . S
C4609 H4585 0.951 . S
C4609 C4610 1.366 . S
C4609 C4611 1.388 . S
C4610 C4609 1.366 . S
C4610 C4614 1.385 . S
C4611 H4586 0.951 . S
C4611 C4609 1.388 . S
C4611 C4612 1.366 . S
C4612 C4611 1.366 . S
C4612 C4613 1.414 . S
C4612 C4615 1.499 . S
C4613 H4587 0.950 . S
C4613 C4612 1.414 . S
C4613 C4614 1.374 . S
C4614 H4588 0.950 . S
C4614 C4610 1.385 . S
C4614 C4613 1.374 . S
C4615 C4612 1.499 . S
C4615 C4616 1.373 . S
C4615 C4617 1.389 . S
C4616 H4589 0.950 . S
C4616 C4602 1.377 . S
C4616 C4615 1.373 . S
C4617 C4601 1.377 . S
C4617 C4615 1.389 . S
C4617 C4618 1.524 . S
C4618 C4617 1.524 . S
C4618 C4619 1.397 . S
C4618 C4623 1.363 . S
C4619 H4590 0.950 . S
C4619 C4618 1.397 . S
C4619 C4620 1.334 . S
C4620 H4591 0.950 . S
C4620 C4619 1.334 . S
C4620 C4621 1.287 . S
C4621 C4620 1.287 . S
C4621 C4622 1.524 . S
C4621 H4624 0.999 . S
C4622 H4592 0.950 . S
C4622 C4621 1.524 . S
C4622 C4623 1.415 . S
C4623 H4593 0.950 . S
C4623 C4618 1.363 . S
C4623 C4622 1.415 . S
H4624 C4621 0.999 . S
H4625 C4606 0.913 . S
H4626 C4644 0.951 . S
H4627 C4646 0.951 . S
H4628 C4648 0.950 . S
H4629 C4649 0.950 . S
H4630 C4651 0.950 . S
H4631 C4654 0.950 . S
H4632 C4655 0.950 . S
H4633 C4657 0.950 . S
H4634 C4658 0.950 . S
H4635 C4659 0.951 . S
H4636 C4661 0.951 . S
H4637 C4663 0.950 . S
H4638 C4664 0.950 . S
H4639 C4666 0.950 . S
H4640 C4669 0.950 . S
H4641 C4670 0.950 . S
H4642 C4672 0.950 . S
H4643 C4673 0.950 . S
C4644 H4626 0.951 . S
C4644 C4645 1.366 . S
C4644 C4646 1.388 . S
C4645 C4644 1.366 . S
C4645 C4649 1.385 . S
C4646 H4627 0.951 . S
C4646 C4644 1.388 . S
C4646 C4647 1.366 . S
C4647 C4646 1.366 . S
C4647 C4648 1.414 . S
C4647 C4650 1.499 . S
C4648 H4628 0.950 . S
C4648 C4647 1.414 . S
C4648 C4649 1.374 . S
C4649 H4629 0.950 . S
C4649 C4645 1.385 . S
C4649 C4648 1.374 . S
C4650 C4647 1.499 . S
C4650 C4651 1.373 . S
C4650 C4652 1.389 . S
C4651 H4630 0.950 . S
C4651 C4650 1.373 . S
C4651 C4667 1.377 . S
C4652 C4650 1.389 . S
C4652 C4653 1.524 . S
C4652 C4666 1.377 . S
C4653 C4652 1.524 . S
C4653 C4654 1.397 . S
C4653 C4658 1.363 . S
C4654 H4631 0.950 . S
C4654 C4653 1.397 . S
C4654 C4655 1.334 . S
C4655 H4632 0.950 . S
C4655 C4654 1.334 . S
C4655 C4656 1.287 . S
C4656 C4655 1.287 . S
C4656 C4657 1.524 . S
C4656 H4675 0.913 . S
C4657 H4633 0.950 . S
C4657 C4656 1.524 . S
C4657 C4658 1.415 . S
C4658 H4634 0.950 . S
C4658 C4653 1.363 . S
C4658 C4657 1.415 . S
C4659 H4635 0.951 . S
C4659 C4660 1.366 . S
C4659 C4661 1.388 . S
C4660 C4659 1.366 . S
C4660 C4664 1.385 . S
C4661 H4636 0.951 . S
C4661 C4659 1.388 . S
C4661 C4662 1.366 . S
C4662 C4661 1.366 . S
C4662 C4663 1.414 . S
C4662 C4665 1.499 . S
C4663 H4637 0.950 . S
C4663 C4662 1.414 . S
C4663 C4664 1.374 . S
C4664 H4638 0.950 . S
C4664 C4660 1.385 . S
C4664 C4663 1.374 . S
C4665 C4662 1.499 . S
C4665 C4666 1.373 . S
C4665 C4667 1.389 . S
C4666 H4639 0.950 . S
C4666 C4652 1.377 . S
C4666 C4665 1.373 . S
C4667 C4651 1.377 . S
C4667 C4665 1.389 . S
C4667 C4668 1.524 . S
C4668 C4667 1.524 . S
C4668 C4669 1.397 . S
C4668 C4673 1.363 . S
C4669 H4640 0.950 . S
C4669 C4668 1.397 . S
C4669 C4670 1.334 . S
C4670 H4641 0.950 . S
C4670 C4669 1.334 . S
C4670 C4671 1.287 . S
C4671 C4670 1.287 . S
C4671 C4672 1.524 . S
C4671 H4674 0.999 . S
C4672 H4642 0.950 . S
C4672 C4671 1.524 . S
C4672 C4673 1.415 . S
C4673 H4643 0.950 . S
C4673 C4668 1.363 . S
C4673 C4672 1.415 . S
H4674 C4671 0.999 . S
H4675 C4656 0.913 . S
H4676 C4694 0.951 . S
H4677 C4696 0.951 . S
H4678 C4698 0.950 . S
H4679 C4699 0.950 . S
H4680 C4701 0.950 . S
H4681 C4704 0.950 . S
H4682 C4705 0.950 . S
H4683 C4707 0.950 . S
H4684 C4708 0.950 . S
H4685 C4709 0.951 . S
H4686 C4711 0.951 . S
H4687 C4713 0.950 . S
H4688 C4714 0.950 . S
H4689 C4716 0.950 . S
H4690 C4719 0.950 . S
H4691 C4720 0.950 . S
H4692 C4722 0.950 . S
H4693 C4723 0.950 . S
C4694 H4676 0.951 . S
C4694 C4695 1.366 . S
C4694 C4696 1.388 . S
C4695 C4694 1.366 . S
C4695 C4699 1.385 . S
C4696 H4677 0.951 . S
C4696 C4694 1.388 . S
C4696 C4697 1.366 . S
C4697 C4696 1.366 . S
C4697 C4698 1.414 . S
C4697 C4700 1.499 . S
C4698 H4678 0.950 . S
C4698 C4697 1.414 . S
C4698 C4699 1.374 . S
C4699 H4679 0.950 . S
C4699 C4695 1.385 . S
C4699 C4698 1.374 . S
C4700 C4697 1.499 . S
C4700 C4701 1.373 . S
C4700 C4702 1.389 . S
C4701 H4680 0.950 . S
C4701 C4700 1.373 . S
C4701 C4717 1.377 . S
C4702 C4700 1.389 . S
C4702 C4703 1.524 . S
C4702 C4716 1.377 . S
C4703 C4702 1.524 . S
C4703 C4704 1.397 . S
C4703 C4708 1.363 . S
C4704 H4681 0.950 . S
C4704 C4703 1.397 . S
C4704 C4705 1.334 . S
C4705 H4682 0.950 . S
C4705 C4704 1.334 . S
C4705 C4706 1.287 . S
C4706 C4705 1.287 . S
C4706 C4707 1.524 . S
C4706 H4725 0.913 . S
C4707 H4683 0.950 . S
C4707 C4706 1.524 . S
C4707 C4708 1.415 . S
C4708 H4684 0.950 . S
C4708 C4703 1.363 . S
C4708 C4707 1.415 . S
C4709 H4685 0.951 . S
C4709 C4710 1.366 . S
C4709 C4711 1.388 . S
C4710 C4709 1.366 . S
C4710 C4714 1.385 . S
C4711 H4686 0.951 . S
C4711 C4709 1.388 . S
C4711 C4712 1.366 . S
C4712 C4711 1.366 . S
C4712 C4713 1.414 . S
C4712 C4715 1.499 . S
C4713 H4687 0.950 . S
C4713 C4712 1.414 . S
C4713 C4714 1.374 . S
C4714 H4688 0.950 . S
C4714 C4710 1.385 . S
C4714 C4713 1.374 . S
C4715 C4712 1.499 . S
C4715 C4716 1.373 . S
C4715 C4717 1.389 . S
C4716 H4689 0.950 . S
C4716 C4702 1.377 . S
C4716 C4715 1.373 . S
C4717 C4701 1.377 . S
C4717 C4715 1.389 . S
C4717 C4718 1.524 . S
C4718 C4717 1.524 . S
C4718 C4719 1.397 . S
C4718 C4723 1.363 . S
C4719 H4690 0.950 . S
C4719 C4718 1.397 . S
C4719 C4720 1.334 . S
C4720 H4691 0.950 . S
C4720 C4719 1.334 . S
C4720 C4721 1.287 . S
C4721 C4720 1.287 . S
C4721 C4722 1.524 . S
C4721 H4724 0.999 . S
C4722 H4692 0.950 . S
C4722 C4721 1.524 . S
C4722 C4723 1.415 . S
C4723 H4693 0.950 . S
C4723 C4718 1.363 . S
C4723 C4722 1.415 . S
H4724 C4721 0.999 . S
H4725 C4706 0.913 . S
H4726 C4744 0.951 . S
H4727 C4746 0.951 . S
H4728 C4748 0.950 . S
H4729 C4749 0.950 . S
H4730 C4751 0.950 . S
H4731 C4754 0.950 . S
H4732 C4755 0.950 . S
H4733 C4757 0.950 . S
H4734 C4758 0.950 . S
H4735 C4759 0.951 . S
H4736 C4761 0.951 . S
H4737 C4763 0.950 . S
H4738 C4764 0.950 . S
H4739 C4766 0.950 . S
H4740 C4769 0.950 . S
H4741 C4770 0.950 . S
H4742 C4772 0.950 . S
H4743 C4773 0.950 . S
C4744 H4726 0.951 . S
C4744 C4745 1.366 . S
C4744 C4746 1.388 . S
C4745 C4744 1.366 . S
C4745 C4749 1.385 . S
C4746 H4727 0.951 . S
C4746 C4744 1.388 . S
C4746 C4747 1.366 . S
C4747 C4746 1.366 . S
C4747 C4748 1.414 . S
C4747 C4750 1.499 . S
C4748 H4728 0.950 . S
C4748 C4747 1.414 . S
C4748 C4749 1.374 . S
C4749 H4729 0.950 . S
C4749 C4745 1.385 . S
C4749 C4748 1.374 . S
C4750 C4747 1.499 . S
C4750 C4751 1.373 . S
C4750 C4752 1.389 . S
C4751 H4730 0.950 . S
C4751 C4750 1.373 . S
C4751 C4767 1.377 . S
C4752 C4750 1.389 . S
C4752 C4753 1.524 . S
C4752 C4766 1.377 . S
C4753 C4752 1.524 . S
C4753 C4754 1.397 . S
C4753 C4758 1.363 . S
C4754 H4731 0.950 . S
C4754 C4753 1.397 . S
C4754 C4755 1.334 . S
C4755 H4732 0.950 . S
C4755 C4754 1.334 . S
C4755 C4756 1.287 . S
C4756 C4755 1.287 . S
C4756 C4757 1.524 . S
C4756 H4775 0.913 . S
C4757 H4733 0.950 . S
C4757 C4756 1.524 . S
C4757 C4758 1.415 . S
C4758 H4734 0.950 . S
C4758 C4753 1.363 . S
C4758 C4757 1.415 . S
C4759 H4735 0.951 . S
C4759 C4760 1.366 . S
C4759 C4761 1.388 . S
C4760 C4759 1.366 . S
C4760 C4764 1.385 . S
C4761 H4736 0.951 . S
C4761 C4759 1.388 . S
C4761 C4762 1.366 . S
C4762 C4761 1.366 . S
C4762 C4763 1.414 . S
C4762 C4765 1.499 . S
C4763 H4737 0.950 . S
C4763 C4762 1.414 . S
C4763 C4764 1.374 . S
C4764 H4738 0.950 . S
C4764 C4760 1.385 . S
C4764 C4763 1.374 . S
C4765 C4762 1.499 . S
C4765 C4766 1.373 . S
C4765 C4767 1.389 . S
C4766 H4739 0.950 . S
C4766 C4752 1.377 . S
C4766 C4765 1.373 . S
C4767 C4751 1.377 . S
C4767 C4765 1.389 . S
C4767 C4768 1.524 . S
C4768 C4767 1.524 . S
C4768 C4769 1.397 . S
C4768 C4773 1.363 . S
C4769 H4740 0.950 . S
C4769 C4768 1.397 . S
C4769 C4770 1.334 . S
C4770 H4741 0.950 . S
C4770 C4769 1.334 . S
C4770 C4771 1.287 . S
C4771 C4770 1.287 . S
C4771 C4772 1.524 . S
C4771 H4774 0.999 . S
C4772 H4742 0.950 . S
C4772 C4771 1.524 . S
C4772 C4773 1.415 . S
C4773 H4743 0.950 . S
C4773 C4768 1.363 . S
C4773 C4772 1.415 . S
H4774 C4771 0.999 . S
H4775 C4756 0.913 . S
H4776 C4794 0.951 . S
H4777 C4796 0.951 . S
H4778 C4798 0.950 . S
H4779 C4799 0.950 . S
H4780 C4801 0.950 . S
H4781 C4804 0.950 . S
H4782 C4805 0.950 1_554 S
H4783 C4807 0.950 . S
H4784 C4808 0.950 . S
H4785 C4809 0.951 1_554 S
H4786 C4811 0.951 . S
H4787 C4813 0.950 . S
H4788 C4814 0.950 . S
H4789 C4816 0.950 . S
H4790 C4819 0.950 . S
H4791 C4820 0.950 . S
H4792 C4822 0.950 . S
H4793 C4823 0.950 . S
C4794 H4776 0.951 . S
C4794 C4795 1.366 . S
C4794 C4796 1.388 . S
C4795 C4794 1.366 . S
C4795 C4799 1.385 . S
C4796 H4777 0.951 . S
C4796 C4794 1.388 . S
C4796 C4797 1.366 . S
C4797 C4796 1.366 . S
C4797 C4798 1.414 . S
C4797 C4800 1.499 . S
C4798 H4778 0.950 . S
C4798 C4797 1.414 . S
C4798 C4799 1.374 . S
C4799 H4779 0.950 . S
C4799 C4795 1.385 . S
C4799 C4798 1.374 . S
C4800 C4797 1.499 . S
C4800 C4801 1.373 . S
C4800 C4802 1.389 . S
C4801 H4780 0.950 . S
C4801 C4800 1.373 . S
C4801 C4817 1.377 . S
C4802 C4800 1.389 . S
C4802 C4803 1.524 . S
C4802 C4816 1.377 . S
C4803 C4802 1.524 . S
C4803 C4804 1.397 . S
C4803 C4808 1.363 . S
C4804 H4781 0.950 . S
C4804 C4803 1.397 . S
C4804 C4805 1.334 . S
C4805 H4782 0.950 1_556 S
C4805 C4804 1.334 . S
C4805 C4806 1.298 . S
C4806 C4805 1.298 . S
C4806 C4807 1.529 . S
C4806 H4825 0.900 1_556 S
C4807 H4783 0.950 . S
C4807 C4806 1.529 . S
C4807 C4808 1.415 . S
C4808 H4784 0.950 . S
C4808 C4803 1.363 . S
C4808 C4807 1.415 . S
C4809 H4785 0.951 1_556 S
C4809 C4810 1.373 . S
C4809 C4811 1.388 . S
C4810 C4809 1.373 . S
C4810 C4814 1.390 . S
C4811 H4786 0.951 . S
C4811 C4809 1.388 . S
C4811 C4812 1.366 . S
C4812 C4811 1.366 . S
C4812 C4813 1.414 . S
C4812 C4815 1.499 . S
C4813 H4787 0.950 . S
C4813 C4812 1.414 . S
C4813 C4814 1.374 . S
C4814 H4788 0.950 . S
C4814 C4810 1.390 . S
C4814 C4813 1.374 . S
C4815 C4812 1.499 . S
C4815 C4816 1.373 . S
C4815 C4817 1.389 . S
C4816 H4789 0.950 . S
C4816 C4802 1.377 . S
C4816 C4815 1.373 . S
C4817 C4801 1.377 . S
C4817 C4815 1.389 . S
C4817 C4818 1.524 . S
C4818 C4817 1.524 . S
C4818 C4819 1.397 . S
C4818 C4823 1.363 . S
C4819 H4790 0.950 . S
C4819 C4818 1.397 . S
C4819 C4820 1.334 . S
C4820 H4791 0.950 . S
C4820 C4819 1.334 . S
C4820 C4821 1.287 . S
C4821 C4820 1.287 . S
C4821 C4822 1.524 . S
C4821 H4824 0.999 . S
C4822 H4792 0.950 . S
C4822 C4821 1.524 . S
C4822 C4823 1.415 . S
C4823 H4793 0.950 . S
C4823 C4818 1.363 . S
C4823 C4822 1.415 . S
H4824 C4821 0.999 . S
H4825 C4806 0.900 1_554 S
H4826 C4844 0.951 . S
H4827 C4846 0.951 . S
H4828 C4848 0.950 . S
H4829 C4849 0.950 . S
H4830 C4851 0.950 . S
H4831 C4854 0.950 . S
H4832 C4855 0.950 . S
H4833 C4857 0.950 . S
H4834 C4858 0.950 . S
H4835 C4859 0.951 . S
H4836 C4861 0.951 . S
H4837 C4863 0.950 . S
H4838 C4864 0.950 . S
H4839 C4866 0.950 . S
H4840 C4869 0.950 . S
H4841 C4870 0.950 . S
H4842 C4872 0.950 . S
H4843 C4873 0.950 . S
C4844 H4826 0.951 . S
C4844 C4845 1.366 . S
C4844 C4846 1.388 . S
C4845 C4844 1.366 . S
C4845 C4849 1.385 . S
C4846 H4827 0.951 . S
C4846 C4844 1.388 . S
C4846 C4847 1.366 . S
C4847 C4846 1.366 . S
C4847 C4848 1.414 . S
C4847 C4850 1.499 . S
C4848 H4828 0.950 . S
C4848 C4847 1.414 . S
C4848 C4849 1.374 . S
C4849 H4829 0.950 . S
C4849 C4845 1.385 . S
C4849 C4848 1.374 . S
C4850 C4847 1.499 . S
C4850 C4851 1.373 . S
C4850 C4852 1.389 . S
C4851 H4830 0.950 . S
C4851 C4850 1.373 . S
C4851 C4867 1.377 . S
C4852 C4850 1.389 . S
C4852 C4853 1.524 . S
C4852 C4866 1.377 . S
C4853 C4852 1.524 . S
C4853 C4854 1.397 . S
C4853 C4858 1.363 . S
C4854 H4831 0.950 . S
C4854 C4853 1.397 . S
C4854 C4855 1.334 . S
C4855 H4832 0.950 . S
C4855 C4854 1.334 . S
C4855 C4856 1.287 . S
C4856 C4855 1.287 . S
C4856 C4857 1.524 . S
C4856 H4875 0.913 . S
C4857 H4833 0.950 . S
C4857 C4856 1.524 . S
C4857 C4858 1.415 . S
C4858 H4834 0.950 . S
C4858 C4853 1.363 . S
C4858 C4857 1.415 . S
C4859 H4835 0.951 . S
C4859 C4860 1.366 . S
C4859 C4861 1.388 . S
C4860 C4859 1.366 . S
C4860 C4864 1.385 . S
C4861 H4836 0.951 . S
C4861 C4859 1.388 . S
C4861 C4862 1.366 . S
C4862 C4861 1.366 . S
C4862 C4863 1.414 . S
C4862 C4865 1.499 . S
C4863 H4837 0.950 . S
C4863 C4862 1.414 . S
C4863 C4864 1.374 . S
C4864 H4838 0.950 . S
C4864 C4860 1.385 . S
C4864 C4863 1.374 . S
C4865 C4862 1.499 . S
C4865 C4866 1.373 . S
C4865 C4867 1.389 . S
C4866 H4839 0.950 . S
C4866 C4852 1.377 . S
C4866 C4865 1.373 . S
C4867 C4851 1.377 . S
C4867 C4865 1.389 . S
C4867 C4868 1.524 . S
C4868 C4867 1.524 . S
C4868 C4869 1.397 . S
C4868 C4873 1.363 . S
C4869 H4840 0.950 . S
C4869 C4868 1.397 . S
C4869 C4870 1.334 . S
C4870 H4841 0.950 . S
C4870 C4869 1.334 . S
C4870 C4871 1.287 . S
C4871 C4870 1.287 . S
C4871 C4872 1.524 . S
C4871 H4874 0.999 . S
C4872 H4842 0.950 . S
C4872 C4871 1.524 . S
C4872 C4873 1.415 . S
C4873 H4843 0.950 . S
C4873 C4868 1.363 . S
C4873 C4872 1.415 . S
H4874 C4871 0.999 . S
H4875 C4856 0.913 . S
H4876 C4894 0.941 1_655 S
H4877 C4896 0.951 1_655 S
H4878 C4898 0.950 . S
H4879 C4899 0.950 . S
H4880 C4901 0.950 . S
H4881 C4904 0.950 . S
H4882 C4905 0.950 . S
H4883 C4907 0.950 . S
H4884 C4908 0.944 . S
H4885 C4909 0.951 . S
H4886 C4911 0.951 . S
H4887 C4913 0.950 . S
H4888 C4914 0.950 . S
H4889 C4916 0.950 . S
H4890 C4919 0.950 . S
H4891 C4920 0.950 . S
H4892 C4922 0.950 . S
H4893 C4923 0.950 . S
C4894 H4876 0.941 1_455 S
C4894 C4895 1.378 . S
C4894 C4896 1.386 . S
C4895 C4894 1.378 . S
C4895 C4899 1.385 . S
C4896 H4877 0.951 1_455 S
C4896 C4894 1.386 . S
C4896 C4897 1.366 . S
C4897 C4896 1.366 . S
C4897 C4898 1.414 . S
C4897 C4900 1.499 . S
C4898 H4878 0.950 . S
C4898 C4897 1.414 . S
C4898 C4899 1.374 . S
C4899 H4879 0.950 . S
C4899 C4895 1.385 . S
C4899 C4898 1.374 . S
C4900 C4897 1.499 . S
C4900 C4901 1.373 . S
C4900 C4902 1.389 . S
C4901 H4880 0.950 . S
C4901 C4900 1.373 . S
C4901 C4917 1.377 . S
C4902 C4900 1.389 . S
C4902 C4903 1.524 . S
C4902 C4916 1.377 . S
C4903 C4902 1.524 . S
C4903 C4904 1.397 . S
C4903 C4908 1.369 1_455 S
C4904 H4881 0.950 . S
C4904 C4903 1.397 . S
C4904 C4905 1.334 . S
C4905 H4882 0.950 . S
C4905 C4904 1.334 . S
C4905 C4906 1.287 . S
C4906 C4905 1.287 . S
C4906 C4907 1.524 1_455 S
C4906 H4925 0.913 . S
C4907 H4883 0.950 . S
C4907 C4906 1.524 1_655 S
C4907 C4908 1.414 . S
C4908 H4884 0.944 . S
C4908 C4903 1.369 1_655 S
C4908 C4907 1.414 . S
C4909 H4885 0.951 . S
C4909 C4910 1.366 . S
C4909 C4911 1.388 . S
C4910 C4909 1.366 . S
C4910 C4914 1.385 . S
C4911 H4886 0.951 . S
C4911 C4909 1.388 . S
C4911 C4912 1.366 . S
C4912 C4911 1.366 . S
C4912 C4913 1.414 . S
C4912 C4915 1.499 . S
C4913 H4887 0.950 . S
C4913 C4912 1.414 . S
C4913 C4914 1.374 . S
C4914 H4888 0.950 . S
C4914 C4910 1.385 . S
C4914 C4913 1.374 . S
C4915 C4912 1.499 . S
C4915 C4916 1.373 . S
C4915 C4917 1.389 . S
C4916 H4889 0.950 . S
C4916 C4902 1.377 . S
C4916 C4915 1.373 . S
C4917 C4901 1.377 . S
C4917 C4915 1.389 . S
C4917 C4918 1.524 . S
C4918 C4917 1.524 . S
C4918 C4919 1.397 . S
C4918 C4923 1.363 . S
C4919 H4890 0.950 . S
C4919 C4918 1.397 . S
C4919 C4920 1.334 . S
C4920 H4891 0.950 . S
C4920 C4919 1.334 . S
C4920 C4921 1.287 . S
C4921 C4920 1.287 . S
C4921 C4922 1.524 . S
C4921 H4924 0.999 . S
C4922 H4892 0.950 . S
C4922 C4921 1.524 . S
C4922 C4923 1.415 . S
C4923 H4893 0.950 . S
C4923 C4918 1.363 . S
C4923 C4922 1.415 . S
H4924 C4921 0.999 . S
H4925 C4906 0.913 . S
H4926 C4944 0.951 . S
H4927 C4946 0.951 . S
H4928 C4948 0.950 . S
H4929 C4949 0.950 . S
H4930 C4951 0.950 . S
H4931 C4954 0.950 . S
H4932 C4955 0.950 . S
H4933 C4957 0.950 . S
H4934 C4958 0.950 . S
H4935 C4959 0.951 . S
H4936 C4961 0.951 . S
H4937 C4963 0.950 . S
H4938 C4964 0.950 . S
H4939 C4966 0.950 . S
H4940 C4969 0.950 . S
H4941 C4970 0.950 . S
H4942 C4972 0.950 . S
H4943 C4973 0.950 . S
C4944 H4926 0.951 . S
C4944 C4945 1.366 . S
C4944 C4946 1.388 . S
C4945 C4944 1.366 . S
C4945 C4949 1.385 . S
C4946 H4927 0.951 . S
C4946 C4944 1.388 . S
C4946 C4947 1.366 . S
C4947 C4946 1.366 . S
C4947 C4948 1.414 . S
C4947 C4950 1.499 . S
C4948 H4928 0.950 . S
C4948 C4947 1.414 . S
C4948 C4949 1.374 . S
C4949 H4929 0.950 . S
C4949 C4945 1.385 . S
C4949 C4948 1.374 . S
C4950 C4947 1.499 . S
C4950 C4951 1.373 . S
C4950 C4952 1.389 . S
C4951 H4930 0.950 . S
C4951 C4950 1.373 . S
C4951 C4967 1.377 . S
C4952 C4950 1.389 . S
C4952 C4953 1.524 . S
C4952 C4966 1.377 . S
C4953 C4952 1.524 . S
C4953 C4954 1.397 . S
C4953 C4958 1.363 . S
C4954 H4931 0.950 . S
C4954 C4953 1.397 . S
C4954 C4955 1.334 . S
C4955 H4932 0.950 . S
C4955 C4954 1.334 . S
C4955 C4956 1.287 . S
C4956 C4955 1.287 . S
C4956 C4957 1.524 . S
C4956 H4975 0.913 . S
C4957 H4933 0.950 . S
C4957 C4956 1.524 . S
C4957 C4958 1.415 . S
C4958 H4934 0.950 . S
C4958 C4953 1.363 . S
C4958 C4957 1.415 . S
C4959 H4935 0.951 . S
C4959 C4960 1.366 . S
C4959 C4961 1.388 . S
C4960 C4959 1.366 . S
C4960 C4964 1.385 . S
C4961 H4936 0.951 . S
C4961 C4959 1.388 . S
C4961 C4962 1.366 . S
C4962 C4961 1.366 . S
C4962 C4963 1.414 . S
C4962 C4965 1.499 . S
C4963 H4937 0.950 . S
C4963 C4962 1.414 . S
C4963 C4964 1.374 . S
C4964 H4938 0.950 . S
C4964 C4960 1.385 . S
C4964 C4963 1.374 . S
C4965 C4962 1.499 . S
C4965 C4966 1.373 . S
C4965 C4967 1.389 . S
C4966 H4939 0.950 . S
C4966 C4952 1.377 . S
C4966 C4965 1.373 . S
C4967 C4951 1.377 . S
C4967 C4965 1.389 . S
C4967 C4968 1.524 . S
C4968 C4967 1.524 . S
C4968 C4969 1.397 . S
C4968 C4973 1.363 . S
C4969 H4940 0.950 . S
C4969 C4968 1.397 . S
C4969 C4970 1.334 . S
C4970 H4941 0.950 . S
C4970 C4969 1.334 . S
C4970 C4971 1.287 . S
C4971 C4970 1.287 . S
C4971 C4972 1.524 . S
C4971 H4974 0.999 . S
C4972 H4942 0.950 . S
C4972 C4971 1.524 . S
C4972 C4973 1.415 . S
C4973 H4943 0.950 . S
C4973 C4968 1.363 . S
C4973 C4972 1.415 . S
H4974 C4971 0.999 . S
H4975 C4956 0.913 . S
H4976 C4994 0.951 . S
H4977 C4996 0.951 . S
H4978 C4998 0.950 . S
H4979 C4999 0.950 . S
H4980 C5001 0.950 . S
H4981 C5004 0.950 . S
H4982 C5005 0.950 . S
H4983 C5007 0.950 . S
H4984 C5008 0.950 . S
H4985 C5009 0.951 . S
H4986 C5011 0.951 . S
H4987 C5013 0.950 . S
H4988 C5014 0.950 . S
H4989 C5016 0.950 . S
H4990 C5019 0.950 . S
H4991 C5020 0.950 . S
H4992 C5022 0.950 . S
H4993 C5023 0.950 . S
C4994 H4976 0.951 . S
C4994 C4995 1.366 . S
C4994 C4996 1.388 . S
C4995 C4994 1.366 . S
C4995 C4999 1.385 . S
C4996 H4977 0.951 . S
C4996 C4994 1.388 . S
C4996 C4997 1.366 . S
C4997 C4996 1.366 . S
C4997 C4998 1.414 . S
C4997 C5000 1.499 . S
C4998 H4978 0.950 . S
C4998 C4997 1.414 . S
C4998 C4999 1.374 . S
C4999 H4979 0.950 . S
C4999 C4995 1.385 . S
C4999 C4998 1.374 . S
C5000 C4997 1.499 . S
C5000 C5001 1.373 . S
C5000 C5002 1.389 . S
C5001 H4980 0.950 . S
C5001 C5000 1.373 . S
C5001 C5017 1.377 . S
C5002 C5000 1.389 . S
C5002 C5003 1.524 . S
C5002 C5016 1.377 . S
C5003 C5002 1.524 . S
C5003 C5004 1.397 . S
C5003 C5008 1.363 . S
C5004 H4981 0.950 . S
C5004 C5003 1.397 . S
C5004 C5005 1.334 . S
C5005 H4982 0.950 . S
C5005 C5004 1.334 . S
C5005 C5006 1.287 . S
C5006 C5005 1.287 . S
C5006 C5007 1.524 . S
C5006 H5025 0.913 . S
C5007 H4983 0.950 . S
C5007 C5006 1.524 . S
C5007 C5008 1.415 . S
C5008 H4984 0.950 . S
C5008 C5003 1.363 . S
C5008 C5007 1.415 . S
C5009 H4985 0.951 . S
C5009 C5010 1.366 . S
C5009 C5011 1.388 . S
C5010 C5009 1.366 . S
C5010 C5014 1.385 . S
C5011 H4986 0.951 . S
C5011 C5009 1.388 . S
C5011 C5012 1.366 . S
C5012 C5011 1.366 . S
C5012 C5013 1.414 . S
C5012 C5015 1.499 . S
C5013 H4987 0.950 . S
C5013 C5012 1.414 . S
C5013 C5014 1.374 . S
C5014 H4988 0.950 . S
C5014 C5010 1.385 . S
C5014 C5013 1.374 . S
C5015 C5012 1.499 . S
C5015 C5016 1.373 . S
C5015 C5017 1.389 . S
C5016 H4989 0.950 . S
C5016 C5002 1.377 . S
C5016 C5015 1.373 . S
C5017 C5001 1.377 . S
C5017 C5015 1.389 . S
C5017 C5018 1.524 . S
C5018 C5017 1.524 . S
C5018 C5019 1.397 . S
C5018 C5023 1.363 . S
C5019 H4990 0.950 . S
C5019 C5018 1.397 . S
C5019 C5020 1.334 . S
C5020 H4991 0.950 . S
C5020 C5019 1.334 . S
C5020 C5021 1.287 . S
C5021 C5020 1.287 . S
C5021 C5022 1.524 . S
C5021 H5024 0.999 . S
C5022 H4992 0.950 . S
C5022 C5021 1.524 . S
C5022 C5023 1.415 . S
C5023 H4993 0.950 . S
C5023 C5018 1.363 . S
C5023 C5022 1.415 . S
H5024 C5021 0.999 . S
H5025 C5006 0.913 . S
H5026 C5044 0.951 . S
H5027 C5046 0.951 . S
H5028 C5048 0.950 . S
H5029 C5049 0.950 . S
H5030 C5051 0.950 . S
H5031 C5054 0.950 . S
H5032 C5055 0.950 . S
H5033 C5057 0.950 . S
H5034 C5058 0.950 . S
H5035 C5059 0.951 . S
H5036 C5061 0.951 . S
H5037 C5063 0.950 . S
H5038 C5064 0.950 . S
H5039 C5066 0.950 . S
H5040 C5069 0.950 . S
H5041 C5070 0.950 . S
H5042 C5072 0.950 . S
H5043 C5073 0.950 . S
C5044 H5026 0.951 . S
C5044 C5045 1.366 . S
C5044 C5046 1.388 . S
C5045 C5044 1.366 . S
C5045 C5049 1.385 . S
C5046 H5027 0.951 . S
C5046 C5044 1.388 . S
C5046 C5047 1.366 . S
C5047 C5046 1.366 . S
C5047 C5048 1.414 . S
C5047 C5050 1.499 . S
C5048 H5028 0.950 . S
C5048 C5047 1.414 . S
C5048 C5049 1.374 . S
C5049 H5029 0.950 . S
C5049 C5045 1.385 . S
C5049 C5048 1.374 . S
C5050 C5047 1.499 . S
C5050 C5051 1.373 . S
C5050 C5052 1.389 . S
C5051 H5030 0.950 . S
C5051 C5050 1.373 . S
C5051 C5067 1.377 . S
C5052 C5050 1.389 . S
C5052 C5053 1.524 . S
C5052 C5066 1.377 . S
C5053 C5052 1.524 . S
C5053 C5054 1.397 . S
C5053 C5058 1.363 . S
C5054 H5031 0.950 . S
C5054 C5053 1.397 . S
C5054 C5055 1.334 . S
C5055 H5032 0.950 . S
C5055 C5054 1.334 . S
C5055 C5056 1.287 . S
C5056 C5055 1.287 . S
C5056 C5057 1.524 . S
C5056 H5075 0.913 . S
C5057 H5033 0.950 . S
C5057 C5056 1.524 . S
C5057 C5058 1.415 . S
C5058 H5034 0.950 . S
C5058 C5053 1.363 . S
C5058 C5057 1.415 . S
C5059 H5035 0.951 . S
C5059 C5060 1.366 . S
C5059 C5061 1.388 . S
C5060 C5059 1.366 . S
C5060 C5064 1.385 . S
C5061 H5036 0.951 . S
C5061 C5059 1.388 . S
C5061 C5062 1.366 . S
C5062 C5061 1.366 . S
C5062 C5063 1.414 . S
C5062 C5065 1.499 . S
C5063 H5037 0.950 . S
C5063 C5062 1.414 . S
C5063 C5064 1.374 . S
C5064 H5038 0.950 . S
C5064 C5060 1.385 . S
C5064 C5063 1.374 . S
C5065 C5062 1.499 . S
C5065 C5066 1.373 . S
C5065 C5067 1.389 . S
C5066 H5039 0.950 . S
C5066 C5052 1.377 . S
C5066 C5065 1.373 . S
C5067 C5051 1.377 . S
C5067 C5065 1.389 . S
C5067 C5068 1.524 . S
C5068 C5067 1.524 . S
C5068 C5069 1.397 . S
C5068 C5073 1.363 . S
C5069 H5040 0.950 . S
C5069 C5068 1.397 . S
C5069 C5070 1.334 . S
C5070 H5041 0.950 . S
C5070 C5069 1.334 . S
C5070 C5071 1.287 . S
C5071 C5070 1.287 . S
C5071 C5072 1.524 . S
C5071 H5074 0.999 . S
C5072 H5042 0.950 . S
C5072 C5071 1.524 . S
C5072 C5073 1.415 . S
C5073 H5043 0.950 . S
C5073 C5068 1.363 . S
C5073 C5072 1.415 . S
H5074 C5071 0.999 . S
H5075 C5056 0.913 . S
H5076 C5094 0.951 . S
H5077 C5096 0.951 . S
H5078 C5098 0.950 . S
H5079 C5099 0.950 . S
H5080 C5101 0.950 . S
H5081 C5104 0.950 . S
H5082 C5105 0.950 . S
H5083 C5107 0.950 . S
H5084 C5108 0.950 . S
H5085 C5109 0.951 . S
H5086 C5111 0.951 . S
H5087 C5113 0.950 . S
H5088 C5114 0.950 . S
H5089 C5116 0.950 . S
H5090 C5119 0.950 . S
H5091 C5120 0.950 . S
H5092 C5122 0.950 . S
H5093 C5123 0.950 . S
C5094 H5076 0.951 . S
C5094 C5095 1.366 . S
C5094 C5096 1.388 . S
C5095 C5094 1.366 . S
C5095 C5099 1.385 . S
C5096 H5077 0.951 . S
C5096 C5094 1.388 . S
C5096 C5097 1.366 . S
C5097 C5096 1.366 . S
C5097 C5098 1.414 . S
C5097 C5100 1.499 . S
C5098 H5078 0.950 . S
C5098 C5097 1.414 . S
C5098 C5099 1.374 . S
C5099 H5079 0.950 . S
C5099 C5095 1.385 . S
C5099 C5098 1.374 . S
C5100 C5097 1.499 . S
C5100 C5101 1.373 . S
C5100 C5102 1.389 . S
C5101 H5080 0.950 . S
C5101 C5100 1.373 . S
C5101 C5117 1.377 1_655 S
C5102 C5100 1.389 . S
C5102 C5103 1.524 . S
C5102 C5116 1.377 . S
C5103 C5102 1.524 . S
C5103 C5104 1.397 . S
C5103 C5108 1.363 . S
C5104 H5081 0.950 . S
C5104 C5103 1.397 . S
C5104 C5105 1.334 . S
C5105 H5082 0.950 . S
C5105 C5104 1.334 . S
C5105 C5106 1.287 . S
C5106 C5105 1.287 . S
C5106 C5107 1.524 . S
C5106 H5125 0.913 . S
C5107 H5083 0.950 . S
C5107 C5106 1.524 . S
C5107 C5108 1.415 . S
C5108 H5084 0.950 . S
C5108 C5103 1.363 . S
C5108 C5107 1.415 . S
C5109 H5085 0.951 . S
C5109 C5110 1.366 . S
C5109 C5111 1.388 . S
C5110 C5109 1.366 . S
C5110 C5114 1.385 . S
C5111 H5086 0.951 . S
C5111 C5109 1.388 . S
C5111 C5112 1.366 . S
C5112 C5111 1.366 . S
C5112 C5113 1.414 . S
C5112 C5115 1.523 . S
C5113 H5087 0.950 . S
C5113 C5112 1.414 . S
C5113 C5114 1.374 . S
C5114 H5088 0.950 . S
C5114 C5110 1.385 . S
C5114 C5113 1.374 . S
C5115 C5112 1.523 . S
C5115 C5116 1.349 1_455 S
C5115 C5117 1.388 . S
C5116 H5089 0.950 . S
C5116 C5102 1.377 . S
C5116 C5115 1.349 1_655 S
C5117 C5101 1.377 1_455 S
C5117 C5115 1.388 . S
C5117 C5118 1.524 . S
C5118 C5117 1.524 . S
C5118 C5119 1.397 . S
C5118 C5123 1.363 . S
C5119 H5090 0.950 . S
C5119 C5118 1.397 . S
C5119 C5120 1.334 . S
C5120 H5091 0.950 . S
C5120 C5119 1.334 . S
C5120 C5121 1.287 . S
C5121 C5120 1.287 . S
C5121 C5122 1.524 . S
C5121 H5124 0.999 . S
C5122 H5092 0.950 . S
C5122 C5121 1.524 . S
C5122 C5123 1.415 . S
C5123 H5093 0.950 . S
C5123 C5118 1.363 . S
C5123 C5122 1.415 . S
H5124 C5121 0.999 . S
H5125 C5106 0.913 . S
H5126 C5144 0.951 . S
H5127 C5146 0.951 . S
H5128 C5148 0.950 . S
H5129 C5149 0.950 . S
H5130 C5151 0.950 . S
H5131 C5154 0.950 . S
H5132 C5155 0.950 . S
H5133 C5157 0.950 . S
H5134 C5158 0.950 . S
H5135 C5159 0.951 . S
H5136 C5161 0.951 . S
H5137 C5163 0.950 . S
H5138 C5164 0.950 . S
H5139 C5166 0.950 . S
H5140 C5169 0.950 . S
H5141 C5170 0.950 . S
H5142 C5172 0.950 . S
H5143 C5173 0.950 . S
C5144 H5126 0.951 . S
C5144 C5145 1.366 . S
C5144 C5146 1.388 . S
C5145 C5144 1.366 . S
C5145 C5149 1.385 . S
C5146 H5127 0.951 . S
C5146 C5144 1.388 . S
C5146 C5147 1.366 . S
C5147 C5146 1.366 . S
C5147 C5148 1.414 . S
C5147 C5150 1.499 . S
C5148 H5128 0.950 . S
C5148 C5147 1.414 . S
C5148 C5149 1.374 . S
C5149 H5129 0.950 . S
C5149 C5145 1.385 . S
C5149 C5148 1.374 . S
C5150 C5147 1.499 . S
C5150 C5151 1.373 . S
C5150 C5152 1.389 . S
C5151 H5130 0.950 . S
C5151 C5150 1.373 . S
C5151 C5167 1.377 . S
C5152 C5150 1.389 . S
C5152 C5153 1.524 . S
C5152 C5166 1.377 . S
C5153 C5152 1.524 . S
C5153 C5154 1.397 . S
C5153 C5158 1.363 . S
C5154 H5131 0.950 . S
C5154 C5153 1.397 . S
C5154 C5155 1.334 . S
C5155 H5132 0.950 . S
C5155 C5154 1.334 . S
C5155 C5156 1.287 . S
C5156 C5155 1.287 . S
C5156 C5157 1.524 . S
C5156 H5175 0.913 . S
C5157 H5133 0.950 . S
C5157 C5156 1.524 . S
C5157 C5158 1.415 . S
C5158 H5134 0.950 . S
C5158 C5153 1.363 . S
C5158 C5157 1.415 . S
C5159 H5135 0.951 . S
C5159 C5160 1.366 . S
C5159 C5161 1.388 . S
C5160 C5159 1.366 . S
C5160 C5164 1.385 . S
C5161 H5136 0.951 . S
C5161 C5159 1.388 . S
C5161 C5162 1.366 . S
C5162 C5161 1.366 . S
C5162 C5163 1.414 . S
C5162 C5165 1.499 . S
C5163 H5137 0.950 . S
C5163 C5162 1.414 . S
C5163 C5164 1.374 . S
C5164 H5138 0.950 . S
C5164 C5160 1.385 . S
C5164 C5163 1.374 . S
C5165 C5162 1.499 . S
C5165 C5166 1.373 . S
C5165 C5167 1.389 . S
C5166 H5139 0.950 . S
C5166 C5152 1.377 . S
C5166 C5165 1.373 . S
C5167 C5151 1.377 . S
C5167 C5165 1.389 . S
C5167 C5168 1.524 . S
C5168 C5167 1.524 . S
C5168 C5169 1.397 . S
C5168 C5173 1.363 . S
C5169 H5140 0.950 . S
C5169 C5168 1.397 . S
C5169 C5170 1.334 . S
C5170 H5141 0.950 . S
C5170 C5169 1.334 . S
C5170 C5171 1.287 . S
C5171 C5170 1.287 . S
C5171 C5172 1.524 . S
C5171 H5174 0.999 . S
C5172 H5142 0.950 . S
C5172 C5171 1.524 . S
C5172 C5173 1.415 . S
C5173 H5143 0.950 . S
C5173 C5168 1.363 . S
C5173 C5172 1.415 . S
H5174 C5171 0.999 . S
H5175 C5156 0.913 . S
H5176 C5194 0.951 . S
H5177 C5196 0.951 . S
H5178 C5198 0.950 . S
H5179 C5199 0.950 . S
H5180 C5201 0.950 . S
H5181 C5204 0.950 . S
H5182 C5205 0.950 . S
H5183 C5207 0.950 . S
H5184 C5208 0.950 . S
H5185 C5209 0.951 . S
H5186 C5211 0.951 . S
H5187 C5213 0.950 . S
H5188 C5214 0.950 . S
H5189 C5216 0.950 . S
H5190 C5219 0.950 . S
H5191 C5220 0.950 . S
H5192 C5222 0.950 . S
H5193 C5223 0.950 . S
C5194 H5176 0.951 . S
C5194 C5195 1.366 . S
C5194 C5196 1.388 . S
C5195 C5194 1.366 . S
C5195 C5199 1.385 . S
C5196 H5177 0.951 . S
C5196 C5194 1.388 . S
C5196 C5197 1.366 . S
C5197 C5196 1.366 . S
C5197 C5198 1.414 . S
C5197 C5200 1.499 . S
C5198 H5178 0.950 . S
C5198 C5197 1.414 . S
C5198 C5199 1.374 . S
C5199 H5179 0.950 . S
C5199 C5195 1.385 . S
C5199 C5198 1.374 . S
C5200 C5197 1.499 . S
C5200 C5201 1.373 . S
C5200 C5202 1.389 . S
C5201 H5180 0.950 . S
C5201 C5200 1.373 . S
C5201 C5217 1.377 . S
C5202 C5200 1.389 . S
C5202 C5203 1.524 . S
C5202 C5216 1.377 . S
C5203 C5202 1.524 . S
C5203 C5204 1.397 . S
C5203 C5208 1.363 . S
C5204 H5181 0.950 . S
C5204 C5203 1.397 . S
C5204 C5205 1.334 . S
C5205 H5182 0.950 . S
C5205 C5204 1.334 . S
C5205 C5206 1.287 . S
C5206 C5205 1.287 . S
C5206 C5207 1.524 . S
C5206 H5225 0.913 . S
C5207 H5183 0.950 . S
C5207 C5206 1.524 . S
C5207 C5208 1.415 . S
C5208 H5184 0.950 . S
C5208 C5203 1.363 . S
C5208 C5207 1.415 . S
C5209 H5185 0.951 . S
C5209 C5210 1.366 . S
C5209 C5211 1.388 . S
C5210 C5209 1.366 . S
C5210 C5214 1.385 . S
C5211 H5186 0.951 . S
C5211 C5209 1.388 . S
C5211 C5212 1.366 . S
C5212 C5211 1.366 . S
C5212 C5213 1.414 . S
C5212 C5215 1.499 . S
C5213 H5187 0.950 . S
C5213 C5212 1.414 . S
C5213 C5214 1.374 . S
C5214 H5188 0.950 . S
C5214 C5210 1.385 . S
C5214 C5213 1.374 . S
C5215 C5212 1.499 . S
C5215 C5216 1.373 . S
C5215 C5217 1.389 . S
C5216 H5189 0.950 . S
C5216 C5202 1.377 . S
C5216 C5215 1.373 . S
C5217 C5201 1.377 . S
C5217 C5215 1.389 . S
C5217 C5218 1.524 . S
C5218 C5217 1.524 . S
C5218 C5219 1.397 . S
C5218 C5223 1.363 . S
C5219 H5190 0.950 . S
C5219 C5218 1.397 . S
C5219 C5220 1.334 . S
C5220 H5191 0.950 . S
C5220 C5219 1.334 . S
C5220 C5221 1.287 . S
C5221 C5220 1.287 . S
C5221 C5222 1.524 . S
C5221 H5224 0.999 . S
C5222 H5192 0.950 . S
C5222 C5221 1.524 . S
C5222 C5223 1.415 . S
C5223 H5193 0.950 . S
C5223 C5218 1.363 . S
C5223 C5222 1.415 . S
H5224 C5221 0.999 . S
H5225 C5206 0.913 . S
H5226 C5244 0.951 . S
H5227 C5246 0.951 . S
H5228 C5248 0.950 . S
H5229 C5249 0.950 1_554 S
H5230 C5251 0.950 . S
H5231 C5254 0.950 . S
H5232 C5255 0.950 . S
H5233 C5257 0.950 . S
H5234 C5258 0.950 . S
H5235 C5259 0.951 . S
H5236 C5261 0.951 . S
H5237 C5263 0.950 . S
H5238 C5264 0.950 . S
H5239 C5266 0.950 . S
H5240 C5269 0.950 . S
H5241 C5270 0.950 . S
H5242 C5272 0.950 . S
H5243 C5273 0.950 . S
C5244 H5226 0.951 . S
C5244 C5245 1.366 . S
C5244 C5246 1.388 . S
C5245 C5244 1.366 . S
C5245 C5249 1.385 . S
C5246 H5227 0.951 . S
C5246 C5244 1.388 . S
C5246 C5247 1.366 . S
C5247 C5246 1.366 . S
C5247 C5248 1.414 . S
C5247 C5250 1.499 . S
C5248 H5228 0.950 . S
C5248 C5247 1.414 . S
C5248 C5249 1.374 . S
C5249 H5229 0.950 1_556 S
C5249 C5245 1.385 . S
C5249 C5248 1.374 . S
C5250 C5247 1.499 . S
C5250 C5251 1.373 . S
C5250 C5252 1.389 . S
C5251 H5230 0.950 . S
C5251 C5250 1.373 . S
C5251 C5267 1.377 . S
C5252 C5250 1.389 . S
C5252 C5253 1.524 . S
C5252 C5266 1.377 . S
C5253 C5252 1.524 . S
C5253 C5254 1.397 . S
C5253 C5258 1.363 . S
C5254 H5231 0.950 . S
C5254 C5253 1.397 . S
C5254 C5255 1.334 . S
C5255 H5232 0.950 . S
C5255 C5254 1.334 . S
C5255 C5256 1.287 . S
C5256 C5255 1.287 . S
C5256 C5257 1.524 . S
C5256 H5275 0.913 . S
C5257 H5233 0.950 . S
C5257 C5256 1.524 . S
C5257 C5258 1.415 . S
C5258 H5234 0.950 . S
C5258 C5253 1.363 . S
C5258 C5257 1.415 . S
C5259 H5235 0.951 . S
C5259 C5260 1.366 . S
C5259 C5261 1.388 . S
C5260 C5259 1.366 . S
C5260 C5264 1.385 . S
C5261 H5236 0.951 . S
C5261 C5259 1.388 . S
C5261 C5262 1.366 . S
C5262 C5261 1.366 . S
C5262 C5263 1.414 . S
C5262 C5265 1.499 . S
C5263 H5237 0.950 . S
C5263 C5262 1.414 . S
C5263 C5264 1.374 . S
C5264 H5238 0.950 . S
C5264 C5260 1.385 . S
C5264 C5263 1.374 . S
C5265 C5262 1.499 . S
C5265 C5266 1.373 . S
C5265 C5267 1.389 . S
C5266 H5239 0.950 . S
C5266 C5252 1.377 . S
C5266 C5265 1.373 . S
C5267 C5251 1.377 . S
C5267 C5265 1.389 . S
C5267 C5268 1.524 . S
C5268 C5267 1.524 . S
C5268 C5269 1.397 . S
C5268 C5273 1.363 . S
C5269 H5240 0.950 . S
C5269 C5268 1.397 . S
C5269 C5270 1.334 . S
C5270 H5241 0.950 . S
C5270 C5269 1.334 . S
C5270 C5271 1.287 . S
C5271 C5270 1.287 . S
C5271 C5272 1.524 . S
C5271 H5274 0.999 . S
C5272 H5242 0.950 . S
C5272 C5271 1.524 . S
C5272 C5273 1.415 . S
C5273 H5243 0.950 . S
C5273 C5268 1.363 . S
C5273 C5272 1.415 . S
H5274 C5271 0.999 . S
H5275 C5256 0.913 . S
H5276 C5294 0.951 . S
H5277 C5296 0.951 . S
H5278 C5298 0.950 . S
H5279 C5299 0.950 . S
H5280 C5301 0.950 . S
H5281 C5304 0.950 . S
H5282 C5305 0.950 . S
H5283 C5307 0.950 . S
H5284 C5308 0.950 . S
H5285 C5309 0.982 . S
H5286 C5311 0.951 . S
H5287 C5313 0.950 . S
H5288 C5314 0.950 . S
H5289 C5316 0.950 . S
H5290 C5319 0.950 . S
H5291 C5320 0.950 . S
H5292 C5322 0.950 . S
H5293 C5323 0.950 . S
C5294 H5276 0.951 . S
C5294 C5295 1.366 . S
C5294 C5296 1.388 . S
C5295 C5294 1.366 . S
C5295 C5299 1.385 . S
C5296 H5277 0.951 . S
C5296 C5294 1.388 . S
C5296 C5297 1.366 . S
C5297 C5296 1.366 . S
C5297 C5298 1.414 . S
C5297 C5300 1.499 . S
C5298 H5278 0.950 . S
C5298 C5297 1.414 . S
C5298 C5299 1.374 . S
C5299 H5279 0.950 . S
C5299 C5295 1.385 . S
C5299 C5298 1.374 . S
C5300 C5297 1.499 . S
C5300 C5301 1.373 . S
C5300 C5302 1.389 . S
C5301 H5280 0.950 . S
C5301 C5300 1.373 . S
C5301 C5317 1.377 . S
C5302 C5300 1.389 . S
C5302 C5303 1.524 . S
C5302 C5316 1.377 . S
C5303 C5302 1.524 . S
C5303 C5304 1.397 1_655 S
C5303 C5308 1.363 . S
C5304 H5281 0.950 . S
C5304 C5303 1.397 1_455 S
C5304 C5305 1.334 . S
C5305 H5282 0.950 . S
C5305 C5304 1.334 . S
C5305 C5306 1.287 . S
C5306 C5305 1.287 . S
C5306 C5307 1.524 1_455 S
C5306 H5325 0.913 . S
C5307 H5283 0.950 . S
C5307 C5306 1.524 1_655 S
C5307 C5308 1.415 . S
C5308 H5284 0.950 . S
C5308 C5303 1.363 . S
C5308 C5307 1.415 . S
C5309 H5285 0.982 . S
C5309 C5310 1.369 1_455 S
C5309 C5311 1.357 1_455 S
C5310 C5309 1.369 1_655 S
C5310 C5314 1.385 . S
C5311 H5286 0.951 . S
C5311 C5309 1.357 1_655 S
C5311 C5312 1.366 . S
C5312 C5311 1.366 . S
C5312 C5313 1.414 . S
C5312 C5315 1.499 . S
C5313 H5287 0.950 . S
C5313 C5312 1.414 . S
C5313 C5314 1.374 . S
C5314 H5288 0.950 . S
C5314 C5310 1.385 . S
C5314 C5313 1.374 . S
C5315 C5312 1.499 . S
C5315 C5316 1.373 . S
C5315 C5317 1.389 . S
C5316 H5289 0.950 . S
C5316 C5302 1.377 . S
C5316 C5315 1.373 . S
C5317 C5301 1.377 . S
C5317 C5315 1.389 . S
C5317 C5318 1.524 . S
C5318 C5317 1.524 . S
C5318 C5319 1.397 . S
C5318 C5323 1.363 . S
C5319 H5290 0.950 . S
C5319 C5318 1.397 . S
C5319 C5320 1.334 . S
C5320 H5291 0.950 . S
C5320 C5319 1.334 . S
C5320 C5321 1.287 . S
C5321 C5320 1.287 . S
C5321 C5322 1.524 . S
C5321 H5324 0.999 . S
C5322 H5292 0.950 . S
C5322 C5321 1.524 . S
C5322 C5323 1.415 . S
C5323 H5293 0.950 . S
C5323 C5318 1.363 . S
C5323 C5322 1.415 . S
H5324 C5321 0.999 . S
H5325 C5306 0.913 . S
H5326 C5344 0.951 . S
H5327 C5346 0.951 . S
H5328 C5348 0.950 . S
H5329 C5349 0.950 . S
H5330 C5351 0.950 . S
H5331 C5354 0.950 . S
H5332 C5355 0.950 . S
H5333 C5357 0.950 . S
H5334 C5358 0.950 . S
H5335 C5359 0.951 . S
H5336 C5361 0.951 . S
H5337 C5363 0.950 . S
H5338 C5364 0.950 . S
H5339 C5366 0.950 . S
H5340 C5369 0.950 . S
H5341 C5370 0.950 . S
H5342 C5372 0.950 . S
H5343 C5373 0.950 . S
C5344 H5326 0.951 . S
C5344 C5345 1.366 . S
C5344 C5346 1.388 . S
C5345 C5344 1.366 . S
C5345 C5349 1.385 . S
C5346 H5327 0.951 . S
C5346 C5344 1.388 . S
C5346 C5347 1.366 . S
C5347 C5346 1.366 . S
C5347 C5348 1.414 . S
C5347 C5350 1.499 . S
C5348 H5328 0.950 . S
C5348 C5347 1.414 . S
C5348 C5349 1.374 . S
C5349 H5329 0.950 . S
C5349 C5345 1.385 . S
C5349 C5348 1.374 . S
C5350 C5347 1.499 . S
C5350 C5351 1.373 . S
C5350 C5352 1.389 . S
C5351 H5330 0.950 . S
C5351 C5350 1.373 . S
C5351 C5367 1.377 . S
C5352 C5350 1.389 . S
C5352 C5353 1.524 . S
C5352 C5366 1.377 . S
C5353 C5352 1.524 . S
C5353 C5354 1.397 . S
C5353 C5358 1.363 . S
C5354 H5331 0.950 . S
C5354 C5353 1.397 . S
C5354 C5355 1.334 . S
C5355 H5332 0.950 . S
C5355 C5354 1.334 . S
C5355 C5356 1.287 . S
C5356 C5355 1.287 . S
C5356 C5357 1.524 . S
C5356 H5375 0.913 . S
C5357 H5333 0.950 . S
C5357 C5356 1.524 . S
C5357 C5358 1.415 . S
C5358 H5334 0.950 . S
C5358 C5353 1.363 . S
C5358 C5357 1.415 . S
C5359 H5335 0.951 . S
C5359 C5360 1.366 . S
C5359 C5361 1.388 . S
C5360 C5359 1.366 . S
C5360 C5364 1.385 . S
C5361 H5336 0.951 . S
C5361 C5359 1.388 . S
C5361 C5362 1.366 . S
C5362 C5361 1.366 . S
C5362 C5363 1.414 . S
C5362 C5365 1.499 . S
C5363 H5337 0.950 . S
C5363 C5362 1.414 . S
C5363 C5364 1.374 . S
C5364 H5338 0.950 . S
C5364 C5360 1.385 . S
C5364 C5363 1.374 . S
C5365 C5362 1.499 . S
C5365 C5366 1.373 . S
C5365 C5367 1.389 . S
C5366 H5339 0.950 . S
C5366 C5352 1.377 . S
C5366 C5365 1.373 . S
C5367 C5351 1.377 . S
C5367 C5365 1.389 . S
C5367 C5368 1.524 . S
C5368 C5367 1.524 . S
C5368 C5369 1.397 . S
C5368 C5373 1.363 . S
C5369 H5340 0.950 . S
C5369 C5368 1.397 . S
C5369 C5370 1.334 . S
C5370 H5341 0.950 . S
C5370 C5369 1.334 . S
C5370 C5371 1.287 . S
C5371 C5370 1.287 . S
C5371 C5372 1.524 . S
C5371 H5374 0.999 . S
C5372 H5342 0.950 . S
C5372 C5371 1.524 . S
C5372 C5373 1.415 . S
C5373 H5343 0.950 . S
C5373 C5368 1.363 . S
C5373 C5372 1.415 . S
H5374 C5371 0.999 . S
H5375 C5356 0.913 . S
H5376 C5394 0.951 . S
H5377 C5396 0.951 . S
H5378 C5398 0.950 . S
H5379 C5399 0.950 . S
H5380 C5401 0.950 . S
H5381 C5404 0.950 . S
H5382 C5405 0.950 . S
H5383 C5407 0.950 . S
H5384 C5408 0.950 . S
H5385 C5409 0.951 . S
H5386 C5411 0.951 . S
H5387 C5413 0.950 . S
H5388 C5414 0.950 . S
H5389 C5416 0.950 . S
H5390 C5419 0.950 . S
H5391 C5420 0.950 . S
H5392 C5422 0.950 . S
H5393 C5423 0.950 . S
C5394 H5376 0.951 . S
C5394 C5395 1.366 . S
C5394 C5396 1.388 . S
C5395 C5394 1.366 . S
C5395 C5399 1.385 . S
C5396 H5377 0.951 . S
C5396 C5394 1.388 . S
C5396 C5397 1.366 . S
C5397 C5396 1.366 . S
C5397 C5398 1.414 . S
C5397 C5400 1.499 . S
C5398 H5378 0.950 . S
C5398 C5397 1.414 . S
C5398 C5399 1.374 . S
C5399 H5379 0.950 . S
C5399 C5395 1.385 . S
C5399 C5398 1.374 . S
C5400 C5397 1.499 . S
C5400 C5401 1.373 . S
C5400 C5402 1.389 . S
C5401 H5380 0.950 . S
C5401 C5400 1.373 . S
C5401 C5417 1.377 . S
C5402 C5400 1.389 . S
C5402 C5403 1.524 . S
C5402 C5416 1.377 . S
C5403 C5402 1.524 . S
C5403 C5404 1.397 . S
C5403 C5408 1.363 . S
C5404 H5381 0.950 . S
C5404 C5403 1.397 . S
C5404 C5405 1.334 . S
C5405 H5382 0.950 . S
C5405 C5404 1.334 . S
C5405 C5406 1.287 . S
C5406 C5405 1.287 . S
C5406 C5407 1.524 . S
C5406 H5425 0.913 . S
C5407 H5383 0.950 . S
C5407 C5406 1.524 . S
C5407 C5408 1.415 . S
C5408 H5384 0.950 . S
C5408 C5403 1.363 . S
C5408 C5407 1.415 . S
C5409 H5385 0.951 . S
C5409 C5410 1.366 . S
C5409 C5411 1.388 . S
C5410 C5409 1.366 . S
C5410 C5414 1.385 . S
C5411 H5386 0.951 . S
C5411 C5409 1.388 . S
C5411 C5412 1.366 . S
C5412 C5411 1.366 . S
C5412 C5413 1.414 . S
C5412 C5415 1.499 . S
C5413 H5387 0.950 . S
C5413 C5412 1.414 . S
C5413 C5414 1.374 . S
C5414 H5388 0.950 . S
C5414 C5410 1.385 . S
C5414 C5413 1.374 . S
C5415 C5412 1.499 . S
C5415 C5416 1.373 . S
C5415 C5417 1.389 . S
C5416 H5389 0.950 . S
C5416 C5402 1.377 . S
C5416 C5415 1.373 . S
C5417 C5401 1.377 . S
C5417 C5415 1.389 . S
C5417 C5418 1.524 . S
C5418 C5417 1.524 . S
C5418 C5419 1.397 . S
C5418 C5423 1.363 . S
C5419 H5390 0.950 . S
C5419 C5418 1.397 . S
C5419 C5420 1.334 . S
C5420 H5391 0.950 . S
C5420 C5419 1.334 . S
C5420 C5421 1.287 . S
C5421 C5420 1.287 . S
C5421 C5422 1.524 . S
C5421 H5424 0.999 . S
C5422 H5392 0.950 . S
C5422 C5421 1.524 . S
C5422 C5423 1.415 . S
C5423 H5393 0.950 . S
C5423 C5418 1.363 . S
C5423 C5422 1.415 . S
H5424 C5421 0.999 . S
H5425 C5406 0.913 . S
H5426 C5444 0.951 . S
H5427 C5446 0.951 . S
H5428 C5448 0.950 . S
H5429 C5449 0.950 . S
H5430 C5451 0.950 . S
H5431 C5454 0.950 . S
H5432 C5455 0.950 . S
H5433 C5457 0.955 . S
H5434 C5458 0.950 . S
H5435 C5459 0.951 . S
H5436 C5461 0.951 . S
H5437 C5463 0.950 . S
H5438 C5464 0.950 . S
H5439 C5466 0.950 . S
H5440 C5469 0.950 . S
H5441 C5470 0.950 . S
H5442 C5472 0.950 . S
H5443 C5473 0.944 1_545 S
C5444 H5426 0.951 . S
C5444 C5445 1.366 . S
C5444 C5446 1.388 . S
C5445 C5444 1.366 . S
C5445 C5449 1.385 . S
C5446 H5427 0.951 . S
C5446 C5444 1.388 . S
C5446 C5447 1.366 . S
C5447 C5446 1.366 . S
C5447 C5448 1.414 . S
C5447 C5450 1.499 . S
C5448 H5428 0.950 . S
C5448 C5447 1.414 . S
C5448 C5449 1.374 . S
C5449 H5429 0.950 . S
C5449 C5445 1.385 . S
C5449 C5448 1.374 . S
C5450 C5447 1.499 . S
C5450 C5451 1.373 . S
C5450 C5452 1.389 . S
C5451 H5430 0.950 . S
C5451 C5450 1.373 . S
C5451 C5467 1.377 . S
C5452 C5450 1.389 . S
C5452 C5453 1.524 1_565 S
C5452 C5466 1.377 1_565 S
C5453 C5452 1.524 1_545 S
C5453 C5454 1.397 . S
C5453 C5458 1.363 1_545 S
C5454 H5431 0.950 . S
C5454 C5453 1.397 . S
C5454 C5455 1.334 . S
C5455 H5432 0.950 . S
C5455 C5454 1.334 . S
C5455 C5456 1.287 . S
C5456 C5455 1.287 . S
C5456 C5457 1.524 . S
C5456 H5475 0.913 . S
C5457 H5433 0.955 . S
C5457 C5456 1.524 . S
C5457 C5458 1.415 1_545 S
C5458 H5434 0.950 . S
C5458 C5453 1.363 1_565 S
C5458 C5457 1.415 1_565 S
C5459 H5435 0.951 . S
C5459 C5460 1.366 . S
C5459 C5461 1.388 . S
C5460 C5459 1.366 . S
C5460 C5464 1.385 . S
C5461 H5436 0.951 . S
C5461 C5459 1.388 . S
C5461 C5462 1.366 . S
C5462 C5461 1.366 . S
C5462 C5463 1.414 . S
C5462 C5465 1.499 . S
C5463 H5437 0.950 . S
C5463 C5462 1.414 . S
C5463 C5464 1.374 . S
C5464 H5438 0.950 . S
C5464 C5460 1.385 . S
C5464 C5463 1.374 . S
C5465 C5462 1.499 . S
C5465 C5466 1.373 . S
C5465 C5467 1.389 1_545 S
C5466 H5439 0.950 . S
C5466 C5452 1.377 1_545 S
C5466 C5465 1.373 . S
C5467 C5451 1.377 . S
C5467 C5465 1.389 1_565 S
C5467 C5468 1.524 . S
C5468 C5467 1.524 . S
C5468 C5469 1.397 . S
C5468 C5473 1.363 . S
C5469 H5440 0.950 . S
C5469 C5468 1.397 . S
C5469 C5470 1.334 . S
C5470 H5441 0.950 . S
C5470 C5469 1.334 . S
C5470 C5471 1.287 . S
C5471 C5470 1.287 . S
C5471 C5472 1.524 . S
C5471 H5474 0.999 . S
C5472 H5442 0.950 . S
C5472 C5471 1.524 . S
C5472 C5473 1.415 . S
C5473 H5443 0.944 1_565 S
C5473 C5468 1.363 . S
C5473 C5472 1.415 . S
H5474 C5471 0.999 . S
H5475 C5456 0.913 . S
H5476 C5494 0.951 . S
H5477 C5496 0.951 . S
H5478 C5498 0.950 . S
H5479 C5499 0.950 . S
H5480 C5501 0.950 . S
H5481 C5504 0.950 . S
H5482 C5505 0.950 . S
H5483 C5507 0.950 . S
H5484 C5508 0.950 . S
H5485 C5509 0.951 . S
H5486 C5511 0.951 . S
H5487 C5513 0.950 . S
H5488 C5514 0.950 . S
H5489 C5516 0.950 . S
H5490 C5519 0.950 . S
H5491 C5520 0.950 . S
H5492 C5522 0.950 . S
H5493 C5523 0.950 . S
C5494 H5476 0.951 . S
C5494 C5495 1.366 . S
C5494 C5496 1.388 . S
C5495 C5494 1.366 . S
C5495 C5499 1.385 . S
C5496 H5477 0.951 . S
C5496 C5494 1.388 . S
C5496 C5497 1.366 . S
C5497 C5496 1.366 . S
C5497 C5498 1.414 . S
C5497 C5500 1.499 . S
C5498 H5478 0.950 . S
C5498 C5497 1.414 . S
C5498 C5499 1.374 . S
C5499 H5479 0.950 . S
C5499 C5495 1.385 . S
C5499 C5498 1.374 . S
C5500 C5497 1.499 . S
C5500 C5501 1.373 . S
C5500 C5502 1.389 . S
C5501 H5480 0.950 . S
C5501 C5500 1.373 . S
C5501 C5517 1.377 . S
C5502 C5500 1.389 . S
C5502 C5503 1.524 . S
C5502 C5516 1.377 . S
C5503 C5502 1.524 . S
C5503 C5504 1.397 . S
C5503 C5508 1.363 . S
C5504 H5481 0.950 . S
C5504 C5503 1.397 . S
C5504 C5505 1.334 . S
C5505 H5482 0.950 . S
C5505 C5504 1.334 . S
C5505 C5506 1.287 . S
C5506 C5505 1.287 . S
C5506 C5507 1.524 . S
C5506 H5525 0.913 . S
C5507 H5483 0.950 . S
C5507 C5506 1.524 . S
C5507 C5508 1.415 . S
C5508 H5484 0.950 . S
C5508 C5503 1.363 . S
C5508 C5507 1.415 . S
C5509 H5485 0.951 . S
C5509 C5510 1.366 . S
C5509 C5511 1.388 . S
C5510 C5509 1.366 . S
C5510 C5514 1.385 . S
C5511 H5486 0.951 . S
C5511 C5509 1.388 . S
C5511 C5512 1.366 . S
C5512 C5511 1.366 . S
C5512 C5513 1.414 . S
C5512 C5515 1.499 . S
C5513 H5487 0.950 . S
C5513 C5512 1.414 . S
C5513 C5514 1.374 . S
C5514 H5488 0.950 . S
C5514 C5510 1.385 . S
C5514 C5513 1.374 . S
C5515 C5512 1.499 . S
C5515 C5516 1.373 . S
C5515 C5517 1.389 . S
C5516 H5489 0.950 . S
C5516 C5502 1.377 . S
C5516 C5515 1.373 . S
C5517 C5501 1.377 . S
C5517 C5515 1.389 . S
C5517 C5518 1.524 . S
C5518 C5517 1.524 . S
C5518 C5519 1.397 . S
C5518 C5523 1.363 . S
C5519 H5490 0.950 . S
C5519 C5518 1.397 . S
C5519 C5520 1.334 . S
C5520 H5491 0.950 . S
C5520 C5519 1.334 . S
C5520 C5521 1.287 . S
C5521 C5520 1.287 . S
C5521 C5522 1.524 . S
C5521 H5524 0.999 . S
C5522 H5492 0.950 . S
C5522 C5521 1.524 . S
C5522 C5523 1.415 . S
C5523 H5493 0.950 . S
C5523 C5518 1.363 . S
C5523 C5522 1.415 . S
H5524 C5521 0.999 . S
H5525 C5506 0.913 . S
H5526 C5544 0.951 . S
H5527 C5546 0.951 . S
H5528 C5548 0.950 . S
H5529 C5549 0.950 . S
H5530 C5551 0.950 . S
H5531 C5554 0.950 . S
H5532 C5555 0.950 . S
H5533 C5557 0.950 . S
H5534 C5558 0.950 . S
H5535 C5559 0.951 . S
H5536 C5561 0.936 1_556 S
H5537 C5563 0.950 . S
H5538 C5564 0.950 . S
H5539 C5566 0.950 . S
H5540 C5569 0.950 . S
H5541 C5570 0.950 . S
H5542 C5572 0.950 . S
H5543 C5573 0.950 . S
C5544 H5526 0.951 . S
C5544 C5545 1.366 1_554 S
C5544 C5546 1.388 . S
C5545 C5544 1.366 1_556 S
C5545 C5549 1.385 . S
C5546 H5527 0.951 . S
C5546 C5544 1.388 . S
C5546 C5547 1.366 . S
C5547 C5546 1.366 . S
C5547 C5548 1.414 1_554 S
C5547 C5550 1.499 . S
C5548 H5528 0.950 . S
C5548 C5547 1.414 1_556 S
C5548 C5549 1.374 . S
C5549 H5529 0.950 . S
C5549 C5545 1.385 . S
C5549 C5548 1.374 . S
C5550 C5547 1.499 . S
C5550 C5551 1.373 1_554 S
C5550 C5552 1.389 . S
C5551 H5530 0.950 . S
C5551 C5550 1.373 1_556 S
C5551 C5567 1.377 . S
C5552 C5550 1.389 . S
C5552 C5553 1.524 . S
C5552 C5566 1.377 . S
C5553 C5552 1.524 . S
C5553 C5554 1.397 . S
C5553 C5558 1.363 . S
C5554 H5531 0.950 . S
C5554 C5553 1.397 . S
C5554 C5555 1.334 . S
C5555 H5532 0.950 . S
C5555 C5554 1.334 . S
C5555 C5556 1.287 . S
C5556 C5555 1.287 . S
C5556 C5557 1.524 . S
C5556 H5575 0.913 . S
C5557 H5533 0.950 . S
C5557 C5556 1.524 . S
C5557 C5558 1.415 . S
C5558 H5534 0.950 . S
C5558 C5553 1.363 . S
C5558 C5557 1.415 . S
C5559 H5535 0.951 . S
C5559 C5560 1.366 . S
C5559 C5561 1.388 . S
C5560 C5559 1.366 . S
C5560 C5564 1.385 . S
C5561 H5536 0.936 1_554 S
C5561 C5559 1.388 . S
C5561 C5562 1.366 . S
C5562 C5561 1.366 . S
C5562 C5563 1.414 . S
C5562 C5565 1.499 . S
C5563 H5537 0.950 . S
C5563 C5562 1.414 . S
C5563 C5564 1.374 . S
C5564 H5538 0.950 . S
C5564 C5560 1.385 . S
C5564 C5563 1.374 . S
C5565 C5562 1.499 . S
C5565 C5566 1.373 . S
C5565 C5567 1.389 1_554 S
C5566 H5539 0.950 . S
C5566 C5552 1.377 . S
C5566 C5565 1.373 . S
C5567 C5551 1.377 . S
C5567 C5565 1.389 1_556 S
C5567 C5568 1.524 . S
C5568 C5567 1.524 . S
C5568 C5569 1.397 . S
C5568 C5573 1.363 . S
C5569 H5540 0.950 . S
C5569 C5568 1.397 . S
C5569 C5570 1.334 . S
C5570 H5541 0.950 . S
C5570 C5569 1.334 . S
C5570 C5571 1.287 . S
C5571 C5570 1.287 . S
C5571 C5572 1.524 . S
C5571 H5574 0.999 . S
C5572 H5542 0.950 . S
C5572 C5571 1.524 . S
C5572 C5573 1.415 . S
C5573 H5543 0.950 . S
C5573 C5568 1.363 . S
C5573 C5572 1.415 . S
H5574 C5571 0.999 . S
H5575 C5556 0.913 . S
H5576 C5594 0.951 . S
H5577 C5596 0.951 . S
H5578 C5598 0.950 . S
H5579 C5599 0.950 . S
H5580 C5601 0.950 . S
H5581 C5604 0.950 . S
H5582 C5605 0.950 . S
H5583 C5607 0.950 . S
H5584 C5608 0.950 . S
H5585 C5609 0.951 . S
H5586 C5611 0.951 . S
H5587 C5613 0.950 . S
H5588 C5614 0.950 . S
H5589 C5616 0.950 . S
H5590 C5619 0.950 . S
H5591 C5620 0.950 . S
H5592 C5622 0.950 . S
H5593 C5623 0.950 . S
C5594 H5576 0.951 . S
C5594 C5595 1.366 . S
C5594 C5596 1.388 . S
C5595 C5594 1.366 . S
C5595 C5599 1.385 . S
C5596 H5577 0.951 . S
C5596 C5594 1.388 . S
C5596 C5597 1.366 . S
C5597 C5596 1.366 . S
C5597 C5598 1.414 . S
C5597 C5600 1.499 . S
C5598 H5578 0.950 . S
C5598 C5597 1.414 . S
C5598 C5599 1.374 . S
C5599 H5579 0.950 . S
C5599 C5595 1.385 . S
C5599 C5598 1.374 . S
C5600 C5597 1.499 . S
C5600 C5601 1.373 . S
C5600 C5602 1.389 . S
C5601 H5580 0.950 . S
C5601 C5600 1.373 . S
C5601 C5617 1.377 . S
C5602 C5600 1.389 . S
C5602 C5603 1.524 . S
C5602 C5616 1.377 . S
C5603 C5602 1.524 . S
C5603 C5604 1.397 . S
C5603 C5608 1.363 . S
C5604 H5581 0.950 . S
C5604 C5603 1.397 . S
C5604 C5605 1.334 . S
C5605 H5582 0.950 . S
C5605 C5604 1.334 . S
C5605 C5606 1.287 . S
C5606 C5605 1.287 . S
C5606 C5607 1.524 . S
C5606 H5625 0.913 . S
C5607 H5583 0.950 . S
C5607 C5606 1.524 . S
C5607 C5608 1.415 . S
C5608 H5584 0.950 . S
C5608 C5603 1.363 . S
C5608 C5607 1.415 . S
C5609 H5585 0.951 . S
C5609 C5610 1.366 . S
C5609 C5611 1.388 . S
C5610 C5609 1.366 . S
C5610 C5614 1.385 . S
C5611 H5586 0.951 . S
C5611 C5609 1.388 . S
C5611 C5612 1.366 . S
C5612 C5611 1.366 . S
C5612 C5613 1.414 . S
C5612 C5615 1.499 . S
C5613 H5587 0.950 . S
C5613 C5612 1.414 . S
C5613 C5614 1.374 . S
C5614 H5588 0.950 . S
C5614 C5610 1.385 . S
C5614 C5613 1.374 . S
C5615 C5612 1.499 . S
C5615 C5616 1.373 . S
C5615 C5617 1.389 . S
C5616 H5589 0.950 . S
C5616 C5602 1.377 . S
C5616 C5615 1.373 . S
C5617 C5601 1.377 . S
C5617 C5615 1.389 . S
C5617 C5618 1.524 . S
C5618 C5617 1.524 . S
C5618 C5619 1.397 . S
C5618 C5623 1.363 . S
C5619 H5590 0.950 . S
C5619 C5618 1.397 . S
C5619 C5620 1.334 . S
C5620 H5591 0.950 . S
C5620 C5619 1.334 . S
C5620 C5621 1.287 . S
C5621 C5620 1.287 . S
C5621 C5622 1.524 . S
C5621 H5624 0.999 . S
C5622 H5592 0.950 . S
C5622 C5621 1.524 . S
C5622 C5623 1.415 . S
C5623 H5593 0.950 . S
C5623 C5618 1.363 . S
C5623 C5622 1.415 . S
H5624 C5621 0.999 . S
H5625 C5606 0.913 . S
H5626 C5644 0.951 . S
H5627 C5646 0.951 . S
H5628 C5648 0.950 1_556 S
H5629 C5649 0.950 . S
H5630 C5651 0.950 . S
H5631 C5654 0.950 . S
H5632 C5655 0.950 . S
H5633 C5657 0.950 . S
H5634 C5658 0.950 . S
H5635 C5659 0.951 . S
H5636 C5661 0.951 . S
H5637 C5663 0.950 . S
H5638 C5664 0.950 . S
H5639 C5666 0.950 . S
H5640 C5669 0.950 . S
H5641 C5670 0.950 . S
H5642 C5672 0.950 . S
H5643 C5673 0.950 . S
C5644 H5626 0.951 . S
C5644 C5645 1.366 . S
C5644 C5646 1.388 . S
C5645 C5644 1.366 . S
C5645 C5649 1.385 . S
C5646 H5627 0.951 . S
C5646 C5644 1.388 . S
C5646 C5647 1.366 . S
C5647 C5646 1.366 . S
C5647 C5648 1.414 . S
C5647 C5650 1.499 . S
C5648 H5628 0.950 1_554 S
C5648 C5647 1.414 . S
C5648 C5649 1.374 . S
C5649 H5629 0.950 . S
C5649 C5645 1.385 . S
C5649 C5648 1.374 . S
C5650 C5647 1.499 . S
C5650 C5651 1.373 1_554 S
C5650 C5652 1.389 . S
C5651 H5630 0.950 . S
C5651 C5650 1.373 1_556 S
C5651 C5667 1.377 . S
C5652 C5650 1.389 . S
C5652 C5653 1.524 . S
C5652 C5666 1.377 . S
C5653 C5652 1.524 . S
C5653 C5654 1.397 . S
C5653 C5658 1.363 . S
C5654 H5631 0.950 . S
C5654 C5653 1.397 . S
C5654 C5655 1.334 . S
C5655 H5632 0.950 . S
C5655 C5654 1.334 . S
C5655 C5656 1.287 . S
C5656 C5655 1.287 . S
C5656 C5657 1.524 . S
C5656 H5675 0.913 . S
C5657 H5633 0.950 . S
C5657 C5656 1.524 . S
C5657 C5658 1.415 . S
C5658 H5634 0.950 . S
C5658 C5653 1.363 . S
C5658 C5657 1.415 . S
C5659 H5635 0.951 . S
C5659 C5660 1.366 . S
C5659 C5661 1.388 . S
C5660 C5659 1.366 . S
C5660 C5664 1.385 1_556 S
C5661 H5636 0.951 . S
C5661 C5659 1.388 . S
C5661 C5662 1.366 1_556 S
C5662 C5661 1.366 1_554 S
C5662 C5663 1.414 . S
C5662 C5665 1.499 . S
C5663 H5637 0.950 . S
C5663 C5662 1.414 . S
C5663 C5664 1.374 . S
C5664 H5638 0.950 . S
C5664 C5660 1.385 1_554 S
C5664 C5663 1.374 . S
C5665 C5662 1.499 . S
C5665 C5666 1.373 . S
C5665 C5667 1.389 1_554 S
C5666 H5639 0.950 . S
C5666 C5652 1.377 . S
C5666 C5665 1.373 . S
C5667 C5651 1.377 . S
C5667 C5665 1.389 1_556 S
C5667 C5668 1.524 . S
C5668 C5667 1.524 . S
C5668 C5669 1.397 . S
C5668 C5673 1.363 . S
C5669 H5640 0.950 . S
C5669 C5668 1.397 . S
C5669 C5670 1.334 . S
C5670 H5641 0.950 . S
C5670 C5669 1.334 . S
C5670 C5671 1.287 . S
C5671 C5670 1.287 . S
C5671 C5672 1.524 . S
C5671 H5674 0.999 . S
C5672 H5642 0.950 . S
C5672 C5671 1.524 . S
C5672 C5673 1.415 . S
C5673 H5643 0.950 . S
C5673 C5668 1.363 . S
C5673 C5672 1.415 . S
H5674 C5671 0.999 . S
H5675 C5656 0.913 . S
H5676 C5694 0.951 1_545 S
H5677 C5696 0.951 . S
H5678 C5698 0.950 . S
H5679 C5699 0.950 . S
H5680 C5701 0.950 . S
H5681 C5704 0.950 . S
H5682 C5705 0.950 . S
H5683 C5707 0.950 . S
H5684 C5708 0.950 . S
H5685 C5709 0.951 . S
H5686 C5711 0.951 . S
H5687 C5713 0.950 . S
H5688 C5714 0.950 . S
H5689 C5716 0.950 . S
H5690 C5719 0.950 . S
H5691 C5720 0.950 . S
H5692 C5722 0.950 . S
H5693 C5723 0.950 . S
C5694 H5676 0.951 1_565 S
C5694 C5695 1.366 1_565 S
C5694 C5696 1.388 . S
C5695 C5694 1.366 1_545 S
C5695 C5699 1.385 1_545 S
C5696 H5677 0.951 . S
C5696 C5694 1.388 . S
C5696 C5697 1.366 . S
C5697 C5696 1.366 . S
C5697 C5698 1.414 . S
C5697 C5700 1.499 . S
C5698 H5678 0.950 . S
C5698 C5697 1.414 . S
C5698 C5699 1.374 . S
C5699 H5679 0.950 . S
C5699 C5695 1.385 1_565 S
C5699 C5698 1.374 . S
C5700 C5697 1.499 . S
C5700 C5701 1.373 . S
C5700 C5702 1.389 . S
C5701 H5680 0.950 . S
C5701 C5700 1.373 . S
C5701 C5717 1.377 . S
C5702 C5700 1.389 . S
C5702 C5703 1.524 . S
C5702 C5716 1.377 . S
C5703 C5702 1.524 . S
C5703 C5704 1.397 . S
C5703 C5708 1.363 . S
C5704 H5681 0.950 . S
C5704 C5703 1.397 . S
C5704 C5705 1.334 . S
C5705 H5682 0.950 . S
C5705 C5704 1.334 . S
C5705 C5706 1.287 . S
C5706 C5705 1.287 . S
C5706 C5707 1.524 . S
C5706 H5725 0.913 . S
C5707 H5683 0.950 . S
C5707 C5706 1.524 . S
C5707 C5708 1.415 . S
C5708 H5684 0.950 . S
C5708 C5703 1.363 . S
C5708 C5707 1.415 . S
C5709 H5685 0.951 . S
C5709 C5710 1.366 . S
C5709 C5711 1.388 . S
C5710 C5709 1.366 . S
C5710 C5714 1.385 . S
C5711 H5686 0.951 . S
C5711 C5709 1.388 . S
C5711 C5712 1.366 . S
C5712 C5711 1.366 . S
C5712 C5713 1.414 . S
C5712 C5715 1.499 . S
C5713 H5687 0.950 . S
C5713 C5712 1.414 . S
C5713 C5714 1.374 . S
C5714 H5688 0.950 . S
C5714 C5710 1.385 . S
C5714 C5713 1.374 . S
C5715 C5712 1.499 . S
C5715 C5716 1.373 . S
C5715 C5717 1.389 . S
C5716 H5689 0.950 . S
C5716 C5702 1.377 . S
C5716 C5715 1.373 . S
C5717 C5701 1.377 . S
C5717 C5715 1.389 . S
C5717 C5718 1.524 . S
C5718 C5717 1.524 . S
C5718 C5719 1.397 . S
C5718 C5723 1.363 . S
C5719 H5690 0.950 . S
C5719 C5718 1.397 . S
C5719 C5720 1.334 . S
C5720 H5691 0.950 . S
C5720 C5719 1.334 . S
C5720 C5721 1.287 . S
C5721 C5720 1.287 . S
C5721 C5722 1.524 . S
C5721 H5724 0.999 . S
C5722 H5692 0.950 . S
C5722 C5721 1.524 . S
C5722 C5723 1.415 . S
C5723 H5693 0.950 . S
C5723 C5718 1.363 . S
C5723 C5722 1.415 . S
H5724 C5721 0.999 . S
H5725 C5706 0.913 . S
H5726 C5744 0.951 . S
H5727 C5746 0.951 . S
H5728 C5748 0.950 . S
H5729 C5749 0.950 . S
H5730 C5751 0.950 . S
H5731 C5754 0.950 . S
H5732 C5755 0.950 . S
H5733 C5757 0.950 . S
H5734 C5758 0.950 . S
H5735 C5759 0.951 . S
H5736 C5761 0.951 . S
H5737 C5763 0.950 . S
H5738 C5764 0.950 . S
H5739 C5766 0.950 . S
H5740 C5769 0.950 . S
H5741 C5770 0.950 . S
H5742 C5772 0.950 . S
H5743 C5773 0.950 . S
C5744 H5726 0.951 . S
C5744 C5745 1.366 . S
C5744 C5746 1.388 . S
C5745 C5744 1.366 . S
C5745 C5749 1.385 . S
C5746 H5727 0.951 . S
C5746 C5744 1.388 . S
C5746 C5747 1.366 . S
C5747 C5746 1.366 . S
C5747 C5748 1.414 . S
C5747 C5750 1.499 . S
C5748 H5728 0.950 . S
C5748 C5747 1.414 . S
C5748 C5749 1.374 . S
C5749 H5729 0.950 . S
C5749 C5745 1.385 . S
C5749 C5748 1.374 . S
C5750 C5747 1.499 . S
C5750 C5751 1.373 . S
C5750 C5752 1.389 . S
C5751 H5730 0.950 . S
C5751 C5750 1.373 . S
C5751 C5767 1.377 . S
C5752 C5750 1.389 . S
C5752 C5753 1.524 . S
C5752 C5766 1.377 . S
C5753 C5752 1.524 . S
C5753 C5754 1.397 . S
C5753 C5758 1.363 . S
C5754 H5731 0.950 . S
C5754 C5753 1.397 . S
C5754 C5755 1.334 . S
C5755 H5732 0.950 . S
C5755 C5754 1.334 . S
C5755 C5756 1.287 . S
C5756 C5755 1.287 . S
C5756 C5757 1.524 . S
C5756 H5775 0.913 . S
C5757 H5733 0.950 . S
C5757 C5756 1.524 . S
C5757 C5758 1.415 . S
C5758 H5734 0.950 . S
C5758 C5753 1.363 . S
C5758 C5757 1.415 . S
C5759 H5735 0.951 . S
C5759 C5760 1.366 . S
C5759 C5761 1.388 . S
C5760 C5759 1.366 . S
C5760 C5764 1.385 . S
C5761 H5736 0.951 . S
C5761 C5759 1.388 . S
C5761 C5762 1.366 . S
C5762 C5761 1.366 . S
C5762 C5763 1.414 . S
C5762 C5765 1.499 . S
C5763 H5737 0.950 . S
C5763 C5762 1.414 . S
C5763 C5764 1.374 . S
C5764 H5738 0.950 . S
C5764 C5760 1.385 . S
C5764 C5763 1.374 . S
C5765 C5762 1.499 . S
C5765 C5766 1.373 . S
C5765 C5767 1.389 . S
C5766 H5739 0.950 . S
C5766 C5752 1.377 . S
C5766 C5765 1.373 . S
C5767 C5751 1.377 . S
C5767 C5765 1.389 . S
C5767 C5768 1.524 . S
C5768 C5767 1.524 . S
C5768 C5769 1.397 . S
C5768 C5773 1.363 . S
C5769 H5740 0.950 . S
C5769 C5768 1.397 . S
C5769 C5770 1.334 . S
C5770 H5741 0.950 . S
C5770 C5769 1.334 . S
C5770 C5771 1.287 . S
C5771 C5770 1.287 . S
C5771 C5772 1.524 . S
C5771 H5774 0.999 . S
C5772 H5742 0.950 . S
C5772 C5771 1.524 . S
C5772 C5773 1.415 . S
C5773 H5743 0.950 . S
C5773 C5768 1.363 . S
C5773 C5772 1.415 . S
H5774 C5771 0.999 . S
H5775 C5756 0.913 . S
C995 C109 1.966 . S
C1010 C346 1.913 . S
C1045 C61 1.479 . S
C1060 C385 1.635 . S
C1095 C74 1.154 . S
C1110 C426 1.177 . S
C1160 C471 1.409 . S
C1145 C96 1.429 . S
C1195 C25 1.881 . S
C1210 C515 1.899 . S
C1260 C546 1.100 . S
C1245 C40 1.121 . S
C1310 C594 1.937 . S
C1295 C46 1.917 . S
C1345 C5 1.227 . S
C1360 C622 1.485 . S
C1410 C354 1.130 . S
C1395 C229 0.924 . S
C1445 C249 1.209 . S
C1460 C395 1.183 . S
C1510 C434 1.264 . S
C1495 C271 1.195 . S
C1560 C466 1.392 . S
C1545 C172 1.350 1_556 S
C1595 C236 0.144 . S
C1610 C502 0.123 . S
C1660 C554 2.447 . S
C1645 C242 2.445 . S
C1710 C591 0.598 . S
C1695 C278 0.577 . S
C1760 C625 1.892 . S
C1745 C179 1.902 . S
C1810 C351 1.726 . S
C1795 C159 1.439 . S
C1845 C285 1.675 . S
C1860 C665 1.852 . S
C1910 C711 0.837 . S
C1895 C333 0.847 . S
C1960 C746 1.305 . S
C1945 C320 1.336 . S
C1995 C123 1.689 . S
C2010 C635 1.635 . S
C2045 C138 1.358 . S
C2060 C431 1.338 . S
C2095 C326 1.318 . S
C2110 C794 1.304 . S
C2160 C822 0.318 . S
C2145 C298 0.388 . S
C2210 C355 1.905 . S
C2195 C67 1.912 . S
C2260 C834 1.558 . S
C2245 C110 1.595 . S
C2295 C88 1.189 . S
C2310 C435 1.190 . S
C2345 C75 1.168 . S
C2360 C782 1.330 . S
C2410 C506 1.771 . S
C2395 C11 1.795 1_455 S
C2445 C47 1.056 . S
C2460 C715 1.135 . S
C2510 C585 1.841 . S
C2495 C32 1.816 . S
C2560 C871 1.572 . S
C2545 C26 1.607 . S
C2610 C345 1.285 . S
C2595 C152 1.285 . S
C2660 C826 1.184 . S
C2645 C319 1.218 . S
C2695 C124 1.221 . S
C2710 C425 1.226 . S
C2745 C284 1.402 . S
C2760 C795 1.403 . S
C2795 C145 0.860 . S
C2810 C511 0.209 . S
C2860 C705 2.325 . S
C2845 C312 2.305 . S
C2895 C117 0.532 . S
C2910 C582 0.523 . S
C2945 C291 1.810 . S
C2960 C874 1.818 . S
C2995 C194 1.850 . S
C3010 C342 1.801 . S
C3045 C180 1.828 . S
C3060 C674 1.788 . S
C3095 C263 0.789 . S
C3110 C542 0.794 . S
C3145 C243 1.102 . S
C3160 C755 1.194 . S
C3210 C866 1.682 . S
C3195 C277 1.699 . S
C3245 C215 1.147 . S
C3260 C422 1.297 . S
C3310 C465 1.191 . S
C3295 C256 1.120 . S
C3360 C391 0.370 . S
C3345 C200 0.417 . S
C3395 C81 1.966 . S
C3410 C906 1.913 . S
C3460 C825 1.635 . S
C3445 C89 1.479 . S
C3495 C102 1.153 . S
C3510 C946 1.177 . S
C3545 C68 1.429 . S
C3560 C791 1.409 . S
C3595 C53 1.882 . S
C3610 C675 1.899 . S
C3660 C706 1.100 . S
C3645 C12 1.121 . S
C3710 C754 1.937 . S
C3695 C18 1.917 . S
C3760 C862 1.485 . S
C3745 C33 1.226 . S
C3810 C914 1.130 . S
C3795 C257 0.927 . S
C3845 C193 1.210 . S
C3860 C835 1.190 . S
C3910 C954 1.264 . S
C3895 C201 1.198 . S
C3960 C786 1.392 . S
C3945 C214 1.349 . S
C4010 C662 0.123 . S
C3995 C264 0.144 . S
C4045 C186 2.444 . S
C4060 C714 2.439 . S
C4110 C751 0.598 . S
C4095 C208 0.578 . S
C4145 C221 1.902 . S
C4160 C865 1.892 . S
C4210 C911 1.726 . S
C4195 C313 1.439 . S
C4245 C131 1.675 . S
C4260 C505 1.852 . S
C4310 C551 0.838 . S
C4295 C151 0.847 . S
C4360 C586 1.308 . S
C4345 C166 1.336 . S
C4410 C875 1.634 . S
C4395 C305 1.689 . S
C4445 C292 1.358 . S
C4460 C951 1.338 . S
C4510 C474 1.304 . S
C4495 C144 1.319 . S
C4560 C382 0.318 . S
C4545 C116 0.388 . S
C4595 C95 1.912 . S
C4610 C915 1.895 . S
C4660 C394 1.558 . S
C4645 C82 1.595 . S
C4695 C60 1.189 . S
C4710 C955 1.190 . S
C4745 C103 1.166 . S
C4760 C462 1.331 . S
C4795 C39 1.806 . S
C4810 C666 1.759 1_556 S
C4860 C555 1.134 . S
C4845 C19 1.055 . S
C4895 C4 1.816 . S
C4910 C745 1.841 . S
C4945 C54 1.606 . S
C4960 C631 1.571 . S
C5010 C905 1.284 . S
C4995 C334 1.285 . S
C5045 C165 1.217 . S
C5060 C386 1.184 . S
C5110 C945 1.227 . S
C5095 C306 1.221 . S
C5145 C130 1.402 . S
C5160 C475 1.404 . S
C5195 C327 0.860 . S
C5210 C671 0.210 . S
C5260 C545 2.325 . S
C5245 C158 2.305 1_556 S
C5295 C299 0.533 . S
C5310 C742 0.533 . S
C5360 C634 1.818 . S
C5345 C137 1.809 . S
C5410 C902 1.801 . S
C5395 C250 1.846 . S
C5460 C514 1.788 . S
C5445 C222 1.828 . S
C5495 C235 0.792 . S
C5510 C702 0.796 . S
C5560 C595 1.194 . S
C5545 C187 1.097 . S
C5595 C207 1.695 . S
C5610 C626 1.682 . S
C5645 C173 1.146 . S
C5660 C942 1.296 . S
C5710 C785 1.191 . S
C5695 C228 1.120 . S
C5760 C831 0.372 . S
C5745 C270 0.415 . S
