# Generated by pormake.
# Topology gar, (4,6)-cn, num edge types: 1
# Building blocks:
#     Node 0, Type 0, BuildingBlock: NAHDIM_clean_sbu_0, # of connection points: 4
#     Node 1, Type 0, BuildingBlock: NAHDIM_clean_sbu_0, # of connection points: 4
#     Node 2, Type 0, BuildingBlock: NAHDIM_clean_sbu_0, # of connection points: 4
#     Node 3, Type 0, BuildingBlock: NAHDIM_clean_sbu_0, # of connection points: 4
#     Node 4, Type 0, BuildingBlock: NAHDIM_clean_sbu_0, # of connection points: 4
#     Node 5, Type 0, BuildingBlock: NAHDIM_clean_sbu_0, # of connection points: 4
#     Node 6, Type 0, BuildingBlock: NAHDIM_clean_sbu_0, # of connection points: 4
#     Node 7, Type 0, BuildingBlock: NAHDIM_clean_sbu_0, # of connection points: 4
#     Node 8, Type 0, BuildingBlock: NAHDIM_clean_sbu_0, # of connection points: 4
#     Node 9, Type 0, BuildingBlock: NAHDIM_clean_sbu_0, # of connection points: 4
#     Node 10, Type 0, BuildingBlock: NAHDIM_clean_sbu_0, # of connection points: 4
#     Node 11, Type 0, BuildingBlock: NAHDIM_clean_sbu_0, # of connection points: 4
#     Node 12, Type 0, BuildingBlock: NAHDIM_clean_sbu_0, # of connection points: 4
#     Node 13, Type 0, BuildingBlock: NAHDIM_clean_sbu_0, # of connection points: 4
#     Node 14, Type 0, BuildingBlock: NAHDIM_clean_sbu_0, # of connection points: 4
#     Node 15, Type 0, BuildingBlock: NAHDIM_clean_sbu_0, # of connection points: 4
#     Node 16, Type 0, BuildingBlock: NAHDIM_clean_sbu_0, # of connection points: 4
#     Node 17, Type 0, BuildingBlock: NAHDIM_clean_sbu_0, # of connection points: 4
#     Node 18, Type 0, BuildingBlock: NAHDIM_clean_sbu_0, # of connection points: 4
#     Node 19, Type 0, BuildingBlock: NAHDIM_clean_sbu_0, # of connection points: 4
#     Node 20, Type 0, BuildingBlock: NAHDIM_clean_sbu_0, # of connection points: 4
#     Node 21, Type 0, BuildingBlock: NAHDIM_clean_sbu_0, # of connection points: 4
#     Node 22, Type 0, BuildingBlock: NAHDIM_clean_sbu_0, # of connection points: 4
#     Node 23, Type 0, BuildingBlock: NAHDIM_clean_sbu_0, # of connection points: 4
#     Node 24, Type 1, BuildingBlock: BETFEN_clean_sbu_0, # of connection points: 6
#     Node 25, Type 1, BuildingBlock: BETFEN_clean_sbu_0, # of connection points: 6
#     Node 26, Type 1, BuildingBlock: BETFEN_clean_sbu_0, # of connection points: 6
#     Node 27, Type 1, BuildingBlock: BETFEN_clean_sbu_0, # of connection points: 6
#     Node 28, Type 1, BuildingBlock: BETFEN_clean_sbu_0, # of connection points: 6
#     Node 29, Type 1, BuildingBlock: BETFEN_clean_sbu_0, # of connection points: 6
#     Node 30, Type 1, BuildingBlock: BETFEN_clean_sbu_0, # of connection points: 6
#     Node 31, Type 1, BuildingBlock: BETFEN_clean_sbu_0, # of connection points: 6
#     Node 32, Type 1, BuildingBlock: BETFEN_clean_sbu_0, # of connection points: 6
#     Node 33, Type 1, BuildingBlock: BETFEN_clean_sbu_0, # of connection points: 6
#     Node 34, Type 1, BuildingBlock: BETFEN_clean_sbu_0, # of connection points: 6
#     Node 35, Type 1, BuildingBlock: BETFEN_clean_sbu_0, # of connection points: 6
#     Node 36, Type 1, BuildingBlock: BETFEN_clean_sbu_0, # of connection points: 6
#     Node 37, Type 1, BuildingBlock: BETFEN_clean_sbu_0, # of connection points: 6
#     Node 38, Type 1, BuildingBlock: BETFEN_clean_sbu_0, # of connection points: 6
#     Node 39, Type 1, BuildingBlock: BETFEN_clean_sbu_0, # of connection points: 6
#     Edge 40, Type (0, 1), BuildingBlock: KIFKEQ_clean_linker_1, # of connection points: 2
#     Edge 41, Type (0, 1), BuildingBlock: KIFKEQ_clean_linker_1, # of connection points: 2
#     Edge 42, Type (0, 1), BuildingBlock: KIFKEQ_clean_linker_1, # of connection points: 2
#     Edge 43, Type (0, 1), BuildingBlock: KIFKEQ_clean_linker_1, # of connection points: 2
#     Edge 44, Type (0, 1), BuildingBlock: KIFKEQ_clean_linker_1, # of connection points: 2
#     Edge 45, Type (0, 1), BuildingBlock: KIFKEQ_clean_linker_1, # of connection points: 2
#     Edge 46, Type (0, 1), BuildingBlock: KIFKEQ_clean_linker_1, # of connection points: 2
#     Edge 47, Type (0, 1), BuildingBlock: KIFKEQ_clean_linker_1, # of connection points: 2
#     Edge 48, Type (0, 1), BuildingBlock: KIFKEQ_clean_linker_1, # of connection points: 2
#     Edge 49, Type (0, 1), BuildingBlock: KIFKEQ_clean_linker_1, # of connection points: 2
#     Edge 50, Type (0, 1), BuildingBlock: KIFKEQ_clean_linker_1, # of connection points: 2
#     Edge 51, Type (0, 1), BuildingBlock: KIFKEQ_clean_linker_1, # of connection points: 2
#     Edge 52, Type (0, 1), BuildingBlock: KIFKEQ_clean_linker_1, # of connection points: 2
#     Edge 53, Type (0, 1), BuildingBlock: KIFKEQ_clean_linker_1, # of connection points: 2
#     Edge 54, Type (0, 1), BuildingBlock: KIFKEQ_clean_linker_1, # of connection points: 2
#     Edge 55, Type (0, 1), BuildingBlock: KIFKEQ_clean_linker_1, # of connection points: 2
#     Edge 56, Type (0, 1), BuildingBlock: KIFKEQ_clean_linker_1, # of connection points: 2
#     Edge 57, Type (0, 1), BuildingBlock: KIFKEQ_clean_linker_1, # of connection points: 2
#     Edge 58, Type (0, 1), BuildingBlock: KIFKEQ_clean_linker_1, # of connection points: 2
#     Edge 59, Type (0, 1), BuildingBlock: KIFKEQ_clean_linker_1, # of connection points: 2
#     Edge 60, Type (0, 1), BuildingBlock: KIFKEQ_clean_linker_1, # of connection points: 2
#     Edge 61, Type (0, 1), BuildingBlock: KIFKEQ_clean_linker_1, # of connection points: 2
#     Edge 62, Type (0, 1), BuildingBlock: KIFKEQ_clean_linker_1, # of connection points: 2
#     Edge 63, Type (0, 1), BuildingBlock: KIFKEQ_clean_linker_1, # of connection points: 2
#     Edge 64, Type (0, 1), BuildingBlock: KIFKEQ_clean_linker_1, # of connection points: 2
#     Edge 65, Type (0, 1), BuildingBlock: KIFKEQ_clean_linker_1, # of connection points: 2
#     Edge 66, Type (0, 1), BuildingBlock: KIFKEQ_clean_linker_1, # of connection points: 2
#     Edge 67, Type (0, 1), BuildingBlock: KIFKEQ_clean_linker_1, # of connection points: 2
#     Edge 68, Type (0, 1), BuildingBlock: KIFKEQ_clean_linker_1, # of connection points: 2
#     Edge 69, Type (0, 1), BuildingBlock: KIFKEQ_clean_linker_1, # of connection points: 2
#     Edge 70, Type (0, 1), BuildingBlock: KIFKEQ_clean_linker_1, # of connection points: 2
#     Edge 71, Type (0, 1), BuildingBlock: KIFKEQ_clean_linker_1, # of connection points: 2
#     Edge 72, Type (0, 1), BuildingBlock: KIFKEQ_clean_linker_1, # of connection points: 2
#     Edge 73, Type (0, 1), BuildingBlock: KIFKEQ_clean_linker_1, # of connection points: 2
#     Edge 74, Type (0, 1), BuildingBlock: KIFKEQ_clean_linker_1, # of connection points: 2
#     Edge 75, Type (0, 1), BuildingBlock: KIFKEQ_clean_linker_1, # of connection points: 2
#     Edge 76, Type (0, 1), BuildingBlock: KIFKEQ_clean_linker_1, # of connection points: 2
#     Edge 77, Type (0, 1), BuildingBlock: KIFKEQ_clean_linker_1, # of connection points: 2
#     Edge 78, Type (0, 1), BuildingBlock: KIFKEQ_clean_linker_1, # of connection points: 2
#     Edge 79, Type (0, 1), BuildingBlock: KIFKEQ_clean_linker_1, # of connection points: 2
#     Edge 80, Type (0, 1), BuildingBlock: KIFKEQ_clean_linker_1, # of connection points: 2
#     Edge 81, Type (0, 1), BuildingBlock: KIFKEQ_clean_linker_1, # of connection points: 2
#     Edge 82, Type (0, 1), BuildingBlock: KIFKEQ_clean_linker_1, # of connection points: 2
#     Edge 83, Type (0, 1), BuildingBlock: KIFKEQ_clean_linker_1, # of connection points: 2
#     Edge 84, Type (0, 1), BuildingBlock: KIFKEQ_clean_linker_1, # of connection points: 2
#     Edge 85, Type (0, 1), BuildingBlock: KIFKEQ_clean_linker_1, # of connection points: 2
#     Edge 86, Type (0, 1), BuildingBlock: KIFKEQ_clean_linker_1, # of connection points: 2
#     Edge 87, Type (0, 1), BuildingBlock: KIFKEQ_clean_linker_1, # of connection points: 2
#     Edge 88, Type (0, 1), BuildingBlock: KIFKEQ_clean_linker_1, # of connection points: 2
#     Edge 89, Type (0, 1), BuildingBlock: KIFKEQ_clean_linker_1, # of connection points: 2
#     Edge 90, Type (0, 1), BuildingBlock: KIFKEQ_clean_linker_1, # of connection points: 2
#     Edge 91, Type (0, 1), BuildingBlock: KIFKEQ_clean_linker_1, # of connection points: 2
#     Edge 92, Type (0, 1), BuildingBlock: KIFKEQ_clean_linker_1, # of connection points: 2
#     Edge 93, Type (0, 1), BuildingBlock: KIFKEQ_clean_linker_1, # of connection points: 2
#     Edge 94, Type (0, 1), BuildingBlock: KIFKEQ_clean_linker_1, # of connection points: 2
#     Edge 95, Type (0, 1), BuildingBlock: KIFKEQ_clean_linker_1, # of connection points: 2
#     Edge 96, Type (0, 1), BuildingBlock: KIFKEQ_clean_linker_1, # of connection points: 2
#     Edge 97, Type (0, 1), BuildingBlock: KIFKEQ_clean_linker_1, # of connection points: 2
#     Edge 98, Type (0, 1), BuildingBlock: KIFKEQ_clean_linker_1, # of connection points: 2
#     Edge 99, Type (0, 1), BuildingBlock: KIFKEQ_clean_linker_1, # of connection points: 2
#     Edge 100, Type (0, 1), BuildingBlock: KIFKEQ_clean_linker_1, # of connection points: 2
#     Edge 101, Type (0, 1), BuildingBlock: KIFKEQ_clean_linker_1, # of connection points: 2
#     Edge 102, Type (0, 1), BuildingBlock: KIFKEQ_clean_linker_1, # of connection points: 2
#     Edge 103, Type (0, 1), BuildingBlock: KIFKEQ_clean_linker_1, # of connection points: 2
#     Edge 104, Type (0, 1), BuildingBlock: KIFKEQ_clean_linker_1, # of connection points: 2
#     Edge 105, Type (0, 1), BuildingBlock: KIFKEQ_clean_linker_1, # of connection points: 2
#     Edge 106, Type (0, 1), BuildingBlock: KIFKEQ_clean_linker_1, # of connection points: 2
#     Edge 107, Type (0, 1), BuildingBlock: KIFKEQ_clean_linker_1, # of connection points: 2
#     Edge 108, Type (0, 1), BuildingBlock: KIFKEQ_clean_linker_1, # of connection points: 2
#     Edge 109, Type (0, 1), BuildingBlock: KIFKEQ_clean_linker_1, # of connection points: 2
#     Edge 110, Type (0, 1), BuildingBlock: KIFKEQ_clean_linker_1, # of connection points: 2
#     Edge 111, Type (0, 1), BuildingBlock: KIFKEQ_clean_linker_1, # of connection points: 2
#     Edge 112, Type (0, 1), BuildingBlock: KIFKEQ_clean_linker_1, # of connection points: 2
#     Edge 113, Type (0, 1), BuildingBlock: KIFKEQ_clean_linker_1, # of connection points: 2
#     Edge 114, Type (0, 1), BuildingBlock: KIFKEQ_clean_linker_1, # of connection points: 2
#     Edge 115, Type (0, 1), BuildingBlock: KIFKEQ_clean_linker_1, # of connection points: 2
#     Edge 116, Type (0, 1), BuildingBlock: KIFKEQ_clean_linker_1, # of connection points: 2
#     Edge 117, Type (0, 1), BuildingBlock: KIFKEQ_clean_linker_1, # of connection points: 2
#     Edge 118, Type (0, 1), BuildingBlock: KIFKEQ_clean_linker_1, # of connection points: 2
#     Edge 119, Type (0, 1), BuildingBlock: KIFKEQ_clean_linker_1, # of connection points: 2
#     Edge 120, Type (0, 1), BuildingBlock: KIFKEQ_clean_linker_1, # of connection points: 2
#     Edge 121, Type (0, 1), BuildingBlock: KIFKEQ_clean_linker_1, # of connection points: 2
#     Edge 122, Type (0, 1), BuildingBlock: KIFKEQ_clean_linker_1, # of connection points: 2
#     Edge 123, Type (0, 1), BuildingBlock: KIFKEQ_clean_linker_1, # of connection points: 2
#     Edge 124, Type (0, 1), BuildingBlock: KIFKEQ_clean_linker_1, # of connection points: 2
#     Edge 125, Type (0, 1), BuildingBlock: KIFKEQ_clean_linker_1, # of connection points: 2
#     Edge 126, Type (0, 1), BuildingBlock: KIFKEQ_clean_linker_1, # of connection points: 2
#     Edge 127, Type (0, 1), BuildingBlock: KIFKEQ_clean_linker_1, # of connection points: 2
#     Edge 128, Type (0, 1), BuildingBlock: KIFKEQ_clean_linker_1, # of connection points: 2
#     Edge 129, Type (0, 1), BuildingBlock: KIFKEQ_clean_linker_1, # of connection points: 2
#     Edge 130, Type (0, 1), BuildingBlock: KIFKEQ_clean_linker_1, # of connection points: 2
#     Edge 131, Type (0, 1), BuildingBlock: KIFKEQ_clean_linker_1, # of connection points: 2
#     Edge 132, Type (0, 1), BuildingBlock: KIFKEQ_clean_linker_1, # of connection points: 2
#     Edge 133, Type (0, 1), BuildingBlock: KIFKEQ_clean_linker_1, # of connection points: 2
#     Edge 134, Type (0, 1), BuildingBlock: KIFKEQ_clean_linker_1, # of connection points: 2
#     Edge 135, Type (0, 1), BuildingBlock: KIFKEQ_clean_linker_1, # of connection points: 2
# Relax obj value: 0.211
# Max RMSD: 0.315
# Mean RMSD: 0.185
data_MOF--net-gar--node1-NAHDIM_clean_sbu_0--node2-BETFEN_clean_sbu_0--edge1-KIFKEQ_clean_linker_1
_symmetry_space_group_name_H-M    P1
_symmetry_Int_Tables_number       1
_symmetry_cell_setting            triclinic
loop_
_symmetry_equiv_pos_as_xyz
'x, y, z'
_cell_length_a     65.151513
_cell_length_b     57.371252
_cell_length_c     56.278933
_cell_angle_alpha  94.260812
_cell_angle_beta   99.568899
_cell_angle_gamma 103.25854
loop_
_atom_site_label
_atom_site_type_symbol
_atom_site_fract_x
_atom_site_fract_y
_atom_site_fract_z
_atom_type_partial_charge
C0 C 0.08189 0.32981 0.41676 0.0
O1 O 0.08685 0.335 0.44046 0.0
O2 O 0.03842 0.30045 0.44731 0.0
Zn3 Zn 0.0394 0.32848 0.42632 0.0
O4 O 0.0472 0.36181 0.4468 0.0
C5 C 0.99242 0.31416 0.40689 0.0
O6 O 0.99117 0.30376 0.4268 0.0
O7 O 0.06242 0.32675 0.40628 0.0
C8 C 0.03931 0.37885 0.43901 0.0
O9 O 0.02613 0.37467 0.41795 0.0
C10 C 0.03169 0.27883 0.43696 0.0
O11 O 0.0246 0.2753 0.41339 0.0
O12 O 1.01079 0.32484 0.40308 0.0
C13 C 0.04232 0.83724 0.66117 0.0
O14 O 0.03672 0.8258 0.6391 0.0
O15 O 0.07464 0.81245 0.62596 0.0
Zn16 Zn 0.08349 0.84553 0.64694 0.0
O17 O 0.08278 0.87386 0.62662 0.0
C18 C 0.12246 0.8592 0.68698 0.0
O19 O 0.11112 0.86984 0.69943 0.0
O20 O 0.06214 0.84686 0.66946 0.0
C21 C 0.09033 0.89525 0.63739 0.0
O22 O 0.09895 0.8981 0.66055 0.0
C23 C 0.08136 0.79492 0.63438 0.0
O24 O 0.09351 0.79865 0.65608 0.0
O25 O 0.11402 0.84886 0.66563 0.0
C26 C 0.56472 0.80915 0.90008 0.0
O27 O 0.55325 0.78916 0.90589 0.0
O28 O 0.53898 0.8018 0.94937 0.0
Zn29 Zn 0.53845 0.82976 0.92838 0.0
O30 O 0.54709 0.86276 0.94943 0.0
C31 C 0.50081 0.81645 0.88689 0.0
O32 O 0.51268 0.8056 0.87546 0.0
O33 O 0.56075 0.82912 0.90673 0.0
C34 C 0.53963 0.88015 0.94183 0.0
O35 O 0.5266 0.87645 0.92069 0.0
C36 C 0.52514 0.78154 0.94456 0.0
O37 O 0.50883 0.77884 0.92651 0.0
O38 O 0.50837 0.82663 0.90847 0.0
C39 C 0.54169 0.34052 0.15808 0.0
O40 O 0.53669 0.3315 0.13513 0.0
O41 O 0.57574 0.31294 0.12722 0.0
Zn42 Zn 0.58384 0.34666 0.14703 0.0
O43 O 0.58316 0.3744 0.126 0.0
C44 C 0.61747 0.33548 0.18148 0.0
O45 O 0.60223 0.31586 0.18094 0.0
O46 O 0.56144 0.34792 0.16796 0.0
C47 C 0.59364 0.39574 0.13494 0.0
O48 O 0.60574 0.39892 0.15663 0.0
C49 C 0.58961 0.30157 0.12269 0.0
O50 O 0.6101 0.31242 0.12913 0.0
O51 O 0.61343 0.35188 0.16872 0.0
C52 C 0.05325 0.84827 0.15713 0.0
O53 O 0.04932 0.84497 0.1333 0.0
O54 O 0.09196 0.82013 0.13114 0.0
Zn55 Zn 0.09572 0.8541 0.14778 0.0
O56 O 0.0912 0.87949 0.12477 0.0
C57 C 0.14064 0.85541 0.16294 0.0
O58 O 0.13723 0.84407 0.14096 0.0
O59 O 0.07263 0.85239 0.16831 0.0
C60 C 0.10305 0.88968 0.11076 0.0
O61 O 0.12104 0.88348 0.10927 0.0
C62 C 0.08171 0.81041 0.11018 0.0
O63 O 0.0719 0.82315 0.09582 0.0
O64 O 0.12537 0.86284 0.16994 0.0
C65 C 0.56805 0.8229 0.40779 0.0
O66 O 0.57168 0.82848 0.43144 0.0
O67 O 0.52901 0.78836 0.43805 0.0
Zn68 Zn 0.5256 0.81533 0.41678 0.0
O69 O 0.53202 0.84902 0.4354 0.0
C70 C 0.48037 0.81507 0.40119 0.0
O71 O 0.48282 0.82451 0.42375 0.0
O72 O 0.54869 0.81663 0.39637 0.0
C73 C 0.5262 0.85545 0.45486 0.0
O74 O 0.51534 0.839 0.46614 0.0
C75 C 0.51641 0.77654 0.45042 0.0
O76 O 0.49798 0.78186 0.45136 0.0
O77 O 0.49613 0.80873 0.39418 0.0
C78 C 0.55105 0.34545 0.66161 0.0
O79 O 0.54684 0.34249 0.63777 0.0
O80 O 0.58594 0.31894 0.62976 0.0
Zn81 Zn 0.593 0.35147 0.65101 0.0
O82 O 0.58964 0.37951 0.63121 0.0
C83 C 0.62902 0.34073 0.68278 0.0
O84 O 0.61527 0.31963 0.68047 0.0
O85 O 0.57051 0.34932 0.67245 0.0
C86 C 0.59931 0.3875 0.61448 0.0
O87 O 0.61383 0.37714 0.60791 0.0
C88 C 0.60037 0.30938 0.62357 0.0
O89 O 0.62054 0.32163 0.62911 0.0
O90 O 0.62319 0.35772 0.67222 0.0
C91 C 0.06934 0.3194 0.91002 0.0
O92 O 0.07268 0.31907 0.93366 0.0
O93 O 0.02966 0.28694 0.93858 0.0
Zn94 Zn 0.02706 0.31544 0.91923 0.0
O95 O 0.03323 0.34745 0.94072 0.0
C96 C 0.98253 0.31814 0.904 0.0
O97 O 0.98565 0.32809 0.92651 0.0
O98 O 0.05039 0.3183 0.89889 0.0
C99 C 0.03261 0.36571 0.92931 0.0
O100 O 0.02831 0.36242 0.90547 0.0
C101 C 0.01927 0.2782 0.95448 0.0
O102 O 1.00408 0.28785 0.9603 0.0
O103 O 0.99761 0.3104 0.89688 0.0
C104 C 0.45106 0.2247 0.31234 0.0
O105 O 0.46364 0.22636 0.29626 0.0
O106 O 0.48966 0.19453 0.30108 0.0
Zn107 Zn 0.47235 0.18889 0.32727 0.0
O108 O 0.49114 0.18635 0.35847 0.0
C109 C 0.44324 0.14594 0.29789 0.0
O110 O 0.44826 0.156 0.27872 0.0
O111 O 0.45371 0.2117 0.32932 0.0
C112 C 0.49928 0.16838 0.35601 0.0
O113 O 0.49561 0.15603 0.33447 0.0
C114 C 0.50953 0.205 0.30533 0.0
O115 O 0.5193 0.21331 0.32772 0.0
O116 O 0.45165 0.15673 0.31896 0.0
C117 C 0.32826 0.21462 0.5195 0.0
O118 O 0.33339 0.23814 0.52511 0.0
O119 O 0.29253 0.24059 0.54968 0.0
Zn120 Zn 0.28686 0.2239 0.51526 0.0
O121 O 0.29125 0.24738 0.48977 0.0
C122 C 0.24292 0.20946 0.52054 0.0
O123 O 0.24863 0.23108 0.53272 0.0
O124 O 0.30848 0.20359 0.51424 0.0
C125 C 0.27708 0.24803 0.47143 0.0
O126 O 0.25774 0.23383 0.46903 0.0
C127 C 0.29979 0.26284 0.55745 0.0
O128 O 0.30536 0.27831 0.54219 0.0
O129 O 0.25644 0.20223 0.50975 0.0
C130 C 0.23467 0.07452 0.8981 0.0
O131 O 0.21482 0.06741 0.9015 0.0
O132 O 0.20107 0.09289 0.84413 0.0
Zn133 Zn 0.21793 0.11091 0.87616 0.0
O134 O 0.19779 0.11064 0.89915 0.0
C135 C 0.22779 0.15156 0.85003 0.0
O136 O 0.21269 0.13733 0.8334 0.0
O137 O 0.24003 0.09362 0.88823 0.0
C138 C 0.18237 0.12069 0.89473 0.0
O139 O 0.18126 0.13349 0.87635 0.0
C140 C 0.18183 0.0802 0.84046 0.0
O141 O 0.17198 0.07629 0.85884 0.0
O142 O 0.23246 0.14464 0.87075 0.0
C143 C 0.30141 0.98637 0.0547 0.0
O144 O 0.3161 0.98977 0.07454 0.0
O145 O 0.32322 0.93396 0.06848 0.0
Zn146 Zn 0.32519 0.95275 0.03898 0.0
O147 O 0.31906 0.93033 1.00697 0.0
C148 C 0.36798 0.98592 0.06153 0.0
O149 O 0.36274 0.98234 0.08275 0.0
O150 O 0.30227 0.97172 0.03699 0.0
C151 C 0.33061 0.93534 0.99094 0.0
O152 O 0.34679 0.95451 0.99557 0.0
C153 C 0.33843 0.92658 0.08039 0.0
O154 O 0.35689 0.93001 0.07303 0.0
O155 O 0.35476 0.9758 0.04226 0.0
C156 C 0.29423 0.45888 0.05808 0.0
O157 O 0.28924 0.43525 0.05698 0.0
O158 O 0.3345 0.42843 0.08371 0.0
Zn159 Zn 0.33464 0.44876 0.0551 0.0
O160 O 0.3254 0.42983 0.02139 0.0
C161 C 0.37475 0.48808 0.06973 0.0
O162 O 0.36537 0.49595 0.08652 0.0
O163 O 0.31357 0.46973 0.05779 0.0
C164 C 0.33247 0.41242 0.0135 0.0
O165 O 0.34572 0.40368 0.02846 0.0
C166 C 0.32425 0.4065 0.08275 0.0
O167 O 0.31342 0.39497 0.06174 0.0
O168 O 0.36482 0.46911 0.05551 0.0
C169 C 0.82169 0.18165 0.01255 0.0
O170 O 0.80391 0.1743 0.99624 0.0
O171 O 0.80637 0.23652 0.06332 0.0
Zn172 Zn 0.80065 0.21839 0.0291 0.0
O173 O 0.80185 0.24039 1.00181 0.0
C174 C 0.75583 0.20463 0.02931 0.0
O175 O 0.76021 0.22788 0.03631 0.0
O176 O 0.82358 0.19963 0.02813 0.0
C177 C 0.78883 0.2335 0.9816 0.0
O178 O 0.77443 0.21285 0.97913 0.0
C179 C 0.80622 0.25841 0.06871 0.0
O180 O 0.80285 0.27173 0.05115 0.0
O181 O 0.77093 0.19551 0.02445 0.0
C182 C 0.18556 0.4644 0.23806 0.0
O183 O 0.18815 0.48103 0.22325 0.0
O184 O 0.13391 0.47624 0.20396 0.0
Zn185 Zn 0.14689 0.47797 0.23883 0.0
O186 O 0.12515 0.47129 0.26006 0.0
C187 C 0.15379 0.52873 0.24567 0.0
O188 O 0.133 0.52313 0.23726 0.0
O189 O 0.16794 0.45836 0.24544 0.0
C190 C 0.13253 0.47169 0.28246 0.0
O191 O 0.15331 0.47458 0.28963 0.0
C192 C 0.11377 0.47046 0.19634 0.0
O193 O 0.10101 0.46151 0.21096 0.0
O194 O 0.16343 0.51199 0.24843 0.0
C195 C 0.7962 0.96808 0.5342 0.0
O196 O 0.7975 0.95742 0.51322 0.0
O197 O 0.83052 0.9295 0.58294 0.0
Zn198 Zn 0.83264 0.94822 0.55346 0.0
O199 O 0.82624 0.92672 0.52126 0.0
C200 C 0.87966 0.96863 0.56565 0.0
O201 O 0.8799 0.94913 0.5764 0.0
O202 O 0.80964 0.96698 0.55304 0.0
C203 C 0.84078 0.91962 0.51234 0.0
O204 O 0.86029 0.92439 0.52527 0.0
C205 C 0.83823 0.91198 0.58947 0.0
O206 O 0.85006 0.90322 0.57613 0.0
O207 O 0.8617 0.97208 0.5558 0.0
C208 C 0.89472 0.09721 0.17831 0.0
O209 O 0.91337 0.10355 0.17152 0.0
O210 O 0.92983 0.06097 0.17153 0.0
Zn211 Zn 0.91353 0.06142 0.19844 0.0
O212 O 0.93407 0.07894 0.22848 0.0
C213 C 0.88894 0.01081 0.19203 0.0
O214 O 0.88549 0.01249 0.16861 0.0
O215 O 0.89093 0.07911 0.19001 0.0
C216 C 0.9527 0.07507 0.23299 0.0
O217 O 0.9582 0.06052 0.21748 0.0
C218 C 0.93871 0.04441 0.16591 0.0
O219 O 0.93571 0.02474 0.17679 0.0
O220 O 0.90028 0.0288 0.20663 0.0
C221 C 0.32749 0.69504 0.50938 0.0
O222 O 0.32032 0.70191 0.48849 0.0
O223 O 0.30418 0.74004 0.56154 0.0
Zn224 Zn 0.29837 0.72123 0.52768 0.0
O225 O 0.30048 0.74272 0.49995 0.0
C226 C 0.25368 0.7069 0.53023 0.0
O227 O 0.2582 0.72945 0.53993 0.0
O228 O 0.32031 0.701 0.52803 0.0
C229 C 0.28622 0.73752 0.48058 0.0
O230 O 0.26984 0.71887 0.47911 0.0
C231 C 0.30665 0.76262 0.56665 0.0
O232 O 0.30601 0.77627 0.54893 0.0
O233 O 0.26846 0.69881 0.52294 0.0
C234 C 0.40691 0.60315 0.6905 0.0
O235 O 0.42743 0.60788 0.70017 0.0
O236 O 0.43087 0.55556 0.66396 0.0
Zn237 Zn 0.41221 0.55581 0.68876 0.0
O238 O 0.43174 0.56469 0.72154 0.0
C239 C 0.39062 0.50348 0.68338 0.0
O240 O 0.40488 0.49905 0.67084 0.0
O241 O 0.39667 0.58148 0.68342 0.0
C242 C 0.43533 0.54832 0.73449 0.0
O243 O 0.42572 0.52569 0.72662 0.0
C244 C 0.44771 0.54802 0.66938 0.0
O245 O 0.45019 0.53678 0.68873 0.0
O246 O 0.39081 0.5251 0.69029 0.0
C247 C 0.66773 0.942 0.74927 0.0
O248 O 0.65034 0.93168 0.7571 0.0
O249 O 0.62736 0.97699 0.7055 0.0
Zn250 Zn 0.64571 0.9791 0.73807 0.0
O251 O 0.62843 0.97143 0.76401 0.0
C252 C 0.65761 0.02989 0.75804 0.0
O253 O 0.64059 0.02486 0.76819 0.0
O254 O 0.66812 0.96082 0.73875 0.0
C255 C 0.63783 0.97447 0.78606 0.0
O256 O 0.65892 0.98069 0.79123 0.0
C257 C 0.60919 0.9817 0.705 0.0
O258 O 0.60218 0.98407 0.72541 0.0
O259 O 0.6622 0.01339 0.74519 0.0
C260 C 0.82842 0.71145 0.01884 0.0
O261 O 0.83373 0.73509 0.02329 0.0
O262 O 0.79491 0.74145 0.04776 0.0
Zn263 Zn 0.78748 0.72172 0.0145 0.0
O264 O 0.79192 0.74326 0.98741 0.0
C265 C 0.75029 0.69249 0.02861 0.0
O266 O 0.76393 0.69649 0.04934 0.0
O267 O 0.80858 0.70057 0.01437 0.0
C268 C 0.77731 0.74769 0.97163 0.0
O269 O 0.75708 0.73866 0.97266 0.0
C270 C 0.78213 0.75235 0.05593 0.0
O271 O 0.76395 0.75242 0.04176 0.0
O272 O 0.75667 0.70101 0.01008 0.0
C273 C 0.94754 0.72794 0.81687 0.0
O274 O 0.9616 0.7311 0.80244 0.0
O275 O 0.9817 0.6936 0.80231 0.0
Zn276 Zn 0.96629 0.68981 0.83022 0.0
O277 O 0.98642 0.6883 0.86051 0.0
C278 C 0.93552 0.6476 0.80279 0.0
O279 O 0.94016 0.65771 0.78352 0.0
O280 O 0.94873 0.71346 0.8327 0.0
C281 C 0.99437 0.67022 0.85802 0.0
O282 O 0.98951 0.65693 0.83686 0.0
C283 C 1.00174 0.70243 0.80442 0.0
O284 O 1.01355 0.71044 0.82602 0.0
O285 O 0.94483 0.65802 0.82377 0.0
C286 C 0.78404 0.46241 0.5352 0.0
O287 O 0.77718 0.43893 0.52961 0.0
O288 O 0.82219 0.42854 0.56651 0.0
Zn289 Zn 0.82423 0.44936 0.53829 0.0
O290 O 0.81587 0.4298 0.50471 0.0
C291 C 0.86304 0.49017 0.55046 0.0
O292 O 0.85108 0.50159 0.5611 0.0
O293 O 0.80419 0.47171 0.53991 0.0
C294 C 0.81946 0.40926 0.49978 0.0
O295 O 0.82796 0.3987 0.51747 0.0
C296 C 0.8356 0.43532 0.58645 0.0
O297 O 0.85093 0.45506 0.58809 0.0
O298 O 0.85497 0.46866 0.5404 0.0
C299 C 0.72238 0.57605 0.38003 0.0
O300 O 0.70136 0.57009 0.37346 0.0
O301 O 0.69308 0.61281 0.35497 0.0
Zn302 Zn 0.7125 0.62 0.38776 0.0
O303 O 0.6947 0.61164 0.41283 0.0
C304 C 0.72071 0.6694 0.38024 0.0
O305 O 0.70011 0.66289 0.37083 0.0
O306 O 0.73187 0.5978 0.38793 0.0
C307 C 0.68489 0.62543 0.42235 0.0
O308 O 0.68834 0.64803 0.41794 0.0
C309 C 0.67268 0.60669 0.35147 0.0
O310 O 0.66293 0.60484 0.3701 0.0
O311 O 0.72948 0.65432 0.39077 0.0
Pr312 Pr 0.03525 0.06914 0.01869 0.0
Pr313 Pr 0.08474 0.09467 0.03947 0.0
C314 C 0.99207 0.05842 0.01242 0.0
C315 C 0.97538 0.07217 0.01146 0.0
C316 C 0.95528 0.06293 0.99632 0.0
C317 C 0.93909 0.07538 0.99593 0.0
C318 C 0.94266 0.09733 0.01081 0.0
C319 C 0.96295 0.10669 0.02572 0.0
C320 C 0.97916 0.09431 0.026 0.0
C321 C 0.06188 0.07583 0.98511 0.0
C322 C 0.05326 0.1304 0.02464 0.0
C323 C 0.12788 0.10576 0.04582 0.0
C324 C 0.145 0.09252 0.04726 0.0
C325 C 0.163 0.09953 0.06607 0.0
C326 C 0.17965 0.0877 0.06723 0.0
C327 C 0.17872 0.06862 0.04947 0.0
C328 C 0.16047 0.06145 0.03081 0.0
C329 C 0.14378 0.07318 0.02976 0.0
C330 C 0.05791 0.08764 0.07292 0.0
C331 C 0.06684 0.03344 0.03392 0.0
O332 O 1.00466 0.06009 0.03353 0.0
O333 O 1.00227 0.05877 0.99419 0.0
O334 O 0.06232 0.09049 1.00297 0.0
O335 O 0.04629 0.05643 0.98299 0.0
O336 O 0.07348 0.12888 0.02879 0.0
O337 O 0.03702 0.1112 0.02343 0.0
O338 O 0.11531 0.10372 0.02464 0.0
O339 O 0.11766 0.10561 0.06403 0.0
O340 O 0.05774 0.07327 0.05498 0.0
O341 O 0.07351 0.10708 0.07531 0.0
O342 O 0.04658 0.03491 0.02959 0.0
O343 O 0.08306 0.05265 0.03502 0.0
H344 H 0.95201 0.04589 0.98497 0.0
H345 H 0.92362 0.06755 0.98439 0.0
H346 H 0.96637 0.12371 0.03714 0.0
H347 H 0.99459 0.10195 0.03773 0.0
H348 H 0.16426 0.11429 0.07984 0.0
H349 H 0.1932 0.09345 0.08213 0.0
H350 H 0.15923 0.04707 0.01663 0.0
H351 H 0.13004 0.06726 0.01506 0.0
Pr352 Pr 0.32386 0.8632 0.29781 0.0
Pr353 Pr 0.29799 0.80877 0.26616 0.0
C354 C 0.35387 0.90194 0.32017 0.0
C355 C 0.35998 0.92687 0.31457 0.0
C356 C 0.36569 0.94594 0.33331 0.0
C357 C 0.37084 0.96973 0.32798 0.0
C358 C 0.37044 0.97471 0.30384 0.0
C359 C 0.36464 0.95555 0.28509 0.0
C360 C 0.35929 0.93181 0.29041 0.0
C361 C 0.28148 0.86121 0.2747 0.0
C362 C 0.31997 0.85469 0.23726 0.0
C363 C 0.26625 0.77237 0.24195 0.0
C364 C 0.25661 0.74703 0.24352 0.0
C365 C 0.26893 0.7319 0.25375 0.0
C366 C 0.25899 0.7082 0.25649 0.0
C367 C 0.23663 0.69954 0.24933 0.0
C368 C 0.22445 0.71475 0.23893 0.0
C369 C 0.23439 0.73831 0.23602 0.0
C370 C 0.34045 0.81071 0.28858 0.0
C371 C 0.30272 0.81697 0.32698 0.0
O372 O 0.35792 0.8856 0.30524 0.0
O373 O 0.33506 0.89542 0.32654 0.0
O374 O 0.29155 0.84502 0.27528 0.0
O375 O 0.29375 0.88046 0.28805 0.0
O376 O 0.30616 0.83342 0.23585 0.0
O377 O 0.33027 0.86765 0.25817 0.0
O378 O 0.26348 0.7877 0.25891 0.0
O379 O 0.28548 0.77767 0.2364 0.0
O380 O 0.33044 0.82698 0.28838 0.0
O381 O 0.32805 0.79141 0.27529 0.0
O382 O 0.31603 0.83862 0.32841 0.0
O383 O 0.29262 0.80383 0.30605 0.0
H384 H 0.36612 0.94244 0.35201 0.0
H385 H 0.37549 0.98423 0.34278 0.0
H386 H 0.36405 0.95894 0.26635 0.0
H387 H 0.35455 0.91734 0.27559 0.0
H388 H 0.28611 0.73851 0.25993 0.0
H389 H 0.26869 0.69684 0.26468 0.0
H390 H 0.20723 0.70839 0.23296 0.0
H391 H 0.22468 0.74985 0.22822 0.0
Pr392 Pr 0.58278 0.08449 0.54218 0.0
Pr393 Pr 0.53315 0.08085 0.52731 0.0
C394 C 0.62257 0.07957 0.55957 0.0
C395 C 0.63871 0.06607 0.55594 0.0
C396 C 0.64034 0.0567 0.53274 0.0
C397 C 0.65691 0.04549 0.52983 0.0
C398 C 0.67212 0.04353 0.55003 0.0
C399 C 0.66998 0.0524 0.57326 0.0
C400 C 0.65346 0.06355 0.57614 0.0
C401 C 0.56968 0.10066 0.49819 0.0
C402 C 0.54994 0.03286 0.51231 0.0
C403 C 0.49392 0.08675 0.50902 0.0
C404 C 0.4785 0.10162 0.51207 0.0
C405 C 0.46949 0.10241 0.53308 0.0
C406 C 0.4537 0.11511 0.53467 0.0
C407 C 0.4466 0.12731 0.51536 0.0
C408 C 0.45593 0.1268 0.49456 0.0
C409 C 0.47165 0.11406 0.49293 0.0
C410 C 0.54538 0.06363 0.57082 0.0
C411 C 0.5663 0.13214 0.55804 0.0
O412 O 0.60546 0.06824 0.56712 0.0
O413 O 0.61862 0.09433 0.54375 0.0
O414 O 0.56002 0.08196 0.50586 0.0
O415 O 0.58764 0.11111 0.51274 0.0
O416 O 0.53442 0.04411 0.50713 0.0
O417 O 0.56865 0.04371 0.52631 0.0
O418 O 0.51123 0.09667 0.50095 0.0
O419 O 0.49726 0.0722 0.52529 0.0
O420 O 0.5557 0.08244 0.56373 0.0
O421 O 0.52713 0.05435 0.55628 0.0
O422 O 0.58158 0.12061 0.5631 0.0
O423 O 0.54751 0.12167 0.54395 0.0
H424 H 0.62908 0.05843 0.5169 0.0
H425 H 0.65815 0.03898 0.51167 0.0
H426 H 0.68113 0.05079 0.58924 0.0
H427 H 0.65241 0.07058 0.5942 0.0
H428 H 0.47442 0.09301 0.54816 0.0
H429 H 0.44706 0.11539 0.55108 0.0
H430 H 0.45068 0.13573 0.47922 0.0
H431 H 0.47817 0.11354 0.47644 0.0
Pr432 Pr 0.28514 0.33278 0.78003 0.0
Pr433 Pr 0.33578 0.34674 0.78853 0.0
C434 C 0.24292 0.31703 0.78096 0.0
C435 C 0.22623 0.31937 0.79518 0.0
C436 C 0.20596 0.32047 0.78291 0.0
C437 C 0.18948 0.3217 0.79565 0.0
C438 C 0.19289 0.32181 0.82102 0.0
C439 C 0.21337 0.32104 0.83333 0.0
C440 C 0.2299 0.31988 0.82055 0.0
C441 C 0.30376 0.37609 0.76449 0.0
C442 C 0.31407 0.35978 0.83424 0.0
C443 C 0.37771 0.36322 0.7866 0.0
C444 C 0.3945 0.35969 0.77295 0.0
C445 C 0.3966 0.33659 0.76539 0.0
C446 C 0.41344 0.33391 0.75365 0.0
C447 C 0.4285 0.35424 0.74922 0.0
C448 C 0.426 0.37731 0.75644 0.0
C449 C 0.40922 0.37996 0.76818 0.0
C450 C 0.31673 0.30189 0.80113 0.0
C451 C 0.30697 0.31929 0.73425 0.0
O452 O 0.25742 0.30592 0.78982 0.0
O453 O 0.25065 0.33554 0.77009 0.0
O454 O 0.31059 0.36876 0.78419 0.0
O455 O 0.28585 0.36172 0.75307 0.0
O456 O 0.33092 0.3669 0.82397 0.0
O457 O 0.29609 0.34488 0.82217 0.0
O458 O 0.36265 0.37259 0.7758 0.0
O459 O 0.37066 0.34646 0.79988 0.0
O460 O 0.31033 0.31091 0.78246 0.0
O461 O 0.33452 0.31558 0.81371 0.0
O462 O 0.28979 0.3129 0.74423 0.0
O463 O 0.32518 0.33354 0.74661 0.0
H464 H 0.20277 0.32004 0.76334 0.0
H465 H 0.17389 0.32197 0.78553 0.0
H466 H 0.21665 0.32142 0.85289 0.0
H467 H 0.24546 0.31922 0.83047 0.0
H468 H 0.38542 0.32063 0.7688 0.0
H469 H 0.41492 0.31587 0.74852 0.0
H470 H 0.43697 0.39337 0.75293 0.0
H471 H 0.40785 0.39795 0.77377 0.0
Pr472 Pr 0.05589 0.07464 0.51602 0.0
Pr473 Pr 0.06492 0.10186 0.56415 0.0
C474 C 0.0391 0.05422 0.47037 0.0
C475 C 0.03365 0.06354 0.44717 0.0
C476 C 0.03922 0.05377 0.42632 0.0
C477 C 0.03414 0.0625 0.40415 0.0
C478 C 0.02332 0.08105 0.40255 0.0
C479 C 0.01815 0.09116 0.42358 0.0
C480 C 0.02335 0.08253 0.44574 0.0
C481 C 0.09883 0.10018 0.52959 0.0
C482 C 0.04978 0.13148 0.52039 0.0
C483 C 0.08205 0.12197 0.60991 0.0
C484 C 0.09132 0.11324 0.63224 0.0
C485 C 0.08217 0.11471 0.653 0.0
C486 C 0.09069 0.1063 0.67421 0.0
C487 C 0.10866 0.09655 0.67503 0.0
C488 C 0.11768 0.09485 0.65418 0.0
C489 C 0.10903 0.10298 0.63293 0.0
C490 C 0.02194 0.07679 0.55014 0.0
C491 C 0.07098 0.04515 0.55952 0.0
O492 O 0.02737 0.05718 0.48658 0.0
O493 O 0.05956 0.05839 0.47951 0.0
O494 O 0.08288 0.10834 0.53249 0.0
O495 O 0.09286 0.07789 0.51979 0.0
O496 O 0.05947 0.13417 0.54325 0.0
O497 O 0.04492 0.11023 0.50717 0.0
O498 O 0.09299 0.12324 0.59235 0.0
O499 O 0.06138 0.11377 0.60227 0.0
O500 O 0.03781 0.06831 0.54754 0.0
O501 O 0.02805 0.0991 0.55991 0.0
O502 O 0.06011 0.04232 0.5372 0.0
O503 O 0.07694 0.06664 0.57242 0.0
H504 H 0.04731 0.03924 0.42714 0.0
H505 H 0.03806 0.05421 0.38811 0.0
H506 H 1.00994 0.10557 0.42282 0.0
H507 H 0.01912 0.09059 0.46167 0.0
H508 H 0.06846 0.12246 0.65285 0.0
H509 H 0.08358 0.10798 0.69015 0.0
H510 H 0.13144 0.08722 0.65434 0.0
H511 H 0.11628 0.10127 0.61712 0.0
Pr512 Pr 0.30323 0.81032 0.78227 0.0
Pr513 Pr 0.32414 0.86926 0.78174 0.0
C514 C 0.29046 0.76266 0.76921 0.0
C515 C 0.29893 0.74648 0.75442 0.0
C516 C 0.29432 0.72177 0.75648 0.0
C517 C 0.30434 0.7069 0.74417 0.0
C518 C 0.31888 0.71655 0.72937 0.0
C519 C 0.32272 0.74128 0.72673 0.0
C520 C 0.31319 0.75613 0.73956 0.0
C521 C 0.30235 0.83772 0.82571 0.0
C522 C 0.35601 0.8339 0.80124 0.0
C523 C 0.33645 0.91682 0.79561 0.0
C524 C 0.32824 0.93183 0.81199 0.0
C525 C 0.33939 0.95571 0.82028 0.0
C526 C 0.33119 0.96969 0.83597 0.0
C527 C 0.3119 0.95982 0.84373 0.0
C528 C 0.30117 0.93561 0.83575 0.0
C529 C 0.30911 0.92191 0.81975 0.0
C530 C 0.32559 0.84245 0.73832 0.0
C531 C 0.271 0.84548 0.76372 0.0
O532 O 0.28185 0.77809 0.75755 0.0
O533 O 0.30311 0.77225 0.78991 0.0
O534 O 0.30876 0.84483 0.80704 0.0
O535 O 0.29478 0.81445 0.82185 0.0
O536 O 0.35298 0.856 0.802 0.0
O537 O 0.34064 0.81449 0.79136 0.0
O538 O 0.34616 0.90154 0.806 0.0
O539 O 0.32308 0.90733 0.77532 0.0
O540 O 0.31853 0.83471 0.75648 0.0
O541 O 0.33347 0.86565 0.74285 0.0
O542 O 0.27388 0.82336 0.76332 0.0
O543 O 0.28664 0.865 0.77258 0.0
H544 H 0.2836 0.71415 0.76825 0.0
H545 H 0.3013 0.68806 0.74706 0.0
H546 H 0.33349 0.74933 0.71525 0.0
H547 H 0.31748 0.77532 0.73848 0.0
H548 H 0.3542 0.96357 0.81441 0.0
H549 H 0.33968 0.98839 0.84148 0.0
H550 H 0.28655 0.92726 0.8417 0.0
H551 H 0.3003 0.90343 0.81347 0.0
Pr552 Pr 0.57125 0.0867 0.06992 0.0
Pr553 Pr 0.55467 0.08852 0.0106 0.0
C554 C 0.58449 0.09934 0.11781 0.0
C555 C 0.58111 0.11688 0.13607 0.0
C556 C 0.59647 0.12488 0.15737 0.0
C557 C 0.59309 0.14102 0.17524 0.0
C558 C 0.5742 0.14931 0.17211 0.0
C559 C 0.55916 0.14179 0.15028 0.0
C560 C 0.56265 0.12578 0.13237 0.0
C561 C 0.57134 0.04387 0.04151 0.0
C562 C 0.51905 0.0701 0.04592 0.0
C563 C 0.54309 0.0755 0.96262 0.0
C564 C 0.55045 0.06079 0.94504 0.0
C565 C 0.53684 0.05056 0.92299 0.0
C566 C 0.5438 0.0364 0.90625 0.0
C567 C 0.56445 0.03224 0.91141 0.0
C568 C 0.5779 0.04228 0.93377 0.0
C569 C 0.57094 0.05646 0.95043 0.0
C570 C 0.55403 0.13117 0.03873 0.0
C571 C 0.60658 0.10753 0.03501 0.0
O572 O 0.59557 0.1084 0.10182 0.0
O573 O 0.56781 0.08153 0.10848 0.0
O574 O 0.56702 0.06284 0.03473 0.0
O575 O 0.57672 0.04695 0.06505 0.0
O576 O 0.5236 0.06912 0.02383 0.0
O577 O 0.53373 0.0794 0.0657 0.0
O578 O 0.53343 0.06373 0.97838 0.0
O579 O 0.55668 0.09595 0.97219 0.0
O580 O 0.55919 0.11269 0.04586 0.0
O581 O 0.5479 0.12753 0.01525 0.0
O582 O 0.60164 0.10793 0.05689 0.0
O583 O 0.59233 0.09775 0.01504 0.0
H584 H 0.61096 0.1184 0.16028 0.0
H585 H 0.60514 0.14678 0.19166 0.0
H586 H 0.54434 0.14755 0.14735 0.0
H587 H 0.55073 0.11997 0.11583 0.0
H588 H 0.5209 0.05359 0.91871 0.0
H589 H 0.53301 0.02868 0.88927 0.0
H590 H 0.59398 0.0397 0.93815 0.0
H591 H 0.58162 0.06413 0.96751 0.0
Pr592 Pr 0.28295 0.31354 0.2768 0.0
Pr593 Pr 0.3335 0.35092 0.28763 0.0
C594 C 0.24317 0.29002 0.2812 0.0
C595 C 0.22727 0.2925 0.29647 0.0
C596 C 0.20535 0.28493 0.28624 0.0
C597 C 0.18989 0.28894 0.29952 0.0
C598 C 0.19604 0.30058 0.32342 0.0
C599 C 0.21806 0.30779 0.33381 0.0
C600 C 0.23355 0.30395 0.3204 0.0
C601 C 0.29668 0.32869 0.23402 0.0
C602 C 0.29229 0.37355 0.29071 0.0
C603 C 0.37308 0.37533 0.28363 0.0
C604 C 0.38957 0.37312 0.26918 0.0
C605 C 0.411 0.38528 0.2783 0.0
C606 C 0.42727 0.38188 0.26602 0.0
C607 C 0.42241 0.36624 0.24424 0.0
C608 C 0.40077 0.35431 0.235 0.0
C609 C 0.38452 0.35761 0.24742 0.0
C610 C 0.31928 0.33541 0.33013 0.0
C611 C 0.32437 0.29122 0.27428 0.0
O612 O 0.26052 0.28378 0.29114 0.0
O613 O 0.2469 0.30668 0.2667 0.0
O614 O 0.30673 0.33376 0.25555 0.0
O615 O 0.27836 0.31371 0.23391 0.0
O616 O 0.31197 0.37806 0.28598 0.0
O617 O 0.28092 0.35166 0.29271 0.0
O618 O 0.35552 0.38046 0.27261 0.0
O619 O 0.36953 0.3591 0.29862 0.0
O620 O 0.30971 0.3307 0.30848 0.0
O621 O 0.33776 0.35032 0.33077 0.0
O622 O 0.30494 0.28672 0.27974 0.0
O623 O 0.33546 0.31293 0.27137 0.0
H624 H 0.20017 0.27625 0.26774 0.0
H625 H 0.1731 0.28291 0.29107 0.0
H626 H 0.22336 0.31703 0.35208 0.0
H627 H 0.2504 0.31034 0.32852 0.0
H628 H 0.41525 0.39704 0.29528 0.0
H629 H 0.4437 0.39104 0.27398 0.0
H630 H 0.39635 0.34235 0.21816 0.0
H631 H 0.36809 0.34778 0.24026 0.0
Pr632 Pr 0.55409 0.57521 0.01646 0.0
Pr633 Pr 0.56748 0.60335 0.06377 0.0
C634 C 0.53434 0.55225 0.97239 0.0
C635 C 0.53111 0.55765 0.9473 0.0
C636 C 0.52622 0.53873 0.92854 0.0
C637 C 0.52219 0.54332 0.90448 0.0
C638 C 0.52296 0.56694 0.89883 0.0
C639 C 0.52848 0.58601 0.91772 0.0
C640 C 0.53265 0.58139 0.94184 0.0
C641 C 0.59791 0.59845 0.02566 0.0
C642 C 0.55159 0.63287 0.02032 0.0
C643 C 0.58746 0.62532 0.10817 0.0
C644 C 0.59243 0.61857 0.13287 0.0
C645 C 0.57692 0.61507 0.14778 0.0
C646 C 0.582 0.60889 0.1712 0.0
C647 C 0.60263 0.60607 0.18009 0.0
C648 C 0.61808 0.60951 0.16515 0.0
C649 C 0.61305 0.61579 0.14183 0.0
C650 C 0.52363 0.58046 0.05414 0.0
C651 C 0.56973 0.5456 0.05988 0.0
O652 O 0.52459 0.56262 0.98704 0.0
O653 O 0.55392 0.55201 0.98214 0.0
O654 O 0.58316 0.60796 0.03029 0.0
O655 O 0.59021 0.5764 0.01565 0.0
O656 O 0.56425 0.6355 0.04165 0.0
O657 O 0.54353 0.61118 0.00814 0.0
O658 O 0.59756 0.61762 0.09215 0.0
O659 O 0.56738 0.62439 0.0993 0.0
O660 O 0.53837 0.57066 0.05 0.0
O661 O 0.53135 0.60277 0.06342 0.0
O662 O 0.55703 0.54306 0.03862 0.0
O663 O 0.57787 0.56726 0.07208 0.0
H664 H 0.52508 0.52034 0.93254 0.0
H665 H 0.51761 0.52821 0.89032 0.0
H666 H 0.52929 0.60436 0.91384 0.0
H667 H 0.53671 0.59625 0.95622 0.0
H668 H 0.5609 0.61718 0.14144 0.0
H669 H 0.56979 0.60631 0.18236 0.0
H670 H 0.63424 0.60796 0.1717 0.0
H671 H 0.6254 0.61865 0.13087 0.0
Pr672 Pr 0.80039 0.30262 0.28441 0.0
Pr673 Pr 0.82066 0.36151 0.28466 0.0
C674 C 0.78756 0.25542 0.26877 0.0
C675 C 0.79561 0.24034 0.25234 0.0
C676 C 0.78616 0.21562 0.24708 0.0
C677 C 0.79455 0.20134 0.23193 0.0
C678 C 0.81233 0.21171 0.22169 0.0
C679 C 0.82122 0.23673 0.22652 0.0
C680 C 0.81313 0.25082 0.24201 0.0
C681 C 0.7989 0.32837 0.32837 0.0
C682 C 0.85307 0.32666 0.30424 0.0
C683 C 0.83346 0.40929 0.29753 0.0
C684 C 0.82539 0.42659 0.31143 0.0
C685 C 0.83084 0.45104 0.30827 0.0
C686 C 0.82148 0.46719 0.31978 0.0
C687 C 0.80675 0.45911 0.3349 0.0
C688 C 0.802 0.43461 0.33861 0.0
C689 C 0.81089 0.41846 0.32656 0.0
C690 C 0.82284 0.33537 0.24107 0.0
C691 C 0.76752 0.33772 0.26737 0.0
O692 O 0.7787 0.27144 0.25858 0.0
O693 O 0.80063 0.26404 0.28948 0.0
O694 O 0.80565 0.33668 0.31023 0.0
O695 O 0.79158 0.3051 0.3236 0.0
O696 O 0.85002 0.34872 0.30424 0.0
O697 O 0.83773 0.30704 0.29494 0.0
O698 O 0.84136 0.39381 0.30988 0.0
O699 O 0.82104 0.39956 0.27675 0.0
O700 O 0.81562 0.32732 0.25902 0.0
O701 O 0.83046 0.35854 0.24595 0.0
O702 O 0.77034 0.31562 0.26768 0.0
O703 O 0.78326 0.35744 0.27477 0.0
H704 H 0.77266 0.20733 0.25505 0.0
H705 H 0.78754 0.18207 0.22894 0.0
H706 H 0.83468 0.24538 0.21868 0.0
H707 H 0.82073 0.26991 0.24619 0.0
H708 H 0.84177 0.45749 0.29629 0.0
H709 H 0.82521 0.48578 0.31605 0.0
H710 H 0.79106 0.42773 0.35039 0.0
H711 H 0.80595 0.39951 0.32854 0.0
Pr712 Pr 0.06853 0.58557 0.56608 0.0
Pr713 Pr 0.05333 0.58875 0.50686 0.0
C714 C 0.0799 0.59734 0.61423 0.0
C715 C 0.07295 0.61218 0.63205 0.0
C716 C 0.08637 0.62116 0.65453 0.0
C717 C 0.07964 0.63522 0.67159 0.0
C718 C 0.05943 0.64045 0.66631 0.0
C719 C 0.04628 0.63184 0.64346 0.0
C720 C 0.05298 0.61776 0.6265 0.0
C721 C 0.06883 0.54304 0.53741 0.0
C722 C 0.01661 0.56998 0.5409 0.0
C723 C 0.04162 0.57676 0.45873 0.0
C724 C 0.04761 0.5613 0.44061 0.0
C725 C 0.03369 0.55292 0.41833 0.0
C726 C 0.03929 0.53804 0.40102 0.0
C727 C 0.05886 0.53127 0.40587 0.0
C728 C 0.07261 0.53945 0.42844 0.0
C729 C 0.06704 0.55442 0.44565 0.0
C730 C 0.05288 0.6312 0.53546 0.0
C731 C 0.10519 0.60581 0.53243 0.0
O732 O 0.09009 0.60912 0.59887 0.0
O733 O 0.06575 0.57746 0.60413 0.0
O734 O 0.06454 0.56204 0.53057 0.0
O735 O 0.07407 0.54598 0.56096 0.0
O736 O 0.02162 0.56966 0.51902 0.0
O737 O 0.03102 0.5784 0.56105 0.0
O738 O 0.03125 0.56549 0.47425 0.0
O739 O 0.05643 0.59618 0.46869 0.0
O740 O 0.05729 0.61226 0.54233 0.0
O741 O 0.04768 0.62827 0.5119 0.0
O742 O 0.10002 0.60534 0.5542 0.0
O743 O 0.09101 0.59729 0.51208 0.0
H744 H 0.10188 0.61707 0.65897 0.0
H745 H 0.09 0.64142 0.68916 0.0
H746 H 0.03077 0.63587 0.63878 0.0
H747 H 0.04252 0.61115 0.60905 0.0
H748 H 0.01856 0.55796 0.41431 0.0
H749 H 0.02834 0.53183 0.38383 0.0
H750 H 0.08791 0.53483 0.43255 0.0
H751 H 0.07795 0.56072 0.46286 0.0
Pr752 Pr 0.78668 0.82983 0.28141 0.0
Pr753 Pr 0.83664 0.83669 0.2883 0.0
C754 C 0.74447 0.81999 0.28351 0.0
C755 C 0.72856 0.82128 0.2993 0.0
C756 C 0.72239 0.84284 0.30413 0.0
C757 C 0.70568 0.84326 0.31676 0.0
C758 C 0.69463 0.82215 0.32477 0.0
C759 C 0.70114 0.80071 0.32041 0.0
C760 C 0.71786 0.80028 0.30778 0.0
C761 C 0.80863 0.86961 0.26276 0.0
C762 C 0.81828 0.8561 0.33456 0.0
C763 C 0.8789 0.84556 0.28654 0.0
C764 C 0.8949 0.84492 0.27069 0.0
C765 C 0.90438 0.82528 0.26957 0.0
C766 C 0.92103 0.8255 0.25672 0.0
C767 C 0.92877 0.84546 0.24478 0.0
C768 C 0.91901 0.86493 0.24551 0.0
C769 C 0.90231 0.8647 0.25837 0.0
C770 C 0.81442 0.79738 0.30747 0.0
C771 C 0.80505 0.81111 0.23498 0.0
O772 O 0.75609 0.80428 0.28699 0.0
O773 O 0.75496 0.84017 0.27718 0.0
O774 O 0.81497 0.86274 0.28286 0.0
O775 O 0.78982 0.85661 0.25212 0.0
O776 O 0.83523 0.85925 0.32398 0.0
O777 O 0.79901 0.84367 0.32303 0.0
O778 O 0.86793 0.86203 0.28451 0.0
O779 O 0.86772 0.82496 0.29123 0.0
O780 O 0.80841 0.80393 0.28711 0.0
O781 O 0.83313 0.81057 0.31819 0.0
O782 O 0.78817 0.80755 0.24565 0.0
O783 O 0.82427 0.82367 0.24651 0.0
H784 H 0.73008 0.8593 0.29763 0.0
H785 H 0.70095 0.86003 0.31952 0.0
H786 H 0.6932 0.78419 0.32661 0.0
H787 H 0.72211 0.78334 0.30419 0.0
H788 H 0.89924 0.80987 0.27905 0.0
H789 H 0.92791 0.81003 0.25625 0.0
H790 H 0.9247 0.88072 0.23678 0.0
H791 H 0.89558 0.88029 0.25912 0.0
Pr792 Pr 0.82272 0.36362 0.80071 0.0
Pr793 Pr 0.79903 0.31058 0.76957 0.0
C794 C 0.85014 0.40283 0.8265 0.0
C795 C 0.85554 0.42848 0.8229 0.0
C796 C 0.83949 0.43958 0.813 0.0
C797 C 0.84492 0.46335 0.80768 0.0
C798 C 0.86651 0.47627 0.81178 0.0
C799 C 0.88256 0.46516 0.82179 0.0
C800 C 0.87709 0.44146 0.82734 0.0
C801 C 0.78051 0.35867 0.7767 0.0
C802 C 0.81934 0.35689 0.7406 0.0
C803 C 0.77051 0.27133 0.74489 0.0
C804 C 0.76102 0.2467 0.74971 0.0
C805 C 0.76019 0.22705 0.73289 0.0
C806 C 0.75102 0.20359 0.73712 0.0
C807 C 0.74234 0.1995 0.75811 0.0
C808 C 0.74337 0.21915 0.77506 0.0
C809 C 0.75278 0.24256 0.77099 0.0
C810 C 0.84242 0.31406 0.79084 0.0
C811 C 0.80344 0.31604 0.82966 0.0
O812 O 0.85586 0.38856 0.81092 0.0
O813 O 0.831 0.39399 0.8313 0.0
O814 O 0.78769 0.34227 0.78655 0.0
O815 O 0.79479 0.37922 0.78151 0.0
O816 O 0.8057 0.33556 0.73909 0.0
O817 O 0.82963 0.36946 0.76164 0.0
O818 O 0.76499 0.28884 0.75653 0.0
O819 O 0.79087 0.27634 0.74339 0.0
O820 O 0.83195 0.32985 0.78992 0.0
O821 O 0.82992 0.2943 0.77869 0.0
O822 O 0.8156 0.33836 0.83123 0.0
O823 O 0.79415 0.30275 0.80868 0.0
H824 H 0.82276 0.42974 0.80895 0.0
H825 H 0.83228 0.47145 0.79982 0.0
H826 H 0.89931 0.47484 0.82538 0.0
H827 H 0.88972 0.43311 0.8347 0.0
H828 H 0.7665 0.22988 0.71641 0.0
H829 H 0.75022 0.18869 0.7237 0.0
H830 H 0.73692 0.21638 0.79145 0.0
H831 H 0.75347 0.25739 0.78443 0.0
Pr832 Pr 0.78153 0.81647 0.77712 0.0
Pr833 Pr 0.83302 0.85227 0.78808 0.0
C834 C 0.74138 0.79268 0.77978 0.0
C835 C 0.72417 0.79377 0.79354 0.0
C836 C 0.70279 0.78545 0.78149 0.0
C837 C 0.68596 0.78758 0.7933 0.0
C838 C 0.6901 0.79801 0.81761 0.0
C839 C 0.71165 0.80634 0.8297 0.0
C840 C 0.72855 0.80433 0.81775 0.0
C841 C 0.79588 0.83311 0.73507 0.0
C842 C 0.7927 0.8758 0.7938 0.0
C843 C 0.87273 0.87592 0.78355 0.0
C844 C 0.88925 0.87299 0.76935 0.0
C845 C 0.90983 0.88846 0.77566 0.0
C846 C 0.92635 0.88466 0.76398 0.0
C847 C 0.92261 0.86526 0.74561 0.0
C848 C 0.90176 0.85 0.7391 0.0
C849 C 0.88528 0.85373 0.75095 0.0
C850 C 0.81894 0.83583 0.83032 0.0
C851 C 0.82179 0.79258 0.77243 0.0
O852 O 0.75851 0.78649 0.79052 0.0
O853 O 0.74563 0.80992 0.76602 0.0
O854 O 0.80588 0.8361 0.7565 0.0
O855 O 0.77677 0.81965 0.73445 0.0
O856 O 0.81188 0.88 0.78766 0.0
O857 O 0.78119 0.85405 0.79597 0.0
O858 O 0.85524 0.8809 0.77212 0.0
O859 O 0.86902 0.86027 0.79908 0.0
O860 O 0.80893 0.8321 0.8088 0.0
O861 O 0.83776 0.85004 0.83089 0.0
O862 O 0.80239 0.78853 0.77796 0.0
O863 O 0.83366 0.81423 0.77057 0.0
H864 H 0.69908 0.77761 0.76268 0.0
H865 H 0.66969 0.78145 0.78317 0.0
H866 H 0.71549 0.81429 0.84847 0.0
H867 H 0.74496 0.81119 0.8273 0.0
H868 H 0.9133 0.90321 0.79008 0.0
H869 H 0.94219 0.89655 0.76986 0.0
H870 H 0.89811 0.83507 0.72486 0.0
H871 H 0.86957 0.84134 0.74607 0.0
Pr872 Pr 0.53341 0.56947 0.52615 0.0
Pr873 Pr 0.58358 0.59367 0.53567 0.0
C874 C 0.49148 0.56123 0.52855 0.0
C875 C 0.47441 0.57457 0.52588 0.0
C876 C 0.46798 0.58371 0.50411 0.0
C877 C 0.45206 0.59662 0.50225 0.0
C878 C 0.44226 0.60079 0.52215 0.0
C879 C 0.44882 0.59166 0.54391 0.0
C880 C 0.46464 0.57866 0.54571 0.0
C881 C 0.5532 0.56755 0.48663 0.0
C882 C 0.55193 0.62933 0.52112 0.0
C883 C 0.62583 0.60269 0.53427 0.0
C884 C 0.64227 0.58867 0.53522 0.0
C885 C 0.66408 0.60038 0.54242 0.0
C886 C 0.6798 0.58724 0.5431 0.0
C887 C 0.67399 0.56208 0.53665 0.0
C888 C 0.65204 0.55044 0.52949 0.0
C889 C 0.63637 0.5636 0.52875 0.0
C890 C 0.56356 0.59452 0.57519 0.0
C891 C 0.56502 0.53392 0.54091 0.0
O892 O 0.5069 0.5687 0.54759 0.0
O893 O 0.4983 0.55478 0.50899 0.0
O894 O 0.55655 0.58525 0.50251 0.0
O895 O 0.53839 0.54929 0.49019 0.0
O896 O 0.57185 0.62698 0.52293 0.0
O897 O 0.53591 0.61129 0.5239 0.0
O898 O 0.61071 0.59757 0.51485 0.0
O899 O 0.61861 0.6062 0.55429 0.0
O900 O 0.56051 0.57729 0.55896 0.0
O901 O 0.57841 0.61303 0.57218 0.0
O902 O 0.54534 0.53677 0.54014 0.0
O903 O 0.58088 0.55156 0.53697 0.0
H904 H 0.47524 0.58095 0.4885 0.0
H905 H 0.44726 0.60308 0.48512 0.0
H906 H 0.44196 0.59483 0.55975 0.0
H907 H 0.46939 0.57194 0.56275 0.0
H908 H 0.66896 0.61971 0.5475 0.0
H909 H 0.6965 0.59676 0.54895 0.0
H910 H 0.64696 0.53117 0.52408 0.0
H911 H 0.61963 0.5542 0.52295 0.0
Pr912 Pr 0.08603 0.58783 0.04042 0.0
Pr913 Pr 0.03544 0.58033 0.02871 0.0
C914 C 0.12804 0.58824 0.05233 0.0
C915 C 0.14426 0.57399 0.05464 0.0
C916 C 0.16549 0.5856 0.05385 0.0
C917 C 0.18139 0.57278 0.05533 0.0
C918 C 0.17642 0.54797 0.05766 0.0
C919 C 0.15501 0.53632 0.05843 0.0
C920 C 0.13904 0.54923 0.05692 0.0
C921 C 0.06942 0.60644 0.99948 0.0
C922 C 0.05452 0.53546 0.01092 0.0
C923 C 0.99446 0.58276 0.01372 0.0
C924 C 0.97904 0.59794 0.01569 0.0
C925 C 0.96947 0.59911 0.03626 0.0
C926 C 0.95356 0.61178 0.03698 0.0
C927 C 0.94676 0.62354 0.01716 0.0
C928 C 0.9566 0.62266 0.99676 0.0
C929 C 0.97248 0.60995 0.99602 0.0
C930 C 0.05082 0.56042 0.06925 0.0
C931 C 0.06684 0.63323 0.0577 0.0
O932 O 0.11539 0.58711 0.06826 0.0
O933 O 0.1185 0.58975 0.03035 0.0
O934 O 0.06148 0.58623 1.00576 0.0
O935 O 0.08707 0.61768 0.01412 0.0
O936 O 0.0387 0.54627 1.00582 0.0
O937 O 0.07281 0.54636 0.02579 0.0
O938 O 1.00974 0.58996 1.0015 0.0
O939 O 1.00064 0.57241 0.03266 0.0
O940 O 0.0599 0.58049 0.06334 0.0
O941 O 0.03225 0.55105 0.05543 0.0
O942 O 0.08354 0.62358 0.06147 0.0
O943 O 0.04803 0.62113 0.04477 0.0
H944 H 0.16979 0.60466 0.05186 0.0
H945 H 0.19754 0.58228 0.05419 0.0
H946 H 0.15062 0.51727 0.06038 0.0
H947 H 0.12268 0.53991 0.05742 0.0
H948 H 0.97402 0.58996 0.05169 0.0
H949 H 0.94655 0.61235 0.05311 0.0
H950 H 0.95161 0.63123 0.98105 0.0
H951 H 0.97932 0.60911 0.97978 0.0
H952 H 0.05064 0.25501 0.94776 0.0
H953 H 0.99958 0.25381 0.98808 0.0
H954 H 0.05883 0.22053 0.96662 0.0
H955 H 1.00802 0.21948 1.0073 0.0
H956 H 1.01385 0.14084 0.01378 0.0
H957 H 1.00585 0.1769 0.99808 0.0
H958 H 0.07369 0.20867 1.00473 0.0
H959 H 0.0817 0.1725 0.02003 0.0
C960 C 0.0412 0.24748 0.96074 0.0
C961 C 0.0244 0.25726 0.96632 0.0
C962 C 0.04601 0.22775 0.97173 0.0
C963 C 0.03416 0.21715 0.98861 0.0
C964 C 0.01737 0.22696 0.99422 0.0
C965 C 1.01259 0.24677 0.98327 0.0
C966 C 0.02711 0.15561 0.0122 0.0
C967 C 0.04845 0.1536 0.01816 0.0
C968 C 0.0225 0.17639 1.00322 0.0
C969 C 0.03909 0.19572 0.99987 0.0
C970 C 0.06045 0.19402 1.00662 0.0
C971 C 0.06507 0.17329 0.01565 0.0
H972 H 0.15216 0.873 0.21142 0.0
H973 H 0.17619 0.84235 0.15252 0.0
H974 H 0.18555 0.87382 0.23912 0.0
H975 H 0.20958 0.84366 0.17992 0.0
H976 H 0.25812 0.82578 0.23879 0.0
H977 H 0.22382 0.8244 0.21277 0.0
H978 H 0.22331 0.89324 0.24918 0.0
H979 H 0.25723 0.89401 0.27574 0.0
C980 C 0.16462 0.86667 0.20431 0.0
C981 C 0.16141 0.85758 0.17971 0.0
C982 C 0.18382 0.86718 0.2202 0.0
C983 C 0.2003 0.85863 0.21188 0.0
C984 C 0.19715 0.84994 0.18717 0.0
C985 C 0.17801 0.84939 0.17135 0.0
C986 C 0.25044 0.84033 0.24154 0.0
C987 C 0.26022 0.8598 0.25953 0.0
C988 C 0.23091 0.83977 0.22638 0.0
C989 C 0.22071 0.85877 0.22873 0.0
C990 C 0.23047 0.87814 0.24698 0.0
C991 C 0.25 0.87866 0.26213 0.0
H992 H 0.55428 0.89345 0.44177 0.0
H993 H 0.50694 0.8765 0.48735 0.0
H994 H 0.55984 0.9364 0.45487 0.0
H995 H 0.51241 0.91949 0.50024 0.0
H996 H 0.51165 0.99977 0.49494 0.0
H997 H 0.50602 0.95691 0.48107 0.0
H998 H 0.5746 0.96497 0.49384 0.0
H999 H 0.58026 1.00766 0.50788 0.0
C1000 C 0.54509 0.89886 0.45462 0.0
C1001 C 0.5302 0.88149 0.46356 0.0
C1002 C 0.54832 0.92347 0.46216 0.0
C1003 C 0.53651 0.93134 0.47852 0.0
C1004 C 0.52161 0.914 0.48743 0.0
C1005 C 0.51861 0.88936 0.48019 0.0
C1006 C 0.52552 0.99244 0.49463 0.0
C1007 C 0.5464 1.00717 0.50252 0.0
C1008 C 0.52229 0.96785 0.48686 0.0
C1009 C 0.53987 0.95754 0.48642 0.0
C1010 C 0.56073 0.97239 0.49383 0.0
C1011 C 0.56396 0.99685 0.50196 0.0
H1012 H 0.55366 0.35309 0.71099 0.0
H1013 H 0.50823 0.33729 0.64314 0.0
H1014 H 0.52434 0.35375 0.7329 0.0
H1015 H 0.47916 0.33845 0.66487 0.0
H1016 H 0.42847 0.32106 0.71139 0.0
H1017 H 0.45825 0.31724 0.69151 0.0
H1018 H 0.49967 0.37821 0.73952 0.0
H1019 H 0.47018 0.38135 0.76009 0.0
C1020 C 0.53744 0.34972 0.70074 0.0
C1021 C 0.53335 0.34515 0.67529 0.0
C1022 C 0.52063 0.35024 0.71329 0.0
C1023 C 0.49932 0.34616 0.70069 0.0
C1024 C 0.49527 0.34132 0.67525 0.0
C1025 C 0.51203 0.34082 0.66274 0.0
C1026 C 0.44398 0.33343 0.71793 0.0
C1027 C 0.44681 0.35158 0.7373 0.0
C1028 C 0.46105 0.33145 0.70636 0.0
C1029 C 0.48141 0.34751 0.7138 0.0
C1030 C 0.48433 0.36539 0.73342 0.0
C1031 C 0.46727 0.36737 0.74499 0.0
H1032 H 0.11157 0.94205 0.65292 0.0
H1033 H 0.06535 0.89764 0.59347 0.0
H1034 H 0.10823 0.97791 0.63385 0.0
H1035 H 0.06112 0.93372 0.57474 0.0
H1036 H 0.08167 0.04016 0.60779 0.0
H1037 H 0.08632 1.00399 0.62584 0.0
H1038 H 0.07576 0.9653 0.5542 0.0
H1039 H 0.07003 1.00118 0.53632 0.0
C1040 C 0.10059 0.93993 0.63575 0.0
C1041 C 0.08873 0.91688 0.62475 0.0
C1042 C 0.0985 0.96063 0.62486 0.0
C1043 C 0.08423 0.95904 0.60272 0.0
C1044 C 0.07252 0.93586 0.59157 0.0
C1045 C 0.07485 0.91507 0.60236 0.0
C1046 C 0.08045 0.02395 0.5959 0.0
C1047 C 0.07545 0.02362 0.57059 0.0
C1048 C 0.08323 1.00312 0.60626 0.0
C1049 C 0.08145 0.98142 0.5916 0.0
C1050 C 0.07685 0.98134 0.56623 0.0
C1051 C 0.07374 1.00206 0.5559 0.0
H1052 H 0.47409 0.84189 0.90326 0.0
H1053 H 0.47843 0.79424 0.84215 0.0
H1054 H 0.43924 0.84539 0.88228 0.0
H1055 H 0.44359 0.79796 0.82105 0.0
H1056 H 0.37038 0.79234 0.80177 0.0
H1057 H 0.40493 0.78738 0.82244 0.0
H1058 H 0.42472 0.86355 0.84744 0.0
H1059 H 0.39027 0.86853 0.82712 0.0
C1060 C 0.46761 0.83209 0.88537 0.0
C1061 C 0.47915 0.81781 0.87441 0.0
C1062 C 0.44765 0.83425 0.87325 0.0
C1063 C 0.43861 0.82208 0.84988 0.0
C1064 C 0.44997 0.80744 0.83909 0.0
C1065 C 0.47002 0.8054 0.85116 0.0
C1066 C 0.38211 0.80806 0.8116 0.0
C1067 C 0.37742 0.83084 0.81274 0.0
C1068 C 0.40199 0.80522 0.82338 0.0
C1069 C 0.41761 0.82503 0.83676 0.0
C1070 C 0.41297 0.84781 0.83765 0.0
C1071 C 0.39321 0.85069 0.82578 0.0
H1072 H 0.61506 0.27001 0.12006 0.0
H1073 H 0.54924 0.27465 0.10088 0.0
H1074 H 0.60476 0.22797 0.10227 0.0
H1075 H 0.53895 0.23242 0.08294 0.0
H1076 H 0.53833 0.16899 0.02511 0.0
H1077 H 0.54552 0.2092 0.04697 0.0
H1078 H 0.58339 0.18694 0.10757 0.0
H1079 H 0.57611 0.14645 0.08548 0.0
C1080 C 0.59836 0.26208 0.11204 0.0
C1081 C 0.58302 0.27586 0.11175 0.0
C1082 C 0.59243 0.23785 0.10205 0.0
C1083 C 0.57102 0.22673 0.09121 0.0
C1084 C 0.55561 0.24045 0.09102 0.0
C1085 C 0.56151 0.26465 0.10132 0.0
C1086 C 0.54796 0.17256 0.04324 0.0
C1087 C 0.55669 0.15456 0.05355 0.0
C1088 C 0.55201 0.19561 0.05582 0.0
C1089 C 0.56512 0.20141 0.079 0.0
C1090 C 0.5734 0.18316 0.08964 0.0
C1091 C 0.56912 0.15993 0.0771 0.0
H1092 H 0.12521 0.33912 0.43315 0.0
H1093 H 0.07661 0.31297 0.36863 0.0
H1094 H 0.15275 0.3329 0.41071 0.0
H1095 H 0.10409 0.30599 0.34629 0.0
H1096 H 0.1609 0.31759 0.30704 0.0
H1097 H 0.13366 0.32537 0.32931 0.0
H1098 H 0.16627 0.30207 0.39313 0.0
H1099 H 0.19373 0.29479 0.3709 0.0
C1100 C 0.12037 0.33197 0.41417 0.0
C1101 C 0.09866 0.32657 0.40272 0.0
C1102 C 0.13619 0.32821 0.4013 0.0
C1103 C 0.13074 0.3188 0.37663 0.0
C1104 C 0.109 0.31357 0.36515 0.0
C1105 C 0.09319 0.31747 0.378 0.0
C1106 C 0.16219 0.314 0.32582 0.0
C1107 C 0.17949 0.3055 0.33717 0.0
C1108 C 0.1465 0.31843 0.33857 0.0
C1109 C 0.14763 0.31433 0.36307 0.0
C1110 C 0.165 0.30586 0.37442 0.0
C1111 C 0.18077 0.30159 0.3617 0.0
H1112 H 0.96764 0.01821 0.1585 0.0
H1113 H 0.94849 0.08323 0.14106 0.0
H1114 H 0.99819 0.02972 0.13839 0.0
H1115 H 0.9788 0.09444 0.12057 0.0
H1116 H 0.04747 0.11817 0.10639 0.0
H1117 H 0.01868 0.10754 0.12985 0.0
H1118 H 1.00404 0.03355 0.09731 0.0
H1119 H 0.0327 0.04392 0.07474 0.0
C1120 C 0.96976 0.03476 0.15008 0.0
C1121 C 0.95564 0.04976 0.15131 0.0
C1122 C 0.98729 0.0414 0.13865 0.0
C1123 C 0.99095 0.0631 0.12813 0.0
C1124 C 0.97661 0.07788 0.12896 0.0
C1125 C 0.95911 0.07127 0.14042 0.0
C1126 C 0.03822 0.09965 0.10465 0.0
C1127 C 0.04216 0.0819 0.08877 0.0
C1128 C 0.02169 0.09359 0.11782 0.0
C1129 C 1.00913 0.0697 0.11534 0.0
C1130 C 1.01359 0.052 0.09987 0.0
C1131 C 0.02993 0.05802 0.0868 0.0
H1132 H 0.32111 0.77168 0.47287 0.0
H1133 H 0.25617 0.73402 0.43965 0.0
H1134 H 0.32495 0.79144 0.43624 0.0
H1135 H 0.25971 0.75416 0.40355 0.0
H1136 H 0.28039 0.77152 0.33233 0.0
H1137 H 0.27675 0.75359 0.36965 0.0
H1138 H 0.31425 0.82044 0.41145 0.0
H1139 H 0.31843 0.83824 0.37398 0.0
C1140 C 0.30757 0.76783 0.4579 0.0
C1141 C 0.28838 0.75113 0.45921 0.0
C1142 C 0.30972 0.77924 0.43688 0.0
C1143 C 0.2927 0.77431 0.41669 0.0
C1144 C 0.27336 0.75807 0.41839 0.0
C1145 C 0.27127 0.74661 0.43926 0.0
C1146 C 0.28779 0.78252 0.34944 0.0
C1147 C 0.29966 0.80643 0.34999 0.0
C1148 C 0.28561 0.77222 0.37096 0.0
C1149 C 0.29512 0.78552 0.39376 0.0
C1150 C 0.30691 0.80949 0.39432 0.0
C1151 C 0.30917 0.81978 0.37275 0.0
H1152 H 0.56816 0.98662 0.69529 0.0
H1153 H 0.62622 0.99561 0.66564 0.0
H1154 H 0.55228 1.00601 0.66222 0.0
H1155 H 0.61033 0.01517 0.63273 0.0
H1156 H 0.58407 0.07844 0.60188 0.0
H1157 H 0.5992 0.056 0.63281 0.0
H1158 H 0.54096 0.99899 0.61573 0.0
H1159 H 0.52606 0.02106 0.58454 0.0
C1160 C 0.57738 0.99238 0.68151 0.0
C1161 C 0.59841 0.98964 0.68305 0.0
C1162 C 0.56831 1.00347 0.66264 0.0
C1163 C 0.58023 0.01228 0.64519 0.0
C1164 C 0.60096 1.00877 0.64619 0.0
C1165 C 0.60992 0.99736 0.66486 0.0
C1166 C 0.5746 0.06107 0.6047 0.0
C1167 C 0.55403 0.05134 0.59072 0.0
C1168 C 0.58324 0.04824 0.62228 0.0
C1169 C 0.57125 0.02573 0.62642 0.0
C1170 C 0.55048 0.01633 0.61287 0.0
C1171 C 0.54198 0.02897 0.59508 0.0
H1172 H 0.32099 0.43727 0.97599 0.0
H1173 H 0.33371 0.36875 0.99137 0.0
H1174 H 0.31601 0.42471 0.93245 0.0
H1175 H 0.32806 0.35598 0.9477 0.0
H1176 H 0.29102 0.33729 0.866 0.0
H1177 H 0.29454 0.34956 0.9094 0.0
H1178 H 0.34366 0.41291 0.90477 0.0
H1179 H 0.34064 0.40037 0.86146 0.0
C1180 C 0.32242 0.4194 0.97008 0.0
C1181 C 0.32773 0.40398 0.98714 0.0
C1182 C 0.3197 0.41231 0.94518 0.0
C1183 C 0.32169 0.38942 0.93677 0.0
C1184 C 0.32637 0.3737 0.95374 0.0
C1185 C 0.32963 0.38102 0.97869 0.0
C1186 C 0.30252 0.35389 0.87419 0.0
C1187 C 0.31555 0.36788 0.86027 0.0
C1188 C 0.30458 0.36081 0.89904 0.0
C1189 C 0.31935 0.38216 0.91038 0.0
C1190 C 0.33209 0.39641 0.89641 0.0
C1191 C 0.3304 0.3892 0.87167 0.0
H1192 H 0.94717 0.10641 0.26915 0.0
H1193 H 0.99003 0.06344 0.25076 0.0
H1194 H 0.96758 0.11563 0.31061 0.0
H1195 H 1.00976 0.07176 0.29212 0.0
H1196 H 0.04627 0.09203 0.3667 0.0
H1197 H 0.03238 0.09842 0.32525 0.0
H1198 H 0.96942 0.0917 0.34323 0.0
H1199 H 0.98348 0.08612 0.38455 0.0
C1200 C 0.96109 0.09918 0.27388 0.0
C1201 C 0.96678 0.08387 0.25683 0.0
C1202 C 0.97273 0.10437 0.29763 0.0
C1203 C 0.99012 0.09416 0.30481 0.0
C1204 C 0.99662 0.08017 0.28726 0.0
C1205 C 0.98515 0.0752 0.2635 0.0
C1206 C 0.02959 0.09236 0.36177 0.0
C1207 C 0.01589 0.08838 0.37866 0.0
C1208 C 0.02157 0.09598 0.3381 0.0
C1209 C 0.99971 0.09532 0.33082 0.0
C1210 C 0.98637 0.0927 0.34821 0.0
C1211 C 0.99444 0.08937 0.3719 0.0
H1212 H 0.30492 0.73927 0.60751 0.0
H1213 H 0.3153 0.81035 0.58407 0.0
H1214 H 0.31 0.75716 0.64956 0.0
H1215 H 0.32013 0.82811 0.62591 0.0
H1216 H 0.34999 0.85447 0.70455 0.0
H1217 H 0.34589 0.83432 0.66375 0.0
H1218 H 0.29274 0.77938 0.67684 0.0
H1219 H 0.29683 0.79992 0.71783 0.0
C1220 C 0.30829 0.7587 0.61129 0.0
C1221 C 0.30979 0.77336 0.59233 0.0
C1222 C 0.31106 0.76893 0.63541 0.0
C1223 C 0.31558 0.7941 0.64121 0.0
C1224 C 0.31701 0.80869 0.62222 0.0
C1225 C 0.31412 0.79848 0.59814 0.0
C1226 C 0.33755 0.83794 0.6988 0.0
C1227 C 0.32397 0.82852 0.71453 0.0
C1228 C 0.33511 0.82647 0.67533 0.0
C1229 C 0.3189 0.80527 0.66686 0.0
C1230 C 0.30555 0.79552 0.68283 0.0
C1231 C 0.30796 0.80715 0.70636 0.0
H1232 H 0.65285 0.98491 0.83491 0.0
H1233 H 0.59435 0.96717 0.78094 0.0
H1234 H 0.63282 0.99435 0.86572 0.0
H1235 H 0.57436 0.97633 0.81185 0.0
H1236 H 0.58807 0.99868 0.91874 0.0
H1237 H 0.60408 0.97927 0.88893 0.0
H1238 H 0.57499 0.0158 0.83315 0.0
H1239 H 0.55924 0.0353 0.8628 0.0
C1240 C 0.63566 0.98249 0.82973 0.0
C1241 C 0.62525 0.97565 0.80544 0.0
C1242 C 0.62417 0.98779 0.84741 0.0
C1243 C 0.60209 0.98636 0.84109 0.0
C1244 C 0.59144 0.97795 0.81712 0.0
C1245 C 0.60289 0.9726 0.79947 0.0
C1246 C 0.58505 1.00246 0.90006 0.0
C1247 C 0.57246 0.01859 0.89311 0.0
C1248 C 0.59417 0.99131 0.88305 0.0
C1249 C 0.59074 0.99599 0.85875 0.0
C1250 C 0.57759 0.01149 0.85167 0.0
C1251 C 0.56856 0.02269 0.86866 0.0
H1252 H 0.30788 0.35886 0.08639 0.0
H1253 H 0.33796 0.42696 0.13024 0.0
H1254 H 0.30368 0.33949 0.12288 0.0
H1255 H 0.33312 0.4077 0.1669 0.0
H1256 H 0.3339 0.36159 0.23035 0.0
H1257 H 0.34284 0.3798 0.19412 0.0
H1258 H 0.28194 0.33805 0.1525 0.0
H1259 H 0.27358 0.31962 0.18828 0.0
C1260 C 0.31363 0.36974 0.10384 0.0
C1261 C 0.32313 0.39454 0.10529 0.0
C1262 C 0.31109 0.35863 0.12485 0.0
C1263 C 0.31779 0.372 0.14799 0.0
C1264 C 0.32791 0.3967 0.14949 0.0
C1265 C 0.33059 0.40781 0.12841 0.0
C1266 C 0.32263 0.35621 0.21337 0.0
C1267 C 0.30312 0.33912 0.21219 0.0
C1268 C 0.32763 0.36675 0.19261 0.0
C1269 C 0.31316 0.36041 0.17019 0.0
C1270 C 0.29374 0.34312 0.16917 0.0
C1271 C 0.28884 0.3326 0.18981 0.0
H1272 H 0.29656 0.02093 0.08805 0.0
H1273 H 0.26603 0.98001 0.01856 0.0
H1274 H 0.26703 0.04064 0.08664 0.0
H1275 H 0.23654 0.99991 0.01712 0.0
H1276 H 0.17664 0.0206 0.03773 0.0
H1277 H 0.20624 1.0011 0.03831 0.0
H1278 H 0.25152 0.06958 0.06376 0.0
H1279 H 0.22203 0.08924 0.06273 0.0
C1280 C 0.2836 0.01619 0.07241 0.0
C1281 C 0.28369 0.99885 0.05342 0.0
C1282 C 0.26671 0.02759 0.07156 0.0
C1283 C 0.2494 0.02185 0.05178 0.0
C1284 C 0.2495 1.00456 0.03274 0.0
C1285 C 0.26649 0.99326 0.03351 0.0
C1286 C 0.19287 0.03158 0.04319 0.0
C1287 C 0.19683 0.05655 0.0502 0.0
C1288 C 0.20989 0.0204 0.04356 0.0
C1289 C 0.23128 0.03378 0.0511 0.0
C1290 C 0.23526 0.05869 0.05818 0.0
C1291 C 0.21826 0.0699 0.05765 0.0
H1292 H 0.72945 0.68424 0.06642 0.0
H1293 H 0.71996 0.67044 0.98838 0.0
H1294 H 0.69253 0.66202 0.06528 0.0
H1295 H 0.68289 0.64781 0.98733 0.0
H1296 H 0.628 0.58499 1.00291 0.0
H1297 H 0.66449 0.60831 1.00271 0.0
H1298 H 0.65465 0.66651 0.04913 0.0
H1299 H 0.61801 0.64333 0.04905 0.0
C1300 C 0.7195 0.67641 0.04899 0.0
C1301 C 0.72769 0.67906 0.02747 0.0
C1302 C 0.69828 0.6638 0.04837 0.0
C1303 C 0.6848 0.65316 0.02624 0.0
C1304 C 0.69296 0.6557 1.00468 0.0
C1305 C 0.71413 0.66873 1.00526 0.0
C1306 C 0.63363 0.60277 0.01306 0.0
C1307 C 0.62017 0.61234 0.02602 0.0
C1308 C 0.65446 0.61617 0.0128 0.0
C1309 C 0.66241 0.63925 0.02585 0.0
C1310 C 0.64899 0.64872 0.03899 0.0
C1311 C 0.62803 0.63549 0.03892 0.0
H1312 H 0.7636 0.57785 0.40136 0.0
H1313 H 0.70911 0.53403 0.35014 0.0
H1314 H 0.78442 0.54866 0.39383 0.0
H1315 H 0.73008 0.50565 0.34156 0.0
H1316 H 0.7651 0.44851 0.34173 0.0
H1317 H 0.74555 0.47574 0.35656 0.0
H1318 H 0.80164 0.53512 0.36395 0.0
H1319 H 0.82195 0.50734 0.3514 0.0
C1320 C 0.75613 0.56199 0.38846 0.0
C1321 C 0.73477 0.55812 0.37637 0.0
C1322 C 0.76807 0.54535 0.38402 0.0
C1323 C 0.75896 0.52476 0.36708 0.0
C1324 C 0.73751 0.52095 0.35514 0.0
C1325 C 0.72549 0.53733 0.35992 0.0
C1326 C 0.77358 0.46723 0.34721 0.0
C1327 C 0.79519 0.47568 0.34529 0.0
C1328 C 0.76214 0.48296 0.3553 0.0
C1329 C 0.77187 0.50772 0.36109 0.0
C1330 C 0.79364 0.51612 0.35982 0.0
C1331 C 0.80524 0.50026 0.35221 0.0
H1332 H 0.89075 0.47315 0.5264 0.0
H1333 H 0.88668 0.5344 0.57333 0.0
H1334 H 0.92769 0.49304 0.52477 0.0
H1335 H 0.92372 0.55439 0.57151 0.0
H1336 H 0.99825 0.56965 0.58155 0.0
H1337 H 0.96124 0.55068 0.58447 0.0
H1338 H 0.94661 0.52795 0.50739 0.0
H1339 H 0.98342 0.54659 0.50441 0.0
C1340 C 0.89772 0.49086 0.53639 0.0
C1341 C 0.88569 0.5022 0.54993 0.0
C1342 C 0.91889 0.50233 0.53533 0.0
C1343 C 0.92863 0.52537 0.5479 0.0
C1344 C 0.91673 0.53658 0.56176 0.0
C1345 C 0.89547 0.52516 0.56268 0.0
C1346 C 0.98712 0.56069 0.56521 0.0
C1347 C 0.99391 0.55962 0.54276 0.0
C1348 C 0.96588 0.54991 0.56688 0.0
C1349 C 0.95101 0.53766 0.54619 0.0
C1350 C 0.95773 0.53691 0.52374 0.0
C1351 C 0.97886 0.54778 0.52203 0.0
H1352 H 0.41328 0.20622 0.32654 0.0
H1353 H 0.44379 0.26094 0.28622 0.0
H1354 H 0.37901 0.21597 0.31375 0.0
H1355 H 0.40988 0.27181 0.27457 0.0
H1356 H 0.34703 0.27894 0.24137 0.0
H1357 H 0.37621 0.25889 0.24942 0.0
H1358 H 0.35973 0.24482 0.31929 0.0
H1359 H 0.32973 0.26337 0.31022 0.0
C1360 C 0.41273 0.22074 0.31538 0.0
C1361 C 0.43118 0.23295 0.30743 0.0
C1362 C 0.39306 0.22628 0.30797 0.0
C1363 C 0.39153 0.24445 0.29283 0.0
C1364 C 0.41023 0.25716 0.28557 0.0
C1365 C 0.42979 0.25127 0.29256 0.0
C1366 C 0.34915 0.2705 0.25789 0.0
C1367 C 0.33626 0.27251 0.27517 0.0
C1368 C 0.36608 0.25947 0.2628 0.0
C1369 C 0.37082 0.251 0.28539 0.0
C1370 C 0.35661 0.25108 0.3017 0.0
C1371 C 0.3393 0.26158 0.29647 0.0
H1372 H 0.32377 0.16601 0.50859 0.0
H1373 H 0.37161 0.23346 0.53002 0.0
H1374 H 0.35226 0.14483 0.50782 0.0
H1375 H 0.39994 0.21231 0.52967 0.0
H1376 H 0.44434 0.17114 0.50034 0.0
H1377 H 0.41549 0.19155 0.50107 0.0
H1378 H 0.38098 0.13336 0.53458 0.0
H1379 H 0.40954 0.1125 0.53306 0.0
C1380 C 0.34034 0.1763 0.51322 0.0
C1381 C 0.34538 0.20145 0.51928 0.0
C1382 C 0.35668 0.16415 0.51292 0.0
C1383 C 0.37842 0.17687 0.51862 0.0
C1384 C 0.3834 0.20198 0.52482 0.0
C1385 C 0.36711 0.2141 0.52515 0.0
C1386 C 0.43053 0.16259 0.50771 0.0
C1387 C 0.42928 0.14015 0.51661 0.0
C1388 C 0.41407 0.17443 0.50836 0.0
C1389 C 0.39589 0.16413 0.51793 0.0
C1390 C 0.39464 0.1417 0.52688 0.0
C1391 C 0.41115 0.12988 0.52628 0.0
H1392 H 0.76442 0.68532 0.39146 0.0
H1393 H 0.70756 0.70374 0.35469 0.0
H1394 H 0.7868 0.71786 0.37509 0.0
H1395 H 0.73005 0.73666 0.33872 0.0
H1396 H 0.77592 0.76648 0.2875 0.0
H1397 H 0.75272 0.73822 0.30794 0.0
H1398 H 0.79854 0.76125 0.37523 0.0
H1399 H 0.82174 0.78929 0.3547 0.0
C1400 C 0.7567 0.69664 0.38033 0.0
C1401 C 0.7342 0.69177 0.37417 0.0
C1402 C 0.76954 0.71535 0.37098 0.0
C1403 C 0.76017 0.72962 0.35535 0.0
C1404 C 0.73771 0.72564 0.35032 0.0
C1405 C 0.72484 0.70691 0.35966 0.0
C1406 C 0.78093 0.76553 0.30668 0.0
C1407 C 0.80058 0.77998 0.31954 0.0
C1408 C 0.76762 0.7495 0.31843 0.0
C1409 C 0.77377 0.74759 0.34324 0.0
C1410 C 0.79345 0.76215 0.35606 0.0
C1411 C 0.80673 0.77818 0.34431 0.0
H1412 H 0.91643 0.62668 0.83789 0.0
H1413 H 0.92118 0.61426 0.76252 0.0
H1414 H 0.8955 0.58541 0.8359 0.0
H1415 H 0.90005 0.57268 0.76056 0.0
H1416 H 0.89752 0.49552 0.78684 0.0
H1417 H 0.90987 0.53775 0.78071 0.0
H1418 H 0.86095 0.55565 0.81673 0.0
H1419 H 0.84873 0.51334 0.82308 0.0
C1420 C 0.91274 0.61521 0.82079 0.0
C1421 C 0.92067 0.62357 0.80044 0.0
C1422 C 0.90057 0.59163 0.8196 0.0
C1423 C 0.89623 0.57585 0.7981 0.0
C1424 C 0.90332 0.58449 0.7774 0.0
C1425 C 0.91534 0.60825 0.77851 0.0
C1426 C 0.8893 0.50848 0.79326 0.0
C1427 C 0.87241 0.5013 0.80577 0.0
C1428 C 0.8962 0.53256 0.78947 0.0
C1429 C 0.88641 0.54995 0.79834 0.0
C1430 C 0.86885 0.54258 0.80985 0.0
C1431 C 0.86181 0.51843 0.81343 0.0
H1432 H 0.06858 0.90933 0.11236 0.0
H1433 H 0.12389 0.91456 0.07827 0.0
H1434 H 0.0597 0.94255 0.0917 0.0
H1435 H 0.11468 0.9474 0.05704 0.0
H1436 H 0.10642 0.02409 0.04716 0.0
H1437 H 0.11458 0.98874 0.06407 0.0
H1438 H 0.04676 0.95503 0.05385 0.0
H1439 H 0.03857 0.99074 0.03753 0.0
C1440 C 0.07875 0.91739 0.10026 0.0
C1441 C 0.09702 0.90923 0.09711 0.0
C1442 C 0.07356 0.93642 0.08822 0.0
C1443 C 0.08643 0.94784 0.07259 0.0
C1444 C 0.10452 0.93939 0.06916 0.0
C1445 C 0.10975 0.92039 0.08126 0.0
C1446 C 0.09319 0.00906 0.0482 0.0
C1447 C 0.07179 0.01044 0.04097 0.0
C1448 C 0.0979 0.98863 0.05788 0.0
C1449 C 0.08137 0.96891 0.06059 0.0
C1450 C 0.05996 0.96997 0.05253 0.0
C1451 C 0.05525 0.99042 0.04289 0.0
H1452 H 0.94776 0.33344 0.91403 0.0
H1453 H 0.97108 0.30141 0.85532 0.0
H1454 H 0.91469 0.33315 0.88645 0.0
H1455 H 0.93805 0.30156 0.82751 0.0
H1456 H 0.86649 0.28113 0.79126 0.0
H1457 H 0.90034 0.28225 0.81803 0.0
H1458 H 0.89998 0.35175 0.85301 0.0
H1459 H 0.86573 0.35014 0.82654 0.0
C1460 C 0.94588 0.32635 0.8952 0.0
C1461 C 0.96214 0.31734 0.88699 0.0
C1462 C 0.9269 0.32639 0.87928 0.0
C1463 C 0.92358 0.31742 0.85462 0.0
C1464 C 0.93985 0.30836 0.8464 0.0
C1465 C 0.95887 0.30833 0.86236 0.0
C1466 C 0.87372 0.29672 0.80458 0.0
C1467 C 0.86354 0.31569 0.80658 0.0
C1468 C 0.89323 0.29744 0.81988 0.0
C1469 C 0.90308 0.31712 0.83774 0.0
C1470 C 0.89286 0.33618 0.83965 0.0
C1471 C 0.87333 0.33545 0.82427 0.0
H1472 H 0.62615 0.27828 0.62816 0.0
H1473 H 0.56233 0.28226 0.59613 0.0
H1474 H 0.61744 0.23576 0.61351 0.0
H1475 H 0.55385 0.23985 0.57964 0.0
H1476 H 0.53786 0.15768 0.56989 0.0
H1477 H 0.54566 0.20012 0.58594 0.0
H1478 H 0.61256 0.20758 0.58169 0.0
H1479 H 0.60484 0.16498 0.56758 0.0
C1480 C 0.61033 0.27011 0.61748 0.0
C1481 C 0.59498 0.28369 0.61317 0.0
C1482 C 0.6053 0.24559 0.60885 0.0
C1483 C 0.58491 0.23397 0.595 0.0
C1484 C 0.5696 0.24777 0.59052 0.0
C1485 C 0.57449 0.27223 0.59976 0.0
C1486 C 0.55424 0.16846 0.57264 0.0
C1487 C 0.57077 0.15793 0.56777 0.0
C1488 C 0.55875 0.19295 0.58164 0.0
C1489 C 0.57985 0.2077 0.58537 0.0
C1490 C 0.59623 0.19701 0.57991 0.0
C1491 C 0.5918 0.17246 0.5716 0.0
H1492 H 0.56677 0.80904 0.35963 0.0
H1493 H 0.61081 0.83768 0.42718 0.0
H1494 H 0.59718 0.80921 0.3393 0.0
H1495 H 0.64103 0.83747 0.40704 0.0
H1496 H 0.69046 0.85686 0.35861 0.0
H1497 H 0.65961 0.85774 0.37763 0.0
H1498 H 0.62587 0.78843 0.33801 0.0
H1499 H 0.65642 0.78797 0.31829 0.0
C1500 C 0.58291 0.81538 0.37014 0.0
C1501 C 0.58633 0.82335 0.39504 0.0
C1502 C 0.60035 0.81533 0.35853 0.0
C1503 C 0.62158 0.82335 0.37152 0.0
C1504 C 0.62493 0.83147 0.39638 0.0
C1505 C 0.60755 0.83145 0.40798 0.0
C1506 C 0.67642 0.84191 0.3538 0.0
C1507 C 0.67599 0.82234 0.33694 0.0
C1508 C 0.65877 0.84226 0.36487 0.0
C1509 C 0.64023 0.82312 0.35938 0.0
C1510 C 0.63977 0.80358 0.34248 0.0
C1511 C 0.65744 0.8032 0.33144 0.0
H1512 H 0.05533 0.27789 0.48209 0.0
H1513 H 1.01045 0.23181 0.42267 0.0
H1514 H 0.05909 0.24256 0.5025 0.0
H1515 H 1.0133 0.19669 0.44338 0.0
H1516 H 0.04042 0.13591 0.47193 0.0
H1517 H 0.03568 0.17141 0.45288 0.0
H1518 H 0.04429 0.21127 0.52359 0.0
H1519 H 0.05001 0.17585 0.54261 0.0
C1520 C 0.046 0.26025 0.47357 0.0
C1521 C 0.0327 0.25773 0.45066 0.0
C1522 C 0.04806 0.2399 0.48533 0.0
C1523 C 0.03666 0.21647 0.47463 0.0
C1524 C 0.02283 0.21419 0.45204 0.0
C1525 C 0.02102 0.23445 0.44019 0.0
C1526 C 0.04114 0.15218 0.48344 0.0
C1527 C 0.04553 0.15291 0.50884 0.0
C1528 C 0.03831 0.17266 0.47248 0.0
C1529 C 0.03948 0.19449 0.48655 0.0
C1530 C 0.0436 0.19506 0.51201 0.0
C1531 C 0.04671 0.17462 0.52299 0.0
H1532 H 0.6349 0.2987 0.195 0.0
H1533 H 0.6498 0.37627 0.1985 0.0
H1534 H 0.67087 0.30074 0.21628 0.0
H1535 H 0.68572 0.37864 0.2214 0.0
H1536 H 0.75586 0.37251 0.241 0.0
H1537 H 0.71977 0.37299 0.22074 0.0
H1538 H 0.69363 0.30915 0.25286 0.0
H1539 H 0.72968 0.30795 0.2715 0.0
C1540 C 0.64581 0.31628 0.20073 0.0
C1541 C 0.63944 0.33732 0.19516 0.0
C1542 C 0.66652 0.31752 0.2132 0.0
C1543 C 0.68142 0.3399 0.22106 0.0
C1544 C 0.67495 0.36102 0.2155 0.0
C1545 C 0.65428 0.35972 0.20249 0.0
C1546 C 0.7423 0.35873 0.2438 0.0
C1547 C 0.7456 0.34006 0.25763 0.0
C1548 C 0.72153 0.35901 0.23225 0.0
C1549 C 0.70353 0.34087 0.23469 0.0
C1550 C 0.70695 0.32298 0.24969 0.0
C1551 C 0.72767 0.32239 0.26068 0.0
H1552 H 0.52093 0.91758 0.93391 0.0
H1553 H 0.57108 0.89774 0.98245 0.0
H1554 H 0.52942 0.95704 0.95724 0.0
H1555 H 0.58027 0.93774 1.0054 0.0
H1556 H 0.57562 1.00114 0.05675 0.0
H1557 H 0.56866 0.96218 0.03273 0.0
H1558 H 0.55358 0.99503 0.96741 0.0
H1559 H 0.55963 0.03387 0.99197 0.0
C1560 C 0.53395 0.9217 0.94948 0.0
C1561 C 0.54526 0.90435 0.95631 0.0
C1562 C 0.53896 0.94454 0.96281 0.0
C1563 C 0.55562 0.95089 0.98332 0.0
C1564 C 0.56709 0.93354 0.99001 0.0
C1565 C 0.56191 0.91056 0.97677 0.0
C1566 C 0.57086 1.00005 0.03724 0.0
C1567 C 0.56814 0.0206 0.02623 0.0
C1568 C 0.56702 0.97766 0.02336 0.0
C1569 C 0.56052 0.97516 0.99797 0.0
C1570 C 0.55818 0.99596 0.98692 0.0
C1571 C 0.56184 0.01835 1.00091 0.0
H1572 H 0.99998 0.81339 0.65138 0.0
H1573 H 0.04641 0.86792 0.70255 0.0
H1574 H 0.9716 0.81983 0.67243 0.0
H1575 H 0.01786 0.87434 0.72372 0.0
H1576 H 0.95599 0.89856 0.73373 0.0
H1577 H 0.98545 0.89107 0.71514 0.0
H1578 H 0.95933 0.81436 0.71156 0.0
H1579 H 0.93014 0.82172 0.73072 0.0
C1580 C 1.00418 0.82664 0.66724 0.0
C1581 C 0.0255 0.84016 0.67524 0.0
C1582 C 0.98789 0.83025 0.67939 0.0
C1583 C 0.99242 0.84764 0.69973 0.0
C1584 C 1.01379 0.86096 0.70796 0.0
C1585 C 0.03017 0.85717 0.69594 0.0
C1586 C 0.95661 0.88004 0.72931 0.0
C1587 C 0.94052 0.86075 0.73378 0.0
C1588 C 0.97356 0.87581 0.71862 0.0
C1589 C 0.97478 0.85213 0.71188 0.0
C1590 C 0.95873 0.83284 0.71627 0.0
C1591 C 0.94188 0.83705 0.72716 0.0
H1592 H 0.17538 0.08612 0.92521 0.0
H1593 H 0.14778 0.14037 0.8921 0.0
H1594 H 0.14414 0.07385 0.9441 0.0
H1595 H 0.11651 0.128 0.91113 0.0
H1596 H 0.08374 0.11995 0.97876 0.0
H1597 H 0.11186 0.13023 0.95514 0.0
H1598 H 0.10325 0.05471 0.93126 0.0
H1599 H 0.07467 0.0443 0.95509 0.0
C1600 C 0.1627 0.09552 0.92206 0.0
C1601 C 0.16409 0.11437 0.90732 0.0
C1602 C 0.14472 0.08824 0.93261 0.0
C1603 C 0.12792 0.09984 0.92884 0.0
C1604 C 0.12932 0.11878 0.91426 0.0
C1605 C 0.14721 0.1259 0.90348 0.0
C1606 C 0.08765 0.10552 0.96823 0.0
C1607 C 0.07714 0.08132 0.96868 0.0
C1608 C 0.10365 0.11145 0.95463 0.0
C1609 C 0.10965 0.09327 0.94142 0.0
C1610 C 0.09887 0.06901 0.94143 0.0
C1611 C 0.08252 0.06307 0.95484 0.0
H1612 H 0.80251 0.39827 0.59326 0.0
H1613 H 0.86446 0.44264 0.62898 0.0
H1614 H 0.79893 0.3789 0.63015 0.0
H1615 H 0.86125 0.42294 0.66537 0.0
H1616 H 0.8388 0.40346 0.73537 0.0
H1617 H 0.84259 0.42132 0.69798 0.0
H1618 H 0.81162 0.35218 0.65636 0.0
H1619 H 0.80722 0.33447 0.69383 0.0
C1620 C 0.81547 0.4037 0.60886 0.0
C1621 C 0.83371 0.42213 0.60813 0.0
C1622 C 0.81348 0.39253 0.63003 0.0
C1623 C 0.82974 0.39941 0.65097 0.0
C1624 C 0.84817 0.41745 0.64991 0.0
C1625 C 0.85008 0.42867 0.62888 0.0
C1626 C 0.83288 0.392 0.71828 0.0
C1627 C 0.82266 0.36749 0.71772 0.0
C1628 C 0.83514 0.40225 0.69673 0.0
C1629 C 0.82743 0.38827 0.67396 0.0
C1630 C 0.81745 0.36366 0.67344 0.0
C1631 C 0.81505 0.35344 0.69501 0.0
H1632 H 0.51229 0.19054 0.40282 0.0
H1633 H 0.51274 0.12699 0.35667 0.0
H1634 H 0.52999 0.17472 0.43776 0.0
H1635 H 0.53022 0.11139 0.39138 0.0
H1636 H 0.5349 0.07894 0.4636 0.0
H1637 H 0.51834 0.09658 0.42955 0.0
H1638 H 0.56619 0.16384 0.45207 0.0
H1639 H 0.58282 0.14615 0.48624 0.0
C1640 C 0.51627 0.17333 0.40011 0.0
C1641 C 0.51109 0.15999 0.37703 0.0
C1642 C 0.52643 0.16435 0.42004 0.0
C1643 C 0.53129 0.14179 0.41719 0.0
C1644 C 0.52639 0.12869 0.39408 0.0
C1645 C 0.5165 0.13774 0.3742 0.0
C1646 C 0.54191 0.09746 0.4612 0.0
C1647 C 0.56018 0.11117 0.47735 0.0
C1648 C 0.53248 0.10752 0.44175 0.0
C1649 C 0.54107 0.13152 0.43822 0.0
C1650 C 0.55923 0.14533 0.45453 0.0
C1651 C 0.56881 0.13517 0.47389 0.0
H1652 H 0.81685 0.7526 0.09109 0.0
H1653 H 0.75712 0.77451 0.07975 0.0
H1654 H 0.82258 0.76635 0.13429 0.0
H1655 H 0.76305 0.78865 0.12282 0.0
H1656 H 0.76798 0.786 0.2044 0.0
H1657 H 0.76307 0.77239 0.16132 0.0
H1658 H 0.83057 0.80225 0.16315 0.0
H1659 H 0.83561 0.8155 0.20634 0.0
C1660 C 0.80504 0.76059 0.09774 0.0
C1661 C 0.7865 0.7624 0.0819 0.0
C1662 C 0.80837 0.76855 0.12254 0.0
C1663 C 0.79322 0.7785 0.13213 0.0
C1664 C 0.77488 0.78071 0.11618 0.0
C1665 C 0.77157 0.77278 0.09139 0.0
C1666 C 0.78183 0.78957 0.19569 0.0
C1667 C 0.8022 0.80186 0.20894 0.0
C1668 C 0.77896 0.78192 0.17089 0.0
C1669 C 0.79639 0.78633 0.15866 0.0
C1670 C 0.81682 0.79833 0.17199 0.0
C1671 C 0.81969 0.80602 0.19679 0.0
H1672 H 0.19729 0.07326 0.79917 0.0
H1673 H 0.13898 0.07532 0.82526 0.0
H1674 H 0.17862 0.07173 0.75761 0.0
H1675 H 0.12055 0.07522 0.78395 0.0
H1676 H 0.08924 0.06741 0.70533 0.0
H1677 H 0.10599 0.05709 0.74403 0.0
H1678 H 0.16734 0.10059 0.73517 0.0
H1679 H 0.15072 0.10983 0.6963 0.0
C1680 C 0.18038 0.07307 0.79593 0.0
C1681 C 0.16961 0.07459 0.81538 0.0
C1682 C 0.16971 0.07245 0.77216 0.0
C1683 C 0.14818 0.07393 0.76739 0.0
C1684 C 0.13706 0.07387 0.78682 0.0
C1685 C 0.14764 0.07399 0.81057 0.0
C1686 C 0.10633 0.0745 0.7117 0.0
C1687 C 0.11873 0.08935 0.69792 0.0
C1688 C 0.11595 0.06869 0.73385 0.0
C1689 C 0.13808 0.07793 0.7428 0.0
C1690 C 0.15042 0.09259 0.7287 0.0
C1691 C 0.14086 0.09806 0.70646 0.0
H1692 H 0.81829 0.36276 0.4836 0.0
H1693 H 0.81156 0.43023 0.45795 0.0
H1694 H 0.81272 0.34441 0.44177 0.0
H1695 H 0.80615 0.41179 0.41597 0.0
H1696 H 0.8242 0.37334 0.34721 0.0
H1697 H 0.82795 0.39406 0.38808 0.0
H1698 H 0.78263 0.33308 0.40539 0.0
H1699 H 0.77836 0.31298 0.36449 0.0
C1700 C 0.81556 0.37368 0.46905 0.0
C1701 C 0.81529 0.39796 0.47419 0.0
C1702 C 0.81229 0.36313 0.44504 0.0
C1703 C 0.80897 0.37663 0.42552 0.0
C1704 C 0.8088 0.40096 0.4306 0.0
C1705 C 0.81175 0.41144 0.45466 0.0
C1706 C 0.81455 0.36481 0.35952 0.0
C1707 C 0.80062 0.34184 0.35245 0.0
C1708 C 0.81683 0.37652 0.38299 0.0
C1709 C 0.80561 0.36517 0.40003 0.0
C1710 C 0.79163 0.34222 0.39282 0.0
C1711 C 0.78914 0.33075 0.36934 0.0
H1712 H 0.55295 0.21196 0.30947 0.0
H1713 H 0.49381 0.19679 0.25676 0.0
H1714 H 0.57233 0.20456 0.27715 0.0
H1715 H 0.51314 0.18939 0.22463 0.0
H1716 H 0.55486 0.18707 0.16918 0.0
H1717 H 0.54202 0.20694 0.20165 0.0
H1718 H 0.56973 0.16494 0.25278 0.0
H1719 H 0.58204 0.1447 0.22048 0.0
C1720 C 0.54419 0.20759 0.29095 0.0
C1721 C 0.52184 0.20465 0.28564 0.0
C1722 C 0.55527 0.20328 0.2725 0.0
C1723 C 0.5442 0.19628 0.24846 0.0
C1724 C 0.52211 0.19497 0.24297 0.0
C1725 C 0.51102 0.19901 0.2614 0.0
C1726 C 0.55834 0.18221 0.1874 0.0
C1727 C 0.56929 0.16411 0.19218 0.0
C1728 C 0.55109 0.19369 0.20595 0.0
C1729 C 0.55487 0.18744 0.22967 0.0
C1730 C 0.56688 0.17039 0.23472 0.0
C1731 C 0.57396 0.15877 0.21618 0.0
H1732 H 0.81728 0.76477 0.96113 0.0
H1733 H 0.75043 0.76276 0.93644 0.0
H1734 H 0.8266 0.78654 0.92738 0.0
H1735 H 0.7598 0.78521 0.90303 0.0
H1736 H 0.78188 0.80206 0.83108 0.0
H1737 H 0.7715 0.78147 0.8653 0.0
H1738 H 0.82965 0.82416 0.91175 0.0
H1739 H 0.84007 0.84405 0.87725 0.0
C1740 C 0.80457 0.76918 0.94865 0.0
C1741 C 0.78309 0.76195 0.95157 0.0
C1742 C 0.80993 0.78184 0.92929 0.0
C1743 C 0.79399 0.78778 0.91234 0.0
C1744 C 0.77251 0.78072 0.91543 0.0
C1745 C 0.76714 0.76795 0.93475 0.0
C1746 C 0.79229 0.80707 0.84862 0.0
C1747 C 0.81175 0.82458 0.8514 0.0
C1748 C 0.78635 0.79537 0.86835 0.0
C1749 C 0.79977 0.80096 0.89144 0.0
C1750 C 0.81906 0.81896 0.89424 0.0
C1751 C 0.82497 0.83055 0.87448 0.0
H1752 H 0.82193 0.14121 0.9836 0.0
H1753 H 0.86177 0.19422 0.04136 0.0
H1754 H 0.85101 0.12106 0.98341 0.0
H1755 H 0.89109 0.17449 0.04071 0.0
H1756 H 0.93146 0.11896 0.05009 0.0
H1757 H 0.90245 0.13919 0.05072 0.0
H1758 H 0.88539 0.12525 0.97255 0.0
H1759 H 0.91421 0.10469 0.97203 0.0
C1760 C 0.83694 0.14866 0.99621 0.0
C1761 C 0.83946 0.16935 0.01251 0.0
C1762 C 0.85371 0.13718 0.99598 0.0
C1763 C 0.87352 0.14612 0.01199 0.0
C1764 C 0.87601 0.16683 0.02833 0.0
C1765 C 0.85921 0.17826 0.02862 0.0
C1766 C 0.92163 0.12039 0.03305 0.0
C1767 C 0.92517 0.11016 0.01103 0.0
C1768 C 0.90497 0.13203 0.03333 0.0
C1769 C 0.89145 0.13389 0.01167 0.0
C1770 C 0.89514 0.12382 0.98963 0.0
C1771 C 0.91174 0.11206 0.98936 0.0
H1772 H 0.40118 0.5282 0.09792 0.0
H1773 H 0.39778 0.47815 0.03531 0.0
H1774 H 0.43678 0.55009 0.09334 0.0
H1775 H 0.43317 0.50041 0.03033 0.0
H1776 H 0.50647 0.53173 0.04435 0.0
H1777 H 0.47062 0.50926 0.04793 0.0
H1778 H 0.45464 0.57619 0.06798 0.0
H1779 H 0.49064 0.59846 0.06503 0.0
C1780 C 0.40797 0.52191 0.0831 0.0
C1781 C 0.39655 0.50138 0.067 0.0
C1782 C 0.42838 0.53459 0.08035 0.0
C1783 C 0.43793 0.52715 0.06138 0.0
C1784 C 0.42651 0.50655 0.04533 0.0
C1785 C 0.40611 0.49383 0.04811 0.0
C1786 C 0.49524 0.54161 0.04941 0.0
C1787 C 0.50142 0.56685 0.05455 0.0
C1788 C 0.47463 0.52875 0.05137 0.0
C1789 C 0.45968 0.54084 0.05843 0.0
C1790 C 0.4658 0.56618 0.06299 0.0
C1791 C 0.48641 0.579 0.06112 0.0
H1792 H 0.36763 0.6023 0.66417 0.0
H1793 H 0.4196 0.64664 0.71821 0.0
H1794 H 0.34634 0.63161 0.66869 0.0
H1795 H 0.39808 0.67526 0.72371 0.0
H1796 H 0.36067 0.72994 0.72332 0.0
H1797 H 0.38186 0.70468 0.70827 0.0
H1798 H 0.32735 0.64303 0.69782 0.0
H1799 H 0.3055 0.66881 0.71071 0.0
C1800 C 0.37452 0.61841 0.67689 0.0
C1801 C 0.39518 0.62217 0.69096 0.0
C1802 C 0.36229 0.63511 0.67962 0.0
C1803 C 0.37037 0.65568 0.69675 0.0
C1804 C 0.39142 0.65984 0.71006 0.0
C1805 C 0.40376 0.64336 0.70703 0.0
C1806 C 0.3529 0.71116 0.71707 0.0
C1807 C 0.3313 0.70142 0.71836 0.0
C1808 C 0.36526 0.69659 0.70881 0.0
C1809 C 0.35646 0.67176 0.70215 0.0
C1810 C 0.33466 0.66215 0.70259 0.0
C1811 C 0.32216 0.67683 0.71041 0.0
H1812 H 0.22155 0.71682 0.55145 0.0
H1813 H 0.23646 0.66128 0.506 0.0
H1814 H 0.18621 0.69084 0.55083 0.0
H1815 H 0.20075 0.63515 0.50536 0.0
H1816 H 0.12419 0.6103 0.49208 0.0
H1817 H 0.16042 0.63367 0.49039 0.0
H1818 H 0.17309 0.65209 0.56806 0.0
H1819 H 0.13733 0.629 0.56992 0.0
C1820 C 0.21728 0.69909 0.54122 0.0
C1821 C 0.23191 0.6911 0.52888 0.0
C1822 C 0.19703 0.68415 0.54098 0.0
C1823 C 0.19077 0.66089 0.5282 0.0
C1824 C 0.20513 0.65302 0.51531 0.0
C1825 C 0.22559 0.66793 0.51578 0.0
C1826 C 0.13479 0.61914 0.50882 0.0
C1827 C 0.1277 0.61786 0.53111 0.0
C1828 C 0.15554 0.63245 0.50783 0.0
C1829 C 0.16947 0.64494 0.52906 0.0
C1830 C 0.16261 0.64299 0.55135 0.0
C1831 C 0.14207 0.62959 0.55238 0.0
H1832 H 0.70801 0.96645 0.74558 0.0
H1833 H 0.67331 0.90201 0.77033 0.0
H1834 H 0.74185 0.95707 0.76149 0.0
H1835 H 0.70712 0.89213 0.78541 0.0
H1836 H 0.76725 0.88417 0.82518 0.0
H1837 H 0.73844 0.9047 0.81673 0.0
H1838 H 0.7623 0.92884 0.75321 0.0
H1839 H 0.7916 0.9092 0.76243 0.0
C1840 C 0.70759 0.95009 0.75414 0.0
C1841 C 0.68798 0.9349 0.75668 0.0
C1842 C 0.727 0.94479 0.76331 0.0
C1843 C 0.72721 0.92408 0.77503 0.0
C1844 C 0.70756 0.90863 0.7771 0.0
C1845 C 0.68815 0.91406 0.76814 0.0
C1846 C 0.76682 0.89484 0.81008 0.0
C1847 C 0.7814 0.89505 0.79432 0.0
C1848 C 0.75018 0.90625 0.80499 0.0
C1849 C 0.74766 0.91763 0.78382 0.0
C1850 C 0.76373 0.92016 0.76962 0.0
C1851 C 0.78062 0.90906 0.77498 0.0
H1852 H 0.76504 0.97394 0.49763 0.0
H1853 H 0.78718 0.98923 0.57521 0.0
H1854 H 0.73539 0.99256 0.50094 0.0
H1855 H 0.75727 1.00734 0.57858 0.0
H1856 H 0.71403 0.05964 0.57319 0.0
H1857 H 0.74404 0.04204 0.56896 0.0
H1858 H 0.70199 0.98568 0.51589 0.0
H1859 H 0.67192 1.00342 0.52006 0.0
C1860 C 0.7636 0.98126 0.5154 0.0
C1861 C 0.77854 0.9801 0.53614 0.0
C1862 C 0.74648 0.99179 0.51732 0.0
C1863 C 0.74386 1.00142 0.54004 0.0
C1864 C 0.75892 1.00041 0.56075 0.0
C1865 C 0.77605 0.98991 0.55882 0.0
C1866 C 0.71111 0.04335 0.56073 0.0
C1867 C 0.69049 0.03286 0.54706 0.0
C1868 C 0.72838 0.03329 0.55835 0.0
C1869 C 0.72548 0.01238 0.54217 0.0
C1870 C 0.7049 1.00199 0.5283 0.0
C1871 C 0.6876 0.0121 0.53067 0.0
H1872 H 0.38143 0.45459 0.67007 0.0
H1873 H 0.36994 0.50833 0.7209 0.0
H1874 H 0.36104 0.42271 0.68988 0.0
H1875 H 0.3501 0.4767 0.74061 0.0
H1876 H 0.3384 0.41247 0.78565 0.0
H1877 H 0.36012 0.44257 0.76521 0.0
H1878 H 0.32076 0.40998 0.69601 0.0
H1879 H 0.29894 0.38022 0.71634 0.0
C1880 C 0.37451 0.45959 0.68531 0.0
C1881 C 0.3772 0.48395 0.6938 0.0
C1882 C 0.36291 0.44141 0.69663 0.0
C1883 C 0.35425 0.44738 0.71687 0.0
C1884 C 0.35687 0.47167 0.72523 0.0
C1885 C 0.36806 0.48976 0.71373 0.0
C1886 C 0.33443 0.41185 0.76611 0.0
C1887 C 0.3169 0.39431 0.75258 0.0
C1888 C 0.34681 0.42896 0.75444 0.0
C1889 C 0.34204 0.42848 0.72908 0.0
C1890 C 0.32481 0.41059 0.71555 0.0
C1891 C 0.31224 0.39377 0.72722 0.0
H1892 H 0.19676 0.54601 0.26306 0.0
H1893 H 0.13888 0.56875 0.23779 0.0
H1894 H 0.21768 0.58764 0.26731 0.0
H1895 H 0.15987 0.61027 0.24153 0.0
H1896 H 0.2006 0.68514 0.26827 0.0
H1897 H 0.1811 0.64394 0.27075 0.0
H1898 H 0.22872 0.61686 0.23977 0.0
H1899 H 0.24836 0.65812 0.23766 0.0
C1900 C 0.18848 0.5599 0.25853 0.0
C1901 C 0.16618 0.5541 0.24998 0.0
C1902 C 0.20049 0.58372 0.26085 0.0
C1903 C 0.19044 0.60219 0.25465 0.0
C1904 C 0.16805 0.59646 0.24674 0.0
C1905 C 0.15603 0.57266 0.24446 0.0
C1906 C 0.2069 0.67033 0.26208 0.0
C1907 C 0.22585 0.67471 0.25257 0.0
C1908 C 0.19575 0.6468 0.26348 0.0
C1909 C 0.20329 0.62718 0.25528 0.0
C1910 C 0.22264 0.63162 0.2465 0.0
C1911 C 0.23386 0.6552 0.24522 0.0
H1912 H 0.49525 0.74964 0.48142 0.0
H1913 H 0.55057 0.75688 0.44711 0.0
H1914 H 0.50418 0.71554 0.50053 0.0
H1915 H 0.5591 0.72234 0.46545 0.0
H1916 H 0.5802 0.67165 0.51667 0.0
H1917 H 0.57206 0.70785 0.5016 0.0
H1918 H 0.5042 0.67459 0.49226 0.0
H1919 H 0.51237 0.63876 0.50812 0.0
C1920 C 0.5093 0.74395 0.4779 0.0
C1921 C 0.52216 0.75609 0.46269 0.0
C1922 C 0.51437 0.72422 0.48875 0.0
C1923 C 0.53239 0.71595 0.4846 0.0
C1924 C 0.54532 0.72829 0.46951 0.0
C1925 C 0.54033 0.74809 0.45881 0.0
C1926 C 0.56353 0.67212 0.51164 0.0
C1927 C 0.54698 0.65217 0.51365 0.0
C1928 C 0.55883 0.69289 0.50275 0.0
C1929 C 0.53742 0.69429 0.49543 0.0
C1930 C 0.52088 0.67448 0.49796 0.0
C1931 C 0.52558 0.65378 0.507 0.0
H1932 H 0.65763 0.38242 0.70573 0.0
H1933 H 0.65091 0.30602 0.69014 0.0
H1934 H 0.69369 0.38676 0.72901 0.0
H1935 H 0.68728 0.31034 0.7119 0.0
H1936 H 0.74564 0.31986 0.77166 0.0
H1937 H 0.70943 0.31578 0.74911 0.0
H1938 H 0.72903 0.38768 0.7288 0.0
H1939 H 0.76492 0.39168 0.75183 0.0
C1940 C 0.66399 0.3666 0.70704 0.0
C1941 C 0.65133 0.34387 0.69625 0.0
C1942 C 0.6848 0.36904 0.72028 0.0
C1943 C 0.69371 0.34889 0.72263 0.0
C1944 C 0.68103 0.32625 0.71126 0.0
C1945 C 0.66012 0.32376 0.69854 0.0
C1946 C 0.74222 0.33462 0.76211 0.0
C1947 C 0.75828 0.35589 0.7632 0.0
C1948 C 0.72138 0.33235 0.74909 0.0
C1949 C 0.71599 0.35134 0.73678 0.0
C1950 C 0.73218 0.37271 0.73817 0.0
C1951 C 0.75294 0.37496 0.75127 0.0
H1952 H 0.02736 0.40629 0.90944 0.0
H1953 H 0.04589 0.38093 0.97826 0.0
H1954 H 0.03292 0.44671 0.92978 0.0
H1955 H 0.05136 0.42173 0.99878 0.0
H1956 H 0.08068 0.50457 0.02069 0.0
H1957 H 0.07548 0.46326 1.00191 0.0
H1958 H 0.01613 0.46797 0.95748 0.0
H1959 H 0.02134 0.50912 0.97593 0.0
C1960 C 0.03261 0.4093 0.92895 0.0
C1961 C 0.03615 0.39029 0.9422 0.0
C1962 C 0.03568 0.43252 0.94064 0.0
C1963 C 0.04248 0.43747 0.96593 0.0
C1964 C 0.04625 0.41855 0.97924 0.0
C1965 C 0.043 0.39516 0.96752 0.0
C1966 C 0.06654 0.49681 1.00688 0.0
C1967 C 0.05151 0.5103 0.99973 0.0
C1968 C 0.06348 0.47305 0.99626 0.0
C1969 C 0.04544 0.46233 0.97812 0.0
C1970 C 0.03036 0.47577 0.97116 0.0
C1971 C 0.03332 0.49939 0.98185 0.0
H1972 H 0.05535 0.85706 0.20628 0.0
H1973 H 1.01042 0.8382 0.13809 0.0
H1974 H 0.0256 0.857 0.22764 0.0
H1975 H 0.98079 0.83757 0.15938 0.0
H1976 H 0.93449 0.86272 0.20151 0.0
H1977 H 0.96489 0.86412 0.18113 0.0
H1978 H 0.99509 0.83033 0.23861 0.0
H1979 H 0.96516 0.82992 0.25952 0.0
C1980 C 0.03914 0.85277 0.19586 0.0
C1981 C 0.03531 0.84769 0.17045 0.0
C1982 C 0.02206 0.85262 0.20811 0.0
C1983 C 1.00074 0.84736 0.19525 0.0
C1984 C 0.99697 0.84212 0.16987 0.0
C1985 C 1.01401 0.84231 0.15765 0.0
C1986 C 0.9477 0.85582 0.20994 0.0
C1987 C 0.94728 0.84614 0.23214 0.0
C1988 C 0.96506 0.85636 0.19811 0.0
C1989 C 0.98246 0.84724 0.20815 0.0
C1990 C 0.98211 0.83772 0.23044 0.0
C1991 C 0.96476 0.83719 0.24227 0.0
H1992 H 0.56238 0.39854 0.09658 0.0
H1993 H 0.6191 0.44157 0.14491 0.0
H1994 H 0.55681 0.43453 0.07856 0.0
H1995 H 0.61418 0.47731 0.12632 0.0
H1996 H 0.58761 0.54168 0.10676 0.0
H1997 H 0.5934 0.50548 0.12404 0.0
H1998 H 0.56825 0.46386 0.05373 0.0
H1999 H 0.56165 0.49985 0.03682 0.0
C2000 C 0.57387 0.41562 0.10309 0.0
C2001 C 0.59115 0.41711 0.12226 0.0
C2002 C 0.57074 0.43634 0.09269 0.0
C2003 C 0.58495 0.45912 0.10097 0.0
C2004 C 0.60255 0.46036 0.11973 0.0
C2005 C 0.60551 0.43973 0.13029 0.0
C2006 C 0.58336 0.52481 0.09499 0.0
C2007 C 0.57412 0.52375 0.07039 0.0
C2008 C 0.5868 0.50396 0.10487 0.0
C2009 C 0.58135 0.48147 0.09038 0.0
C2010 C 0.57233 0.48059 0.06568 0.0
C2011 C 0.56867 0.50136 0.05589 0.0
H2012 H 0.98833 0.34099 0.36879 0.0
H2013 H 0.95137 0.2882 0.40609 0.0
H2014 H 0.95537 0.343 0.34193 0.0
H2015 H 0.91845 0.29033 0.37935 0.0
H2016 H 0.86493 0.28484 0.31402 0.0
H2017 H 0.89898 0.28078 0.33689 0.0
H2018 H 0.92341 0.35811 0.34534 0.0
H2019 H 0.88957 0.36223 0.32237 0.0
C2020 C 0.97321 0.32969 0.37118 0.0
C2021 C 0.97253 0.31448 0.38968 0.0
C2022 C 0.95429 0.33095 0.35585 0.0
C2023 C 0.93422 0.31686 0.35848 0.0
C2024 C 0.93362 0.30125 0.37662 0.0
C2025 C 0.95251 0.30015 0.39208 0.0
C2026 C 0.87762 0.30098 0.32052 0.0
C2027 C 0.87438 0.32388 0.31635 0.0
C2028 C 0.89711 0.29865 0.33379 0.0
C2029 C 0.91393 0.31912 0.34307 0.0
C2030 C 0.91091 0.34193 0.33828 0.0
C2031 C 0.8914 0.34429 0.32517 0.0
H2032 H 0.05109 0.77714 0.59281 0.0
H2033 H 0.09959 0.75742 0.64387 0.0
H2034 H 0.04254 0.73708 0.57017 0.0
H2035 H 0.09186 0.71793 0.62082 0.0
H2036 H 0.06364 0.64114 0.58514 0.0
H2037 H 0.06868 0.67984 0.60959 0.0
H2038 H 0.05467 0.71261 0.54394 0.0
H2039 H 0.04851 0.67379 0.52006 0.0
C2040 C 0.06005 0.76433 0.59911 0.0
C2041 C 0.07605 0.77061 0.62016 0.0
C2042 C 0.05524 0.7413 0.58604 0.0
C2043 C 0.06651 0.72397 0.59347 0.0
C2044 C 0.08248 0.73038 0.61461 0.0
C2045 C 0.08708 0.75325 0.6278 0.0
C2046 C 0.06137 0.6566 0.57612 0.0
C2047 C 0.05555 0.65435 0.55075 0.0
C2048 C 0.06448 0.67894 0.59005 0.0
C2049 C 0.06216 0.6997 0.57889 0.0
C2050 C 0.05622 0.69719 0.55342 0.0
C2051 C 0.05285 0.67486 0.53962 0.0
H2052 H 0.59148 0.84632 0.88343 0.0
H2053 H 0.5793 0.76975 0.88836 0.0
H2054 H 0.62172 0.84416 0.86346 0.0
H2055 H 0.60969 0.76772 0.86932 0.0
H2056 H 0.65115 0.76559 0.81312 0.0
H2057 H 0.62089 0.7694 0.83172 0.0
H2058 H 0.65756 0.83828 0.87007 0.0
H2059 H 0.68756 0.83511 0.85021 0.0
C2060 C 0.59524 0.82905 0.88029 0.0
C2061 C 0.58285 0.8082 0.88739 0.0
C2062 C 0.6127 0.82783 0.86901 0.0
C2063 C 0.6182 0.80573 0.86465 0.0
C2064 C 0.60577 0.78497 0.87187 0.0
C2065 C 0.58833 0.78617 0.88297 0.0
C2066 C 0.65276 0.78176 0.82527 0.0
C2067 C 0.67189 0.80009 0.83002 0.0
C2068 C 0.6354 0.78376 0.83623 0.0
C2069 C 0.6367 0.8041 0.85256 0.0
C2070 C 0.65584 0.82245 0.85741 0.0
C2071 C 0.67322 0.8205 0.84629 0.0
H2072 H 0.48775 0.54059 0.681 0.0
H2073 H 0.4491 0.57379 0.63038 0.0
H2074 H 0.51879 0.55617 0.66298 0.0
H2075 H 0.4802 0.58891 0.61193 0.0
H2076 H 0.54413 0.62703 0.59447 0.0
H2077 H 0.5168 0.61767 0.62008 0.0
H2078 H 0.52817 0.54658 0.62399 0.0
H2079 H 0.55514 0.556 0.5989 0.0
C2080 C 0.48581 0.55102 0.66587 0.0
C2081 C 0.46591 0.55576 0.65696 0.0
C2082 C 0.50363 0.56005 0.65565 0.0
C2083 C 0.50193 0.57389 0.63619 0.0
C2084 C 0.48206 0.57868 0.62723 0.0
C2085 C 0.46419 0.5697 0.63754 0.0
C2086 C 0.54123 0.60984 0.60167 0.0
C2087 C 0.55169 0.59227 0.59507 0.0
C2088 C 0.52546 0.60432 0.61594 0.0
C2089 C 0.52033 0.58135 0.62389 0.0
C2090 C 0.53191 0.5645 0.61842 0.0
C2091 C 0.54736 0.56989 0.60407 0.0
H2092 H 0.8215 0.27135 0.97553 0.0
H2093 H 0.75945 0.22736 0.93966 0.0
H2094 H 0.82466 0.29185 0.93926 0.0
H2095 H 0.76216 0.24829 0.90393 0.0
H2096 H 0.78375 0.2694 0.8342 0.0
H2097 H 0.78022 0.25079 0.87112 0.0
H2098 H 0.81226 0.31907 0.91391 0.0
H2099 H 0.81648 0.33757 0.8768 0.0
C2100 C 0.80841 0.26628 0.96005 0.0
C2101 C 0.7903 0.24758 0.96049 0.0
C2102 C 0.81016 0.27811 0.93923 0.0
C2103 C 0.79375 0.27166 0.91841 0.0
C2104 C 0.77538 0.25344 0.91927 0.0
C2105 C 0.77374 0.24151 0.93992 0.0
C2106 C 0.79002 0.28054 0.85144 0.0
C2107 C 0.80048 0.30504 0.85241 0.0
C2108 C 0.78786 0.26984 0.87274 0.0
C2109 C 0.79591 0.28335 0.8957 0.0
C2110 C 0.80615 0.30794 0.89665 0.0
C2111 C 0.80844 0.31863 0.87531 0.0
H2112 H 0.13546 0.50306 0.1709 0.0
H2113 H 0.07222 0.45898 0.17177 0.0
H2114 H 0.12031 0.52406 0.13943 0.0
H2115 H 0.05703 0.47916 0.13905 0.0
H2116 H 0.03381 0.5407 0.10584 0.0
H2117 H 0.04912 0.51652 0.13452 0.0
H2118 H 0.10421 0.52397 0.09942 0.0
H2119 H 0.08914 0.54903 0.07184 0.0
C2120 C 0.11835 0.49734 0.16384 0.0
C2121 C 0.10498 0.47949 0.17398 0.0
C2122 C 0.10963 0.5094 0.14567 0.0
C2123 C 0.08737 0.50359 0.13685 0.0
C2124 C 0.07418 0.48459 0.14588 0.0
C2125 C 0.08288 0.4728 0.16442 0.0
C2126 C 0.04935 0.53738 0.10467 0.0
C2127 C 0.06075 0.54729 0.08732 0.0
C2128 C 0.058 0.52324 0.12079 0.0
C2129 C 0.07795 0.5182 0.11934 0.0
C2130 C 0.08909 0.52791 0.10154 0.0
C2131 C 0.08061 0.54246 0.08581 0.0
H2132 H 0.86768 0.90064 0.48865 0.0
H2133 H 0.80428 0.91375 0.47787 0.0
H2134 H 0.86183 0.8851 0.44599 0.0
H2135 H 0.79862 0.89879 0.43499 0.0
H2136 H 0.7883 0.84941 0.3639 0.0
H2137 H 0.79323 0.8635 0.40684 0.0
H2138 H 0.85931 0.8991 0.40689 0.0
H2139 H 0.85454 0.88448 0.3641 0.0
C2140 C 0.85245 0.90016 0.4772 0.0
C2141 C 0.83646 0.90847 0.48674 0.0
C2142 C 0.84916 0.89143 0.45263 0.0
C2143 C 0.82982 0.89087 0.43688 0.0
C2144 C 0.81364 0.89872 0.44656 0.0
C2145 C 0.8169 0.90737 0.47118 0.0
C2146 C 0.80388 0.86033 0.37301 0.0
C2147 C 0.82103 0.86578 0.36046 0.0
C2148 C 0.80668 0.86851 0.39768 0.0
C2149 C 0.8267 0.8824 0.41047 0.0
C2150 C 0.84377 0.88809 0.3978 0.0
C2151 C 0.84099 0.87985 0.37315 0.0
H2152 H 0.45468 0.59302 0.75923 0.0
H2153 H 0.45202 0.51719 0.76114 0.0
H2154 H 0.48064 0.6024 0.79757 0.0
H2155 H 0.4777 0.52654 0.79914 0.0
H2156 H 0.5339 0.54821 0.85812 0.0
H2157 H 0.51603 0.54741 0.81624 0.0
H2158 H 0.47803 0.5937 0.84054 0.0
H2159 H 0.49579 0.59443 0.88237 0.0
C2160 C 0.45972 0.57841 0.76775 0.0
C2161 C 0.45123 0.55436 0.75731 0.0
C2162 C 0.47455 0.58378 0.78961 0.0
C2163 C 0.48129 0.56522 0.80114 0.0
C2164 C 0.47309 0.54126 0.79041 0.0
C2165 C 0.45817 0.53588 0.76878 0.0
C2166 C 0.52204 0.55856 0.85441 0.0
C2167 C 0.51595 0.57101 0.87347 0.0
C2168 C 0.51183 0.55815 0.83052 0.0
C2169 C 0.49541 0.57017 0.82528 0.0
C2170 C 0.49068 0.58438 0.84408 0.0
C2171 C 0.50089 0.58476 0.868 0.0
H2172 H 0.80864 0.23477 0.10953 0.0
H2173 H 0.81018 0.30522 0.08652 0.0
H2174 H 0.81317 0.25184 0.15183 0.0
H2175 H 0.81454 0.32212 0.12855 0.0
H2176 H 0.84537 0.35022 0.20644 0.0
H2177 H 0.84188 0.33068 0.16556 0.0
H2178 H 0.79388 0.27066 0.18017 0.0
H2179 H 0.79726 0.29063 0.22129 0.0
C2180 C 0.80997 0.25389 0.11346 0.0
C2181 C 0.80916 0.26863 0.09455 0.0
C2182 C 0.81243 0.26363 0.13771 0.0
C2183 C 0.81434 0.28839 0.14366 0.0
C2184 C 0.81345 0.30305 0.12472 0.0
C2185 C 0.81085 0.29331 0.10053 0.0
C2186 C 0.83419 0.33274 0.20103 0.0
C2187 C 0.82177 0.32181 0.2172 0.0
C2188 C 0.8321 0.3216 0.17751 0.0
C2189 C 0.81747 0.29918 0.16942 0.0
C2190 C 0.80544 0.28784 0.18585 0.0
C2191 C 0.80745 0.29916 0.20945 0.0
H2192 H 0.1441 0.47667 0.33175 0.0
H2193 H 0.08969 0.47015 0.27385 0.0
H2194 H 0.12301 0.4862 0.36123 0.0
H2195 H 0.06842 0.4792 0.3035 0.0
H2196 H 0.07753 0.49339 0.41133 0.0
H2197 H 0.09236 0.47302 0.38104 0.0
H2198 H 0.07053 0.51696 0.32786 0.0
H2199 H 0.05574 0.53714 0.35799 0.0
C2200 C 0.12748 0.47672 0.32536 0.0
C2201 C 0.11866 0.47303 0.30046 0.0
C2202 C 0.11534 0.48203 0.34229 0.0
C2203 C 0.09412 0.48369 0.33464 0.0
C2204 C 0.08486 0.47842 0.30987 0.0
C2205 C 0.09701 0.47313 0.29292 0.0
C2206 C 0.07577 0.4985 0.39308 0.0
C2207 C 0.06561 0.51693 0.38702 0.0
C2208 C 0.08422 0.48683 0.37578 0.0
C2209 C 0.08265 0.49342 0.35211 0.0
C2210 C 0.07168 0.51116 0.34583 0.0
C2211 C 0.06323 0.52279 0.36309 0.0
H2212 H 0.85767 0.88089 0.61429 0.0
H2213 H 0.80751 0.91865 0.61517 0.0
H2214 H 0.84856 0.8624 0.65028 0.0
H2215 H 0.79838 0.90005 0.65085 0.0
H2216 H 0.7711 0.83776 0.69288 0.0
H2217 H 0.78229 0.8574 0.65854 0.0
H2218 H 0.8484 0.87412 0.69557 0.0
H2219 H 0.83701 0.85444 0.7302 0.0
C2220 C 0.84475 0.88528 0.62215 0.0
C2221 C 0.83327 0.90118 0.61174 0.0
C2222 C 0.83963 0.8748 0.64285 0.0
C2223 C 0.82269 0.87967 0.65334 0.0
C2224 C 0.81138 0.89574 0.64306 0.0
C2225 C 0.81669 0.90648 0.62264 0.0
C2226 C 0.78803 0.84563 0.69372 0.0
C2227 C 0.8032 0.84474 0.7143 0.0
C2228 C 0.79442 0.857 0.67409 0.0
C2229 C 0.81621 0.86747 0.67437 0.0
C2230 C 0.83149 0.8662 0.6948 0.0
C2231 C 0.82501 0.8551 0.71467 0.0
H2232 H 0.74029 0.44763 0.52467 0.0
H2233 H 0.79221 0.51146 0.54715 0.0
H2234 H 0.71435 0.47199 0.52536 0.0
H2235 H 0.76612 0.5359 0.54836 0.0
H2236 H 0.71287 0.57434 0.52207 0.0
H2237 H 0.73972 0.55084 0.52226 0.0
H2238 H 0.69984 0.49456 0.55306 0.0
H2239 H 0.673 0.51798 0.55274 0.0
C2240 C 0.74621 0.46687 0.5299 0.0
C2241 C 0.76838 0.47755 0.53587 0.0
C2242 C 0.73127 0.48086 0.53045 0.0
C2243 C 0.73807 0.50595 0.53703 0.0
C2244 C 0.76028 0.51667 0.54296 0.0
C2245 C 0.77526 0.50264 0.54239 0.0
C2246 C 0.70992 0.55704 0.52911 0.0
C2247 C 0.69069 0.54803 0.5373 0.0
C2248 C 0.72536 0.54358 0.52923 0.0
C2249 C 0.72197 0.52072 0.53758 0.0
C2250 C 0.70285 0.51187 0.54606 0.0
C2251 C 0.68742 0.52531 0.54589 0.0
H2252 H 0.22317 0.16545 0.49389 0.0
H2253 H 0.21477 0.21677 0.54934 0.0
H2254 H 0.18853 0.13898 0.49632 0.0
H2255 H 0.18087 0.19012 0.55255 0.0
H2256 H 0.11089 0.14929 0.5361 0.0
H2257 H 0.14525 0.17533 0.53292 0.0
H2258 H 0.17007 0.11264 0.52061 0.0
H2259 H 0.1352 0.08658 0.52276 0.0
C2260 C 0.21397 0.17105 0.50663 0.0
C2261 C 0.22171 0.19331 0.52129 0.0
C2262 C 0.19417 0.15578 0.5082 0.0
C2263 C 0.18174 0.16232 0.52464 0.0
C2264 C 0.18965 0.18458 0.53932 0.0
C2265 C 0.20924 0.19989 0.53756 0.0
C2266 C 0.12373 0.14108 0.53285 0.0
C2267 C 0.12034 0.11589 0.52968 0.0
C2268 C 0.14353 0.15603 0.53112 0.0
C2269 C 0.16061 0.1462 0.52649 0.0
C2270 C 0.15726 0.12092 0.52375 0.0
C2271 C 0.13733 0.10595 0.52523 0.0
H2272 H 0.2767 0.08416 0.89346 0.0
H2273 H 0.22535 0.02789 0.90837 0.0
H2274 H 0.29747 0.0547 0.88746 0.0
H2275 H 0.24633 0.99847 0.90258 0.0
H2276 H 0.26943 0.95885 0.83968 0.0
H2277 H 0.25326 0.98539 0.86168 0.0
H2278 H 0.3157 0.02276 0.90291 0.0
H2279 H 0.33209 0.99545 0.88127 0.0
C2280 C 0.27011 0.06563 0.89616 0.0
C2281 C 0.24918 0.0582 0.90077 0.0
C2282 C 0.2821 0.0488 0.89291 0.0
C2283 C 0.27332 0.02428 0.89418 0.0
C2284 C 0.2533 0.01726 0.90118 0.0
C2285 C 0.24133 0.03411 0.90453 0.0
C2286 C 0.27975 0.97218 0.85396 0.0
C2287 C 0.3021 0.97499 0.8587 0.0
C2288 C 0.27041 0.98738 0.8666 0.0
C2289 C 0.28321 1.00599 0.88412 0.0
C2290 C 0.30549 1.00851 0.88944 0.0
C2291 C 0.31488 0.99305 0.87693 0.0
H2292 H 0.4037 1.00005 0.09754 0.0
H2293 H 0.38128 1.00444 0.02177 0.0
H2294 H 0.43983 0.02129 0.09404 0.0
H2295 H 0.41708 0.02665 0.01845 0.0
H2296 H 0.48721 0.03979 0.01239 0.0
H2297 H 0.45098 0.02076 0.01671 0.0
H2298 H 0.46321 0.05779 0.08932 0.0
H2299 H 0.5 0.07607 0.08529 0.0
C2300 C 0.40642 1.00588 0.08021 0.0
C2301 C 0.38962 1.0004 0.0599 0.0
C2302 C 0.42716 0.01822 0.07821 0.0
C2303 C 0.43159 0.02566 0.0559 0.0
C2304 C 0.41454 0.02077 0.0358 0.0
C2305 C 0.3939 1.00815 0.03773 0.0
C2306 C 0.48219 0.04402 0.02927 0.0
C2307 C 0.49658 0.05951 0.04849 0.0
C2308 C 0.46126 0.03317 0.03171 0.0
C2309 C 0.45393 0.03773 0.05335 0.0
C2310 C 0.46828 0.05349 0.07251 0.0
C2311 C 0.48938 0.06413 0.07016 0.0
H2312 H 0.94116 0.76517 0.79172 0.0
H2313 H 0.90846 0.70673 0.8264 0.0
H2314 H 0.90707 0.77475 0.77729 0.0
H2315 H 0.87424 0.71526 0.81082 0.0
H2316 H 0.82418 0.76184 0.80611 0.0
H2317 H 0.85386 0.74305 0.81604 0.0
H2318 H 0.87472 0.76149 0.74922 0.0
H2319 H 0.84574 0.78169 0.74031 0.0
C2320 C 0.92666 0.75442 0.79624 0.0
C2321 C 0.92746 0.73546 0.81037 0.0
C2322 C 0.90705 0.75957 0.78762 0.0
C2323 C 0.8878 0.74547 0.79252 0.0
C2324 C 0.88872 0.7266 0.80686 0.0
C2325 C 0.90837 0.7218 0.81589 0.0
C2326 C 0.83459 0.76089 0.79308 0.0
C2327 C 0.83294 0.77325 0.77259 0.0
C2328 C 0.85172 0.75026 0.79883 0.0
C2329 C 0.86711 0.75148 0.78381 0.0
C2330 C 0.86362 0.76107 0.76164 0.0
C2331 C 0.84682 0.7722 0.75623 0.0
H2332 H 0.87179 0.73006 0.02846 0.0
H2333 H 0.82367 0.66259 0.00925 0.0
H2334 H 0.89995 0.70868 0.0283 0.0
H2335 H 0.852 0.64113 0.00862 0.0
H2336 H 0.90944 0.60913 0.03448 0.0
H2337 H 0.88083 0.63001 0.03519 0.0
H2338 H 0.9153 0.68712 1.00037 0.0
H2339 H 0.94425 0.66672 1.00051 0.0
C2340 C 0.86718 0.71063 0.02411 0.0
C2341 C 0.84542 0.69806 0.01883 0.0
C2342 C 0.88338 0.69837 0.02387 0.0
C2343 C 0.8783 0.67317 0.01832 0.0
C2344 C 0.85652 0.66052 0.0132 0.0
C2345 C 0.84026 0.67283 0.01344 0.0
C2346 C 0.91103 0.62627 0.02722 0.0
C2347 C 0.92923 0.63627 0.01753 0.0
C2348 C 0.89448 0.63811 0.02735 0.0
C2349 C 0.89572 0.66028 0.01785 0.0
C2350 C 0.9139 0.67023 0.0081 0.0
C2351 C 0.93042 0.65838 0.00795 0.0
H2352 H 0.23201 0.16279 0.80493 0.0
H2353 H 0.25266 0.19093 0.88066 0.0
H2354 H 0.25424 0.19862 0.79373 0.0
H2355 H 0.27414 0.22783 0.86939 0.0
H2356 H 0.32675 0.28051 0.84187 0.0
H2357 H 0.30535 0.24422 0.8543 0.0
H2358 H 0.25646 0.23885 0.79044 0.0
H2359 H 0.27858 0.27366 0.77732 0.0
C2360 C 0.24105 0.1769 0.81919 0.0
C2361 C 0.24055 0.17413 0.84366 0.0
C2362 C 0.25375 0.19758 0.81276 0.0
C2363 C 0.26591 0.21634 0.83061 0.0
C2364 C 0.26525 0.21364 0.85516 0.0
C2365 C 0.25282 0.19262 0.86164 0.0
C2366 C 0.3115 0.27133 0.83048 0.0
C2367 C 0.30424 0.27988 0.80871 0.0
C2368 C 0.29911 0.25072 0.8377 0.0
C2369 C 0.27912 0.2385 0.8234 0.0
C2370 C 0.27193 0.24737 0.80172 0.0
C2371 C 0.28449 0.26756 0.7943 0.0
H2372 H 0.42645 0.12364 0.33364 0.0
H2373 H 0.4271 0.11352 0.25689 0.0
H2374 H 0.40525 0.08269 0.33131 0.0
H2375 H 0.40526 0.0722 0.25446 0.0
H2376 H 0.39808 0.99268 0.2745 0.0
H2377 H 0.41193 0.03493 0.26951 0.0
H2378 H 0.37058 0.05551 0.31552 0.0
H2379 H 0.35708 0.01326 0.32086 0.0
C2380 C 0.42182 0.11275 0.31616 0.0
C2381 C 0.42864 0.12174 0.29548 0.0
C2382 C 0.40944 0.0893 0.31478 0.0
C2383 C 0.40353 0.07422 0.29269 0.0
C2384 C 0.40973 0.0834 0.27177 0.0
C2385 C 0.42213 0.10703 0.27314 0.0
C2386 C 0.39167 1.00624 0.28316 0.0
C2387 C 0.37678 0.99985 0.29837 0.0
C2388 C 0.39954 0.03039 0.28018 0.0
C2389 C 0.39251 0.04854 0.29232 0.0
C2390 C 0.3766 0.04193 0.30631 0.0
C2391 C 0.36887 0.01782 0.30943 0.0
H2392 H 0.61696 0.40961 0.57834 0.0
H2393 H 0.57014 0.41304 0.62371 0.0
H2394 H 0.60853 0.44387 0.55899 0.0
H2395 H 0.56205 0.44751 0.60477 0.0
H2396 H 0.53701 0.4941 0.55114 0.0
H2397 H 0.54515 0.45854 0.5676 0.0
H2398 H 0.61233 0.4868 0.56633 0.0
H2399 H 0.60411 0.52226 0.54939 0.0
C2400 C 0.6049 0.41768 0.58425 0.0
C2401 C 0.59423 0.40845 0.60261 0.0
C2402 C 0.60014 0.43746 0.57322 0.0
C2403 C 0.58454 0.44855 0.5802 0.0
C2404 C 0.5739 0.43928 0.59857 0.0
C2405 C 0.57866 0.41954 0.6096 0.0
C2406 C 0.55351 0.4927 0.55412 0.0
C2407 C 0.56988 0.5112 0.54889 0.0
C2408 C 0.55822 0.47231 0.5638 0.0
C2409 C 0.57945 0.46977 0.56859 0.0
C2410 C 0.59576 0.48796 0.56273 0.0
C2411 C 0.59104 0.50839 0.55303 0.0
H2412 H 0.44467 0.82813 0.41106 0.0
H2413 H 0.46975 0.79875 0.35235 0.0
H2414 H 0.4117 0.82736 0.38319 0.0
H2415 H 0.43667 0.79835 0.3242 0.0
H2416 H 0.36454 0.77769 0.28753 0.0
H2417 H 0.39851 0.77842 0.31405 0.0
H2418 H 0.39842 0.84757 0.35008 0.0
H2419 H 0.3642 0.84639 0.32396 0.0
C2420 C 0.44318 0.82148 0.39217 0.0
C2421 C 0.45995 0.81349 0.384 0.0
C2422 C 0.42427 0.82125 0.3761 0.0
C2423 C 0.4215 0.813 0.35134 0.0
C2424 C 0.43815 0.80467 0.34317 0.0
C2425 C 0.45716 0.80495 0.3593 0.0
C2426 C 0.37189 0.79311 0.30102 0.0
C2427 C 0.36179 0.81208 0.30356 0.0
C2428 C 0.39143 0.7936 0.31615 0.0
C2429 C 0.40126 0.81301 0.33431 0.0
C2430 C 0.39123 0.83216 0.33652 0.0
C2431 C 0.37173 0.83168 0.32136 0.0
H2432 H 0.10077 0.77931 0.13521 0.0
H2433 H 0.05952 0.78295 0.06775 0.0
H2434 H 0.09746 0.73666 0.12335 0.0
H2435 H 0.05654 0.7404 0.05571 0.0
H2436 H 0.03605 0.65884 0.05356 0.0
H2437 H 0.04017 0.7013 0.06635 0.0
H2438 H 0.10741 0.70894 0.09502 0.0
H2439 H 0.10324 0.66613 0.08252 0.0
C2440 C 0.09108 0.77107 0.11778 0.0
C2441 C 0.08033 0.78461 0.10249 0.0
C2442 C 0.08929 0.7466 0.11091 0.0
C2443 C 0.07665 0.73497 0.08861 0.0
C2444 C 0.06613 0.74862 0.0732 0.0
C2445 C 0.06796 0.7731 0.08003 0.0
C2446 C 0.05174 0.66945 0.06271 0.0
C2447 C 0.06932 0.65892 0.06697 0.0
C2448 C 0.05412 0.69394 0.06988 0.0
C2449 C 0.07416 0.70869 0.08154 0.0
C2450 C 0.09169 0.69811 0.08625 0.0
C2451 C 0.08931 0.67354 0.07902 0.0
H2452 H 0.06877 0.321 0.86121 0.0
H2453 H 0.11089 0.32009 0.9289 0.0
H2454 H 0.09858 0.32179 0.83976 0.0
H2455 H 0.14062 0.32128 0.9076 0.0
H2456 H 0.18255 0.2962 0.85838 0.0
H2457 H 0.15275 0.29587 0.87951 0.0
H2458 H 0.13267 0.34772 0.83495 0.0
H2459 H 0.16251 0.34806 0.81379 0.0
C2460 C 0.08439 0.32108 0.87153 0.0
C2461 C 0.08739 0.32044 0.89678 0.0
C2462 C 0.10151 0.32166 0.85925 0.0
C2463 C 0.12203 0.32153 0.87193 0.0
C2464 C 0.125 0.32103 0.89719 0.0
C2465 C 0.10794 0.32051 0.90944 0.0
C2466 C 0.17195 0.30775 0.85327 0.0
C2467 C 0.17499 0.32218 0.83439 0.0
C2468 C 0.15481 0.30755 0.86536 0.0
C2469 C 0.14026 0.32177 0.85895 0.0
C2470 C 0.14334 0.33627 0.84012 0.0
C2471 C 0.16049 0.33647 0.82802 0.0
H2472 H 0.56029 0.77788 0.97737 0.0
H2473 H 0.49754 0.73693 0.94012 0.0
H2474 H 0.56649 0.74218 0.99552 0.0
H2475 H 0.50344 0.70147 0.95874 0.0
H2476 H 0.52948 0.6356 0.97491 0.0
H2477 H 0.52317 0.67152 0.95735 0.0
H2478 H 0.55677 0.71547 0.02432 0.0
H2479 H 0.56362 0.6797 0.04155 0.0
C2480 C 0.54769 0.76136 0.97329 0.0
C2481 C 0.52842 0.76037 0.95724 0.0
C2482 C 0.55121 0.74082 0.98378 0.0
C2483 C 0.53552 0.71872 0.9786 0.0
C2484 C 0.5161 0.71794 0.96287 0.0
C2485 C 0.51263 0.73841 0.95232 0.0
C2486 C 0.53552 0.65292 0.98591 0.0
C2487 C 0.5471 0.65465 0.00967 0.0
C2488 C 0.53178 0.67358 0.97587 0.0
C2489 C 0.53942 0.69659 0.98935 0.0
C2490 C 0.5509 0.69823 0.01318 0.0
C2491 C 0.55471 0.6776 0.02316 0.0
H2492 H 0.14789 0.88487 0.72885 0.0
H2493 H 0.14739 0.83174 0.67007 0.0
H2494 H 0.18386 0.88238 0.74758 0.0
H2495 H 0.1833 0.82938 0.68868 0.0
H2496 H 0.23534 0.80999 0.74282 0.0
H2497 H 0.2001 0.81424 0.72451 0.0
H2498 H 0.22173 0.89153 0.74195 0.0
H2499 H 0.25719 0.88733 0.76065 0.0
C2500 C 0.15546 0.87272 0.71987 0.0
C2501 C 0.14467 0.85844 0.69799 0.0
C2502 C 0.17615 0.87141 0.73055 0.0
C2503 C 0.18646 0.85558 0.71973 0.0
C2504 C 0.17574 0.84152 0.6977 0.0
C2505 C 0.15518 0.843 0.68693 0.0
C2506 C 0.23269 0.82795 0.74288 0.0
C2507 C 0.24925 0.84833 0.75326 0.0
C2508 C 0.21244 0.83038 0.73217 0.0
C2509 C 0.20807 0.85323 0.73156 0.0
C2510 C 0.22449 0.87364 0.74224 0.0
C2511 C 0.24486 0.87122 0.75289 0.0
H2512 H 0.07082 0.39738 0.47937 0.0
H2513 H 0.01996 0.41573 0.43059 0.0
H2514 H 0.07954 0.43755 0.5018 0.0
H2515 H 0.02797 0.45538 0.45345 0.0
H2516 H 0.05656 0.53263 0.48785 0.0
H2517 H 0.05118 0.4938 0.46346 0.0
H2518 H 0.06788 0.46182 0.52893 0.0
H2519 H 0.07432 0.50076 0.55271 0.0
C2520 C 0.06138 0.40991 0.47353 0.0
C2521 C 0.04466 0.40321 0.45317 0.0
C2522 C 0.0663 0.43301 0.48648 0.0
C2523 C 0.05447 0.45 0.47962 0.0
C2524 C 0.03777 0.44318 0.45918 0.0
C2525 C 0.03302 0.42023 0.44612 0.0
C2526 C 0.05937 0.51733 0.49684 0.0
C2527 C 0.06601 0.51983 0.52213 0.0
C2528 C 0.05605 0.49492 0.48295 0.0
C2529 C 0.05902 0.47435 0.49409 0.0
C2530 C 0.06579 0.47711 0.51946 0.0
C2531 C 0.06933 0.4995 0.53321 0.0
H2532 H 0.49844 0.32243 0.14344 0.0
H2533 H 0.54588 0.36467 0.20331 0.0
H2534 H 0.46989 0.32828 0.16448 0.0
H2535 H 0.51719 0.37039 0.22446 0.0
H2536 H 0.45903 0.3991 0.23925 0.0
H2537 H 0.48802 0.39202 0.21958 0.0
H2538 H 0.45459 0.31704 0.20061 0.0
H2539 H 0.42576 0.32392 0.22072 0.0
C2540 C 0.5028 0.33285 0.16116 0.0
C2541 C 0.52448 0.34311 0.17165 0.0
C2542 C 0.4864 0.3361 0.17328 0.0
C2543 C 0.49124 0.34985 0.19613 0.0
C2544 C 0.51292 0.35992 0.20676 0.0
C2545 C 0.52936 0.3565 0.1947 0.0
C2546 C 0.45791 0.38099 0.23114 0.0
C2547 C 0.43995 0.36208 0.23164 0.0
C2548 C 0.47459 0.377 0.21986 0.0
C2549 C 0.47367 0.35397 0.20856 0.0
C2550 C 0.45569 0.33508 0.2089 0.0
C2551 C 0.43907 0.33903 0.22035 0.0
H2552 H 0.66875 0.57765 0.42548 0.0
H2553 H 0.65881 0.64839 0.44316 0.0
H2554 H 0.63478 0.55912 0.43676 0.0
H2555 H 0.6252 0.62984 0.45522 0.0
H2556 H 0.55762 0.59557 0.45108 0.0
H2557 H 0.59007 0.60742 0.43428 0.0
H2558 H 0.61577 0.55347 0.47044 0.0
H2559 H 0.58265 0.541 0.48629 0.0
C2560 C 0.65952 0.58928 0.4322 0.0
C2561 C 0.66634 0.61453 0.43317 0.0
C2562 C 0.64003 0.57861 0.43863 0.0
C2563 C 0.62705 0.59298 0.44626 0.0
C2564 C 0.63451 0.61824 0.44859 0.0
C2565 C 0.65391 0.62891 0.442 0.0
C2566 C 0.56979 0.58547 0.45433 0.0
C2567 C 0.56772 0.56726 0.4696 0.0
C2568 C 0.58854 0.59257 0.44521 0.0
C2569 C 0.60574 0.58192 0.45173 0.0
C2570 C 0.6028 0.56204 0.46512 0.0
C2571 C 0.5838 0.55469 0.47399 0.0
H2572 H 0.36963 0.9174 0.11483 0.0
H2573 H 0.30128 0.91086 0.09767 0.0
H2574 H 0.3655 0.90011 0.15265 0.0
H2575 H 0.29718 0.89352 0.13549 0.0
H2576 H 0.2962 0.83887 0.19164 0.0
H2577 H 0.30076 0.85601 0.15397 0.0
H2578 H 0.35556 0.91088 0.19259 0.0
H2579 H 0.35106 0.89375 0.23045 0.0
C2580 C 0.3537 0.91219 0.11905 0.0
C2581 C 0.33577 0.91547 0.10312 0.0
C2582 C 0.35137 0.90244 0.14084 0.0
C2583 C 0.33102 0.89543 0.14713 0.0
C2584 C 0.31306 0.89852 0.1311 0.0
C2585 C 0.31542 0.90855 0.10945 0.0
C2586 C 0.30932 0.85452 0.19218 0.0
C2587 C 0.32331 0.86484 0.21418 0.0
C2588 C 0.31182 0.86446 0.17054 0.0
C2589 C 0.32849 0.88485 0.17023 0.0
C2590 C 0.34265 0.89505 0.19215 0.0
C2591 C 0.34001 0.88526 0.21389 0.0
H2592 H 1.00727 0.69288 0.90454 0.0
H2593 H 1.01044 0.63055 0.85837 0.0
H2594 H 0.02614 0.67817 0.9394 0.0
H2595 H 0.02923 0.61611 0.89303 0.0
H2596 H 0.08006 0.65259 0.98864 0.0
H2597 H 0.06267 0.66951 0.9544 0.0
H2598 H 0.01791 0.60028 0.93065 0.0
H2599 H 0.03534 0.58337 0.96464 0.0
C2600 C 1.01216 0.67621 0.9018 0.0
C2601 C 1.00727 0.66279 0.87878 0.0
C2602 C 0.02298 0.66787 0.92169 0.0
C2603 C 0.02889 0.64593 0.91884 0.0
C2604 C 0.02452 0.63289 0.89573 0.0
C2605 C 1.01387 0.64127 0.87589 0.0
C2606 C 0.06653 0.64105 0.97603 0.0
C2607 C 0.05905 0.6167 0.97908 0.0
C2608 C 0.05653 0.65075 0.95661 0.0
C2609 C 0.03908 0.63613 0.93991 0.0
C2610 C 0.03153 0.61183 0.94314 0.0
C2611 C 0.04142 0.6022 0.96259 0.0
H2612 H 0.28553 0.23605 0.59233 0.0
H2613 H 0.31693 0.30836 0.58146 0.0
H2614 H 0.2873 0.24946 0.63488 0.0
H2615 H 0.31845 0.32184 0.62407 0.0
H2616 H 0.33817 0.33084 0.70703 0.0
H2617 H 0.3365 0.3172 0.66459 0.0
H2618 H 0.27176 0.27467 0.66024 0.0
H2619 H 0.27348 0.28805 0.70289 0.0
C2620 C 0.29282 0.25483 0.599 0.0
C2621 C 0.30114 0.27112 0.58344 0.0
C2622 C 0.29369 0.26255 0.62339 0.0
C2623 C 0.30298 0.28673 0.63292 0.0
C2624 C 0.31138 0.30302 0.61739 0.0
C2625 C 0.31042 0.29532 0.59293 0.0
C2626 C 0.32357 0.31851 0.69711 0.0
C2627 C 0.30597 0.31051 0.70847 0.0
C2628 C 0.32258 0.31083 0.67267 0.0
C2629 C 0.30399 0.29489 0.65896 0.0
C2630 C 0.28642 0.28676 0.67034 0.0
C2631 C 0.28737 0.29452 0.69478 0.0
H2632 H 0.62931 0.60019 0.33714 0.0
H2633 H 0.68783 0.60359 0.3094 0.0
H2634 H 0.60914 0.59545 0.29562 0.0
H2635 H 0.66778 0.5991 0.26819 0.0
H2636 H 0.6255 0.57406 0.19596 0.0
H2637 H 0.64 0.5701 0.23792 0.0
H2638 H 0.60798 0.62264 0.26302 0.0
H2639 H 0.59351 0.62662 0.22109 0.0
C2640 C 0.63782 0.59973 0.32221 0.0
C2641 C 0.66016 0.60242 0.32651 0.0
C2642 C 0.62629 0.59709 0.2985 0.0
C2643 C 0.63689 0.59685 0.27872 0.0
C2644 C 0.65912 0.59886 0.28306 0.0
C2645 C 0.67064 0.60166 0.30669 0.0
C2646 C 0.62139 0.58458 0.21049 0.0
C2647 C 0.60863 0.6009 0.20531 0.0
C2648 C 0.62967 0.58227 0.23444 0.0
C2649 C 0.62531 0.59626 0.25367 0.0
C2650 C 0.61146 0.61147 0.24853 0.0
C2651 C 0.60317 0.61379 0.22455 0.0
H2652 H 0.29396 0.90063 0.97001 0.0
H2653 H 0.35639 0.93654 0.95736 0.0
H2654 H 0.28592 0.87798 0.92967 0.0
H2655 H 0.34888 0.91334 0.91774 0.0
H2656 H 0.32475 0.8845 0.83924 0.0
H2657 H 0.32984 0.90855 0.8783 0.0
H2658 H 0.29325 0.84692 0.90564 0.0
H2659 H 0.2869 0.82377 0.86587 0.0
C2660 C 0.30606 0.9035 0.95873 0.0
C2661 C 0.3258 0.92046 0.96695 0.0
C2662 C 0.3015 0.89044 0.93557 0.0
C2663 C 0.31667 0.8938 0.92014 0.0
C2664 C 0.33652 0.91055 0.92865 0.0
C2665 C 0.34095 0.92376 0.9516 0.0
C2666 C 0.31731 0.87644 0.8534 0.0
C2667 C 0.30506 0.85251 0.84929 0.0
C2668 C 0.32056 0.89001 0.87605 0.0
C2669 C 0.31208 0.87976 0.89546 0.0
C2670 C 0.29976 0.85571 0.89121 0.0
C2671 C 0.29625 0.84231 0.86841 0.0
H2672 H 0.9822 0.69607 0.75705 0.0
H2673 H 0.04373 0.70341 0.80356 0.0
H2674 H 0.99702 0.68555 0.72197 0.0
H2675 H 0.05843 0.69211 0.7685 0.0
H2676 H 0.08124 0.68092 0.69727 0.0
H2677 H 0.06824 0.7011 0.72949 0.0
H2678 H 1.00685 0.6491 0.70976 0.0
H2679 H 0.01972 0.62923 0.67775 0.0
C2680 C 0.99898 0.69571 0.75972 0.0
C2681 C 1.01176 0.70021 0.78304 0.0
C2682 C 1.00744 0.68958 0.73965 0.0
C2683 C 0.02877 0.68755 0.74254 0.0
C2684 C 0.04196 0.69364 0.76567 0.0
C2685 C 0.03353 0.70003 0.78576 0.0
C2686 C 0.06497 0.67395 0.69985 0.0
C2687 C 0.05147 0.65359 0.68499 0.0
C2688 C 0.05751 0.68546 0.71822 0.0
C2689 C 0.03647 0.67679 0.72204 0.0
C2690 C 0.02295 0.6566 0.70693 0.0
C2691 C 0.03037 0.64518 0.68861 0.0
H2692 H 0.31696 0.2735 0.46636 0.0
H2693 H 0.25007 0.25655 0.43207 0.0
H2694 H 0.32646 0.29554 0.43278 0.0
H2695 H 0.25944 0.27925 0.39887 0.0
H2696 H 0.28646 0.29615 0.32998 0.0
H2697 H 0.27576 0.27657 0.3645 0.0
H2698 H 0.32541 0.33044 0.41298 0.0
H2699 H 0.33616 0.3496 0.37812 0.0
C2700 C 0.30423 0.27476 0.45183 0.0
C2701 C 0.28275 0.26313 0.45193 0.0
C2702 C 0.30967 0.28754 0.43256 0.0
C2703 C 0.29376 0.2892 0.4129 0.0
C2704 C 0.27221 0.27805 0.41337 0.0
C2705 C 0.2668 0.26514 0.43255 0.0
C2706 C 0.29476 0.304 0.348 0.0
C2707 C 0.31191 0.32452 0.35129 0.0
C2708 C 0.28868 0.29279 0.36791 0.0
C2709 C 0.29967 0.30184 0.39173 0.0
C2710 C 0.31672 0.32267 0.39497 0.0
C2711 C 0.32281 0.33379 0.375 0.0
H2712 H 0.34519 0.67694 0.54943 0.0
H2713 H 0.34739 0.68113 0.47352 0.0
H2714 H 0.37285 0.65435 0.55252 0.0
H2715 H 0.37482 0.65829 0.47657 0.0
H2716 H 0.44031 0.64057 0.49827 0.0
H2717 H 0.41252 0.66292 0.49514 0.0
H2718 H 0.37807 0.61495 0.53876 0.0
H2719 H 0.40566 0.59238 0.54165 0.0
C2720 C 0.3515 0.67298 0.53338 0.0
C2721 C 0.34405 0.6809 0.51123 0.0
C2722 C 0.36729 0.65991 0.53512 0.0
C2723 C 0.3761 0.65451 0.5148 0.0
C2724 C 0.36861 0.6624 0.49266 0.0
C2725 C 0.35276 0.67538 0.49089 0.0
C2726 C 0.42668 0.63457 0.50699 0.0
C2727 C 0.42529 0.61458 0.52021 0.0
C2728 C 0.41077 0.64746 0.50519 0.0
C2729 C 0.39305 0.64076 0.51669 0.0
C2730 C 0.39166 0.62084 0.52996 0.0
C2731 C 0.40752 0.60787 0.53167 0.0
H2732 H 0.92046 0.96383 0.58046 0.0
H2733 H 0.88534 0.01107 0.54513 0.0
H2734 H 0.95407 0.9901 0.57511 0.0
H2735 H 0.91908 0.03729 0.53957 0.0
H2736 H 0.98663 0.09091 0.55999 0.0
H2737 H 0.9519 0.06516 0.56319 0.0
H2738 H 0.97347 1.00214 0.54246 0.0
H2739 H 1.00823 0.02787 0.53951 0.0
C2740 C 0.91988 0.97985 0.57159 0.0
C2741 C 0.90015 0.98531 0.56325 0.0
C2742 C 0.93918 0.99482 0.56833 0.0
C2743 C 0.93929 0.01573 0.55675 0.0
C2744 C 0.91959 0.02141 0.5487 0.0
C2745 C 0.90024 1.00634 0.55184 0.0
C2746 C 0.98386 0.07156 0.5559 0.0
C2747 C 1.0002 0.0614 0.54965 0.0
C2748 C 0.96394 0.05681 0.55766 0.0
C2749 C 0.95995 0.03156 0.55331 0.0
C2750 C 0.97612 0.02149 0.54634 0.0
C2751 C 0.99599 0.03624 0.54447 0.0
H2752 H 0.85419 0.0879 0.18793 0.0
H2753 H 0.9012 0.14188 0.16284 0.0
H2754 H 0.83215 0.11651 0.19116 0.0
H2755 H 0.87893 0.17046 0.1659 0.0
H2756 H 0.85523 0.21683 0.22345 0.0
H2757 H 0.87266 0.18934 0.20477 0.0
H2758 H 0.81084 0.14341 0.17075 0.0
H2759 H 0.79312 0.17149 0.189 0.0
C2760 C 0.85957 0.1057 0.18256 0.0
C2761 C 0.87962 0.11283 0.17563 0.0
C2762 C 0.84684 0.12201 0.1842 0.0
C2763 C 0.85397 0.14575 0.179 0.0
C2764 C 0.87321 0.15231 0.17025 0.0
C2765 C 0.88592 0.13594 0.16849 0.0
C2766 C 0.84525 0.20134 0.21134 0.0
C2767 C 0.82273 0.19632 0.20782 0.0
C2768 C 0.85531 0.18557 0.20062 0.0
C2769 C 0.84309 0.16428 0.18631 0.0
C2770 C 0.8206 0.15968 0.18185 0.0
C2771 C 0.81048 0.17564 0.19241 0.0
H2772 H 0.72296 0.21779 0.04637 0.0
H2773 H 0.73887 0.15719 0.00991 0.0
H2774 H 0.68726 0.19309 0.04644 0.0
H2775 H 0.70274 0.13234 0.00992 0.0
H2776 H 0.62603 0.10776 0.99495 0.0
H2777 H 0.66236 0.13019 0.99226 0.0
H2778 H 0.67371 0.15727 0.0681 0.0
H2779 H 0.63788 0.13513 0.07095 0.0
C2780 C 0.71883 0.19921 0.03824 0.0
C2781 C 0.73386 0.18945 0.02826 0.0
C2782 C 0.69836 0.18502 0.03838 0.0
C2783 C 0.69225 0.16074 0.02834 0.0
C2784 C 0.707 0.15104 0.01772 0.0
C2785 C 0.72769 0.16522 0.01784 0.0
C2786 C 0.63634 0.11839 0.01106 0.0
C2787 C 0.62891 0.1197 0.03312 0.0
C2788 C 0.65715 0.13113 0.00953 0.0
C2789 C 0.67077 0.14566 0.02992 0.0
C2790 C 0.66348 0.1465 0.052 0.0
C2791 C 0.64291 0.13366 0.05361 0.0
H2792 H 0.19269 0.45105 0.28314 0.0
H2793 H 0.21992 0.45878 0.2184 0.0
H2794 H 0.22259 0.43599 0.30203 0.0
H2795 H 0.24934 0.44219 0.23669 0.0
H2796 H 0.30396 0.4181 0.27534 0.0
H2797 H 0.28074 0.44552 0.26672 0.0
H2798 H 0.23162 0.39925 0.29679 0.0
H2799 H 0.25496 0.37284 0.30637 0.0
C2800 C 0.20503 0.44926 0.27287 0.0
C2801 C 0.20386 0.45551 0.24914 0.0
C2802 C 0.22218 0.44069 0.28371 0.0
C2803 C 0.23823 0.43757 0.27079 0.0
C2804 C 0.23741 0.44466 0.24729 0.0
C2805 C 0.22045 0.45383 0.23665 0.0
C2806 C 0.28847 0.4143 0.28083 0.0
C2807 C 0.2811 0.39308 0.29108 0.0
C2808 C 0.27509 0.42984 0.27563 0.0
C2809 C 0.25417 0.42433 0.28059 0.0
C2810 C 0.24765 0.40422 0.29281 0.0
C2811 C 0.26102 0.38888 0.29814 0.0
H2812 H 0.2525 0.4406 0.06174 0.0
H2813 H 0.29751 0.50739 0.05657 0.0
H2814 H 0.2243 0.46187 0.06255 0.0
H2815 H 0.26905 0.52868 0.05683 0.0
H2816 H 0.21813 0.5628 0.08215 0.0
H2817 H 0.2466 0.54163 0.0827 0.0
H2818 H 0.20216 0.48144 0.03641 0.0
H2819 H 0.17367 0.50263 0.03587 0.0
C2820 C 0.25639 0.45984 0.0607 0.0
C2821 C 0.27731 0.47226 0.05905 0.0
C2822 C 0.24014 0.47203 0.06101 0.0
C2823 C 0.2443 0.497 0.05963 0.0
C2824 C 0.26529 0.50949 0.0582 0.0
C2825 C 0.2816 0.49727 0.05793 0.0
C2826 C 0.21443 0.54508 0.07196 0.0
C2827 C 0.19356 0.53447 0.0589 0.0
C2828 C 0.23081 0.53297 0.07226 0.0
C2829 C 0.22677 0.50984 0.05954 0.0
C2830 C 0.20583 0.4991 0.04671 0.0
C2831 C 0.18944 0.51123 0.04641 0.0
H2832 H 0.86658 0.96706 0.16696 0.0
H2833 H 0.88815 1.0049 0.23939 0.0
H2834 H 0.84856 0.93152 0.18364 0.0
H2835 H 0.8696 0.97001 0.25585 0.0
H2836 H 0.84844 0.89804 0.28198 0.0
H2837 H 0.86965 0.93019 0.26379 0.0
H2838 H 0.81789 0.91862 0.20177 0.0
H2839 H 0.79731 0.88558 0.21942 0.0
C2840 C 0.86747 0.96779 0.1864 0.0
C2841 C 0.87873 0.98879 0.20183 0.0
C2842 C 0.85706 0.9475 0.19596 0.0
C2843 C 0.85758 0.94791 0.2211 0.0
C2844 C 0.86915 0.96885 0.23647 0.0
C2845 C 0.87968 0.98897 0.22697 0.0
C2846 C 0.84177 0.9022 0.26432 0.0
C2847 C 0.82132 0.88931 0.25205 0.0
C2848 C 0.85381 0.92075 0.25398 0.0
C2849 C 0.84546 0.92706 0.23132 0.0
C2850 C 0.82498 0.91401 0.21904 0.0
C2851 C 0.81307 0.89526 0.22926 0.0
H2852 H 0.68813 0.04738 0.73205 0.0
H2853 H 0.65763 0.06831 0.78998 0.0
H2854 H 0.70961 0.08832 0.73492 0.0
H2855 H 0.67989 0.10942 0.79354 0.0
H2856 H 0.70257 0.18468 0.76878 0.0
H2857 H 0.68311 0.14354 0.77135 0.0
H2858 H 0.7384 0.11791 0.75916 0.0
H2859 H 0.75747 0.15907 0.75565 0.0
C2860 C 0.68622 0.0607 0.74565 0.0
C2861 C 0.67112 0.05467 0.76073 0.0
C2862 C 0.6987 0.08418 0.74744 0.0
C2863 C 0.69658 0.10217 0.76455 0.0
C2864 C 0.68173 0.09604 0.77996 0.0
C2865 C 0.66903 0.07251 0.77799 0.0
C2866 C 0.7106 0.17021 0.76693 0.0
C2867 C 0.7314 0.17489 0.76181 0.0
C2868 C 0.69949 0.14668 0.76854 0.0
C2869 C 0.70912 0.12739 0.7653 0.0
C2870 C 0.73033 0.1323 0.76121 0.0
C2871 C 0.74132 0.1558 0.75927 0.0
loop_
_geom_bond_atom_site_label_1
_geom_bond_atom_site_label_2
_geom_bond_distance
_geom_bond_site_symmetry_2
_ccdc_geom_bond_type
C0 O1 1.160 . S
C0 O7 1.185 . S
O1 C0 1.160 . S
O2 Zn3 1.899 . S
O2 C10 1.284 . S
Zn3 O2 1.899 . S
Zn3 O4 2.032 . S
Zn3 O7 2.086 . S
Zn3 O12 1.977 1_455 S
O4 Zn3 2.032 . S
O4 C8 1.278 . S
C5 O6 1.203 . S
C5 O12 1.267 . S
O6 C5 1.203 . S
O7 C0 1.185 . S
O7 Zn3 2.086 . S
C8 O4 1.278 . S
C8 O9 1.211 1_455 S
O9 C8 1.211 1_655 S
C10 O2 1.284 . S
C10 O11 1.273 . S
O11 C10 1.273 . S
O12 Zn3 1.977 1_655 S
O12 C5 1.267 . S
C13 O14 1.160 . S
C13 O20 1.185 . S
O14 C13 1.160 . S
O15 Zn16 1.899 . S
O15 C23 1.284 . S
Zn16 O15 1.899 . S
Zn16 O17 2.032 . S
Zn16 O20 2.086 . S
Zn16 O25 1.977 . S
O17 Zn16 2.032 . S
O17 C21 1.278 . S
C18 O19 1.203 . S
C18 O25 1.267 . S
O19 C18 1.203 . S
O20 C13 1.185 . S
O20 Zn16 2.086 . S
C21 O17 1.278 . S
C21 O22 1.211 . S
O22 C21 1.211 . S
C23 O15 1.284 . S
C23 O24 1.273 . S
O24 C23 1.273 . S
O25 Zn16 1.977 . S
O25 C18 1.267 . S
C26 O27 1.160 . S
C26 O33 1.185 . S
O27 C26 1.160 . S
O28 Zn29 1.899 . S
O28 C36 1.284 . S
Zn29 O28 1.899 . S
Zn29 O30 2.032 . S
Zn29 O33 2.086 . S
Zn29 O38 1.977 . S
O30 Zn29 2.032 . S
O30 C34 1.278 . S
C31 O32 1.203 . S
C31 O38 1.267 . S
O32 C31 1.203 . S
O33 C26 1.185 . S
O33 Zn29 2.086 . S
C34 O30 1.278 . S
C34 O35 1.211 . S
O35 C34 1.211 . S
C36 O28 1.284 . S
C36 O37 1.273 . S
O37 C36 1.273 . S
O38 Zn29 1.977 . S
O38 C31 1.267 . S
C39 O40 1.160 . S
C39 O46 1.185 . S
O40 C39 1.160 . S
O41 Zn42 1.899 . S
O41 C49 1.284 . S
Zn42 O41 1.899 . S
Zn42 O43 2.032 . S
Zn42 O46 2.086 . S
Zn42 O51 1.977 . S
O43 Zn42 2.032 . S
O43 C47 1.278 . S
C44 O45 1.203 . S
C44 O51 1.267 . S
O45 C44 1.203 . S
O46 C39 1.185 . S
O46 Zn42 2.086 . S
C47 O43 1.278 . S
C47 O48 1.211 . S
O48 C47 1.211 . S
C49 O41 1.284 . S
C49 O50 1.273 . S
O50 C49 1.273 . S
O51 Zn42 1.977 . S
O51 C44 1.267 . S
C52 O53 1.160 . S
C52 O59 1.185 . S
O53 C52 1.160 . S
O54 Zn55 1.899 . S
O54 C62 1.284 . S
Zn55 O54 1.899 . S
Zn55 O56 2.032 . S
Zn55 O59 2.086 . S
Zn55 O64 1.977 . S
O56 Zn55 2.032 . S
O56 C60 1.278 . S
C57 O58 1.203 . S
C57 O64 1.267 . S
O58 C57 1.203 . S
O59 C52 1.185 . S
O59 Zn55 2.086 . S
C60 O56 1.278 . S
C60 O61 1.211 . S
O61 C60 1.211 . S
C62 O54 1.284 . S
C62 O63 1.273 . S
O63 C62 1.273 . S
O64 Zn55 1.977 . S
O64 C57 1.267 . S
C65 O66 1.160 . S
C65 O72 1.185 . S
O66 C65 1.160 . S
O67 Zn68 1.899 . S
O67 C75 1.284 . S
Zn68 O67 1.899 . S
Zn68 O69 2.032 . S
Zn68 O72 2.086 . S
Zn68 O77 1.977 . S
O69 Zn68 2.032 . S
O69 C73 1.278 . S
C70 O71 1.203 . S
C70 O77 1.267 . S
O71 C70 1.203 . S
O72 C65 1.185 . S
O72 Zn68 2.086 . S
C73 O69 1.278 . S
C73 O74 1.211 . S
O74 C73 1.211 . S
C75 O67 1.284 . S
C75 O76 1.273 . S
O76 C75 1.273 . S
O77 Zn68 1.977 . S
O77 C70 1.267 . S
C78 O79 1.160 . S
C78 O85 1.185 . S
O79 C78 1.160 . S
O80 Zn81 1.899 . S
O80 C88 1.284 . S
Zn81 O80 1.899 . S
Zn81 O82 2.032 . S
Zn81 O85 2.086 . S
Zn81 O90 1.977 . S
O82 Zn81 2.032 . S
O82 C86 1.278 . S
C83 O84 1.203 . S
C83 O90 1.267 . S
O84 C83 1.203 . S
O85 C78 1.185 . S
O85 Zn81 2.086 . S
C86 O82 1.278 . S
C86 O87 1.211 . S
O87 C86 1.211 . S
C88 O80 1.284 . S
C88 O89 1.273 . S
O89 C88 1.273 . S
O90 Zn81 1.977 . S
O90 C83 1.267 . S
C91 O92 1.160 . S
C91 O98 1.185 . S
O92 C91 1.160 . S
O93 Zn94 1.899 . S
O93 C101 1.284 . S
Zn94 O93 1.899 . S
Zn94 O95 2.032 . S
Zn94 O98 2.086 . S
Zn94 O103 1.977 1_455 S
O95 Zn94 2.032 . S
O95 C99 1.278 . S
C96 O97 1.203 . S
C96 O103 1.267 . S
O97 C96 1.203 . S
O98 C91 1.185 . S
O98 Zn94 2.086 . S
C99 O95 1.278 . S
C99 O100 1.211 . S
O100 C99 1.211 . S
C101 O93 1.284 . S
C101 O102 1.273 . S
O102 C101 1.273 . S
O103 Zn94 1.977 1_655 S
O103 C96 1.267 . S
C104 O105 1.160 . S
C104 O111 1.185 . S
O105 C104 1.160 . S
O106 Zn107 1.899 . S
O106 C114 1.284 . S
Zn107 O106 1.899 . S
Zn107 O108 2.032 . S
Zn107 O111 2.086 . S
Zn107 O116 1.977 . S
O108 Zn107 2.032 . S
O108 C112 1.278 . S
C109 O110 1.203 . S
C109 O116 1.267 . S
O110 C109 1.203 . S
O111 C104 1.185 . S
O111 Zn107 2.086 . S
C112 O108 1.278 . S
C112 O113 1.211 . S
O113 C112 1.211 . S
C114 O106 1.284 . S
C114 O115 1.273 . S
O115 C114 1.273 . S
O116 Zn107 1.977 . S
O116 C109 1.267 . S
C117 O118 1.160 . S
C117 O124 1.185 . S
O118 C117 1.160 . S
O119 Zn120 1.899 . S
O119 C127 1.284 . S
Zn120 O119 1.899 . S
Zn120 O121 2.032 . S
Zn120 O124 2.086 . S
Zn120 O129 1.977 . S
O121 Zn120 2.032 . S
O121 C125 1.278 . S
C122 O123 1.203 . S
C122 O129 1.267 . S
O123 C122 1.203 . S
O124 C117 1.185 . S
O124 Zn120 2.086 . S
C125 O121 1.278 . S
C125 O126 1.211 . S
O126 C125 1.211 . S
C127 O119 1.284 . S
C127 O128 1.273 . S
O128 C127 1.273 . S
O129 Zn120 1.977 . S
O129 C122 1.267 . S
C130 O131 1.160 . S
C130 O137 1.185 . S
O131 C130 1.160 . S
O132 Zn133 1.899 . S
O132 C140 1.284 . S
Zn133 O132 1.899 . S
Zn133 O134 2.032 . S
Zn133 O137 2.086 . S
Zn133 O142 1.977 . S
O134 Zn133 2.032 . S
O134 C138 1.278 . S
C135 O136 1.203 . S
C135 O142 1.267 . S
O136 C135 1.203 . S
O137 C130 1.185 . S
O137 Zn133 2.086 . S
C138 O134 1.278 . S
C138 O139 1.211 . S
O139 C138 1.211 . S
C140 O132 1.284 . S
C140 O141 1.273 . S
O141 C140 1.273 . S
O142 Zn133 1.977 . S
O142 C135 1.267 . S
C143 O144 1.160 . S
C143 O150 1.185 . S
O144 C143 1.160 . S
O145 Zn146 1.899 . S
O145 C153 1.284 . S
Zn146 O145 1.899 . S
Zn146 O147 2.032 . S
Zn146 O150 2.086 . S
Zn146 O155 1.977 . S
O147 Zn146 2.032 . S
O147 C151 1.278 . S
C148 O149 1.203 . S
C148 O155 1.267 . S
O149 C148 1.203 . S
O150 C143 1.185 . S
O150 Zn146 2.086 . S
C151 O147 1.278 . S
C151 O152 1.211 . S
O152 C151 1.211 . S
C153 O145 1.284 . S
C153 O154 1.273 . S
O154 C153 1.273 . S
O155 Zn146 1.977 . S
O155 C148 1.267 . S
C156 O157 1.160 . S
C156 O163 1.185 . S
O157 C156 1.160 . S
O158 Zn159 1.899 . S
O158 C166 1.284 . S
Zn159 O158 1.899 . S
Zn159 O160 2.032 . S
Zn159 O163 2.086 . S
Zn159 O168 1.977 . S
O160 Zn159 2.032 . S
O160 C164 1.278 1_554 S
C161 O162 1.203 . S
C161 O168 1.267 . S
O162 C161 1.203 . S
O163 C156 1.185 . S
O163 Zn159 2.086 . S
C164 O160 1.278 1_556 S
C164 O165 1.211 . S
O165 C164 1.211 . S
C166 O158 1.284 . S
C166 O167 1.273 . S
O167 C166 1.273 . S
O168 Zn159 1.977 . S
O168 C161 1.267 . S
C169 O170 1.160 . S
C169 O176 1.185 1_554 S
O170 C169 1.160 . S
O171 Zn172 1.899 . S
O171 C179 1.284 . S
Zn172 O171 1.899 . S
Zn172 O173 2.032 1_554 S
Zn172 O176 2.086 1_554 S
Zn172 O181 1.977 1_554 S
O173 Zn172 2.032 1_556 S
O173 C177 1.278 . S
C174 O175 1.203 1_556 S
C174 O181 1.267 . S
O175 C174 1.203 1_554 S
O176 C169 1.185 1_556 S
O176 Zn172 2.086 1_556 S
C177 O173 1.278 . S
C177 O178 1.211 . S
O178 C177 1.211 . S
C179 O171 1.284 . S
C179 O180 1.273 . S
O180 C179 1.273 . S
O181 Zn172 1.977 1_556 S
O181 C174 1.267 . S
C182 O183 1.160 . S
C182 O189 1.185 . S
O183 C182 1.160 . S
O184 Zn185 1.899 . S
O184 C192 1.284 . S
Zn185 O184 1.899 . S
Zn185 O186 2.032 . S
Zn185 O189 2.086 . S
Zn185 O194 1.977 . S
O186 Zn185 2.032 . S
O186 C190 1.278 . S
C187 O188 1.203 . S
C187 O194 1.267 . S
O188 C187 1.203 . S
O189 C182 1.185 . S
O189 Zn185 2.086 . S
C190 O186 1.278 . S
C190 O191 1.211 . S
O191 C190 1.211 . S
C192 O184 1.284 . S
C192 O193 1.273 . S
O193 C192 1.273 . S
O194 Zn185 1.977 . S
O194 C187 1.267 . S
C195 O196 1.160 . S
C195 O202 1.185 . S
O196 C195 1.160 . S
O197 Zn198 1.899 . S
O197 C205 1.284 . S
Zn198 O197 1.899 . S
Zn198 O199 2.032 . S
Zn198 O202 2.086 . S
Zn198 O207 1.977 . S
O199 Zn198 2.032 . S
O199 C203 1.278 . S
C200 O201 1.203 . S
C200 O207 1.267 . S
O201 C200 1.203 . S
O202 C195 1.185 . S
O202 Zn198 2.086 . S
C203 O199 1.278 . S
C203 O204 1.211 . S
O204 C203 1.211 . S
C205 O197 1.284 . S
C205 O206 1.273 . S
O206 C205 1.273 . S
O207 Zn198 1.977 . S
O207 C200 1.267 . S
C208 O209 1.160 . S
C208 O215 1.185 . S
O209 C208 1.160 . S
O210 Zn211 1.899 . S
O210 C218 1.284 . S
Zn211 O210 1.899 . S
Zn211 O212 2.032 . S
Zn211 O215 2.086 . S
Zn211 O220 1.977 . S
O212 Zn211 2.032 . S
O212 C216 1.278 . S
C213 O214 1.203 . S
C213 O220 1.267 1_565 S
O214 C213 1.203 . S
O215 C208 1.185 . S
O215 Zn211 2.086 . S
C216 O212 1.278 . S
C216 O217 1.211 . S
O217 C216 1.211 . S
C218 O210 1.284 . S
C218 O219 1.273 . S
O219 C218 1.273 . S
O220 Zn211 1.977 . S
O220 C213 1.267 1_545 S
C221 O222 1.160 . S
C221 O228 1.185 . S
O222 C221 1.160 . S
O223 Zn224 1.899 . S
O223 C231 1.284 . S
Zn224 O223 1.899 . S
Zn224 O225 2.032 . S
Zn224 O228 2.086 . S
Zn224 O233 1.977 . S
O225 Zn224 2.032 . S
O225 C229 1.278 . S
C226 O227 1.203 . S
C226 O233 1.267 . S
O227 C226 1.203 . S
O228 C221 1.185 . S
O228 Zn224 2.086 . S
C229 O225 1.278 . S
C229 O230 1.211 . S
O230 C229 1.211 . S
C231 O223 1.284 . S
C231 O232 1.273 . S
O232 C231 1.273 . S
O233 Zn224 1.977 . S
O233 C226 1.267 . S
C234 O235 1.160 . S
C234 O241 1.185 . S
O235 C234 1.160 . S
O236 Zn237 1.899 . S
O236 C244 1.284 . S
Zn237 O236 1.899 . S
Zn237 O238 2.032 . S
Zn237 O241 2.086 . S
Zn237 O246 1.977 . S
O238 Zn237 2.032 . S
O238 C242 1.278 . S
C239 O240 1.203 . S
C239 O246 1.267 . S
O240 C239 1.203 . S
O241 C234 1.185 . S
O241 Zn237 2.086 . S
C242 O238 1.278 . S
C242 O243 1.211 . S
O243 C242 1.211 . S
C244 O236 1.284 . S
C244 O245 1.273 . S
O245 C244 1.273 . S
O246 Zn237 1.977 . S
O246 C239 1.267 . S
C247 O248 1.160 . S
C247 O254 1.185 . S
O248 C247 1.160 . S
O249 Zn250 1.899 . S
O249 C257 1.284 . S
Zn250 O249 1.899 . S
Zn250 O251 2.034 . S
Zn250 O254 2.094 . S
Zn250 O259 1.971 1_565 S
O251 Zn250 2.034 . S
O251 C255 1.278 1_565 S
C252 O253 1.203 . S
C252 O259 1.267 . S
O253 C252 1.203 . S
O254 C247 1.185 . S
O254 Zn250 2.094 . S
C255 O251 1.278 1_545 S
C255 O256 1.211 . S
O256 C255 1.211 . S
C257 O249 1.284 . S
C257 O258 1.273 1_565 S
O258 C257 1.273 1_545 S
O259 Zn250 1.971 1_545 S
O259 C252 1.267 . S
C260 O261 1.160 . S
C260 O267 1.185 . S
O261 C260 1.160 . S
O262 Zn263 1.899 . S
O262 C270 1.284 . S
Zn263 O262 1.899 . S
Zn263 O264 2.032 1_554 S
Zn263 O267 2.086 . S
Zn263 O272 1.977 . S
O264 Zn263 2.032 1_556 S
O264 C268 1.278 . S
C265 O266 1.203 . S
C265 O272 1.267 . S
O266 C265 1.203 . S
O267 C260 1.185 . S
O267 Zn263 2.086 . S
C268 O264 1.278 . S
C268 O269 1.211 . S
O269 C268 1.211 . S
C270 O262 1.284 . S
C270 O271 1.273 . S
O271 C270 1.273 . S
O272 Zn263 1.977 . S
O272 C265 1.267 . S
C273 O274 1.160 . S
C273 O280 1.185 . S
O274 C273 1.160 . S
O275 Zn276 1.899 . S
O275 C283 1.284 . S
Zn276 O275 1.899 . S
Zn276 O277 2.032 . S
Zn276 O280 2.086 . S
Zn276 O285 1.977 . S
O277 Zn276 2.032 . S
O277 C281 1.278 . S
C278 O279 1.203 . S
C278 O285 1.267 . S
O279 C278 1.203 . S
O280 C273 1.185 . S
O280 Zn276 2.086 . S
C281 O277 1.278 . S
C281 O282 1.211 . S
O282 C281 1.211 . S
C283 O275 1.284 . S
C283 O284 1.273 . S
O284 C283 1.273 . S
O285 Zn276 1.977 . S
O285 C278 1.267 . S
C286 O287 1.160 . S
C286 O293 1.185 . S
O287 C286 1.160 . S
O288 Zn289 1.899 . S
O288 C296 1.284 . S
Zn289 O288 1.899 . S
Zn289 O290 2.032 . S
Zn289 O293 2.086 . S
Zn289 O298 1.977 . S
O290 Zn289 2.032 . S
O290 C294 1.278 . S
C291 O292 1.203 . S
C291 O298 1.267 . S
O292 C291 1.203 . S
O293 C286 1.185 . S
O293 Zn289 2.086 . S
C294 O290 1.278 . S
C294 O295 1.211 . S
O295 C294 1.211 . S
C296 O288 1.284 . S
C296 O297 1.273 . S
O297 C296 1.273 . S
O298 Zn289 1.977 . S
O298 C291 1.267 . S
C299 O300 1.160 . S
C299 O306 1.185 . S
O300 C299 1.160 . S
O301 Zn302 1.899 . S
O301 C309 1.284 . S
Zn302 O301 1.899 . S
Zn302 O303 2.032 . S
Zn302 O306 2.086 . S
Zn302 O311 1.977 . S
O303 Zn302 2.032 . S
O303 C307 1.278 . S
C304 O305 1.203 . S
C304 O311 1.267 . S
O305 C304 1.203 . S
O306 C299 1.185 . S
O306 Zn302 2.086 . S
C307 O303 1.278 . S
C307 O308 1.211 . S
O308 C307 1.211 . S
C309 O301 1.284 . S
C309 O310 1.273 . S
O310 C309 1.273 . S
O311 Zn302 1.977 . S
O311 C304 1.267 . S
Pr312 C314 2.869 1_454 S
Pr312 O332 2.573 1_455 S
Pr312 O333 2.461 1_454 S
Pr312 O334 2.687 . S
Pr312 O335 2.470 1_554 S
Pr312 O337 2.435 . S
Pr312 O340 2.477 . S
Pr312 O342 2.454 . S
Pr313 C323 2.880 . S
Pr313 O334 2.436 . S
Pr313 O336 2.438 . S
Pr313 O338 2.562 . S
Pr313 O339 2.490 . S
Pr313 O340 2.695 . S
Pr313 O341 2.512 . S
Pr313 O343 2.437 . S
C314 Pr312 2.869 1_656 S
C314 C315 1.491 . S
C314 O332 1.254 1_556 S
C314 O333 1.225 . S
C315 C314 1.491 . S
C315 C316 1.392 . S
C315 C320 1.356 . S
C316 C315 1.392 . S
C316 C317 1.368 . S
C316 H344 0.929 . S
C317 C316 1.368 . S
C317 C318 1.386 . S
C317 H345 0.929 . S
C318 C317 1.386 . S
C318 C319 1.373 . S
C319 C318 1.373 . S
C319 C320 1.409 . S
C319 H346 0.931 . S
C320 C315 1.356 . S
C320 C319 1.409 . S
C320 H347 0.930 1_556 S
C321 O334 1.270 1_556 S
C321 O335 1.248 . S
C322 O336 1.267 . S
C322 O337 1.298 . S
C323 Pr313 2.880 . S
C323 C324 1.491 . S
C323 O338 1.254 . S
C323 O339 1.225 . S
C324 C323 1.491 . S
C324 C325 1.392 . S
C324 C329 1.356 . S
C325 C324 1.392 . S
C325 C326 1.368 . S
C325 H348 0.929 . S
C326 C325 1.368 . S
C326 C327 1.386 . S
C326 H349 0.929 . S
C327 C326 1.386 . S
C327 C328 1.373 . S
C328 C327 1.373 . S
C328 C329 1.409 . S
C328 H350 0.931 . S
C329 C324 1.356 . S
C329 C328 1.409 . S
C329 H351 0.930 . S
C330 O340 1.270 . S
C330 O341 1.248 . S
C331 O342 1.267 . S
C331 O343 1.278 . S
O332 Pr312 2.573 1_655 S
O332 C314 1.254 1_554 S
O333 Pr312 2.461 1_656 S
O333 C314 1.225 . S
O334 Pr312 2.687 . S
O334 Pr313 2.436 . S
O334 C321 1.270 1_554 S
O335 Pr312 2.470 1_556 S
O335 C321 1.248 . S
O336 Pr313 2.438 . S
O336 C322 1.267 . S
O337 Pr312 2.435 . S
O337 C322 1.298 . S
O338 Pr313 2.562 . S
O338 C323 1.254 . S
O339 Pr313 2.490 . S
O339 C323 1.225 . S
O340 Pr312 2.477 . S
O340 Pr313 2.695 . S
O340 C330 1.270 . S
O341 Pr313 2.512 . S
O341 C330 1.248 . S
O342 Pr312 2.454 . S
O342 C331 1.267 . S
O343 Pr313 2.437 . S
O343 C331 1.278 . S
H344 C316 0.929 . S
H345 C317 0.929 . S
H346 C319 0.931 . S
H347 C320 0.930 1_554 S
H348 C325 0.929 . S
H349 C326 0.929 . S
H350 C328 0.931 . S
H351 C329 0.930 . S
Pr352 C354 2.880 . S
Pr352 O372 2.562 . S
Pr352 O373 2.490 . S
Pr352 O374 2.695 . S
Pr352 O375 2.512 . S
Pr352 O377 2.437 . S
Pr352 O380 2.436 . S
Pr352 O382 2.438 . S
Pr353 C363 2.880 . S
Pr353 O374 2.436 . S
Pr353 O376 2.438 . S
Pr353 O378 2.562 . S
Pr353 O379 2.490 . S
Pr353 O380 2.695 . S
Pr353 O381 2.512 . S
Pr353 O383 2.437 . S
C354 Pr352 2.880 . S
C354 C355 1.491 . S
C354 O372 1.254 . S
C354 O373 1.225 . S
C355 C354 1.491 . S
C355 C356 1.392 . S
C355 C360 1.356 . S
C356 C355 1.392 . S
C356 C357 1.368 . S
C356 H384 0.929 . S
C357 C356 1.368 . S
C357 C358 1.386 . S
C357 H385 0.929 . S
C358 C357 1.386 . S
C358 C359 1.373 . S
C359 C358 1.373 . S
C359 C360 1.409 . S
C359 H386 0.931 . S
C360 C355 1.356 . S
C360 C359 1.409 . S
C360 H387 0.930 . S
C361 O374 1.270 . S
C361 O375 1.248 . S
C362 O376 1.267 . S
C362 O377 1.278 . S
C363 Pr353 2.880 . S
C363 C364 1.491 . S
C363 O378 1.254 . S
C363 O379 1.225 . S
C364 C363 1.491 . S
C364 C365 1.392 . S
C364 C369 1.356 . S
C365 C364 1.392 . S
C365 C366 1.368 . S
C365 H388 0.929 . S
C366 C365 1.368 . S
C366 C367 1.386 . S
C366 H389 0.929 . S
C367 C366 1.386 . S
C367 C368 1.373 . S
C368 C367 1.373 . S
C368 C369 1.409 . S
C368 H390 0.931 . S
C369 C364 1.356 . S
C369 C368 1.409 . S
C369 H391 0.930 . S
C370 O380 1.270 . S
C370 O381 1.248 . S
C371 O382 1.267 . S
C371 O383 1.278 . S
O372 Pr352 2.562 . S
O372 C354 1.254 . S
O373 Pr352 2.490 . S
O373 C354 1.225 . S
O374 Pr352 2.695 . S
O374 Pr353 2.436 . S
O374 C361 1.270 . S
O375 Pr352 2.512 . S
O375 C361 1.248 . S
O376 Pr353 2.438 . S
O376 C362 1.267 . S
O377 Pr352 2.437 . S
O377 C362 1.278 . S
O378 Pr353 2.562 . S
O378 C363 1.254 . S
O379 Pr353 2.490 . S
O379 C363 1.225 . S
O380 Pr352 2.436 . S
O380 Pr353 2.695 . S
O380 C370 1.270 . S
O381 Pr353 2.512 . S
O381 C370 1.248 . S
O382 Pr352 2.438 . S
O382 C371 1.267 . S
O383 Pr353 2.437 . S
O383 C371 1.278 . S
H384 C356 0.929 . S
H385 C357 0.929 . S
H386 C359 0.931 . S
H387 C360 0.930 . S
H388 C365 0.929 . S
H389 C366 0.929 . S
H390 C368 0.931 . S
H391 C369 0.930 . S
Pr392 C394 2.880 . S
Pr392 O412 2.562 . S
Pr392 O413 2.490 . S
Pr392 O414 2.695 . S
Pr392 O415 2.512 . S
Pr392 O417 2.437 . S
Pr392 O420 2.436 . S
Pr392 O422 2.438 . S
Pr393 C403 2.880 . S
Pr393 O414 2.436 . S
Pr393 O416 2.438 . S
Pr393 O418 2.562 . S
Pr393 O419 2.490 . S
Pr393 O420 2.695 . S
Pr393 O421 2.512 . S
Pr393 O423 2.437 . S
C394 Pr392 2.880 . S
C394 C395 1.491 . S
C394 O412 1.254 . S
C394 O413 1.225 . S
C395 C394 1.491 . S
C395 C396 1.392 . S
C395 C400 1.356 . S
C396 C395 1.392 . S
C396 C397 1.368 . S
C396 H424 0.929 . S
C397 C396 1.368 . S
C397 C398 1.386 . S
C397 H425 0.929 . S
C398 C397 1.386 . S
C398 C399 1.373 . S
C399 C398 1.373 . S
C399 C400 1.409 . S
C399 H426 0.931 . S
C400 C395 1.356 . S
C400 C399 1.409 . S
C400 H427 0.930 . S
C401 O414 1.270 . S
C401 O415 1.248 . S
C402 O416 1.267 . S
C402 O417 1.278 . S
C403 Pr393 2.880 . S
C403 C404 1.491 . S
C403 O418 1.254 . S
C403 O419 1.225 . S
C404 C403 1.491 . S
C404 C405 1.392 . S
C404 C409 1.356 . S
C405 C404 1.392 . S
C405 C406 1.368 . S
C405 H428 0.929 . S
C406 C405 1.368 . S
C406 C407 1.386 . S
C406 H429 0.929 . S
C407 C406 1.386 . S
C407 C408 1.373 . S
C408 C407 1.373 . S
C408 C409 1.409 . S
C408 H430 0.931 . S
C409 C404 1.356 . S
C409 C408 1.409 . S
C409 H431 0.930 . S
C410 O420 1.270 . S
C410 O421 1.248 . S
C411 O422 1.267 . S
C411 O423 1.278 . S
O412 Pr392 2.562 . S
O412 C394 1.254 . S
O413 Pr392 2.490 . S
O413 C394 1.225 . S
O414 Pr392 2.695 . S
O414 Pr393 2.436 . S
O414 C401 1.270 . S
O415 Pr392 2.512 . S
O415 C401 1.248 . S
O416 Pr393 2.438 . S
O416 C402 1.267 . S
O417 Pr392 2.437 . S
O417 C402 1.278 . S
O418 Pr393 2.562 . S
O418 C403 1.254 . S
O419 Pr393 2.490 . S
O419 C403 1.225 . S
O420 Pr392 2.436 . S
O420 Pr393 2.695 . S
O420 C410 1.270 . S
O421 Pr393 2.512 . S
O421 C410 1.248 . S
O422 Pr392 2.438 . S
O422 C411 1.267 . S
O423 Pr393 2.437 . S
O423 C411 1.278 . S
H424 C396 0.929 . S
H425 C397 0.929 . S
H426 C399 0.931 . S
H427 C400 0.930 . S
H428 C405 0.929 . S
H429 C406 0.929 . S
H430 C408 0.931 . S
H431 C409 0.930 . S
Pr432 C434 2.880 . S
Pr432 O452 2.562 . S
Pr432 O453 2.490 . S
Pr432 O454 2.695 . S
Pr432 O455 2.512 . S
Pr432 O457 2.437 . S
Pr432 O460 2.436 . S
Pr432 O462 2.438 . S
Pr433 C443 2.880 . S
Pr433 O454 2.436 . S
Pr433 O456 2.438 . S
Pr433 O458 2.562 . S
Pr433 O459 2.490 . S
Pr433 O460 2.695 . S
Pr433 O461 2.512 . S
Pr433 O463 2.437 . S
C434 Pr432 2.880 . S
C434 C435 1.491 . S
C434 O452 1.254 . S
C434 O453 1.225 . S
C435 C434 1.491 . S
C435 C436 1.392 . S
C435 C440 1.356 . S
C436 C435 1.392 . S
C436 C437 1.368 . S
C436 H464 0.929 . S
C437 C436 1.368 . S
C437 C438 1.386 . S
C437 H465 0.929 . S
C438 C437 1.386 . S
C438 C439 1.373 . S
C439 C438 1.373 . S
C439 C440 1.409 . S
C439 H466 0.931 . S
C440 C435 1.356 . S
C440 C439 1.409 . S
C440 H467 0.930 . S
C441 O454 1.270 . S
C441 O455 1.248 . S
C442 O456 1.267 . S
C442 O457 1.278 . S
C443 Pr433 2.880 . S
C443 C444 1.491 . S
C443 O458 1.254 . S
C443 O459 1.225 . S
C444 C443 1.491 . S
C444 C445 1.392 . S
C444 C449 1.356 . S
C445 C444 1.392 . S
C445 C446 1.368 . S
C445 H468 0.929 . S
C446 C445 1.368 . S
C446 C447 1.386 . S
C446 H469 0.929 . S
C447 C446 1.386 . S
C447 C448 1.373 . S
C448 C447 1.373 . S
C448 C449 1.409 . S
C448 H470 0.931 . S
C449 C444 1.356 . S
C449 C448 1.409 . S
C449 H471 0.930 . S
C450 O460 1.270 . S
C450 O461 1.248 . S
C451 O462 1.267 . S
C451 O463 1.278 . S
O452 Pr432 2.562 . S
O452 C434 1.254 . S
O453 Pr432 2.490 . S
O453 C434 1.225 . S
O454 Pr432 2.695 . S
O454 Pr433 2.436 . S
O454 C441 1.270 . S
O455 Pr432 2.512 . S
O455 C441 1.248 . S
O456 Pr433 2.438 . S
O456 C442 1.267 . S
O457 Pr432 2.437 . S
O457 C442 1.278 . S
O458 Pr433 2.562 . S
O458 C443 1.254 . S
O459 Pr433 2.490 . S
O459 C443 1.225 . S
O460 Pr432 2.436 . S
O460 Pr433 2.695 . S
O460 C450 1.270 . S
O461 Pr433 2.512 . S
O461 C450 1.248 . S
O462 Pr432 2.438 . S
O462 C451 1.267 . S
O463 Pr433 2.437 . S
O463 C451 1.278 . S
H464 C436 0.929 . S
H465 C437 0.929 . S
H466 C439 0.931 . S
H467 C440 0.930 . S
H468 C445 0.929 . S
H469 C446 0.929 . S
H470 C448 0.931 . S
H471 C449 0.930 . S
Pr472 C474 2.880 . S
Pr472 O492 2.562 . S
Pr472 O493 2.490 . S
Pr472 O494 2.695 . S
Pr472 O495 2.512 . S
Pr472 O497 2.437 . S
Pr472 O500 2.436 . S
Pr472 O502 2.438 . S
Pr473 C483 2.880 . S
Pr473 O494 2.436 . S
Pr473 O496 2.438 . S
Pr473 O498 2.562 . S
Pr473 O499 2.490 . S
Pr473 O500 2.695 . S
Pr473 O501 2.512 . S
Pr473 O503 2.437 . S
C474 Pr472 2.880 . S
C474 C475 1.491 . S
C474 O492 1.254 . S
C474 O493 1.225 . S
C475 C474 1.491 . S
C475 C476 1.392 . S
C475 C480 1.356 1_455 S
C476 C475 1.392 . S
C476 C477 1.368 . S
C476 H504 0.929 . S
C477 C476 1.368 . S
C477 C478 1.386 1_455 S
C477 H505 0.929 . S
C478 C477 1.386 1_655 S
C478 C479 1.373 . S
C479 C478 1.373 . S
C479 C480 1.409 . S
C479 H506 0.931 . S
C480 C475 1.356 1_655 S
C480 C479 1.409 . S
C480 H507 0.930 . S
C481 O494 1.270 . S
C481 O495 1.248 . S
C482 O496 1.267 . S
C482 O497 1.278 . S
C483 Pr473 2.880 . S
C483 C484 1.491 . S
C483 O498 1.254 . S
C483 O499 1.225 . S
C484 C483 1.491 . S
C484 C485 1.392 . S
C484 C489 1.356 . S
C485 C484 1.392 . S
C485 C486 1.368 . S
C485 H508 0.929 . S
C486 C485 1.368 . S
C486 C487 1.386 . S
C486 H509 0.929 . S
C487 C486 1.386 . S
C487 C488 1.373 . S
C488 C487 1.373 . S
C488 C489 1.409 . S
C488 H510 0.931 . S
C489 C484 1.356 . S
C489 C488 1.409 . S
C489 H511 0.930 . S
C490 O500 1.270 . S
C490 O501 1.248 . S
C491 O502 1.267 . S
C491 O503 1.278 . S
O492 Pr472 2.562 . S
O492 C474 1.254 . S
O493 Pr472 2.490 . S
O493 C474 1.225 . S
O494 Pr472 2.695 . S
O494 Pr473 2.436 . S
O494 C481 1.270 . S
O495 Pr472 2.512 . S
O495 C481 1.248 . S
O496 Pr473 2.438 . S
O496 C482 1.267 . S
O497 Pr472 2.437 . S
O497 C482 1.278 . S
O498 Pr473 2.562 . S
O498 C483 1.254 . S
O499 Pr473 2.490 . S
O499 C483 1.225 . S
O500 Pr472 2.436 . S
O500 Pr473 2.695 . S
O500 C490 1.270 . S
O501 Pr473 2.512 . S
O501 C490 1.248 . S
O502 Pr472 2.438 . S
O502 C491 1.267 . S
O503 Pr473 2.437 . S
O503 C491 1.278 . S
H504 C476 0.929 . S
H505 C477 0.929 . S
H506 C479 0.931 . S
H507 C480 0.930 . S
H508 C485 0.929 . S
H509 C486 0.929 . S
H510 C488 0.931 . S
H511 C489 0.930 . S
Pr512 C514 2.880 . S
Pr512 O532 2.562 . S
Pr512 O533 2.490 . S
Pr512 O534 2.695 . S
Pr512 O535 2.512 . S
Pr512 O537 2.437 . S
Pr512 O540 2.436 . S
Pr512 O542 2.438 . S
Pr513 C523 2.880 . S
Pr513 O534 2.436 . S
Pr513 O536 2.438 . S
Pr513 O538 2.562 . S
Pr513 O539 2.490 . S
Pr513 O540 2.695 . S
Pr513 O541 2.512 . S
Pr513 O543 2.437 . S
C514 Pr512 2.880 . S
C514 C515 1.491 . S
C514 O532 1.254 . S
C514 O533 1.225 . S
C515 C514 1.491 . S
C515 C516 1.392 . S
C515 C520 1.356 . S
C516 C515 1.392 . S
C516 C517 1.368 . S
C516 H544 0.929 . S
C517 C516 1.368 . S
C517 C518 1.386 . S
C517 H545 0.929 . S
C518 C517 1.386 . S
C518 C519 1.373 . S
C519 C518 1.373 . S
C519 C520 1.409 . S
C519 H546 0.931 . S
C520 C515 1.356 . S
C520 C519 1.409 . S
C520 H547 0.930 . S
C521 O534 1.270 . S
C521 O535 1.248 . S
C522 O536 1.267 . S
C522 O537 1.278 . S
C523 Pr513 2.880 . S
C523 C524 1.491 . S
C523 O538 1.254 . S
C523 O539 1.225 . S
C524 C523 1.491 . S
C524 C525 1.392 . S
C524 C529 1.356 . S
C525 C524 1.392 . S
C525 C526 1.368 . S
C525 H548 0.929 . S
C526 C525 1.368 . S
C526 C527 1.386 . S
C526 H549 0.929 . S
C527 C526 1.386 . S
C527 C528 1.373 . S
C528 C527 1.373 . S
C528 C529 1.409 . S
C528 H550 0.931 . S
C529 C524 1.356 . S
C529 C528 1.409 . S
C529 H551 0.930 . S
C530 O540 1.270 . S
C530 O541 1.248 . S
C531 O542 1.267 . S
C531 O543 1.278 . S
O532 Pr512 2.562 . S
O532 C514 1.254 . S
O533 Pr512 2.490 . S
O533 C514 1.225 . S
O534 Pr512 2.695 . S
O534 Pr513 2.436 . S
O534 C521 1.270 . S
O535 Pr512 2.512 . S
O535 C521 1.248 . S
O536 Pr513 2.438 . S
O536 C522 1.267 . S
O537 Pr512 2.437 . S
O537 C522 1.278 . S
O538 Pr513 2.562 . S
O538 C523 1.254 . S
O539 Pr513 2.490 . S
O539 C523 1.225 . S
O540 Pr512 2.436 . S
O540 Pr513 2.695 . S
O540 C530 1.270 . S
O541 Pr513 2.512 . S
O541 C530 1.248 . S
O542 Pr512 2.438 . S
O542 C531 1.267 . S
O543 Pr513 2.437 . S
O543 C531 1.278 . S
H544 C516 0.929 . S
H545 C517 0.929 . S
H546 C519 0.931 . S
H547 C520 0.930 . S
H548 C525 0.929 . S
H549 C526 0.929 . S
H550 C528 0.931 . S
H551 C529 0.930 . S
Pr552 C554 2.880 . S
Pr552 O572 2.562 . S
Pr552 O573 2.490 . S
Pr552 O574 2.695 . S
Pr552 O575 2.512 . S
Pr552 O577 2.437 . S
Pr552 O580 2.436 . S
Pr552 O582 2.438 . S
Pr553 C563 2.880 . S
Pr553 O574 2.436 1_556 S
Pr553 O576 2.438 1_556 S
Pr553 O578 2.562 . S
Pr553 O579 2.490 . S
Pr553 O580 2.695 1_556 S
Pr553 O581 2.512 1_556 S
Pr553 O583 2.437 1_556 S
C554 Pr552 2.880 . S
C554 C555 1.491 . S
C554 O572 1.254 . S
C554 O573 1.225 . S
C555 C554 1.491 . S
C555 C556 1.392 . S
C555 C560 1.356 . S
C556 C555 1.392 . S
C556 C557 1.368 . S
C556 H584 0.929 . S
C557 C556 1.368 . S
C557 C558 1.386 . S
C557 H585 0.929 . S
C558 C557 1.386 . S
C558 C559 1.373 . S
C559 C558 1.373 . S
C559 C560 1.409 . S
C559 H586 0.931 . S
C560 C555 1.356 . S
C560 C559 1.409 . S
C560 H587 0.930 . S
C561 O574 1.270 . S
C561 O575 1.248 . S
C562 O576 1.267 . S
C562 O577 1.278 . S
C563 Pr553 2.880 . S
C563 C564 1.491 . S
C563 O578 1.254 . S
C563 O579 1.225 . S
C564 C563 1.491 . S
C564 C565 1.392 . S
C564 C569 1.356 . S
C565 C564 1.392 . S
C565 C566 1.368 . S
C565 H588 0.929 . S
C566 C565 1.368 . S
C566 C567 1.386 . S
C566 H589 0.929 . S
C567 C566 1.386 . S
C567 C568 1.373 . S
C568 C567 1.373 . S
C568 C569 1.409 . S
C568 H590 0.931 . S
C569 C564 1.356 . S
C569 C568 1.409 . S
C569 H591 0.930 . S
C570 O580 1.270 . S
C570 O581 1.248 . S
C571 O582 1.267 . S
C571 O583 1.278 . S
O572 Pr552 2.562 . S
O572 C554 1.254 . S
O573 Pr552 2.490 . S
O573 C554 1.225 . S
O574 Pr552 2.695 . S
O574 Pr553 2.436 1_554 S
O574 C561 1.270 . S
O575 Pr552 2.512 . S
O575 C561 1.248 . S
O576 Pr553 2.438 1_554 S
O576 C562 1.267 . S
O577 Pr552 2.437 . S
O577 C562 1.278 . S
O578 Pr553 2.562 . S
O578 C563 1.254 . S
O579 Pr553 2.490 . S
O579 C563 1.225 . S
O580 Pr552 2.436 . S
O580 Pr553 2.695 1_554 S
O580 C570 1.270 . S
O581 Pr553 2.512 1_554 S
O581 C570 1.248 . S
O582 Pr552 2.438 . S
O582 C571 1.267 . S
O583 Pr553 2.437 1_554 S
O583 C571 1.278 . S
H584 C556 0.929 . S
H585 C557 0.929 . S
H586 C559 0.931 . S
H587 C560 0.930 . S
H588 C565 0.929 . S
H589 C566 0.929 . S
H590 C568 0.931 . S
H591 C569 0.930 . S
Pr592 C594 2.880 . S
Pr592 O612 2.562 . S
Pr592 O613 2.490 . S
Pr592 O614 2.695 . S
Pr592 O615 2.512 . S
Pr592 O617 2.437 . S
Pr592 O620 2.436 . S
Pr592 O622 2.438 . S
Pr593 C603 2.880 . S
Pr593 O614 2.436 . S
Pr593 O616 2.438 . S
Pr593 O618 2.562 . S
Pr593 O619 2.490 . S
Pr593 O620 2.695 . S
Pr593 O621 2.512 . S
Pr593 O623 2.437 . S
C594 Pr592 2.880 . S
C594 C595 1.491 . S
C594 O612 1.254 . S
C594 O613 1.225 . S
C595 C594 1.491 . S
C595 C596 1.392 . S
C595 C600 1.356 . S
C596 C595 1.392 . S
C596 C597 1.368 . S
C596 H624 0.929 . S
C597 C596 1.368 . S
C597 C598 1.386 . S
C597 H625 0.929 . S
C598 C597 1.386 . S
C598 C599 1.373 . S
C599 C598 1.373 . S
C599 C600 1.409 . S
C599 H626 0.931 . S
C600 C595 1.356 . S
C600 C599 1.409 . S
C600 H627 0.930 . S
C601 O614 1.270 . S
C601 O615 1.248 . S
C602 O616 1.267 . S
C602 O617 1.278 . S
C603 Pr593 2.880 . S
C603 C604 1.491 . S
C603 O618 1.254 . S
C603 O619 1.225 . S
C604 C603 1.491 . S
C604 C605 1.392 . S
C604 C609 1.356 . S
C605 C604 1.392 . S
C605 C606 1.368 . S
C605 H628 0.929 . S
C606 C605 1.368 . S
C606 C607 1.386 . S
C606 H629 0.929 . S
C607 C606 1.386 . S
C607 C608 1.373 . S
C608 C607 1.373 . S
C608 C609 1.409 . S
C608 H630 0.931 . S
C609 C604 1.356 . S
C609 C608 1.409 . S
C609 H631 0.930 . S
C610 O620 1.270 . S
C610 O621 1.248 . S
C611 O622 1.267 . S
C611 O623 1.278 . S
O612 Pr592 2.562 . S
O612 C594 1.254 . S
O613 Pr592 2.490 . S
O613 C594 1.225 . S
O614 Pr592 2.695 . S
O614 Pr593 2.436 . S
O614 C601 1.270 . S
O615 Pr592 2.512 . S
O615 C601 1.248 . S
O616 Pr593 2.438 . S
O616 C602 1.267 . S
O617 Pr592 2.437 . S
O617 C602 1.278 . S
O618 Pr593 2.562 . S
O618 C603 1.254 . S
O619 Pr593 2.490 . S
O619 C603 1.225 . S
O620 Pr592 2.436 . S
O620 Pr593 2.695 . S
O620 C610 1.270 . S
O621 Pr593 2.512 . S
O621 C610 1.248 . S
O622 Pr592 2.438 . S
O622 C611 1.267 . S
O623 Pr593 2.437 . S
O623 C611 1.278 . S
H624 C596 0.929 . S
H625 C597 0.929 . S
H626 C599 0.931 . S
H627 C600 0.930 . S
H628 C605 0.929 . S
H629 C606 0.929 . S
H630 C608 0.931 . S
H631 C609 0.930 . S
Pr632 C634 2.880 . S
Pr632 O652 2.562 . S
Pr632 O653 2.490 . S
Pr632 O654 2.695 1_556 S
Pr632 O655 2.512 . S
Pr632 O657 2.437 . S
Pr632 O660 2.436 1_556 S
Pr632 O662 2.438 1_556 S
Pr633 C643 2.880 . S
Pr633 O654 2.436 . S
Pr633 O656 2.438 . S
Pr633 O658 2.562 . S
Pr633 O659 2.490 . S
Pr633 O660 2.695 . S
Pr633 O661 2.512 . S
Pr633 O663 2.437 . S
C634 Pr632 2.880 . S
C634 C635 1.491 . S
C634 O652 1.254 . S
C634 O653 1.225 . S
C635 C634 1.491 . S
C635 C636 1.392 . S
C635 C640 1.356 . S
C636 C635 1.392 . S
C636 C637 1.368 . S
C636 H664 0.929 . S
C637 C636 1.368 . S
C637 C638 1.386 . S
C637 H665 0.929 . S
C638 C637 1.386 . S
C638 C639 1.373 . S
C639 C638 1.373 . S
C639 C640 1.409 . S
C639 H666 0.931 . S
C640 C635 1.356 . S
C640 C639 1.409 . S
C640 H667 0.930 . S
C641 O654 1.270 . S
C641 O655 1.248 1_554 S
C642 O656 1.267 . S
C642 O657 1.278 1_554 S
C643 Pr633 2.880 . S
C643 C644 1.491 . S
C643 O658 1.254 . S
C643 O659 1.225 . S
C644 C643 1.491 . S
C644 C645 1.392 . S
C644 C649 1.356 . S
C645 C644 1.392 . S
C645 C646 1.368 . S
C645 H668 0.929 . S
C646 C645 1.368 . S
C646 C647 1.386 . S
C646 H669 0.929 . S
C647 C646 1.386 . S
C647 C648 1.373 . S
C648 C647 1.373 . S
C648 C649 1.409 . S
C648 H670 0.931 . S
C649 C644 1.356 . S
C649 C648 1.409 . S
C649 H671 0.930 . S
C650 O660 1.270 . S
C650 O661 1.248 . S
C651 O662 1.267 . S
C651 O663 1.278 . S
O652 Pr632 2.562 . S
O652 C634 1.254 . S
O653 Pr632 2.490 . S
O653 C634 1.225 . S
O654 Pr632 2.695 1_554 S
O654 Pr633 2.436 . S
O654 C641 1.270 . S
O655 Pr632 2.512 . S
O655 C641 1.248 1_556 S
O656 Pr633 2.438 . S
O656 C642 1.267 . S
O657 Pr632 2.437 . S
O657 C642 1.278 1_556 S
O658 Pr633 2.562 . S
O658 C643 1.254 . S
O659 Pr633 2.490 . S
O659 C643 1.225 . S
O660 Pr632 2.436 1_554 S
O660 Pr633 2.695 . S
O660 C650 1.270 . S
O661 Pr633 2.512 . S
O661 C650 1.248 . S
O662 Pr632 2.438 1_554 S
O662 C651 1.267 . S
O663 Pr633 2.437 . S
O663 C651 1.278 . S
H664 C636 0.929 . S
H665 C637 0.929 . S
H666 C639 0.931 . S
H667 C640 0.930 . S
H668 C645 0.929 . S
H669 C646 0.929 . S
H670 C648 0.931 . S
H671 C649 0.930 . S
Pr672 C674 2.880 . S
Pr672 O692 2.562 . S
Pr672 O693 2.490 . S
Pr672 O694 2.695 . S
Pr672 O695 2.512 . S
Pr672 O697 2.437 . S
Pr672 O700 2.436 . S
Pr672 O702 2.438 . S
Pr673 C683 2.880 . S
Pr673 O694 2.436 . S
Pr673 O696 2.438 . S
Pr673 O698 2.562 . S
Pr673 O699 2.490 . S
Pr673 O700 2.695 . S
Pr673 O701 2.512 . S
Pr673 O703 2.437 . S
C674 Pr672 2.880 . S
C674 C675 1.491 . S
C674 O692 1.254 . S
C674 O693 1.225 . S
C675 C674 1.491 . S
C675 C676 1.392 . S
C675 C680 1.356 . S
C676 C675 1.392 . S
C676 C677 1.368 . S
C676 H704 0.929 . S
C677 C676 1.368 . S
C677 C678 1.386 . S
C677 H705 0.929 . S
C678 C677 1.386 . S
C678 C679 1.373 . S
C679 C678 1.373 . S
C679 C680 1.409 . S
C679 H706 0.931 . S
C680 C675 1.356 . S
C680 C679 1.409 . S
C680 H707 0.930 . S
C681 O694 1.270 . S
C681 O695 1.248 . S
C682 O696 1.267 . S
C682 O697 1.278 . S
C683 Pr673 2.880 . S
C683 C684 1.491 . S
C683 O698 1.254 . S
C683 O699 1.225 . S
C684 C683 1.491 . S
C684 C685 1.392 . S
C684 C689 1.356 . S
C685 C684 1.392 . S
C685 C686 1.368 . S
C685 H708 0.929 . S
C686 C685 1.368 . S
C686 C687 1.386 . S
C686 H709 0.929 . S
C687 C686 1.386 . S
C687 C688 1.373 . S
C688 C687 1.373 . S
C688 C689 1.409 . S
C688 H710 0.931 . S
C689 C684 1.356 . S
C689 C688 1.409 . S
C689 H711 0.930 . S
C690 O700 1.270 . S
C690 O701 1.248 . S
C691 O702 1.267 . S
C691 O703 1.278 . S
O692 Pr672 2.562 . S
O692 C674 1.254 . S
O693 Pr672 2.490 . S
O693 C674 1.225 . S
O694 Pr672 2.695 . S
O694 Pr673 2.436 . S
O694 C681 1.270 . S
O695 Pr672 2.512 . S
O695 C681 1.248 . S
O696 Pr673 2.438 . S
O696 C682 1.267 . S
O697 Pr672 2.437 . S
O697 C682 1.278 . S
O698 Pr673 2.562 . S
O698 C683 1.254 . S
O699 Pr673 2.490 . S
O699 C683 1.225 . S
O700 Pr672 2.436 . S
O700 Pr673 2.695 . S
O700 C690 1.270 . S
O701 Pr673 2.512 . S
O701 C690 1.248 . S
O702 Pr672 2.438 . S
O702 C691 1.267 . S
O703 Pr673 2.437 . S
O703 C691 1.278 . S
H704 C676 0.929 . S
H705 C677 0.929 . S
H706 C679 0.931 . S
H707 C680 0.930 . S
H708 C685 0.929 . S
H709 C686 0.929 . S
H710 C688 0.931 . S
H711 C689 0.930 . S
Pr712 C714 2.880 . S
Pr712 O732 2.562 . S
Pr712 O733 2.490 . S
Pr712 O734 2.695 . S
Pr712 O735 2.512 . S
Pr712 O737 2.437 . S
Pr712 O740 2.436 . S
Pr712 O742 2.438 . S
Pr713 C723 2.880 . S
Pr713 O734 2.436 . S
Pr713 O736 2.438 . S
Pr713 O738 2.562 . S
Pr713 O739 2.490 . S
Pr713 O740 2.695 . S
Pr713 O741 2.512 . S
Pr713 O743 2.437 . S
C714 Pr712 2.880 . S
C714 C715 1.491 . S
C714 O732 1.254 . S
C714 O733 1.225 . S
C715 C714 1.491 . S
C715 C716 1.392 . S
C715 C720 1.356 . S
C716 C715 1.392 . S
C716 C717 1.368 . S
C716 H744 0.929 . S
C717 C716 1.368 . S
C717 C718 1.386 . S
C717 H745 0.929 . S
C718 C717 1.386 . S
C718 C719 1.373 . S
C719 C718 1.373 . S
C719 C720 1.409 . S
C719 H746 0.931 1_455 S
C720 C715 1.356 . S
C720 C719 1.409 . S
C720 H747 0.930 . S
C721 O734 1.270 . S
C721 O735 1.248 . S
C722 O736 1.267 . S
C722 O737 1.278 . S
C723 Pr713 2.880 . S
C723 C724 1.491 . S
C723 O738 1.254 . S
C723 O739 1.225 . S
C724 C723 1.491 . S
C724 C725 1.392 . S
C724 C729 1.356 . S
C725 C724 1.392 . S
C725 C726 1.368 . S
C725 H748 0.929 . S
C726 C725 1.368 . S
C726 C727 1.386 . S
C726 H749 0.929 . S
C727 C726 1.386 . S
C727 C728 1.373 . S
C728 C727 1.373 . S
C728 C729 1.409 . S
C728 H750 0.931 . S
C729 C724 1.356 . S
C729 C728 1.409 . S
C729 H751 0.930 . S
C730 O740 1.270 . S
C730 O741 1.248 . S
C731 O742 1.267 . S
C731 O743 1.278 . S
O732 Pr712 2.562 . S
O732 C714 1.254 . S
O733 Pr712 2.490 . S
O733 C714 1.225 . S
O734 Pr712 2.695 . S
O734 Pr713 2.436 . S
O734 C721 1.270 . S
O735 Pr712 2.512 . S
O735 C721 1.248 . S
O736 Pr713 2.438 . S
O736 C722 1.267 . S
O737 Pr712 2.437 . S
O737 C722 1.278 . S
O738 Pr713 2.562 . S
O738 C723 1.254 . S
O739 Pr713 2.490 . S
O739 C723 1.225 . S
O740 Pr712 2.436 . S
O740 Pr713 2.695 . S
O740 C730 1.270 . S
O741 Pr713 2.512 . S
O741 C730 1.248 . S
O742 Pr712 2.438 . S
O742 C731 1.267 . S
O743 Pr713 2.437 . S
O743 C731 1.278 . S
H744 C716 0.929 . S
H745 C717 0.929 . S
H746 C719 0.931 1_655 S
H747 C720 0.930 . S
H748 C725 0.929 . S
H749 C726 0.929 . S
H750 C728 0.931 . S
H751 C729 0.930 . S
Pr752 C754 2.880 . S
Pr752 O772 2.562 . S
Pr752 O773 2.490 . S
Pr752 O774 2.695 . S
Pr752 O775 2.512 . S
Pr752 O777 2.437 . S
Pr752 O780 2.436 . S
Pr752 O782 2.438 . S
Pr753 C763 2.880 . S
Pr753 O774 2.436 . S
Pr753 O776 2.438 . S
Pr753 O778 2.562 . S
Pr753 O779 2.490 . S
Pr753 O780 2.695 . S
Pr753 O781 2.512 . S
Pr753 O783 2.437 . S
C754 Pr752 2.880 . S
C754 C755 1.491 . S
C754 O772 1.254 . S
C754 O773 1.225 . S
C755 C754 1.491 . S
C755 C756 1.392 . S
C755 C760 1.356 . S
C756 C755 1.392 . S
C756 C757 1.368 . S
C756 H784 0.929 . S
C757 C756 1.368 . S
C757 C758 1.386 . S
C757 H785 0.929 . S
C758 C757 1.386 . S
C758 C759 1.373 . S
C759 C758 1.373 . S
C759 C760 1.409 . S
C759 H786 0.931 . S
C760 C755 1.356 . S
C760 C759 1.409 . S
C760 H787 0.930 . S
C761 O774 1.270 . S
C761 O775 1.248 . S
C762 O776 1.267 . S
C762 O777 1.278 . S
C763 Pr753 2.880 . S
C763 C764 1.491 . S
C763 O778 1.254 . S
C763 O779 1.225 . S
C764 C763 1.491 . S
C764 C765 1.392 . S
C764 C769 1.356 . S
C765 C764 1.392 . S
C765 C766 1.368 . S
C765 H788 0.929 . S
C766 C765 1.368 . S
C766 C767 1.386 . S
C766 H789 0.929 . S
C767 C766 1.386 . S
C767 C768 1.373 . S
C768 C767 1.373 . S
C768 C769 1.409 . S
C768 H790 0.931 . S
C769 C764 1.356 . S
C769 C768 1.409 . S
C769 H791 0.930 . S
C770 O780 1.270 . S
C770 O781 1.248 . S
C771 O782 1.267 . S
C771 O783 1.278 . S
O772 Pr752 2.562 . S
O772 C754 1.254 . S
O773 Pr752 2.490 . S
O773 C754 1.225 . S
O774 Pr752 2.695 . S
O774 Pr753 2.436 . S
O774 C761 1.270 . S
O775 Pr752 2.512 . S
O775 C761 1.248 . S
O776 Pr753 2.438 . S
O776 C762 1.267 . S
O777 Pr752 2.437 . S
O777 C762 1.278 . S
O778 Pr753 2.562 . S
O778 C763 1.254 . S
O779 Pr753 2.490 . S
O779 C763 1.225 . S
O780 Pr752 2.436 . S
O780 Pr753 2.695 . S
O780 C770 1.270 . S
O781 Pr753 2.512 . S
O781 C770 1.248 . S
O782 Pr752 2.438 . S
O782 C771 1.267 . S
O783 Pr753 2.437 . S
O783 C771 1.278 . S
H784 C756 0.929 . S
H785 C757 0.929 . S
H786 C759 0.931 . S
H787 C760 0.930 . S
H788 C765 0.929 . S
H789 C766 0.929 . S
H790 C768 0.931 . S
H791 C769 0.930 . S
Pr792 C794 2.880 . S
Pr792 O812 2.562 . S
Pr792 O813 2.490 . S
Pr792 O814 2.695 . S
Pr792 O815 2.512 . S
Pr792 O817 2.437 . S
Pr792 O820 2.436 . S
Pr792 O822 2.438 . S
Pr793 C803 2.880 . S
Pr793 O814 2.436 . S
Pr793 O816 2.438 . S
Pr793 O818 2.562 . S
Pr793 O819 2.490 . S
Pr793 O820 2.695 . S
Pr793 O821 2.512 . S
Pr793 O823 2.437 . S
C794 Pr792 2.880 . S
C794 C795 1.491 . S
C794 O812 1.254 . S
C794 O813 1.225 . S
C795 C794 1.491 . S
C795 C796 1.392 . S
C795 C800 1.356 . S
C796 C795 1.392 . S
C796 C797 1.368 . S
C796 H824 0.929 . S
C797 C796 1.368 . S
C797 C798 1.386 . S
C797 H825 0.929 . S
C798 C797 1.386 . S
C798 C799 1.373 . S
C799 C798 1.373 . S
C799 C800 1.409 . S
C799 H826 0.931 . S
C800 C795 1.356 . S
C800 C799 1.409 . S
C800 H827 0.930 . S
C801 O814 1.270 . S
C801 O815 1.248 . S
C802 O816 1.267 . S
C802 O817 1.278 . S
C803 Pr793 2.880 . S
C803 C804 1.491 . S
C803 O818 1.254 . S
C803 O819 1.225 . S
C804 C803 1.491 . S
C804 C805 1.392 . S
C804 C809 1.356 . S
C805 C804 1.392 . S
C805 C806 1.368 . S
C805 H828 0.929 . S
C806 C805 1.368 . S
C806 C807 1.386 . S
C806 H829 0.929 . S
C807 C806 1.386 . S
C807 C808 1.373 . S
C808 C807 1.373 . S
C808 C809 1.409 . S
C808 H830 0.931 . S
C809 C804 1.356 . S
C809 C808 1.409 . S
C809 H831 0.930 . S
C810 O820 1.270 . S
C810 O821 1.248 . S
C811 O822 1.267 . S
C811 O823 1.278 . S
O812 Pr792 2.562 . S
O812 C794 1.254 . S
O813 Pr792 2.490 . S
O813 C794 1.225 . S
O814 Pr792 2.695 . S
O814 Pr793 2.436 . S
O814 C801 1.270 . S
O815 Pr792 2.512 . S
O815 C801 1.248 . S
O816 Pr793 2.438 . S
O816 C802 1.267 . S
O817 Pr792 2.437 . S
O817 C802 1.278 . S
O818 Pr793 2.562 . S
O818 C803 1.254 . S
O819 Pr793 2.490 . S
O819 C803 1.225 . S
O820 Pr792 2.436 . S
O820 Pr793 2.695 . S
O820 C810 1.270 . S
O821 Pr793 2.512 . S
O821 C810 1.248 . S
O822 Pr792 2.438 . S
O822 C811 1.267 . S
O823 Pr793 2.437 . S
O823 C811 1.278 . S
H824 C796 0.929 . S
H825 C797 0.929 . S
H826 C799 0.931 . S
H827 C800 0.930 . S
H828 C805 0.929 . S
H829 C806 0.929 . S
H830 C808 0.931 . S
H831 C809 0.930 . S
Pr832 C834 2.880 . S
Pr832 O852 2.562 . S
Pr832 O853 2.490 . S
Pr832 O854 2.695 . S
Pr832 O855 2.512 . S
Pr832 O857 2.437 . S
Pr832 O860 2.436 . S
Pr832 O862 2.438 . S
Pr833 C843 2.880 . S
Pr833 O854 2.436 . S
Pr833 O856 2.438 . S
Pr833 O858 2.562 . S
Pr833 O859 2.490 . S
Pr833 O860 2.695 . S
Pr833 O861 2.512 . S
Pr833 O863 2.437 . S
C834 Pr832 2.880 . S
C834 C835 1.491 . S
C834 O852 1.254 . S
C834 O853 1.225 . S
C835 C834 1.491 . S
C835 C836 1.392 . S
C835 C840 1.356 . S
C836 C835 1.392 . S
C836 C837 1.368 . S
C836 H864 0.929 . S
C837 C836 1.368 . S
C837 C838 1.386 . S
C837 H865 0.929 . S
C838 C837 1.386 . S
C838 C839 1.373 . S
C839 C838 1.373 . S
C839 C840 1.409 . S
C839 H866 0.931 . S
C840 C835 1.356 . S
C840 C839 1.409 . S
C840 H867 0.930 . S
C841 O854 1.270 . S
C841 O855 1.248 . S
C842 O856 1.267 . S
C842 O857 1.278 . S
C843 Pr833 2.880 . S
C843 C844 1.491 . S
C843 O858 1.254 . S
C843 O859 1.225 . S
C844 C843 1.491 . S
C844 C845 1.392 . S
C844 C849 1.356 . S
C845 C844 1.392 . S
C845 C846 1.368 . S
C845 H868 0.929 . S
C846 C845 1.368 . S
C846 C847 1.386 . S
C846 H869 0.929 . S
C847 C846 1.386 . S
C847 C848 1.373 . S
C848 C847 1.373 . S
C848 C849 1.409 . S
C848 H870 0.931 . S
C849 C844 1.356 . S
C849 C848 1.409 . S
C849 H871 0.930 . S
C850 O860 1.270 . S
C850 O861 1.248 . S
C851 O862 1.267 . S
C851 O863 1.278 . S
O852 Pr832 2.562 . S
O852 C834 1.254 . S
O853 Pr832 2.490 . S
O853 C834 1.225 . S
O854 Pr832 2.695 . S
O854 Pr833 2.436 . S
O854 C841 1.270 . S
O855 Pr832 2.512 . S
O855 C841 1.248 . S
O856 Pr833 2.438 . S
O856 C842 1.267 . S
O857 Pr832 2.437 . S
O857 C842 1.278 . S
O858 Pr833 2.562 . S
O858 C843 1.254 . S
O859 Pr833 2.490 . S
O859 C843 1.225 . S
O860 Pr832 2.436 . S
O860 Pr833 2.695 . S
O860 C850 1.270 . S
O861 Pr833 2.512 . S
O861 C850 1.248 . S
O862 Pr832 2.438 . S
O862 C851 1.267 . S
O863 Pr833 2.437 . S
O863 C851 1.278 . S
H864 C836 0.929 . S
H865 C837 0.929 . S
H866 C839 0.931 . S
H867 C840 0.930 . S
H868 C845 0.929 . S
H869 C846 0.929 . S
H870 C848 0.931 . S
H871 C849 0.930 . S
Pr872 C874 2.880 . S
Pr872 O892 2.562 . S
Pr872 O893 2.490 . S
Pr872 O894 2.695 . S
Pr872 O895 2.512 . S
Pr872 O897 2.437 . S
Pr872 O900 2.436 . S
Pr872 O902 2.438 . S
Pr873 C883 2.880 . S
Pr873 O894 2.436 . S
Pr873 O896 2.438 . S
Pr873 O898 2.562 . S
Pr873 O899 2.490 . S
Pr873 O900 2.695 . S
Pr873 O901 2.512 . S
Pr873 O903 2.437 . S
C874 Pr872 2.880 . S
C874 C875 1.491 . S
C874 O892 1.254 . S
C874 O893 1.225 . S
C875 C874 1.491 . S
C875 C876 1.392 . S
C875 C880 1.356 . S
C876 C875 1.392 . S
C876 C877 1.368 . S
C876 H904 0.929 . S
C877 C876 1.368 . S
C877 C878 1.386 . S
C877 H905 0.929 . S
C878 C877 1.386 . S
C878 C879 1.373 . S
C879 C878 1.373 . S
C879 C880 1.409 . S
C879 H906 0.931 . S
C880 C875 1.356 . S
C880 C879 1.409 . S
C880 H907 0.930 . S
C881 O894 1.270 . S
C881 O895 1.248 . S
C882 O896 1.267 . S
C882 O897 1.278 . S
C883 Pr873 2.880 . S
C883 C884 1.491 . S
C883 O898 1.254 . S
C883 O899 1.225 . S
C884 C883 1.491 . S
C884 C885 1.392 . S
C884 C889 1.356 . S
C885 C884 1.392 . S
C885 C886 1.368 . S
C885 H908 0.929 . S
C886 C885 1.368 . S
C886 C887 1.386 . S
C886 H909 0.929 . S
C887 C886 1.386 . S
C887 C888 1.373 . S
C888 C887 1.373 . S
C888 C889 1.409 . S
C888 H910 0.931 . S
C889 C884 1.356 . S
C889 C888 1.409 . S
C889 H911 0.930 . S
C890 O900 1.270 . S
C890 O901 1.248 . S
C891 O902 1.267 . S
C891 O903 1.278 . S
O892 Pr872 2.562 . S
O892 C874 1.254 . S
O893 Pr872 2.490 . S
O893 C874 1.225 . S
O894 Pr872 2.695 . S
O894 Pr873 2.436 . S
O894 C881 1.270 . S
O895 Pr872 2.512 . S
O895 C881 1.248 . S
O896 Pr873 2.438 . S
O896 C882 1.267 . S
O897 Pr872 2.437 . S
O897 C882 1.278 . S
O898 Pr873 2.562 . S
O898 C883 1.254 . S
O899 Pr873 2.490 . S
O899 C883 1.225 . S
O900 Pr872 2.436 . S
O900 Pr873 2.695 . S
O900 C890 1.270 . S
O901 Pr873 2.512 . S
O901 C890 1.248 . S
O902 Pr872 2.438 . S
O902 C891 1.267 . S
O903 Pr873 2.437 . S
O903 C891 1.278 . S
H904 C876 0.929 . S
H905 C877 0.929 . S
H906 C879 0.931 . S
H907 C880 0.930 . S
H908 C885 0.929 . S
H909 C886 0.929 . S
H910 C888 0.931 . S
H911 C889 0.930 . S
Pr912 C914 2.880 . S
Pr912 O932 2.562 . S
Pr912 O933 2.490 1_554 S
Pr912 O934 2.700 . S
Pr912 O935 2.512 1_554 S
Pr912 O937 2.437 1_554 S
Pr912 O940 2.436 . S
Pr912 O942 2.438 . S
Pr913 C923 2.880 1_455 S
Pr913 O934 2.454 . S
Pr913 O936 2.438 . S
Pr913 O938 2.562 1_455 S
Pr913 O939 2.490 1_455 S
Pr913 O940 2.695 . S
Pr913 O941 2.512 . S
Pr913 O943 2.437 . S
C914 Pr912 2.880 . S
C914 C915 1.491 . S
C914 O932 1.254 . S
C914 O933 1.225 1_554 S
C915 C914 1.491 . S
C915 C916 1.392 1_554 S
C915 C920 1.356 . S
C916 C915 1.392 1_556 S
C916 C917 1.368 . S
C916 H944 0.929 . S
C917 C916 1.368 . S
C917 C918 1.386 . S
C917 H945 0.929 . S
C918 C917 1.386 . S
C918 C919 1.373 1_556 S
C919 C918 1.373 1_554 S
C919 C920 1.409 . S
C919 H946 0.931 . S
C920 C915 1.356 . S
C920 C919 1.409 . S
C920 H947 0.930 . S
C921 O934 1.248 1_556 S
C921 O935 1.248 . S
C922 O936 1.267 . S
C922 O937 1.278 1_554 S
C923 Pr913 2.880 1_655 S
C923 C924 1.491 . S
C923 O938 1.254 . S
C923 O939 1.225 . S
C924 C923 1.491 . S
C924 C925 1.392 . S
C924 C929 1.356 . S
C925 C924 1.392 . S
C925 C926 1.368 . S
C925 H948 0.929 . S
C926 C925 1.368 . S
C926 C927 1.386 . S
C926 H949 0.929 . S
C927 C926 1.386 . S
C927 C928 1.373 . S
C928 C927 1.373 . S
C928 C929 1.409 . S
C928 H950 0.931 . S
C929 C924 1.356 . S
C929 C928 1.409 . S
C929 H951 0.930 . S
C930 O940 1.270 . S
C930 O941 1.248 . S
C931 O942 1.267 . S
C931 O943 1.278 . S
O932 Pr912 2.562 . S
O932 C914 1.254 . S
O933 Pr912 2.490 1_556 S
O933 C914 1.225 1_556 S
O934 Pr912 2.700 . S
O934 Pr913 2.454 . S
O934 C921 1.248 1_554 S
O935 Pr912 2.512 1_556 S
O935 C921 1.248 . S
O936 Pr913 2.438 . S
O936 C922 1.267 . S
O937 Pr912 2.437 1_556 S
O937 C922 1.278 1_556 S
O938 Pr913 2.562 1_655 S
O938 C923 1.254 . S
O939 Pr913 2.490 1_655 S
O939 C923 1.225 . S
O940 Pr912 2.436 . S
O940 Pr913 2.695 . S
O940 C930 1.270 . S
O941 Pr913 2.512 . S
O941 C930 1.248 . S
O942 Pr912 2.438 . S
O942 C931 1.267 . S
O943 Pr913 2.437 . S
O943 C931 1.278 . S
H944 C916 0.929 . S
H945 C917 0.929 . S
H946 C919 0.931 . S
H947 C920 0.930 . S
H948 C925 0.929 . S
H949 C926 0.929 . S
H950 C928 0.931 . S
H951 C929 0.930 . S
H952 C960 0.950 . S
H953 C965 0.950 1_655 S
H954 C962 0.950 . S
H955 C964 0.950 1_655 S
H956 C966 0.950 . S
H957 C968 0.950 1_655 S
H958 C970 0.950 . S
H959 C971 0.950 1_554 S
C960 H952 0.950 . S
C960 C961 1.386 . S
C960 C962 1.391 . S
C961 C960 1.386 . S
C961 C965 1.393 . S
C962 H954 0.950 . S
C962 C960 1.391 . S
C962 C963 1.400 . S
C963 C962 1.400 . S
C963 C964 1.398 . S
C963 C969 1.491 . S
C964 H955 0.950 1_455 S
C964 C963 1.398 . S
C964 C965 1.391 . S
C965 H953 0.950 1_455 S
C965 C961 1.393 . S
C965 C964 1.391 . S
C966 H956 0.950 . S
C966 C967 1.386 . S
C966 C968 1.391 1_554 S
C967 C966 1.386 . S
C967 C971 1.379 1_554 S
C968 H957 0.950 1_455 S
C968 C966 1.391 1_556 S
C968 C969 1.400 . S
C969 C963 1.491 . S
C969 C968 1.400 . S
C969 C970 1.398 . S
C970 H958 0.950 . S
C970 C969 1.398 . S
C970 C971 1.406 . S
C971 H959 0.950 1_556 S
C971 C967 1.379 1_556 S
C971 C970 1.406 . S
H972 C980 0.950 . S
H973 C985 0.950 . S
H974 C982 0.950 . S
H975 C984 0.950 . S
H976 C986 0.950 . S
H977 C988 0.950 . S
H978 C990 0.950 . S
H979 C991 0.950 . S
C980 H972 0.950 . S
C980 C981 1.386 . S
C980 C982 1.391 . S
C981 C980 1.386 . S
C981 C985 1.393 . S
C982 H974 0.950 . S
C982 C980 1.391 . S
C982 C983 1.400 . S
C983 C982 1.400 . S
C983 C984 1.398 . S
C983 C989 1.491 . S
C984 H975 0.950 . S
C984 C983 1.398 . S
C984 C985 1.391 . S
C985 H973 0.950 . S
C985 C981 1.393 . S
C985 C984 1.391 . S
C986 H976 0.950 . S
C986 C987 1.386 . S
C986 C988 1.391 . S
C987 C986 1.386 . S
C987 C991 1.393 . S
C988 H977 0.950 . S
C988 C986 1.391 . S
C988 C989 1.400 . S
C989 C983 1.491 . S
C989 C988 1.400 . S
C989 C990 1.398 . S
C990 H978 0.950 . S
C990 C989 1.398 . S
C990 C991 1.391 . S
C991 H979 0.950 . S
C991 C987 1.393 . S
C991 C990 1.391 . S
H992 C1000 0.950 . S
H993 C1005 0.950 . S
H994 C1002 0.950 . S
H995 C1004 0.950 . S
H996 C1006 0.950 . S
H997 C1008 0.950 . S
H998 C1010 0.950 . S
H999 C1011 0.950 1_545 S
C1000 H992 0.950 . S
C1000 C1001 1.386 . S
C1000 C1002 1.391 . S
C1001 C1000 1.386 . S
C1001 C1005 1.393 . S
C1002 H994 0.950 . S
C1002 C1000 1.391 . S
C1002 C1003 1.400 . S
C1003 C1002 1.400 . S
C1003 C1004 1.398 . S
C1003 C1009 1.491 . S
C1004 H995 0.950 . S
C1004 C1003 1.398 . S
C1004 C1005 1.391 . S
C1005 H993 0.950 . S
C1005 C1001 1.393 . S
C1005 C1004 1.391 . S
C1006 H996 0.950 . S
C1006 C1007 1.386 1_565 S
C1006 C1008 1.391 . S
C1007 C1006 1.386 1_545 S
C1007 C1011 1.393 1_545 S
C1008 H997 0.950 . S
C1008 C1006 1.391 . S
C1008 C1009 1.400 . S
C1009 C1003 1.491 . S
C1009 C1008 1.400 . S
C1009 C1010 1.398 . S
C1010 H998 0.950 . S
C1010 C1009 1.398 . S
C1010 C1011 1.391 . S
C1011 H999 0.950 1_565 S
C1011 C1007 1.393 1_565 S
C1011 C1010 1.391 . S
H1012 C1020 0.950 . S
H1013 C1025 0.950 . S
H1014 C1022 0.950 . S
H1015 C1024 0.950 . S
H1016 C1026 0.950 . S
H1017 C1028 0.950 . S
H1018 C1030 0.950 . S
H1019 C1031 0.950 . S
C1020 H1012 0.950 . S
C1020 C1021 1.386 . S
C1020 C1022 1.391 . S
C1021 C1020 1.386 . S
C1021 C1025 1.393 . S
C1022 H1014 0.950 . S
C1022 C1020 1.391 . S
C1022 C1023 1.400 . S
C1023 C1022 1.400 . S
C1023 C1024 1.398 . S
C1023 C1029 1.491 . S
C1024 H1015 0.950 . S
C1024 C1023 1.398 . S
C1024 C1025 1.391 . S
C1025 H1013 0.950 . S
C1025 C1021 1.393 . S
C1025 C1024 1.391 . S
C1026 H1016 0.950 . S
C1026 C1027 1.386 . S
C1026 C1028 1.391 . S
C1027 C1026 1.386 . S
C1027 C1031 1.393 . S
C1028 H1017 0.950 . S
C1028 C1026 1.391 . S
C1028 C1029 1.400 . S
C1029 C1023 1.491 . S
C1029 C1028 1.400 . S
C1029 C1030 1.398 . S
C1030 H1018 0.950 . S
C1030 C1029 1.398 . S
C1030 C1031 1.391 . S
C1031 H1019 0.950 . S
C1031 C1027 1.393 . S
C1031 C1030 1.391 . S
H1032 C1040 0.950 . S
H1033 C1045 0.950 . S
H1034 C1042 0.950 . S
H1035 C1044 0.950 . S
H1036 C1046 0.933 1_545 S
H1037 C1048 0.950 . S
H1038 C1050 0.950 . S
H1039 C1051 0.950 . S
C1040 H1032 0.950 . S
C1040 C1041 1.386 . S
C1040 C1042 1.391 . S
C1041 C1040 1.386 . S
C1041 C1045 1.393 . S
C1042 H1034 0.950 . S
C1042 C1040 1.391 . S
C1042 C1043 1.400 . S
C1043 C1042 1.400 . S
C1043 C1044 1.398 . S
C1043 C1049 1.491 . S
C1044 H1035 0.950 . S
C1044 C1043 1.398 . S
C1044 C1045 1.391 . S
C1045 H1033 0.950 . S
C1045 C1041 1.393 . S
C1045 C1044 1.391 . S
C1046 H1036 0.933 1_565 S
C1046 C1047 1.373 1_565 S
C1046 C1048 1.421 . S
C1047 C1046 1.373 1_545 S
C1047 C1051 1.393 . S
C1048 H1037 0.950 . S
C1048 C1046 1.421 . S
C1048 C1049 1.400 . S
C1049 C1043 1.491 . S
C1049 C1048 1.400 . S
C1049 C1050 1.398 . S
C1050 H1038 0.950 . S
C1050 C1049 1.398 . S
C1050 C1051 1.391 1_565 S
C1051 H1039 0.950 . S
C1051 C1047 1.393 . S
C1051 C1050 1.391 1_545 S
H1052 C1060 0.950 . S
H1053 C1065 0.950 . S
H1054 C1062 0.950 . S
H1055 C1064 0.950 . S
H1056 C1066 0.950 . S
H1057 C1068 0.950 . S
H1058 C1070 0.950 . S
H1059 C1071 0.950 . S
C1060 H1052 0.950 . S
C1060 C1061 1.386 . S
C1060 C1062 1.391 . S
C1061 C1060 1.386 . S
C1061 C1065 1.393 . S
C1062 H1054 0.950 . S
C1062 C1060 1.391 . S
C1062 C1063 1.400 . S
C1063 C1062 1.400 . S
C1063 C1064 1.398 . S
C1063 C1069 1.491 . S
C1064 H1055 0.950 . S
C1064 C1063 1.398 . S
C1064 C1065 1.391 . S
C1065 H1053 0.950 . S
C1065 C1061 1.393 . S
C1065 C1064 1.391 . S
C1066 H1056 0.950 . S
C1066 C1067 1.386 . S
C1066 C1068 1.391 . S
C1067 C1066 1.386 . S
C1067 C1071 1.393 . S
C1068 H1057 0.950 . S
C1068 C1066 1.391 . S
C1068 C1069 1.400 . S
C1069 C1063 1.491 . S
C1069 C1068 1.400 . S
C1069 C1070 1.398 . S
C1070 H1058 0.950 . S
C1070 C1069 1.398 . S
C1070 C1071 1.391 . S
C1071 H1059 0.950 . S
C1071 C1067 1.393 . S
C1071 C1070 1.391 . S
H1072 C1080 0.950 . S
H1073 C1085 0.950 . S
H1074 C1082 0.950 . S
H1075 C1084 0.950 . S
H1076 C1086 0.950 . S
H1077 C1088 0.950 . S
H1078 C1090 0.950 . S
H1079 C1091 0.950 . S
C1080 H1072 0.950 . S
C1080 C1081 1.386 . S
C1080 C1082 1.391 . S
C1081 C1080 1.386 . S
C1081 C1085 1.393 . S
C1082 H1074 0.950 . S
C1082 C1080 1.391 . S
C1082 C1083 1.400 . S
C1083 C1082 1.400 . S
C1083 C1084 1.398 . S
C1083 C1089 1.491 . S
C1084 H1075 0.950 . S
C1084 C1083 1.398 . S
C1084 C1085 1.391 . S
C1085 H1073 0.950 . S
C1085 C1081 1.393 . S
C1085 C1084 1.391 . S
C1086 H1076 0.950 . S
C1086 C1087 1.386 . S
C1086 C1088 1.391 . S
C1087 C1086 1.386 . S
C1087 C1091 1.393 . S
C1088 H1077 0.950 . S
C1088 C1086 1.391 . S
C1088 C1089 1.400 . S
C1089 C1083 1.491 . S
C1089 C1088 1.400 . S
C1089 C1090 1.398 . S
C1090 H1078 0.950 . S
C1090 C1089 1.398 . S
C1090 C1091 1.391 . S
C1091 H1079 0.950 . S
C1091 C1087 1.393 . S
C1091 C1090 1.391 . S
H1092 C1100 0.950 . S
H1093 C1105 0.950 . S
H1094 C1102 0.950 . S
H1095 C1104 0.950 . S
H1096 C1106 0.950 . S
H1097 C1108 0.950 . S
H1098 C1110 0.950 . S
H1099 C1111 0.950 . S
C1100 H1092 0.950 . S
C1100 C1101 1.386 . S
C1100 C1102 1.391 . S
C1101 C1100 1.386 . S
C1101 C1105 1.393 . S
C1102 H1094 0.950 . S
C1102 C1100 1.391 . S
C1102 C1103 1.400 . S
C1103 C1102 1.400 . S
C1103 C1104 1.398 . S
C1103 C1109 1.491 . S
C1104 H1095 0.950 . S
C1104 C1103 1.398 . S
C1104 C1105 1.391 . S
C1105 H1093 0.950 . S
C1105 C1101 1.393 . S
C1105 C1104 1.391 . S
C1106 H1096 0.950 . S
C1106 C1107 1.386 . S
C1106 C1108 1.391 . S
C1107 C1106 1.386 . S
C1107 C1111 1.393 . S
C1108 H1097 0.950 . S
C1108 C1106 1.391 . S
C1108 C1109 1.400 . S
C1109 C1103 1.491 . S
C1109 C1108 1.400 . S
C1109 C1110 1.398 . S
C1110 H1098 0.950 . S
C1110 C1109 1.398 . S
C1110 C1111 1.391 . S
C1111 H1099 0.950 . S
C1111 C1107 1.393 . S
C1111 C1110 1.391 . S
H1112 C1120 0.950 . S
H1113 C1125 0.950 . S
H1114 C1122 0.950 . S
H1115 C1124 0.950 . S
H1116 C1126 0.950 . S
H1117 C1128 0.950 . S
H1118 C1130 0.950 . S
H1119 C1131 0.950 . S
C1120 H1112 0.950 . S
C1120 C1121 1.386 . S
C1120 C1122 1.391 . S
C1121 C1120 1.386 . S
C1121 C1125 1.393 . S
C1122 H1114 0.950 . S
C1122 C1120 1.391 . S
C1122 C1123 1.400 . S
C1123 C1122 1.400 . S
C1123 C1124 1.398 . S
C1123 C1129 1.491 . S
C1124 H1115 0.950 . S
C1124 C1123 1.398 . S
C1124 C1125 1.391 . S
C1125 H1113 0.950 . S
C1125 C1121 1.393 . S
C1125 C1124 1.391 . S
C1126 H1116 0.950 . S
C1126 C1127 1.386 . S
C1126 C1128 1.391 . S
C1127 C1126 1.386 . S
C1127 C1131 1.393 . S
C1128 H1117 0.950 . S
C1128 C1126 1.391 . S
C1128 C1129 1.400 1_455 S
C1129 C1123 1.491 . S
C1129 C1128 1.400 1_655 S
C1129 C1130 1.398 . S
C1130 H1118 0.950 . S
C1130 C1129 1.398 . S
C1130 C1131 1.391 1_655 S
C1131 H1119 0.950 . S
C1131 C1127 1.393 . S
C1131 C1130 1.391 1_455 S
H1132 C1140 0.950 . S
H1133 C1145 0.950 . S
H1134 C1142 0.950 . S
H1135 C1144 0.950 . S
H1136 C1146 0.950 . S
H1137 C1148 0.950 . S
H1138 C1150 0.950 . S
H1139 C1151 0.950 . S
C1140 H1132 0.950 . S
C1140 C1141 1.386 . S
C1140 C1142 1.391 . S
C1141 C1140 1.386 . S
C1141 C1145 1.393 . S
C1142 H1134 0.950 . S
C1142 C1140 1.391 . S
C1142 C1143 1.400 . S
C1143 C1142 1.400 . S
C1143 C1144 1.398 . S
C1143 C1149 1.491 . S
C1144 H1135 0.950 . S
C1144 C1143 1.398 . S
C1144 C1145 1.391 . S
C1145 H1133 0.950 . S
C1145 C1141 1.393 . S
C1145 C1144 1.391 . S
C1146 H1136 0.950 . S
C1146 C1147 1.386 . S
C1146 C1148 1.391 . S
C1147 C1146 1.386 . S
C1147 C1151 1.393 . S
C1148 H1137 0.950 . S
C1148 C1146 1.391 . S
C1148 C1149 1.400 . S
C1149 C1143 1.491 . S
C1149 C1148 1.400 . S
C1149 C1150 1.398 . S
C1150 H1138 0.950 . S
C1150 C1149 1.398 . S
C1150 C1151 1.391 . S
C1151 H1139 0.950 . S
C1151 C1147 1.393 . S
C1151 C1150 1.391 . S
H1152 C1160 0.950 1_565 S
H1153 C1165 0.950 . S
H1154 C1162 0.950 . S
H1155 C1164 0.950 . S
H1156 C1166 0.950 . S
H1157 C1168 0.950 . S
H1158 C1170 0.950 . S
H1159 C1171 0.950 . S
C1160 H1152 0.950 1_545 S
C1160 C1161 1.386 . S
C1160 C1162 1.391 . S
C1161 C1160 1.386 . S
C1161 C1165 1.393 . S
C1162 H1154 0.950 . S
C1162 C1160 1.391 . S
C1162 C1163 1.400 . S
C1163 C1162 1.400 . S
C1163 C1164 1.398 . S
C1163 C1169 1.491 . S
C1164 H1155 0.950 . S
C1164 C1163 1.398 . S
C1164 C1165 1.391 . S
C1165 H1153 0.950 . S
C1165 C1161 1.393 . S
C1165 C1164 1.391 . S
C1166 H1156 0.950 . S
C1166 C1167 1.386 . S
C1166 C1168 1.391 . S
C1167 C1166 1.386 . S
C1167 C1171 1.393 . S
C1168 H1157 0.950 . S
C1168 C1166 1.391 . S
C1168 C1169 1.400 . S
C1169 C1163 1.491 . S
C1169 C1168 1.400 . S
C1169 C1170 1.398 . S
C1170 H1158 0.950 . S
C1170 C1169 1.398 . S
C1170 C1171 1.391 . S
C1171 H1159 0.950 . S
C1171 C1167 1.393 . S
C1171 C1170 1.391 . S
H1172 C1180 0.950 . S
H1173 C1185 0.950 . S
H1174 C1182 0.950 . S
H1175 C1184 0.950 . S
H1176 C1186 0.950 . S
H1177 C1188 0.950 . S
H1178 C1190 0.950 . S
H1179 C1191 0.950 . S
C1180 H1172 0.950 . S
C1180 C1181 1.386 . S
C1180 C1182 1.391 . S
C1181 C1180 1.386 . S
C1181 C1185 1.393 . S
C1182 H1174 0.950 . S
C1182 C1180 1.391 . S
C1182 C1183 1.400 . S
C1183 C1182 1.400 . S
C1183 C1184 1.398 . S
C1183 C1189 1.491 . S
C1184 H1175 0.950 . S
C1184 C1183 1.398 . S
C1184 C1185 1.391 . S
C1185 H1173 0.950 . S
C1185 C1181 1.393 . S
C1185 C1184 1.391 . S
C1186 H1176 0.950 . S
C1186 C1187 1.386 . S
C1186 C1188 1.391 . S
C1187 C1186 1.386 . S
C1187 C1191 1.393 . S
C1188 H1177 0.950 . S
C1188 C1186 1.391 . S
C1188 C1189 1.400 . S
C1189 C1183 1.491 . S
C1189 C1188 1.400 . S
C1189 C1190 1.398 . S
C1190 H1178 0.950 . S
C1190 C1189 1.398 . S
C1190 C1191 1.391 . S
C1191 H1179 0.950 . S
C1191 C1187 1.393 . S
C1191 C1190 1.391 . S
H1192 C1200 0.950 . S
H1193 C1205 0.950 . S
H1194 C1202 0.950 . S
H1195 C1204 0.950 . S
H1196 C1206 0.950 . S
H1197 C1208 0.950 1_455 S
H1198 C1210 0.950 . S
H1199 C1211 0.950 . S
C1200 H1192 0.950 . S
C1200 C1201 1.386 . S
C1200 C1202 1.391 . S
C1201 C1200 1.386 . S
C1201 C1205 1.393 . S
C1202 H1194 0.950 . S
C1202 C1200 1.391 . S
C1202 C1203 1.400 . S
C1203 C1202 1.400 . S
C1203 C1204 1.398 . S
C1203 C1209 1.491 . S
C1204 H1195 0.950 . S
C1204 C1203 1.398 . S
C1204 C1205 1.391 . S
C1205 H1193 0.950 . S
C1205 C1201 1.393 . S
C1205 C1204 1.391 . S
C1206 H1196 0.950 . S
C1206 C1207 1.386 1_455 S
C1206 C1208 1.391 1_455 S
C1207 C1206 1.386 1_655 S
C1207 C1211 1.393 . S
C1208 H1197 0.950 1_655 S
C1208 C1206 1.391 1_655 S
C1208 C1209 1.400 . S
C1209 C1203 1.491 . S
C1209 C1208 1.400 . S
C1209 C1210 1.398 . S
C1210 H1198 0.950 . S
C1210 C1209 1.398 . S
C1210 C1211 1.391 . S
C1211 H1199 0.950 . S
C1211 C1207 1.393 . S
C1211 C1210 1.391 . S
H1212 C1220 0.950 . S
H1213 C1225 0.950 . S
H1214 C1222 0.950 . S
H1215 C1224 0.950 . S
H1216 C1226 0.950 . S
H1217 C1228 0.950 . S
H1218 C1230 0.950 . S
H1219 C1231 0.950 . S
C1220 H1212 0.950 . S
C1220 C1221 1.386 . S
C1220 C1222 1.391 . S
C1221 C1220 1.386 . S
C1221 C1225 1.393 . S
C1222 H1214 0.950 . S
C1222 C1220 1.391 . S
C1222 C1223 1.400 . S
C1223 C1222 1.400 . S
C1223 C1224 1.398 . S
C1223 C1229 1.491 . S
C1224 H1215 0.950 . S
C1224 C1223 1.398 . S
C1224 C1225 1.391 . S
C1225 H1213 0.950 . S
C1225 C1221 1.393 . S
C1225 C1224 1.391 . S
C1226 H1216 0.950 . S
C1226 C1227 1.386 . S
C1226 C1228 1.391 . S
C1227 C1226 1.386 . S
C1227 C1231 1.393 . S
C1228 H1217 0.950 . S
C1228 C1226 1.391 . S
C1228 C1229 1.400 . S
C1229 C1223 1.491 . S
C1229 C1228 1.400 . S
C1229 C1230 1.398 . S
C1230 H1218 0.950 . S
C1230 C1229 1.398 . S
C1230 C1231 1.391 . S
C1231 H1219 0.950 . S
C1231 C1227 1.393 . S
C1231 C1230 1.391 . S
H1232 C1240 0.950 . S
H1233 C1245 0.950 . S
H1234 C1242 0.950 . S
H1235 C1244 0.950 . S
H1236 C1246 0.950 . S
H1237 C1248 0.950 . S
H1238 C1250 0.950 . S
H1239 C1251 0.950 . S
C1240 H1232 0.950 . S
C1240 C1241 1.386 . S
C1240 C1242 1.391 . S
C1241 C1240 1.386 . S
C1241 C1245 1.393 1_545 S
C1242 H1234 0.950 . S
C1242 C1240 1.391 . S
C1242 C1243 1.400 . S
C1243 C1242 1.400 . S
C1243 C1244 1.398 . S
C1243 C1249 1.491 . S
C1244 H1235 0.950 . S
C1244 C1243 1.398 . S
C1244 C1245 1.391 1_545 S
C1245 H1233 0.950 . S
C1245 C1241 1.393 1_565 S
C1245 C1244 1.391 1_565 S
C1246 H1236 0.950 . S
C1246 C1247 1.386 . S
C1246 C1248 1.391 . S
C1247 C1246 1.386 . S
C1247 C1251 1.393 . S
C1248 H1237 0.950 . S
C1248 C1246 1.391 . S
C1248 C1249 1.400 . S
C1249 C1243 1.491 . S
C1249 C1248 1.400 . S
C1249 C1250 1.398 . S
C1250 H1238 0.950 . S
C1250 C1249 1.398 . S
C1250 C1251 1.391 . S
C1251 H1239 0.950 . S
C1251 C1247 1.393 . S
C1251 C1250 1.391 . S
H1252 C1260 0.950 . S
H1253 C1265 0.950 . S
H1254 C1262 0.950 . S
H1255 C1264 0.950 . S
H1256 C1266 0.950 . S
H1257 C1268 0.950 . S
H1258 C1270 0.950 . S
H1259 C1271 0.950 . S
C1260 H1252 0.950 . S
C1260 C1261 1.386 . S
C1260 C1262 1.391 . S
C1261 C1260 1.386 . S
C1261 C1265 1.393 . S
C1262 H1254 0.950 . S
C1262 C1260 1.391 . S
C1262 C1263 1.400 . S
C1263 C1262 1.400 . S
C1263 C1264 1.398 . S
C1263 C1269 1.491 . S
C1264 H1255 0.950 . S
C1264 C1263 1.398 . S
C1264 C1265 1.391 . S
C1265 H1253 0.950 . S
C1265 C1261 1.393 . S
C1265 C1264 1.391 . S
C1266 H1256 0.950 . S
C1266 C1267 1.386 . S
C1266 C1268 1.391 . S
C1267 C1266 1.386 . S
C1267 C1271 1.393 . S
C1268 H1257 0.950 . S
C1268 C1266 1.391 . S
C1268 C1269 1.400 . S
C1269 C1263 1.491 . S
C1269 C1268 1.400 . S
C1269 C1270 1.398 . S
C1270 H1258 0.950 . S
C1270 C1269 1.398 . S
C1270 C1271 1.391 . S
C1271 H1259 0.950 . S
C1271 C1267 1.393 . S
C1271 C1270 1.391 . S
H1272 C1280 0.950 1_545 S
H1273 C1285 0.950 . S
H1274 C1282 0.950 . S
H1275 C1284 0.950 . S
H1276 C1286 0.950 1_565 S
H1277 C1288 0.950 . S
H1278 C1290 0.950 . S
H1279 C1291 0.950 . S
C1280 H1272 0.950 1_565 S
C1280 C1281 1.386 . S
C1280 C1282 1.391 1_565 S
C1281 C1280 1.386 . S
C1281 C1285 1.393 . S
C1282 H1274 0.950 . S
C1282 C1280 1.391 1_545 S
C1282 C1283 1.400 1_545 S
C1283 C1282 1.400 1_565 S
C1283 C1284 1.398 . S
C1283 C1289 1.491 1_565 S
C1284 H1275 0.950 . S
C1284 C1283 1.398 . S
C1284 C1285 1.391 . S
C1285 H1273 0.950 . S
C1285 C1281 1.393 . S
C1285 C1284 1.391 . S
C1286 H1276 0.950 1_545 S
C1286 C1287 1.386 . S
C1286 C1288 1.391 1_545 S
C1287 C1286 1.386 . S
C1287 C1291 1.393 . S
C1288 H1277 0.950 . S
C1288 C1286 1.391 1_565 S
C1288 C1289 1.400 1_565 S
C1289 C1283 1.491 1_545 S
C1289 C1288 1.400 1_545 S
C1289 C1290 1.398 . S
C1290 H1278 0.950 . S
C1290 C1289 1.398 . S
C1290 C1291 1.391 . S
C1291 H1279 0.950 . S
C1291 C1287 1.393 . S
C1291 C1290 1.391 . S
H1292 C1300 0.950 . S
H1293 C1305 0.955 . S
H1294 C1302 0.950 . S
H1295 C1304 0.950 1_556 S
H1296 C1306 0.950 1_556 S
H1297 C1308 0.950 1_556 S
H1298 C1310 0.950 . S
H1299 C1311 0.950 . S
C1300 H1292 0.950 . S
C1300 C1301 1.386 . S
C1300 C1302 1.391 . S
C1301 C1300 1.386 . S
C1301 C1305 1.390 1_554 S
C1302 H1294 0.950 . S
C1302 C1300 1.391 . S
C1302 C1303 1.400 . S
C1303 C1302 1.400 . S
C1303 C1304 1.398 . S
C1303 C1309 1.491 . S
C1304 H1295 0.950 1_554 S
C1304 C1303 1.398 . S
C1304 C1305 1.389 1_554 S
C1305 H1293 0.955 . S
C1305 C1301 1.390 1_556 S
C1305 C1304 1.389 1_556 S
C1306 H1296 0.950 1_554 S
C1306 C1307 1.386 . S
C1306 C1308 1.391 . S
C1307 C1306 1.386 . S
C1307 C1311 1.393 . S
C1308 H1297 0.950 1_554 S
C1308 C1306 1.391 . S
C1308 C1309 1.400 . S
C1309 C1303 1.491 . S
C1309 C1308 1.400 . S
C1309 C1310 1.398 . S
C1310 H1298 0.950 . S
C1310 C1309 1.398 . S
C1310 C1311 1.391 . S
C1311 H1299 0.950 . S
C1311 C1307 1.393 . S
C1311 C1310 1.391 . S
H1312 C1320 0.950 . S
H1313 C1325 0.950 . S
H1314 C1322 0.950 . S
H1315 C1324 0.950 . S
H1316 C1326 0.950 . S
H1317 C1328 0.950 . S
H1318 C1330 0.950 . S
H1319 C1331 0.950 . S
C1320 H1312 0.950 . S
C1320 C1321 1.386 . S
C1320 C1322 1.391 . S
C1321 C1320 1.386 . S
C1321 C1325 1.393 . S
C1322 H1314 0.950 . S
C1322 C1320 1.391 . S
C1322 C1323 1.400 . S
C1323 C1322 1.400 . S
C1323 C1324 1.398 . S
C1323 C1329 1.491 . S
C1324 H1315 0.950 . S
C1324 C1323 1.398 . S
C1324 C1325 1.391 . S
C1325 H1313 0.950 . S
C1325 C1321 1.393 . S
C1325 C1324 1.391 . S
C1326 H1316 0.950 . S
C1326 C1327 1.386 . S
C1326 C1328 1.391 . S
C1327 C1326 1.386 . S
C1327 C1331 1.393 . S
C1328 H1317 0.950 . S
C1328 C1326 1.391 . S
C1328 C1329 1.400 . S
C1329 C1323 1.491 . S
C1329 C1328 1.400 . S
C1329 C1330 1.398 . S
C1330 H1318 0.950 . S
C1330 C1329 1.398 . S
C1330 C1331 1.391 . S
C1331 H1319 0.950 . S
C1331 C1327 1.393 . S
C1331 C1330 1.391 . S
H1332 C1340 0.950 . S
H1333 C1345 0.950 . S
H1334 C1342 0.950 . S
H1335 C1344 0.950 . S
H1336 C1346 0.950 . S
H1337 C1348 0.950 . S
H1338 C1350 0.950 . S
H1339 C1351 0.950 . S
C1340 H1332 0.950 . S
C1340 C1341 1.386 . S
C1340 C1342 1.391 . S
C1341 C1340 1.386 . S
C1341 C1345 1.393 . S
C1342 H1334 0.950 . S
C1342 C1340 1.391 . S
C1342 C1343 1.400 . S
C1343 C1342 1.400 . S
C1343 C1344 1.398 . S
C1343 C1349 1.491 . S
C1344 H1335 0.950 . S
C1344 C1343 1.398 . S
C1344 C1345 1.391 . S
C1345 H1333 0.950 . S
C1345 C1341 1.393 . S
C1345 C1344 1.391 . S
C1346 H1336 0.950 . S
C1346 C1347 1.386 . S
C1346 C1348 1.391 . S
C1347 C1346 1.386 . S
C1347 C1351 1.393 . S
C1348 H1337 0.950 . S
C1348 C1346 1.391 . S
C1348 C1349 1.400 . S
C1349 C1343 1.491 . S
C1349 C1348 1.400 . S
C1349 C1350 1.398 . S
C1350 H1338 0.950 . S
C1350 C1349 1.398 . S
C1350 C1351 1.391 . S
C1351 H1339 0.950 . S
C1351 C1347 1.393 . S
C1351 C1350 1.391 . S
H1352 C1360 0.950 . S
H1353 C1365 0.950 . S
H1354 C1362 0.950 . S
H1355 C1364 0.950 . S
H1356 C1366 0.950 . S
H1357 C1368 0.950 . S
H1358 C1370 0.950 . S
H1359 C1371 0.950 . S
C1360 H1352 0.950 . S
C1360 C1361 1.386 . S
C1360 C1362 1.391 . S
C1361 C1360 1.386 . S
C1361 C1365 1.393 . S
C1362 H1354 0.950 . S
C1362 C1360 1.391 . S
C1362 C1363 1.400 . S
C1363 C1362 1.400 . S
C1363 C1364 1.398 . S
C1363 C1369 1.491 . S
C1364 H1355 0.950 . S
C1364 C1363 1.398 . S
C1364 C1365 1.391 . S
C1365 H1353 0.950 . S
C1365 C1361 1.393 . S
C1365 C1364 1.391 . S
C1366 H1356 0.950 . S
C1366 C1367 1.386 . S
C1366 C1368 1.391 . S
C1367 C1366 1.386 . S
C1367 C1371 1.393 . S
C1368 H1357 0.950 . S
C1368 C1366 1.391 . S
C1368 C1369 1.400 . S
C1369 C1363 1.491 . S
C1369 C1368 1.400 . S
C1369 C1370 1.398 . S
C1370 H1358 0.950 . S
C1370 C1369 1.398 . S
C1370 C1371 1.391 . S
C1371 H1359 0.950 . S
C1371 C1367 1.393 . S
C1371 C1370 1.391 . S
H1372 C1380 0.950 . S
H1373 C1385 0.950 . S
H1374 C1382 0.950 . S
H1375 C1384 0.950 . S
H1376 C1386 0.950 . S
H1377 C1388 0.950 . S
H1378 C1390 0.950 . S
H1379 C1391 0.950 . S
C1380 H1372 0.950 . S
C1380 C1381 1.386 . S
C1380 C1382 1.391 . S
C1381 C1380 1.386 . S
C1381 C1385 1.393 . S
C1382 H1374 0.950 . S
C1382 C1380 1.391 . S
C1382 C1383 1.400 . S
C1383 C1382 1.400 . S
C1383 C1384 1.398 . S
C1383 C1389 1.491 . S
C1384 H1375 0.950 . S
C1384 C1383 1.398 . S
C1384 C1385 1.391 . S
C1385 H1373 0.950 . S
C1385 C1381 1.393 . S
C1385 C1384 1.391 . S
C1386 H1376 0.950 . S
C1386 C1387 1.386 . S
C1386 C1388 1.391 . S
C1387 C1386 1.386 . S
C1387 C1391 1.393 . S
C1388 H1377 0.950 . S
C1388 C1386 1.391 . S
C1388 C1389 1.400 . S
C1389 C1383 1.491 . S
C1389 C1388 1.400 . S
C1389 C1390 1.398 . S
C1390 H1378 0.950 . S
C1390 C1389 1.398 . S
C1390 C1391 1.391 . S
C1391 H1379 0.950 . S
C1391 C1387 1.393 . S
C1391 C1390 1.391 . S
H1392 C1400 0.950 . S
H1393 C1405 0.950 . S
H1394 C1402 0.950 . S
H1395 C1404 0.950 . S
H1396 C1406 0.950 . S
H1397 C1408 0.950 . S
H1398 C1410 0.950 . S
H1399 C1411 0.950 . S
C1400 H1392 0.950 . S
C1400 C1401 1.386 . S
C1400 C1402 1.391 . S
C1401 C1400 1.386 . S
C1401 C1405 1.393 . S
C1402 H1394 0.950 . S
C1402 C1400 1.391 . S
C1402 C1403 1.400 . S
C1403 C1402 1.400 . S
C1403 C1404 1.398 . S
C1403 C1409 1.491 . S
C1404 H1395 0.950 . S
C1404 C1403 1.398 . S
C1404 C1405 1.391 . S
C1405 H1393 0.950 . S
C1405 C1401 1.393 . S
C1405 C1404 1.391 . S
C1406 H1396 0.950 . S
C1406 C1407 1.386 . S
C1406 C1408 1.391 . S
C1407 C1406 1.386 . S
C1407 C1411 1.393 . S
C1408 H1397 0.950 . S
C1408 C1406 1.391 . S
C1408 C1409 1.400 . S
C1409 C1403 1.491 . S
C1409 C1408 1.400 . S
C1409 C1410 1.398 . S
C1410 H1398 0.950 . S
C1410 C1409 1.398 . S
C1410 C1411 1.391 . S
C1411 H1399 0.950 . S
C1411 C1407 1.393 . S
C1411 C1410 1.391 . S
H1412 C1420 0.950 . S
H1413 C1425 0.950 . S
H1414 C1422 0.950 . S
H1415 C1424 0.950 . S
H1416 C1426 0.950 . S
H1417 C1428 0.950 . S
H1418 C1430 0.950 . S
H1419 C1431 0.950 . S
C1420 H1412 0.950 . S
C1420 C1421 1.386 . S
C1420 C1422 1.391 . S
C1421 C1420 1.386 . S
C1421 C1425 1.393 . S
C1422 H1414 0.950 . S
C1422 C1420 1.391 . S
C1422 C1423 1.400 . S
C1423 C1422 1.400 . S
C1423 C1424 1.398 . S
C1423 C1429 1.491 . S
C1424 H1415 0.950 . S
C1424 C1423 1.398 . S
C1424 C1425 1.391 . S
C1425 H1413 0.950 . S
C1425 C1421 1.393 . S
C1425 C1424 1.391 . S
C1426 H1416 0.950 . S
C1426 C1427 1.386 . S
C1426 C1428 1.391 . S
C1427 C1426 1.386 . S
C1427 C1431 1.393 . S
C1428 H1417 0.950 . S
C1428 C1426 1.391 . S
C1428 C1429 1.400 . S
C1429 C1423 1.491 . S
C1429 C1428 1.400 . S
C1429 C1430 1.398 . S
C1430 H1418 0.950 . S
C1430 C1429 1.398 . S
C1430 C1431 1.391 . S
C1431 H1419 0.950 . S
C1431 C1427 1.393 . S
C1431 C1430 1.391 . S
H1432 C1440 0.950 . S
H1433 C1445 0.950 . S
H1434 C1442 0.950 . S
H1435 C1444 0.950 . S
H1436 C1446 0.950 1_545 S
H1437 C1448 0.950 . S
H1438 C1450 0.950 . S
H1439 C1451 0.950 . S
C1440 H1432 0.950 . S
C1440 C1441 1.386 . S
C1440 C1442 1.391 . S
C1441 C1440 1.386 . S
C1441 C1445 1.393 . S
C1442 H1434 0.950 . S
C1442 C1440 1.391 . S
C1442 C1443 1.400 . S
C1443 C1442 1.400 . S
C1443 C1444 1.398 . S
C1443 C1449 1.491 . S
C1444 H1435 0.950 . S
C1444 C1443 1.398 . S
C1444 C1445 1.391 . S
C1445 H1433 0.950 . S
C1445 C1441 1.393 . S
C1445 C1444 1.391 . S
C1446 H1436 0.950 1_565 S
C1446 C1447 1.386 . S
C1446 C1448 1.391 . S
C1447 C1446 1.386 . S
C1447 C1451 1.393 . S
C1448 H1437 0.950 . S
C1448 C1446 1.391 . S
C1448 C1449 1.400 . S
C1449 C1443 1.491 . S
C1449 C1448 1.400 . S
C1449 C1450 1.398 . S
C1450 H1438 0.950 . S
C1450 C1449 1.398 . S
C1450 C1451 1.391 . S
C1451 H1439 0.950 . S
C1451 C1447 1.393 . S
C1451 C1450 1.391 . S
H1452 C1460 0.950 . S
H1453 C1465 0.950 . S
H1454 C1462 0.950 . S
H1455 C1464 0.950 . S
H1456 C1466 0.950 . S
H1457 C1468 0.950 . S
H1458 C1470 0.950 . S
H1459 C1471 0.950 . S
C1460 H1452 0.950 . S
C1460 C1461 1.386 . S
C1460 C1462 1.391 . S
C1461 C1460 1.386 . S
C1461 C1465 1.393 . S
C1462 H1454 0.950 . S
C1462 C1460 1.391 . S
C1462 C1463 1.400 . S
C1463 C1462 1.400 . S
C1463 C1464 1.398 . S
C1463 C1469 1.491 . S
C1464 H1455 0.950 . S
C1464 C1463 1.398 . S
C1464 C1465 1.391 . S
C1465 H1453 0.950 . S
C1465 C1461 1.393 . S
C1465 C1464 1.391 . S
C1466 H1456 0.950 . S
C1466 C1467 1.386 . S
C1466 C1468 1.391 . S
C1467 C1466 1.386 . S
C1467 C1471 1.393 . S
C1468 H1457 0.950 . S
C1468 C1466 1.391 . S
C1468 C1469 1.400 . S
C1469 C1463 1.491 . S
C1469 C1468 1.400 . S
C1469 C1470 1.398 . S
C1470 H1458 0.950 . S
C1470 C1469 1.398 . S
C1470 C1471 1.391 . S
C1471 H1459 0.950 . S
C1471 C1467 1.393 . S
C1471 C1470 1.391 . S
H1472 C1480 0.950 . S
H1473 C1485 0.950 . S
H1474 C1482 0.950 . S
H1475 C1484 0.950 . S
H1476 C1486 0.950 . S
H1477 C1488 0.950 . S
H1478 C1490 0.950 . S
H1479 C1491 0.950 . S
C1480 H1472 0.950 . S
C1480 C1481 1.386 . S
C1480 C1482 1.391 . S
C1481 C1480 1.386 . S
C1481 C1485 1.393 . S
C1482 H1474 0.950 . S
C1482 C1480 1.391 . S
C1482 C1483 1.400 . S
C1483 C1482 1.400 . S
C1483 C1484 1.398 . S
C1483 C1489 1.491 . S
C1484 H1475 0.950 . S
C1484 C1483 1.398 . S
C1484 C1485 1.391 . S
C1485 H1473 0.950 . S
C1485 C1481 1.393 . S
C1485 C1484 1.391 . S
C1486 H1476 0.950 . S
C1486 C1487 1.386 . S
C1486 C1488 1.391 . S
C1487 C1486 1.386 . S
C1487 C1491 1.393 . S
C1488 H1477 0.950 . S
C1488 C1486 1.391 . S
C1488 C1489 1.400 . S
C1489 C1483 1.491 . S
C1489 C1488 1.400 . S
C1489 C1490 1.398 . S
C1490 H1478 0.950 . S
C1490 C1489 1.398 . S
C1490 C1491 1.391 . S
C1491 H1479 0.950 . S
C1491 C1487 1.393 . S
C1491 C1490 1.391 . S
H1492 C1500 0.950 . S
H1493 C1505 0.950 . S
H1494 C1502 0.950 . S
H1495 C1504 0.950 . S
H1496 C1506 0.950 . S
H1497 C1508 0.950 . S
H1498 C1510 0.950 . S
H1499 C1511 0.950 . S
C1500 H1492 0.950 . S
C1500 C1501 1.386 . S
C1500 C1502 1.391 . S
C1501 C1500 1.386 . S
C1501 C1505 1.393 . S
C1502 H1494 0.950 . S
C1502 C1500 1.391 . S
C1502 C1503 1.400 . S
C1503 C1502 1.400 . S
C1503 C1504 1.398 . S
C1503 C1509 1.491 . S
C1504 H1495 0.950 . S
C1504 C1503 1.398 . S
C1504 C1505 1.391 . S
C1505 H1493 0.950 . S
C1505 C1501 1.393 . S
C1505 C1504 1.391 . S
C1506 H1496 0.950 . S
C1506 C1507 1.386 . S
C1506 C1508 1.391 . S
C1507 C1506 1.386 . S
C1507 C1511 1.393 . S
C1508 H1497 0.950 . S
C1508 C1506 1.391 . S
C1508 C1509 1.400 . S
C1509 C1503 1.491 . S
C1509 C1508 1.400 . S
C1509 C1510 1.398 . S
C1510 H1498 0.950 . S
C1510 C1509 1.398 . S
C1510 C1511 1.391 . S
C1511 H1499 0.950 . S
C1511 C1507 1.393 . S
C1511 C1510 1.391 . S
H1512 C1520 0.950 . S
H1513 C1525 0.950 . S
H1514 C1522 0.950 . S
H1515 C1524 0.950 . S
H1516 C1526 0.950 1_655 S
H1517 C1528 0.950 1_655 S
H1518 C1530 0.950 . S
H1519 C1531 0.950 . S
C1520 H1512 0.950 . S
C1520 C1521 1.386 . S
C1520 C1522 1.391 . S
C1521 C1520 1.386 . S
C1521 C1525 1.393 1_455 S
C1522 H1514 0.950 . S
C1522 C1520 1.391 . S
C1522 C1523 1.400 . S
C1523 C1522 1.400 . S
C1523 C1524 1.398 1_455 S
C1523 C1529 1.491 . S
C1524 H1515 0.950 . S
C1524 C1523 1.398 1_655 S
C1524 C1525 1.391 . S
C1525 H1513 0.950 . S
C1525 C1521 1.393 1_655 S
C1525 C1524 1.391 . S
C1526 H1516 0.950 1_455 S
C1526 C1527 1.386 . S
C1526 C1528 1.391 . S
C1527 C1526 1.386 . S
C1527 C1531 1.393 . S
C1528 H1517 0.950 1_455 S
C1528 C1526 1.391 . S
C1528 C1529 1.400 . S
C1529 C1523 1.491 . S
C1529 C1528 1.400 . S
C1529 C1530 1.398 . S
C1530 H1518 0.950 . S
C1530 C1529 1.398 . S
C1530 C1531 1.391 . S
C1531 H1519 0.950 . S
C1531 C1527 1.393 . S
C1531 C1530 1.391 . S
H1532 C1540 0.950 . S
H1533 C1545 0.950 . S
H1534 C1542 0.950 . S
H1535 C1544 0.950 . S
H1536 C1546 0.950 . S
H1537 C1548 0.950 . S
H1538 C1550 0.950 . S
H1539 C1551 0.950 . S
C1540 H1532 0.950 . S
C1540 C1541 1.386 . S
C1540 C1542 1.391 . S
C1541 C1540 1.386 . S
C1541 C1545 1.393 . S
C1542 H1534 0.950 . S
C1542 C1540 1.391 . S
C1542 C1543 1.400 . S
C1543 C1542 1.400 . S
C1543 C1544 1.398 . S
C1543 C1549 1.491 . S
C1544 H1535 0.950 . S
C1544 C1543 1.398 . S
C1544 C1545 1.391 . S
C1545 H1533 0.950 . S
C1545 C1541 1.393 . S
C1545 C1544 1.391 . S
C1546 H1536 0.950 . S
C1546 C1547 1.386 . S
C1546 C1548 1.391 . S
C1547 C1546 1.386 . S
C1547 C1551 1.393 . S
C1548 H1537 0.950 . S
C1548 C1546 1.391 . S
C1548 C1549 1.400 . S
C1549 C1543 1.491 . S
C1549 C1548 1.400 . S
C1549 C1550 1.398 . S
C1550 H1538 0.950 . S
C1550 C1549 1.398 . S
C1550 C1551 1.391 . S
C1551 H1539 0.950 . S
C1551 C1547 1.393 . S
C1551 C1550 1.391 . S
H1552 C1560 0.950 . S
H1553 C1565 0.950 . S
H1554 C1562 0.950 . S
H1555 C1564 0.950 . S
H1556 C1566 0.945 1_545 S
H1557 C1568 0.950 . S
H1558 C1570 0.950 . S
H1559 C1571 0.950 . S
C1560 H1552 0.950 . S
C1560 C1561 1.386 . S
C1560 C1562 1.391 . S
C1561 C1560 1.386 . S
C1561 C1565 1.393 . S
C1562 H1554 0.950 . S
C1562 C1560 1.391 . S
C1562 C1563 1.400 . S
C1563 C1562 1.400 . S
C1563 C1564 1.398 . S
C1563 C1569 1.491 . S
C1564 H1555 0.950 . S
C1564 C1563 1.398 . S
C1564 C1565 1.391 . S
C1565 H1553 0.950 . S
C1565 C1561 1.393 . S
C1565 C1564 1.391 . S
C1566 H1556 0.945 1_565 S
C1566 C1567 1.425 . S
C1566 C1568 1.380 1_554 S
C1567 C1566 1.425 . S
C1567 C1571 1.411 . S
C1568 H1557 0.950 . S
C1568 C1566 1.380 1_556 S
C1568 C1569 1.400 . S
C1569 C1563 1.491 . S
C1569 C1568 1.400 . S
C1569 C1570 1.398 . S
C1570 H1558 0.950 . S
C1570 C1569 1.398 . S
C1570 C1571 1.391 1_556 S
C1571 H1559 0.950 . S
C1571 C1567 1.411 . S
C1571 C1570 1.391 1_554 S
H1572 C1580 0.950 . S
H1573 C1585 0.950 . S
H1574 C1582 0.950 . S
H1575 C1584 0.950 . S
H1576 C1586 0.950 . S
H1577 C1588 0.950 . S
H1578 C1590 0.950 . S
H1579 C1591 0.950 . S
C1580 H1572 0.950 . S
C1580 C1581 1.386 . S
C1580 C1582 1.391 1_455 S
C1581 C1580 1.386 . S
C1581 C1585 1.393 . S
C1582 H1574 0.950 . S
C1582 C1580 1.391 1_655 S
C1582 C1583 1.400 . S
C1583 C1582 1.400 . S
C1583 C1584 1.398 1_655 S
C1583 C1589 1.491 . S
C1584 H1575 0.950 . S
C1584 C1583 1.398 1_455 S
C1584 C1585 1.391 . S
C1585 H1573 0.950 . S
C1585 C1581 1.393 . S
C1585 C1584 1.391 . S
C1586 H1576 0.950 . S
C1586 C1587 1.386 . S
C1586 C1588 1.391 . S
C1587 C1586 1.386 . S
C1587 C1591 1.393 . S
C1588 H1577 0.950 . S
C1588 C1586 1.391 . S
C1588 C1589 1.400 . S
C1589 C1583 1.491 . S
C1589 C1588 1.400 . S
C1589 C1590 1.398 . S
C1590 H1578 0.950 . S
C1590 C1589 1.398 . S
C1590 C1591 1.391 . S
C1591 H1579 0.950 . S
C1591 C1587 1.393 . S
C1591 C1590 1.391 . S
H1592 C1600 0.950 . S
H1593 C1605 0.950 . S
H1594 C1602 0.950 . S
H1595 C1604 0.950 . S
H1596 C1606 0.950 . S
H1597 C1608 0.950 . S
H1598 C1610 0.950 . S
H1599 C1611 0.950 . S
C1600 H1592 0.950 . S
C1600 C1601 1.386 . S
C1600 C1602 1.391 . S
C1601 C1600 1.386 . S
C1601 C1605 1.393 . S
C1602 H1594 0.950 . S
C1602 C1600 1.391 . S
C1602 C1603 1.400 . S
C1603 C1602 1.400 . S
C1603 C1604 1.398 . S
C1603 C1609 1.491 . S
C1604 H1595 0.950 . S
C1604 C1603 1.398 . S
C1604 C1605 1.391 . S
C1605 H1593 0.950 . S
C1605 C1601 1.393 . S
C1605 C1604 1.391 . S
C1606 H1596 0.950 . S
C1606 C1607 1.386 . S
C1606 C1608 1.391 . S
C1607 C1606 1.386 . S
C1607 C1611 1.393 . S
C1608 H1597 0.950 . S
C1608 C1606 1.391 . S
C1608 C1609 1.400 . S
C1609 C1603 1.491 . S
C1609 C1608 1.400 . S
C1609 C1610 1.398 . S
C1610 H1598 0.950 . S
C1610 C1609 1.398 . S
C1610 C1611 1.391 . S
C1611 H1599 0.950 . S
C1611 C1607 1.393 . S
C1611 C1610 1.391 . S
H1612 C1620 0.950 . S
H1613 C1625 0.950 . S
H1614 C1622 0.950 . S
H1615 C1624 0.950 . S
H1616 C1626 0.950 . S
H1617 C1628 0.950 . S
H1618 C1630 0.950 . S
H1619 C1631 0.950 . S
C1620 H1612 0.950 . S
C1620 C1621 1.386 . S
C1620 C1622 1.391 . S
C1621 C1620 1.386 . S
C1621 C1625 1.393 . S
C1622 H1614 0.950 . S
C1622 C1620 1.391 . S
C1622 C1623 1.400 . S
C1623 C1622 1.400 . S
C1623 C1624 1.398 . S
C1623 C1629 1.491 . S
C1624 H1615 0.950 . S
C1624 C1623 1.398 . S
C1624 C1625 1.391 . S
C1625 H1613 0.950 . S
C1625 C1621 1.393 . S
C1625 C1624 1.391 . S
C1626 H1616 0.950 . S
C1626 C1627 1.386 . S
C1626 C1628 1.391 . S
C1627 C1626 1.386 . S
C1627 C1631 1.393 . S
C1628 H1617 0.950 . S
C1628 C1626 1.391 . S
C1628 C1629 1.400 . S
C1629 C1623 1.491 . S
C1629 C1628 1.400 . S
C1629 C1630 1.398 . S
C1630 H1618 0.950 . S
C1630 C1629 1.398 . S
C1630 C1631 1.391 . S
C1631 H1619 0.950 . S
C1631 C1627 1.393 . S
C1631 C1630 1.391 . S
H1632 C1640 0.950 . S
H1633 C1645 0.950 . S
H1634 C1642 0.950 . S
H1635 C1644 0.950 . S
H1636 C1646 0.950 . S
H1637 C1648 0.950 . S
H1638 C1650 0.950 . S
H1639 C1651 0.950 . S
C1640 H1632 0.950 . S
C1640 C1641 1.386 . S
C1640 C1642 1.391 . S
C1641 C1640 1.386 . S
C1641 C1645 1.393 . S
C1642 H1634 0.950 . S
C1642 C1640 1.391 . S
C1642 C1643 1.400 . S
C1643 C1642 1.400 . S
C1643 C1644 1.398 . S
C1643 C1649 1.491 . S
C1644 H1635 0.950 . S
C1644 C1643 1.398 . S
C1644 C1645 1.391 . S
C1645 H1633 0.950 . S
C1645 C1641 1.393 . S
C1645 C1644 1.391 . S
C1646 H1636 0.950 . S
C1646 C1647 1.386 . S
C1646 C1648 1.391 . S
C1647 C1646 1.386 . S
C1647 C1651 1.393 . S
C1648 H1637 0.950 . S
C1648 C1646 1.391 . S
C1648 C1649 1.400 . S
C1649 C1643 1.491 . S
C1649 C1648 1.400 . S
C1649 C1650 1.398 . S
C1650 H1638 0.950 . S
C1650 C1649 1.398 . S
C1650 C1651 1.391 . S
C1651 H1639 0.950 . S
C1651 C1647 1.393 . S
C1651 C1650 1.391 . S
H1652 C1660 0.950 . S
H1653 C1665 0.950 . S
H1654 C1662 0.950 . S
H1655 C1664 0.950 . S
H1656 C1666 0.950 . S
H1657 C1668 0.950 . S
H1658 C1670 0.950 . S
H1659 C1671 0.950 . S
C1660 H1652 0.950 . S
C1660 C1661 1.386 . S
C1660 C1662 1.391 . S
C1661 C1660 1.386 . S
C1661 C1665 1.393 . S
C1662 H1654 0.950 . S
C1662 C1660 1.391 . S
C1662 C1663 1.400 . S
C1663 C1662 1.400 . S
C1663 C1664 1.398 . S
C1663 C1669 1.491 . S
C1664 H1655 0.950 . S
C1664 C1663 1.398 . S
C1664 C1665 1.391 . S
C1665 H1653 0.950 . S
C1665 C1661 1.393 . S
C1665 C1664 1.391 . S
C1666 H1656 0.950 . S
C1666 C1667 1.386 . S
C1666 C1668 1.391 . S
C1667 C1666 1.386 . S
C1667 C1671 1.393 . S
C1668 H1657 0.950 . S
C1668 C1666 1.391 . S
C1668 C1669 1.400 . S
C1669 C1663 1.491 . S
C1669 C1668 1.400 . S
C1669 C1670 1.398 . S
C1670 H1658 0.950 . S
C1670 C1669 1.398 . S
C1670 C1671 1.391 . S
C1671 H1659 0.950 . S
C1671 C1667 1.393 . S
C1671 C1670 1.391 . S
H1672 C1680 0.950 . S
H1673 C1685 0.950 . S
H1674 C1682 0.950 . S
H1675 C1684 0.950 . S
H1676 C1686 0.950 . S
H1677 C1688 0.950 . S
H1678 C1690 0.950 . S
H1679 C1691 0.950 . S
C1680 H1672 0.950 . S
C1680 C1681 1.386 . S
C1680 C1682 1.391 . S
C1681 C1680 1.386 . S
C1681 C1685 1.393 . S
C1682 H1674 0.950 . S
C1682 C1680 1.391 . S
C1682 C1683 1.400 . S
C1683 C1682 1.400 . S
C1683 C1684 1.398 . S
C1683 C1689 1.491 . S
C1684 H1675 0.950 . S
C1684 C1683 1.398 . S
C1684 C1685 1.391 . S
C1685 H1673 0.950 . S
C1685 C1681 1.393 . S
C1685 C1684 1.391 . S
C1686 H1676 0.950 . S
C1686 C1687 1.386 . S
C1686 C1688 1.391 . S
C1687 C1686 1.386 . S
C1687 C1691 1.393 . S
C1688 H1677 0.950 . S
C1688 C1686 1.391 . S
C1688 C1689 1.400 . S
C1689 C1683 1.491 . S
C1689 C1688 1.400 . S
C1689 C1690 1.398 . S
C1690 H1678 0.950 . S
C1690 C1689 1.398 . S
C1690 C1691 1.391 . S
C1691 H1679 0.950 . S
C1691 C1687 1.393 . S
C1691 C1690 1.391 . S
H1692 C1700 0.950 . S
H1693 C1705 0.950 . S
H1694 C1702 0.950 . S
H1695 C1704 0.950 . S
H1696 C1706 0.950 . S
H1697 C1708 0.950 . S
H1698 C1710 0.950 . S
H1699 C1711 0.950 . S
C1700 H1692 0.950 . S
C1700 C1701 1.386 . S
C1700 C1702 1.391 . S
C1701 C1700 1.386 . S
C1701 C1705 1.393 . S
C1702 H1694 0.950 . S
C1702 C1700 1.391 . S
C1702 C1703 1.400 . S
C1703 C1702 1.400 . S
C1703 C1704 1.398 . S
C1703 C1709 1.491 . S
C1704 H1695 0.950 . S
C1704 C1703 1.398 . S
C1704 C1705 1.391 . S
C1705 H1693 0.950 . S
C1705 C1701 1.393 . S
C1705 C1704 1.391 . S
C1706 H1696 0.950 . S
C1706 C1707 1.386 . S
C1706 C1708 1.391 . S
C1707 C1706 1.386 . S
C1707 C1711 1.393 . S
C1708 H1697 0.950 . S
C1708 C1706 1.391 . S
C1708 C1709 1.400 . S
C1709 C1703 1.491 . S
C1709 C1708 1.400 . S
C1709 C1710 1.398 . S
C1710 H1698 0.950 . S
C1710 C1709 1.398 . S
C1710 C1711 1.391 . S
C1711 H1699 0.950 . S
C1711 C1707 1.393 . S
C1711 C1710 1.391 . S
H1712 C1720 0.950 . S
H1713 C1725 0.950 . S
H1714 C1722 0.950 . S
H1715 C1724 0.950 . S
H1716 C1726 0.950 . S
H1717 C1728 0.950 . S
H1718 C1730 0.950 . S
H1719 C1731 0.950 . S
C1720 H1712 0.950 . S
C1720 C1721 1.386 . S
C1720 C1722 1.391 . S
C1721 C1720 1.386 . S
C1721 C1725 1.393 . S
C1722 H1714 0.950 . S
C1722 C1720 1.391 . S
C1722 C1723 1.400 . S
C1723 C1722 1.400 . S
C1723 C1724 1.398 . S
C1723 C1729 1.491 . S
C1724 H1715 0.950 . S
C1724 C1723 1.398 . S
C1724 C1725 1.391 . S
C1725 H1713 0.950 . S
C1725 C1721 1.393 . S
C1725 C1724 1.391 . S
C1726 H1716 0.950 . S
C1726 C1727 1.386 . S
C1726 C1728 1.391 . S
C1727 C1726 1.386 . S
C1727 C1731 1.393 . S
C1728 H1717 0.950 . S
C1728 C1726 1.391 . S
C1728 C1729 1.400 . S
C1729 C1723 1.491 . S
C1729 C1728 1.400 . S
C1729 C1730 1.398 . S
C1730 H1718 0.950 . S
C1730 C1729 1.398 . S
C1730 C1731 1.391 . S
C1731 H1719 0.950 . S
C1731 C1727 1.393 . S
C1731 C1730 1.391 . S
H1732 C1740 0.950 . S
H1733 C1745 0.950 . S
H1734 C1742 0.950 . S
H1735 C1744 0.950 . S
H1736 C1746 0.950 . S
H1737 C1748 0.950 . S
H1738 C1750 0.950 . S
H1739 C1751 0.950 . S
C1740 H1732 0.950 . S
C1740 C1741 1.386 . S
C1740 C1742 1.391 . S
C1741 C1740 1.386 . S
C1741 C1745 1.393 . S
C1742 H1734 0.950 . S
C1742 C1740 1.391 . S
C1742 C1743 1.400 . S
C1743 C1742 1.400 . S
C1743 C1744 1.398 . S
C1743 C1749 1.491 . S
C1744 H1735 0.950 . S
C1744 C1743 1.398 . S
C1744 C1745 1.391 . S
C1745 H1733 0.950 . S
C1745 C1741 1.393 . S
C1745 C1744 1.391 . S
C1746 H1736 0.950 . S
C1746 C1747 1.386 . S
C1746 C1748 1.391 . S
C1747 C1746 1.386 . S
C1747 C1751 1.393 . S
C1748 H1737 0.950 . S
C1748 C1746 1.391 . S
C1748 C1749 1.400 . S
C1749 C1743 1.491 . S
C1749 C1748 1.400 . S
C1749 C1750 1.398 . S
C1750 H1738 0.950 . S
C1750 C1749 1.398 . S
C1750 C1751 1.391 . S
C1751 H1739 0.950 . S
C1751 C1747 1.393 . S
C1751 C1750 1.391 . S
H1752 C1760 0.950 . S
H1753 C1765 0.950 . S
H1754 C1762 0.950 . S
H1755 C1764 0.950 . S
H1756 C1766 0.950 . S
H1757 C1768 0.950 1_554 S
H1758 C1770 0.950 . S
H1759 C1771 0.950 . S
C1760 H1752 0.950 . S
C1760 C1761 1.386 . S
C1760 C1762 1.391 . S
C1761 C1760 1.386 . S
C1761 C1765 1.393 1_556 S
C1762 H1754 0.950 . S
C1762 C1760 1.391 . S
C1762 C1763 1.400 . S
C1763 C1762 1.400 . S
C1763 C1764 1.398 1_556 S
C1763 C1769 1.491 . S
C1764 H1755 0.950 . S
C1764 C1763 1.398 1_554 S
C1764 C1765 1.391 . S
C1765 H1753 0.950 . S
C1765 C1761 1.393 1_554 S
C1765 C1764 1.391 . S
C1766 H1756 0.950 . S
C1766 C1767 1.386 . S
C1766 C1768 1.391 . S
C1767 C1766 1.386 . S
C1767 C1771 1.393 . S
C1768 H1757 0.950 1_556 S
C1768 C1766 1.391 . S
C1768 C1769 1.400 . S
C1769 C1763 1.491 . S
C1769 C1768 1.400 . S
C1769 C1770 1.398 . S
C1770 H1758 0.950 . S
C1770 C1769 1.398 . S
C1770 C1771 1.391 . S
C1771 H1759 0.950 . S
C1771 C1767 1.393 . S
C1771 C1770 1.391 . S
H1772 C1780 0.950 . S
H1773 C1785 0.950 . S
H1774 C1782 0.950 . S
H1775 C1784 0.950 . S
H1776 C1786 0.950 1_556 S
H1777 C1788 0.958 . S
H1778 C1790 0.950 . S
H1779 C1791 0.950 . S
C1780 H1772 0.950 . S
C1780 C1781 1.386 . S
C1780 C1782 1.391 . S
C1781 C1780 1.386 . S
C1781 C1785 1.393 . S
C1782 H1774 0.950 . S
C1782 C1780 1.391 . S
C1782 C1783 1.400 . S
C1783 C1782 1.400 . S
C1783 C1784 1.398 . S
C1783 C1789 1.491 . S
C1784 H1775 0.950 . S
C1784 C1783 1.398 . S
C1784 C1785 1.391 . S
C1785 H1773 0.950 . S
C1785 C1781 1.393 . S
C1785 C1784 1.391 . S
C1786 H1776 0.950 1_554 S
C1786 C1787 1.386 . S
C1786 C1788 1.391 . S
C1787 C1786 1.386 . S
C1787 C1791 1.393 . S
C1788 H1777 0.958 . S
C1788 C1786 1.391 . S
C1788 C1789 1.400 . S
C1789 C1783 1.491 . S
C1789 C1788 1.400 . S
C1789 C1790 1.398 . S
C1790 H1778 0.950 . S
C1790 C1789 1.398 . S
C1790 C1791 1.391 . S
C1791 H1779 0.950 . S
C1791 C1787 1.393 . S
C1791 C1790 1.391 . S
H1792 C1800 0.950 . S
H1793 C1805 0.950 . S
H1794 C1802 0.950 . S
H1795 C1804 0.950 . S
H1796 C1806 0.950 . S
H1797 C1808 0.950 . S
H1798 C1810 0.950 . S
H1799 C1811 0.950 . S
C1800 H1792 0.950 . S
C1800 C1801 1.386 . S
C1800 C1802 1.391 . S
C1801 C1800 1.386 . S
C1801 C1805 1.393 . S
C1802 H1794 0.950 . S
C1802 C1800 1.391 . S
C1802 C1803 1.400 . S
C1803 C1802 1.400 . S
C1803 C1804 1.398 . S
C1803 C1809 1.491 . S
C1804 H1795 0.950 . S
C1804 C1803 1.398 . S
C1804 C1805 1.391 . S
C1805 H1793 0.950 . S
C1805 C1801 1.393 . S
C1805 C1804 1.391 . S
C1806 H1796 0.950 . S
C1806 C1807 1.386 . S
C1806 C1808 1.391 . S
C1807 C1806 1.386 . S
C1807 C1811 1.393 . S
C1808 H1797 0.950 . S
C1808 C1806 1.391 . S
C1808 C1809 1.400 . S
C1809 C1803 1.491 . S
C1809 C1808 1.400 . S
C1809 C1810 1.398 . S
C1810 H1798 0.950 . S
C1810 C1809 1.398 . S
C1810 C1811 1.391 . S
C1811 H1799 0.950 . S
C1811 C1807 1.393 . S
C1811 C1810 1.391 . S
H1812 C1820 0.950 . S
H1813 C1825 0.950 . S
H1814 C1822 0.950 . S
H1815 C1824 0.950 . S
H1816 C1826 0.950 . S
H1817 C1828 0.950 . S
H1818 C1830 0.950 . S
H1819 C1831 0.950 . S
C1820 H1812 0.950 . S
C1820 C1821 1.386 . S
C1820 C1822 1.391 . S
C1821 C1820 1.386 . S
C1821 C1825 1.393 . S
C1822 H1814 0.950 . S
C1822 C1820 1.391 . S
C1822 C1823 1.400 . S
C1823 C1822 1.400 . S
C1823 C1824 1.398 . S
C1823 C1829 1.491 . S
C1824 H1815 0.950 . S
C1824 C1823 1.398 . S
C1824 C1825 1.391 . S
C1825 H1813 0.950 . S
C1825 C1821 1.393 . S
C1825 C1824 1.391 . S
C1826 H1816 0.950 . S
C1826 C1827 1.386 . S
C1826 C1828 1.391 . S
C1827 C1826 1.386 . S
C1827 C1831 1.393 . S
C1828 H1817 0.950 . S
C1828 C1826 1.391 . S
C1828 C1829 1.400 . S
C1829 C1823 1.491 . S
C1829 C1828 1.400 . S
C1829 C1830 1.398 . S
C1830 H1818 0.950 . S
C1830 C1829 1.398 . S
C1830 C1831 1.391 . S
C1831 H1819 0.950 . S
C1831 C1827 1.393 . S
C1831 C1830 1.391 . S
H1832 C1840 0.950 . S
H1833 C1845 0.950 . S
H1834 C1842 0.950 . S
H1835 C1844 0.950 . S
H1836 C1846 0.950 . S
H1837 C1848 0.950 . S
H1838 C1850 0.950 . S
H1839 C1851 0.950 . S
C1840 H1832 0.950 . S
C1840 C1841 1.386 . S
C1840 C1842 1.391 . S
C1841 C1840 1.386 . S
C1841 C1845 1.393 . S
C1842 H1834 0.950 . S
C1842 C1840 1.391 . S
C1842 C1843 1.400 . S
C1843 C1842 1.400 . S
C1843 C1844 1.398 . S
C1843 C1849 1.491 . S
C1844 H1835 0.950 . S
C1844 C1843 1.398 . S
C1844 C1845 1.391 . S
C1845 H1833 0.950 . S
C1845 C1841 1.393 . S
C1845 C1844 1.391 . S
C1846 H1836 0.950 . S
C1846 C1847 1.386 . S
C1846 C1848 1.391 . S
C1847 C1846 1.386 . S
C1847 C1851 1.393 . S
C1848 H1837 0.950 . S
C1848 C1846 1.391 . S
C1848 C1849 1.400 . S
C1849 C1843 1.491 . S
C1849 C1848 1.400 . S
C1849 C1850 1.398 . S
C1850 H1838 0.950 . S
C1850 C1849 1.398 . S
C1850 C1851 1.391 . S
C1851 H1839 0.950 . S
C1851 C1847 1.393 . S
C1851 C1850 1.391 . S
H1852 C1860 0.950 . S
H1853 C1865 0.950 . S
H1854 C1862 0.950 . S
H1855 C1864 0.950 . S
H1856 C1866 0.950 . S
H1857 C1868 0.950 . S
H1858 C1870 0.950 . S
H1859 C1871 0.950 . S
C1860 H1852 0.950 . S
C1860 C1861 1.386 . S
C1860 C1862 1.391 . S
C1861 C1860 1.386 . S
C1861 C1865 1.393 . S
C1862 H1854 0.950 . S
C1862 C1860 1.391 . S
C1862 C1863 1.400 . S
C1863 C1862 1.400 . S
C1863 C1864 1.398 . S
C1863 C1869 1.491 . S
C1864 H1855 0.950 . S
C1864 C1863 1.398 . S
C1864 C1865 1.391 . S
C1865 H1853 0.950 . S
C1865 C1861 1.393 . S
C1865 C1864 1.391 . S
C1866 H1856 0.950 . S
C1866 C1867 1.386 . S
C1866 C1868 1.391 . S
C1867 C1866 1.386 . S
C1867 C1871 1.393 . S
C1868 H1857 0.950 . S
C1868 C1866 1.391 . S
C1868 C1869 1.400 1_545 S
C1869 C1863 1.491 . S
C1869 C1868 1.400 1_565 S
C1869 C1870 1.398 . S
C1870 H1858 0.950 . S
C1870 C1869 1.398 . S
C1870 C1871 1.391 1_565 S
C1871 H1859 0.950 . S
C1871 C1867 1.393 . S
C1871 C1870 1.391 1_545 S
H1872 C1880 0.950 . S
H1873 C1885 0.950 . S
H1874 C1882 0.950 . S
H1875 C1884 0.950 . S
H1876 C1886 0.950 . S
H1877 C1888 0.950 . S
H1878 C1890 0.950 . S
H1879 C1891 0.950 . S
C1880 H1872 0.950 . S
C1880 C1881 1.386 . S
C1880 C1882 1.391 . S
C1881 C1880 1.386 . S
C1881 C1885 1.393 . S
C1882 H1874 0.950 . S
C1882 C1880 1.391 . S
C1882 C1883 1.400 . S
C1883 C1882 1.400 . S
C1883 C1884 1.398 . S
C1883 C1889 1.491 . S
C1884 H1875 0.950 . S
C1884 C1883 1.398 . S
C1884 C1885 1.391 . S
C1885 H1873 0.950 . S
C1885 C1881 1.393 . S
C1885 C1884 1.391 . S
C1886 H1876 0.950 . S
C1886 C1887 1.386 . S
C1886 C1888 1.391 . S
C1887 C1886 1.386 . S
C1887 C1891 1.393 . S
C1888 H1877 0.950 . S
C1888 C1886 1.391 . S
C1888 C1889 1.400 . S
C1889 C1883 1.491 . S
C1889 C1888 1.400 . S
C1889 C1890 1.398 . S
C1890 H1878 0.950 . S
C1890 C1889 1.398 . S
C1890 C1891 1.391 . S
C1891 H1879 0.950 . S
C1891 C1887 1.393 . S
C1891 C1890 1.391 . S
H1892 C1900 0.950 . S
H1893 C1905 0.950 . S
H1894 C1902 0.950 . S
H1895 C1904 0.950 . S
H1896 C1906 0.950 . S
H1897 C1908 0.950 . S
H1898 C1910 0.950 . S
H1899 C1911 0.950 . S
C1900 H1892 0.950 . S
C1900 C1901 1.386 . S
C1900 C1902 1.391 . S
C1901 C1900 1.386 . S
C1901 C1905 1.393 . S
C1902 H1894 0.950 . S
C1902 C1900 1.391 . S
C1902 C1903 1.400 . S
C1903 C1902 1.400 . S
C1903 C1904 1.398 . S
C1903 C1909 1.491 . S
C1904 H1895 0.950 . S
C1904 C1903 1.398 . S
C1904 C1905 1.391 . S
C1905 H1893 0.950 . S
C1905 C1901 1.393 . S
C1905 C1904 1.391 . S
C1906 H1896 0.950 . S
C1906 C1907 1.386 . S
C1906 C1908 1.391 . S
C1907 C1906 1.386 . S
C1907 C1911 1.393 . S
C1908 H1897 0.950 . S
C1908 C1906 1.391 . S
C1908 C1909 1.400 . S
C1909 C1903 1.491 . S
C1909 C1908 1.400 . S
C1909 C1910 1.398 . S
C1910 H1898 0.950 . S
C1910 C1909 1.398 . S
C1910 C1911 1.391 . S
C1911 H1899 0.950 . S
C1911 C1907 1.393 . S
C1911 C1910 1.391 . S
H1912 C1920 0.950 . S
H1913 C1925 0.950 . S
H1914 C1922 0.950 . S
H1915 C1924 0.950 . S
H1916 C1926 0.950 . S
H1917 C1928 0.950 . S
H1918 C1930 0.950 . S
H1919 C1931 0.950 . S
C1920 H1912 0.950 . S
C1920 C1921 1.386 . S
C1920 C1922 1.391 . S
C1921 C1920 1.386 . S
C1921 C1925 1.393 . S
C1922 H1914 0.950 . S
C1922 C1920 1.391 . S
C1922 C1923 1.400 . S
C1923 C1922 1.400 . S
C1923 C1924 1.398 . S
C1923 C1929 1.491 . S
C1924 H1915 0.950 . S
C1924 C1923 1.398 . S
C1924 C1925 1.391 . S
C1925 H1913 0.950 . S
C1925 C1921 1.393 . S
C1925 C1924 1.391 . S
C1926 H1916 0.950 . S
C1926 C1927 1.386 . S
C1926 C1928 1.391 . S
C1927 C1926 1.386 . S
C1927 C1931 1.393 . S
C1928 H1917 0.950 . S
C1928 C1926 1.391 . S
C1928 C1929 1.400 . S
C1929 C1923 1.491 . S
C1929 C1928 1.400 . S
C1929 C1930 1.398 . S
C1930 H1918 0.950 . S
C1930 C1929 1.398 . S
C1930 C1931 1.391 . S
C1931 H1919 0.950 . S
C1931 C1927 1.393 . S
C1931 C1930 1.391 . S
H1932 C1940 0.950 . S
H1933 C1945 0.950 . S
H1934 C1942 0.950 . S
H1935 C1944 0.950 . S
H1936 C1946 0.950 . S
H1937 C1948 0.950 . S
H1938 C1950 0.950 . S
H1939 C1951 0.950 . S
C1940 H1932 0.950 . S
C1940 C1941 1.386 . S
C1940 C1942 1.391 . S
C1941 C1940 1.386 . S
C1941 C1945 1.393 . S
C1942 H1934 0.950 . S
C1942 C1940 1.391 . S
C1942 C1943 1.400 . S
C1943 C1942 1.400 . S
C1943 C1944 1.398 . S
C1943 C1949 1.491 . S
C1944 H1935 0.950 . S
C1944 C1943 1.398 . S
C1944 C1945 1.391 . S
C1945 H1933 0.950 . S
C1945 C1941 1.393 . S
C1945 C1944 1.391 . S
C1946 H1936 0.950 . S
C1946 C1947 1.386 . S
C1946 C1948 1.391 . S
C1947 C1946 1.386 . S
C1947 C1951 1.393 . S
C1948 H1937 0.950 . S
C1948 C1946 1.391 . S
C1948 C1949 1.400 . S
C1949 C1943 1.491 . S
C1949 C1948 1.400 . S
C1949 C1950 1.398 . S
C1950 H1938 0.950 . S
C1950 C1949 1.398 . S
C1950 C1951 1.391 . S
C1951 H1939 0.950 . S
C1951 C1947 1.393 . S
C1951 C1950 1.391 . S
H1952 C1960 0.950 . S
H1953 C1965 0.950 . S
H1954 C1962 0.950 . S
H1955 C1964 0.919 1_554 S
H1956 C1966 0.950 . S
H1957 C1968 0.950 . S
H1958 C1970 0.950 . S
H1959 C1971 0.950 . S
C1960 H1952 0.950 . S
C1960 C1961 1.386 . S
C1960 C1962 1.391 . S
C1961 C1960 1.386 . S
C1961 C1965 1.393 . S
C1962 H1954 0.950 . S
C1962 C1960 1.391 . S
C1962 C1963 1.400 . S
C1963 C1962 1.400 . S
C1963 C1964 1.398 . S
C1963 C1969 1.491 . S
C1964 H1955 0.919 1_556 S
C1964 C1963 1.398 . S
C1964 C1965 1.391 . S
C1965 H1953 0.950 . S
C1965 C1961 1.393 . S
C1965 C1964 1.391 . S
C1966 H1956 0.950 . S
C1966 C1967 1.386 1_554 S
C1966 C1968 1.391 . S
C1967 C1966 1.386 1_556 S
C1967 C1971 1.393 . S
C1968 H1957 0.950 . S
C1968 C1966 1.391 . S
C1968 C1969 1.400 1_554 S
C1969 C1963 1.491 . S
C1969 C1968 1.400 1_556 S
C1969 C1970 1.398 . S
C1970 H1958 0.950 . S
C1970 C1969 1.398 . S
C1970 C1971 1.391 . S
C1971 H1959 0.950 . S
C1971 C1967 1.393 . S
C1971 C1970 1.391 . S
H1972 C1980 0.950 . S
H1973 C1985 0.950 . S
H1974 C1982 0.950 . S
H1975 C1984 0.950 . S
H1976 C1986 0.950 . S
H1977 C1988 0.950 . S
H1978 C1990 0.950 . S
H1979 C1991 0.950 . S
C1980 H1972 0.950 . S
C1980 C1981 1.386 . S
C1980 C1982 1.391 1_455 S
C1981 C1980 1.386 . S
C1981 C1985 1.393 1_455 S
C1982 H1974 0.950 . S
C1982 C1980 1.391 1_655 S
C1982 C1983 1.400 . S
C1983 C1982 1.400 . S
C1983 C1984 1.398 . S
C1983 C1989 1.491 . S
C1984 H1975 0.950 . S
C1984 C1983 1.398 . S
C1984 C1985 1.391 . S
C1985 H1973 0.950 . S
C1985 C1981 1.393 1_655 S
C1985 C1984 1.391 . S
C1986 H1976 0.950 . S
C1986 C1987 1.386 . S
C1986 C1988 1.391 . S
C1987 C1986 1.386 . S
C1987 C1991 1.393 . S
C1988 H1977 0.950 . S
C1988 C1986 1.391 . S
C1988 C1989 1.400 . S
C1989 C1983 1.491 . S
C1989 C1988 1.400 . S
C1989 C1990 1.398 . S
C1990 H1978 0.950 . S
C1990 C1989 1.398 . S
C1990 C1991 1.391 . S
C1991 H1979 0.950 . S
C1991 C1987 1.393 . S
C1991 C1990 1.391 . S
H1992 C2000 0.950 . S
H1993 C2005 0.950 . S
H1994 C2002 0.950 . S
H1995 C2004 0.950 . S
H1996 C2006 0.950 . S
H1997 C2008 0.950 . S
H1998 C2010 0.950 . S
H1999 C2011 0.950 . S
C2000 H1992 0.950 . S
C2000 C2001 1.386 . S
C2000 C2002 1.391 . S
C2001 C2000 1.386 . S
C2001 C2005 1.393 . S
C2002 H1994 0.950 . S
C2002 C2000 1.391 . S
C2002 C2003 1.400 . S
C2003 C2002 1.400 . S
C2003 C2004 1.398 . S
C2003 C2009 1.491 . S
C2004 H1995 0.950 . S
C2004 C2003 1.398 . S
C2004 C2005 1.391 . S
C2005 H1993 0.950 . S
C2005 C2001 1.393 . S
C2005 C2004 1.391 . S
C2006 H1996 0.950 . S
C2006 C2007 1.386 . S
C2006 C2008 1.391 . S
C2007 C2006 1.386 . S
C2007 C2011 1.393 . S
C2008 H1997 0.950 . S
C2008 C2006 1.391 . S
C2008 C2009 1.400 . S
C2009 C2003 1.491 . S
C2009 C2008 1.400 . S
C2009 C2010 1.398 . S
C2010 H1998 0.950 . S
C2010 C2009 1.398 . S
C2010 C2011 1.391 . S
C2011 H1999 0.950 . S
C2011 C2007 1.393 . S
C2011 C2010 1.391 . S
H2012 C2020 0.950 . S
H2013 C2025 0.950 . S
H2014 C2022 0.950 . S
H2015 C2024 0.950 . S
H2016 C2026 0.950 . S
H2017 C2028 0.950 . S
H2018 C2030 0.950 . S
H2019 C2031 0.950 . S
C2020 H2012 0.950 . S
C2020 C2021 1.386 . S
C2020 C2022 1.391 . S
C2021 C2020 1.386 . S
C2021 C2025 1.393 . S
C2022 H2014 0.950 . S
C2022 C2020 1.391 . S
C2022 C2023 1.400 . S
C2023 C2022 1.400 . S
C2023 C2024 1.398 . S
C2023 C2029 1.491 . S
C2024 H2015 0.950 . S
C2024 C2023 1.398 . S
C2024 C2025 1.391 . S
C2025 H2013 0.950 . S
C2025 C2021 1.393 . S
C2025 C2024 1.391 . S
C2026 H2016 0.950 . S
C2026 C2027 1.386 . S
C2026 C2028 1.391 . S
C2027 C2026 1.386 . S
C2027 C2031 1.393 . S
C2028 H2017 0.950 . S
C2028 C2026 1.391 . S
C2028 C2029 1.400 . S
C2029 C2023 1.491 . S
C2029 C2028 1.400 . S
C2029 C2030 1.398 . S
C2030 H2018 0.950 . S
C2030 C2029 1.398 . S
C2030 C2031 1.391 . S
C2031 H2019 0.950 . S
C2031 C2027 1.393 . S
C2031 C2030 1.391 . S
H2032 C2040 0.950 . S
H2033 C2045 0.950 . S
H2034 C2042 0.950 . S
H2035 C2044 0.950 . S
H2036 C2046 0.950 . S
H2037 C2048 0.950 . S
H2038 C2050 0.950 . S
H2039 C2051 0.950 . S
C2040 H2032 0.950 . S
C2040 C2041 1.386 . S
C2040 C2042 1.391 . S
C2041 C2040 1.386 . S
C2041 C2045 1.393 . S
C2042 H2034 0.950 . S
C2042 C2040 1.391 . S
C2042 C2043 1.400 . S
C2043 C2042 1.400 . S
C2043 C2044 1.398 . S
C2043 C2049 1.491 . S
C2044 H2035 0.950 . S
C2044 C2043 1.398 . S
C2044 C2045 1.391 . S
C2045 H2033 0.950 . S
C2045 C2041 1.393 . S
C2045 C2044 1.391 . S
C2046 H2036 0.950 . S
C2046 C2047 1.386 . S
C2046 C2048 1.391 . S
C2047 C2046 1.386 . S
C2047 C2051 1.393 . S
C2048 H2037 0.950 . S
C2048 C2046 1.391 . S
C2048 C2049 1.400 . S
C2049 C2043 1.491 . S
C2049 C2048 1.400 . S
C2049 C2050 1.398 . S
C2050 H2038 0.950 . S
C2050 C2049 1.398 . S
C2050 C2051 1.391 . S
C2051 H2039 0.950 . S
C2051 C2047 1.393 . S
C2051 C2050 1.391 . S
H2052 C2060 0.950 . S
H2053 C2065 0.950 . S
H2054 C2062 0.950 . S
H2055 C2064 0.950 . S
H2056 C2066 0.950 . S
H2057 C2068 0.950 . S
H2058 C2070 0.950 . S
H2059 C2071 0.950 . S
C2060 H2052 0.950 . S
C2060 C2061 1.386 . S
C2060 C2062 1.391 . S
C2061 C2060 1.386 . S
C2061 C2065 1.393 . S
C2062 H2054 0.950 . S
C2062 C2060 1.391 . S
C2062 C2063 1.400 . S
C2063 C2062 1.400 . S
C2063 C2064 1.398 . S
C2063 C2069 1.491 . S
C2064 H2055 0.950 . S
C2064 C2063 1.398 . S
C2064 C2065 1.391 . S
C2065 H2053 0.950 . S
C2065 C2061 1.393 . S
C2065 C2064 1.391 . S
C2066 H2056 0.950 . S
C2066 C2067 1.386 . S
C2066 C2068 1.391 . S
C2067 C2066 1.386 . S
C2067 C2071 1.393 . S
C2068 H2057 0.950 . S
C2068 C2066 1.391 . S
C2068 C2069 1.400 . S
C2069 C2063 1.491 . S
C2069 C2068 1.400 . S
C2069 C2070 1.398 . S
C2070 H2058 0.950 . S
C2070 C2069 1.398 . S
C2070 C2071 1.391 . S
C2071 H2059 0.950 . S
C2071 C2067 1.393 . S
C2071 C2070 1.391 . S
H2072 C2080 0.950 . S
H2073 C2085 0.950 . S
H2074 C2082 0.950 . S
H2075 C2084 0.950 . S
H2076 C2086 0.950 . S
H2077 C2088 0.950 . S
H2078 C2090 0.950 . S
H2079 C2091 0.950 . S
C2080 H2072 0.950 . S
C2080 C2081 1.386 . S
C2080 C2082 1.391 . S
C2081 C2080 1.386 . S
C2081 C2085 1.393 . S
C2082 H2074 0.950 . S
C2082 C2080 1.391 . S
C2082 C2083 1.400 . S
C2083 C2082 1.400 . S
C2083 C2084 1.398 . S
C2083 C2089 1.491 . S
C2084 H2075 0.950 . S
C2084 C2083 1.398 . S
C2084 C2085 1.391 . S
C2085 H2073 0.950 . S
C2085 C2081 1.393 . S
C2085 C2084 1.391 . S
C2086 H2076 0.950 . S
C2086 C2087 1.386 . S
C2086 C2088 1.391 . S
C2087 C2086 1.386 . S
C2087 C2091 1.393 . S
C2088 H2077 0.950 . S
C2088 C2086 1.391 . S
C2088 C2089 1.400 . S
C2089 C2083 1.491 . S
C2089 C2088 1.400 . S
C2089 C2090 1.398 . S
C2090 H2078 0.950 . S
C2090 C2089 1.398 . S
C2090 C2091 1.391 . S
C2091 H2079 0.950 . S
C2091 C2087 1.393 . S
C2091 C2090 1.391 . S
H2092 C2100 0.950 . S
H2093 C2105 0.950 . S
H2094 C2102 0.950 . S
H2095 C2104 0.950 . S
H2096 C2106 0.950 . S
H2097 C2108 0.950 . S
H2098 C2110 0.950 . S
H2099 C2111 0.950 . S
C2100 H2092 0.950 . S
C2100 C2101 1.386 . S
C2100 C2102 1.391 . S
C2101 C2100 1.386 . S
C2101 C2105 1.393 . S
C2102 H2094 0.950 . S
C2102 C2100 1.391 . S
C2102 C2103 1.400 . S
C2103 C2102 1.400 . S
C2103 C2104 1.398 . S
C2103 C2109 1.491 . S
C2104 H2095 0.950 . S
C2104 C2103 1.398 . S
C2104 C2105 1.391 . S
C2105 H2093 0.950 . S
C2105 C2101 1.393 . S
C2105 C2104 1.391 . S
C2106 H2096 0.950 . S
C2106 C2107 1.386 . S
C2106 C2108 1.391 . S
C2107 C2106 1.386 . S
C2107 C2111 1.393 . S
C2108 H2097 0.950 . S
C2108 C2106 1.391 . S
C2108 C2109 1.400 . S
C2109 C2103 1.491 . S
C2109 C2108 1.400 . S
C2109 C2110 1.398 . S
C2110 H2098 0.950 . S
C2110 C2109 1.398 . S
C2110 C2111 1.391 . S
C2111 H2099 0.950 . S
C2111 C2107 1.393 . S
C2111 C2110 1.391 . S
H2112 C2120 0.950 . S
H2113 C2125 0.950 . S
H2114 C2122 0.950 . S
H2115 C2124 0.950 . S
H2116 C2126 0.950 . S
H2117 C2128 0.950 . S
H2118 C2130 0.950 . S
H2119 C2131 0.950 . S
C2120 H2112 0.950 . S
C2120 C2121 1.386 . S
C2120 C2122 1.391 . S
C2121 C2120 1.386 . S
C2121 C2125 1.393 . S
C2122 H2114 0.950 . S
C2122 C2120 1.391 . S
C2122 C2123 1.400 . S
C2123 C2122 1.400 . S
C2123 C2124 1.398 . S
C2123 C2129 1.491 . S
C2124 H2115 0.950 . S
C2124 C2123 1.398 . S
C2124 C2125 1.391 . S
C2125 H2113 0.950 . S
C2125 C2121 1.393 . S
C2125 C2124 1.391 . S
C2126 H2116 0.950 . S
C2126 C2127 1.386 . S
C2126 C2128 1.391 . S
C2127 C2126 1.386 . S
C2127 C2131 1.393 . S
C2128 H2117 0.950 . S
C2128 C2126 1.391 . S
C2128 C2129 1.400 . S
C2129 C2123 1.491 . S
C2129 C2128 1.400 . S
C2129 C2130 1.398 . S
C2130 H2118 0.950 . S
C2130 C2129 1.398 . S
C2130 C2131 1.391 . S
C2131 H2119 0.950 . S
C2131 C2127 1.393 . S
C2131 C2130 1.391 . S
H2132 C2140 0.950 . S
H2133 C2145 0.950 . S
H2134 C2142 0.950 . S
H2135 C2144 0.950 . S
H2136 C2146 0.950 . S
H2137 C2148 0.950 . S
H2138 C2150 0.950 . S
H2139 C2151 0.950 . S
C2140 H2132 0.950 . S
C2140 C2141 1.386 . S
C2140 C2142 1.391 . S
C2141 C2140 1.386 . S
C2141 C2145 1.393 . S
C2142 H2134 0.950 . S
C2142 C2140 1.391 . S
C2142 C2143 1.400 . S
C2143 C2142 1.400 . S
C2143 C2144 1.398 . S
C2143 C2149 1.491 . S
C2144 H2135 0.950 . S
C2144 C2143 1.398 . S
C2144 C2145 1.391 . S
C2145 H2133 0.950 . S
C2145 C2141 1.393 . S
C2145 C2144 1.391 . S
C2146 H2136 0.950 . S
C2146 C2147 1.386 . S
C2146 C2148 1.391 . S
C2147 C2146 1.386 . S
C2147 C2151 1.393 . S
C2148 H2137 0.950 . S
C2148 C2146 1.391 . S
C2148 C2149 1.400 . S
C2149 C2143 1.491 . S
C2149 C2148 1.400 . S
C2149 C2150 1.398 . S
C2150 H2138 0.950 . S
C2150 C2149 1.398 . S
C2150 C2151 1.391 . S
C2151 H2139 0.950 . S
C2151 C2147 1.393 . S
C2151 C2150 1.391 . S
H2152 C2160 0.950 . S
H2153 C2165 0.950 . S
H2154 C2162 0.950 . S
H2155 C2164 0.950 . S
H2156 C2166 0.950 . S
H2157 C2168 0.950 . S
H2158 C2170 0.950 . S
H2159 C2171 0.950 . S
C2160 H2152 0.950 . S
C2160 C2161 1.386 . S
C2160 C2162 1.391 . S
C2161 C2160 1.386 . S
C2161 C2165 1.393 . S
C2162 H2154 0.950 . S
C2162 C2160 1.391 . S
C2162 C2163 1.400 . S
C2163 C2162 1.400 . S
C2163 C2164 1.398 . S
C2163 C2169 1.491 . S
C2164 H2155 0.950 . S
C2164 C2163 1.398 . S
C2164 C2165 1.391 . S
C2165 H2153 0.950 . S
C2165 C2161 1.393 . S
C2165 C2164 1.391 . S
C2166 H2156 0.950 . S
C2166 C2167 1.386 . S
C2166 C2168 1.391 . S
C2167 C2166 1.386 . S
C2167 C2171 1.393 . S
C2168 H2157 0.950 . S
C2168 C2166 1.391 . S
C2168 C2169 1.400 . S
C2169 C2163 1.491 . S
C2169 C2168 1.400 . S
C2169 C2170 1.398 . S
C2170 H2158 0.950 . S
C2170 C2169 1.398 . S
C2170 C2171 1.391 . S
C2171 H2159 0.950 . S
C2171 C2167 1.393 . S
C2171 C2170 1.391 . S
H2172 C2180 0.950 . S
H2173 C2185 0.950 . S
H2174 C2182 0.950 . S
H2175 C2184 0.950 . S
H2176 C2186 0.950 . S
H2177 C2188 0.950 . S
H2178 C2190 0.950 . S
H2179 C2191 0.950 . S
C2180 H2172 0.950 . S
C2180 C2181 1.386 . S
C2180 C2182 1.391 . S
C2181 C2180 1.386 . S
C2181 C2185 1.393 . S
C2182 H2174 0.950 . S
C2182 C2180 1.391 . S
C2182 C2183 1.400 . S
C2183 C2182 1.400 . S
C2183 C2184 1.398 . S
C2183 C2189 1.491 . S
C2184 H2175 0.950 . S
C2184 C2183 1.398 . S
C2184 C2185 1.391 . S
C2185 H2173 0.950 . S
C2185 C2181 1.393 . S
C2185 C2184 1.391 . S
C2186 H2176 0.950 . S
C2186 C2187 1.386 . S
C2186 C2188 1.391 . S
C2187 C2186 1.386 . S
C2187 C2191 1.393 . S
C2188 H2177 0.950 . S
C2188 C2186 1.391 . S
C2188 C2189 1.400 . S
C2189 C2183 1.491 . S
C2189 C2188 1.400 . S
C2189 C2190 1.398 . S
C2190 H2178 0.950 . S
C2190 C2189 1.398 . S
C2190 C2191 1.391 . S
C2191 H2179 0.950 . S
C2191 C2187 1.393 . S
C2191 C2190 1.391 . S
H2192 C2200 0.950 . S
H2193 C2205 0.950 . S
H2194 C2202 0.950 . S
H2195 C2204 0.950 . S
H2196 C2206 0.950 . S
H2197 C2208 0.950 . S
H2198 C2210 0.950 . S
H2199 C2211 0.950 . S
C2200 H2192 0.950 . S
C2200 C2201 1.386 . S
C2200 C2202 1.391 . S
C2201 C2200 1.386 . S
C2201 C2205 1.393 . S
C2202 H2194 0.950 . S
C2202 C2200 1.391 . S
C2202 C2203 1.400 . S
C2203 C2202 1.400 . S
C2203 C2204 1.398 . S
C2203 C2209 1.491 . S
C2204 H2195 0.950 . S
C2204 C2203 1.398 . S
C2204 C2205 1.391 . S
C2205 H2193 0.950 . S
C2205 C2201 1.393 . S
C2205 C2204 1.391 . S
C2206 H2196 0.950 . S
C2206 C2207 1.386 . S
C2206 C2208 1.391 . S
C2207 C2206 1.386 . S
C2207 C2211 1.393 . S
C2208 H2197 0.950 . S
C2208 C2206 1.391 . S
C2208 C2209 1.400 . S
C2209 C2203 1.491 . S
C2209 C2208 1.400 . S
C2209 C2210 1.398 . S
C2210 H2198 0.950 . S
C2210 C2209 1.398 . S
C2210 C2211 1.391 . S
C2211 H2199 0.950 . S
C2211 C2207 1.393 . S
C2211 C2210 1.391 . S
H2212 C2220 0.950 . S
H2213 C2225 0.950 . S
H2214 C2222 0.950 . S
H2215 C2224 0.950 . S
H2216 C2226 0.950 . S
H2217 C2228 0.950 . S
H2218 C2230 0.950 . S
H2219 C2231 0.950 . S
C2220 H2212 0.950 . S
C2220 C2221 1.386 . S
C2220 C2222 1.391 . S
C2221 C2220 1.386 . S
C2221 C2225 1.393 . S
C2222 H2214 0.950 . S
C2222 C2220 1.391 . S
C2222 C2223 1.400 . S
C2223 C2222 1.400 . S
C2223 C2224 1.398 . S
C2223 C2229 1.491 . S
C2224 H2215 0.950 . S
C2224 C2223 1.398 . S
C2224 C2225 1.391 . S
C2225 H2213 0.950 . S
C2225 C2221 1.393 . S
C2225 C2224 1.391 . S
C2226 H2216 0.950 . S
C2226 C2227 1.386 . S
C2226 C2228 1.391 . S
C2227 C2226 1.386 . S
C2227 C2231 1.393 . S
C2228 H2217 0.950 . S
C2228 C2226 1.391 . S
C2228 C2229 1.400 . S
C2229 C2223 1.491 . S
C2229 C2228 1.400 . S
C2229 C2230 1.398 . S
C2230 H2218 0.950 . S
C2230 C2229 1.398 . S
C2230 C2231 1.391 . S
C2231 H2219 0.950 . S
C2231 C2227 1.393 . S
C2231 C2230 1.391 . S
H2232 C2240 0.950 . S
H2233 C2245 0.950 . S
H2234 C2242 0.950 . S
H2235 C2244 0.950 . S
H2236 C2246 0.950 . S
H2237 C2248 0.950 . S
H2238 C2250 0.950 . S
H2239 C2251 0.950 . S
C2240 H2232 0.950 . S
C2240 C2241 1.386 . S
C2240 C2242 1.391 . S
C2241 C2240 1.386 . S
C2241 C2245 1.393 . S
C2242 H2234 0.950 . S
C2242 C2240 1.391 . S
C2242 C2243 1.400 . S
C2243 C2242 1.400 . S
C2243 C2244 1.398 . S
C2243 C2249 1.491 . S
C2244 H2235 0.950 . S
C2244 C2243 1.398 . S
C2244 C2245 1.391 . S
C2245 H2233 0.950 . S
C2245 C2241 1.393 . S
C2245 C2244 1.391 . S
C2246 H2236 0.950 . S
C2246 C2247 1.386 . S
C2246 C2248 1.391 . S
C2247 C2246 1.386 . S
C2247 C2251 1.393 . S
C2248 H2237 0.950 . S
C2248 C2246 1.391 . S
C2248 C2249 1.400 . S
C2249 C2243 1.491 . S
C2249 C2248 1.400 . S
C2249 C2250 1.398 . S
C2250 H2238 0.950 . S
C2250 C2249 1.398 . S
C2250 C2251 1.391 . S
C2251 H2239 0.950 . S
C2251 C2247 1.393 . S
C2251 C2250 1.391 . S
H2252 C2260 0.950 . S
H2253 C2265 0.950 . S
H2254 C2262 0.950 . S
H2255 C2264 0.950 . S
H2256 C2266 0.950 . S
H2257 C2268 0.950 . S
H2258 C2270 0.950 . S
H2259 C2271 0.950 . S
C2260 H2252 0.950 . S
C2260 C2261 1.386 . S
C2260 C2262 1.391 . S
C2261 C2260 1.386 . S
C2261 C2265 1.393 . S
C2262 H2254 0.950 . S
C2262 C2260 1.391 . S
C2262 C2263 1.400 . S
C2263 C2262 1.400 . S
C2263 C2264 1.398 . S
C2263 C2269 1.491 . S
C2264 H2255 0.950 . S
C2264 C2263 1.398 . S
C2264 C2265 1.391 . S
C2265 H2253 0.950 . S
C2265 C2261 1.393 . S
C2265 C2264 1.391 . S
C2266 H2256 0.950 . S
C2266 C2267 1.386 . S
C2266 C2268 1.391 . S
C2267 C2266 1.386 . S
C2267 C2271 1.393 . S
C2268 H2257 0.950 . S
C2268 C2266 1.391 . S
C2268 C2269 1.400 . S
C2269 C2263 1.491 . S
C2269 C2268 1.400 . S
C2269 C2270 1.398 . S
C2270 H2258 0.950 . S
C2270 C2269 1.398 . S
C2270 C2271 1.391 . S
C2271 H2259 0.950 . S
C2271 C2267 1.393 . S
C2271 C2270 1.391 . S
H2272 C2280 0.950 . S
H2273 C2285 0.950 . S
H2274 C2282 0.950 . S
H2275 C2284 0.950 1_565 S
H2276 C2286 0.950 . S
H2277 C2288 0.950 . S
H2278 C2290 0.950 . S
H2279 C2291 0.950 . S
C2280 H2272 0.950 . S
C2280 C2281 1.386 . S
C2280 C2282 1.391 . S
C2281 C2280 1.386 . S
C2281 C2285 1.393 . S
C2282 H2274 0.950 . S
C2282 C2280 1.391 . S
C2282 C2283 1.400 . S
C2283 C2282 1.400 . S
C2283 C2284 1.398 . S
C2283 C2289 1.491 . S
C2284 H2275 0.950 1_545 S
C2284 C2283 1.398 . S
C2284 C2285 1.391 . S
C2285 H2273 0.950 . S
C2285 C2281 1.393 . S
C2285 C2284 1.391 . S
C2286 H2276 0.950 . S
C2286 C2287 1.386 . S
C2286 C2288 1.391 . S
C2287 C2286 1.386 . S
C2287 C2291 1.393 . S
C2288 H2277 0.950 . S
C2288 C2286 1.391 . S
C2288 C2289 1.400 1_565 S
C2289 C2283 1.491 . S
C2289 C2288 1.400 1_545 S
C2289 C2290 1.398 . S
C2290 H2278 0.950 . S
C2290 C2289 1.398 . S
C2290 C2291 1.391 1_545 S
C2291 H2279 0.950 . S
C2291 C2287 1.393 . S
C2291 C2290 1.391 1_565 S
H2292 C2300 0.950 . S
H2293 C2305 0.950 . S
H2294 C2302 0.950 . S
H2295 C2304 0.950 . S
H2296 C2306 0.950 . S
H2297 C2308 0.950 . S
H2298 C2310 0.950 . S
H2299 C2311 0.950 . S
C2300 H2292 0.950 . S
C2300 C2301 1.386 . S
C2300 C2302 1.391 1_565 S
C2301 C2300 1.386 . S
C2301 C2305 1.393 . S
C2302 H2294 0.950 . S
C2302 C2300 1.391 1_545 S
C2302 C2303 1.400 . S
C2303 C2302 1.400 . S
C2303 C2304 1.398 . S
C2303 C2309 1.491 . S
C2304 H2295 0.950 . S
C2304 C2303 1.398 . S
C2304 C2305 1.391 1_545 S
C2305 H2293 0.950 . S
C2305 C2301 1.393 . S
C2305 C2304 1.391 1_565 S
C2306 H2296 0.950 . S
C2306 C2307 1.386 . S
C2306 C2308 1.391 . S
C2307 C2306 1.386 . S
C2307 C2311 1.393 . S
C2308 H2297 0.950 . S
C2308 C2306 1.391 . S
C2308 C2309 1.400 . S
C2309 C2303 1.491 . S
C2309 C2308 1.400 . S
C2309 C2310 1.398 . S
C2310 H2298 0.950 . S
C2310 C2309 1.398 . S
C2310 C2311 1.391 . S
C2311 H2299 0.950 . S
C2311 C2307 1.393 . S
C2311 C2310 1.391 . S
H2312 C2320 0.950 . S
H2313 C2325 0.950 . S
H2314 C2322 0.950 . S
H2315 C2324 0.950 . S
H2316 C2326 0.950 . S
H2317 C2328 0.950 . S
H2318 C2330 0.950 . S
H2319 C2331 0.950 . S
C2320 H2312 0.950 . S
C2320 C2321 1.386 . S
C2320 C2322 1.391 . S
C2321 C2320 1.386 . S
C2321 C2325 1.393 . S
C2322 H2314 0.950 . S
C2322 C2320 1.391 . S
C2322 C2323 1.400 . S
C2323 C2322 1.400 . S
C2323 C2324 1.398 . S
C2323 C2329 1.491 . S
C2324 H2315 0.950 . S
C2324 C2323 1.398 . S
C2324 C2325 1.391 . S
C2325 H2313 0.950 . S
C2325 C2321 1.393 . S
C2325 C2324 1.391 . S
C2326 H2316 0.950 . S
C2326 C2327 1.386 . S
C2326 C2328 1.391 . S
C2327 C2326 1.386 . S
C2327 C2331 1.393 . S
C2328 H2317 0.950 . S
C2328 C2326 1.391 . S
C2328 C2329 1.400 . S
C2329 C2323 1.491 . S
C2329 C2328 1.400 . S
C2329 C2330 1.398 . S
C2330 H2318 0.950 . S
C2330 C2329 1.398 . S
C2330 C2331 1.391 . S
C2331 H2319 0.950 . S
C2331 C2327 1.393 . S
C2331 C2330 1.391 . S
H2332 C2340 0.950 . S
H2333 C2345 0.950 . S
H2334 C2342 0.950 . S
H2335 C2344 0.950 . S
H2336 C2346 0.950 . S
H2337 C2348 0.950 . S
H2338 C2350 0.950 . S
H2339 C2351 0.950 . S
C2340 H2332 0.950 . S
C2340 C2341 1.386 . S
C2340 C2342 1.391 . S
C2341 C2340 1.386 . S
C2341 C2345 1.393 . S
C2342 H2334 0.950 . S
C2342 C2340 1.391 . S
C2342 C2343 1.400 . S
C2343 C2342 1.400 . S
C2343 C2344 1.398 . S
C2343 C2349 1.491 . S
C2344 H2335 0.950 . S
C2344 C2343 1.398 . S
C2344 C2345 1.391 . S
C2345 H2333 0.950 . S
C2345 C2341 1.393 . S
C2345 C2344 1.391 . S
C2346 H2336 0.950 . S
C2346 C2347 1.386 . S
C2346 C2348 1.391 . S
C2347 C2346 1.386 . S
C2347 C2351 1.393 . S
C2348 H2337 0.950 . S
C2348 C2346 1.391 . S
C2348 C2349 1.400 . S
C2349 C2343 1.491 . S
C2349 C2348 1.400 . S
C2349 C2350 1.398 . S
C2350 H2338 0.950 . S
C2350 C2349 1.398 . S
C2350 C2351 1.391 . S
C2351 H2339 0.950 . S
C2351 C2347 1.393 . S
C2351 C2350 1.391 . S
H2352 C2360 0.950 . S
H2353 C2365 0.950 . S
H2354 C2362 0.950 . S
H2355 C2364 0.950 . S
H2356 C2366 0.950 . S
H2357 C2368 0.950 . S
H2358 C2370 0.950 . S
H2359 C2371 0.950 . S
C2360 H2352 0.950 . S
C2360 C2361 1.386 . S
C2360 C2362 1.391 . S
C2361 C2360 1.386 . S
C2361 C2365 1.393 . S
C2362 H2354 0.950 . S
C2362 C2360 1.391 . S
C2362 C2363 1.400 . S
C2363 C2362 1.400 . S
C2363 C2364 1.398 . S
C2363 C2369 1.491 . S
C2364 H2355 0.950 . S
C2364 C2363 1.398 . S
C2364 C2365 1.391 . S
C2365 H2353 0.950 . S
C2365 C2361 1.393 . S
C2365 C2364 1.391 . S
C2366 H2356 0.950 . S
C2366 C2367 1.386 . S
C2366 C2368 1.391 . S
C2367 C2366 1.386 . S
C2367 C2371 1.393 . S
C2368 H2357 0.950 . S
C2368 C2366 1.391 . S
C2368 C2369 1.400 . S
C2369 C2363 1.491 . S
C2369 C2368 1.400 . S
C2369 C2370 1.398 . S
C2370 H2358 0.950 . S
C2370 C2369 1.398 . S
C2370 C2371 1.391 . S
C2371 H2359 0.950 . S
C2371 C2367 1.393 . S
C2371 C2370 1.391 . S
H2372 C2380 0.950 . S
H2373 C2385 0.950 . S
H2374 C2382 0.950 . S
H2375 C2384 0.950 . S
H2376 C2386 0.950 . S
H2377 C2388 0.950 . S
H2378 C2390 0.950 . S
H2379 C2391 0.954 1_565 S
C2380 H2372 0.950 . S
C2380 C2381 1.386 . S
C2380 C2382 1.391 . S
C2381 C2380 1.386 . S
C2381 C2385 1.393 . S
C2382 H2374 0.950 . S
C2382 C2380 1.391 . S
C2382 C2383 1.400 . S
C2383 C2382 1.400 . S
C2383 C2384 1.398 . S
C2383 C2389 1.491 . S
C2384 H2375 0.950 . S
C2384 C2383 1.398 . S
C2384 C2385 1.391 . S
C2385 H2373 0.950 . S
C2385 C2381 1.393 . S
C2385 C2384 1.391 . S
C2386 H2376 0.950 . S
C2386 C2387 1.386 . S
C2386 C2388 1.391 1_565 S
C2387 C2386 1.386 . S
C2387 C2391 1.360 1_565 S
C2388 H2377 0.950 . S
C2388 C2386 1.391 1_545 S
C2388 C2389 1.400 . S
C2389 C2383 1.491 . S
C2389 C2388 1.400 . S
C2389 C2390 1.398 . S
C2390 H2378 0.950 . S
C2390 C2389 1.398 . S
C2390 C2391 1.421 . S
C2391 H2379 0.954 1_545 S
C2391 C2387 1.360 1_545 S
C2391 C2390 1.421 . S
H2392 C2400 0.950 . S
H2393 C2405 0.950 . S
H2394 C2402 0.950 . S
H2395 C2404 0.950 . S
H2396 C2406 0.950 . S
H2397 C2408 0.950 . S
H2398 C2410 0.950 . S
H2399 C2411 0.950 . S
C2400 H2392 0.950 . S
C2400 C2401 1.386 . S
C2400 C2402 1.391 . S
C2401 C2400 1.386 . S
C2401 C2405 1.393 . S
C2402 H2394 0.950 . S
C2402 C2400 1.391 . S
C2402 C2403 1.400 . S
C2403 C2402 1.400 . S
C2403 C2404 1.398 . S
C2403 C2409 1.491 . S
C2404 H2395 0.950 . S
C2404 C2403 1.398 . S
C2404 C2405 1.391 . S
C2405 H2393 0.950 . S
C2405 C2401 1.393 . S
C2405 C2404 1.391 . S
C2406 H2396 0.950 . S
C2406 C2407 1.386 . S
C2406 C2408 1.391 . S
C2407 C2406 1.386 . S
C2407 C2411 1.393 . S
C2408 H2397 0.950 . S
C2408 C2406 1.391 . S
C2408 C2409 1.400 . S
C2409 C2403 1.491 . S
C2409 C2408 1.400 . S
C2409 C2410 1.398 . S
C2410 H2398 0.950 . S
C2410 C2409 1.398 . S
C2410 C2411 1.391 . S
C2411 H2399 0.950 . S
C2411 C2407 1.393 . S
C2411 C2410 1.391 . S
H2412 C2420 0.950 . S
H2413 C2425 0.950 . S
H2414 C2422 0.950 . S
H2415 C2424 0.950 . S
H2416 C2426 0.950 . S
H2417 C2428 0.950 . S
H2418 C2430 0.950 . S
H2419 C2431 0.950 . S
C2420 H2412 0.950 . S
C2420 C2421 1.386 . S
C2420 C2422 1.391 . S
C2421 C2420 1.386 . S
C2421 C2425 1.393 . S
C2422 H2414 0.950 . S
C2422 C2420 1.391 . S
C2422 C2423 1.400 . S
C2423 C2422 1.400 . S
C2423 C2424 1.398 . S
C2423 C2429 1.491 . S
C2424 H2415 0.950 . S
C2424 C2423 1.398 . S
C2424 C2425 1.391 . S
C2425 H2413 0.950 . S
C2425 C2421 1.393 . S
C2425 C2424 1.391 . S
C2426 H2416 0.950 . S
C2426 C2427 1.386 . S
C2426 C2428 1.391 . S
C2427 C2426 1.386 . S
C2427 C2431 1.393 . S
C2428 H2417 0.950 . S
C2428 C2426 1.391 . S
C2428 C2429 1.400 . S
C2429 C2423 1.491 . S
C2429 C2428 1.400 . S
C2429 C2430 1.398 . S
C2430 H2418 0.950 . S
C2430 C2429 1.398 . S
C2430 C2431 1.391 . S
C2431 H2419 0.950 . S
C2431 C2427 1.393 . S
C2431 C2430 1.391 . S
H2432 C2440 0.950 . S
H2433 C2445 0.950 . S
H2434 C2442 0.950 . S
H2435 C2444 0.950 . S
H2436 C2446 0.950 . S
H2437 C2448 0.950 . S
H2438 C2450 0.950 . S
H2439 C2451 0.950 . S
C2440 H2432 0.950 . S
C2440 C2441 1.386 . S
C2440 C2442 1.391 . S
C2441 C2440 1.386 . S
C2441 C2445 1.393 . S
C2442 H2434 0.950 . S
C2442 C2440 1.391 . S
C2442 C2443 1.400 . S
C2443 C2442 1.400 . S
C2443 C2444 1.398 . S
C2443 C2449 1.491 . S
C2444 H2435 0.950 . S
C2444 C2443 1.398 . S
C2444 C2445 1.391 . S
C2445 H2433 0.950 . S
C2445 C2441 1.393 . S
C2445 C2444 1.391 . S
C2446 H2436 0.950 . S
C2446 C2447 1.386 . S
C2446 C2448 1.391 . S
C2447 C2446 1.386 . S
C2447 C2451 1.393 . S
C2448 H2437 0.950 . S
C2448 C2446 1.391 . S
C2448 C2449 1.400 . S
C2449 C2443 1.491 . S
C2449 C2448 1.400 . S
C2449 C2450 1.398 . S
C2450 H2438 0.950 . S
C2450 C2449 1.398 . S
C2450 C2451 1.391 . S
C2451 H2439 0.950 . S
C2451 C2447 1.393 . S
C2451 C2450 1.391 . S
H2452 C2460 0.950 . S
H2453 C2465 0.950 . S
H2454 C2462 0.950 . S
H2455 C2464 0.950 . S
H2456 C2466 0.950 . S
H2457 C2468 0.950 . S
H2458 C2470 0.950 . S
H2459 C2471 0.950 . S
C2460 H2452 0.950 . S
C2460 C2461 1.386 . S
C2460 C2462 1.391 . S
C2461 C2460 1.386 . S
C2461 C2465 1.393 . S
C2462 H2454 0.950 . S
C2462 C2460 1.391 . S
C2462 C2463 1.400 . S
C2463 C2462 1.400 . S
C2463 C2464 1.398 . S
C2463 C2469 1.491 . S
C2464 H2455 0.950 . S
C2464 C2463 1.398 . S
C2464 C2465 1.391 . S
C2465 H2453 0.950 . S
C2465 C2461 1.393 . S
C2465 C2464 1.391 . S
C2466 H2456 0.950 . S
C2466 C2467 1.386 . S
C2466 C2468 1.391 . S
C2467 C2466 1.386 . S
C2467 C2471 1.393 . S
C2468 H2457 0.950 . S
C2468 C2466 1.391 . S
C2468 C2469 1.400 . S
C2469 C2463 1.491 . S
C2469 C2468 1.400 . S
C2469 C2470 1.398 . S
C2470 H2458 0.950 . S
C2470 C2469 1.398 . S
C2470 C2471 1.391 . S
C2471 H2459 0.950 . S
C2471 C2467 1.393 . S
C2471 C2470 1.391 . S
H2472 C2480 0.950 . S
H2473 C2485 0.950 . S
H2474 C2482 0.950 . S
H2475 C2484 0.950 . S
H2476 C2486 0.950 . S
H2477 C2488 0.950 . S
H2478 C2490 0.950 . S
H2479 C2491 0.950 1_554 S
C2480 H2472 0.950 . S
C2480 C2481 1.386 . S
C2480 C2482 1.391 . S
C2481 C2480 1.386 . S
C2481 C2485 1.393 . S
C2482 H2474 0.950 . S
C2482 C2480 1.391 . S
C2482 C2483 1.400 . S
C2483 C2482 1.400 . S
C2483 C2484 1.398 . S
C2483 C2489 1.491 . S
C2484 H2475 0.950 . S
C2484 C2483 1.398 . S
C2484 C2485 1.391 . S
C2485 H2473 0.950 . S
C2485 C2481 1.393 . S
C2485 C2484 1.391 . S
C2486 H2476 0.950 . S
C2486 C2487 1.386 . S
C2486 C2488 1.391 . S
C2487 C2486 1.386 . S
C2487 C2491 1.393 . S
C2488 H2477 0.950 . S
C2488 C2486 1.391 . S
C2488 C2489 1.400 . S
C2489 C2483 1.491 . S
C2489 C2488 1.400 . S
C2489 C2490 1.398 . S
C2490 H2478 0.950 . S
C2490 C2489 1.398 . S
C2490 C2491 1.391 . S
C2491 H2479 0.950 1_556 S
C2491 C2487 1.393 . S
C2491 C2490 1.391 . S
H2492 C2500 0.950 . S
H2493 C2505 0.950 . S
H2494 C2502 0.950 . S
H2495 C2504 0.950 . S
H2496 C2506 0.950 . S
H2497 C2508 0.950 . S
H2498 C2510 0.950 . S
H2499 C2511 0.950 . S
C2500 H2492 0.950 . S
C2500 C2501 1.386 . S
C2500 C2502 1.391 . S
C2501 C2500 1.386 . S
C2501 C2505 1.393 . S
C2502 H2494 0.950 . S
C2502 C2500 1.391 . S
C2502 C2503 1.400 . S
C2503 C2502 1.400 . S
C2503 C2504 1.398 . S
C2503 C2509 1.491 . S
C2504 H2495 0.950 . S
C2504 C2503 1.398 . S
C2504 C2505 1.391 . S
C2505 H2493 0.950 . S
C2505 C2501 1.393 . S
C2505 C2504 1.391 . S
C2506 H2496 0.950 . S
C2506 C2507 1.386 . S
C2506 C2508 1.391 . S
C2507 C2506 1.386 . S
C2507 C2511 1.393 . S
C2508 H2497 0.950 . S
C2508 C2506 1.391 . S
C2508 C2509 1.400 . S
C2509 C2503 1.491 . S
C2509 C2508 1.400 . S
C2509 C2510 1.398 . S
C2510 H2498 0.950 . S
C2510 C2509 1.398 . S
C2510 C2511 1.391 . S
C2511 H2499 0.950 . S
C2511 C2507 1.393 . S
C2511 C2510 1.391 . S
H2512 C2520 0.950 . S
H2513 C2525 0.950 . S
H2514 C2522 0.950 . S
H2515 C2524 0.950 . S
H2516 C2526 0.950 . S
H2517 C2528 0.950 . S
H2518 C2530 0.950 . S
H2519 C2531 0.950 . S
C2520 H2512 0.950 . S
C2520 C2521 1.386 . S
C2520 C2522 1.391 . S
C2521 C2520 1.386 . S
C2521 C2525 1.393 . S
C2522 H2514 0.950 . S
C2522 C2520 1.391 . S
C2522 C2523 1.400 . S
C2523 C2522 1.400 . S
C2523 C2524 1.398 . S
C2523 C2529 1.491 . S
C2524 H2515 0.950 . S
C2524 C2523 1.398 . S
C2524 C2525 1.391 . S
C2525 H2513 0.950 . S
C2525 C2521 1.393 . S
C2525 C2524 1.391 . S
C2526 H2516 0.950 . S
C2526 C2527 1.386 . S
C2526 C2528 1.391 . S
C2527 C2526 1.386 . S
C2527 C2531 1.393 . S
C2528 H2517 0.950 . S
C2528 C2526 1.391 . S
C2528 C2529 1.400 . S
C2529 C2523 1.491 . S
C2529 C2528 1.400 . S
C2529 C2530 1.398 . S
C2530 H2518 0.950 . S
C2530 C2529 1.398 . S
C2530 C2531 1.391 . S
C2531 H2519 0.950 . S
C2531 C2527 1.393 . S
C2531 C2530 1.391 . S
H2532 C2540 0.950 . S
H2533 C2545 0.950 . S
H2534 C2542 0.950 . S
H2535 C2544 0.950 . S
H2536 C2546 0.950 . S
H2537 C2548 0.950 . S
H2538 C2550 0.950 . S
H2539 C2551 0.950 . S
C2540 H2532 0.950 . S
C2540 C2541 1.386 . S
C2540 C2542 1.391 . S
C2541 C2540 1.386 . S
C2541 C2545 1.393 . S
C2542 H2534 0.950 . S
C2542 C2540 1.391 . S
C2542 C2543 1.400 . S
C2543 C2542 1.400 . S
C2543 C2544 1.398 . S
C2543 C2549 1.491 . S
C2544 H2535 0.950 . S
C2544 C2543 1.398 . S
C2544 C2545 1.391 . S
C2545 H2533 0.950 . S
C2545 C2541 1.393 . S
C2545 C2544 1.391 . S
C2546 H2536 0.950 . S
C2546 C2547 1.386 . S
C2546 C2548 1.391 . S
C2547 C2546 1.386 . S
C2547 C2551 1.393 . S
C2548 H2537 0.950 . S
C2548 C2546 1.391 . S
C2548 C2549 1.400 . S
C2549 C2543 1.491 . S
C2549 C2548 1.400 . S
C2549 C2550 1.398 . S
C2550 H2538 0.950 . S
C2550 C2549 1.398 . S
C2550 C2551 1.391 . S
C2551 H2539 0.950 . S
C2551 C2547 1.393 . S
C2551 C2550 1.391 . S
H2552 C2560 0.950 . S
H2553 C2565 0.950 . S
H2554 C2562 0.950 . S
H2555 C2564 0.950 . S
H2556 C2566 0.950 . S
H2557 C2568 0.950 . S
H2558 C2570 0.950 . S
H2559 C2571 0.950 . S
C2560 H2552 0.950 . S
C2560 C2561 1.386 . S
C2560 C2562 1.391 . S
C2561 C2560 1.386 . S
C2561 C2565 1.393 . S
C2562 H2554 0.950 . S
C2562 C2560 1.391 . S
C2562 C2563 1.400 . S
C2563 C2562 1.400 . S
C2563 C2564 1.398 . S
C2563 C2569 1.491 . S
C2564 H2555 0.950 . S
C2564 C2563 1.398 . S
C2564 C2565 1.391 . S
C2565 H2553 0.950 . S
C2565 C2561 1.393 . S
C2565 C2564 1.391 . S
C2566 H2556 0.950 . S
C2566 C2567 1.386 . S
C2566 C2568 1.391 . S
C2567 C2566 1.386 . S
C2567 C2571 1.393 . S
C2568 H2557 0.950 . S
C2568 C2566 1.391 . S
C2568 C2569 1.400 . S
C2569 C2563 1.491 . S
C2569 C2568 1.400 . S
C2569 C2570 1.398 . S
C2570 H2558 0.950 . S
C2570 C2569 1.398 . S
C2570 C2571 1.391 . S
C2571 H2559 0.950 . S
C2571 C2567 1.393 . S
C2571 C2570 1.391 . S
H2572 C2580 0.950 . S
H2573 C2585 0.950 . S
H2574 C2582 0.950 . S
H2575 C2584 0.950 . S
H2576 C2586 0.950 . S
H2577 C2588 0.950 . S
H2578 C2590 0.950 . S
H2579 C2591 0.950 . S
C2580 H2572 0.950 . S
C2580 C2581 1.386 . S
C2580 C2582 1.391 . S
C2581 C2580 1.386 . S
C2581 C2585 1.393 . S
C2582 H2574 0.950 . S
C2582 C2580 1.391 . S
C2582 C2583 1.400 . S
C2583 C2582 1.400 . S
C2583 C2584 1.398 . S
C2583 C2589 1.491 . S
C2584 H2575 0.950 . S
C2584 C2583 1.398 . S
C2584 C2585 1.391 . S
C2585 H2573 0.950 . S
C2585 C2581 1.393 . S
C2585 C2584 1.391 . S
C2586 H2576 0.950 . S
C2586 C2587 1.386 . S
C2586 C2588 1.391 . S
C2587 C2586 1.386 . S
C2587 C2591 1.393 . S
C2588 H2577 0.950 . S
C2588 C2586 1.391 . S
C2588 C2589 1.400 . S
C2589 C2583 1.491 . S
C2589 C2588 1.400 . S
C2589 C2590 1.398 . S
C2590 H2578 0.950 . S
C2590 C2589 1.398 . S
C2590 C2591 1.391 . S
C2591 H2579 0.950 . S
C2591 C2587 1.393 . S
C2591 C2590 1.391 . S
H2592 C2600 0.950 . S
H2593 C2605 0.950 . S
H2594 C2602 0.950 . S
H2595 C2604 0.950 . S
H2596 C2606 0.950 . S
H2597 C2608 0.950 . S
H2598 C2610 0.950 1_655 S
H2599 C2611 0.950 . S
C2600 H2592 0.950 . S
C2600 C2601 1.386 . S
C2600 C2602 1.391 . S
C2601 C2600 1.386 . S
C2601 C2605 1.393 1_655 S
C2602 H2594 0.950 . S
C2602 C2600 1.391 . S
C2602 C2603 1.400 1_655 S
C2603 C2602 1.400 1_455 S
C2603 C2604 1.398 . S
C2603 C2609 1.491 . S
C2604 H2595 0.950 . S
C2604 C2603 1.398 . S
C2604 C2605 1.391 . S
C2605 H2593 0.950 . S
C2605 C2601 1.393 1_455 S
C2605 C2604 1.391 . S
C2606 H2596 0.950 . S
C2606 C2607 1.386 . S
C2606 C2608 1.391 . S
C2607 C2606 1.386 . S
C2607 C2611 1.393 . S
C2608 H2597 0.950 . S
C2608 C2606 1.391 . S
C2608 C2609 1.400 . S
C2609 C2603 1.491 . S
C2609 C2608 1.400 . S
C2609 C2610 1.398 . S
C2610 H2598 0.950 1_455 S
C2610 C2609 1.398 . S
C2610 C2611 1.391 . S
C2611 H2599 0.950 . S
C2611 C2607 1.393 . S
C2611 C2610 1.391 . S
H2612 C2620 0.950 . S
H2613 C2625 0.950 . S
H2614 C2622 0.950 . S
H2615 C2624 0.950 . S
H2616 C2626 0.950 . S
H2617 C2628 0.950 . S
H2618 C2630 0.950 . S
H2619 C2631 0.950 . S
C2620 H2612 0.950 . S
C2620 C2621 1.386 . S
C2620 C2622 1.391 . S
C2621 C2620 1.386 . S
C2621 C2625 1.393 . S
C2622 H2614 0.950 . S
C2622 C2620 1.391 . S
C2622 C2623 1.400 . S
C2623 C2622 1.400 . S
C2623 C2624 1.398 . S
C2623 C2629 1.491 . S
C2624 H2615 0.950 . S
C2624 C2623 1.398 . S
C2624 C2625 1.391 . S
C2625 H2613 0.950 . S
C2625 C2621 1.393 . S
C2625 C2624 1.391 . S
C2626 H2616 0.950 . S
C2626 C2627 1.386 . S
C2626 C2628 1.391 . S
C2627 C2626 1.386 . S
C2627 C2631 1.393 . S
C2628 H2617 0.950 . S
C2628 C2626 1.391 . S
C2628 C2629 1.400 . S
C2629 C2623 1.491 . S
C2629 C2628 1.400 . S
C2629 C2630 1.398 . S
C2630 H2618 0.950 . S
C2630 C2629 1.398 . S
C2630 C2631 1.391 . S
C2631 H2619 0.950 . S
C2631 C2627 1.393 . S
C2631 C2630 1.391 . S
H2632 C2640 0.950 . S
H2633 C2645 0.950 . S
H2634 C2642 0.950 . S
H2635 C2644 0.950 . S
H2636 C2646 0.950 . S
H2637 C2648 0.950 . S
H2638 C2650 0.950 . S
H2639 C2651 0.950 . S
C2640 H2632 0.950 . S
C2640 C2641 1.386 . S
C2640 C2642 1.391 . S
C2641 C2640 1.386 . S
C2641 C2645 1.393 . S
C2642 H2634 0.950 . S
C2642 C2640 1.391 . S
C2642 C2643 1.400 . S
C2643 C2642 1.400 . S
C2643 C2644 1.398 . S
C2643 C2649 1.491 . S
C2644 H2635 0.950 . S
C2644 C2643 1.398 . S
C2644 C2645 1.391 . S
C2645 H2633 0.950 . S
C2645 C2641 1.393 . S
C2645 C2644 1.391 . S
C2646 H2636 0.950 . S
C2646 C2647 1.386 . S
C2646 C2648 1.391 . S
C2647 C2646 1.386 . S
C2647 C2651 1.393 . S
C2648 H2637 0.950 . S
C2648 C2646 1.391 . S
C2648 C2649 1.400 . S
C2649 C2643 1.491 . S
C2649 C2648 1.400 . S
C2649 C2650 1.398 . S
C2650 H2638 0.950 . S
C2650 C2649 1.398 . S
C2650 C2651 1.391 . S
C2651 H2639 0.950 . S
C2651 C2647 1.393 . S
C2651 C2650 1.391 . S
H2652 C2660 0.950 . S
H2653 C2665 0.950 . S
H2654 C2662 0.950 . S
H2655 C2664 0.950 . S
H2656 C2666 0.950 . S
H2657 C2668 0.950 . S
H2658 C2670 0.950 . S
H2659 C2671 0.950 . S
C2660 H2652 0.950 . S
C2660 C2661 1.386 . S
C2660 C2662 1.391 . S
C2661 C2660 1.386 . S
C2661 C2665 1.393 . S
C2662 H2654 0.950 . S
C2662 C2660 1.391 . S
C2662 C2663 1.400 . S
C2663 C2662 1.400 . S
C2663 C2664 1.398 . S
C2663 C2669 1.491 . S
C2664 H2655 0.950 . S
C2664 C2663 1.398 . S
C2664 C2665 1.391 . S
C2665 H2653 0.950 . S
C2665 C2661 1.393 . S
C2665 C2664 1.391 . S
C2666 H2656 0.950 . S
C2666 C2667 1.386 . S
C2666 C2668 1.391 . S
C2667 C2666 1.386 . S
C2667 C2671 1.393 . S
C2668 H2657 0.950 . S
C2668 C2666 1.391 . S
C2668 C2669 1.400 . S
C2669 C2663 1.491 . S
C2669 C2668 1.400 . S
C2669 C2670 1.398 . S
C2670 H2658 0.950 . S
C2670 C2669 1.398 . S
C2670 C2671 1.391 . S
C2671 H2659 0.950 . S
C2671 C2667 1.393 . S
C2671 C2670 1.391 . S
H2672 C2680 0.950 . S
H2673 C2685 0.950 . S
H2674 C2682 0.950 . S
H2675 C2684 0.974 . S
H2676 C2686 0.950 . S
H2677 C2688 0.953 . S
H2678 C2690 0.950 . S
H2679 C2691 0.950 . S
C2680 H2672 0.950 . S
C2680 C2681 1.386 . S
C2680 C2682 1.391 . S
C2681 C2680 1.386 . S
C2681 C2685 1.393 . S
C2682 H2674 0.950 . S
C2682 C2680 1.391 . S
C2682 C2683 1.400 . S
C2683 C2682 1.400 . S
C2683 C2684 1.398 . S
C2683 C2689 1.491 . S
C2684 H2675 0.974 . S
C2684 C2683 1.398 . S
C2684 C2685 1.391 . S
C2685 H2673 0.950 . S
C2685 C2681 1.393 . S
C2685 C2684 1.391 . S
C2686 H2676 0.950 . S
C2686 C2687 1.386 . S
C2686 C2688 1.407 . S
C2687 C2686 1.386 . S
C2687 C2691 1.386 1_455 S
C2688 H2677 0.953 . S
C2688 C2686 1.407 . S
C2688 C2689 1.383 1_455 S
C2689 C2683 1.491 . S
C2689 C2688 1.383 1_655 S
C2689 C2690 1.398 . S
C2690 H2678 0.950 . S
C2690 C2689 1.398 . S
C2690 C2691 1.391 . S
C2691 H2679 0.950 . S
C2691 C2687 1.386 1_655 S
C2691 C2690 1.391 . S
H2692 C2700 0.950 . S
H2693 C2705 0.950 . S
H2694 C2702 0.950 . S
H2695 C2704 0.950 . S
H2696 C2706 0.950 . S
H2697 C2708 0.950 . S
H2698 C2710 0.950 . S
H2699 C2711 0.950 . S
C2700 H2692 0.950 . S
C2700 C2701 1.386 . S
C2700 C2702 1.391 . S
C2701 C2700 1.386 . S
C2701 C2705 1.393 . S
C2702 H2694 0.950 . S
C2702 C2700 1.391 . S
C2702 C2703 1.400 . S
C2703 C2702 1.400 . S
C2703 C2704 1.398 . S
C2703 C2709 1.491 . S
C2704 H2695 0.950 . S
C2704 C2703 1.398 . S
C2704 C2705 1.391 . S
C2705 H2693 0.950 . S
C2705 C2701 1.393 . S
C2705 C2704 1.391 . S
C2706 H2696 0.950 . S
C2706 C2707 1.386 . S
C2706 C2708 1.391 . S
C2707 C2706 1.386 . S
C2707 C2711 1.393 . S
C2708 H2697 0.950 . S
C2708 C2706 1.391 . S
C2708 C2709 1.400 . S
C2709 C2703 1.491 . S
C2709 C2708 1.400 . S
C2709 C2710 1.398 . S
C2710 H2698 0.950 . S
C2710 C2709 1.398 . S
C2710 C2711 1.391 . S
C2711 H2699 0.950 . S
C2711 C2707 1.393 . S
C2711 C2710 1.391 . S
H2712 C2720 0.950 . S
H2713 C2725 0.950 . S
H2714 C2722 0.950 . S
H2715 C2724 0.950 . S
H2716 C2726 0.950 . S
H2717 C2728 0.950 . S
H2718 C2730 0.950 . S
H2719 C2731 0.950 . S
C2720 H2712 0.950 . S
C2720 C2721 1.386 . S
C2720 C2722 1.391 . S
C2721 C2720 1.386 . S
C2721 C2725 1.393 . S
C2722 H2714 0.950 . S
C2722 C2720 1.391 . S
C2722 C2723 1.400 . S
C2723 C2722 1.400 . S
C2723 C2724 1.398 . S
C2723 C2729 1.491 . S
C2724 H2715 0.950 . S
C2724 C2723 1.398 . S
C2724 C2725 1.391 . S
C2725 H2713 0.950 . S
C2725 C2721 1.393 . S
C2725 C2724 1.391 . S
C2726 H2716 0.950 . S
C2726 C2727 1.386 . S
C2726 C2728 1.391 . S
C2727 C2726 1.386 . S
C2727 C2731 1.393 . S
C2728 H2717 0.950 . S
C2728 C2726 1.391 . S
C2728 C2729 1.400 . S
C2729 C2723 1.491 . S
C2729 C2728 1.400 . S
C2729 C2730 1.398 . S
C2730 H2718 0.950 . S
C2730 C2729 1.398 . S
C2730 C2731 1.391 . S
C2731 H2719 0.950 . S
C2731 C2727 1.393 . S
C2731 C2730 1.391 . S
H2732 C2740 0.950 . S
H2733 C2745 0.950 . S
H2734 C2742 0.950 . S
H2735 C2744 0.950 . S
H2736 C2746 0.950 . S
H2737 C2748 0.950 . S
H2738 C2750 0.950 1_565 S
H2739 C2751 0.950 . S
C2740 H2732 0.950 . S
C2740 C2741 1.386 . S
C2740 C2742 1.391 . S
C2741 C2740 1.386 . S
C2741 C2745 1.393 1_565 S
C2742 H2734 0.950 . S
C2742 C2740 1.391 . S
C2742 C2743 1.400 1_565 S
C2743 C2742 1.400 1_545 S
C2743 C2744 1.398 . S
C2743 C2749 1.491 . S
C2744 H2735 0.950 . S
C2744 C2743 1.398 . S
C2744 C2745 1.391 . S
C2745 H2733 0.950 . S
C2745 C2741 1.393 1_545 S
C2745 C2744 1.391 . S
C2746 H2736 0.950 . S
C2746 C2747 1.386 . S
C2746 C2748 1.391 . S
C2747 C2746 1.386 . S
C2747 C2751 1.393 . S
C2748 H2737 0.950 . S
C2748 C2746 1.391 . S
C2748 C2749 1.400 . S
C2749 C2743 1.491 . S
C2749 C2748 1.400 . S
C2749 C2750 1.398 . S
C2750 H2738 0.950 1_545 S
C2750 C2749 1.398 . S
C2750 C2751 1.391 . S
C2751 H2739 0.950 . S
C2751 C2747 1.393 . S
C2751 C2750 1.391 . S
H2752 C2760 0.950 . S
H2753 C2765 0.950 . S
H2754 C2762 0.950 . S
H2755 C2764 0.950 . S
H2756 C2766 0.950 . S
H2757 C2768 0.950 . S
H2758 C2770 0.950 . S
H2759 C2771 0.950 . S
C2760 H2752 0.950 . S
C2760 C2761 1.386 . S
C2760 C2762 1.391 . S
C2761 C2760 1.386 . S
C2761 C2765 1.393 . S
C2762 H2754 0.950 . S
C2762 C2760 1.391 . S
C2762 C2763 1.400 . S
C2763 C2762 1.400 . S
C2763 C2764 1.398 . S
C2763 C2769 1.491 . S
C2764 H2755 0.950 . S
C2764 C2763 1.398 . S
C2764 C2765 1.391 . S
C2765 H2753 0.950 . S
C2765 C2761 1.393 . S
C2765 C2764 1.391 . S
C2766 H2756 0.950 . S
C2766 C2767 1.386 . S
C2766 C2768 1.391 . S
C2767 C2766 1.386 . S
C2767 C2771 1.393 . S
C2768 H2757 0.950 . S
C2768 C2766 1.391 . S
C2768 C2769 1.400 . S
C2769 C2763 1.491 . S
C2769 C2768 1.400 . S
C2769 C2770 1.398 . S
C2770 H2758 0.950 . S
C2770 C2769 1.398 . S
C2770 C2771 1.391 . S
C2771 H2759 0.950 . S
C2771 C2767 1.393 . S
C2771 C2770 1.391 . S
H2772 C2780 0.950 . S
H2773 C2785 0.950 . S
H2774 C2782 0.950 . S
H2775 C2784 0.950 . S
H2776 C2786 0.950 . S
H2777 C2788 0.950 1_556 S
H2778 C2790 0.950 . S
H2779 C2791 0.950 . S
C2780 H2772 0.950 . S
C2780 C2781 1.386 1_554 S
C2780 C2782 1.391 . S
C2781 C2780 1.386 1_556 S
C2781 C2785 1.393 . S
C2782 H2774 0.950 . S
C2782 C2780 1.391 . S
C2782 C2783 1.400 . S
C2783 C2782 1.400 . S
C2783 C2784 1.398 1_554 S
C2783 C2789 1.491 . S
C2784 H2775 0.950 . S
C2784 C2783 1.398 1_556 S
C2784 C2785 1.391 . S
C2785 H2773 0.950 . S
C2785 C2781 1.393 . S
C2785 C2784 1.391 . S
C2786 H2776 0.950 . S
C2786 C2787 1.386 . S
C2786 C2788 1.391 . S
C2787 C2786 1.386 . S
C2787 C2791 1.393 . S
C2788 H2777 0.950 1_554 S
C2788 C2786 1.391 . S
C2788 C2789 1.400 . S
C2789 C2783 1.491 . S
C2789 C2788 1.400 . S
C2789 C2790 1.398 . S
C2790 H2778 0.950 . S
C2790 C2789 1.398 . S
C2790 C2791 1.391 . S
C2791 H2779 0.950 . S
C2791 C2787 1.393 . S
C2791 C2790 1.391 . S
H2792 C2800 0.950 . S
H2793 C2805 0.950 . S
H2794 C2802 0.950 . S
H2795 C2804 0.950 . S
H2796 C2806 0.950 . S
H2797 C2808 0.950 . S
H2798 C2810 0.950 . S
H2799 C2811 0.950 . S
C2800 H2792 0.950 . S
C2800 C2801 1.386 . S
C2800 C2802 1.391 . S
C2801 C2800 1.386 . S
C2801 C2805 1.393 . S
C2802 H2794 0.950 . S
C2802 C2800 1.391 . S
C2802 C2803 1.400 . S
C2803 C2802 1.400 . S
C2803 C2804 1.398 . S
C2803 C2809 1.491 . S
C2804 H2795 0.950 . S
C2804 C2803 1.398 . S
C2804 C2805 1.391 . S
C2805 H2793 0.950 . S
C2805 C2801 1.393 . S
C2805 C2804 1.391 . S
C2806 H2796 0.950 . S
C2806 C2807 1.386 . S
C2806 C2808 1.391 . S
C2807 C2806 1.386 . S
C2807 C2811 1.393 . S
C2808 H2797 0.950 . S
C2808 C2806 1.391 . S
C2808 C2809 1.400 . S
C2809 C2803 1.491 . S
C2809 C2808 1.400 . S
C2809 C2810 1.398 . S
C2810 H2798 0.950 . S
C2810 C2809 1.398 . S
C2810 C2811 1.391 . S
C2811 H2799 0.950 . S
C2811 C2807 1.393 . S
C2811 C2810 1.391 . S
H2812 C2820 0.950 . S
H2813 C2825 0.950 . S
H2814 C2822 0.950 . S
H2815 C2824 0.950 1_556 S
H2816 C2826 0.950 . S
H2817 C2828 0.950 . S
H2818 C2830 0.950 . S
H2819 C2831 0.950 . S
C2820 H2812 0.950 . S
C2820 C2821 1.386 . S
C2820 C2822 1.391 . S
C2821 C2820 1.386 . S
C2821 C2825 1.393 . S
C2822 H2814 0.950 . S
C2822 C2820 1.391 . S
C2822 C2823 1.400 . S
C2823 C2822 1.400 . S
C2823 C2824 1.398 . S
C2823 C2829 1.491 . S
C2824 H2815 0.950 1_554 S
C2824 C2823 1.398 . S
C2824 C2825 1.391 . S
C2825 H2813 0.950 . S
C2825 C2821 1.393 . S
C2825 C2824 1.391 . S
C2826 H2816 0.950 . S
C2826 C2827 1.386 . S
C2826 C2828 1.391 . S
C2827 C2826 1.386 . S
C2827 C2831 1.393 1_556 S
C2828 H2817 0.950 . S
C2828 C2826 1.391 . S
C2828 C2829 1.400 1_556 S
C2829 C2823 1.491 . S
C2829 C2828 1.400 1_554 S
C2829 C2830 1.398 . S
C2830 H2818 0.950 . S
C2830 C2829 1.398 . S
C2830 C2831 1.391 . S
C2831 H2819 0.950 . S
C2831 C2827 1.393 1_554 S
C2831 C2830 1.391 . S
H2832 C2840 0.950 . S
H2833 C2845 0.950 . S
H2834 C2842 0.950 . S
H2835 C2844 0.950 . S
H2836 C2846 0.950 . S
H2837 C2848 0.950 . S
H2838 C2850 0.950 . S
H2839 C2851 0.950 . S
C2840 H2832 0.950 . S
C2840 C2841 1.386 . S
C2840 C2842 1.391 . S
C2841 C2840 1.386 . S
C2841 C2845 1.393 . S
C2842 H2834 0.950 . S
C2842 C2840 1.391 . S
C2842 C2843 1.400 . S
C2843 C2842 1.400 . S
C2843 C2844 1.398 . S
C2843 C2849 1.491 . S
C2844 H2835 0.950 . S
C2844 C2843 1.398 . S
C2844 C2845 1.391 . S
C2845 H2833 0.950 . S
C2845 C2841 1.393 . S
C2845 C2844 1.391 . S
C2846 H2836 0.950 . S
C2846 C2847 1.386 . S
C2846 C2848 1.391 . S
C2847 C2846 1.386 . S
C2847 C2851 1.393 . S
C2848 H2837 0.950 . S
C2848 C2846 1.391 . S
C2848 C2849 1.400 . S
C2849 C2843 1.491 . S
C2849 C2848 1.400 . S
C2849 C2850 1.398 . S
C2850 H2838 0.950 . S
C2850 C2849 1.398 . S
C2850 C2851 1.391 . S
C2851 H2839 0.950 . S
C2851 C2847 1.393 . S
C2851 C2850 1.391 . S
H2852 C2860 0.950 . S
H2853 C2865 0.950 . S
H2854 C2862 0.950 . S
H2855 C2864 0.950 . S
H2856 C2866 0.950 . S
H2857 C2868 0.950 . S
H2858 C2870 0.950 . S
H2859 C2871 0.950 . S
C2860 H2852 0.950 . S
C2860 C2861 1.386 . S
C2860 C2862 1.391 . S
C2861 C2860 1.386 . S
C2861 C2865 1.393 . S
C2862 H2854 0.950 . S
C2862 C2860 1.391 . S
C2862 C2863 1.400 . S
C2863 C2862 1.400 . S
C2863 C2864 1.398 . S
C2863 C2869 1.491 . S
C2864 H2855 0.950 . S
C2864 C2863 1.398 . S
C2864 C2865 1.391 . S
C2865 H2853 0.950 . S
C2865 C2861 1.393 . S
C2865 C2864 1.391 . S
C2866 H2856 0.950 . S
C2866 C2867 1.386 . S
C2866 C2868 1.391 . S
C2867 C2866 1.386 . S
C2867 C2871 1.393 . S
C2868 H2857 0.950 . S
C2868 C2866 1.391 . S
C2868 C2869 1.400 . S
C2869 C2863 1.491 . S
C2869 C2868 1.400 . S
C2869 C2870 1.398 . S
C2870 H2858 0.950 . S
C2870 C2869 1.398 . S
C2870 C2871 1.391 . S
C2871 H2859 0.950 . S
C2871 C2867 1.393 . S
C2871 C2870 1.391 . S
C961 C101 2.189 . S
C967 C322 2.139 . S
C981 C57 1.762 . S
C987 C361 1.762 . S
C1001 C73 1.439 . S
C1007 C402 1.514 . S
C1027 C447 1.405 . S
C1021 C78 1.367 . S
C1041 C21 2.171 . S
C1047 C491 2.157 . S
C1067 C522 1.366 . S
C1061 C31 1.403 . S
C1087 C570 1.989 . S
C1081 C49 2.009 . S
C1101 C0 1.578 . S
C1107 C598 1.575 . S
C1127 C330 1.449 . S
C1121 C218 1.433 . S
C1141 C229 1.459 . S
C1147 C371 1.446 . S
C1167 C410 1.448 . S
C1161 C257 1.416 1_545 S
C1187 C442 1.529 . S
C1181 C164 1.447 . S
C1201 C216 0.297 . S
C1207 C478 0.240 . S
C1227 C530 2.201 . S
C1221 C231 2.228 . S
C1247 C567 1.022 . S
C1241 C255 0.964 . S
C1267 C601 1.927 . S
C1261 C166 1.943 . S
C1287 C327 1.832 . S
C1281 C143 1.810 . S
C1301 C265 1.930 . S
C1307 C641 1.947 . S
C1327 C687 1.209 . S
C1321 C299 1.132 . S
C1347 C722 1.547 1_655 S
C1341 C291 1.581 . S
C1361 C104 1.799 . S
C1367 C611 1.784 . S
C1381 C117 1.329 . S
C1387 C407 1.361 . S
C1401 C304 1.205 . S
C1407 C770 1.269 . S
C1427 C798 0.380 . S
C1421 C278 0.450 . S
C1447 C331 2.102 1_565 S
C1441 C60 2.146 . S
C1467 C810 1.685 . S
C1461 C96 1.721 . S
C1481 C88 1.389 . S
C1487 C411 1.382 . S
C1501 C65 1.378 . S
C1507 C758 1.356 . S
C1527 C482 2.012 . S
C1521 C10 2.039 . S
C1541 C44 1.337 . S
C1547 C691 1.344 . S
C1567 C561 1.879 1_565 S
C1561 C34 1.891 . S
C1587 C847 1.600 . S
C1581 C13 1.676 . S
C1607 C321 1.442 . S
C1601 C138 1.446 . S
C1627 C802 1.296 . S
C1621 C296 1.332 . S
C1641 C112 1.250 . S
C1647 C401 1.369 . S
C1661 C270 1.408 . S
C1667 C771 1.392 . S
C1681 C140 0.145 . S
C1687 C487 0.165 . S
C1707 C681 2.123 . S
C1701 C294 2.090 . S
C1721 C114 1.020 . S
C1727 C558 1.001 . S
C1741 C268 1.874 . S
C1747 C850 1.890 . S
C1761 C169 1.926 1_556 S
C1767 C318 1.841 . S
C1781 C161 1.883 . S
C1787 C650 1.870 . S
C1801 C234 1.256 . S
C1807 C518 1.175 . S
C1821 C226 1.480 . S
C1827 C731 1.487 . S
C1847 C842 1.751 . S
C1841 C247 1.854 . S
C1861 C195 1.333 . S
C1867 C398 1.312 . S
C1887 C441 1.167 . S
C1881 C239 1.161 . S
C1907 C367 0.373 . S
C1901 C187 0.303 . S
C1921 C75 2.190 . S
C1927 C882 2.154 . S
C1947 C801 1.764 . S
C1941 C83 1.765 . S
C1961 C99 1.450 . S
C1967 C922 1.510 1_556 S
C1981 C52 1.380 . S
C1987 C767 1.412 . S
C2001 C47 2.163 . S
C2007 C651 2.151 . S
C2027 C682 1.363 . S
C2021 C5 1.404 . S
C2047 C730 1.998 . S
C2041 C23 2.007 . S
C2067 C838 1.591 . S
C2061 C26 1.581 . S
C2087 C890 1.450 . S
C2081 C244 1.435 . S
C2101 C177 1.468 . S
C2107 C811 1.461 . S
C2127 C930 1.464 . S
C2121 C192 1.442 . S
C2147 C762 1.524 . S
C2141 C203 1.465 . S
C2167 C638 0.244 . S
C2161 C242 0.289 . S
C2181 C179 2.227 . S
C2187 C690 2.198 . S
C2207 C727 1.022 . S
C2201 C190 0.964 . S
C2221 C205 1.943 . S
C2227 C841 1.930 . S
C2247 C887 1.812 . S
C2241 C286 1.784 . S
C2261 C122 1.932 . S
C2267 C481 1.937 . S
C2287 C527 1.214 . S
C2281 C130 1.153 . S
C2307 C562 1.562 . S
C2301 C148 1.568 . S
C2327 C851 1.771 . S
C2321 C273 1.786 . S
C2341 C260 1.302 . S
C2347 C927 1.338 . S
C2367 C450 1.280 . S
C2361 C135 1.230 . S
C2387 C358 0.389 . S
C2381 C109 0.385 . S
C2401 C86 2.149 . S
C2407 C891 2.084 . S
C2427 C370 1.690 . S
C2421 C70 1.727 . S
C2441 C62 1.389 . S
C2447 C931 1.379 . S
C2461 C91 1.362 . S
C2467 C438 1.353 . S
C2481 C36 2.040 . S
C2487 C642 2.011 1_556 S
C2507 C531 1.327 . S
C2501 C18 1.349 . S
C2521 C8 1.888 . S
C2527 C721 1.913 . S
C2541 C39 1.674 . S
C2547 C607 1.607 . S
C2567 C881 1.450 . S
C2561 C307 1.438 . S
C2581 C153 1.336 . S
C2587 C362 1.294 . S
C2607 C921 1.360 . S
C2601 C281 1.211 . S
C2621 C127 1.408 . S
C2627 C451 1.397 . S
C2641 C309 0.183 . S
C2647 C647 0.221 . S
C2667 C521 2.117 . S
C2661 C151 2.076 1_556 S
C2681 C283 1.021 . S
C2687 C718 1.016 . S
C2707 C610 1.893 . S
C2701 C125 1.877 . S
C2727 C878 1.837 . S
C2721 C221 1.933 . S
C2747 C490 1.865 1_655 S
C2741 C200 1.894 . S
C2761 C208 1.257 . S
C2767 C678 1.187 . S
C2787 C571 1.478 . S
C2781 C174 1.489 . S
C2801 C182 1.860 . S
C2807 C602 1.762 . S
C2821 C156 1.342 . S
C2827 C918 1.320 . S
C2847 C761 1.171 . S
C2841 C213 1.164 . S
C2867 C807 0.357 . S
C2861 C252 0.328 . S
