# Generated by pormake.
# Topology pyr, (3,6)-cn, num edge types: 1
# Building blocks:
#     Node 0, Type 0, BuildingBlock: WUSLED_clean_sbu_0, # of connection points: 3
#     Node 1, Type 0, BuildingBlock: WUSLED_clean_sbu_0, # of connection points: 3
#     Node 2, Type 0, BuildingBlock: WUSLED_clean_sbu_0, # of connection points: 3
#     Node 3, Type 0, BuildingBlock: WUSLED_clean_sbu_0, # of connection points: 3
#     Node 4, Type 0, BuildingBlock: WUSLED_clean_sbu_0, # of connection points: 3
#     Node 5, Type 0, BuildingBlock: WUSLED_clean_sbu_0, # of connection points: 3
#     Node 6, Type 0, BuildingBlock: WUSLED_clean_sbu_0, # of connection points: 3
#     Node 7, Type 0, BuildingBlock: WUSLED_clean_sbu_0, # of connection points: 3
#     Node 8, Type 1, BuildingBlock: INOVEN_clean_sbu_0, # of connection points: 6
#     Node 9, Type 1, BuildingBlock: INOVEN_clean_sbu_0, # of connection points: 6
#     Node 10, Type 1, BuildingBlock: INOVEN_clean_sbu_0, # of connection points: 6
#     Node 11, Type 1, BuildingBlock: INOVEN_clean_sbu_0, # of connection points: 6
#     Edge 12, Type (0, 1), BuildingBlock: UVAHIK_clean_linker_0, # of connection points: 2
#     Edge 13, Type (0, 1), BuildingBlock: UVAHIK_clean_linker_0, # of connection points: 2
#     Edge 14, Type (0, 1), BuildingBlock: UVAHIK_clean_linker_0, # of connection points: 2
#     Edge 15, Type (0, 1), BuildingBlock: UVAHIK_clean_linker_0, # of connection points: 2
#     Edge 16, Type (0, 1), BuildingBlock: UVAHIK_clean_linker_0, # of connection points: 2
#     Edge 17, Type (0, 1), BuildingBlock: UVAHIK_clean_linker_0, # of connection points: 2
#     Edge 18, Type (0, 1), BuildingBlock: UVAHIK_clean_linker_0, # of connection points: 2
#     Edge 19, Type (0, 1), BuildingBlock: UVAHIK_clean_linker_0, # of connection points: 2
#     Edge 20, Type (0, 1), BuildingBlock: UVAHIK_clean_linker_0, # of connection points: 2
#     Edge 21, Type (0, 1), BuildingBlock: UVAHIK_clean_linker_0, # of connection points: 2
#     Edge 22, Type (0, 1), BuildingBlock: UVAHIK_clean_linker_0, # of connection points: 2
#     Edge 23, Type (0, 1), BuildingBlock: UVAHIK_clean_linker_0, # of connection points: 2
#     Edge 24, Type (0, 1), BuildingBlock: UVAHIK_clean_linker_0, # of connection points: 2
#     Edge 25, Type (0, 1), BuildingBlock: UVAHIK_clean_linker_0, # of connection points: 2
#     Edge 26, Type (0, 1), BuildingBlock: UVAHIK_clean_linker_0, # of connection points: 2
#     Edge 27, Type (0, 1), BuildingBlock: UVAHIK_clean_linker_0, # of connection points: 2
#     Edge 28, Type (0, 1), BuildingBlock: UVAHIK_clean_linker_0, # of connection points: 2
#     Edge 29, Type (0, 1), BuildingBlock: UVAHIK_clean_linker_0, # of connection points: 2
#     Edge 30, Type (0, 1), BuildingBlock: UVAHIK_clean_linker_0, # of connection points: 2
#     Edge 31, Type (0, 1), BuildingBlock: UVAHIK_clean_linker_0, # of connection points: 2
#     Edge 32, Type (0, 1), BuildingBlock: UVAHIK_clean_linker_0, # of connection points: 2
#     Edge 33, Type (0, 1), BuildingBlock: UVAHIK_clean_linker_0, # of connection points: 2
#     Edge 34, Type (0, 1), BuildingBlock: UVAHIK_clean_linker_0, # of connection points: 2
#     Edge 35, Type (0, 1), BuildingBlock: UVAHIK_clean_linker_0, # of connection points: 2
# Relax obj value: 0.066
# Max RMSD: 0.121
# Mean RMSD: 0.053
data_MOF--net-pyr--node1-WUSLED_clean_sbu_0--node2-INOVEN_clean_sbu_0--edge1-UVAHIK_clean_linker_0
_symmetry_space_group_name_H-M    P1
_symmetry_Int_Tables_number       1
_symmetry_cell_setting            triclinic
loop_
_symmetry_equiv_pos_as_xyz
'x, y, z'
_cell_length_a     60.858256
_cell_length_b     63.529534
_cell_length_c     57.159876
_cell_angle_alpha  91.206209
_cell_angle_beta   88.708413
_cell_angle_gamma 98.272966
loop_
_atom_site_label
_atom_site_type_symbol
_atom_site_fract_x
_atom_site_fract_y
_atom_site_fract_z
_atom_type_partial_charge
C0 C 0.28587 0.30274 0.16441 0.0
C1 C 0.27403 0.3128 0.18162 0.0
C2 C 0.25653 0.33096 0.1516 0.0
C3 C 0.25961 0.32683 0.1753 0.0
C4 C 0.26886 0.32122 0.13441 0.0
C5 C 0.28339 0.30719 0.14079 0.0
U6 U 0.29685 0.26359 0.20903 0.0
O7 O 0.30134 0.22997 0.20643 0.0
O8 O 0.32739 0.25327 0.22203 0.0
C9 C 0.3214 0.23345 0.21508 0.0
C10 C 0.29912 0.28625 0.17108 0.0
C11 C 0.33847 0.22292 0.20275 0.0
C12 C 0.35272 0.20649 0.16785 0.0
C13 C 0.33779 0.21874 0.17853 0.0
C14 C 0.36973 0.20328 0.20526 0.0
C15 C 0.36857 0.19824 0.1812 0.0
C16 C 0.3548 0.21545 0.21591 0.0
C17 C 0.25931 0.2613 0.26367 0.0
C18 C 0.26038 0.23515 0.29385 0.0
C19 C 0.23053 0.25663 0.29388 0.0
C20 C 0.23991 0.267 0.27398 0.0
C21 C 0.24045 0.24034 0.30387 0.0
C22 C 0.26971 0.24552 0.27384 0.0
C23 C 0.26736 0.27073 0.24133 0.0
O24 O 0.31229 0.29122 0.18892 0.0
O25 O 0.28776 0.26708 0.17242 0.0
O26 O 0.26263 0.25834 0.22292 0.0
O27 O 0.28782 0.28078 0.24087 0.0
H28 H 0.27556 0.30942 0.19997 0.0
H29 H 0.25066 0.33428 0.189 0.0
H30 H 0.26672 0.32384 0.116 0.0
H31 H 0.2922 0.29938 0.12726 0.0
H32 H 0.35125 0.2028 0.14932 0.0
H33 H 0.32533 0.22438 0.168 0.0
H34 H 0.38199 0.19755 0.21598 0.0
H35 H 0.35563 0.21856 0.23461 0.0
H36 H 0.26858 0.22286 0.30124 0.0
H37 H 0.21499 0.26081 0.30081 0.0
H38 H 0.23159 0.27904 0.26619 0.0
H39 H 0.2847 0.24087 0.26598 0.0
C40 C 0.21999 0.84483 0.60397 0.0
C41 C 0.20904 0.8527 0.62342 0.0
C42 C 0.18034 0.86202 0.59822 0.0
C43 C 0.1893 0.86109 0.62059 0.0
C44 C 0.19109 0.85347 0.57892 0.0
C45 C 0.21072 0.84493 0.5818 0.0
U46 U 0.27448 0.84988 0.63521 0.0
O47 O 0.29584 0.82627 0.64417 0.0
O48 O 0.3087 0.85273 0.62121 0.0
C49 C 0.31218 0.83473 0.63036 0.0
C50 C 0.24207 0.83846 0.6062 0.0
C51 C 0.32126 0.81992 0.6141 0.0
C52 C 0.3163 0.79149 0.58482 0.0
C53 C 0.30731 0.80588 0.59978 0.0
C54 C 0.35322 0.80556 0.59795 0.0
C55 C 0.33936 0.79111 0.58388 0.0
C56 C 0.34422 0.81983 0.61295 0.0
C57 C 0.28542 0.88632 0.68734 0.0
C58 C 0.32051 0.88707 0.70686 0.0
C59 C 0.29442 0.91039 0.72033 0.0
C60 C 0.27977 0.90215 0.7028 0.0
C61 C 0.31489 0.90281 0.72262 0.0
C62 C 0.30591 0.87892 0.68934 0.0
C63 C 0.27006 0.87738 0.66913 0.0
O64 O 0.25861 0.85362 0.6017 0.0
O65 O 0.24502 0.82764 0.62498 0.0
O66 O 0.26309 0.8569 0.67089 0.0
O67 O 0.27626 0.88303 0.64773 0.0
H68 H 0.21607 0.85291 0.64069 0.0
H69 H 0.18132 0.86728 0.63585 0.0
H70 H 0.18492 0.85424 0.56138 0.0
H71 H 0.21911 0.83913 0.56658 0.0
H72 H 0.30525 0.78063 0.57407 0.0
H73 H 0.28951 0.80592 0.60034 0.0
H74 H 0.371 0.80543 0.5979 0.0
H75 H 0.35518 0.83062 0.62388 0.0
H76 H 0.33626 0.88113 0.70799 0.0
H77 H 0.28956 0.92236 0.73237 0.0
H78 H 0.264 0.90801 0.70143 0.0
H79 H 0.31056 0.86677 0.6774 0.0
C80 C 0.6362 0.37416 0.79731 0.0
C81 C 0.64693 0.37457 0.77515 0.0
C82 C 0.62154 0.39738 0.75916 0.0
C83 C 0.63981 0.38602 0.75649 0.0
C84 C 0.61111 0.39723 0.78151 0.0
C85 C 0.61824 0.38582 0.80012 0.0
U86 U 0.6681 0.35366 0.85087 0.0
O87 O 0.65281 0.33623 0.88167 0.0
O88 O 0.6741 0.32066 0.8575 0.0
C89 C 0.66156 0.31888 0.8766 0.0
C90 C 0.64121 0.35937 0.81625 0.0
C91 C 0.64863 0.29754 0.88236 0.0
C92 C 0.61462 0.27461 0.89505 0.0
C93 C 0.6255 0.29427 0.8866 0.0
C94 C 0.64962 0.26104 0.89517 0.0
C95 C 0.6265 0.25763 0.89984 0.0
C96 C 0.66039 0.28053 0.88658 0.0
C97 C 0.7221 0.39135 0.87398 0.0
C98 C 0.75167 0.38645 0.90096 0.0
C99 C 0.75091 0.42091 0.88427 0.0
C100 C 0.73167 0.41274 0.87208 0.0
C101 C 0.76136 0.40802 0.89904 0.0
C102 C 0.73232 0.37822 0.88857 0.0
C103 C 0.70218 0.38362 0.8596 0.0
O104 O 0.6587 0.34949 0.81364 0.0
O105 O 0.63772 0.36486 0.83819 0.0
O106 O 0.68237 0.38338 0.86932 0.0
O107 O 0.70321 0.36755 0.84496 0.0
H108 H 0.66058 0.36561 0.77197 0.0
H109 H 0.64865 0.38581 0.73986 0.0
H110 H 0.5968 0.40533 0.78452 0.0
H111 H 0.60912 0.38556 0.81663 0.0
H112 H 0.59682 0.27285 0.89792 0.0
H113 H 0.61585 0.30701 0.8838 0.0
H114 H 0.65975 0.2489 0.89891 0.0
H115 H 0.67825 0.28256 0.88398 0.0
H116 H 0.75889 0.3759 0.91221 0.0
H117 H 0.75782 0.43738 0.88164 0.0
H118 H 0.72436 0.42322 0.86079 0.0
H119 H 0.72541 0.36163 0.89035 0.0
C120 C 0.79423 0.65509 0.37624 0.0
C121 C 0.77335 0.65792 0.36768 0.0
C122 C 0.75399 0.63881 0.40076 0.0
C123 C 0.75359 0.64999 0.37976 0.0
C124 C 0.77493 0.63646 0.40963 0.0
C125 C 0.79471 0.64438 0.39752 0.0
U126 U 0.85061 0.68895 0.35469 0.0
O127 O 0.88092 0.67663 0.34182 0.0
O128 O 0.86266 0.69417 0.31817 0.0
C129 C 0.87922 0.68318 0.32034 0.0
C130 C 0.81479 0.66052 0.3613 0.0
C131 C 0.88406 0.66874 0.30033 0.0
C132 C 0.89221 0.66449 0.25843 0.0
C133 C 0.88476 0.67632 0.27732 0.0
C134 C 0.89806 0.63676 0.28483 0.0
C135 C 0.89932 0.64464 0.26185 0.0
C136 C 0.89066 0.64867 0.30379 0.0
C137 C 0.87169 0.74311 0.38926 0.0
C138 C 0.88982 0.77922 0.38072 0.0
C139 C 0.88751 0.76711 0.42057 0.0
C140 C 0.8765 0.74728 0.41298 0.0
C141 C 0.89423 0.78359 0.40466 0.0
C142 C 0.87864 0.7593 0.37314 0.0
C143 C 0.85716 0.72287 0.38277 0.0
O144 O 0.81561 0.67659 0.347 0.0
O145 O 0.83411 0.65928 0.37063 0.0
O146 O 0.86417 0.70476 0.38727 0.0
O147 O 0.846 0.72211 0.36326 0.0
H148 H 0.7722 0.66576 0.3512 0.0
H149 H 0.73794 0.65249 0.37243 0.0
H150 H 0.7761 0.62777 0.42553 0.0
H151 H 0.81035 0.64146 0.40453 0.0
H152 H 0.89253 0.67106 0.24108 0.0
H153 H 0.8801 0.69179 0.27396 0.0
H154 H 0.90353 0.62169 0.28836 0.0
H155 H 0.89071 0.64236 0.32124 0.0
H156 H 0.89491 0.79121 0.36775 0.0
H157 H 0.89004 0.76968 0.43915 0.0
H158 H 0.87104 0.73532 0.42592 0.0
H159 H 0.87508 0.75676 0.35474 0.0
C160 C 0.73263 0.74309 0.88125 0.0
C161 C 0.74706 0.73565 0.86455 0.0
C162 C 0.76157 0.71451 0.89406 0.0
C163 C 0.76132 0.72145 0.87086 0.0
C164 C 0.74662 0.72159 0.9106 0.0
C165 C 0.73231 0.73582 0.90424 0.0
U166 U 0.72293 0.78517 0.83926 0.0
O167 O 0.69266 0.79659 0.82696 0.0
O168 O 0.71855 0.81859 0.8446 0.0
C169 C 0.69861 0.81585 0.83565 0.0
C170 C 0.7195 0.75982 0.87513 0.0
C171 C 0.68153 0.82554 0.84899 0.0
C172 C 0.66738 0.83927 0.88547 0.0
C173 C 0.68191 0.82742 0.8735 0.0
C174 C 0.65113 0.84649 0.8487 0.0
C175 C 0.65215 0.84932 0.87314 0.0
C176 C 0.66574 0.83476 0.83676 0.0
C177 C 0.76215 0.79285 0.78641 0.0
C178 C 0.76345 0.82392 0.76214 0.0
C179 C 0.79152 0.80062 0.75717 0.0
C180 C 0.78111 0.78756 0.77472 0.0
C181 C 0.78313 0.81925 0.75108 0.0
C182 C 0.75307 0.81084 0.77972 0.0
C183 C 0.75353 0.78092 0.80713 0.0
O184 O 0.73068 0.77911 0.87567 0.0
O185 O 0.70727 0.75591 0.85641 0.0
O186 O 0.73311 0.77089 0.80599 0.0
O187 O 0.75761 0.79133 0.82701 0.0
H188 H 0.74765 0.74122 0.84672 0.0
H189 H 0.77236 0.71608 0.85761 0.0
H190 H 0.74654 0.71677 0.92867 0.0
H191 H 0.72145 0.74158 0.91741 0.0
H192 H 0.66835 0.84092 0.90433 0.0
H193 H 0.69388 0.82033 0.88333 0.0
H194 H 0.63975 0.85417 0.83868 0.0
H195 H 0.66525 0.83354 0.81783 0.0
H196 H 0.75641 0.83798 0.75764 0.0
H197 H 0.80678 0.79669 0.74925 0.0
H198 H 0.78841 0.77381 0.77984 0.0
H199 H 0.73844 0.81516 0.78868 0.0
C200 C 0.68482 0.20879 0.37759 0.0
C201 C 0.69805 0.20287 0.35882 0.0
C202 C 0.6652 0.1937 0.33518 0.0
C203 C 0.68832 0.19552 0.33772 0.0
C204 C 0.65208 0.19998 0.3539 0.0
C205 C 0.66184 0.20752 0.37491 0.0
U206 U 0.72778 0.20432 0.42367 0.0
O207 O 0.74543 0.22864 0.44722 0.0
O208 O 0.72395 0.20108 0.46178 0.0
C209 C 0.73518 0.22003 0.46593 0.0
C210 C 0.69447 0.21491 0.40049 0.0
C211 C 0.72351 0.23453 0.4804 0.0
C212 C 0.68943 0.24817 0.49155 0.0
C213 C 0.7003 0.23316 0.47966 0.0
C214 C 0.72475 0.26613 0.5053 0.0
C215 C 0.70154 0.26502 0.50417 0.0
C216 C 0.73564 0.25093 0.49355 0.0
C217 C 0.77103 0.16765 0.41326 0.0
C218 C 0.79168 0.15599 0.44518 0.0
C219 C 0.80235 0.1488 0.40501 0.0
C220 C 0.78509 0.159 0.39716 0.0
C221 C 0.80572 0.147 0.42913 0.0
C222 C 0.77457 0.16632 0.4373 0.0
C223 C 0.75243 0.17761 0.40492 0.0
O224 O 0.69219 0.19959 0.41581 0.0
O225 O 0.71441 0.2261 0.40014 0.0
O226 O 0.75663 0.19827 0.4019 0.0
O227 O 0.7333 0.17156 0.41565 0.0
H228 H 0.71581 0.20347 0.36064 0.0
H229 H 0.69878 0.19053 0.32369 0.0
H230 H 0.63424 0.19887 0.35234 0.0
H231 H 0.65139 0.21193 0.38926 0.0
H232 H 0.6716 0.24712 0.48996 0.0
H233 H 0.69057 0.22086 0.46931 0.0
H234 H 0.73448 0.27895 0.51493 0.0
H235 H 0.75357 0.25233 0.49418 0.0
H236 H 0.79357 0.15467 0.46386 0.0
H237 H 0.81307 0.14238 0.39217 0.0
H238 H 0.78263 0.16002 0.37852 0.0
H239 H 0.76387 0.17299 0.44999 0.0
C240 C 0.29819 0.65823 0.18199 0.0
C241 C 0.28755 0.67185 0.16842 0.0
C242 C 0.25875 0.64221 0.15687 0.0
C243 C 0.26812 0.66394 0.15601 0.0
C244 C 0.26962 0.62882 0.17061 0.0
C245 C 0.28895 0.63668 0.18282 0.0
U246 U 0.35243 0.69557 0.20452 0.0
O247 O 0.36227 0.70037 0.24159 0.0
O248 O 0.3829 0.68448 0.21709 0.0
C249 C 0.38011 0.69104 0.23877 0.0
C250 C 0.31816 0.66563 0.19646 0.0
C251 C 0.38652 0.67775 0.25824 0.0
C252 C 0.38226 0.64583 0.2824 0.0
C253 C 0.37498 0.65764 0.26403 0.0
C254 C 0.41256 0.67399 0.28951 0.0
C255 C 0.40135 0.65373 0.2954 0.0
C256 C 0.40528 0.6857 0.27133 0.0
C257 C 0.37186 0.75124 0.17239 0.0
C258 C 0.40616 0.77397 0.16011 0.0
C259 C 0.37121 0.78762 0.15904 0.0
C260 C 0.36024 0.76825 0.16772 0.0
C261 C 0.39434 0.79081 0.15474 0.0
C262 C 0.39507 0.75441 0.16862 0.0
C263 C 0.35877 0.73001 0.17825 0.0
O264 O 0.33792 0.6656 0.18671 0.0
O265 O 0.31736 0.68184 0.21098 0.0
O266 O 0.34635 0.72846 0.19744 0.0
O267 O 0.3674 0.71258 0.17331 0.0
H268 H 0.29419 0.68857 0.16748 0.0
H269 H 0.26059 0.67488 0.14556 0.0
H270 H 0.26298 0.61218 0.17242 0.0
H271 H 0.29658 0.62581 0.19333 0.0
H272 H 0.37314 0.6303 0.28612 0.0
H273 H 0.36047 0.65101 0.25429 0.0
H274 H 0.42697 0.68105 0.29915 0.0
H275 H 0.41449 0.70117 0.26743 0.0
H276 H 0.42393 0.77561 0.15697 0.0
H277 H 0.36144 0.80013 0.15557 0.0
H278 H 0.34236 0.76636 0.17017 0.0
H279 H 0.4046 0.74164 0.17171 0.0
C280 C 0.13422 0.30934 0.68046 0.0
C281 C 0.14874 0.30153 0.66402 0.0
C282 C 0.12154 0.26961 0.65661 0.0
C283 C 0.14244 0.28191 0.65217 0.0
C284 C 0.1071 0.27778 0.67292 0.0
C285 C 0.11335 0.29729 0.68461 0.0
U286 U 0.16947 0.36441 0.6984 0.0
O287 O 0.15643 0.39392 0.70944 0.0
O288 O 0.17474 0.37761 0.73426 0.0
C289 C 0.16342 0.39343 0.731 0.0
C290 C 0.14008 0.3296 0.69403 0.0
C291 C 0.14865 0.39976 0.75052 0.0
C292 C 0.12755 0.42665 0.76747 0.0
C293 C 0.13855 0.4182 0.74835 0.0
C294 C 0.13573 0.39811 0.79153 0.0
C295 C 0.12627 0.417 0.78954 0.0
C296 C 0.14687 0.38969 0.77237 0.0
C297 C 0.22519 0.38543 0.66336 0.0
C298 C 0.26565 0.39519 0.66453 0.0
C299 C 0.24492 0.41072 0.63558 0.0
C300 C 0.22508 0.3993 0.64447 0.0
C301 C 0.26562 0.40857 0.64516 0.0
C302 C 0.24579 0.38373 0.6734 0.0
C303 C 0.20463 0.37054 0.66989 0.0
O304 O 0.15731 0.33113 0.70774 0.0
O305 O 0.13854 0.34745 0.68338 0.0
O306 O 0.18528 0.37617 0.66508 0.0
O307 O 0.20424 0.36037 0.68974 0.0
H308 H 0.16496 0.31048 0.66048 0.0
H309 H 0.15413 0.2762 0.63989 0.0
H310 H 0.09075 0.26917 0.67659 0.0
H311 H 0.10179 0.30295 0.69711 0.0
H312 H 0.12024 0.44099 0.76497 0.0
H313 H 0.1398 0.42658 0.73196 0.0
H314 H 0.13532 0.39023 0.80818 0.0
H315 H 0.15467 0.37565 0.77493 0.0
H316 H 0.28116 0.39283 0.6723 0.0
H317 H 0.24401 0.42106 0.62093 0.0
H318 H 0.20969 0.40085 0.63597 0.0
H319 H 0.24672 0.37291 0.68762 0.0
Gd320 Gd 0.01928 0.03567 0.5006 0.0
Gd321 Gd 1.00352 1.01989 0.54861 0.0
C322 C 0.03525 0.06582 0.54562 0.0
C323 C 0.03046 0.05679 0.46291 0.0
C324 C 0.04876 0.0735 0.45616 0.0
C325 C 0.07084 0.07182 0.46167 0.0
C326 C 0.04428 0.09105 0.44356 0.0
C327 C 0.0838 0.10435 0.44082 0.0
C328 C 0.06166 0.10643 0.43604 0.0
C329 C 0.08819 0.08703 0.45392 0.0
C330 C 0.04327 1.00803 0.51936 0.0
C331 C 0.98983 0.99014 0.50352 0.0
C332 C 0.99678 1.00524 0.59027 0.0
C333 C 0.97884 0.99097 0.60224 0.0
C334 C 0.958 0.99738 0.60706 0.0
C335 C 0.98245 0.97058 0.60883 0.0
C336 C 0.94465 0.96319 0.6245 0.0
C337 C 0.9655 0.95679 0.61975 0.0
C338 C 0.94112 0.98365 0.61808 0.0
C339 C 0.97213 0.0347 0.52341 0.0
O340 O 0.03765 0.06236 0.5228 0.0
O341 O 0.02289 0.05178 0.55901 0.0
O342 O 0.03598 0.03811 0.46686 0.0
O343 O 0.0158 0.06218 0.47808 0.0
O344 O 0.03878 1.00824 0.49737 0.0
O345 O 0.03575 0.02295 0.53025 0.0
O346 O 0.99632 0.99032 0.52553 0.0
O347 O 0.99289 1.00788 0.49123 0.0
O348 O 0.99217 0.0239 0.58425 0.0
O349 O 0.00845 0.99641 0.57424 0.0
O350 O 0.96786 1.01894 0.53761 0.0
O351 O 0.99227 0.04244 0.52441 0.0
H352 H 0.07476 0.05859 0.47166 0.0
H353 H 0.02738 0.09267 0.43921 0.0
H354 H 0.05784 0.11958 0.42586 0.0
H355 H 0.10509 0.0852 0.45807 0.0
H356 H 0.95461 1.01297 0.60222 0.0
H357 H 0.99839 0.96528 0.60547 0.0
H358 H 0.96881 0.94122 0.62477 0.0
H359 H 0.92517 0.98896 0.62128 0.0
Gd360 Gd 0.53178 0.02728 0.04204 0.0
Gd361 Gd 0.49244 1.02129 1.01571 0.0
C362 C 0.48959 0.04801 0.06142 0.0
C363 C 0.56574 0.04073 0.06761 0.0
C364 C 0.5709 0.05472 0.08829 0.0
C365 C 0.57787 0.04599 0.10872 0.0
C366 C 0.5693 0.07658 0.08796 0.0
C367 C 0.5816 0.08064 0.12821 0.0
C368 C 0.57472 0.08945 0.10774 0.0
C369 C 0.58304 0.05879 0.12852 0.0
C370 C 0.50579 0.98932 0.05109 0.0
C371 C 0.53538 1.00096 0.99567 0.0
C372 C 0.45772 1.00668 0.99181 0.0
C373 C 0.45212 0.99811 0.96824 0.0
C374 C 0.46081 1.00866 0.94796 0.0
C375 C 0.43731 0.97917 0.96608 0.0
C376 C 0.43914 0.98174 0.9237 0.0
C377 C 0.43092 0.971 0.94403 0.0
C378 C 0.45427 1.00057 0.92585 0.0
C379 C 0.51828 0.05913 1.00589 0.0
O380 O 0.51142 0.05052 0.05962 0.0
O381 O 0.47769 0.03364 0.04833 0.0
O382 O 0.55259 0.02297 0.07131 0.0
O383 O 0.5616 0.04964 0.04811 0.0
O384 O 0.52705 0.99172 0.04724 0.0
O385 O 0.49894 1.00717 0.04952 0.0
O386 O 0.51361 1.00033 0.99528 0.0
O387 O 0.54724 1.01304 1.01106 0.0
O388 O 0.46546 0.0269 0.99372 0.0
O389 O 0.46789 0.99483 1.00508 0.0
O390 O 0.49692 0.05652 1.00879 0.0
O391 O 0.52526 0.04139 1.00808 0.0
H392 H 0.57938 0.02922 0.10934 0.0
H393 H 0.56391 0.08377 0.07246 0.0
H394 H 0.57336 0.10624 0.10711 0.0
H395 H 0.58858 0.05165 0.14398 0.0
H396 H 0.47242 0.02323 0.94917 0.0
H397 H 0.43041 0.97082 0.98152 0.0
H398 H 0.41903 0.95661 0.94292 0.0
H399 H 0.46098 1.00906 0.91045 0.0
Gd400 Gd 0.51409 0.50607 0.51002 0.0
Gd401 Gd 0.50827 0.54102 0.54136 0.0
C402 C 0.53084 0.50468 0.56454 0.0
C403 C 0.53032 0.47663 0.48625 0.0
C404 C 0.54221 0.45908 0.49248 0.0
C405 C 0.53917 0.44984 0.51463 0.0
C406 C 0.55798 0.45256 0.47677 0.0
C407 C 0.56809 0.42806 0.50549 0.0
C408 C 0.5708 0.43715 0.48319 0.0
C409 C 0.55197 0.43441 0.52107 0.0
C410 C 0.47341 0.50114 0.5315 0.0
C411 C 0.49112 0.54231 0.48716 0.0
C412 C 0.49259 0.571 0.56462 0.0
C413 C 0.47994 0.58802 0.55817 0.0
C414 C 0.48706 0.60896 0.56574 0.0
C415 C 0.46121 0.58374 0.54393 0.0
C416 C 0.45673 0.62112 0.54531 0.0
C417 C 0.44964 0.60015 0.53767 0.0
C418 C 0.47561 0.6254 0.5593 0.0
C419 C 0.54887 0.54583 0.51976 0.0
O420 O 0.5323 0.49757 0.54263 0.0
O421 O 0.52011 0.52095 0.56927 0.0
O422 O 0.50947 0.47504 0.4929 0.0
O423 O 0.54121 0.49564 0.48987 0.0
O424 O 0.47689 0.49676 0.50957 0.0
O425 O 0.4917 0.50775 0.54116 0.0
O426 O 0.48926 0.54901 0.50915 0.0
O427 O 0.50245 0.52647 0.48227 0.0
O428 O 0.51306 0.57285 0.55669 0.0
O429 O 0.48224 0.55152 0.56307 0.0
O430 O 0.5455 0.54994 0.54178 0.0
O431 O 0.53052 0.53936 0.51014 0.0
H432 H 0.52719 0.45483 0.5271 0.0
H433 H 0.56061 0.45962 0.45966 0.0
H434 H 0.58285 0.43235 0.47069 0.0
H435 H 0.54965 0.42784 0.53844 0.0
H436 H 0.50151 0.61259 0.57663 0.0
H437 H 0.45551 0.56774 0.53758 0.0
H438 H 0.43524 0.59647 0.52672 0.0
H439 H 0.48126 0.6414 0.56566 0.0
Gd440 Gd 0.01341 0.50596 0.03697 0.0
Gd441 Gd 1.00649 0.54682 1.0175 0.0
C442 C 0.05178 0.54744 0.04483 0.0
C443 C 0.02917 0.47161 0.0474 0.0
C444 C 0.04919 0.46481 0.05747 0.0
C445 C 0.05297 0.4661 0.08168 0.0
C446 C 0.06415 0.45568 0.04272 0.0
C447 C 0.08601 0.44877 0.07612 0.0
C448 C 0.08238 0.44784 0.0519 0.0
C449 C 0.0712 0.45816 0.0909 0.0
C450 C 0.99009 0.52932 0.06631 0.0
C451 C 0.96806 0.50528 1.00979 0.0
C452 C 0.99054 0.58099 1.00671 0.0
C453 C 0.97062 0.58729 0.99584 0.0
C454 C 0.96981 0.58995 0.97153 0.0
C455 C 0.9527 0.59204 1.00999 0.0
C456 C 0.93376 0.60226 0.97583 0.0
C457 C 0.93447 0.59935 1.0001 0.0
C458 C 0.95157 0.59731 0.96164 0.0
C459 C 0.03 0.52353 0.98827 0.0
O460 O 0.04694 0.5264 0.04382 0.0
O461 O 0.03732 0.55945 0.03762 0.0
O462 O 0.01587 0.4807 0.06135 0.0
O463 O 0.03169 0.48032 0.02682 0.0
O464 O 0.98573 0.50882 0.06347 0.0
O465 O 1.00695 0.53638 0.05396 0.0
O466 O 0.973 0.52632 1.01048 0.0
O467 O 0.98241 0.49329 1.01724 0.0
O468 O 1.0045 0.57227 0.9932 0.0
O469 O 0.98766 0.57215 0.02722 0.0
O470 O 0.03433 0.54402 0.99124 0.0
O471 O 0.01302 0.51644 1.00045 0.0
H472 H 0.04172 0.47296 0.09356 0.0
H473 H 0.06152 0.4542 1.02403 0.0
H474 H 0.09324 0.44041 0.04007 0.0
H475 H 0.07364 0.45927 0.10962 0.0
H476 H 0.9834 0.58663 0.96014 0.0
H477 H 0.95292 0.5905 0.02882 0.0
H478 H 0.92124 0.60334 1.0116 0.0
H479 H 0.95145 0.59918 0.94285 0.0
C480 C 0.22816 0.20563 0.32381 0.0
C481 C 0.22903 0.22787 0.32351 0.0
C482 C 0.21512 0.19358 0.34054 0.0
C483 C 0.16452 0.19495 0.37514 0.0
H484 H 0.18151 0.14615 0.406 0.0
C485 C 0.102 0.14165 0.43333 0.0
C486 C 0.10234 0.11964 0.43128 0.0
C487 C 0.11916 0.15596 0.42349 0.0
C488 C 0.17643 0.15962 0.39736 0.0
H489 H 0.21802 0.25497 0.34163 0.0
H490 H 0.1949 0.23384 0.37054 0.0
H491 H 0.20912 0.16916 0.38299 0.0
H492 H 0.12078 0.0953 0.41736 0.0
H493 H 0.15033 0.12011 0.39957 0.0
H494 H 0.13169 0.18505 0.38845 0.0
C495 C 0.20417 0.22577 0.35764 0.0
C496 C 0.19229 0.17283 0.38429 0.0
C497 C 0.21736 0.23784 0.34104 0.0
C498 C 0.12025 0.11221 0.41944 0.0
C499 C 0.13725 0.12647 0.40935 0.0
C500 C 0.14861 0.18163 0.38796 0.0
C501 C 0.20254 0.20349 0.35723 0.0
C502 C 0.18642 0.1905 0.37284 0.0
C503 C 0.13687 0.14854 0.41109 0.0
C504 C 0.15427 0.16362 0.39901 0.0
H505 H 0.23668 0.19737 0.31043 0.0
H506 H 0.21401 0.17641 0.33967 0.0
H507 H 0.15943 0.20827 0.3662 0.0
H508 H 0.08848 0.14779 0.44261 0.0
H509 H 0.11849 0.17283 0.42556 0.0
C510 C 0.34064 0.89678 0.75457 0.0
C511 C 0.33015 0.91093 0.74167 0.0
C512 C 0.35469 0.90427 0.77282 0.0
C513 C 0.38828 0.95244 0.79686 0.0
H514 H 0.38038 0.9221 0.8553 0.0
C515 C 0.42398 0.98766 0.88439 0.0
C516 C 0.431 0.97372 0.90048 0.0
C517 C 0.41406 0.9798 0.86357 0.0
C518 C 0.38312 0.93057 0.839 0.0
H519 H 0.3265 0.94408 0.73744 0.0
H520 H 0.35089 0.95717 0.76957 0.0
H521 H 0.35834 0.90878 0.82176 0.0
H522 H 0.4344 0.94085 0.90682 0.0
H523 H 0.41739 0.92712 0.8703 0.0
H524 H 0.41299 0.97433 0.81421 0.0
C525 C 0.34834 0.94029 0.76543 0.0
C526 C 0.37042 0.92294 0.81979 0.0
C527 C 0.3342 0.93278 0.74723 0.0
C528 C 0.42881 0.9519 0.89489 0.0
C529 C 0.41902 0.94406 0.87402 0.0
C530 C 0.40107 0.96004 0.81609 0.0
C531 C 0.3586 0.92608 0.77853 0.0
C532 C 0.37274 0.93387 0.79857 0.0
C533 C 0.41107 0.95785 0.85836 0.0
C534 C 0.39852 0.94926 0.83743 0.0
H535 H 0.33769 0.87983 0.75083 0.0
H536 H 0.3625 0.89296 0.78247 0.0
H537 H 0.39061 0.96104 0.78063 0.0
H538 H 0.42526 1.00453 0.88837 0.0
H539 H 0.4079 0.99084 0.85204 0.0
C540 C 0.60331 0.42756 0.74232 0.0
C541 C 0.61303 0.40881 0.73879 0.0
C542 C 0.59485 0.43782 0.72354 0.0
C543 C 0.59635 0.44135 0.65759 0.0
H544 H 0.54351 0.46805 0.66786 0.0
C545 C 0.55164 0.47586 0.58 0.0
C546 C 0.54087 0.49384 0.58418 0.0
C547 C 0.56055 0.46555 0.59849 0.0
C548 C 0.55848 0.46099 0.66455 0.0
H549 H 0.62098 0.3864 0.71181 0.0
H550 H 0.60652 0.40422 0.67938 0.0
H551 H 0.55864 0.45053 0.70001 0.0
H552 H 0.53149 0.51501 0.61167 0.0
H553 H 0.54719 0.49753 0.64354 0.0
H554 H 0.59623 0.45189 0.62215 0.0
C555 C 0.60567 0.41122 0.69675 0.0
C556 C 0.56723 0.45082 0.68321 0.0
C557 C 0.61408 0.40092 0.71555 0.0
C558 C 0.5395 0.50122 0.60755 0.0
C559 C 0.54845 0.49096 0.62601 0.0
C560 C 0.58763 0.45159 0.63893 0.0
C561 C 0.59577 0.42985 0.70034 0.0
C562 C 0.58637 0.44079 0.68017 0.0
C563 C 0.5591 0.47284 0.62195 0.0
C564 C 0.5685 0.46168 0.64199 0.0
H565 H 0.60242 0.43458 0.75967 0.0
H566 H 0.58783 0.45227 0.72727 0.0
H567 H 0.61126 0.4342 0.65434 0.0
H568 H 0.5531 0.46957 0.56237 0.0
H569 H 0.56826 0.45157 0.59433 0.0
C570 C 0.90413 0.61027 0.23973 0.0
C571 C 0.90856 0.63264 0.24167 0.0
C572 C 0.91273 0.59922 0.2208 0.0
C573 C 0.95719 0.6047 0.174 0.0
H574 H 0.92063 0.55669 0.145 0.0
C575 C 0.98666 0.56356 0.08882 0.0
C576 C 0.98031 0.54152 0.08569 0.0
C577 C 0.97778 0.57476 0.10747 0.0
C578 C 0.93132 0.56984 0.15299 0.0
H579 H 0.92619 0.66066 0.22498 0.0
H580 H 0.94091 0.64154 0.19214 0.0
H581 H 0.9059 0.57542 0.17808 0.0
H582 H 0.95959 0.51403 0.09998 0.0
H583 H 0.94463 0.53319 0.13261 0.0
H584 H 0.98274 0.599 0.14921 0.0
C585 C 0.93079 0.63246 0.20529 0.0
C586 C 0.92276 0.58068 0.17208 0.0
C587 C 0.92206 0.64351 0.2241 0.0
C588 C 0.9648 0.53101 0.10171 0.0
C589 C 0.95606 0.54213 0.12045 0.0
C590 C 0.96582 0.59376 0.15501 0.0
C591 C 0.92625 0.61012 0.20324 0.0
C592 C 0.93552 0.59834 0.18292 0.0
C593 C 0.96237 0.56424 0.12375 0.0
C594 C 0.95306 0.57612 0.14408 0.0
H595 H 0.89373 0.60124 0.25271 0.0
H596 H 0.90897 0.58204 0.22009 0.0
H597 H 0.96774 0.61797 0.18197 0.0
H598 H 0.99853 0.57221 0.07682 0.0
H599 H 0.98291 0.59176 0.10893 0.0
C600 C 0.38702 0.16539 0.18246 0.0
C601 C 0.38301 0.18349 0.17041 0.0
C602 C 0.39977 0.15097 0.17213 0.0
C603 C 0.44084 0.14483 0.12459 0.0
H604 H 0.41971 0.08468 0.13157 0.0
C605 C 0.49068 0.07964 0.08868 0.0
C606 C 0.47836 0.06243 0.07677 0.0
C607 C 0.47989 0.09424 0.10158 0.0
C608 C 0.4258 0.10141 0.12939 0.0
H609 H 0.38974 0.20082 0.13815 0.0
H610 H 0.41172 0.17542 0.11991 0.0
H611 H 0.39935 0.11086 0.15054 0.0
H612 H 0.44504 0.04678 0.06956 0.0
H613 H 0.42631 0.0722 0.09192 0.0
H614 H 0.46698 0.13532 0.1029 0.0
C615 C 0.40514 0.17251 0.13749 0.0
C616 C 0.41427 0.11643 0.14047 0.0
C617 C 0.39234 0.18695 0.14784 0.0
C618 C 0.45505 0.05983 0.07854 0.0
C619 C 0.44429 0.07437 0.09147 0.0
C620 C 0.45243 0.12978 0.11353 0.0
C621 C 0.40884 0.15424 0.14944 0.0
C622 C 0.42156 0.13833 0.1381 0.0
C623 C 0.45656 0.09189 0.10293 0.0
C624 C 0.44494 0.10789 0.11566 0.0
H625 H 0.37988 0.16205 0.19975 0.0
H626 H 0.4025 0.13721 0.18194 0.0
H627 H 0.44703 0.16156 0.1226 0.0
H628 H 0.50866 0.0821 0.0877 0.0
H629 H 0.48982 0.10741 0.11045 0.0
C630 C 0.14524 0.86617 0.57758 0.0
C631 C 0.16104 0.8734 0.5946 0.0
C632 C 0.12895 0.87848 0.57188 0.0
C633 C 0.10039 0.92353 0.59052 0.0
H634 H 0.1005 0.93469 0.5241 0.0
C635 C 0.06249 0.99383 0.55253 0.0
C636 C 0.05334 0.99106 0.53019 0.0
C637 C 0.07309 0.9779 0.56198 0.0
C638 C 0.09982 0.93147 0.54265 0.0
H639 H 0.17134 0.89881 0.61975 0.0
H640 H 0.14262 0.92001 0.61007 0.0
H641 H 0.1224 0.90879 0.53835 0.0
H642 H 0.04669 0.96918 0.50078 0.0
H643 H 0.06432 0.94114 0.51748 0.0
H644 H 0.07773 0.94624 0.59482 0.0
C645 C 0.14288 0.90481 0.60121 0.0
C646 C 0.11245 0.91663 0.5508 0.0
C647 C 0.15931 0.8926 0.60677 0.0
C648 C 0.05404 0.97185 0.51787 0.0
C649 C 0.06424 0.95583 0.52743 0.0
C650 C 0.08747 0.93825 0.58232 0.0
C651 C 0.12798 0.89816 0.58324 0.0
C652 C 0.11302 0.91264 0.5748 0.0
C653 C 0.07438 0.95882 0.54935 0.0
C654 C 0.08718 0.94252 0.55828 0.0
H655 H 0.1458 0.85125 0.56823 0.0
H656 H 0.11744 0.87288 0.55816 0.0
H657 H 0.10053 0.92067 0.60913 0.0
H658 H 0.06203 1.00853 0.56238 0.0
H659 H 0.08087 0.98085 0.57881 0.0
C660 C 0.7856 0.43868 0.91967 0.0
C661 C 0.78221 0.41721 0.912 0.0
C662 C 0.80529 0.44766 0.93072 0.0
C663 C 0.8644 0.43862 0.94071 0.0
H664 H 0.86306 0.48435 0.98644 0.0
C665 C 0.94225 0.4728 0.99531 0.0
C666 C 0.94644 0.49496 0.9995 0.0
C667 C 0.92235 0.46317 0.98508 0.0
C668 C 0.86388 0.47174 0.97354 0.0
H669 H 0.79763 0.38846 0.91065 0.0
H670 H 0.83141 0.40379 0.93052 0.0
H671 H 0.8287 0.46776 0.96868 0.0
H672 H 0.93238 0.5242 0.99609 0.0
H673 H 0.89778 0.50747 0.97851 0.0
H674 H 0.89962 0.44249 0.94593 0.0
C675 C 0.81896 0.41394 0.92751 0.0
C676 C 0.84401 0.46215 0.9632 0.0
C677 C 0.79925 0.40497 0.91632 0.0
C678 C 0.92989 0.50711 0.99327 0.0
C679 C 0.90988 0.49745 0.98323 0.0
C680 C 0.88425 0.4481 0.95121 0.0
C681 C 0.82247 0.43554 0.93483 0.0
C682 C 0.84383 0.44545 0.94644 0.0
C683 C 0.90576 0.47529 0.97883 0.0
C684 C 0.8844 0.46492 0.96775 0.0
H685 H 0.77295 0.44875 0.91724 0.0
H686 H 0.80711 0.46435 0.93566 0.0
H687 H 0.86536 0.42615 0.92769 0.0
H688 H 0.95447 0.46281 0.99977 0.0
H689 H 0.91987 0.44609 0.98231 0.0
C690 C 0.73082 0.6284 0.43747 0.0
C691 C 0.73274 0.62908 0.41286 0.0
C692 C 0.7111 0.619 0.44866 0.0
C693 C 0.65043 0.60116 0.43845 0.0
H694 H 0.65375 0.56997 0.49548 0.0
C695 C 0.57167 0.55304 0.48237 0.0
C696 C 0.57011 0.55364 0.50697 0.0
C697 C 0.59145 0.56154 0.47058 0.0
C698 C 0.6524 0.5788 0.4797 0.0
H699 H 0.71499 0.61977 0.38094 0.0
H700 H 0.68089 0.6035 0.40029 0.0
H701 H 0.68779 0.58625 0.47596 0.0
H702 H 0.58837 0.56344 0.53838 0.0
H703 H 0.62258 0.57824 0.51805 0.0
H704 H 0.61502 0.59369 0.44223 0.0
C705 C 0.6945 0.61061 0.41106 0.0
C706 C 0.67206 0.58822 0.46845 0.0
C707 C 0.71419 0.62002 0.39988 0.0
C708 C 0.58895 0.56264 0.51943 0.0
C709 C 0.60869 0.57106 0.5077 0.0
C710 C 0.63077 0.59171 0.44969 0.0
C711 C 0.69257 0.60988 0.43566 0.0
C712 C 0.67146 0.59965 0.44765 0.0
C713 C 0.6103 0.5708 0.48306 0.0
C714 C 0.63138 0.58043 0.47059 0.0
H715 H 0.74449 0.63542 0.4482 0.0
H716 H 0.71032 0.61918 0.4676 0.0
H717 H 0.64908 0.61005 0.42272 0.0
H718 H 0.55751 0.54621 0.47219 0.0
H719 H 0.59199 0.56072 0.45165 0.0
C720 C 0.24398 0.35887 0.12633 0.0
C721 C 0.23977 0.34456 0.14489 0.0
C722 C 0.22791 0.37122 0.11981 0.0
C723 C 0.16738 0.37281 0.12395 0.0
H724 H 0.18365 0.43158 0.10592 0.0
C725 C 0.1012 0.42652 0.10597 0.0
C726 C 0.10459 0.43908 0.08589 0.0
C727 C 0.11814 0.41607 0.11415 0.0
C728 C 0.17887 0.41514 0.11074 0.0
H729 H 0.2152 0.33197 0.171 0.0
H730 H 0.18751 0.35379 0.16004 0.0
H731 H 0.21238 0.41118 0.1181 0.0
H732 H 0.12877 0.45116 0.05922 0.0
H733 H 0.15828 0.43274 0.07336 0.0
H734 H 0.13392 0.3767 0.11655 0.0
C735 C 0.20313 0.35534 0.15034 0.0
C736 C 0.19534 0.40343 0.11769 0.0
C737 C 0.21916 0.34301 0.15683 0.0
C738 C 0.12555 0.44142 0.07459 0.0
C739 C 0.14253 0.43103 0.08282 0.0
C740 C 0.15095 0.38451 0.11707 0.0
C741 C 0.20723 0.36951 0.13166 0.0
C742 C 0.18979 0.38211 0.12436 0.0
C743 C 0.13893 0.41798 0.10251 0.0
C744 C 0.15647 0.4058 0.11035 0.0
H745 H 0.25975 0.3606 0.11688 0.0
H746 H 0.23155 0.38182 0.1052 0.0
H747 H 0.16254 0.35632 0.12855 0.0
H748 H 0.08521 0.42423 0.11498 0.0
H749 H 0.11491 0.40636 0.12954 0.0
C750 C 0.59637 0.23601 0.92517 0.0
C751 C 0.61523 0.23679 0.91018 0.0
C752 C 0.58646 0.21682 0.93539 0.0
C753 C 0.5856 0.15678 0.93198 0.0
H754 H 0.55568 0.15897 0.99232 0.0
C755 C 0.5522 0.07979 0.98528 0.0
C756 C 0.53107 0.07918 0.99606 0.0
C757 C 0.56311 0.09867 0.97504 0.0
C758 C 0.56382 0.15796 0.97538 0.0
H759 H 0.63771 0.21684 0.89407 0.0
H760 H 0.6213 0.1841 0.91246 0.0
H761 H 0.57286 0.1918 0.97427 0.0
H762 H 0.50522 0.09832 1.00476 0.0
H763 H 0.52415 0.13093 0.98747 0.0
H764 H 0.57682 0.12277 0.93351 0.0
C765 C 0.61378 0.19827 0.91613 0.0
C766 C 0.57368 0.17699 0.96483 0.0
C767 C 0.62355 0.2174 0.90573 0.0
C768 C 0.52145 0.09808 0.99666 0.0
C769 C 0.53242 0.11693 0.98678 0.0
C770 C 0.57595 0.13772 0.94269 0.0
C771 C 0.59504 0.19751 0.93129 0.0
C772 C 0.58466 0.17689 0.94278 0.0
C773 C 0.55339 0.11762 0.97561 0.0
C774 C 0.56471 0.13795 0.96452 0.0
H775 H 0.58935 0.25035 0.92947 0.0
H776 H 0.57188 0.21724 0.94649 0.0
H777 H 0.59343 0.15563 0.91491 0.0
H778 H 0.56015 0.06559 0.98441 0.0
H779 H 0.57928 0.09847 0.96681 0.0
C780 C 0.91894 0.80729 0.43291 0.0
C781 C 0.90514 0.80522 0.41324 0.0
C782 C 0.92824 0.82738 0.44167 0.0
C783 C 0.92281 0.88571 0.43944 0.0
H784 H 0.9797 0.89224 0.46987 0.0
C785 C 0.96946 0.96858 0.47056 0.0
C786 C 0.97979 0.96943 0.49244 0.0
C787 C 0.96037 0.94896 0.46029 0.0
C788 C 0.96369 0.89073 0.46162 0.0
H789 H 0.89074 0.82345 0.38743 0.0
H790 H 0.90756 0.85821 0.40203 0.0
H791 H 0.96453 0.85791 0.45291 0.0
H792 H 0.98863 0.94993 0.52048 0.0
H793 H 0.97305 0.91604 0.50265 0.0
H794 H 0.9223 0.91877 0.44793 0.0
C795 C 0.91083 0.84424 0.4111 0.0
C796 C 0.95487 0.87088 0.45187 0.0
C797 C 0.90139 0.82411 0.40242 0.0
C798 C 0.98079 0.95006 0.50366 0.0
C799 C 0.97196 0.93049 0.49331 0.0
C800 C 0.93176 0.90565 0.44901 0.0
C801 C 0.92434 0.84629 0.43101 0.0
C802 C 0.93414 0.86788 0.44077 0.0
C803 C 0.9616 0.92956 0.47144 0.0
C804 C 0.95227 0.90845 0.46045 0.0
H805 H 0.92268 0.79333 0.44168 0.0
H806 H 0.93822 0.82798 0.45717 0.0
H807 H 0.90669 0.88424 0.43145 0.0
H808 H 0.96835 0.98309 0.46133 0.0
H809 H 0.95271 0.94897 0.44338 0.0
C810 C 0.33915 0.75349 0.56981 0.0
C811 C 0.34898 0.7749 0.56949 0.0
C812 C 0.34999 0.73771 0.55927 0.0
C813 C 0.40661 0.72809 0.54717 0.0
H814 H 0.37806 0.6755 0.51883 0.0
C815 C 0.45508 0.65814 0.53202 0.0
C816 C 0.44403 0.63845 0.53955 0.0
C817 C 0.44333 0.67516 0.52891 0.0
C818 C 0.38626 0.6901 0.52674 0.0
H819 H 0.37686 0.79679 0.55617 0.0
H820 H 0.39581 0.7692 0.53775 0.0
H821 H 0.35704 0.70523 0.52517 0.0
H822 H 0.41198 0.62079 0.54885 0.0
H823 H 0.3915 0.65059 0.54403 0.0
H824 H 0.43543 0.71286 0.54989 0.0
C825 C 0.37994 0.76459 0.54652 0.0
C826 C 0.37425 0.70711 0.53031 0.0
C827 C 0.36912 0.78036 0.55709 0.0
C828 C 0.42088 0.63578 0.54289 0.0
C829 C 0.40914 0.65285 0.54 0.0
C830 C 0.41856 0.71111 0.54372 0.0
C831 C 0.37085 0.74304 0.54819 0.0
C832 C 0.38417 0.72611 0.54105 0.0
C833 C 0.42031 0.67289 0.53353 0.0
C834 C 0.4084 0.69174 0.53397 0.0
H835 H 0.32373 0.74878 0.57938 0.0
H836 H 0.34266 0.72124 0.56107 0.0
H837 H 0.41465 0.74237 0.55586 0.0
H838 H 0.47289 0.66048 0.52894 0.0
H839 H 0.45237 0.69026 0.52345 0.0
C840 C 0.8072 0.82753 0.71512 0.0
C841 C 0.79604 0.83464 0.73491 0.0
C842 C 0.82146 0.8419 0.70159 0.0
C843 C 0.85597 0.89418 0.70722 0.0
H844 H 0.86192 0.88981 0.63968 0.0
C845 C 0.91352 0.95638 0.65409 0.0
C846 C 0.92665 0.94867 0.63623 0.0
C847 C 0.89662 0.94275 0.66522 0.0
C848 C 0.86056 0.8911 0.65856 0.0
H849 H 0.79058 0.86257 0.75552 0.0
H850 H 0.81494 0.88762 0.73164 0.0
H851 H 0.83333 0.86568 0.66024 0.0
H852 H 0.9321 0.92068 0.61578 0.0
H853 H 0.90272 0.89678 0.63547 0.0
H854 H 0.88325 0.91943 0.70564 0.0
C855 C 0.81296 0.87089 0.72678 0.0
C856 C 0.84418 0.87731 0.67033 0.0
C857 C 0.79874 0.85654 0.74028 0.0
C858 C 0.9224 0.92704 0.62964 0.0
C859 C 0.90542 0.91342 0.64073 0.0
C860 C 0.87229 0.90795 0.69548 0.0
C861 C 0.82488 0.86369 0.7076 0.0
C862 C 0.84173 0.87869 0.69481 0.0
C863 C 0.89241 0.92111 0.65872 0.0
C864 C 0.87481 0.90656 0.67103 0.0
H865 H 0.80528 0.81079 0.71035 0.0
H866 H 0.83046 0.83582 0.68699 0.0
H867 H 0.85485 0.89538 0.72613 0.0
H868 H 0.9165 0.97292 0.65969 0.0
H869 H 0.88675 0.94921 0.67886 0.0
C870 C 0.66357 0.19021 0.29142 0.0
C871 C 0.6547 0.18415 0.31358 0.0
C872 C 0.65425 0.18032 0.27115 0.0
C873 C 0.62299 0.13019 0.25095 0.0
H874 H 0.61075 0.16163 0.19647 0.0
C875 C 0.57978 0.08745 0.1714 0.0
C876 C 0.58771 0.09415 0.14913 0.0
C877 C 0.58663 0.09945 0.19134 0.0
C878 C 0.6143 0.1526 0.21143 0.0
H879 H 0.62913 0.16308 0.33195 0.0
H880 H 0.61292 0.14576 0.29657 0.0
H881 H 0.62557 0.18086 0.23149 0.0
H882 H 0.60873 0.11876 0.13015 0.0
H883 H 0.62114 0.13955 0.16501 0.0
H884 H 0.6124 0.10195 0.23094 0.0
C885 C 0.62703 0.15818 0.29488 0.0
C886 C 0.62272 0.16363 0.23148 0.0
C887 C 0.63618 0.16821 0.31509 0.0
C888 C 0.60222 0.11334 0.14712 0.0
C889 C 0.60927 0.12526 0.1671 0.0
C890 C 0.6148 0.11917 0.23088 0.0
C891 C 0.63608 0.16401 0.27273 0.0
C892 C 0.62707 0.1525 0.25144 0.0
C893 C 0.60177 0.11831 0.18949 0.0
C894 C 0.61027 0.13022 0.21088 0.0
H895 H 0.67776 0.20254 0.28977 0.0
H896 H 0.66162 0.18502 0.25429 0.0
H897 H 0.62654 0.12121 0.26597 0.0
H898 H 0.56831 0.07287 0.1734 0.0
H899 H 0.5801 0.09387 0.20823 0.0
C900 C 0.39528 0.62838 0.33009 0.0
C901 C 0.40983 0.64117 0.31482 0.0
C902 C 0.40341 0.61741 0.34859 0.0
C903 C 0.45552 0.5985 0.36984 0.0
H904 H 0.42335 0.59224 0.42913 0.0
C905 C 0.48326 0.5466 0.44409 0.0
C906 C 0.48089 0.55311 0.46763 0.0
C907 C 0.47419 0.5569 0.42574 0.0
C908 C 0.43274 0.5939 0.41279 0.0
H909 H 0.44477 0.65157 0.30729 0.0
H910 H 0.4587 0.633 0.33929 0.0
H911 H 0.40871 0.61074 0.39723 0.0
H912 H 0.46672 0.5759 0.48991 0.0
H913 H 0.45111 0.59387 0.45817 0.0
H914 H 0.47976 0.58208 0.38545 0.0
C915 C 0.44092 0.63126 0.33702 0.0
C916 C 0.42411 0.60437 0.39423 0.0
C917 C 0.43282 0.64226 0.31865 0.0
C918 C 0.46893 0.57026 0.47214 0.0
C919 C 0.45981 0.58056 0.45378 0.0
C920 C 0.4641 0.58798 0.38833 0.0
C921 C 0.42642 0.61864 0.35247 0.0
C922 C 0.43536 0.60697 0.37237 0.0
C923 C 0.46233 0.57417 0.43015 0.0
C924 C 0.45293 0.58547 0.41024 0.0
H925 H 0.37749 0.62711 0.32805 0.0
H926 H 0.39154 0.60776 0.35974 0.0
H927 H 0.46473 0.59977 0.35338 0.0
H928 H 0.49224 0.53345 0.4397 0.0
H929 H 0.47633 0.55108 0.40803 0.0
C930 C 0.1192 0.44941 0.81379 0.0
C931 C 0.11595 0.42713 0.81043 0.0
C932 C 0.10996 0.459 0.83333 0.0
C933 C 0.06562 0.45004 0.8798 0.0
H934 H 0.1008 0.49788 0.91066 0.0
C935 C 0.03384 0.48951 0.96535 0.0
C936 C 0.03999 0.51155 0.96885 0.0
C937 C 0.04311 0.4786 0.94669 0.0
C938 C 0.09047 0.48477 0.90216 0.0
H939 H 0.09991 0.39764 0.82541 0.0
H940 H 0.08381 0.41435 0.85944 0.0
H941 H 0.11638 0.48045 0.87722 0.0
H942 H 0.06068 0.53933 0.95515 0.0
H943 H 0.07623 0.52073 0.92255 0.0
H944 H 0.03953 0.45457 0.90448 0.0
C945 C 0.09354 0.42443 0.84682 0.0
C946 C 0.09953 0.47466 0.88286 0.0
C947 C 0.10298 0.4148 0.82734 0.0
C948 C 0.05562 0.52234 0.95316 0.0
C949 C 0.06472 0.51153 0.93443 0.0
C950 C 0.05645 0.46028 0.89902 0.0
C951 C 0.09697 0.44672 0.85023 0.0
C952 C 0.08726 0.45718 0.87125 0.0
C953 C 0.05872 0.48942 0.9308 0.0
C954 C 0.06865 0.47795 0.91053 0.0
H955 H 0.12926 0.45954 0.80145 0.0
H956 H 0.11286 0.47618 0.83506 0.0
H957 H 0.05548 0.4368 0.87128 0.0
H958 H 0.02186 0.48065 0.97707 0.0
H959 H 0.03816 0.4616 0.94491 0.0
C960 C 0.61621 0.86411 0.87974 0.0
C961 C 0.63857 0.86399 0.88541 0.0
C962 C 0.60402 0.87896 0.89026 0.0
C963 C 0.61169 0.93183 0.91897 0.0
H964 H 0.55192 0.91568 0.94366 0.0
C965 C 0.56954 0.98674 0.98114 0.0
C966 C 0.54654 0.98694 0.97973 0.0
C967 C 0.57997 0.97234 0.96768 0.0
C968 C 0.56845 0.92054 0.9365 0.0
H969 H 0.66559 0.87934 0.90662 0.0
H970 H 0.6443 0.90506 0.92507 0.0
H971 H 0.57143 0.88888 0.92437 0.0
H972 H 0.51656 0.97246 0.9625 0.0
H973 H 0.53488 0.94747 0.93865 0.0
H974 H 0.60883 0.96343 0.931 0.0
C975 C 0.63623 0.89375 0.91241 0.0
C976 C 0.57965 0.90516 0.92552 0.0
C977 C 0.64834 0.87884 0.90206 0.0
C978 C 0.5343 0.97272 0.96404 0.0
C979 C 0.54477 0.95828 0.9505 0.0
C980 C 0.60048 0.94721 0.9298 0.0
C981 C 0.614 0.89414 0.90648 0.0
C982 C 0.60153 0.91058 0.91698 0.0
C983 C 0.56771 0.95777 0.95235 0.0
C984 C 0.57885 0.94171 0.93906 0.0
H985 H 0.60819 0.85278 0.86708 0.0
H986 H 0.58694 0.87891 0.88528 0.0
H987 H 0.62837 0.93659 0.91213 0.0
H988 H 0.5795 0.9974 0.99309 0.0
H989 H 0.59758 0.97222 0.96985 0.0
C990 C 0.82818 0.11675 0.42614 0.0
C991 C 0.82351 0.13546 0.4376 0.0
C992 C 0.84448 0.1056 0.4345 0.0
C993 C 0.89318 0.11163 0.47322 0.0
H994 H 0.88333 0.04995 0.4714 0.0
C995 C 0.96154 0.06351 0.49898 0.0
C996 C 0.9552 0.04499 0.51185 0.0
C997 C 0.94557 0.07391 0.48881 0.0
C998 C 0.88626 0.06717 0.47224 0.0
H999 H 0.83269 0.15728 0.46663 0.0
H1000 H 0.86043 0.13745 0.48169 0.0
H1001 H 0.85518 0.06952 0.4565 0.0
H1002 H 0.92725 1.02268 0.52416 0.0
H1003 H 0.89917 0.04121 0.50704 0.0
H1004 H 0.92378 0.10935 0.48985 0.0
C1005 C 0.85179 0.13156 0.46599 0.0
C1006 C 0.87025 0.0784 0.46337 0.0
C1007 C 0.83563 0.14279 0.45754 0.0
C1008 C 0.93258 0.03691 0.51423 0.0
C1009 C 0.91653 0.04746 0.50428 0.0
C1010 C 0.90907 0.10042 0.48226 0.0
C1011 C 0.8564 0.1128 0.45461 0.0
C1012 C 0.87351 0.10079 0.46377 0.0
C1013 C 0.92284 0.0662 0.4916 0.0
C1014 C 0.90585 0.07804 0.48185 0.0
H1015 H 0.81899 0.11049 0.41091 0.0
H1016 H 0.84779 0.09138 0.42509 0.0
H1017 H 0.89641 0.12885 0.47355 0.0
H1018 H 0.97884 0.07019 0.49703 0.0
H1019 H 0.95109 0.08805 0.47882 0.0
C1020 C 0.23454 0.61224 0.13511 0.0
C1021 C 0.23779 0.63338 0.14388 0.0
C1022 C 0.21479 0.60357 0.12397 0.0
C1023 C 0.15539 0.61257 0.1154 0.0
H1024 H 0.15681 0.56867 0.0675 0.0
C1025 C 0.07737 0.57971 0.06024 0.0
C1026 C 0.07337 0.55767 0.05524 0.0
C1027 C 0.09726 0.58918 0.07063 0.0
C1028 C 0.15597 0.58076 0.08099 0.0
H1029 H 0.22205 0.66187 0.14711 0.0
H1030 H 0.18818 0.64713 0.12706 0.0
H1031 H 0.19119 0.58482 0.08551 0.0
H1032 H 0.08775 0.52849 0.05738 0.0
H1033 H 0.12234 0.54494 0.07517 0.0
H1034 H 0.12011 0.60864 0.11048 0.0
C1035 C 0.20078 0.63697 0.12928 0.0
C1036 C 0.17586 0.59009 0.09149 0.0
C1037 C 0.22054 0.64562 0.14058 0.0
C1038 C 0.09009 0.54548 0.06082 0.0
C1039 C 0.11009 0.555 0.07099 0.0
C1040 C 0.13552 0.60336 0.10473 0.0
C1041 C 0.19741 0.6157 0.12084 0.0
C1042 C 0.17601 0.60611 0.10906 0.0
C1043 C 0.11403 0.57702 0.0762 0.0
C1044 C 0.1354 0.58718 0.08741 0.0
H1045 H 0.24733 0.6022 0.13674 0.0
H1046 H 0.2131 0.58711 0.11816 0.0
H1047 H 0.15441 0.6245 0.12903 0.0
H1048 H 0.065 0.58971 0.05631 0.0
H1049 H 0.0996 0.60618 0.07406 0.0
C1050 C 0.28955 0.42145 0.6099 0.0
C1051 C 0.28701 0.41949 0.63437 0.0
C1052 C 0.30955 0.43123 0.59966 0.0
C1053 C 0.37007 0.44756 0.61168 0.0
H1054 H 0.36838 0.48031 0.55549 0.0
C1055 C 0.45035 0.49434 0.56881 0.0
C1056 C 0.45201 0.49376 0.54421 0.0
C1057 C 0.43036 0.48628 0.58049 0.0
C1058 C 0.36927 0.47106 0.57105 0.0
H1059 H 0.304 0.4268 0.66712 0.0
H1060 H 0.3387 0.44392 0.64936 0.0
H1061 H 0.33381 0.46458 0.57434 0.0
H1062 H 0.43371 0.48452 0.51269 0.0
H1063 H 0.3991 0.47057 0.53284 0.0
H1064 H 0.4056 0.45412 0.60832 0.0
C1065 C 0.32528 0.43755 0.63798 0.0
C1066 C 0.3493 0.46195 0.58192 0.0
C1067 C 0.30526 0.42771 0.64823 0.0
C1068 C 0.43307 0.48527 0.53164 0.0
C1069 C 0.4131 0.47735 0.54326 0.0
C1070 C 0.39006 0.45675 0.60083 0.0
C1071 C 0.32781 0.43948 0.61348 0.0
C1072 C 0.3493 0.44986 0.60233 0.0
C1073 C 0.41139 0.47758 0.5679 0.0
C1074 C 0.39002 0.46851 0.58019 0.0
H1075 H 0.27619 0.41499 0.59848 0.0
H1076 H 0.31079 0.4319 0.58076 0.0
H1077 H 0.37096 0.43818 0.62714 0.0
H1078 H 0.4646 0.50078 0.57907 0.0
H1079 H 0.42973 0.48702 0.59943 0.0
C1080 C 0.77219 0.68416 0.91697 0.0
C1081 C 0.77806 0.70078 0.90115 0.0
C1082 C 0.78799 0.67174 0.92406 0.0
C1083 C 0.84316 0.6568 0.9078 0.0
H1084 H 0.8452 0.64335 0.97349 0.0
C1085 C 0.9188 0.62674 0.94818 0.0
C1086 C 0.91491 0.61125 0.96558 0.0
C1087 C 0.90129 0.63607 0.93944 0.0
C1088 C 0.84468 0.64668 0.95502 0.0
H1089 H 0.8053 0.71752 0.88066 0.0
H1090 H 0.83273 0.69594 0.89296 0.0
H1091 H 0.81605 0.66243 0.95991 0.0
H1092 H 0.88937 0.59291 0.98683 0.0
H1093 H 0.8588 0.60916 0.97156 0.0
H1094 H 0.87195 0.64127 0.90296 0.0
C1095 C 0.81583 0.6922 0.89957 0.0
C1096 C 0.82795 0.65763 0.94723 0.0
C1097 C 0.80007 0.70459 0.8925 0.0
C1098 C 0.893 0.60503 0.9737 0.0
C1099 C 0.87547 0.61435 0.96496 0.0
C1100 C 0.85989 0.64585 0.91558 0.0
C1101 C 0.81003 0.67568 0.91551 0.0
C1102 C 0.82711 0.66301 0.92356 0.0
C1103 C 0.87943 0.63013 0.94786 0.0
C1104 C 0.86098 0.64083 0.93933 0.0
H1105 H 0.75533 0.68062 0.92375 0.0
H1106 H 0.7829 0.65896 0.93613 0.0
H1107 H 0.84279 0.66037 0.88938 0.0
H1108 H 0.93551 0.63216 0.94179 0.0
H1109 H 0.90499 0.64839 0.92654 0.0
C1110 C 0.39558 0.82155 0.12654 0.0
C1111 C 0.40575 0.81137 0.1442 0.0
C1112 C 0.40596 0.84071 0.11672 0.0
C1113 C 0.46141 0.87646 0.11206 0.0
H1114 H 0.42548 0.91623 0.08754 0.0
C1115 C 0.50249 0.95029 0.06006 0.0
C1116 C 0.49301 0.96925 0.06086 0.0
C1117 C 0.49152 0.93146 0.06999 0.0
C1118 C 0.43594 0.90553 0.09447 0.0
H1119 H 0.43513 0.8141 0.16536 0.0
H1120 H 0.45293 0.84753 0.14884 0.0
H1121 H 0.40762 0.88378 0.10575 0.0
H1122 H 0.4641 0.98295 0.0728 0.0
H1123 H 0.44512 0.95036 0.0907 0.0
H1124 H 0.48972 0.89857 0.10172 0.0
C1125 C 0.43707 0.84048 0.142 0.0
C1126 C 0.42557 0.88651 0.10471 0.0
C1127 C 0.42676 0.82116 0.15165 0.0
C1128 C 0.47194 0.96868 0.07173 0.0
C1129 C 0.46099 0.94982 0.08195 0.0
C1130 C 0.47177 0.89554 0.10202 0.0
C1131 C 0.42691 0.85071 0.12427 0.0
C1132 C 0.43807 0.87145 0.11362 0.0
C1133 C 0.47064 0.9308 0.08146 0.0
C1134 C 0.4593 0.91047 0.09281 0.0
H1135 H 0.37962 0.81448 0.11991 0.0
H1136 H 0.39756 0.84746 0.10283 0.0
H1137 H 0.47192 0.86549 0.1183 0.0
H1138 H 0.51859 0.94997 0.05168 0.0
H1139 H 0.49951 0.91733 0.06842 0.0
C1140 C 0.11994 0.24469 0.6209 0.0
C1141 C 0.11468 0.24831 0.64466 0.0
C1142 C 0.11268 0.22499 0.60973 0.0
C1143 C 0.09103 0.16783 0.62222 0.0
H1144 H 0.07024 0.16627 0.55854 0.0
C1145 C 0.04336 0.09059 0.58064 0.0
C1146 C 0.04626 0.08627 0.55657 0.0
C1147 C 0.05271 0.11006 0.59084 0.0
C1148 C 0.07625 0.16627 0.57623 0.0
H1149 H 0.09804 0.23332 0.67527 0.0
H1150 H 0.08525 0.19946 0.65593 0.0
H1151 H 0.0847 0.20029 0.577 0.0
H1152 H 0.06168 0.09947 0.52452 0.0
H1153 H 0.07822 0.1332 0.5423 0.0
H1154 H 0.08261 0.13389 0.62153 0.0
C1155 C 0.09508 0.21176 0.64582 0.0
C1156 C 0.08459 0.18592 0.58688 0.0
C1157 C 0.10223 0.23143 0.65691 0.0
C1158 C 0.05903 0.10208 0.54308 0.0
C1159 C 0.06841 0.1216 0.55332 0.0
C1160 C 0.08275 0.14821 0.61157 0.0
C1161 C 0.10007 0.20817 0.622 0.0
C1162 C 0.09195 0.18708 0.61015 0.0
C1163 C 0.06536 0.126 0.57739 0.0
C1164 C 0.07501 0.14705 0.58844 0.0
H1165 H 0.12933 0.25723 0.61073 0.0
H1166 H 0.11712 0.2229 0.59147 0.0
H1167 H 0.09692 0.16783 0.63995 0.0
H1168 H 0.03356 0.07899 0.59168 0.0
H1169 H 0.04957 0.11276 0.6093 0.0
C1170 C 0.69837 0.30361 0.50992 0.0
C1171 C 0.68999 0.28224 0.51419 0.0
C1172 C 0.6857 0.3197 0.51574 0.0
C1173 C 0.62714 0.32649 0.52212 0.0
H1174 H 0.65138 0.38445 0.53915 0.0
C1175 C 0.57289 0.39368 0.52427 0.0
C1176 C 0.58218 0.41213 0.51244 0.0
C1177 C 0.58603 0.3782 0.52968 0.0
C1178 C 0.64439 0.36832 0.53439 0.0
H1179 H 0.66263 0.26108 0.5296 0.0
H1180 H 0.64057 0.2892 0.54005 0.0
H1181 H 0.67494 0.35643 0.5404 0.0
H1182 H 0.6127 0.42929 0.49805 0.0
H1183 H 0.63552 0.40212 0.50708 0.0
H1184 H 0.59683 0.3384 0.51544 0.0
C1185 C 0.6567 0.29349 0.5317 0.0
C1186 C 0.65786 0.35229 0.5351 0.0
C1187 C 0.66934 0.2774 0.52579 0.0
C1188 C 0.605 0.41509 0.50684 0.0
C1189 C 0.61814 0.39966 0.51231 0.0
C1190 C 0.61368 0.34248 0.52146 0.0
C1191 C 0.66441 0.31474 0.52602 0.0
C1192 C 0.64952 0.33127 0.52847 0.0
C1193 C 0.60874 0.3809 0.52348 0.0
C1194 C 0.62229 0.36365 0.52707 0.0
H1195 H 0.71414 0.3078 0.50079 0.0
H1196 H 0.69206 0.33585 0.51088 0.0
H1197 H 0.62025 0.31056 0.51651 0.0
H1198 H 0.55534 0.39093 0.52875 0.0
H1199 H 0.57836 0.36398 0.53847 0.0
loop_
_geom_bond_atom_site_label_1
_geom_bond_atom_site_label_2
_geom_bond_distance
_geom_bond_site_symmetry_2
_ccdc_geom_bond_type
C0 C1 1.264 . S
C0 C5 1.479 . S
C0 C10 1.465 . S
C1 C0 1.264 . S
C1 C3 1.339 . S
C1 H28 0.931 . S
C2 C3 1.395 . S
C2 C4 1.320 . S
C3 C1 1.339 . S
C3 C2 1.395 . S
C3 H29 0.929 . S
C4 C2 1.320 . S
C4 C5 1.405 . S
C4 H30 0.930 . S
C5 C0 1.479 . S
C5 C4 1.405 . S
C5 H31 0.931 . S
U6 O7 2.454 . S
U6 O8 2.458 . S
U6 C9 2.984 . S
U6 C10 2.847 . S
U6 C23 2.882 . S
U6 O24 2.441 . S
U6 O25 2.420 . S
U6 O26 2.455 . S
U6 O27 2.449 . S
O7 U6 2.454 . S
O7 C9 1.353 . S
O8 U6 2.458 . S
O8 C9 1.286 . S
C9 U6 2.984 . S
C9 O7 1.353 . S
C9 O8 1.286 . S
C9 C11 1.363 . S
C10 C0 1.465 . S
C10 U6 2.847 . S
C10 O24 1.249 . S
C10 O25 1.202 . S
C11 C9 1.363 . S
C11 C13 1.408 . S
C11 C16 1.342 . S
C12 C13 1.310 . S
C12 C15 1.461 . S
C12 H32 0.932 . S
C13 C11 1.408 . S
C13 C12 1.310 . S
C13 H33 0.930 . S
C14 C15 1.474 . S
C14 C16 1.285 . S
C14 H34 0.929 . S
C15 C12 1.461 . S
C15 C14 1.474 . S
C16 C11 1.342 . S
C16 C14 1.285 . S
C16 H35 0.930 . S
C17 C20 1.424 . S
C17 C22 1.245 . S
C17 C23 1.428 . S
C18 C21 1.260 . S
C18 C22 1.477 . S
C18 H36 0.932 . S
C19 C20 1.384 . S
C19 C21 1.479 . S
C19 H37 0.929 . S
C20 C17 1.424 . S
C20 C19 1.384 . S
C20 H38 0.928 . S
C21 C18 1.260 . S
C21 C19 1.479 . S
C22 C17 1.245 . S
C22 C18 1.477 . S
C22 H39 0.932 . S
C23 U6 2.882 . S
C23 C17 1.428 . S
C23 O26 1.301 . S
C23 O27 1.282 . S
O24 U6 2.441 . S
O24 C10 1.249 . S
O25 U6 2.420 . S
O25 C10 1.202 . S
O26 U6 2.455 . S
O26 C23 1.301 . S
O27 U6 2.449 . S
O27 C23 1.282 . S
H28 C1 0.931 . S
H29 C3 0.929 . S
H30 C4 0.930 . S
H31 C5 0.931 . S
H32 C12 0.932 . S
H33 C13 0.930 . S
H34 C14 0.929 . S
H35 C16 0.930 . S
H36 C18 0.932 . S
H37 C19 0.929 . S
H38 C20 0.928 . S
H39 C22 0.932 . S
C40 C41 1.264 . S
C40 C45 1.479 . S
C40 C50 1.465 . S
C41 C40 1.264 . S
C41 C43 1.339 . S
C41 H68 0.931 . S
C42 C43 1.395 . S
C42 C44 1.320 . S
C43 C41 1.339 . S
C43 C42 1.395 . S
C43 H69 0.929 . S
C44 C42 1.320 . S
C44 C45 1.405 . S
C44 H70 0.930 . S
C45 C40 1.479 . S
C45 C44 1.405 . S
C45 H71 0.931 . S
U46 O47 2.454 . S
U46 O48 2.458 . S
U46 C49 2.984 . S
U46 C50 2.847 . S
U46 C63 2.882 . S
U46 O64 2.441 . S
U46 O65 2.420 . S
U46 O66 2.455 . S
U46 O67 2.449 . S
O47 U46 2.454 . S
O47 C49 1.353 . S
O48 U46 2.458 . S
O48 C49 1.286 . S
C49 U46 2.984 . S
C49 O47 1.353 . S
C49 O48 1.286 . S
C49 C51 1.363 . S
C50 C40 1.465 . S
C50 U46 2.847 . S
C50 O64 1.249 . S
C50 O65 1.202 . S
C51 C49 1.363 . S
C51 C53 1.408 . S
C51 C56 1.342 . S
C52 C53 1.310 . S
C52 C55 1.461 . S
C52 H72 0.932 . S
C53 C51 1.408 . S
C53 C52 1.310 . S
C53 H73 0.930 . S
C54 C55 1.474 . S
C54 C56 1.285 . S
C54 H74 0.929 . S
C55 C52 1.461 . S
C55 C54 1.474 . S
C56 C51 1.342 . S
C56 C54 1.285 . S
C56 H75 0.930 . S
C57 C60 1.424 . S
C57 C62 1.245 . S
C57 C63 1.428 . S
C58 C61 1.260 . S
C58 C62 1.477 . S
C58 H76 0.932 . S
C59 C60 1.384 . S
C59 C61 1.479 . S
C59 H77 0.929 . S
C60 C57 1.424 . S
C60 C59 1.384 . S
C60 H78 0.928 . S
C61 C58 1.260 . S
C61 C59 1.479 . S
C62 C57 1.245 . S
C62 C58 1.477 . S
C62 H79 0.932 . S
C63 U46 2.882 . S
C63 C57 1.428 . S
C63 O66 1.301 . S
C63 O67 1.282 . S
O64 U46 2.441 . S
O64 C50 1.249 . S
O65 U46 2.420 . S
O65 C50 1.202 . S
O66 U46 2.455 . S
O66 C63 1.301 . S
O67 U46 2.449 . S
O67 C63 1.282 . S
H68 C41 0.931 . S
H69 C43 0.929 . S
H70 C44 0.930 . S
H71 C45 0.931 . S
H72 C52 0.932 . S
H73 C53 0.930 . S
H74 C54 0.929 . S
H75 C56 0.930 . S
H76 C58 0.932 . S
H77 C59 0.929 . S
H78 C60 0.928 . S
H79 C62 0.932 . S
C80 C81 1.264 . S
C80 C85 1.479 . S
C80 C90 1.465 . S
C81 C80 1.264 . S
C81 C83 1.339 . S
C81 H108 0.931 . S
C82 C83 1.395 . S
C82 C84 1.320 . S
C83 C81 1.339 . S
C83 C82 1.395 . S
C83 H109 0.929 . S
C84 C82 1.320 . S
C84 C85 1.405 . S
C84 H110 0.930 . S
C85 C80 1.479 . S
C85 C84 1.405 . S
C85 H111 0.931 . S
U86 O87 2.454 . S
U86 O88 2.458 . S
U86 C89 2.984 . S
U86 C90 2.847 . S
U86 C103 2.882 . S
U86 O104 2.441 . S
U86 O105 2.420 . S
U86 O106 2.455 . S
U86 O107 2.449 . S
O87 U86 2.454 . S
O87 C89 1.353 . S
O88 U86 2.458 . S
O88 C89 1.286 . S
C89 U86 2.984 . S
C89 O87 1.353 . S
C89 O88 1.286 . S
C89 C91 1.363 . S
C90 C80 1.465 . S
C90 U86 2.847 . S
C90 O104 1.249 . S
C90 O105 1.202 . S
C91 C89 1.363 . S
C91 C93 1.408 . S
C91 C96 1.342 . S
C92 C93 1.310 . S
C92 C95 1.461 . S
C92 H112 0.932 . S
C93 C91 1.408 . S
C93 C92 1.310 . S
C93 H113 0.930 . S
C94 C95 1.474 . S
C94 C96 1.285 . S
C94 H114 0.929 . S
C95 C92 1.461 . S
C95 C94 1.474 . S
C96 C91 1.342 . S
C96 C94 1.285 . S
C96 H115 0.930 . S
C97 C100 1.424 . S
C97 C102 1.245 . S
C97 C103 1.428 . S
C98 C101 1.260 . S
C98 C102 1.477 . S
C98 H116 0.932 . S
C99 C100 1.384 . S
C99 C101 1.479 . S
C99 H117 0.929 . S
C100 C97 1.424 . S
C100 C99 1.384 . S
C100 H118 0.928 . S
C101 C98 1.260 . S
C101 C99 1.479 . S
C102 C97 1.245 . S
C102 C98 1.477 . S
C102 H119 0.932 . S
C103 U86 2.882 . S
C103 C97 1.428 . S
C103 O106 1.301 . S
C103 O107 1.282 . S
O104 U86 2.441 . S
O104 C90 1.249 . S
O105 U86 2.420 . S
O105 C90 1.202 . S
O106 U86 2.455 . S
O106 C103 1.301 . S
O107 U86 2.449 . S
O107 C103 1.282 . S
H108 C81 0.931 . S
H109 C83 0.929 . S
H110 C84 0.930 . S
H111 C85 0.931 . S
H112 C92 0.932 . S
H113 C93 0.930 . S
H114 C94 0.929 . S
H115 C96 0.930 . S
H116 C98 0.932 . S
H117 C99 0.929 . S
H118 C100 0.928 . S
H119 C102 0.932 . S
C120 C121 1.264 . S
C120 C125 1.479 . S
C120 C130 1.465 . S
C121 C120 1.264 . S
C121 C123 1.339 . S
C121 H148 0.931 . S
C122 C123 1.395 . S
C122 C124 1.320 . S
C123 C121 1.339 . S
C123 C122 1.395 . S
C123 H149 0.929 . S
C124 C122 1.320 . S
C124 C125 1.405 . S
C124 H150 0.930 . S
C125 C120 1.479 . S
C125 C124 1.405 . S
C125 H151 0.931 . S
U126 O127 2.454 . S
U126 O128 2.458 . S
U126 C129 2.984 . S
U126 C130 2.847 . S
U126 C143 2.882 . S
U126 O144 2.441 . S
U126 O145 2.420 . S
U126 O146 2.455 . S
U126 O147 2.449 . S
O127 U126 2.454 . S
O127 C129 1.353 . S
O128 U126 2.458 . S
O128 C129 1.286 . S
C129 U126 2.984 . S
C129 O127 1.353 . S
C129 O128 1.286 . S
C129 C131 1.363 . S
C130 C120 1.465 . S
C130 U126 2.847 . S
C130 O144 1.249 . S
C130 O145 1.202 . S
C131 C129 1.363 . S
C131 C133 1.408 . S
C131 C136 1.342 . S
C132 C133 1.310 . S
C132 C135 1.461 . S
C132 H152 0.932 . S
C133 C131 1.408 . S
C133 C132 1.310 . S
C133 H153 0.930 . S
C134 C135 1.474 . S
C134 C136 1.285 . S
C134 H154 0.929 . S
C135 C132 1.461 . S
C135 C134 1.474 . S
C136 C131 1.342 . S
C136 C134 1.285 . S
C136 H155 0.930 . S
C137 C140 1.424 . S
C137 C142 1.245 . S
C137 C143 1.428 . S
C138 C141 1.260 . S
C138 C142 1.477 . S
C138 H156 0.932 . S
C139 C140 1.384 . S
C139 C141 1.479 . S
C139 H157 0.929 . S
C140 C137 1.424 . S
C140 C139 1.384 . S
C140 H158 0.928 . S
C141 C138 1.260 . S
C141 C139 1.479 . S
C142 C137 1.245 . S
C142 C138 1.477 . S
C142 H159 0.932 . S
C143 U126 2.882 . S
C143 C137 1.428 . S
C143 O146 1.301 . S
C143 O147 1.282 . S
O144 U126 2.441 . S
O144 C130 1.249 . S
O145 U126 2.420 . S
O145 C130 1.202 . S
O146 U126 2.455 . S
O146 C143 1.301 . S
O147 U126 2.449 . S
O147 C143 1.282 . S
H148 C121 0.931 . S
H149 C123 0.929 . S
H150 C124 0.930 . S
H151 C125 0.931 . S
H152 C132 0.932 . S
H153 C133 0.930 . S
H154 C134 0.929 . S
H155 C136 0.930 . S
H156 C138 0.932 . S
H157 C139 0.929 . S
H158 C140 0.928 . S
H159 C142 0.932 . S
C160 C161 1.264 . S
C160 C165 1.479 . S
C160 C170 1.465 . S
C161 C160 1.264 . S
C161 C163 1.339 . S
C161 H188 0.931 . S
C162 C163 1.395 . S
C162 C164 1.320 . S
C163 C161 1.339 . S
C163 C162 1.395 . S
C163 H189 0.929 . S
C164 C162 1.320 . S
C164 C165 1.405 . S
C164 H190 0.930 . S
C165 C160 1.479 . S
C165 C164 1.405 . S
C165 H191 0.931 . S
U166 O167 2.454 . S
U166 O168 2.458 . S
U166 C169 2.984 . S
U166 C170 2.847 . S
U166 C183 2.882 . S
U166 O184 2.441 . S
U166 O185 2.420 . S
U166 O186 2.455 . S
U166 O187 2.449 . S
O167 U166 2.454 . S
O167 C169 1.353 . S
O168 U166 2.458 . S
O168 C169 1.286 . S
C169 U166 2.984 . S
C169 O167 1.353 . S
C169 O168 1.286 . S
C169 C171 1.363 . S
C170 C160 1.465 . S
C170 U166 2.847 . S
C170 O184 1.249 . S
C170 O185 1.202 . S
C171 C169 1.363 . S
C171 C173 1.408 . S
C171 C176 1.342 . S
C172 C173 1.310 . S
C172 C175 1.461 . S
C172 H192 0.932 . S
C173 C171 1.408 . S
C173 C172 1.310 . S
C173 H193 0.930 . S
C174 C175 1.474 . S
C174 C176 1.285 . S
C174 H194 0.929 . S
C175 C172 1.461 . S
C175 C174 1.474 . S
C176 C171 1.342 . S
C176 C174 1.285 . S
C176 H195 0.930 . S
C177 C180 1.424 . S
C177 C182 1.245 . S
C177 C183 1.428 . S
C178 C181 1.260 . S
C178 C182 1.477 . S
C178 H196 0.932 . S
C179 C180 1.384 . S
C179 C181 1.479 . S
C179 H197 0.929 . S
C180 C177 1.424 . S
C180 C179 1.384 . S
C180 H198 0.928 . S
C181 C178 1.260 . S
C181 C179 1.479 . S
C182 C177 1.245 . S
C182 C178 1.477 . S
C182 H199 0.932 . S
C183 U166 2.882 . S
C183 C177 1.428 . S
C183 O186 1.301 . S
C183 O187 1.282 . S
O184 U166 2.441 . S
O184 C170 1.249 . S
O185 U166 2.420 . S
O185 C170 1.202 . S
O186 U166 2.455 . S
O186 C183 1.301 . S
O187 U166 2.449 . S
O187 C183 1.282 . S
H188 C161 0.931 . S
H189 C163 0.929 . S
H190 C164 0.930 . S
H191 C165 0.931 . S
H192 C172 0.932 . S
H193 C173 0.930 . S
H194 C174 0.929 . S
H195 C176 0.930 . S
H196 C178 0.932 . S
H197 C179 0.929 . S
H198 C180 0.928 . S
H199 C182 0.932 . S
C200 C201 1.264 . S
C200 C205 1.479 . S
C200 C210 1.465 . S
C201 C200 1.264 . S
C201 C203 1.339 . S
C201 H228 0.931 . S
C202 C203 1.395 . S
C202 C204 1.320 . S
C203 C201 1.339 . S
C203 C202 1.395 . S
C203 H229 0.929 . S
C204 C202 1.320 . S
C204 C205 1.405 . S
C204 H230 0.930 . S
C205 C200 1.479 . S
C205 C204 1.405 . S
C205 H231 0.931 . S
U206 O207 2.454 . S
U206 O208 2.458 . S
U206 C209 2.984 . S
U206 C210 2.847 . S
U206 C223 2.882 . S
U206 O224 2.441 . S
U206 O225 2.420 . S
U206 O226 2.455 . S
U206 O227 2.449 . S
O207 U206 2.454 . S
O207 C209 1.353 . S
O208 U206 2.458 . S
O208 C209 1.286 . S
C209 U206 2.984 . S
C209 O207 1.353 . S
C209 O208 1.286 . S
C209 C211 1.363 . S
C210 C200 1.465 . S
C210 U206 2.847 . S
C210 O224 1.249 . S
C210 O225 1.202 . S
C211 C209 1.363 . S
C211 C213 1.408 . S
C211 C216 1.342 . S
C212 C213 1.310 . S
C212 C215 1.461 . S
C212 H232 0.932 . S
C213 C211 1.408 . S
C213 C212 1.310 . S
C213 H233 0.930 . S
C214 C215 1.474 . S
C214 C216 1.285 . S
C214 H234 0.929 . S
C215 C212 1.461 . S
C215 C214 1.474 . S
C216 C211 1.342 . S
C216 C214 1.285 . S
C216 H235 0.930 . S
C217 C220 1.424 . S
C217 C222 1.245 . S
C217 C223 1.428 . S
C218 C221 1.260 . S
C218 C222 1.477 . S
C218 H236 0.932 . S
C219 C220 1.384 . S
C219 C221 1.479 . S
C219 H237 0.929 . S
C220 C217 1.424 . S
C220 C219 1.384 . S
C220 H238 0.928 . S
C221 C218 1.260 . S
C221 C219 1.479 . S
C222 C217 1.245 . S
C222 C218 1.477 . S
C222 H239 0.932 . S
C223 U206 2.882 . S
C223 C217 1.428 . S
C223 O226 1.301 . S
C223 O227 1.282 . S
O224 U206 2.441 . S
O224 C210 1.249 . S
O225 U206 2.420 . S
O225 C210 1.202 . S
O226 U206 2.455 . S
O226 C223 1.301 . S
O227 U206 2.449 . S
O227 C223 1.282 . S
H228 C201 0.931 . S
H229 C203 0.929 . S
H230 C204 0.930 . S
H231 C205 0.931 . S
H232 C212 0.932 . S
H233 C213 0.930 . S
H234 C214 0.929 . S
H235 C216 0.930 . S
H236 C218 0.932 . S
H237 C219 0.929 . S
H238 C220 0.928 . S
H239 C222 0.932 . S
C240 C241 1.264 . S
C240 C245 1.479 . S
C240 C250 1.465 . S
C241 C240 1.264 . S
C241 C243 1.339 . S
C241 H268 0.931 . S
C242 C243 1.395 . S
C242 C244 1.320 . S
C243 C241 1.339 . S
C243 C242 1.395 . S
C243 H269 0.929 . S
C244 C242 1.320 . S
C244 C245 1.405 . S
C244 H270 0.930 . S
C245 C240 1.479 . S
C245 C244 1.405 . S
C245 H271 0.931 . S
U246 O247 2.454 . S
U246 O248 2.458 . S
U246 C249 2.984 . S
U246 C250 2.847 . S
U246 C263 2.882 . S
U246 O264 2.441 . S
U246 O265 2.420 . S
U246 O266 2.455 . S
U246 O267 2.449 . S
O247 U246 2.454 . S
O247 C249 1.353 . S
O248 U246 2.458 . S
O248 C249 1.286 . S
C249 U246 2.984 . S
C249 O247 1.353 . S
C249 O248 1.286 . S
C249 C251 1.363 . S
C250 C240 1.465 . S
C250 U246 2.847 . S
C250 O264 1.249 . S
C250 O265 1.202 . S
C251 C249 1.363 . S
C251 C253 1.408 . S
C251 C256 1.342 . S
C252 C253 1.310 . S
C252 C255 1.461 . S
C252 H272 0.932 . S
C253 C251 1.408 . S
C253 C252 1.310 . S
C253 H273 0.930 . S
C254 C255 1.474 . S
C254 C256 1.285 . S
C254 H274 0.929 . S
C255 C252 1.461 . S
C255 C254 1.474 . S
C256 C251 1.342 . S
C256 C254 1.285 . S
C256 H275 0.930 . S
C257 C260 1.424 . S
C257 C262 1.245 . S
C257 C263 1.428 . S
C258 C261 1.260 . S
C258 C262 1.477 . S
C258 H276 0.932 . S
C259 C260 1.384 . S
C259 C261 1.479 . S
C259 H277 0.929 . S
C260 C257 1.424 . S
C260 C259 1.384 . S
C260 H278 0.928 . S
C261 C258 1.260 . S
C261 C259 1.479 . S
C262 C257 1.245 . S
C262 C258 1.477 . S
C262 H279 0.932 . S
C263 U246 2.882 . S
C263 C257 1.428 . S
C263 O266 1.301 . S
C263 O267 1.282 . S
O264 U246 2.441 . S
O264 C250 1.249 . S
O265 U246 2.420 . S
O265 C250 1.202 . S
O266 U246 2.455 . S
O266 C263 1.301 . S
O267 U246 2.449 . S
O267 C263 1.282 . S
H268 C241 0.931 . S
H269 C243 0.929 . S
H270 C244 0.930 . S
H271 C245 0.931 . S
H272 C252 0.932 . S
H273 C253 0.930 . S
H274 C254 0.929 . S
H275 C256 0.930 . S
H276 C258 0.932 . S
H277 C259 0.929 . S
H278 C260 0.928 . S
H279 C262 0.932 . S
C280 C281 1.264 . S
C280 C285 1.479 . S
C280 C290 1.465 . S
C281 C280 1.264 . S
C281 C283 1.339 . S
C281 H308 0.931 . S
C282 C283 1.395 . S
C282 C284 1.320 . S
C283 C281 1.339 . S
C283 C282 1.395 . S
C283 H309 0.929 . S
C284 C282 1.320 . S
C284 C285 1.405 . S
C284 H310 0.930 . S
C285 C280 1.479 . S
C285 C284 1.405 . S
C285 H311 0.931 . S
U286 O287 2.454 . S
U286 O288 2.458 . S
U286 C289 2.984 . S
U286 C290 2.847 . S
U286 C303 2.882 . S
U286 O304 2.441 . S
U286 O305 2.420 . S
U286 O306 2.455 . S
U286 O307 2.449 . S
O287 U286 2.454 . S
O287 C289 1.353 . S
O288 U286 2.458 . S
O288 C289 1.286 . S
C289 U286 2.984 . S
C289 O287 1.353 . S
C289 O288 1.286 . S
C289 C291 1.363 . S
C290 C280 1.465 . S
C290 U286 2.847 . S
C290 O304 1.249 . S
C290 O305 1.202 . S
C291 C289 1.363 . S
C291 C293 1.408 . S
C291 C296 1.342 . S
C292 C293 1.310 . S
C292 C295 1.461 . S
C292 H312 0.932 . S
C293 C291 1.408 . S
C293 C292 1.310 . S
C293 H313 0.930 . S
C294 C295 1.474 . S
C294 C296 1.285 . S
C294 H314 0.929 . S
C295 C292 1.461 . S
C295 C294 1.474 . S
C296 C291 1.342 . S
C296 C294 1.285 . S
C296 H315 0.930 . S
C297 C300 1.424 . S
C297 C302 1.245 . S
C297 C303 1.428 . S
C298 C301 1.260 . S
C298 C302 1.477 . S
C298 H316 0.932 . S
C299 C300 1.384 . S
C299 C301 1.479 . S
C299 H317 0.929 . S
C300 C297 1.424 . S
C300 C299 1.384 . S
C300 H318 0.928 . S
C301 C298 1.260 . S
C301 C299 1.479 . S
C302 C297 1.245 . S
C302 C298 1.477 . S
C302 H319 0.932 . S
C303 U286 2.882 . S
C303 C297 1.428 . S
C303 O306 1.301 . S
C303 O307 1.282 . S
O304 U286 2.441 . S
O304 C290 1.249 . S
O305 U286 2.420 . S
O305 C290 1.202 . S
O306 U286 2.455 . S
O306 C303 1.301 . S
O307 U286 2.449 . S
O307 C303 1.282 . S
H308 C281 0.931 . S
H309 C283 0.929 . S
H310 C284 0.930 . S
H311 C285 0.931 . S
H312 C292 0.932 . S
H313 C293 0.930 . S
H314 C294 0.929 . S
H315 C296 0.930 . S
H316 C298 0.932 . S
H317 C299 0.929 . S
H318 C300 0.928 . S
H319 C302 0.932 . S
Gd320 C323 2.818 . S
Gd320 O340 2.377 . S
Gd320 O342 2.448 . S
Gd320 O343 2.506 . S
Gd320 O344 2.435 1_545 S
Gd320 O345 2.717 1_545 S
Gd320 O347 2.395 1_445 S
Gd320 O351 2.327 1_455 S
Gd321 C332 2.790 1_545 S
Gd321 O341 2.428 1_655 S
Gd321 O345 2.312 1_645 S
Gd321 O346 2.352 1_545 S
Gd321 O348 2.434 1_545 S
Gd321 O349 2.470 1_545 S
Gd321 O350 2.457 . S
Gd321 O351 2.734 . S
C322 O340 1.240 . S
C322 O341 1.240 . S
C323 Gd320 2.818 . S
C323 C324 1.510 . S
C323 O342 1.249 . S
C323 O343 1.252 . S
C324 C323 1.510 . S
C324 C325 1.404 . S
C324 C326 1.352 . S
C325 C324 1.404 . S
C325 C329 1.389 . S
C325 H352 0.930 . S
C326 C324 1.352 . S
C326 C328 1.374 . S
C326 H353 0.931 . S
C327 C328 1.359 . S
C327 C329 1.364 . S
C328 C326 1.374 . S
C328 C327 1.359 . S
C328 H354 0.931 . S
C329 C325 1.389 . S
C329 C327 1.364 . S
C329 H355 0.931 . S
C330 O344 1.256 . S
C330 O345 1.257 . S
C331 O346 1.240 . S
C331 O347 1.240 . S
C332 Gd321 2.790 1_565 S
C332 C333 1.510 . S
C332 O348 1.249 . S
C332 O349 1.252 . S
C333 C332 1.510 . S
C333 C334 1.404 . S
C333 C335 1.352 . S
C334 C333 1.404 . S
C334 C338 1.389 . S
C334 H356 0.930 . S
C335 C333 1.352 . S
C335 C337 1.374 . S
C335 H357 0.931 . S
C336 C337 1.359 . S
C336 C338 1.364 . S
C337 C335 1.374 . S
C337 C336 1.359 . S
C337 H358 0.931 . S
C338 C334 1.389 . S
C338 C336 1.364 . S
C338 H359 0.931 . S
C339 O350 1.256 . S
C339 O351 1.257 . S
O340 Gd320 2.377 . S
O340 C322 1.240 . S
O341 Gd321 2.428 1_455 S
O341 C322 1.240 . S
O342 Gd320 2.448 . S
O342 C323 1.249 . S
O343 Gd320 2.506 . S
O343 C323 1.252 . S
O344 Gd320 2.435 1_565 S
O344 C330 1.256 . S
O345 Gd320 2.717 1_565 S
O345 Gd321 2.312 1_465 S
O345 C330 1.257 . S
O346 Gd321 2.352 1_565 S
O346 C331 1.240 . S
O347 Gd320 2.395 1_665 S
O347 C331 1.240 . S
O348 Gd321 2.434 1_565 S
O348 C332 1.249 . S
O349 Gd321 2.470 1_565 S
O349 C332 1.252 . S
O350 Gd321 2.457 . S
O350 C339 1.256 . S
O351 Gd320 2.327 1_655 S
O351 Gd321 2.734 . S
O351 C339 1.257 . S
H352 C325 0.930 . S
H353 C326 0.931 . S
H354 C328 0.931 . S
H355 C329 0.931 . S
H356 C334 0.930 . S
H357 C335 0.931 . S
H358 C337 0.931 . S
H359 C338 0.931 . S
Gd360 C363 2.818 . S
Gd360 O380 2.377 . S
Gd360 O382 2.448 . S
Gd360 O383 2.506 . S
Gd360 O384 2.435 1_545 S
Gd360 O385 2.717 1_545 S
Gd360 O387 2.395 1_544 S
Gd360 O391 2.327 1_554 S
Gd361 C372 2.818 1_545 S
Gd361 O381 2.395 1_556 S
Gd361 O385 2.327 1_546 S
Gd361 O386 2.377 1_545 S
Gd361 O388 2.448 1_545 S
Gd361 O389 2.506 1_545 S
Gd361 O390 2.435 . S
Gd361 O391 2.717 . S
C362 O380 1.240 . S
C362 O381 1.240 . S
C363 Gd360 2.818 . S
C363 C364 1.510 . S
C363 O382 1.249 . S
C363 O383 1.252 . S
C364 C363 1.510 . S
C364 C365 1.404 . S
C364 C366 1.352 . S
C365 C364 1.404 . S
C365 C369 1.389 . S
C365 H392 0.930 . S
C366 C364 1.352 . S
C366 C368 1.374 . S
C366 H393 0.931 . S
C367 C368 1.359 . S
C367 C369 1.364 . S
C368 C366 1.374 . S
C368 C367 1.359 . S
C368 H394 0.931 . S
C369 C365 1.389 . S
C369 C367 1.364 . S
C369 H395 0.931 . S
C370 O384 1.256 . S
C370 O385 1.257 . S
C371 O386 1.240 . S
C371 O387 1.240 . S
C372 Gd361 2.818 1_565 S
C372 C373 1.510 . S
C372 O388 1.249 . S
C372 O389 1.252 . S
C373 C372 1.510 . S
C373 C374 1.404 . S
C373 C375 1.352 . S
C374 C373 1.404 . S
C374 C378 1.389 . S
C374 H396 0.930 . S
C375 C373 1.352 . S
C375 C377 1.374 . S
C375 H397 0.931 . S
C376 C377 1.359 . S
C376 C378 1.364 . S
C377 C375 1.374 . S
C377 C376 1.359 . S
C377 H398 0.931 . S
C378 C374 1.389 . S
C378 C376 1.364 . S
C378 H399 0.931 . S
C379 O390 1.256 . S
C379 O391 1.257 . S
O380 Gd360 2.377 . S
O380 C362 1.240 . S
O381 Gd361 2.395 1_554 S
O381 C362 1.240 . S
O382 Gd360 2.448 . S
O382 C363 1.249 . S
O383 Gd360 2.506 . S
O383 C363 1.252 . S
O384 Gd360 2.435 1_565 S
O384 C370 1.256 . S
O385 Gd360 2.717 1_565 S
O385 Gd361 2.327 1_564 S
O385 C370 1.257 . S
O386 Gd361 2.377 1_565 S
O386 C371 1.240 . S
O387 Gd360 2.395 1_566 S
O387 C371 1.240 . S
O388 Gd361 2.448 1_565 S
O388 C372 1.249 . S
O389 Gd361 2.506 1_565 S
O389 C372 1.252 . S
O390 Gd361 2.435 . S
O390 C379 1.256 . S
O391 Gd360 2.327 1_556 S
O391 Gd361 2.717 . S
O391 C379 1.257 . S
H392 C365 0.930 . S
H393 C366 0.931 . S
H394 C368 0.931 . S
H395 C369 0.931 . S
H396 C374 0.930 . S
H397 C375 0.931 . S
H398 C377 0.931 . S
H399 C378 0.931 . S
Gd400 C403 2.818 . S
Gd400 O420 2.377 . S
Gd400 O422 2.448 . S
Gd400 O423 2.506 . S
Gd400 O424 2.435 . S
Gd400 O425 2.717 . S
Gd400 O427 2.395 . S
Gd400 O431 2.327 . S
Gd401 C412 2.818 . S
Gd401 O421 2.395 . S
Gd401 O425 2.327 . S
Gd401 O426 2.377 . S
Gd401 O428 2.448 . S
Gd401 O429 2.506 . S
Gd401 O430 2.435 . S
Gd401 O431 2.717 . S
C402 O420 1.240 . S
C402 O421 1.240 . S
C403 Gd400 2.818 . S
C403 C404 1.510 . S
C403 O422 1.249 . S
C403 O423 1.252 . S
C404 C403 1.510 . S
C404 C405 1.404 . S
C404 C406 1.352 . S
C405 C404 1.404 . S
C405 C409 1.389 . S
C405 H432 0.930 . S
C406 C404 1.352 . S
C406 C408 1.374 . S
C406 H433 0.931 . S
C407 C408 1.359 . S
C407 C409 1.364 . S
C408 C406 1.374 . S
C408 C407 1.359 . S
C408 H434 0.931 . S
C409 C405 1.389 . S
C409 C407 1.364 . S
C409 H435 0.931 . S
C410 O424 1.256 . S
C410 O425 1.257 . S
C411 O426 1.240 . S
C411 O427 1.240 . S
C412 Gd401 2.818 . S
C412 C413 1.510 . S
C412 O428 1.249 . S
C412 O429 1.252 . S
C413 C412 1.510 . S
C413 C414 1.404 . S
C413 C415 1.352 . S
C414 C413 1.404 . S
C414 C418 1.389 . S
C414 H436 0.930 . S
C415 C413 1.352 . S
C415 C417 1.374 . S
C415 H437 0.931 . S
C416 C417 1.359 . S
C416 C418 1.364 . S
C417 C415 1.374 . S
C417 C416 1.359 . S
C417 H438 0.931 . S
C418 C414 1.389 . S
C418 C416 1.364 . S
C418 H439 0.931 . S
C419 O430 1.256 . S
C419 O431 1.257 . S
O420 Gd400 2.377 . S
O420 C402 1.240 . S
O421 Gd401 2.395 . S
O421 C402 1.240 . S
O422 Gd400 2.448 . S
O422 C403 1.249 . S
O423 Gd400 2.506 . S
O423 C403 1.252 . S
O424 Gd400 2.435 . S
O424 C410 1.256 . S
O425 Gd400 2.717 . S
O425 Gd401 2.327 . S
O425 C410 1.257 . S
O426 Gd401 2.377 . S
O426 C411 1.240 . S
O427 Gd400 2.395 . S
O427 C411 1.240 . S
O428 Gd401 2.448 . S
O428 C412 1.249 . S
O429 Gd401 2.506 . S
O429 C412 1.252 . S
O430 Gd401 2.435 . S
O430 C419 1.256 . S
O431 Gd400 2.327 . S
O431 Gd401 2.717 . S
O431 C419 1.257 . S
H432 C405 0.930 . S
H433 C406 0.931 . S
H434 C408 0.931 . S
H435 C409 0.931 . S
H436 C414 0.930 . S
H437 C415 0.931 . S
H438 C417 0.931 . S
H439 C418 0.931 . S
Gd440 C443 2.818 . S
Gd440 O460 2.377 . S
Gd440 O462 2.448 . S
Gd440 O463 2.506 . S
Gd440 O464 2.435 1_455 S
Gd440 O465 2.717 1_455 S
Gd440 O467 2.395 1_454 S
Gd440 O471 2.327 1_554 S
Gd441 C452 2.819 1_455 S
Gd441 O461 2.394 1_556 S
Gd441 O465 2.327 1_456 S
Gd441 O466 2.377 1_455 S
Gd441 O468 2.449 1_455 S
Gd441 O469 2.507 1_455 S
Gd441 O470 2.435 . S
Gd441 O471 2.717 . S
C442 O460 1.240 . S
C442 O461 1.240 . S
C443 Gd440 2.818 . S
C443 C444 1.510 . S
C443 O462 1.249 . S
C443 O463 1.252 . S
C444 C443 1.510 . S
C444 C445 1.404 . S
C444 C446 1.352 . S
C445 C444 1.404 . S
C445 C449 1.389 . S
C445 H472 0.930 . S
C446 C444 1.352 . S
C446 C448 1.374 . S
C446 H473 0.931 . S
C447 C448 1.359 . S
C447 C449 1.364 . S
C448 C446 1.374 . S
C448 C447 1.359 . S
C448 H474 0.931 . S
C449 C445 1.389 . S
C449 C447 1.364 . S
C449 H475 0.931 . S
C450 O464 1.256 . S
C450 O465 1.257 . S
C451 O466 1.240 . S
C451 O467 1.240 . S
C452 Gd441 2.819 1_655 S
C452 C453 1.510 . S
C452 O468 1.249 . S
C452 O469 1.252 . S
C453 C452 1.510 . S
C453 C454 1.404 . S
C453 C455 1.352 . S
C454 C453 1.404 . S
C454 C458 1.389 . S
C454 H476 0.930 . S
C455 C453 1.352 . S
C455 C457 1.374 . S
C455 H477 0.931 . S
C456 C457 1.359 . S
C456 C458 1.364 . S
C457 C455 1.374 . S
C457 C456 1.359 . S
C457 H478 0.931 . S
C458 C454 1.389 . S
C458 C456 1.364 . S
C458 H479 0.931 . S
C459 O470 1.256 . S
C459 O471 1.257 . S
O460 Gd440 2.377 . S
O460 C442 1.240 . S
O461 Gd441 2.394 1_554 S
O461 C442 1.240 . S
O462 Gd440 2.448 . S
O462 C443 1.249 . S
O463 Gd440 2.506 . S
O463 C443 1.252 . S
O464 Gd440 2.435 1_655 S
O464 C450 1.256 . S
O465 Gd440 2.717 1_655 S
O465 Gd441 2.327 1_654 S
O465 C450 1.257 . S
O466 Gd441 2.377 1_655 S
O466 C451 1.240 . S
O467 Gd440 2.395 1_656 S
O467 C451 1.240 . S
O468 Gd441 2.449 1_655 S
O468 C452 1.249 . S
O469 Gd441 2.507 1_655 S
O469 C452 1.252 . S
O470 Gd441 2.435 . S
O470 C459 1.256 . S
O471 Gd440 2.327 1_556 S
O471 Gd441 2.717 . S
O471 C459 1.257 . S
H472 C445 0.930 . S
H473 C446 0.931 . S
H474 C448 0.931 . S
H475 C449 0.931 . S
H476 C454 0.930 . S
H477 C455 0.931 . S
H478 C457 0.931 . S
H479 C458 0.931 . S
C480 C481 1.349 . S
C480 C482 1.327 . S
C480 H505 0.950 . S
C481 C480 1.349 . S
C481 C497 1.349 . S
C482 C480 1.327 . S
C482 C501 1.429 . S
C482 H506 0.950 . S
C483 C500 1.574 . S
C483 C502 1.368 . S
C483 H507 0.949 . S
H484 C488 0.949 . S
C485 C486 1.349 . S
C485 C487 1.327 . S
C485 H508 0.950 . S
C486 C485 1.349 . S
C486 C498 1.349 . S
C487 C485 1.327 . S
C487 C503 1.429 . S
C487 H509 0.950 . S
C488 H484 0.949 . S
C488 C496 1.574 . S
C488 C504 1.368 . S
H489 C497 0.950 . S
H490 C495 0.950 . S
H491 C496 0.949 . S
H492 C498 0.950 . S
H493 C499 0.950 . S
H494 C500 0.949 . S
C495 H490 0.950 . S
C495 C497 1.327 . S
C495 C501 1.429 . S
C496 C488 1.574 . S
C496 H491 0.949 . S
C496 C502 1.368 . S
C497 C481 1.349 . S
C497 H489 0.950 . S
C497 C495 1.327 . S
C498 C486 1.349 . S
C498 H492 0.950 . S
C498 C499 1.327 . S
C499 H493 0.950 . S
C499 C498 1.327 . S
C499 C503 1.429 . S
C500 C483 1.574 . S
C500 H494 0.949 . S
C500 C504 1.368 . S
C501 C482 1.429 . S
C501 C495 1.429 . S
C501 C502 1.523 . S
C502 C483 1.368 . S
C502 C496 1.368 . S
C502 C501 1.523 . S
C503 C487 1.429 . S
C503 C499 1.429 . S
C503 C504 1.523 . S
C504 C488 1.368 . S
C504 C500 1.368 . S
C504 C503 1.523 . S
H505 C480 0.950 . S
H506 C482 0.950 . S
H507 C483 0.949 . S
H508 C485 0.950 . S
H509 C487 0.950 . S
C510 C511 1.349 . S
C510 C512 1.327 . S
C510 H535 0.950 . S
C511 C510 1.349 . S
C511 C527 1.349 . S
C512 C510 1.327 . S
C512 C531 1.429 . S
C512 H536 0.950 . S
C513 C530 1.574 . S
C513 C532 1.368 . S
C513 H537 0.949 . S
H514 C518 0.949 . S
C515 C516 1.349 . S
C515 C517 1.327 . S
C515 H538 0.950 . S
C516 C515 1.349 . S
C516 C528 1.349 . S
C517 C515 1.327 . S
C517 C533 1.429 . S
C517 H539 0.950 . S
C518 H514 0.949 . S
C518 C526 1.574 . S
C518 C534 1.368 . S
H519 C527 0.950 . S
H520 C525 0.950 . S
H521 C526 0.949 . S
H522 C528 0.950 . S
H523 C529 0.950 . S
H524 C530 0.949 . S
C525 H520 0.950 . S
C525 C527 1.327 . S
C525 C531 1.429 . S
C526 C518 1.574 . S
C526 H521 0.949 . S
C526 C532 1.368 . S
C527 C511 1.349 . S
C527 H519 0.950 . S
C527 C525 1.327 . S
C528 C516 1.349 . S
C528 H522 0.950 . S
C528 C529 1.327 . S
C529 H523 0.950 . S
C529 C528 1.327 . S
C529 C533 1.429 . S
C530 C513 1.574 . S
C530 H524 0.949 . S
C530 C534 1.368 . S
C531 C512 1.429 . S
C531 C525 1.429 . S
C531 C532 1.523 . S
C532 C513 1.368 . S
C532 C526 1.368 . S
C532 C531 1.523 . S
C533 C517 1.429 . S
C533 C529 1.429 . S
C533 C534 1.523 . S
C534 C518 1.368 . S
C534 C530 1.368 . S
C534 C533 1.523 . S
H535 C510 0.950 . S
H536 C512 0.950 . S
H537 C513 0.949 . S
H538 C515 0.950 . S
H539 C517 0.950 . S
C540 C541 1.349 . S
C540 C542 1.327 . S
C540 H565 0.950 . S
C541 C540 1.349 . S
C541 C557 1.349 . S
C542 C540 1.327 . S
C542 C561 1.429 . S
C542 H566 0.950 . S
C543 C560 1.574 . S
C543 C562 1.368 . S
C543 H567 0.949 . S
H544 C548 0.949 . S
C545 C546 1.349 . S
C545 C547 1.327 . S
C545 H568 0.950 . S
C546 C545 1.349 . S
C546 C558 1.349 . S
C547 C545 1.327 . S
C547 C563 1.429 . S
C547 H569 0.950 . S
C548 H544 0.949 . S
C548 C556 1.574 . S
C548 C564 1.368 . S
H549 C557 0.950 . S
H550 C555 0.950 . S
H551 C556 0.949 . S
H552 C558 0.950 . S
H553 C559 0.950 . S
H554 C560 0.949 . S
C555 H550 0.950 . S
C555 C557 1.327 . S
C555 C561 1.429 . S
C556 C548 1.574 . S
C556 H551 0.949 . S
C556 C562 1.368 . S
C557 C541 1.349 . S
C557 H549 0.950 . S
C557 C555 1.327 . S
C558 C546 1.349 . S
C558 H552 0.950 . S
C558 C559 1.327 . S
C559 H553 0.950 . S
C559 C558 1.327 . S
C559 C563 1.429 . S
C560 C543 1.574 . S
C560 H554 0.949 . S
C560 C564 1.368 . S
C561 C542 1.429 . S
C561 C555 1.429 . S
C561 C562 1.523 . S
C562 C543 1.368 . S
C562 C556 1.368 . S
C562 C561 1.523 . S
C563 C547 1.429 . S
C563 C559 1.429 . S
C563 C564 1.523 . S
C564 C548 1.368 . S
C564 C560 1.368 . S
C564 C563 1.523 . S
H565 C540 0.950 . S
H566 C542 0.950 . S
H567 C543 0.949 . S
H568 C545 0.950 . S
H569 C547 0.950 . S
C570 C571 1.349 . S
C570 C572 1.327 . S
C570 H595 0.950 . S
C571 C570 1.349 . S
C571 C587 1.349 . S
C572 C570 1.327 . S
C572 C591 1.429 . S
C572 H596 0.950 . S
C573 C590 1.574 . S
C573 C592 1.368 . S
C573 H597 0.949 . S
H574 C578 0.949 . S
C575 C576 1.349 . S
C575 C577 1.327 . S
C575 H598 0.950 . S
C576 C575 1.349 . S
C576 C588 1.349 . S
C577 C575 1.327 . S
C577 C593 1.429 . S
C577 H599 0.950 . S
C578 H574 0.949 . S
C578 C586 1.574 . S
C578 C594 1.368 . S
H579 C587 0.950 . S
H580 C585 0.950 . S
H581 C586 0.949 . S
H582 C588 0.950 . S
H583 C589 0.950 . S
H584 C590 0.949 . S
C585 H580 0.950 . S
C585 C587 1.327 . S
C585 C591 1.429 . S
C586 C578 1.574 . S
C586 H581 0.949 . S
C586 C592 1.368 . S
C587 C571 1.349 . S
C587 H579 0.950 . S
C587 C585 1.327 . S
C588 C576 1.349 . S
C588 H582 0.950 . S
C588 C589 1.327 . S
C589 H583 0.950 . S
C589 C588 1.327 . S
C589 C593 1.429 . S
C590 C573 1.574 . S
C590 H584 0.949 . S
C590 C594 1.368 . S
C591 C572 1.429 . S
C591 C585 1.429 . S
C591 C592 1.523 . S
C592 C573 1.368 . S
C592 C586 1.368 . S
C592 C591 1.523 . S
C593 C577 1.429 . S
C593 C589 1.429 . S
C593 C594 1.523 . S
C594 C578 1.368 . S
C594 C590 1.368 . S
C594 C593 1.523 . S
H595 C570 0.950 . S
H596 C572 0.950 . S
H597 C573 0.949 . S
H598 C575 0.950 . S
H599 C577 0.950 . S
C600 C601 1.349 . S
C600 C602 1.327 . S
C600 H625 0.950 . S
C601 C600 1.349 . S
C601 C617 1.349 . S
C602 C600 1.327 . S
C602 C621 1.429 . S
C602 H626 0.950 . S
C603 C620 1.574 . S
C603 C622 1.368 . S
C603 H627 0.949 . S
H604 C608 0.949 . S
C605 C606 1.349 . S
C605 C607 1.327 . S
C605 H628 0.950 . S
C606 C605 1.349 . S
C606 C618 1.349 . S
C607 C605 1.327 . S
C607 C623 1.429 . S
C607 H629 0.950 . S
C608 H604 0.949 . S
C608 C616 1.574 . S
C608 C624 1.368 . S
H609 C617 0.950 . S
H610 C615 0.950 . S
H611 C616 0.949 . S
H612 C618 0.950 . S
H613 C619 0.950 . S
H614 C620 0.949 . S
C615 H610 0.950 . S
C615 C617 1.327 . S
C615 C621 1.429 . S
C616 C608 1.574 . S
C616 H611 0.949 . S
C616 C622 1.368 . S
C617 C601 1.349 . S
C617 H609 0.950 . S
C617 C615 1.327 . S
C618 C606 1.349 . S
C618 H612 0.950 . S
C618 C619 1.327 . S
C619 H613 0.950 . S
C619 C618 1.327 . S
C619 C623 1.429 . S
C620 C603 1.574 . S
C620 H614 0.949 . S
C620 C624 1.368 . S
C621 C602 1.429 . S
C621 C615 1.429 . S
C621 C622 1.523 . S
C622 C603 1.368 . S
C622 C616 1.368 . S
C622 C621 1.523 . S
C623 C607 1.429 . S
C623 C619 1.429 . S
C623 C624 1.523 . S
C624 C608 1.368 . S
C624 C620 1.368 . S
C624 C623 1.523 . S
H625 C600 0.950 . S
H626 C602 0.950 . S
H627 C603 0.949 . S
H628 C605 0.950 . S
H629 C607 0.950 . S
C630 C631 1.349 . S
C630 C632 1.327 . S
C630 H655 0.950 . S
C631 C630 1.349 . S
C631 C647 1.349 . S
C632 C630 1.327 . S
C632 C651 1.429 . S
C632 H656 0.950 . S
C633 C650 1.574 . S
C633 C652 1.368 . S
C633 H657 0.949 . S
H634 C638 0.949 . S
C635 C636 1.349 . S
C635 C637 1.327 . S
C635 H658 0.950 . S
C636 C635 1.349 . S
C636 C648 1.349 . S
C637 C635 1.327 . S
C637 C653 1.429 . S
C637 H659 0.950 . S
C638 H634 0.949 . S
C638 C646 1.574 . S
C638 C654 1.368 . S
H639 C647 0.950 . S
H640 C645 0.950 . S
H641 C646 0.949 . S
H642 C648 0.950 . S
H643 C649 0.950 . S
H644 C650 0.949 . S
C645 H640 0.950 . S
C645 C647 1.327 . S
C645 C651 1.429 . S
C646 C638 1.574 . S
C646 H641 0.949 . S
C646 C652 1.368 . S
C647 C631 1.349 . S
C647 H639 0.950 . S
C647 C645 1.327 . S
C648 C636 1.349 . S
C648 H642 0.950 . S
C648 C649 1.327 . S
C649 H643 0.950 . S
C649 C648 1.327 . S
C649 C653 1.429 . S
C650 C633 1.574 . S
C650 H644 0.949 . S
C650 C654 1.368 . S
C651 C632 1.429 . S
C651 C645 1.429 . S
C651 C652 1.523 . S
C652 C633 1.368 . S
C652 C646 1.368 . S
C652 C651 1.523 . S
C653 C637 1.429 . S
C653 C649 1.429 . S
C653 C654 1.523 . S
C654 C638 1.368 . S
C654 C650 1.368 . S
C654 C653 1.523 . S
H655 C630 0.950 . S
H656 C632 0.950 . S
H657 C633 0.949 . S
H658 C635 0.950 . S
H659 C637 0.950 . S
C660 C661 1.349 . S
C660 C662 1.327 . S
C660 H685 0.950 . S
C661 C660 1.349 . S
C661 C677 1.349 . S
C662 C660 1.327 . S
C662 C681 1.429 . S
C662 H686 0.950 . S
C663 C680 1.574 . S
C663 C682 1.368 . S
C663 H687 0.949 . S
H664 C668 0.949 . S
C665 C666 1.349 . S
C665 C667 1.327 . S
C665 H688 0.950 . S
C666 C665 1.349 . S
C666 C678 1.349 . S
C667 C665 1.327 . S
C667 C683 1.429 . S
C667 H689 0.950 . S
C668 H664 0.949 . S
C668 C676 1.574 . S
C668 C684 1.368 . S
H669 C677 0.950 . S
H670 C675 0.950 . S
H671 C676 0.949 . S
H672 C678 0.950 . S
H673 C679 0.950 . S
H674 C680 0.949 . S
C675 H670 0.950 . S
C675 C677 1.327 . S
C675 C681 1.429 . S
C676 C668 1.574 . S
C676 H671 0.949 . S
C676 C682 1.368 . S
C677 C661 1.349 . S
C677 H669 0.950 . S
C677 C675 1.327 . S
C678 C666 1.349 . S
C678 H672 0.950 . S
C678 C679 1.327 . S
C679 H673 0.950 . S
C679 C678 1.327 . S
C679 C683 1.429 . S
C680 C663 1.574 . S
C680 H674 0.949 . S
C680 C684 1.368 . S
C681 C662 1.429 . S
C681 C675 1.429 . S
C681 C682 1.523 . S
C682 C663 1.368 . S
C682 C676 1.368 . S
C682 C681 1.523 . S
C683 C667 1.429 . S
C683 C679 1.429 . S
C683 C684 1.523 . S
C684 C668 1.368 . S
C684 C680 1.368 . S
C684 C683 1.523 . S
H685 C660 0.950 . S
H686 C662 0.950 . S
H687 C663 0.949 . S
H688 C665 0.950 . S
H689 C667 0.950 . S
C690 C691 1.349 . S
C690 C692 1.327 . S
C690 H715 0.950 . S
C691 C690 1.349 . S
C691 C707 1.349 . S
C692 C690 1.327 . S
C692 C711 1.429 . S
C692 H716 0.950 . S
C693 C710 1.574 . S
C693 C712 1.368 . S
C693 H717 0.949 . S
H694 C698 0.949 . S
C695 C696 1.349 . S
C695 C697 1.327 . S
C695 H718 0.950 . S
C696 C695 1.349 . S
C696 C708 1.349 . S
C697 C695 1.327 . S
C697 C713 1.429 . S
C697 H719 0.950 . S
C698 H694 0.949 . S
C698 C706 1.574 . S
C698 C714 1.368 . S
H699 C707 0.950 . S
H700 C705 0.950 . S
H701 C706 0.949 . S
H702 C708 0.950 . S
H703 C709 0.950 . S
H704 C710 0.949 . S
C705 H700 0.950 . S
C705 C707 1.327 . S
C705 C711 1.429 . S
C706 C698 1.574 . S
C706 H701 0.949 . S
C706 C712 1.368 . S
C707 C691 1.349 . S
C707 H699 0.950 . S
C707 C705 1.327 . S
C708 C696 1.349 . S
C708 H702 0.950 . S
C708 C709 1.327 . S
C709 H703 0.950 . S
C709 C708 1.327 . S
C709 C713 1.429 . S
C710 C693 1.574 . S
C710 H704 0.949 . S
C710 C714 1.368 . S
C711 C692 1.429 . S
C711 C705 1.429 . S
C711 C712 1.523 . S
C712 C693 1.368 . S
C712 C706 1.368 . S
C712 C711 1.523 . S
C713 C697 1.429 . S
C713 C709 1.429 . S
C713 C714 1.523 . S
C714 C698 1.368 . S
C714 C710 1.368 . S
C714 C713 1.523 . S
H715 C690 0.950 . S
H716 C692 0.950 . S
H717 C693 0.949 . S
H718 C695 0.950 . S
H719 C697 0.950 . S
C720 C721 1.349 . S
C720 C722 1.327 . S
C720 H745 0.950 . S
C721 C720 1.349 . S
C721 C737 1.349 . S
C722 C720 1.327 . S
C722 C741 1.429 . S
C722 H746 0.950 . S
C723 C740 1.574 . S
C723 C742 1.368 . S
C723 H747 0.949 . S
H724 C728 0.949 . S
C725 C726 1.349 . S
C725 C727 1.327 . S
C725 H748 0.950 . S
C726 C725 1.349 . S
C726 C738 1.349 . S
C727 C725 1.327 . S
C727 C743 1.429 . S
C727 H749 0.950 . S
C728 H724 0.949 . S
C728 C736 1.574 . S
C728 C744 1.368 . S
H729 C737 0.950 . S
H730 C735 0.950 . S
H731 C736 0.949 . S
H732 C738 0.950 . S
H733 C739 0.950 . S
H734 C740 0.949 . S
C735 H730 0.950 . S
C735 C737 1.327 . S
C735 C741 1.429 . S
C736 C728 1.574 . S
C736 H731 0.949 . S
C736 C742 1.368 . S
C737 C721 1.349 . S
C737 H729 0.950 . S
C737 C735 1.327 . S
C738 C726 1.349 . S
C738 H732 0.950 . S
C738 C739 1.327 . S
C739 H733 0.950 . S
C739 C738 1.327 . S
C739 C743 1.429 . S
C740 C723 1.574 . S
C740 H734 0.949 . S
C740 C744 1.368 . S
C741 C722 1.429 . S
C741 C735 1.429 . S
C741 C742 1.523 . S
C742 C723 1.368 . S
C742 C736 1.368 . S
C742 C741 1.523 . S
C743 C727 1.429 . S
C743 C739 1.429 . S
C743 C744 1.523 . S
C744 C728 1.368 . S
C744 C740 1.368 . S
C744 C743 1.523 . S
H745 C720 0.950 . S
H746 C722 0.950 . S
H747 C723 0.949 . S
H748 C725 0.950 . S
H749 C727 0.950 . S
C750 C751 1.349 . S
C750 C752 1.327 . S
C750 H775 0.950 . S
C751 C750 1.349 . S
C751 C767 1.349 . S
C752 C750 1.327 . S
C752 C771 1.429 . S
C752 H776 0.950 . S
C753 C770 1.574 . S
C753 C772 1.368 . S
C753 H777 0.949 . S
H754 C758 0.949 . S
C755 C756 1.349 . S
C755 C757 1.327 . S
C755 H778 0.950 . S
C756 C755 1.349 . S
C756 C768 1.349 . S
C757 C755 1.327 . S
C757 C773 1.429 . S
C757 H779 0.950 . S
C758 H754 0.949 . S
C758 C766 1.574 . S
C758 C774 1.368 . S
H759 C767 0.950 . S
H760 C765 0.950 . S
H761 C766 0.949 . S
H762 C768 0.950 . S
H763 C769 0.950 . S
H764 C770 0.949 . S
C765 H760 0.950 . S
C765 C767 1.327 . S
C765 C771 1.429 . S
C766 C758 1.574 . S
C766 H761 0.949 . S
C766 C772 1.368 . S
C767 C751 1.349 . S
C767 H759 0.950 . S
C767 C765 1.327 . S
C768 C756 1.349 . S
C768 H762 0.950 . S
C768 C769 1.327 . S
C769 H763 0.950 . S
C769 C768 1.327 . S
C769 C773 1.429 . S
C770 C753 1.574 . S
C770 H764 0.949 . S
C770 C774 1.368 . S
C771 C752 1.429 . S
C771 C765 1.429 . S
C771 C772 1.523 . S
C772 C753 1.368 . S
C772 C766 1.368 . S
C772 C771 1.523 . S
C773 C757 1.429 . S
C773 C769 1.429 . S
C773 C774 1.523 . S
C774 C758 1.368 . S
C774 C770 1.368 . S
C774 C773 1.523 . S
H775 C750 0.950 . S
H776 C752 0.950 . S
H777 C753 0.949 . S
H778 C755 0.950 . S
H779 C757 0.950 . S
C780 C781 1.349 . S
C780 C782 1.327 . S
C780 H805 0.950 . S
C781 C780 1.349 . S
C781 C797 1.349 . S
C782 C780 1.327 . S
C782 C801 1.429 . S
C782 H806 0.950 . S
C783 C800 1.574 . S
C783 C802 1.368 . S
C783 H807 0.949 . S
H784 C788 0.949 . S
C785 C786 1.349 . S
C785 C787 1.327 . S
C785 H808 0.950 . S
C786 C785 1.349 . S
C786 C798 1.349 . S
C787 C785 1.327 . S
C787 C803 1.429 . S
C787 H809 0.950 . S
C788 H784 0.949 . S
C788 C796 1.574 . S
C788 C804 1.368 . S
H789 C797 0.950 . S
H790 C795 0.950 . S
H791 C796 0.949 . S
H792 C798 0.950 . S
H793 C799 0.950 . S
H794 C800 0.949 . S
C795 H790 0.950 . S
C795 C797 1.327 . S
C795 C801 1.429 . S
C796 C788 1.574 . S
C796 H791 0.949 . S
C796 C802 1.368 . S
C797 C781 1.349 . S
C797 H789 0.950 . S
C797 C795 1.327 . S
C798 C786 1.349 . S
C798 H792 0.950 . S
C798 C799 1.327 . S
C799 H793 0.950 . S
C799 C798 1.327 . S
C799 C803 1.429 . S
C800 C783 1.574 . S
C800 H794 0.949 . S
C800 C804 1.368 . S
C801 C782 1.429 . S
C801 C795 1.429 . S
C801 C802 1.523 . S
C802 C783 1.368 . S
C802 C796 1.368 . S
C802 C801 1.523 . S
C803 C787 1.429 . S
C803 C799 1.429 . S
C803 C804 1.523 . S
C804 C788 1.368 . S
C804 C800 1.368 . S
C804 C803 1.523 . S
H805 C780 0.950 . S
H806 C782 0.950 . S
H807 C783 0.949 . S
H808 C785 0.950 . S
H809 C787 0.950 . S
C810 C811 1.349 . S
C810 C812 1.327 . S
C810 H835 0.950 . S
C811 C810 1.349 . S
C811 C827 1.349 . S
C812 C810 1.327 . S
C812 C831 1.429 . S
C812 H836 0.950 . S
C813 C830 1.574 . S
C813 C832 1.368 . S
C813 H837 0.949 . S
H814 C818 0.949 . S
C815 C816 1.349 . S
C815 C817 1.327 . S
C815 H838 0.950 . S
C816 C815 1.349 . S
C816 C828 1.349 . S
C817 C815 1.327 . S
C817 C833 1.429 . S
C817 H839 0.950 . S
C818 H814 0.949 . S
C818 C826 1.574 . S
C818 C834 1.368 . S
H819 C827 0.950 . S
H820 C825 0.950 . S
H821 C826 0.949 . S
H822 C828 0.950 . S
H823 C829 0.950 . S
H824 C830 0.949 . S
C825 H820 0.950 . S
C825 C827 1.327 . S
C825 C831 1.429 . S
C826 C818 1.574 . S
C826 H821 0.949 . S
C826 C832 1.368 . S
C827 C811 1.349 . S
C827 H819 0.950 . S
C827 C825 1.327 . S
C828 C816 1.349 . S
C828 H822 0.950 . S
C828 C829 1.327 . S
C829 H823 0.950 . S
C829 C828 1.327 . S
C829 C833 1.429 . S
C830 C813 1.574 . S
C830 H824 0.949 . S
C830 C834 1.368 . S
C831 C812 1.429 . S
C831 C825 1.429 . S
C831 C832 1.523 . S
C832 C813 1.368 . S
C832 C826 1.368 . S
C832 C831 1.523 . S
C833 C817 1.429 . S
C833 C829 1.429 . S
C833 C834 1.523 . S
C834 C818 1.368 . S
C834 C830 1.368 . S
C834 C833 1.523 . S
H835 C810 0.950 . S
H836 C812 0.950 . S
H837 C813 0.949 . S
H838 C815 0.950 . S
H839 C817 0.950 . S
C840 C841 1.349 . S
C840 C842 1.327 . S
C840 H865 0.950 . S
C841 C840 1.349 . S
C841 C857 1.349 . S
C842 C840 1.327 . S
C842 C861 1.429 . S
C842 H866 0.950 . S
C843 C860 1.574 . S
C843 C862 1.368 . S
C843 H867 0.949 . S
H844 C848 0.949 . S
C845 C846 1.349 . S
C845 C847 1.327 . S
C845 H868 0.950 . S
C846 C845 1.349 . S
C846 C858 1.349 . S
C847 C845 1.327 . S
C847 C863 1.429 . S
C847 H869 0.950 . S
C848 H844 0.949 . S
C848 C856 1.574 . S
C848 C864 1.368 . S
H849 C857 0.950 . S
H850 C855 0.950 . S
H851 C856 0.949 . S
H852 C858 0.950 . S
H853 C859 0.950 . S
H854 C860 0.949 . S
C855 H850 0.950 . S
C855 C857 1.327 . S
C855 C861 1.429 . S
C856 C848 1.574 . S
C856 H851 0.949 . S
C856 C862 1.368 . S
C857 C841 1.349 . S
C857 H849 0.950 . S
C857 C855 1.327 . S
C858 C846 1.349 . S
C858 H852 0.950 . S
C858 C859 1.327 . S
C859 H853 0.950 . S
C859 C858 1.327 . S
C859 C863 1.429 . S
C860 C843 1.574 . S
C860 H854 0.949 . S
C860 C864 1.368 . S
C861 C842 1.429 . S
C861 C855 1.429 . S
C861 C862 1.523 . S
C862 C843 1.368 . S
C862 C856 1.368 . S
C862 C861 1.523 . S
C863 C847 1.429 . S
C863 C859 1.429 . S
C863 C864 1.523 . S
C864 C848 1.368 . S
C864 C860 1.368 . S
C864 C863 1.523 . S
H865 C840 0.950 . S
H866 C842 0.950 . S
H867 C843 0.949 . S
H868 C845 0.950 . S
H869 C847 0.950 . S
C870 C871 1.349 . S
C870 C872 1.327 . S
C870 H895 0.950 . S
C871 C870 1.349 . S
C871 C887 1.349 . S
C872 C870 1.327 . S
C872 C891 1.429 . S
C872 H896 0.950 . S
C873 C890 1.574 . S
C873 C892 1.368 . S
C873 H897 0.949 . S
H874 C878 0.949 . S
C875 C876 1.349 . S
C875 C877 1.327 . S
C875 H898 0.950 . S
C876 C875 1.349 . S
C876 C888 1.349 . S
C877 C875 1.327 . S
C877 C893 1.429 . S
C877 H899 0.950 . S
C878 H874 0.949 . S
C878 C886 1.574 . S
C878 C894 1.368 . S
H879 C887 0.950 . S
H880 C885 0.950 . S
H881 C886 0.949 . S
H882 C888 0.950 . S
H883 C889 0.950 . S
H884 C890 0.949 . S
C885 H880 0.950 . S
C885 C887 1.327 . S
C885 C891 1.429 . S
C886 C878 1.574 . S
C886 H881 0.949 . S
C886 C892 1.368 . S
C887 C871 1.349 . S
C887 H879 0.950 . S
C887 C885 1.327 . S
C888 C876 1.349 . S
C888 H882 0.950 . S
C888 C889 1.327 . S
C889 H883 0.950 . S
C889 C888 1.327 . S
C889 C893 1.429 . S
C890 C873 1.574 . S
C890 H884 0.949 . S
C890 C894 1.368 . S
C891 C872 1.429 . S
C891 C885 1.429 . S
C891 C892 1.523 . S
C892 C873 1.368 . S
C892 C886 1.368 . S
C892 C891 1.523 . S
C893 C877 1.429 . S
C893 C889 1.429 . S
C893 C894 1.523 . S
C894 C878 1.368 . S
C894 C890 1.368 . S
C894 C893 1.523 . S
H895 C870 0.950 . S
H896 C872 0.950 . S
H897 C873 0.949 . S
H898 C875 0.950 . S
H899 C877 0.950 . S
C900 C901 1.349 . S
C900 C902 1.327 . S
C900 H925 0.950 . S
C901 C900 1.349 . S
C901 C917 1.349 . S
C902 C900 1.327 . S
C902 C921 1.429 . S
C902 H926 0.950 . S
C903 C920 1.574 . S
C903 C922 1.368 . S
C903 H927 0.949 . S
H904 C908 0.949 . S
C905 C906 1.349 . S
C905 C907 1.327 . S
C905 H928 0.950 . S
C906 C905 1.349 . S
C906 C918 1.349 . S
C907 C905 1.327 . S
C907 C923 1.429 . S
C907 H929 0.950 . S
C908 H904 0.949 . S
C908 C916 1.574 . S
C908 C924 1.368 . S
H909 C917 0.950 . S
H910 C915 0.950 . S
H911 C916 0.949 . S
H912 C918 0.950 . S
H913 C919 0.950 . S
H914 C920 0.949 . S
C915 H910 0.950 . S
C915 C917 1.327 . S
C915 C921 1.429 . S
C916 C908 1.574 . S
C916 H911 0.949 . S
C916 C922 1.368 . S
C917 C901 1.349 . S
C917 H909 0.950 . S
C917 C915 1.327 . S
C918 C906 1.349 . S
C918 H912 0.950 . S
C918 C919 1.327 . S
C919 H913 0.950 . S
C919 C918 1.327 . S
C919 C923 1.429 . S
C920 C903 1.574 . S
C920 H914 0.949 . S
C920 C924 1.368 . S
C921 C902 1.429 . S
C921 C915 1.429 . S
C921 C922 1.523 . S
C922 C903 1.368 . S
C922 C916 1.368 . S
C922 C921 1.523 . S
C923 C907 1.429 . S
C923 C919 1.429 . S
C923 C924 1.523 . S
C924 C908 1.368 . S
C924 C920 1.368 . S
C924 C923 1.523 . S
H925 C900 0.950 . S
H926 C902 0.950 . S
H927 C903 0.949 . S
H928 C905 0.950 . S
H929 C907 0.950 . S
C930 C931 1.349 . S
C930 C932 1.327 . S
C930 H955 0.950 . S
C931 C930 1.349 . S
C931 C947 1.349 . S
C932 C930 1.327 . S
C932 C951 1.429 . S
C932 H956 0.950 . S
C933 C950 1.574 . S
C933 C952 1.368 . S
C933 H957 0.949 . S
H934 C938 0.949 . S
C935 C936 1.349 . S
C935 C937 1.327 . S
C935 H958 0.950 . S
C936 C935 1.349 . S
C936 C948 1.349 . S
C937 C935 1.327 . S
C937 C953 1.429 . S
C937 H959 0.950 . S
C938 H934 0.949 . S
C938 C946 1.574 . S
C938 C954 1.368 . S
H939 C947 0.950 . S
H940 C945 0.950 . S
H941 C946 0.949 . S
H942 C948 0.950 . S
H943 C949 0.950 . S
H944 C950 0.949 . S
C945 H940 0.950 . S
C945 C947 1.327 . S
C945 C951 1.429 . S
C946 C938 1.574 . S
C946 H941 0.949 . S
C946 C952 1.368 . S
C947 C931 1.349 . S
C947 H939 0.950 . S
C947 C945 1.327 . S
C948 C936 1.349 . S
C948 H942 0.950 . S
C948 C949 1.327 . S
C949 H943 0.950 . S
C949 C948 1.327 . S
C949 C953 1.429 . S
C950 C933 1.574 . S
C950 H944 0.949 . S
C950 C954 1.368 . S
C951 C932 1.429 . S
C951 C945 1.429 . S
C951 C952 1.523 . S
C952 C933 1.368 . S
C952 C946 1.368 . S
C952 C951 1.523 . S
C953 C937 1.429 . S
C953 C949 1.429 . S
C953 C954 1.523 . S
C954 C938 1.368 . S
C954 C950 1.368 . S
C954 C953 1.523 . S
H955 C930 0.950 . S
H956 C932 0.950 . S
H957 C933 0.949 . S
H958 C935 0.950 . S
H959 C937 0.950 . S
C960 C961 1.349 . S
C960 C962 1.327 . S
C960 H985 0.950 . S
C961 C960 1.349 . S
C961 C977 1.349 . S
C962 C960 1.327 . S
C962 C981 1.429 . S
C962 H986 0.950 . S
C963 C980 1.574 . S
C963 C982 1.368 . S
C963 H987 0.949 . S
H964 C968 0.949 . S
C965 C966 1.349 . S
C965 C967 1.327 . S
C965 H988 0.950 . S
C966 C965 1.349 . S
C966 C978 1.349 . S
C967 C965 1.327 . S
C967 C983 1.429 . S
C967 H989 0.950 . S
C968 H964 0.949 . S
C968 C976 1.574 . S
C968 C984 1.368 . S
H969 C977 0.950 . S
H970 C975 0.950 . S
H971 C976 0.949 . S
H972 C978 0.950 . S
H973 C979 0.950 . S
H974 C980 0.949 . S
C975 H970 0.950 . S
C975 C977 1.327 . S
C975 C981 1.429 . S
C976 C968 1.574 . S
C976 H971 0.949 . S
C976 C982 1.368 . S
C977 C961 1.349 . S
C977 H969 0.950 . S
C977 C975 1.327 . S
C978 C966 1.349 . S
C978 H972 0.950 . S
C978 C979 1.327 . S
C979 H973 0.950 . S
C979 C978 1.327 . S
C979 C983 1.429 . S
C980 C963 1.574 . S
C980 H974 0.949 . S
C980 C984 1.368 . S
C981 C962 1.429 . S
C981 C975 1.429 . S
C981 C982 1.523 . S
C982 C963 1.368 . S
C982 C976 1.368 . S
C982 C981 1.523 . S
C983 C967 1.429 . S
C983 C979 1.429 . S
C983 C984 1.523 . S
C984 C968 1.368 . S
C984 C980 1.368 . S
C984 C983 1.523 . S
H985 C960 0.950 . S
H986 C962 0.950 . S
H987 C963 0.949 . S
H988 C965 0.950 . S
H989 C967 0.950 . S
C990 C991 1.349 . S
C990 C992 1.327 . S
C990 H1015 0.950 . S
C991 C990 1.349 . S
C991 C1007 1.349 . S
C992 C990 1.327 . S
C992 C1011 1.429 . S
C992 H1016 0.950 . S
C993 C1010 1.574 . S
C993 C1012 1.368 . S
C993 H1017 0.949 . S
H994 C998 0.949 . S
C995 C996 1.349 . S
C995 C997 1.327 . S
C995 H1018 0.950 . S
C996 C995 1.349 . S
C996 C1008 1.349 . S
C997 C995 1.327 . S
C997 C1013 1.429 . S
C997 H1019 0.950 . S
C998 H994 0.949 . S
C998 C1006 1.574 . S
C998 C1014 1.368 . S
H999 C1007 0.950 . S
H1000 C1005 0.950 . S
H1001 C1006 0.949 . S
H1002 C1008 0.950 . S
H1003 C1009 0.950 . S
H1004 C1010 0.949 . S
C1005 H1000 0.950 . S
C1005 C1007 1.327 . S
C1005 C1011 1.429 . S
C1006 C998 1.574 . S
C1006 H1001 0.949 . S
C1006 C1012 1.368 . S
C1007 C991 1.349 . S
C1007 H999 0.950 . S
C1007 C1005 1.327 . S
C1008 C996 1.349 . S
C1008 H1002 0.950 . S
C1008 C1009 1.327 . S
C1009 H1003 0.950 . S
C1009 C1008 1.327 . S
C1009 C1013 1.429 . S
C1010 C993 1.574 . S
C1010 H1004 0.949 . S
C1010 C1014 1.368 . S
C1011 C992 1.429 . S
C1011 C1005 1.429 . S
C1011 C1012 1.523 . S
C1012 C993 1.368 . S
C1012 C1006 1.368 . S
C1012 C1011 1.523 . S
C1013 C997 1.429 . S
C1013 C1009 1.429 . S
C1013 C1014 1.523 . S
C1014 C998 1.368 . S
C1014 C1010 1.368 . S
C1014 C1013 1.523 . S
H1015 C990 0.950 . S
H1016 C992 0.950 . S
H1017 C993 0.949 . S
H1018 C995 0.950 . S
H1019 C997 0.950 . S
C1020 C1021 1.349 . S
C1020 C1022 1.327 . S
C1020 H1045 0.950 . S
C1021 C1020 1.349 . S
C1021 C1037 1.349 . S
C1022 C1020 1.327 . S
C1022 C1041 1.429 . S
C1022 H1046 0.950 . S
C1023 C1040 1.574 . S
C1023 C1042 1.368 . S
C1023 H1047 0.949 . S
H1024 C1028 0.949 . S
C1025 C1026 1.349 . S
C1025 C1027 1.327 . S
C1025 H1048 0.950 . S
C1026 C1025 1.349 . S
C1026 C1038 1.349 . S
C1027 C1025 1.327 . S
C1027 C1043 1.429 . S
C1027 H1049 0.950 . S
C1028 H1024 0.949 . S
C1028 C1036 1.574 . S
C1028 C1044 1.368 . S
H1029 C1037 0.950 . S
H1030 C1035 0.950 . S
H1031 C1036 0.949 . S
H1032 C1038 0.950 . S
H1033 C1039 0.950 . S
H1034 C1040 0.949 . S
C1035 H1030 0.950 . S
C1035 C1037 1.327 . S
C1035 C1041 1.429 . S
C1036 C1028 1.574 . S
C1036 H1031 0.949 . S
C1036 C1042 1.368 . S
C1037 C1021 1.349 . S
C1037 H1029 0.950 . S
C1037 C1035 1.327 . S
C1038 C1026 1.349 . S
C1038 H1032 0.950 . S
C1038 C1039 1.327 . S
C1039 H1033 0.950 . S
C1039 C1038 1.327 . S
C1039 C1043 1.429 . S
C1040 C1023 1.574 . S
C1040 H1034 0.949 . S
C1040 C1044 1.368 . S
C1041 C1022 1.429 . S
C1041 C1035 1.429 . S
C1041 C1042 1.523 . S
C1042 C1023 1.368 . S
C1042 C1036 1.368 . S
C1042 C1041 1.523 . S
C1043 C1027 1.429 . S
C1043 C1039 1.429 . S
C1043 C1044 1.523 . S
C1044 C1028 1.368 . S
C1044 C1040 1.368 . S
C1044 C1043 1.523 . S
H1045 C1020 0.950 . S
H1046 C1022 0.950 . S
H1047 C1023 0.949 . S
H1048 C1025 0.950 . S
H1049 C1027 0.950 . S
C1050 C1051 1.349 . S
C1050 C1052 1.327 . S
C1050 H1075 0.950 . S
C1051 C1050 1.349 . S
C1051 C1067 1.349 . S
C1052 C1050 1.327 . S
C1052 C1071 1.429 . S
C1052 H1076 0.950 . S
C1053 C1070 1.574 . S
C1053 C1072 1.368 . S
C1053 H1077 0.949 . S
H1054 C1058 0.949 . S
C1055 C1056 1.349 . S
C1055 C1057 1.327 . S
C1055 H1078 0.950 . S
C1056 C1055 1.349 . S
C1056 C1068 1.349 . S
C1057 C1055 1.327 . S
C1057 C1073 1.429 . S
C1057 H1079 0.950 . S
C1058 H1054 0.949 . S
C1058 C1066 1.574 . S
C1058 C1074 1.368 . S
H1059 C1067 0.950 . S
H1060 C1065 0.950 . S
H1061 C1066 0.949 . S
H1062 C1068 0.950 . S
H1063 C1069 0.950 . S
H1064 C1070 0.949 . S
C1065 H1060 0.950 . S
C1065 C1067 1.327 . S
C1065 C1071 1.429 . S
C1066 C1058 1.574 . S
C1066 H1061 0.949 . S
C1066 C1072 1.368 . S
C1067 C1051 1.349 . S
C1067 H1059 0.950 . S
C1067 C1065 1.327 . S
C1068 C1056 1.349 . S
C1068 H1062 0.950 . S
C1068 C1069 1.327 . S
C1069 H1063 0.950 . S
C1069 C1068 1.327 . S
C1069 C1073 1.429 . S
C1070 C1053 1.574 . S
C1070 H1064 0.949 . S
C1070 C1074 1.368 . S
C1071 C1052 1.429 . S
C1071 C1065 1.429 . S
C1071 C1072 1.523 . S
C1072 C1053 1.368 . S
C1072 C1066 1.368 . S
C1072 C1071 1.523 . S
C1073 C1057 1.429 . S
C1073 C1069 1.429 . S
C1073 C1074 1.523 . S
C1074 C1058 1.368 . S
C1074 C1070 1.368 . S
C1074 C1073 1.523 . S
H1075 C1050 0.950 . S
H1076 C1052 0.950 . S
H1077 C1053 0.949 . S
H1078 C1055 0.950 . S
H1079 C1057 0.950 . S
C1080 C1081 1.349 . S
C1080 C1082 1.327 . S
C1080 H1105 0.950 . S
C1081 C1080 1.349 . S
C1081 C1097 1.349 . S
C1082 C1080 1.327 . S
C1082 C1101 1.429 . S
C1082 H1106 0.950 . S
C1083 C1100 1.574 . S
C1083 C1102 1.368 . S
C1083 H1107 0.949 . S
H1084 C1088 0.949 . S
C1085 C1086 1.349 . S
C1085 C1087 1.327 . S
C1085 H1108 0.950 . S
C1086 C1085 1.349 . S
C1086 C1098 1.349 . S
C1087 C1085 1.327 . S
C1087 C1103 1.429 . S
C1087 H1109 0.950 . S
C1088 H1084 0.949 . S
C1088 C1096 1.574 . S
C1088 C1104 1.368 . S
H1089 C1097 0.950 . S
H1090 C1095 0.950 . S
H1091 C1096 0.949 . S
H1092 C1098 0.950 . S
H1093 C1099 0.950 . S
H1094 C1100 0.949 . S
C1095 H1090 0.950 . S
C1095 C1097 1.327 . S
C1095 C1101 1.429 . S
C1096 C1088 1.574 . S
C1096 H1091 0.949 . S
C1096 C1102 1.368 . S
C1097 C1081 1.349 . S
C1097 H1089 0.950 . S
C1097 C1095 1.327 . S
C1098 C1086 1.349 . S
C1098 H1092 0.950 . S
C1098 C1099 1.327 . S
C1099 H1093 0.950 . S
C1099 C1098 1.327 . S
C1099 C1103 1.429 . S
C1100 C1083 1.574 . S
C1100 H1094 0.949 . S
C1100 C1104 1.368 . S
C1101 C1082 1.429 . S
C1101 C1095 1.429 . S
C1101 C1102 1.523 . S
C1102 C1083 1.368 . S
C1102 C1096 1.368 . S
C1102 C1101 1.523 . S
C1103 C1087 1.429 . S
C1103 C1099 1.429 . S
C1103 C1104 1.523 . S
C1104 C1088 1.368 . S
C1104 C1100 1.368 . S
C1104 C1103 1.523 . S
H1105 C1080 0.950 . S
H1106 C1082 0.950 . S
H1107 C1083 0.949 . S
H1108 C1085 0.950 . S
H1109 C1087 0.950 . S
C1110 C1111 1.349 . S
C1110 C1112 1.327 . S
C1110 H1135 0.950 . S
C1111 C1110 1.349 . S
C1111 C1127 1.349 . S
C1112 C1110 1.327 . S
C1112 C1131 1.429 . S
C1112 H1136 0.950 . S
C1113 C1130 1.574 . S
C1113 C1132 1.368 . S
C1113 H1137 0.949 . S
H1114 C1118 0.949 . S
C1115 C1116 1.349 . S
C1115 C1117 1.327 . S
C1115 H1138 0.950 . S
C1116 C1115 1.349 . S
C1116 C1128 1.349 . S
C1117 C1115 1.327 . S
C1117 C1133 1.429 . S
C1117 H1139 0.950 . S
C1118 H1114 0.949 . S
C1118 C1126 1.574 . S
C1118 C1134 1.368 . S
H1119 C1127 0.950 . S
H1120 C1125 0.950 . S
H1121 C1126 0.949 . S
H1122 C1128 0.950 . S
H1123 C1129 0.950 . S
H1124 C1130 0.949 . S
C1125 H1120 0.950 . S
C1125 C1127 1.327 . S
C1125 C1131 1.429 . S
C1126 C1118 1.574 . S
C1126 H1121 0.949 . S
C1126 C1132 1.368 . S
C1127 C1111 1.349 . S
C1127 H1119 0.950 . S
C1127 C1125 1.327 . S
C1128 C1116 1.349 . S
C1128 H1122 0.950 . S
C1128 C1129 1.327 . S
C1129 H1123 0.950 . S
C1129 C1128 1.327 . S
C1129 C1133 1.429 . S
C1130 C1113 1.574 . S
C1130 H1124 0.949 . S
C1130 C1134 1.368 . S
C1131 C1112 1.429 . S
C1131 C1125 1.429 . S
C1131 C1132 1.523 . S
C1132 C1113 1.368 . S
C1132 C1126 1.368 . S
C1132 C1131 1.523 . S
C1133 C1117 1.429 . S
C1133 C1129 1.429 . S
C1133 C1134 1.523 . S
C1134 C1118 1.368 . S
C1134 C1130 1.368 . S
C1134 C1133 1.523 . S
H1135 C1110 0.950 . S
H1136 C1112 0.950 . S
H1137 C1113 0.949 . S
H1138 C1115 0.950 . S
H1139 C1117 0.950 . S
C1140 C1141 1.349 . S
C1140 C1142 1.327 . S
C1140 H1165 0.950 . S
C1141 C1140 1.349 . S
C1141 C1157 1.349 . S
C1142 C1140 1.327 . S
C1142 C1161 1.429 . S
C1142 H1166 0.950 . S
C1143 C1160 1.574 . S
C1143 C1162 1.368 . S
C1143 H1167 0.949 . S
H1144 C1148 0.949 . S
C1145 C1146 1.349 . S
C1145 C1147 1.327 . S
C1145 H1168 0.950 . S
C1146 C1145 1.349 . S
C1146 C1158 1.349 . S
C1147 C1145 1.327 . S
C1147 C1163 1.429 . S
C1147 H1169 0.950 . S
C1148 H1144 0.949 . S
C1148 C1156 1.574 . S
C1148 C1164 1.368 . S
H1149 C1157 0.950 . S
H1150 C1155 0.950 . S
H1151 C1156 0.949 . S
H1152 C1158 0.950 . S
H1153 C1159 0.950 . S
H1154 C1160 0.949 . S
C1155 H1150 0.950 . S
C1155 C1157 1.327 . S
C1155 C1161 1.429 . S
C1156 C1148 1.574 . S
C1156 H1151 0.949 . S
C1156 C1162 1.368 . S
C1157 C1141 1.349 . S
C1157 H1149 0.950 . S
C1157 C1155 1.327 . S
C1158 C1146 1.349 . S
C1158 H1152 0.950 . S
C1158 C1159 1.327 . S
C1159 H1153 0.950 . S
C1159 C1158 1.327 . S
C1159 C1163 1.429 . S
C1160 C1143 1.574 . S
C1160 H1154 0.949 . S
C1160 C1164 1.368 . S
C1161 C1142 1.429 . S
C1161 C1155 1.429 . S
C1161 C1162 1.523 . S
C1162 C1143 1.368 . S
C1162 C1156 1.368 . S
C1162 C1161 1.523 . S
C1163 C1147 1.429 . S
C1163 C1159 1.429 . S
C1163 C1164 1.523 . S
C1164 C1148 1.368 . S
C1164 C1160 1.368 . S
C1164 C1163 1.523 . S
H1165 C1140 0.950 . S
H1166 C1142 0.950 . S
H1167 C1143 0.949 . S
H1168 C1145 0.950 . S
H1169 C1147 0.950 . S
C1170 C1171 1.349 . S
C1170 C1172 1.327 . S
C1170 H1195 0.950 . S
C1171 C1170 1.349 . S
C1171 C1187 1.349 . S
C1172 C1170 1.327 . S
C1172 C1191 1.429 . S
C1172 H1196 0.950 . S
C1173 C1190 1.574 . S
C1173 C1192 1.368 . S
C1173 H1197 0.949 . S
H1174 C1178 0.949 . S
C1175 C1176 1.349 . S
C1175 C1177 1.327 . S
C1175 H1198 0.950 . S
C1176 C1175 1.349 . S
C1176 C1188 1.349 . S
C1177 C1175 1.327 . S
C1177 C1193 1.429 . S
C1177 H1199 0.950 . S
C1178 H1174 0.949 . S
C1178 C1186 1.574 . S
C1178 C1194 1.368 . S
H1179 C1187 0.950 . S
H1180 C1185 0.950 . S
H1181 C1186 0.949 . S
H1182 C1188 0.950 . S
H1183 C1189 0.950 . S
H1184 C1190 0.949 . S
C1185 H1180 0.950 . S
C1185 C1187 1.327 . S
C1185 C1191 1.429 . S
C1186 C1178 1.574 . S
C1186 H1181 0.949 . S
C1186 C1192 1.368 . S
C1187 C1171 1.349 . S
C1187 H1179 0.950 . S
C1187 C1185 1.327 . S
C1188 C1176 1.349 . S
C1188 H1182 0.950 . S
C1188 C1189 1.327 . S
C1189 H1183 0.950 . S
C1189 C1188 1.327 . S
C1189 C1193 1.429 . S
C1190 C1173 1.574 . S
C1190 H1184 0.949 . S
C1190 C1194 1.368 . S
C1191 C1172 1.429 . S
C1191 C1185 1.429 . S
C1191 C1192 1.523 . S
C1192 C1173 1.368 . S
C1192 C1186 1.368 . S
C1192 C1191 1.523 . S
C1193 C1177 1.429 . S
C1193 C1189 1.429 . S
C1193 C1194 1.523 . S
C1194 C1178 1.368 . S
C1194 C1190 1.368 . S
C1194 C1193 1.523 . S
H1195 C1170 0.950 . S
H1196 C1172 0.950 . S
H1197 C1173 0.949 . S
H1198 C1175 0.950 . S
H1199 C1177 0.950 . S
C481 C21 1.293 . S
C486 C327 1.395 . S
C511 C61 0.999 . S
C516 C376 1.000 . S
C546 C402 2.330 . S
C541 C82 2.340 . S
C571 C135 2.306 . S
C576 C450 2.245 . S
C606 C362 2.667 . S
C601 C15 2.563 . S
C636 C330 0.975 . S
C631 C42 1.001 . S
C666 C451 1.853 . S
C661 C101 1.859 . S
C696 C419 1.413 . S
C691 C122 1.433 . S
C721 C2 1.800 . S
C726 C447 1.909 . S
C756 C379 2.231 . S
C751 C95 2.295 . S
C781 C141 2.357 . S
C786 C331 2.358 . S
C811 C55 0.762 . S
C816 C416 0.763 . S
C846 C336 1.407 . S
C841 C181 1.395 . S
C871 C202 0.964 . S
C876 C367 0.973 . S
C901 C255 2.385 . S
C906 C411 2.359 . S
C931 C295 2.281 . S
C936 C459 2.221 . S
C961 C175 2.551 . S
C966 C371 2.642 . S
C996 C339 0.990 . S
C991 C221 1.011 . S
C1026 C442 1.781 . S
C1021 C242 1.802 . S
C1056 C410 1.487 . S
C1051 C301 1.510 . S
C1081 C162 1.871 . S
C1086 C456 1.884 . S
C1116 C370 2.274 . S
C1111 C261 2.329 . S
C1146 C322 2.336 . S
C1141 C282 2.332 . S
C1171 C215 0.800 . S
C1176 C407 0.801 . S
