# Generated by pormake.
# Topology pth, (4,4)-cn, num edge types: 1
# Building blocks:
#     Node 0, Type 0, BuildingBlock: NAHDIM_clean_sbu_0, # of connection points: 4
#     Node 1, Type 0, BuildingBlock: NAHDIM_clean_sbu_0, # of connection points: 4
#     Node 2, Type 0, BuildingBlock: NAHDIM_clean_sbu_0, # of connection points: 4
#     Node 3, Type 1, BuildingBlock: KOZSID_clean_sbu_0, # of connection points: 4
#     Node 4, Type 1, BuildingBlock: KOZSID_clean_sbu_0, # of connection points: 4
#     Node 5, Type 1, BuildingBlock: KOZSID_clean_sbu_0, # of connection points: 4
#     Edge 6, Type (0, 1), BuildingBlock: UVAHIK_clean_linker_0, # of connection points: 2
#     Edge 7, Type (0, 1), BuildingBlock: UVAHIK_clean_linker_0, # of connection points: 2
#     Edge 8, Type (0, 1), BuildingBlock: UVAHIK_clean_linker_0, # of connection points: 2
#     Edge 9, Type (0, 1), BuildingBlock: UVAHIK_clean_linker_0, # of connection points: 2
#     Edge 10, Type (0, 1), BuildingBlock: UVAHIK_clean_linker_0, # of connection points: 2
#     Edge 11, Type (0, 1), BuildingBlock: UVAHIK_clean_linker_0, # of connection points: 2
#     Edge 12, Type (0, 1), BuildingBlock: UVAHIK_clean_linker_0, # of connection points: 2
#     Edge 13, Type (0, 1), BuildingBlock: UVAHIK_clean_linker_0, # of connection points: 2
#     Edge 14, Type (0, 1), BuildingBlock: UVAHIK_clean_linker_0, # of connection points: 2
#     Edge 15, Type (0, 1), BuildingBlock: UVAHIK_clean_linker_0, # of connection points: 2
#     Edge 16, Type (0, 1), BuildingBlock: UVAHIK_clean_linker_0, # of connection points: 2
#     Edge 17, Type (0, 1), BuildingBlock: UVAHIK_clean_linker_0, # of connection points: 2
# Relax obj value: 0.042
# Max RMSD: 0.168
# Mean RMSD: 0.085
data_MOF--net-pth--node1-NAHDIM_clean_sbu_0--node2-KOZSID_clean_sbu_0--edge1-UVAHIK_clean_linker_0
_symmetry_space_group_name_H-M    P1
_symmetry_Int_Tables_number       1
_symmetry_cell_setting            triclinic
loop_
_symmetry_equiv_pos_as_xyz
'x, y, z'
_cell_length_a     33.588686
_cell_length_b     33.758184
_cell_length_c     75.31496
_cell_angle_alpha  89.704208
_cell_angle_beta   87.895635
_cell_angle_gamma 120.58624
loop_
_atom_site_label
_atom_site_type_symbol
_atom_site_fract_x
_atom_site_fract_y
_atom_site_fract_z
_atom_type_partial_charge
C0 C 0.09202 0.0161 0.07139 0.0
O1 O 0.09564 0.05216 0.07943 0.0
O2 O 0.04444 0.084 0.05843 0.0
Zn3 Zn 0.06042 0.04744 0.04182 0.0
O4 O 0.00533 0.00334 0.02826 0.0
C5 C 0.10371 0.12367 0.01829 0.0
O6 O 0.06531 0.12287 0.02306 0.0
O7 O 0.07995 0.00926 0.05539 0.0
C8 C 0.97281 0.00954 0.02372 0.0
O9 O 0.97351 0.04753 0.02803 0.0
C10 C 0.01084 0.06888 0.06984 0.0
O11 O 0.98212 0.02432 0.07181 0.0
O12 O 0.11075 0.09291 0.02466 0.0
C13 C 0.03126 0.14677 0.34956 0.0
O14 O 0.99564 0.10478 0.35189 0.0
O15 O 0.05185 0.05351 0.35042 0.0
Zn16 Zn 0.06502 0.10149 0.36866 0.0
O17 O 0.01193 0.07969 0.38665 0.0
C18 C 0.12773 0.08099 0.38405 0.0
O19 O 0.09621 0.04032 0.37872 0.0
O20 O 0.06962 0.15619 0.35589 0.0
C21 C 0.01813 0.09238 0.40266 0.0
O22 O 0.06054 0.11765 0.40797 0.0
C23 C 0.0174 0.01269 0.35152 0.0
O24 O 0.98749 0.00026 0.36512 0.0
O25 O 0.12289 0.11538 0.38103 0.0
C26 C 0.13006 0.01026 0.69713 0.0
O27 O 0.13689 0.01987 0.71403 0.0
O28 O 0.00956 0.02793 0.69023 0.0
Zn29 Zn 0.05091 0.01763 0.70565 0.0
O30 O 0.08995 0.07438 0.71934 0.0
C31 C 0.01332 0.96334 0.73872 0.0
O32 O 0.04814 -0.00144 0.74605 0.0
O33 O 0.09371 0.00557 0.6905 0.0
C34 C 0.07446 0.09613 0.72808 0.0
O35 O 0.02987 0.08121 0.72856 0.0
C36 C 0.02362 0.06277 0.67989 0.0
O37 O 0.06785 0.09424 0.67886 0.0
O38 O 0.00955 0.96388 0.72201 0.0
C39 C 0.0591 0.61724 0.17473 0.0
C40 C 0.10327 0.64648 0.16739 0.0
C41 C 0.13297 0.64069 0.17745 0.0
C42 C 0.10528 0.60832 0.19027 0.0
N43 N 0.05958 0.59239 0.18877 0.0
Co44 Co 0.007 0.54621 0.20474 0.0
N45 N 0.05096 0.54249 0.221 0.0
C46 C 0.0978 0.56659 0.21955 0.0
C47 C 0.1184 0.55635 0.23275 0.0
C48 C 0.08262 0.52327 0.24313 0.0
C49 C 0.04215 0.51516 0.23557 0.0
N50 N 0.95438 0.49955 0.22062 0.0
C51 C 0.95498 0.47554 0.23498 0.0
C52 C 0.91065 0.44479 0.24181 0.0
C53 C 0.88083 0.44908 0.23123 0.0
C54 C 0.90856 0.48201 0.21859 0.0
N55 N 0.96319 0.55069 0.18856 0.0
C56 C 0.91636 0.52694 0.19004 0.0
C57 C 0.89609 0.53976 0.17753 0.0
C58 C 0.93211 0.57443 0.16771 0.0
C59 C 0.97233 0.58062 0.17482 0.0
N60 N 0.00431 0.49539 0.19064 0.0
C61 C -0.00027 0.42156 0.17168 0.0
C62 C 0.95984 0.42323 0.17587 0.0
C63 C 0.96291 0.46017 0.18522 0.0
C64 C 0.04204 0.45756 0.17704 0.0
C65 C 0.04351 0.49377 0.18647 0.0
N66 N 0.00951 0.59681 0.21882 0.0
C67 C 0.97039 0.63162 0.23368 0.0
C68 C 0.01254 0.6692 0.23828 0.0
C69 C 0.05323 0.66996 0.23299 0.0
C70 C 0.05094 0.63373 0.2233 0.0
C71 C 0.96968 0.59615 0.22405 0.0
H72 H 0.08312 0.63647 0.21951 0.0
H73 H 0.93644 0.56859 0.22099 0.0
H74 H 0.93121 0.45924 0.18792 0.0
H75 H 0.07672 0.5198 0.19034 0.0
C76 C 0.12135 0.59604 0.20493 0.0
C77 C 0.01835 0.61729 0.16893 0.0
C78 C 0.9964 0.47896 0.24198 0.0
C79 C 0.89267 0.49567 0.20421 0.0
H80 H 0.11305 0.67075 0.15633 0.0
H81 H 0.1704 0.65941 0.17611 0.0
H82 H 0.15503 0.57022 0.23431 0.0
H83 H 0.08586 0.50604 0.25468 0.0
H84 H 0.90092 0.42105 0.25305 0.0
H85 H 0.84338 0.42967 0.23235 0.0
H86 H 0.85954 0.52675 0.17617 0.0
H87 H 0.92921 0.59393 0.1569 0.0
H88 H 0.92632 0.39643 0.17176 0.0
H89 H 0.07388 0.45753 0.17422 0.0
H90 H 0.93788 0.62916 0.23769 0.0
H91 H 0.08678 0.69866 0.23609 0.0
C92 C 0.49269 0.03372 0.56747 0.0
C93 C 0.46035 0.99009 0.5742 0.0
C94 C 0.46474 0.95944 0.56383 0.0
C95 C 0.49952 0.98598 0.5515 0.0
N96 N 0.51785 0.0318 0.5534 0.0
Co97 Co 0.57018 0.08273 0.53876 0.0
N98 N 0.57535 0.03747 0.52312 0.0
C99 C 0.54767 0.99111 0.52376 0.0
C100 C 0.56027 0.96916 0.51153 0.0
C101 C 0.59862 0.00343 0.50266 0.0
C102 C 0.60716 0.04456 0.51001 0.0
N103 N 0.62365 0.13357 0.52449 0.0
C104 C 0.65173 0.13134 0.51166 0.0
C105 C 0.68643 0.1748 0.50572 0.0
C106 C 0.68065 0.2057 0.51541 0.0
C107 C 0.64291 0.17942 0.52664 0.0
N108 N 0.5641 0.128 0.5541 0.0
C109 C 0.58909 0.17448 0.55244 0.0
C110 C 0.57581 0.19633 0.56448 0.0
C111 C 0.53986 0.16179 0.57434 0.0
C112 C 0.53342 0.12071 0.56774 0.0
N113 N 0.61477 0.08173 0.555 0.0
C114 C 0.68172 0.08161 0.57638 0.0
C115 C 0.68205 0.12232 0.57264 0.0
C116 C 0.64849 0.12159 0.56206 0.0
C117 C 0.64669 0.04075 0.56953 0.0
C118 C 0.61379 0.04158 0.55897 0.0
N119 N 0.52565 0.0839 0.5224 0.0
C120 C 0.50205 0.12636 0.50384 0.0
C121 C 0.46263 0.0858 0.49913 0.0
C122 C 0.45525 0.04422 0.50632 0.0
C123 C 0.48694 0.04406 0.51777 0.0
C124 C 0.53264 0.12465 0.51542 0.0
H125 H 0.4792 0.01123 0.52275 0.0
H126 H 0.56169 0.15687 0.51847 0.0
H127 H 0.65083 0.15381 0.55964 0.0
H128 H 0.58828 0.00944 0.55397 0.0
C129 C 0.51378 0.96892 0.53736 0.0
C130 C 0.4969 0.07571 0.57452 0.0
C131 C 0.64772 0.08903 0.50507 0.0
C132 C 0.62542 0.19662 0.53965 0.0
H133 H 0.43563 0.9813 0.58529 0.0
H134 H 0.44441 0.92225 0.56493 0.0
H135 H 0.54473 0.93246 0.50983 0.0
H136 H 0.61884 0.99838 0.49239 0.0
H137 H 0.71352 0.1832 0.49562 0.0
H138 H 0.70196 0.24286 0.51461 0.0
H139 H 0.59041 0.233 0.56588 0.0
H140 H 0.52034 0.1663 0.58508 0.0
H141 H 0.70799 0.15471 0.57792 0.0
H142 H 0.64517 0.00835 0.57197 0.0
H143 H 0.50978 0.15947 0.49846 0.0
H144 H 0.42485 0.01182 0.50332 0.0
C145 C 0.60001 0.59729 0.84342 0.0
C146 C 0.63133 0.58546 0.83647 0.0
C147 C 0.62376 0.54746 0.84589 0.0
C148 C 0.58838 0.53826 0.85796 0.0
N149 N 0.57246 0.56776 0.85668 0.0
Co150 Co 0.52131 0.56707 0.87152 0.0
N151 N 0.51408 0.51472 0.88674 0.0
C152 C 0.5401 0.4946 0.88576 0.0
C153 C 0.52727 0.45996 0.8982 0.0
C154 C 0.4906 0.45751 0.90762 0.0
C155 C 0.48309 0.49084 0.90026 0.0
N156 N 0.46886 0.56511 0.88597 0.0
C157 C 0.44096 0.53506 0.89908 0.0
C158 C 0.40688 0.54417 0.90498 0.0
C159 C 0.41315 0.5811 0.89511 0.0
C160 C 0.45044 0.59224 0.88376 0.0
N161 N 0.52996 0.62071 0.85672 0.0
C162 C 0.5059 0.64279 0.85838 0.0
C163 C 0.52185 0.68026 0.84705 0.0
C164 C 0.55888 0.68282 0.83783 0.0
C165 C 0.56324 0.64656 0.84408 0.0
N166 N 0.47573 0.52309 0.85501 0.0
C167 C 0.40849 0.45897 0.83276 0.0
C168 C 0.41021 0.50015 0.83669 0.0
C169 C 0.44387 0.53147 0.8477 0.0
C170 C 0.44136 0.45066 0.83997 0.0
C171 C 0.47438 0.48289 0.85097 0.0
N172 N 0.56674 0.61107 0.88803 0.0
C173 C 0.59294 0.67702 0.90672 0.0
C174 C 0.63245 0.67552 0.9107 0.0
C175 C 0.63824 0.64083 0.90324 0.0
C176 C 0.60514 0.60911 0.89212 0.0
C177 C 0.56102 0.64496 0.8954 0.0
H178 H 0.61158 0.58355 0.88687 0.0
H179 H 0.53207 0.64849 0.89279 0.0
H180 H 0.44317 0.56209 0.85015 0.0
H181 H 0.49812 0.47427 0.85618 0.0
C182 C 0.57324 0.50587 0.87194 0.0
C183 C 0.60038 0.63892 0.83804 0.0
C184 C 0.44449 0.49659 0.9059 0.0
C185 C 0.46915 0.62804 0.87096 0.0
H186 H 0.65802 0.60342 0.82611 0.0
H187 H 0.64312 0.52991 0.84463 0.0
H188 H 0.54182 0.43806 0.89983 0.0
H189 H 0.4708 0.43315 0.91837 0.0
H190 H 0.37997 0.52567 0.91522 0.0
H191 H 0.39267 0.59754 0.89596 0.0
H192 H 0.50868 0.70346 0.84589 0.0
H193 H 0.5807 0.70878 0.82782 0.0
H194 H 0.38591 0.50845 0.83118 0.0
H195 H 0.44116 0.419 0.83743 0.0
H196 H 0.58629 0.70262 0.91239 0.0
H197 H 0.66851 0.63844 0.90572 0.0
C198 C 0.96857 0.08699 0.09371 0.0
C199 C 0.00456 0.10198 0.08061 0.0
C200 C 0.96325 0.119 0.10371 0.0
C201 C 0.99525 0.24124 0.10278 0.0
H202 H 0.97497 0.22547 0.15398 0.0
C203 C 0.0297 0.39117 0.14767 0.0
C204 C 0.99717 0.38279 0.1616 0.0
C205 C 0.02674 0.35485 0.13789 0.0
C206 C 0.98004 0.23004 0.13967 0.0
H207 H 0.06326 0.16229 0.06779 0.0
H208 H 0.05422 0.21758 0.08522 0.0
H209 H 0.97565 0.16487 0.13656 0.0
H210 H 0.93656 0.32968 0.17643 0.0
H211 H 0.93126 0.2661 0.15922 0.0
H212 H 0.00047 0.30663 0.10586 0.0
C213 C 0.02967 0.18127 0.08764 0.0
C214 C 0.98035 0.19534 0.1297 0.0
C215 C 0.03503 0.14947 0.07772 0.0
C216 C 0.96186 0.33722 0.16565 0.0
C217 C 0.95905 0.30081 0.15591 0.0
C218 C 0.99505 0.27587 0.11272 0.0
C219 C 0.99368 0.1665 0.1007 0.0
C220 C 0.98884 0.201 0.11118 0.0
C221 C 0.9913 0.30932 0.14185 0.0
C222 C 0.98827 0.27102 0.13129 0.0
H223 H 0.94453 0.05062 0.09624 0.0
H224 H 0.93505 0.10662 0.11364 0.0
H225 H 0.0009 0.24618 0.08849 0.0
H226 H 0.05706 0.42593 0.14415 0.0
H227 H 0.05246 0.3624 0.12727 0.0
C228 C 0.93415 0.06611 0.40741 0.0
C229 C 0.97825 0.0844 0.41434 0.0
C230 C 0.89769 0.064 0.41771 0.0
C231 C 0.85626 0.06628 0.46327 0.0
H232 H 0.78999 0.11762 0.44059 0.0
C233 C 0.72748 0.10131 0.50275 0.0
C234 C 0.68668 0.09089 0.4945 0.0
C235 C 0.76342 0.10062 0.4931 0.0
C236 C 0.80765 0.10258 0.44706 0.0
H237 H 0.01801 0.11248 0.4378 0.0
H238 H 0.95399 0.10836 0.45584 0.0
H239 H 0.85052 0.1126 0.42378 0.0
H240 H 0.65116 0.0728 0.46987 0.0
H241 H 0.71343 0.07041 0.45296 0.0
H242 H 0.81303 0.05567 0.4865 0.0
C243 C 0.94784 0.09589 0.44242 0.0
C244 C 0.84236 0.09976 0.43743 0.0
C245 C 0.98449 0.09838 0.43207 0.0
C246 C 0.68251 0.08082 0.47641 0.0
C247 C 0.71824 0.07976 0.46678 0.0
C248 C 0.82121 0.06872 0.47288 0.0
C249 C 0.90443 0.07973 0.43518 0.0
C250 C 0.867 0.0816 0.44543 0.0
C251 C 0.75902 0.08931 0.47504 0.0
C252 C 0.79652 0.08697 0.46489 0.0
H253 H 0.9281 0.05486 0.39383 0.0
H254 H 0.86436 0.05075 0.41189 0.0
H255 H 0.87452 0.05183 0.4697 0.0
H256 H 0.73122 0.10939 0.51672 0.0
H257 H 0.79465 0.109 0.4998 0.0
C258 C 0.9378 0.88916 0.74189 0.0
C259 C 0.97535 0.92623 0.74988 0.0
C260 C 0.89924 0.85695 0.75219 0.0
C261 C 0.837 0.84613 0.79466 0.0
H262 H 0.76895 0.71651 0.7838 0.0
C263 C 0.67832 0.70971 0.83722 0.0
C264 C 0.64148 0.67553 0.82802 0.0
C265 C 0.71963 0.74109 0.82806 0.0
C266 C 0.78732 0.75271 0.78686 0.0
H267 H 0.00279 0.9573 0.77505 0.0
H268 H 0.93544 0.90061 0.79307 0.0
H269 H 0.84212 0.76784 0.76767 0.0
H270 H 0.61746 0.64723 0.80229 0.0
H271 H 0.68961 0.70261 0.78605 0.0
H272 H 0.78202 0.83097 0.81379 0.0
C273 C 0.93564 0.897 0.77879 0.0
C274 C 0.82929 0.78207 0.77766 0.0
C275 C 0.97434 0.92925 0.76848 0.0
C276 C 0.64567 0.67368 0.80952 0.0
C277 C 0.68698 0.70497 0.80034 0.0
C278 C 0.79503 0.81674 0.80387 0.0
C279 C 0.8973 0.86101 0.77071 0.0
C280 C 0.85441 0.82919 0.78134 0.0
C281 C 0.72467 0.73854 0.80955 0.0
C282 C 0.76953 0.76979 0.79995 0.0
H283 H 0.93749 0.88574 0.7276 0.0
H284 H 0.87015 0.82988 0.74553 0.0
H285 H 0.85515 0.8824 0.79761 0.0
H286 H 0.67559 0.71113 0.85156 0.0
H287 H 0.74813 0.76628 0.83554 0.0
C288 C 0.10028 0.98305 0.09996 0.0
C289 C 0.09507 0.98011 0.0815 0.0
C290 C 0.09686 0.94613 0.10981 0.0
C291 C 0.09673 0.83647 0.10588 0.0
H292 H 0.01831 0.80151 0.14899 0.0
C293 C 0.02288 0.65868 0.14065 0.0
C294 C 0.02453 0.65827 0.15919 0.0
C295 C 0.03306 0.69902 0.13142 0.0
C296 C 0.0407 0.81109 0.13709 0.0
H297 H 0.08471 0.93711 0.05877 0.0
H298 H 0.0784 0.87283 0.07593 0.0
H299 H 0.03713 0.87178 0.13261 0.0
H300 H 0.03769 0.69843 0.18282 0.0
H301 H 0.05541 0.76921 0.16676 0.0
H302 H 0.09971 0.77535 0.11027 0.0
C303 C 0.08535 0.90364 0.08282 0.0
C304 C 0.05165 0.85146 0.12774 0.0
C305 C 0.08873 0.94046 0.07299 0.0
C306 C 0.0358 0.69823 0.16848 0.0
C307 C 0.04583 0.73852 0.1593 0.0
C308 C 0.0857 0.79605 0.11522 0.0
C309 C 0.08829 0.90561 0.10139 0.0
C310 C 0.07951 0.86444 0.11195 0.0
C311 C 0.04504 0.73949 0.14065 0.0
C312 C 0.05728 0.78274 0.13086 0.0
H313 H 0.10545 0.0132 0.10691 0.0
H314 H 0.10007 0.94898 0.12406 0.0
H315 H 0.11878 0.84584 0.09389 0.0
H316 H 0.01456 0.62806 0.13333 0.0
H317 H 0.0316 0.69857 0.11708 0.0
C318 C 0.19292 0.12437 0.40443 0.0
C319 C 0.16643 0.08545 0.39427 0.0
C320 C 0.22692 0.12629 0.4152 0.0
C321 C 0.25949 0.04917 0.43723 0.0
H322 H 0.37556 0.16207 0.44403 0.0
C323 C 0.40841 0.05267 0.47412 0.0
C324 C 0.42963 0.08691 0.48679 0.0
C325 C 0.37732 0.05364 0.46257 0.0
C326 C 0.34311 0.13039 0.44233 0.0
H327 H 0.15625 0.01908 0.38675 0.0
H328 H 0.21613 0.02296 0.40505 0.0
H329 H 0.32028 0.1623 0.42387 0.0
H330 H 0.4343 0.14885 0.4973 0.0
H331 H 0.38057 0.15085 0.4769 0.0
H332 H 0.28256 0.01719 0.45552 0.0
C333 C 0.20986 0.05141 0.40519 0.0
C334 C 0.31141 0.13051 0.43083 0.0
C335 C 0.1757 0.04931 0.39459 0.0
C336 C 0.41921 0.12234 0.48753 0.0
C337 C 0.38838 0.12349 0.47587 0.0
C338 C 0.29128 0.04899 0.44859 0.0
C339 C 0.23528 0.08948 0.4159 0.0
C340 C 0.26925 0.08984 0.42811 0.0
C341 C 0.36699 0.08904 0.46333 0.0
C342 C 0.33341 0.08955 0.45125 0.0
H343 H 0.18644 0.15268 0.40448 0.0
H344 H 0.24561 0.15598 0.42338 0.0
H345 H 0.22693 0.01744 0.43579 0.0
H346 H 0.41626 0.02538 0.47295 0.0
H347 H 0.36177 0.02696 0.45287 0.0
C348 C 0.09024 0.15969 0.74901 0.0
C349 C 0.10666 0.13719 0.73793 0.0
C350 C 0.12106 0.19777 0.75862 0.0
C351 C 0.24483 0.28721 0.7601 0.0
H352 H 0.21611 0.29183 0.81011 0.0
C353 C 0.38397 0.40199 0.80837 0.0
C354 C 0.37254 0.42488 0.82129 0.0
C355 C 0.35009 0.36964 0.79768 0.0
C356 C 0.22436 0.29142 0.7961 0.0
H357 H 0.16834 0.13734 0.72811 0.0
H358 H 0.22172 0.20326 0.74488 0.0
H359 H 0.15894 0.23073 0.79216 0.0
H360 H 0.31651 0.43155 0.8332 0.0
H361 H 0.25739 0.37537 0.81434 0.0
H362 H 0.31048 0.34741 0.76407 0.0
C363 C 0.18519 0.19191 0.74602 0.0
C364 C 0.1916 0.25645 0.78582 0.0
C365 C 0.15449 0.15387 0.7365 0.0
C366 C 0.32648 0.4148 0.82324 0.0
C367 C 0.29254 0.38232 0.81257 0.0
C368 C 0.27754 0.32213 0.77036 0.0
C369 C 0.16886 0.21419 0.75724 0.0
C370 C 0.20181 0.25355 0.76778 0.0
C371 C 0.30399 0.35938 0.79968 0.0
C372 C 0.26797 0.32419 0.78853 0.0
H373 H 0.05359 0.14769 0.75038 0.0
H374 H 0.10752 0.21448 0.76707 0.0
H375 H 0.25338 0.28637 0.74615 0.0
H376 H 0.41922 0.40931 0.80644 0.0
H377 H 0.3599 0.35213 0.78801 0.0
C378 C 0.94264 0.03448 0.67111 0.0
C379 C 0.99005 0.06762 0.6693 0.0
C380 C 0.91062 0.03873 0.66125 0.0
C381 C 0.89977 0.09247 0.62062 0.0
H382 H 0.78219 0.06376 0.64331 0.0
C383 C 0.76445 0.1172 0.58467 0.0
C384 C 0.71793 0.08193 0.58719 0.0
C385 C 0.79861 0.11756 0.59482 0.0
C386 C 0.81468 0.07147 0.63674 0.0
H387 H 0.04103 0.13128 0.65568 0.0
H388 H 0.98482 0.13876 0.63843 0.0
H389 H 0.84048 0.06126 0.66083 0.0
H390 H 0.67077 0.0196 0.60241 0.0
H391 H 0.73049 0.01977 0.61991 0.0
H392 H 0.87374 0.10226 0.59649 0.0
C393 C 0.97261 0.10932 0.64743 0.0
C394 C 0.84808 0.07009 0.64678 0.0
C395 C 0.00475 0.10514 0.65736 0.0
C396 C 0.70634 0.04702 0.60006 0.0
C397 C 0.74048 0.04742 0.61022 0.0
C398 C 0.8663 0.09381 0.61057 0.0
C399 C 0.92519 0.07619 0.64931 0.0
C400 C 0.8908 0.08012 0.6388 0.0
C401 C 0.78699 0.0827 0.60772 0.0
C402 C 0.82322 0.0829 0.61849 0.0
H403 H 0.93011 0.00507 0.68015 0.0
H404 H 0.87442 0.01226 0.6628 0.0
H405 H 0.93215 0.09986 0.61406 0.0
H406 H 0.77458 0.14431 0.57472 0.0
H407 H 0.83407 0.1454 0.59267 0.0
C408 C 0.90648 0.98545 0.00385 0.0
C409 C 0.93542 0.97465 0.01311 0.0
C410 C 0.8728 0.95296 0.99308 0.0
C411 C 0.84244 0.84526 0.96973 0.0
H412 H 0.72351 0.83666 0.9658 0.0
C413 C 0.68992 0.69704 0.93457 0.0
C414 C 0.66722 0.70993 0.92251 0.0
C415 C 0.72238 0.7294 0.94571 0.0
C416 C 0.75673 0.83895 0.9667 0.0
H417 H 0.95067 0.92086 0.0189 0.0
H418 H 0.89113 0.86385 0.00064 0.0
H419 H 0.77984 0.89259 0.98556 0.0
H420 H 0.66174 0.76741 0.91255 0.0
H421 H 0.71756 0.82346 0.93234 0.0
H422 H 0.81878 0.79094 0.95112 0.0
C423 C 0.89527 0.89779 0.00119 0.0
C424 C 0.78907 0.87105 0.97796 0.0
C425 C 0.92924 0.9304 0.01177 0.0
C426 C 0.6778 0.75599 0.92191 0.0
C427 C 0.70988 0.78819 0.93319 0.0
C428 C 0.80991 0.81286 0.95865 0.0
C429 C 0.86703 0.90882 0.99151 0.0
C430 C 0.83236 0.87462 0.97961 0.0
C431 C 0.73251 0.77521 0.94517 0.0
C432 C 0.76681 0.80944 0.95701 0.0
H433 H 0.91058 0.01936 0.00458 0.0
H434 H 0.85206 0.96287 0.98567 0.0
H435 H 0.87576 0.84767 0.97035 0.0
H436 H 0.6821 0.66177 0.93562 0.0
H437 H 0.73904 0.71843 0.95497 0.0
C438 C 0.04502 0.99267 0.3236 0.0
C439 C 0.01342 0.97877 0.33831 0.0
C440 C 0.04356 0.96036 0.31176 0.0
C441 C 0.96967 0.84144 0.2968 0.0
H442 H 0.08731 0.85348 0.28206 0.0
C443 C 0.98411 0.72354 0.24496 0.0
C444 C 0.01377 0.7069 0.24871 0.0
C445 C 0.984 0.75785 0.2552 0.0
C446 C 0.05417 0.8495 0.28613 0.0
H447 H 0.95465 0.9202 0.35184 0.0
H448 H 0.95244 0.86364 0.33125 0.0
H449 H 0.08593 0.91061 0.30127 0.0
H450 H 0.06654 0.71318 0.26613 0.0
H451 H 0.06636 0.77307 0.28403 0.0
H452 H 0.9379 0.7796 0.28202 0.0
C453 C 0.97807 0.89962 0.32879 0.0
C454 C 0.05339 0.88253 0.29696 0.0
C455 C 0.97947 0.93201 0.34064 0.0
C456 C 0.04375 0.72573 0.26277 0.0
C457 C 0.04362 0.76002 0.27301 0.0
C458 C 0.97046 0.80839 0.28594 0.0
C459 C 0.01054 0.91339 0.31437 0.0
C460 C 0.01114 0.87881 0.30247 0.0
C461 C 0.01357 0.77628 0.2694 0.0
C462 C 0.01273 0.81196 0.28056 0.0
H463 H 0.07139 0.0285 0.32133 0.0
H464 H 0.06851 0.97215 0.30059 0.0
H465 H 0.93659 0.83782 0.3007 0.0
H466 H 0.96113 0.71021 0.23403 0.0
H467 H 0.96101 0.77021 0.2519 0.0
C468 C 0.1602 0.00223 0.6673 0.0
C469 C 0.16653 0.01016 0.68556 0.0
C470 C 0.19624 0.00658 0.65604 0.0
C471 C 0.32313 0.06535 0.65257 0.0
H472 H 0.30144 0.98334 0.61353 0.0
C473 C 0.47045 0.07851 0.60571 0.0
C474 C 0.4612 0.07198 0.58764 0.0
C475 C 0.43523 0.07068 0.61823 0.0
C476 C 0.30795 0.00681 0.62427 0.0
H477 H 0.21513 0.02713 0.70643 0.0
H478 H 0.27796 0.03435 0.68676 0.0
H479 H 0.23795 0.96747 0.63464 0.0
H480 H 0.4092 0.05316 0.56818 0.0
H481 H 0.34754 0.04008 0.58996 0.0
H482 H 0.39306 0.10492 0.64209 0.0
C483 C 0.24529 0.02543 0.68113 0.0
C484 C 0.27161 0.99764 0.63638 0.0
C485 C 0.20918 0.02098 0.69241 0.0
C486 C 0.41678 0.05843 0.58212 0.0
C487 C 0.38159 0.05057 0.59458 0.0
C488 C 0.3595 0.07452 0.64045 0.0
C489 C 0.23943 0.01897 0.66279 0.0
C490 C 0.27868 0.02705 0.65057 0.0
C491 C 0.39025 0.05602 0.6128 0.0
C492 C 0.35217 0.04561 0.62606 0.0
H493 H 0.12776 0.99383 0.66159 0.0
H494 H 0.19075 0.00178 0.64195 0.0
H495 H 0.32952 0.08902 0.66323 0.0
H496 H 0.50457 0.08857 0.61015 0.0
H497 H 0.44287 0.07482 0.63217 0.0
C498 C 0.12833 0.19288 -0.00127 0.0
C499 C 0.13825 0.1607 0.00611 0.0
C500 C 0.16094 0.22876 0.98758 0.0
C501 C 0.28561 0.29749 0.9765 0.0
H502 H 0.24647 0.33175 0.93416 0.0
C503 C 0.37277 0.41988 0.90965 0.0
C504 C 0.40651 0.46031 0.91729 0.0
C505 C 0.33914 0.38363 0.92042 0.0
C506 C 0.25797 0.32246 0.94589 0.0
H507 H 0.1901 0.14075 0.00748 0.0
H508 H 0.24724 0.20364 0.98787 0.0
H509 H 0.19001 0.26607 0.95266 0.0
H510 H 0.43223 0.49563 0.9418 0.0
H511 H 0.37292 0.43223 0.96084 0.0
H512 H 0.35371 0.3536 0.9696 0.0
C513 C 0.21424 0.20115 0.99087 0.0
C514 C 0.22559 0.2851 0.95656 0.0
C515 C 0.18146 0.16502 0.00201 0.0
C516 C 0.40609 0.46459 0.93576 0.0
C517 C 0.37253 0.42828 0.94658 0.0
C518 C 0.31799 0.33499 0.96587 0.0
C519 C 0.20429 0.23342 0.98358 0.0
C520 C 0.23904 0.27226 0.97199 0.0
C521 C 0.33896 0.38724 0.93901 0.0
C522 C 0.30448 0.34789 0.95046 0.0
H523 H 0.09541 0.19063 0.00163 0.0
H524 H 0.15246 0.2534 0.98236 0.0
H525 H 0.29691 0.28868 0.98841 0.0
H526 H 0.37311 0.41605 0.89538 0.0
H527 H 0.31409 0.35229 0.91422 0.0
C528 C 0.98284 0.17003 0.33318 0.0
C529 C 0.02614 0.18164 0.33959 0.0
C530 C 0.9775 0.20207 0.32341 0.0
C531 C 0.03028 0.32621 0.31338 0.0
H532 H 0.95784 0.28384 0.27136 0.0
C533 C -0.00084 0.40742 0.2463 0.0
C534 C 0.99272 0.44186 0.25366 0.0
C535 C 0.00039 0.37474 0.25731 0.0
C536 C 0.97827 0.29624 0.28302 0.0
H537 H 0.09773 0.23629 0.34099 0.0
H538 H 0.08846 0.29238 0.32369 0.0
H539 H 0.96752 0.22968 0.28952 0.0
H540 H 0.9821 0.46974 0.27795 0.0
H541 H 0.98363 0.41198 0.29742 0.0
H542 H 0.04193 0.39308 0.30659 0.0
C543 C 0.05856 0.25849 0.32641 0.0
C544 C 0.98346 0.26513 0.29353 0.0
C545 C 0.06393 0.22631 0.33622 0.0
C546 C 0.98676 0.44302 0.27212 0.0
C547 C 0.98807 0.41034 0.28318 0.0
C548 C 0.025 0.35736 0.30288 0.0
C549 C 0.01533 0.24653 0.31978 0.0
C550 C 0.00965 0.27978 0.30878 0.0
C551 C 0.99537 0.37612 0.27588 0.0
C552 C -0.00084 0.34273 0.28753 0.0
H553 H 0.95288 0.13602 0.33564 0.0
H554 H 0.94358 0.19203 0.31874 0.0
H555 H 0.0503 0.33842 0.32515 0.0
H556 H 0.00435 0.40655 0.23205 0.0
H557 H 0.00669 0.34925 0.25129 0.0
loop_
_geom_bond_atom_site_label_1
_geom_bond_atom_site_label_2
_geom_bond_distance
_geom_bond_site_symmetry_2
_ccdc_geom_bond_type
C0 O1 1.160 1_565 S
C0 O7 1.185 1_565 S
O1 C0 1.160 1_545 S
O2 Zn3 1.899 . S
O2 C10 1.284 . S
Zn3 O2 1.899 . S
Zn3 O4 2.032 . S
Zn3 O7 2.086 . S
Zn3 O12 1.977 . S
O4 Zn3 2.032 . S
O4 C8 1.278 1_455 S
C5 O6 1.203 . S
C5 O12 1.267 . S
O6 C5 1.203 . S
O7 C0 1.185 1_545 S
O7 Zn3 2.086 . S
C8 O4 1.278 1_655 S
C8 O9 1.211 1_655 S
O9 C8 1.211 1_455 S
C10 O2 1.284 . S
C10 O11 1.273 . S
O11 C10 1.273 . S
O12 Zn3 1.977 . S
O12 C5 1.267 . S
C13 O14 1.160 . S
C13 O20 1.185 . S
O14 C13 1.160 . S
O15 Zn16 1.899 . S
O15 C23 1.284 . S
Zn16 O15 1.899 . S
Zn16 O17 2.029 1_455 S
Zn16 O20 2.086 . S
Zn16 O25 1.977 . S
O17 Zn16 2.029 1_655 S
O17 C21 1.278 . S
C18 O19 1.203 . S
C18 O25 1.267 . S
O19 C18 1.203 . S
O20 C13 1.185 . S
O20 Zn16 2.086 . S
C21 O17 1.278 . S
C21 O22 1.211 1_655 S
O22 C21 1.211 1_455 S
C23 O15 1.284 . S
C23 O24 1.273 1_455 S
O24 C23 1.273 1_655 S
O25 Zn16 1.977 . S
O25 C18 1.267 . S
C26 O27 1.160 . S
C26 O33 1.185 1_545 S
O27 C26 1.160 . S
O28 Zn29 1.899 . S
O28 C36 1.284 1_455 S
Zn29 O28 1.899 . S
Zn29 O30 2.032 . S
Zn29 O33 2.086 1_545 S
Zn29 O38 1.977 1_545 S
O30 Zn29 2.032 . S
O30 C34 1.278 . S
C31 O32 1.203 . S
C31 O38 1.267 1_655 S
O32 C31 1.203 . S
O33 C26 1.185 1_565 S
O33 Zn29 2.086 1_565 S
C34 O30 1.278 . S
C34 O35 1.211 . S
O35 C34 1.211 . S
C36 O28 1.284 1_655 S
C36 O37 1.273 1_655 S
O37 C36 1.273 1_455 S
O38 Zn29 1.977 1_565 S
O38 C31 1.267 1_455 S
C39 C40 1.443 . S
C39 N43 1.376 . S
C39 C77 1.389 . S
C40 C39 1.443 . S
C40 C41 1.340 . S
C40 H80 0.951 . S
C41 C40 1.340 . S
C41 C42 1.439 . S
C41 H81 0.950 . S
C42 C41 1.439 . S
C42 N43 1.374 . S
C42 C76 1.395 . S
N43 C39 1.376 . S
N43 C42 1.374 . S
N43 Co44 2.008 . S
Co44 N43 2.008 . S
Co44 N45 1.995 . S
Co44 N50 2.008 1_455 S
Co44 N55 1.995 1_455 S
Co44 N60 2.282 . S
Co44 N66 2.282 . S
N45 Co44 1.995 . S
N45 C46 1.376 . S
N45 C49 1.383 . S
C46 N45 1.376 . S
C46 C47 1.446 . S
C46 C76 1.391 . S
C47 C46 1.446 . S
C47 C48 1.339 . S
C47 H82 0.949 . S
C48 C47 1.339 . S
C48 C49 1.439 . S
C48 H83 0.950 . S
C49 N45 1.383 . S
C49 C48 1.439 . S
C49 C78 1.392 . S
N50 Co44 2.008 1_655 S
N50 C51 1.376 . S
N50 C54 1.374 . S
C51 N50 1.376 . S
C51 C52 1.443 . S
C51 C78 1.389 1_655 S
C52 C51 1.443 . S
C52 C53 1.340 . S
C52 H84 0.951 . S
C53 C52 1.340 . S
C53 C54 1.439 . S
C53 H85 0.950 . S
C54 N50 1.374 . S
C54 C53 1.439 . S
C54 C79 1.395 . S
N55 Co44 1.995 1_655 S
N55 C56 1.376 . S
N55 C59 1.383 . S
C56 N55 1.376 . S
C56 C57 1.446 . S
C56 C79 1.391 . S
C57 C56 1.446 . S
C57 C58 1.339 . S
C57 H86 0.949 . S
C58 C57 1.339 . S
C58 C59 1.439 . S
C58 H87 0.950 . S
C59 N55 1.383 . S
C59 C58 1.439 . S
C59 C77 1.392 1_655 S
N60 Co44 2.282 . S
N60 C63 1.332 1_455 S
N60 C65 1.332 . S
C61 C62 1.386 1_455 S
C61 C64 1.388 . S
C62 C61 1.386 1_655 S
C62 C63 1.382 . S
C62 H88 0.950 . S
C63 N60 1.332 1_655 S
C63 C62 1.382 . S
C63 H74 0.952 . S
C64 C61 1.388 . S
C64 C65 1.382 . S
C64 H89 0.950 . S
C65 N60 1.332 . S
C65 C64 1.382 . S
C65 H75 0.948 . S
N66 Co44 2.282 . S
N66 C70 1.332 . S
N66 C71 1.332 1_455 S
C67 C68 1.388 1_655 S
C67 C71 1.382 . S
C67 H90 0.950 . S
C68 C67 1.388 1_455 S
C68 C69 1.386 . S
C69 C68 1.386 . S
C69 C70 1.382 . S
C69 H91 0.950 . S
C70 N66 1.332 . S
C70 C69 1.382 . S
C70 H72 0.952 . S
C71 N66 1.332 1_655 S
C71 C67 1.382 . S
C71 H73 0.948 . S
H72 C70 0.952 . S
H73 C71 0.948 . S
H74 C63 0.952 . S
H75 C65 0.948 . S
C76 C42 1.395 . S
C76 C46 1.391 . S
C77 C39 1.389 . S
C77 C59 1.392 1_455 S
C78 C49 1.392 . S
C78 C51 1.389 1_455 S
C79 C54 1.395 . S
C79 C56 1.391 . S
H80 C40 0.951 . S
H81 C41 0.950 . S
H82 C47 0.949 . S
H83 C48 0.950 . S
H84 C52 0.951 . S
H85 C53 0.950 . S
H86 C57 0.949 . S
H87 C58 0.950 . S
H88 C62 0.950 . S
H89 C64 0.950 . S
H90 C67 0.950 . S
H91 C69 0.950 . S
C92 C93 1.443 1_545 S
C92 N96 1.376 . S
C92 C130 1.389 . S
C93 C92 1.443 1_565 S
C93 C94 1.340 . S
C93 H133 0.951 . S
C94 C93 1.340 . S
C94 C95 1.439 . S
C94 H134 0.950 . S
C95 C94 1.439 . S
C95 N96 1.374 1_565 S
C95 C129 1.395 . S
N96 C92 1.376 . S
N96 C95 1.374 1_545 S
N96 Co97 2.008 . S
Co97 N96 2.008 . S
Co97 N98 1.995 . S
Co97 N103 2.008 . S
Co97 N108 1.995 . S
Co97 N113 2.282 . S
Co97 N119 2.282 . S
N98 Co97 1.995 . S
N98 C99 1.376 1_545 S
N98 C102 1.383 . S
C99 N98 1.376 1_565 S
C99 C100 1.446 . S
C99 C129 1.391 . S
C100 C99 1.446 . S
C100 C101 1.339 . S
C100 H135 0.949 . S
C101 C100 1.339 . S
C101 C102 1.439 1_565 S
C101 H136 0.950 . S
C102 N98 1.383 . S
C102 C101 1.439 1_545 S
C102 C131 1.392 . S
N103 Co97 2.008 . S
N103 C104 1.376 . S
N103 C107 1.374 . S
C104 N103 1.376 . S
C104 C105 1.443 . S
C104 C131 1.389 . S
C105 C104 1.443 . S
C105 C106 1.340 . S
C105 H137 0.951 . S
C106 C105 1.340 . S
C106 C107 1.439 . S
C106 H138 0.950 . S
C107 N103 1.374 . S
C107 C106 1.439 . S
C107 C132 1.395 . S
N108 Co97 1.995 . S
N108 C109 1.376 . S
N108 C112 1.383 . S
C109 N108 1.376 . S
C109 C110 1.446 . S
C109 C132 1.391 . S
C110 C109 1.446 . S
C110 C111 1.339 . S
C110 H139 0.949 . S
C111 C110 1.339 . S
C111 C112 1.439 . S
C111 H140 0.950 . S
C112 N108 1.383 . S
C112 C111 1.439 . S
C112 C130 1.392 . S
N113 Co97 2.282 . S
N113 C116 1.332 . S
N113 C118 1.332 . S
C114 C115 1.386 . S
C114 C117 1.388 . S
C115 C114 1.386 . S
C115 C116 1.382 . S
C115 H141 0.950 . S
C116 N113 1.332 . S
C116 C115 1.382 . S
C116 H127 0.952 . S
C117 C114 1.388 . S
C117 C118 1.382 . S
C117 H142 0.950 1_545 S
C118 N113 1.332 . S
C118 C117 1.382 . S
C118 H128 0.934 1_545 S
N119 Co97 2.282 . S
N119 C123 1.332 . S
N119 C124 1.332 . S
C120 C121 1.388 . S
C120 C124 1.382 . S
C120 H143 0.950 . S
C121 C120 1.388 . S
C121 C122 1.386 . S
C122 C121 1.386 . S
C122 C123 1.382 . S
C122 H144 0.950 . S
C123 N119 1.332 . S
C123 C122 1.382 . S
C123 H125 0.952 . S
C124 N119 1.332 . S
C124 C120 1.382 . S
C124 H126 0.948 . S
H125 C123 0.952 . S
H126 C124 0.948 . S
H127 C116 0.952 . S
H128 C118 0.934 1_565 S
C129 C95 1.395 . S
C129 C99 1.391 . S
C130 C92 1.389 . S
C130 C112 1.392 . S
C131 C102 1.392 . S
C131 C104 1.389 . S
C132 C107 1.395 . S
C132 C109 1.391 . S
H133 C93 0.951 . S
H134 C94 0.950 . S
H135 C100 0.949 . S
H136 C101 0.950 . S
H137 C105 0.951 . S
H138 C106 0.950 . S
H139 C110 0.949 . S
H140 C111 0.950 . S
H141 C115 0.950 . S
H142 C117 0.950 1_565 S
H143 C120 0.950 . S
H144 C122 0.950 . S
C145 C146 1.443 . S
C145 N149 1.376 . S
C145 C183 1.389 . S
C146 C145 1.443 . S
C146 C147 1.340 . S
C146 H186 0.951 . S
C147 C146 1.340 . S
C147 C148 1.439 . S
C147 H187 0.950 . S
C148 C147 1.439 . S
C148 N149 1.374 . S
C148 C182 1.395 . S
N149 C145 1.376 . S
N149 C148 1.374 . S
N149 Co150 2.008 . S
Co150 N149 2.008 . S
Co150 N151 1.995 . S
Co150 N156 2.008 . S
Co150 N161 1.995 . S
Co150 N166 2.282 . S
Co150 N172 2.282 . S
N151 Co150 1.995 . S
N151 C152 1.376 . S
N151 C155 1.383 . S
C152 N151 1.376 . S
C152 C153 1.446 . S
C152 C182 1.391 . S
C153 C152 1.446 . S
C153 C154 1.339 . S
C153 H188 0.949 . S
C154 C153 1.339 . S
C154 C155 1.439 . S
C154 H189 0.950 . S
C155 N151 1.383 . S
C155 C154 1.439 . S
C155 C184 1.392 . S
N156 Co150 2.008 . S
N156 C157 1.376 . S
N156 C160 1.374 . S
C157 N156 1.376 . S
C157 C158 1.443 . S
C157 C184 1.389 . S
C158 C157 1.443 . S
C158 C159 1.340 . S
C158 H190 0.951 . S
C159 C158 1.340 . S
C159 C160 1.439 . S
C159 H191 0.950 . S
C160 N156 1.374 . S
C160 C159 1.439 . S
C160 C185 1.395 . S
N161 Co150 1.995 . S
N161 C162 1.376 . S
N161 C165 1.383 . S
C162 N161 1.376 . S
C162 C163 1.446 . S
C162 C185 1.391 . S
C163 C162 1.446 . S
C163 C164 1.339 . S
C163 H192 0.949 . S
C164 C163 1.339 . S
C164 C165 1.439 . S
C164 H193 0.950 . S
C165 N161 1.383 . S
C165 C164 1.439 . S
C165 C183 1.392 . S
N166 Co150 2.282 . S
N166 C169 1.332 . S
N166 C171 1.332 . S
C167 C168 1.386 . S
C167 C170 1.388 . S
C168 C167 1.386 . S
C168 C169 1.382 . S
C168 H194 0.950 . S
C169 N166 1.332 . S
C169 C168 1.382 . S
C169 H180 0.952 . S
C170 C167 1.388 . S
C170 C171 1.382 . S
C170 H195 0.950 . S
C171 N166 1.332 . S
C171 C170 1.382 . S
C171 H181 0.948 . S
N172 Co150 2.282 . S
N172 C176 1.332 . S
N172 C177 1.332 . S
C173 C174 1.388 . S
C173 C177 1.382 . S
C173 H196 0.950 . S
C174 C173 1.388 . S
C174 C175 1.386 . S
C175 C174 1.386 . S
C175 C176 1.382 . S
C175 H197 0.950 . S
C176 N172 1.332 . S
C176 C175 1.382 . S
C176 H178 0.952 . S
C177 N172 1.332 . S
C177 C173 1.382 . S
C177 H179 0.948 . S
H178 C176 0.952 . S
H179 C177 0.948 . S
H180 C169 0.952 . S
H181 C171 0.948 . S
C182 C148 1.395 . S
C182 C152 1.391 . S
C183 C145 1.389 . S
C183 C165 1.392 . S
C184 C155 1.392 . S
C184 C157 1.389 . S
C185 C160 1.395 . S
C185 C162 1.391 . S
H186 C146 0.951 . S
H187 C147 0.950 . S
H188 C153 0.949 . S
H189 C154 0.950 . S
H190 C158 0.951 . S
H191 C159 0.950 . S
H192 C163 0.949 . S
H193 C164 0.950 . S
H194 C168 0.950 . S
H195 C170 0.950 . S
H196 C173 0.950 . S
H197 C175 0.950 . S
C198 C199 1.349 . S
C198 C200 1.327 . S
C198 H223 0.950 1_455 S
C199 C198 1.349 . S
C199 C215 1.349 . S
C200 C198 1.327 . S
C200 C219 1.429 . S
C200 H224 0.950 1_455 S
C201 C218 1.574 . S
C201 C220 1.368 . S
C201 H225 0.949 . S
H202 C206 0.949 . S
C203 C204 1.349 . S
C203 C205 1.327 . S
C203 H226 0.950 . S
C204 C203 1.349 . S
C204 C216 1.349 1_455 S
C205 C203 1.327 . S
C205 C221 1.429 . S
C205 H227 0.950 . S
C206 H202 0.949 . S
C206 C214 1.574 . S
C206 C222 1.368 1_655 S
H207 C215 0.950 . S
H208 C213 0.950 . S
H209 C214 0.949 . S
H210 C216 0.950 . S
H211 C217 0.950 . S
H212 C218 0.949 . S
C213 H208 0.950 . S
C213 C215 1.327 . S
C213 C219 1.429 . S
C214 C206 1.574 . S
C214 H209 0.949 . S
C214 C220 1.368 1_655 S
C215 C199 1.349 . S
C215 H207 0.950 . S
C215 C213 1.327 . S
C216 C204 1.349 1_655 S
C216 H210 0.950 . S
C216 C217 1.327 . S
C217 H211 0.950 . S
C217 C216 1.327 . S
C217 C221 1.429 1_655 S
C218 C201 1.574 . S
C218 H212 0.949 . S
C218 C222 1.368 . S
C219 C200 1.429 . S
C219 C213 1.429 . S
C219 C220 1.523 . S
C220 C201 1.368 . S
C220 C214 1.368 1_455 S
C220 C219 1.523 . S
C221 C205 1.429 . S
C221 C217 1.429 1_455 S
C221 C222 1.523 . S
C222 C206 1.368 1_455 S
C222 C218 1.368 . S
C222 C221 1.523 . S
H223 C198 0.950 1_655 S
H224 C200 0.950 1_655 S
H225 C201 0.949 . S
H226 C203 0.950 . S
H227 C205 0.950 . S
C228 C229 1.349 . S
C228 C230 1.327 . S
C228 H253 0.950 . S
C229 C228 1.349 . S
C229 C245 1.349 . S
C230 C228 1.327 . S
C230 C249 1.429 . S
C230 H254 0.950 . S
C231 C248 1.574 . S
C231 C250 1.368 . S
C231 H255 0.949 . S
H232 C236 0.949 . S
C233 C234 1.349 . S
C233 C235 1.327 . S
C233 H256 0.950 . S
C234 C233 1.349 . S
C234 C246 1.349 . S
C235 C233 1.327 . S
C235 C251 1.429 . S
C235 H257 0.950 . S
C236 H232 0.949 . S
C236 C244 1.574 . S
C236 C252 1.368 . S
H237 C245 0.950 . S
H238 C243 0.950 . S
H239 C244 0.949 . S
H240 C246 0.950 . S
H241 C247 0.950 . S
H242 C248 0.949 . S
C243 H238 0.950 . S
C243 C245 1.327 . S
C243 C249 1.429 . S
C244 C236 1.574 . S
C244 H239 0.949 . S
C244 C250 1.368 . S
C245 C229 1.349 . S
C245 H237 0.950 . S
C245 C243 1.327 . S
C246 C234 1.349 . S
C246 H240 0.950 . S
C246 C247 1.327 . S
C247 H241 0.950 . S
C247 C246 1.327 . S
C247 C251 1.429 . S
C248 C231 1.574 . S
C248 H242 0.949 . S
C248 C252 1.368 . S
C249 C230 1.429 . S
C249 C243 1.429 . S
C249 C250 1.523 . S
C250 C231 1.368 . S
C250 C244 1.368 . S
C250 C249 1.523 . S
C251 C235 1.429 . S
C251 C247 1.429 . S
C251 C252 1.523 . S
C252 C236 1.368 . S
C252 C248 1.368 . S
C252 C251 1.523 . S
H253 C228 0.950 . S
H254 C230 0.950 . S
H255 C231 0.949 . S
H256 C233 0.950 . S
H257 C235 0.950 . S
C258 C259 1.349 . S
C258 C260 1.327 . S
C258 H283 0.950 . S
C259 C258 1.349 . S
C259 C275 1.349 . S
C260 C258 1.327 . S
C260 C279 1.429 . S
C260 H284 0.950 . S
C261 C278 1.574 . S
C261 C280 1.368 . S
C261 H285 0.949 . S
H262 C266 0.949 . S
C263 C264 1.349 . S
C263 C265 1.327 . S
C263 H286 0.950 . S
C264 C263 1.349 . S
C264 C276 1.349 . S
C265 C263 1.327 . S
C265 C281 1.429 . S
C265 H287 0.950 . S
C266 H262 0.949 . S
C266 C274 1.574 . S
C266 C282 1.368 . S
H267 C275 0.950 . S
H268 C273 0.950 . S
H269 C274 0.949 . S
H270 C276 0.950 . S
H271 C277 0.950 . S
H272 C278 0.949 . S
C273 H268 0.950 . S
C273 C275 1.327 . S
C273 C279 1.429 . S
C274 C266 1.574 . S
C274 H269 0.949 . S
C274 C280 1.368 . S
C275 C259 1.349 . S
C275 H267 0.950 . S
C275 C273 1.327 . S
C276 C264 1.349 . S
C276 H270 0.950 . S
C276 C277 1.327 . S
C277 H271 0.950 . S
C277 C276 1.327 . S
C277 C281 1.429 . S
C278 C261 1.574 . S
C278 H272 0.949 . S
C278 C282 1.368 . S
C279 C260 1.429 . S
C279 C273 1.429 . S
C279 C280 1.523 . S
C280 C261 1.368 . S
C280 C274 1.368 . S
C280 C279 1.523 . S
C281 C265 1.429 . S
C281 C277 1.429 . S
C281 C282 1.523 . S
C282 C266 1.368 . S
C282 C278 1.368 . S
C282 C281 1.523 . S
H283 C258 0.950 . S
H284 C260 0.950 . S
H285 C261 0.949 . S
H286 C263 0.950 . S
H287 C265 0.950 . S
C288 C289 1.349 . S
C288 C290 1.327 . S
C288 H313 0.950 . S
C289 C288 1.349 . S
C289 C305 1.349 . S
C290 C288 1.327 . S
C290 C309 1.429 . S
C290 H314 0.950 . S
C291 C308 1.574 . S
C291 C310 1.368 . S
C291 H315 0.949 . S
H292 C296 0.949 . S
C293 C294 1.349 . S
C293 C295 1.327 . S
C293 H316 0.950 . S
C294 C293 1.349 . S
C294 C306 1.349 . S
C295 C293 1.327 . S
C295 C311 1.429 . S
C295 H317 0.950 . S
C296 H292 0.949 . S
C296 C304 1.574 . S
C296 C312 1.368 . S
H297 C305 0.950 . S
H298 C303 0.950 . S
H299 C304 0.949 . S
H300 C306 0.950 1_655 S
H301 C307 0.950 . S
H302 C308 0.949 . S
C303 H298 0.950 . S
C303 C305 1.327 . S
C303 C309 1.429 . S
C304 C296 1.574 . S
C304 H299 0.949 . S
C304 C310 1.368 . S
C305 C289 1.349 . S
C305 H297 0.950 . S
C305 C303 1.327 . S
C306 C294 1.349 . S
C306 H300 0.950 1_455 S
C306 C307 1.327 . S
C307 H301 0.950 . S
C307 C306 1.327 . S
C307 C311 1.429 . S
C308 C291 1.574 . S
C308 H302 0.949 . S
C308 C312 1.368 . S
C309 C290 1.429 . S
C309 C303 1.429 . S
C309 C310 1.523 . S
C310 C291 1.368 . S
C310 C304 1.368 . S
C310 C309 1.523 . S
C311 C295 1.429 . S
C311 C307 1.429 . S
C311 C312 1.523 . S
C312 C296 1.368 . S
C312 C308 1.368 . S
C312 C311 1.523 . S
H313 C288 0.950 . S
H314 C290 0.950 . S
H315 C291 0.949 . S
H316 C293 0.950 . S
H317 C295 0.950 . S
C318 C319 1.349 . S
C318 C320 1.327 . S
C318 H343 0.950 . S
C319 C318 1.349 . S
C319 C335 1.349 . S
C320 C318 1.327 . S
C320 C339 1.429 . S
C320 H344 0.950 . S
C321 C338 1.574 . S
C321 C340 1.368 . S
C321 H345 0.949 . S
H322 C326 0.949 . S
C323 C324 1.349 . S
C323 C325 1.327 . S
C323 H346 0.950 . S
C324 C323 1.349 . S
C324 C336 1.349 . S
C325 C323 1.327 . S
C325 C341 1.429 . S
C325 H347 0.950 . S
C326 H322 0.949 . S
C326 C334 1.574 . S
C326 C342 1.368 . S
H327 C335 0.950 . S
H328 C333 0.950 . S
H329 C334 0.949 . S
H330 C336 0.950 . S
H331 C337 0.950 . S
H332 C338 0.949 . S
C333 H328 0.950 . S
C333 C335 1.327 . S
C333 C339 1.429 . S
C334 C326 1.574 . S
C334 H329 0.949 . S
C334 C340 1.368 . S
C335 C319 1.349 . S
C335 H327 0.950 . S
C335 C333 1.327 . S
C336 C324 1.349 . S
C336 H330 0.950 . S
C336 C337 1.327 . S
C337 H331 0.950 . S
C337 C336 1.327 . S
C337 C341 1.429 . S
C338 C321 1.574 . S
C338 H332 0.949 . S
C338 C342 1.368 . S
C339 C320 1.429 . S
C339 C333 1.429 . S
C339 C340 1.523 . S
C340 C321 1.368 . S
C340 C334 1.368 . S
C340 C339 1.523 . S
C341 C325 1.429 . S
C341 C337 1.429 . S
C341 C342 1.523 . S
C342 C326 1.368 . S
C342 C338 1.368 . S
C342 C341 1.523 . S
H343 C318 0.950 . S
H344 C320 0.950 . S
H345 C321 0.949 . S
H346 C323 0.950 . S
H347 C325 0.950 . S
C348 C349 1.349 . S
C348 C350 1.327 . S
C348 H373 0.950 . S
C349 C348 1.349 . S
C349 C365 1.349 . S
C350 C348 1.327 . S
C350 C369 1.429 . S
C350 H374 0.950 . S
C351 C368 1.574 . S
C351 C370 1.368 . S
C351 H375 0.949 . S
H352 C356 0.949 . S
C353 C354 1.349 . S
C353 C355 1.327 . S
C353 H376 0.950 . S
C354 C353 1.349 . S
C354 C366 1.349 . S
C355 C353 1.327 . S
C355 C371 1.429 . S
C355 H377 0.950 . S
C356 H352 0.949 . S
C356 C364 1.574 . S
C356 C372 1.368 . S
H357 C365 0.950 . S
H358 C363 0.950 . S
H359 C364 0.949 . S
H360 C366 0.950 . S
H361 C367 0.950 . S
H362 C368 0.949 . S
C363 H358 0.950 . S
C363 C365 1.327 . S
C363 C369 1.429 . S
C364 C356 1.574 . S
C364 H359 0.949 . S
C364 C370 1.368 . S
C365 C349 1.349 . S
C365 H357 0.950 . S
C365 C363 1.327 . S
C366 C354 1.349 . S
C366 H360 0.950 . S
C366 C367 1.327 . S
C367 H361 0.950 . S
C367 C366 1.327 . S
C367 C371 1.429 . S
C368 C351 1.574 . S
C368 H362 0.949 . S
C368 C372 1.368 . S
C369 C350 1.429 . S
C369 C363 1.429 . S
C369 C370 1.523 . S
C370 C351 1.368 . S
C370 C364 1.368 . S
C370 C369 1.523 . S
C371 C355 1.429 . S
C371 C367 1.429 . S
C371 C372 1.523 . S
C372 C356 1.368 . S
C372 C368 1.368 . S
C372 C371 1.523 . S
H373 C348 0.950 . S
H374 C350 0.950 . S
H375 C351 0.949 . S
H376 C353 0.950 . S
H377 C355 0.950 . S
C378 C379 1.349 . S
C378 C380 1.327 . S
C378 H403 0.950 1_545 S
C379 C378 1.349 . S
C379 C395 1.349 . S
C380 C378 1.327 . S
C380 C399 1.429 . S
C380 H404 0.950 1_545 S
C381 C398 1.574 . S
C381 C400 1.368 . S
C381 H405 0.949 . S
H382 C386 0.949 1_565 S
C383 C384 1.349 . S
C383 C385 1.327 . S
C383 H406 0.950 . S
C384 C383 1.349 . S
C384 C396 1.349 . S
C385 C383 1.327 . S
C385 C401 1.429 . S
C385 H407 0.950 . S
C386 H382 0.949 1_545 S
C386 C394 1.574 . S
C386 C402 1.368 . S
H387 C395 0.950 1_455 S
H388 C393 0.950 . S
H389 C394 0.949 1_565 S
H390 C396 0.950 . S
H391 C397 0.966 . S
H392 C398 0.949 . S
C393 H388 0.950 . S
C393 C395 1.327 . S
C393 C399 1.429 . S
C394 C386 1.574 . S
C394 H389 0.949 1_545 S
C394 C400 1.368 . S
C395 C379 1.349 . S
C395 H387 0.950 1_655 S
C395 C393 1.327 . S
C396 C384 1.349 . S
C396 H390 0.950 . S
C396 C397 1.327 . S
C397 H391 0.966 . S
C397 C396 1.327 . S
C397 C401 1.429 . S
C398 C381 1.574 . S
C398 H392 0.949 . S
C398 C402 1.368 . S
C399 C380 1.429 . S
C399 C393 1.429 . S
C399 C400 1.523 . S
C400 C381 1.368 . S
C400 C394 1.368 . S
C400 C399 1.523 . S
C401 C385 1.429 . S
C401 C397 1.429 . S
C401 C402 1.523 . S
C402 C386 1.368 . S
C402 C398 1.368 . S
C402 C401 1.523 . S
H403 C378 0.950 1_565 S
H404 C380 0.950 1_565 S
H405 C381 0.949 . S
H406 C383 0.950 . S
H407 C385 0.950 . S
C408 C409 1.349 . S
C408 C410 1.327 1_554 S
C408 H433 0.950 1_565 S
C409 C408 1.349 . S
C409 C425 1.349 . S
C410 C408 1.327 1_556 S
C410 C429 1.429 . S
C410 H434 0.950 . S
C411 C428 1.574 . S
C411 C430 1.368 . S
C411 H435 0.949 . S
H412 C416 0.949 . S
C413 C414 1.349 . S
C413 C415 1.327 . S
C413 H436 0.950 . S
C414 C413 1.349 . S
C414 C426 1.349 . S
C415 C413 1.327 . S
C415 C431 1.429 . S
C415 H437 0.950 . S
C416 H412 0.949 . S
C416 C424 1.574 . S
C416 C432 1.368 . S
H417 C425 0.950 . S
H418 C423 0.950 . S
H419 C424 0.949 . S
H420 C426 0.950 . S
H421 C427 0.950 . S
H422 C428 0.949 . S
C423 H418 0.950 . S
C423 C425 1.327 . S
C423 C429 1.429 1_554 S
C424 C416 1.574 . S
C424 H419 0.949 . S
C424 C430 1.368 . S
C425 C409 1.349 . S
C425 H417 0.950 . S
C425 C423 1.327 . S
C426 C414 1.349 . S
C426 H420 0.950 . S
C426 C427 1.327 . S
C427 H421 0.950 . S
C427 C426 1.327 . S
C427 C431 1.429 . S
C428 C411 1.574 . S
C428 H422 0.949 . S
C428 C432 1.368 . S
C429 C410 1.429 . S
C429 C423 1.429 1_556 S
C429 C430 1.523 . S
C430 C411 1.368 . S
C430 C424 1.368 . S
C430 C429 1.523 . S
C431 C415 1.429 . S
C431 C427 1.429 . S
C431 C432 1.523 . S
C432 C416 1.368 . S
C432 C428 1.368 . S
C432 C431 1.523 . S
H433 C408 0.950 1_545 S
H434 C410 0.950 . S
H435 C411 0.949 . S
H436 C413 0.950 . S
H437 C415 0.950 . S
C438 C439 1.349 . S
C438 C440 1.327 . S
C438 H463 0.950 1_565 S
C439 C438 1.349 . S
C439 C455 1.349 1_455 S
C440 C438 1.327 . S
C440 C459 1.429 . S
C440 H464 0.950 . S
C441 C458 1.574 . S
C441 C460 1.368 1_655 S
C441 H465 0.949 . S
H442 C446 0.949 . S
C443 C444 1.349 1_655 S
C443 C445 1.327 . S
C443 H466 0.950 . S
C444 C443 1.349 1_455 S
C444 C456 1.349 . S
C445 C443 1.327 . S
C445 C461 1.429 1_655 S
C445 H467 0.950 . S
C446 H442 0.949 . S
C446 C454 1.574 . S
C446 C462 1.368 . S
H447 C455 0.950 . S
H448 C453 0.950 . S
H449 C454 0.949 . S
H450 C456 0.950 . S
H451 C457 0.950 . S
H452 C458 0.949 . S
C453 H448 0.950 . S
C453 C455 1.327 . S
C453 C459 1.429 1_655 S
C454 C446 1.574 . S
C454 H449 0.949 . S
C454 C460 1.368 . S
C455 C439 1.349 1_655 S
C455 H447 0.950 . S
C455 C453 1.327 . S
C456 C444 1.349 . S
C456 H450 0.950 . S
C456 C457 1.327 . S
C457 H451 0.950 . S
C457 C456 1.327 . S
C457 C461 1.429 . S
C458 C441 1.574 . S
C458 H452 0.949 . S
C458 C462 1.368 1_655 S
C459 C440 1.429 . S
C459 C453 1.429 1_455 S
C459 C460 1.523 . S
C460 C441 1.368 1_455 S
C460 C454 1.368 . S
C460 C459 1.523 . S
C461 C445 1.429 1_455 S
C461 C457 1.429 . S
C461 C462 1.523 . S
C462 C446 1.368 . S
C462 C458 1.368 1_455 S
C462 C461 1.523 . S
H463 C438 0.950 1_545 S
H464 C440 0.950 . S
H465 C441 0.949 . S
H466 C443 0.950 . S
H467 C445 0.950 . S
C468 C469 1.349 1_565 S
C468 C470 1.327 . S
C468 H493 0.950 . S
C469 C468 1.349 1_545 S
C469 C485 1.349 . S
C470 C468 1.327 . S
C470 C489 1.429 1_565 S
C470 H494 0.950 . S
C471 C488 1.574 . S
C471 C490 1.368 . S
C471 H495 0.949 . S
H472 C476 0.949 1_565 S
C473 C474 1.349 . S
C473 C475 1.327 . S
C473 H496 0.950 . S
C474 C473 1.349 . S
C474 C486 1.349 . S
C475 C473 1.327 . S
C475 C491 1.429 . S
C475 H497 0.950 . S
C476 H472 0.949 1_545 S
C476 C484 1.569 . S
C476 C492 1.368 . S
H477 C485 0.950 . S
H478 C483 0.950 . S
H479 C484 0.944 1_565 S
H480 C486 0.950 . S
H481 C487 0.950 1_565 S
H482 C488 0.949 . S
C483 H478 0.950 . S
C483 C485 1.327 . S
C483 C489 1.429 . S
C484 C476 1.569 . S
C484 H479 0.944 1_545 S
C484 C490 1.379 . S
C485 C469 1.349 . S
C485 H477 0.950 . S
C485 C483 1.327 . S
C486 C474 1.349 . S
C486 H480 0.950 . S
C486 C487 1.327 . S
C487 H481 0.950 1_545 S
C487 C486 1.327 . S
C487 C491 1.429 . S
C488 C471 1.574 . S
C488 H482 0.949 . S
C488 C492 1.368 . S
C489 C470 1.429 1_545 S
C489 C483 1.429 . S
C489 C490 1.523 . S
C490 C471 1.368 . S
C490 C484 1.379 . S
C490 C489 1.523 . S
C491 C475 1.429 . S
C491 C487 1.429 . S
C491 C492 1.523 . S
C492 C476 1.368 . S
C492 C488 1.368 . S
C492 C491 1.523 . S
H493 C468 0.950 . S
H494 C470 0.950 . S
H495 C471 0.949 . S
H496 C473 0.950 . S
H497 C475 0.950 . S
C498 C499 1.349 . S
C498 C500 1.327 1_554 S
C498 H523 0.950 . S
C499 C498 1.349 . S
C499 C515 1.349 . S
C500 C498 1.327 1_556 S
C500 C519 1.429 . S
C500 H524 0.950 . S
C501 C518 1.574 . S
C501 C520 1.368 . S
C501 H525 0.949 . S
H502 C506 0.949 . S
C503 C504 1.349 . S
C503 C505 1.327 . S
C503 H526 0.950 . S
C504 C503 1.349 . S
C504 C516 1.349 . S
C505 C503 1.327 . S
C505 C521 1.429 . S
C505 H527 0.950 . S
C506 H502 0.949 . S
C506 C514 1.574 . S
C506 C522 1.368 . S
H507 C515 0.950 . S
H508 C513 0.950 . S
H509 C514 0.949 . S
H510 C516 0.950 . S
H511 C517 0.950 . S
H512 C518 0.949 . S
C513 H508 0.950 . S
C513 C515 1.327 1_556 S
C513 C519 1.429 . S
C514 C506 1.574 . S
C514 H509 0.949 . S
C514 C520 1.368 . S
C515 C499 1.349 . S
C515 H507 0.950 . S
C515 C513 1.327 1_554 S
C516 C504 1.349 . S
C516 H510 0.950 . S
C516 C517 1.327 . S
C517 H511 0.950 . S
C517 C516 1.327 . S
C517 C521 1.429 . S
C518 C501 1.574 . S
C518 H512 0.949 . S
C518 C522 1.368 . S
C519 C500 1.429 . S
C519 C513 1.429 . S
C519 C520 1.523 . S
C520 C501 1.368 . S
C520 C514 1.368 . S
C520 C519 1.523 . S
C521 C505 1.429 . S
C521 C517 1.429 . S
C521 C522 1.523 . S
C522 C506 1.368 . S
C522 C518 1.368 . S
C522 C521 1.523 . S
H523 C498 0.950 . S
H524 C500 0.950 . S
H525 C501 0.949 . S
H526 C503 0.950 . S
H527 C505 0.950 . S
C528 C529 1.349 . S
C528 C530 1.327 . S
C528 H553 0.950 1_455 S
C529 C528 1.349 . S
C529 C545 1.349 . S
C530 C528 1.327 . S
C530 C549 1.429 . S
C530 H554 0.950 1_455 S
C531 C548 1.574 . S
C531 C550 1.368 . S
C531 H555 0.949 . S
H532 C536 0.949 . S
C533 C534 1.349 . S
C533 C535 1.327 . S
C533 H556 0.950 . S
C534 C533 1.349 . S
C534 C546 1.349 1_455 S
C535 C533 1.327 . S
C535 C551 1.429 . S
C535 H557 0.950 . S
C536 H532 0.949 . S
C536 C544 1.574 1_655 S
C536 C552 1.368 1_655 S
H537 C545 0.950 . S
H538 C543 0.950 . S
H539 C544 0.949 1_655 S
H540 C546 0.950 . S
H541 C547 0.950 . S
H542 C548 0.949 . S
C543 H538 0.950 . S
C543 C545 1.327 . S
C543 C549 1.429 . S
C544 C536 1.574 1_455 S
C544 H539 0.949 1_455 S
C544 C550 1.368 . S
C545 C529 1.349 . S
C545 H537 0.950 . S
C545 C543 1.327 . S
C546 C534 1.349 1_655 S
C546 H540 0.950 . S
C546 C547 1.327 . S
C547 H541 0.950 . S
C547 C546 1.327 . S
C547 C551 1.429 1_655 S
C548 C531 1.574 . S
C548 H542 0.949 . S
C548 C552 1.368 . S
C549 C530 1.429 . S
C549 C543 1.429 . S
C549 C550 1.523 . S
C550 C531 1.368 . S
C550 C544 1.368 . S
C550 C549 1.523 . S
C551 C535 1.429 . S
C551 C547 1.429 1_455 S
C551 C552 1.523 . S
C552 C536 1.368 1_455 S
C552 C548 1.368 . S
C552 C551 1.523 . S
H553 C528 0.950 1_655 S
H554 C530 0.950 1_655 S
H555 C531 0.949 . S
H556 C533 0.950 . S
H557 C535 0.950 . S
C204 C61 1.392 . S
C199 C10 1.391 . S
C229 C21 1.408 . S
C234 C131 1.438 . S
C259 C31 1.355 . S
C264 C183 1.418 . S
C289 C0 1.361 . S
C294 C77 1.403 . S
C324 C121 1.420 . S
C319 C18 1.363 . S
C349 C34 1.381 . S
C354 C167 1.408 . S
C384 C114 1.370 . S
C379 C36 1.369 . S
C409 C8 1.381 1_565 S
C414 C174 1.408 . S
C444 C68 1.394 . S
C439 C23 1.393 1_565 S
C474 C130 1.345 . S
C469 C26 1.304 . S
C504 C184 1.420 . S
C499 C5 1.355 . S
C529 C13 1.361 . S
C534 C78 1.404 . S
