# Generated by pormake.
# Topology zzz, (3,6)-cn, num edge types: 1
# Building blocks:
#     Node 0, Type 0, BuildingBlock: WUSLED_clean_sbu_0, # of connection points: 3
#     Node 1, Type 0, BuildingBlock: WUSLED_clean_sbu_0, # of connection points: 3
#     Node 2, Type 0, BuildingBlock: WUSLED_clean_sbu_0, # of connection points: 3
#     Node 3, Type 0, BuildingBlock: WUSLED_clean_sbu_0, # of connection points: 3
#     Node 4, Type 0, BuildingBlock: WUSLED_clean_sbu_0, # of connection points: 3
#     Node 5, Type 0, BuildingBlock: WUSLED_clean_sbu_0, # of connection points: 3
#     Node 6, Type 0, BuildingBlock: WUSLED_clean_sbu_0, # of connection points: 3
#     Node 7, Type 0, BuildingBlock: WUSLED_clean_sbu_0, # of connection points: 3
#     Node 8, Type 1, BuildingBlock: PAMTOO_clean_sbu_0, # of connection points: 6
#     Node 9, Type 1, BuildingBlock: PAMTOO_clean_sbu_0, # of connection points: 6
#     Node 10, Type 1, BuildingBlock: PAMTOO_clean_sbu_0, # of connection points: 6
#     Node 11, Type 1, BuildingBlock: PAMTOO_clean_sbu_0, # of connection points: 6
#     Edge 12, Type (0, 1), BuildingBlock: XIVTED_clean_linker_0, # of connection points: 2
#     Edge 13, Type (0, 1), BuildingBlock: XIVTED_clean_linker_0, # of connection points: 2
#     Edge 14, Type (0, 1), BuildingBlock: XIVTED_clean_linker_0, # of connection points: 2
#     Edge 15, Type (0, 1), BuildingBlock: XIVTED_clean_linker_0, # of connection points: 2
#     Edge 16, Type (0, 1), BuildingBlock: XIVTED_clean_linker_0, # of connection points: 2
#     Edge 17, Type (0, 1), BuildingBlock: XIVTED_clean_linker_0, # of connection points: 2
#     Edge 18, Type (0, 1), BuildingBlock: XIVTED_clean_linker_0, # of connection points: 2
#     Edge 19, Type (0, 1), BuildingBlock: XIVTED_clean_linker_0, # of connection points: 2
#     Edge 20, Type (0, 1), BuildingBlock: XIVTED_clean_linker_0, # of connection points: 2
#     Edge 21, Type (0, 1), BuildingBlock: XIVTED_clean_linker_0, # of connection points: 2
#     Edge 22, Type (0, 1), BuildingBlock: XIVTED_clean_linker_0, # of connection points: 2
#     Edge 23, Type (0, 1), BuildingBlock: XIVTED_clean_linker_0, # of connection points: 2
#     Edge 24, Type (0, 1), BuildingBlock: XIVTED_clean_linker_0, # of connection points: 2
#     Edge 25, Type (0, 1), BuildingBlock: XIVTED_clean_linker_0, # of connection points: 2
#     Edge 26, Type (0, 1), BuildingBlock: XIVTED_clean_linker_0, # of connection points: 2
#     Edge 27, Type (0, 1), BuildingBlock: XIVTED_clean_linker_0, # of connection points: 2
#     Edge 28, Type (0, 1), BuildingBlock: XIVTED_clean_linker_0, # of connection points: 2
#     Edge 29, Type (0, 1), BuildingBlock: XIVTED_clean_linker_0, # of connection points: 2
#     Edge 30, Type (0, 1), BuildingBlock: XIVTED_clean_linker_0, # of connection points: 2
#     Edge 31, Type (0, 1), BuildingBlock: XIVTED_clean_linker_0, # of connection points: 2
#     Edge 32, Type (0, 1), BuildingBlock: XIVTED_clean_linker_0, # of connection points: 2
#     Edge 33, Type (0, 1), BuildingBlock: XIVTED_clean_linker_0, # of connection points: 2
#     Edge 34, Type (0, 1), BuildingBlock: XIVTED_clean_linker_0, # of connection points: 2
#     Edge 35, Type (0, 1), BuildingBlock: XIVTED_clean_linker_0, # of connection points: 2
# Relax obj value: 0.325
# Max RMSD: 0.266
# Mean RMSD: 0.212
data_MOF--net-zzz--node1-WUSLED_clean_sbu_0--node2-PAMTOO_clean_sbu_0--edge1-XIVTED_clean_linker_0
_symmetry_space_group_name_H-M    P1
_symmetry_Int_Tables_number       1
_symmetry_cell_setting            triclinic
loop_
_symmetry_equiv_pos_as_xyz
'x, y, z'
_cell_length_a     68.896559
_cell_length_b     60.407644
_cell_length_c     22.41474
_cell_angle_alpha  91.174228
_cell_angle_beta   82.697537
_cell_angle_gamma 84.875376
loop_
_atom_site_label
_atom_site_type_symbol
_atom_site_fract_x
_atom_site_fract_y
_atom_site_fract_z
_atom_type_partial_charge
C0 C 0.79718 0.53711 0.56741 0.0
C1 C 0.81351 0.54039 0.52529 0.0
C2 C 0.83571 0.53593 0.60285 0.0
C3 C 0.8325 0.53987 0.54279 0.0
C4 C 0.81919 0.53284 0.64489 0.0
C5 C 0.80025 0.53346 0.6274 0.0
U6 U 0.75877 0.54093 0.45298 0.0
O7 O 0.73507 0.51927 0.44434 0.0
O8 O 0.72778 0.55505 0.46006 0.0
C9 C 0.72147 0.53601 0.44522 0.0
C10 C 0.77699 0.53662 0.54991 0.0
C11 C 0.7091 0.53607 0.39482 0.0
C12 C 0.67789 0.5292 0.35975 0.0
C13 C 0.68973 0.53032 0.40622 0.0
C14 C 0.70448 0.53979 0.28848 0.0
C15 C 0.68502 0.53366 0.29972 0.0
C16 C 0.71636 0.54093 0.33531 0.0
C17 C 0.79412 0.5519 0.30383 0.0
C18 C 0.80515 0.54928 0.19734 0.0
C19 C 0.82881 0.55042 0.26882 0.0
C20 C 0.81348 0.55223 0.31638 0.0
C21 C 0.82466 0.54789 0.20929 0.0
C22 C 0.78998 0.55129 0.24446 0.0
C23 C 0.77794 0.54863 0.34951 0.0
O24 O 0.76819 0.55554 0.53483 0.0
O25 O 0.77423 0.51983 0.51468 0.0
O26 O 0.77638 0.52844 0.36911 0.0
O27 O 0.77068 0.56483 0.38817 0.0
H28 H 0.81163 0.54312 0.47869 0.0
H29 H 0.84474 0.54205 0.50874 0.0
H30 H 0.82085 0.53007 0.69163 0.0
H31 H 0.78793 0.53089 0.66091 0.0
H32 H 0.66299 0.52492 0.37136 0.0
H33 H 0.6837 0.52651 0.45147 0.0
H34 H 0.71076 0.54321 0.24323 0.0
H35 H 0.73129 0.54533 0.32485 0.0
H36 H 0.80169 0.54743 0.15178 0.0
H37 H 0.84384 0.54924 0.27875 0.0
H38 H 0.81675 0.55257 0.36238 0.0
H39 H 0.775 0.55087 0.23459 0.0
C40 C 1.00726 0.75381 0.51016 0.0
C41 C 0.01279 0.77056 0.47057 0.0
C42 C 1.00645 0.79863 0.55265 0.0
C43 C 0.0125 0.79262 0.49156 0.0
C44 C 1.00084 0.78174 0.59209 0.0
C45 C 1.00126 0.75961 0.57103 0.0
U46 U 1.00461 0.71464 0.37964 0.0
O47 O 0.02216 0.68341 0.34759 0.0
O48 O 0.99017 0.68387 0.36945 0.0
C49 C 1.00667 0.67216 0.34776 0.0
C50 C 1.00744 0.7305 0.48773 0.0
C51 C 1.0061 0.65788 0.29372 0.0
C52 C 1.00815 0.62064 0.24812 0.0
C53 C 1.00819 0.6347 0.29857 0.0
C54 C 1.00379 0.6528 0.18686 0.0
C55 C 1.006 0.62946 0.1914 0.0
C56 C 1.00385 0.66687 0.23749 0.0
C57 C 0.99818 0.75248 0.24031 0.0
C58 C 0.01214 0.75354 0.13571 0.0
C59 C 0.98865 0.78347 0.18036 0.0
C60 C 0.9868 0.77249 0.2344 0.0
C61 C 1.00197 0.77458 0.13133 0.0
C62 C 0.01025 0.74249 0.19007 0.0
C63 C 1.00006 0.74549 0.30147 0.0
O64 O 0.99079 0.72498 0.47148 0.0
O65 O 0.02278 0.72324 0.44908 0.0
O66 O 0.01736 0.73662 0.31211 0.0
O67 O 0.98508 0.73716 0.33252 0.0
H68 H 0.0174 0.76658 0.42325 0.0
H69 H 0.01726 0.80491 0.45978 0.0
H70 H 0.99582 0.78562 0.63918 0.0
H71 H 0.99677 0.74702 0.6023 0.0
H72 H 0.01019 0.60285 0.25346 0.0
H73 H 0.01003 0.62742 0.34151 0.0
H74 H 1.00182 0.66025 0.14427 0.0
H75 H 1.00219 0.68473 0.23275 0.0
H76 H 0.02242 0.74631 0.09832 0.0
H77 H 0.98089 0.79982 0.17874 0.0
H78 H 0.97764 0.78056 0.27307 0.0
H79 H 0.01919 0.72703 0.19397 0.0
C80 C 0.73316 0.00452 0.41108 0.0
C81 C 0.71714 0.00736 0.37819 0.0
C82 C 0.6939 0.00389 0.46957 0.0
C83 C 0.69778 0.00699 0.40695 0.0
C84 C 0.71012 1.00121 0.50215 0.0
C85 C 0.72941 1.00146 0.47326 0.0
U86 U 0.77732 0.00569 0.27994 0.0
O87 O 0.80389 0.02354 0.28071 0.0
O88 O 0.80649 0.98713 0.2754 0.0
C89 C 0.8158 0.00522 0.27097 0.0
C90 C 0.75391 0.00478 0.3829 0.0
C91 C 0.83186 0.0054 0.21992 0.0
C92 C 0.86579 0.01168 0.18393 0.0
C93 C 0.85017 0.01183 0.23073 0.0
C94 C 0.84499 0.99888 0.11377 0.0
C95 C 0.86353 0.00516 0.12458 0.0
C96 C 0.82934 0.99904 0.16082 0.0
C97 C 0.74627 0.00728 0.14674 0.0
C98 C 0.73253 0.00614 0.05318 0.0
C99 C 0.71109 0.01002 0.14839 0.0
C100 C 0.72744 0.00948 0.17914 0.0
C101 C 0.71359 0.00837 0.08517 0.0
C102 C 0.74879 0.00561 0.08393 0.0
C103 C 0.76377 0.00686 0.17637 0.0
O104 O 0.76205 0.98681 0.35213 0.0
O105 O 0.75906 0.02324 0.35785 0.0
O106 O 0.76588 0.02487 0.20791 0.0
O107 O 0.76876 0.98822 0.20204 0.0
H108 H 0.71959 0.00981 0.33035 0.0
H109 H 0.68588 0.0088 0.37968 0.0
H110 H 0.708 0.99922 0.55035 0.0
H111 H 0.74149 0.99935 0.49984 0.0
H112 H 0.87977 0.0163 0.19479 0.0
H113 H 0.85249 0.0168 0.27581 0.0
H114 H 0.84246 0.99407 0.06882 0.0
H115 H 0.8153 0.99414 0.15105 0.0
H116 H 0.73477 0.00457 1.00449 0.0
H117 H 0.69655 0.01201 0.17385 0.0
H118 H 0.72545 0.01091 0.22768 0.0
H119 H 0.76336 0.00388 0.05865 0.0
C120 C 0.55826 0.69767 0.29781 0.0
C121 C 0.55727 0.67641 0.27224 0.0
C122 C 0.55547 0.66032 0.37191 0.0
C123 C 0.55598 0.65786 0.30901 0.0
C124 C 0.55695 0.6816 0.3967 0.0
C125 C 0.55834 0.70001 0.36006 0.0
U126 U 0.56012 0.72934 0.14868 0.0
O127 O 0.54157 0.75953 0.13114 0.0
O128 O 0.5736 0.76033 0.12452 0.0
C129 C 0.55657 0.77149 0.12032 0.0
C130 C 0.55809 0.71791 0.26184 0.0
C131 C 0.55561 0.78858 0.07408 0.0
C132 C 0.55071 0.82803 0.05421 0.0
C133 C 0.55244 0.81086 0.09451 0.0
C134 C 0.55524 0.80102 0.97119 0.0
C135 C 0.55196 0.82336 0.99229 0.0
C136 C 0.55716 0.78367 0.0119 0.0
C137 C 0.56743 0.68021 0.02053 0.0
C138 C 0.57306 0.66863 0.91531 0.0
C139 C 0.56487 0.64199 0.9921 0.0
C140 C 0.56393 0.65856 0.03657 0.0
C141 C 0.56886 0.64704 0.93102 0.0
C142 C 0.57254 0.68512 0.96011 0.0
C143 C 0.5648 0.69786 0.0666 0.0
O144 O 0.57464 0.72158 0.22905 0.0
O145 O 0.54262 0.72218 0.23385 0.0
O146 O 0.54724 0.70581 0.09201 0.0
O147 O 0.57984 0.70686 0.08443 0.0
H148 H 0.55711 0.67425 0.2242 0.0
H149 H 0.55472 0.64175 0.28849 0.0
H150 H 0.55688 0.68409 0.44471 0.0
H151 H 0.55911 0.71624 0.38066 0.0
H152 H 0.54802 0.84505 0.07159 0.0
H153 H 0.5511 0.81503 0.14221 0.0
H154 H 0.55625 0.79705 0.92349 0.0
H155 H 0.55962 0.76658 0.99506 0.0
H156 H 0.57603 0.67286 0.86851 0.0
H157 H 0.56123 0.62556 0.00541 0.0
H158 H 0.55996 0.65463 0.08325 0.0
H159 H 0.57532 0.70188 0.94753 0.0
C160 C 0.23097 0.4603 0.88395 0.0
C161 C 0.2175 0.44524 0.90546 0.0
C162 C 0.19293 0.46182 0.84437 0.0
C163 C 0.19879 0.44592 0.88576 0.0
C164 C 0.20669 0.4767 0.82296 0.0
C165 C 0.22534 0.47586 0.84222 0.0
U166 U 0.27135 0.45412 0.99423 0.0
O167 O 0.30268 0.44113 0.97966 0.0
O168 O 0.29456 0.47659 0.99956 0.0
C169 C 0.30864 0.46028 0.99524 0.0
C170 C 0.25113 0.46016 0.90211 0.0
C171 C 0.32132 0.46006 0.04446 0.0
C172 C 0.35191 0.46871 0.08019 0.0
C173 C 0.34027 0.46708 0.03343 0.0
C174 C 0.32603 0.45577 0.15023 0.0
C175 C 0.34495 0.46325 0.13947 0.0
C176 C 0.31431 0.45432 0.10339 0.0
C177 C 0.23535 0.44105 0.13435 0.0
C178 C 0.21894 0.43921 0.23554 0.0
C179 C 0.20054 0.45192 0.15519 0.0
C180 C 0.21754 0.44831 0.11398 0.0
C181 C 0.20146 0.44847 0.21667 0.0
C182 C 0.23582 0.43546 0.1944 0.0
C183 C 0.254 0.44403 0.09913 0.0
O184 O 0.25409 0.47628 0.93922 0.0
O185 O 0.26034 0.44093 0.91332 0.0
O186 O 0.26116 0.42881 0.05747 0.0
O187 O 0.25618 0.46452 0.08291 0.0
H188 H 0.22141 0.43291 0.93734 0.0
H189 H 0.18905 0.43377 0.90282 0.0
H190 H 0.20303 0.48949 0.7921 0.0
H191 H 0.23544 0.4876 0.82452 0.0
H192 H 0.36644 0.47426 0.06982 0.0
H193 H 0.346 0.47168 0.98858 0.0
H194 H 0.32006 0.45162 0.19524 0.0
H195 H 0.29965 0.44908 0.11341 0.0
H196 H 0.21985 0.43627 0.28268 0.0
H197 H 0.18716 0.45917 0.13987 0.0
H198 H 0.21712 0.45287 0.06761 0.0
H199 H 0.24959 0.43 0.2105 0.0
C200 C 0.03225 0.24749 0.94512 0.0
C201 C 0.03527 0.22918 0.98143 0.0
C202 C 0.03098 0.20347 0.89881 0.0
C203 C 0.03471 0.20743 0.95851 0.0
C204 C 0.02815 0.222 0.86266 0.0
C205 C 0.0288 0.24367 0.88556 0.0
U206 U 0.03429 0.29432 0.0669 0.0
O207 O 0.01638 0.32654 0.07586 0.0
O208 O 0.04843 0.32569 0.05899 0.0
C209 C 0.03179 0.33785 0.07641 0.0
C210 C 0.03222 0.27073 0.96784 0.0
C211 C 0.03149 0.35195 0.13139 0.0
C212 C 0.03028 0.38828 0.18158 0.0
C213 C 0.03109 0.37515 0.1287 0.0
C214 C 0.03022 0.35514 0.24042 0.0
C215 C 0.02981 0.37846 0.23829 0.0
C216 C 0.0311 0.34209 0.18769 0.0
C217 C 0.03807 0.25629 0.20649 0.0
C218 C 0.03144 0.2417 0.30588 0.0
C219 C 0.03996 0.21656 0.21873 0.0
C220 C 0.04184 0.2347 0.18141 0.0
C221 C 0.03415 0.21997 0.28109 0.0
C222 C 0.03341 0.2597 0.26875 0.0
C223 C 0.03739 0.2759 0.17009 0.0
O224 O 0.01673 0.27867 1.00499 0.0
O225 O 0.04881 0.27673 0.98356 0.0
O226 O 0.05275 0.27883 0.1308 0.0
O227 O 0.02043 0.28199 0.15161 0.0
H228 H 0.03802 0.2317 0.02746 0.0
H229 H 0.03735 0.19372 0.98765 0.0
H230 H 0.02499 0.21988 0.8169 0.0
H231 H 0.02638 0.25756 0.85672 0.0
H232 H 0.03023 0.40613 0.17786 0.0
H233 H 0.03137 0.38311 0.08578 0.0
H234 H 0.02951 0.34691 0.283 0.0
H235 H 0.03127 0.32423 0.19099 0.0
H236 H 0.02668 0.24491 0.35345 0.0
H237 H 0.04239 0.19992 0.19867 0.0
H238 H 0.04559 0.23192 0.1333 0.0
H239 H 0.03046 0.27639 0.28849 0.0
C240 C 0.29554 0.00926 0.02716 0.0
C241 C 0.31152 0.0081 0.06041 0.0
C242 C 0.33472 0.00909 0.96791 0.0
C243 C 0.33087 0.00807 0.0312 0.0
C244 C 0.31856 0.01034 0.93502 0.0
C245 C 0.29929 0.01043 0.96428 0.0
U246 U 0.25132 0.00948 0.15874 0.0
O247 O 0.22141 0.02622 0.16063 0.0
O248 O 0.22586 0.98985 0.15983 0.0
C249 C 0.21308 0.00751 0.16711 0.0
C250 C 0.27486 0.0088 0.05563 0.0
C251 C 0.19696 0.00716 0.21787 0.0
C252 C 0.16194 0.0127 0.25444 0.0
C253 C 0.17756 0.01324 0.20795 0.0
C254 C 0.18484 1.00005 0.32248 0.0
C255 C 0.16526 0.00611 0.31259 0.0
C256 C 0.20051 1.00062 0.27574 0.0
C257 C 0.28194 0.0119 0.2925 0.0
C258 C 0.29607 0.00834 0.38534 0.0
C259 C 0.31712 0.01006 0.29026 0.0
C260 C 0.30064 0.01212 0.26004 0.0
C261 C 0.31491 0.0077 0.35299 0.0
C262 C 0.27967 0.01043 0.3551 0.0
C263 C 0.26451 0.0115 0.26272 0.0
O264 O 0.27028 0.9908 0.08417 0.0
O265 O 0.26614 0.02717 0.08308 0.0
O266 O 0.25946 0.0293 0.23347 0.0
O267 O 0.26266 0.99268 0.23451 0.0
H268 H 0.30907 0.0071 0.10879 0.0
H269 H 0.34279 0.00742 0.05844 0.0
H270 H 0.32077 0.0108 0.88638 0.0
H271 H 0.28724 0.01121 0.93747 0.0
H272 H 0.14717 0.01715 0.24431 0.0
H273 H 0.17443 0.01829 0.16379 0.0
H274 H 0.18813 0.99516 0.36657 0.0
H275 H 0.21538 0.99595 0.28481 0.0
H276 H 0.29403 0.00624 0.43355 0.0
H277 H 0.33157 0.00983 0.26459 0.0
H278 H 0.30245 0.01335 0.21167 0.0
H279 H 0.2652 0.01014 0.38041 0.0
C280 C 0.46141 0.31216 0.16073 0.0
C281 C 0.45624 0.33447 0.17936 0.0
C282 C 0.46625 0.34634 0.07703 0.0
C283 C 0.45855 0.35146 0.13762 0.0
C284 C 0.47088 0.32389 0.05881 0.0
C285 C 0.46847 0.30707 0.10013 0.0
U286 U 0.45674 0.27722 0.31053 0.0
O287 O 0.44408 0.24491 0.31942 0.0
O288 O 0.47595 0.24642 0.31423 0.0
C289 C 0.46131 0.23384 0.32113 0.0
C290 C 0.46046 0.29348 0.20209 0.0
C291 C 0.46276 0.2162 0.36539 0.0
C292 C 0.46971 0.17681 0.38113 0.0
C293 C 0.46596 0.19421 0.34311 0.0
C294 C 0.46641 0.20295 0.46593 0.0
C295 C 0.47042 0.1809 0.44275 0.0
C296 C 0.46274 0.22056 0.42734 0.0
C297 C 0.44952 0.32354 0.43993 0.0
C298 C 0.45122 0.34277 0.53466 0.0
C299 C 0.45875 0.36121 0.44052 0.0
C300 C 0.45452 0.34248 0.40867 0.0
C301 C 0.45834 0.36087 0.5035 0.0
C302 C 0.44681 0.32423 0.50294 0.0
C303 C 0.45109 0.30163 0.4101 0.0
O304 O 0.4753 0.28924 0.23284 0.0
O305 O 0.44339 0.28966 0.23156 0.0
O306 O 0.4365 0.29605 0.38215 0.0
O307 O 0.46858 0.29447 0.38256 0.0
H308 H 0.45076 0.33875 0.226 0.0
H309 H 0.45492 0.36861 0.1531 0.0
H310 H 0.47653 0.31929 0.01247 0.0
H311 H 0.47244 0.28994 0.08475 0.0
H312 H 0.47237 0.16005 0.3619 0.0
H313 H 0.46609 0.1905 0.29553 0.0
H314 H 0.46686 0.20665 0.51319 0.0
H315 H 0.46041 0.23749 0.44543 0.0
H316 H 0.4506 0.3422 0.58315 0.0
H317 H 0.46425 0.37498 0.41538 0.0
H318 H 0.45672 0.34214 0.35992 0.0
H319 H 0.44298 0.30964 0.52757 0.0
Dy320 Dy 1.00096 0.01187 0.67267 0.0
Dy321 Dy 0.02831 0.99275 0.76915 0.0
C322 C 0.04781 0.00462 0.63582 0.0
O323 O 1.00642 0.97551 0.64776 0.0
O324 O 0.0128 0.96402 0.74021 0.0
O325 O 0.99336 0.0159 0.58284 0.0
O326 O 0.97476 0.03242 0.65914 0.0
O327 O 0.99912 0.00492 0.82115 0.0
O328 O 0.98039 0.99887 0.74711 0.0
O329 O 0.03387 0.02866 0.77131 0.0
O330 O 1.00785 0.04205 0.72333 0.0
O331 O 0.03445 0.98892 0.86071 0.0
O332 O 0.05281 0.97033 0.78773 0.0
C333 C 1.00879 0.95954 0.68579 0.0
O334 O 0.03138 0.01642 0.6287 0.0
O335 O 0.04903 0.99219 0.68286 0.0
C336 C 0.98278 0.05353 0.57581 0.0
C337 C 0.98913 0.09596 0.53318 0.0
C338 C 1.00432 0.08283 0.55524 0.0
C339 C 1.00113 0.06186 0.57658 0.0
C340 C 0.96738 0.06676 0.55564 0.0
C341 C 0.97054 0.08788 0.5343 0.0
C342 C 0.97964 0.03181 0.60098 0.0
C343 C 0.98197 1.00198 0.8043 0.0
C344 C 0.02236 0.04525 0.75433 0.0
C345 C 0.04342 0.95088 0.87356 0.0
C346 C 0.03555 0.908 0.9111 0.0
C347 C 0.0201 0.92479 0.90975 0.0
C348 C 0.02398 0.94595 0.89062 0.0
C349 C 0.05887 0.93433 0.87548 0.0
C350 C 0.05499 0.91306 0.89389 0.0
C351 C 0.04741 0.97202 0.84555 0.0
H352 H 0.01886 0.08843 0.55423 0.0
H353 H 0.01309 0.0521 0.59341 0.0
H354 H 0.953 0.06076 0.55636 0.0
H355 H 0.95852 0.09781 0.51816 0.0
H356 H 1.00498 0.92165 0.92354 0.0
H357 H 0.01172 0.9583 0.88805 0.0
H358 H 0.0739 0.93768 0.8609 0.0
H359 H 0.06723 0.90046 0.89323 0.0
Dy360 Dy 0.50887 0.99028 0.66329 0.0
Dy361 Dy 0.5198 0.01689 0.77534 0.0
C362 C 0.50452 0.0431 0.6679 0.0
O363 O 0.54174 0.98624 0.64632 0.0
O364 O 0.54693 0.01545 0.70744 0.0
O365 O 0.50637 0.98655 0.5688 0.0
O366 O 0.49676 0.96143 0.6307 0.0
O367 O 0.53353 0.98216 0.78383 0.0
O368 O 0.51166 0.96535 0.73508 0.0
O369 O 0.48985 0.00616 0.80536 0.0
O370 O 0.48 0.00523 0.7123 0.0
O371 O 0.52009 0.02142 0.87076 0.0
O372 O 0.53208 0.04552 0.80898 0.0
C373 C 0.55331 1.00034 0.66483 0.0
O374 O 0.51114 0.02533 0.63433 0.0
O375 O 0.50244 0.04212 0.72665 0.0
C376 C 0.47654 0.97192 0.55955 0.0
C377 C 0.43776 0.97571 0.53411 0.0
C378 C 0.44611 0.99455 0.55324 0.0
C379 C 0.46534 0.99262 0.56646 0.0
C380 C 0.46813 0.95304 0.54197 0.0
C381 C 0.4488 0.95489 0.52961 0.0
C382 C 0.49613 0.9695 0.57759 0.0
C383 C 0.52499 0.96435 0.77189 0.0
C384 C 0.47577 0.00604 0.7711 0.0
C385 C 0.55085 0.0332 0.88257 0.0
C386 C 0.58944 0.02467 0.90738 0.0
C387 C 0.57861 0.00701 0.89482 0.0
C388 C 0.55948 0.01123 0.88244 0.0
C389 C 0.56182 0.05093 0.89352 0.0
C390 C 0.58108 0.04669 0.90602 0.0
C391 C 0.53158 0.03746 0.86261 0.0
H392 H 0.43802 0.01084 0.55658 0.0
H393 H 0.47144 0.00729 0.58202 0.0
H394 H 0.47644 0.93687 0.53852 0.0
H395 H 0.44255 0.94002 0.51625 0.0
H396 H 0.58495 0.98992 0.89471 0.0
H397 H 0.55156 0.99724 0.87213 0.0
H398 H 0.55555 0.06797 0.8918 0.0
H399 H 0.58926 0.06054 0.91582 0.0
Dy400 Dy 0.53292 0.50265 0.76002 0.0
Dy401 Dy 0.48868 0.50378 0.68717 0.0
C402 C 0.49906 0.46869 0.7931 0.0
O403 O 0.54107 0.47804 0.68385 0.0
O404 O 0.51147 0.47886 0.64149 0.0
O405 O 0.55771 0.48869 0.80364 0.0
O406 O 0.54944 0.52433 0.80915 0.0
O407 O 0.50837 0.52631 0.63687 0.0
O408 O 0.53629 0.52724 0.68589 0.0
O409 O 0.48493 0.53346 0.74924 0.0
O410 O 0.50344 0.51411 0.8077 0.0
O411 O 0.4707 0.51791 0.62236 0.0
O412 O 0.46172 0.48935 0.67075 0.0
C413 C 0.5298 0.47111 0.64519 0.0
O414 O 0.5175 0.47334 0.79232 0.0
O415 O 0.48583 0.48031 0.76503 0.0
C416 C 0.57327 0.51055 0.87439 0.0
C417 C 0.59679 0.51608 0.9699 0.0
C418 C 0.57821 0.50745 0.98048 0.0
C419 C 0.56664 0.50469 0.93341 0.0
C420 C 0.59162 0.51919 0.8638 0.0
C421 C 0.60319 0.52181 0.91036 0.0
C422 C 0.56184 0.50814 0.82235 0.0
C423 C 0.5253 0.53384 0.64419 0.0
C424 C 0.49472 0.53316 0.79535 0.0
C425 C 0.44942 0.49544 0.57481 0.0
C426 C 0.42812 0.48621 0.47651 0.0
C427 C 0.44424 0.49924 0.46906 0.0
C428 C 0.45465 0.50386 0.51735 0.0
C429 C 0.43379 0.48184 0.58184 0.0
C430 C 0.42333 0.47728 0.53364 0.0
C431 C 0.45793 0.50328 0.62917 0.0
H432 H 0.57238 0.50306 0.02535 0.0
H433 H 0.55253 0.49808 0.94324 0.0
H434 H 0.59717 0.52384 0.81883 0.0
H435 H 0.61739 0.52803 0.89892 0.0
H436 H 0.4488 0.50614 0.42588 0.0
H437 H 0.46647 0.51455 0.5099 0.0
H438 H 0.4291 0.47539 0.62553 0.0
H439 H 0.41096 0.46743 0.54213 0.0
Dy440 Dy 0.02182 0.52172 0.67787 0.0
Dy441 Dy 1.00816 0.48079 0.75989 0.0
C442 C 0.01971 0.47312 0.61976 0.0
O443 O 0.98902 0.52992 0.68942 0.0
O444 O 0.98118 0.4959 0.72342 0.0
O445 O 0.02262 0.53991 0.59574 0.0
O446 O 0.04138 0.54762 0.66226 0.0
O447 O 1.00567 0.50983 0.82593 0.0
O448 O 0.01596 0.53853 0.76794 0.0
O449 O 0.04007 0.47775 0.76848 0.0
O450 O 0.04993 0.5014 0.69404 0.0
O451 O 1.00593 0.46222 0.8415 0.0
O452 O 0.99001 0.45333 0.76888 0.0
C453 C 0.97602 0.51553 0.70311 0.0
O454 O 0.0157 0.49459 0.61561 0.0
O455 O 0.02177 0.46437 0.67197 0.0
C456 C 0.05599 0.54135 0.56409 0.0
C457 C 0.09059 0.52472 0.49255 0.0
C458 C 0.07692 0.51024 0.51524 0.0
C459 C 0.05983 0.51847 0.55076 0.0
C460 C 0.06988 0.55592 0.54309 0.0
C461 C 0.08724 0.54758 0.5072 0.0
C462 C 0.03855 0.54871 0.60604 0.0
C463 C 1.00991 0.53052 0.82014 0.0
C464 C 0.05399 0.48698 0.73515 0.0
C465 C 0.97247 0.45975 0.86374 0.0
C466 C 0.93791 0.47662 0.93515 0.0
C467 C 0.94885 0.49074 0.89876 0.0
C468 C 0.9659 0.48238 0.86357 0.0
C469 C 0.96131 0.44524 0.89841 0.0
C470 C 0.9439 0.4537 0.93408 0.0
C471 C 0.99099 0.45257 0.82649 0.0
H472 H 0.07947 0.4925 0.5053 0.0
H473 H 0.04967 0.50681 0.56834 0.0
H474 H 0.06735 0.57352 0.55467 0.0
H475 H 0.0978 0.5589 0.49009 0.0
H476 H 0.94429 0.50837 0.89776 0.0
H477 H 0.97402 0.4938 0.83639 0.0
H478 H 0.9661 0.42768 0.89836 0.0
H479 H 0.93546 0.44256 0.96182 0.0
H480 H 0.16014 0.97652 0.40512 0.0
H481 H 0.05268 0.03224 0.53998 0.0
H482 H 0.13145 0.03482 0.33413 0.0
H483 H 0.083 0.97812 0.62387 0.0
H484 H 0.08116 0.03257 0.46295 0.0
H485 H 0.13211 0.97617 0.48417 0.0
C486 C 0.14808 0.98935 0.40614 0.0
C487 C 0.14834 0.00571 0.36219 0.0
C488 C 0.08164 0.02062 0.4982 0.0
C489 C 0.11585 0.00519 0.45289 0.0
C490 C 0.06531 0.02041 0.54238 0.0
C491 C 0.06533 0.00517 0.589 0.0
C492 C 0.09823 0.0054 0.4999 0.0
C493 C 0.08227 0.99027 0.58922 0.0
C494 C 0.13197 0.98904 0.45128 0.0
C495 C 0.13195 0.02162 0.36594 0.0
N496 N 0.09794 0.99073 0.54545 0.0
N497 N 0.11649 0.02093 0.41013 0.0
H498 H 0.50045 0.14847 0.41462 0.0
H499 H 0.47873 0.07879 0.71284 0.0
H500 H 0.45416 0.1703 0.55714 0.0
H501 H 0.51907 0.0558 0.55631 0.0
H502 H 0.47056 0.11337 0.66149 0.0
H503 H 0.50879 0.11584 0.47115 0.0
C504 C 0.49197 0.14637 0.45793 0.0
C505 C 0.47637 0.16205 0.48063 0.0
C506 C 0.48125 0.10079 0.63859 0.0
C507 C 0.48601 0.12444 0.54647 0.0
C508 C 0.48596 0.08108 0.66789 0.0
C509 C 0.49958 0.06436 0.63874 0.0
C510 C 0.49048 0.10391 0.5801 0.0
C511 C 0.50838 0.06812 0.58036 0.0
C512 C 0.49679 0.12769 0.49037 0.0
C513 C 0.46629 0.15865 0.53785 0.0
N514 N 0.50374 0.08745 0.55322 0.0
N515 N 0.4712 0.14012 0.56869 0.0
H516 H 0.35075 0.4353 0.23324 0.0
H517 H 0.41963 0.5147 0.38597 0.0
H518 H 0.36718 0.49755 0.16093 0.0
H519 H 0.40847 0.44958 0.45044 0.0
H520 H 0.40001 0.50876 0.30488 0.0
H521 H 0.37091 0.44041 0.31447 0.0
C522 C 0.3585 0.4501 0.23449 0.0
C523 C 0.3572 0.46598 0.18972 0.0
C524 C 0.40186 0.49573 0.33669 0.0
C525 C 0.38042 0.47199 0.28322 0.0
C526 C 0.41328 0.49902 0.38311 0.0
C527 C 0.41604 0.48261 0.42581 0.0
C528 C 0.39285 0.47588 0.33233 0.0
C529 C 0.40674 0.46293 0.4196 0.0
C530 C 0.37011 0.45296 0.28085 0.0
C531 C 0.36784 0.48468 0.19371 0.0
N532 N 0.39564 0.46016 0.37406 0.0
N533 N 0.37886 0.48718 0.23945 0.0
H534 H 0.04736 0.36896 0.33995 0.0
H535 H 1.00741 0.4845 0.51253 0.0
H536 H 1.0098 0.41973 0.26691 0.0
H537 H 0.03496 0.42929 0.59974 0.0
H538 H 1.00983 0.46163 0.42065 0.0
H539 H 0.04461 0.39131 0.43321 0.0
C540 C 0.03843 0.38472 0.34342 0.0
C541 C 0.02874 0.39232 0.29504 0.0
C542 C 0.01536 0.45446 0.45978 0.0
C543 C 0.02581 0.41826 0.40211 0.0
C544 C 0.01404 0.46755 0.51243 0.0
C545 C 0.02105 0.45886 0.56419 0.0
C546 C 0.02396 0.43246 0.45816 0.0
C547 C 0.02933 0.43669 0.56109 0.0
C548 C 0.03695 0.39754 0.39679 0.0
C549 C 0.01777 0.4132 0.30229 0.0
N550 N 0.03065 0.4243 0.5089 0.0
N551 N 0.01663 0.42539 0.35462 0.0
H552 H 0.8732 0.97594 0.026 0.0
H553 H 0.97482 0.02608 0.91067 0.0
H554 H 0.89295 0.03361 0.10862 0.0
H555 H 0.94874 0.97978 0.8032 0.0
H556 H 0.9458 0.02733 0.98659 0.0
H557 H 0.90132 0.97546 0.94709 0.0
C558 C 0.88327 0.98864 0.02756 0.0
C559 C 0.88049 0.00482 0.07479 0.0
C560 C 0.94639 0.01685 0.94651 0.0
C561 C 0.91317 0.00406 0.98431 0.0
C562 C 0.96302 0.01607 0.90319 0.0
C563 C 0.96426 0.00279 0.85042 0.0
C564 C 0.93092 0.00391 0.93794 0.0
C565 C 0.94837 0.99036 0.84299 0.0
C566 C 0.89945 0.98825 0.98245 0.0
C567 C 0.89448 0.02051 0.07425 0.0
N568 N 0.93247 0.99107 0.88638 0.0
N569 N 0.91012 0.01967 0.03015 0.0
H570 H 0.51925 0.83611 0.94008 0.0
H571 H 0.55735 0.95199 0.82828 0.0
H572 H 0.57755 0.85395 0.9555 0.0
H573 H 0.50381 0.92796 0.78276 0.0
H574 H 0.56475 0.91679 0.87716 0.0
H575 H 0.51297 0.87008 0.8844 0.0
C576 C 0.53087 0.84697 0.9304 0.0
C577 C 0.54905 0.84209 0.95135 0.0
C578 C 0.5514 0.9192 0.85639 0.0
C579 C 0.54194 0.88122 0.88867 0.0
C580 C 0.54713 0.93935 0.82862 0.0
C581 C 0.52991 0.94301 0.80131 0.0
C582 C 0.53824 0.90263 0.85772 0.0
C583 C 0.51729 0.92591 0.80294 0.0
C584 C 0.52727 0.86643 0.89901 0.0
C585 C 0.56343 0.85703 0.93938 0.0
N586 N 0.52164 0.9066 0.8309 0.0
N587 N 0.55957 0.87592 0.90896 0.0
H588 H 0.68395 0.55766 0.19484 0.0
H589 H 0.59903 0.49197 0.07396 0.0
H590 H 0.65662 0.50455 0.28895 0.0
H591 H 0.62413 0.54684 0.98162 0.0
H592 H 0.61992 0.49666 0.15265 0.0
H593 H 0.66285 0.55367 0.11571 0.0
C594 C 0.67365 0.54509 0.19914 0.0
C595 C 0.67225 0.53153 0.24976 0.0
C596 C 0.62089 0.50766 0.11508 0.0
C597 C 0.6476 0.52704 0.15838 0.0
C598 C 0.60875 0.50512 0.06991 0.0
C599 C 0.60952 0.51894 0.01984 0.0
C600 C 0.63421 0.5241 0.11092 0.0
C601 C 0.623 0.53536 0.01799 0.0
C602 C 0.66144 0.54294 0.15381 0.0
C603 C 0.65821 0.51579 0.25208 0.0
N604 N 0.6347 0.53741 0.06238 0.0
N605 N 0.64658 0.51403 0.20749 0.0
H606 H 0.99044 0.589 0.18408 0.0
H607 H 0.02354 0.57153 0.8289 0.0
H608 H 0.02238 0.63521 0.07478 0.0
H609 H 0.9938 0.52319 0.93647 0.0
H610 H 0.02271 0.59507 0.91886 0.0
H611 H 0.99135 0.56468 0.09497 0.0
C612 C 0.99773 0.59405 0.14154 0.0
C613 C 1.00628 0.61438 0.13731 0.0
C614 C 0.01629 0.57936 0.92293 0.0
C615 C 1.00714 0.58654 0.03451 0.0
C616 C 0.01668 0.56588 0.87135 0.0
C617 C 1.00865 0.54529 0.87478 0.0
C618 C 1.00772 0.57239 0.9788 0.0
C619 C 1.00017 0.5389 0.9315 0.0
C620 C 0.99813 0.58015 0.09051 0.0
C621 C 0.01526 0.62 0.08044 0.0
N622 N 0.99991 0.5524 0.98119 0.0
N623 N 0.01543 0.60621 0.03155 0.0
H624 H 0.01326 0.18619 0.25221 0.0
H625 H 0.01106 0.1285 0.5692 0.0
H626 H 0.04124 0.21208 0.39723 0.0
H627 H 0.97742 0.11059 0.42852 0.0
H628 H 0.02214 0.15964 0.50958 0.0
H629 H 1.00088 0.15773 0.31752 0.0
C630 C 0.01709 0.18565 0.29758 0.0
C631 C 0.02846 0.20137 0.31912 0.0
C632 C 0.01215 0.14902 0.49226 0.0
C633 C 0.01378 0.16917 0.39503 0.0
C634 C 1.00584 0.13128 0.52613 0.0
C635 C 0.99342 0.11687 0.50345 0.0
C636 C 1.00607 0.15214 0.43536 0.0
C637 C 0.98686 0.12135 0.44796 0.0
C638 C 1.00975 0.16958 0.33524 0.0
C639 C 0.03247 0.20025 0.37896 0.0
N640 N 0.99342 0.13846 0.41561 0.0
N641 N 0.02512 0.18436 0.41501 0.0
H642 H 0.32214 0.025 0.46095 0.0
H643 H 0.42629 0.95485 0.43797 0.0
H644 H 0.34637 0.97835 0.31624 0.0
H645 H 0.40495 0.00226 0.58382 0.0
H646 H 0.39514 0.96088 0.39949 0.0
H647 H 0.35088 0.01513 0.51231 0.0
C648 C 0.33354 0.01272 0.4401 0.0
C649 C 0.33216 0.00269 0.384 0.0
C650 C 0.39716 0.96991 0.44013 0.0
C651 C 0.36468 0.99137 0.44198 0.0
C652 C 0.41491 0.96628 0.46256 0.0
C653 C 0.4182 0.97806 0.51417 0.0
C654 C 0.38268 0.9857 0.46893 0.0
C655 C 0.40307 0.99309 0.5433 0.0
C656 C 0.34985 0.00711 0.46931 0.0
C657 C 0.34715 0.98687 0.35873 0.0
N658 N 0.38591 0.99665 0.51987 0.0
N659 N 0.36283 0.98174 0.38792 0.0
H660 H 0.45699 0.40606 0.49323 0.0
H661 H 0.53624 0.43154 0.69581 0.0
H662 H 0.48503 0.35131 0.58122 0.0
H663 H 0.53197 0.46216 0.52567 0.0
H664 H 0.51746 0.4018 0.66471 0.0
H665 H 0.48127 0.42981 0.52363 0.0
C666 C 0.46808 0.39916 0.51957 0.0
C667 C 0.46925 0.37668 0.53385 0.0
C668 C 0.52133 0.41459 0.63333 0.0
C669 C 0.49713 0.40333 0.56707 0.0
C670 C 0.53259 0.43119 0.65017 0.0
C671 C 0.535 0.44966 0.61381 0.0
C672 C 0.513 0.41664 0.5796 0.0
C673 C 0.53002 0.44836 0.55528 0.0
C674 C 0.48201 0.41256 0.53618 0.0
C675 C 0.48363 0.3686 0.56928 0.0
N676 N 0.51831 0.43274 0.54095 0.0
N677 N 0.49721 0.38191 0.58435 0.0
H678 H 0.16252 0.44324 0.21969 0.0
H679 H 0.12953 0.527 0.50282 0.0
H680 H 0.20387 0.4751 0.31397 0.0
H681 H 0.08999 0.50089 0.39043 0.0
H682 H 0.15738 0.50693 0.43827 0.0
H683 H 0.13563 0.4622 0.28866 0.0
C684 C 0.16586 0.45411 0.25532 0.0
C685 C 0.18526 0.45764 0.26157 0.0
C686 C 0.1426 0.50577 0.42762 0.0
C687 C 0.15485 0.47961 0.33964 0.0
C688 C 0.12684 0.51734 0.46394 0.0
C689 C 0.10767 0.5155 0.45127 0.0
C690 C 0.1389 0.49245 0.37885 0.0
C691 C 0.10467 0.50258 0.40137 0.0
C692 C 0.15059 0.46498 0.2945 0.0
C693 C 0.189 0.47178 0.30842 0.0
N694 N 0.12014 0.49148 0.36703 0.0
N695 N 0.17387 0.48242 0.34563 0.0
H696 H 0.03892 0.78178 0.08214 0.0
H697 H 1.00428 0.88458 0.89158 0.0
H698 H 0.97784 0.80117 0.06873 0.0
H699 H 0.05735 0.8798 0.97661 0.0
H700 H 0.99661 0.8487 0.9326 0.0
H701 H 0.04813 0.81179 0.01606 0.0
C702 C 0.02747 0.79191 0.06376 0.0
C703 C 1.00758 0.78905 0.08093 0.0
C704 C 1.01001 0.85551 0.94157 0.0
C705 C 0.01801 0.82359 0.00655 0.0
C706 C 0.01434 0.87605 0.91872 0.0
C707 C 0.03139 0.88545 0.93127 0.0
C708 C 0.02296 0.84415 0.97631 0.0
C709 C 0.04415 0.87323 0.96516 0.0
C710 C 0.03273 0.80918 0.02671 0.0
C711 C 0.99334 0.80296 0.05675 0.0
N712 N 0.03963 0.85325 0.98666 0.0
N713 N 0.99882 0.81982 0.02111 0.0
H714 H 0.70766 0.03141 0.98473 0.0
H715 H 0.59955 0.99478 0.98857 0.0
H716 H 0.68098 0.98648 0.11117 0.0
H717 H 0.62315 0.04383 0.86931 0.0
H718 H 0.63119 0.98811 0.02467 0.0
H719 H 0.67852 0.03289 0.93279 0.0
C720 C 0.69569 0.02175 1.00119 0.0
C721 C 0.6965 0.00897 0.05248 0.0
C722 C 0.62956 1.00023 0.9903 0.0
C723 C 0.66336 0.01072 0.99409 0.0
C724 C 0.61155 0.00394 0.96949 0.0
C725 C 0.60888 0.01991 0.92622 0.0
C726 C 0.64492 0.01271 0.96795 0.0
C727 C 0.6247 0.03159 0.90341 0.0
C728 C 0.67911 0.02266 0.97175 0.0
C729 C 0.6807 0.99686 0.07242 0.0
N730 N 0.64216 0.02784 0.92493 0.0
N731 N 0.66468 0.99813 0.04324 0.0
H732 H 0.58177 0.60297 0.92009 0.0
H733 H 0.49792 0.57135 0.7314 0.0
H734 H 0.54654 0.65411 0.84022 0.0
H735 H 0.51331 0.53957 0.89181 0.0
H736 H 0.52137 0.59888 0.74448 0.0
H737 H 0.56467 0.57485 0.87343 0.0
C738 C 0.57094 0.6082 0.89092 0.0
C739 C 0.56505 0.63077 0.88534 0.0
C740 C 0.51948 0.58582 0.77657 0.0
C741 C 0.54536 0.59908 0.83358 0.0
C742 C 0.50601 0.57037 0.76969 0.0
C743 C 0.50409 0.55298 0.80999 0.0
C744 C 0.53097 0.58354 0.82373 0.0
C745 C 0.51458 0.5526 0.85943 0.0
C746 C 0.56111 0.59224 0.86486 0.0
C747 C 0.55123 0.63681 0.84624 0.0
N748 N 0.52782 0.56748 0.86446 0.0
N749 N 0.54137 0.62097 0.8229 0.0
H750 H 0.85972 0.56508 0.17815 0.0
H751 H 0.9007 0.46351 0.94884 0.0
H752 H 0.82505 0.5126 0.13283 0.0
H753 H 0.93619 0.51261 0.0099 0.0
H754 H 0.87173 0.48302 0.00887 0.0
H755 H 0.88701 0.54851 0.1058 0.0
C756 C 0.85788 0.5502 0.15247 0.0
C757 C 0.84033 0.54008 0.16123 0.0
C758 C 0.88589 0.48947 0.00907 0.0
C759 C 0.87122 0.52089 0.07996 0.0
C760 C 0.90235 0.47823 0.9755 0.0
C761 C 0.92068 0.48652 0.97493 0.0
C762 C 0.88798 0.50898 0.04206 0.0
C763 C 0.9222 0.50582 0.00914 0.0
C764 C 0.87336 0.54073 0.11139 0.0
C765 C 0.8384 0.52095 0.12679 0.0
N766 N 0.90602 0.51643 0.04134 0.0
N767 N 0.85378 0.5118 0.08796 0.0
H768 H 0.04215 0.1857 0.78286 0.0
H769 H 0.01959 0.06152 0.86928 0.0
H770 H 0.0167 0.16781 0.95938 0.0
H771 H 0.02928 0.08146 0.68535 0.0
H772 H 0.02113 0.10012 0.90314 0.0
H773 H 0.03991 0.14766 0.74602 0.0
C774 C 0.036 0.17393 0.814 0.0
C775 C 0.02975 0.18023 0.87484 0.0
C776 C 0.02311 0.0961 0.85533 0.0
C777 C 0.02749 0.13626 0.83264 0.0
C778 C 0.02238 0.07403 0.83609 0.0
C779 C 0.0246 0.0683 0.77459 0.0
C780 C 0.02647 0.1126 0.8128 0.0
C781 C 0.02765 0.08524 0.73327 0.0
C782 C 0.03482 0.15211 0.7928 0.0
C783 C 0.02218 0.16387 0.91265 0.0
N784 N 0.02869 0.10659 0.75307 0.0
N785 N 0.02136 0.14278 0.89107 0.0
H786 H 0.34866 0.03105 0.8659 0.0
H787 H 0.46179 0.98776 0.8766 0.0
H788 H 0.36835 0.98572 0.99688 0.0
H789 H 0.44238 0.02478 0.72936 0.0
H790 H 0.42756 0.98781 0.92215 0.0
H791 H 0.38252 0.02984 0.81607 0.0
C792 C 0.36 0.02073 0.88421 0.0
C793 C 0.35542 0.00858 0.93637 0.0
C794 C 0.43072 0.99603 0.88001 0.0
C795 C 0.39454 0.00738 0.87937 0.0
C796 C 0.4503 0.99607 0.85409 0.0
C797 C 0.45497 0.00633 0.79919 0.0
C798 C 0.41556 0.00673 0.8516 0.0
C799 C 0.43942 0.01658 0.77163 0.0
C800 C 0.37941 0.02015 0.8557 0.0
C801 C 0.37101 0.99578 0.95783 0.0
N802 N 0.42045 0.01668 0.7983 0.0
N803 N 0.38974 0.99558 0.92948 0.0
H804 H 0.49911 0.34846 0.99585 0.0
H805 H 0.4618 0.46084 0.84459 0.0
H806 H 0.44309 0.38465 0.05781 0.0
H807 H 0.52243 0.43374 0.82778 0.0
H808 H 0.45297 0.43071 0.91221 0.0
H809 H 0.50613 0.37724 0.92359 0.0
C810 C 0.4882 0.36242 0.99404 0.0
C811 C 0.47046 0.3641 0.03313 0.0
C812 C 0.46819 0.43141 0.89355 0.0
C813 C 0.47849 0.39734 0.9501 0.0
C814 C 0.47322 0.44851 0.85473 0.0
C815 C 0.49292 0.44998 0.8309 0.0
C816 C 0.48291 0.41548 0.9078 0.0
C817 C 0.50709 0.43351 0.84563 0.0
C818 C 0.49228 0.37894 0.95289 0.0
C819 C 0.45702 0.38277 0.02901 0.0
N820 N 0.50182 0.41701 0.88293 0.0
N821 N 0.46128 0.39864 0.98811 0.0
H822 H 0.15794 0.45015 0.90641 0.0
H823 H 0.08814 0.49917 0.67024 0.0
H824 H 0.1806 0.47723 0.73734 0.0
H825 H 0.06787 0.46226 0.82516 0.0
H826 H 0.12197 0.49164 0.69332 0.0
H827 H 0.12513 0.4543 0.87632 0.0
C828 C 0.15626 0.45678 0.86272 0.0
C829 C 0.17254 0.46341 0.82498 0.0
C830 C 0.11013 0.48509 0.72207 0.0
C831 C 0.13419 0.46888 0.79065 0.0
C832 C 0.09074 0.48939 0.7089 0.0
C833 C 0.07493 0.4814 0.74574 0.0
C834 C 0.11386 0.47287 0.77288 0.0
C835 C 0.07942 0.4688 0.79521 0.0
C836 C 0.13729 0.45934 0.84574 0.0
C837 C 0.16877 0.47232 0.76926 0.0
N838 N 0.09832 0.46508 0.8074 0.0
N839 N 0.15011 0.47491 0.75416 0.0
H840 H 0.01471 0.81476 0.66227 0.0
H841 H 0.99873 0.94337 0.5793 0.0
H842 H 0.99703 0.83707 0.49381 0.0
H843 H 0.01532 0.92167 0.74955 0.0
H844 H 0.99743 0.90451 0.54838 0.0
H845 H 0.01421 0.85358 0.69619 0.0
C846 C 0.01059 0.82772 0.63241 0.0
C847 C 1.00597 0.82236 0.57474 0.0
C848 C 1.00131 0.90823 0.59258 0.0
C849 C 1.00566 0.86718 0.61337 0.0
C850 C 1.00204 0.93048 0.61034 0.0
C851 C 1.00714 0.93596 0.66719 0.0
C852 C 1.00578 0.89114 0.63172 0.0
C853 C 0.01127 0.91837 0.70532 0.0
C854 C 0.01044 0.84997 0.65178 0.0
C855 C 1.00107 0.84015 0.53811 0.0
N856 N 0.01055 0.89684 0.68687 0.0
N857 N 1.00108 0.86161 0.55794 0.0
H858 H 0.6804 0.97998 0.56865 0.0
H859 H 0.56619 0.0171 0.5566 0.0
H860 H 0.65958 0.02676 0.44261 0.0
H861 H 0.58701 0.98361 0.70715 0.0
H862 H 0.60037 0.0185 0.51062 0.0
H863 H 0.64665 0.97931 0.6173 0.0
C864 C 0.66888 0.99026 0.55114 0.0
C865 C 0.67317 0.00339 0.50065 0.0
C866 C 0.59753 0.01074 0.55358 0.0
C867 C 0.63404 0.00219 0.55613 0.0
C868 C 0.57802 0.00984 0.57958 0.0
C869 C 0.57385 1.00006 0.63535 0.0
C870 C 0.61305 1.00155 0.58319 0.0
C871 C 0.58967 0.99117 0.66383 0.0
C872 C 0.64949 0.98971 0.57898 0.0
C873 C 0.65723 0.01595 0.4802 0.0
N874 N 0.60857 0.99201 0.63734 0.0
N875 N 0.63851 0.01496 0.50769 0.0
H876 H 0.57266 0.61703 0.35768 0.0
H877 H 0.50244 0.57098 0.62454 0.0
H878 H 0.53114 0.65991 0.47822 0.0
H879 H 0.56093 0.53899 0.57594 0.0
H880 H 0.51093 0.60183 0.56069 0.0
H881 H 0.56677 0.58608 0.42568 0.0
C882 C 0.56234 0.61996 0.39831 0.0
C883 C 0.55243 0.64118 0.41226 0.0
C884 C 0.52197 0.58813 0.56399 0.0
C885 C 0.5456 0.60587 0.48975 0.0
C886 C 0.51714 0.57051 0.60051 0.0
C887 C 0.53107 0.55253 0.60602 0.0
C888 C 0.54068 0.58749 0.53066 0.0
C889 C 0.54985 0.55269 0.57328 0.0
C890 C 0.55913 0.60235 0.43724 0.0
C891 C 0.53929 0.64398 0.46579 0.0
N892 N 0.55406 0.56979 0.53618 0.0
N893 N 0.53616 0.62655 0.50211 0.0
H894 H 0.86651 0.5608 0.56391 0.0
H895 H 0.94452 0.49309 0.74598 0.0
H896 H 0.85194 0.50816 0.68412 0.0
H897 H 0.95893 0.54897 0.63758 0.0
H898 H 0.91058 0.49909 0.72519 0.0
H899 H 0.89998 0.55731 0.59102 0.0
C900 C 0.87028 0.54843 0.59583 0.0
C901 C 0.85615 0.53465 0.62114 0.0
C902 C 0.92108 0.51014 0.70604 0.0
C903 C 0.89483 0.53067 0.65296 0.0
C904 C 0.9406 0.50673 0.71789 0.0
C905 C 0.95487 0.52048 0.69342 0.0
C906 C 0.91549 0.5274 0.66885 0.0
C907 C 0.94858 0.53793 0.65764 0.0
C908 C 0.88945 0.54656 0.61161 0.0
C909 C 0.86207 0.51931 0.66341 0.0
N910 N 0.92947 0.54078 0.64617 0.0
N911 N 0.88086 0.51767 0.67753 0.0
loop_
_geom_bond_atom_site_label_1
_geom_bond_atom_site_label_2
_geom_bond_distance
_geom_bond_site_symmetry_2
_ccdc_geom_bond_type
C0 C1 1.264 . S
C0 C5 1.479 . S
C0 C10 1.465 . S
C1 C0 1.264 . S
C1 C3 1.339 . S
C1 H28 0.931 . S
C2 C3 1.395 . S
C2 C4 1.320 . S
C3 C1 1.339 . S
C3 C2 1.395 . S
C3 H29 0.929 . S
C4 C2 1.320 . S
C4 C5 1.405 . S
C4 H30 0.930 . S
C5 C0 1.479 . S
C5 C4 1.405 . S
C5 H31 0.931 . S
U6 O7 2.454 . S
U6 O8 2.458 . S
U6 C9 2.984 . S
U6 C10 2.847 . S
U6 C23 2.882 . S
U6 O24 2.441 . S
U6 O25 2.420 . S
U6 O26 2.455 . S
U6 O27 2.449 . S
O7 U6 2.454 . S
O7 C9 1.353 . S
O8 U6 2.458 . S
O8 C9 1.286 . S
C9 U6 2.984 . S
C9 O7 1.353 . S
C9 O8 1.286 . S
C9 C11 1.363 . S
C10 C0 1.465 . S
C10 U6 2.847 . S
C10 O24 1.249 . S
C10 O25 1.202 . S
C11 C9 1.363 . S
C11 C13 1.408 . S
C11 C16 1.342 . S
C12 C13 1.310 . S
C12 C15 1.461 . S
C12 H32 0.932 . S
C13 C11 1.408 . S
C13 C12 1.310 . S
C13 H33 0.930 . S
C14 C15 1.474 . S
C14 C16 1.285 . S
C14 H34 0.929 . S
C15 C12 1.461 . S
C15 C14 1.474 . S
C16 C11 1.342 . S
C16 C14 1.285 . S
C16 H35 0.930 . S
C17 C20 1.424 . S
C17 C22 1.245 . S
C17 C23 1.428 . S
C18 C21 1.260 . S
C18 C22 1.477 . S
C18 H36 0.932 . S
C19 C20 1.384 . S
C19 C21 1.479 . S
C19 H37 0.929 . S
C20 C17 1.424 . S
C20 C19 1.384 . S
C20 H38 0.928 . S
C21 C18 1.260 . S
C21 C19 1.479 . S
C22 C17 1.245 . S
C22 C18 1.477 . S
C22 H39 0.932 . S
C23 U6 2.882 . S
C23 C17 1.428 . S
C23 O26 1.301 . S
C23 O27 1.282 . S
O24 U6 2.441 . S
O24 C10 1.249 . S
O25 U6 2.420 . S
O25 C10 1.202 . S
O26 U6 2.455 . S
O26 C23 1.301 . S
O27 U6 2.449 . S
O27 C23 1.282 . S
H28 C1 0.931 . S
H29 C3 0.929 . S
H30 C4 0.930 . S
H31 C5 0.931 . S
H32 C12 0.932 . S
H33 C13 0.930 . S
H34 C14 0.929 . S
H35 C16 0.930 . S
H36 C18 0.932 . S
H37 C19 0.929 . S
H38 C20 0.928 . S
H39 C22 0.932 . S
C40 C41 1.259 1_655 S
C40 C45 1.478 . S
C40 C50 1.465 1_655 S
C41 C40 1.259 1_455 S
C41 C43 1.340 1_455 S
C41 H68 0.937 . S
C42 C43 1.395 . S
C42 C44 1.320 . S
C43 C41 1.340 1_655 S
C43 C42 1.395 . S
C43 H69 0.929 . S
C44 C42 1.320 . S
C44 C45 1.405 . S
C44 H70 0.930 . S
C45 C40 1.478 . S
C45 C44 1.405 . S
C45 H71 0.931 . S
U46 O47 2.454 1_455 S
U46 O48 2.458 1_455 S
U46 C49 2.984 1_455 S
U46 C50 2.847 . S
U46 C63 2.882 . S
U46 O64 2.441 . S
U46 O65 2.420 . S
U46 O66 2.455 . S
U46 O67 2.449 . S
O47 U46 2.454 1_655 S
O47 C49 1.353 . S
O48 U46 2.458 1_655 S
O48 C49 1.286 . S
C49 U46 2.984 1_655 S
C49 O47 1.353 . S
C49 O48 1.286 . S
C49 C51 1.363 . S
C50 C40 1.465 1_455 S
C50 U46 2.847 . S
C50 O64 1.249 . S
C50 O65 1.202 . S
C51 C49 1.363 . S
C51 C53 1.408 . S
C51 C56 1.342 . S
C52 C53 1.310 . S
C52 C55 1.461 . S
C52 H72 0.932 . S
C53 C51 1.408 . S
C53 C52 1.310 . S
C53 H73 0.930 . S
C54 C55 1.474 . S
C54 C56 1.285 . S
C54 H74 0.929 . S
C55 C52 1.461 . S
C55 C54 1.474 . S
C56 C51 1.342 . S
C56 C54 1.285 . S
C56 H75 0.930 . S
C57 C60 1.424 1_455 S
C57 C62 1.231 1_455 S
C57 C63 1.428 . S
C58 C61 1.260 . S
C58 C62 1.484 . S
C58 H76 0.932 . S
C59 C60 1.384 . S
C59 C61 1.479 . S
C59 H77 0.929 . S
C60 C57 1.424 1_655 S
C60 C59 1.384 . S
C60 H78 0.928 . S
C61 C58 1.260 . S
C61 C59 1.479 . S
C62 C57 1.231 1_655 S
C62 C58 1.484 . S
C62 H79 0.941 . S
C63 U46 2.882 . S
C63 C57 1.428 . S
C63 O66 1.301 . S
C63 O67 1.282 . S
O64 U46 2.441 . S
O64 C50 1.249 . S
O65 U46 2.420 . S
O65 C50 1.202 . S
O66 U46 2.455 . S
O66 C63 1.301 . S
O67 U46 2.449 . S
O67 C63 1.282 . S
H68 C41 0.937 . S
H69 C43 0.929 . S
H70 C44 0.930 . S
H71 C45 0.931 . S
H72 C52 0.932 . S
H73 C53 0.930 . S
H74 C54 0.929 . S
H75 C56 0.930 . S
H76 C58 0.932 . S
H77 C59 0.929 . S
H78 C60 0.928 . S
H79 C62 0.941 . S
C80 C81 1.264 . S
C80 C85 1.479 . S
C80 C90 1.465 . S
C81 C80 1.264 . S
C81 C83 1.339 . S
C81 H108 0.931 . S
C82 C83 1.395 . S
C82 C84 1.320 . S
C83 C81 1.339 . S
C83 C82 1.395 . S
C83 H109 0.929 . S
C84 C82 1.320 . S
C84 C85 1.405 . S
C84 H110 0.923 1_545 S
C85 C80 1.479 . S
C85 C84 1.405 . S
C85 H111 0.931 . S
U86 O87 2.454 . S
U86 O88 2.458 . S
U86 C89 2.984 . S
U86 C90 2.847 . S
U86 C103 2.882 . S
U86 O104 2.441 . S
U86 O105 2.420 . S
U86 O106 2.455 . S
U86 O107 2.449 . S
O87 U86 2.454 . S
O87 C89 1.353 . S
O88 U86 2.458 . S
O88 C89 1.286 . S
C89 U86 2.984 . S
C89 O87 1.353 . S
C89 O88 1.286 . S
C89 C91 1.363 . S
C90 C80 1.465 . S
C90 U86 2.847 . S
C90 O104 1.249 . S
C90 O105 1.202 . S
C91 C89 1.363 . S
C91 C93 1.408 . S
C91 C96 1.342 . S
C92 C93 1.310 . S
C92 C95 1.461 . S
C92 H112 0.932 . S
C93 C91 1.408 . S
C93 C92 1.310 . S
C93 H113 0.930 . S
C94 C95 1.473 1_565 S
C94 C96 1.286 1_565 S
C94 H114 0.930 . S
C95 C92 1.461 . S
C95 C94 1.473 1_545 S
C96 C91 1.342 . S
C96 C94 1.286 1_545 S
C96 H115 0.934 . S
C97 C100 1.424 . S
C97 C102 1.245 . S
C97 C103 1.428 . S
C98 C101 1.260 . S
C98 C102 1.477 . S
C98 H116 0.932 1_554 S
C99 C100 1.384 . S
C99 C101 1.479 . S
C99 H117 0.929 . S
C100 C97 1.424 . S
C100 C99 1.384 . S
C100 H118 0.928 . S
C101 C98 1.260 . S
C101 C99 1.479 . S
C102 C97 1.245 . S
C102 C98 1.477 . S
C102 H119 0.932 . S
C103 U86 2.882 . S
C103 C97 1.428 . S
C103 O106 1.301 . S
C103 O107 1.282 . S
O104 U86 2.441 . S
O104 C90 1.249 . S
O105 U86 2.420 . S
O105 C90 1.202 . S
O106 U86 2.455 . S
O106 C103 1.301 . S
O107 U86 2.449 . S
O107 C103 1.282 . S
H108 C81 0.931 . S
H109 C83 0.929 . S
H110 C84 0.923 1_565 S
H111 C85 0.931 . S
H112 C92 0.932 . S
H113 C93 0.930 . S
H114 C94 0.930 . S
H115 C96 0.934 . S
H116 C98 0.932 1_556 S
H117 C99 0.929 . S
H118 C100 0.928 . S
H119 C102 0.932 . S
C120 C121 1.264 . S
C120 C125 1.479 . S
C120 C130 1.465 . S
C121 C120 1.264 . S
C121 C123 1.339 . S
C121 H148 0.931 . S
C122 C123 1.395 . S
C122 C124 1.320 . S
C123 C121 1.339 . S
C123 C122 1.395 . S
C123 H149 0.929 . S
C124 C122 1.320 . S
C124 C125 1.405 . S
C124 H150 0.930 . S
C125 C120 1.479 . S
C125 C124 1.405 . S
C125 H151 0.931 . S
U126 O127 2.454 . S
U126 O128 2.458 . S
U126 C129 2.984 . S
U126 C130 2.847 . S
U126 C143 2.882 . S
U126 O144 2.441 . S
U126 O145 2.420 . S
U126 O146 2.448 1_554 S
U126 O147 2.449 . S
O127 U126 2.454 . S
O127 C129 1.353 . S
O128 U126 2.458 . S
O128 C129 1.286 . S
C129 U126 2.984 . S
C129 O127 1.353 . S
C129 O128 1.286 . S
C129 C131 1.363 . S
C130 C120 1.465 . S
C130 U126 2.847 . S
C130 O144 1.249 . S
C130 O145 1.202 . S
C131 C129 1.363 . S
C131 C133 1.408 . S
C131 C136 1.342 1_554 S
C132 C133 1.310 . S
C132 C135 1.461 . S
C132 H152 0.932 . S
C133 C131 1.408 . S
C133 C132 1.310 . S
C133 H153 0.930 . S
C134 C135 1.474 1_556 S
C134 C136 1.285 . S
C134 H154 0.929 . S
C135 C132 1.461 . S
C135 C134 1.474 1_554 S
C136 C131 1.342 1_556 S
C136 C134 1.285 . S
C136 H155 0.930 . S
C137 C140 1.424 . S
C137 C142 1.245 . S
C137 C143 1.428 1_556 S
C138 C141 1.260 . S
C138 C142 1.477 . S
C138 H156 0.932 . S
C139 C140 1.384 . S
C139 C141 1.479 . S
C139 H157 0.929 . S
C140 C137 1.424 . S
C140 C139 1.384 . S
C140 H158 0.928 1_556 S
C141 C138 1.260 . S
C141 C139 1.479 . S
C142 C137 1.245 . S
C142 C138 1.477 . S
C142 H159 0.932 . S
C143 U126 2.882 . S
C143 C137 1.428 1_554 S
C143 O146 1.300 1_554 S
C143 O147 1.282 . S
O144 U126 2.441 . S
O144 C130 1.249 . S
O145 U126 2.420 . S
O145 C130 1.202 . S
O146 U126 2.448 1_556 S
O146 C143 1.300 1_556 S
O147 U126 2.449 . S
O147 C143 1.282 . S
H148 C121 0.931 . S
H149 C123 0.929 . S
H150 C124 0.930 . S
H151 C125 0.931 . S
H152 C132 0.932 . S
H153 C133 0.930 . S
H154 C134 0.929 . S
H155 C136 0.930 . S
H156 C138 0.932 . S
H157 C139 0.929 . S
H158 C140 0.928 1_554 S
H159 C142 0.932 . S
C160 C161 1.264 . S
C160 C165 1.479 . S
C160 C170 1.465 . S
C161 C160 1.264 . S
C161 C163 1.339 . S
C161 H188 0.931 . S
C162 C163 1.395 . S
C162 C164 1.320 . S
C163 C161 1.339 . S
C163 C162 1.395 . S
C163 H189 0.929 . S
C164 C162 1.320 . S
C164 C165 1.405 . S
C164 H190 0.930 . S
C165 C160 1.479 . S
C165 C164 1.405 . S
C165 H191 0.931 . S
U166 O167 2.454 . S
U166 O168 2.458 1_556 S
U166 C169 2.984 1_556 S
U166 C170 2.847 . S
U166 C183 2.882 1_556 S
U166 O184 2.441 . S
U166 O185 2.420 . S
U166 O186 2.455 1_556 S
U166 O187 2.449 1_556 S
O167 U166 2.454 . S
O167 C169 1.353 1_556 S
O168 U166 2.458 1_554 S
O168 C169 1.286 . S
C169 U166 2.984 1_554 S
C169 O167 1.353 1_554 S
C169 O168 1.286 . S
C169 C171 1.363 . S
C170 C160 1.465 . S
C170 U166 2.847 . S
C170 O184 1.249 . S
C170 O185 1.202 . S
C171 C169 1.363 . S
C171 C173 1.408 1_554 S
C171 C176 1.342 . S
C172 C173 1.310 . S
C172 C175 1.461 1_556 S
C172 H192 0.932 . S
C173 C171 1.408 1_556 S
C173 C172 1.310 . S
C173 H193 0.930 . S
C174 C175 1.474 . S
C174 C176 1.285 . S
C174 H194 0.929 . S
C175 C172 1.461 1_554 S
C175 C174 1.474 . S
C176 C171 1.342 . S
C176 C174 1.285 . S
C176 H195 0.930 . S
C177 C180 1.424 . S
C177 C182 1.245 . S
C177 C183 1.428 . S
C178 C181 1.260 . S
C178 C182 1.477 . S
C178 H196 0.932 . S
C179 C180 1.384 . S
C179 C181 1.479 . S
C179 H197 0.929 . S
C180 C177 1.424 . S
C180 C179 1.384 . S
C180 H198 0.928 . S
C181 C178 1.260 . S
C181 C179 1.479 . S
C182 C177 1.245 . S
C182 C178 1.477 . S
C182 H199 0.932 . S
C183 U166 2.882 1_554 S
C183 C177 1.428 . S
C183 O186 1.301 . S
C183 O187 1.282 . S
O184 U166 2.441 . S
O184 C170 1.249 . S
O185 U166 2.420 . S
O185 C170 1.202 . S
O186 U166 2.455 1_554 S
O186 C183 1.301 . S
O187 U166 2.449 1_554 S
O187 C183 1.282 . S
H188 C161 0.931 . S
H189 C163 0.929 . S
H190 C164 0.930 . S
H191 C165 0.931 . S
H192 C172 0.932 . S
H193 C173 0.930 . S
H194 C174 0.929 . S
H195 C176 0.930 . S
H196 C178 0.932 . S
H197 C179 0.929 . S
H198 C180 0.928 . S
H199 C182 0.932 . S
C200 C201 1.264 . S
C200 C205 1.479 . S
C200 C210 1.465 . S
C201 C200 1.264 . S
C201 C203 1.339 . S
C201 H228 0.931 . S
C202 C203 1.395 . S
C202 C204 1.320 . S
C203 C201 1.339 . S
C203 C202 1.395 . S
C203 H229 0.929 . S
C204 C202 1.320 . S
C204 C205 1.405 . S
C204 H230 0.930 . S
C205 C200 1.479 . S
C205 C204 1.405 . S
C205 H231 0.931 . S
U206 O207 2.454 . S
U206 O208 2.458 . S
U206 C209 2.984 . S
U206 C210 2.847 1_554 S
U206 C223 2.882 . S
U206 O224 2.441 1_554 S
U206 O225 2.420 . S
U206 O226 2.455 . S
U206 O227 2.449 . S
O207 U206 2.454 . S
O207 C209 1.353 . S
O208 U206 2.458 . S
O208 C209 1.286 . S
C209 U206 2.984 . S
C209 O207 1.353 . S
C209 O208 1.286 . S
C209 C211 1.363 . S
C210 C200 1.465 . S
C210 U206 2.847 1_556 S
C210 O224 1.249 . S
C210 O225 1.202 1_556 S
C211 C209 1.363 . S
C211 C213 1.408 . S
C211 C216 1.342 . S
C212 C213 1.310 . S
C212 C215 1.461 . S
C212 H232 0.932 . S
C213 C211 1.408 . S
C213 C212 1.310 . S
C213 H233 0.930 . S
C214 C215 1.474 . S
C214 C216 1.285 . S
C214 H234 0.929 . S
C215 C212 1.461 . S
C215 C214 1.474 . S
C216 C211 1.342 . S
C216 C214 1.285 . S
C216 H235 0.930 . S
C217 C220 1.424 . S
C217 C222 1.245 . S
C217 C223 1.428 . S
C218 C221 1.260 . S
C218 C222 1.477 . S
C218 H236 0.932 . S
C219 C220 1.384 . S
C219 C221 1.479 . S
C219 H237 0.929 . S
C220 C217 1.424 . S
C220 C219 1.384 . S
C220 H238 0.928 . S
C221 C218 1.260 . S
C221 C219 1.479 . S
C222 C217 1.245 . S
C222 C218 1.477 . S
C222 H239 0.932 . S
C223 U206 2.882 . S
C223 C217 1.428 . S
C223 O226 1.301 . S
C223 O227 1.282 . S
O224 U206 2.441 1_556 S
O224 C210 1.249 . S
O225 U206 2.420 . S
O225 C210 1.202 1_554 S
O226 U206 2.455 . S
O226 C223 1.301 . S
O227 U206 2.449 . S
O227 C223 1.282 . S
H228 C201 0.931 . S
H229 C203 0.929 . S
H230 C204 0.930 . S
H231 C205 0.931 . S
H232 C212 0.932 . S
H233 C213 0.930 . S
H234 C214 0.929 . S
H235 C216 0.930 . S
H236 C218 0.932 . S
H237 C219 0.929 . S
H238 C220 0.928 . S
H239 C222 0.932 . S
C240 C241 1.264 . S
C240 C245 1.479 . S
C240 C250 1.465 1_556 S
C241 C240 1.264 . S
C241 C243 1.339 . S
C241 H268 0.931 1_556 S
C242 C243 1.395 . S
C242 C244 1.320 . S
C243 C241 1.339 . S
C243 C242 1.395 . S
C243 H269 0.929 . S
C244 C242 1.320 . S
C244 C245 1.405 . S
C244 H270 0.922 1_545 S
C245 C240 1.479 . S
C245 C244 1.405 . S
C245 H271 0.931 . S
U246 O247 2.454 . S
U246 O248 2.458 . S
U246 C249 2.984 . S
U246 C250 2.847 . S
U246 C263 2.882 . S
U246 O264 2.441 . S
U246 O265 2.420 . S
U246 O266 2.455 . S
U246 O267 2.449 . S
O247 U246 2.454 . S
O247 C249 1.353 . S
O248 U246 2.458 . S
O248 C249 1.286 . S
C249 U246 2.984 . S
C249 O247 1.353 . S
C249 O248 1.286 . S
C249 C251 1.363 . S
C250 C240 1.465 1_554 S
C250 U246 2.847 . S
C250 O264 1.249 . S
C250 O265 1.202 . S
C251 C249 1.363 . S
C251 C253 1.408 . S
C251 C256 1.342 . S
C252 C253 1.310 . S
C252 C255 1.463 . S
C252 H272 0.932 . S
C253 C251 1.408 . S
C253 C252 1.310 . S
C253 H273 0.930 . S
C254 C255 1.475 1_565 S
C254 C256 1.286 1_565 S
C254 H274 0.929 . S
C255 C252 1.463 . S
C255 C254 1.475 1_545 S
C256 C251 1.342 . S
C256 C254 1.286 1_545 S
C256 H275 0.931 . S
C257 C260 1.424 . S
C257 C262 1.245 . S
C257 C263 1.428 . S
C258 C261 1.260 . S
C258 C262 1.477 . S
C258 H276 0.932 . S
C259 C260 1.384 . S
C259 C261 1.479 . S
C259 H277 0.929 . S
C260 C257 1.424 . S
C260 C259 1.384 . S
C260 H278 0.928 . S
C261 C258 1.260 . S
C261 C259 1.479 . S
C262 C257 1.245 . S
C262 C258 1.477 . S
C262 H279 0.932 . S
C263 U246 2.882 . S
C263 C257 1.428 . S
C263 O266 1.301 . S
C263 O267 1.282 . S
O264 U246 2.441 . S
O264 C250 1.249 . S
O265 U246 2.420 . S
O265 C250 1.202 . S
O266 U246 2.455 . S
O266 C263 1.301 . S
O267 U246 2.449 . S
O267 C263 1.282 . S
H268 C241 0.931 1_554 S
H269 C243 0.929 . S
H270 C244 0.922 1_565 S
H271 C245 0.931 . S
H272 C252 0.932 . S
H273 C253 0.930 . S
H274 C254 0.929 . S
H275 C256 0.931 . S
H276 C258 0.932 . S
H277 C259 0.929 . S
H278 C260 0.928 . S
H279 C262 0.932 . S
C280 C281 1.264 . S
C280 C285 1.479 . S
C280 C290 1.465 . S
C281 C280 1.264 . S
C281 C283 1.339 . S
C281 H308 0.931 . S
C282 C283 1.395 . S
C282 C284 1.320 . S
C283 C281 1.339 . S
C283 C282 1.395 . S
C283 H309 0.929 . S
C284 C282 1.320 . S
C284 C285 1.405 . S
C284 H310 0.930 . S
C285 C280 1.479 . S
C285 C284 1.405 . S
C285 H311 0.931 . S
U286 O287 2.454 . S
U286 O288 2.458 . S
U286 C289 2.984 . S
U286 C290 2.847 . S
U286 C303 2.882 . S
U286 O304 2.441 . S
U286 O305 2.420 . S
U286 O306 2.455 . S
U286 O307 2.449 . S
O287 U286 2.454 . S
O287 C289 1.353 . S
O288 U286 2.458 . S
O288 C289 1.286 . S
C289 U286 2.984 . S
C289 O287 1.353 . S
C289 O288 1.286 . S
C289 C291 1.363 . S
C290 C280 1.465 . S
C290 U286 2.847 . S
C290 O304 1.249 . S
C290 O305 1.202 . S
C291 C289 1.363 . S
C291 C293 1.408 . S
C291 C296 1.342 . S
C292 C293 1.310 . S
C292 C295 1.461 . S
C292 H312 0.932 . S
C293 C291 1.408 . S
C293 C292 1.310 . S
C293 H313 0.930 . S
C294 C295 1.474 . S
C294 C296 1.285 . S
C294 H314 0.929 . S
C295 C292 1.461 . S
C295 C294 1.474 . S
C296 C291 1.342 . S
C296 C294 1.285 . S
C296 H315 0.930 . S
C297 C300 1.424 . S
C297 C302 1.245 . S
C297 C303 1.428 . S
C298 C301 1.260 . S
C298 C302 1.477 . S
C298 H316 0.932 . S
C299 C300 1.384 . S
C299 C301 1.479 . S
C299 H317 0.929 . S
C300 C297 1.424 . S
C300 C299 1.384 . S
C300 H318 0.928 . S
C301 C298 1.260 . S
C301 C299 1.479 . S
C302 C297 1.245 . S
C302 C298 1.477 . S
C302 H319 0.932 . S
C303 U286 2.882 . S
C303 C297 1.428 . S
C303 O306 1.301 . S
C303 O307 1.282 . S
O304 U286 2.441 . S
O304 C290 1.249 . S
O305 U286 2.420 . S
O305 C290 1.202 . S
O306 U286 2.455 . S
O306 C303 1.301 . S
O307 U286 2.449 . S
O307 C303 1.282 . S
H308 C281 0.931 . S
H309 C283 0.929 . S
H310 C284 0.930 . S
H311 C285 0.931 . S
H312 C292 0.932 . S
H313 C293 0.930 . S
H314 C294 0.929 . S
H315 C296 0.930 . S
H316 C298 0.932 . S
H317 C299 0.929 . S
H318 C300 0.928 . S
H319 C302 0.932 . S
Dy320 O323 2.307 1_545 S
Dy320 O325 2.395 1_655 S
Dy320 O326 2.379 . S
Dy320 O328 2.339 . S
Dy320 O330 2.313 . S
Dy320 O334 2.275 1_655 S
Dy320 C342 2.738 . S
Dy321 O324 2.298 . S
Dy321 O327 2.275 1_455 S
Dy321 O329 2.307 1_565 S
Dy321 O331 2.395 . S
Dy321 O332 2.379 . S
Dy321 O335 2.339 . S
Dy321 C351 2.738 . S
C322 O334 1.254 1_565 S
C322 O335 1.257 . S
O323 Dy320 2.307 1_565 S
O323 C333 1.266 . S
O324 Dy321 2.298 . S
O324 C333 1.236 1_455 S
O325 Dy320 2.395 1_455 S
O325 C342 1.255 1_455 S
O326 Dy320 2.379 . S
O326 C342 1.249 . S
O327 Dy321 2.275 1_655 S
O327 C343 1.254 1_565 S
O328 Dy320 2.339 . S
O328 C343 1.257 . S
O329 Dy321 2.307 1_545 S
O329 C344 1.266 . S
O330 Dy320 2.313 . S
O330 C344 1.205 1_655 S
O331 Dy321 2.395 . S
O331 C351 1.255 . S
O332 Dy321 2.379 . S
O332 C351 1.249 . S
C333 O323 1.266 . S
C333 O324 1.236 1_655 S
O334 Dy320 2.275 1_455 S
O334 C322 1.254 1_545 S
O335 Dy321 2.339 . S
O335 C322 1.257 . S
C336 C339 1.344 1_655 S
C336 C340 1.328 . S
C336 C342 1.516 . S
C337 C338 1.304 1_655 S
C337 C341 1.323 . S
C338 C337 1.304 1_455 S
C338 C339 1.371 . S
C338 H352 0.930 . S
C339 C336 1.344 1_455 S
C339 C338 1.371 . S
C339 H353 0.931 . S
C340 C336 1.328 . S
C340 C341 1.433 . S
C340 H354 0.931 . S
C341 C337 1.323 . S
C341 C340 1.433 . S
C341 H355 0.933 . S
C342 Dy320 2.738 . S
C342 O325 1.255 1_655 S
C342 O326 1.249 . S
C342 C336 1.516 . S
C343 O327 1.254 1_545 S
C343 O328 1.257 . S
C344 O329 1.266 . S
C344 O330 1.205 1_455 S
C345 C348 1.344 . S
C345 C349 1.328 . S
C345 C351 1.516 . S
C346 C347 1.304 . S
C346 C350 1.323 . S
C347 C346 1.304 . S
C347 C348 1.371 . S
C347 H356 0.930 1_455 S
C348 C345 1.344 . S
C348 C347 1.371 . S
C348 H357 0.931 1_455 S
C349 C345 1.328 . S
C349 C350 1.433 . S
C349 H358 0.931 . S
C350 C346 1.323 . S
C350 C349 1.433 . S
C350 H359 0.933 . S
C351 Dy321 2.738 . S
C351 O331 1.255 . S
C351 O332 1.249 . S
C351 C345 1.516 . S
H352 C338 0.930 . S
H353 C339 0.931 . S
H354 C340 0.931 . S
H355 C341 0.933 . S
H356 C347 0.930 1_655 S
H357 C348 0.931 1_655 S
H358 C349 0.931 . S
H359 C350 0.933 . S
Dy360 O363 2.307 . S
Dy360 O365 2.395 1_565 S
Dy360 O366 2.379 . S
Dy360 O368 2.339 . S
Dy360 O370 2.298 . S
Dy360 O374 2.275 1_565 S
Dy360 C382 2.738 . S
Dy361 O364 2.298 . S
Dy361 O367 2.275 1_545 S
Dy361 O369 2.307 . S
Dy361 O371 2.395 1_545 S
Dy361 O372 2.379 . S
Dy361 O375 2.339 . S
Dy361 C391 2.738 . S
C362 O374 1.254 . S
C362 O375 1.257 . S
O363 Dy360 2.307 . S
O363 C373 1.266 . S
O364 Dy361 2.298 . S
O364 C373 1.236 1_545 S
O365 Dy360 2.395 1_545 S
O365 C382 1.255 1_545 S
O366 Dy360 2.379 . S
O366 C382 1.249 . S
O367 Dy361 2.275 1_565 S
O367 C383 1.254 . S
O368 Dy360 2.339 . S
O368 C383 1.257 . S
O369 Dy361 2.307 . S
O369 C384 1.266 . S
O370 Dy360 2.298 . S
O370 C384 1.236 1_565 S
O371 Dy361 2.395 1_565 S
O371 C391 1.255 1_565 S
O372 Dy361 2.379 . S
O372 C391 1.249 . S
C373 O363 1.266 . S
C373 O364 1.236 1_565 S
O374 Dy360 2.275 1_545 S
O374 C362 1.254 . S
O375 Dy361 2.339 . S
O375 C362 1.257 . S
C376 C379 1.344 1_565 S
C376 C380 1.328 . S
C376 C382 1.516 . S
C377 C378 1.315 . S
C377 C381 1.323 . S
C378 C377 1.315 . S
C378 C379 1.369 1_565 S
C378 H392 0.920 1_565 S
C379 C376 1.344 1_545 S
C379 C378 1.369 1_545 S
C379 H393 0.931 . S
C380 C376 1.328 . S
C380 C381 1.433 . S
C380 H394 0.931 . S
C381 C377 1.323 . S
C381 C380 1.433 . S
C381 H395 0.933 . S
C382 Dy360 2.738 . S
C382 O365 1.255 1_565 S
C382 O366 1.249 . S
C382 C376 1.516 . S
C383 O367 1.254 . S
C383 O368 1.257 . S
C384 O369 1.266 . S
C384 O370 1.236 1_545 S
C385 C388 1.311 1_545 S
C385 C389 1.328 . S
C385 C391 1.516 . S
C386 C387 1.326 . S
C386 C390 1.323 . S
C387 C386 1.326 . S
C387 C388 1.364 1_545 S
C387 H396 0.911 1_545 S
C388 C385 1.311 1_565 S
C388 C387 1.364 1_565 S
C388 H397 0.971 . S
C389 C385 1.328 . S
C389 C390 1.433 . S
C389 H398 0.931 . S
C390 C386 1.323 . S
C390 C389 1.433 . S
C390 H399 0.933 . S
C391 Dy361 2.738 . S
C391 O371 1.255 1_545 S
C391 O372 1.249 . S
C391 C385 1.516 . S
H392 C378 0.920 1_545 S
H393 C379 0.931 . S
H394 C380 0.931 . S
H395 C381 0.933 . S
H396 C387 0.911 1_565 S
H397 C388 0.971 . S
H398 C389 0.931 . S
H399 C390 0.933 . S
Dy400 O403 2.307 . S
Dy400 O405 2.395 . S
Dy400 O406 2.379 . S
Dy400 O408 2.339 . S
Dy400 O410 2.298 . S
Dy400 O414 2.275 . S
Dy400 C422 2.738 . S
Dy401 O404 2.298 . S
Dy401 O407 2.275 . S
Dy401 O409 2.307 . S
Dy401 O411 2.395 . S
Dy401 O412 2.379 . S
Dy401 O415 2.339 . S
Dy401 C431 2.738 . S
C402 O414 1.254 . S
C402 O415 1.257 . S
O403 Dy400 2.307 . S
O403 C413 1.266 . S
O404 Dy401 2.298 . S
O404 C413 1.236 . S
O405 Dy400 2.395 . S
O405 C422 1.255 . S
O406 Dy400 2.379 . S
O406 C422 1.249 . S
O407 Dy401 2.275 . S
O407 C423 1.254 . S
O408 Dy400 2.339 . S
O408 C423 1.257 . S
O409 Dy401 2.307 . S
O409 C424 1.266 . S
O410 Dy400 2.298 . S
O410 C424 1.236 . S
O411 Dy401 2.395 . S
O411 C431 1.255 . S
O412 Dy401 2.379 . S
O412 C431 1.249 . S
C413 O403 1.266 . S
C413 O404 1.236 . S
O414 Dy400 2.275 . S
O414 C402 1.254 . S
O415 Dy401 2.339 . S
O415 C402 1.257 . S
C416 C419 1.344 . S
C416 C420 1.328 . S
C416 C422 1.516 . S
C417 C418 1.304 . S
C417 C421 1.323 . S
C418 C417 1.304 . S
C418 C419 1.371 . S
C418 H432 0.930 . S
C419 C416 1.344 . S
C419 C418 1.371 . S
C419 H433 0.931 . S
C420 C416 1.328 . S
C420 C421 1.433 . S
C420 H434 0.931 . S
C421 C417 1.323 . S
C421 C420 1.433 . S
C421 H435 0.933 . S
C422 Dy400 2.738 . S
C422 O405 1.255 . S
C422 O406 1.249 . S
C422 C416 1.516 . S
C423 O407 1.254 . S
C423 O408 1.257 . S
C424 O409 1.266 . S
C424 O410 1.236 . S
C425 C428 1.344 . S
C425 C429 1.328 . S
C425 C431 1.516 . S
C426 C427 1.304 . S
C426 C430 1.323 . S
C427 C426 1.304 . S
C427 C428 1.371 . S
C427 H436 0.930 . S
C428 C425 1.344 . S
C428 C427 1.371 . S
C428 H437 0.931 . S
C429 C425 1.328 . S
C429 C430 1.433 . S
C429 H438 0.931 . S
C430 C426 1.323 . S
C430 C429 1.433 . S
C430 H439 0.933 . S
C431 Dy401 2.738 . S
C431 O411 1.255 . S
C431 O412 1.249 . S
C431 C425 1.516 . S
H432 C418 0.930 . S
H433 C419 0.931 . S
H434 C420 0.931 . S
H435 C421 0.933 . S
H436 C427 0.930 . S
H437 C428 0.931 . S
H438 C429 0.931 . S
H439 C430 0.933 . S
Dy440 O443 2.307 1_455 S
Dy440 O445 2.395 . S
Dy440 O446 2.379 . S
Dy440 O448 2.339 . S
Dy440 O450 2.298 . S
Dy440 O454 2.275 . S
Dy440 C462 2.738 . S
Dy441 O444 2.298 . S
Dy441 O447 2.260 1_655 S
Dy441 O449 2.307 1_655 S
Dy441 O451 2.395 . S
Dy441 O452 2.379 . S
Dy441 O455 2.339 . S
Dy441 C471 2.738 . S
C442 O454 1.254 . S
C442 O455 1.257 1_455 S
O443 Dy440 2.307 1_655 S
O443 C453 1.266 . S
O444 Dy441 2.298 . S
O444 C453 1.236 . S
O445 Dy440 2.395 . S
O445 C462 1.255 . S
O446 Dy440 2.379 . S
O446 C462 1.249 . S
O447 Dy441 2.260 1_455 S
O447 C463 1.268 . S
O448 Dy440 2.339 . S
O448 C463 1.257 . S
O449 Dy441 2.307 1_455 S
O449 C464 1.266 . S
O450 Dy440 2.298 . S
O450 C464 1.236 . S
O451 Dy441 2.395 . S
O451 C471 1.255 . S
O452 Dy441 2.379 . S
O452 C471 1.249 . S
C453 O443 1.266 . S
C453 O444 1.236 . S
O454 Dy440 2.275 . S
O454 C442 1.254 . S
O455 Dy441 2.339 . S
O455 C442 1.257 1_655 S
C456 C459 1.344 . S
C456 C460 1.328 . S
C456 C462 1.516 . S
C457 C458 1.304 . S
C457 C461 1.323 . S
C458 C457 1.304 . S
C458 C459 1.371 . S
C458 H472 0.930 . S
C459 C456 1.344 . S
C459 C458 1.371 . S
C459 H473 0.931 . S
C460 C456 1.328 . S
C460 C461 1.433 . S
C460 H474 0.931 . S
C461 C457 1.323 . S
C461 C460 1.433 . S
C461 H475 0.933 . S
C462 Dy440 2.738 . S
C462 O445 1.255 . S
C462 O446 1.249 . S
C462 C456 1.516 . S
C463 O447 1.268 . S
C463 O448 1.257 . S
C464 O449 1.266 . S
C464 O450 1.236 . S
C465 C468 1.344 . S
C465 C469 1.328 . S
C465 C471 1.516 . S
C466 C467 1.304 . S
C466 C470 1.323 . S
C467 C466 1.304 . S
C467 C468 1.371 . S
C467 H476 0.930 . S
C468 C465 1.344 . S
C468 C467 1.371 . S
C468 H477 0.931 . S
C469 C465 1.328 . S
C469 C470 1.433 . S
C469 H478 0.931 . S
C470 C466 1.323 . S
C470 C469 1.433 . S
C470 H479 0.933 . S
C471 Dy441 2.738 . S
C471 O451 1.255 . S
C471 O452 1.249 . S
C471 C465 1.516 . S
H472 C458 0.930 . S
H473 C459 0.931 . S
H474 C460 0.931 . S
H475 C461 0.933 . S
H476 C467 0.930 . S
H477 C468 0.931 . S
H478 C469 0.931 . S
H479 C470 0.933 . S
H480 C486 0.930 . S
H481 C490 0.930 . S
H482 C495 0.929 . S
H483 C493 0.929 . S
H484 C488 0.929 . S
H485 C494 0.929 . S
C486 H480 0.930 . S
C486 C487 1.376 . S
C486 C494 1.378 . S
C487 C486 1.376 . S
C487 C495 1.425 1_565 S
C488 H484 0.929 . S
C488 C490 1.378 . S
C488 C492 1.383 . S
C489 C492 1.465 1_565 S
C489 C494 1.365 . S
C489 N497 1.411 1_565 S
C490 H481 0.930 . S
C490 C488 1.378 . S
C490 C491 1.396 . S
C491 C490 1.396 . S
C491 C493 1.407 1_545 S
C492 C488 1.383 . S
C492 C489 1.465 1_545 S
C492 N496 1.391 1_545 S
C493 H483 0.929 . S
C493 C491 1.407 1_565 S
C493 N496 1.384 . S
C494 H485 0.929 . S
C494 C486 1.378 . S
C494 C489 1.365 . S
C495 H482 0.929 . S
C495 C487 1.425 1_545 S
C495 N497 1.384 . S
N496 C492 1.391 1_565 S
N496 C493 1.384 . S
N497 C489 1.411 1_545 S
N497 C495 1.384 . S
H498 C504 0.930 . S
H499 C508 0.930 . S
H500 C513 0.929 . S
H501 C511 0.929 . S
H502 C506 0.929 . S
H503 C512 0.929 . S
C504 H498 0.930 . S
C504 C505 1.367 . S
C504 C512 1.378 . S
C505 C504 1.367 . S
C505 C513 1.433 . S
C506 H502 0.929 . S
C506 C508 1.378 . S
C506 C510 1.350 . S
C507 C510 1.463 . S
C507 C512 1.350 . S
C507 N515 1.427 . S
C508 H499 0.930 . S
C508 C506 1.378 . S
C508 C509 1.367 . S
C509 C508 1.367 . S
C509 C511 1.433 . S
C510 C506 1.350 . S
C510 C507 1.463 . S
C510 N514 1.427 . S
C511 H501 0.929 . S
C511 C509 1.433 . S
C511 N514 1.384 . S
C512 H503 0.929 . S
C512 C504 1.378 . S
C512 C507 1.350 . S
C513 H500 0.929 . S
C513 C505 1.433 . S
C513 N515 1.384 . S
N514 C510 1.427 . S
N514 C511 1.384 . S
N515 C507 1.427 . S
N515 C513 1.384 . S
H516 C522 0.930 . S
H517 C526 0.930 . S
H518 C531 0.929 . S
H519 C529 0.929 . S
H520 C524 0.929 . S
H521 C530 0.929 . S
C522 H516 0.930 . S
C522 C523 1.367 . S
C522 C530 1.378 . S
C523 C522 1.367 . S
C523 C531 1.433 . S
C524 H520 0.929 . S
C524 C526 1.378 . S
C524 C528 1.350 . S
C525 C528 1.463 . S
C525 C530 1.350 . S
C525 N533 1.427 . S
C526 H517 0.930 . S
C526 C524 1.378 . S
C526 C527 1.367 . S
C527 C526 1.367 . S
C527 C529 1.433 . S
C528 C524 1.350 . S
C528 C525 1.463 . S
C528 N532 1.427 . S
C529 H519 0.929 . S
C529 C527 1.433 . S
C529 N532 1.384 . S
C530 H521 0.929 . S
C530 C522 1.378 . S
C530 C525 1.350 . S
C531 H518 0.929 . S
C531 C523 1.433 . S
C531 N533 1.384 . S
N532 C528 1.427 . S
N532 C529 1.384 . S
N533 C525 1.427 . S
N533 C531 1.384 . S
H534 C540 0.930 . S
H535 C544 0.934 . S
H536 C549 0.909 1_655 S
H537 C547 0.929 . S
H538 C542 0.929 1_655 S
H539 C548 0.929 . S
C540 H534 0.930 . S
C540 C541 1.367 . S
C540 C548 1.378 . S
C541 C540 1.367 . S
C541 C549 1.433 . S
C542 H538 0.929 1_455 S
C542 C544 1.379 1_455 S
C542 C546 1.350 . S
C543 C546 1.463 . S
C543 C548 1.350 . S
C543 N551 1.427 . S
C544 H535 0.934 . S
C544 C542 1.379 1_655 S
C544 C545 1.362 1_655 S
C545 C544 1.362 1_455 S
C545 C547 1.433 . S
C546 C542 1.350 . S
C546 C543 1.463 . S
C546 N550 1.427 . S
C547 H537 0.929 . S
C547 C545 1.433 . S
C547 N550 1.384 . S
C548 H539 0.929 . S
C548 C540 1.378 . S
C548 C543 1.350 . S
C549 H536 0.909 1_455 S
C549 C541 1.433 . S
C549 N551 1.384 . S
N550 C546 1.427 . S
N550 C547 1.384 . S
N551 C543 1.427 . S
N551 C549 1.384 . S
H552 C558 0.930 . S
H553 C562 0.930 . S
H554 C567 0.929 . S
H555 C565 0.929 . S
H556 C560 0.929 . S
H557 C566 0.929 1_556 S
C558 H552 0.930 . S
C558 C559 1.380 . S
C558 C566 1.378 . S
C559 C558 1.380 . S
C559 C567 1.419 1_565 S
C560 H556 0.929 . S
C560 C562 1.378 . S
C560 C564 1.377 . S
C561 C564 1.456 1_565 S
C561 C566 1.376 1_556 S
C561 N569 1.403 1_566 S
C562 H553 0.930 . S
C562 C560 1.378 . S
C562 C563 1.380 . S
C563 C562 1.380 . S
C563 C565 1.419 1_545 S
C564 C560 1.377 . S
C564 C561 1.456 1_545 S
C564 N568 1.402 1_545 S
C565 H555 0.929 . S
C565 C563 1.419 1_565 S
C565 N568 1.384 . S
C566 H557 0.929 1_554 S
C566 C558 1.378 . S
C566 C561 1.376 1_554 S
C567 H554 0.929 . S
C567 C559 1.419 1_545 S
C567 N569 1.384 . S
N568 C564 1.402 1_565 S
N568 C565 1.384 . S
N569 C561 1.403 1_544 S
N569 C567 1.384 . S
H570 C576 0.930 . S
H571 C580 0.930 . S
H572 C585 0.929 . S
H573 C583 0.929 . S
H574 C578 0.929 . S
H575 C584 0.929 . S
C576 H570 0.930 . S
C576 C577 1.367 . S
C576 C584 1.378 . S
C577 C576 1.367 . S
C577 C585 1.433 . S
C578 H574 0.929 . S
C578 C580 1.378 . S
C578 C582 1.350 . S
C579 C582 1.463 . S
C579 C584 1.350 . S
C579 N587 1.427 . S
C580 H571 0.930 . S
C580 C578 1.378 . S
C580 C581 1.367 . S
C581 C580 1.367 . S
C581 C583 1.433 . S
C582 C578 1.350 . S
C582 C579 1.463 . S
C582 N586 1.427 . S
C583 H573 0.929 . S
C583 C581 1.433 . S
C583 N586 1.384 . S
C584 H575 0.929 . S
C584 C576 1.378 . S
C584 C579 1.350 . S
C585 H572 0.929 . S
C585 C577 1.433 . S
C585 N587 1.384 . S
N586 C582 1.427 . S
N586 C583 1.384 . S
N587 C579 1.427 . S
N587 C585 1.384 . S
H588 C594 0.930 . S
H589 C598 0.930 . S
H590 C603 0.929 . S
H591 C601 0.927 1_556 S
H592 C596 0.929 . S
H593 C602 0.929 . S
C594 H588 0.930 . S
C594 C595 1.367 . S
C594 C602 1.378 . S
C595 C594 1.367 . S
C595 C603 1.433 . S
C596 H592 0.929 . S
C596 C598 1.378 . S
C596 C600 1.350 . S
C597 C600 1.463 . S
C597 C602 1.350 . S
C597 N605 1.427 . S
C598 H589 0.930 . S
C598 C596 1.378 . S
C598 C599 1.367 1_554 S
C599 C598 1.367 1_556 S
C599 C601 1.433 1_556 S
C600 C596 1.350 . S
C600 C597 1.463 . S
C600 N604 1.427 . S
C601 H591 0.927 1_554 S
C601 C599 1.433 1_554 S
C601 N604 1.387 . S
C602 H593 0.929 . S
C602 C594 1.378 . S
C602 C597 1.350 . S
C603 H590 0.929 . S
C603 C595 1.433 . S
C603 N605 1.384 . S
N604 C600 1.427 . S
N604 C601 1.387 . S
N605 C597 1.427 . S
N605 C603 1.384 . S
H606 C612 0.930 . S
H607 C616 0.930 . S
H608 C621 0.929 . S
H609 C619 0.929 . S
H610 C614 0.929 . S
H611 C620 0.929 . S
C612 H606 0.930 . S
C612 C613 1.367 . S
C612 C620 1.378 . S
C613 C612 1.367 . S
C613 C621 1.433 1_655 S
C614 H610 0.929 . S
C614 C616 1.378 . S
C614 C618 1.350 1_455 S
C615 C618 1.463 1_554 S
C615 C620 1.350 . S
C615 N623 1.427 1_655 S
C616 H607 0.930 . S
C616 C614 1.378 . S
C616 C617 1.364 . S
C617 C616 1.364 . S
C617 C619 1.435 1_455 S
C618 C614 1.350 1_655 S
C618 C615 1.463 1_556 S
C618 N622 1.427 . S
C619 H609 0.929 . S
C619 C617 1.435 1_655 S
C619 N622 1.384 . S
C620 H611 0.929 . S
C620 C612 1.378 . S
C620 C615 1.350 . S
C621 H608 0.929 . S
C621 C613 1.433 1_455 S
C621 N623 1.384 . S
N622 C618 1.427 . S
N622 C619 1.384 . S
N623 C615 1.427 1_455 S
N623 C621 1.384 . S
H624 C630 0.930 . S
H625 C634 0.930 . S
H626 C639 0.929 . S
H627 C637 0.929 . S
H628 C632 0.912 1_455 S
H629 C638 0.929 . S
C630 H624 0.930 . S
C630 C631 1.367 . S
C630 C638 1.378 . S
C631 C630 1.367 . S
C631 C639 1.433 . S
C632 H628 0.912 1_655 S
C632 C634 1.391 . S
C632 C636 1.352 . S
C633 C636 1.456 1_455 S
C633 C638 1.350 . S
C633 N641 1.427 . S
C634 H625 0.930 . S
C634 C632 1.391 . S
C634 C635 1.367 . S
C635 C634 1.367 . S
C635 C637 1.433 . S
C636 C632 1.352 . S
C636 C633 1.456 1_655 S
C636 N640 1.436 . S
C637 H627 0.929 . S
C637 C635 1.433 . S
C637 N640 1.384 . S
C638 H629 0.929 . S
C638 C630 1.378 . S
C638 C633 1.350 . S
C639 H626 0.929 . S
C639 C631 1.433 . S
C639 N641 1.384 . S
N640 C636 1.436 . S
N640 C637 1.384 . S
N641 C633 1.427 . S
N641 C639 1.384 . S
H642 C648 0.930 . S
H643 C652 0.930 . S
H644 C657 0.929 . S
H645 C655 0.929 . S
H646 C650 0.929 . S
H647 C656 0.929 . S
C648 H642 0.930 . S
C648 C649 1.367 . S
C648 C656 1.378 . S
C649 C648 1.367 . S
C649 C657 1.433 1_545 S
C650 H646 0.929 . S
C650 C652 1.378 . S
C650 C654 1.350 . S
C651 C654 1.463 . S
C651 C656 1.350 1_565 S
C651 N659 1.427 . S
C652 H643 0.930 . S
C652 C650 1.378 . S
C652 C653 1.367 . S
C653 C652 1.367 . S
C653 C655 1.433 . S
C654 C650 1.350 . S
C654 C651 1.463 . S
C654 N658 1.427 . S
C655 H645 0.929 . S
C655 C653 1.433 . S
C655 N658 1.384 . S
C656 H647 0.929 . S
C656 C648 1.378 . S
C656 C651 1.350 1_545 S
C657 H644 0.929 . S
C657 C649 1.433 1_565 S
C657 N659 1.384 . S
N658 C654 1.427 . S
N658 C655 1.384 . S
N659 C651 1.427 . S
N659 C657 1.384 . S
H660 C666 0.930 . S
H661 C670 0.930 . S
H662 C675 0.929 . S
H663 C673 0.929 . S
H664 C668 0.929 . S
H665 C674 0.929 . S
C666 H660 0.930 . S
C666 C667 1.367 . S
C666 C674 1.378 . S
C667 C666 1.367 . S
C667 C675 1.433 . S
C668 H664 0.929 . S
C668 C670 1.378 . S
C668 C672 1.350 . S
C669 C672 1.463 . S
C669 C674 1.350 . S
C669 N677 1.427 . S
C670 H661 0.930 . S
C670 C668 1.378 . S
C670 C671 1.367 . S
C671 C670 1.367 . S
C671 C673 1.433 . S
C672 C668 1.350 . S
C672 C669 1.463 . S
C672 N676 1.427 . S
C673 H663 0.929 . S
C673 C671 1.433 . S
C673 N676 1.384 . S
C674 H665 0.929 . S
C674 C666 1.378 . S
C674 C669 1.350 . S
C675 H662 0.929 . S
C675 C667 1.433 . S
C675 N677 1.384 . S
N676 C672 1.427 . S
N676 C673 1.384 . S
N677 C669 1.427 . S
N677 C675 1.384 . S
H678 C684 0.930 . S
H679 C688 0.930 . S
H680 C693 0.929 . S
H681 C691 0.929 . S
H682 C686 0.929 . S
H683 C692 0.929 . S
C684 H678 0.930 . S
C684 C685 1.367 . S
C684 C692 1.378 . S
C685 C684 1.367 . S
C685 C693 1.433 . S
C686 H682 0.929 . S
C686 C688 1.378 . S
C686 C690 1.350 . S
C687 C690 1.463 . S
C687 C692 1.350 . S
C687 N695 1.427 . S
C688 H679 0.930 . S
C688 C686 1.378 . S
C688 C689 1.367 . S
C689 C688 1.367 . S
C689 C691 1.433 . S
C690 C686 1.350 . S
C690 C687 1.463 . S
C690 N694 1.427 . S
C691 H681 0.929 . S
C691 C689 1.433 . S
C691 N694 1.384 . S
C692 H683 0.929 . S
C692 C684 1.378 . S
C692 C687 1.350 . S
C693 H680 0.929 . S
C693 C685 1.433 . S
C693 N695 1.384 . S
N694 C690 1.427 . S
N694 C691 1.384 . S
N695 C687 1.427 . S
N695 C693 1.384 . S
H696 C702 0.930 . S
H697 C706 0.930 1_655 S
H698 C711 0.929 . S
H699 C709 0.929 . S
H700 C704 0.929 . S
H701 C710 0.929 . S
C702 H696 0.930 . S
C702 C703 1.367 1_455 S
C702 C710 1.378 . S
C703 C702 1.367 1_655 S
C703 C711 1.433 . S
C704 H700 0.929 . S
C704 C706 1.378 1_655 S
C704 C708 1.350 1_655 S
C705 C708 1.463 1_554 S
C705 C710 1.350 . S
C705 N713 1.427 1_455 S
C706 H697 0.930 1_455 S
C706 C704 1.378 1_455 S
C706 C707 1.367 . S
C707 C706 1.367 . S
C707 C709 1.433 . S
C708 C704 1.350 1_455 S
C708 C705 1.463 1_556 S
C708 N712 1.427 . S
C709 H699 0.929 . S
C709 C707 1.433 . S
C709 N712 1.384 . S
C710 H701 0.929 . S
C710 C702 1.378 . S
C710 C705 1.350 . S
C711 H698 0.929 . S
C711 C703 1.433 . S
C711 N713 1.384 . S
N712 C708 1.427 . S
N712 C709 1.384 . S
N713 C705 1.427 1_655 S
N713 C711 1.384 . S
H714 C720 0.930 . S
H715 C724 0.930 . S
H716 C729 0.929 . S
H717 C727 0.929 . S
H718 C722 0.929 1_554 S
H719 C728 0.929 . S
C720 H714 0.930 . S
C720 C721 1.358 1_546 S
C720 C728 1.378 . S
C721 C720 1.358 1_564 S
C721 C729 1.440 . S
C722 H718 0.929 1_556 S
C722 C724 1.378 . S
C722 C726 1.350 . S
C723 C726 1.463 . S
C723 C728 1.350 . S
C723 N731 1.417 1_546 S
C724 H715 0.930 . S
C724 C722 1.378 . S
C724 C725 1.367 . S
C725 C724 1.367 . S
C725 C727 1.433 . S
C726 C722 1.350 . S
C726 C723 1.463 . S
C726 N730 1.427 . S
C727 H717 0.929 . S
C727 C725 1.433 . S
C727 N730 1.384 . S
C728 H719 0.929 . S
C728 C720 1.378 . S
C728 C723 1.350 . S
C729 H716 0.929 . S
C729 C721 1.440 . S
C729 N731 1.387 . S
N730 C726 1.427 . S
N730 C727 1.384 . S
N731 C723 1.417 1_564 S
N731 C729 1.387 . S
H732 C738 0.930 . S
H733 C742 0.930 . S
H734 C747 0.929 . S
H735 C745 0.929 . S
H736 C740 0.929 . S
H737 C746 0.929 . S
C738 H732 0.930 . S
C738 C739 1.367 . S
C738 C746 1.378 . S
C739 C738 1.367 . S
C739 C747 1.433 . S
C740 H736 0.929 . S
C740 C742 1.378 . S
C740 C744 1.350 . S
C741 C744 1.463 . S
C741 C746 1.350 . S
C741 N749 1.427 . S
C742 H733 0.930 . S
C742 C740 1.378 . S
C742 C743 1.367 . S
C743 C742 1.367 . S
C743 C745 1.433 . S
C744 C740 1.350 . S
C744 C741 1.463 . S
C744 N748 1.427 . S
C745 H735 0.929 . S
C745 C743 1.433 . S
C745 N748 1.384 . S
C746 H737 0.929 . S
C746 C738 1.378 . S
C746 C741 1.350 . S
C747 H734 0.929 . S
C747 C739 1.433 . S
C747 N749 1.384 . S
N748 C744 1.427 . S
N748 C745 1.384 . S
N749 C741 1.427 . S
N749 C747 1.384 . S
H750 C756 0.930 . S
H751 C760 0.930 1_556 S
H752 C765 0.929 . S
H753 C763 0.929 . S
H754 C758 0.929 . S
H755 C764 0.929 . S
C756 H750 0.930 . S
C756 C757 1.367 . S
C756 C764 1.378 . S
C757 C756 1.367 . S
C757 C765 1.433 . S
C758 H754 0.929 . S
C758 C760 1.378 . S
C758 C762 1.350 . S
C759 C762 1.463 . S
C759 C764 1.350 . S
C759 N767 1.427 . S
C760 H751 0.930 1_554 S
C760 C758 1.378 . S
C760 C761 1.367 1_554 S
C761 C760 1.367 1_556 S
C761 C763 1.433 . S
C762 C758 1.350 . S
C762 C759 1.463 . S
C762 N766 1.427 . S
C763 H753 0.929 . S
C763 C761 1.433 . S
C763 N766 1.384 1_556 S
C764 H755 0.929 . S
C764 C756 1.378 . S
C764 C759 1.350 . S
C765 H752 0.929 . S
C765 C757 1.433 . S
C765 N767 1.384 . S
N766 C762 1.427 . S
N766 C763 1.384 1_554 S
N767 C759 1.427 . S
N767 C765 1.384 . S
H768 C774 0.930 . S
H769 C778 0.930 1_655 S
H770 C783 0.945 . S
H771 C781 0.929 . S
H772 C776 0.920 1_655 S
H773 C782 0.929 . S
C774 H768 0.930 . S
C774 C775 1.367 . S
C774 C782 1.378 . S
C775 C774 1.367 . S
C775 C783 1.433 . S
C776 H772 0.920 1_455 S
C776 C778 1.378 . S
C776 C780 1.350 . S
C777 C780 1.463 . S
C777 C782 1.350 . S
C777 N785 1.427 . S
C778 H769 0.930 1_455 S
C778 C776 1.378 . S
C778 C779 1.367 . S
C779 C778 1.367 . S
C779 C781 1.433 . S
C780 C776 1.350 . S
C780 C777 1.463 . S
C780 N784 1.427 . S
C781 H771 0.929 . S
C781 C779 1.433 . S
C781 N784 1.384 . S
C782 H773 0.929 . S
C782 C774 1.378 . S
C782 C777 1.350 . S
C783 H770 0.945 . S
C783 C775 1.433 . S
C783 N785 1.384 . S
N784 C780 1.427 . S
N784 C781 1.384 . S
N785 C777 1.427 . S
N785 C783 1.384 . S
H786 C792 0.930 . S
H787 C796 0.930 . S
H788 C801 0.929 . S
H789 C799 0.929 . S
H790 C794 0.929 . S
H791 C800 0.929 . S
C792 H786 0.930 . S
C792 C793 1.367 . S
C792 C800 1.378 . S
C793 C792 1.367 . S
C793 C801 1.433 1_545 S
C794 H790 0.929 . S
C794 C796 1.378 . S
C794 C798 1.350 1_565 S
C795 C798 1.463 . S
C795 C800 1.350 . S
C795 N803 1.427 1_545 S
C796 H787 0.930 . S
C796 C794 1.378 . S
C796 C797 1.367 1_565 S
C797 C796 1.367 1_545 S
C797 C799 1.433 . S
C798 C794 1.350 1_545 S
C798 C795 1.463 . S
C798 N802 1.427 . S
C799 H789 0.929 . S
C799 C797 1.433 . S
C799 N802 1.384 . S
C800 H791 0.929 . S
C800 C792 1.378 . S
C800 C795 1.350 . S
C801 H788 0.929 . S
C801 C793 1.433 1_565 S
C801 N803 1.384 . S
N802 C798 1.427 . S
N802 C799 1.384 . S
N803 C795 1.427 1_565 S
N803 C801 1.384 . S
H804 C810 0.930 . S
H805 C814 0.930 . S
H806 C819 0.929 . S
H807 C817 0.929 . S
H808 C812 0.929 . S
H809 C818 0.929 . S
C810 H804 0.930 . S
C810 C811 1.367 . S
C810 C818 1.378 . S
C811 C810 1.367 . S
C811 C819 1.433 . S
C812 H808 0.929 . S
C812 C814 1.378 . S
C812 C816 1.350 . S
C813 C816 1.463 . S
C813 C818 1.350 . S
C813 N821 1.427 . S
C814 H805 0.930 . S
C814 C812 1.378 . S
C814 C815 1.367 . S
C815 C814 1.367 . S
C815 C817 1.433 . S
C816 C812 1.350 . S
C816 C813 1.463 . S
C816 N820 1.427 . S
C817 H807 0.929 . S
C817 C815 1.433 . S
C817 N820 1.384 . S
C818 H809 0.929 . S
C818 C810 1.378 . S
C818 C813 1.350 . S
C819 H806 0.929 . S
C819 C811 1.433 . S
C819 N821 1.384 . S
N820 C816 1.427 . S
N820 C817 1.384 . S
N821 C813 1.427 . S
N821 C819 1.384 . S
H822 C828 0.930 . S
H823 C832 0.930 . S
H824 C837 0.929 . S
H825 C835 0.929 . S
H826 C830 0.929 . S
H827 C836 0.929 . S
C828 H822 0.930 . S
C828 C829 1.367 . S
C828 C836 1.378 . S
C829 C828 1.367 . S
C829 C837 1.433 . S
C830 H826 0.929 . S
C830 C832 1.378 . S
C830 C834 1.350 . S
C831 C834 1.463 . S
C831 C836 1.350 . S
C831 N839 1.427 . S
C832 H823 0.930 . S
C832 C830 1.378 . S
C832 C833 1.367 . S
C833 C832 1.367 . S
C833 C835 1.433 . S
C834 C830 1.350 . S
C834 C831 1.463 . S
C834 N838 1.427 . S
C835 H825 0.929 . S
C835 C833 1.433 . S
C835 N838 1.384 . S
C836 H827 0.929 . S
C836 C828 1.378 . S
C836 C831 1.350 . S
C837 H824 0.929 . S
C837 C829 1.433 . S
C837 N839 1.384 . S
N838 C834 1.427 . S
N838 C835 1.384 . S
N839 C831 1.427 . S
N839 C837 1.384 . S
H840 C846 0.930 . S
H841 C850 0.930 . S
H842 C855 0.929 . S
H843 C853 0.929 . S
H844 C848 0.929 . S
H845 C854 0.929 . S
C846 H840 0.930 . S
C846 C847 1.367 . S
C846 C854 1.378 . S
C847 C846 1.367 . S
C847 C855 1.433 . S
C848 H844 0.929 . S
C848 C850 1.378 . S
C848 C852 1.350 . S
C849 C852 1.463 . S
C849 C854 1.350 . S
C849 N857 1.427 . S
C850 H841 0.930 . S
C850 C848 1.378 . S
C850 C851 1.367 . S
C851 C850 1.367 . S
C851 C853 1.433 . S
C852 C848 1.350 . S
C852 C849 1.463 . S
C852 N856 1.427 . S
C853 H843 0.929 . S
C853 C851 1.433 . S
C853 N856 1.384 . S
C854 H845 0.929 . S
C854 C846 1.378 . S
C854 C849 1.350 . S
C855 H842 0.929 . S
C855 C847 1.433 . S
C855 N857 1.384 . S
N856 C852 1.427 . S
N856 C853 1.384 . S
N857 C849 1.427 . S
N857 C855 1.384 . S
H858 C864 0.930 . S
H859 C868 0.930 . S
H860 C873 0.929 . S
H861 C871 0.929 . S
H862 C866 0.929 . S
H863 C872 0.929 . S
C864 H858 0.930 . S
C864 C865 1.367 . S
C864 C872 1.378 . S
C865 C864 1.367 . S
C865 C873 1.433 1_565 S
C866 H862 0.929 . S
C866 C868 1.378 . S
C866 C870 1.350 1_545 S
C867 C870 1.463 . S
C867 C872 1.350 . S
C867 N875 1.427 1_565 S
C868 H859 0.930 . S
C868 C866 1.378 . S
C868 C869 1.367 1_545 S
C869 C868 1.367 1_565 S
C869 C871 1.433 . S
C870 C866 1.350 1_565 S
C870 C867 1.463 . S
C870 N874 1.427 . S
C871 H861 0.929 . S
C871 C869 1.433 . S
C871 N874 1.384 . S
C872 H863 0.929 . S
C872 C864 1.378 . S
C872 C867 1.350 . S
C873 H860 0.929 . S
C873 C865 1.433 1_545 S
C873 N875 1.384 . S
N874 C870 1.427 . S
N874 C871 1.384 . S
N875 C867 1.427 1_545 S
N875 C873 1.384 . S
H876 C882 0.930 . S
H877 C886 0.930 . S
H878 C891 0.929 . S
H879 C889 0.929 . S
H880 C884 0.929 . S
H881 C890 0.929 . S
C882 H876 0.930 . S
C882 C883 1.367 . S
C882 C890 1.378 . S
C883 C882 1.367 . S
C883 C891 1.433 . S
C884 H880 0.929 . S
C884 C886 1.378 . S
C884 C888 1.350 . S
C885 C888 1.463 . S
C885 C890 1.350 . S
C885 N893 1.427 . S
C886 H877 0.930 . S
C886 C884 1.378 . S
C886 C887 1.367 . S
C887 C886 1.367 . S
C887 C889 1.433 . S
C888 C884 1.350 . S
C888 C885 1.463 . S
C888 N892 1.427 . S
C889 H879 0.929 . S
C889 C887 1.433 . S
C889 N892 1.384 . S
C890 H881 0.929 . S
C890 C882 1.378 . S
C890 C885 1.350 . S
C891 H878 0.929 . S
C891 C883 1.433 . S
C891 N893 1.384 . S
N892 C888 1.427 . S
N892 C889 1.384 . S
N893 C885 1.427 . S
N893 C891 1.384 . S
H894 C900 0.930 . S
H895 C904 0.930 . S
H896 C909 0.929 . S
H897 C907 0.929 . S
H898 C902 0.929 . S
H899 C908 0.929 . S
C900 H894 0.930 . S
C900 C901 1.367 . S
C900 C908 1.378 . S
C901 C900 1.367 . S
C901 C909 1.433 . S
C902 H898 0.929 . S
C902 C904 1.378 . S
C902 C906 1.350 . S
C903 C906 1.463 . S
C903 C908 1.350 . S
C903 N911 1.427 . S
C904 H895 0.930 . S
C904 C902 1.378 . S
C904 C905 1.367 . S
C905 C904 1.367 . S
C905 C907 1.433 . S
C906 C902 1.350 . S
C906 C903 1.463 . S
C906 N910 1.427 . S
C907 H897 0.929 . S
C907 C905 1.433 . S
C907 N910 1.384 . S
C908 H899 0.929 . S
C908 C900 1.378 . S
C908 C903 1.350 . S
C909 H896 0.929 . S
C909 C901 1.433 . S
C909 N911 1.384 . S
N910 C906 1.427 . S
N910 C907 1.384 . S
N911 C903 1.427 . S
N911 C909 1.384 . S
C487 C255 2.062 1_565 S
C491 C322 2.164 1_545 S
C509 C362 2.216 . S
C505 C295 2.142 . S
C527 C426 2.674 . S
C523 C175 2.578 . S
C545 C442 2.319 . S
C541 C215 2.093 . S
C563 C343 2.167 . S
C559 C95 2.067 1_565 S
C577 C135 2.138 1_556 S
C581 C383 2.221 . S
C595 C15 2.571 . S
C599 C417 2.672 . S
C613 C55 2.106 . S
C617 C463 2.325 . S
C635 C337 0.408 . S
C631 C221 0.251 . S
C653 C377 0.586 . S
C649 C261 0.582 . S
C671 C413 0.556 . S
C667 C301 0.478 . S
C685 C181 0.654 . S
C689 C457 0.699 . S
C703 C61 0.439 . S
C707 C346 0.391 . S
C725 C386 0.574 . S
C721 C101 0.593 1_565 S
C743 C424 0.546 . S
C739 C141 0.618 . S
C757 C21 0.708 . S
C761 C466 0.708 . S
C775 C202 2.932 . S
C779 C344 3.208 . S
C793 C242 2.687 . S
C797 C384 2.934 . S
C815 C402 2.053 . S
C811 C282 2.076 1_556 S
C833 C464 3.657 . S
C829 C162 3.332 . S
C847 C42 2.925 . S
C851 C333 3.217 . S
C869 C373 2.933 . S
C865 C82 2.699 1_565 S
C887 C423 2.052 . S
C883 C122 2.008 . S
C901 C2 3.296 . S
C905 C453 3.658 . S
