# Generated by pormake.
# Topology gar, (4,6)-cn, num edge types: 1
# Building blocks:
#     Node 0, Type 0, BuildingBlock: UXUYUI_clean_sbu_0, # of connection points: 4
#     Node 1, Type 0, BuildingBlock: UXUYUI_clean_sbu_0, # of connection points: 4
#     Node 2, Type 0, BuildingBlock: UXUYUI_clean_sbu_0, # of connection points: 4
#     Node 3, Type 0, BuildingBlock: UXUYUI_clean_sbu_0, # of connection points: 4
#     Node 4, Type 0, BuildingBlock: UXUYUI_clean_sbu_0, # of connection points: 4
#     Node 5, Type 0, BuildingBlock: UXUYUI_clean_sbu_0, # of connection points: 4
#     Node 6, Type 0, BuildingBlock: UXUYUI_clean_sbu_0, # of connection points: 4
#     Node 7, Type 0, BuildingBlock: UXUYUI_clean_sbu_0, # of connection points: 4
#     Node 8, Type 0, BuildingBlock: UXUYUI_clean_sbu_0, # of connection points: 4
#     Node 9, Type 0, BuildingBlock: UXUYUI_clean_sbu_0, # of connection points: 4
#     Node 10, Type 0, BuildingBlock: UXUYUI_clean_sbu_0, # of connection points: 4
#     Node 11, Type 0, BuildingBlock: UXUYUI_clean_sbu_0, # of connection points: 4
#     Node 12, Type 0, BuildingBlock: UXUYUI_clean_sbu_0, # of connection points: 4
#     Node 13, Type 0, BuildingBlock: UXUYUI_clean_sbu_0, # of connection points: 4
#     Node 14, Type 0, BuildingBlock: UXUYUI_clean_sbu_0, # of connection points: 4
#     Node 15, Type 0, BuildingBlock: UXUYUI_clean_sbu_0, # of connection points: 4
#     Node 16, Type 0, BuildingBlock: UXUYUI_clean_sbu_0, # of connection points: 4
#     Node 17, Type 0, BuildingBlock: UXUYUI_clean_sbu_0, # of connection points: 4
#     Node 18, Type 0, BuildingBlock: UXUYUI_clean_sbu_0, # of connection points: 4
#     Node 19, Type 0, BuildingBlock: UXUYUI_clean_sbu_0, # of connection points: 4
#     Node 20, Type 0, BuildingBlock: UXUYUI_clean_sbu_0, # of connection points: 4
#     Node 21, Type 0, BuildingBlock: UXUYUI_clean_sbu_0, # of connection points: 4
#     Node 22, Type 0, BuildingBlock: UXUYUI_clean_sbu_0, # of connection points: 4
#     Node 23, Type 0, BuildingBlock: UXUYUI_clean_sbu_0, # of connection points: 4
#     Node 24, Type 1, BuildingBlock: CUKXOW_clean_sbu_0, # of connection points: 6
#     Node 25, Type 1, BuildingBlock: CUKXOW_clean_sbu_0, # of connection points: 6
#     Node 26, Type 1, BuildingBlock: CUKXOW_clean_sbu_0, # of connection points: 6
#     Node 27, Type 1, BuildingBlock: CUKXOW_clean_sbu_0, # of connection points: 6
#     Node 28, Type 1, BuildingBlock: CUKXOW_clean_sbu_0, # of connection points: 6
#     Node 29, Type 1, BuildingBlock: CUKXOW_clean_sbu_0, # of connection points: 6
#     Node 30, Type 1, BuildingBlock: CUKXOW_clean_sbu_0, # of connection points: 6
#     Node 31, Type 1, BuildingBlock: CUKXOW_clean_sbu_0, # of connection points: 6
#     Node 32, Type 1, BuildingBlock: CUKXOW_clean_sbu_0, # of connection points: 6
#     Node 33, Type 1, BuildingBlock: CUKXOW_clean_sbu_0, # of connection points: 6
#     Node 34, Type 1, BuildingBlock: CUKXOW_clean_sbu_0, # of connection points: 6
#     Node 35, Type 1, BuildingBlock: CUKXOW_clean_sbu_0, # of connection points: 6
#     Node 36, Type 1, BuildingBlock: CUKXOW_clean_sbu_0, # of connection points: 6
#     Node 37, Type 1, BuildingBlock: CUKXOW_clean_sbu_0, # of connection points: 6
#     Node 38, Type 1, BuildingBlock: CUKXOW_clean_sbu_0, # of connection points: 6
#     Node 39, Type 1, BuildingBlock: CUKXOW_clean_sbu_0, # of connection points: 6
#     Edge 40, Type (0, 1), BuildingBlock: CIFDUS_clean_linker_0, # of connection points: 2
#     Edge 41, Type (0, 1), BuildingBlock: CIFDUS_clean_linker_0, # of connection points: 2
#     Edge 42, Type (0, 1), BuildingBlock: CIFDUS_clean_linker_0, # of connection points: 2
#     Edge 43, Type (0, 1), BuildingBlock: CIFDUS_clean_linker_0, # of connection points: 2
#     Edge 44, Type (0, 1), BuildingBlock: CIFDUS_clean_linker_0, # of connection points: 2
#     Edge 45, Type (0, 1), BuildingBlock: CIFDUS_clean_linker_0, # of connection points: 2
#     Edge 46, Type (0, 1), BuildingBlock: CIFDUS_clean_linker_0, # of connection points: 2
#     Edge 47, Type (0, 1), BuildingBlock: CIFDUS_clean_linker_0, # of connection points: 2
#     Edge 48, Type (0, 1), BuildingBlock: CIFDUS_clean_linker_0, # of connection points: 2
#     Edge 49, Type (0, 1), BuildingBlock: CIFDUS_clean_linker_0, # of connection points: 2
#     Edge 50, Type (0, 1), BuildingBlock: CIFDUS_clean_linker_0, # of connection points: 2
#     Edge 51, Type (0, 1), BuildingBlock: CIFDUS_clean_linker_0, # of connection points: 2
#     Edge 52, Type (0, 1), BuildingBlock: CIFDUS_clean_linker_0, # of connection points: 2
#     Edge 53, Type (0, 1), BuildingBlock: CIFDUS_clean_linker_0, # of connection points: 2
#     Edge 54, Type (0, 1), BuildingBlock: CIFDUS_clean_linker_0, # of connection points: 2
#     Edge 55, Type (0, 1), BuildingBlock: CIFDUS_clean_linker_0, # of connection points: 2
#     Edge 56, Type (0, 1), BuildingBlock: CIFDUS_clean_linker_0, # of connection points: 2
#     Edge 57, Type (0, 1), BuildingBlock: CIFDUS_clean_linker_0, # of connection points: 2
#     Edge 58, Type (0, 1), BuildingBlock: CIFDUS_clean_linker_0, # of connection points: 2
#     Edge 59, Type (0, 1), BuildingBlock: CIFDUS_clean_linker_0, # of connection points: 2
#     Edge 60, Type (0, 1), BuildingBlock: CIFDUS_clean_linker_0, # of connection points: 2
#     Edge 61, Type (0, 1), BuildingBlock: CIFDUS_clean_linker_0, # of connection points: 2
#     Edge 62, Type (0, 1), BuildingBlock: CIFDUS_clean_linker_0, # of connection points: 2
#     Edge 63, Type (0, 1), BuildingBlock: CIFDUS_clean_linker_0, # of connection points: 2
#     Edge 64, Type (0, 1), BuildingBlock: CIFDUS_clean_linker_0, # of connection points: 2
#     Edge 65, Type (0, 1), BuildingBlock: CIFDUS_clean_linker_0, # of connection points: 2
#     Edge 66, Type (0, 1), BuildingBlock: CIFDUS_clean_linker_0, # of connection points: 2
#     Edge 67, Type (0, 1), BuildingBlock: CIFDUS_clean_linker_0, # of connection points: 2
#     Edge 68, Type (0, 1), BuildingBlock: CIFDUS_clean_linker_0, # of connection points: 2
#     Edge 69, Type (0, 1), BuildingBlock: CIFDUS_clean_linker_0, # of connection points: 2
#     Edge 70, Type (0, 1), BuildingBlock: CIFDUS_clean_linker_0, # of connection points: 2
#     Edge 71, Type (0, 1), BuildingBlock: CIFDUS_clean_linker_0, # of connection points: 2
#     Edge 72, Type (0, 1), BuildingBlock: CIFDUS_clean_linker_0, # of connection points: 2
#     Edge 73, Type (0, 1), BuildingBlock: CIFDUS_clean_linker_0, # of connection points: 2
#     Edge 74, Type (0, 1), BuildingBlock: CIFDUS_clean_linker_0, # of connection points: 2
#     Edge 75, Type (0, 1), BuildingBlock: CIFDUS_clean_linker_0, # of connection points: 2
#     Edge 76, Type (0, 1), BuildingBlock: CIFDUS_clean_linker_0, # of connection points: 2
#     Edge 77, Type (0, 1), BuildingBlock: CIFDUS_clean_linker_0, # of connection points: 2
#     Edge 78, Type (0, 1), BuildingBlock: CIFDUS_clean_linker_0, # of connection points: 2
#     Edge 79, Type (0, 1), BuildingBlock: CIFDUS_clean_linker_0, # of connection points: 2
#     Edge 80, Type (0, 1), BuildingBlock: CIFDUS_clean_linker_0, # of connection points: 2
#     Edge 81, Type (0, 1), BuildingBlock: CIFDUS_clean_linker_0, # of connection points: 2
#     Edge 82, Type (0, 1), BuildingBlock: CIFDUS_clean_linker_0, # of connection points: 2
#     Edge 83, Type (0, 1), BuildingBlock: CIFDUS_clean_linker_0, # of connection points: 2
#     Edge 84, Type (0, 1), BuildingBlock: CIFDUS_clean_linker_0, # of connection points: 2
#     Edge 85, Type (0, 1), BuildingBlock: CIFDUS_clean_linker_0, # of connection points: 2
#     Edge 86, Type (0, 1), BuildingBlock: CIFDUS_clean_linker_0, # of connection points: 2
#     Edge 87, Type (0, 1), BuildingBlock: CIFDUS_clean_linker_0, # of connection points: 2
#     Edge 88, Type (0, 1), BuildingBlock: CIFDUS_clean_linker_0, # of connection points: 2
#     Edge 89, Type (0, 1), BuildingBlock: CIFDUS_clean_linker_0, # of connection points: 2
#     Edge 90, Type (0, 1), BuildingBlock: CIFDUS_clean_linker_0, # of connection points: 2
#     Edge 91, Type (0, 1), BuildingBlock: CIFDUS_clean_linker_0, # of connection points: 2
#     Edge 92, Type (0, 1), BuildingBlock: CIFDUS_clean_linker_0, # of connection points: 2
#     Edge 93, Type (0, 1), BuildingBlock: CIFDUS_clean_linker_0, # of connection points: 2
#     Edge 94, Type (0, 1), BuildingBlock: CIFDUS_clean_linker_0, # of connection points: 2
#     Edge 95, Type (0, 1), BuildingBlock: CIFDUS_clean_linker_0, # of connection points: 2
#     Edge 96, Type (0, 1), BuildingBlock: CIFDUS_clean_linker_0, # of connection points: 2
#     Edge 97, Type (0, 1), BuildingBlock: CIFDUS_clean_linker_0, # of connection points: 2
#     Edge 98, Type (0, 1), BuildingBlock: CIFDUS_clean_linker_0, # of connection points: 2
#     Edge 99, Type (0, 1), BuildingBlock: CIFDUS_clean_linker_0, # of connection points: 2
#     Edge 100, Type (0, 1), BuildingBlock: CIFDUS_clean_linker_0, # of connection points: 2
#     Edge 101, Type (0, 1), BuildingBlock: CIFDUS_clean_linker_0, # of connection points: 2
#     Edge 102, Type (0, 1), BuildingBlock: CIFDUS_clean_linker_0, # of connection points: 2
#     Edge 103, Type (0, 1), BuildingBlock: CIFDUS_clean_linker_0, # of connection points: 2
#     Edge 104, Type (0, 1), BuildingBlock: CIFDUS_clean_linker_0, # of connection points: 2
#     Edge 105, Type (0, 1), BuildingBlock: CIFDUS_clean_linker_0, # of connection points: 2
#     Edge 106, Type (0, 1), BuildingBlock: CIFDUS_clean_linker_0, # of connection points: 2
#     Edge 107, Type (0, 1), BuildingBlock: CIFDUS_clean_linker_0, # of connection points: 2
#     Edge 108, Type (0, 1), BuildingBlock: CIFDUS_clean_linker_0, # of connection points: 2
#     Edge 109, Type (0, 1), BuildingBlock: CIFDUS_clean_linker_0, # of connection points: 2
#     Edge 110, Type (0, 1), BuildingBlock: CIFDUS_clean_linker_0, # of connection points: 2
#     Edge 111, Type (0, 1), BuildingBlock: CIFDUS_clean_linker_0, # of connection points: 2
#     Edge 112, Type (0, 1), BuildingBlock: CIFDUS_clean_linker_0, # of connection points: 2
#     Edge 113, Type (0, 1), BuildingBlock: CIFDUS_clean_linker_0, # of connection points: 2
#     Edge 114, Type (0, 1), BuildingBlock: CIFDUS_clean_linker_0, # of connection points: 2
#     Edge 115, Type (0, 1), BuildingBlock: CIFDUS_clean_linker_0, # of connection points: 2
#     Edge 116, Type (0, 1), BuildingBlock: CIFDUS_clean_linker_0, # of connection points: 2
#     Edge 117, Type (0, 1), BuildingBlock: CIFDUS_clean_linker_0, # of connection points: 2
#     Edge 118, Type (0, 1), BuildingBlock: CIFDUS_clean_linker_0, # of connection points: 2
#     Edge 119, Type (0, 1), BuildingBlock: CIFDUS_clean_linker_0, # of connection points: 2
#     Edge 120, Type (0, 1), BuildingBlock: CIFDUS_clean_linker_0, # of connection points: 2
#     Edge 121, Type (0, 1), BuildingBlock: CIFDUS_clean_linker_0, # of connection points: 2
#     Edge 122, Type (0, 1), BuildingBlock: CIFDUS_clean_linker_0, # of connection points: 2
#     Edge 123, Type (0, 1), BuildingBlock: CIFDUS_clean_linker_0, # of connection points: 2
#     Edge 124, Type (0, 1), BuildingBlock: CIFDUS_clean_linker_0, # of connection points: 2
#     Edge 125, Type (0, 1), BuildingBlock: CIFDUS_clean_linker_0, # of connection points: 2
#     Edge 126, Type (0, 1), BuildingBlock: CIFDUS_clean_linker_0, # of connection points: 2
#     Edge 127, Type (0, 1), BuildingBlock: CIFDUS_clean_linker_0, # of connection points: 2
#     Edge 128, Type (0, 1), BuildingBlock: CIFDUS_clean_linker_0, # of connection points: 2
#     Edge 129, Type (0, 1), BuildingBlock: CIFDUS_clean_linker_0, # of connection points: 2
#     Edge 130, Type (0, 1), BuildingBlock: CIFDUS_clean_linker_0, # of connection points: 2
#     Edge 131, Type (0, 1), BuildingBlock: CIFDUS_clean_linker_0, # of connection points: 2
#     Edge 132, Type (0, 1), BuildingBlock: CIFDUS_clean_linker_0, # of connection points: 2
#     Edge 133, Type (0, 1), BuildingBlock: CIFDUS_clean_linker_0, # of connection points: 2
#     Edge 134, Type (0, 1), BuildingBlock: CIFDUS_clean_linker_0, # of connection points: 2
#     Edge 135, Type (0, 1), BuildingBlock: CIFDUS_clean_linker_0, # of connection points: 2
# Relax obj value: 0.138
# Max RMSD: 0.219
# Mean RMSD: 0.173
data_MOF--net-gar--node1-UXUYUI_clean_sbu_0--node2-CUKXOW_clean_sbu_0--edge1-CIFDUS_clean_linker_0
_symmetry_space_group_name_H-M    P1
_symmetry_Int_Tables_number       1
_symmetry_cell_setting            triclinic
loop_
_symmetry_equiv_pos_as_xyz
'x, y, z'
_cell_length_a     61.379404
_cell_length_b     59.719249
_cell_length_c     60.334437
_cell_angle_alpha  93.698727
_cell_angle_beta   95.31042
_cell_angle_gamma 99.07468
loop_
_atom_site_label
_atom_site_type_symbol
_atom_site_fract_x
_atom_site_fract_y
_atom_site_fract_z
_atom_type_partial_charge
Li0 Li 0.99982 0.27051 0.37851 0.0
Li1 Li 0.02171 0.2949 0.41061 0.0
Li2 Li 0.03957 0.27548 0.38074 0.0
Li3 Li 0.02029 0.25183 0.40903 0.0
C4 C 0.0209 0.31482 0.36323 0.0
N5 N 0.02044 0.34682 0.33212 0.0
C6 C 0.01885 0.3372 0.36982 0.0
C7 C 0.02272 0.30874 0.34078 0.0
C8 C 0.01862 0.35311 0.35385 0.0
C9 C 0.02249 0.32516 0.32532 0.0
C10 C 0.97851 0.27327 0.42281 0.0
C11 C 0.96215 0.2733 0.45759 0.0
N12 N 0.94403 0.28033 0.4473 0.0
C13 C 0.95972 0.28045 0.41256 0.0
C14 C 0.97975 0.26958 0.44547 0.0
C15 C 0.94247 0.28394 0.42522 0.0
C16 C 0.96445 0.24704 0.34846 0.0
N17 N 0.97509 0.26771 0.35758 0.0
C18 C 0.95074 0.28672 0.33564 0.0
C19 C 0.96871 0.28733 0.35145 0.0
C20 C 0.93915 0.26564 0.3261 0.0
C21 C 0.94649 0.2456 0.33229 0.0
H22 H 0.96972 0.23168 0.35395 0.0
H23 H 0.97698 0.30346 0.35954 0.0
C24 C 0.04401 0.33687 0.43269 0.0
N25 N 0.02398 0.32303 0.42857 0.0
C26 C 0.04576 0.35848 0.44386 0.0
C27 C 0.00625 0.3512 0.44627 0.0
C28 C 0.00527 0.32989 0.43498 0.0
C29 C 0.02666 0.36597 0.45074 0.0
H30 H 0.05857 0.33136 0.42679 0.0
H31 H 0.98943 0.31907 0.43095 0.0
C32 C 0.01564 0.23063 0.35817 0.0
N33 N 0.01092 0.19844 0.3223 0.0
C34 C 0.01689 0.20797 0.3617 0.0
C35 C 0.01201 0.23693 0.33637 0.0
C36 C 0.01447 0.19195 0.34335 0.0
C37 C 0.00962 0.22041 0.31847 0.0
C38 C 0.06623 0.28083 0.42682 0.0
C39 C 0.0856 0.27686 0.41786 0.0
C40 C 0.06721 0.28912 0.44913 0.0
C41 C 0.10574 0.28139 0.43142 0.0
C42 C 0.08768 0.29344 0.46214 0.0
N43 N 0.10636 0.28953 0.45309 0.0
C44 C 0.07215 0.30037 0.35869 0.0
C45 C 0.06538 0.26046 0.34936 0.0
C46 C 0.08605 0.30361 0.34179 0.0
N47 N 0.06197 0.27906 0.36185 0.0
C48 C 0.07864 0.26295 0.33201 0.0
C49 C 0.08897 0.28472 0.32808 0.0
H50 H 0.06908 0.31481 0.369 0.0
H51 H 0.05775 0.24369 0.35276 0.0
C52 C 1.00124 0.20878 0.42256 0.0
N53 N 0.01983 0.22488 0.42517 0.0
C54 C 1.00089 0.18829 0.43278 0.0
C55 C 0.03866 0.20149 0.44857 0.0
C56 C 0.03832 0.22163 0.43795 0.0
C57 C 0.01985 0.18425 0.44592 0.0
H58 H 0.98679 0.21164 0.41212 0.0
H59 H 0.05295 0.23459 0.43973 0.0
O60 O 0.0208 0.299 0.37872 0.0
O61 O 0.99548 0.26959 0.41066 0.0
O62 O 0.01839 0.24653 0.37603 0.0
O63 O 0.04648 0.27703 0.41366 0.0
H64 H 0.0173 0.3422 0.38708 0.0
H65 H 0.02453 0.29164 0.33535 0.0
H66 H 0.01698 0.37047 0.35873 0.0
H67 H 0.02396 0.32068 0.30792 0.0
H68 H 0.96288 0.27058 0.47517 0.0
H69 H 0.95848 0.28341 0.39506 0.0
H70 H 0.99418 0.26396 0.45359 0.0
H71 H 0.92785 0.28953 0.41751 0.0
H72 H 0.94523 0.30259 0.33204 0.0
H73 H 0.93793 0.22902 0.32536 0.0
H74 H 0.06178 0.36938 0.44654 0.0
H75 H 0.99109 0.35602 0.45142 0.0
H76 H 0.01985 0.20284 0.37844 0.0
H77 H 0.01085 0.25431 0.33331 0.0
H78 H 0.01547 0.17435 0.34584 0.0
H79 H 0.00674 0.22505 0.30154 0.0
H80 H 0.08509 0.27036 0.40064 0.0
H81 H 0.05232 0.2923 0.45625 0.0
H82 H 0.12088 0.27844 0.42471 0.0
H83 H 0.08873 0.29995 0.47943 0.0
H84 H 0.09453 0.32051 0.33953 0.0
H85 H 0.0815 0.24797 0.3223 0.0
H86 H 0.98606 0.17556 0.42992 0.0
H87 H 0.05357 0.19955 0.45882 0.0
Li88 Li 0.00204 0.8139 0.62124 0.0
Li89 Li 0.02233 0.79598 0.65181 0.0
Li90 Li 0.99989 0.77095 0.62001 0.0
Li91 Li 0.98262 0.7896 0.64929 0.0
C92 C 0.04385 0.79342 0.60798 0.0
N93 N 0.07959 0.78867 0.58455 0.0
C94 C 0.06545 0.79979 0.61838 0.0
C95 C 0.04038 0.78484 0.58564 0.0
C96 C 0.08331 0.79723 0.60625 0.0
C97 C 0.05869 0.78249 0.57408 0.0
C98 C 0.00794 0.83517 0.67216 0.0
C99 C 0.01121 0.84533 0.71184 0.0
N100 N 0.01787 0.86745 0.70811 0.0
C101 C 0.01487 0.858 0.66874 0.0
C102 C 0.00611 0.82875 0.6939 0.0
C103 C 0.01979 0.87407 0.68713 0.0
C104 C 0.99089 0.85667 0.60877 0.0
N105 N 0.00389 0.84066 0.60491 0.0
C106 C 0.02332 0.86399 0.57988 0.0
C107 C 0.0198 0.84395 0.59071 0.0
C108 C 0.01073 0.88136 0.58395 0.0
C109 C 0.9941 0.87724 0.59856 0.0
H110 H 0.97847 0.85377 0.62034 0.0
H111 H 0.03001 0.83109 0.58793 0.0
C112 C 0.05558 0.7787 0.67416 0.0
N113 N 0.04737 0.79835 0.67227 0.0
C114 C 0.07313 0.77775 0.69011 0.0
C115 C 0.07307 0.8172 0.70216 0.0
C116 C 0.05599 0.81756 0.68548 0.0
C117 C 0.08205 0.79717 0.70446 0.0
H118 H 0.04848 0.76381 0.66317 0.0
H119 H 0.04981 0.83321 0.68315 0.0
C120 C 0.95631 0.78262 0.60247 0.0
N121 N 0.91739 0.77061 0.57447 0.0
C122 C 0.93714 0.77174 0.61062 0.0
C123 C 0.95571 0.78736 0.58008 0.0
C124 C 0.91762 0.76585 0.59622 0.0
C125 C 0.93587 0.78109 0.56617 0.0
C126 C 0.99996 0.75162 0.66764 0.0
C127 C 0.9924 0.72862 0.66103 0.0
C128 C 0.00567 0.75852 0.6903 0.0
C129 C 0.99056 0.71292 0.67723 0.0
C130 C 0.0036 0.7423 0.70598 0.0
N131 N 0.99615 0.72003 0.69918 0.0
C132 C 0.01715 0.73383 0.60204 0.0
C133 C 0.97815 0.73067 0.59449 0.0
C134 C 0.01648 0.71196 0.59205 0.0
N135 N 0.99818 0.74278 0.60289 0.0
C136 C 0.97668 0.70867 0.5845 0.0
C137 C 0.99602 0.69903 0.58325 0.0
H138 H 0.03273 0.74343 0.60973 0.0
H139 H 0.96321 0.73777 0.59612 0.0
C140 C 0.9556 0.80586 0.67693 0.0
N141 N 0.9599 0.78612 0.66745 0.0
C142 C 0.94136 0.80555 0.69333 0.0
C143 C 0.9341 0.7644 0.68813 0.0
C144 C 0.94968 0.76553 0.67268 0.0
C145 C 0.92976 0.78468 0.69862 0.0
H146 H 0.9636 0.82192 0.67204 0.0
H147 H 0.95336 0.75007 0.66463 0.0
O148 O 0.02618 0.79542 0.61971 0.0
O149 O 0.0028 0.81931 0.65424 0.0
O150 O 0.97531 0.78941 0.61653 0.0
O151 O 0.00239 0.76708 0.65187 0.0
H152 H 0.06842 0.80673 0.63559 0.0
H153 H 0.02372 0.7799 0.57739 0.0
H154 H 0.10013 0.80206 0.61409 0.0
H155 H 0.05628 0.77573 0.55681 0.0
H156 H 0.00984 0.8406 0.72873 0.0
H157 H 0.01649 0.86325 0.65207 0.0
H158 H 1.00073 0.81121 0.6969 0.0
H159 H 0.02515 0.8918 0.68471 0.0
H160 H 0.03585 0.86561 0.56835 0.0
H161 H 0.98401 0.8899 0.60266 0.0
H162 H 0.07999 0.76214 0.69067 0.0
H163 H 0.0794 0.83256 0.71283 0.0
H164 H 0.93725 0.76797 0.62787 0.0
H165 H 0.9704 0.79587 0.57357 0.0
H166 H 0.90265 0.75753 0.60235 0.0
H167 H 0.93514 0.78467 0.5488 0.0
H168 H 0.98803 0.72295 0.64356 0.0
H169 H 0.0119 0.77614 0.69572 0.0
H170 H 0.98473 0.69508 0.67233 0.0
H171 H 0.00802 0.74741 0.72356 0.0
H172 H 0.03172 0.70498 0.59186 0.0
H173 H 0.96058 0.69927 0.57792 0.0
H174 H 0.93929 0.82165 0.70147 0.0
H175 H 0.92532 0.74795 0.69139 0.0
Li176 Li 0.49937 0.76914 0.87853 0.0
Li177 Li 0.51993 0.7946 0.91072 0.0
Li178 Li 0.53905 0.77613 0.88144 0.0
Li179 Li 0.52048 0.75182 0.90944 0.0
C180 C 0.51997 0.81439 0.86332 0.0
N181 N 0.52091 0.84649 0.8322 0.0
C182 C 0.51866 0.83698 0.86988 0.0
C183 C 0.52177 0.80817 0.84089 0.0
C184 C 0.51911 0.85293 0.8539 0.0
C185 C 0.52228 0.82464 0.82544 0.0
C186 C 0.47762 0.77143 0.92262 0.0
C187 C 0.46187 0.77252 0.9577 0.0
N188 N 0.44309 0.77805 0.94718 0.0
C189 C 0.45812 0.77695 0.91211 0.0
C190 C 0.47952 0.76907 0.94555 0.0
C191 C 0.44087 0.78032 0.92484 0.0
C192 C 0.46412 0.74428 0.84912 0.0
N193 N 0.47471 0.76522 0.85753 0.0
C194 C 0.45064 0.78338 0.83436 0.0
C195 C 0.46834 0.78456 0.85058 0.0
C196 C 0.43924 0.76203 0.82537 0.0
C197 C 0.44631 0.74226 0.83267 0.0
H198 H 0.46939 0.72919 0.85531 0.0
H199 H 0.47648 0.80093 0.85821 0.0
C200 C 0.53856 0.83627 0.93726 0.0
N201 N 0.51959 0.82236 0.92842 0.0
C202 C 0.53754 0.85707 0.94899 0.0
C203 C 0.49762 0.84907 0.94161 0.0
C204 C 0.49943 0.82863 0.93001 0.0
C205 C 0.51678 0.86356 0.9515 0.0
H206 H 0.55449 0.8314 0.93498 0.0
H207 H 0.48471 0.81806 0.92176 0.0
C208 C 0.51594 0.73029 0.85872 0.0
N209 N 0.51033 0.69793 0.82288 0.0
C210 C 0.51698 0.70758 0.86225 0.0
C211 C 0.51205 0.73652 0.83693 0.0
C212 C 0.51412 0.69148 0.84392 0.0
C213 C 0.50922 0.71993 0.81905 0.0
C214 C 0.56567 0.78124 0.92731 0.0
C215 C 0.58457 0.77651 0.9179 0.0
C216 C 0.56735 0.78963 0.94966 0.0
C217 C 0.60498 0.78051 0.93103 0.0
C218 C 0.58806 0.79339 0.96223 0.0
N219 N 0.6063 0.78882 0.95272 0.0
C220 C 0.57095 0.80212 0.8594 0.0
C221 C 0.56471 0.76229 0.84966 0.0
C222 C 0.58408 0.80586 0.84195 0.0
N223 N 0.56135 0.78062 0.86258 0.0
C224 C 0.57722 0.76526 0.8318 0.0
C225 C 0.58689 0.78724 0.82777 0.0
H226 H 0.56791 0.81634 0.87003 0.0
H227 H 0.55759 0.74537 0.8531 0.0
C228 C 0.50194 0.70871 0.92268 0.0
N229 N 0.52032 0.72508 0.9258 0.0
C230 C 0.50146 0.68835 0.93312 0.0
C231 C 0.53869 0.70221 0.95019 0.0
C232 C 0.5385 0.72221 0.9393 0.0
C233 C 0.52008 0.68472 0.94706 0.0
H234 H 0.48775 0.7113 0.91168 0.0
H235 H 0.55295 0.73538 0.9415 0.0
O236 O 0.51897 0.79849 0.87878 0.0
O237 O 0.49469 0.76815 0.91046 0.0
O238 O 0.51931 0.74631 0.87653 0.0
O239 O 0.5457 0.77825 0.91454 0.0
H240 H 0.51714 0.84213 0.8871 0.0
H241 H 0.52303 0.79093 0.83546 0.0
H242 H 0.51801 0.87044 0.85876 0.0
H243 H 0.52378 0.82004 0.80807 0.0
H244 H 0.4631 0.77081 0.97548 0.0
H245 H 0.45636 0.77886 0.89439 0.0
H246 H 0.49451 0.76469 0.95385 0.0
H247 H 0.42574 0.78475 0.91696 0.0
H248 H 0.44521 0.79906 0.82992 0.0
H249 H 0.43775 0.72551 0.82627 0.0
H250 H 0.55278 0.86781 0.95614 0.0
H251 H 0.48133 0.8537 0.94238 0.0
H252 H 0.52018 0.70248 0.87897 0.0
H253 H 0.51102 0.7539 0.83384 0.0
H254 H 0.51498 0.67385 0.84642 0.0
H255 H 0.50613 0.72454 0.80213 0.0
H256 H 0.58354 0.76991 0.90066 0.0
H257 H 0.55282 0.79334 0.95715 0.0
H258 H 0.61979 0.77705 0.92395 0.0
H259 H 0.58965 0.79999 0.97952 0.0
H260 H 0.59215 0.82291 0.83966 0.0
H261 H 0.58012 0.75047 0.82182 0.0
H262 H 0.48682 0.67542 0.92985 0.0
H263 H 0.55331 0.70057 0.96104 0.0
Li264 Li 0.50032 0.3153 0.12236 0.0
Li265 Li 0.51972 0.29784 0.15371 0.0
Li266 Li 0.49923 0.27244 0.12111 0.0
Li267 Li 0.48015 0.29025 0.14976 0.0
C268 C 0.54264 0.29625 0.1101 0.0
N269 N 0.57802 0.29173 0.08603 0.0
C270 C 0.56419 0.29971 0.12089 0.0
C271 C 0.53905 0.29066 0.08708 0.0
C272 C 0.58187 0.29738 0.10841 0.0
C273 C 0.55716 0.28834 0.07522 0.0
C274 C 0.5057 0.336 0.17332 0.0
C275 C 0.50998 0.34574 0.2131 0.0
N276 N 0.51783 0.36768 0.20956 0.0
C277 C 0.51376 0.35864 0.17007 0.0
C278 C 0.50375 0.32949 0.195 0.0
C279 C 0.51983 0.37439 0.18862 0.0
C280 C 0.48528 0.35182 0.09863 0.0
N281 N 0.50303 0.34222 0.10597 0.0
C282 C 0.52774 0.37146 0.09129 0.0
C283 C 0.52399 0.35179 0.10272 0.0
C284 C 0.50978 0.38161 0.08297 0.0
C285 C 0.48829 0.37159 0.08706 0.0
H286 H 0.46877 0.34408 0.10164 0.0
H287 H 0.53789 0.34416 0.1091 0.0
C288 C 0.55 0.28017 0.17864 0.0
N289 N 0.5441 0.30067 0.17508 0.0
C290 C 0.56695 0.27852 0.1948 0.0
C291 C 0.5727 0.31946 0.20257 0.0
C292 C 0.55496 0.32024 0.18656 0.0
C293 C 0.57883 0.29836 0.20646 0.0
H294 H 0.54186 0.26511 0.1685 0.0
H295 H 0.55043 0.33643 0.18285 0.0
C296 C 0.45532 0.28165 0.10251 0.0
N297 N 0.41665 0.26725 0.07466 0.0
C298 C 0.43673 0.26971 0.1108 0.0
C299 C 0.45428 0.2862 0.08007 0.0
C300 C 0.41731 0.26264 0.09647 0.0
C301 C 0.43458 0.27871 0.06623 0.0
C302 C 0.49816 0.25218 0.16805 0.0
C303 C 0.49329 0.2291 0.16062 0.0
C304 C 0.50149 0.25853 0.191 0.0
C305 C 0.49179 0.21279 0.17624 0.0
C306 C 0.49989 0.2417 0.20609 0.0
N307 N 0.49511 0.21937 0.19846 0.0
C308 C 0.52032 0.23825 0.10405 0.0
C309 C 0.4813 0.22988 0.09565 0.0
C310 C 0.52259 0.21684 0.09492 0.0
N311 N 0.49997 0.24445 0.10415 0.0
C312 C 0.48277 0.20798 0.08669 0.0
C313 C 0.50368 0.20109 0.08646 0.0
H314 H 0.53482 0.24967 0.11178 0.0
H315 H 0.46521 0.23485 0.0967 0.0
C316 C 0.45249 0.30469 0.17856 0.0
N317 N 0.45762 0.28569 0.16819 0.0
C318 C 0.43938 0.30286 0.19605 0.0
C319 C 0.43604 0.26182 0.191 0.0
C320 C 0.44951 0.26447 0.17373 0.0
C321 C 0.43129 0.28125 0.20243 0.0
H322 H 0.45898 0.32126 0.17352 0.0
H323 H 0.45355 0.24965 0.16484 0.0
O324 O 0.52512 0.29779 0.12217 0.0
O325 O 0.49936 0.32049 0.15529 0.0
O326 O 0.47397 0.29004 0.11658 0.0
O327 O 0.50039 0.26835 0.15288 0.0
H328 H 0.56726 0.30414 0.13869 0.0
H329 H 0.52241 0.2878 0.07857 0.0
H330 H 0.59864 0.30001 0.11653 0.0
H331 H 0.55465 0.28378 0.05741 0.0
H332 H 0.50854 0.34092 0.22995 0.0
H333 H 0.5153 0.36396 0.1534 0.0
H334 H 0.49741 0.31212 0.19784 0.0
H335 H 0.52611 0.39197 0.18636 0.0
H336 H 0.54465 0.3787 0.08913 0.0
H337 H 0.47386 0.3786 0.08094 0.0
H338 H 0.57186 0.26208 0.19703 0.0
H339 H 0.58221 0.33508 0.21083 0.0
H340 H 0.43716 0.26617 0.12813 0.0
H341 H 0.46849 0.2956 0.07348 0.0
H342 H 0.40274 0.25357 0.10272 0.0
H343 H 0.43351 0.28215 0.04881 0.0
H344 H 0.49075 0.2238 0.14298 0.0
H345 H 0.5056 0.27622 0.19711 0.0
H346 H 0.48805 0.19488 0.17069 0.0
H347 H 0.50254 0.2464 0.22387 0.0
H348 H 0.5391 0.21263 0.09483 0.0
H349 H 0.46767 0.19636 0.08077 0.0
H350 H 0.43497 0.31806 0.20405 0.0
H351 H 0.42905 0.24495 0.19506 0.0
Li352 Li 0.99994 0.79407 0.13532 0.0
Li353 Li 0.01926 0.77779 0.16671 0.0
Li354 Li 0.99661 0.75253 0.1349 0.0
Li355 Li 0.97705 0.77407 0.16437 0.0
C356 C 0.03917 0.77771 0.1204 0.0
N357 N 0.07127 0.7823 0.09099 0.0
C358 C 0.0613 0.78615 0.12822 0.0
C359 C 0.0334 0.77155 0.09762 0.0
C360 C 0.07727 0.78837 0.11309 0.0
C361 C 0.04986 0.77401 0.08302 0.0
C362 C 0.01 0.8208 0.18203 0.0
C363 C 0.01757 0.84004 0.21894 0.0
N364 N 0.02872 0.85847 0.21033 0.0
C365 C 0.02156 0.83989 0.17353 0.0
C366 C 0.00794 0.82083 0.20489 0.0
C367 C 0.03089 0.85879 0.18812 0.0
C368 C 0.98243 0.82386 0.10752 0.0
N369 N 1.00168 0.81749 0.11572 0.0
C370 C 0.02261 0.84346 0.09413 0.0
C371 C 0.02159 0.82701 0.10951 0.0
C372 C 0.00294 0.85012 0.0852 0.0
C373 C 0.98265 0.84014 0.09201 0.0
H374 H 0.96689 0.81629 0.11307 0.0
H375 H 0.03672 0.82212 0.1167 0.0
C376 C 0.05427 0.75904 0.18636 0.0
N377 N 0.04735 0.77944 0.18465 0.0
C378 C 0.07559 0.75784 0.19588 0.0
C379 C 0.08293 0.79881 0.20135 0.0
C380 C 0.06116 0.7992 0.19205 0.0
C381 C 0.09057 0.77788 0.20309 0.0
H382 H 0.04349 0.74361 0.1795 0.0
H383 H 0.05577 0.81533 0.18974 0.0
C384 C 0.957 0.76725 0.1123 0.0
N385 N 0.92576 0.76137 0.0755 0.0
C386 C 0.93448 0.76153 0.11493 0.0
C387 C 0.96367 0.76989 0.09096 0.0
C388 C 0.91894 0.75859 0.09611 0.0
C389 C 0.94761 0.76692 0.07257 0.0
C390 C 0.99837 0.73315 0.18138 0.0
C391 C 0.99514 0.71057 0.17245 0.0
C392 C 0.00451 0.73839 0.20421 0.0
C393 C 0.99829 0.69349 0.18657 0.0
C394 C 0.00763 0.72082 0.21777 0.0
N395 N 0.00447 0.69893 0.20874 0.0
C396 C 0.01856 0.72028 0.11658 0.0
C397 C 0.98077 0.71439 0.10174 0.0
C398 C 0.02278 0.70263 0.10221 0.0
N399 N 0.99794 0.72602 0.11593 0.0
C400 C 0.98417 0.69616 0.08734 0.0
C401 C 0.00549 0.69037 0.08734 0.0
H402 H 0.03188 0.72974 0.12811 0.0
H403 H 0.96456 0.71935 0.10143 0.0
C404 C 0.93868 0.79146 0.17743 0.0
N405 N 0.95026 0.77399 0.18025 0.0
C406 C 0.91884 0.79199 0.18725 0.0
C407 C 0.92336 0.75701 0.20355 0.0
C408 C 0.94301 0.75696 0.19314 0.0
C409 C 0.9108 0.77456 0.20044 0.0
H410 H 0.94467 0.80488 0.16722 0.0
H411 H 0.95229 0.74313 0.19515 0.0
O412 O 0.02336 0.77529 0.13506 0.0
O413 O 1.00007 0.80248 0.16794 0.0
O414 O 0.97228 0.7709 0.13069 0.0
O415 O 0.99613 0.75007 0.16761 0.0
H416 H 0.06612 0.79103 0.14575 0.0
H417 H 0.01645 0.76476 0.09128 0.0
H418 H 0.09444 0.7949 0.11893 0.0
H419 H 0.04563 0.76928 0.06535 0.0
H420 H 0.01611 0.84033 0.23668 0.0
H421 H 0.02322 0.84019 0.15588 0.0
H422 H 0.99894 0.80618 0.21166 0.0
H423 H 0.03982 0.87372 0.18177 0.0
H424 H 0.03858 0.85103 0.08943 0.0
H425 H 0.96722 0.84536 0.08592 0.0
H426 H 0.08036 0.74124 0.19714 0.0
H427 H 0.09387 0.81477 0.20624 0.0
H428 H 0.92907 0.7595 0.13137 0.0
H429 H 0.98099 0.77458 0.08866 0.0
H430 H 0.90144 0.75419 0.0979 0.0
H431 H 0.95251 0.76912 0.05597 0.0
H432 H 0.99027 0.70626 0.15481 0.0
H433 H 0.00719 0.75586 0.21128 0.0
H434 H 0.99587 0.67592 0.17989 0.0
H435 H 0.01262 0.72459 0.23545 0.0
H436 H 0.03936 0.69842 0.10287 0.0
H437 H 0.97045 0.68696 0.07607 0.0
H438 H 0.90979 0.8059 0.18449 0.0
H439 H 0.91771 0.74313 0.2134 0.0
Li440 Li 0.52284 0.816 0.39608 0.0
Li441 Li 0.50181 0.78974 0.36386 0.0
Li442 Li 0.5219 0.77437 0.39586 0.0
Li443 Li 0.54442 0.795 0.367 0.0
C444 C 0.48078 0.78731 0.40938 0.0
N445 N 0.44785 0.78095 0.43774 0.0
C446 C 0.45862 0.78691 0.40126 0.0
C447 C 0.48621 0.78462 0.43197 0.0
C448 C 0.44222 0.78372 0.41587 0.0
C449 C 0.46929 0.78128 0.446 0.0
C450 C 0.51864 0.8343 0.34925 0.0
C451 C 0.51502 0.84788 0.3126 0.0
N452 N 0.50698 0.86616 0.32126 0.0
C453 C 0.5104 0.85321 0.35783 0.0
C454 C 0.52108 0.83158 0.32651 0.0
C455 C 0.50457 0.86913 0.34339 0.0
C456 C 0.54008 0.85794 0.42335 0.0
N457 N 0.52182 0.8422 0.41618 0.0
C458 C 0.49981 0.86102 0.43971 0.0
C459 C 0.50188 0.84371 0.42382 0.0
C460 C 0.51829 0.87746 0.44746 0.0
C461 C 0.53863 0.87597 0.43895 0.0
H462 H 0.55578 0.85641 0.41707 0.0
H463 H 0.4874 0.8316 0.41747 0.0
C464 C 0.46158 0.76347 0.34083 0.0
N465 N 0.4738 0.78474 0.34469 0.0
C466 C 0.44045 0.76004 0.32885 0.0
C467 C 0.44442 0.80049 0.32564 0.0
C468 C 0.46544 0.8031 0.33748 0.0
C469 C 0.43153 0.77877 0.32124 0.0
H470 H 0.46794 0.74917 0.3476 0.0
H471 H 0.47471 0.81995 0.34147 0.0
C472 C 0.56487 0.80157 0.41769 0.0
N473 N 0.59763 0.80353 0.45269 0.0
C474 C 0.5849 0.79434 0.41406 0.0
C475 C 0.5615 0.80991 0.43909 0.0
C476 C 0.60126 0.79546 0.43199 0.0
C477 C 0.57827 0.81073 0.45658 0.0
C478 C 0.51581 0.74677 0.34968 0.0
C479 C 0.51683 0.72567 0.35813 0.0
C480 C 0.50812 0.74774 0.3273 0.0
C481 C 0.50954 0.70581 0.34418 0.0
C482 C 0.50089 0.72748 0.31389 0.0
N483 N 0.50172 0.70711 0.32255 0.0
C484 C 0.5026 0.7332 0.41257 0.0
C485 C 0.53689 0.75115 0.43181 0.0
C486 C 0.50223 0.71491 0.42596 0.0
N487 N 0.52022 0.75045 0.41524 0.0
C488 C 0.53685 0.73383 0.44594 0.0
C489 C 0.51995 0.71489 0.44252 0.0
H490 H 0.4893 0.73324 0.39949 0.0
H491 H 0.5506 0.76479 0.43397 0.0
C492 C 0.58807 0.81454 0.35515 0.0
N493 N 0.57207 0.79568 0.3521 0.0
C494 C 0.60848 0.81473 0.34615 0.0
C495 C 0.59575 0.77624 0.33064 0.0
C496 C 0.57561 0.77673 0.34001 0.0
C497 C 0.61279 0.79535 0.33375 0.0
H498 H 0.58515 0.82942 0.36489 0.0
H499 H 0.56293 0.76175 0.33793 0.0
O500 O 0.49711 0.79139 0.39545 0.0
O501 O 0.52449 0.81864 0.36316 0.0
O502 O 0.54829 0.79948 0.40058 0.0
O503 O 0.52212 0.7663 0.36339 0.0
H504 H 0.45414 0.78941 0.38395 0.0
H505 H 0.50331 0.78529 0.43862 0.0
H506 H 0.42503 0.78353 0.40983 0.0
H507 H 0.47323 0.7791 0.4635 0.0
H508 H 0.51673 0.84601 0.29493 0.0
H509 H 0.5084 0.85551 0.37541 0.0
H510 H 0.52747 0.817 0.3197 0.0
H511 H 0.49812 0.88384 0.34977 0.0
H512 H 0.48372 0.86191 0.44542 0.0
H513 H 0.55324 0.88848 0.44442 0.0
H514 H 0.4309 0.74305 0.32627 0.0
H515 H 0.43822 0.81544 0.32016 0.0
H516 H 0.58763 0.78758 0.39766 0.0
H517 H 0.54588 0.81506 0.44229 0.0
H518 H 0.6168 0.78978 0.42946 0.0
H519 H 0.57583 0.8169 0.47327 0.0
H520 H 0.52337 0.72462 0.37521 0.0
H521 H 0.50735 0.76397 0.32048 0.0
H522 H 0.51015 0.68937 0.35055 0.0
H523 H 0.49457 0.72794 0.29661 0.0
H524 H 0.48879 0.70063 0.42274 0.0
H525 H 0.55043 0.73498 0.45899 0.0
H526 H 0.62077 0.83004 0.34887 0.0
H527 H 0.59813 0.76074 0.32153 0.0
Li528 Li 0.50147 0.29297 0.63598 0.0
Li529 Li 0.51904 0.27587 0.66794 0.0
Li530 Li 0.49573 0.25119 0.63571 0.0
Li531 Li 0.47646 0.27412 0.66441 0.0
C532 C 0.53991 0.27373 0.62225 0.0
N533 N 0.57262 0.27772 0.59353 0.0
C534 C 0.56178 0.28307 0.63027 0.0
C535 C 0.53468 0.26637 0.59963 0.0
C536 C 0.57807 0.28495 0.61548 0.0
C537 C 0.55146 0.26855 0.58539 0.0
C538 C 0.50842 0.32033 0.68217 0.0
C539 C 0.51209 0.34073 0.71844 0.0
N540 N 0.52369 0.35912 0.71018 0.0
C541 C 0.52041 0.3394 0.67402 0.0
C542 C 0.50415 0.32096 0.70451 0.0
C543 C 0.52795 0.35888 0.68845 0.0
C544 C 0.48808 0.32961 0.61557 0.0
N545 N 0.50489 0.31735 0.61742 0.0
C546 C 0.52522 0.3406 0.59307 0.0
C547 C 0.52336 0.32267 0.60673 0.0
C548 C 0.50816 0.35362 0.59087 0.0
C549 C 0.48943 0.34803 0.60245 0.0
H550 H 0.47375 0.32518 0.62455 0.0
H551 H 0.53688 0.31334 0.60886 0.0
C552 C 0.55751 0.26014 0.68767 0.0
N553 N 0.54725 0.27877 0.68696 0.0
C554 C 0.57875 0.26161 0.69909 0.0
C555 C 0.57897 0.30151 0.70847 0.0
C556 C 0.55772 0.29928 0.69695 0.0
C557 C 0.58971 0.28251 0.70962 0.0
H558 H 0.54937 0.24417 0.679 0.0
H559 H 0.54993 0.31414 0.69567 0.0
C560 C 0.45782 0.2688 0.61238 0.0
N561 N 0.42687 0.26432 0.57545 0.0
C562 C 0.43532 0.26225 0.61464 0.0
C563 C 0.46465 0.27306 0.59137 0.0
C564 C 0.41992 0.26003 0.59575 0.0
C565 C 0.44871 0.27074 0.5729 0.0
C566 C 0.49953 0.23235 0.68185 0.0
C567 C 0.49642 0.20973 0.67303 0.0
C568 C 0.508 0.238 0.70413 0.0
C569 C 0.50218 0.19309 0.68661 0.0
C570 C 0.51368 0.22087 0.71715 0.0
N571 N 0.51068 0.19896 0.7082 0.0
C572 C 0.51352 0.21473 0.61822 0.0
C573 C 0.47702 0.2148 0.60162 0.0
C574 C 0.51513 0.19524 0.60485 0.0
N575 N 0.49466 0.22402 0.61653 0.0
C576 C 0.47794 0.19525 0.58779 0.0
C577 C 0.49718 0.18513 0.58935 0.0
H578 H 0.52734 0.22247 0.63014 0.0
H579 H 0.46225 0.22257 0.6004 0.0
C580 C 0.43835 0.29359 0.67637 0.0
N581 N 0.44873 0.27521 0.67881 0.0
C582 C 0.41804 0.2947 0.68518 0.0
C583 C 0.41931 0.25808 0.69927 0.0
C584 C 0.43958 0.25762 0.6901 0.0
C585 C 0.40799 0.27673 0.6968 0.0
H586 H 0.44574 0.30742 0.66733 0.0
H587 H 0.44785 0.24302 0.69177 0.0
O588 O 0.52365 0.27238 0.63639 0.0
O589 O 0.50074 0.30119 0.6683 0.0
O590 O 0.47298 0.27139 0.6308 0.0
O591 O 0.49424 0.2488 0.66863 0.0
H592 H 0.56609 0.28909 0.64765 0.0
H593 H 0.5178 0.25933 0.59311 0.0
H594 H 0.59504 0.29224 0.62143 0.0
H595 H 0.54765 0.26303 0.56783 0.0
H596 H 0.509 0.34146 0.73581 0.0
H597 H 0.52396 0.33916 0.6568 0.0
H598 H 0.49491 0.30629 0.71102 0.0
H599 H 0.53722 0.37378 0.68239 0.0
H600 H 0.53989 0.3442 0.58438 0.0
H601 H 0.47613 0.35799 0.60173 0.0
H602 H 0.58662 0.24662 0.69953 0.0
H603 H 0.58701 0.31794 0.71629 0.0
H604 H 0.42982 0.25893 0.63083 0.0
H605 H 0.48202 0.27818 0.58937 0.0
H606 H 0.40243 0.25495 0.59724 0.0
H607 H 0.4537 0.27407 0.55653 0.0
H608 H 0.4894 0.20501 0.65595 0.0
H609 H 0.51042 0.25547 0.71117 0.0
H610 H 0.49986 0.17551 0.68 0.0
H611 H 0.52049 0.22499 0.73438 0.0
H612 H 0.53018 0.18794 0.607 0.0
H613 H 0.46381 0.18827 0.57591 0.0
H614 H 0.41036 0.30964 0.683 0.0
H615 H 0.41235 0.24364 0.70779 0.0
Li616 Li 0.0248 0.31424 0.89776 0.0
Li617 Li 0.00262 0.28944 0.86509 0.0
Li618 Li 0.02205 0.27259 0.89649 0.0
Li619 Li 0.04533 0.29273 0.86809 0.0
C620 C 0.98198 0.28757 0.91093 0.0
N621 N 0.94931 0.28231 0.93969 0.0
C622 C 0.95972 0.28652 0.90282 0.0
C623 C 0.98762 0.28604 0.93372 0.0
C624 C 0.94346 0.28393 0.91762 0.0
C625 C 0.97084 0.28323 0.94795 0.0
C626 C 0.02094 0.33313 0.85095 0.0
C627 C 0.01612 0.34574 0.81399 0.0
N628 N 0.00959 0.3649 0.8227 0.0
C629 C 0.01432 0.35297 0.8596 0.0
C630 C 0.02197 0.32946 0.82803 0.0
C631 C 0.00859 0.36882 0.84502 0.0
C632 C 0.04331 0.35539 0.92576 0.0
N633 N 0.02464 0.34049 0.91792 0.0
C634 C 0.0027 0.36071 0.94024 0.0
C635 C 0.00456 0.34313 0.92459 0.0
C636 C 0.02157 0.37635 0.94857 0.0
C637 C 0.04208 0.37381 0.94099 0.0
H638 H 0.05909 0.35302 0.92016 0.0
H639 H 0.98979 0.33179 0.91757 0.0
C640 C 0.96194 0.26636 0.83862 0.0
N641 N 0.97444 0.28683 0.84622 0.0
C642 C 0.94088 0.26524 0.82683 0.0
C643 C 0.94541 0.30613 0.83173 0.0
C644 C 0.96629 0.30645 0.84329 0.0
C645 C 0.93232 0.28537 0.82306 0.0
H646 H 0.96804 0.2508 0.84209 0.0
H647 H 0.97562 0.32242 0.85062 0.0
C648 C 0.06457 0.29602 0.91979 0.0
N649 N 0.09507 0.2945 0.95606 0.0
C650 C 0.0852 0.28998 0.91661 0.0
C651 C 0.05946 0.30145 0.94138 0.0
C652 C 0.1004 0.28927 0.93517 0.0
C653 C 0.0751 0.30053 0.95952 0.0
C654 C 0.0152 0.24544 0.85027 0.0
C655 C 0.01411 0.2243 0.85916 0.0
C656 C 0.00944 0.2465 0.82746 0.0
C657 C 0.00699 0.2045 0.84509 0.0
C658 C 0.00222 0.22629 0.81396 0.0
N659 N 1.00118 0.20589 0.82298 0.0
C660 C 0.99814 0.23659 0.91653 0.0
C661 C 0.03678 0.24366 0.9281 0.0
C662 C 0.99488 0.21936 0.93102 0.0
N663 N 0.01883 0.24844 0.91549 0.0
C664 C 0.03426 0.22672 0.94286 0.0
C665 C 0.01314 0.21449 0.94436 0.0
H666 H 0.98421 0.24039 0.90595 0.0
H667 H 0.05313 0.2526 0.92646 0.0
C668 C 0.08723 0.31312 0.85296 0.0
N669 N 0.07287 0.29321 0.85282 0.0
C670 C 0.10743 0.31381 0.84345 0.0
C671 C 0.09795 0.27356 0.83345 0.0
C672 C 0.07791 0.27362 0.84319 0.0
C673 C 0.11333 0.29384 0.83357 0.0
H674 H 0.08311 0.32856 0.86068 0.0
H675 H 0.06651 0.25786 0.84334 0.0
O676 O 0.99815 0.29087 0.89671 0.0
O677 O 0.02652 0.31746 0.86497 0.0
O678 O 0.04945 0.29644 0.90179 0.0
O679 O 0.02177 0.26496 0.8639 0.0
H680 H 0.95501 0.28796 0.88533 0.0
H681 H 0.00476 0.28693 0.94032 0.0
H682 H 0.9262 0.28325 0.91157 0.0
H683 H 0.97495 0.28188 0.96558 0.0
H684 H 0.01676 0.34315 0.79617 0.0
H685 H 0.01345 0.35603 0.87733 0.0
H686 H 0.02713 0.31417 0.82117 0.0
H687 H 0.00333 0.38421 0.85144 0.0
H688 H 0.98653 0.36249 0.94527 0.0
H689 H 0.05694 0.38582 0.94691 0.0
H690 H 0.93147 0.24877 0.82069 0.0
H691 H 0.93938 0.3221 0.83015 0.0
H692 H 0.08936 0.28571 0.89997 0.0
H693 H 0.04356 0.30621 0.9441 0.0
H694 H 0.11641 0.28454 0.93297 0.0
H695 H 0.07138 0.30459 0.97634 0.0
H696 H 0.01885 0.22315 0.8767 0.0
H697 H 0.01019 0.26276 0.82037 0.0
H698 H 0.00609 0.18802 0.85175 0.0
H699 H 0.99743 0.22683 0.79632 0.0
H700 H 0.97849 0.20957 0.93138 0.0
H701 H 0.04874 0.22264 0.95245 0.0
H702 H 0.11827 0.33001 0.84377 0.0
H703 H 0.10154 0.2576 0.82637 0.0
Li704 Li 0.4155 0.0625 0.27192 0.0
Li705 Li 0.38215 0.04248 0.24614 0.0
Li706 Li 0.41364 0.06312 0.229 0.0
Li707 Li 0.38661 0.08474 0.24972 0.0
C708 C 0.42476 0.02002 0.24744 0.0
N709 N 0.44864 0.98453 0.24605 0.0
C710 C 0.41493 0.99822 0.25181 0.0
C711 C 0.44679 0.02384 0.24258 0.0
C712 C 0.42725 0.98049 0.25095 0.0
C713 C 0.45858 0.00565 0.24192 0.0
C714 C 0.36827 0.05736 0.28873 0.0
C715 C 0.33126 0.05416 0.29984 0.0
N716 N 0.33777 0.04356 0.31802 0.0
C717 C 0.37464 0.04653 0.30756 0.0
C718 C 0.34648 0.06142 0.28489 0.0
C719 C 0.35897 0.03971 0.3222 0.0
C720 C 0.43785 0.07794 0.31656 0.0
N721 N 0.43376 0.06021 0.30054 0.0
C722 C 0.45229 0.03744 0.32538 0.0
C723 C 0.44083 0.04019 0.30471 0.0
C724 C 0.4565 0.05531 0.3424 0.0
C725 C 0.44915 0.07586 0.33756 0.0
H726 H 0.432 0.09368 0.3132 0.0
H727 H 0.43716 0.02601 0.29221 0.0
C728 C 0.36312 1.00058 0.22296 0.0
N729 N 0.36198 0.01438 0.24155 0.0
C730 C 0.35151 0.97831 0.22048 0.0
C731 C 0.3368 0.98546 0.25558 0.0
C732 C 0.3489 0.00727 0.25755 0.0
C733 C 0.33845 0.97058 0.23718 0.0
H734 H 0.37395 0.00649 0.21064 0.0
H735 H 0.34855 0.01786 0.27244 0.0
C736 C 0.43764 0.10598 0.24931 0.0
N737 N 0.47191 0.13976 0.24241 0.0
C738 C 0.43304 0.12577 0.24007 0.0
C739 C 0.45957 0.10325 0.25504 0.0
C740 C 0.45063 0.1427 0.23673 0.0
C741 C 0.4767 0.12056 0.25138 0.0
C742 C 0.36594 0.05539 0.20434 0.0
C743 C 0.37217 0.05438 0.18263 0.0
C744 C 0.34386 0.04799 0.20786 0.0
C745 C 0.35634 0.04547 0.16484 0.0
C746 C 0.32853 0.03904 0.18962 0.0
N747 N 0.33503 0.03798 0.16868 0.0
C748 C 0.42407 0.03827 0.19145 0.0
C749 C 0.44448 0.07563 0.19491 0.0
C750 C 0.43283 0.03326 0.17143 0.0
N751 N 0.42968 0.05925 0.20268 0.0
C752 C 0.45401 0.07116 0.17507 0.0
C753 C 0.44796 0.04981 0.16291 0.0
H754 H 0.41223 0.0255 0.1978 0.0
H755 H 0.44866 0.09226 0.20385 0.0
C756 C 0.36815 0.1205 0.27182 0.0
N757 N 0.3699 0.11053 0.25128 0.0
C758 C 0.35507 0.13762 0.27432 0.0
C759 C 0.34594 0.13458 0.23443 0.0
C760 C 0.35911 0.11731 0.23269 0.0
C761 C 0.34349 0.14486 0.25554 0.0
H762 H 0.3766 0.11482 0.28644 0.0
H763 H 0.36034 0.109 0.21649 0.0
O764 O 0.41293 0.03757 0.24807 0.0
O765 O 0.38318 0.06344 0.27387 0.0
O766 O 0.42065 0.08968 0.25344 0.0
O767 O 0.38139 0.064 0.22189 0.0
H768 H 0.39805 0.99504 0.25606 0.0
H769 H 0.45468 0.04067 0.23935 0.0
H770 H 0.41984 0.96352 0.25425 0.0
H771 H 0.47564 0.00833 0.23813 0.0
H772 H 0.31424 0.05685 0.29694 0.0
H773 H 0.39141 0.04318 0.31071 0.0
H774 H 0.34128 0.06959 0.27025 0.0
H775 H 0.36363 0.03124 0.3368 0.0
H776 H 0.45721 0.02113 0.32819 0.0
H777 H 0.45211 0.09028 0.34989 0.0
H778 H 0.35331 0.96706 0.20619 0.0
H779 H 0.32737 0.97981 0.2691 0.0
H780 H 0.41607 0.12809 0.23572 0.0
H781 H 0.46329 0.088 0.2623 0.0
H782 H 0.44736 0.15819 0.22969 0.0
H783 H 0.49379 0.11875 0.25574 0.0
H784 H 0.38897 0.06075 0.17946 0.0
H785 H 0.33868 0.04891 0.22452 0.0
H786 H 0.36098 0.0446 0.14797 0.0
H787 H 0.31144 0.03297 0.19211 0.0
H788 H 0.42779 0.01658 0.16263 0.0
H789 H 0.46553 0.08443 0.16897 0.0
H790 H 0.35389 0.14502 0.29094 0.0
H791 H 0.33715 0.13927 0.21949 0.0
Li792 Li 0.27721 0.18504 0.52444 0.0
Li793 Li 0.2901 0.15414 0.50472 0.0
Li794 Li 0.27371 0.18301 0.48445 0.0
Li795 Li 0.24933 0.15276 0.50325 0.0
C796 C 0.31906 0.20305 0.5076 0.0
N797 N 0.35612 0.23661 0.51385 0.0
C798 C 0.33992 0.19756 0.51413 0.0
C799 C 0.31707 0.2256 0.50419 0.0
C800 C 0.35845 0.21478 0.51721 0.0
C801 C 0.33601 0.24233 0.50746 0.0
C802 C 0.27433 0.13934 0.54691 0.0
C803 C 0.2709 0.10252 0.56159 0.0
N804 N 0.28204 0.1123 0.58126 0.0
C805 C 0.28566 0.14908 0.56729 0.0
C806 C 0.26677 0.11592 0.54402 0.0
C807 C 0.2894 0.1351 0.58446 0.0
C808 C 0.26386 0.21268 0.55584 0.0
N809 N 0.28228 0.20626 0.54848 0.0
C810 C 0.30589 0.23444 0.57312 0.0
C811 C 0.30307 0.2163 0.55696 0.0
C812 C 0.28708 0.24188 0.58044 0.0
C813 C 0.26586 0.23078 0.57178 0.0
H814 H 0.24762 0.2038 0.54915 0.0
H815 H 0.3174 0.21015 0.5514 0.0
C816 C 0.32437 0.13715 0.48626 0.0
N817 N 0.31358 0.13779 0.5049 0.0
C818 C 0.3428 0.12626 0.48588 0.0
C819 C 0.33893 0.11764 0.5241 0.0
C820 C 0.32086 0.12892 0.5238 0.0
C821 C 0.35005 0.11604 0.50491 0.0
H822 H 0.31874 0.14531 0.4718 0.0
H823 H 0.3129 0.13065 0.53877 0.0
C824 C 0.23738 0.20274 0.50233 0.0
N825 N 0.21089 0.23591 0.49936 0.0
C826 C 0.21459 0.19666 0.49629 0.0
C827 C 0.24677 0.22566 0.50673 0.0
C828 C 0.20147 0.2137 0.49483 0.0
C829 C 0.23306 0.24218 0.50526 0.0
C830 C 0.26946 0.13568 0.4598 0.0
C831 C 0.26756 0.14367 0.43856 0.0
C832 C 0.2733 0.11349 0.46219 0.0
C833 C 0.26984 0.12937 0.41999 0.0
C834 C 0.27559 0.09974 0.4432 0.0
N835 N 0.27382 0.10789 0.42268 0.0
C836 C 0.29597 0.2024 0.45129 0.0
C837 C 0.25975 0.21153 0.45248 0.0
C838 C 0.29895 0.21439 0.43251 0.0
N839 N 0.27646 0.2009 0.46052 0.0
C840 C 0.26215 0.22395 0.43392 0.0
C841 C 0.28173 0.22495 0.42361 0.0
H842 H 0.30883 0.19355 0.45808 0.0
H843 H 0.24428 0.20964 0.45982 0.0
C844 C 0.21059 0.13306 0.5213 0.0
N845 N 0.22069 0.13454 0.50221 0.0
C846 C 0.18905 0.12103 0.52093 0.0
C847 C 0.18888 0.11183 0.48133 0.0
C848 C 0.2104 0.12412 0.48246 0.0
C849 C 0.17771 0.11035 0.5007 0.0
H850 H 0.21915 0.14163 0.53676 0.0
H851 H 0.21882 0.1256 0.46751 0.0
O852 O 0.30075 0.18636 0.50462 0.0
O853 O 0.27082 0.15269 0.52984 0.0
O854 O 0.25029 0.18619 0.50422 0.0
O855 O 0.26742 0.14957 0.47811 0.0
H856 H 0.34177 0.18022 0.51694 0.0
H857 H 0.30109 0.23015 0.49912 0.0
H858 H 0.37467 0.21078 0.52231 0.0
H859 H 0.33472 0.25985 0.50492 0.0
H860 H 0.26529 0.08434 0.55957 0.0
H861 H 0.29164 0.16719 0.56975 0.0
H862 H 0.25801 0.10819 0.5283 0.0
H863 H 0.29821 0.14236 0.60029 0.0
H864 H 0.32242 0.24208 0.58034 0.0
H865 H 0.25103 0.23535 0.57803 0.0
H866 H 0.35127 0.1259 0.47092 0.0
H867 H 0.3438 0.1099 0.53913 0.0
H868 H 0.20713 0.17896 0.4928 0.0
H869 H 0.2644 0.23061 0.51141 0.0
H870 H 0.18379 0.20926 0.49016 0.0
H871 H 0.24004 0.25999 0.5088 0.0
H872 H 0.26415 0.16064 0.43637 0.0
H873 H 0.27471 0.10707 0.47856 0.0
H874 H 0.2684 0.13533 0.40345 0.0
H875 H 0.27877 0.08258 0.44478 0.0
H876 H 0.31402 0.21456 0.42443 0.0
H877 H 0.24842 0.23155 0.42691 0.0
H878 H 0.18116 0.12074 0.53625 0.0
H879 H 0.18108 0.10364 0.46541 0.0
Li880 Li 0.15014 0.03128 0.78737 0.0
Li881 Li 0.12019 0.00601 0.80564 0.0
Li882 Li 0.14789 0.98689 0.78513 0.0
Li883 Li 0.11762 0.00388 0.76502 0.0
C884 C 0.16628 0.01224 0.83169 0.0
N885 N 0.19174 0.01519 0.87228 0.0
C886 C 0.15817 0.02002 0.85115 0.0
C887 C 0.18736 0.00609 0.8328 0.0
C888 C 0.17126 0.02128 0.87154 0.0
C889 C 0.20001 0.00775 0.8535 0.0
C890 C 0.10168 0.04431 0.78634 0.0
C891 C 0.0634 0.0493 0.78097 0.0
N892 N 0.06959 0.07184 0.78743 0.0
C893 C 0.10769 0.0675 0.79283 0.0
C894 C 0.07938 0.03509 0.78033 0.0
C895 C 0.09121 0.08114 0.79332 0.0
C896 C 0.16886 0.0722 0.76851 0.0
N897 N 0.16801 0.06191 0.78799 0.0
C898 C 0.18911 0.09586 0.80792 0.0
C899 C 0.1779 0.07333 0.80752 0.0
C900 C 0.19029 0.10707 0.78805 0.0
C901 C 0.17994 0.09465 0.76814 0.0
H902 H 0.1607 0.06302 0.75316 0.0
H903 H 0.17676 0.06512 0.82293 0.0
C904 C 0.09856 0.98394 0.8393 0.0
N905 N 0.10246 0.00414 0.83001 0.0
C906 C 0.08558 0.98161 0.8571 0.0
C907 C 0.08055 0.0208 0.8552 0.0
C908 C 0.09369 0.02239 0.83751 0.0
C909 C 0.07655 1.00027 0.86541 0.0
H910 H 0.10565 0.96967 0.83292 0.0
H911 H 0.09722 0.03836 0.8301 0.0
C912 C 0.16173 0.00708 0.74331 0.0
N913 N 0.18604 0.00385 0.70732 0.0
C914 C 0.15142 0.99666 0.72278 0.0
C915 C 0.18436 0.01588 0.74557 0.0
C916 C 0.164 0.99521 0.70477 0.0
C917 C 0.19638 0.01405 0.72717 0.0
C918 C 0.09782 0.96103 0.78149 0.0
C919 C 0.10124 0.93907 0.77499 0.0
C920 C 0.07647 0.9649 0.78498 0.0
C921 C 0.08319 0.92132 0.77197 0.0
C922 C 0.05885 0.94669 0.78174 0.0
N923 N 0.06254 0.92547 0.77537 0.0
C924 C 0.16603 0.94844 0.80165 0.0
C925 C 0.16901 0.95329 0.76342 0.0
C926 C 0.17533 0.9284 0.79996 0.0
N927 N 0.16321 0.96058 0.78354 0.0
C928 C 0.17837 0.93347 0.76099 0.0
C929 C 0.18179 0.92064 0.7794 0.0
H930 H 0.16082 0.95416 0.8174 0.0
H931 H 0.16598 0.96257 0.74901 0.0
C932 C 0.09601 0.02134 0.72984 0.0
N933 N 0.09767 1.00143 0.73898 0.0
C934 C 0.08198 0.02161 0.71045 0.0
C935 C 0.07157 0.98077 0.71013 0.0
C936 C 0.08585 0.98131 0.72962 0.0
C937 C 0.06963 1.00113 0.70027 0.0
H938 H 0.10588 0.03699 0.73753 0.0
H939 H 0.08776 0.96564 0.73697 0.0
O940 O 0.1534 0.00998 0.81172 0.0
O941 O 0.11769 0.03083 0.7858 0.0
O942 O 0.14969 0.00887 0.76105 0.0
O943 O 0.1154 0.9785 0.78467 0.0
H944 H 0.14195 0.02497 0.85057 0.0
H945 H 0.1938 1.0 0.81785 0.0
H946 H 0.16514 0.02711 0.88677 0.0
H947 H 0.21636 1.00305 0.85464 0.0
H948 H 0.04607 0.04243 0.77632 0.0
H949 H 0.12491 0.07486 0.79751 0.0
H950 H 0.07449 0.01721 0.77506 0.0
H951 H 0.09561 0.09912 0.79838 0.0
H952 H 0.19633 0.10452 0.82384 0.0
H953 H 0.18048 0.10207 0.75227 0.0
H954 H 0.08274 0.96541 0.86434 0.0
H955 H 0.07423 0.03572 0.8613 0.0
H956 H 0.13393 0.98967 0.72079 0.0
H957 H 0.19251 0.02402 0.76139 0.0
H958 H 0.15626 0.98719 0.68877 0.0
H959 H 0.21393 0.02075 0.72866 0.0
H960 H 0.11768 0.93579 0.77229 0.0
H961 H 0.07356 0.98172 0.79024 0.0
H962 H 0.0856 0.90424 0.76694 0.0
H963 H 0.04223 0.94943 0.78436 0.0
H964 H 0.17766 0.91925 0.81469 0.0
H965 H 0.18249 0.92805 0.74465 0.0
H966 H 0.08141 0.0376 0.70309 0.0
H967 H 0.06237 0.96464 0.70272 0.0
Li968 Li 0.20588 0.914 0.02418 0.0
Li969 Li 0.22761 0.88609 0.04458 0.0
Li970 Li 0.24722 0.9188 0.02564 0.0
Li971 Li 0.2255 0.88469 1.00131 0.0
C972 C 0.23353 0.935 0.06842 0.0
N973 N 0.24418 0.96686 0.10461 0.0
C974 C 0.23202 0.92833 0.09008 0.0
C975 C 0.24034 0.95787 0.06512 0.0
C976 C 0.23744 0.94469 0.10816 0.0
C977 C 0.24575 0.97372 0.08366 0.0
C978 C 0.18338 0.86316 0.0255 0.0
C979 C 0.1653 0.82411 0.02311 0.0
N980 N 0.14769 0.83087 0.0322 0.0
C981 C 0.16518 0.86975 0.0349 0.0
C982 C 0.18351 0.8402 0.01954 0.0
C983 C 0.14726 0.85316 0.03811 0.0
C984 C 0.16716 0.93092 0.00531 0.0
N985 N 0.18087 0.93096 0.02442 0.0
C986 C 0.16007 0.9556 0.04376 0.0
C987 C 0.17764 0.94307 0.04345 0.0
C988 C 0.14547 0.95548 0.02439 0.0
C989 C 0.14923 0.94294 0.00499 0.0
H990 H 0.17008 0.92143 0.99029 0.0
H991 H 0.18862 0.94296 0.05849 0.0
C992 C 0.2542 0.87026 0.07898 0.0
N993 N 0.23251 0.86992 0.07168 0.0
C994 C 0.26035 0.86044 0.09855 0.0
C995 C 0.22178 0.85124 0.10417 0.0
C996 C 0.21631 0.86058 0.08388 0.0
C997 C 0.24422 0.85096 0.11206 0.0
H998 H 0.26698 0.87847 0.06969 0.0
H999 H 0.19911 0.86091 0.07824 0.0
C1000 C 0.22957 0.93412 0.98436 0.0
N1001 N 0.23954 0.96682 0.95491 0.0
C1002 C 0.23743 0.92829 0.96411 0.0
C1003 C 0.22661 0.9565 0.98961 0.0
C1004 C 0.24239 0.94509 0.94944 0.0
C1005 C 0.23183 0.97281 0.97451 0.0
C1006 C 0.26782 0.87394 0.02434 0.0
C1007 C 0.28951 0.88392 0.02172 0.0
C1008 C 0.26319 0.85084 0.0278 0.0
C1009 C 0.30634 0.87068 0.02301 0.0
C1010 C 0.28049 0.83818 0.02902 0.0
N1011 N 0.30153 0.84828 0.02665 0.0
C1012 C 0.28801 0.93851 0.04841 0.0
C1013 C 0.28266 0.951 0.01208 0.0
C1014 C 0.31027 0.9488 0.05066 0.0
N1015 N 0.2749 0.93921 0.02908 0.0
C1016 C 0.30467 0.9619 0.01381 0.0
C1017 C 0.31884 0.96017 0.03296 0.0
H1018 H 0.28156 0.92865 0.06149 0.0
H1019 H 0.27233 0.9509 0.99665 0.0
C1020 C 0.20776 0.85871 0.95855 0.0
N1021 N 0.22636 0.86644 0.97285 0.0
C1022 C 0.20919 0.84703 0.9378 0.0
C1023 C 0.24882 0.85166 0.94655 0.0
C1024 C 0.24664 0.86303 0.96713 0.0
C1025 C 0.22998 0.84352 0.93151 0.0
H1026 H 0.1918 0.86187 0.96307 0.0
H1027 H 0.26133 0.8696 0.97832 0.0
O1028 O 0.22833 0.91912 0.0506 0.0
O1029 O 0.20051 0.87924 0.02119 0.0
O1030 O 0.22477 0.91795 0.99893 0.0
O1031 O 0.25131 0.88685 0.02414 0.0
H1032 H 0.22658 0.91072 0.09291 0.0
H1033 H 0.24154 0.96328 0.04843 0.0
H1034 H 0.23629 0.93977 0.12501 0.0
H1035 H 0.25118 0.99148 0.0814 0.0
H1036 H 0.16512 0.80626 0.01855 0.0
H1037 H 0.1648 0.88751 0.03943 0.0
H1038 H 0.19746 0.83493 0.01208 0.0
H1039 H 0.13297 0.858 0.04523 0.0
H1040 H 0.15763 0.96489 0.05911 0.0
H1041 H 0.13835 0.94246 0.9897 0.0
H1042 H 0.27783 0.86049 0.1027 0.0
H1043 H 0.20835 0.8448 0.1136 0.0
H1044 H 0.23976 0.91103 0.95982 0.0
H1045 H 0.22054 0.96121 0.00525 0.0
H1046 H 0.24853 0.94085 0.93373 0.0
H1047 H 0.22978 0.99025 0.97837 0.0
H1048 H 0.29336 0.90166 0.01866 0.0
H1049 H 0.24646 0.84291 0.02987 0.0
H1050 H 0.32322 0.87821 0.02113 0.0
H1051 H 0.27721 0.82034 0.03192 0.0
H1052 H 0.3209 0.94702 0.06558 0.0
H1053 H 0.31094 0.97023 0.99971 0.0
H1054 H 0.19427 0.84121 0.92658 0.0
H1055 H 0.26514 0.84928 0.94239 0.0
Li1056 Li 0.22957 0.41119 0.02799 0.0
Li1057 Li 0.24509 0.38272 0.04948 0.0
Li1058 Li 0.27019 0.41211 0.02968 0.0
Li1059 Li 0.24262 0.37942 0.00927 0.0
C1060 C 0.24896 0.43109 0.07208 0.0
N1061 N 0.2436 0.46061 0.1075 0.0
C1062 C 0.2388 0.42276 0.09036 0.0
C1063 C 0.25645 0.45437 0.07178 0.0
C1064 C 0.23625 0.43797 0.10812 0.0
C1065 C 0.25352 0.46905 0.08985 0.0
C1066 C 0.20013 0.36268 0.02372 0.0
C1067 C 0.18298 0.3234 0.01577 0.0
N1068 N 0.16265 0.32969 0.01607 0.0
C1069 C 0.17904 0.36873 0.02397 0.0
C1070 C 0.20214 0.3398 0.01979 0.0
C1071 C 0.16031 0.3518 0.02012 0.0
C1072 C 0.19525 0.42655 0.00452 0.0
N1073 N 0.206 0.4272 0.02535 0.0
C1074 C 0.17852 0.44512 0.04132 0.0
C1075 C 0.19798 0.43596 0.04367 0.0
C1076 C 0.16748 0.44499 0.01999 0.0
C1077 C 0.17588 0.43575 0.00138 0.0
H1078 H 0.20137 0.41829 0.99046 0.0
H1079 H 0.2062 0.43521 0.0601 0.0
C1080 C 0.26024 0.36195 0.08674 0.0
N1081 N 0.24201 0.36523 0.0737 0.0
C1082 C 0.25789 0.34847 0.10462 0.0
C1083 C 0.2181 0.34188 0.09492 0.0
C1084 C 0.22122 0.35574 0.0775 0.0
C1085 C 0.23657 0.33823 0.10883 0.0
H1086 H 0.27653 0.3699 0.08327 0.0
H1087 H 0.20699 0.3591 0.0672 0.0
C1088 C 0.24686 0.42502 0.98574 0.0
N1089 N 0.24249 0.45172 0.95042 0.0
C1090 C 0.247 0.41583 0.96387 0.0
C1091 C 0.24478 0.44785 0.98971 0.0
C1092 C 0.24476 0.4296 0.94623 0.0
C1093 C 0.24245 0.46104 0.9716 0.0
C1094 C 0.28291 0.36297 0.03061 0.0
C1095 C 0.30415 0.36879 0.02401 0.0
C1096 C 0.27595 0.34109 0.03691 0.0
C1097 C 0.31813 0.35248 0.02368 0.0
C1098 C 0.29039 0.32523 0.03624 0.0
N1099 N 0.311 0.33121 0.02971 0.0
C1100 C 0.3134 0.43151 0.04922 0.0
C1101 C 0.30478 0.44171 0.01256 0.0
C1102 C 0.3348 0.44408 0.05019 0.0
N1103 N 0.29895 0.43045 0.03055 0.0
C1104 C 0.32593 0.45463 0.01287 0.0
C1105 C 0.34146 0.45586 0.03181 0.0
H1106 H 0.30839 0.42229 0.06326 0.0
H1107 H 0.29305 0.44059 0.99787 0.0
C1108 C 0.21784 0.36031 0.97017 0.0
N1109 N 0.23557 0.3584 0.98479 0.0
C1110 C 0.21318 0.34617 0.95049 0.0
C1111 C 0.24356 0.32697 0.96283 0.0
C1112 C 0.24793 0.34175 0.98187 0.0
C1113 C 0.22677 0.32996 0.94653 0.0
H1114 H 0.20818 0.37365 0.97326 0.0
H1115 H 0.26186 0.3406 0.99362 0.0
O1116 O 0.25224 0.41641 0.0549 0.0
O1117 O 0.21864 0.37903 0.02827 0.0
O1118 O 0.24852 0.41158 0.00311 0.0
O1119 O 0.26902 0.37869 0.0308 0.0
H1120 H 0.23293 0.40479 0.09087 0.0
H1121 H 0.26446 0.46099 0.05775 0.0
H1122 H 0.22844 0.43178 0.1224 0.0
H1123 H 0.25921 0.48714 0.08987 0.0
H1124 H 0.18429 0.30566 0.01256 0.0
H1125 H 0.17713 0.38626 0.02746 0.0
H1126 H 0.21833 0.33475 0.01994 0.0
H1127 H 0.14391 0.35625 0.02043 0.0
H1128 H 0.17208 0.45207 0.05593 0.0
H1129 H 0.16734 0.43529 0.98477 0.0
H1130 H 0.27256 0.34652 0.11526 0.0
H1131 H 0.20142 0.33422 0.0975 0.0
H1132 H 0.24894 0.39827 0.96054 0.0
H1133 H 0.24468 0.4552 0.00658 0.0
H1134 H 0.24482 0.4227 0.92921 0.0
H1135 H 0.24059 0.47868 0.97437 0.0
H1136 H 0.30973 0.38568 0.01909 0.0
H1137 H 0.25945 0.33631 0.04184 0.0
H1138 H 0.33462 0.35671 0.01858 0.0
H1139 H 0.28518 0.30816 0.04086 0.0
H1140 H 0.34613 0.4441 0.06505 0.0
H1141 H 0.32997 0.46365 0.99841 0.0
H1142 H 0.20048 0.34909 0.9378 0.0
H1143 H 0.25464 0.31491 0.95977 0.0
Li1144 Li 0.79519 0.18184 0.02856 0.0
Li1145 Li 0.81428 0.15252 0.00552 0.0
Li1146 Li 0.79263 0.18148 0.98465 0.0
Li1147 Li 0.77296 0.14838 0.00295 0.0
C1148 C 0.83835 0.20322 0.00944 0.0
N1149 N 0.87638 0.23506 0.011 0.0
C1150 C 0.85899 0.19727 0.01588 0.0
C1151 C 0.83696 0.22531 0.00386 0.0
C1152 C 0.87805 0.21362 0.01654 0.0
C1153 C 0.85641 0.24118 0.00476 0.0
C1154 C 0.79206 0.13229 0.04499 0.0
C1155 C 0.78291 0.09326 0.05352 0.0
N1156 N 0.78664 0.10005 0.0757 0.0
C1157 C 0.79581 0.13889 0.06785 0.0
C1158 C 0.78567 0.1093 0.03771 0.0
C1159 C 0.79302 0.12233 0.08312 0.0
C1160 C 0.77499 0.19744 0.06694 0.0
N1161 N 0.79468 0.1993 0.05785 0.0
C1162 C 0.81262 0.22246 0.09072 0.0
C1163 C 0.81332 0.21166 0.06936 0.0
C1164 C 0.79257 0.2206 0.10078 0.0
C1165 C 0.77355 0.20792 0.08825 0.0
H1166 H 0.76033 0.18737 0.05779 0.0
H1167 H 0.8289 0.21296 0.0621 0.0
C1168 C 0.8516 0.13636 0.98751 0.0
N1169 N 0.83929 0.13523 0.0052 0.0
C1170 C 0.86938 0.12422 0.98645 0.0
C1171 C 0.86128 0.10915 0.0214 0.0
C1172 C 0.84383 0.12185 0.02197 0.0
C1173 C 0.87455 0.11038 0.00357 0.0
H1174 H 0.84766 0.14682 0.97419 0.0
H1175 H 0.83401 0.12104 0.03593 0.0
C1176 C 0.75239 0.1931 0.00421 0.0
N1177 N 0.71852 0.21852 1.00086 0.0
C1178 C 0.7309 0.18278 0.99583 0.0
C1179 C 0.75666 0.21631 0.01096 0.0
C1180 C 0.71401 0.19592 0.99424 0.0
C1181 C 0.7393 0.22888 0.00912 0.0
C1182 C 0.78616 0.13165 0.9612 0.0
C1183 C 0.77741 0.13716 0.9404 0.0
C1184 C 0.78862 0.1092 0.9644 0.0
C1185 C 0.77108 0.11999 0.92313 0.0
C1186 C 0.78208 0.09251 0.94669 0.0
N1187 N 0.77352 0.0982 0.92661 0.0
C1188 C 0.80639 0.20627 0.9458 0.0
C1189 C 0.76799 0.20057 0.94957 0.0
C1190 C 0.80274 0.21625 0.92545 0.0
N1191 N 0.78909 0.19862 0.95752 0.0
C1192 C 0.76361 0.21017 0.92931 0.0
C1193 C 0.78103 0.21809 0.9168 0.0
H1194 H 0.82302 0.20416 0.95192 0.0
H1195 H 0.7543 0.19393 0.95853 0.0
C1196 C 0.73629 0.12344 0.01972 0.0
N1197 N 0.74548 0.12782 1.00047 0.0
C1198 C 0.71465 0.11178 0.01902 0.0
C1199 C 0.71216 0.10937 0.97869 0.0
C1200 C 0.73404 0.1207 0.98016 0.0
C1201 C 0.70222 0.10518 0.99832 0.0
H1202 H 0.74533 0.13005 0.03562 0.0
H1203 H 0.74126 0.1251 0.96508 0.0
O1204 O 0.81966 0.18722 0.00785 0.0
O1205 O 0.79447 0.14837 0.0299 0.0
O1206 O 0.76918 0.18056 0.00582 0.0
O1207 O 0.7926 0.14829 0.9782 0.0
H1208 H 0.86029 0.18019 0.0202 0.0
H1209 H 0.82105 0.23005 0.99872 0.0
H1210 H 0.89417 0.20926 0.02141 0.0
H1211 H 0.85564 0.25835 1.00041 0.0
H1212 H 0.7778 0.07542 0.04816 0.0
H1213 H 0.80087 0.15662 0.07373 0.0
H1214 H 0.78267 0.10396 0.02006 0.0
H1215 H 0.7959 0.12718 0.10086 0.0
H1216 H 0.82777 0.23224 0.09923 0.0
H1217 H 0.75772 0.20549 0.09505 0.0
H1218 H 0.87896 0.12556 0.97225 0.0
H1219 H 0.8647 0.09891 0.03508 0.0
H1220 H 0.72727 0.16489 0.99042 0.0
H1221 H 0.77321 0.22451 0.0175 0.0
H1222 H 0.69732 0.18816 0.98771 0.0
H1223 H 0.74234 0.24688 0.01425 0.0
H1224 H 0.77547 0.15447 0.93763 0.0
H1225 H 0.7955 0.10473 0.98037 0.0
H1226 H 0.76423 0.12399 0.90697 0.0
H1227 H 0.78384 0.07503 0.9489 0.0
H1228 H 0.81666 0.2218 0.91622 0.0
H1229 H 0.74663 0.21115 0.92331 0.0
H1230 H 0.70723 0.1092 0.03446 0.0
H1231 H 0.70283 0.10475 0.96247 0.0
Li1232 Li 0.13881 0.52524 0.28497 0.0
Li1233 Li 0.10708 0.50439 0.30185 0.0
Li1234 Li 0.13517 0.48286 0.28215 0.0
Li1235 Li 0.10638 0.50349 0.25897 0.0
C1236 C 0.15502 0.51198 0.32718 0.0
N1237 N 0.18659 0.52771 0.36274 0.0
C1238 C 0.14877 0.5214 0.34699 0.0
C1239 C 0.17729 0.51043 0.3255 0.0
C1240 C 0.16499 0.52927 0.36477 0.0
C1241 C 0.19302 0.51855 0.34366 0.0
C1242 C 0.09552 0.54661 0.28174 0.0
C1243 C 0.06075 0.56011 0.27454 0.0
N1244 N 0.07063 0.58127 0.28318 0.0
C1245 C 0.10533 0.56848 0.29056 0.0
C1246 C 0.07307 0.54235 0.27364 0.0
C1247 C 0.09247 0.58578 0.29112 0.0
C1248 C 0.16258 0.5631 0.26853 0.0
N1249 N 0.15872 0.55337 0.28784 0.0
C1250 C 0.17916 0.58631 0.30939 0.0
C1251 C 0.16659 0.56457 0.30808 0.0
C1252 C 0.18363 0.59643 0.28966 0.0
C1253 C 0.17536 0.58457 0.26904 0.0
H1254 H 0.15509 0.55452 0.25272 0.0
H1255 H 0.16235 0.55723 0.32325 0.0
C1256 C 0.09045 0.49037 0.34291 0.0
N1257 N 0.09029 0.50635 0.32779 0.0
C1258 C 0.08142 0.49334 0.36326 0.0
C1259 C 0.07143 0.52866 0.35189 0.0
C1260 C 0.08093 0.52522 0.332 0.0
C1261 C 0.07187 0.51279 0.36799 0.0
H1262 H 0.09832 0.47571 0.33953 0.0
H1263 H 0.08138 0.53812 0.32037 0.0
C1264 C 0.15401 0.50865 0.24295 0.0
N1265 N 0.18403 0.51986 0.21247 0.0
C1266 C 0.14675 0.5078 0.22023 0.0
C1267 C 0.17658 0.51488 0.25019 0.0
C1268 C 0.16217 0.5135 0.20507 0.0
C1269 C 0.19148 0.52068 0.23451 0.0
C1270 C 0.084 0.45991 0.27795 0.0
C1271 C 0.08741 0.43751 0.27384 0.0
C1272 C 0.06294 0.46438 0.28168 0.0
C1273 C 0.06954 0.41981 0.27348 0.0
C1274 C 0.0455 0.44618 0.28127 0.0
N1275 N 0.04913 0.42447 0.27719 0.0
C1276 C 0.15545 0.44754 0.30195 0.0
C1277 C 0.16033 0.44972 0.26384 0.0
C1278 C 0.16775 0.42963 0.30323 0.0
N1279 N 0.15183 0.4572 0.28245 0.0
C1280 C 0.1727 0.43176 0.26432 0.0
C1281 C 0.17676 0.42099 0.28424 0.0
H1282 H 0.14884 0.45386 0.3167 0.0
H1283 H 0.15757 0.45774 0.24848 0.0
C1284 C 0.0918 0.5261 0.22154 0.0
N1285 N 0.08929 0.50529 0.22994 0.0
C1286 C 0.08264 0.52876 0.19985 0.0
C1287 C 0.06746 0.48878 0.19588 0.0
C1288 C 0.07706 0.48681 0.21767 0.0
C1289 C 0.07053 0.50991 0.18657 0.0
H1290 H 0.10174 0.54055 0.23138 0.0
H1291 H 0.0754 0.47037 0.22445 0.0
O1292 O 0.13936 0.5042 0.30962 0.0
O1293 O 0.10772 0.52934 0.28147 0.0
O1294 O 0.13894 0.50388 0.258 0.0
O1295 O 0.10142 0.4773 0.27872 0.0
H1296 H 0.13166 0.5229 0.34857 0.0
H1297 H 0.18237 0.50314 0.3103 0.0
H1298 H 0.1604 0.53669 0.38014 0.0
H1299 H 0.21034 0.51756 0.34258 0.0
H1300 H 0.04333 0.55706 0.26843 0.0
H1301 H 0.12259 0.57206 0.29712 0.0
H1302 H 0.06522 0.52545 0.26691 0.0
H1303 H 0.09984 0.60278 0.29793 0.0
H1304 H 0.18497 0.59526 0.32557 0.0
H1305 H 0.17796 0.59224 0.25351 0.0
H1306 H 0.08204 0.48065 0.37524 0.0
H1307 H 0.06453 0.54404 0.35498 0.0
H1308 H 0.12938 0.50273 0.21432 0.0
H1309 H 0.18243 0.5157 0.26776 0.0
H1310 H 0.15676 0.51292 0.18743 0.0
H1311 H 0.20896 0.52588 0.23986 0.0
H1312 H 0.10371 0.43388 0.27098 0.0
H1313 H 0.06015 0.48169 0.28501 0.0
H1314 H 0.0719 0.40236 0.2703 0.0
H1315 H 0.02908 0.44931 0.28421 0.0
H1316 H 0.16996 0.42306 0.31934 0.0
H1317 H 0.1788 0.42672 0.2489 0.0
H1318 H 0.08562 0.54527 0.19323 0.0
H1319 H 0.05854 0.47376 0.18605 0.0
Li1320 Li 0.73027 0.91161 0.52772 0.0
Li1321 Li 0.74724 0.88347 0.54806 0.0
Li1322 Li 0.77088 0.91307 0.52779 0.0
Li1323 Li 0.74295 0.88005 0.50799 0.0
C1324 C 0.75087 0.93103 0.57152 0.0
N1325 N 0.74535 0.95922 0.6079 0.0
C1326 C 0.74008 0.92202 0.58917 0.0
C1327 C 0.75891 0.9543 0.57235 0.0
C1328 C 0.73747 0.93658 0.60744 0.0
C1329 C 0.75589 0.96831 0.59088 0.0
C1330 C 0.70124 0.86288 0.52471 0.0
C1331 C 0.68377 0.82373 0.51661 0.0
N1332 N 0.66367 0.82993 0.51904 0.0
C1333 C 0.68041 0.86885 0.52714 0.0
C1334 C 0.70298 0.84011 0.51955 0.0
C1335 C 0.66163 0.85195 0.52425 0.0
C1336 C 0.69434 0.92542 0.50568 0.0
N1337 N 0.70666 0.92765 0.52584 0.0
C1338 C 0.681 0.94765 0.54251 0.0
C1339 C 0.70041 0.9384 0.54413 0.0
C1340 C 0.66796 0.94558 0.52193 0.0
C1341 C 0.67482 0.93449 0.50327 0.0
H1342 H 0.69935 0.91596 0.49167 0.0
H1343 H 0.71003 0.93929 0.56009 0.0
C1344 C 0.76639 0.86519 0.58424 0.0
N1345 N 0.74677 0.8658 0.5722 0.0
C1346 C 0.76728 0.85082 0.60139 0.0
C1347 C 0.72767 0.83821 0.5934 0.0
C1348 C 0.72754 0.85299 0.57653 0.0
C1349 C 0.74777 0.83696 0.60597 0.0
H1350 H 0.78133 0.87569 0.58029 0.0
H1351 H 0.71212 0.8541 0.56688 0.0
C1352 C 0.74615 0.92567 0.4847 0.0
N1353 N 0.74126 0.95226 0.44938 0.0
C1354 C 0.74625 0.91648 0.46282 0.0
C1355 C 0.74379 0.94842 0.48868 0.0
C1356 C 0.74375 0.9302 0.44518 0.0
C1357 C 0.74123 0.96156 0.47056 0.0
C1358 C 0.78395 0.86387 0.52954 0.0
C1359 C 0.80599 0.86942 0.52506 0.0
C1360 C 0.7758 0.84184 0.53474 0.0
C1361 C 0.81955 0.85273 0.52571 0.0
C1362 C 0.7899 0.82563 0.53522 0.0
N1363 N 0.81129 0.83136 0.53071 0.0
C1364 C 0.812 0.93781 0.54765 0.0
C1365 C 0.8062 0.93879 0.50834 0.0
C1366 C 0.83289 0.95136 0.54825 0.0
N1367 N 0.79915 0.93186 0.52789 0.0
C1368 C 0.82707 0.95214 0.50816 0.0
C1369 C 0.84063 0.95857 0.5283 0.0
H1370 H 0.80603 0.93192 0.56292 0.0
H1371 H 0.79567 0.93381 0.49287 0.0
C1372 C 0.71752 0.85973 0.46932 0.0
N1373 N 0.73596 0.85917 0.48349 0.0
C1374 C 0.71335 0.84555 0.44963 0.0
C1375 C 0.74584 0.82907 0.46114 0.0
C1376 C 0.7497 0.84391 0.48009 0.0
C1377 C 0.72822 0.83075 0.44524 0.0
H1378 H 0.70687 0.87207 0.47274 0.0
H1379 H 0.76433 0.84403 0.49131 0.0
O1380 O 0.754 0.91706 0.55374 0.0
O1381 O 0.71983 0.87923 0.52811 0.0
O1382 O 0.74811 0.9123 0.50207 0.0
O1383 O 0.77032 0.87981 0.52805 0.0
H1384 H 0.7337 0.90405 0.58874 0.0
H1385 H 0.76735 0.96144 0.55879 0.0
H1386 H 0.72916 0.92987 0.62123 0.0
H1387 H 0.76197 0.98639 0.59175 0.0
H1388 H 0.68485 0.80606 0.51251 0.0
H1389 H 0.67877 0.88631 0.53153 0.0
H1390 H 0.71899 0.83511 0.51794 0.0
H1391 H 0.64543 0.85633 0.52621 0.0
H1392 H 0.67619 0.95623 0.55721 0.0
H1393 H 0.66491 0.93233 0.48723 0.0
H1394 H 0.78302 0.85076 0.61108 0.0
H1395 H 0.71228 0.82779 0.59642 0.0
H1396 H 0.74832 0.89896 0.45949 0.0
H1397 H 0.74371 0.95574 0.50555 0.0
H1398 H 0.74378 0.92331 0.42815 0.0
H1399 H 0.73919 0.97915 0.47335 0.0
H1400 H 0.81246 0.88639 0.52088 0.0
H1401 H 0.75868 0.83721 0.53795 0.0
H1402 H 0.83662 0.85674 0.52215 0.0
H1403 H 0.7838 0.80847 0.53905 0.0
H1404 H 0.84303 0.95586 0.56406 0.0
H1405 H 0.83253 0.95749 0.49248 0.0
H1406 H 0.69992 0.84741 0.43728 0.0
H1407 H 0.75782 0.81807 0.45779 0.0
Li1408 Li 0.90329 0.0609 0.26604 0.0
Li1409 Li 0.87044 0.03397 0.24444 0.0
Li1410 Li 0.90052 0.06007 0.22547 0.0
Li1411 Li 0.87275 0.07806 0.2455 0.0
C1412 C 0.91938 0.02131 0.2458 0.0
N1413 N 0.95217 0.99452 0.2487 0.0
C1414 C 0.91413 0.99839 0.24977 0.0
C1415 C 0.94128 0.0306 0.24322 0.0
C1416 C 0.93095 0.98513 0.25119 0.0
C1417 C 0.95763 0.01678 0.24478 0.0
C1418 C 0.85906 0.05685 0.28798 0.0
C1419 C 0.82502 0.06064 0.30367 0.0
N1420 N 0.83465 0.05722 0.32414 0.0
C1421 C 0.86861 0.05331 0.30913 0.0
C1422 C 0.83708 0.06043 0.28515 0.0
C1423 C 0.85599 0.05355 0.32721 0.0
C1424 C 0.9325 0.0842 0.30253 0.0
N1425 N 0.92356 0.06356 0.29195 0.0
C1426 C 0.94262 0.04453 0.31924 0.0
C1427 C 0.92838 0.04394 0.29983 0.0
C1428 C 0.952 0.06555 0.33074 0.0
C1429 C 0.94702 0.08562 0.32199 0.0
H1430 H 0.92807 0.09954 0.2961 0.0
H1431 H 0.92052 0.02776 0.29149 0.0
C1432 C 0.84708 0.9884 0.22667 0.0
N1433 N 0.85266 0.0033 0.2452 0.0
C1434 C 0.83756 0.96555 0.2285 0.0
C1435 C 0.8394 0.97377 0.26831 0.0
C1436 C 0.84861 0.99638 0.26572 0.0
C1437 C 0.83393 0.95785 0.24963 0.0
H1438 H 0.8508 0.99396 0.21052 0.0
H1439 H 0.85342 0.00818 0.28033 0.0
C1440 C 0.9225 0.10471 0.24819 0.0
N1441 N 0.95706 0.14077 0.24976 0.0
C1442 C 0.91816 0.12654 0.24457 0.0
C1443 C 0.94442 0.10123 0.25263 0.0
C1444 C 0.93586 0.14454 0.24539 0.0
C1445 C 0.96166 0.11968 0.25338 0.0
C1446 C 0.85401 0.05587 0.20014 0.0
C1447 C 0.86303 0.06648 0.1823 0.0
C1448 C 0.8316 0.04625 0.19808 0.0
C1449 C 0.84943 0.06718 0.16257 0.0
C1450 C 0.8185 0.04743 0.17811 0.0
N1451 N 0.82762 0.05773 0.1609 0.0
C1452 C 0.923 0.0431 0.19066 0.0
C1453 C 0.92672 0.08328 0.19506 0.0
C1454 C 0.93639 0.04446 0.17312 0.0
N1455 N 0.91841 0.06236 0.20118 0.0
C1456 C 0.9402 0.08544 0.17768 0.0
C1457 C 0.94507 0.06586 0.16634 0.0
H1458 H 0.91614 0.02667 0.19581 0.0
H1459 H 0.92262 0.09836 0.2034 0.0
C1460 C 0.85363 0.11425 0.26619 0.0
N1461 N 0.85652 0.10359 0.24628 0.0
C1462 C 0.84221 0.13287 0.2669 0.0
C1463 C 0.83784 0.12992 0.22663 0.0
C1464 C 0.84924 0.11138 0.2267 0.0
C1465 C 0.83375 0.14076 0.24691 0.0
H1466 H 0.86006 0.10821 0.2816 0.0
H1467 H 0.85232 0.10324 0.21105 0.0
O1468 O 0.90301 0.03439 0.24423 0.0
O1469 O 0.8713 0.05718 0.2702 0.0
O1470 O 0.90527 0.08697 0.2475 0.0
O1471 O 0.86724 0.05416 0.21922 0.0
H1472 H 0.89724 0.99095 0.25175 0.0
H1473 H 0.94557 0.04819 0.23981 0.0
H1474 H 0.92713 0.96736 0.25426 0.0
H1475 H 0.97465 0.02373 0.24279 0.0
H1476 H 0.80802 0.06354 0.30179 0.0
H1477 H 0.88557 0.05039 0.3116 0.0
H1478 H 0.8295 0.06322 0.26885 0.0
H1479 H 0.86318 0.05085 0.34369 0.0
H1480 H 0.94536 0.02859 0.32567 0.0
H1481 H 0.9539 0.10218 0.33029 0.0
H1482 H 0.83401 0.95382 0.21369 0.0
H1483 H 0.837 0.96863 0.28492 0.0
H1484 H 0.90128 0.12953 0.24112 0.0
H1485 H 0.9481 0.08456 0.25576 0.0
H1486 H 0.93274 0.16151 0.24257 0.0
H1487 H 0.9787 0.11724 0.25691 0.0
H1488 H 0.88031 0.07407 0.18362 0.0
H1489 H 0.82444 0.03788 0.21174 0.0
H1490 H 0.85621 0.07523 0.14859 0.0
H1491 H 0.8011 0.04007 0.17626 0.0
H1492 H 0.93944 0.0289 0.16462 0.0
H1493 H 0.94667 0.10226 0.17312 0.0
H1494 H 0.83951 0.14055 0.28295 0.0
H1495 H 0.8322 0.13566 0.21076 0.0
Li1496 Li 0.29322 0.68106 0.52901 0.0
Li1497 Li 0.31265 0.65221 0.50634 0.0
Li1498 Li 0.29129 0.68057 0.48548 0.0
Li1499 Li 0.27129 0.64744 0.50354 0.0
C1500 C 0.33679 0.70256 0.50971 0.0
N1501 N 0.37498 0.734 0.51005 0.0
C1502 C 0.35749 0.69641 0.51552 0.0
C1503 C 0.33546 0.72466 0.50412 0.0
C1504 C 0.37662 0.71256 0.51557 0.0
C1505 C 0.35498 0.74033 0.5044 0.0
C1506 C 0.29071 0.63182 0.54565 0.0
C1507 C 0.28235 0.59276 0.55428 0.0
N1508 N 0.28608 0.59961 0.57644 0.0
C1509 C 0.29447 0.6385 0.56849 0.0
C1510 C 0.28475 0.60878 0.53842 0.0
C1511 C 0.29211 0.62195 0.5838 0.0
C1512 C 0.27015 0.69711 0.56351 0.0
N1513 N 0.29114 0.69839 0.55753 0.0
C1514 C 0.30525 0.72166 0.59154 0.0
C1515 C 0.30866 0.71028 0.57121 0.0
C1516 C 0.28358 0.72114 0.59772 0.0
C1517 C 0.26598 0.70855 0.58329 0.0
H1518 H 0.25647 0.68706 0.55287 0.0
H1519 H 0.3253 0.71087 0.56646 0.0
C1520 C 0.34943 0.63349 0.48914 0.0
N1521 N 0.33772 0.6355 0.5071 0.0
C1522 C 0.3674 0.62144 0.49006 0.0
C1523 C 0.36059 0.61318 0.52762 0.0
C1524 C 0.34299 0.62551 0.52607 0.0
C1525 C 0.37342 0.61121 0.50963 0.0
H1526 H 0.34495 0.64142 0.47413 0.0
H1527 H 0.33361 0.62718 0.54018 0.0
C1528 C 0.25029 0.69151 0.50542 0.0
N1529 N 0.21584 0.71619 0.50339 0.0
C1530 C 0.22919 0.68132 0.49576 0.0
C1531 C 0.25391 0.71423 0.51401 0.0
C1532 C 0.21198 0.6941 0.49491 0.0
C1533 C 0.23626 0.72643 0.51283 0.0
C1534 C 0.28432 0.63087 0.46184 0.0
C1535 C 0.27419 0.63638 0.44165 0.0
C1536 C 0.28794 0.60861 0.46428 0.0
C1537 C 0.26789 0.61946 0.42414 0.0
C1538 C 0.2813 0.59215 0.44639 0.0
N1539 N 0.27155 0.59788 0.42685 0.0
C1540 C 0.30133 0.69623 0.44189 0.0
C1541 C 0.27135 0.71007 0.45683 0.0
C1542 C 0.29679 0.70611 0.42171 0.0
N1543 N 0.28839 0.69803 0.45893 0.0
C1544 C 0.26624 0.7201 0.43713 0.0
C1545 C 0.27864 0.71786 0.41891 0.0
H1546 H 0.31467 0.68639 0.4436 0.0
H1547 H 0.26116 0.71156 0.47018 0.0
C1548 C 0.23606 0.62309 0.52221 0.0
N1549 N 0.24417 0.62624 0.50223 0.0
C1550 C 0.216 0.60879 0.52337 0.0
C1551 C 0.21223 0.60193 0.48319 0.0
C1552 C 0.2327 0.61604 0.48284 0.0
C1553 C 0.20377 0.59815 0.5037 0.0
H1554 H 0.245 0.63205 0.53729 0.0
H1555 H 0.23905 0.61929 0.46706 0.0
O1556 O 0.31798 0.6868 0.50891 0.0
O1557 O 0.29271 0.64788 0.53051 0.0
O1558 O 0.26746 0.67946 0.50607 0.0
O1559 O 0.2912 0.64735 0.4789 0.0
H1560 H 0.35879 0.67936 0.5199 0.0
H1561 H 0.31952 0.72959 0.49948 0.0
H1562 H 0.39277 0.70803 0.51996 0.0
H1563 H 0.35424 0.75751 0.50007 0.0
H1564 H 0.27752 0.57487 0.54896 0.0
H1565 H 0.29923 0.65628 0.57431 0.0
H1566 H 0.28177 0.60338 0.52078 0.0
H1567 H 0.29502 0.62686 0.60154 0.0
H1568 H 0.31939 0.73107 0.60211 0.0
H1569 H 0.24905 0.70719 0.58743 0.0
H1570 H 0.37674 0.62059 0.47575 0.0
H1571 H 0.36403 0.60521 0.54289 0.0
H1572 H 0.22617 0.66383 0.48882 0.0
H1573 H 0.27024 0.72241 0.52129 0.0
H1574 H 0.19556 0.68646 0.48746 0.0
H1575 H 0.23882 0.74405 0.51935 0.0
H1576 H 0.27118 0.65351 0.43952 0.0
H1577 H 0.29583 0.60414 0.4798 0.0
H1578 H 0.2601 0.62349 0.40839 0.0
H1579 H 0.28398 0.57483 0.44801 0.0
H1580 H 0.30687 0.70382 0.40819 0.0
H1581 H 0.25246 0.72941 0.4362 0.0
H1582 H 0.20971 0.60673 0.53944 0.0
H1583 H 0.20305 0.59421 0.46765 0.0
Li1584 Li 0.36993 0.53438 0.74469 0.0
Li1585 Li 0.40361 0.56049 0.76592 0.0
Li1586 Li 0.37332 0.57876 0.74617 0.0
Li1587 Li 0.39965 0.5599 0.72532 0.0
C1588 C 0.35958 0.55766 0.78839 0.0
N1589 N 0.33476 0.5583 0.82421 0.0
C1590 C 0.36888 0.5541 0.80963 0.0
C1591 C 0.33768 0.56149 0.78529 0.0
C1592 C 0.35604 0.55445 0.82753 0.0
C1593 C 0.32541 0.56181 0.80365 0.0
C1594 C 0.41838 0.52108 0.74435 0.0
C1595 C 0.45675 0.51709 0.74322 0.0
N1596 N 0.4514 0.49456 0.74612 0.0
C1597 C 0.41325 0.4979 0.74723 0.0
C1598 C 0.44028 0.53079 0.74226 0.0
C1599 C 0.43018 0.48477 0.74812 0.0
C1600 C 0.34771 0.48807 0.72805 0.0
N1601 N 0.35245 0.50377 0.74601 0.0
C1602 C 0.33787 0.47554 0.76984 0.0
C1603 C 0.34752 0.49782 0.76659 0.0
C1604 C 0.33326 0.45871 0.75183 0.0
C1605 C 0.33798 0.46543 0.73057 0.0
H1606 H 0.35215 0.49285 0.71186 0.0
H1607 H 0.35171 0.51023 0.78078 0.0
C1608 C 0.43547 0.58123 0.80184 0.0
N1609 N 0.42448 0.5614 0.79103 0.0
C1610 C 0.45156 0.58079 0.81969 0.0
C1611 C 0.44446 0.53966 0.81483 0.0
C1612 C 0.42838 0.54089 0.7974 0.0
C1613 C 0.45625 0.55975 0.82621 0.0
H1614 H 0.4317 0.59731 0.79667 0.0
H1615 H 0.41875 0.52543 0.78916 0.0
C1616 C 0.35382 0.55697 0.70028 0.0
N1617 N 0.32911 0.55901 0.66004 0.0
C1618 C 0.36356 0.56821 0.68315 0.0
C1619 C 0.33152 0.54688 0.69703 0.0
C1620 C 0.35081 0.56894 0.66287 0.0
C1621 C 0.31927 0.54818 0.67659 0.0
C1622 C 0.42302 0.60442 0.74721 0.0
C1623 C 0.4184 0.62582 0.74221 0.0
C1624 C 0.44503 0.60144 0.75224 0.0
C1625 C 0.43591 0.64391 0.74232 0.0
C1626 C 0.46206 0.61996 0.75222 0.0
N1627 N 0.45719 0.64063 0.7473 0.0
C1628 C 0.35914 0.61548 0.76993 0.0
C1629 C 0.34727 0.61294 0.73125 0.0
C1630 C 0.34843 0.63424 0.77367 0.0
N1631 N 0.35802 0.6049 0.74907 0.0
C1632 C 0.33644 0.63182 0.73423 0.0
C1633 C 0.33677 0.64251 0.75572 0.0
H1634 H 0.36808 0.60908 0.7838 0.0
H1635 H 0.34682 0.60455 0.71474 0.0
C1636 C 0.4183 0.53902 0.6911 0.0
N1637 N 0.41744 0.55983 0.70113 0.0
C1638 C 0.43303 0.53666 0.67522 0.0
C1639 C 0.44532 0.57735 0.67966 0.0
C1640 C 0.43034 0.57891 0.69556 0.0
C1641 C 0.44698 0.55594 0.66948 0.0
H1642 H 0.40786 0.52415 0.69586 0.0
H1643 H 0.42928 0.59531 0.70361 0.0
O1644 O 0.37195 0.55755 0.77074 0.0
O1645 O 0.402 0.53417 0.74385 0.0
O1646 O 0.36625 0.55494 0.71979 0.0
O1647 O 0.40598 0.58669 0.74756 0.0
H1648 H 0.38579 0.55105 0.81226 0.0
H1649 H 0.33031 0.5643 0.7689 0.0
H1650 H 0.36299 0.55169 0.84408 0.0
H1651 H 0.30846 0.56485 0.80156 0.0
H1652 H 0.47377 0.52436 0.74163 0.0
H1653 H 0.39638 0.49016 0.74895 0.0
H1654 H 0.44449 0.54864 0.73982 0.0
H1655 H 0.42646 0.46681 0.75043 0.0
H1656 H 0.33431 0.4715 0.7865 0.0
H1657 H 0.33499 0.45316 0.71616 0.0
H1658 H 0.46008 0.59662 0.82842 0.0
H1659 H 0.44702 0.52312 0.81993 0.0
H1660 H 0.38079 0.57613 0.6854 0.0
H1661 H 0.32381 0.53805 0.71014 0.0
H1662 H 0.35817 0.57737 0.64937 0.0
H1663 H 0.30197 0.54046 0.67382 0.0
H1664 H 0.40146 0.62844 0.73833 0.0
H1665 H 0.44894 0.5851 0.75638 0.0
H1666 H 0.43257 0.66057 0.7385 0.0
H1667 H 0.47915 0.61791 0.75618 0.0
H1668 H 0.34879 0.64187 0.79051 0.0
H1669 H 0.3273 0.63753 0.72005 0.0
H1670 H 0.43337 0.5199 0.6674 0.0
H1671 H 0.45575 0.59264 0.67569 0.0
Li1672 Li 0.60686 1.00234 0.8017 0.0
Li1673 Li 0.63905 0.0223 0.78531 0.0
Li1674 Li 0.60649 1.00195 0.75867 0.0
Li1675 Li 0.63468 0.98013 0.78196 0.0
C1676 C 0.5965 0.04504 0.78211 0.0
N1677 N 0.57234 0.08029 0.78383 0.0
C1678 C 0.60687 0.06694 0.79031 0.0
C1679 C 0.57387 0.04106 0.77477 0.0
C1680 C 0.59437 0.08453 0.79103 0.0
C1681 C 0.56193 0.05912 0.77579 0.0
C1682 C 0.65454 0.0091 0.82732 0.0
C1683 C 0.69257 0.0163 0.84378 0.0
N1684 N 0.68608 0.02586 0.86263 0.0
C1685 C 0.64823 0.01889 0.84692 0.0
C1686 C 0.67686 0.00762 0.82576 0.0
C1687 C 0.66443 0.02729 0.86458 0.0
C1688 C 0.58625 0.98751 0.84087 0.0
N1689 N 0.58992 0.00505 0.82761 0.0
C1690 C 0.57497 0.02927 0.85365 0.0
C1691 C 0.58444 0.02566 0.83373 0.0
C1692 C 0.57145 0.01168 0.8679 0.0
C1693 C 0.57707 0.99048 0.86116 0.0
H1694 H 0.59111 0.97139 0.83607 0.0
H1695 H 0.58815 0.03975 0.82369 0.0
C1696 C 0.66093 0.05987 0.76865 0.0
N1697 N 0.65955 0.04979 0.78811 0.0
C1698 C 0.67404 0.08095 0.76822 0.0
C1699 C 0.68384 0.08139 0.80804 0.0
C1700 C 0.67041 0.06022 0.8077 0.0
C1701 C 0.68548 0.09192 0.78811 0.0
H1702 H 0.65128 0.0518 0.75355 0.0
H1703 H 0.66811 0.05277 0.82322 0.0
C1704 C 0.5832 0.95828 0.77767 0.0
N1705 N 0.54797 0.92334 0.7775 0.0
C1706 C 0.58632 0.93574 0.77395 0.0
C1707 C 0.56225 0.96315 0.78133 0.0
C1708 C 0.56826 0.91829 0.77387 0.0
C1709 C 0.54463 0.9452 0.78122 0.0
C1710 C 0.65414 0.00672 0.74322 0.0
C1711 C 0.64701 0.00656 0.72052 0.0
C1712 C 0.67666 0.01292 0.75065 0.0
C1713 C 0.66251 0.01299 0.70562 0.0
C1714 C 0.69164 0.01942 0.73523 0.0
N1715 N 0.68431 0.01932 0.71323 0.0
C1716 C 0.59428 0.02612 0.7215 0.0
C1717 C 0.5768 0.98766 0.71654 0.0
C1718 C 0.58601 0.0299 0.69979 0.0
N1719 N 0.59006 0.00514 0.72938 0.0
C1720 C 0.56789 0.99083 0.69474 0.0
C1721 C 0.57287 0.01208 0.6859 0.0
H1722 H 0.60492 0.0398 0.73179 0.0
H1723 H 0.57371 0.97104 0.72288 0.0
C1724 C 0.65953 0.94795 0.80191 0.0
N1725 N 0.65163 0.95456 0.78193 0.0
C1726 C 0.67329 0.93125 0.80285 0.0
C1727 C 0.67032 0.92774 0.76264 0.0
C1728 C 0.65681 0.94478 0.76246 0.0
C1729 C 0.67899 0.92087 0.78306 0.0
H1730 H 0.65549 0.95599 0.81724 0.0
H1731 H 0.6508 0.95049 0.74672 0.0
O1732 O 0.60836 0.02751 0.78162 0.0
O1733 O 0.63893 1.00105 0.80978 0.0
O1734 O 0.60078 0.97542 0.77807 0.0
O1735 O 0.63895 1.00129 0.75803 0.0
H1736 H 0.62431 0.0703 0.7963 0.0
H1737 H 0.56561 0.02417 0.76848 0.0
H1738 H 0.60216 0.10155 0.79738 0.0
H1739 H 0.54438 0.05629 0.77024 0.0
H1740 H 0.70993 0.01547 0.84275 0.0
H1741 H 0.63108 0.02023 0.84845 0.0
H1742 H 0.68201 1.00013 0.81069 0.0
H1743 H 0.65979 0.03501 0.87978 0.0
H1744 H 0.57127 0.04599 0.85826 0.0
H1745 H 0.57456 0.97637 0.87155 0.0
H1746 H 0.67484 0.08887 0.75259 0.0
H1747 H 0.69205 0.08983 0.82373 0.0
H1748 H 0.60252 0.93181 0.77114 0.0
H1749 H 0.5597 0.98058 0.78436 0.0
H1750 H 0.57039 0.90074 0.77097 0.0
H1751 H 0.52829 0.94864 0.7841 0.0
H1752 H 0.62972 1.00141 0.71441 0.0
H1753 H 0.68243 0.01316 0.76819 0.0
H1754 H 0.65718 0.01298 0.68801 0.0
H1755 H 0.70909 0.02459 0.74075 0.0
H1756 H 0.59033 0.04652 0.69369 0.0
H1757 H 0.55803 0.97655 0.68455 0.0
H1758 H 0.67952 0.92654 0.81899 0.0
H1759 H 0.67452 0.92054 0.74697 0.0
Li1760 Li 0.77762 0.68388 0.02527 0.0
Li1761 Li 0.79095 0.65408 0.0047 0.0
Li1762 Li 0.77493 0.68353 0.98546 0.0
Li1763 Li 0.7499 0.65231 0.00288 0.0
C1764 C 0.82009 0.70333 0.00977 0.0
N1765 N 0.85727 0.73676 0.01603 0.0
C1766 C 0.8406 0.69806 0.01788 0.0
C1767 C 0.81851 0.72559 0.0047 0.0
C1768 C 0.8592 0.7152 0.02094 0.0
C1769 C 0.83749 0.74226 0.00807 0.0
C1770 C 0.7739 0.63758 0.0461 0.0
C1771 C 0.76868 0.60057 0.06035 0.0
N1772 N 0.77968 0.60981 0.08027 0.0
C1773 C 0.78502 0.64678 0.06676 0.0
C1774 C 0.76557 0.61435 0.04285 0.0
C1775 C 0.78784 0.63243 0.0838 0.0
C1776 C 0.76101 0.6979 0.06086 0.0
N1777 N 0.77953 0.70286 0.0504 0.0
C1778 C 0.79062 0.73799 0.07224 0.0
C1779 C 0.79473 0.72195 0.05611 0.0
C1780 C 0.77081 0.73391 0.0823 0.0
C1781 C 0.75639 0.71319 0.07718 0.0
H1782 H 0.74935 0.6825 0.05564 0.0
H1783 H 0.80939 0.72529 0.04756 0.0
C1784 C 0.82246 0.63118 0.98631 0.0
N1785 N 0.81369 0.63695 0.00533 0.0
C1786 C 0.83924 0.61797 0.98719 0.0
C1787 C 0.8383 0.6182 0.02727 0.0
C1788 C 0.82187 0.63159 0.02563 0.0
C1789 C 0.84671 0.61101 0.00784 0.0
H1790 H 0.81645 0.63682 0.97057 0.0
H1791 H 0.81592 0.63793 0.04059 0.0
C1792 C 0.73837 0.70239 0.00413 0.0
N1793 N 0.7124 0.73607 0.00218 0.0
C1794 C 0.71581 0.69687 0.99671 0.0
C1795 C 0.7478 0.72499 0.01056 0.0
C1796 C 0.70295 0.71417 0.99578 0.0
C1797 C 0.73435 0.74178 0.00952 0.0
C1798 C 0.76955 0.63605 0.95951 0.0
C1799 C 0.7687 0.64436 0.93837 0.0
C1800 C 0.77147 0.6133 0.9617 0.0
C1801 C 0.77016 0.6298 0.91972 0.0
C1802 C 0.77308 0.59931 0.94264 0.0
N1803 N 0.77238 0.60778 0.92223 0.0
C1804 C 0.79697 0.70317 0.95239 0.0
C1805 C 0.761 0.71277 0.95423 0.0
C1806 C 0.79968 0.71494 0.93343 0.0
N1807 N 0.77767 0.70193 0.96196 0.0
C1808 C 0.76312 0.72496 0.9355 0.0
C1809 C 0.7824 0.72553 0.92473 0.0
H1810 H 0.8098 0.69417 0.95896 0.0
H1811 H 0.74571 0.71113 0.96192 0.0
C1812 C 0.71012 0.63505 0.02046 0.0
N1813 N 0.72106 0.63418 0.0019 0.0
C1814 C 0.68861 0.62298 0.02037 0.0
C1815 C 0.69017 0.6089 0.98223 0.0
C1816 C 0.71162 0.62135 0.98302 0.0
C1817 C 0.67815 0.60975 1.001 0.0
H1818 H 0.71801 0.64547 0.03524 0.0
H1819 H 0.72067 0.62092 0.96848 0.0
O1820 O 0.80185 0.68658 0.00615 0.0
O1821 O 0.77117 0.65129 0.02916 0.0
O1822 O 0.7511 0.68563 0.00486 0.0
O1823 O 0.76851 0.65021 0.97792 0.0
H1824 H 0.84216 0.68089 0.0217 0.0
H1825 H 0.80277 0.72998 0.99842 0.0
H1826 H 0.87518 0.71136 0.02719 0.0
H1827 H 0.8365 0.75957 0.00434 0.0
H1828 H 0.76238 0.58252 0.05808 0.0
H1829 H 0.79175 0.66472 0.06948 0.0
H1830 H 0.75689 0.60705 0.02695 0.0
H1831 H 0.79657 0.63925 0.09981 0.0
H1832 H 0.80231 0.75363 0.07621 0.0
H1833 H 0.74146 0.70903 0.08537 0.0
H1834 H 0.84613 0.61306 0.97206 0.0
H1835 H 0.84451 0.61364 0.04349 0.0
H1836 H 0.70836 0.67942 0.99158 0.0
H1837 H 0.76529 0.72952 0.01616 0.0
H1838 H 0.68547 0.71017 0.98997 0.0
H1839 H 0.74136 0.75936 0.01448 0.0
H1840 H 0.76676 0.66181 0.93633 0.0
H1841 H 0.77209 0.60665 0.97798 0.0
H1842 H 0.76953 0.63601 0.90326 0.0
H1843 H 0.77489 0.58173 0.94408 0.0
H1844 H 0.81452 0.7148 0.92502 0.0
H1845 H 0.74935 0.73258 0.92863 0.0
H1846 H 0.68008 0.62455 0.03518 0.0
H1847 H 0.68314 0.59871 0.96701 0.0
Li1848 Li 0.88252 0.54245 0.74746 0.0
Li1849 Li 0.91555 0.56348 0.77281 0.0
Li1850 Li 0.88672 0.58491 0.74959 0.0
Li1851 Li 0.91429 0.5628 0.73007 0.0
C1852 C 0.86799 0.55833 0.78903 0.0
N1853 N 0.83712 0.54364 0.81768 0.0
C1854 C 0.87481 0.55061 0.80954 0.0
C1855 C 0.84553 0.55888 0.78322 0.0
C1856 C 0.85894 0.54318 0.82375 0.0
C1857 C 0.83016 0.5513 0.79792 0.0
C1858 C 0.92551 0.5204 0.74928 0.0
C1859 C 0.95989 0.50686 0.74453 0.0
N1860 N 0.94992 0.48537 0.74738 0.0
C1861 C 0.9156 0.49821 0.75218 0.0
C1862 C 0.94785 0.52484 0.74553 0.0
C1863 C 0.92823 0.48073 0.75119 0.0
C1864 C 0.85487 0.50296 0.72436 0.0
N1865 N 0.86158 0.51479 0.74454 0.0
C1866 C 0.83919 0.48691 0.76289 0.0
C1867 C 0.85465 0.50662 0.76364 0.0
C1868 C 0.83142 0.47481 0.74233 0.0
C1869 C 0.83964 0.48271 0.72284 0.0
H1870 H 0.86159 0.50897 0.70949 0.0
H1871 H 0.86164 0.51483 0.77961 0.0
C1872 C 0.93698 0.5812 0.81652 0.0
N1873 N 0.93359 0.56263 0.80156 0.0
C1874 C 0.94821 0.58071 0.83783 0.0
C1875 C 0.95261 0.54204 0.8282 0.0
C1876 C 0.94118 0.54323 0.80708 0.0
C1877 C 0.95627 0.56093 0.84412 0.0
H1878 H 0.93052 0.59634 0.81208 0.0
H1879 H 0.93813 0.52844 0.79525 0.0
C1880 C 0.86651 0.55597 0.70464 0.0
N1881 N 0.83547 0.54068 0.66853 0.0
C1882 C 0.87314 0.55369 0.68318 0.0
C1883 C 0.84402 0.55088 0.7077 0.0
C1884 C 0.85721 0.54596 0.66513 0.0
C1885 C 0.8286 0.54292 0.68925 0.0
C1886 C 0.93772 0.60635 0.74981 0.0
C1887 C 0.93322 0.62618 0.74057 0.0
C1888 C 0.95963 0.60359 0.75566 0.0
C1889 C 0.95086 0.64308 0.73732 0.0
C1890 C 0.97682 0.62086 0.75207 0.0
N1891 N 0.97211 0.64009 0.74308 0.0
C1892 C 0.86442 0.61965 0.76939 0.0
C1893 C 0.86364 0.61932 0.73012 0.0
C1894 C 0.85205 0.63762 0.76988 0.0
N1895 N 0.87009 0.61087 0.7497 0.0
C1896 C 0.85156 0.63753 0.72992 0.0
C1897 C 0.84562 0.647 0.74999 0.0
H1898 H 0.86943 0.61266 0.78479 0.0
H1899 H 0.86788 0.61193 0.71457 0.0
C1900 C 0.92832 0.53782 0.69387 0.0
N1901 N 0.93171 0.55907 0.70465 0.0
C1902 C 0.93999 0.533 0.67568 0.0
C1903 C 0.95858 0.57196 0.67969 0.0
C1904 C 0.9464 0.57612 0.69774 0.0
C1905 C 0.95545 0.55016 0.66848 0.0
H1906 H 0.91648 0.52451 0.69944 0.0
H1907 H 0.94879 0.59295 0.7062 0.0
O1908 O 0.88319 0.56453 0.77446 0.0
O1909 O 0.91334 0.53767 0.74996 0.0
O1910 O 0.88205 0.56313 0.72247 0.0
O1911 O 0.92067 0.58999 0.75365 0.0
H1912 H 0.8921 0.54987 0.81421 0.0
H1913 H 0.84001 0.56473 0.76736 0.0
H1914 H 0.86394 0.53691 0.83954 0.0
H1915 H 0.81268 0.5514 0.79357 0.0
H1916 H 0.97716 0.50999 0.74151 0.0
H1917 H 0.89837 0.4945 0.75523 0.0
H1918 H 0.95574 0.54196 0.74328 0.0
H1919 H 0.92079 0.46347 0.75344 0.0
H1920 H 0.8341 0.48063 0.77839 0.0
H1921 H 0.83453 0.47326 0.70678 0.0
H1922 H 0.95004 0.59563 0.84945 0.0
H1923 H 0.95856 0.52643 0.83191 0.0
H1924 H 0.89041 0.558 0.68043 0.0
H1925 H 0.8386 0.55255 0.72421 0.0
H1926 H 0.86214 0.54414 0.64844 0.0
H1927 H 0.81119 0.5385 0.69139 0.0
H1928 H 0.91629 0.62852 0.7361 0.0
H1929 H 0.96328 0.58829 0.76289 0.0
H1930 H 0.94766 0.65858 0.73026 0.0
H1931 H 0.99389 0.61901 0.75647 0.0
H1932 H 0.84785 0.64436 0.78575 0.0
H1933 H 0.8467 0.64399 0.71416 0.0
H1934 H 0.93713 0.51597 0.66745 0.0
H1935 H 0.97031 0.58565 0.67453 0.0
Li1936 Li 0.72777 0.38551 0.54712 0.0
Li1937 Li 0.70663 0.41364 0.52603 0.0
Li1938 Li 0.72688 0.38427 0.50371 0.0
Li1939 Li 0.74805 0.41833 0.52849 0.0
C1940 C 0.68361 0.36286 0.52597 0.0
N1941 N 0.647 0.33073 0.53026 0.0
C1942 C 0.66504 0.36945 0.53462 0.0
C1943 C 0.68364 0.34 0.51952 0.0
C1944 C 0.64666 0.35293 0.53663 0.0
C1945 C 0.66496 0.32398 0.52187 0.0
C1946 C 0.73436 0.43471 0.57066 0.0
C1947 C 0.74683 0.47358 0.58533 0.0
N1948 N 0.74539 0.46706 0.60641 0.0
C1949 C 0.733 0.42838 0.59245 0.0
C1950 C 0.74122 0.45749 0.567 0.0
C1951 C 0.73861 0.44499 0.61031 0.0
C1952 C 0.75203 0.3703 0.58455 0.0
N1953 N 0.73103 0.36885 0.57428 0.0
C1954 C 0.71661 0.34762 0.60387 0.0
C1955 C 0.71341 0.35773 0.58358 0.0
C1956 C 0.73813 0.3488 0.61465 0.0
C1957 C 0.75596 0.36024 0.60465 0.0
H1958 H 0.76582 0.37967 0.57732 0.0
H1959 H 0.6968 0.35704 0.57553 0.0
C1960 C 0.66739 0.43133 0.50772 0.0
N1961 N 0.68192 0.43116 0.52621 0.0
C1962 C 0.65069 0.44504 0.50791 0.0
C1963 C 0.6642 0.45833 0.54601 0.0
C1964 C 0.68036 0.44417 0.54521 0.0
C1965 C 0.64909 0.45904 0.52717 0.0
H1966 H 0.66894 0.42108 0.49268 0.0
H1967 H 0.69184 0.44384 0.55981 0.0
C1968 C 0.76891 0.37383 0.5287 0.0
N1969 N 0.80292 0.34858 0.5312 0.0
C1970 C 0.79039 0.38378 0.52522 0.0
C1971 C 0.76466 0.35101 0.53323 0.0
C1972 C 0.80737 0.37074 0.52661 0.0
C1973 C 0.78211 0.33854 0.53449 0.0
C1974 C 0.73023 0.43354 0.48647 0.0
C1975 C 0.73793 0.42774 0.46613 0.0
C1976 C 0.72679 0.45578 0.49156 0.0
C1977 C 0.74224 0.44442 0.45121 0.0
C1978 C 0.73137 0.472 0.47621 0.0
N1979 N 0.73893 0.46603 0.45653 0.0
C1980 C 0.71178 0.35901 0.45932 0.0
C1981 C 0.74989 0.36254 0.47162 0.0
C1982 C 0.71503 0.34755 0.43895 0.0
N1983 N 0.72914 0.36621 0.47533 0.0
C1984 C 0.75382 0.35109 0.45174 0.0
C1985 C 0.73635 0.34328 0.43487 0.0
H1986 H 0.69542 0.36237 0.4622 0.0
H1987 H 0.76371 0.36898 0.48389 0.0
C1988 C 0.78922 0.43847 0.55086 0.0
N1989 N 0.77565 0.43891 0.53179 0.0
C1990 C 0.81131 0.44927 0.55267 0.0
C1991 C 0.80457 0.46223 0.51592 0.0
C1992 C 0.78278 0.45086 0.51465 0.0
C1993 C 0.81928 0.46085 0.53479 0.0
H1994 H 0.78326 0.42853 0.5641 0.0
H1995 H 0.77213 0.45061 0.49943 0.0
O1996 O 0.70128 0.37889 0.5229 0.0
O1997 O 0.72857 0.41866 0.55303 0.0
O1998 O 0.75207 0.38633 0.52753 0.0
O1999 O 0.72621 0.41749 0.50135 0.0
H2000 H 0.66475 0.38715 0.53953 0.0
H2001 H 0.69789 0.33474 0.51264 0.0
H2002 H 0.6321 0.35777 0.54317 0.0
H2003 H 0.6647 0.3062 0.51692 0.0
H2004 H 0.75227 0.49127 0.5828 0.0
H2005 H 0.72745 0.41085 0.59553 0.0
H2006 H 0.74223 0.46266 0.55021 0.0
H2007 H 0.73754 0.44034 0.62726 0.0
H2008 H 0.70239 0.33914 0.61117 0.0
H2009 H 0.77277 0.3618 0.61256 0.0
H2010 H 0.63958 0.4452 0.49291 0.0
H2011 H 0.66355 0.46867 0.56128 0.0
H2012 H 0.79389 0.40126 0.52119 0.0
H2013 H 0.74808 0.34306 0.53582 0.0
H2014 H 0.82407 0.37821 0.52396 0.0
H2015 H 0.77911 0.32087 0.53808 0.0
H2016 H 0.74068 0.41058 0.46197 0.0
H2017 H 0.72087 0.4605 0.50728 0.0
H2018 H 0.74826 0.44021 0.43542 0.0
H2019 H 0.72895 0.48934 0.47995 0.0
H2020 H 0.70092 0.34195 0.42664 0.0
H2021 H 0.77068 0.34896 0.44945 0.0
H2022 H 0.82228 0.44781 0.56745 0.0
H2023 H 0.81026 0.4707 0.50166 0.0
Li2024 Li 0.62089 0.5057 0.30599 0.0
Li2025 Li 0.64997 0.53136 0.28694 0.0
Li2026 Li 0.61708 0.50351 0.26567 0.0
Li2027 Li 0.6481 0.48686 0.28464 0.0
C2028 C 0.60183 0.54431 0.28788 0.0
N2029 N 0.57037 0.57244 0.29052 0.0
C2030 C 0.60839 0.5676 0.29354 0.0
C2031 C 0.57928 0.5353 0.28349 0.0
C2032 C 0.59223 0.58155 0.29482 0.0
C2033 C 0.56363 0.54981 0.28493 0.0
C2034 C 0.66681 0.51223 0.33133 0.0
C2035 C 0.69982 0.50686 0.35384 0.0
N2036 N 0.69152 0.51498 0.37232 0.0
C2037 C 0.65869 0.52075 0.35048 0.0
C2038 C 0.68753 0.50525 0.33296 0.0
C2039 C 0.67138 0.52186 0.37108 0.0
C2040 C 0.60078 0.48359 0.34048 0.0
N2041 N 0.60372 0.50357 0.33066 0.0
C2042 C 0.5814 0.51979 0.35566 0.0
C2043 C 0.59431 0.5215 0.33785 0.0
C2044 C 0.57869 0.49965 0.36647 0.0
C2045 C 0.5884 0.48132 0.35873 0.0
H2046 H 0.60837 0.46957 0.33433 0.0
H2047 H 0.59723 0.53737 0.33021 0.0
C2048 C 0.6656 0.57197 0.26657 0.0
N2049 N 0.66731 0.5622 0.28633 0.0
C2050 C 0.6753 0.59469 0.26497 0.0
C2051 C 0.68901 0.59709 0.30392 0.0
C2052 C 0.67885 0.5743 0.30486 0.0
C2053 C 0.68712 0.60764 0.2838 0.0
H2054 H 0.65611 0.56228 0.2521 0.0
H2055 H 0.67972 0.5665 0.32054 0.0
C2056 C 0.59796 0.46084 0.28102 0.0
N2057 N 0.56242 0.42561 0.27355 0.0
C2058 C 0.60117 0.43912 0.27339 0.0
C2059 C 0.5767 0.46463 0.28496 0.0
C2060 C 0.58299 0.42152 0.26973 0.0
C2061 C 0.55893 0.44661 0.28099 0.0
C2062 C 0.66093 0.50745 0.24281 0.0
C2063 C 0.65069 0.49741 0.22211 0.0
C2064 C 0.6836 0.51607 0.24531 0.0
C2065 C 0.66339 0.49617 0.20417 0.0
C2066 C 0.69575 0.51439 0.22698 0.0
N2067 N 0.68547 0.50458 0.20696 0.0
C2068 C 0.59352 0.52159 0.23308 0.0
C2069 C 0.58765 0.48123 0.22807 0.0
C2070 C 0.58109 0.52275 0.21297 0.0
N2071 N 0.5968 0.50113 0.24006 0.0
C2072 C 0.5754 0.48163 0.20741 0.0
C2073 C 0.57264 0.5027 0.19962 0.0
H2074 H 0.60159 0.5371 0.24255 0.0
H2075 H 0.59098 0.46522 0.23382 0.0
C2076 C 0.6624 0.44603 0.29909 0.0
N2077 N 0.66367 0.46072 0.28269 0.0
C2078 C 0.67147 0.42588 0.29716 0.0
C2079 C 0.68334 0.4364 0.26172 0.0
C2080 C 0.67377 0.4561 0.26414 0.0
C2081 C 0.68217 0.42092 0.27827 0.0
H2082 H 0.65396 0.44975 0.31352 0.0
H2083 H 0.67416 0.46744 0.25096 0.0
O2084 O 0.61753 0.53053 0.28648 0.0
O2085 O 0.65433 0.51015 0.31114 0.0
O2086 O 0.61572 0.47807 0.28518 0.0
O2087 O 0.64882 0.5088 0.26057 0.0
H2088 H 0.62579 0.57482 0.29697 0.0
H2089 H 0.57393 0.51736 0.27885 0.0
H2090 H 0.59707 0.59961 0.29921 0.0
H2091 H 0.54612 0.5431 0.28155 0.0
H2092 H 0.71591 0.50156 0.35537 0.0
H2093 H 0.64278 0.52641 0.34949 0.0
H2094 H 0.69399 0.49861 0.31824 0.0
H2095 H 0.66522 0.52822 0.38608 0.0
H2096 H 0.57445 0.53439 0.36159 0.0
H2097 H 0.58672 0.46563 0.36695 0.0
H2098 H 0.67323 0.60222 0.24921 0.0
H2099 H 0.69765 0.60659 0.31893 0.0
H2100 H 0.61754 0.43588 0.27038 0.0
H2101 H 0.57397 0.48121 0.2912 0.0
H2102 H 0.58525 0.40461 0.26389 0.0
H2103 H 0.54238 0.44929 0.28394 0.0
H2104 H 0.63318 0.49059 0.21992 0.0
H2105 H 0.69171 0.52384 0.26128 0.0
H2106 H 0.65569 0.48848 0.18804 0.0
H2107 H 0.71335 0.52088 0.22867 0.0
H2108 H 0.57949 0.53924 0.20709 0.0
H2109 H 0.56944 0.46595 0.19709 0.0
H2110 H 0.67029 0.41438 0.31033 0.0
H2111 H 0.69124 0.43307 0.24679 0.0
Tb2112 Tb 0.01736 0.0567 0.01132 0.0
C2113 C 0.01171 0.01907 0.97095 0.0
Tb2114 Tb 0.00297 0.00875 0.0193 0.0
O2115 O 0.05174 0.05701 0.02567 0.0
O2116 O 0.03294 0.02728 0.01081 0.0
O2117 O 0.01045 0.04045 0.97714 0.0
C2118 C 0.00664 0.96968 0.03631 0.0
O2119 O 0.01242 0.00373 0.98575 0.0
C2120 C 0.96935 0.03041 0.00798 0.0
C2121 C 0.00759 0.04594 0.05969 0.0
O2122 O 0.99222 0.972 0.01976 0.0
O2123 O 0.01825 0.9892 0.04338 0.0
O2124 O 0.96844 0.00848 0.00517 0.0
O2125 O 0.98737 0.03826 0.01957 0.0
O2126 O 0.00841 0.02451 0.0534 0.0
O2127 O 0.00722 0.06145 0.04491 0.0
C2128 C 0.01729 0.09587 0.99327 0.0
O2129 O 0.02659 0.09387 0.0131 0.0
O2130 O 0.00829 0.07615 0.9839 0.0
C2131 C 0.05094 0.03518 0.02243 0.0
Tb2132 Tb 0.26455 0.80934 0.27386 0.0
C2133 C 0.30703 0.78506 0.2719 0.0
Tb2134 Tb 0.25808 0.76027 0.25831 0.0
O2135 O 0.25673 0.80258 0.30808 0.0
O2136 O 0.26967 0.77948 0.28883 0.0
O2137 O 0.29888 0.80434 0.27164 0.0
C2138 C 0.24415 0.71685 0.26302 0.0
O2139 O 0.29381 0.765 0.26899 0.0
C2140 C 0.2628 0.78776 0.22558 0.0
C2141 C 0.21561 0.78559 0.259 0.0
O2142 O 0.25687 0.72421 0.24799 0.0
O2143 O 0.23913 0.73382 0.2748 0.0
O2144 O 0.26762 0.76723 0.22484 0.0
O2145 O 0.25336 0.79025 0.24304 0.0
O2146 O 0.22321 0.76591 0.25717 0.0
O2147 O 0.22919 0.80525 0.26341 0.0
C2148 C 0.27959 0.8529 0.27086 0.0
O2149 O 0.26201 0.84539 0.2804 0.0
O2150 O 0.28859 0.83608 0.26372 0.0
C2151 C 0.26104 0.78189 0.30671 0.0
Tb2152 Tb 0.53544 0.03527 0.50941 0.0
C2153 C 0.52234 0.02785 0.55981 0.0
Tb2154 Tb 0.48644 0.03326 0.52041 0.0
O2155 O 0.54841 0.07119 0.51977 0.0
O2156 O 0.51592 0.05683 0.52291 0.0
O2157 O 0.53723 0.02724 0.54503 0.0
C2158 C 0.44773 0.0456 0.52586 0.0
O2159 O 0.50186 0.0315 0.55406 0.0
C2160 C 0.49853 0.99483 0.50655 0.0
C2161 C 0.49993 0.0468 0.47222 0.0
O2162 O 0.46486 0.04931 0.54064 0.0
O2163 O 0.45212 0.03408 0.50833 0.0
O2164 O 0.48231 0.99541 0.51898 0.0
O2165 O 0.50469 0.01452 0.50139 0.0
O2166 O 0.48678 0.04903 0.4884 0.0
O2167 O 0.5193 0.0394 0.47594 0.0
C2168 C 0.56834 0.01325 0.50314 0.0
O2169 O 0.56599 0.03225 0.49435 0.0
O2170 O 0.55236 0.00701 0.51517 0.0
C2171 C 0.52959 0.07509 0.52641 0.0
Tb2172 Tb 0.26818 0.28644 0.78943 0.0
C2173 C 0.27386 0.32839 0.75849 0.0
Tb2174 Tb 0.25187 0.27882 0.73907 0.0
O2175 O 0.30235 0.27937 0.78836 0.0
O2176 O 0.28148 0.27894 0.7598 0.0
O2177 O 0.27267 0.32174 0.77913 0.0
C2178 C 0.25934 0.26574 0.69901 0.0
O2179 O 0.26799 0.31406 0.74045 0.0
C2180 C 0.2184 0.28633 0.76219 0.0
C2181 C 0.24183 0.23736 0.76917 0.0
O2182 O 0.24923 0.28283 0.70356 0.0
O2183 O 0.2639 0.2555 0.71669 0.0
O2184 O 0.21664 0.28181 0.74053 0.0
O2185 O 0.23878 0.28713 0.7688 0.0
O2186 O 0.24129 0.24461 0.7488 0.0
O2187 O 0.25127 0.25056 0.78734 0.0
C2188 C 0.2681 0.29716 0.83219 0.0
O2189 O 0.25804 0.27823 0.82171 0.0
O2190 O 0.27843 0.30998 0.8187 0.0
C2191 C 0.30118 0.2771 0.76667 0.0
Tb2192 Tb 0.00833 0.0256 0.48936 0.0
C2193 C 0.96519 0.01618 0.51559 0.0
Tb2194 Tb 0.01105 0.04124 0.54244 0.0
O2195 O 0.01089 0.98934 0.4943 0.0
O2196 O 0.01192 0.01334 0.52032 0.0
O2197 O 0.97373 0.01647 0.49602 0.0
C2198 C 0.01877 0.03433 0.58495 0.0
O2199 O 0.97654 0.0241 0.53524 0.0
C2200 C 0.00669 0.07431 0.51604 0.0
C2201 C 0.0545 0.04914 0.51631 0.0
O2202 O 0.00661 0.04883 0.57755 0.0
O2203 O 0.02679 0.02436 0.56857 0.0
O2204 O 0.00758 0.07725 0.53778 0.0
O2205 O 0.00808 0.05386 0.51145 0.0
O2206 O 0.04598 0.04854 0.53592 0.0
O2207 O 0.04276 0.04262 0.49657 0.0
C2208 C 1.00081 0.03246 0.44691 0.0
O2209 O 0.01397 0.01893 0.4545 0.0
O2210 O 0.99167 0.04147 0.46309 0.0
C2211 C 0.01237 0.99264 0.51606 0.0
Tb2212 Tb 0.28758 0.79841 0.7696 0.0
C2213 C 0.25667 0.79896 0.8094 0.0
Tb2214 Tb 0.23776 0.77207 0.76174 0.0
O2215 O 0.28084 0.83278 0.76366 0.0
O2216 O 0.25567 0.80516 0.762 0.0
O2217 O 0.277 0.80371 0.80297 0.0
C2218 C 0.1949 0.76778 0.75157 0.0
O2219 O 0.23926 0.78747 0.79625 0.0
C2220 C 0.2671 0.74449 0.7691 0.0
C2221 C 0.26884 0.77161 0.72209 0.0
O2222 O 0.20409 0.75685 0.76684 0.0
O2223 O 0.20978 0.78041 0.74186 0.0
O2224 O 0.24578 0.73738 0.76511 0.0
O2225 O 0.26954 0.76584 0.76978 0.0
O2226 O 0.24802 0.76845 0.72761 0.0
O2227 O 0.28622 0.7814 0.73617 0.0
C2228 C 0.32997 0.80073 0.78128 0.0
O2229 O 0.32193 0.8096 0.76381 0.0
O2230 O 0.3142 0.79174 0.79246 0.0
C2231 C 0.25936 0.82643 0.76083 0.0
Tb2232 Tb 0.4848 0.02671 0.01017 0.0
C2233 C 0.51607 0.99033 0.00309 0.0
Tb2234 Tb 0.53623 0.04037 0.02206 0.0
O2235 O 0.48383 0.02828 0.9734 0.0
O2236 O 0.51306 0.03478 0.9938 0.0
O2237 O 0.4961 0.99352 0.00826 0.0
C2238 C 0.57919 0.05413 0.01942 0.0
O2239 O 0.53314 0.0071 0.00452 0.0
C2240 C 0.51329 0.02761 0.05599 0.0
C2241 C 0.50599 0.07855 0.02594 0.0
O2242 O 0.57095 0.03748 0.03052 0.0
O2243 O 0.56326 0.0636 0.01041 0.0
O2244 O 0.5342 0.02658 0.05489 0.0
O2245 O 0.50728 0.03742 0.0392 0.0
O2246 O 0.52657 0.07387 0.0268 0.0
O2247 O 0.48785 0.06292 0.02091 0.0
C2248 C 0.44256 0.01395 0.01652 0.0
O2249 O 0.45024 0.03175 0.00659 0.0
O2250 O 0.45857 1.00301 0.02248 0.0
C2251 C 0.50529 0.0334 0.97366 0.0
Tb2252 Tb 0.23775 0.27042 0.26766 0.0
C2253 C 0.27196 0.28412 0.31148 0.0
Tb2254 Tb 0.28601 0.29846 0.26584 0.0
O2255 O 0.24596 0.23582 0.26118 0.0
O2256 O 0.26939 0.26454 0.26189 0.0
O2257 O 0.25104 0.27845 0.30254 0.0
C2258 C 0.32746 0.30673 0.2572 0.0
O2259 O 0.28894 0.29106 0.30026 0.0
C2260 C 0.25625 0.32556 0.27291 0.0
C2261 C 0.25324 0.28303 0.22191 0.0
O2262 O 0.32032 0.29408 0.27259 0.0
O2263 O 0.3114 0.3157 0.24782 0.0
O2264 O 0.27695 0.33288 0.27054 0.0
O2265 O 0.25433 0.30419 0.27168 0.0
O2266 O 0.27406 0.28715 0.23125 0.0
O2267 O 0.2358 0.27857 0.23326 0.0
C2268 C 0.19593 0.2645 0.27596 0.0
O2269 O 0.20368 0.27544 0.25972 0.0
O2270 O 0.21162 0.256 0.28664 0.0
C2271 C 0.26686 0.24312 0.25939 0.0
Tb2272 Tb 0.50815 0.52738 0.98909 0.0
C2273 C 0.46485 0.51646 0.01467 0.0
Tb2274 Tb 0.51065 0.54113 0.04227 0.0
O2275 O 0.51096 0.49081 0.99268 0.0
O2276 O 0.51166 0.51378 0.01958 0.0
O2277 O 0.47356 0.51766 0.99526 0.0
C2278 C 0.51878 0.5342 0.0848 0.0
O2279 O 0.4763 0.5236 0.03443 0.0
C2280 C 0.50518 0.57474 0.01714 0.0
C2281 C 0.55446 0.54818 0.01602 0.0
O2282 O 0.49908 0.53188 0.07419 0.0
O2283 O 0.53356 0.5413 0.07174 0.0
O2284 O 0.50468 0.5767 0.03881 0.0
O2285 O 0.50892 0.55512 0.01228 0.0
O2286 O 0.54574 0.54546 0.0354 0.0
O2287 O 0.54263 0.54378 0.99613 0.0
C2288 C 0.49754 0.53964 0.949 0.0
O2289 O 0.51166 0.5258 0.95324 0.0
O2290 O 0.48917 0.54556 0.967 0.0
C2291 C 0.51207 0.49319 0.01455 0.0
Tb2292 Tb 0.78424 0.29565 0.27037 0.0
C2293 C 0.75235 0.29443 0.31002 0.0
Tb2294 Tb 0.73626 0.27212 0.26045 0.0
O2295 O 0.77729 0.32616 0.25492 0.0
O2296 O 0.75267 0.30619 0.26909 0.0
O2297 O 0.77302 0.29954 0.30429 0.0
C2298 C 0.69509 0.26831 0.24369 0.0
O2299 O 0.73539 0.28467 0.29533 0.0
C2300 C 0.763 0.24152 0.26552 0.0
C2301 C 0.76721 0.27389 0.22148 0.0
O2302 O 0.70103 0.26162 0.26312 0.0
O2303 O 0.71207 0.27707 0.23411 0.0
O2304 O 0.74159 0.23606 0.26109 0.0
O2305 O 0.76702 0.26278 0.26717 0.0
O2306 O 0.74699 0.27502 0.22699 0.0
O2307 O 0.78463 0.27839 0.23686 0.0
C2308 C 0.82657 0.30114 0.28515 0.0
O2309 O 0.81865 0.31103 0.2684 0.0
O2310 O 0.81057 0.2893 0.29399 0.0
C2311 C 0.75636 0.32335 0.25802 0.0
Tb2312 Tb 0.9837 0.52927 0.50818 0.0
C2313 C 0.01047 0.48759 0.50424 0.0
Tb2314 Tb 0.03446 0.53781 0.51982 0.0
O2315 O 0.9861 0.5409 0.47466 0.0
O2316 O 0.01185 0.52772 0.49074 0.0
O2317 O 0.991 0.49444 0.5058 0.0
C2318 C 0.07604 0.55375 0.5126 0.0
O2319 O 0.02965 0.50189 0.50745 0.0
C2320 C 0.01072 0.5309 0.55433 0.0
C2321 C 0.0079 0.57938 0.52313 0.0
O2322 O 0.0705 0.53904 0.52699 0.0
O2323 O 0.05831 0.55958 0.50289 0.0
O2324 O 0.03156 0.52854 0.55491 0.0
O2325 O 0.00625 0.53945 0.53643 0.0
O2326 O 0.02727 0.57274 0.52064 0.0
O2327 O 0.98911 0.56465 0.52205 0.0
C2328 C 0.94103 0.51569 0.51244 0.0
O2329 O 0.94877 0.53257 0.50131 0.0
O2330 O 0.95724 0.5062 0.52073 0.0
C2331 C 0.00653 0.53771 0.47379 0.0
Tb2332 Tb 0.76871 0.78603 0.28793 0.0
C2333 C 0.77414 0.8286 0.25938 0.0
Tb2334 Tb 0.75276 0.77805 0.24274 0.0
O2335 O 0.80292 0.7801 0.29051 0.0
O2336 O 0.78458 0.77726 0.25926 0.0
O2337 O 0.77601 0.82161 0.27974 0.0
C2338 C 0.75453 0.77449 0.19961 0.0
O2339 O 0.76536 0.81433 0.2421 0.0
C2340 C 0.71953 0.77916 0.26718 0.0
C2341 C 0.7482 0.73531 0.27029 0.0
O2342 O 0.74139 0.7861 0.20926 0.0
O2343 O 0.7653 0.76405 0.21392 0.0
O2344 O 0.71884 0.7666 0.24866 0.0
O2345 O 0.73838 0.79222 0.27061 0.0
O2346 O 0.74792 0.74223 0.24991 0.0
O2347 O 0.75483 0.74978 0.28803 0.0
C2348 C 0.76768 0.79523 0.33077 0.0
O2349 O 0.7545 0.77907 0.31868 0.0
O2350 O 0.78168 0.80604 0.31884 0.0
C2351 C 0.80368 0.77678 0.2692 0.0
Tb2352 Tb 0.76837 0.30668 0.76945 0.0
C2353 C 0.80491 0.27454 0.77227 0.0
Tb2354 Tb 0.75375 0.25801 0.75913 0.0
O2355 O 0.75984 0.3063 0.80414 0.0
O2356 O 0.76835 0.27786 0.78859 0.0
O2357 O 0.80084 0.29536 0.76924 0.0
C2358 C 0.73286 0.21669 0.76288 0.0
O2359 O 0.78831 0.25724 0.77188 0.0
C2360 C 0.76167 0.28021 0.72308 0.0
C2361 C 0.71709 0.28985 0.75733 0.0
O2362 O 0.75033 0.22117 0.75233 0.0
O2363 O 0.72726 0.23516 0.77116 0.0
O2364 O 0.76353 0.25899 0.72484 0.0
O2365 O 0.7535 0.28671 0.74022 0.0
O2366 O 0.72129 0.26914 0.76048 0.0
O2367 O 0.73356 0.30717 0.75739 0.0
C2368 C 0.78785 0.34749 0.76121 0.0
O2369 O 0.77322 0.34372 0.77543 0.0
O2370 O 0.79188 0.32845 0.75243 0.0
C2371 C 0.76085 0.28485 0.80602 0.0
Tb2372 Tb 0.73387 0.76705 0.76745 0.0
C2373 C 0.76885 0.7808 0.81086 0.0
Tb2374 Tb 0.78233 0.79335 0.76469 0.0
O2375 O 0.73946 0.73211 0.76036 0.0
O2376 O 0.76511 0.7591 0.7611 0.0
O2377 O 0.74788 0.77498 0.80218 0.0
C2378 C 0.82458 0.80071 0.75871 0.0
O2379 O 0.78564 0.78718 0.79931 0.0
C2380 C 0.75364 0.82136 0.77336 0.0
C2381 C 0.7471 0.78481 0.7222 0.0
O2382 O 0.81105 0.81504 0.75526 0.0
O2383 O 0.8143 0.78216 0.76551 0.0
O2384 O 0.77467 0.82828 0.77226 0.0
O2385 O 0.75113 0.80004 0.77059 0.0
O2386 O 0.76847 0.78783 0.72991 0.0
O2387 O 0.73064 0.77872 0.73442 0.0
C2388 C 0.69331 0.7629 0.779 0.0
O2389 O 0.69885 0.7687 0.75967 0.0
O2390 O 0.71031 0.75808 0.79094 0.0
C2391 C 0.76069 0.7375 0.75899 0.0
Tb2392 Tb 0.51814 0.55758 0.50991 0.0
C2393 C 0.51344 0.51874 0.47079 0.0
Tb2394 Tb 0.4971 0.50563 0.51761 0.0
O2395 O 0.55346 0.55248 0.51525 0.0
O2396 O 0.52755 0.52713 0.51837 0.0
O2397 O 0.51617 0.54098 0.4765 0.0
C2398 C 0.49571 0.46371 0.52881 0.0
O2399 O 0.50815 0.50246 0.48436 0.0
C2400 C 0.46723 0.53176 0.5069 0.0
C2401 C 0.50221 0.54504 0.55694 0.0
O2402 O 0.48159 0.47004 0.51406 0.0
O2403 O 0.51033 0.48094 0.53737 0.0
O2404 O 0.46187 0.51047 0.51068 0.0
O2405 O 0.48798 0.53596 0.50929 0.0
O2406 O 0.49855 0.52273 0.551 0.0
O2407 O 0.50896 0.56111 0.54367 0.0
C2408 C 0.51396 0.59853 0.49867 0.0
O2409 O 0.53158 0.59357 0.50978 0.0
O2410 O 0.49924 0.58048 0.49341 0.0
C2411 C 0.54836 0.53108 0.5191 0.0
Tb2412 Tb 0.03559 0.53571 0.01171 0.0
C2413 C 0.01995 0.52382 0.0605 0.0
Tb2414 Tb 0.9867 0.53089 0.01925 0.0
O2415 O 0.04031 0.57313 0.01542 0.0
O2416 O 0.0162 0.55299 0.03087 0.0
O2417 O 0.03599 0.52567 0.04676 0.0
C2418 C 0.95335 0.55325 0.01971 0.0
O2419 O 0.99939 0.52694 0.05373 0.0
C2420 C 0.99963 0.49357 0.0052 0.0
C2421 C 1.00126 0.5406 0.97 0.0
O2422 O 0.9521 0.53211 0.02468 0.0
O2423 O 0.97285 0.56109 0.01445 0.0
O2424 O 0.98219 0.49335 0.0162 0.0
O2425 O 0.00625 0.51354 1.00067 0.0
O2426 O 0.98521 0.53746 0.98348 0.0
O2427 O 0.02231 0.53944 0.97699 0.0
C2428 C 0.07192 0.51822 0.00827 0.0
O2429 O 0.07059 0.5395 0.0059 0.0
O2430 O 0.05309 0.50726 0.01257 0.0
C2431 C 0.02314 0.57303 0.02668 0.0
H2432 H 0.01787 0.17341 0.92868 0.0
H2433 H 0.00465 0.2111 0.98778 0.0
H2434 H 0.00559 0.17738 0.00909 0.0
H2435 H 0.0115 0.13728 0.01062 0.0
H2436 H 0.02342 0.10012 0.95047 0.0
H2437 H 0.02224 0.1337 0.92974 0.0
C2438 C 0.01498 0.17403 0.94618 0.0
C2439 C 0.01114 0.19426 0.95684 0.0
C2440 C 0.01577 0.15491 0.95808 0.0
C2441 C 0.00752 0.19537 0.97945 0.0
C2442 C 0.00821 0.17625 0.99156 0.0
C2443 C 0.01402 0.1368 0.99304 0.0
C2444 C 0.01781 0.11666 0.98195 0.0
C2445 C 0.01265 0.156 0.98108 0.0
C2446 C 0.02059 0.11569 0.95915 0.0
C2447 C 0.01983 0.13477 0.94732 0.0
H2448 H 0.11831 0.80564 0.2358 0.0
H2449 H 0.11645 0.74765 0.18855 0.0
H2450 H 0.15379 0.74373 0.20299 0.0
H2451 H 0.18745 0.75679 0.22865 0.0
H2452 H 0.19109 0.81676 0.27347 0.0
H2453 H 0.15287 0.81997 0.26025 0.0
C2454 C 0.12608 0.79225 0.22848 0.0
C2455 C 0.1141 0.77665 0.21139 0.0
C2456 C 0.14798 0.79035 0.23652 0.0
C2457 C 0.12473 0.75947 0.20222 0.0
C2458 C 0.14627 0.75729 0.21034 0.0
C2459 C 0.17974 0.77034 0.23576 0.0
C2460 C 0.19192 0.78625 0.25231 0.0
C2461 C 0.158 0.77249 0.22759 0.0
C2462 C 0.18194 0.80414 0.26088 0.0
C2463 C 0.16012 0.80604 0.25326 0.0
H2464 H 0.53114 0.92213 0.44299 0.0
H2465 H 0.49889 0.87611 0.48654 0.0
H2466 H 0.49034 0.90831 0.50959 0.0
H2467 H 0.48987 0.94986 0.51575 0.0
H2468 H 0.52212 0.99488 0.47113 0.0
H2469 H 0.5326 0.96299 0.45021 0.0
C2470 C 0.5226 0.91919 0.45777 0.0
C2471 C 0.51563 0.89686 0.46305 0.0
C2472 C 0.51739 0.93767 0.47061 0.0
C2473 C 0.50428 0.89323 0.48207 0.0
C2474 C 0.49934 0.91162 0.49521 0.0
C2475 C 0.49926 0.95257 0.50152 0.0
C2476 C 0.50511 0.97472 0.49502 0.0
C2477 C 0.50539 0.93395 0.48937 0.0
C2478 C 0.51738 0.97805 0.47658 0.0
C2479 C 0.52344 0.95979 0.46453 0.0
H2480 H 0.39414 0.2615 0.73616 0.0
H2481 H 0.37151 0.29348 0.67826 0.0
H2482 H 0.336 0.29504 0.6932 0.0
H2483 H 0.3112 0.28844 0.72387 0.0
H2484 H 0.33532 0.25737 0.7818 0.0
H2485 H 0.36964 0.25405 0.76565 0.0
C2486 C 0.38143 0.26861 0.7266 0.0
C2487 C 0.38589 0.27738 0.706 0.0
C2488 C 0.36092 0.26957 0.73537 0.0
C2489 C 0.36899 0.28684 0.69427 0.0
C2490 C 0.34847 0.28763 0.70278 0.0
C2491 C 0.3238 0.28057 0.73272 0.0
C2492 C 0.32037 0.27292 0.75406 0.0
C2493 C 0.34417 0.27916 0.72345 0.0
C2494 C 0.33726 0.26326 0.76538 0.0
C2495 C 0.35707 0.26143 0.75617 0.0
H2496 H 0.98179 0.91126 0.57338 0.0
H2497 H 0.0501 0.90239 0.57032 0.0
H2498 H 0.05653 0.93557 0.54925 0.0
H2499 H 0.0425 0.96645 0.52982 0.0
H2500 H 0.97611 0.97831 0.53719 0.0
H2501 H 0.96953 0.94528 0.55901 0.0
C2502 C 0.99827 0.91664 0.56862 0.0
C2503 C 0.01511 0.9034 0.57301 0.0
C2504 C 0.00231 0.93655 0.55723 0.0
C2505 C 0.0363 0.9112 0.56642 0.0
C2506 C 0.0402 0.93053 0.55455 0.0
C2507 C 0.02672 0.9619 0.53649 0.0
C2508 C 0.00973 0.97462 0.53174 0.0
C2509 C 0.02324 0.94311 0.54948 0.0
C2510 C 0.98942 0.96876 0.54058 0.0
C2511 C 0.98563 0.94979 0.55301 0.0
H2512 H 0.42948 0.78847 0.79204 0.0
H2513 H 0.40094 0.7334 0.82892 0.0
H2514 H 0.36394 0.73988 0.81638 0.0
H2515 H 0.34061 0.76539 0.80143 0.0
H2516 H 0.36793 0.82212 0.76622 0.0
H2517 H 0.40496 0.81137 0.7724 0.0
C2518 C 0.4151 0.77765 0.79693 0.0
C2519 C 0.41789 0.76088 0.81178 0.0
C2520 C 0.39391 0.78236 0.7908 0.0
C2521 C 0.39926 0.74643 0.81749 0.0
C2522 C 0.37809 0.75038 0.81068 0.0
C2523 C 0.35469 0.77547 0.79516 0.0
C2524 C 0.35207 0.79495 0.78421 0.0
C2525 C 0.37542 0.76908 0.79853 0.0
C2526 C 0.37002 0.80739 0.77528 0.0
C2527 C 0.39099 0.80113 0.77864 0.0
H2528 H 0.47887 0.17367 0.05178 0.0
H2529 H 0.53347 0.17505 0.1028 0.0
H2530 H 0.53986 0.13829 0.08758 0.0
H2531 H 0.53044 0.10578 0.05962 0.0
H2532 H 0.4737 0.10202 0.01098 0.0
H2533 H 0.46748 0.13949 0.02559 0.0
C2534 C 0.492 0.16587 0.05978 0.0
C2535 C 0.50603 0.17761 0.07809 0.0
C2536 C 0.49531 0.1443 0.05127 0.0
C2537 C 0.52289 0.16698 0.08819 0.0
C2538 C 0.52649 0.14579 0.07961 0.0
C2539 C 0.5169 0.11334 0.05205 0.0
C2540 C 0.50287 0.10154 0.03393 0.0
C2541 C 0.51303 0.13446 0.06098 0.0
C2542 C 0.4849 0.11105 0.02476 0.0
C2543 C 0.4813 0.1324 0.03316 0.0
H2544 H 0.13176 0.29801 0.33963 0.0
H2545 H 0.08394 0.27377 0.28307 0.0
H2546 H 0.11384 0.26691 0.2604 0.0
H2547 H 0.15333 0.26314 0.25878 0.0
H2548 H 0.19933 0.2823 0.31791 0.0
H2549 H 0.17054 0.2958 0.33771 0.0
C2550 C 0.12806 0.29195 0.32212 0.0
C2551 C 0.10606 0.28662 0.31275 0.0
C2552 C 0.14495 0.28654 0.30998 0.0
C2553 C 0.10103 0.2782 0.2903 0.0
C2554 C 0.11802 0.27403 0.27753 0.0
C2555 C 0.15678 0.27019 0.276 0.0
C2556 C 0.17791 0.27124 0.28725 0.0
C2557 C 0.13995 0.27724 0.28752 0.0
C2558 C 0.18277 0.28073 0.30936 0.0
C2559 C 0.16647 0.28868 0.32056 0.0
H2560 H 0.97722 0.04158 0.15581 0.0
H2561 H 0.94205 0.09427 0.13289 0.0
H2562 H 0.96102 0.09519 0.09911 0.0
H2563 H 0.98451 0.07819 0.07426 0.0
H2564 H 0.01797 0.02395 0.09622 0.0
H2565 H 0.00291 0.02658 0.13218 0.0
C2566 C 0.97375 0.05329 0.14344 0.0
C2567 C 0.95811 0.06769 0.14681 0.0
C2568 C 0.98441 0.05346 0.12384 0.0
C2569 C 0.95413 0.0831 0.13082 0.0
C2570 C 0.96487 0.08356 0.11141 0.0
C2571 C 0.98896 0.06737 0.08714 0.0
C2572 C 0.0023 0.05091 0.08263 0.0
C2573 C 0.9797 0.06849 0.10753 0.0
C2574 C 0.00767 0.03674 0.09933 0.0
C2575 C 0.99898 0.03814 0.11984 0.0
H2576 H 0.3054 0.73881 0.38933 0.0
H2577 H 0.23662 0.71788 0.39917 0.0
H2578 H 0.22509 0.73593 0.36598 0.0
H2579 H 0.2343 0.75912 0.33452 0.0
H2580 H 0.30277 0.77809 0.32327 0.0
H2581 H 0.31454 0.75944 0.35624 0.0
C2582 C 0.28789 0.73796 0.38412 0.0
C2583 C 0.27201 0.72735 0.39726 0.0
C2584 C 0.28123 0.74827 0.3647 0.0
C2585 C 0.24935 0.72648 0.38996 0.0
C2586 C 0.24266 0.73671 0.37082 0.0
C2587 C 0.25177 0.75918 0.33939 0.0
C2588 C 0.26766 0.77025 0.32669 0.0
C2589 C 0.25842 0.74802 0.35823 0.0
C2590 C 0.29024 0.76982 0.33289 0.0
C2591 C 0.29698 0.75913 0.35175 0.0
H2592 H 0.53116 0.01018 0.6635 0.0
H2593 H 0.6006 0.02136 0.65402 0.0
H2594 H 0.5916 0.02666 0.61451 0.0
H2595 H 0.56394 0.02833 0.58224 0.0
H2596 H 0.49451 0.01945 0.59235 0.0
H2597 H 0.50349 0.01334 0.63146 0.0
C2598 C 0.54428 0.01372 0.65273 0.0
C2599 C 0.56658 0.01521 0.66176 0.0
C2600 C 0.53897 0.01728 0.62994 0.0
C2601 C 0.58334 0.0201 0.64756 0.0
C2602 C 0.57818 0.02313 0.62491 0.0
C2603 C 0.55074 0.02499 0.59294 0.0
C2604 C 0.52849 0.02422 0.58395 0.0
C2605 C 0.55605 0.02178 0.61582 0.0
C2606 C 0.51178 0.02013 0.59845 0.0
C2607 C 0.5169 0.01658 0.62099 0.0
H2608 H 0.2575 0.34785 0.9227 0.0
H2609 H 0.20132 0.2942 0.92065 0.0
H2610 H 0.21004 0.27846 0.88438 0.0
H2611 H 0.23498 0.27947 0.85481 0.0
H2612 H 0.29148 0.33318 0.85785 0.0
H2613 H 0.28181 0.3493 0.89316 0.0
C2614 C 0.2471 0.33283 0.91407 0.0
C2615 C 0.22894 0.32197 0.92379 0.0
C2616 C 0.25264 0.32375 0.89407 0.0
C2617 C 0.21532 0.30264 0.913 0.0
C2618 C 0.22045 0.29363 0.89258 0.0
C2619 C 0.24529 0.29451 0.86344 0.0
C2620 C 0.26399 0.30511 0.85428 0.0
C2621 C 0.23936 0.30383 0.88328 0.0
C2622 C 0.27712 0.32479 0.86504 0.0
C2623 C 0.27152 0.33405 0.88497 0.0
H2624 H 0.98176 0.03832 0.34378 0.0
H2625 H 0.95047 0.09381 0.36781 0.0
H2626 H 0.96517 0.08972 0.40588 0.0
H2627 H 0.98208 0.06707 0.43265 0.0
H2628 H 0.01138 0.00995 0.40954 0.0
H2629 H 1.00177 0.0176 0.37068 0.0
C2630 C 0.97824 0.04958 0.35734 0.0
C2631 C 0.96468 0.06606 0.35294 0.0
C2632 C 0.98593 0.04651 0.37933 0.0
C2633 C 0.9609 0.08103 0.37061 0.0
C2634 C 0.96906 0.07852 0.39247 0.0
C2635 C 0.98647 0.05637 0.41907 0.0
C2636 C 0.997 0.03776 0.42369 0.0
C2637 C 0.98078 0.06077 0.39704 0.0
C2638 C 0.00305 0.02426 0.40617 0.0
C2639 C 0.99758 0.02864 0.38405 0.0
H2640 H 0.30544 0.72285 0.6399 0.0
H2641 H 0.25122 0.74709 0.60349 0.0
H2642 H 0.24137 0.76453 0.63817 0.0
H2643 H 0.24723 0.77186 0.67962 0.0
H2644 H 0.3025 0.74873 0.71537 0.0
H2645 H 0.31248 0.73182 0.68069 0.0
C2646 C 0.2916 0.73213 0.6395 0.0
C2647 C 0.27897 0.73333 0.61898 0.0
C2648 C 0.28592 0.74212 0.65964 0.0
C2649 C 0.26103 0.74545 0.61899 0.0
C2650 C 0.25538 0.7555 0.63888 0.0
C2651 C 0.26139 0.76306 0.67977 0.0
C2652 C 0.27397 0.76147 0.70023 0.0
C2653 C 0.26745 0.75367 0.65944 0.0
C2654 C 0.2925 0.75027 0.69997 0.0
C2655 C 0.29827 0.74056 0.68006 0.0
H2656 H 0.53669 0.03325 0.87686 0.0
H2657 H 0.58668 0.99927 0.90865 0.0
H2658 H 0.57252 0.00554 0.94475 0.0
H2659 H 0.54494 0.01952 0.96718 0.0
H2660 H 0.49247 0.0494 0.93448 0.0
H2661 H 0.50906 0.04694 0.89923 0.0
C2662 C 0.54458 0.02736 0.89171 0.0
C2663 C 0.5627 0.0157 0.88993 0.0
C2664 C 0.53604 0.03061 0.9124 0.0
C2665 C 0.57255 0.00801 0.9094 0.0
C2666 C 0.56455 0.01174 0.93012 0.0
C2667 C 0.53722 0.02557 0.9524 0.0
C2668 C 0.51747 0.03461 0.95348 0.0
C2669 C 0.54617 0.02285 0.93182 0.0
C2670 C 0.50769 0.04239 0.93409 0.0
C2671 C 0.5171 0.04085 0.91388 0.0
H2672 H 0.26224 0.30858 0.12448 0.0
H2673 H 0.20417 0.33795 0.13703 0.0
H2674 H 0.20183 0.31934 0.17166 0.0
H2675 H 0.21937 0.29943 0.20078 0.0
H2676 H 0.27996 0.27408 0.19024 0.0
H2677 H 0.27834 0.28651 0.15243 0.0
C2678 C 0.24907 0.31089 0.13479 0.0
C2679 C 0.2336 0.32483 0.12835 0.0
C2680 C 0.24836 0.30096 0.15509 0.0
C2681 C 0.21624 0.32718 0.14154 0.0
C2682 C 0.21497 0.31669 0.16144 0.0
C2683 C 0.23182 0.29605 0.18992 0.0
C2684 C 0.24971 0.28589 0.19805 0.0
C2685 C 0.23133 0.30414 0.16868 0.0
C2686 C 0.26604 0.28193 0.18415 0.0
C2687 C 0.26519 0.28911 0.16264 0.0
H2688 H 0.14448 1.00129 0.02915 0.0
H2689 H 0.10214 0.93595 0.02015 0.0
H2690 H 0.06919 0.95448 0.01923 0.0
H2691 H 0.05226 0.98942 0.01923 0.0
H2692 H 0.09453 0.05486 0.02901 0.0
H2693 H 0.12742 0.03636 0.0306 0.0
C2694 C 0.12801 0.99118 0.02705 0.0
C2695 C 0.12573 0.96726 0.02458 0.0
C2696 C 0.10907 1.00202 0.0263 0.0
C2697 C 0.1043 0.95436 0.02185 0.0
C2698 C 0.08546 0.96497 0.02132 0.0
C2699 C 0.06865 0.99962 0.02198 0.0
C2700 C 0.07082 0.02355 0.02416 0.0
C2701 C 0.08759 0.9888 0.02325 0.0
C2702 C 0.09228 0.03645 0.02748 0.0
C2703 C 0.11116 0.02585 0.02836 0.0
H2704 H 0.65693 0.58919 0.03451 0.0
H2705 H 0.64597 0.60319 0.96536 0.0
H2706 H 0.60765 0.58433 0.96364 0.0
H2707 H 0.5766 0.56522 0.98193 0.0
H2708 H 0.58665 0.55296 0.05158 0.0
H2709 H 0.62568 0.57011 0.05292 0.0
C2710 C 0.64617 0.58834 0.01908 0.0
C2711 C 0.65466 0.59766 1.00008 0.0
C2712 C 0.62381 0.57782 0.01827 0.0
C2713 C 0.64031 0.59588 0.98019 0.0
C2714 C 0.61821 0.58523 0.97921 0.0
C2715 C 0.58731 0.56607 0.9974 0.0
C2716 C 0.57854 0.55764 0.01661 0.0
C2717 C 0.60973 0.57625 0.99816 0.0
C2718 C 0.5928 0.55925 0.03651 0.0
C2719 C 0.61518 0.56909 0.0373 0.0
H2720 H 0.72498 0.41867 0.27294 0.0
H2721 H 0.66228 0.37629 0.27765 0.0
H2722 H 0.67918 0.342 0.27136 0.0
H2723 H 0.71242 0.32409 0.26432 0.0
H2724 H 0.77463 0.36781 0.25951 0.0
H2725 H 0.75755 0.40124 0.2665 0.0
C2726 C 0.71505 0.4019 0.27264 0.0
C2727 C 0.69246 0.4 0.27575 0.0
C2728 C 0.72489 0.3824 0.26907 0.0
C2729 C 0.67979 0.37817 0.2755 0.0
C2730 C 0.68944 0.35858 0.2718 0.0
C2731 C 0.72211 0.34096 0.26457 0.0
C2732 C 0.74475 0.34332 0.26094 0.0
C2733 C 0.71204 0.36045 0.26848 0.0
C2734 C 0.75713 0.36534 0.26171 0.0
C2735 C 0.74739 0.38458 0.26586 0.0
H2736 H 0.83946 0.50285 0.52638 0.0
H2737 H 0.85243 0.43624 0.54119 0.0
H2738 H 0.89152 0.44741 0.5358 0.0
H2739 H 0.92166 0.47561 0.52533 0.0
H2740 H 0.90876 0.542 0.50964 0.0
H2741 H 0.87009 0.53167 0.51725 0.0
C2742 C 0.85098 0.49096 0.52868 0.0
C2743 C 0.84325 0.46887 0.53434 0.0
C2744 C 0.87336 0.49744 0.52533 0.0
C2745 C 0.85819 0.45349 0.53724 0.0
C2746 C 0.88046 0.45979 0.53397 0.0
C2747 C 0.91032 0.48776 0.52358 0.0
C2748 C 0.91778 0.50937 0.51668 0.0
C2749 C 0.88816 0.48162 0.52776 0.0
C2750 C 0.90313 0.52509 0.51454 0.0
C2751 C 0.8811 0.51924 0.519 0.0
H2752 H 0.33821 0.18235 0.23169 0.0
H2753 H 0.31363 0.14577 0.28609 0.0
H2754 H 0.28861 0.17288 0.29222 0.0
H2755 H 0.27287 0.20669 0.28206 0.0
H2756 H 0.29858 0.24553 0.22981 0.0
H2757 H 0.32361 0.21801 0.22276 0.0
C2758 C 0.32733 0.18029 0.24483 0.0
C2759 C 0.32801 0.16187 0.25844 0.0
C2760 C 0.31308 0.19644 0.24866 0.0
C2761 C 0.3138 0.15974 0.27549 0.0
C2762 C 0.29935 0.17526 0.27899 0.0
C2763 C 0.28415 0.20925 0.26928 0.0
C2764 C 0.28394 0.2282 0.25656 0.0
C2765 C 0.29881 0.19366 0.26574 0.0
C2766 C 0.29863 0.23129 0.24006 0.0
C2767 C 0.31284 0.21543 0.23595 0.0
H2768 H 0.38193 0.11396 0.53868 0.0
H2769 H 0.35914 0.08817 0.47053 0.0
H2770 H 0.38709 0.06338 0.47129 0.0
H2771 H 0.4169 0.04797 0.49178 0.0
H2772 H 0.43842 0.0724 0.56041 0.0
H2773 H 0.41113 0.09808 0.55938 0.0
C2774 C 0.38288 0.10274 0.52406 0.0
C2775 C 0.36836 0.10276 0.50465 0.0
C2776 C 0.39832 0.08792 0.52489 0.0
C2777 C 0.3703 0.08867 0.48561 0.0
C2778 C 0.38605 0.07426 0.48612 0.0
C2779 C 0.41529 0.05863 0.5066 0.0
C2780 C 0.42926 0.05821 0.52623 0.0
C2781 C 0.39985 0.07348 0.50577 0.0
C2782 C 0.42748 0.07233 0.54523 0.0
C2783 C 0.41209 0.08713 0.54458 0.0
H2784 H 0.73012 0.62896 0.28241 0.0
H2785 H 0.66311 0.64204 0.28234 0.0
H2786 H 0.67581 0.68253 0.27869 0.0
H2787 H 0.70601 0.71443 0.27429 0.0
H2788 H 0.77295 0.70142 0.27354 0.0
H2789 H 0.76048 0.66108 0.27854 0.0
C2790 C 0.71838 0.64075 0.28171 0.0
C2791 C 0.69566 0.63246 0.28268 0.0
C2792 C 0.72584 0.66411 0.27925 0.0
C2793 C 0.68063 0.64795 0.28161 0.0
C2794 C 0.68791 0.67113 0.27949 0.0
C2795 C 0.71782 0.7027 0.27522 0.0
C2796 C 0.74039 0.71086 0.27343 0.0
C2797 C 0.71044 0.67944 0.27806 0.0
C2798 C 0.75552 0.69553 0.27479 0.0
C2799 C 0.74836 0.67245 0.27767 0.0
H2800 H 0.83872 0.43446 0.72475 0.0
H2801 H 0.79255 0.46592 0.76075 0.0
H2802 H 0.77407 0.42858 0.7693 0.0
H2803 H 0.77415 0.38756 0.77035 0.0
H2804 H 0.82102 0.35635 0.73502 0.0
H2805 H 0.83631 0.39304 0.72247 0.0
C2806 C 0.82419 0.43302 0.73386 0.0
C2807 C 0.81697 0.45269 0.74223 0.0
C2808 C 0.81422 0.41166 0.73934 0.0
C2809 C 0.79832 0.45081 0.75425 0.0
C2810 C 0.78792 0.42956 0.7593 0.0
C2811 C 0.78772 0.3889 0.75993 0.0
C2812 C 0.79685 0.36961 0.75398 0.0
C2813 C 0.79632 0.40998 0.75269 0.0
C2814 C 0.81405 0.37122 0.74008 0.0
C2815 C 0.8227 0.39211 0.73279 0.0
H2816 H 0.0299 0.89052 0.09205 0.0
H2817 H 0.97708 0.85208 0.04625 0.0
H2818 H 0.97441 0.88576 0.02569 0.0
H2819 H 0.98475 0.92709 0.02328 0.0
H2820 H 0.03699 0.96512 0.07014 0.0
H2821 H 0.04236 0.93059 0.08773 0.0
C2822 C 0.01816 0.8894 0.07726 0.0
C2823 C 0.0036 0.86905 0.07069 0.0
C2824 C 0.0164 0.90881 0.06597 0.0
C2825 C 0.98826 0.86778 0.05168 0.0
C2826 C 0.98672 0.88698 0.03999 0.0
C2827 C 0.99734 0.92766 0.03726 0.0
C2828 C 0.01019 0.94846 0.04571 0.0
C2829 C 1.00025 0.90775 0.04742 0.0
C2830 C 0.0267 0.9492 0.0636 0.0
C2831 C 0.02984 0.9295 0.07362 0.0
H2832 H 0.89394 0.25406 0.82277 0.0
H2833 H 0.92015 0.31601 0.79438 0.0
H2834 H 0.88361 0.31779 0.77589 0.0
H2835 H 0.84374 0.30279 0.76871 0.0
H2836 H 0.81756 0.23997 0.79538 0.0
H2837 H 0.85444 0.23733 0.81304 0.0
C2838 C 0.89181 0.26778 0.81228 0.0
C2839 C 0.90998 0.28509 0.81043 0.0
C2840 C 0.87063 0.26857 0.80125 0.0
C2841 C 0.90656 0.30275 0.79677 0.0
C2842 C 0.88561 0.30372 0.78596 0.0
C2843 C 0.84614 0.28837 0.77817 0.0
C2844 C 0.82783 0.27161 0.78063 0.0
C2845 C 0.86746 0.28691 0.78828 0.0
C2846 C 0.83132 0.25304 0.79297 0.0
C2847 C 0.85244 0.25158 0.80324 0.0
H2848 H 0.53293 0.17414 0.57017 0.0
H2849 H 0.46441 0.14815 0.57714 0.0
H2850 H 0.46779 0.11212 0.55718 0.0
H2851 H 0.49116 0.08698 0.53986 0.0
H2852 H 0.55994 0.11315 0.53472 0.0
H2853 H 0.55562 0.14985 0.55218 0.0
C2854 C 0.51873 0.16058 0.56752 0.0
C2855 C 0.49855 0.16386 0.57549 0.0
C2856 C 0.52091 0.13975 0.55652 0.0
C2857 C 0.48017 0.14624 0.57116 0.0
C2858 C 0.48212 0.1255 0.5599 0.0
C2859 C 0.50511 0.10073 0.5426 0.0
C2860 C 0.52586 0.09729 0.5362 0.0
C2861 C 0.50254 0.1219 0.55286 0.0
C2862 C 0.54381 0.11534 0.53958 0.0
C2863 C 0.54137 0.13636 0.54957 0.0
H2864 H 0.62112 0.77521 0.29372 0.0
H2865 H 0.65482 0.81464 0.35288 0.0
H2866 H 0.69056 0.81406 0.33809 0.0
H2867 H 0.71293 0.80185 0.30792 0.0
H2868 H 0.6779 0.76167 0.24959 0.0
H2869 H 0.64277 0.76315 0.26439 0.0
C2870 C 0.63623 0.7836 0.30354 0.0
C2871 C 0.6349 0.795 0.32449 0.0
C2872 C 0.65689 0.78318 0.29493 0.0
C2873 C 0.65497 0.80597 0.33659 0.0
C2874 C 0.67559 0.80556 0.32814 0.0
C2875 C 0.69761 0.79356 0.29841 0.0
C2876 C 0.69843 0.78174 0.27745 0.0
C2877 C 0.67687 0.79423 0.30723 0.0
C2878 C 0.67817 0.77095 0.26567 0.0
C2879 C 0.65784 0.77173 0.27415 0.0
H2880 H 0.98593 0.15765 0.46363 0.0
H2881 H 0.05473 0.16078 0.45219 0.0
H2882 H 0.05635 0.12629 0.47131 0.0
H2883 H 0.03875 0.09585 0.49304 0.0
H2884 H 0.97035 0.09312 0.50494 0.0
H2885 H 0.96779 0.12609 0.48321 0.0
C2886 C 1.00122 0.15067 0.46495 0.0
C2887 C 0.02025 0.16224 0.4566 0.0
C2888 C 0.00205 0.1306 0.47593 0.0
C2889 C 0.03991 0.15279 0.45885 0.0
C2890 C 0.04084 0.13284 0.46965 0.0
C2891 C 0.02323 0.10232 0.4905 0.0
C2892 C 0.00467 0.09207 0.50036 0.0
C2893 C 0.0221 0.12172 0.4785 0.0
C2894 C 0.98476 0.10074 0.49735 0.0
C2895 C 0.98335 0.11964 0.48504 0.0
H2896 H 0.61184 0.28625 0.18679 0.0
H2897 H 0.59322 0.30651 0.25124 0.0
H2898 H 0.62783 0.29682 0.26942 0.0
H2899 H 0.66265 0.28113 0.26619 0.0
H2900 H 0.67929 0.2602 0.20094 0.0
H2901 H 0.64523 0.27048 0.18355 0.0
C2902 C 0.61551 0.28864 0.20484 0.0
C2903 C 0.60041 0.29683 0.21786 0.0
C2904 C 0.63446 0.28216 0.21486 0.0
C2905 C 0.60499 0.30024 0.24111 0.0
C2906 C 0.62447 0.29443 0.2514 0.0
C2907 C 0.65831 0.27828 0.24827 0.0
C2908 C 0.67281 0.26959 0.23468 0.0
C2909 C 0.63906 0.28488 0.23839 0.0
C2910 C 0.66786 0.26656 0.21148 0.0
C2911 C 0.64868 0.27269 0.20158 0.0
H2912 H 0.54272 0.90518 0.95118 0.0
H2913 H 0.4862 0.87085 0.9801 0.0
H2914 H 0.48063 0.90681 0.99839 0.0
H2915 H 0.49114 0.94841 0.00546 0.0
H2916 H 0.54898 0.98207 0.97805 0.0
H2917 H 0.55462 0.94621 0.9601 0.0
C2918 C 0.52938 0.90549 0.96173 0.0
C2919 C 0.51475 0.88533 0.964 0.0
C2920 C 0.52636 0.92623 0.97243 0.0
C2921 C 0.49744 0.88617 0.97764 0.0
C2922 C 0.49428 0.90673 0.98822 0.0
C2923 C 0.50498 0.94785 0.99561 0.0
C2924 C 0.51947 0.96798 0.99308 0.0
C2925 C 0.50846 0.92695 0.98554 0.0
C2926 C 0.53748 0.96691 0.98037 0.0
C2927 C 0.54078 0.94634 0.97003 0.0
H2928 H 0.90299 0.816 0.70221 0.0
H2929 H 0.91578 0.75282 0.72785 0.0
H2930 H 0.88463 0.75285 0.75042 0.0
H2931 H 0.85301 0.77053 0.76133 0.0
H2932 H 0.84414 0.83568 0.73789 0.0
H2933 H 0.87621 0.83603 0.71709 0.0
C2934 C 0.89984 0.80263 0.71339 0.0
C2935 C 0.91198 0.78462 0.71349 0.0
C2936 C 0.88295 0.80334 0.72697 0.0
C2937 C 0.90654 0.76683 0.72724 0.0
C2938 C 0.88894 0.76695 0.74033 0.0
C2939 C 0.85852 0.785 0.75209 0.0
C2940 C 0.84634 0.80296 0.75081 0.0
C2941 C 0.87696 0.7851 0.74015 0.0
C2942 C 0.85338 0.82169 0.73895 0.0
C2943 C 0.87154 0.82182 0.72694 0.0
H2944 H 0.03914 0.01777 0.87312 0.0
H2945 H 0.087 0.98004 0.90326 0.0
H2946 H 0.06916 0.98012 0.93767 0.0
H2947 H 0.04202 0.99352 0.96025 0.0
H2948 H 0.99625 0.03429 0.9318 0.0
H2949 H 0.01097 0.03021 0.89556 0.0
C2950 C 0.0456 0.00951 0.88721 0.0
C2951 C 0.06437 0.99887 0.88557 0.0
C2952 C 0.03557 0.01009 0.9072 0.0
C2953 C 0.07239 0.98802 0.9039 0.0
C2954 C 0.06229 0.9882 0.92367 0.0
C2955 C 0.03493 1.00105 0.94595 0.0
C2956 C 0.01793 0.01391 0.94845 0.0
C2957 C 0.04409 0.99943 0.9256 0.0
C2958 C 0.00927 0.02417 0.93007 0.0
C2959 C 0.01776 0.02194 0.90946 0.0
H2960 H 0.75151 0.30831 0.62299 0.0
H2961 H 0.73364 0.3679 0.65584 0.0
H2962 H 0.74023 0.35276 0.69232 0.0
H2963 H 0.75043 0.32198 0.71501 0.0
H2964 H 0.76769 0.26207 0.68184 0.0
H2965 H 0.76202 0.27774 0.64569 0.0
C2966 C 0.74904 0.3179 0.63817 0.0
C2967 C 0.74195 0.33914 0.6367 0.0
C2968 C 0.75275 0.30897 0.65913 0.0
C2969 C 0.7389 0.35145 0.65652 0.0
C2970 C 0.74272 0.3428 0.67739 0.0
C2971 C 0.75305 0.3124 0.69987 0.0
C2972 C 0.7595 0.29077 0.70127 0.0
C2973 C 0.74957 0.3215 0.67895 0.0
C2974 C 0.76281 0.2787 0.6814 0.0
C2975 C 0.7595 0.28765 0.66064 0.0
H2976 H 0.44748 0.07134 0.38369 0.0
H2977 H 0.49135 0.03222 0.35257 0.0
H2978 H 0.50929 0.02673 0.38933 0.0
H2979 H 0.51227 0.03261 0.431 0.0
H2980 H 0.46753 0.07149 0.46118 0.0
H2981 H 0.4507 0.0776 0.42449 0.0
C2982 C 0.46116 0.06186 0.38482 0.0
C2983 C 0.46794 0.05234 0.36508 0.0
C2984 C 0.47144 0.05869 0.40611 0.0
C2985 C 0.48547 0.03965 0.36727 0.0
C2986 C 0.49588 0.03658 0.38839 0.0
C2987 C 0.49906 0.04268 0.42954 0.0
C2988 C 0.49143 0.05169 0.44914 0.0
C2989 C 0.48901 0.04599 0.40804 0.0
C2990 C 0.47394 0.06434 0.44666 0.0
C2991 C 0.46418 0.06785 0.42555 0.0
H2992 H 0.79879 0.75753 0.11562 0.0
H2993 H 0.73073 0.7468 0.08645 0.0
H2994 H 0.71944 0.76372 0.12054 0.0
H2995 H 0.72812 0.77281 0.16108 0.0
H2996 H 0.79617 0.78258 0.18967 0.0
H2997 H 0.80858 0.77558 0.15312 0.0
C2998 C 0.78167 0.75982 0.11635 0.0
C2999 C 0.76545 0.75033 0.09911 0.0
C3000 C 0.77532 0.76913 0.13597 0.0
C3001 C 0.74332 0.75342 0.10008 0.0
C3002 C 0.73686 0.76307 0.11947 0.0
C3003 C 0.74564 0.77419 0.15897 0.0
C3004 C 0.76128 0.77723 0.17759 0.0
C3005 C 0.75253 0.76963 0.13798 0.0
C3006 C 0.78399 0.77934 0.17521 0.0
C3007 C 0.79106 0.77545 0.15442 0.0
H3008 H 0.04258 0.03099 0.6878 0.0
H3009 H 0.06754 0.97126 0.66373 0.0
H3010 H 0.05173 0.97524 0.6259 0.0
H3011 H 0.03534 0.99842 0.59921 0.0
H3012 H 0.01159 0.05906 0.62248 0.0
H3013 H 0.02266 0.05218 0.66125 0.0
C3014 C 0.04438 0.01876 0.67427 0.0
C3015 C 0.0565 1.00109 0.67846 0.0
C3016 C 0.03584 0.02154 0.65248 0.0
C3017 C 0.05824 0.98498 0.66096 0.0
C3018 C 0.04942 0.98738 0.63928 0.0
C3019 C 0.03245 0.01003 0.61281 0.0
C3020 C 0.0231 0.0294 0.60823 0.0
C3021 C 0.03893 0.00604 0.6348 0.0
C3022 C 0.01898 0.04414 0.62581 0.0
C3023 C 0.02531 0.04022 0.64788 0.0
H3024 H 0.71698 0.3451 0.39183 0.0
H3025 H 0.7657 0.31351 0.42904 0.0
H3026 H 0.77555 0.2963 0.39442 0.0
H3027 H 0.77129 0.29081 0.35287 0.0
H3028 H 0.72061 0.32001 0.31613 0.0
H3029 H 0.71075 0.3373 0.35084 0.0
C3030 C 0.72956 0.33424 0.3925 0.0
C3031 C 0.74079 0.33117 0.41334 0.0
C3032 C 0.73502 0.32397 0.37234 0.0
C3033 C 0.75711 0.31693 0.41344 0.0
C3034 C 0.76273 0.30688 0.39354 0.0
C3035 C 0.75809 0.30094 0.35253 0.0
C3036 C 0.74677 0.30415 0.33185 0.0
C3037 C 0.75205 0.31049 0.3728 0.0
C3038 C 0.72953 0.31714 0.33178 0.0
C3039 C 0.72388 0.3271 0.35167 0.0
H3040 H 0.49104 0.05029 0.1548 0.0
H3041 H 0.42434 0.03773 0.12223 0.0
H3042 H 0.43825 0.02954 0.08625 0.0
H3043 H 0.46978 0.02664 0.06377 0.0
H3044 H 0.53608 0.03584 0.09734 0.0
H3045 H 0.5221 0.0446 0.1329 0.0
C3046 C 0.47961 0.04582 0.13978 0.0
C3047 C 0.45672 0.04489 0.14113 0.0
C3048 C 0.4877 0.04043 0.11925 0.0
C3049 C 0.44204 0.03867 0.1216 0.0
C3050 C 0.45 0.03397 0.10102 0.0
C3051 C 0.48109 0.03024 0.07892 0.0
C3052 C 0.50397 0.03044 0.07779 0.0
C3053 C 0.47283 0.03482 0.09959 0.0
C3054 C 0.51839 0.0353 0.09764 0.0
C3055 C 0.51042 0.04047 0.11804 0.0
H3056 H 0.79147 0.76862 0.91254 0.0
H3057 H 0.77229 0.69841 0.88724 0.0
H3058 H 0.76645 0.70971 0.84924 0.0
H3059 H 0.76459 0.73946 0.82388 0.0
H3060 H 0.78547 0.8098 0.84762 0.0
H3061 H 0.79306 0.79879 0.88591 0.0
C3062 C 0.78638 0.75597 0.89853 0.0
C3063 C 0.78227 0.73285 0.90221 0.0
C3064 C 0.78317 0.76262 0.87679 0.0
C3065 C 0.77561 0.71631 0.88435 0.0
C3066 C 0.77217 0.72273 0.86279 0.0
C3067 C 0.77078 0.7523 0.83755 0.0
C3068 C 0.77403 0.77526 0.83356 0.0
C3069 C 0.77547 0.7458 0.85895 0.0
C3070 C 0.78259 0.79199 0.85083 0.0
C3071 C 0.78694 0.7857 0.87252 0.0
H3072 H 0.87699 0.06577 0.01125 0.0
H3073 H 0.91657 0.12762 0.99502 0.0
H3074 H 0.9492 0.10881 0.99522 0.0
H3075 H 0.967 0.07479 1.00072 0.0
H3076 H 0.92681 0.01206 0.01368 0.0
H3077 H 0.89427 0.03105 0.0143 0.0
C3078 C 0.89276 0.07513 0.0078 0.0
C3079 C 0.89423 0.09822 0.00325 0.0
C3080 C 0.9115 0.06399 0.00744 0.0
C3081 C 0.91483 0.10989 0.99849 0.0
C3082 C 0.93358 0.09914 0.99868 0.0
C3083 C 0.95108 0.06527 0.00354 0.0
C3084 C 0.94942 0.04199 0.00717 0.0
C3085 C 0.93219 0.07621 0.00322 0.0
C3086 C 0.9286 0.02991 0.0107 0.0
C3087 C 0.90995 0.04082 0.01113 0.0
H3088 H 0.36725 0.46119 0.99716 0.0
H3089 H 0.36786 0.48023 0.06753 0.0
H3090 H 0.40579 0.50033 0.06854 0.0
H3091 H 0.43906 0.51247 0.04953 0.0
H3092 H 0.4374 0.4948 0.97874 0.0
H3093 H 0.39955 0.47482 0.97788 0.0
C3094 C 0.37543 0.47002 0.0127 0.0
C3095 C 0.36448 0.46895 0.03225 0.0
C3096 C 0.39718 0.48196 0.01313 0.0
C3097 C 0.37582 0.48024 0.05225 0.0
C3098 C 0.39754 0.49196 0.05283 0.0
C3099 C 0.43042 0.50436 0.03386 0.0
C3100 C 0.44128 0.50526 0.01424 0.0
C3101 C 0.40844 0.49287 0.03339 0.0
C3102 C 0.42964 0.49457 0.99415 0.0
C3103 C 0.40792 0.48303 0.99361 0.0
H3104 H 0.34482 0.68871 0.75121 0.0
H3105 H 0.29649 0.63482 0.77024 0.0
H3106 H 0.27125 0.66175 0.77702 0.0
H3107 H 0.26211 0.70012 0.77613 0.0
H3108 H 0.31044 0.75508 0.75923 0.0
H3109 H 0.33649 0.72858 0.75317 0.0
C3110 C 0.32875 0.68301 0.75686 0.0
C3111 C 0.32232 0.65977 0.75999 0.0
C3112 C 0.31436 0.6988 0.7611 0.0
C3113 C 0.30163 0.65256 0.76756 0.0
C3114 C 0.28723 0.66796 0.77146 0.0
C3115 C 0.27845 0.70635 0.77135 0.0
C3116 C 0.28427 0.72953 0.76807 0.0
C3117 C 0.2933 0.69104 0.76811 0.0
C3118 C 0.30555 0.73737 0.762 0.0
C3119 C 0.3204 0.72213 0.75838 0.0
H3120 H 0.16491 0.6041 0.48175 0.0
H3121 H 0.19302 0.56251 0.52879 0.0
H3122 H 0.1558 0.54397 0.53505 0.0
H3123 H 0.11512 0.542 0.52946 0.0
H3124 H 0.08741 0.5848 0.48327 0.0
H3125 H 0.12443 0.60051 0.47446 0.0
C3126 C 0.16282 0.59067 0.49304 0.0
C3127 C 0.18155 0.58466 0.50484 0.0
C3128 C 0.14142 0.5806 0.49701 0.0
C3129 C 0.17874 0.56744 0.51963 0.0
C3130 C 0.1575 0.55693 0.52327 0.0
C3131 C 0.11727 0.55471 0.51744 0.0
C3132 C 0.09864 0.56243 0.50723 0.0
C3133 C 0.13869 0.5638 0.5125 0.0
C3134 C 0.10154 0.57874 0.49151 0.0
C3135 C 0.12271 0.5877 0.4864 0.0
H3136 H 0.67481 0.87862 0.76006 0.0
H3137 H 0.71888 0.92502 0.80825 0.0
H3138 H 0.74539 0.89849 0.80984 0.0
H3139 H 0.75685 0.8624 0.7968 0.0
H3140 H 0.71174 0.81434 0.75122 0.0
H3141 H 0.68509 0.84093 0.74926 0.0
C3142 C 0.69023 0.8829 0.77089 0.0
C3143 C 0.69481 0.90398 0.78392 0.0
C3144 C 0.70529 0.86716 0.7722 0.0
C3145 C 0.7148 0.90901 0.79808 0.0
C3146 C 0.73005 0.89382 0.79896 0.0
C3147 C 0.74105 0.85764 0.78667 0.0
C3148 C 0.73629 0.8363 0.77427 0.0
C3149 C 0.72556 0.87288 0.78605 0.0
C3150 C 0.71574 0.83044 0.7612 0.0
C3151 C 0.70054 0.84578 0.75995 0.0
H3152 H 0.65431 0.97162 0.49019 0.0
H3153 H 0.63553 0.94043 0.54968 0.0
H3154 H 0.6022 0.95803 0.54818 0.0
H3155 H 0.57959 0.98335 0.531 0.0
H3156 H 0.59873 0.01642 0.47266 0.0
H3157 H 0.63082 0.99654 0.47228 0.0
C3158 C 0.64271 0.96849 0.5026 0.0
C3159 C 0.64724 0.95494 0.52006 0.0
C3160 C 0.62384 0.9789 0.5018 0.0
C3161 C 0.63237 0.95108 0.53625 0.0
C3162 C 0.61335 0.96103 0.53536 0.0
C3163 C 0.59072 0.98609 0.5181 0.0
C3164 C 0.58709 1.00122 0.50189 0.0
C3165 C 0.60913 0.97516 0.51839 0.0
C3166 C 0.60153 0.00487 0.48535 0.0
C3167 C 0.61974 0.99353 0.48515 0.0
H3168 H 0.30178 0.42718 0.7256 0.0
H3169 H 0.34536 0.4348 0.78691 0.0
H3170 H 0.33049 0.39624 0.79501 0.0
H3171 H 0.30473 0.35987 0.78508 0.0
H3172 H 0.26235 0.35163 0.72302 0.0
H3173 H 0.27689 0.39041 0.71507 0.0
C3174 C 0.30814 0.42041 0.74068 0.0
C3175 C 0.32451 0.43434 0.75576 0.0
C3176 C 0.29952 0.39791 0.7453 0.0
C3177 C 0.33242 0.42494 0.77519 0.0
C3178 C 0.32397 0.40272 0.77983 0.0
C3179 C 0.2985 0.36665 0.76994 0.0
C3180 C 0.2822 0.35275 0.75484 0.0
C3181 C 0.30733 0.38905 0.76517 0.0
C3182 C 0.27478 0.36181 0.73505 0.0
C3183 C 0.28316 0.38408 0.73043 0.0
H3184 H 0.21914 0.6114 0.26831 0.0
H3185 H 0.1736 0.63389 0.31179 0.0
H3186 H 0.18916 0.6736 0.30795 0.0
H3187 H 0.21362 0.70156 0.28985 0.0
H3188 H 0.25862 0.67931 0.24554 0.0
H3189 H 0.24549 0.63961 0.25217 0.0
C3190 C 0.2129 0.62507 0.27712 0.0
C3191 C 0.19531 0.61996 0.29021 0.0
C3192 C 0.22165 0.64772 0.27452 0.0
C3193 C 0.18731 0.63759 0.30178 0.0
C3194 C 0.19605 0.66022 0.29943 0.0
C3195 C 0.22058 0.68799 0.28169 0.0
C3196 C 0.23676 0.69309 0.26698 0.0
C3197 C 0.21286 0.66542 0.28545 0.0
C3198 C 0.24584 0.67556 0.25663 0.0
C3199 C 0.23843 0.65297 0.26049 0.0
H3200 H 0.48717 0.68544 0.45824 0.0
H3201 H 0.55794 0.69846 0.45403 0.0
H3202 H 0.56248 0.66542 0.47405 0.0
H3203 H 0.54643 0.63126 0.49035 0.0
H3204 H 0.47553 0.61477 0.49042 0.0
H3205 H 0.47088 0.65062 0.47443 0.0
C3206 C 0.50354 0.68099 0.46163 0.0
C3207 C 0.52217 0.69469 0.45494 0.0
C3208 C 0.50603 0.66131 0.47239 0.0
C3209 C 0.54333 0.68869 0.45957 0.0
C3210 C 0.54599 0.66963 0.47084 0.0
C3211 C 0.53004 0.63578 0.48714 0.0
C3212 C 0.51138 0.6208 0.49146 0.0
C3213 C 0.52748 0.65573 0.47711 0.0
C3214 C 0.4901 0.62633 0.48704 0.0
C3215 C 0.48745 0.6467 0.47789 0.0
H3216 H 0.62993 0.29464 0.69432 0.0
H3217 H 0.59931 0.27472 0.75293 0.0
H3218 H 0.63593 0.27603 0.77358 0.0
H3219 H 0.67696 0.28088 0.7743 0.0
H3220 H 0.70742 0.30256 0.71608 0.0
H3221 H 0.67093 0.30222 0.69588 0.0
C3222 C 0.63138 0.29069 0.71164 0.0
C3223 C 0.61204 0.28435 0.7221 0.0
C3224 C 0.65253 0.29163 0.72341 0.0
C3225 C 0.61403 0.27941 0.74455 0.0
C3226 C 0.63495 0.28016 0.75633 0.0
C3227 C 0.67551 0.28585 0.75732 0.0
C3228 C 0.69481 0.29198 0.74676 0.0
C3229 C 0.65436 0.28596 0.74588 0.0
C3230 C 0.69278 0.2982 0.72468 0.0
C3231 C 0.6719 0.29786 0.71306 0.0
H3232 H 0.03285 0.42075 0.94222 0.0
H3233 H 0.00395 0.37567 0.98842 0.0
H3234 H 0.99503 0.4081 0.01087 0.0
H3235 H 0.9931 0.44929 0.01569 0.0
H3236 H 0.02166 0.49363 0.96853 0.0
H3237 H 0.03273 0.46165 0.94804 0.0
C3238 C 0.02499 0.41814 0.95745 0.0
C3239 C 0.01911 0.39601 0.96377 0.0
C3240 C 0.01945 0.43673 0.96987 0.0
C3241 C 0.00858 0.39268 0.9833 0.0
C3242 C 0.0034 0.41117 0.99604 0.0
C3243 C 1.0018 0.45183 1.00098 0.0
C3244 C 0.00649 0.47373 0.99362 0.0
C3245 C 0.00829 0.43325 0.9892 0.0
C3246 C 0.01791 0.47694 0.97461 0.0
C3247 C 0.02428 0.45865 0.96283 0.0
H3248 H 0.90202 0.77407 0.24429 0.0
H3249 H 0.87028 0.77434 0.17765 0.0
H3250 H 0.83429 0.77382 0.19225 0.0
H3251 H 0.81149 0.77424 0.22452 0.0
H3252 H 0.84408 0.77594 0.29111 0.0
H3253 H 0.87953 0.77499 0.27626 0.0
C3254 C 0.88719 0.77396 0.23299 0.0
C3255 C 0.88891 0.7742 0.20985 0.0
C3256 C 0.86648 0.77417 0.24161 0.0
C3257 C 0.8695 0.77428 0.19551 0.0
C3258 C 0.84884 0.77396 0.20389 0.0
C3259 C 0.82632 0.77427 0.23569 0.0
C3260 C 0.82484 0.77499 0.25894 0.0
C3261 C 0.84705 0.77404 0.22697 0.0
C3262 C 0.84445 0.77521 0.27317 0.0
C3263 C 0.86488 0.77471 0.26468 0.0
H3264 H 0.48801 0.41863 0.08245 0.0
H3265 H 0.54027 0.39056 0.0529 0.0
H3266 H 0.54615 0.42263 0.03003 0.0
H3267 H 0.53517 0.45788 0.0165 0.0
H3268 H 0.48417 0.48672 0.0471 0.0
H3269 H 0.47868 0.45511 0.07068 0.0
C3270 C 0.50059 0.41938 0.07091 0.0
C3271 C 0.51353 0.40189 0.06947 0.0
C3272 C 0.50395 0.43802 0.05762 0.0
C3273 C 0.5301 0.40368 0.05468 0.0
C3274 C 0.5334 0.42201 0.04137 0.0
C3275 C 0.52296 0.45724 0.02844 0.0
C3276 C 0.51004 0.47463 0.0299 0.0
C3277 C 0.52025 0.43915 0.04244 0.0
C3278 C 0.49445 0.47374 0.04564 0.0
C3279 C 0.49124 0.45553 0.05914 0.0
H3280 H 0.92762 0.29405 0.29509 0.0
H3281 H 0.90154 0.23569 0.32914 0.0
H3282 H 0.86404 0.24146 0.3181 0.0
H3283 H 0.83942 0.26651 0.30501 0.0
H3284 H 0.86396 0.32586 0.27191 0.0
H3285 H 0.90179 0.317 0.2775 0.0
C3286 C 0.91368 0.28243 0.29978 0.0
C3287 C 0.91737 0.26484 0.31336 0.0
C3288 C 0.89213 0.28661 0.2945 0.0
C3289 C 0.89924 0.24937 0.31868 0.0
C3290 C 0.87776 0.25289 0.31276 0.0
C3291 C 0.85303 0.27759 0.29905 0.0
C3292 C 0.84932 0.29716 0.28877 0.0
C3293 C 0.87419 0.27212 0.30183 0.0
C3294 C 0.86682 0.31101 0.28044 0.0
C3295 C 0.88825 0.30581 0.28341 0.0
H3296 H 0.02341 0.68369 0.55504 0.0
H3297 H 0.96603 0.66146 0.58916 0.0
H3298 H 0.96404 0.62266 0.57266 0.0
H3299 H 0.97897 0.595 0.54905 0.0
H3300 H 0.03734 0.6168 0.51625 0.0
H3301 H 0.0386 0.65592 0.53177 0.0
C3302 C 0.01054 0.67032 0.55895 0.0
C3303 C 0.99483 0.67548 0.5732 0.0
C3304 C 0.00961 0.64805 0.54957 0.0
C3305 C 0.97811 0.65802 0.57795 0.0
C3306 C 0.97703 0.63581 0.56862 0.0
C3307 C 0.99179 0.60837 0.54505 0.0
C3308 C 0.00789 0.60315 0.5313 0.0
C3309 C 0.99266 0.63066 0.55436 0.0
C3310 C 0.02472 0.6205 0.52671 0.0
C3311 C 0.02547 0.64281 0.53561 0.0
H3312 H 0.62935 0.80204 0.83906 0.0
H3313 H 0.58191 0.77554 0.78281 0.0
H3314 H 0.61198 0.76743 0.76094 0.0
H3315 H 0.65124 0.76229 0.76061 0.0
H3316 H 0.69646 0.78322 0.82011 0.0
H3317 H 0.6679 0.79893 0.83818 0.0
C3318 C 0.62576 0.79532 0.82172 0.0
C3319 C 0.60382 0.78955 0.8123 0.0
C3320 C 0.64268 0.78897 0.81022 0.0
C3321 C 0.59896 0.78029 0.79008 0.0
C3322 C 0.61604 0.77535 0.7778 0.0
C3323 C 0.65459 0.77025 0.77753 0.0
C3324 C 0.67541 0.7711 0.78936 0.0
C3325 C 0.63784 0.77856 0.78815 0.0
C3326 C 0.68012 0.78175 0.81107 0.0
C3327 C 0.66397 0.79101 0.8213 0.0
H3328 H 0.45572 0.58317 0.63585 0.0
H3329 H 0.4731 0.52328 0.66469 0.0
H3330 H 0.49362 0.51549 0.63307 0.0
H3331 H 0.5028 0.52326 0.59515 0.0
H3332 H 0.48647 0.58396 0.56714 0.0
H3333 H 0.46963 0.59399 0.60061 0.0
C3334 C 0.46441 0.56871 0.63549 0.0
C3335 C 0.46241 0.55351 0.6523 0.0
C3336 C 0.47618 0.56433 0.61728 0.0
C3337 C 0.47383 0.53486 0.65158 0.0
C3338 C 0.48563 0.53043 0.63356 0.0
C3339 C 0.49587 0.53885 0.59659 0.0
C3340 C 0.49565 0.55269 0.57867 0.0
C3341 C 0.48626 0.5446 0.61595 0.0
C3342 C 0.48688 0.57301 0.58077 0.0
C3343 C 0.47712 0.57873 0.59985 0.0
H3344 H 0.79509 0.26061 0.90324 0.0
H3345 H 0.75548 0.1958 0.88018 0.0
H3346 H 0.74607 0.21009 0.84392 0.0
H3347 H 0.74869 0.24149 0.8185 0.0
H3348 H 0.78552 0.30727 0.84302 0.0
H3349 H 0.7964 0.29234 0.87848 0.0
C3350 C 0.7845 0.24961 0.89021 0.0
C3351 C 0.77617 0.22706 0.89445 0.0
C3352 C 0.77851 0.25825 0.86954 0.0
C3353 C 0.76218 0.21317 0.87742 0.0
C3354 C 0.75676 0.22138 0.85664 0.0
C3355 C 0.75893 0.25258 0.83171 0.0
C3356 C 0.76604 0.27561 0.82809 0.0
C3357 C 0.7647 0.24396 0.85248 0.0
C3358 C 0.77946 0.28963 0.84539 0.0
C3359 C 0.78582 0.28104 0.8657 0.0
H3360 H 0.02923 0.51258 0.1655 0.0
H3361 H 0.09713 0.51175 0.15332 0.0
H3362 H 0.08772 0.51531 0.11351 0.0
H3363 H 0.06037 0.51919 0.08199 0.0
H3364 H 0.99243 0.52103 0.09401 0.0
H3365 H 1.0016 0.51668 0.1336 0.0
C3366 C 0.04188 0.51311 0.15405 0.0
C3367 C 0.06388 0.5118 0.16235 0.0
C3368 C 0.03634 0.51542 0.13103 0.0
C3369 C 0.08012 0.5127 0.14734 0.0
C3370 C 0.07473 0.51474 0.12456 0.0
C3371 C 0.04749 0.51855 0.09319 0.0
C3372 C 0.02566 0.52037 0.0847 0.0
C3373 C 0.05292 0.51618 0.11616 0.0
C3374 C 0.00936 0.51959 0.09978 0.0
C3375 C 0.0146 0.51712 0.12257 0.0
H3376 H 0.7599 0.84675 0.4215 0.0
H3377 H 0.70076 0.79663 0.41894 0.0
H3378 H 0.70841 0.78041 0.38242 0.0
H3379 H 0.73327 0.77982 0.35287 0.0
H3380 H 0.79316 0.82949 0.35704 0.0
H3381 H 0.78431 0.84642 0.39228 0.0
C3382 C 0.74867 0.83232 0.41278 0.0
C3383 C 0.73001 0.82255 0.42246 0.0
C3384 C 0.75362 0.82287 0.39272 0.0
C3385 C 0.71522 0.80417 0.41138 0.0
C3386 C 0.71972 0.79488 0.39082 0.0
C3387 C 0.74447 0.79415 0.36172 0.0
C3388 C 0.76389 0.80339 0.35286 0.0
C3389 C 0.73915 0.80384 0.38166 0.0
C3390 C 0.77824 0.82211 0.36397 0.0
C3391 C 0.77311 0.83186 0.38387 0.0
H3392 H 0.45602 0.58167 0.86644 0.0
H3393 H 0.4889 0.5337 0.83142 0.0
H3394 H 0.50675 0.52442 0.86689 0.0
H3395 H 0.5087 0.52631 0.90809 0.0
H3396 H 0.47406 0.57338 0.94232 0.0
H3397 H 0.46133 0.58677 0.907 0.0
C3398 C 0.46764 0.56972 0.86655 0.0
C3399 C 0.47106 0.55823 0.84653 0.0
C3400 C 0.47716 0.56397 0.88689 0.0
C3401 C 0.48592 0.54256 0.84681 0.0
C3402 C 0.49601 0.53718 0.86703 0.0
C3403 C 0.49858 0.53965 0.9077 0.0
C3404 C 0.49192 0.54853 0.92756 0.0
C3405 C 0.49102 0.54711 0.88723 0.0
C3406 C 0.47901 0.56597 0.92708 0.0
C3407 C 0.47179 0.57374 0.90693 0.0
H3408 H 0.75824 0.23847 0.11857 0.0
H3409 H 0.8249 0.22656 0.13672 0.0
H3410 H 0.82369 0.2429 0.17457 0.0
H3411 H 0.80329 0.25954 0.20358 0.0
H3412 H 0.7362 0.27005 0.18535 0.0
H3413 H 0.73808 0.2552 0.14717 0.0
C3414 C 0.77252 0.23921 0.13073 0.0
C3415 C 0.79168 0.23113 0.12425 0.0
C3416 C 0.77167 0.24845 0.15285 0.0
C3417 C 0.80999 0.23285 0.14063 0.0
C3418 C 0.80928 0.2421 0.16254 0.0
C3419 C 0.78914 0.2588 0.19123 0.0
C3420 C 0.76963 0.2661 0.19768 0.0
C3421 C 0.79019 0.2499 0.16897 0.0
C3422 C 0.75148 0.26467 0.18121 0.0
C3423 C 0.7525 0.25609 0.1592 0.0
H3424 H 0.03156 0.5238 0.37498 0.0
H3425 H 0.09255 0.51178 0.40995 0.0
H3426 H 0.07836 0.5195 0.44587 0.0
H3427 H 0.04789 0.5284 0.46737 0.0
H3428 H 0.98715 0.54079 0.43197 0.0
H3429 H 1.00173 0.53381 0.39635 0.0
C3430 C 0.04172 0.52289 0.39048 0.0
C3431 C 0.06299 0.51701 0.3898 0.0
C3432 C 0.03342 0.52727 0.41104 0.0
C3433 C 0.07597 0.51586 0.41003 0.0
C3434 C 0.06791 0.52039 0.43057 0.0
C3435 C 0.038 0.52991 0.45187 0.0
C3436 C 0.01652 0.53535 0.45241 0.0
C3437 C 0.04656 0.52595 0.4313 0.0
C3438 C 0.00382 0.53692 0.43212 0.0
C3439 C 0.01211 0.53282 0.41168 0.0
H3440 H 0.7179 0.82971 0.63624 0.0
H3441 H 0.77909 0.81091 0.61716 0.0
H3442 H 0.78331 0.79116 0.65102 0.0
H3443 H 0.7716 0.78275 0.68759 0.0
H3444 H 0.71005 0.80072 0.70636 0.0
H3445 H 0.70361 0.81676 0.67059 0.0
C3446 C 0.73186 0.8208 0.63919 0.0
C3447 C 0.74841 0.82213 0.62452 0.0
C3448 C 0.73413 0.80941 0.65857 0.0
C3449 C 0.76646 0.81061 0.62859 0.0
C3450 C 0.76883 0.79923 0.64784 0.0
C3451 C 0.75663 0.78987 0.68366 0.0
C3452 C 0.74144 0.79078 0.69948 0.0
C3453 C 0.75312 0.79913 0.66323 0.0
C3454 C 0.72194 0.79977 0.69427 0.0
C3455 C 0.71832 0.80909 0.67393 0.0
H3456 H 0.60431 0.45019 0.51352 0.0
H3457 H 0.65663 0.50406 0.54173 0.0
H3458 H 0.63036 0.53085 0.54201 0.0
H3459 H 0.59248 0.53943 0.53342 0.0
H3460 H 0.53967 0.48522 0.50735 0.0
H3461 H 0.56586 0.45832 0.50708 0.0
C3462 C 0.60994 0.46781 0.51968 0.0
C3463 C 0.63253 0.47506 0.52747 0.0
C3464 C 0.59456 0.48314 0.52021 0.0
C3465 C 0.63941 0.49793 0.5357 0.0
C3466 C 0.62437 0.51332 0.53581 0.0
C3467 C 0.5867 0.52168 0.52783 0.0
C3468 C 0.56405 0.51438 0.52051 0.0
C3469 C 0.60191 0.50618 0.52803 0.0
C3470 C 0.55686 0.4913 0.51338 0.0
C3471 C 0.57193 0.4759 0.51306 0.0
H3472 H 0.15779 0.08519 0.53204 0.0
H3473 H 0.14419 0.10924 0.467 0.0
H3474 H 0.10552 0.09137 0.46557 0.0
H3475 H 0.07496 0.07034 0.48338 0.0
H3476 H 0.08787 0.04859 0.54943 0.0
H3477 H 0.12721 0.06439 0.54995 0.0
C3478 C 0.14639 0.08672 0.51759 0.0
C3479 C 0.15415 0.09861 0.49965 0.0
C3480 C 0.12391 0.07687 0.51708 0.0
C3481 C 0.139 0.09992 0.48093 0.0
C3482 C 0.11674 0.08985 0.48016 0.0
C3483 C 0.08641 0.06892 0.49783 0.0
C3484 C 0.07846 0.05828 0.51635 0.0
C3485 C 0.10896 0.07844 0.4982 0.0
C3486 C 0.0935 0.05683 0.53503 0.0
C3487 C 0.11602 0.06582 0.53531 0.0
H3488 H 0.21534 0.91387 0.75449 0.0
H3489 H 0.17246 0.88007 0.79913 0.0
H3490 H 0.19075 0.84655 0.79563 0.0
H3491 H 0.22075 0.82744 0.7811 0.0
H3492 H 0.2635 0.86289 0.73733 0.0
H3493 H 0.243 0.89459 0.73866 0.0
C3494 C 0.20962 0.89908 0.76319 0.0
C3495 C 0.19244 0.89971 0.77705 0.0
C3496 C 0.22015 0.87988 0.76106 0.0
C3497 C 0.1858 0.88037 0.78856 0.0
C3498 C 0.19618 0.86104 0.78642 0.0
C3499 C 0.2251 0.84186 0.7714 0.0
C3500 C 0.24345 0.84267 0.75879 0.0
C3501 C 0.21356 0.86063 0.77283 0.0
C3502 C 0.24932 0.86175 0.7469 0.0
C3503 C 0.23771 0.88 0.74779 0.0
H3504 H 0.34145 1.00302 0.0323 0.0
H3505 H 0.34968 0.93272 0.03251 0.0
H3506 H 0.38914 0.94311 0.02805 0.0
H3507 H 0.42096 0.97209 0.02255 0.0
H3508 H 0.41268 0.04234 0.02138 0.0
H3509 H 0.37383 0.03233 0.02841 0.0
C3510 C 0.35206 0.99013 0.03168 0.0
C3511 C 0.34295 0.96723 0.03292 0.0
C3512 C 0.37468 0.99624 0.02901 0.0
C3513 C 0.3566 0.9505 0.03195 0.0
C3514 C 0.37907 0.95641 0.02926 0.0
C3515 C 0.4106 0.98515 0.02392 0.0
C3516 C 0.41941 0.00782 0.02123 0.0
C3517 C 0.38824 0.97919 0.02756 0.0
C3518 C 0.406 0.02469 0.02304 0.0
C3519 C 0.38385 0.019 0.02712 0.0
H3520 H 0.80557 0.64903 0.76562 0.0
H3521 H 0.85719 0.68913 0.73479 0.0
H3522 H 0.83695 0.72152 0.73577 0.0
H3523 H 0.80346 0.73846 0.74485 0.0
H3524 H 0.75144 0.69618 0.77363 0.0
H3525 H 0.77253 0.66516 0.77377 0.0
C3526 C 0.8124 0.66488 0.75915 0.0
C3527 C 0.83295 0.66661 0.75024 0.0
C3528 C 0.80041 0.68327 0.75931 0.0
C3529 C 0.84138 0.68726 0.74168 0.0
C3530 C 0.82979 0.70584 0.74229 0.0
C3531 C 0.79691 0.72257 0.75137 0.0
C3532 C 0.77578 0.71996 0.75939 0.0
C3533 C 0.80915 0.70413 0.75103 0.0
C3534 C 0.76754 0.69892 0.76735 0.0
C3535 C 0.77964 0.68099 0.76747 0.0
H3536 H 0.89005 0.62467 0.00698 0.0
H3537 H 0.84091 0.56622 0.01362 0.0
H3538 H 0.86997 0.54261 0.0191 0.0
H3539 H 0.90948 0.53893 0.02158 0.0
H3540 H 0.95832 0.59819 0.01579 0.0
H3541 H 0.92937 0.62138 0.01071 0.0
C3542 C 0.88589 0.60669 0.00941 0.0
C3543 C 0.86378 0.59677 0.00955 0.0
C3544 C 0.90255 0.59357 0.01292 0.0
C3545 C 0.85811 0.57376 0.01317 0.0
C3546 C 0.87461 0.56043 0.01642 0.0
C3547 C 0.91364 0.55694 0.01942 0.0
C3548 C 0.93573 0.56689 0.0189 0.0
C3549 C 0.89691 0.57017 0.01635 0.0
C3550 C 0.94123 0.59021 0.01607 0.0
C3551 C 0.92475 0.60348 0.01311 0.0
H3552 H 0.18053 0.14045 0.76087 0.0
H3553 H 0.2272 0.12912 0.81538 0.0
H3554 H 0.24633 0.16818 0.81556 0.0
H3555 H 0.25081 0.20593 0.79944 0.0
H3556 H 0.20523 0.21564 0.74341 0.0
H3557 H 0.18519 0.17723 0.74458 0.0
C3558 C 0.19504 0.14625 0.77267 0.0
C3559 C 0.20215 0.13136 0.78809 0.0
C3560 C 0.20639 0.16878 0.77242 0.0
C3561 C 0.22084 0.13991 0.80348 0.0
C3562 C 0.23201 0.16238 0.80351 0.0
C3563 C 0.23645 0.19964 0.78756 0.0
C3564 C 0.22974 0.21382 0.77124 0.0
C3565 C 0.22503 0.17704 0.78801 0.0
C3566 C 0.21107 0.20519 0.75597 0.0
C3567 C 0.19948 0.18314 0.75665 0.0
H3568 H 0.29613 0.95289 0.24239 0.0
H3569 H 0.3605 0.9349 0.23465 0.0
H3570 H 0.3478 0.8966 0.24529 0.0
H3571 H 0.31949 0.8696 0.25963 0.0
H3572 H 0.25517 0.88724 0.26822 0.0
H3573 H 0.26677 0.9247 0.25461 0.0
C3574 C 0.30711 0.94032 0.24255 0.0
C3575 C 0.32909 0.94644 0.23769 0.0
C3576 C 0.2999 0.91867 0.24933 0.0
C3577 C 0.34338 0.93028 0.23795 0.0
C3578 C 0.33625 0.90857 0.24437 0.0
C3579 C 0.30808 0.88174 0.25864 0.0
C3580 C 0.28673 0.87611 0.26523 0.0
C3581 C 0.31478 0.90287 0.25067 0.0
C3582 C 0.27191 0.89167 0.26375 0.0
C3583 C 0.27844 0.91286 0.25573 0.0
H3584 H 0.47553 0.36756 0.56441 0.0
H3585 H 0.54558 0.3841 0.58661 0.0
H3586 H 0.5482 0.41856 0.5669 0.0
H3587 H 0.52983 0.44605 0.5471 0.0
H3588 H 0.45965 0.43058 0.52621 0.0
H3589 H 0.45767 0.39377 0.54227 0.0
C3590 C 0.49135 0.37876 0.56507 0.0
C3591 C 0.5102 0.37344 0.57729 0.0
C3592 C 0.49264 0.39884 0.55426 0.0
C3593 C 0.53077 0.38772 0.5773 0.0
C3594 C 0.53228 0.40755 0.5662 0.0
C3595 C 0.51418 0.43445 0.54593 0.0
C3596 C 0.49486 0.44078 0.53585 0.0
C3597 C 0.51321 0.41356 0.55521 0.0
C3598 C 0.47468 0.42577 0.53397 0.0
C3599 C 0.47355 0.40487 0.5432 0.0
H3600 H 0.40002 0.80444 0.32907 0.0
H3601 H 0.41147 0.74691 0.28748 0.0
H3602 H 0.37401 0.74351 0.26804 0.0
H3603 H 0.33759 0.75722 0.26298 0.0
H3604 H 0.32814 0.81604 0.30417 0.0
H3605 H 0.36498 0.8185 0.32356 0.0
C3606 C 0.39443 0.79126 0.31561 0.0
C3607 C 0.4086 0.77605 0.30968 0.0
C3608 C 0.3731 0.78961 0.3044 0.0
C3609 C 0.40084 0.75875 0.29251 0.0
C3610 C 0.37945 0.75688 0.28131 0.0
C3611 C 0.34378 0.77065 0.27604 0.0
C3612 C 0.33025 0.78662 0.28184 0.0
C3613 C 0.36538 0.77225 0.28709 0.0
C3614 C 0.33838 0.80386 0.29895 0.0
C3615 C 0.35942 0.8052 0.31023 0.0
H3616 H 0.98493 0.64668 0.08444 0.0
H3617 H 0.03634 0.69137 0.05759 0.0
H3618 H 0.04569 0.65916 0.03521 0.0
H3619 H 0.04025 0.61781 0.02464 0.0
H3620 H 0.99148 0.57313 0.05519 0.0
H3621 H 0.97986 0.60561 0.07437 0.0
C3622 C 0.99795 0.64933 0.07342 0.0
C3623 C 0.00983 0.67125 0.07245 0.0
C3624 C 0.0037 0.63068 0.06125 0.0
C3625 C 0.02697 0.67454 0.0585 0.0
C3626 C 0.03233 0.65616 0.04576 0.0
C3627 C 0.02702 0.61527 0.03541 0.0
C3628 C 0.0164 0.59313 0.03804 0.0
C3629 C 0.021 0.63407 0.04723 0.0
C3630 C 0.99957 0.59002 0.0524 0.0
C3631 C 0.99298 0.6086 0.06354 0.0
H3632 H 0.12291 0.26864 0.79665 0.0
H3633 H 0.15405 0.31992 0.84842 0.0
H3634 H 0.18936 0.32145 0.83246 0.0
H3635 H 0.21187 0.30898 0.80268 0.0
H3636 H 0.17966 0.2583 0.75085 0.0
H3637 H 0.14514 0.25549 0.76812 0.0
C3638 C 0.1374 0.28001 0.8047 0.0
C3639 C 0.13535 0.29422 0.82382 0.0
C3640 C 0.15789 0.28088 0.79536 0.0
C3641 C 0.15462 0.309 0.83353 0.0
C3642 C 0.17506 0.30979 0.82445 0.0
C3643 C 0.19737 0.29713 0.79537 0.0
C3644 C 0.19859 0.28384 0.77537 0.0
C3645 C 0.17698 0.29592 0.80522 0.0
C3646 C 0.17939 0.26883 0.76611 0.0
C3647 C 0.15948 0.26721 0.77599 0.0
H3648 H 0.48556 0.65792 0.96369 0.0
H3649 H 0.55514 0.66188 0.95524 0.0
H3650 H 0.55634 0.62762 0.97483 0.0
H3651 H 0.53803 0.59699 0.99581 0.0
H3652 H 0.4689 0.5935 0.00502 0.0
H3653 H 0.46687 0.62634 0.98292 0.0
C3654 C 0.50094 0.65117 0.96577 0.0
C3655 C 0.52029 0.66289 0.9581 0.0
C3656 C 0.50154 0.63125 0.97705 0.0
C3657 C 0.54006 0.65376 0.96134 0.0
C3658 C 0.54076 0.63395 0.97241 0.0
C3659 C 0.52249 0.60333 0.99268 0.0
C3660 C 0.50358 0.59293 0.00188 0.0
C3661 C 0.52167 0.62266 0.98055 0.0
C3662 C 0.48362 0.60134 0.99805 0.0
C3663 C 0.48251 0.62013 0.9855 0.0
H3664 H 0.09317 0.76248 0.72812 0.0
H3665 H 0.11676 0.83201 0.71478 0.0
H3666 H 0.15332 0.82943 0.73206 0.0
H3667 H 0.17993 0.8057 0.74378 0.0
H3668 H 0.15857 0.7352 0.75401 0.0
H3669 H 0.11969 0.73958 0.74436 0.0
C3670 C 0.10629 0.77709 0.7291 0.0
C3671 C 0.10232 0.79718 0.71962 0.0
C3672 C 0.12772 0.77511 0.73783 0.0
C3673 C 0.11921 0.8163 0.7219 0.0
C3674 C 0.14028 0.81479 0.7315 0.0
C3675 C 0.16669 0.79134 0.74403 0.0
C3676 C 0.17169 0.77006 0.74883 0.0
C3677 C 0.14489 0.79397 0.73831 0.0
C3678 C 0.15473 0.75165 0.74995 0.0
C3679 C 0.13267 0.75418 0.74447 0.0
H3680 H 0.99656 0.39464 0.44548 0.0
H3681 H 0.05933 0.38949 0.48177 0.0
H3682 H 0.06017 0.42676 0.50145 0.0
H3683 H 0.04242 0.4606 0.50907 0.0
H3684 H 0.97838 0.46361 0.47431 0.0
H3685 H 0.97855 0.42727 0.4537 0.0
C3686 C 0.01032 0.40143 0.45792 0.0
C3687 C 0.02774 0.38906 0.46222 0.0
C3688 C 0.01038 0.42249 0.46964 0.0
C3689 C 0.04575 0.39864 0.47792 0.0
C3690 C 0.04616 0.4199 0.48934 0.0
C3691 C 0.02843 0.4531 0.49717 0.0
C3692 C 0.01024 0.46457 0.49357 0.0
C3693 C 0.02846 0.43191 0.48549 0.0
C3694 C 0.99232 0.45486 0.47788 0.0
C3695 C 0.99248 0.43416 0.46589 0.0
H3696 H 0.3892 0.27746 0.18892 0.0
H3697 H 0.43526 0.28315 0.24803 0.0
H3698 H 0.406 0.29077 0.2714 0.0
H3699 H 0.36819 0.3 0.27382 0.0
H3700 H 0.32526 0.29994 0.21291 0.0
H3701 H 0.35245 0.28625 0.19115 0.0
C3702 C 0.39251 0.27973 0.207 0.0
C3703 C 0.41378 0.27947 0.21706 0.0
C3704 C 0.37642 0.28583 0.21975 0.0
C3705 C 0.41858 0.28294 0.2403 0.0
C3706 C 0.40204 0.28761 0.25348 0.0
C3707 C 0.36514 0.29726 0.25577 0.0
C3708 C 0.34532 0.30153 0.24479 0.0
C3709 C 0.38113 0.28997 0.24324 0.0
C3710 C 0.34092 0.29752 0.22152 0.0
C3711 C 0.35622 0.28935 0.2091 0.0
H3712 H 0.53573 0.50214 0.37217 0.0
H3713 H 0.59883 0.49686 0.40741 0.0
H3714 H 0.58357 0.50102 0.44319 0.0
H3715 H 0.55303 0.50865 0.46436 0.0
H3716 H 0.48986 0.51449 0.4298 0.0
H3717 H 0.504 0.507 0.39366 0.0
C3718 C 0.54589 0.50152 0.38775 0.0
C3719 C 0.56824 0.49907 0.38742 0.0
C3720 C 0.53697 0.50394 0.40821 0.0
C3721 C 0.58148 0.49841 0.40749 0.0
C3722 C 0.57282 0.50092 0.42787 0.0
C3723 C 0.54236 0.50792 0.44884 0.0
C3724 C 0.52058 0.51197 0.44935 0.0
C3725 C 0.55071 0.504 0.42841 0.0
C3726 C 0.50674 0.51134 0.42946 0.0
C3727 C 0.51484 0.50714 0.40893 0.0
H3728 H 0.21858 0.82196 0.13794 0.0
H3729 H 0.28553 0.85822 0.1376 0.0
H3730 H 0.29708 0.84104 0.17074 0.0
H3731 H 0.28881 0.81576 0.20091 0.0
H3732 H 0.2214 0.7837 0.20426 0.0
H3733 H 0.20955 0.79993 0.16975 0.0
C3734 C 0.23567 0.82663 0.14498 0.0
C3735 C 0.25097 0.84123 0.13398 0.0
C3736 C 0.24231 0.81747 0.16513 0.0
C3737 C 0.27308 0.84644 0.14426 0.0
C3738 C 0.27988 0.8368 0.16377 0.0
C3739 C 0.27155 0.81234 0.194 0.0
C3740 C 0.25606 0.79826 0.20489 0.0
C3741 C 0.26473 0.82218 0.17433 0.0
C3742 C 0.23367 0.79429 0.19601 0.0
C3743 C 0.2269 0.80359 0.17627 0.0
H3744 H 0.95538 0.52469 0.87061 0.0
H3745 H 0.98424 0.59538 0.86996 0.0
H3746 H 1.00151 0.59525 0.90797 0.0
H3747 H 0.00746 0.57556 0.94255 0.0
H3748 H 0.97851 0.50512 0.94315 0.0
H3749 H 0.96299 0.5045 0.90418 0.0
C3750 C 0.96569 0.54003 0.87855 0.0
C3751 C 0.96808 0.56011 0.86714 0.0
C3752 C 0.97579 0.53987 0.90062 0.0
C3753 C 0.98147 0.57976 0.8782 0.0
C3754 C 0.99159 0.57969 0.90002 0.0
C3755 C 0.99801 0.56005 0.93399 0.0
C3756 C 0.99422 0.54037 0.94568 0.0
C3757 C 0.9887 0.55994 0.91156 0.0
C3758 C 0.98168 0.52045 0.93448 0.0
C3759 C 0.97273 0.52012 0.91219 0.0
H3760 H 0.30786 0.23588 0.61943 0.0
H3761 H 0.26877 0.28021 0.5863 0.0
H3762 H 0.25773 0.29358 0.62213 0.0
H3763 H 0.25324 0.28621 0.66109 0.0
H3764 H 0.28906 0.23801 0.69254 0.0
H3765 H 0.30716 0.23212 0.65899 0.0
C3766 C 0.29781 0.24928 0.62025 0.0
C3767 C 0.2889 0.25704 0.60062 0.0
C3768 C 0.2902 0.25531 0.64039 0.0
C3769 C 0.27571 0.27418 0.60152 0.0
C3770 C 0.2691 0.28142 0.62185 0.0
C3771 C 0.26503 0.27447 0.66046 0.0
C3772 C 0.26942 0.26203 0.67868 0.0
C3773 C 0.2751 0.27094 0.64107 0.0
C3774 C 0.28501 0.24721 0.67823 0.0
C3775 C 0.29557 0.24407 0.65924 0.0
H3776 H 0.53049 0.49457 0.17874 0.0
H3777 H 0.59902 0.51667 0.16899 0.0
H3778 H 0.58811 0.52889 0.13245 0.0
H3779 H 0.55944 0.53593 0.10491 0.0
H3780 H 0.4905 0.51354 0.11278 0.0
H3781 H 0.50107 0.49872 0.14861 0.0
C3782 C 0.54287 0.50152 0.16823 0.0
C3783 C 0.56544 0.5048 0.1762 0.0
C3784 C 0.53643 0.50882 0.14731 0.0
C3785 C 0.58156 0.51398 0.16284 0.0
C3786 C 0.57535 0.52113 0.14214 0.0
C3787 C 0.54669 0.52788 0.1145 0.0
C3788 C 0.5243 0.52621 0.10668 0.0
C3789 C 0.55288 0.51918 0.13454 0.0
C3790 C 0.5079 0.51541 0.11893 0.0
C3791 C 0.51393 0.5068 0.13923 0.0
H3792 H 0.25105 0.86129 0.89728 0.0
H3793 H 0.21415 0.79927 0.91613 0.0
H3794 H 0.21883 0.7796 0.88024 0.0
H3795 H 0.2336 0.78017 0.84295 0.0
H3796 H 0.2708 0.84259 0.82499 0.0
H3797 H 0.26533 0.862 0.86041 0.0
C3798 C 0.24398 0.84349 0.89346 0.0
C3799 C 0.2322 0.83178 0.90932 0.0
C3800 C 0.24665 0.83237 0.87272 0.0
C3801 C 0.2231 0.80871 0.90412 0.0
C3802 C 0.22583 0.79746 0.88359 0.0
C3803 C 0.24051 0.79799 0.84688 0.0
C3804 C 0.25288 0.80983 0.8314 0.0
C3805 C 0.23757 0.8091 0.86767 0.0
C3806 C 0.26164 0.83295 0.83674 0.0
C3807 C 0.25843 0.84412 0.857 0.0
H3808 H 0.9423 0.54745 0.62393 0.0
H3809 H 0.99787 0.5417 0.67097 0.0
H3810 H 0.01974 0.53358 0.64018 0.0
H3811 H 0.02341 0.52922 0.59938 0.0
H3812 H 0.96816 0.5378 0.55296 0.0
H3813 H 0.94594 0.5433 0.58355 0.0
C3814 C 0.95919 0.54437 0.62736 0.0
C3815 C 0.96852 0.54519 0.64964 0.0
C3816 C 0.97174 0.54003 0.60954 0.0
C3817 C 0.99042 0.54123 0.65392 0.0
C3818 C 0.00289 0.53655 0.6363 0.0
C3819 C 0.00643 0.53201 0.596 0.0
C3820 C 0.99738 0.53255 0.57371 0.0
C3821 C 0.9938 0.53601 0.61397 0.0
C3822 C 0.97546 0.53669 0.56977 0.0
C3823 C 0.96273 0.5401 0.58736 0.0
H3824 H 0.29211 0.26841 0.41276 0.0
H3825 H 0.27154 0.19902 0.38539 0.0
H3826 H 0.26692 0.21158 0.34776 0.0
H3827 H 0.26659 0.24224 0.32325 0.0
H3828 H 0.28867 0.31181 0.34914 0.0
H3829 H 0.29505 0.29947 0.38708 0.0
C3830 C 0.28698 0.25622 0.39839 0.0
C3831 C 0.28214 0.23296 0.40138 0.0
C3832 C 0.28446 0.26359 0.37687 0.0
C3833 C 0.27541 0.217 0.38305 0.0
C3834 C 0.27268 0.22415 0.3617 0.0
C3835 C 0.27282 0.25462 0.3373 0.0
C3836 C 0.27681 0.27775 0.33397 0.0
C3837 C 0.27676 0.24737 0.35852 0.0
C3838 C 0.28533 0.29387 0.35179 0.0
C3839 C 0.28896 0.28682 0.37329 0.0
H3840 H 0.38913 0.58446 0.47757 0.0
H3841 H 0.40272 0.61078 0.5467 0.0
H3842 H 0.43349 0.58981 0.55153 0.0
H3843 H 0.45595 0.56257 0.53678 0.0
H3844 H 0.44259 0.53581 0.4681 0.0
H3845 H 0.41299 0.55876 0.46226 0.0
C3846 C 0.39897 0.58591 0.49362 0.0
C3847 C 0.39316 0.5991 0.51179 0.0
C3848 C 0.41695 0.5738 0.49635 0.0
C3849 C 0.40621 0.60042 0.53248 0.0
C3850 C 0.42405 0.58855 0.53527 0.0
C3851 C 0.44679 0.56216 0.52047 0.0
C3852 C 0.45154 0.54782 0.5028 0.0
C3853 C 0.42947 0.575 0.51742 0.0
C3854 C 0.43929 0.54695 0.48185 0.0
C3855 C 0.42231 0.55997 0.47857 0.0
H3856 H 0.87543 0.94674 0.50869 0.0
H3857 H 0.85555 1.00126 0.54808 0.0
H3858 H 0.89234 0.02437 0.54768 0.0
H3859 H 0.93057 0.02879 0.53621 0.0
H3860 H 0.94963 0.97417 0.49612 0.0
H3861 H 0.91318 0.95114 0.49719 0.0
C3862 C 0.87924 0.9637 0.51715 0.0
C3863 C 0.86295 0.97237 0.52839 0.0
C3864 C 0.90037 0.97676 0.51688 0.0
C3865 C 0.86798 0.99426 0.53946 0.0
C3866 C 0.88897 0.00745 0.53919 0.0
C3867 C 0.92658 0.01192 0.52761 0.0
C3868 C 0.94257 0.00329 0.5158 0.0
C3869 C 0.90535 0.99887 0.52797 0.0
C3870 C 0.93736 0.98135 0.50484 0.0
C3871 C 0.91658 0.96812 0.50557 0.0
H3872 H 0.83842 0.18015 0.27501 0.0
H3873 H 0.79665 0.14252 0.21895 0.0
H3874 H 0.77189 0.17047 0.21945 0.0
H3875 H 0.76051 0.20445 0.23689 0.0
H3876 H 0.80214 0.24339 0.29188 0.0
H3877 H 0.82824 0.21614 0.29098 0.0
C3878 C 0.82387 0.17802 0.26295 0.0
C3879 C 0.8195 0.159 0.24701 0.0
C3880 C 0.80947 0.19434 0.26329 0.0
C3881 C 0.80072 0.15694 0.23127 0.0
C3882 C 0.78635 0.17288 0.23164 0.0
C3883 C 0.77532 0.20692 0.24867 0.0
C3884 C 0.77934 0.22572 0.26458 0.0
C3885 C 0.79034 0.19142 0.24774 0.0
C3886 C 0.79878 0.22906 0.27944 0.0
C3887 C 0.81363 0.21341 0.27897 0.0
H3888 H 0.68231 0.06627 0.01361 0.0
H3889 H 0.66887 0.12594 0.98191 0.0
H3890 H 0.6292 0.11531 0.98529 0.0
H3891 H 0.5987 0.09015 0.99932 0.0
H3892 H 0.61209 0.03029 0.03089 0.0
H3893 H 0.65131 0.03955 0.02519 0.0
C3894 C 0.67055 0.07666 0.00718 0.0
C3895 C 0.67825 0.09676 0.99751 0.0
C3896 C 0.64785 0.07048 0.00927 0.0
C3897 C 0.66309 0.11024 0.98919 0.0
C3898 C 0.6405 0.10427 0.99127 0.0
C3899 C 0.61026 0.07919 0.00495 0.0
C3900 C 0.60273 0.05985 0.01587 0.0
C3901 C 0.63275 0.08464 0.00164 0.0
C3902 C 0.61769 0.04555 0.02283 0.0
C3903 C 0.64007 0.05077 0.0195 0.0
H3904 H 0.19798 0.40038 0.25074 0.0
H3905 H 0.18662 0.3951 0.32031 0.0
H3906 H 0.20782 0.36476 0.32217 0.0
H3907 H 0.23143 0.33973 0.30502 0.0
H3908 H 0.24303 0.34526 0.23617 0.0
H3909 H 0.21968 0.37481 0.23331 0.0
C3910 C 0.19968 0.39293 0.26649 0.0
C3911 C 0.19005 0.40125 0.28528 0.0
C3912 C 0.21206 0.37484 0.26767 0.0
C3913 C 0.19336 0.39026 0.30521 0.0
C3914 C 0.20566 0.37238 0.30645 0.0
C3915 C 0.22833 0.34702 0.28927 0.0
C3916 C 0.23856 0.33992 0.27067 0.0
C3917 C 0.2152 0.36453 0.28786 0.0
C3918 C 0.23499 0.35009 0.25058 0.0
C3919 C 0.22178 0.36717 0.24901 0.0
H3920 H 0.16427 0.48616 0.00668 0.0
H3921 H 0.12633 0.4255 0.02733 0.0
H3922 H 0.09262 0.44281 0.0241 0.0
H3923 H 0.07484 0.47559 0.01694 0.0
H3924 H 0.11287 0.53734 0.99824 0.0
H3925 H 0.14608 0.51917 0.99901 0.0
C3926 C 0.1485 0.47686 0.01029 0.0
C3927 C 0.14733 0.45483 0.01715 0.0
C3928 C 0.12953 0.48706 0.00881 0.0
C3929 C 0.12719 0.44258 0.02201 0.0
C3930 C 0.1081 0.45243 0.02018 0.0
C3931 C 0.09039 0.48505 0.01293 0.0
C3932 C 0.09169 0.50768 0.0076 0.0
C3933 C 0.1092 0.47472 0.01383 0.0
C3934 C 0.11175 0.51985 0.00243 0.0
C3935 C 0.13061 0.50951 0.00289 0.0
H3936 H 0.7963 0.92958 0.22957 0.0
H3937 H 0.85366 0.93064 0.27679 0.0
H3938 H 0.84039 0.89136 0.28436 0.0
H3939 H 0.8118 0.85668 0.27857 0.0
H3940 H 0.75488 0.85496 0.23067 0.0
H3941 H 0.76818 0.89424 0.22283 0.0
C3942 C 0.80592 0.92114 0.24141 0.0
C3943 C 0.82591 0.93324 0.25275 0.0
C3944 C 0.798 0.8984 0.2459 0.0
C3945 C 0.83811 0.92194 0.26806 0.0
C3946 C 0.8305 0.89942 0.27241 0.0
C3947 C 0.80223 0.86499 0.26656 0.0
C3948 C 0.78217 0.8529 0.25546 0.0
C3949 C 0.81031 0.88753 0.26172 0.0
C3950 C 0.7703 0.86382 0.23954 0.0
C3951 C 0.77795 0.88633 0.235 0.0
H3952 H 0.6685 0.12734 0.77371 0.0
H3953 H 0.72907 0.10787 0.80218 0.0
H3954 H 0.74975 0.14534 0.79618 0.0
H3955 H 0.75051 0.18257 0.78027 0.0
H3956 H 0.68927 0.20205 0.75365 0.0
H3957 H 0.66869 0.16515 0.76083 0.0
C3958 C 0.68622 0.13144 0.77866 0.0
C3959 C 0.6975 0.11508 0.78788 0.0
C3960 C 0.69778 0.15262 0.775 0.0
C3961 C 0.72027 0.12042 0.79487 0.0
C3962 C 0.73203 0.14164 0.79128 0.0
C3963 C 0.73271 0.17843 0.77589 0.0
C3964 C 0.72124 0.19428 0.76596 0.0
C3965 C 0.72101 0.15762 0.7808 0.0
C3966 C 0.69819 0.18958 0.76096 0.0
C3967 C 0.6865 0.1687 0.76518 0.0
loop_
_geom_bond_atom_site_label_1
_geom_bond_atom_site_label_2
_geom_bond_distance
_geom_bond_site_symmetry_2
_ccdc_geom_bond_type
Li0 N17 1.990 . S
Li0 O60 1.956 1_655 S
Li0 O61 1.970 . S
Li0 O62 1.961 1_655 S
Li1 N25 1.990 . S
Li1 O60 1.970 . S
Li1 O61 1.956 1_455 S
Li1 O63 1.961 . S
Li2 N47 1.990 . S
Li2 O60 1.961 . S
Li2 O62 1.956 . S
Li2 O63 1.970 . S
Li3 N53 1.990 . S
Li3 O61 1.961 1_455 S
Li3 O62 1.970 . S
Li3 O63 1.956 . S
C4 C6 1.348 . S
C4 C7 1.356 . S
C4 O60 1.325 . S
N5 C8 1.314 . S
N5 C9 1.279 . S
C6 C4 1.348 . S
C6 C8 1.353 . S
C6 H64 0.929 . S
C7 C4 1.356 . S
C7 C9 1.358 . S
C7 H65 0.930 . S
C8 N5 1.314 . S
C8 C6 1.353 . S
C8 H66 0.930 . S
C9 N5 1.279 . S
C9 C7 1.358 . S
C9 H67 0.930 . S
C10 C13 1.348 . S
C10 C14 1.356 . S
C10 O61 1.325 . S
C11 N12 1.279 . S
C11 C14 1.358 . S
C11 H68 0.930 . S
N12 C11 1.279 . S
N12 C15 1.314 . S
C13 C10 1.348 . S
C13 C15 1.353 . S
C13 H69 0.929 . S
C14 C10 1.356 . S
C14 C11 1.358 . S
C14 H70 0.930 . S
C15 N12 1.314 . S
C15 C13 1.353 . S
C15 H71 0.930 . S
C16 N17 1.314 . S
C16 C21 1.353 . S
C16 H22 0.930 . S
N17 Li0 1.990 . S
N17 C16 1.314 . S
N17 C19 1.279 . S
C18 C19 1.358 . S
C18 C20 1.356 . S
C18 H72 0.930 . S
C19 N17 1.279 . S
C19 C18 1.358 . S
C19 H23 0.930 . S
C20 C18 1.356 . S
C20 C21 1.348 . S
C21 C16 1.353 . S
C21 C20 1.348 . S
C21 H73 0.929 . S
H22 C16 0.930 . S
H23 C19 0.930 . S
C24 N25 1.314 . S
C24 C26 1.353 . S
C24 H30 0.930 . S
N25 Li1 1.990 . S
N25 C24 1.314 . S
N25 C28 1.279 . S
C26 C24 1.353 . S
C26 C29 1.348 . S
C26 H74 0.929 . S
C27 C28 1.358 . S
C27 C29 1.356 . S
C27 H75 0.930 1_455 S
C28 N25 1.279 . S
C28 C27 1.358 . S
C28 H31 0.930 1_455 S
C29 C26 1.348 . S
C29 C27 1.356 . S
H30 C24 0.930 . S
H31 C28 0.930 1_655 S
C32 C34 1.348 . S
C32 C35 1.356 . S
C32 O62 1.325 . S
N33 C36 1.314 . S
N33 C37 1.279 . S
C34 C32 1.348 . S
C34 C36 1.353 . S
C34 H76 0.929 . S
C35 C32 1.356 . S
C35 C37 1.358 . S
C35 H77 0.930 . S
C36 N33 1.314 . S
C36 C34 1.353 . S
C36 H78 0.930 . S
C37 N33 1.279 . S
C37 C35 1.358 . S
C37 H79 0.929 . S
C38 C39 1.348 . S
C38 C40 1.356 . S
C38 O63 1.325 . S
C39 C38 1.348 . S
C39 C41 1.353 . S
C39 H80 0.929 . S
C40 C38 1.356 . S
C40 C42 1.358 . S
C40 H81 0.930 . S
C41 C39 1.353 . S
C41 N43 1.314 . S
C41 H82 0.930 . S
C42 C40 1.358 . S
C42 N43 1.279 . S
C42 H83 0.930 . S
N43 C41 1.314 . S
N43 C42 1.279 . S
C44 C46 1.353 . S
C44 N47 1.314 . S
C44 H50 0.930 . S
C45 N47 1.279 . S
C45 C48 1.358 . S
C45 H51 0.930 . S
C46 C44 1.353 . S
C46 C49 1.348 . S
C46 H84 0.929 . S
N47 Li2 1.990 . S
N47 C44 1.314 . S
N47 C45 1.279 . S
C48 C45 1.358 . S
C48 C49 1.356 . S
C48 H85 0.930 . S
C49 C46 1.348 . S
C49 C48 1.356 . S
H50 C44 0.930 . S
H51 C45 0.930 . S
C52 N53 1.314 1_655 S
C52 C54 1.353 . S
C52 H58 0.930 . S
N53 Li3 1.990 . S
N53 C52 1.314 1_455 S
N53 C56 1.279 . S
C54 C52 1.353 . S
C54 C57 1.348 1_655 S
C54 H86 0.929 . S
C55 C56 1.358 . S
C55 C57 1.356 . S
C55 H87 0.930 . S
C56 N53 1.279 . S
C56 C55 1.358 . S
C56 H59 0.930 . S
C57 C54 1.348 1_455 S
C57 C55 1.356 . S
H58 C52 0.930 . S
H59 C56 0.930 . S
O60 Li0 1.956 1_455 S
O60 Li1 1.970 . S
O60 Li2 1.961 . S
O60 C4 1.325 . S
O61 Li0 1.970 . S
O61 Li1 1.956 1_655 S
O61 Li3 1.961 1_655 S
O61 C10 1.325 . S
O62 Li0 1.961 1_455 S
O62 Li2 1.956 . S
O62 Li3 1.970 . S
O62 C32 1.325 . S
O63 Li1 1.961 . S
O63 Li2 1.970 . S
O63 Li3 1.956 . S
O63 C38 1.325 . S
H64 C6 0.929 . S
H65 C7 0.930 . S
H66 C8 0.930 . S
H67 C9 0.930 . S
H68 C11 0.930 . S
H69 C13 0.929 . S
H70 C14 0.930 . S
H71 C15 0.930 . S
H72 C18 0.930 . S
H73 C21 0.929 . S
H74 C26 0.929 . S
H75 C27 0.930 1_655 S
H76 C34 0.929 . S
H77 C35 0.930 . S
H78 C36 0.930 . S
H79 C37 0.929 . S
H80 C39 0.929 . S
H81 C40 0.930 . S
H82 C41 0.930 . S
H83 C42 0.930 . S
H84 C46 0.929 . S
H85 C48 0.930 . S
H86 C54 0.929 . S
H87 C55 0.930 . S
Li88 N105 1.990 . S
Li88 O148 1.956 . S
Li88 O149 1.970 . S
Li88 O150 1.961 1_455 S
Li89 N113 1.990 . S
Li89 O148 1.970 . S
Li89 O149 1.956 . S
Li89 O151 1.956 1_455 S
Li90 N135 1.990 . S
Li90 O148 1.961 1_655 S
Li90 O150 1.956 . S
Li90 O151 1.970 . S
Li91 N141 1.990 . S
Li91 O149 1.961 1_655 S
Li91 O150 1.970 . S
Li91 O151 1.962 . S
C92 C94 1.348 . S
C92 C95 1.356 . S
C92 O148 1.325 . S
N93 C96 1.314 . S
N93 C97 1.279 . S
C94 C92 1.348 . S
C94 C96 1.353 . S
C94 H152 0.929 . S
C95 C92 1.356 . S
C95 C97 1.358 . S
C95 H153 0.930 . S
C96 N93 1.314 . S
C96 C94 1.353 . S
C96 H154 0.930 . S
C97 N93 1.279 . S
C97 C95 1.358 . S
C97 H155 0.930 . S
C98 C101 1.348 . S
C98 C102 1.356 . S
C98 O149 1.325 . S
C99 N100 1.279 . S
C99 C102 1.358 . S
C99 H156 0.930 . S
N100 C99 1.279 . S
N100 C103 1.314 . S
C101 C98 1.348 . S
C101 C103 1.353 . S
C101 H157 0.929 . S
C102 C98 1.356 . S
C102 C99 1.358 . S
C102 H158 0.924 1_455 S
C103 N100 1.314 . S
C103 C101 1.353 . S
C103 H159 0.930 . S
C104 N105 1.314 1_655 S
C104 C109 1.353 . S
C104 H110 0.930 . S
N105 Li88 1.990 . S
N105 C104 1.314 1_455 S
N105 C107 1.279 . S
C106 C107 1.358 . S
C106 C108 1.356 . S
C106 H160 0.930 . S
C107 N105 1.279 . S
C107 C106 1.358 . S
C107 H111 0.930 . S
C108 C106 1.356 . S
C108 C109 1.348 1_455 S
C109 C104 1.353 . S
C109 C108 1.348 1_655 S
C109 H161 0.929 . S
H110 C104 0.930 . S
H111 C107 0.930 . S
C112 N113 1.314 . S
C112 C114 1.353 . S
C112 H118 0.930 . S
N113 Li89 1.990 . S
N113 C112 1.314 . S
N113 C116 1.279 . S
C114 C112 1.353 . S
C114 C117 1.348 . S
C114 H162 0.929 . S
C115 C116 1.358 . S
C115 C117 1.356 . S
C115 H163 0.930 . S
C116 N113 1.279 . S
C116 C115 1.358 . S
C116 H119 0.930 . S
C117 C114 1.348 . S
C117 C115 1.356 . S
H118 C112 0.930 . S
H119 C116 0.930 . S
C120 C122 1.348 . S
C120 C123 1.356 . S
C120 O150 1.325 . S
N121 C124 1.314 . S
N121 C125 1.279 . S
C122 C120 1.348 . S
C122 C124 1.353 . S
C122 H164 0.929 . S
C123 C120 1.356 . S
C123 C125 1.358 . S
C123 H165 0.930 . S
C124 N121 1.314 . S
C124 C122 1.353 . S
C124 H166 0.930 . S
C125 N121 1.279 . S
C125 C123 1.358 . S
C125 H167 0.930 . S
C126 C127 1.348 . S
C126 C128 1.356 1_655 S
C126 O151 1.325 . S
C127 C126 1.348 . S
C127 C129 1.353 . S
C127 H168 0.929 . S
C128 C126 1.356 1_455 S
C128 C130 1.358 . S
C128 H169 0.930 . S
C129 C127 1.353 . S
C129 N131 1.314 . S
C129 H170 0.930 . S
C130 C128 1.358 . S
C130 N131 1.279 1_455 S
C130 H171 0.930 . S
N131 C129 1.314 . S
N131 C130 1.279 1_655 S
C132 C134 1.353 . S
C132 N135 1.314 1_455 S
C132 H138 0.930 . S
C133 N135 1.279 . S
C133 C136 1.358 . S
C133 H139 0.930 . S
C134 C132 1.353 . S
C134 C137 1.348 1_455 S
C134 H172 0.929 . S
N135 Li90 1.990 . S
N135 C132 1.314 1_655 S
N135 C133 1.279 . S
C136 C133 1.358 . S
C136 C137 1.356 . S
C136 H173 0.930 . S
C137 C134 1.348 1_655 S
C137 C136 1.356 . S
H138 C132 0.930 . S
H139 C133 0.930 . S
C140 N141 1.314 . S
C140 C142 1.353 . S
C140 H146 0.930 . S
N141 Li91 1.990 . S
N141 C140 1.314 . S
N141 C144 1.279 . S
C142 C140 1.353 . S
C142 C145 1.348 . S
C142 H174 0.929 . S
C143 C144 1.358 . S
C143 C145 1.356 . S
C143 H175 0.930 . S
C144 N141 1.279 . S
C144 C143 1.358 . S
C144 H147 0.930 . S
C145 C142 1.348 . S
C145 C143 1.356 . S
H146 C140 0.930 . S
H147 C144 0.930 . S
O148 Li88 1.956 . S
O148 Li89 1.970 . S
O148 Li90 1.961 1_455 S
O148 C92 1.325 . S
O149 Li88 1.970 . S
O149 Li89 1.956 . S
O149 Li91 1.961 1_455 S
O149 C98 1.325 . S
O150 Li88 1.961 1_655 S
O150 Li90 1.956 . S
O150 Li91 1.970 . S
O150 C120 1.325 . S
O151 Li89 1.956 1_655 S
O151 Li90 1.970 . S
O151 Li91 1.962 . S
O151 C126 1.325 . S
H152 C94 0.929 . S
H153 C95 0.930 . S
H154 C96 0.930 . S
H155 C97 0.930 . S
H156 C99 0.930 . S
H157 C101 0.929 . S
H158 C102 0.924 1_655 S
H159 C103 0.930 . S
H160 C106 0.930 . S
H161 C109 0.929 . S
H162 C114 0.929 . S
H163 C115 0.930 . S
H164 C122 0.929 . S
H165 C123 0.930 . S
H166 C124 0.930 . S
H167 C125 0.930 . S
H168 C127 0.929 . S
H169 C128 0.930 . S
H170 C129 0.930 . S
H171 C130 0.930 . S
H172 C134 0.929 . S
H173 C136 0.930 . S
H174 C142 0.929 . S
H175 C143 0.930 . S
Li176 N193 1.990 . S
Li176 O236 1.956 . S
Li176 O237 1.970 . S
Li176 O238 1.961 . S
Li177 N201 1.990 . S
Li177 O236 1.970 . S
Li177 O237 1.956 . S
Li177 O239 1.961 . S
Li178 N223 1.990 . S
Li178 O236 1.961 . S
Li178 O238 1.956 . S
Li178 O239 1.970 . S
Li179 N229 1.990 . S
Li179 O237 1.961 . S
Li179 O238 1.970 . S
Li179 O239 1.956 . S
C180 C182 1.348 . S
C180 C183 1.356 . S
C180 O236 1.325 . S
N181 C184 1.314 . S
N181 C185 1.279 . S
C182 C180 1.348 . S
C182 C184 1.353 . S
C182 H240 0.929 . S
C183 C180 1.356 . S
C183 C185 1.358 . S
C183 H241 0.930 . S
C184 N181 1.314 . S
C184 C182 1.353 . S
C184 H242 0.930 . S
C185 N181 1.279 . S
C185 C183 1.358 . S
C185 H243 0.930 . S
C186 C189 1.348 . S
C186 C190 1.356 . S
C186 O237 1.325 . S
C187 N188 1.279 . S
C187 C190 1.358 . S
C187 H244 0.930 . S
N188 C187 1.279 . S
N188 C191 1.314 . S
C189 C186 1.348 . S
C189 C191 1.353 . S
C189 H245 0.929 . S
C190 C186 1.356 . S
C190 C187 1.358 . S
C190 H246 0.930 . S
C191 N188 1.314 . S
C191 C189 1.353 . S
C191 H247 0.930 . S
C192 N193 1.314 . S
C192 C197 1.353 . S
C192 H198 0.930 . S
N193 Li176 1.990 . S
N193 C192 1.314 . S
N193 C195 1.279 . S
C194 C195 1.358 . S
C194 C196 1.356 . S
C194 H248 0.930 . S
C195 N193 1.279 . S
C195 C194 1.358 . S
C195 H199 0.930 . S
C196 C194 1.356 . S
C196 C197 1.348 . S
C197 C192 1.353 . S
C197 C196 1.348 . S
C197 H249 0.929 . S
H198 C192 0.930 . S
H199 C195 0.930 . S
C200 N201 1.314 . S
C200 C202 1.353 . S
C200 H206 0.930 . S
N201 Li177 1.990 . S
N201 C200 1.314 . S
N201 C204 1.279 . S
C202 C200 1.353 . S
C202 C205 1.348 . S
C202 H250 0.929 . S
C203 C204 1.358 . S
C203 C205 1.356 . S
C203 H251 0.930 . S
C204 N201 1.279 . S
C204 C203 1.358 . S
C204 H207 0.930 . S
C205 C202 1.348 . S
C205 C203 1.356 . S
H206 C200 0.930 . S
H207 C204 0.930 . S
C208 C210 1.348 . S
C208 C211 1.356 . S
C208 O238 1.325 . S
N209 C212 1.314 . S
N209 C213 1.279 . S
C210 C208 1.348 . S
C210 C212 1.353 . S
C210 H252 0.929 . S
C211 C208 1.356 . S
C211 C213 1.358 . S
C211 H253 0.930 . S
C212 N209 1.314 . S
C212 C210 1.353 . S
C212 H254 0.930 . S
C213 N209 1.279 . S
C213 C211 1.358 . S
C213 H255 0.930 . S
C214 C215 1.348 . S
C214 C216 1.356 . S
C214 O239 1.325 . S
C215 C214 1.348 . S
C215 C217 1.353 . S
C215 H256 0.929 . S
C216 C214 1.356 . S
C216 C218 1.358 . S
C216 H257 0.930 . S
C217 C215 1.353 . S
C217 N219 1.314 . S
C217 H258 0.930 . S
C218 C216 1.358 . S
C218 N219 1.279 . S
C218 H259 0.930 . S
N219 C217 1.314 . S
N219 C218 1.279 . S
C220 C222 1.353 . S
C220 N223 1.314 . S
C220 H226 0.930 . S
C221 N223 1.279 . S
C221 C224 1.358 . S
C221 H227 0.930 . S
C222 C220 1.353 . S
C222 C225 1.348 . S
C222 H260 0.929 . S
N223 Li178 1.990 . S
N223 C220 1.314 . S
N223 C221 1.279 . S
C224 C221 1.358 . S
C224 C225 1.356 . S
C224 H261 0.930 . S
C225 C222 1.348 . S
C225 C224 1.356 . S
H226 C220 0.930 . S
H227 C221 0.930 . S
C228 N229 1.314 . S
C228 C230 1.353 . S
C228 H234 0.930 . S
N229 Li179 1.990 . S
N229 C228 1.314 . S
N229 C232 1.279 . S
C230 C228 1.353 . S
C230 C233 1.348 . S
C230 H262 0.929 . S
C231 C232 1.358 . S
C231 C233 1.356 . S
C231 H263 0.930 . S
C232 N229 1.279 . S
C232 C231 1.358 . S
C232 H235 0.930 . S
C233 C230 1.348 . S
C233 C231 1.356 . S
H234 C228 0.930 . S
H235 C232 0.930 . S
O236 Li176 1.956 . S
O236 Li177 1.970 . S
O236 Li178 1.961 . S
O236 C180 1.325 . S
O237 Li176 1.970 . S
O237 Li177 1.956 . S
O237 Li179 1.961 . S
O237 C186 1.325 . S
O238 Li176 1.961 . S
O238 Li178 1.956 . S
O238 Li179 1.970 . S
O238 C208 1.325 . S
O239 Li177 1.961 . S
O239 Li178 1.970 . S
O239 Li179 1.956 . S
O239 C214 1.325 . S
H240 C182 0.929 . S
H241 C183 0.930 . S
H242 C184 0.930 . S
H243 C185 0.930 . S
H244 C187 0.930 . S
H245 C189 0.929 . S
H246 C190 0.930 . S
H247 C191 0.930 . S
H248 C194 0.930 . S
H249 C197 0.929 . S
H250 C202 0.929 . S
H251 C203 0.930 . S
H252 C210 0.929 . S
H253 C211 0.930 . S
H254 C212 0.930 . S
H255 C213 0.930 . S
H256 C215 0.929 . S
H257 C216 0.930 . S
H258 C217 0.930 . S
H259 C218 0.930 . S
H260 C222 0.929 . S
H261 C224 0.930 . S
H262 C230 0.929 . S
H263 C231 0.930 . S
Li264 N281 1.990 . S
Li264 O324 1.956 . S
Li264 O325 1.970 . S
Li264 O326 1.961 . S
Li265 N289 1.990 . S
Li265 O324 1.970 . S
Li265 O325 1.956 . S
Li265 O327 1.961 . S
Li266 N311 1.990 . S
Li266 O324 1.961 . S
Li266 O326 1.956 . S
Li266 O327 1.970 . S
Li267 N317 1.990 . S
Li267 O325 1.961 . S
Li267 O326 1.970 . S
Li267 O327 1.956 . S
C268 C270 1.348 . S
C268 C271 1.356 . S
C268 O324 1.325 . S
N269 C272 1.314 . S
N269 C273 1.279 . S
C270 C268 1.348 . S
C270 C272 1.353 . S
C270 H328 0.929 . S
C271 C268 1.356 . S
C271 C273 1.358 . S
C271 H329 0.930 . S
C272 N269 1.314 . S
C272 C270 1.353 . S
C272 H330 0.930 . S
C273 N269 1.279 . S
C273 C271 1.358 . S
C273 H331 0.930 . S
C274 C277 1.348 . S
C274 C278 1.356 . S
C274 O325 1.325 . S
C275 N276 1.279 . S
C275 C278 1.358 . S
C275 H332 0.930 . S
N276 C275 1.279 . S
N276 C279 1.314 . S
C277 C274 1.348 . S
C277 C279 1.353 . S
C277 H333 0.929 . S
C278 C274 1.356 . S
C278 C275 1.358 . S
C278 H334 0.930 . S
C279 N276 1.314 . S
C279 C277 1.353 . S
C279 H335 0.930 . S
C280 N281 1.314 . S
C280 C285 1.353 . S
C280 H286 0.930 . S
N281 Li264 1.990 . S
N281 C280 1.314 . S
N281 C283 1.279 . S
C282 C283 1.358 . S
C282 C284 1.356 . S
C282 H336 0.930 . S
C283 N281 1.279 . S
C283 C282 1.358 . S
C283 H287 0.930 . S
C284 C282 1.356 . S
C284 C285 1.348 . S
C285 C280 1.353 . S
C285 C284 1.348 . S
C285 H337 0.929 . S
H286 C280 0.930 . S
H287 C283 0.930 . S
C288 N289 1.314 . S
C288 C290 1.353 . S
C288 H294 0.930 . S
N289 Li265 1.990 . S
N289 C288 1.314 . S
N289 C292 1.279 . S
C290 C288 1.353 . S
C290 C293 1.348 . S
C290 H338 0.929 . S
C291 C292 1.358 . S
C291 C293 1.356 . S
C291 H339 0.930 . S
C292 N289 1.279 . S
C292 C291 1.358 . S
C292 H295 0.930 . S
C293 C290 1.348 . S
C293 C291 1.356 . S
H294 C288 0.930 . S
H295 C292 0.930 . S
C296 C298 1.348 . S
C296 C299 1.356 . S
C296 O326 1.325 . S
N297 C300 1.314 . S
N297 C301 1.279 . S
C298 C296 1.348 . S
C298 C300 1.353 . S
C298 H340 0.929 . S
C299 C296 1.356 . S
C299 C301 1.358 . S
C299 H341 0.930 . S
C300 N297 1.314 . S
C300 C298 1.353 . S
C300 H342 0.930 . S
C301 N297 1.279 . S
C301 C299 1.358 . S
C301 H343 0.930 . S
C302 C303 1.348 . S
C302 C304 1.356 . S
C302 O327 1.325 . S
C303 C302 1.348 . S
C303 C305 1.353 . S
C303 H344 0.929 . S
C304 C302 1.356 . S
C304 C306 1.358 . S
C304 H345 0.930 . S
C305 C303 1.353 . S
C305 N307 1.314 . S
C305 H346 0.930 . S
C306 C304 1.358 . S
C306 N307 1.279 . S
C306 H347 0.930 . S
N307 C305 1.314 . S
N307 C306 1.279 . S
C308 C310 1.353 . S
C308 N311 1.314 . S
C308 H314 0.930 . S
C309 N311 1.279 . S
C309 C312 1.358 . S
C309 H315 0.930 . S
C310 C308 1.353 . S
C310 C313 1.348 . S
C310 H348 0.929 . S
N311 Li266 1.990 . S
N311 C308 1.314 . S
N311 C309 1.279 . S
C312 C309 1.358 . S
C312 C313 1.356 . S
C312 H349 0.930 . S
C313 C310 1.348 . S
C313 C312 1.356 . S
H314 C308 0.930 . S
H315 C309 0.930 . S
C316 N317 1.314 . S
C316 C318 1.353 . S
C316 H322 0.930 . S
N317 Li267 1.990 . S
N317 C316 1.314 . S
N317 C320 1.279 . S
C318 C316 1.353 . S
C318 C321 1.348 . S
C318 H350 0.929 . S
C319 C320 1.358 . S
C319 C321 1.356 . S
C319 H351 0.930 . S
C320 N317 1.279 . S
C320 C319 1.358 . S
C320 H323 0.930 . S
C321 C318 1.348 . S
C321 C319 1.356 . S
H322 C316 0.930 . S
H323 C320 0.930 . S
O324 Li264 1.956 . S
O324 Li265 1.970 . S
O324 Li266 1.961 . S
O324 C268 1.325 . S
O325 Li264 1.970 . S
O325 Li265 1.956 . S
O325 Li267 1.961 . S
O325 C274 1.325 . S
O326 Li264 1.961 . S
O326 Li266 1.956 . S
O326 Li267 1.970 . S
O326 C296 1.325 . S
O327 Li265 1.961 . S
O327 Li266 1.970 . S
O327 Li267 1.956 . S
O327 C302 1.325 . S
H328 C270 0.929 . S
H329 C271 0.930 . S
H330 C272 0.930 . S
H331 C273 0.930 . S
H332 C275 0.930 . S
H333 C277 0.929 . S
H334 C278 0.930 . S
H335 C279 0.930 . S
H336 C282 0.930 . S
H337 C285 0.929 . S
H338 C290 0.929 . S
H339 C291 0.930 . S
H340 C298 0.929 . S
H341 C299 0.930 . S
H342 C300 0.930 . S
H343 C301 0.930 . S
H344 C303 0.929 . S
H345 C304 0.930 . S
H346 C305 0.930 . S
H347 C306 0.930 . S
H348 C310 0.929 . S
H349 C312 0.930 . S
H350 C318 0.929 . S
H351 C319 0.930 . S
Li352 N369 1.990 . S
Li352 O412 1.956 . S
Li352 O413 1.970 . S
Li352 O414 1.961 1_455 S
Li353 N377 1.990 . S
Li353 O412 1.970 . S
Li353 O413 1.956 . S
Li353 O415 1.961 . S
Li354 N399 1.989 . S
Li354 O412 1.961 . S
Li354 O414 1.956 1_455 S
Li354 O415 1.970 . S
Li355 N405 1.990 . S
Li355 O413 1.961 1_655 S
Li355 O414 1.970 . S
Li355 O415 1.956 1_655 S
C356 C358 1.348 . S
C356 C359 1.356 . S
C356 O412 1.325 . S
N357 C360 1.314 . S
N357 C361 1.279 . S
C358 C356 1.348 . S
C358 C360 1.353 . S
C358 H416 0.929 . S
C359 C356 1.356 . S
C359 C361 1.358 . S
C359 H417 0.930 . S
C360 N357 1.314 . S
C360 C358 1.353 . S
C360 H418 0.930 . S
C361 N357 1.279 . S
C361 C359 1.358 . S
C361 H419 0.930 . S
C362 C365 1.348 . S
C362 C366 1.356 . S
C362 O413 1.325 . S
C363 N364 1.279 . S
C363 C366 1.358 . S
C363 H420 0.930 . S
N364 C363 1.279 . S
N364 C367 1.314 . S
C365 C362 1.348 . S
C365 C367 1.353 . S
C365 H421 0.929 . S
C366 C362 1.356 . S
C366 C363 1.358 . S
C366 H422 0.930 . S
C367 N364 1.314 . S
C367 C365 1.353 . S
C367 H423 0.930 . S
C368 N369 1.314 1_655 S
C368 C373 1.353 . S
C368 H374 0.930 . S
N369 Li352 1.990 . S
N369 C368 1.314 1_455 S
N369 C371 1.279 . S
C370 C371 1.358 . S
C370 C372 1.356 . S
C370 H424 0.930 . S
C371 N369 1.279 . S
C371 C370 1.358 . S
C371 H375 0.930 . S
C372 C370 1.356 . S
C372 C373 1.348 1_455 S
C373 C368 1.353 . S
C373 C372 1.348 1_655 S
C373 H425 0.929 . S
H374 C368 0.930 . S
H375 C371 0.930 . S
C376 N377 1.314 . S
C376 C378 1.353 . S
C376 H382 0.930 . S
N377 Li353 1.990 . S
N377 C376 1.314 . S
N377 C380 1.279 . S
C378 C376 1.353 . S
C378 C381 1.348 . S
C378 H426 0.929 . S
C379 C380 1.358 . S
C379 C381 1.356 . S
C379 H427 0.930 . S
C380 N377 1.279 . S
C380 C379 1.358 . S
C380 H383 0.930 . S
C381 C378 1.348 . S
C381 C379 1.356 . S
H382 C376 0.930 . S
H383 C380 0.930 . S
C384 C386 1.348 . S
C384 C387 1.356 . S
C384 O414 1.325 . S
N385 C388 1.314 . S
N385 C389 1.279 . S
C386 C384 1.348 . S
C386 C388 1.353 . S
C386 H428 0.929 . S
C387 C384 1.356 . S
C387 C389 1.358 . S
C387 H429 0.930 . S
C388 N385 1.314 . S
C388 C386 1.353 . S
C388 H430 0.930 . S
C389 N385 1.279 . S
C389 C387 1.358 . S
C389 H431 0.930 . S
C390 C391 1.348 1_455 S
C390 C392 1.356 . S
C390 O415 1.325 . S
C391 C390 1.348 1_655 S
C391 C393 1.353 . S
C391 H432 0.929 . S
C392 C390 1.356 . S
C392 C394 1.358 . S
C392 H433 0.930 . S
C393 C391 1.353 . S
C393 N395 1.314 1_655 S
C393 H434 0.930 . S
C394 C392 1.358 . S
C394 N395 1.279 . S
C394 H435 0.930 . S
N395 C393 1.314 1_455 S
N395 C394 1.279 . S
C396 C398 1.353 . S
C396 N399 1.326 . S
C396 H402 0.930 . S
C397 N399 1.270 1_655 S
C397 C400 1.358 . S
C397 H403 0.930 . S
C398 C396 1.353 . S
C398 C401 1.348 1_455 S
C398 H436 0.929 . S
N399 Li354 1.989 . S
N399 C396 1.326 . S
N399 C397 1.270 1_455 S
C400 C397 1.358 . S
C400 C401 1.356 . S
C400 H437 0.930 . S
C401 C398 1.348 1_655 S
C401 C400 1.356 . S
H402 C396 0.930 . S
H403 C397 0.930 . S
C404 N405 1.314 . S
C404 C406 1.353 . S
C404 H410 0.930 . S
N405 Li355 1.990 . S
N405 C404 1.314 . S
N405 C408 1.279 . S
C406 C404 1.353 . S
C406 C409 1.348 . S
C406 H438 0.929 . S
C407 C408 1.358 . S
C407 C409 1.356 . S
C407 H439 0.930 . S
C408 N405 1.279 . S
C408 C407 1.358 . S
C408 H411 0.930 . S
C409 C406 1.348 . S
C409 C407 1.356 . S
H410 C404 0.930 . S
H411 C408 0.930 . S
O412 Li352 1.956 . S
O412 Li353 1.970 . S
O412 Li354 1.961 . S
O412 C356 1.325 . S
O413 Li352 1.970 . S
O413 Li353 1.956 . S
O413 Li355 1.961 1_455 S
O413 C362 1.325 . S
O414 Li352 1.961 1_655 S
O414 Li354 1.956 1_655 S
O414 Li355 1.970 . S
O414 C384 1.325 . S
O415 Li353 1.961 . S
O415 Li354 1.970 . S
O415 Li355 1.956 1_455 S
O415 C390 1.325 . S
H416 C358 0.929 . S
H417 C359 0.930 . S
H418 C360 0.930 . S
H419 C361 0.930 . S
H420 C363 0.930 . S
H421 C365 0.929 . S
H422 C366 0.930 . S
H423 C367 0.930 . S
H424 C370 0.930 . S
H425 C373 0.929 . S
H426 C378 0.929 . S
H427 C379 0.930 . S
H428 C386 0.929 . S
H429 C387 0.930 . S
H430 C388 0.930 . S
H431 C389 0.930 . S
H432 C391 0.929 . S
H433 C392 0.930 . S
H434 C393 0.930 . S
H435 C394 0.930 . S
H436 C398 0.929 . S
H437 C400 0.930 . S
H438 C406 0.929 . S
H439 C407 0.930 . S
Li440 N457 1.990 . S
Li440 O500 1.956 . S
Li440 O501 1.970 . S
Li440 O502 1.961 . S
Li441 N465 1.990 . S
Li441 O500 1.970 . S
Li441 O501 1.956 . S
Li441 O503 1.961 . S
Li442 N487 1.990 . S
Li442 O500 1.961 . S
Li442 O502 1.956 . S
Li442 O503 1.970 . S
Li443 N493 1.990 . S
Li443 O501 1.961 . S
Li443 O502 1.970 . S
Li443 O503 1.956 . S
C444 C446 1.348 . S
C444 C447 1.356 . S
C444 O500 1.325 . S
N445 C448 1.314 . S
N445 C449 1.279 . S
C446 C444 1.348 . S
C446 C448 1.353 . S
C446 H504 0.929 . S
C447 C444 1.356 . S
C447 C449 1.358 . S
C447 H505 0.930 . S
C448 N445 1.314 . S
C448 C446 1.353 . S
C448 H506 0.930 . S
C449 N445 1.279 . S
C449 C447 1.358 . S
C449 H507 0.930 . S
C450 C453 1.348 . S
C450 C454 1.356 . S
C450 O501 1.325 . S
C451 N452 1.279 . S
C451 C454 1.358 . S
C451 H508 0.930 . S
N452 C451 1.279 . S
N452 C455 1.314 . S
C453 C450 1.348 . S
C453 C455 1.353 . S
C453 H509 0.929 . S
C454 C450 1.356 . S
C454 C451 1.358 . S
C454 H510 0.930 . S
C455 N452 1.314 . S
C455 C453 1.353 . S
C455 H511 0.930 . S
C456 N457 1.314 . S
C456 C461 1.353 . S
C456 H462 0.930 . S
N457 Li440 1.990 . S
N457 C456 1.314 . S
N457 C459 1.279 . S
C458 C459 1.358 . S
C458 C460 1.356 . S
C458 H512 0.930 . S
C459 N457 1.279 . S
C459 C458 1.358 . S
C459 H463 0.930 . S
C460 C458 1.356 . S
C460 C461 1.348 . S
C461 C456 1.353 . S
C461 C460 1.348 . S
C461 H513 0.929 . S
H462 C456 0.930 . S
H463 C459 0.930 . S
C464 N465 1.314 . S
C464 C466 1.353 . S
C464 H470 0.930 . S
N465 Li441 1.990 . S
N465 C464 1.314 . S
N465 C468 1.279 . S
C466 C464 1.353 . S
C466 C469 1.348 . S
C466 H514 0.929 . S
C467 C468 1.358 . S
C467 C469 1.356 . S
C467 H515 0.930 . S
C468 N465 1.279 . S
C468 C467 1.358 . S
C468 H471 0.930 . S
C469 C466 1.348 . S
C469 C467 1.356 . S
H470 C464 0.930 . S
H471 C468 0.930 . S
C472 C474 1.348 . S
C472 C475 1.356 . S
C472 O502 1.325 . S
N473 C476 1.314 . S
N473 C477 1.279 . S
C474 C472 1.348 . S
C474 C476 1.353 . S
C474 H516 0.929 . S
C475 C472 1.356 . S
C475 C477 1.358 . S
C475 H517 0.930 . S
C476 N473 1.314 . S
C476 C474 1.353 . S
C476 H518 0.930 . S
C477 N473 1.279 . S
C477 C475 1.358 . S
C477 H519 0.930 . S
C478 C479 1.348 . S
C478 C480 1.356 . S
C478 O503 1.325 . S
C479 C478 1.348 . S
C479 C481 1.353 . S
C479 H520 0.929 . S
C480 C478 1.356 . S
C480 C482 1.358 . S
C480 H521 0.930 . S
C481 C479 1.353 . S
C481 N483 1.314 . S
C481 H522 0.930 . S
C482 C480 1.358 . S
C482 N483 1.279 . S
C482 H523 0.930 . S
N483 C481 1.314 . S
N483 C482 1.279 . S
C484 C486 1.353 . S
C484 N487 1.314 . S
C484 H490 0.930 . S
C485 N487 1.279 . S
C485 C488 1.358 . S
C485 H491 0.930 . S
C486 C484 1.353 . S
C486 C489 1.348 . S
C486 H524 0.929 . S
N487 Li442 1.990 . S
N487 C484 1.314 . S
N487 C485 1.279 . S
C488 C485 1.358 . S
C488 C489 1.356 . S
C488 H525 0.930 . S
C489 C486 1.348 . S
C489 C488 1.356 . S
H490 C484 0.930 . S
H491 C485 0.930 . S
C492 N493 1.314 . S
C492 C494 1.353 . S
C492 H498 0.930 . S
N493 Li443 1.990 . S
N493 C492 1.314 . S
N493 C496 1.279 . S
C494 C492 1.353 . S
C494 C497 1.348 . S
C494 H526 0.929 . S
C495 C496 1.358 . S
C495 C497 1.356 . S
C495 H527 0.930 . S
C496 N493 1.279 . S
C496 C495 1.358 . S
C496 H499 0.930 . S
C497 C494 1.348 . S
C497 C495 1.356 . S
H498 C492 0.930 . S
H499 C496 0.930 . S
O500 Li440 1.956 . S
O500 Li441 1.970 . S
O500 Li442 1.961 . S
O500 C444 1.325 . S
O501 Li440 1.970 . S
O501 Li441 1.956 . S
O501 Li443 1.961 . S
O501 C450 1.325 . S
O502 Li440 1.961 . S
O502 Li442 1.956 . S
O502 Li443 1.970 . S
O502 C472 1.325 . S
O503 Li441 1.961 . S
O503 Li442 1.970 . S
O503 Li443 1.956 . S
O503 C478 1.325 . S
H504 C446 0.929 . S
H505 C447 0.930 . S
H506 C448 0.930 . S
H507 C449 0.930 . S
H508 C451 0.930 . S
H509 C453 0.929 . S
H510 C454 0.930 . S
H511 C455 0.930 . S
H512 C458 0.930 . S
H513 C461 0.929 . S
H514 C466 0.929 . S
H515 C467 0.930 . S
H516 C474 0.929 . S
H517 C475 0.930 . S
H518 C476 0.930 . S
H519 C477 0.930 . S
H520 C479 0.929 . S
H521 C480 0.930 . S
H522 C481 0.930 . S
H523 C482 0.930 . S
H524 C486 0.929 . S
H525 C488 0.930 . S
H526 C494 0.929 . S
H527 C495 0.930 . S
Li528 N545 1.990 . S
Li528 O588 1.956 . S
Li528 O589 1.970 . S
Li528 O590 1.961 . S
Li529 N553 1.990 . S
Li529 O588 1.970 . S
Li529 O589 1.956 . S
Li529 O591 1.961 . S
Li530 N575 1.990 . S
Li530 O588 1.961 . S
Li530 O590 1.956 . S
Li530 O591 1.970 . S
Li531 N581 1.990 . S
Li531 O589 1.961 . S
Li531 O590 1.970 . S
Li531 O591 1.956 . S
C532 C534 1.348 . S
C532 C535 1.356 . S
C532 O588 1.325 . S
N533 C536 1.314 . S
N533 C537 1.279 . S
C534 C532 1.348 . S
C534 C536 1.353 . S
C534 H592 0.929 . S
C535 C532 1.356 . S
C535 C537 1.358 . S
C535 H593 0.930 . S
C536 N533 1.314 . S
C536 C534 1.353 . S
C536 H594 0.930 . S
C537 N533 1.279 . S
C537 C535 1.358 . S
C537 H595 0.930 . S
C538 C541 1.348 . S
C538 C542 1.356 . S
C538 O589 1.325 . S
C539 N540 1.279 . S
C539 C542 1.358 . S
C539 H596 0.930 . S
N540 C539 1.279 . S
N540 C543 1.314 . S
C541 C538 1.348 . S
C541 C543 1.353 . S
C541 H597 0.929 . S
C542 C538 1.356 . S
C542 C539 1.358 . S
C542 H598 0.930 . S
C543 N540 1.314 . S
C543 C541 1.353 . S
C543 H599 0.930 . S
C544 N545 1.314 . S
C544 C549 1.353 . S
C544 H550 0.930 . S
N545 Li528 1.990 . S
N545 C544 1.314 . S
N545 C547 1.279 . S
C546 C547 1.358 . S
C546 C548 1.356 . S
C546 H600 0.930 . S
C547 N545 1.279 . S
C547 C546 1.358 . S
C547 H551 0.930 . S
C548 C546 1.356 . S
C548 C549 1.348 . S
C549 C544 1.353 . S
C549 C548 1.348 . S
C549 H601 0.929 . S
H550 C544 0.930 . S
H551 C547 0.930 . S
C552 N553 1.314 . S
C552 C554 1.353 . S
C552 H558 0.930 . S
N553 Li529 1.990 . S
N553 C552 1.314 . S
N553 C556 1.279 . S
C554 C552 1.353 . S
C554 C557 1.348 . S
C554 H602 0.929 . S
C555 C556 1.358 . S
C555 C557 1.356 . S
C555 H603 0.930 . S
C556 N553 1.279 . S
C556 C555 1.358 . S
C556 H559 0.930 . S
C557 C554 1.348 . S
C557 C555 1.356 . S
H558 C552 0.930 . S
H559 C556 0.930 . S
C560 C562 1.348 . S
C560 C563 1.356 . S
C560 O590 1.325 . S
N561 C564 1.314 . S
N561 C565 1.279 . S
C562 C560 1.348 . S
C562 C564 1.353 . S
C562 H604 0.929 . S
C563 C560 1.356 . S
C563 C565 1.358 . S
C563 H605 0.930 . S
C564 N561 1.314 . S
C564 C562 1.353 . S
C564 H606 0.930 . S
C565 N561 1.279 . S
C565 C563 1.358 . S
C565 H607 0.930 . S
C566 C567 1.348 . S
C566 C568 1.356 . S
C566 O591 1.325 . S
C567 C566 1.348 . S
C567 C569 1.353 . S
C567 H608 0.929 . S
C568 C566 1.356 . S
C568 C570 1.358 . S
C568 H609 0.930 . S
C569 C567 1.353 . S
C569 N571 1.314 . S
C569 H610 0.930 . S
C570 C568 1.358 . S
C570 N571 1.279 . S
C570 H611 0.930 . S
N571 C569 1.314 . S
N571 C570 1.279 . S
C572 C574 1.353 . S
C572 N575 1.314 . S
C572 H578 0.930 . S
C573 N575 1.279 . S
C573 C576 1.358 . S
C573 H579 0.930 . S
C574 C572 1.353 . S
C574 C577 1.348 . S
C574 H612 0.929 . S
N575 Li530 1.990 . S
N575 C572 1.314 . S
N575 C573 1.279 . S
C576 C573 1.358 . S
C576 C577 1.356 . S
C576 H613 0.930 . S
C577 C574 1.348 . S
C577 C576 1.356 . S
H578 C572 0.930 . S
H579 C573 0.930 . S
C580 N581 1.314 . S
C580 C582 1.353 . S
C580 H586 0.930 . S
N581 Li531 1.990 . S
N581 C580 1.314 . S
N581 C584 1.279 . S
C582 C580 1.353 . S
C582 C585 1.348 . S
C582 H614 0.929 . S
C583 C584 1.358 . S
C583 C585 1.356 . S
C583 H615 0.930 . S
C584 N581 1.279 . S
C584 C583 1.358 . S
C584 H587 0.930 . S
C585 C582 1.348 . S
C585 C583 1.356 . S
H586 C580 0.930 . S
H587 C584 0.930 . S
O588 Li528 1.956 . S
O588 Li529 1.970 . S
O588 Li530 1.961 . S
O588 C532 1.325 . S
O589 Li528 1.970 . S
O589 Li529 1.956 . S
O589 Li531 1.961 . S
O589 C538 1.325 . S
O590 Li528 1.961 . S
O590 Li530 1.956 . S
O590 Li531 1.970 . S
O590 C560 1.325 . S
O591 Li529 1.961 . S
O591 Li530 1.970 . S
O591 Li531 1.956 . S
O591 C566 1.325 . S
H592 C534 0.929 . S
H593 C535 0.930 . S
H594 C536 0.930 . S
H595 C537 0.930 . S
H596 C539 0.930 . S
H597 C541 0.929 . S
H598 C542 0.930 . S
H599 C543 0.930 . S
H600 C546 0.930 . S
H601 C549 0.929 . S
H602 C554 0.929 . S
H603 C555 0.930 . S
H604 C562 0.929 . S
H605 C563 0.930 . S
H606 C564 0.930 . S
H607 C565 0.930 . S
H608 C567 0.929 . S
H609 C568 0.930 . S
H610 C569 0.930 . S
H611 C570 0.930 . S
H612 C574 0.929 . S
H613 C576 0.930 . S
H614 C582 0.929 . S
H615 C583 0.930 . S
Li616 N633 1.990 . S
Li616 O676 1.956 1_455 S
Li616 O677 1.970 . S
Li616 O678 1.961 . S
Li617 N641 1.990 . S
Li617 O676 1.970 . S
Li617 O677 1.956 1_655 S
Li617 O679 1.961 1_655 S
Li618 N663 1.990 . S
Li618 O676 1.961 1_455 S
Li618 O678 1.956 . S
Li618 O679 1.970 . S
Li619 N669 1.990 . S
Li619 O677 1.961 . S
Li619 O678 1.970 . S
Li619 O679 1.956 . S
C620 C622 1.348 . S
C620 C623 1.356 . S
C620 O676 1.325 . S
N621 C624 1.314 . S
N621 C625 1.279 . S
C622 C620 1.348 . S
C622 C624 1.353 . S
C622 H680 0.929 . S
C623 C620 1.356 . S
C623 C625 1.358 . S
C623 H681 0.930 . S
C624 N621 1.314 . S
C624 C622 1.353 . S
C624 H682 0.930 . S
C625 N621 1.279 . S
C625 C623 1.358 . S
C625 H683 0.930 . S
C626 C629 1.348 . S
C626 C630 1.356 . S
C626 O677 1.325 . S
C627 N628 1.279 . S
C627 C630 1.358 . S
C627 H684 0.930 . S
N628 C627 1.279 . S
N628 C631 1.314 . S
C629 C626 1.348 . S
C629 C631 1.353 . S
C629 H685 0.929 . S
C630 C626 1.356 . S
C630 C627 1.358 . S
C630 H686 0.930 . S
C631 N628 1.314 . S
C631 C629 1.353 . S
C631 H687 0.930 . S
C632 N633 1.314 . S
C632 C637 1.353 . S
C632 H638 0.930 . S
N633 Li616 1.990 . S
N633 C632 1.314 . S
N633 C635 1.261 1_455 S
C634 C635 1.361 1_455 S
C634 C636 1.356 . S
C634 H688 0.930 1_455 S
C635 N633 1.261 1_655 S
C635 C634 1.361 1_655 S
C635 H639 0.948 . S
C636 C634 1.356 . S
C636 C637 1.348 . S
C637 C632 1.353 . S
C637 C636 1.348 . S
C637 H689 0.929 . S
H638 C632 0.930 . S
H639 C635 0.948 . S
C640 N641 1.314 . S
C640 C642 1.353 . S
C640 H646 0.930 . S
N641 Li617 1.990 . S
N641 C640 1.314 . S
N641 C644 1.279 . S
C642 C640 1.353 . S
C642 C645 1.348 . S
C642 H690 0.929 . S
C643 C644 1.358 . S
C643 C645 1.356 . S
C643 H691 0.930 . S
C644 N641 1.279 . S
C644 C643 1.358 . S
C644 H647 0.930 . S
C645 C642 1.348 . S
C645 C643 1.356 . S
H646 C640 0.930 . S
H647 C644 0.930 . S
C648 C650 1.348 . S
C648 C651 1.356 . S
C648 O678 1.325 . S
N649 C652 1.314 . S
N649 C653 1.279 . S
C650 C648 1.348 . S
C650 C652 1.353 . S
C650 H692 0.929 . S
C651 C648 1.356 . S
C651 C653 1.358 . S
C651 H693 0.930 . S
C652 N649 1.314 . S
C652 C650 1.353 . S
C652 H694 0.930 . S
C653 N649 1.279 . S
C653 C651 1.358 . S
C653 H695 0.930 . S
C654 C655 1.348 . S
C654 C656 1.356 1_455 S
C654 O679 1.325 . S
C655 C654 1.348 . S
C655 C657 1.353 . S
C655 H696 0.929 . S
C656 C654 1.356 1_655 S
C656 C658 1.358 . S
C656 H697 0.930 . S
C657 C655 1.353 . S
C657 N659 1.319 . S
C657 H698 0.930 . S
C658 C656 1.358 . S
C658 N659 1.272 1_655 S
C658 H699 0.930 . S
N659 C657 1.319 . S
N659 C658 1.272 1_455 S
C660 C662 1.353 . S
C660 N663 1.314 1_655 S
C660 H666 0.930 . S
C661 N663 1.279 . S
C661 C664 1.358 . S
C661 H667 0.930 . S
C662 C660 1.353 . S
C662 C665 1.348 1_655 S
C662 H700 0.929 . S
N663 Li618 1.990 . S
N663 C660 1.314 1_455 S
N663 C661 1.279 . S
C664 C661 1.358 . S
C664 C665 1.356 . S
C664 H701 0.930 . S
C665 C662 1.348 1_455 S
C665 C664 1.356 . S
H666 C660 0.930 . S
H667 C661 0.930 . S
C668 N669 1.314 . S
C668 C670 1.353 . S
C668 H674 0.930 . S
N669 Li619 1.990 . S
N669 C668 1.314 . S
N669 C672 1.279 . S
C670 C668 1.353 . S
C670 C673 1.348 . S
C670 H702 0.929 . S
C671 C672 1.358 . S
C671 C673 1.356 . S
C671 H703 0.930 . S
C672 N669 1.279 . S
C672 C671 1.358 . S
C672 H675 0.930 . S
C673 C670 1.348 . S
C673 C671 1.356 . S
H674 C668 0.930 . S
H675 C672 0.930 . S
O676 Li616 1.956 1_655 S
O676 Li617 1.970 . S
O676 Li618 1.961 1_655 S
O676 C620 1.325 . S
O677 Li616 1.970 . S
O677 Li617 1.956 1_455 S
O677 Li619 1.961 . S
O677 C626 1.325 . S
O678 Li616 1.961 . S
O678 Li618 1.956 . S
O678 Li619 1.970 . S
O678 C648 1.325 . S
O679 Li617 1.961 1_455 S
O679 Li618 1.970 . S
O679 Li619 1.956 . S
O679 C654 1.325 . S
H680 C622 0.929 . S
H681 C623 0.930 . S
H682 C624 0.930 . S
H683 C625 0.930 . S
H684 C627 0.930 . S
H685 C629 0.929 . S
H686 C630 0.930 . S
H687 C631 0.930 . S
H688 C634 0.930 1_655 S
H689 C637 0.929 . S
H690 C642 0.929 . S
H691 C643 0.930 . S
H692 C650 0.929 . S
H693 C651 0.930 . S
H694 C652 0.930 . S
H695 C653 0.930 . S
H696 C655 0.929 . S
H697 C656 0.930 . S
H698 C657 0.930 . S
H699 C658 0.930 . S
H700 C662 0.929 . S
H701 C664 0.930 . S
H702 C670 0.929 . S
H703 C671 0.930 . S
Li704 N721 1.990 . S
Li704 O764 1.956 . S
Li704 O765 1.970 . S
Li704 O766 1.961 . S
Li705 N729 1.990 1_545 S
Li705 O764 1.970 . S
Li705 O765 1.956 . S
Li705 O767 1.961 . S
Li706 N751 1.990 . S
Li706 O764 1.961 . S
Li706 O766 1.956 . S
Li706 O767 1.970 . S
Li707 N757 1.990 . S
Li707 O765 1.961 . S
Li707 O766 1.970 . S
Li707 O767 1.956 . S
C708 C710 1.348 1_545 S
C708 C711 1.356 . S
C708 O764 1.325 . S
N709 C712 1.314 . S
N709 C713 1.279 . S
C710 C708 1.348 1_565 S
C710 C712 1.353 . S
C710 H768 0.929 . S
C711 C708 1.356 . S
C711 C713 1.358 1_545 S
C711 H769 0.930 . S
C712 N709 1.314 . S
C712 C710 1.353 . S
C712 H770 0.930 . S
C713 N709 1.279 . S
C713 C711 1.358 1_565 S
C713 H771 0.930 . S
C714 C717 1.348 . S
C714 C718 1.356 . S
C714 O765 1.325 . S
C715 N716 1.279 . S
C715 C718 1.358 . S
C715 H772 0.930 . S
N716 C715 1.279 . S
N716 C719 1.314 . S
C717 C714 1.348 . S
C717 C719 1.353 . S
C717 H773 0.929 . S
C718 C714 1.356 . S
C718 C715 1.358 . S
C718 H774 0.930 . S
C719 N716 1.314 . S
C719 C717 1.353 . S
C719 H775 0.930 . S
C720 N721 1.314 . S
C720 C725 1.353 . S
C720 H726 0.930 . S
N721 Li704 1.990 . S
N721 C720 1.314 . S
N721 C723 1.279 . S
C722 C723 1.358 . S
C722 C724 1.356 . S
C722 H776 0.930 . S
C723 N721 1.279 . S
C723 C722 1.358 . S
C723 H727 0.930 . S
C724 C722 1.356 . S
C724 C725 1.348 . S
C725 C720 1.353 . S
C725 C724 1.348 . S
C725 H777 0.929 . S
H726 C720 0.930 . S
H727 C723 0.930 . S
C728 N729 1.314 . S
C728 C730 1.353 . S
C728 H734 0.930 . S
N729 Li705 1.990 1_565 S
N729 C728 1.314 . S
N729 C732 1.279 . S
C730 C728 1.353 . S
C730 C733 1.348 . S
C730 H778 0.929 . S
C731 C732 1.358 . S
C731 C733 1.356 . S
C731 H779 0.930 . S
C732 N729 1.279 . S
C732 C731 1.358 . S
C732 H735 0.930 . S
C733 C730 1.348 . S
C733 C731 1.356 . S
H734 C728 0.930 . S
H735 C732 0.930 . S
C736 C738 1.348 . S
C736 C739 1.356 . S
C736 O766 1.325 . S
N737 C740 1.314 . S
N737 C741 1.279 . S
C738 C736 1.348 . S
C738 C740 1.353 . S
C738 H780 0.929 . S
C739 C736 1.356 . S
C739 C741 1.358 . S
C739 H781 0.930 . S
C740 N737 1.314 . S
C740 C738 1.353 . S
C740 H782 0.930 . S
C741 N737 1.279 . S
C741 C739 1.358 . S
C741 H783 0.930 . S
C742 C743 1.348 . S
C742 C744 1.356 . S
C742 O767 1.325 . S
C743 C742 1.348 . S
C743 C745 1.353 . S
C743 H784 0.929 . S
C744 C742 1.356 . S
C744 C746 1.358 . S
C744 H785 0.930 . S
C745 C743 1.353 . S
C745 N747 1.314 . S
C745 H786 0.930 . S
C746 C744 1.358 . S
C746 N747 1.279 . S
C746 H787 0.930 . S
N747 C745 1.314 . S
N747 C746 1.279 . S
C748 C750 1.353 . S
C748 N751 1.314 . S
C748 H754 0.930 . S
C749 N751 1.279 . S
C749 C752 1.358 . S
C749 H755 0.930 . S
C750 C748 1.353 . S
C750 C753 1.348 . S
C750 H788 0.929 . S
N751 Li706 1.990 . S
N751 C748 1.314 . S
N751 C749 1.279 . S
C752 C749 1.358 . S
C752 C753 1.356 . S
C752 H789 0.930 . S
C753 C750 1.348 . S
C753 C752 1.356 . S
H754 C748 0.930 . S
H755 C749 0.930 . S
C756 N757 1.314 . S
C756 C758 1.353 . S
C756 H762 0.930 . S
N757 Li707 1.990 . S
N757 C756 1.314 . S
N757 C760 1.279 . S
C758 C756 1.353 . S
C758 C761 1.348 . S
C758 H790 0.929 . S
C759 C760 1.358 . S
C759 C761 1.356 . S
C759 H791 0.930 . S
C760 N757 1.279 . S
C760 C759 1.358 . S
C760 H763 0.930 . S
C761 C758 1.348 . S
C761 C759 1.356 . S
H762 C756 0.930 . S
H763 C760 0.930 . S
O764 Li704 1.956 . S
O764 Li705 1.970 . S
O764 Li706 1.961 . S
O764 C708 1.325 . S
O765 Li704 1.970 . S
O765 Li705 1.956 . S
O765 Li707 1.961 . S
O765 C714 1.325 . S
O766 Li704 1.961 . S
O766 Li706 1.956 . S
O766 Li707 1.970 . S
O766 C736 1.325 . S
O767 Li705 1.961 . S
O767 Li706 1.970 . S
O767 Li707 1.956 . S
O767 C742 1.325 . S
H768 C710 0.929 . S
H769 C711 0.930 . S
H770 C712 0.930 . S
H771 C713 0.930 . S
H772 C715 0.930 . S
H773 C717 0.929 . S
H774 C718 0.930 . S
H775 C719 0.930 . S
H776 C722 0.930 . S
H777 C725 0.929 . S
H778 C730 0.929 . S
H779 C731 0.930 . S
H780 C738 0.929 . S
H781 C739 0.930 . S
H782 C740 0.930 . S
H783 C741 0.930 . S
H784 C743 0.929 . S
H785 C744 0.930 . S
H786 C745 0.930 . S
H787 C746 0.930 . S
H788 C750 0.929 . S
H789 C752 0.930 . S
H790 C758 0.929 . S
H791 C759 0.930 . S
Li792 N809 1.990 . S
Li792 O852 1.956 . S
Li792 O853 1.970 . S
Li792 O854 1.961 . S
Li793 N817 1.990 . S
Li793 O852 1.970 . S
Li793 O853 1.956 . S
Li793 O855 1.961 . S
Li794 N839 1.990 . S
Li794 O852 1.961 . S
Li794 O854 1.956 . S
Li794 O855 1.970 . S
Li795 N845 1.990 . S
Li795 O853 1.961 . S
Li795 O854 1.970 . S
Li795 O855 1.956 . S
C796 C798 1.348 . S
C796 C799 1.356 . S
C796 O852 1.325 . S
N797 C800 1.314 . S
N797 C801 1.279 . S
C798 C796 1.348 . S
C798 C800 1.353 . S
C798 H856 0.929 . S
C799 C796 1.356 . S
C799 C801 1.358 . S
C799 H857 0.930 . S
C800 N797 1.314 . S
C800 C798 1.353 . S
C800 H858 0.930 . S
C801 N797 1.279 . S
C801 C799 1.358 . S
C801 H859 0.930 . S
C802 C805 1.348 . S
C802 C806 1.356 . S
C802 O853 1.325 . S
C803 N804 1.279 . S
C803 C806 1.358 . S
C803 H860 0.930 . S
N804 C803 1.279 . S
N804 C807 1.314 . S
C805 C802 1.348 . S
C805 C807 1.353 . S
C805 H861 0.929 . S
C806 C802 1.356 . S
C806 C803 1.358 . S
C806 H862 0.930 . S
C807 N804 1.314 . S
C807 C805 1.353 . S
C807 H863 0.930 . S
C808 N809 1.314 . S
C808 C813 1.353 . S
C808 H814 0.930 . S
N809 Li792 1.990 . S
N809 C808 1.314 . S
N809 C811 1.279 . S
C810 C811 1.358 . S
C810 C812 1.356 . S
C810 H864 0.930 . S
C811 N809 1.279 . S
C811 C810 1.358 . S
C811 H815 0.930 . S
C812 C810 1.356 . S
C812 C813 1.348 . S
C813 C808 1.353 . S
C813 C812 1.348 . S
C813 H865 0.929 . S
H814 C808 0.930 . S
H815 C811 0.930 . S
C816 N817 1.314 . S
C816 C818 1.353 . S
C816 H822 0.930 . S
N817 Li793 1.990 . S
N817 C816 1.314 . S
N817 C820 1.279 . S
C818 C816 1.353 . S
C818 C821 1.348 . S
C818 H866 0.929 . S
C819 C820 1.358 . S
C819 C821 1.356 . S
C819 H867 0.930 . S
C820 N817 1.279 . S
C820 C819 1.358 . S
C820 H823 0.930 . S
C821 C818 1.348 . S
C821 C819 1.356 . S
H822 C816 0.930 . S
H823 C820 0.930 . S
C824 C826 1.348 . S
C824 C827 1.356 . S
C824 O854 1.325 . S
N825 C828 1.314 . S
N825 C829 1.279 . S
C826 C824 1.348 . S
C826 C828 1.353 . S
C826 H868 0.929 . S
C827 C824 1.356 . S
C827 C829 1.358 . S
C827 H869 0.930 . S
C828 N825 1.314 . S
C828 C826 1.353 . S
C828 H870 0.930 . S
C829 N825 1.279 . S
C829 C827 1.358 . S
C829 H871 0.930 . S
C830 C831 1.348 . S
C830 C832 1.356 . S
C830 O855 1.325 . S
C831 C830 1.348 . S
C831 C833 1.353 . S
C831 H872 0.929 . S
C832 C830 1.356 . S
C832 C834 1.358 . S
C832 H873 0.930 . S
C833 C831 1.353 . S
C833 N835 1.314 . S
C833 H874 0.930 . S
C834 C832 1.358 . S
C834 N835 1.279 . S
C834 H875 0.930 . S
N835 C833 1.314 . S
N835 C834 1.279 . S
C836 C838 1.353 . S
C836 N839 1.314 . S
C836 H842 0.930 . S
C837 N839 1.279 . S
C837 C840 1.358 . S
C837 H843 0.930 . S
C838 C836 1.353 . S
C838 C841 1.348 . S
C838 H876 0.929 . S
N839 Li794 1.990 . S
N839 C836 1.314 . S
N839 C837 1.279 . S
C840 C837 1.358 . S
C840 C841 1.356 . S
C840 H877 0.930 . S
C841 C838 1.348 . S
C841 C840 1.356 . S
H842 C836 0.930 . S
H843 C837 0.930 . S
C844 N845 1.314 . S
C844 C846 1.353 . S
C844 H850 0.930 . S
N845 Li795 1.990 . S
N845 C844 1.314 . S
N845 C848 1.279 . S
C846 C844 1.353 . S
C846 C849 1.348 . S
C846 H878 0.929 . S
C847 C848 1.358 . S
C847 C849 1.356 . S
C847 H879 0.930 . S
C848 N845 1.279 . S
C848 C847 1.358 . S
C848 H851 0.930 . S
C849 C846 1.348 . S
C849 C847 1.356 . S
H850 C844 0.930 . S
H851 C848 0.930 . S
O852 Li792 1.956 . S
O852 Li793 1.970 . S
O852 Li794 1.961 . S
O852 C796 1.325 . S
O853 Li792 1.970 . S
O853 Li793 1.956 . S
O853 Li795 1.961 . S
O853 C802 1.325 . S
O854 Li792 1.961 . S
O854 Li794 1.956 . S
O854 Li795 1.970 . S
O854 C824 1.325 . S
O855 Li793 1.961 . S
O855 Li794 1.970 . S
O855 Li795 1.956 . S
O855 C830 1.325 . S
H856 C798 0.929 . S
H857 C799 0.930 . S
H858 C800 0.930 . S
H859 C801 0.930 . S
H860 C803 0.930 . S
H861 C805 0.929 . S
H862 C806 0.930 . S
H863 C807 0.930 . S
H864 C810 0.930 . S
H865 C813 0.929 . S
H866 C818 0.929 . S
H867 C819 0.930 . S
H868 C826 0.929 . S
H869 C827 0.930 . S
H870 C828 0.930 . S
H871 C829 0.930 . S
H872 C831 0.929 . S
H873 C832 0.930 . S
H874 C833 0.930 . S
H875 C834 0.930 . S
H876 C838 0.929 . S
H877 C840 0.930 . S
H878 C846 0.929 . S
H879 C847 0.930 . S
Li880 N897 1.990 . S
Li880 O940 1.956 . S
Li880 O941 1.970 . S
Li880 O942 1.961 . S
Li881 N905 1.990 . S
Li881 O940 1.971 1_565 S
Li881 O941 1.951 1_565 S
Li881 O943 1.966 . S
Li882 N927 1.990 . S
Li882 O940 1.961 1_565 S
Li882 O942 1.956 1_565 S
Li882 O943 1.970 . S
Li883 N933 1.990 . S
Li883 O941 1.961 1_565 S
Li883 O942 1.970 1_565 S
Li883 O943 1.956 . S
C884 C886 1.348 . S
C884 C887 1.356 . S
C884 O940 1.325 . S
N885 C888 1.314 . S
N885 C889 1.279 . S
C886 C884 1.348 . S
C886 C888 1.353 . S
C886 H944 0.929 . S
C887 C884 1.356 . S
C887 C889 1.358 . S
C887 H945 0.930 . S
C888 N885 1.314 . S
C888 C886 1.353 . S
C888 H946 0.930 . S
C889 N885 1.279 . S
C889 C887 1.358 . S
C889 H947 0.930 . S
C890 C893 1.348 . S
C890 C894 1.356 . S
C890 O941 1.325 . S
C891 N892 1.279 . S
C891 C894 1.358 . S
C891 H948 0.930 . S
N892 C891 1.279 . S
N892 C895 1.314 . S
C893 C890 1.348 . S
C893 C895 1.353 . S
C893 H949 0.929 . S
C894 C890 1.356 . S
C894 C891 1.358 . S
C894 H950 0.930 . S
C895 N892 1.314 . S
C895 C893 1.353 . S
C895 H951 0.930 . S
C896 N897 1.314 . S
C896 C901 1.353 . S
C896 H902 0.930 . S
N897 Li880 1.990 . S
N897 C896 1.314 . S
N897 C899 1.279 . S
C898 C899 1.358 . S
C898 C900 1.356 . S
C898 H952 0.930 . S
C899 N897 1.279 . S
C899 C898 1.358 . S
C899 H903 0.930 . S
C900 C898 1.356 . S
C900 C901 1.348 . S
C901 C896 1.353 . S
C901 C900 1.348 . S
C901 H953 0.929 . S
H902 C896 0.930 . S
H903 C899 0.930 . S
C904 N905 1.314 . S
C904 C906 1.353 . S
C904 H910 0.930 . S
N905 Li881 1.990 . S
N905 C904 1.314 . S
N905 C908 1.279 1_565 S
C906 C904 1.353 . S
C906 C909 1.348 . S
C906 H954 0.929 . S
C907 C908 1.358 . S
C907 C909 1.356 1_545 S
C907 H955 0.930 . S
C908 N905 1.279 1_545 S
C908 C907 1.358 . S
C908 H911 0.930 . S
C909 C906 1.348 . S
C909 C907 1.356 1_565 S
H910 C904 0.930 . S
H911 C908 0.930 . S
C912 C914 1.348 1_545 S
C912 C915 1.356 . S
C912 O942 1.325 . S
N913 C916 1.314 1_545 S
N913 C917 1.279 . S
C914 C912 1.348 1_565 S
C914 C916 1.353 . S
C914 H956 0.929 . S
C915 C912 1.356 . S
C915 C917 1.358 . S
C915 H957 0.930 . S
C916 N913 1.314 1_565 S
C916 C914 1.353 . S
C916 H958 0.930 . S
C917 N913 1.279 . S
C917 C915 1.358 . S
C917 H959 0.930 . S
C918 C919 1.348 . S
C918 C920 1.356 . S
C918 O943 1.325 . S
C919 C918 1.348 . S
C919 C921 1.353 . S
C919 H960 0.929 . S
C920 C918 1.356 . S
C920 C922 1.358 . S
C920 H961 0.930 . S
C921 C919 1.353 . S
C921 N923 1.314 . S
C921 H962 0.930 . S
C922 C920 1.358 . S
C922 N923 1.279 . S
C922 H963 0.930 . S
N923 C921 1.314 . S
N923 C922 1.279 . S
C924 C926 1.353 . S
C924 N927 1.314 . S
C924 H930 0.930 . S
C925 N927 1.279 . S
C925 C928 1.358 . S
C925 H931 0.930 . S
C926 C924 1.353 . S
C926 C929 1.348 . S
C926 H964 0.929 . S
N927 Li882 1.990 . S
N927 C924 1.314 . S
N927 C925 1.279 . S
C928 C925 1.358 . S
C928 C929 1.356 . S
C928 H965 0.930 . S
C929 C926 1.348 . S
C929 C928 1.356 . S
H930 C924 0.930 . S
H931 C925 0.930 . S
C932 N933 1.314 1_545 S
C932 C934 1.353 . S
C932 H938 0.930 . S
N933 Li883 1.990 . S
N933 C932 1.314 1_565 S
N933 C936 1.279 . S
C934 C932 1.353 . S
C934 C937 1.348 1_545 S
C934 H966 0.929 . S
C935 C936 1.358 . S
C935 C937 1.356 . S
C935 H967 0.930 . S
C936 N933 1.279 . S
C936 C935 1.358 . S
C936 H939 0.930 . S
C937 C934 1.348 1_565 S
C937 C935 1.356 . S
H938 C932 0.930 . S
H939 C936 0.930 . S
O940 Li880 1.956 . S
O940 Li881 1.971 1_545 S
O940 Li882 1.961 1_545 S
O940 C884 1.325 . S
O941 Li880 1.970 . S
O941 Li881 1.951 1_545 S
O941 Li883 1.961 1_545 S
O941 C890 1.325 . S
O942 Li880 1.961 . S
O942 Li882 1.956 1_545 S
O942 Li883 1.970 1_545 S
O942 C912 1.325 . S
O943 Li881 1.966 . S
O943 Li882 1.970 . S
O943 Li883 1.956 . S
O943 C918 1.325 . S
H944 C886 0.929 . S
H945 C887 0.930 . S
H946 C888 0.930 . S
H947 C889 0.930 . S
H948 C891 0.930 . S
H949 C893 0.929 . S
H950 C894 0.930 . S
H951 C895 0.930 . S
H952 C898 0.930 . S
H953 C901 0.929 . S
H954 C906 0.929 . S
H955 C907 0.930 . S
H956 C914 0.929 . S
H957 C915 0.930 . S
H958 C916 0.930 . S
H959 C917 0.930 . S
H960 C919 0.929 . S
H961 C920 0.930 . S
H962 C921 0.930 . S
H963 C922 0.930 . S
H964 C926 0.929 . S
H965 C928 0.930 . S
H966 C934 0.929 . S
H967 C935 0.930 . S
Li968 N985 1.990 . S
Li968 O1028 1.956 . S
Li968 O1029 1.970 . S
Li968 O1030 1.961 . S
Li969 N993 1.990 . S
Li969 O1028 1.970 . S
Li969 O1029 1.956 . S
Li969 O1031 1.961 . S
Li970 N1015 1.990 . S
Li970 O1028 1.961 . S
Li970 O1030 1.956 . S
Li970 O1031 1.970 . S
Li971 N1021 1.990 1_554 S
Li971 O1029 1.961 . S
Li971 O1030 1.970 . S
Li971 O1031 1.956 . S
C972 C974 1.348 . S
C972 C975 1.356 . S
C972 O1028 1.325 . S
N973 C976 1.314 . S
N973 C977 1.279 . S
C974 C972 1.348 . S
C974 C976 1.353 . S
C974 H1032 0.929 . S
C975 C972 1.356 . S
C975 C977 1.358 . S
C975 H1033 0.930 . S
C976 N973 1.314 . S
C976 C974 1.353 . S
C976 H1034 0.930 . S
C977 N973 1.279 . S
C977 C975 1.358 . S
C977 H1035 0.930 . S
C978 C981 1.348 . S
C978 C982 1.356 . S
C978 O1029 1.325 . S
C979 N980 1.279 . S
C979 C982 1.358 . S
C979 H1036 0.930 . S
N980 C979 1.279 . S
N980 C983 1.314 . S
C981 C978 1.348 . S
C981 C983 1.353 . S
C981 H1037 0.929 . S
C982 C978 1.356 . S
C982 C979 1.358 . S
C982 H1038 0.930 . S
C983 N980 1.314 . S
C983 C981 1.353 . S
C983 H1039 0.930 . S
C984 N985 1.314 . S
C984 C989 1.353 . S
C984 H990 0.930 1_554 S
N985 Li968 1.990 . S
N985 C984 1.314 . S
N985 C987 1.279 . S
C986 C987 1.358 . S
C986 C988 1.356 . S
C986 H1040 0.930 . S
C987 N985 1.279 . S
C987 C986 1.358 . S
C987 H991 0.930 . S
C988 C986 1.356 . S
C988 C989 1.348 . S
C989 C984 1.353 . S
C989 C988 1.348 . S
C989 H1041 0.929 1_554 S
H990 C984 0.930 1_556 S
H991 C987 0.930 . S
C992 N993 1.314 . S
C992 C994 1.353 . S
C992 H998 0.930 . S
N993 Li969 1.990 . S
N993 C992 1.314 . S
N993 C996 1.279 . S
C994 C992 1.353 . S
C994 C997 1.348 . S
C994 H1042 0.929 . S
C995 C996 1.358 . S
C995 C997 1.356 . S
C995 H1043 0.930 . S
C996 N993 1.279 . S
C996 C995 1.358 . S
C996 H999 0.930 . S
C997 C994 1.348 . S
C997 C995 1.356 . S
H998 C992 0.930 . S
H999 C996 0.930 . S
C1000 C1002 1.348 . S
C1000 C1003 1.356 . S
C1000 O1030 1.325 1_556 S
N1001 C1004 1.314 . S
N1001 C1005 1.279 . S
C1002 C1000 1.348 . S
C1002 C1004 1.353 . S
C1002 H1044 0.929 . S
C1003 C1000 1.356 . S
C1003 C1005 1.358 . S
C1003 H1045 0.930 1_556 S
C1004 N1001 1.314 . S
C1004 C1002 1.353 . S
C1004 H1046 0.930 . S
C1005 N1001 1.279 . S
C1005 C1003 1.358 . S
C1005 H1047 0.930 . S
C1006 C1007 1.348 . S
C1006 C1008 1.356 . S
C1006 O1031 1.325 . S
C1007 C1006 1.348 . S
C1007 C1009 1.353 . S
C1007 H1048 0.929 . S
C1008 C1006 1.356 . S
C1008 C1010 1.358 . S
C1008 H1049 0.930 . S
C1009 C1007 1.353 . S
C1009 N1011 1.314 . S
C1009 H1050 0.930 . S
C1010 C1008 1.358 . S
C1010 N1011 1.279 . S
C1010 H1051 0.930 . S
N1011 C1009 1.314 . S
N1011 C1010 1.279 . S
C1012 C1014 1.353 . S
C1012 N1015 1.314 . S
C1012 H1018 0.930 . S
C1013 N1015 1.279 . S
C1013 C1016 1.358 . S
C1013 H1019 0.930 . S
C1014 C1012 1.353 . S
C1014 C1017 1.348 . S
C1014 H1052 0.929 . S
N1015 Li970 1.990 . S
N1015 C1012 1.314 . S
N1015 C1013 1.279 . S
C1016 C1013 1.358 . S
C1016 C1017 1.356 . S
C1016 H1053 0.930 . S
C1017 C1014 1.348 . S
C1017 C1016 1.356 . S
H1018 C1012 0.930 . S
H1019 C1013 0.930 . S
C1020 N1021 1.314 . S
C1020 C1022 1.353 . S
C1020 H1026 0.930 . S
N1021 Li971 1.990 1_556 S
N1021 C1020 1.314 . S
N1021 C1024 1.279 . S
C1022 C1020 1.353 . S
C1022 C1025 1.348 . S
C1022 H1054 0.929 . S
C1023 C1024 1.358 . S
C1023 C1025 1.356 . S
C1023 H1055 0.930 . S
C1024 N1021 1.279 . S
C1024 C1023 1.358 . S
C1024 H1027 0.930 . S
C1025 C1022 1.348 . S
C1025 C1023 1.356 . S
H1026 C1020 0.930 . S
H1027 C1024 0.930 . S
O1028 Li968 1.956 . S
O1028 Li969 1.970 . S
O1028 Li970 1.961 . S
O1028 C972 1.325 . S
O1029 Li968 1.970 . S
O1029 Li969 1.956 . S
O1029 Li971 1.961 . S
O1029 C978 1.325 . S
O1030 Li968 1.961 . S
O1030 Li970 1.956 . S
O1030 Li971 1.970 . S
O1030 C1000 1.325 1_554 S
O1031 Li969 1.961 . S
O1031 Li970 1.970 . S
O1031 Li971 1.956 . S
O1031 C1006 1.325 . S
H1032 C974 0.929 . S
H1033 C975 0.930 . S
H1034 C976 0.930 . S
H1035 C977 0.930 . S
H1036 C979 0.930 . S
H1037 C981 0.929 . S
H1038 C982 0.930 . S
H1039 C983 0.930 . S
H1040 C986 0.930 . S
H1041 C989 0.929 1_556 S
H1042 C994 0.929 . S
H1043 C995 0.930 . S
H1044 C1002 0.929 . S
H1045 C1003 0.930 1_554 S
H1046 C1004 0.930 . S
H1047 C1005 0.930 . S
H1048 C1007 0.929 . S
H1049 C1008 0.930 . S
H1050 C1009 0.930 . S
H1051 C1010 0.930 . S
H1052 C1014 0.929 . S
H1053 C1016 0.930 . S
H1054 C1022 0.929 . S
H1055 C1023 0.930 . S
Li1056 N1073 1.990 . S
Li1056 O1116 1.956 . S
Li1056 O1117 1.970 . S
Li1056 O1118 1.961 . S
Li1057 N1081 1.990 . S
Li1057 O1116 1.970 . S
Li1057 O1117 1.956 . S
Li1057 O1119 1.961 . S
Li1058 N1103 1.990 . S
Li1058 O1116 1.961 . S
Li1058 O1118 1.956 . S
Li1058 O1119 1.970 . S
Li1059 N1109 1.990 1_554 S
Li1059 O1117 1.961 . S
Li1059 O1118 1.970 . S
Li1059 O1119 1.956 . S
C1060 C1062 1.348 . S
C1060 C1063 1.356 . S
C1060 O1116 1.325 . S
N1061 C1064 1.314 . S
N1061 C1065 1.279 . S
C1062 C1060 1.348 . S
C1062 C1064 1.353 . S
C1062 H1120 0.929 . S
C1063 C1060 1.356 . S
C1063 C1065 1.358 . S
C1063 H1121 0.930 . S
C1064 N1061 1.314 . S
C1064 C1062 1.353 . S
C1064 H1122 0.930 . S
C1065 N1061 1.279 . S
C1065 C1063 1.358 . S
C1065 H1123 0.930 . S
C1066 C1069 1.348 . S
C1066 C1070 1.356 . S
C1066 O1117 1.325 . S
C1067 N1068 1.279 . S
C1067 C1070 1.358 . S
C1067 H1124 0.930 . S
N1068 C1067 1.279 . S
N1068 C1071 1.314 . S
C1069 C1066 1.348 . S
C1069 C1071 1.353 . S
C1069 H1125 0.929 . S
C1070 C1066 1.356 . S
C1070 C1067 1.358 . S
C1070 H1126 0.930 . S
C1071 N1068 1.314 . S
C1071 C1069 1.353 . S
C1071 H1127 0.930 . S
C1072 N1073 1.314 . S
C1072 C1077 1.353 . S
C1072 H1078 0.930 1_554 S
N1073 Li1056 1.990 . S
N1073 C1072 1.314 . S
N1073 C1075 1.279 . S
C1074 C1075 1.358 . S
C1074 C1076 1.356 . S
C1074 H1128 0.930 . S
C1075 N1073 1.279 . S
C1075 C1074 1.358 . S
C1075 H1079 0.930 . S
C1076 C1074 1.356 . S
C1076 C1077 1.348 . S
C1077 C1072 1.353 . S
C1077 C1076 1.348 . S
C1077 H1129 0.929 1_554 S
H1078 C1072 0.930 1_556 S
H1079 C1075 0.930 . S
C1080 N1081 1.314 . S
C1080 C1082 1.353 . S
C1080 H1086 0.930 . S
N1081 Li1057 1.990 . S
N1081 C1080 1.314 . S
N1081 C1084 1.279 . S
C1082 C1080 1.353 . S
C1082 C1085 1.348 . S
C1082 H1130 0.929 . S
C1083 C1084 1.358 . S
C1083 C1085 1.356 . S
C1083 H1131 0.930 . S
C1084 N1081 1.279 . S
C1084 C1083 1.358 . S
C1084 H1087 0.930 . S
C1085 C1082 1.348 . S
C1085 C1083 1.356 . S
H1086 C1080 0.930 . S
H1087 C1084 0.930 . S
C1088 C1090 1.348 . S
C1088 C1091 1.356 . S
C1088 O1118 1.325 1_556 S
N1089 C1092 1.314 . S
N1089 C1093 1.279 . S
C1090 C1088 1.348 . S
C1090 C1092 1.353 . S
C1090 H1132 0.929 . S
C1091 C1088 1.356 . S
C1091 C1093 1.358 . S
C1091 H1133 0.923 1_556 S
C1092 N1089 1.314 . S
C1092 C1090 1.353 . S
C1092 H1134 0.930 . S
C1093 N1089 1.279 . S
C1093 C1091 1.358 . S
C1093 H1135 0.930 . S
C1094 C1095 1.348 . S
C1094 C1096 1.356 . S
C1094 O1119 1.325 . S
C1095 C1094 1.348 . S
C1095 C1097 1.353 . S
C1095 H1136 0.929 . S
C1096 C1094 1.356 . S
C1096 C1098 1.358 . S
C1096 H1137 0.930 . S
C1097 C1095 1.353 . S
C1097 N1099 1.314 . S
C1097 H1138 0.930 . S
C1098 C1096 1.358 . S
C1098 N1099 1.279 . S
C1098 H1139 0.930 . S
N1099 C1097 1.314 . S
N1099 C1098 1.279 . S
C1100 C1102 1.353 . S
C1100 N1103 1.314 . S
C1100 H1106 0.930 . S
C1101 N1103 1.279 . S
C1101 C1104 1.358 . S
C1101 H1107 0.930 1_554 S
C1102 C1100 1.353 . S
C1102 C1105 1.348 . S
C1102 H1140 0.929 . S
N1103 Li1058 1.990 . S
N1103 C1100 1.314 . S
N1103 C1101 1.279 . S
C1104 C1101 1.358 . S
C1104 C1105 1.356 . S
C1104 H1141 0.966 . S
C1105 C1102 1.348 . S
C1105 C1104 1.356 . S
H1106 C1100 0.930 . S
H1107 C1101 0.930 1_556 S
C1108 N1109 1.314 . S
C1108 C1110 1.353 . S
C1108 H1114 0.930 . S
N1109 Li1059 1.990 1_556 S
N1109 C1108 1.314 . S
N1109 C1112 1.279 . S
C1110 C1108 1.353 . S
C1110 C1113 1.348 . S
C1110 H1142 0.929 . S
C1111 C1112 1.358 . S
C1111 C1113 1.356 . S
C1111 H1143 0.930 . S
C1112 N1109 1.279 . S
C1112 C1111 1.358 . S
C1112 H1115 0.930 . S
C1113 C1110 1.348 . S
C1113 C1111 1.356 . S
H1114 C1108 0.930 . S
H1115 C1112 0.930 . S
O1116 Li1056 1.956 . S
O1116 Li1057 1.970 . S
O1116 Li1058 1.961 . S
O1116 C1060 1.325 . S
O1117 Li1056 1.970 . S
O1117 Li1057 1.956 . S
O1117 Li1059 1.961 . S
O1117 C1066 1.325 . S
O1118 Li1056 1.961 . S
O1118 Li1058 1.956 . S
O1118 Li1059 1.970 . S
O1118 C1088 1.325 1_554 S
O1119 Li1057 1.961 . S
O1119 Li1058 1.970 . S
O1119 Li1059 1.956 . S
O1119 C1094 1.325 . S
H1120 C1062 0.929 . S
H1121 C1063 0.930 . S
H1122 C1064 0.930 . S
H1123 C1065 0.930 . S
H1124 C1067 0.930 . S
H1125 C1069 0.929 . S
H1126 C1070 0.930 . S
H1127 C1071 0.930 . S
H1128 C1074 0.930 . S
H1129 C1077 0.929 1_556 S
H1130 C1082 0.929 . S
H1131 C1083 0.930 . S
H1132 C1090 0.929 . S
H1133 C1091 0.923 1_554 S
H1134 C1092 0.930 . S
H1135 C1093 0.930 . S
H1136 C1095 0.929 . S
H1137 C1096 0.930 . S
H1138 C1097 0.930 . S
H1139 C1098 0.930 . S
H1140 C1102 0.929 . S
H1141 C1104 0.966 . S
H1142 C1110 0.929 . S
H1143 C1111 0.930 . S
Li1144 N1161 1.990 . S
Li1144 O1204 1.956 . S
Li1144 O1205 1.970 . S
Li1144 O1206 1.967 . S
Li1145 N1169 1.990 . S
Li1145 O1204 1.970 . S
Li1145 O1205 1.956 . S
Li1145 O1207 1.961 1_554 S
Li1146 N1191 1.990 . S
Li1146 O1204 1.961 1_556 S
Li1146 O1206 1.949 1_556 S
Li1146 O1207 1.970 . S
Li1147 N1197 1.990 . S
Li1147 O1205 1.961 1_556 S
Li1147 O1206 1.970 1_556 S
Li1147 O1207 1.956 . S
C1148 C1150 1.348 . S
C1148 C1151 1.364 . S
C1148 O1204 1.325 . S
N1149 C1152 1.314 . S
N1149 C1153 1.279 . S
C1150 C1148 1.348 . S
C1150 C1152 1.353 . S
C1150 H1208 0.929 . S
C1151 C1148 1.364 . S
C1151 C1153 1.358 . S
C1151 H1209 0.924 1_554 S
C1152 N1149 1.314 . S
C1152 C1150 1.353 . S
C1152 H1210 0.930 . S
C1153 N1149 1.279 . S
C1153 C1151 1.358 . S
C1153 H1211 0.930 1_554 S
C1154 C1157 1.348 . S
C1154 C1158 1.356 . S
C1154 O1205 1.325 . S
C1155 N1156 1.279 . S
C1155 C1158 1.358 . S
C1155 H1212 0.930 . S
N1156 C1155 1.279 . S
N1156 C1159 1.314 . S
C1157 C1154 1.348 . S
C1157 C1159 1.353 . S
C1157 H1213 0.929 . S
C1158 C1154 1.356 . S
C1158 C1155 1.358 . S
C1158 H1214 0.930 . S
C1159 N1156 1.314 . S
C1159 C1157 1.353 . S
C1159 H1215 0.930 . S
C1160 N1161 1.314 . S
C1160 C1165 1.353 . S
C1160 H1166 0.930 . S
N1161 Li1144 1.990 . S
N1161 C1160 1.314 . S
N1161 C1163 1.279 . S
C1162 C1163 1.358 . S
C1162 C1164 1.356 . S
C1162 H1216 0.930 . S
C1163 N1161 1.279 . S
C1163 C1162 1.358 . S
C1163 H1167 0.930 . S
C1164 C1162 1.356 . S
C1164 C1165 1.348 . S
C1165 C1160 1.353 . S
C1165 C1164 1.348 . S
C1165 H1217 0.929 . S
H1166 C1160 0.930 . S
H1167 C1163 0.930 . S
C1168 N1169 1.314 1_556 S
C1168 C1170 1.353 . S
C1168 H1174 0.930 . S
N1169 Li1145 1.990 . S
N1169 C1168 1.314 1_554 S
N1169 C1172 1.279 . S
C1170 C1168 1.353 . S
C1170 C1173 1.348 1_556 S
C1170 H1218 0.929 . S
C1171 C1172 1.358 . S
C1171 C1173 1.356 . S
C1171 H1219 0.930 . S
C1172 N1169 1.279 . S
C1172 C1171 1.358 . S
C1172 H1175 0.930 . S
C1173 C1170 1.348 1_554 S
C1173 C1171 1.356 . S
H1174 C1168 0.930 . S
H1175 C1172 0.930 . S
C1176 C1178 1.355 . S
C1176 C1179 1.352 1_556 S
C1176 O1206 1.325 1_556 S
N1177 C1180 1.314 . S
N1177 C1181 1.279 1_556 S
C1178 C1176 1.355 . S
C1178 C1180 1.353 . S
C1178 H1220 0.929 . S
C1179 C1176 1.352 1_554 S
C1179 C1181 1.358 . S
C1179 H1221 0.930 . S
C1180 N1177 1.314 . S
C1180 C1178 1.353 . S
C1180 H1222 0.930 . S
C1181 N1177 1.279 1_554 S
C1181 C1179 1.358 . S
C1181 H1223 0.930 . S
C1182 C1183 1.348 . S
C1182 C1184 1.356 . S
C1182 O1207 1.325 . S
C1183 C1182 1.348 . S
C1183 C1185 1.353 . S
C1183 H1224 0.929 . S
C1184 C1182 1.356 . S
C1184 C1186 1.358 . S
C1184 H1225 0.930 . S
C1185 C1183 1.353 . S
C1185 N1187 1.314 . S
C1185 H1226 0.930 . S
C1186 C1184 1.358 . S
C1186 N1187 1.279 . S
C1186 H1227 0.930 . S
N1187 C1185 1.314 . S
N1187 C1186 1.279 . S
C1188 C1190 1.353 . S
C1188 N1191 1.314 . S
C1188 H1194 0.930 . S
C1189 N1191 1.279 . S
C1189 C1192 1.358 . S
C1189 H1195 0.930 . S
C1190 C1188 1.353 . S
C1190 C1193 1.348 . S
C1190 H1228 0.929 . S
N1191 Li1146 1.990 . S
N1191 C1188 1.314 . S
N1191 C1189 1.279 . S
C1192 C1189 1.358 . S
C1192 C1193 1.356 . S
C1192 H1229 0.930 . S
C1193 C1190 1.348 . S
C1193 C1192 1.356 . S
H1194 C1188 0.930 . S
H1195 C1189 0.930 . S
C1196 N1197 1.314 1_554 S
C1196 C1198 1.353 . S
C1196 H1202 0.930 . S
N1197 Li1147 1.990 . S
N1197 C1196 1.314 1_556 S
N1197 C1200 1.279 . S
C1198 C1196 1.353 . S
C1198 C1201 1.348 1_554 S
C1198 H1230 0.929 . S
C1199 C1200 1.358 . S
C1199 C1201 1.356 . S
C1199 H1231 0.930 . S
C1200 N1197 1.279 . S
C1200 C1199 1.358 . S
C1200 H1203 0.930 . S
C1201 C1198 1.348 1_556 S
C1201 C1199 1.356 . S
H1202 C1196 0.930 . S
H1203 C1200 0.930 . S
O1204 Li1144 1.956 . S
O1204 Li1145 1.970 . S
O1204 Li1146 1.961 1_554 S
O1204 C1148 1.325 . S
O1205 Li1144 1.970 . S
O1205 Li1145 1.956 . S
O1205 Li1147 1.961 1_554 S
O1205 C1154 1.325 . S
O1206 Li1144 1.967 . S
O1206 Li1146 1.949 1_554 S
O1206 Li1147 1.970 1_554 S
O1206 C1176 1.325 1_554 S
O1207 Li1145 1.961 1_556 S
O1207 Li1146 1.970 . S
O1207 Li1147 1.956 . S
O1207 C1182 1.325 . S
H1208 C1150 0.929 . S
H1209 C1151 0.924 1_556 S
H1210 C1152 0.930 . S
H1211 C1153 0.930 1_556 S
H1212 C1155 0.930 . S
H1213 C1157 0.929 . S
H1214 C1158 0.930 . S
H1215 C1159 0.930 . S
H1216 C1162 0.930 . S
H1217 C1165 0.929 . S
H1218 C1170 0.929 . S
H1219 C1171 0.930 . S
H1220 C1178 0.929 . S
H1221 C1179 0.930 . S
H1222 C1180 0.930 . S
H1223 C1181 0.930 . S
H1224 C1183 0.929 . S
H1225 C1184 0.930 . S
H1226 C1185 0.930 . S
H1227 C1186 0.930 . S
H1228 C1190 0.929 . S
H1229 C1192 0.930 . S
H1230 C1198 0.929 . S
H1231 C1199 0.930 . S
Li1232 N1249 1.990 . S
Li1232 O1292 1.956 . S
Li1232 O1293 1.970 . S
Li1232 O1294 1.961 . S
Li1233 N1257 1.990 . S
Li1233 O1292 1.970 . S
Li1233 O1293 1.956 . S
Li1233 O1295 1.961 . S
Li1234 N1279 1.990 . S
Li1234 O1292 1.961 . S
Li1234 O1294 1.956 . S
Li1234 O1295 1.970 . S
Li1235 N1285 1.990 . S
Li1235 O1293 1.961 . S
Li1235 O1294 1.970 . S
Li1235 O1295 1.956 . S
C1236 C1238 1.348 . S
C1236 C1239 1.356 . S
C1236 O1292 1.325 . S
N1237 C1240 1.314 . S
N1237 C1241 1.279 . S
C1238 C1236 1.348 . S
C1238 C1240 1.353 . S
C1238 H1296 0.929 . S
C1239 C1236 1.356 . S
C1239 C1241 1.358 . S
C1239 H1297 0.930 . S
C1240 N1237 1.314 . S
C1240 C1238 1.353 . S
C1240 H1298 0.930 . S
C1241 N1237 1.279 . S
C1241 C1239 1.358 . S
C1241 H1299 0.930 . S
C1242 C1245 1.348 . S
C1242 C1246 1.356 . S
C1242 O1293 1.325 . S
C1243 N1244 1.279 . S
C1243 C1246 1.358 . S
C1243 H1300 0.930 . S
N1244 C1243 1.279 . S
N1244 C1247 1.314 . S
C1245 C1242 1.348 . S
C1245 C1247 1.353 . S
C1245 H1301 0.929 . S
C1246 C1242 1.356 . S
C1246 C1243 1.358 . S
C1246 H1302 0.930 . S
C1247 N1244 1.314 . S
C1247 C1245 1.353 . S
C1247 H1303 0.930 . S
C1248 N1249 1.314 . S
C1248 C1253 1.353 . S
C1248 H1254 0.930 . S
N1249 Li1232 1.990 . S
N1249 C1248 1.314 . S
N1249 C1251 1.279 . S
C1250 C1251 1.358 . S
C1250 C1252 1.356 . S
C1250 H1304 0.930 . S
C1251 N1249 1.279 . S
C1251 C1250 1.358 . S
C1251 H1255 0.930 . S
C1252 C1250 1.356 . S
C1252 C1253 1.348 . S
C1253 C1248 1.353 . S
C1253 C1252 1.348 . S
C1253 H1305 0.929 . S
H1254 C1248 0.930 . S
H1255 C1251 0.930 . S
C1256 N1257 1.314 . S
C1256 C1258 1.353 . S
C1256 H1262 0.930 . S
N1257 Li1233 1.990 . S
N1257 C1256 1.314 . S
N1257 C1260 1.279 . S
C1258 C1256 1.353 . S
C1258 C1261 1.348 . S
C1258 H1306 0.929 . S
C1259 C1260 1.358 . S
C1259 C1261 1.356 . S
C1259 H1307 0.930 . S
C1260 N1257 1.279 . S
C1260 C1259 1.358 . S
C1260 H1263 0.930 . S
C1261 C1258 1.348 . S
C1261 C1259 1.356 . S
H1262 C1256 0.930 . S
H1263 C1260 0.930 . S
C1264 C1266 1.348 . S
C1264 C1267 1.356 . S
C1264 O1294 1.325 . S
N1265 C1268 1.314 . S
N1265 C1269 1.279 . S
C1266 C1264 1.348 . S
C1266 C1268 1.353 . S
C1266 H1308 0.929 . S
C1267 C1264 1.356 . S
C1267 C1269 1.358 . S
C1267 H1309 0.930 . S
C1268 N1265 1.314 . S
C1268 C1266 1.353 . S
C1268 H1310 0.930 . S
C1269 N1265 1.279 . S
C1269 C1267 1.358 . S
C1269 H1311 0.930 . S
C1270 C1271 1.348 . S
C1270 C1272 1.356 . S
C1270 O1295 1.325 . S
C1271 C1270 1.348 . S
C1271 C1273 1.353 . S
C1271 H1312 0.929 . S
C1272 C1270 1.356 . S
C1272 C1274 1.358 . S
C1272 H1313 0.930 . S
C1273 C1271 1.353 . S
C1273 N1275 1.314 . S
C1273 H1314 0.930 . S
C1274 C1272 1.358 . S
C1274 N1275 1.279 . S
C1274 H1315 0.930 . S
N1275 C1273 1.314 . S
N1275 C1274 1.279 . S
C1276 C1278 1.353 . S
C1276 N1279 1.314 . S
C1276 H1282 0.930 . S
C1277 N1279 1.279 . S
C1277 C1280 1.358 . S
C1277 H1283 0.930 . S
C1278 C1276 1.353 . S
C1278 C1281 1.348 . S
C1278 H1316 0.929 . S
N1279 Li1234 1.990 . S
N1279 C1276 1.314 . S
N1279 C1277 1.279 . S
C1280 C1277 1.358 . S
C1280 C1281 1.356 . S
C1280 H1317 0.930 . S
C1281 C1278 1.348 . S
C1281 C1280 1.356 . S
H1282 C1276 0.930 . S
H1283 C1277 0.930 . S
C1284 N1285 1.314 . S
C1284 C1286 1.353 . S
C1284 H1290 0.930 . S
N1285 Li1235 1.990 . S
N1285 C1284 1.314 . S
N1285 C1288 1.279 . S
C1286 C1284 1.353 . S
C1286 C1289 1.348 . S
C1286 H1318 0.929 . S
C1287 C1288 1.358 . S
C1287 C1289 1.356 . S
C1287 H1319 0.930 . S
C1288 N1285 1.279 . S
C1288 C1287 1.358 . S
C1288 H1291 0.930 . S
C1289 C1286 1.348 . S
C1289 C1287 1.356 . S
H1290 C1284 0.930 . S
H1291 C1288 0.930 . S
O1292 Li1232 1.956 . S
O1292 Li1233 1.970 . S
O1292 Li1234 1.961 . S
O1292 C1236 1.325 . S
O1293 Li1232 1.970 . S
O1293 Li1233 1.956 . S
O1293 Li1235 1.961 . S
O1293 C1242 1.325 . S
O1294 Li1232 1.961 . S
O1294 Li1234 1.956 . S
O1294 Li1235 1.970 . S
O1294 C1264 1.325 . S
O1295 Li1233 1.961 . S
O1295 Li1234 1.970 . S
O1295 Li1235 1.956 . S
O1295 C1270 1.325 . S
H1296 C1238 0.929 . S
H1297 C1239 0.930 . S
H1298 C1240 0.930 . S
H1299 C1241 0.930 . S
H1300 C1243 0.930 . S
H1301 C1245 0.929 . S
H1302 C1246 0.930 . S
H1303 C1247 0.930 . S
H1304 C1250 0.930 . S
H1305 C1253 0.929 . S
H1306 C1258 0.929 . S
H1307 C1259 0.930 . S
H1308 C1266 0.929 . S
H1309 C1267 0.930 . S
H1310 C1268 0.930 . S
H1311 C1269 0.930 . S
H1312 C1271 0.929 . S
H1313 C1272 0.930 . S
H1314 C1273 0.930 . S
H1315 C1274 0.930 . S
H1316 C1278 0.929 . S
H1317 C1280 0.930 . S
H1318 C1286 0.929 . S
H1319 C1287 0.930 . S
Li1320 N1337 1.990 . S
Li1320 O1380 1.956 . S
Li1320 O1381 1.970 . S
Li1320 O1382 1.961 . S
Li1321 N1345 1.990 . S
Li1321 O1380 1.970 . S
Li1321 O1381 1.956 . S
Li1321 O1383 1.961 . S
Li1322 N1367 1.990 . S
Li1322 O1380 1.961 . S
Li1322 O1382 1.956 . S
Li1322 O1383 1.970 . S
Li1323 N1373 1.990 . S
Li1323 O1381 1.961 . S
Li1323 O1382 1.970 . S
Li1323 O1383 1.956 . S
C1324 C1326 1.348 . S
C1324 C1327 1.356 . S
C1324 O1380 1.325 . S
N1325 C1328 1.314 . S
N1325 C1329 1.279 . S
C1326 C1324 1.348 . S
C1326 C1328 1.353 . S
C1326 H1384 0.929 . S
C1327 C1324 1.356 . S
C1327 C1329 1.358 . S
C1327 H1385 0.930 . S
C1328 N1325 1.314 . S
C1328 C1326 1.353 . S
C1328 H1386 0.930 . S
C1329 N1325 1.279 . S
C1329 C1327 1.358 . S
C1329 H1387 0.930 . S
C1330 C1333 1.348 . S
C1330 C1334 1.356 . S
C1330 O1381 1.325 . S
C1331 N1332 1.279 . S
C1331 C1334 1.358 . S
C1331 H1388 0.930 . S
N1332 C1331 1.279 . S
N1332 C1335 1.314 . S
C1333 C1330 1.348 . S
C1333 C1335 1.353 . S
C1333 H1389 0.929 . S
C1334 C1330 1.356 . S
C1334 C1331 1.358 . S
C1334 H1390 0.930 . S
C1335 N1332 1.314 . S
C1335 C1333 1.353 . S
C1335 H1391 0.930 . S
C1336 N1337 1.314 . S
C1336 C1341 1.353 . S
C1336 H1342 0.930 . S
N1337 Li1320 1.990 . S
N1337 C1336 1.314 . S
N1337 C1339 1.279 . S
C1338 C1339 1.358 . S
C1338 C1340 1.356 . S
C1338 H1392 0.930 . S
C1339 N1337 1.279 . S
C1339 C1338 1.358 . S
C1339 H1343 0.930 . S
C1340 C1338 1.356 . S
C1340 C1341 1.348 . S
C1341 C1336 1.353 . S
C1341 C1340 1.348 . S
C1341 H1393 0.929 . S
H1342 C1336 0.930 . S
H1343 C1339 0.930 . S
C1344 N1345 1.314 . S
C1344 C1346 1.353 . S
C1344 H1350 0.930 . S
N1345 Li1321 1.990 . S
N1345 C1344 1.314 . S
N1345 C1348 1.279 . S
C1346 C1344 1.353 . S
C1346 C1349 1.348 . S
C1346 H1394 0.929 . S
C1347 C1348 1.358 . S
C1347 C1349 1.356 . S
C1347 H1395 0.930 . S
C1348 N1345 1.279 . S
C1348 C1347 1.358 . S
C1348 H1351 0.930 . S
C1349 C1346 1.348 . S
C1349 C1347 1.356 . S
H1350 C1344 0.930 . S
H1351 C1348 0.930 . S
C1352 C1354 1.348 . S
C1352 C1355 1.356 . S
C1352 O1382 1.325 . S
N1353 C1356 1.314 . S
N1353 C1357 1.279 . S
C1354 C1352 1.348 . S
C1354 C1356 1.353 . S
C1354 H1396 0.929 . S
C1355 C1352 1.356 . S
C1355 C1357 1.358 . S
C1355 H1397 0.930 . S
C1356 N1353 1.314 . S
C1356 C1354 1.353 . S
C1356 H1398 0.930 . S
C1357 N1353 1.279 . S
C1357 C1355 1.358 . S
C1357 H1399 0.930 . S
C1358 C1359 1.348 . S
C1358 C1360 1.356 . S
C1358 O1383 1.325 . S
C1359 C1358 1.348 . S
C1359 C1361 1.353 . S
C1359 H1400 0.929 . S
C1360 C1358 1.356 . S
C1360 C1362 1.358 . S
C1360 H1401 0.930 . S
C1361 C1359 1.353 . S
C1361 N1363 1.314 . S
C1361 H1402 0.930 . S
C1362 C1360 1.358 . S
C1362 N1363 1.279 . S
C1362 H1403 0.930 . S
N1363 C1361 1.314 . S
N1363 C1362 1.279 . S
C1364 C1366 1.353 . S
C1364 N1367 1.314 . S
C1364 H1370 0.930 . S
C1365 N1367 1.279 . S
C1365 C1368 1.358 . S
C1365 H1371 0.930 . S
C1366 C1364 1.353 . S
C1366 C1369 1.348 . S
C1366 H1404 0.929 . S
N1367 Li1322 1.990 . S
N1367 C1364 1.314 . S
N1367 C1365 1.279 . S
C1368 C1365 1.358 . S
C1368 C1369 1.356 . S
C1368 H1405 0.930 . S
C1369 C1366 1.348 . S
C1369 C1368 1.356 . S
H1370 C1364 0.930 . S
H1371 C1365 0.930 . S
C1372 N1373 1.314 . S
C1372 C1374 1.353 . S
C1372 H1378 0.930 . S
N1373 Li1323 1.990 . S
N1373 C1372 1.314 . S
N1373 C1376 1.279 . S
C1374 C1372 1.353 . S
C1374 C1377 1.348 . S
C1374 H1406 0.929 . S
C1375 C1376 1.358 . S
C1375 C1377 1.356 . S
C1375 H1407 0.930 . S
C1376 N1373 1.279 . S
C1376 C1375 1.358 . S
C1376 H1379 0.930 . S
C1377 C1374 1.348 . S
C1377 C1375 1.356 . S
H1378 C1372 0.930 . S
H1379 C1376 0.930 . S
O1380 Li1320 1.956 . S
O1380 Li1321 1.970 . S
O1380 Li1322 1.961 . S
O1380 C1324 1.325 . S
O1381 Li1320 1.970 . S
O1381 Li1321 1.956 . S
O1381 Li1323 1.961 . S
O1381 C1330 1.325 . S
O1382 Li1320 1.961 . S
O1382 Li1322 1.956 . S
O1382 Li1323 1.970 . S
O1382 C1352 1.325 . S
O1383 Li1321 1.961 . S
O1383 Li1322 1.970 . S
O1383 Li1323 1.956 . S
O1383 C1358 1.325 . S
H1384 C1326 0.929 . S
H1385 C1327 0.930 . S
H1386 C1328 0.930 . S
H1387 C1329 0.930 . S
H1388 C1331 0.930 . S
H1389 C1333 0.929 . S
H1390 C1334 0.930 . S
H1391 C1335 0.930 . S
H1392 C1338 0.930 . S
H1393 C1341 0.929 . S
H1394 C1346 0.929 . S
H1395 C1347 0.930 . S
H1396 C1354 0.929 . S
H1397 C1355 0.930 . S
H1398 C1356 0.930 . S
H1399 C1357 0.930 . S
H1400 C1359 0.929 . S
H1401 C1360 0.930 . S
H1402 C1361 0.930 . S
H1403 C1362 0.930 . S
H1404 C1366 0.929 . S
H1405 C1368 0.930 . S
H1406 C1374 0.929 . S
H1407 C1375 0.930 . S
Li1408 N1425 1.990 . S
Li1408 O1468 1.956 . S
Li1408 O1469 1.970 . S
Li1408 O1470 1.961 . S
Li1409 N1433 1.990 . S
Li1409 O1468 1.970 . S
Li1409 O1469 1.956 . S
Li1409 O1471 1.961 . S
Li1410 N1455 1.990 . S
Li1410 O1468 1.961 . S
Li1410 O1470 1.956 . S
Li1410 O1471 1.970 . S
Li1411 N1461 1.990 . S
Li1411 O1469 1.961 . S
Li1411 O1470 1.970 . S
Li1411 O1471 1.956 . S
C1412 C1414 1.327 1_545 S
C1412 C1415 1.356 . S
C1412 O1468 1.325 . S
N1413 C1416 1.314 . S
N1413 C1417 1.279 1_565 S
C1414 C1412 1.327 1_565 S
C1414 C1416 1.371 . S
C1414 H1472 0.932 . S
C1415 C1412 1.356 . S
C1415 C1417 1.358 . S
C1415 H1473 0.930 . S
C1416 N1413 1.314 . S
C1416 C1414 1.371 . S
C1416 H1474 0.930 . S
C1417 N1413 1.279 1_545 S
C1417 C1415 1.358 . S
C1417 H1475 0.930 . S
C1418 C1421 1.348 . S
C1418 C1422 1.356 . S
C1418 O1469 1.325 . S
C1419 N1420 1.279 . S
C1419 C1422 1.358 . S
C1419 H1476 0.930 . S
N1420 C1419 1.279 . S
N1420 C1423 1.314 . S
C1421 C1418 1.348 . S
C1421 C1423 1.353 . S
C1421 H1477 0.929 . S
C1422 C1418 1.356 . S
C1422 C1419 1.358 . S
C1422 H1478 0.930 . S
C1423 N1420 1.314 . S
C1423 C1421 1.353 . S
C1423 H1479 0.930 . S
C1424 N1425 1.314 . S
C1424 C1429 1.353 . S
C1424 H1430 0.930 . S
N1425 Li1408 1.990 . S
N1425 C1424 1.314 . S
N1425 C1427 1.279 . S
C1426 C1427 1.358 . S
C1426 C1428 1.356 . S
C1426 H1480 0.930 . S
C1427 N1425 1.279 . S
C1427 C1426 1.358 . S
C1427 H1431 0.930 . S
C1428 C1426 1.356 . S
C1428 C1429 1.348 . S
C1429 C1424 1.353 . S
C1429 C1428 1.348 . S
C1429 H1481 0.929 . S
H1430 C1424 0.930 . S
H1431 C1427 0.930 . S
C1432 N1433 1.314 1_565 S
C1432 C1434 1.353 . S
C1432 H1438 0.930 . S
N1433 Li1409 1.990 . S
N1433 C1432 1.314 1_545 S
N1433 C1436 1.279 1_545 S
C1434 C1432 1.353 . S
C1434 C1437 1.348 . S
C1434 H1482 0.929 . S
C1435 C1436 1.358 . S
C1435 C1437 1.356 . S
C1435 H1483 0.930 . S
C1436 N1433 1.279 1_565 S
C1436 C1435 1.358 . S
C1436 H1439 0.930 1_565 S
C1437 C1434 1.348 . S
C1437 C1435 1.356 . S
H1438 C1432 0.930 . S
H1439 C1436 0.930 1_545 S
C1440 C1442 1.348 . S
C1440 C1443 1.356 . S
C1440 O1470 1.325 . S
N1441 C1444 1.314 . S
N1441 C1445 1.279 . S
C1442 C1440 1.348 . S
C1442 C1444 1.353 . S
C1442 H1484 0.929 . S
C1443 C1440 1.356 . S
C1443 C1445 1.358 . S
C1443 H1485 0.930 . S
C1444 N1441 1.314 . S
C1444 C1442 1.353 . S
C1444 H1486 0.930 . S
C1445 N1441 1.279 . S
C1445 C1443 1.358 . S
C1445 H1487 0.930 . S
C1446 C1447 1.348 . S
C1446 C1448 1.356 . S
C1446 O1471 1.325 . S
C1447 C1446 1.348 . S
C1447 C1449 1.353 . S
C1447 H1488 0.929 . S
C1448 C1446 1.356 . S
C1448 C1450 1.358 . S
C1448 H1489 0.930 . S
C1449 C1447 1.353 . S
C1449 N1451 1.314 . S
C1449 H1490 0.930 . S
C1450 C1448 1.358 . S
C1450 N1451 1.279 . S
C1450 H1491 0.930 . S
N1451 C1449 1.314 . S
N1451 C1450 1.279 . S
C1452 C1454 1.353 . S
C1452 N1455 1.314 . S
C1452 H1458 0.930 . S
C1453 N1455 1.279 . S
C1453 C1456 1.358 . S
C1453 H1459 0.930 . S
C1454 C1452 1.353 . S
C1454 C1457 1.348 . S
C1454 H1492 0.929 . S
N1455 Li1410 1.990 . S
N1455 C1452 1.314 . S
N1455 C1453 1.279 . S
C1456 C1453 1.358 . S
C1456 C1457 1.356 . S
C1456 H1493 0.930 . S
C1457 C1454 1.348 . S
C1457 C1456 1.356 . S
H1458 C1452 0.930 . S
H1459 C1453 0.930 . S
C1460 N1461 1.314 . S
C1460 C1462 1.353 . S
C1460 H1466 0.930 . S
N1461 Li1411 1.990 . S
N1461 C1460 1.314 . S
N1461 C1464 1.279 . S
C1462 C1460 1.353 . S
C1462 C1465 1.348 . S
C1462 H1494 0.929 . S
C1463 C1464 1.358 . S
C1463 C1465 1.356 . S
C1463 H1495 0.930 . S
C1464 N1461 1.279 . S
C1464 C1463 1.358 . S
C1464 H1467 0.930 . S
C1465 C1462 1.348 . S
C1465 C1463 1.356 . S
H1466 C1460 0.930 . S
H1467 C1464 0.930 . S
O1468 Li1408 1.956 . S
O1468 Li1409 1.970 . S
O1468 Li1410 1.961 . S
O1468 C1412 1.325 . S
O1469 Li1408 1.970 . S
O1469 Li1409 1.956 . S
O1469 Li1411 1.961 . S
O1469 C1418 1.325 . S
O1470 Li1408 1.961 . S
O1470 Li1410 1.956 . S
O1470 Li1411 1.970 . S
O1470 C1440 1.325 . S
O1471 Li1409 1.961 . S
O1471 Li1410 1.970 . S
O1471 Li1411 1.956 . S
O1471 C1446 1.325 . S
H1472 C1414 0.932 . S
H1473 C1415 0.930 . S
H1474 C1416 0.930 . S
H1475 C1417 0.930 . S
H1476 C1419 0.930 . S
H1477 C1421 0.929 . S
H1478 C1422 0.930 . S
H1479 C1423 0.930 . S
H1480 C1426 0.930 . S
H1481 C1429 0.929 . S
H1482 C1434 0.929 . S
H1483 C1435 0.930 . S
H1484 C1442 0.929 . S
H1485 C1443 0.930 . S
H1486 C1444 0.930 . S
H1487 C1445 0.930 . S
H1488 C1447 0.929 . S
H1489 C1448 0.930 . S
H1490 C1449 0.930 . S
H1491 C1450 0.930 . S
H1492 C1454 0.929 . S
H1493 C1456 0.930 . S
H1494 C1462 0.929 . S
H1495 C1463 0.930 . S
Li1496 N1513 1.990 . S
Li1496 O1556 1.956 . S
Li1496 O1557 1.970 . S
Li1496 O1558 1.961 . S
Li1497 N1521 1.990 . S
Li1497 O1556 1.970 . S
Li1497 O1557 1.956 . S
Li1497 O1559 1.961 . S
Li1498 N1543 1.990 . S
Li1498 O1556 1.961 . S
Li1498 O1558 1.956 . S
Li1498 O1559 1.970 . S
Li1499 N1549 1.990 . S
Li1499 O1557 1.961 . S
Li1499 O1558 1.970 . S
Li1499 O1559 1.956 . S
C1500 C1502 1.348 . S
C1500 C1503 1.356 . S
C1500 O1556 1.325 . S
N1501 C1504 1.314 . S
N1501 C1505 1.279 . S
C1502 C1500 1.348 . S
C1502 C1504 1.353 . S
C1502 H1560 0.929 . S
C1503 C1500 1.356 . S
C1503 C1505 1.358 . S
C1503 H1561 0.930 . S
C1504 N1501 1.314 . S
C1504 C1502 1.353 . S
C1504 H1562 0.930 . S
C1505 N1501 1.279 . S
C1505 C1503 1.358 . S
C1505 H1563 0.930 . S
C1506 C1509 1.348 . S
C1506 C1510 1.356 . S
C1506 O1557 1.325 . S
C1507 N1508 1.279 . S
C1507 C1510 1.358 . S
C1507 H1564 0.930 . S
N1508 C1507 1.279 . S
N1508 C1511 1.314 . S
C1509 C1506 1.348 . S
C1509 C1511 1.353 . S
C1509 H1565 0.929 . S
C1510 C1506 1.356 . S
C1510 C1507 1.358 . S
C1510 H1566 0.930 . S
C1511 N1508 1.314 . S
C1511 C1509 1.353 . S
C1511 H1567 0.930 . S
C1512 N1513 1.314 . S
C1512 C1517 1.353 . S
C1512 H1518 0.930 . S
N1513 Li1496 1.990 . S
N1513 C1512 1.314 . S
N1513 C1515 1.279 . S
C1514 C1515 1.358 . S
C1514 C1516 1.356 . S
C1514 H1568 0.930 . S
C1515 N1513 1.279 . S
C1515 C1514 1.358 . S
C1515 H1519 0.930 . S
C1516 C1514 1.356 . S
C1516 C1517 1.348 . S
C1517 C1512 1.353 . S
C1517 C1516 1.348 . S
C1517 H1569 0.929 . S
H1518 C1512 0.930 . S
H1519 C1515 0.930 . S
C1520 N1521 1.314 . S
C1520 C1522 1.353 . S
C1520 H1526 0.930 . S
N1521 Li1497 1.990 . S
N1521 C1520 1.314 . S
N1521 C1524 1.279 . S
C1522 C1520 1.353 . S
C1522 C1525 1.348 . S
C1522 H1570 0.929 . S
C1523 C1524 1.358 . S
C1523 C1525 1.356 . S
C1523 H1571 0.930 . S
C1524 N1521 1.279 . S
C1524 C1523 1.358 . S
C1524 H1527 0.930 . S
C1525 C1522 1.348 . S
C1525 C1523 1.356 . S
H1526 C1520 0.930 . S
H1527 C1524 0.930 . S
C1528 C1530 1.348 . S
C1528 C1531 1.356 . S
C1528 O1558 1.325 . S
N1529 C1532 1.314 . S
N1529 C1533 1.279 . S
C1530 C1528 1.348 . S
C1530 C1532 1.353 . S
C1530 H1572 0.929 . S
C1531 C1528 1.356 . S
C1531 C1533 1.358 . S
C1531 H1573 0.930 . S
C1532 N1529 1.314 . S
C1532 C1530 1.353 . S
C1532 H1574 0.930 . S
C1533 N1529 1.279 . S
C1533 C1531 1.358 . S
C1533 H1575 0.930 . S
C1534 C1535 1.348 . S
C1534 C1536 1.356 . S
C1534 O1559 1.325 . S
C1535 C1534 1.348 . S
C1535 C1537 1.353 . S
C1535 H1576 0.929 . S
C1536 C1534 1.356 . S
C1536 C1538 1.358 . S
C1536 H1577 0.930 . S
C1537 C1535 1.353 . S
C1537 N1539 1.314 . S
C1537 H1578 0.930 . S
C1538 C1536 1.358 . S
C1538 N1539 1.279 . S
C1538 H1579 0.930 . S
N1539 C1537 1.314 . S
N1539 C1538 1.279 . S
C1540 C1542 1.353 . S
C1540 N1543 1.314 . S
C1540 H1546 0.930 . S
C1541 N1543 1.279 . S
C1541 C1544 1.358 . S
C1541 H1547 0.930 . S
C1542 C1540 1.353 . S
C1542 C1545 1.348 . S
C1542 H1580 0.929 . S
N1543 Li1498 1.990 . S
N1543 C1540 1.314 . S
N1543 C1541 1.279 . S
C1544 C1541 1.358 . S
C1544 C1545 1.356 . S
C1544 H1581 0.930 . S
C1545 C1542 1.348 . S
C1545 C1544 1.356 . S
H1546 C1540 0.930 . S
H1547 C1541 0.930 . S
C1548 N1549 1.314 . S
C1548 C1550 1.353 . S
C1548 H1554 0.930 . S
N1549 Li1499 1.990 . S
N1549 C1548 1.314 . S
N1549 C1552 1.279 . S
C1550 C1548 1.353 . S
C1550 C1553 1.348 . S
C1550 H1582 0.929 . S
C1551 C1552 1.358 . S
C1551 C1553 1.356 . S
C1551 H1583 0.930 . S
C1552 N1549 1.279 . S
C1552 C1551 1.358 . S
C1552 H1555 0.930 . S
C1553 C1550 1.348 . S
C1553 C1551 1.356 . S
H1554 C1548 0.930 . S
H1555 C1552 0.930 . S
O1556 Li1496 1.956 . S
O1556 Li1497 1.970 . S
O1556 Li1498 1.961 . S
O1556 C1500 1.325 . S
O1557 Li1496 1.970 . S
O1557 Li1497 1.956 . S
O1557 Li1499 1.961 . S
O1557 C1506 1.325 . S
O1558 Li1496 1.961 . S
O1558 Li1498 1.956 . S
O1558 Li1499 1.970 . S
O1558 C1528 1.325 . S
O1559 Li1497 1.961 . S
O1559 Li1498 1.970 . S
O1559 Li1499 1.956 . S
O1559 C1534 1.325 . S
H1560 C1502 0.929 . S
H1561 C1503 0.930 . S
H1562 C1504 0.930 . S
H1563 C1505 0.930 . S
H1564 C1507 0.930 . S
H1565 C1509 0.929 . S
H1566 C1510 0.930 . S
H1567 C1511 0.930 . S
H1568 C1514 0.930 . S
H1569 C1517 0.929 . S
H1570 C1522 0.929 . S
H1571 C1523 0.930 . S
H1572 C1530 0.929 . S
H1573 C1531 0.930 . S
H1574 C1532 0.930 . S
H1575 C1533 0.930 . S
H1576 C1535 0.929 . S
H1577 C1536 0.930 . S
H1578 C1537 0.930 . S
H1579 C1538 0.930 . S
H1580 C1542 0.929 . S
H1581 C1544 0.930 . S
H1582 C1550 0.929 . S
H1583 C1551 0.930 . S
Li1584 N1601 1.990 . S
Li1584 O1644 1.956 . S
Li1584 O1645 1.970 . S
Li1584 O1646 1.961 . S
Li1585 N1609 1.990 . S
Li1585 O1644 1.970 . S
Li1585 O1645 1.956 . S
Li1585 O1647 1.961 . S
Li1586 N1631 1.990 . S
Li1586 O1644 1.961 . S
Li1586 O1646 1.956 . S
Li1586 O1647 1.970 . S
Li1587 N1637 1.990 . S
Li1587 O1645 1.961 . S
Li1587 O1646 1.970 . S
Li1587 O1647 1.956 . S
C1588 C1590 1.348 . S
C1588 C1591 1.356 . S
C1588 O1644 1.325 . S
N1589 C1592 1.314 . S
N1589 C1593 1.279 . S
C1590 C1588 1.348 . S
C1590 C1592 1.353 . S
C1590 H1648 0.929 . S
C1591 C1588 1.356 . S
C1591 C1593 1.358 . S
C1591 H1649 0.930 . S
C1592 N1589 1.314 . S
C1592 C1590 1.353 . S
C1592 H1650 0.930 . S
C1593 N1589 1.279 . S
C1593 C1591 1.358 . S
C1593 H1651 0.930 . S
C1594 C1597 1.348 . S
C1594 C1598 1.356 . S
C1594 O1645 1.325 . S
C1595 N1596 1.279 . S
C1595 C1598 1.358 . S
C1595 H1652 0.930 . S
N1596 C1595 1.279 . S
N1596 C1599 1.314 . S
C1597 C1594 1.348 . S
C1597 C1599 1.353 . S
C1597 H1653 0.929 . S
C1598 C1594 1.356 . S
C1598 C1595 1.358 . S
C1598 H1654 0.930 . S
C1599 N1596 1.314 . S
C1599 C1597 1.353 . S
C1599 H1655 0.930 . S
C1600 N1601 1.314 . S
C1600 C1605 1.353 . S
C1600 H1606 0.930 . S
N1601 Li1584 1.990 . S
N1601 C1600 1.314 . S
N1601 C1603 1.279 . S
C1602 C1603 1.358 . S
C1602 C1604 1.356 . S
C1602 H1656 0.930 . S
C1603 N1601 1.279 . S
C1603 C1602 1.358 . S
C1603 H1607 0.930 . S
C1604 C1602 1.356 . S
C1604 C1605 1.348 . S
C1605 C1600 1.353 . S
C1605 C1604 1.348 . S
C1605 H1657 0.929 . S
H1606 C1600 0.930 . S
H1607 C1603 0.930 . S
C1608 N1609 1.314 . S
C1608 C1610 1.353 . S
C1608 H1614 0.930 . S
N1609 Li1585 1.990 . S
N1609 C1608 1.314 . S
N1609 C1612 1.279 . S
C1610 C1608 1.353 . S
C1610 C1613 1.348 . S
C1610 H1658 0.929 . S
C1611 C1612 1.358 . S
C1611 C1613 1.356 . S
C1611 H1659 0.930 . S
C1612 N1609 1.279 . S
C1612 C1611 1.358 . S
C1612 H1615 0.930 . S
C1613 C1610 1.348 . S
C1613 C1611 1.356 . S
H1614 C1608 0.930 . S
H1615 C1612 0.930 . S
C1616 C1618 1.348 . S
C1616 C1619 1.356 . S
C1616 O1646 1.325 . S
N1617 C1620 1.314 . S
N1617 C1621 1.279 . S
C1618 C1616 1.348 . S
C1618 C1620 1.353 . S
C1618 H1660 0.929 . S
C1619 C1616 1.356 . S
C1619 C1621 1.358 . S
C1619 H1661 0.930 . S
C1620 N1617 1.314 . S
C1620 C1618 1.353 . S
C1620 H1662 0.930 . S
C1621 N1617 1.279 . S
C1621 C1619 1.358 . S
C1621 H1663 0.930 . S
C1622 C1623 1.348 . S
C1622 C1624 1.356 . S
C1622 O1647 1.325 . S
C1623 C1622 1.348 . S
C1623 C1625 1.353 . S
C1623 H1664 0.929 . S
C1624 C1622 1.356 . S
C1624 C1626 1.358 . S
C1624 H1665 0.930 . S
C1625 C1623 1.353 . S
C1625 N1627 1.314 . S
C1625 H1666 0.930 . S
C1626 C1624 1.358 . S
C1626 N1627 1.279 . S
C1626 H1667 0.930 . S
N1627 C1625 1.314 . S
N1627 C1626 1.279 . S
C1628 C1630 1.353 . S
C1628 N1631 1.314 . S
C1628 H1634 0.930 . S
C1629 N1631 1.279 . S
C1629 C1632 1.358 . S
C1629 H1635 0.930 . S
C1630 C1628 1.353 . S
C1630 C1633 1.348 . S
C1630 H1668 0.929 . S
N1631 Li1586 1.990 . S
N1631 C1628 1.314 . S
N1631 C1629 1.279 . S
C1632 C1629 1.358 . S
C1632 C1633 1.356 . S
C1632 H1669 0.930 . S
C1633 C1630 1.348 . S
C1633 C1632 1.356 . S
H1634 C1628 0.930 . S
H1635 C1629 0.930 . S
C1636 N1637 1.314 . S
C1636 C1638 1.353 . S
C1636 H1642 0.930 . S
N1637 Li1587 1.990 . S
N1637 C1636 1.314 . S
N1637 C1640 1.279 . S
C1638 C1636 1.353 . S
C1638 C1641 1.348 . S
C1638 H1670 0.929 . S
C1639 C1640 1.358 . S
C1639 C1641 1.356 . S
C1639 H1671 0.930 . S
C1640 N1637 1.279 . S
C1640 C1639 1.358 . S
C1640 H1643 0.930 . S
C1641 C1638 1.348 . S
C1641 C1639 1.356 . S
H1642 C1636 0.930 . S
H1643 C1640 0.930 . S
O1644 Li1584 1.956 . S
O1644 Li1585 1.970 . S
O1644 Li1586 1.961 . S
O1644 C1588 1.325 . S
O1645 Li1584 1.970 . S
O1645 Li1585 1.956 . S
O1645 Li1587 1.961 . S
O1645 C1594 1.325 . S
O1646 Li1584 1.961 . S
O1646 Li1586 1.956 . S
O1646 Li1587 1.970 . S
O1646 C1616 1.325 . S
O1647 Li1585 1.961 . S
O1647 Li1586 1.970 . S
O1647 Li1587 1.956 . S
O1647 C1622 1.325 . S
H1648 C1590 0.929 . S
H1649 C1591 0.930 . S
H1650 C1592 0.930 . S
H1651 C1593 0.930 . S
H1652 C1595 0.930 . S
H1653 C1597 0.929 . S
H1654 C1598 0.930 . S
H1655 C1599 0.930 . S
H1656 C1602 0.930 . S
H1657 C1605 0.929 . S
H1658 C1610 0.929 . S
H1659 C1611 0.930 . S
H1660 C1618 0.929 . S
H1661 C1619 0.930 . S
H1662 C1620 0.930 . S
H1663 C1621 0.930 . S
H1664 C1623 0.929 . S
H1665 C1624 0.930 . S
H1666 C1625 0.930 . S
H1667 C1626 0.930 . S
H1668 C1630 0.929 . S
H1669 C1632 0.930 . S
H1670 C1638 0.929 . S
H1671 C1639 0.930 . S
Li1672 N1689 1.990 . S
Li1672 O1732 1.956 . S
Li1672 O1733 1.970 . S
Li1672 O1734 1.961 1_545 S
Li1673 N1697 1.990 . S
Li1673 O1732 1.970 . S
Li1673 O1733 1.956 . S
Li1673 O1735 1.961 . S
Li1674 N1719 1.990 . S
Li1674 O1732 1.961 . S
Li1674 O1734 1.956 1_545 S
Li1674 O1735 1.970 . S
Li1675 N1725 1.990 . S
Li1675 O1733 1.961 1_565 S
Li1675 O1734 1.970 . S
Li1675 O1735 1.956 1_565 S
C1676 C1678 1.348 . S
C1676 C1679 1.356 . S
C1676 O1732 1.325 . S
N1677 C1680 1.314 . S
N1677 C1681 1.279 . S
C1678 C1676 1.348 . S
C1678 C1680 1.353 . S
C1678 H1736 0.929 . S
C1679 C1676 1.356 . S
C1679 C1681 1.358 . S
C1679 H1737 0.930 . S
C1680 N1677 1.314 . S
C1680 C1678 1.353 . S
C1680 H1738 0.930 . S
C1681 N1677 1.279 . S
C1681 C1679 1.358 . S
C1681 H1739 0.930 . S
C1682 C1685 1.348 . S
C1682 C1686 1.356 . S
C1682 O1733 1.325 . S
C1683 N1684 1.279 . S
C1683 C1686 1.358 . S
C1683 H1740 0.930 . S
N1684 C1683 1.279 . S
N1684 C1687 1.314 . S
C1685 C1682 1.348 . S
C1685 C1687 1.353 . S
C1685 H1741 0.929 . S
C1686 C1682 1.356 . S
C1686 C1683 1.358 . S
C1686 H1742 0.930 . S
C1687 N1684 1.314 . S
C1687 C1685 1.353 . S
C1687 H1743 0.930 . S
C1688 N1689 1.314 1_565 S
C1688 C1693 1.353 . S
C1688 H1694 0.930 . S
N1689 Li1672 1.990 . S
N1689 C1688 1.314 1_545 S
N1689 C1691 1.279 . S
C1690 C1691 1.358 . S
C1690 C1692 1.356 . S
C1690 H1744 0.930 . S
C1691 N1689 1.279 . S
C1691 C1690 1.358 . S
C1691 H1695 0.930 . S
C1692 C1690 1.356 . S
C1692 C1693 1.348 1_545 S
C1693 C1688 1.353 . S
C1693 C1692 1.348 1_565 S
C1693 H1745 0.929 . S
H1694 C1688 0.930 . S
H1695 C1691 0.930 . S
C1696 N1697 1.314 . S
C1696 C1698 1.353 . S
C1696 H1702 0.930 . S
N1697 Li1673 1.990 . S
N1697 C1696 1.314 . S
N1697 C1700 1.279 . S
C1698 C1696 1.353 . S
C1698 C1701 1.348 . S
C1698 H1746 0.929 . S
C1699 C1700 1.358 . S
C1699 C1701 1.356 . S
C1699 H1747 0.930 . S
C1700 N1697 1.279 . S
C1700 C1699 1.358 . S
C1700 H1703 0.930 . S
C1701 C1698 1.348 . S
C1701 C1699 1.356 . S
H1702 C1696 0.930 . S
H1703 C1700 0.930 . S
C1704 C1706 1.348 . S
C1704 C1707 1.356 . S
C1704 O1734 1.325 . S
N1705 C1708 1.314 . S
N1705 C1709 1.279 . S
C1706 C1704 1.348 . S
C1706 C1708 1.353 . S
C1706 H1748 0.929 . S
C1707 C1704 1.356 . S
C1707 C1709 1.358 . S
C1707 H1749 0.930 . S
C1708 N1705 1.314 . S
C1708 C1706 1.353 . S
C1708 H1750 0.930 . S
C1709 N1705 1.279 . S
C1709 C1707 1.358 . S
C1709 H1751 0.930 . S
C1710 C1711 1.348 . S
C1710 C1712 1.356 . S
C1710 O1735 1.325 . S
C1711 C1710 1.348 . S
C1711 C1713 1.353 . S
C1711 H1752 0.929 . S
C1712 C1710 1.356 . S
C1712 C1714 1.358 . S
C1712 H1753 0.930 . S
C1713 C1711 1.353 . S
C1713 N1715 1.314 . S
C1713 H1754 0.930 . S
C1714 C1712 1.358 . S
C1714 N1715 1.279 . S
C1714 H1755 0.930 . S
N1715 C1713 1.314 . S
N1715 C1714 1.279 . S
C1716 C1718 1.353 . S
C1716 N1719 1.314 . S
C1716 H1722 0.930 . S
C1717 N1719 1.279 1_565 S
C1717 C1720 1.358 . S
C1717 H1723 0.930 . S
C1718 C1716 1.353 . S
C1718 C1721 1.348 . S
C1718 H1756 0.929 . S
N1719 Li1674 1.990 . S
N1719 C1716 1.314 . S
N1719 C1717 1.279 1_545 S
C1720 C1717 1.358 . S
C1720 C1721 1.356 1_565 S
C1720 H1757 0.930 . S
C1721 C1718 1.348 . S
C1721 C1720 1.356 1_545 S
H1722 C1716 0.930 . S
H1723 C1717 0.930 . S
C1724 N1725 1.314 . S
C1724 C1726 1.353 . S
C1724 H1730 0.930 . S
N1725 Li1675 1.990 . S
N1725 C1724 1.314 . S
N1725 C1728 1.279 . S
C1726 C1724 1.353 . S
C1726 C1729 1.348 . S
C1726 H1758 0.929 . S
C1727 C1728 1.358 . S
C1727 C1729 1.356 . S
C1727 H1759 0.930 . S
C1728 N1725 1.279 . S
C1728 C1727 1.358 . S
C1728 H1731 0.930 . S
C1729 C1726 1.348 . S
C1729 C1727 1.356 . S
H1730 C1724 0.930 . S
H1731 C1728 0.930 . S
O1732 Li1672 1.956 . S
O1732 Li1673 1.970 . S
O1732 Li1674 1.961 . S
O1732 C1676 1.325 . S
O1733 Li1672 1.970 . S
O1733 Li1673 1.956 . S
O1733 Li1675 1.961 1_545 S
O1733 C1682 1.325 . S
O1734 Li1672 1.961 1_565 S
O1734 Li1674 1.956 1_565 S
O1734 Li1675 1.970 . S
O1734 C1704 1.325 . S
O1735 Li1673 1.961 . S
O1735 Li1674 1.970 . S
O1735 Li1675 1.956 1_545 S
O1735 C1710 1.325 . S
H1736 C1678 0.929 . S
H1737 C1679 0.930 . S
H1738 C1680 0.930 . S
H1739 C1681 0.930 . S
H1740 C1683 0.930 . S
H1741 C1685 0.929 . S
H1742 C1686 0.930 . S
H1743 C1687 0.930 . S
H1744 C1690 0.930 . S
H1745 C1693 0.929 . S
H1746 C1698 0.929 . S
H1747 C1699 0.930 . S
H1748 C1706 0.929 . S
H1749 C1707 0.930 . S
H1750 C1708 0.930 . S
H1751 C1709 0.930 . S
H1752 C1711 0.929 . S
H1753 C1712 0.930 . S
H1754 C1713 0.930 . S
H1755 C1714 0.930 . S
H1756 C1718 0.929 . S
H1757 C1720 0.930 . S
H1758 C1726 0.929 . S
H1759 C1727 0.930 . S
Li1760 N1777 1.990 . S
Li1760 O1820 1.956 . S
Li1760 O1821 1.970 . S
Li1760 O1822 1.961 . S
Li1761 N1785 1.990 . S
Li1761 O1820 1.970 . S
Li1761 O1821 1.956 . S
Li1761 O1823 1.961 1_554 S
Li1762 N1807 1.990 . S
Li1762 O1820 1.961 1_556 S
Li1762 O1822 1.956 1_556 S
Li1762 O1823 1.970 . S
Li1763 N1813 1.990 1_554 S
Li1763 O1821 1.961 . S
Li1763 O1822 1.970 . S
Li1763 O1823 1.956 1_554 S
C1764 C1766 1.348 . S
C1764 C1767 1.356 . S
C1764 O1820 1.325 . S
N1765 C1768 1.314 . S
N1765 C1769 1.279 . S
C1766 C1764 1.348 . S
C1766 C1768 1.353 . S
C1766 H1824 0.929 . S
C1767 C1764 1.356 . S
C1767 C1769 1.358 . S
C1767 H1825 0.937 . S
C1768 N1765 1.314 . S
C1768 C1766 1.353 . S
C1768 H1826 0.930 . S
C1769 N1765 1.279 . S
C1769 C1767 1.358 . S
C1769 H1827 0.930 . S
C1770 C1773 1.348 . S
C1770 C1774 1.356 . S
C1770 O1821 1.325 . S
C1771 N1772 1.279 . S
C1771 C1774 1.358 . S
C1771 H1828 0.930 . S
N1772 C1771 1.279 . S
N1772 C1775 1.314 . S
C1773 C1770 1.348 . S
C1773 C1775 1.353 . S
C1773 H1829 0.929 . S
C1774 C1770 1.356 . S
C1774 C1771 1.358 . S
C1774 H1830 0.930 . S
C1775 N1772 1.314 . S
C1775 C1773 1.353 . S
C1775 H1831 0.930 . S
C1776 N1777 1.314 . S
C1776 C1781 1.353 . S
C1776 H1782 0.930 . S
N1777 Li1760 1.990 . S
N1777 C1776 1.314 . S
N1777 C1779 1.279 . S
C1778 C1779 1.358 . S
C1778 C1780 1.356 . S
C1778 H1832 0.930 . S
C1779 N1777 1.279 . S
C1779 C1778 1.358 . S
C1779 H1783 0.930 . S
C1780 C1778 1.356 . S
C1780 C1781 1.348 . S
C1781 C1776 1.353 . S
C1781 C1780 1.348 . S
C1781 H1833 0.929 . S
H1782 C1776 0.930 . S
H1783 C1779 0.930 . S
C1784 N1785 1.314 1_556 S
C1784 C1786 1.353 . S
C1784 H1790 0.930 . S
N1785 Li1761 1.990 . S
N1785 C1784 1.314 1_554 S
N1785 C1788 1.279 . S
C1786 C1784 1.353 . S
C1786 C1789 1.348 1_556 S
C1786 H1834 0.929 . S
C1787 C1788 1.358 . S
C1787 C1789 1.356 . S
C1787 H1835 0.930 . S
C1788 N1785 1.279 . S
C1788 C1787 1.358 . S
C1788 H1791 0.930 . S
C1789 C1786 1.348 1_554 S
C1789 C1787 1.356 . S
H1790 C1784 0.930 . S
H1791 C1788 0.930 . S
C1792 C1794 1.348 1_554 S
C1792 C1795 1.356 . S
C1792 O1822 1.325 . S
N1793 C1796 1.307 1_554 S
N1793 C1797 1.287 . S
C1794 C1792 1.348 1_556 S
C1794 C1796 1.353 . S
C1794 H1836 0.929 . S
C1795 C1792 1.356 . S
C1795 C1797 1.358 . S
C1795 H1837 0.930 . S
C1796 N1793 1.307 1_556 S
C1796 C1794 1.353 . S
C1796 H1838 0.930 . S
C1797 N1793 1.287 . S
C1797 C1795 1.358 . S
C1797 H1839 0.930 . S
C1798 C1799 1.348 . S
C1798 C1800 1.356 . S
C1798 O1823 1.325 . S
C1799 C1798 1.348 . S
C1799 C1801 1.353 . S
C1799 H1840 0.929 . S
C1800 C1798 1.356 . S
C1800 C1802 1.358 . S
C1800 H1841 0.930 . S
C1801 C1799 1.353 . S
C1801 N1803 1.314 . S
C1801 H1842 0.930 . S
C1802 C1800 1.358 . S
C1802 N1803 1.279 . S
C1802 H1843 0.930 . S
N1803 C1801 1.314 . S
N1803 C1802 1.279 . S
C1804 C1806 1.353 . S
C1804 N1807 1.314 . S
C1804 H1810 0.930 . S
C1805 N1807 1.279 . S
C1805 C1808 1.358 . S
C1805 H1811 0.930 . S
C1806 C1804 1.353 . S
C1806 C1809 1.348 . S
C1806 H1844 0.929 . S
N1807 Li1762 1.990 . S
N1807 C1804 1.314 . S
N1807 C1805 1.279 . S
C1808 C1805 1.358 . S
C1808 C1809 1.356 . S
C1808 H1845 0.930 . S
C1809 C1806 1.348 . S
C1809 C1808 1.356 . S
H1810 C1804 0.930 . S
H1811 C1805 0.930 . S
C1812 N1813 1.314 1_554 S
C1812 C1814 1.353 . S
C1812 H1818 0.930 . S
N1813 Li1763 1.990 1_556 S
N1813 C1812 1.314 1_556 S
N1813 C1816 1.279 . S
C1814 C1812 1.353 . S
C1814 C1817 1.348 1_554 S
C1814 H1846 0.929 . S
C1815 C1816 1.358 . S
C1815 C1817 1.356 . S
C1815 H1847 0.930 . S
C1816 N1813 1.279 . S
C1816 C1815 1.358 . S
C1816 H1819 0.930 . S
C1817 C1814 1.348 1_556 S
C1817 C1815 1.356 . S
H1818 C1812 0.930 . S
H1819 C1816 0.930 . S
O1820 Li1760 1.956 . S
O1820 Li1761 1.970 . S
O1820 Li1762 1.961 1_554 S
O1820 C1764 1.325 . S
O1821 Li1760 1.970 . S
O1821 Li1761 1.956 . S
O1821 Li1763 1.961 . S
O1821 C1770 1.325 . S
O1822 Li1760 1.961 . S
O1822 Li1762 1.956 1_554 S
O1822 Li1763 1.970 . S
O1822 C1792 1.325 . S
O1823 Li1761 1.961 1_556 S
O1823 Li1762 1.970 . S
O1823 Li1763 1.956 1_556 S
O1823 C1798 1.325 . S
H1824 C1766 0.929 . S
H1825 C1767 0.937 . S
H1826 C1768 0.930 . S
H1827 C1769 0.930 . S
H1828 C1771 0.930 . S
H1829 C1773 0.929 . S
H1830 C1774 0.930 . S
H1831 C1775 0.930 . S
H1832 C1778 0.930 . S
H1833 C1781 0.929 . S
H1834 C1786 0.929 . S
H1835 C1787 0.930 . S
H1836 C1794 0.929 . S
H1837 C1795 0.930 . S
H1838 C1796 0.930 . S
H1839 C1797 0.930 . S
H1840 C1799 0.929 . S
H1841 C1800 0.930 . S
H1842 C1801 0.930 . S
H1843 C1802 0.930 . S
H1844 C1806 0.929 . S
H1845 C1808 0.930 . S
H1846 C1814 0.929 . S
H1847 C1815 0.930 . S
Li1848 N1865 1.990 . S
Li1848 O1908 1.956 . S
Li1848 O1909 1.970 . S
Li1848 O1910 1.961 . S
Li1849 N1873 1.990 . S
Li1849 O1908 1.970 . S
Li1849 O1909 1.956 . S
Li1849 O1911 1.961 . S
Li1850 N1895 1.990 . S
Li1850 O1908 1.961 . S
Li1850 O1910 1.956 . S
Li1850 O1911 1.970 . S
Li1851 N1901 1.990 . S
Li1851 O1909 1.961 . S
Li1851 O1910 1.970 . S
Li1851 O1911 1.956 . S
C1852 C1854 1.348 . S
C1852 C1855 1.356 . S
C1852 O1908 1.325 . S
N1853 C1856 1.314 . S
N1853 C1857 1.279 . S
C1854 C1852 1.348 . S
C1854 C1856 1.353 . S
C1854 H1912 0.929 . S
C1855 C1852 1.356 . S
C1855 C1857 1.358 . S
C1855 H1913 0.930 . S
C1856 N1853 1.314 . S
C1856 C1854 1.353 . S
C1856 H1914 0.930 . S
C1857 N1853 1.279 . S
C1857 C1855 1.358 . S
C1857 H1915 0.930 . S
C1858 C1861 1.348 . S
C1858 C1862 1.356 . S
C1858 O1909 1.325 . S
C1859 N1860 1.279 . S
C1859 C1862 1.358 . S
C1859 H1916 0.930 . S
N1860 C1859 1.279 . S
N1860 C1863 1.314 . S
C1861 C1858 1.348 . S
C1861 C1863 1.353 . S
C1861 H1917 0.929 . S
C1862 C1858 1.356 . S
C1862 C1859 1.358 . S
C1862 H1918 0.930 . S
C1863 N1860 1.314 . S
C1863 C1861 1.353 . S
C1863 H1919 0.930 . S
C1864 N1865 1.314 . S
C1864 C1869 1.353 . S
C1864 H1870 0.930 . S
N1865 Li1848 1.990 . S
N1865 C1864 1.314 . S
N1865 C1867 1.279 . S
C1866 C1867 1.358 . S
C1866 C1868 1.356 . S
C1866 H1920 0.930 . S
C1867 N1865 1.279 . S
C1867 C1866 1.358 . S
C1867 H1871 0.930 . S
C1868 C1866 1.356 . S
C1868 C1869 1.348 . S
C1869 C1864 1.353 . S
C1869 C1868 1.348 . S
C1869 H1921 0.929 . S
H1870 C1864 0.930 . S
H1871 C1867 0.930 . S
C1872 N1873 1.314 . S
C1872 C1874 1.353 . S
C1872 H1878 0.930 . S
N1873 Li1849 1.990 . S
N1873 C1872 1.314 . S
N1873 C1876 1.279 . S
C1874 C1872 1.353 . S
C1874 C1877 1.348 . S
C1874 H1922 0.929 . S
C1875 C1876 1.358 . S
C1875 C1877 1.356 . S
C1875 H1923 0.930 . S
C1876 N1873 1.279 . S
C1876 C1875 1.358 . S
C1876 H1879 0.930 . S
C1877 C1874 1.348 . S
C1877 C1875 1.356 . S
H1878 C1872 0.930 . S
H1879 C1876 0.930 . S
C1880 C1882 1.348 . S
C1880 C1883 1.356 . S
C1880 O1910 1.325 . S
N1881 C1884 1.314 . S
N1881 C1885 1.279 . S
C1882 C1880 1.348 . S
C1882 C1884 1.353 . S
C1882 H1924 0.929 . S
C1883 C1880 1.356 . S
C1883 C1885 1.358 . S
C1883 H1925 0.930 . S
C1884 N1881 1.314 . S
C1884 C1882 1.353 . S
C1884 H1926 0.930 . S
C1885 N1881 1.279 . S
C1885 C1883 1.358 . S
C1885 H1927 0.930 . S
C1886 C1887 1.348 . S
C1886 C1888 1.356 . S
C1886 O1911 1.325 . S
C1887 C1886 1.348 . S
C1887 C1889 1.353 . S
C1887 H1928 0.929 . S
C1888 C1886 1.356 . S
C1888 C1890 1.358 . S
C1888 H1929 0.930 . S
C1889 C1887 1.353 . S
C1889 N1891 1.314 . S
C1889 H1930 0.930 . S
C1890 C1888 1.358 . S
C1890 N1891 1.279 . S
C1890 H1931 0.930 . S
N1891 C1889 1.314 . S
N1891 C1890 1.279 . S
C1892 C1894 1.353 . S
C1892 N1895 1.314 . S
C1892 H1898 0.930 . S
C1893 N1895 1.279 . S
C1893 C1896 1.358 . S
C1893 H1899 0.930 . S
C1894 C1892 1.353 . S
C1894 C1897 1.348 . S
C1894 H1932 0.929 . S
N1895 Li1850 1.990 . S
N1895 C1892 1.314 . S
N1895 C1893 1.279 . S
C1896 C1893 1.358 . S
C1896 C1897 1.356 . S
C1896 H1933 0.930 . S
C1897 C1894 1.348 . S
C1897 C1896 1.356 . S
H1898 C1892 0.930 . S
H1899 C1893 0.930 . S
C1900 N1901 1.314 . S
C1900 C1902 1.353 . S
C1900 H1906 0.930 . S
N1901 Li1851 1.990 . S
N1901 C1900 1.314 . S
N1901 C1904 1.279 . S
C1902 C1900 1.353 . S
C1902 C1905 1.348 . S
C1902 H1934 0.929 . S
C1903 C1904 1.358 . S
C1903 C1905 1.356 . S
C1903 H1935 0.930 . S
C1904 N1901 1.279 . S
C1904 C1903 1.358 . S
C1904 H1907 0.930 . S
C1905 C1902 1.348 . S
C1905 C1903 1.356 . S
H1906 C1900 0.930 . S
H1907 C1904 0.930 . S
O1908 Li1848 1.956 . S
O1908 Li1849 1.970 . S
O1908 Li1850 1.961 . S
O1908 C1852 1.325 . S
O1909 Li1848 1.970 . S
O1909 Li1849 1.956 . S
O1909 Li1851 1.961 . S
O1909 C1858 1.325 . S
O1910 Li1848 1.961 . S
O1910 Li1850 1.956 . S
O1910 Li1851 1.970 . S
O1910 C1880 1.325 . S
O1911 Li1849 1.961 . S
O1911 Li1850 1.970 . S
O1911 Li1851 1.956 . S
O1911 C1886 1.325 . S
H1912 C1854 0.929 . S
H1913 C1855 0.930 . S
H1914 C1856 0.930 . S
H1915 C1857 0.930 . S
H1916 C1859 0.930 . S
H1917 C1861 0.929 . S
H1918 C1862 0.930 . S
H1919 C1863 0.930 . S
H1920 C1866 0.930 . S
H1921 C1869 0.929 . S
H1922 C1874 0.929 . S
H1923 C1875 0.930 . S
H1924 C1882 0.929 . S
H1925 C1883 0.930 . S
H1926 C1884 0.930 . S
H1927 C1885 0.930 . S
H1928 C1887 0.929 . S
H1929 C1888 0.930 . S
H1930 C1889 0.930 . S
H1931 C1890 0.930 . S
H1932 C1894 0.929 . S
H1933 C1896 0.930 . S
H1934 C1902 0.929 . S
H1935 C1903 0.930 . S
Li1936 N1953 1.990 . S
Li1936 O1996 1.956 . S
Li1936 O1997 1.970 . S
Li1936 O1998 1.961 . S
Li1937 N1961 1.990 . S
Li1937 O1996 1.970 . S
Li1937 O1997 1.956 . S
Li1937 O1999 1.961 . S
Li1938 N1983 1.990 . S
Li1938 O1996 1.961 . S
Li1938 O1998 1.956 . S
Li1938 O1999 1.970 . S
Li1939 N1989 1.990 . S
Li1939 O1997 1.961 . S
Li1939 O1998 1.970 . S
Li1939 O1999 1.956 . S
C1940 C1942 1.348 . S
C1940 C1943 1.356 . S
C1940 O1996 1.325 . S
N1941 C1944 1.314 . S
N1941 C1945 1.279 . S
C1942 C1940 1.348 . S
C1942 C1944 1.353 . S
C1942 H2000 0.929 . S
C1943 C1940 1.356 . S
C1943 C1945 1.358 . S
C1943 H2001 0.930 . S
C1944 N1941 1.314 . S
C1944 C1942 1.353 . S
C1944 H2002 0.930 . S
C1945 N1941 1.279 . S
C1945 C1943 1.358 . S
C1945 H2003 0.930 . S
C1946 C1949 1.348 . S
C1946 C1950 1.356 . S
C1946 O1997 1.325 . S
C1947 N1948 1.279 . S
C1947 C1950 1.358 . S
C1947 H2004 0.930 . S
N1948 C1947 1.279 . S
N1948 C1951 1.314 . S
C1949 C1946 1.348 . S
C1949 C1951 1.353 . S
C1949 H2005 0.929 . S
C1950 C1946 1.356 . S
C1950 C1947 1.358 . S
C1950 H2006 0.930 . S
C1951 N1948 1.314 . S
C1951 C1949 1.353 . S
C1951 H2007 0.930 . S
C1952 N1953 1.314 . S
C1952 C1957 1.353 . S
C1952 H1958 0.930 . S
N1953 Li1936 1.990 . S
N1953 C1952 1.314 . S
N1953 C1955 1.279 . S
C1954 C1955 1.358 . S
C1954 C1956 1.356 . S
C1954 H2008 0.930 . S
C1955 N1953 1.279 . S
C1955 C1954 1.358 . S
C1955 H1959 0.930 . S
C1956 C1954 1.356 . S
C1956 C1957 1.348 . S
C1957 C1952 1.353 . S
C1957 C1956 1.348 . S
C1957 H2009 0.929 . S
H1958 C1952 0.930 . S
H1959 C1955 0.930 . S
C1960 N1961 1.314 . S
C1960 C1962 1.353 . S
C1960 H1966 0.930 . S
N1961 Li1937 1.990 . S
N1961 C1960 1.314 . S
N1961 C1964 1.279 . S
C1962 C1960 1.353 . S
C1962 C1965 1.348 . S
C1962 H2010 0.929 . S
C1963 C1964 1.358 . S
C1963 C1965 1.356 . S
C1963 H2011 0.930 . S
C1964 N1961 1.279 . S
C1964 C1963 1.358 . S
C1964 H1967 0.930 . S
C1965 C1962 1.348 . S
C1965 C1963 1.356 . S
H1966 C1960 0.930 . S
H1967 C1964 0.930 . S
C1968 C1970 1.348 . S
C1968 C1971 1.356 . S
C1968 O1998 1.325 . S
N1969 C1972 1.314 . S
N1969 C1973 1.279 . S
C1970 C1968 1.348 . S
C1970 C1972 1.353 . S
C1970 H2012 0.929 . S
C1971 C1968 1.356 . S
C1971 C1973 1.358 . S
C1971 H2013 0.930 . S
C1972 N1969 1.314 . S
C1972 C1970 1.353 . S
C1972 H2014 0.930 . S
C1973 N1969 1.279 . S
C1973 C1971 1.358 . S
C1973 H2015 0.930 . S
C1974 C1975 1.348 . S
C1974 C1976 1.356 . S
C1974 O1999 1.325 . S
C1975 C1974 1.348 . S
C1975 C1977 1.353 . S
C1975 H2016 0.929 . S
C1976 C1974 1.356 . S
C1976 C1978 1.358 . S
C1976 H2017 0.930 . S
C1977 C1975 1.353 . S
C1977 N1979 1.314 . S
C1977 H2018 0.930 . S
C1978 C1976 1.358 . S
C1978 N1979 1.279 . S
C1978 H2019 0.930 . S
N1979 C1977 1.314 . S
N1979 C1978 1.279 . S
C1980 C1982 1.353 . S
C1980 N1983 1.314 . S
C1980 H1986 0.930 . S
C1981 N1983 1.279 . S
C1981 C1984 1.358 . S
C1981 H1987 0.930 . S
C1982 C1980 1.353 . S
C1982 C1985 1.348 . S
C1982 H2020 0.929 . S
N1983 Li1938 1.990 . S
N1983 C1980 1.314 . S
N1983 C1981 1.279 . S
C1984 C1981 1.358 . S
C1984 C1985 1.356 . S
C1984 H2021 0.930 . S
C1985 C1982 1.348 . S
C1985 C1984 1.356 . S
H1986 C1980 0.930 . S
H1987 C1981 0.930 . S
C1988 N1989 1.314 . S
C1988 C1990 1.353 . S
C1988 H1994 0.930 . S
N1989 Li1939 1.990 . S
N1989 C1988 1.314 . S
N1989 C1992 1.279 . S
C1990 C1988 1.353 . S
C1990 C1993 1.348 . S
C1990 H2022 0.929 . S
C1991 C1992 1.358 . S
C1991 C1993 1.356 . S
C1991 H2023 0.930 . S
C1992 N1989 1.279 . S
C1992 C1991 1.358 . S
C1992 H1995 0.930 . S
C1993 C1990 1.348 . S
C1993 C1991 1.356 . S
H1994 C1988 0.930 . S
H1995 C1992 0.930 . S
O1996 Li1936 1.956 . S
O1996 Li1937 1.970 . S
O1996 Li1938 1.961 . S
O1996 C1940 1.325 . S
O1997 Li1936 1.970 . S
O1997 Li1937 1.956 . S
O1997 Li1939 1.961 . S
O1997 C1946 1.325 . S
O1998 Li1936 1.961 . S
O1998 Li1938 1.956 . S
O1998 Li1939 1.970 . S
O1998 C1968 1.325 . S
O1999 Li1937 1.961 . S
O1999 Li1938 1.970 . S
O1999 Li1939 1.956 . S
O1999 C1974 1.325 . S
H2000 C1942 0.929 . S
H2001 C1943 0.930 . S
H2002 C1944 0.930 . S
H2003 C1945 0.930 . S
H2004 C1947 0.930 . S
H2005 C1949 0.929 . S
H2006 C1950 0.930 . S
H2007 C1951 0.930 . S
H2008 C1954 0.930 . S
H2009 C1957 0.929 . S
H2010 C1962 0.929 . S
H2011 C1963 0.930 . S
H2012 C1970 0.929 . S
H2013 C1971 0.930 . S
H2014 C1972 0.930 . S
H2015 C1973 0.930 . S
H2016 C1975 0.929 . S
H2017 C1976 0.930 . S
H2018 C1977 0.930 . S
H2019 C1978 0.930 . S
H2020 C1982 0.929 . S
H2021 C1984 0.930 . S
H2022 C1990 0.929 . S
H2023 C1991 0.930 . S
Li2024 N2041 1.990 . S
Li2024 O2084 1.956 . S
Li2024 O2085 1.970 . S
Li2024 O2086 1.961 . S
Li2025 N2049 1.990 . S
Li2025 O2084 1.970 . S
Li2025 O2085 1.956 . S
Li2025 O2087 1.961 . S
Li2026 N2071 1.990 . S
Li2026 O2084 1.961 . S
Li2026 O2086 1.956 . S
Li2026 O2087 1.970 . S
Li2027 N2077 1.990 . S
Li2027 O2085 1.961 . S
Li2027 O2086 1.970 . S
Li2027 O2087 1.956 . S
C2028 C2030 1.348 . S
C2028 C2031 1.356 . S
C2028 O2084 1.325 . S
N2029 C2032 1.314 . S
N2029 C2033 1.279 . S
C2030 C2028 1.348 . S
C2030 C2032 1.353 . S
C2030 H2088 0.929 . S
C2031 C2028 1.356 . S
C2031 C2033 1.358 . S
C2031 H2089 0.930 . S
C2032 N2029 1.314 . S
C2032 C2030 1.353 . S
C2032 H2090 0.930 . S
C2033 N2029 1.279 . S
C2033 C2031 1.358 . S
C2033 H2091 0.930 . S
C2034 C2037 1.348 . S
C2034 C2038 1.356 . S
C2034 O2085 1.325 . S
C2035 N2036 1.279 . S
C2035 C2038 1.358 . S
C2035 H2092 0.930 . S
N2036 C2035 1.279 . S
N2036 C2039 1.314 . S
C2037 C2034 1.348 . S
C2037 C2039 1.353 . S
C2037 H2093 0.929 . S
C2038 C2034 1.356 . S
C2038 C2035 1.358 . S
C2038 H2094 0.930 . S
C2039 N2036 1.314 . S
C2039 C2037 1.353 . S
C2039 H2095 0.930 . S
C2040 N2041 1.314 . S
C2040 C2045 1.353 . S
C2040 H2046 0.930 . S
N2041 Li2024 1.990 . S
N2041 C2040 1.314 . S
N2041 C2043 1.279 . S
C2042 C2043 1.358 . S
C2042 C2044 1.356 . S
C2042 H2096 0.930 . S
C2043 N2041 1.279 . S
C2043 C2042 1.358 . S
C2043 H2047 0.930 . S
C2044 C2042 1.356 . S
C2044 C2045 1.348 . S
C2045 C2040 1.353 . S
C2045 C2044 1.348 . S
C2045 H2097 0.929 . S
H2046 C2040 0.930 . S
H2047 C2043 0.930 . S
C2048 N2049 1.314 . S
C2048 C2050 1.353 . S
C2048 H2054 0.930 . S
N2049 Li2025 1.990 . S
N2049 C2048 1.314 . S
N2049 C2052 1.279 . S
C2050 C2048 1.353 . S
C2050 C2053 1.348 . S
C2050 H2098 0.929 . S
C2051 C2052 1.358 . S
C2051 C2053 1.356 . S
C2051 H2099 0.930 . S
C2052 N2049 1.279 . S
C2052 C2051 1.358 . S
C2052 H2055 0.930 . S
C2053 C2050 1.348 . S
C2053 C2051 1.356 . S
H2054 C2048 0.930 . S
H2055 C2052 0.930 . S
C2056 C2058 1.348 . S
C2056 C2059 1.356 . S
C2056 O2086 1.325 . S
N2057 C2060 1.314 . S
N2057 C2061 1.279 . S
C2058 C2056 1.348 . S
C2058 C2060 1.353 . S
C2058 H2100 0.929 . S
C2059 C2056 1.356 . S
C2059 C2061 1.358 . S
C2059 H2101 0.930 . S
C2060 N2057 1.314 . S
C2060 C2058 1.353 . S
C2060 H2102 0.930 . S
C2061 N2057 1.279 . S
C2061 C2059 1.358 . S
C2061 H2103 0.930 . S
C2062 C2063 1.348 . S
C2062 C2064 1.356 . S
C2062 O2087 1.325 . S
C2063 C2062 1.348 . S
C2063 C2065 1.353 . S
C2063 H2104 0.929 . S
C2064 C2062 1.356 . S
C2064 C2066 1.358 . S
C2064 H2105 0.930 . S
C2065 C2063 1.353 . S
C2065 N2067 1.314 . S
C2065 H2106 0.930 . S
C2066 C2064 1.358 . S
C2066 N2067 1.279 . S
C2066 H2107 0.930 . S
N2067 C2065 1.314 . S
N2067 C2066 1.279 . S
C2068 C2070 1.353 . S
C2068 N2071 1.314 . S
C2068 H2074 0.930 . S
C2069 N2071 1.279 . S
C2069 C2072 1.358 . S
C2069 H2075 0.930 . S
C2070 C2068 1.353 . S
C2070 C2073 1.348 . S
C2070 H2108 0.929 . S
N2071 Li2026 1.990 . S
N2071 C2068 1.314 . S
N2071 C2069 1.279 . S
C2072 C2069 1.358 . S
C2072 C2073 1.356 . S
C2072 H2109 0.930 . S
C2073 C2070 1.348 . S
C2073 C2072 1.356 . S
H2074 C2068 0.930 . S
H2075 C2069 0.930 . S
C2076 N2077 1.314 . S
C2076 C2078 1.353 . S
C2076 H2082 0.930 . S
N2077 Li2027 1.990 . S
N2077 C2076 1.314 . S
N2077 C2080 1.279 . S
C2078 C2076 1.353 . S
C2078 C2081 1.348 . S
C2078 H2110 0.929 . S
C2079 C2080 1.358 . S
C2079 C2081 1.356 . S
C2079 H2111 0.930 . S
C2080 N2077 1.279 . S
C2080 C2079 1.358 . S
C2080 H2083 0.930 . S
C2081 C2078 1.348 . S
C2081 C2079 1.356 . S
H2082 C2076 0.930 . S
H2083 C2080 0.930 . S
O2084 Li2024 1.956 . S
O2084 Li2025 1.970 . S
O2084 Li2026 1.961 . S
O2084 C2028 1.325 . S
O2085 Li2024 1.970 . S
O2085 Li2025 1.956 . S
O2085 Li2027 1.961 . S
O2085 C2034 1.325 . S
O2086 Li2024 1.961 . S
O2086 Li2026 1.956 . S
O2086 Li2027 1.970 . S
O2086 C2056 1.325 . S
O2087 Li2025 1.961 . S
O2087 Li2026 1.970 . S
O2087 Li2027 1.956 . S
O2087 C2062 1.325 . S
H2088 C2030 0.929 . S
H2089 C2031 0.930 . S
H2090 C2032 0.930 . S
H2091 C2033 0.930 . S
H2092 C2035 0.930 . S
H2093 C2037 0.929 . S
H2094 C2038 0.930 . S
H2095 C2039 0.930 . S
H2096 C2042 0.930 . S
H2097 C2045 0.929 . S
H2098 C2050 0.929 . S
H2099 C2051 0.930 . S
H2100 C2058 0.929 . S
H2101 C2059 0.930 . S
H2102 C2060 0.930 . S
H2103 C2061 0.930 . S
H2104 C2063 0.929 . S
H2105 C2064 0.930 . S
H2106 C2065 0.930 . S
H2107 C2066 0.930 . S
H2108 C2070 0.929 . S
H2109 C2072 0.930 . S
H2110 C2078 0.929 . S
H2111 C2079 0.930 . S
Tb2112 O2115 2.453 . S
Tb2112 O2116 2.596 . S
Tb2112 O2117 2.374 1_554 S
Tb2112 O2125 2.343 1_455 S
Tb2112 O2127 2.353 . S
Tb2112 O2129 2.427 . S
Tb2112 O2130 2.513 1_554 S
C2113 O2117 1.251 . S
C2113 O2119 1.263 . S
Tb2114 O2116 2.346 1_655 S
Tb2114 O2119 2.355 1_654 S
Tb2114 O2122 2.415 1_645 S
Tb2114 O2123 2.504 1_645 S
Tb2114 O2124 2.461 1_554 S
Tb2114 O2125 2.608 . S
Tb2114 O2126 2.380 . S
O2115 Tb2112 2.453 . S
O2115 C2131 1.245 . S
O2116 Tb2112 2.596 . S
O2116 Tb2114 2.346 1_455 S
O2116 C2131 1.259 . S
O2117 Tb2112 2.374 1_556 S
O2117 C2113 1.251 . S
C2118 O2122 1.275 . S
C2118 O2123 1.246 . S
O2119 C2113 1.263 . S
O2119 Tb2114 2.355 1_456 S
C2120 O2124 1.245 1_554 S
C2120 O2125 1.259 . S
C2121 O2126 1.250 . S
C2121 O2127 1.263 1_655 S
O2122 Tb2114 2.415 1_465 S
O2122 C2118 1.275 . S
O2123 Tb2114 2.504 1_465 S
O2123 C2118 1.246 . S
O2124 Tb2114 2.461 1_556 S
O2124 C2120 1.245 1_556 S
O2125 Tb2112 2.343 1_655 S
O2125 Tb2114 2.608 . S
O2125 C2120 1.259 . S
O2126 Tb2114 2.380 . S
O2126 C2121 1.250 . S
O2127 Tb2112 2.353 . S
O2127 C2121 1.263 1_455 S
C2128 O2129 1.274 . S
C2128 O2130 1.246 1_554 S
O2129 Tb2112 2.427 . S
O2129 C2128 1.274 . S
O2130 Tb2112 2.513 1_556 S
O2130 C2128 1.246 1_556 S
C2131 O2115 1.245 . S
C2131 O2116 1.259 . S
Tb2132 O2135 2.453 . S
Tb2132 O2136 2.596 . S
Tb2132 O2137 2.374 . S
Tb2132 O2145 2.343 . S
Tb2132 O2147 2.353 . S
Tb2132 O2149 2.427 . S
Tb2132 O2150 2.513 . S
C2133 O2137 1.251 . S
C2133 O2139 1.263 . S
Tb2134 O2136 2.343 . S
Tb2134 O2139 2.353 . S
Tb2134 O2142 2.427 . S
Tb2134 O2143 2.513 . S
Tb2134 O2144 2.453 . S
Tb2134 O2145 2.596 . S
Tb2134 O2146 2.374 . S
O2135 Tb2132 2.453 . S
O2135 C2151 1.245 . S
O2136 Tb2132 2.596 . S
O2136 Tb2134 2.343 . S
O2136 C2151 1.259 . S
O2137 Tb2132 2.374 . S
O2137 C2133 1.251 . S
C2138 O2142 1.275 . S
C2138 O2143 1.246 . S
O2139 C2133 1.263 . S
O2139 Tb2134 2.353 . S
C2140 O2144 1.245 . S
C2140 O2145 1.259 . S
C2141 O2146 1.250 . S
C2141 O2147 1.263 . S
O2142 Tb2134 2.427 . S
O2142 C2138 1.275 . S
O2143 Tb2134 2.513 . S
O2143 C2138 1.246 . S
O2144 Tb2134 2.453 . S
O2144 C2140 1.245 . S
O2145 Tb2132 2.343 . S
O2145 Tb2134 2.596 . S
O2145 C2140 1.259 . S
O2146 Tb2134 2.374 . S
O2146 C2141 1.250 . S
O2147 Tb2132 2.353 . S
O2147 C2141 1.263 . S
C2148 O2149 1.275 . S
C2148 O2150 1.246 . S
O2149 Tb2132 2.427 . S
O2149 C2148 1.275 . S
O2150 Tb2132 2.513 . S
O2150 C2148 1.246 . S
C2151 O2135 1.245 . S
C2151 O2136 1.259 . S
Tb2152 O2155 2.453 . S
Tb2152 O2156 2.596 . S
Tb2152 O2157 2.374 . S
Tb2152 O2165 2.343 . S
Tb2152 O2167 2.353 . S
Tb2152 O2169 2.427 . S
Tb2152 O2170 2.513 . S
C2153 O2157 1.251 . S
C2153 O2159 1.263 . S
Tb2154 O2156 2.343 . S
Tb2154 O2159 2.353 . S
Tb2154 O2162 2.427 . S
Tb2154 O2163 2.513 . S
Tb2154 O2164 2.453 1_545 S
Tb2154 O2165 2.596 . S
Tb2154 O2166 2.374 . S
O2155 Tb2152 2.453 . S
O2155 C2171 1.245 . S
O2156 Tb2152 2.596 . S
O2156 Tb2154 2.343 . S
O2156 C2171 1.259 . S
O2157 Tb2152 2.374 . S
O2157 C2153 1.251 . S
C2158 O2162 1.275 . S
C2158 O2163 1.246 . S
O2159 C2153 1.263 . S
O2159 Tb2154 2.353 . S
C2160 O2164 1.245 . S
C2160 O2165 1.259 1_565 S
C2161 O2166 1.250 . S
C2161 O2167 1.263 . S
O2162 Tb2154 2.427 . S
O2162 C2158 1.275 . S
O2163 Tb2154 2.513 . S
O2163 C2158 1.246 . S
O2164 Tb2154 2.453 1_565 S
O2164 C2160 1.245 . S
O2165 Tb2152 2.343 . S
O2165 Tb2154 2.596 . S
O2165 C2160 1.259 1_545 S
O2166 Tb2154 2.374 . S
O2166 C2161 1.250 . S
O2167 Tb2152 2.353 . S
O2167 C2161 1.263 . S
C2168 O2169 1.275 . S
C2168 O2170 1.246 . S
O2169 Tb2152 2.427 . S
O2169 C2168 1.275 . S
O2170 Tb2152 2.513 . S
O2170 C2168 1.246 . S
C2171 O2155 1.245 . S
C2171 O2156 1.259 . S
Tb2172 O2175 2.453 . S
Tb2172 O2176 2.596 . S
Tb2172 O2177 2.374 . S
Tb2172 O2185 2.343 . S
Tb2172 O2187 2.353 . S
Tb2172 O2189 2.427 . S
Tb2172 O2190 2.513 . S
C2173 O2177 1.251 . S
C2173 O2179 1.263 . S
Tb2174 O2176 2.343 . S
Tb2174 O2179 2.353 . S
Tb2174 O2182 2.427 . S
Tb2174 O2183 2.513 . S
Tb2174 O2184 2.453 . S
Tb2174 O2185 2.596 . S
Tb2174 O2186 2.374 . S
O2175 Tb2172 2.453 . S
O2175 C2191 1.245 . S
O2176 Tb2172 2.596 . S
O2176 Tb2174 2.343 . S
O2176 C2191 1.259 . S
O2177 Tb2172 2.374 . S
O2177 C2173 1.251 . S
C2178 O2182 1.275 . S
C2178 O2183 1.246 . S
O2179 C2173 1.263 . S
O2179 Tb2174 2.353 . S
C2180 O2184 1.245 . S
C2180 O2185 1.259 . S
C2181 O2186 1.250 . S
C2181 O2187 1.263 . S
O2182 Tb2174 2.427 . S
O2182 C2178 1.275 . S
O2183 Tb2174 2.513 . S
O2183 C2178 1.246 . S
O2184 Tb2174 2.453 . S
O2184 C2180 1.245 . S
O2185 Tb2172 2.343 . S
O2185 Tb2174 2.596 . S
O2185 C2180 1.259 . S
O2186 Tb2174 2.374 . S
O2186 C2181 1.250 . S
O2187 Tb2172 2.353 . S
O2187 C2181 1.263 . S
C2188 O2189 1.275 . S
C2188 O2190 1.246 . S
O2189 Tb2172 2.427 . S
O2189 C2188 1.275 . S
O2190 Tb2172 2.513 . S
O2190 C2188 1.246 . S
C2191 O2175 1.245 . S
C2191 O2176 1.259 . S
Tb2192 O2195 2.453 1_545 S
Tb2192 O2196 2.596 . S
Tb2192 O2197 2.374 1_455 S
Tb2192 O2205 2.343 . S
Tb2192 O2207 2.353 . S
Tb2192 O2209 2.427 . S
Tb2192 O2210 2.513 1_455 S
C2193 O2197 1.251 . S
C2193 O2199 1.263 . S
Tb2194 O2196 2.343 . S
Tb2194 O2199 2.353 1_455 S
Tb2194 O2202 2.427 . S
Tb2194 O2203 2.513 . S
Tb2194 O2204 2.453 . S
Tb2194 O2205 2.596 . S
Tb2194 O2206 2.374 . S
O2195 Tb2192 2.453 1_565 S
O2195 C2211 1.245 . S
O2196 Tb2192 2.596 . S
O2196 Tb2194 2.343 . S
O2196 C2211 1.259 1_545 S
O2197 Tb2192 2.374 1_655 S
O2197 C2193 1.251 . S
C2198 O2202 1.275 . S
C2198 O2203 1.246 . S
O2199 C2193 1.263 . S
O2199 Tb2194 2.353 1_655 S
C2200 O2204 1.245 . S
C2200 O2205 1.259 . S
C2201 O2206 1.250 . S
C2201 O2207 1.263 . S
O2202 Tb2194 2.427 . S
O2202 C2198 1.275 . S
O2203 Tb2194 2.513 . S
O2203 C2198 1.246 . S
O2204 Tb2194 2.453 . S
O2204 C2200 1.245 . S
O2205 Tb2192 2.343 . S
O2205 Tb2194 2.596 . S
O2205 C2200 1.259 . S
O2206 Tb2194 2.374 . S
O2206 C2201 1.250 . S
O2207 Tb2192 2.353 . S
O2207 C2201 1.263 . S
C2208 O2209 1.275 1_655 S
C2208 O2210 1.246 . S
O2209 Tb2192 2.427 . S
O2209 C2208 1.275 1_455 S
O2210 Tb2192 2.513 1_655 S
O2210 C2208 1.246 . S
C2211 O2195 1.245 . S
C2211 O2196 1.259 1_565 S
Tb2212 O2215 2.453 . S
Tb2212 O2216 2.596 . S
Tb2212 O2217 2.374 . S
Tb2212 O2225 2.343 . S
Tb2212 O2227 2.353 . S
Tb2212 O2229 2.427 . S
Tb2212 O2230 2.513 . S
C2213 O2217 1.251 . S
C2213 O2219 1.263 . S
Tb2214 O2216 2.343 . S
Tb2214 O2219 2.353 . S
Tb2214 O2222 2.427 . S
Tb2214 O2223 2.513 . S
Tb2214 O2224 2.453 . S
Tb2214 O2225 2.596 . S
Tb2214 O2226 2.374 . S
O2215 Tb2212 2.453 . S
O2215 C2231 1.245 . S
O2216 Tb2212 2.596 . S
O2216 Tb2214 2.343 . S
O2216 C2231 1.259 . S
O2217 Tb2212 2.374 . S
O2217 C2213 1.251 . S
C2218 O2222 1.275 . S
C2218 O2223 1.246 . S
O2219 C2213 1.263 . S
O2219 Tb2214 2.353 . S
C2220 O2224 1.245 . S
C2220 O2225 1.259 . S
C2221 O2226 1.250 . S
C2221 O2227 1.263 . S
O2222 Tb2214 2.427 . S
O2222 C2218 1.275 . S
O2223 Tb2214 2.513 . S
O2223 C2218 1.246 . S
O2224 Tb2214 2.453 . S
O2224 C2220 1.245 . S
O2225 Tb2212 2.343 . S
O2225 Tb2214 2.596 . S
O2225 C2220 1.259 . S
O2226 Tb2214 2.374 . S
O2226 C2221 1.250 . S
O2227 Tb2212 2.353 . S
O2227 C2221 1.263 . S
C2228 O2229 1.275 . S
C2228 O2230 1.246 . S
O2229 Tb2212 2.427 . S
O2229 C2228 1.275 . S
O2230 Tb2212 2.513 . S
O2230 C2228 1.246 . S
C2231 O2215 1.245 . S
C2231 O2216 1.259 . S
Tb2232 O2235 2.453 . S
Tb2232 O2236 2.596 . S
Tb2232 O2237 2.374 1_545 S
Tb2232 O2245 2.343 1_556 S
Tb2232 O2247 2.353 1_556 S
Tb2232 O2249 2.427 1_556 S
Tb2232 O2250 2.513 1_546 S
C2233 O2237 1.251 1_554 S
C2233 O2239 1.263 . S
Tb2234 O2236 2.343 1_554 S
Tb2234 O2239 2.353 1_545 S
Tb2234 O2242 2.427 . S
Tb2234 O2243 2.513 . S
Tb2234 O2244 2.453 . S
Tb2234 O2245 2.596 . S
Tb2234 O2246 2.374 . S
O2235 Tb2232 2.453 . S
O2235 C2251 1.245 . S
O2236 Tb2232 2.596 . S
O2236 Tb2234 2.343 1_556 S
O2236 C2251 1.259 . S
O2237 Tb2232 2.374 1_565 S
O2237 C2233 1.251 1_556 S
C2238 O2242 1.275 . S
C2238 O2243 1.246 . S
O2239 C2233 1.263 . S
O2239 Tb2234 2.353 1_565 S
C2240 O2244 1.245 . S
C2240 O2245 1.259 . S
C2241 O2246 1.250 . S
C2241 O2247 1.263 . S
O2242 Tb2234 2.427 . S
O2242 C2238 1.275 . S
O2243 Tb2234 2.513 . S
O2243 C2238 1.246 . S
O2244 Tb2234 2.453 . S
O2244 C2240 1.245 . S
O2245 Tb2232 2.343 1_554 S
O2245 Tb2234 2.596 . S
O2245 C2240 1.259 . S
O2246 Tb2234 2.374 . S
O2246 C2241 1.250 . S
O2247 Tb2232 2.353 1_554 S
O2247 C2241 1.263 . S
C2248 O2249 1.275 . S
C2248 O2250 1.246 1_545 S
O2249 Tb2232 2.427 1_554 S
O2249 C2248 1.275 . S
O2250 Tb2232 2.513 1_564 S
O2250 C2248 1.246 1_565 S
C2251 O2235 1.245 . S
C2251 O2236 1.259 . S
Tb2252 O2255 2.453 . S
Tb2252 O2256 2.596 . S
Tb2252 O2257 2.374 . S
Tb2252 O2265 2.343 . S
Tb2252 O2267 2.353 . S
Tb2252 O2269 2.427 . S
Tb2252 O2270 2.513 . S
C2253 O2257 1.251 . S
C2253 O2259 1.263 . S
Tb2254 O2256 2.343 . S
Tb2254 O2259 2.353 . S
Tb2254 O2262 2.427 . S
Tb2254 O2263 2.513 . S
Tb2254 O2264 2.453 . S
Tb2254 O2265 2.596 . S
Tb2254 O2266 2.374 . S
O2255 Tb2252 2.453 . S
O2255 C2271 1.245 . S
O2256 Tb2252 2.596 . S
O2256 Tb2254 2.343 . S
O2256 C2271 1.259 . S
O2257 Tb2252 2.374 . S
O2257 C2253 1.251 . S
C2258 O2262 1.275 . S
C2258 O2263 1.246 . S
O2259 C2253 1.263 . S
O2259 Tb2254 2.353 . S
C2260 O2264 1.245 . S
C2260 O2265 1.259 . S
C2261 O2266 1.250 . S
C2261 O2267 1.263 . S
O2262 Tb2254 2.427 . S
O2262 C2258 1.275 . S
O2263 Tb2254 2.513 . S
O2263 C2258 1.246 . S
O2264 Tb2254 2.453 . S
O2264 C2260 1.245 . S
O2265 Tb2252 2.343 . S
O2265 Tb2254 2.596 . S
O2265 C2260 1.259 . S
O2266 Tb2254 2.374 . S
O2266 C2261 1.250 . S
O2267 Tb2252 2.353 . S
O2267 C2261 1.263 . S
C2268 O2269 1.275 . S
C2268 O2270 1.246 . S
O2269 Tb2252 2.427 . S
O2269 C2268 1.275 . S
O2270 Tb2252 2.513 . S
O2270 C2268 1.246 . S
C2271 O2255 1.245 . S
C2271 O2256 1.259 . S
Tb2272 O2275 2.453 1_556 S
Tb2272 O2276 2.596 1_556 S
Tb2272 O2277 2.374 1_556 S
Tb2272 O2285 2.333 1_556 S
Tb2272 O2287 2.353 . S
Tb2272 O2289 2.427 . S
Tb2272 O2290 2.513 . S
C2273 O2277 1.251 . S
C2273 O2279 1.263 . S
Tb2274 O2276 2.343 . S
Tb2274 O2279 2.353 . S
Tb2274 O2282 2.427 . S
Tb2274 O2283 2.513 . S
Tb2274 O2284 2.453 . S
Tb2274 O2285 2.626 . S
Tb2274 O2286 2.374 . S
O2275 Tb2272 2.453 1_554 S
O2275 C2291 1.245 . S
O2276 Tb2272 2.596 1_554 S
O2276 Tb2274 2.343 . S
O2276 C2291 1.259 . S
O2277 Tb2272 2.374 1_554 S
O2277 C2273 1.251 . S
C2278 O2282 1.275 . S
C2278 O2283 1.246 . S
O2279 C2273 1.263 . S
O2279 Tb2274 2.353 . S
C2280 O2284 1.245 . S
C2280 O2285 1.262 . S
C2281 O2286 1.250 . S
C2281 O2287 1.263 1_554 S
O2282 Tb2274 2.427 . S
O2282 C2278 1.275 . S
O2283 Tb2274 2.513 . S
O2283 C2278 1.246 . S
O2284 Tb2274 2.453 . S
O2284 C2280 1.245 . S
O2285 Tb2272 2.333 1_554 S
O2285 Tb2274 2.626 . S
O2285 C2280 1.262 . S
O2286 Tb2274 2.374 . S
O2286 C2281 1.250 . S
O2287 Tb2272 2.353 . S
O2287 C2281 1.263 1_556 S
C2288 O2289 1.275 . S
C2288 O2290 1.246 . S
O2289 Tb2272 2.427 . S
O2289 C2288 1.275 . S
O2290 Tb2272 2.513 . S
O2290 C2288 1.246 . S
C2291 O2275 1.245 . S
C2291 O2276 1.259 . S
Tb2292 O2295 2.453 . S
Tb2292 O2296 2.596 . S
Tb2292 O2297 2.374 . S
Tb2292 O2305 2.343 . S
Tb2292 O2307 2.353 . S
Tb2292 O2309 2.427 . S
Tb2292 O2310 2.513 . S
C2293 O2297 1.251 . S
C2293 O2299 1.263 . S
Tb2294 O2296 2.343 . S
Tb2294 O2299 2.353 . S
Tb2294 O2302 2.427 . S
Tb2294 O2303 2.513 . S
Tb2294 O2304 2.453 . S
Tb2294 O2305 2.596 . S
Tb2294 O2306 2.374 . S
O2295 Tb2292 2.453 . S
O2295 C2311 1.245 . S
O2296 Tb2292 2.596 . S
O2296 Tb2294 2.343 . S
O2296 C2311 1.259 . S
O2297 Tb2292 2.374 . S
O2297 C2293 1.251 . S
C2298 O2302 1.275 . S
C2298 O2303 1.246 . S
O2299 C2293 1.263 . S
O2299 Tb2294 2.353 . S
C2300 O2304 1.245 . S
C2300 O2305 1.259 . S
C2301 O2306 1.250 . S
C2301 O2307 1.263 . S
O2302 Tb2294 2.427 . S
O2302 C2298 1.275 . S
O2303 Tb2294 2.513 . S
O2303 C2298 1.246 . S
O2304 Tb2294 2.453 . S
O2304 C2300 1.245 . S
O2305 Tb2292 2.343 . S
O2305 Tb2294 2.596 . S
O2305 C2300 1.259 . S
O2306 Tb2294 2.374 . S
O2306 C2301 1.250 . S
O2307 Tb2292 2.353 . S
O2307 C2301 1.263 . S
C2308 O2309 1.275 . S
C2308 O2310 1.246 . S
O2309 Tb2292 2.427 . S
O2309 C2308 1.275 . S
O2310 Tb2292 2.513 . S
O2310 C2308 1.246 . S
C2311 O2295 1.245 . S
C2311 O2296 1.259 . S
Tb2312 O2315 2.453 1_655 S
Tb2312 O2316 2.596 1_655 S
Tb2312 O2317 2.374 . S
Tb2312 O2325 2.343 . S
Tb2312 O2327 2.353 . S
Tb2312 O2329 2.427 . S
Tb2312 O2330 2.513 . S
C2313 O2317 1.251 1_455 S
C2313 O2319 1.263 . S
Tb2314 O2316 2.343 . S
Tb2314 O2319 2.353 . S
Tb2314 O2322 2.427 . S
Tb2314 O2323 2.513 . S
Tb2314 O2324 2.453 . S
Tb2314 O2325 2.596 1_455 S
Tb2314 O2326 2.374 . S
O2315 Tb2312 2.453 1_455 S
O2315 C2331 1.245 . S
O2316 Tb2312 2.596 1_455 S
O2316 Tb2314 2.343 . S
O2316 C2331 1.259 . S
O2317 Tb2312 2.374 . S
O2317 C2313 1.251 1_655 S
C2318 O2322 1.275 . S
C2318 O2323 1.246 . S
O2319 C2313 1.263 . S
O2319 Tb2314 2.353 . S
C2320 O2324 1.245 1_655 S
C2320 O2325 1.259 . S
C2321 O2326 1.250 . S
C2321 O2327 1.263 1_455 S
O2322 Tb2314 2.427 . S
O2322 C2318 1.275 . S
O2323 Tb2314 2.513 . S
O2323 C2318 1.246 . S
O2324 Tb2314 2.453 . S
O2324 C2320 1.245 1_455 S
O2325 Tb2312 2.343 . S
O2325 Tb2314 2.596 1_655 S
O2325 C2320 1.259 . S
O2326 Tb2314 2.374 . S
O2326 C2321 1.250 . S
O2327 Tb2312 2.353 . S
O2327 C2321 1.263 1_655 S
C2328 O2329 1.275 . S
C2328 O2330 1.246 . S
O2329 Tb2312 2.427 . S
O2329 C2328 1.275 . S
O2330 Tb2312 2.513 . S
O2330 C2328 1.246 . S
C2331 O2315 1.245 . S
C2331 O2316 1.259 . S
Tb2332 O2335 2.453 . S
Tb2332 O2336 2.596 . S
Tb2332 O2337 2.374 . S
Tb2332 O2345 2.343 . S
Tb2332 O2347 2.353 . S
Tb2332 O2349 2.427 . S
Tb2332 O2350 2.513 . S
C2333 O2337 1.251 . S
C2333 O2339 1.263 . S
Tb2334 O2336 2.343 . S
Tb2334 O2339 2.353 . S
Tb2334 O2342 2.427 . S
Tb2334 O2343 2.513 . S
Tb2334 O2344 2.453 . S
Tb2334 O2345 2.596 . S
Tb2334 O2346 2.374 . S
O2335 Tb2332 2.453 . S
O2335 C2351 1.245 . S
O2336 Tb2332 2.596 . S
O2336 Tb2334 2.343 . S
O2336 C2351 1.259 . S
O2337 Tb2332 2.374 . S
O2337 C2333 1.251 . S
C2338 O2342 1.275 . S
C2338 O2343 1.246 . S
O2339 C2333 1.263 . S
O2339 Tb2334 2.353 . S
C2340 O2344 1.245 . S
C2340 O2345 1.259 . S
C2341 O2346 1.250 . S
C2341 O2347 1.263 . S
O2342 Tb2334 2.427 . S
O2342 C2338 1.275 . S
O2343 Tb2334 2.513 . S
O2343 C2338 1.246 . S
O2344 Tb2334 2.453 . S
O2344 C2340 1.245 . S
O2345 Tb2332 2.343 . S
O2345 Tb2334 2.596 . S
O2345 C2340 1.259 . S
O2346 Tb2334 2.374 . S
O2346 C2341 1.250 . S
O2347 Tb2332 2.353 . S
O2347 C2341 1.263 . S
C2348 O2349 1.275 . S
C2348 O2350 1.246 . S
O2349 Tb2332 2.427 . S
O2349 C2348 1.275 . S
O2350 Tb2332 2.513 . S
O2350 C2348 1.246 . S
C2351 O2335 1.245 . S
C2351 O2336 1.259 . S
Tb2352 O2355 2.453 . S
Tb2352 O2356 2.596 . S
Tb2352 O2357 2.374 . S
Tb2352 O2365 2.343 . S
Tb2352 O2367 2.353 . S
Tb2352 O2369 2.427 . S
Tb2352 O2370 2.513 . S
C2353 O2357 1.251 . S
C2353 O2359 1.263 . S
Tb2354 O2356 2.343 . S
Tb2354 O2359 2.353 . S
Tb2354 O2362 2.427 . S
Tb2354 O2363 2.513 . S
Tb2354 O2364 2.453 . S
Tb2354 O2365 2.596 . S
Tb2354 O2366 2.374 . S
O2355 Tb2352 2.453 . S
O2355 C2371 1.245 . S
O2356 Tb2352 2.596 . S
O2356 Tb2354 2.343 . S
O2356 C2371 1.259 . S
O2357 Tb2352 2.374 . S
O2357 C2353 1.251 . S
C2358 O2362 1.275 . S
C2358 O2363 1.246 . S
O2359 C2353 1.263 . S
O2359 Tb2354 2.353 . S
C2360 O2364 1.245 . S
C2360 O2365 1.259 . S
C2361 O2366 1.250 . S
C2361 O2367 1.263 . S
O2362 Tb2354 2.427 . S
O2362 C2358 1.275 . S
O2363 Tb2354 2.513 . S
O2363 C2358 1.246 . S
O2364 Tb2354 2.453 . S
O2364 C2360 1.245 . S
O2365 Tb2352 2.343 . S
O2365 Tb2354 2.596 . S
O2365 C2360 1.259 . S
O2366 Tb2354 2.374 . S
O2366 C2361 1.250 . S
O2367 Tb2352 2.353 . S
O2367 C2361 1.263 . S
C2368 O2369 1.275 . S
C2368 O2370 1.246 . S
O2369 Tb2352 2.427 . S
O2369 C2368 1.275 . S
O2370 Tb2352 2.513 . S
O2370 C2368 1.246 . S
C2371 O2355 1.245 . S
C2371 O2356 1.259 . S
Tb2372 O2375 2.453 . S
Tb2372 O2376 2.596 . S
Tb2372 O2377 2.374 . S
Tb2372 O2385 2.343 . S
Tb2372 O2387 2.353 . S
Tb2372 O2389 2.427 . S
Tb2372 O2390 2.513 . S
C2373 O2377 1.251 . S
C2373 O2379 1.263 . S
Tb2374 O2376 2.343 . S
Tb2374 O2379 2.353 . S
Tb2374 O2382 2.427 . S
Tb2374 O2383 2.513 . S
Tb2374 O2384 2.453 . S
Tb2374 O2385 2.596 . S
Tb2374 O2386 2.374 . S
O2375 Tb2372 2.453 . S
O2375 C2391 1.245 . S
O2376 Tb2372 2.596 . S
O2376 Tb2374 2.343 . S
O2376 C2391 1.259 . S
O2377 Tb2372 2.374 . S
O2377 C2373 1.251 . S
C2378 O2382 1.275 . S
C2378 O2383 1.246 . S
O2379 C2373 1.263 . S
O2379 Tb2374 2.353 . S
C2380 O2384 1.245 . S
C2380 O2385 1.259 . S
C2381 O2386 1.250 . S
C2381 O2387 1.263 . S
O2382 Tb2374 2.427 . S
O2382 C2378 1.275 . S
O2383 Tb2374 2.513 . S
O2383 C2378 1.246 . S
O2384 Tb2374 2.453 . S
O2384 C2380 1.245 . S
O2385 Tb2372 2.343 . S
O2385 Tb2374 2.596 . S
O2385 C2380 1.259 . S
O2386 Tb2374 2.374 . S
O2386 C2381 1.250 . S
O2387 Tb2372 2.353 . S
O2387 C2381 1.263 . S
C2388 O2389 1.275 . S
C2388 O2390 1.246 . S
O2389 Tb2372 2.427 . S
O2389 C2388 1.275 . S
O2390 Tb2372 2.513 . S
O2390 C2388 1.246 . S
C2391 O2375 1.245 . S
C2391 O2376 1.259 . S
Tb2392 O2395 2.453 . S
Tb2392 O2396 2.596 . S
Tb2392 O2397 2.374 . S
Tb2392 O2405 2.343 . S
Tb2392 O2407 2.353 . S
Tb2392 O2409 2.427 . S
Tb2392 O2410 2.513 . S
C2393 O2397 1.251 . S
C2393 O2399 1.263 . S
Tb2394 O2396 2.343 . S
Tb2394 O2399 2.353 . S
Tb2394 O2402 2.427 . S
Tb2394 O2403 2.513 . S
Tb2394 O2404 2.453 . S
Tb2394 O2405 2.596 . S
Tb2394 O2406 2.374 . S
O2395 Tb2392 2.453 . S
O2395 C2411 1.245 . S
O2396 Tb2392 2.596 . S
O2396 Tb2394 2.343 . S
O2396 C2411 1.259 . S
O2397 Tb2392 2.374 . S
O2397 C2393 1.251 . S
C2398 O2402 1.275 . S
C2398 O2403 1.246 . S
O2399 C2393 1.263 . S
O2399 Tb2394 2.353 . S
C2400 O2404 1.245 . S
C2400 O2405 1.259 . S
C2401 O2406 1.250 . S
C2401 O2407 1.263 . S
O2402 Tb2394 2.427 . S
O2402 C2398 1.275 . S
O2403 Tb2394 2.513 . S
O2403 C2398 1.246 . S
O2404 Tb2394 2.453 . S
O2404 C2400 1.245 . S
O2405 Tb2392 2.343 . S
O2405 Tb2394 2.596 . S
O2405 C2400 1.259 . S
O2406 Tb2394 2.374 . S
O2406 C2401 1.250 . S
O2407 Tb2392 2.353 . S
O2407 C2401 1.263 . S
C2408 O2409 1.275 . S
C2408 O2410 1.246 . S
O2409 Tb2392 2.427 . S
O2409 C2408 1.275 . S
O2410 Tb2392 2.513 . S
O2410 C2408 1.246 . S
C2411 O2395 1.245 . S
C2411 O2396 1.259 . S
Tb2412 O2415 2.453 . S
Tb2412 O2416 2.596 . S
Tb2412 O2417 2.374 . S
Tb2412 O2425 2.343 . S
Tb2412 O2427 2.353 1_554 S
Tb2412 O2429 2.427 1_554 S
Tb2412 O2430 2.513 . S
C2413 O2417 1.251 . S
C2413 O2419 1.263 1_455 S
Tb2414 O2416 2.343 1_655 S
Tb2414 O2419 2.353 . S
Tb2414 O2422 2.427 . S
Tb2414 O2423 2.513 . S
Tb2414 O2424 2.453 . S
Tb2414 O2425 2.596 1_655 S
Tb2414 O2426 2.374 1_554 S
O2415 Tb2412 2.453 . S
O2415 C2431 1.245 . S
O2416 Tb2412 2.596 . S
O2416 Tb2414 2.343 1_455 S
O2416 C2431 1.259 . S
O2417 Tb2412 2.374 . S
O2417 C2413 1.251 . S
C2418 O2422 1.275 . S
C2418 O2423 1.246 . S
O2419 C2413 1.263 1_655 S
O2419 Tb2414 2.353 . S
C2420 O2424 1.249 1_455 S
C2420 O2425 1.261 . S
C2421 O2426 1.237 1_455 S
C2421 O2427 1.277 . S
O2422 Tb2414 2.427 . S
O2422 C2418 1.275 . S
O2423 Tb2414 2.513 . S
O2423 C2418 1.246 . S
O2424 Tb2414 2.453 . S
O2424 C2420 1.249 1_655 S
O2425 Tb2412 2.343 . S
O2425 Tb2414 2.596 1_455 S
O2425 C2420 1.261 . S
O2426 Tb2414 2.374 1_556 S
O2426 C2421 1.237 1_655 S
O2427 Tb2412 2.353 1_556 S
O2427 C2421 1.277 . S
C2428 O2429 1.271 1_554 S
C2428 O2430 1.252 . S
O2429 Tb2412 2.427 1_556 S
O2429 C2428 1.271 1_556 S
O2430 Tb2412 2.513 . S
O2430 C2428 1.252 . S
C2431 O2415 1.245 . S
C2431 O2416 1.259 . S
H2432 C2438 0.930 . S
H2433 C2441 0.930 . S
H2434 C2442 0.930 1_554 S
H2435 C2443 0.922 1_654 S
H2436 C2446 0.930 . S
H2437 C2447 0.930 . S
C2438 H2432 0.930 . S
C2438 C2439 1.355 . S
C2438 C2440 1.415 . S
C2439 C2438 1.355 . S
C2439 C2441 1.419 1_455 S
C2440 C2438 1.415 . S
C2440 C2445 1.425 . S
C2440 C2447 1.409 . S
C2441 H2433 0.930 . S
C2441 C2439 1.419 1_655 S
C2441 C2442 1.362 . S
C2442 H2434 0.930 1_556 S
C2442 C2441 1.362 . S
C2442 C2445 1.409 1_655 S
C2443 H2435 0.922 1_456 S
C2443 C2444 1.356 . S
C2443 C2445 1.418 . S
C2444 C2443 1.356 . S
C2444 C2446 1.419 . S
C2445 C2440 1.425 . S
C2445 C2442 1.409 1_455 S
C2445 C2443 1.418 . S
C2446 H2436 0.930 . S
C2446 C2444 1.419 . S
C2446 C2447 1.362 . S
C2447 H2437 0.930 . S
C2447 C2440 1.409 . S
C2447 C2446 1.362 . S
H2448 C2454 0.930 . S
H2449 C2457 0.930 . S
H2450 C2458 0.930 . S
H2451 C2459 0.930 . S
H2452 C2462 0.930 . S
H2453 C2463 0.930 . S
C2454 H2448 0.930 . S
C2454 C2455 1.355 . S
C2454 C2456 1.415 . S
C2455 C2454 1.355 . S
C2455 C2457 1.419 . S
C2456 C2454 1.415 . S
C2456 C2461 1.425 . S
C2456 C2463 1.409 . S
C2457 H2449 0.930 . S
C2457 C2455 1.419 . S
C2457 C2458 1.362 . S
C2458 H2450 0.930 . S
C2458 C2457 1.362 . S
C2458 C2461 1.409 . S
C2459 H2451 0.930 . S
C2459 C2460 1.355 . S
C2459 C2461 1.415 . S
C2460 C2459 1.355 . S
C2460 C2462 1.419 . S
C2461 C2456 1.425 . S
C2461 C2458 1.409 . S
C2461 C2459 1.415 . S
C2462 H2452 0.930 . S
C2462 C2460 1.419 . S
C2462 C2463 1.362 . S
C2463 H2453 0.930 . S
C2463 C2456 1.409 . S
C2463 C2462 1.362 . S
H2464 C2470 0.930 . S
H2465 C2473 0.930 . S
H2466 C2474 0.930 . S
H2467 C2475 0.930 . S
H2468 C2478 0.930 . S
H2469 C2479 0.930 . S
C2470 H2464 0.930 . S
C2470 C2471 1.355 . S
C2470 C2472 1.415 . S
C2471 C2470 1.355 . S
C2471 C2473 1.419 . S
C2472 C2470 1.415 . S
C2472 C2477 1.425 . S
C2472 C2479 1.409 . S
C2473 H2465 0.930 . S
C2473 C2471 1.419 . S
C2473 C2474 1.362 . S
C2474 H2466 0.930 . S
C2474 C2473 1.362 . S
C2474 C2477 1.409 . S
C2475 H2467 0.930 . S
C2475 C2476 1.355 . S
C2475 C2477 1.415 . S
C2476 C2475 1.355 . S
C2476 C2478 1.419 . S
C2477 C2472 1.425 . S
C2477 C2474 1.409 . S
C2477 C2475 1.415 . S
C2478 H2468 0.930 . S
C2478 C2476 1.419 . S
C2478 C2479 1.362 . S
C2479 H2469 0.930 . S
C2479 C2472 1.409 . S
C2479 C2478 1.362 . S
H2480 C2486 0.930 . S
H2481 C2489 0.930 . S
H2482 C2490 0.930 . S
H2483 C2491 0.930 . S
H2484 C2494 0.930 . S
H2485 C2495 0.930 . S
C2486 H2480 0.930 . S
C2486 C2487 1.355 . S
C2486 C2488 1.415 . S
C2487 C2486 1.355 . S
C2487 C2489 1.419 . S
C2488 C2486 1.415 . S
C2488 C2493 1.425 . S
C2488 C2495 1.409 . S
C2489 H2481 0.930 . S
C2489 C2487 1.419 . S
C2489 C2490 1.362 . S
C2490 H2482 0.930 . S
C2490 C2489 1.362 . S
C2490 C2493 1.409 . S
C2491 H2483 0.930 . S
C2491 C2492 1.355 . S
C2491 C2493 1.415 . S
C2492 C2491 1.355 . S
C2492 C2494 1.419 . S
C2493 C2488 1.425 . S
C2493 C2490 1.409 . S
C2493 C2491 1.415 . S
C2494 H2484 0.930 . S
C2494 C2492 1.419 . S
C2494 C2495 1.362 . S
C2495 H2485 0.930 . S
C2495 C2488 1.409 . S
C2495 C2494 1.362 . S
H2496 C2502 0.930 . S
H2497 C2505 0.930 . S
H2498 C2506 0.930 . S
H2499 C2507 0.930 . S
H2500 C2510 0.930 . S
H2501 C2511 0.930 . S
C2502 H2496 0.930 . S
C2502 C2503 1.355 1_655 S
C2502 C2504 1.415 . S
C2503 C2502 1.355 1_455 S
C2503 C2505 1.419 . S
C2504 C2502 1.415 . S
C2504 C2509 1.425 1_655 S
C2504 C2511 1.409 . S
C2505 H2497 0.930 . S
C2505 C2503 1.419 . S
C2505 C2506 1.362 . S
C2506 H2498 0.930 . S
C2506 C2505 1.362 . S
C2506 C2509 1.409 . S
C2507 H2499 0.930 . S
C2507 C2508 1.355 . S
C2507 C2509 1.415 . S
C2508 C2507 1.355 . S
C2508 C2510 1.419 1_455 S
C2509 C2504 1.425 1_455 S
C2509 C2506 1.409 . S
C2509 C2507 1.415 . S
C2510 H2500 0.930 . S
C2510 C2508 1.419 1_655 S
C2510 C2511 1.362 . S
C2511 H2501 0.930 . S
C2511 C2504 1.409 . S
C2511 C2510 1.362 . S
H2512 C2518 0.930 . S
H2513 C2521 0.930 . S
H2514 C2522 0.930 . S
H2515 C2523 0.930 . S
H2516 C2526 0.930 . S
H2517 C2527 0.930 . S
C2518 H2512 0.930 . S
C2518 C2519 1.355 . S
C2518 C2520 1.415 . S
C2519 C2518 1.355 . S
C2519 C2521 1.419 . S
C2520 C2518 1.415 . S
C2520 C2525 1.425 . S
C2520 C2527 1.409 . S
C2521 H2513 0.930 . S
C2521 C2519 1.419 . S
C2521 C2522 1.362 . S
C2522 H2514 0.930 . S
C2522 C2521 1.362 . S
C2522 C2525 1.409 . S
C2523 H2515 0.930 . S
C2523 C2524 1.355 . S
C2523 C2525 1.415 . S
C2524 C2523 1.355 . S
C2524 C2526 1.419 . S
C2525 C2520 1.425 . S
C2525 C2522 1.409 . S
C2525 C2523 1.415 . S
C2526 H2516 0.930 . S
C2526 C2524 1.419 . S
C2526 C2527 1.362 . S
C2527 H2517 0.930 . S
C2527 C2520 1.409 . S
C2527 C2526 1.362 . S
H2528 C2534 0.930 . S
H2529 C2537 0.930 . S
H2530 C2538 0.930 . S
H2531 C2539 0.930 . S
H2532 C2542 0.930 . S
H2533 C2543 0.930 . S
C2534 H2528 0.930 . S
C2534 C2535 1.355 . S
C2534 C2536 1.415 . S
C2535 C2534 1.355 . S
C2535 C2537 1.419 . S
C2536 C2534 1.415 . S
C2536 C2541 1.425 . S
C2536 C2543 1.409 . S
C2537 H2529 0.930 . S
C2537 C2535 1.419 . S
C2537 C2538 1.362 . S
C2538 H2530 0.930 . S
C2538 C2537 1.362 . S
C2538 C2541 1.409 . S
C2539 H2531 0.930 . S
C2539 C2540 1.355 . S
C2539 C2541 1.415 . S
C2540 C2539 1.355 . S
C2540 C2542 1.419 . S
C2541 C2536 1.425 . S
C2541 C2538 1.409 . S
C2541 C2539 1.415 . S
C2542 H2532 0.930 . S
C2542 C2540 1.419 . S
C2542 C2543 1.362 . S
C2543 H2533 0.930 . S
C2543 C2536 1.409 . S
C2543 C2542 1.362 . S
H2544 C2550 0.930 . S
H2545 C2553 0.930 . S
H2546 C2554 0.930 . S
H2547 C2555 0.930 . S
H2548 C2558 0.930 . S
H2549 C2559 0.930 . S
C2550 H2544 0.930 . S
C2550 C2551 1.355 . S
C2550 C2552 1.415 . S
C2551 C2550 1.355 . S
C2551 C2553 1.419 . S
C2552 C2550 1.415 . S
C2552 C2557 1.425 . S
C2552 C2559 1.409 . S
C2553 H2545 0.930 . S
C2553 C2551 1.419 . S
C2553 C2554 1.362 . S
C2554 H2546 0.930 . S
C2554 C2553 1.362 . S
C2554 C2557 1.409 . S
C2555 H2547 0.930 . S
C2555 C2556 1.355 . S
C2555 C2557 1.415 . S
C2556 C2555 1.355 . S
C2556 C2558 1.419 . S
C2557 C2552 1.425 . S
C2557 C2554 1.409 . S
C2557 C2555 1.415 . S
C2558 H2548 0.930 . S
C2558 C2556 1.419 . S
C2558 C2559 1.362 . S
C2559 H2549 0.930 . S
C2559 C2552 1.409 . S
C2559 C2558 1.362 . S
H2560 C2566 0.930 . S
H2561 C2569 0.930 . S
H2562 C2570 0.930 . S
H2563 C2571 0.930 . S
H2564 C2574 0.925 1_455 S
H2565 C2575 0.920 1_455 S
C2566 H2560 0.930 . S
C2566 C2567 1.355 . S
C2566 C2568 1.415 . S
C2567 C2566 1.355 . S
C2567 C2569 1.419 . S
C2568 C2566 1.415 . S
C2568 C2573 1.425 . S
C2568 C2575 1.409 . S
C2569 H2561 0.930 . S
C2569 C2567 1.419 . S
C2569 C2570 1.362 . S
C2570 H2562 0.930 . S
C2570 C2569 1.362 . S
C2570 C2573 1.409 . S
C2571 H2563 0.930 . S
C2571 C2572 1.355 . S
C2571 C2573 1.415 . S
C2572 C2571 1.355 . S
C2572 C2574 1.422 . S
C2573 C2568 1.425 . S
C2573 C2570 1.409 . S
C2573 C2571 1.415 . S
C2574 H2564 0.925 1_655 S
C2574 C2572 1.422 . S
C2574 C2575 1.364 . S
C2575 H2565 0.920 1_655 S
C2575 C2568 1.409 . S
C2575 C2574 1.364 . S
H2576 C2582 0.930 . S
H2577 C2585 0.930 . S
H2578 C2586 0.930 . S
H2579 C2587 0.930 . S
H2580 C2590 0.930 . S
H2581 C2591 0.930 . S
C2582 H2576 0.930 . S
C2582 C2583 1.355 . S
C2582 C2584 1.415 . S
C2583 C2582 1.355 . S
C2583 C2585 1.419 . S
C2584 C2582 1.415 . S
C2584 C2589 1.425 . S
C2584 C2591 1.409 . S
C2585 H2577 0.930 . S
C2585 C2583 1.419 . S
C2585 C2586 1.362 . S
C2586 H2578 0.930 . S
C2586 C2585 1.362 . S
C2586 C2589 1.409 . S
C2587 H2579 0.930 . S
C2587 C2588 1.355 . S
C2587 C2589 1.415 . S
C2588 C2587 1.355 . S
C2588 C2590 1.419 . S
C2589 C2584 1.425 . S
C2589 C2586 1.409 . S
C2589 C2587 1.415 . S
C2590 H2580 0.930 . S
C2590 C2588 1.419 . S
C2590 C2591 1.362 . S
C2591 H2581 0.930 . S
C2591 C2584 1.409 . S
C2591 C2590 1.362 . S
H2592 C2598 0.930 . S
H2593 C2601 0.930 . S
H2594 C2602 0.930 . S
H2595 C2603 0.930 . S
H2596 C2606 0.930 . S
H2597 C2607 0.930 . S
C2598 H2592 0.930 . S
C2598 C2599 1.355 . S
C2598 C2600 1.415 . S
C2599 C2598 1.355 . S
C2599 C2601 1.419 . S
C2600 C2598 1.415 . S
C2600 C2605 1.425 . S
C2600 C2607 1.409 . S
C2601 H2593 0.930 . S
C2601 C2599 1.419 . S
C2601 C2602 1.362 . S
C2602 H2594 0.930 . S
C2602 C2601 1.362 . S
C2602 C2605 1.409 . S
C2603 H2595 0.930 . S
C2603 C2604 1.355 . S
C2603 C2605 1.415 . S
C2604 C2603 1.355 . S
C2604 C2606 1.419 . S
C2605 C2600 1.425 . S
C2605 C2602 1.409 . S
C2605 C2603 1.415 . S
C2606 H2596 0.930 . S
C2606 C2604 1.419 . S
C2606 C2607 1.362 . S
C2607 H2597 0.930 . S
C2607 C2600 1.409 . S
C2607 C2606 1.362 . S
H2608 C2614 0.930 . S
H2609 C2617 0.930 . S
H2610 C2618 0.930 . S
H2611 C2619 0.930 . S
H2612 C2622 0.930 . S
H2613 C2623 0.930 . S
C2614 H2608 0.930 . S
C2614 C2615 1.355 . S
C2614 C2616 1.415 . S
C2615 C2614 1.355 . S
C2615 C2617 1.419 . S
C2616 C2614 1.415 . S
C2616 C2621 1.425 . S
C2616 C2623 1.409 . S
C2617 H2609 0.930 . S
C2617 C2615 1.419 . S
C2617 C2618 1.362 . S
C2618 H2610 0.930 . S
C2618 C2617 1.362 . S
C2618 C2621 1.409 . S
C2619 H2611 0.930 . S
C2619 C2620 1.355 . S
C2619 C2621 1.415 . S
C2620 C2619 1.355 . S
C2620 C2622 1.419 . S
C2621 C2616 1.425 . S
C2621 C2618 1.409 . S
C2621 C2619 1.415 . S
C2622 H2612 0.930 . S
C2622 C2620 1.419 . S
C2622 C2623 1.362 . S
C2623 H2613 0.930 . S
C2623 C2616 1.409 . S
C2623 C2622 1.362 . S
H2624 C2630 0.930 . S
H2625 C2633 0.930 . S
H2626 C2634 0.930 . S
H2627 C2635 0.930 . S
H2628 C2638 0.930 . S
H2629 C2639 0.930 . S
C2630 H2624 0.930 . S
C2630 C2631 1.355 . S
C2630 C2632 1.415 . S
C2631 C2630 1.355 . S
C2631 C2633 1.419 . S
C2632 C2630 1.415 . S
C2632 C2637 1.425 . S
C2632 C2639 1.409 . S
C2633 H2625 0.930 . S
C2633 C2631 1.419 . S
C2633 C2634 1.362 . S
C2634 H2626 0.930 . S
C2634 C2633 1.362 . S
C2634 C2637 1.409 . S
C2635 H2627 0.930 . S
C2635 C2636 1.355 . S
C2635 C2637 1.415 . S
C2636 C2635 1.355 . S
C2636 C2638 1.419 . S
C2637 C2632 1.425 . S
C2637 C2634 1.409 . S
C2637 C2635 1.415 . S
C2638 H2628 0.930 . S
C2638 C2636 1.419 . S
C2638 C2639 1.362 . S
C2639 H2629 0.930 . S
C2639 C2632 1.409 . S
C2639 C2638 1.362 . S
H2640 C2646 0.930 . S
H2641 C2649 0.930 . S
H2642 C2650 0.930 . S
H2643 C2651 0.930 . S
H2644 C2654 0.930 . S
H2645 C2655 0.930 . S
C2646 H2640 0.930 . S
C2646 C2647 1.355 . S
C2646 C2648 1.415 . S
C2647 C2646 1.355 . S
C2647 C2649 1.419 . S
C2648 C2646 1.415 . S
C2648 C2653 1.425 . S
C2648 C2655 1.409 . S
C2649 H2641 0.930 . S
C2649 C2647 1.419 . S
C2649 C2650 1.362 . S
C2650 H2642 0.930 . S
C2650 C2649 1.362 . S
C2650 C2653 1.409 . S
C2651 H2643 0.930 . S
C2651 C2652 1.355 . S
C2651 C2653 1.415 . S
C2652 C2651 1.355 . S
C2652 C2654 1.419 . S
C2653 C2648 1.425 . S
C2653 C2650 1.409 . S
C2653 C2651 1.415 . S
C2654 H2644 0.930 . S
C2654 C2652 1.419 . S
C2654 C2655 1.362 . S
C2655 H2645 0.930 . S
C2655 C2648 1.409 . S
C2655 C2654 1.362 . S
H2656 C2662 0.930 . S
H2657 C2665 0.930 1_565 S
H2658 C2666 0.932 . S
H2659 C2667 0.930 . S
H2660 C2670 0.930 . S
H2661 C2671 0.930 . S
C2662 H2656 0.930 . S
C2662 C2663 1.355 . S
C2662 C2664 1.415 . S
C2663 C2662 1.355 . S
C2663 C2665 1.419 . S
C2664 C2662 1.415 . S
C2664 C2669 1.425 . S
C2664 C2671 1.409 . S
C2665 H2657 0.930 1_545 S
C2665 C2663 1.419 . S
C2665 C2666 1.362 . S
C2666 H2658 0.932 . S
C2666 C2665 1.362 . S
C2666 C2669 1.409 . S
C2667 H2659 0.930 . S
C2667 C2668 1.355 . S
C2667 C2669 1.415 . S
C2668 C2667 1.355 . S
C2668 C2670 1.419 . S
C2669 C2664 1.425 . S
C2669 C2666 1.409 . S
C2669 C2667 1.415 . S
C2670 H2660 0.930 . S
C2670 C2668 1.419 . S
C2670 C2671 1.362 . S
C2671 H2661 0.930 . S
C2671 C2664 1.409 . S
C2671 C2670 1.362 . S
H2672 C2678 0.930 . S
H2673 C2681 0.930 . S
H2674 C2682 0.930 . S
H2675 C2683 0.930 . S
H2676 C2686 0.930 . S
H2677 C2687 0.930 . S
C2678 H2672 0.930 . S
C2678 C2679 1.355 . S
C2678 C2680 1.415 . S
C2679 C2678 1.355 . S
C2679 C2681 1.419 . S
C2680 C2678 1.415 . S
C2680 C2685 1.425 . S
C2680 C2687 1.409 . S
C2681 H2673 0.930 . S
C2681 C2679 1.419 . S
C2681 C2682 1.362 . S
C2682 H2674 0.930 . S
C2682 C2681 1.362 . S
C2682 C2685 1.409 . S
C2683 H2675 0.930 . S
C2683 C2684 1.355 . S
C2683 C2685 1.415 . S
C2684 C2683 1.355 . S
C2684 C2686 1.419 . S
C2685 C2680 1.425 . S
C2685 C2682 1.409 . S
C2685 C2683 1.415 . S
C2686 H2676 0.930 . S
C2686 C2684 1.419 . S
C2686 C2687 1.362 . S
C2687 H2677 0.930 . S
C2687 C2680 1.409 . S
C2687 C2686 1.362 . S
H2688 C2694 0.903 1_545 S
H2689 C2697 0.930 . S
H2690 C2698 0.930 . S
H2691 C2699 0.930 . S
H2692 C2702 0.930 . S
H2693 C2703 0.930 . S
C2694 H2688 0.903 1_565 S
C2694 C2695 1.355 . S
C2694 C2696 1.415 . S
C2695 C2694 1.355 . S
C2695 C2697 1.419 . S
C2696 C2694 1.415 . S
C2696 C2701 1.425 . S
C2696 C2703 1.409 1_565 S
C2697 H2689 0.930 . S
C2697 C2695 1.419 . S
C2697 C2698 1.362 . S
C2698 H2690 0.930 . S
C2698 C2697 1.362 . S
C2698 C2701 1.409 . S
C2699 H2691 0.930 . S
C2699 C2700 1.355 1_565 S
C2699 C2701 1.415 . S
C2700 C2699 1.355 1_545 S
C2700 C2702 1.419 . S
C2701 C2696 1.425 . S
C2701 C2698 1.409 . S
C2701 C2699 1.415 . S
C2702 H2692 0.930 . S
C2702 C2700 1.419 . S
C2702 C2703 1.362 . S
C2703 H2693 0.930 . S
C2703 C2696 1.409 1_545 S
C2703 C2702 1.362 . S
H2704 C2710 0.930 . S
H2705 C2713 0.930 . S
H2706 C2714 0.930 . S
H2707 C2715 0.930 . S
H2708 C2718 0.930 . S
H2709 C2719 0.930 . S
C2710 H2704 0.930 . S
C2710 C2711 1.355 1_554 S
C2710 C2712 1.415 . S
C2711 C2710 1.355 1_556 S
C2711 C2713 1.419 . S
C2712 C2710 1.415 . S
C2712 C2717 1.425 1_554 S
C2712 C2719 1.409 . S
C2713 H2705 0.930 . S
C2713 C2711 1.419 . S
C2713 C2714 1.362 . S
C2714 H2706 0.930 . S
C2714 C2713 1.362 . S
C2714 C2717 1.409 . S
C2715 H2707 0.930 . S
C2715 C2716 1.355 1_556 S
C2715 C2717 1.415 . S
C2716 C2715 1.355 1_554 S
C2716 C2718 1.419 . S
C2717 C2712 1.425 1_556 S
C2717 C2714 1.409 . S
C2717 C2715 1.415 . S
C2718 H2708 0.930 . S
C2718 C2716 1.419 . S
C2718 C2719 1.362 . S
C2719 H2709 0.930 . S
C2719 C2712 1.409 . S
C2719 C2718 1.362 . S
H2720 C2726 0.930 . S
H2721 C2729 0.930 . S
H2722 C2730 0.930 . S
H2723 C2731 0.930 . S
H2724 C2734 0.930 . S
H2725 C2735 0.930 . S
C2726 H2720 0.930 . S
C2726 C2727 1.355 . S
C2726 C2728 1.415 . S
C2727 C2726 1.355 . S
C2727 C2729 1.419 . S
C2728 C2726 1.415 . S
C2728 C2733 1.425 . S
C2728 C2735 1.409 . S
C2729 H2721 0.930 . S
C2729 C2727 1.419 . S
C2729 C2730 1.362 . S
C2730 H2722 0.930 . S
C2730 C2729 1.362 . S
C2730 C2733 1.409 . S
C2731 H2723 0.930 . S
C2731 C2732 1.355 . S
C2731 C2733 1.415 . S
C2732 C2731 1.355 . S
C2732 C2734 1.419 . S
C2733 C2728 1.425 . S
C2733 C2730 1.409 . S
C2733 C2731 1.415 . S
C2734 H2724 0.930 . S
C2734 C2732 1.419 . S
C2734 C2735 1.362 . S
C2735 H2725 0.930 . S
C2735 C2728 1.409 . S
C2735 C2734 1.362 . S
H2736 C2742 0.930 . S
H2737 C2745 0.930 . S
H2738 C2746 0.930 . S
H2739 C2747 0.930 . S
H2740 C2750 0.930 . S
H2741 C2751 0.930 . S
C2742 H2736 0.930 . S
C2742 C2743 1.355 . S
C2742 C2744 1.415 . S
C2743 C2742 1.355 . S
C2743 C2745 1.419 . S
C2744 C2742 1.415 . S
C2744 C2749 1.425 . S
C2744 C2751 1.409 . S
C2745 H2737 0.930 . S
C2745 C2743 1.419 . S
C2745 C2746 1.362 . S
C2746 H2738 0.930 . S
C2746 C2745 1.362 . S
C2746 C2749 1.409 . S
C2747 H2739 0.930 . S
C2747 C2748 1.355 . S
C2747 C2749 1.415 . S
C2748 C2747 1.355 . S
C2748 C2750 1.419 . S
C2749 C2744 1.425 . S
C2749 C2746 1.409 . S
C2749 C2747 1.415 . S
C2750 H2740 0.930 . S
C2750 C2748 1.419 . S
C2750 C2751 1.362 . S
C2751 H2741 0.930 . S
C2751 C2744 1.409 . S
C2751 C2750 1.362 . S
H2752 C2758 0.930 . S
H2753 C2761 0.930 . S
H2754 C2762 0.930 . S
H2755 C2763 0.930 . S
H2756 C2766 0.930 . S
H2757 C2767 0.930 . S
C2758 H2752 0.930 . S
C2758 C2759 1.355 . S
C2758 C2760 1.415 . S
C2759 C2758 1.355 . S
C2759 C2761 1.419 . S
C2760 C2758 1.415 . S
C2760 C2765 1.425 . S
C2760 C2767 1.409 . S
C2761 H2753 0.930 . S
C2761 C2759 1.419 . S
C2761 C2762 1.362 . S
C2762 H2754 0.930 . S
C2762 C2761 1.362 . S
C2762 C2765 1.409 . S
C2763 H2755 0.930 . S
C2763 C2764 1.355 . S
C2763 C2765 1.415 . S
C2764 C2763 1.355 . S
C2764 C2766 1.419 . S
C2765 C2760 1.425 . S
C2765 C2762 1.409 . S
C2765 C2763 1.415 . S
C2766 H2756 0.930 . S
C2766 C2764 1.419 . S
C2766 C2767 1.362 . S
C2767 H2757 0.930 . S
C2767 C2760 1.409 . S
C2767 C2766 1.362 . S
H2768 C2774 0.930 . S
H2769 C2777 0.930 . S
H2770 C2778 0.930 . S
H2771 C2779 0.930 . S
H2772 C2782 0.930 . S
H2773 C2783 0.930 . S
C2774 H2768 0.930 . S
C2774 C2775 1.355 . S
C2774 C2776 1.415 . S
C2775 C2774 1.355 . S
C2775 C2777 1.419 . S
C2776 C2774 1.415 . S
C2776 C2781 1.425 . S
C2776 C2783 1.409 . S
C2777 H2769 0.930 . S
C2777 C2775 1.419 . S
C2777 C2778 1.362 . S
C2778 H2770 0.930 . S
C2778 C2777 1.362 . S
C2778 C2781 1.409 . S
C2779 H2771 0.930 . S
C2779 C2780 1.355 . S
C2779 C2781 1.415 . S
C2780 C2779 1.355 . S
C2780 C2782 1.419 . S
C2781 C2776 1.425 . S
C2781 C2778 1.409 . S
C2781 C2779 1.415 . S
C2782 H2772 0.930 . S
C2782 C2780 1.419 . S
C2782 C2783 1.362 . S
C2783 H2773 0.930 . S
C2783 C2776 1.409 . S
C2783 C2782 1.362 . S
H2784 C2790 0.930 . S
H2785 C2793 0.930 . S
H2786 C2794 0.930 . S
H2787 C2795 0.930 . S
H2788 C2798 0.930 . S
H2789 C2799 0.930 . S
C2790 H2784 0.930 . S
C2790 C2791 1.355 . S
C2790 C2792 1.415 . S
C2791 C2790 1.355 . S
C2791 C2793 1.419 . S
C2792 C2790 1.415 . S
C2792 C2797 1.425 . S
C2792 C2799 1.409 . S
C2793 H2785 0.930 . S
C2793 C2791 1.419 . S
C2793 C2794 1.362 . S
C2794 H2786 0.930 . S
C2794 C2793 1.362 . S
C2794 C2797 1.409 . S
C2795 H2787 0.930 . S
C2795 C2796 1.355 . S
C2795 C2797 1.415 . S
C2796 C2795 1.355 . S
C2796 C2798 1.419 . S
C2797 C2792 1.425 . S
C2797 C2794 1.409 . S
C2797 C2795 1.415 . S
C2798 H2788 0.930 . S
C2798 C2796 1.419 . S
C2798 C2799 1.362 . S
C2799 H2789 0.930 . S
C2799 C2792 1.409 . S
C2799 C2798 1.362 . S
H2800 C2806 0.930 . S
H2801 C2809 0.930 . S
H2802 C2810 0.930 . S
H2803 C2811 0.930 . S
H2804 C2814 0.930 . S
H2805 C2815 0.930 . S
C2806 H2800 0.930 . S
C2806 C2807 1.355 . S
C2806 C2808 1.415 . S
C2807 C2806 1.355 . S
C2807 C2809 1.419 . S
C2808 C2806 1.415 . S
C2808 C2813 1.425 . S
C2808 C2815 1.409 . S
C2809 H2801 0.930 . S
C2809 C2807 1.419 . S
C2809 C2810 1.362 . S
C2810 H2802 0.930 . S
C2810 C2809 1.362 . S
C2810 C2813 1.409 . S
C2811 H2803 0.930 . S
C2811 C2812 1.355 . S
C2811 C2813 1.415 . S
C2812 C2811 1.355 . S
C2812 C2814 1.419 . S
C2813 C2808 1.425 . S
C2813 C2810 1.409 . S
C2813 C2811 1.415 . S
C2814 H2804 0.930 . S
C2814 C2812 1.419 . S
C2814 C2815 1.362 . S
C2815 H2805 0.930 . S
C2815 C2808 1.409 . S
C2815 C2814 1.362 . S
H2816 C2822 0.930 . S
H2817 C2825 0.930 . S
H2818 C2826 0.930 . S
H2819 C2827 0.930 1_655 S
H2820 C2830 0.930 . S
H2821 C2831 0.930 . S
C2822 H2816 0.930 . S
C2822 C2823 1.355 . S
C2822 C2824 1.415 . S
C2823 C2822 1.355 . S
C2823 C2825 1.419 1_455 S
C2824 C2822 1.415 . S
C2824 C2829 1.425 . S
C2824 C2831 1.409 . S
C2825 H2817 0.930 . S
C2825 C2823 1.419 1_655 S
C2825 C2826 1.362 . S
C2826 H2818 0.930 . S
C2826 C2825 1.362 . S
C2826 C2829 1.409 1_655 S
C2827 H2819 0.930 1_455 S
C2827 C2828 1.355 . S
C2827 C2829 1.415 . S
C2828 C2827 1.355 . S
C2828 C2830 1.419 . S
C2829 C2824 1.425 . S
C2829 C2826 1.409 1_455 S
C2829 C2827 1.415 . S
C2830 H2820 0.930 . S
C2830 C2828 1.419 . S
C2830 C2831 1.362 . S
C2831 H2821 0.930 . S
C2831 C2824 1.409 . S
C2831 C2830 1.362 . S
H2832 C2838 0.930 . S
H2833 C2841 0.930 . S
H2834 C2842 0.930 . S
H2835 C2843 0.930 . S
H2836 C2846 0.930 . S
H2837 C2847 0.930 . S
C2838 H2832 0.930 . S
C2838 C2839 1.355 . S
C2838 C2840 1.415 . S
C2839 C2838 1.355 . S
C2839 C2841 1.419 . S
C2840 C2838 1.415 . S
C2840 C2845 1.425 . S
C2840 C2847 1.409 . S
C2841 H2833 0.930 . S
C2841 C2839 1.419 . S
C2841 C2842 1.362 . S
C2842 H2834 0.930 . S
C2842 C2841 1.362 . S
C2842 C2845 1.409 . S
C2843 H2835 0.930 . S
C2843 C2844 1.355 . S
C2843 C2845 1.415 . S
C2844 C2843 1.355 . S
C2844 C2846 1.419 . S
C2845 C2840 1.425 . S
C2845 C2842 1.409 . S
C2845 C2843 1.415 . S
C2846 H2836 0.930 . S
C2846 C2844 1.419 . S
C2846 C2847 1.362 . S
C2847 H2837 0.930 . S
C2847 C2840 1.409 . S
C2847 C2846 1.362 . S
H2848 C2854 0.930 . S
H2849 C2857 0.930 . S
H2850 C2858 0.930 . S
H2851 C2859 0.930 . S
H2852 C2862 0.930 . S
H2853 C2863 0.930 . S
C2854 H2848 0.930 . S
C2854 C2855 1.355 . S
C2854 C2856 1.415 . S
C2855 C2854 1.355 . S
C2855 C2857 1.419 . S
C2856 C2854 1.415 . S
C2856 C2861 1.425 . S
C2856 C2863 1.409 . S
C2857 H2849 0.930 . S
C2857 C2855 1.419 . S
C2857 C2858 1.362 . S
C2858 H2850 0.930 . S
C2858 C2857 1.362 . S
C2858 C2861 1.409 . S
C2859 H2851 0.930 . S
C2859 C2860 1.355 . S
C2859 C2861 1.415 . S
C2860 C2859 1.355 . S
C2860 C2862 1.419 . S
C2861 C2856 1.425 . S
C2861 C2858 1.409 . S
C2861 C2859 1.415 . S
C2862 H2852 0.930 . S
C2862 C2860 1.419 . S
C2862 C2863 1.362 . S
C2863 H2853 0.930 . S
C2863 C2856 1.409 . S
C2863 C2862 1.362 . S
H2864 C2870 0.930 . S
H2865 C2873 0.930 . S
H2866 C2874 0.930 . S
H2867 C2875 0.930 . S
H2868 C2878 0.930 . S
H2869 C2879 0.930 . S
C2870 H2864 0.930 . S
C2870 C2871 1.355 . S
C2870 C2872 1.415 . S
C2871 C2870 1.355 . S
C2871 C2873 1.419 . S
C2872 C2870 1.415 . S
C2872 C2877 1.425 . S
C2872 C2879 1.409 . S
C2873 H2865 0.930 . S
C2873 C2871 1.419 . S
C2873 C2874 1.362 . S
C2874 H2866 0.930 . S
C2874 C2873 1.362 . S
C2874 C2877 1.409 . S
C2875 H2867 0.930 . S
C2875 C2876 1.355 . S
C2875 C2877 1.415 . S
C2876 C2875 1.355 . S
C2876 C2878 1.419 . S
C2877 C2872 1.425 . S
C2877 C2874 1.409 . S
C2877 C2875 1.415 . S
C2878 H2868 0.930 . S
C2878 C2876 1.419 . S
C2878 C2879 1.362 . S
C2879 H2869 0.930 . S
C2879 C2872 1.409 . S
C2879 C2878 1.362 . S
H2880 C2886 0.930 . S
H2881 C2889 0.930 . S
H2882 C2890 0.930 . S
H2883 C2891 0.930 . S
H2884 C2894 0.930 . S
H2885 C2895 0.930 . S
C2886 H2880 0.930 . S
C2886 C2887 1.355 1_655 S
C2886 C2888 1.415 . S
C2887 C2886 1.355 1_455 S
C2887 C2889 1.419 . S
C2888 C2886 1.415 . S
C2888 C2893 1.425 1_655 S
C2888 C2895 1.409 . S
C2889 H2881 0.930 . S
C2889 C2887 1.419 . S
C2889 C2890 1.362 . S
C2890 H2882 0.930 . S
C2890 C2889 1.362 . S
C2890 C2893 1.409 . S
C2891 H2883 0.930 . S
C2891 C2892 1.355 . S
C2891 C2893 1.415 . S
C2892 C2891 1.355 . S
C2892 C2894 1.419 1_455 S
C2893 C2888 1.425 1_455 S
C2893 C2890 1.409 . S
C2893 C2891 1.415 . S
C2894 H2884 0.930 . S
C2894 C2892 1.419 1_655 S
C2894 C2895 1.362 . S
C2895 H2885 0.930 . S
C2895 C2888 1.409 . S
C2895 C2894 1.362 . S
H2896 C2902 0.930 . S
H2897 C2905 0.930 . S
H2898 C2906 0.930 . S
H2899 C2907 0.930 . S
H2900 C2910 0.930 . S
H2901 C2911 0.930 . S
C2902 H2896 0.930 . S
C2902 C2903 1.355 . S
C2902 C2904 1.415 . S
C2903 C2902 1.355 . S
C2903 C2905 1.419 . S
C2904 C2902 1.415 . S
C2904 C2909 1.425 . S
C2904 C2911 1.409 . S
C2905 H2897 0.930 . S
C2905 C2903 1.419 . S
C2905 C2906 1.362 . S
C2906 H2898 0.930 . S
C2906 C2905 1.362 . S
C2906 C2909 1.409 . S
C2907 H2899 0.930 . S
C2907 C2908 1.355 . S
C2907 C2909 1.415 . S
C2908 C2907 1.355 . S
C2908 C2910 1.419 . S
C2909 C2904 1.425 . S
C2909 C2906 1.409 . S
C2909 C2907 1.415 . S
C2910 H2900 0.930 . S
C2910 C2908 1.419 . S
C2910 C2911 1.362 . S
C2911 H2901 0.930 . S
C2911 C2904 1.409 . S
C2911 C2910 1.362 . S
H2912 C2918 0.930 . S
H2913 C2921 0.930 . S
H2914 C2922 0.930 . S
H2915 C2923 0.930 . S
H2916 C2926 0.930 . S
H2917 C2927 0.930 . S
C2918 H2912 0.930 . S
C2918 C2919 1.355 . S
C2918 C2920 1.415 . S
C2919 C2918 1.355 . S
C2919 C2921 1.419 . S
C2920 C2918 1.415 . S
C2920 C2925 1.425 . S
C2920 C2927 1.409 . S
C2921 H2913 0.930 . S
C2921 C2919 1.419 . S
C2921 C2922 1.362 . S
C2922 H2914 0.930 . S
C2922 C2921 1.362 . S
C2922 C2925 1.409 . S
C2923 H2915 0.930 . S
C2923 C2924 1.355 . S
C2923 C2925 1.415 . S
C2924 C2923 1.355 . S
C2924 C2926 1.419 . S
C2925 C2920 1.425 . S
C2925 C2922 1.409 . S
C2925 C2923 1.415 . S
C2926 H2916 0.930 . S
C2926 C2924 1.419 . S
C2926 C2927 1.362 . S
C2927 H2917 0.930 . S
C2927 C2920 1.409 . S
C2927 C2926 1.362 . S
H2928 C2934 0.930 . S
H2929 C2937 0.930 . S
H2930 C2938 0.930 . S
H2931 C2939 0.930 . S
H2932 C2942 0.930 . S
H2933 C2943 0.930 . S
C2934 H2928 0.930 . S
C2934 C2935 1.355 . S
C2934 C2936 1.415 . S
C2935 C2934 1.355 . S
C2935 C2937 1.419 . S
C2936 C2934 1.415 . S
C2936 C2941 1.425 . S
C2936 C2943 1.409 . S
C2937 H2929 0.930 . S
C2937 C2935 1.419 . S
C2937 C2938 1.362 . S
C2938 H2930 0.930 . S
C2938 C2937 1.362 . S
C2938 C2941 1.409 . S
C2939 H2931 0.930 . S
C2939 C2940 1.355 . S
C2939 C2941 1.415 . S
C2940 C2939 1.355 . S
C2940 C2942 1.419 . S
C2941 C2936 1.425 . S
C2941 C2938 1.409 . S
C2941 C2939 1.415 . S
C2942 H2932 0.930 . S
C2942 C2940 1.419 . S
C2942 C2943 1.362 . S
C2943 H2933 0.930 . S
C2943 C2936 1.409 . S
C2943 C2942 1.362 . S
H2944 C2950 0.930 . S
H2945 C2953 0.930 . S
H2946 C2954 0.930 . S
H2947 C2955 0.930 1_565 S
H2948 C2958 0.930 1_655 S
H2949 C2959 0.930 . S
C2950 H2944 0.930 . S
C2950 C2951 1.355 1_545 S
C2950 C2952 1.415 . S
C2951 C2950 1.355 1_565 S
C2951 C2953 1.419 . S
C2952 C2950 1.415 . S
C2952 C2957 1.425 . S
C2952 C2959 1.409 . S
C2953 H2945 0.930 . S
C2953 C2951 1.419 . S
C2953 C2954 1.362 . S
C2954 H2946 0.930 . S
C2954 C2953 1.362 . S
C2954 C2957 1.409 1_565 S
C2955 H2947 0.930 1_545 S
C2955 C2956 1.355 . S
C2955 C2957 1.415 . S
C2956 C2955 1.355 . S
C2956 C2958 1.419 . S
C2957 C2952 1.425 . S
C2957 C2954 1.409 1_545 S
C2957 C2955 1.415 . S
C2958 H2948 0.930 1_455 S
C2958 C2956 1.419 . S
C2958 C2959 1.362 . S
C2959 H2949 0.930 . S
C2959 C2952 1.409 . S
C2959 C2958 1.362 . S
H2960 C2966 0.930 . S
H2961 C2969 0.930 . S
H2962 C2970 0.930 . S
H2963 C2971 0.930 . S
H2964 C2974 0.930 . S
H2965 C2975 0.930 . S
C2966 H2960 0.930 . S
C2966 C2967 1.355 . S
C2966 C2968 1.415 . S
C2967 C2966 1.355 . S
C2967 C2969 1.419 . S
C2968 C2966 1.415 . S
C2968 C2973 1.425 . S
C2968 C2975 1.409 . S
C2969 H2961 0.930 . S
C2969 C2967 1.419 . S
C2969 C2970 1.362 . S
C2970 H2962 0.930 . S
C2970 C2969 1.362 . S
C2970 C2973 1.409 . S
C2971 H2963 0.930 . S
C2971 C2972 1.355 . S
C2971 C2973 1.415 . S
C2972 C2971 1.355 . S
C2972 C2974 1.419 . S
C2973 C2968 1.425 . S
C2973 C2970 1.409 . S
C2973 C2971 1.415 . S
C2974 H2964 0.930 . S
C2974 C2972 1.419 . S
C2974 C2975 1.362 . S
C2975 H2965 0.930 . S
C2975 C2968 1.409 . S
C2975 C2974 1.362 . S
H2976 C2982 0.930 . S
H2977 C2985 0.930 . S
H2978 C2986 0.930 . S
H2979 C2987 0.930 . S
H2980 C2990 0.930 . S
H2981 C2991 0.930 . S
C2982 H2976 0.930 . S
C2982 C2983 1.355 . S
C2982 C2984 1.415 . S
C2983 C2982 1.355 . S
C2983 C2985 1.419 . S
C2984 C2982 1.415 . S
C2984 C2989 1.425 . S
C2984 C2991 1.409 . S
C2985 H2977 0.930 . S
C2985 C2983 1.419 . S
C2985 C2986 1.362 . S
C2986 H2978 0.930 . S
C2986 C2985 1.362 . S
C2986 C2989 1.409 . S
C2987 H2979 0.930 . S
C2987 C2988 1.355 . S
C2987 C2989 1.415 . S
C2988 C2987 1.355 . S
C2988 C2990 1.419 . S
C2989 C2984 1.425 . S
C2989 C2986 1.409 . S
C2989 C2987 1.415 . S
C2990 H2980 0.930 . S
C2990 C2988 1.419 . S
C2990 C2991 1.362 . S
C2991 H2981 0.930 . S
C2991 C2984 1.409 . S
C2991 C2990 1.362 . S
H2992 C2998 0.930 . S
H2993 C3001 0.930 . S
H2994 C3002 0.930 . S
H2995 C3003 0.930 . S
H2996 C3006 0.930 . S
H2997 C3007 0.930 . S
C2998 H2992 0.930 . S
C2998 C2999 1.355 . S
C2998 C3000 1.415 . S
C2999 C2998 1.355 . S
C2999 C3001 1.419 . S
C3000 C2998 1.415 . S
C3000 C3005 1.425 . S
C3000 C3007 1.409 . S
C3001 H2993 0.930 . S
C3001 C2999 1.419 . S
C3001 C3002 1.362 . S
C3002 H2994 0.930 . S
C3002 C3001 1.362 . S
C3002 C3005 1.409 . S
C3003 H2995 0.930 . S
C3003 C3004 1.355 . S
C3003 C3005 1.415 . S
C3004 C3003 1.355 . S
C3004 C3006 1.419 . S
C3005 C3000 1.425 . S
C3005 C3002 1.409 . S
C3005 C3003 1.415 . S
C3006 H2996 0.930 . S
C3006 C3004 1.419 . S
C3006 C3007 1.362 . S
C3007 H2997 0.930 . S
C3007 C3000 1.409 . S
C3007 C3006 1.362 . S
H3008 C3014 0.930 . S
H3009 C3017 0.930 . S
H3010 C3018 0.930 . S
H3011 C3019 0.930 1_565 S
H3012 C3022 0.930 . S
H3013 C3023 0.930 . S
C3014 H3008 0.930 . S
C3014 C3015 1.355 1_545 S
C3014 C3016 1.415 . S
C3015 C3014 1.355 1_565 S
C3015 C3017 1.419 . S
C3016 C3014 1.415 . S
C3016 C3021 1.425 1_545 S
C3016 C3023 1.409 . S
C3017 H3009 0.930 . S
C3017 C3015 1.419 . S
C3017 C3018 1.362 . S
C3018 H3010 0.930 . S
C3018 C3017 1.362 . S
C3018 C3021 1.409 . S
C3019 H3011 0.930 1_545 S
C3019 C3020 1.355 . S
C3019 C3021 1.415 1_545 S
C3020 C3019 1.355 . S
C3020 C3022 1.419 . S
C3021 C3016 1.425 1_565 S
C3021 C3018 1.409 . S
C3021 C3019 1.415 1_565 S
C3022 H3012 0.930 . S
C3022 C3020 1.419 . S
C3022 C3023 1.362 . S
C3023 H3013 0.930 . S
C3023 C3016 1.409 . S
C3023 C3022 1.362 . S
H3024 C3030 0.930 . S
H3025 C3033 0.930 . S
H3026 C3034 0.930 . S
H3027 C3035 0.930 . S
H3028 C3038 0.930 . S
H3029 C3039 0.930 . S
C3030 H3024 0.930 . S
C3030 C3031 1.355 . S
C3030 C3032 1.415 . S
C3031 C3030 1.355 . S
C3031 C3033 1.419 . S
C3032 C3030 1.415 . S
C3032 C3037 1.425 . S
C3032 C3039 1.409 . S
C3033 H3025 0.930 . S
C3033 C3031 1.419 . S
C3033 C3034 1.362 . S
C3034 H3026 0.930 . S
C3034 C3033 1.362 . S
C3034 C3037 1.409 . S
C3035 H3027 0.930 . S
C3035 C3036 1.355 . S
C3035 C3037 1.415 . S
C3036 C3035 1.355 . S
C3036 C3038 1.419 . S
C3037 C3032 1.425 . S
C3037 C3034 1.409 . S
C3037 C3035 1.415 . S
C3038 H3028 0.930 . S
C3038 C3036 1.419 . S
C3038 C3039 1.362 . S
C3039 H3029 0.930 . S
C3039 C3032 1.409 . S
C3039 C3038 1.362 . S
H3040 C3046 0.930 . S
H3041 C3049 0.930 . S
H3042 C3050 0.930 . S
H3043 C3051 0.930 . S
H3044 C3054 0.930 . S
H3045 C3055 0.930 . S
C3046 H3040 0.930 . S
C3046 C3047 1.355 . S
C3046 C3048 1.415 . S
C3047 C3046 1.355 . S
C3047 C3049 1.419 . S
C3048 C3046 1.415 . S
C3048 C3053 1.425 . S
C3048 C3055 1.409 . S
C3049 H3041 0.930 . S
C3049 C3047 1.419 . S
C3049 C3050 1.362 . S
C3050 H3042 0.930 . S
C3050 C3049 1.362 . S
C3050 C3053 1.409 . S
C3051 H3043 0.930 . S
C3051 C3052 1.355 . S
C3051 C3053 1.415 . S
C3052 C3051 1.355 . S
C3052 C3054 1.419 . S
C3053 C3048 1.425 . S
C3053 C3050 1.409 . S
C3053 C3051 1.415 . S
C3054 H3044 0.930 . S
C3054 C3052 1.419 . S
C3054 C3055 1.362 . S
C3055 H3045 0.930 . S
C3055 C3048 1.409 . S
C3055 C3054 1.362 . S
H3056 C3062 0.930 . S
H3057 C3065 0.930 . S
H3058 C3066 0.930 . S
H3059 C3067 0.930 . S
H3060 C3070 0.930 . S
H3061 C3071 0.930 . S
C3062 H3056 0.930 . S
C3062 C3063 1.355 . S
C3062 C3064 1.415 . S
C3063 C3062 1.355 . S
C3063 C3065 1.419 . S
C3064 C3062 1.415 . S
C3064 C3069 1.425 . S
C3064 C3071 1.409 . S
C3065 H3057 0.930 . S
C3065 C3063 1.419 . S
C3065 C3066 1.362 . S
C3066 H3058 0.930 . S
C3066 C3065 1.362 . S
C3066 C3069 1.409 . S
C3067 H3059 0.930 . S
C3067 C3068 1.355 . S
C3067 C3069 1.415 . S
C3068 C3067 1.355 . S
C3068 C3070 1.419 . S
C3069 C3064 1.425 . S
C3069 C3066 1.409 . S
C3069 C3067 1.415 . S
C3070 H3060 0.930 . S
C3070 C3068 1.419 . S
C3070 C3071 1.362 . S
C3071 H3061 0.930 . S
C3071 C3064 1.409 . S
C3071 C3070 1.362 . S
H3072 C3078 0.930 . S
H3073 C3081 0.930 . S
H3074 C3082 0.930 . S
H3075 C3083 0.930 . S
H3076 C3086 0.930 . S
H3077 C3087 0.930 . S
C3078 H3072 0.930 . S
C3078 C3079 1.355 . S
C3078 C3080 1.415 . S
C3079 C3078 1.355 . S
C3079 C3081 1.419 1_554 S
C3080 C3078 1.415 . S
C3080 C3085 1.414 1_554 S
C3080 C3087 1.409 . S
C3081 H3073 0.930 . S
C3081 C3079 1.419 1_556 S
C3081 C3082 1.362 . S
C3082 H3074 0.930 . S
C3082 C3081 1.362 . S
C3082 C3085 1.416 . S
C3083 H3075 0.930 . S
C3083 C3084 1.355 1_556 S
C3083 C3085 1.420 . S
C3084 C3083 1.355 1_554 S
C3084 C3086 1.419 . S
C3085 C3080 1.414 1_556 S
C3085 C3082 1.416 . S
C3085 C3083 1.420 . S
C3086 H3076 0.930 . S
C3086 C3084 1.419 . S
C3086 C3087 1.362 . S
C3087 H3077 0.930 . S
C3087 C3080 1.409 . S
C3087 C3086 1.362 . S
H3088 C3094 0.930 . S
H3089 C3097 0.930 . S
H3090 C3098 0.930 . S
H3091 C3099 0.930 . S
H3092 C3102 0.930 1_556 S
H3093 C3103 0.959 . S
C3094 H3088 0.930 . S
C3094 C3095 1.355 . S
C3094 C3096 1.415 . S
C3095 C3094 1.355 . S
C3095 C3097 1.419 . S
C3096 C3094 1.415 . S
C3096 C3101 1.425 . S
C3096 C3103 1.380 1_554 S
C3097 H3089 0.930 . S
C3097 C3095 1.419 . S
C3097 C3098 1.362 . S
C3098 H3090 0.930 . S
C3098 C3097 1.362 . S
C3098 C3101 1.409 . S
C3099 H3091 0.930 . S
C3099 C3100 1.355 . S
C3099 C3101 1.415 . S
C3100 C3099 1.355 . S
C3100 C3102 1.419 . S
C3101 C3096 1.425 . S
C3101 C3098 1.409 . S
C3101 C3099 1.415 . S
C3102 H3092 0.930 1_554 S
C3102 C3100 1.419 . S
C3102 C3103 1.363 1_554 S
C3103 H3093 0.959 . S
C3103 C3096 1.380 1_556 S
C3103 C3102 1.363 1_556 S
H3104 C3110 0.930 . S
H3105 C3113 0.930 . S
H3106 C3114 0.930 . S
H3107 C3115 0.930 . S
H3108 C3118 0.930 . S
H3109 C3119 0.930 . S
C3110 H3104 0.930 . S
C3110 C3111 1.355 . S
C3110 C3112 1.415 . S
C3111 C3110 1.355 . S
C3111 C3113 1.419 . S
C3112 C3110 1.415 . S
C3112 C3117 1.425 . S
C3112 C3119 1.409 . S
C3113 H3105 0.930 . S
C3113 C3111 1.419 . S
C3113 C3114 1.362 . S
C3114 H3106 0.930 . S
C3114 C3113 1.362 . S
C3114 C3117 1.409 . S
C3115 H3107 0.930 . S
C3115 C3116 1.355 . S
C3115 C3117 1.415 . S
C3116 C3115 1.355 . S
C3116 C3118 1.419 . S
C3117 C3112 1.425 . S
C3117 C3114 1.409 . S
C3117 C3115 1.415 . S
C3118 H3108 0.930 . S
C3118 C3116 1.419 . S
C3118 C3119 1.362 . S
C3119 H3109 0.930 . S
C3119 C3112 1.409 . S
C3119 C3118 1.362 . S
H3120 C3126 0.930 . S
H3121 C3129 0.930 . S
H3122 C3130 0.930 . S
H3123 C3131 0.930 . S
H3124 C3134 0.930 . S
H3125 C3135 0.930 . S
C3126 H3120 0.930 . S
C3126 C3127 1.355 . S
C3126 C3128 1.415 . S
C3127 C3126 1.355 . S
C3127 C3129 1.419 . S
C3128 C3126 1.415 . S
C3128 C3133 1.425 . S
C3128 C3135 1.409 . S
C3129 H3121 0.930 . S
C3129 C3127 1.419 . S
C3129 C3130 1.362 . S
C3130 H3122 0.930 . S
C3130 C3129 1.362 . S
C3130 C3133 1.409 . S
C3131 H3123 0.930 . S
C3131 C3132 1.355 . S
C3131 C3133 1.415 . S
C3132 C3131 1.355 . S
C3132 C3134 1.419 . S
C3133 C3128 1.425 . S
C3133 C3130 1.409 . S
C3133 C3131 1.415 . S
C3134 H3124 0.930 . S
C3134 C3132 1.419 . S
C3134 C3135 1.362 . S
C3135 H3125 0.930 . S
C3135 C3128 1.409 . S
C3135 C3134 1.362 . S
H3136 C3142 0.930 . S
H3137 C3145 0.930 . S
H3138 C3146 0.930 . S
H3139 C3147 0.930 . S
H3140 C3150 0.930 . S
H3141 C3151 0.930 . S
C3142 H3136 0.930 . S
C3142 C3143 1.355 . S
C3142 C3144 1.415 . S
C3143 C3142 1.355 . S
C3143 C3145 1.419 . S
C3144 C3142 1.415 . S
C3144 C3149 1.425 . S
C3144 C3151 1.409 . S
C3145 H3137 0.930 . S
C3145 C3143 1.419 . S
C3145 C3146 1.362 . S
C3146 H3138 0.930 . S
C3146 C3145 1.362 . S
C3146 C3149 1.409 . S
C3147 H3139 0.930 . S
C3147 C3148 1.355 . S
C3147 C3149 1.415 . S
C3148 C3147 1.355 . S
C3148 C3150 1.419 . S
C3149 C3144 1.425 . S
C3149 C3146 1.409 . S
C3149 C3147 1.415 . S
C3150 H3140 0.930 . S
C3150 C3148 1.419 . S
C3150 C3151 1.362 . S
C3151 H3141 0.930 . S
C3151 C3144 1.409 . S
C3151 C3150 1.362 . S
H3152 C3158 0.930 . S
H3153 C3161 0.930 . S
H3154 C3162 0.930 . S
H3155 C3163 0.930 . S
H3156 C3166 0.930 . S
H3157 C3167 0.930 . S
C3158 H3152 0.930 . S
C3158 C3159 1.355 . S
C3158 C3160 1.415 . S
C3159 C3158 1.355 . S
C3159 C3161 1.419 . S
C3160 C3158 1.415 . S
C3160 C3165 1.425 . S
C3160 C3167 1.409 . S
C3161 H3153 0.930 . S
C3161 C3159 1.419 . S
C3161 C3162 1.362 . S
C3162 H3154 0.930 . S
C3162 C3161 1.362 . S
C3162 C3165 1.409 . S
C3163 H3155 0.930 . S
C3163 C3164 1.355 . S
C3163 C3165 1.415 . S
C3164 C3163 1.355 . S
C3164 C3166 1.419 . S
C3165 C3160 1.425 . S
C3165 C3162 1.409 . S
C3165 C3163 1.415 . S
C3166 H3156 0.930 . S
C3166 C3164 1.419 . S
C3166 C3167 1.362 . S
C3167 H3157 0.930 . S
C3167 C3160 1.409 . S
C3167 C3166 1.362 . S
H3168 C3174 0.930 . S
H3169 C3177 0.930 . S
H3170 C3178 0.930 . S
H3171 C3179 0.930 . S
H3172 C3182 0.930 . S
H3173 C3183 0.930 . S
C3174 H3168 0.930 . S
C3174 C3175 1.355 . S
C3174 C3176 1.415 . S
C3175 C3174 1.355 . S
C3175 C3177 1.419 . S
C3176 C3174 1.415 . S
C3176 C3181 1.425 . S
C3176 C3183 1.409 . S
C3177 H3169 0.930 . S
C3177 C3175 1.419 . S
C3177 C3178 1.362 . S
C3178 H3170 0.930 . S
C3178 C3177 1.362 . S
C3178 C3181 1.409 . S
C3179 H3171 0.930 . S
C3179 C3180 1.355 . S
C3179 C3181 1.415 . S
C3180 C3179 1.355 . S
C3180 C3182 1.419 . S
C3181 C3176 1.425 . S
C3181 C3178 1.409 . S
C3181 C3179 1.415 . S
C3182 H3172 0.930 . S
C3182 C3180 1.419 . S
C3182 C3183 1.362 . S
C3183 H3173 0.930 . S
C3183 C3176 1.409 . S
C3183 C3182 1.362 . S
H3184 C3190 0.930 . S
H3185 C3193 0.930 . S
H3186 C3194 0.930 . S
H3187 C3195 0.930 . S
H3188 C3198 0.930 . S
H3189 C3199 0.930 . S
C3190 H3184 0.930 . S
C3190 C3191 1.355 . S
C3190 C3192 1.415 . S
C3191 C3190 1.355 . S
C3191 C3193 1.419 . S
C3192 C3190 1.415 . S
C3192 C3197 1.425 . S
C3192 C3199 1.409 . S
C3193 H3185 0.930 . S
C3193 C3191 1.419 . S
C3193 C3194 1.362 . S
C3194 H3186 0.930 . S
C3194 C3193 1.362 . S
C3194 C3197 1.409 . S
C3195 H3187 0.930 . S
C3195 C3196 1.355 . S
C3195 C3197 1.415 . S
C3196 C3195 1.355 . S
C3196 C3198 1.419 . S
C3197 C3192 1.425 . S
C3197 C3194 1.409 . S
C3197 C3195 1.415 . S
C3198 H3188 0.930 . S
C3198 C3196 1.419 . S
C3198 C3199 1.362 . S
C3199 H3189 0.930 . S
C3199 C3192 1.409 . S
C3199 C3198 1.362 . S
H3200 C3206 0.930 . S
H3201 C3209 0.930 . S
H3202 C3210 0.930 . S
H3203 C3211 0.930 . S
H3204 C3214 0.930 . S
H3205 C3215 0.930 . S
C3206 H3200 0.930 . S
C3206 C3207 1.355 . S
C3206 C3208 1.415 . S
C3207 C3206 1.355 . S
C3207 C3209 1.419 . S
C3208 C3206 1.415 . S
C3208 C3213 1.425 . S
C3208 C3215 1.409 . S
C3209 H3201 0.930 . S
C3209 C3207 1.419 . S
C3209 C3210 1.362 . S
C3210 H3202 0.930 . S
C3210 C3209 1.362 . S
C3210 C3213 1.409 . S
C3211 H3203 0.930 . S
C3211 C3212 1.355 . S
C3211 C3213 1.415 . S
C3212 C3211 1.355 . S
C3212 C3214 1.419 . S
C3213 C3208 1.425 . S
C3213 C3210 1.409 . S
C3213 C3211 1.415 . S
C3214 H3204 0.930 . S
C3214 C3212 1.419 . S
C3214 C3215 1.362 . S
C3215 H3205 0.930 . S
C3215 C3208 1.409 . S
C3215 C3214 1.362 . S
H3216 C3222 0.930 . S
H3217 C3225 0.930 . S
H3218 C3226 0.930 . S
H3219 C3227 0.930 . S
H3220 C3230 0.930 . S
H3221 C3231 0.930 . S
C3222 H3216 0.930 . S
C3222 C3223 1.355 . S
C3222 C3224 1.415 . S
C3223 C3222 1.355 . S
C3223 C3225 1.419 . S
C3224 C3222 1.415 . S
C3224 C3229 1.425 . S
C3224 C3231 1.409 . S
C3225 H3217 0.930 . S
C3225 C3223 1.419 . S
C3225 C3226 1.362 . S
C3226 H3218 0.930 . S
C3226 C3225 1.362 . S
C3226 C3229 1.409 . S
C3227 H3219 0.930 . S
C3227 C3228 1.355 . S
C3227 C3229 1.415 . S
C3228 C3227 1.355 . S
C3228 C3230 1.419 . S
C3229 C3224 1.425 . S
C3229 C3226 1.409 . S
C3229 C3227 1.415 . S
C3230 H3220 0.930 . S
C3230 C3228 1.419 . S
C3230 C3231 1.362 . S
C3231 H3221 0.930 . S
C3231 C3224 1.409 . S
C3231 C3230 1.362 . S
H3232 C3238 0.930 . S
H3233 C3241 0.930 . S
H3234 C3242 0.930 1_554 S
H3235 C3243 0.928 1_654 S
H3236 C3246 0.930 . S
H3237 C3247 0.930 . S
C3238 H3232 0.930 . S
C3238 C3239 1.355 . S
C3238 C3240 1.415 . S
C3239 C3238 1.355 . S
C3239 C3241 1.419 . S
C3240 C3238 1.415 . S
C3240 C3245 1.425 . S
C3240 C3247 1.409 . S
C3241 H3233 0.930 . S
C3241 C3239 1.419 . S
C3241 C3242 1.362 . S
C3242 H3234 0.930 1_556 S
C3242 C3241 1.362 . S
C3242 C3245 1.409 . S
C3243 H3235 0.928 1_456 S
C3243 C3244 1.355 . S
C3243 C3245 1.415 . S
C3244 C3243 1.355 . S
C3244 C3246 1.419 . S
C3245 C3240 1.425 . S
C3245 C3242 1.409 . S
C3245 C3243 1.415 . S
C3246 H3236 0.930 . S
C3246 C3244 1.419 . S
C3246 C3247 1.362 . S
C3247 H3237 0.930 . S
C3247 C3240 1.409 . S
C3247 C3246 1.362 . S
H3248 C3254 0.930 . S
H3249 C3257 0.930 . S
H3250 C3258 0.930 . S
H3251 C3259 0.930 . S
H3252 C3262 0.930 . S
H3253 C3263 0.930 . S
C3254 H3248 0.930 . S
C3254 C3255 1.355 . S
C3254 C3256 1.415 . S
C3255 C3254 1.355 . S
C3255 C3257 1.419 . S
C3256 C3254 1.415 . S
C3256 C3261 1.425 . S
C3256 C3263 1.409 . S
C3257 H3249 0.930 . S
C3257 C3255 1.419 . S
C3257 C3258 1.362 . S
C3258 H3250 0.930 . S
C3258 C3257 1.362 . S
C3258 C3261 1.409 . S
C3259 H3251 0.930 . S
C3259 C3260 1.355 . S
C3259 C3261 1.415 . S
C3260 C3259 1.355 . S
C3260 C3262 1.419 . S
C3261 C3256 1.425 . S
C3261 C3258 1.409 . S
C3261 C3259 1.415 . S
C3262 H3252 0.930 . S
C3262 C3260 1.419 . S
C3262 C3263 1.362 . S
C3263 H3253 0.930 . S
C3263 C3256 1.409 . S
C3263 C3262 1.362 . S
H3264 C3270 0.930 . S
H3265 C3273 0.930 . S
H3266 C3274 0.930 . S
H3267 C3275 0.930 . S
H3268 C3278 0.930 . S
H3269 C3279 0.930 . S
C3270 H3264 0.930 . S
C3270 C3271 1.355 . S
C3270 C3272 1.415 . S
C3271 C3270 1.355 . S
C3271 C3273 1.419 . S
C3272 C3270 1.415 . S
C3272 C3277 1.425 . S
C3272 C3279 1.409 . S
C3273 H3265 0.930 . S
C3273 C3271 1.419 . S
C3273 C3274 1.362 . S
C3274 H3266 0.930 . S
C3274 C3273 1.362 . S
C3274 C3277 1.409 . S
C3275 H3267 0.930 . S
C3275 C3276 1.355 . S
C3275 C3277 1.415 . S
C3276 C3275 1.355 . S
C3276 C3278 1.419 . S
C3277 C3272 1.425 . S
C3277 C3274 1.409 . S
C3277 C3275 1.415 . S
C3278 H3268 0.930 . S
C3278 C3276 1.419 . S
C3278 C3279 1.362 . S
C3279 H3269 0.930 . S
C3279 C3272 1.409 . S
C3279 C3278 1.362 . S
H3280 C3286 0.930 . S
H3281 C3289 0.930 . S
H3282 C3290 0.930 . S
H3283 C3291 0.930 . S
H3284 C3294 0.930 . S
H3285 C3295 0.930 . S
C3286 H3280 0.930 . S
C3286 C3287 1.355 . S
C3286 C3288 1.415 . S
C3287 C3286 1.355 . S
C3287 C3289 1.419 . S
C3288 C3286 1.415 . S
C3288 C3293 1.425 . S
C3288 C3295 1.409 . S
C3289 H3281 0.930 . S
C3289 C3287 1.419 . S
C3289 C3290 1.362 . S
C3290 H3282 0.930 . S
C3290 C3289 1.362 . S
C3290 C3293 1.409 . S
C3291 H3283 0.930 . S
C3291 C3292 1.355 . S
C3291 C3293 1.415 . S
C3292 C3291 1.355 . S
C3292 C3294 1.419 . S
C3293 C3288 1.425 . S
C3293 C3290 1.409 . S
C3293 C3291 1.415 . S
C3294 H3284 0.930 . S
C3294 C3292 1.419 . S
C3294 C3295 1.362 . S
C3295 H3285 0.930 . S
C3295 C3288 1.409 . S
C3295 C3294 1.362 . S
H3296 C3302 0.926 1_455 S
H3297 C3305 0.930 . S
H3298 C3306 0.930 . S
H3299 C3307 0.930 . S
H3300 C3310 0.930 . S
H3301 C3311 0.930 . S
C3302 H3296 0.926 1_655 S
C3302 C3303 1.359 . S
C3302 C3304 1.405 1_655 S
C3303 C3302 1.359 . S
C3303 C3305 1.419 . S
C3304 C3302 1.405 1_455 S
C3304 C3309 1.405 1_455 S
C3304 C3311 1.438 . S
C3305 H3297 0.930 . S
C3305 C3303 1.419 . S
C3305 C3306 1.362 . S
C3306 H3298 0.930 . S
C3306 C3305 1.362 . S
C3306 C3309 1.409 . S
C3307 H3299 0.930 . S
C3307 C3308 1.355 1_655 S
C3307 C3309 1.415 . S
C3308 C3307 1.355 1_455 S
C3308 C3310 1.419 . S
C3309 C3304 1.405 1_655 S
C3309 C3306 1.409 . S
C3309 C3307 1.415 . S
C3310 H3300 0.930 . S
C3310 C3308 1.419 . S
C3310 C3311 1.362 . S
C3311 H3301 0.930 . S
C3311 C3304 1.438 . S
C3311 C3310 1.362 . S
H3312 C3318 0.930 . S
H3313 C3321 0.930 . S
H3314 C3322 0.930 . S
H3315 C3323 0.930 . S
H3316 C3326 0.930 . S
H3317 C3327 0.930 . S
C3318 H3312 0.930 . S
C3318 C3319 1.355 . S
C3318 C3320 1.415 . S
C3319 C3318 1.355 . S
C3319 C3321 1.419 . S
C3320 C3318 1.415 . S
C3320 C3325 1.425 . S
C3320 C3327 1.409 . S
C3321 H3313 0.930 . S
C3321 C3319 1.419 . S
C3321 C3322 1.362 . S
C3322 H3314 0.930 . S
C3322 C3321 1.362 . S
C3322 C3325 1.409 . S
C3323 H3315 0.930 . S
C3323 C3324 1.355 . S
C3323 C3325 1.415 . S
C3324 C3323 1.355 . S
C3324 C3326 1.419 . S
C3325 C3320 1.425 . S
C3325 C3322 1.409 . S
C3325 C3323 1.415 . S
C3326 H3316 0.930 . S
C3326 C3324 1.419 . S
C3326 C3327 1.362 . S
C3327 H3317 0.930 . S
C3327 C3320 1.409 . S
C3327 C3326 1.362 . S
H3328 C3334 0.930 . S
H3329 C3337 0.930 . S
H3330 C3338 0.930 . S
H3331 C3339 0.930 . S
H3332 C3342 0.930 . S
H3333 C3343 0.930 . S
C3334 H3328 0.930 . S
C3334 C3335 1.355 . S
C3334 C3336 1.415 . S
C3335 C3334 1.355 . S
C3335 C3337 1.419 . S
C3336 C3334 1.415 . S
C3336 C3341 1.425 . S
C3336 C3343 1.409 . S
C3337 H3329 0.930 . S
C3337 C3335 1.419 . S
C3337 C3338 1.362 . S
C3338 H3330 0.930 . S
C3338 C3337 1.362 . S
C3338 C3341 1.409 . S
C3339 H3331 0.930 . S
C3339 C3340 1.355 . S
C3339 C3341 1.415 . S
C3340 C3339 1.355 . S
C3340 C3342 1.419 . S
C3341 C3336 1.425 . S
C3341 C3338 1.409 . S
C3341 C3339 1.415 . S
C3342 H3332 0.930 . S
C3342 C3340 1.419 . S
C3342 C3343 1.362 . S
C3343 H3333 0.930 . S
C3343 C3336 1.409 . S
C3343 C3342 1.362 . S
H3344 C3350 0.930 . S
H3345 C3353 0.930 . S
H3346 C3354 0.930 . S
H3347 C3355 0.930 . S
H3348 C3358 0.930 . S
H3349 C3359 0.930 . S
C3350 H3344 0.930 . S
C3350 C3351 1.355 . S
C3350 C3352 1.415 . S
C3351 C3350 1.355 . S
C3351 C3353 1.419 . S
C3352 C3350 1.415 . S
C3352 C3357 1.425 . S
C3352 C3359 1.409 . S
C3353 H3345 0.930 . S
C3353 C3351 1.419 . S
C3353 C3354 1.362 . S
C3354 H3346 0.930 . S
C3354 C3353 1.362 . S
C3354 C3357 1.409 . S
C3355 H3347 0.930 . S
C3355 C3356 1.355 . S
C3355 C3357 1.415 . S
C3356 C3355 1.355 . S
C3356 C3358 1.419 . S
C3357 C3352 1.425 . S
C3357 C3354 1.409 . S
C3357 C3355 1.415 . S
C3358 H3348 0.930 . S
C3358 C3356 1.419 . S
C3358 C3359 1.362 . S
C3359 H3349 0.930 . S
C3359 C3352 1.409 . S
C3359 C3358 1.362 . S
H3360 C3366 0.930 . S
H3361 C3369 0.930 . S
H3362 C3370 0.930 . S
H3363 C3371 0.930 . S
H3364 C3374 0.930 1_655 S
H3365 C3375 0.930 1_655 S
C3366 H3360 0.930 . S
C3366 C3367 1.355 . S
C3366 C3368 1.415 . S
C3367 C3366 1.355 . S
C3367 C3369 1.419 . S
C3368 C3366 1.415 . S
C3368 C3373 1.425 . S
C3368 C3375 1.409 . S
C3369 H3361 0.930 . S
C3369 C3367 1.419 . S
C3369 C3370 1.362 . S
C3370 H3362 0.930 . S
C3370 C3369 1.362 . S
C3370 C3373 1.409 . S
C3371 H3363 0.930 . S
C3371 C3372 1.355 . S
C3371 C3373 1.415 . S
C3372 C3371 1.355 . S
C3372 C3374 1.419 . S
C3373 C3368 1.425 . S
C3373 C3370 1.409 . S
C3373 C3371 1.415 . S
C3374 H3364 0.930 1_455 S
C3374 C3372 1.419 . S
C3374 C3375 1.362 . S
C3375 H3365 0.930 1_455 S
C3375 C3368 1.409 . S
C3375 C3374 1.362 . S
H3376 C3382 0.930 . S
H3377 C3385 0.930 . S
H3378 C3386 0.930 . S
H3379 C3387 0.930 . S
H3380 C3390 0.930 . S
H3381 C3391 0.930 . S
C3382 H3376 0.930 . S
C3382 C3383 1.355 . S
C3382 C3384 1.415 . S
C3383 C3382 1.355 . S
C3383 C3385 1.419 . S
C3384 C3382 1.415 . S
C3384 C3389 1.425 . S
C3384 C3391 1.409 . S
C3385 H3377 0.930 . S
C3385 C3383 1.419 . S
C3385 C3386 1.362 . S
C3386 H3378 0.930 . S
C3386 C3385 1.362 . S
C3386 C3389 1.409 . S
C3387 H3379 0.930 . S
C3387 C3388 1.355 . S
C3387 C3389 1.415 . S
C3388 C3387 1.355 . S
C3388 C3390 1.419 . S
C3389 C3384 1.425 . S
C3389 C3386 1.409 . S
C3389 C3387 1.415 . S
C3390 H3380 0.930 . S
C3390 C3388 1.419 . S
C3390 C3391 1.362 . S
C3391 H3381 0.930 . S
C3391 C3384 1.409 . S
C3391 C3390 1.362 . S
H3392 C3398 0.930 . S
H3393 C3401 0.930 . S
H3394 C3402 0.930 . S
H3395 C3403 0.930 . S
H3396 C3406 0.930 . S
H3397 C3407 0.930 . S
C3398 H3392 0.930 . S
C3398 C3399 1.355 . S
C3398 C3400 1.415 . S
C3399 C3398 1.355 . S
C3399 C3401 1.419 . S
C3400 C3398 1.415 . S
C3400 C3405 1.425 . S
C3400 C3407 1.409 . S
C3401 H3393 0.930 . S
C3401 C3399 1.419 . S
C3401 C3402 1.362 . S
C3402 H3394 0.930 . S
C3402 C3401 1.362 . S
C3402 C3405 1.409 . S
C3403 H3395 0.930 . S
C3403 C3404 1.355 . S
C3403 C3405 1.415 . S
C3404 C3403 1.355 . S
C3404 C3406 1.419 . S
C3405 C3400 1.425 . S
C3405 C3402 1.409 . S
C3405 C3403 1.415 . S
C3406 H3396 0.930 . S
C3406 C3404 1.419 . S
C3406 C3407 1.362 . S
C3407 H3397 0.930 . S
C3407 C3400 1.409 . S
C3407 C3406 1.362 . S
H3408 C3414 0.930 . S
H3409 C3417 0.930 . S
H3410 C3418 0.930 . S
H3411 C3419 0.930 . S
H3412 C3422 0.930 . S
H3413 C3423 0.930 . S
C3414 H3408 0.930 . S
C3414 C3415 1.355 . S
C3414 C3416 1.415 . S
C3415 C3414 1.355 . S
C3415 C3417 1.419 . S
C3416 C3414 1.415 . S
C3416 C3421 1.425 . S
C3416 C3423 1.409 . S
C3417 H3409 0.930 . S
C3417 C3415 1.419 . S
C3417 C3418 1.362 . S
C3418 H3410 0.930 . S
C3418 C3417 1.362 . S
C3418 C3421 1.409 . S
C3419 H3411 0.930 . S
C3419 C3420 1.355 . S
C3419 C3421 1.415 . S
C3420 C3419 1.355 . S
C3420 C3422 1.419 . S
C3421 C3416 1.425 . S
C3421 C3418 1.409 . S
C3421 C3419 1.415 . S
C3422 H3412 0.930 . S
C3422 C3420 1.419 . S
C3422 C3423 1.362 . S
C3423 H3413 0.930 . S
C3423 C3416 1.409 . S
C3423 C3422 1.362 . S
H3424 C3430 0.930 . S
H3425 C3433 0.930 . S
H3426 C3434 0.930 . S
H3427 C3435 0.930 . S
H3428 C3438 0.930 1_655 S
H3429 C3439 0.939 . S
C3430 H3424 0.930 . S
C3430 C3431 1.355 . S
C3430 C3432 1.415 . S
C3431 C3430 1.355 . S
C3431 C3433 1.419 . S
C3432 C3430 1.415 . S
C3432 C3437 1.425 . S
C3432 C3439 1.409 . S
C3433 H3425 0.930 . S
C3433 C3431 1.419 . S
C3433 C3434 1.362 . S
C3434 H3426 0.930 . S
C3434 C3433 1.362 . S
C3434 C3437 1.409 . S
C3435 H3427 0.930 . S
C3435 C3436 1.355 . S
C3435 C3437 1.415 . S
C3436 C3435 1.355 . S
C3436 C3438 1.419 . S
C3437 C3432 1.425 . S
C3437 C3434 1.409 . S
C3437 C3435 1.415 . S
C3438 H3428 0.930 1_455 S
C3438 C3436 1.419 . S
C3438 C3439 1.362 . S
C3439 H3429 0.939 . S
C3439 C3432 1.409 . S
C3439 C3438 1.362 . S
H3440 C3446 0.930 . S
H3441 C3449 0.930 . S
H3442 C3450 0.930 . S
H3443 C3451 0.930 . S
H3444 C3454 0.930 . S
H3445 C3455 0.930 . S
C3446 H3440 0.930 . S
C3446 C3447 1.355 . S
C3446 C3448 1.415 . S
C3447 C3446 1.355 . S
C3447 C3449 1.419 . S
C3448 C3446 1.415 . S
C3448 C3453 1.425 . S
C3448 C3455 1.409 . S
C3449 H3441 0.930 . S
C3449 C3447 1.419 . S
C3449 C3450 1.362 . S
C3450 H3442 0.930 . S
C3450 C3449 1.362 . S
C3450 C3453 1.409 . S
C3451 H3443 0.930 . S
C3451 C3452 1.355 . S
C3451 C3453 1.415 . S
C3452 C3451 1.355 . S
C3452 C3454 1.419 . S
C3453 C3448 1.425 . S
C3453 C3450 1.409 . S
C3453 C3451 1.415 . S
C3454 H3444 0.930 . S
C3454 C3452 1.419 . S
C3454 C3455 1.362 . S
C3455 H3445 0.930 . S
C3455 C3448 1.409 . S
C3455 C3454 1.362 . S
H3456 C3462 0.930 . S
H3457 C3465 0.930 . S
H3458 C3466 0.930 . S
H3459 C3467 0.930 . S
H3460 C3470 0.930 . S
H3461 C3471 0.930 . S
C3462 H3456 0.930 . S
C3462 C3463 1.355 . S
C3462 C3464 1.415 . S
C3463 C3462 1.355 . S
C3463 C3465 1.419 . S
C3464 C3462 1.415 . S
C3464 C3469 1.425 . S
C3464 C3471 1.409 . S
C3465 H3457 0.930 . S
C3465 C3463 1.419 . S
C3465 C3466 1.362 . S
C3466 H3458 0.930 . S
C3466 C3465 1.362 . S
C3466 C3469 1.409 . S
C3467 H3459 0.930 . S
C3467 C3468 1.355 . S
C3467 C3469 1.415 . S
C3468 C3467 1.355 . S
C3468 C3470 1.419 . S
C3469 C3464 1.425 . S
C3469 C3466 1.409 . S
C3469 C3467 1.415 . S
C3470 H3460 0.930 . S
C3470 C3468 1.419 . S
C3470 C3471 1.362 . S
C3471 H3461 0.930 . S
C3471 C3464 1.409 . S
C3471 C3470 1.362 . S
H3472 C3478 0.930 . S
H3473 C3481 0.930 . S
H3474 C3482 0.930 . S
H3475 C3483 0.930 . S
H3476 C3486 0.930 . S
H3477 C3487 0.930 . S
C3478 H3472 0.930 . S
C3478 C3479 1.355 . S
C3478 C3480 1.415 . S
C3479 C3478 1.355 . S
C3479 C3481 1.419 . S
C3480 C3478 1.415 . S
C3480 C3485 1.425 . S
C3480 C3487 1.409 . S
C3481 H3473 0.930 . S
C3481 C3479 1.419 . S
C3481 C3482 1.362 . S
C3482 H3474 0.930 . S
C3482 C3481 1.362 . S
C3482 C3485 1.409 . S
C3483 H3475 0.930 . S
C3483 C3484 1.355 . S
C3483 C3485 1.415 . S
C3484 C3483 1.355 . S
C3484 C3486 1.419 . S
C3485 C3480 1.425 . S
C3485 C3482 1.409 . S
C3485 C3483 1.415 . S
C3486 H3476 0.930 . S
C3486 C3484 1.419 . S
C3486 C3487 1.362 . S
C3487 H3477 0.930 . S
C3487 C3480 1.409 . S
C3487 C3486 1.362 . S
H3488 C3494 0.930 . S
H3489 C3497 0.930 . S
H3490 C3498 0.930 . S
H3491 C3499 0.930 . S
H3492 C3502 0.930 . S
H3493 C3503 0.930 . S
C3494 H3488 0.930 . S
C3494 C3495 1.355 . S
C3494 C3496 1.415 . S
C3495 C3494 1.355 . S
C3495 C3497 1.419 . S
C3496 C3494 1.415 . S
C3496 C3501 1.425 . S
C3496 C3503 1.409 . S
C3497 H3489 0.930 . S
C3497 C3495 1.419 . S
C3497 C3498 1.362 . S
C3498 H3490 0.930 . S
C3498 C3497 1.362 . S
C3498 C3501 1.409 . S
C3499 H3491 0.930 . S
C3499 C3500 1.355 . S
C3499 C3501 1.415 . S
C3500 C3499 1.355 . S
C3500 C3502 1.419 . S
C3501 C3496 1.425 . S
C3501 C3498 1.409 . S
C3501 C3499 1.415 . S
C3502 H3492 0.930 . S
C3502 C3500 1.419 . S
C3502 C3503 1.362 . S
C3503 H3493 0.930 . S
C3503 C3496 1.409 . S
C3503 C3502 1.362 . S
H3504 C3510 0.930 1_545 S
H3505 C3513 0.930 . S
H3506 C3514 0.930 . S
H3507 C3515 0.930 . S
H3508 C3518 0.930 . S
H3509 C3519 0.930 . S
C3510 H3504 0.930 1_565 S
C3510 C3511 1.355 . S
C3510 C3512 1.415 1_565 S
C3511 C3510 1.355 . S
C3511 C3513 1.419 . S
C3512 C3510 1.415 1_545 S
C3512 C3517 1.425 1_545 S
C3512 C3519 1.409 . S
C3513 H3505 0.930 . S
C3513 C3511 1.419 . S
C3513 C3514 1.362 . S
C3514 H3506 0.930 . S
C3514 C3513 1.362 . S
C3514 C3517 1.409 . S
C3515 H3507 0.930 . S
C3515 C3516 1.355 1_565 S
C3515 C3517 1.415 . S
C3516 C3515 1.355 1_545 S
C3516 C3518 1.419 . S
C3517 C3512 1.425 1_565 S
C3517 C3514 1.409 . S
C3517 C3515 1.415 . S
C3518 H3508 0.930 . S
C3518 C3516 1.419 . S
C3518 C3519 1.362 . S
C3519 H3509 0.930 . S
C3519 C3512 1.409 . S
C3519 C3518 1.362 . S
H3520 C3526 0.930 . S
H3521 C3529 0.930 . S
H3522 C3530 0.930 . S
H3523 C3531 0.930 . S
H3524 C3534 0.930 . S
H3525 C3535 0.930 . S
C3526 H3520 0.930 . S
C3526 C3527 1.355 . S
C3526 C3528 1.415 . S
C3527 C3526 1.355 . S
C3527 C3529 1.419 . S
C3528 C3526 1.415 . S
C3528 C3533 1.425 . S
C3528 C3535 1.409 . S
C3529 H3521 0.930 . S
C3529 C3527 1.419 . S
C3529 C3530 1.362 . S
C3530 H3522 0.930 . S
C3530 C3529 1.362 . S
C3530 C3533 1.409 . S
C3531 H3523 0.930 . S
C3531 C3532 1.355 . S
C3531 C3533 1.415 . S
C3532 C3531 1.355 . S
C3532 C3534 1.419 . S
C3533 C3528 1.425 . S
C3533 C3530 1.409 . S
C3533 C3531 1.415 . S
C3534 H3524 0.930 . S
C3534 C3532 1.419 . S
C3534 C3535 1.362 . S
C3535 H3525 0.930 . S
C3535 C3528 1.409 . S
C3535 C3534 1.362 . S
H3536 C3542 0.930 . S
H3537 C3545 0.930 . S
H3538 C3546 0.930 . S
H3539 C3547 0.930 . S
H3540 C3550 0.930 . S
H3541 C3551 0.930 . S
C3542 H3536 0.930 . S
C3542 C3543 1.355 . S
C3542 C3544 1.415 . S
C3543 C3542 1.355 . S
C3543 C3545 1.419 . S
C3544 C3542 1.415 . S
C3544 C3549 1.425 . S
C3544 C3551 1.409 . S
C3545 H3537 0.930 . S
C3545 C3543 1.419 . S
C3545 C3546 1.362 . S
C3546 H3538 0.930 . S
C3546 C3545 1.362 . S
C3546 C3549 1.409 . S
C3547 H3539 0.930 . S
C3547 C3548 1.355 . S
C3547 C3549 1.415 . S
C3548 C3547 1.355 . S
C3548 C3550 1.419 . S
C3549 C3544 1.425 . S
C3549 C3546 1.409 . S
C3549 C3547 1.415 . S
C3550 H3540 0.930 . S
C3550 C3548 1.419 . S
C3550 C3551 1.362 . S
C3551 H3541 0.930 . S
C3551 C3544 1.409 . S
C3551 C3550 1.362 . S
H3552 C3558 0.930 . S
H3553 C3561 0.930 . S
H3554 C3562 0.930 . S
H3555 C3563 0.930 . S
H3556 C3566 0.930 . S
H3557 C3567 0.930 . S
C3558 H3552 0.930 . S
C3558 C3559 1.355 . S
C3558 C3560 1.415 . S
C3559 C3558 1.355 . S
C3559 C3561 1.419 . S
C3560 C3558 1.415 . S
C3560 C3565 1.425 . S
C3560 C3567 1.409 . S
C3561 H3553 0.930 . S
C3561 C3559 1.419 . S
C3561 C3562 1.362 . S
C3562 H3554 0.930 . S
C3562 C3561 1.362 . S
C3562 C3565 1.409 . S
C3563 H3555 0.930 . S
C3563 C3564 1.355 . S
C3563 C3565 1.415 . S
C3564 C3563 1.355 . S
C3564 C3566 1.419 . S
C3565 C3560 1.425 . S
C3565 C3562 1.409 . S
C3565 C3563 1.415 . S
C3566 H3556 0.930 . S
C3566 C3564 1.419 . S
C3566 C3567 1.362 . S
C3567 H3557 0.930 . S
C3567 C3560 1.409 . S
C3567 C3566 1.362 . S
H3568 C3574 0.930 . S
H3569 C3577 0.930 . S
H3570 C3578 0.930 . S
H3571 C3579 0.930 . S
H3572 C3582 0.930 . S
H3573 C3583 0.930 . S
C3574 H3568 0.930 . S
C3574 C3575 1.355 . S
C3574 C3576 1.415 . S
C3575 C3574 1.355 . S
C3575 C3577 1.419 . S
C3576 C3574 1.415 . S
C3576 C3581 1.425 . S
C3576 C3583 1.409 . S
C3577 H3569 0.930 . S
C3577 C3575 1.419 . S
C3577 C3578 1.362 . S
C3578 H3570 0.930 . S
C3578 C3577 1.362 . S
C3578 C3581 1.409 . S
C3579 H3571 0.930 . S
C3579 C3580 1.355 . S
C3579 C3581 1.415 . S
C3580 C3579 1.355 . S
C3580 C3582 1.419 . S
C3581 C3576 1.425 . S
C3581 C3578 1.409 . S
C3581 C3579 1.415 . S
C3582 H3572 0.930 . S
C3582 C3580 1.419 . S
C3582 C3583 1.362 . S
C3583 H3573 0.930 . S
C3583 C3576 1.409 . S
C3583 C3582 1.362 . S
H3584 C3590 0.930 . S
H3585 C3593 0.930 . S
H3586 C3594 0.930 . S
H3587 C3595 0.930 . S
H3588 C3598 0.930 . S
H3589 C3599 0.930 . S
C3590 H3584 0.930 . S
C3590 C3591 1.355 . S
C3590 C3592 1.415 . S
C3591 C3590 1.355 . S
C3591 C3593 1.419 . S
C3592 C3590 1.415 . S
C3592 C3597 1.425 . S
C3592 C3599 1.409 . S
C3593 H3585 0.930 . S
C3593 C3591 1.419 . S
C3593 C3594 1.362 . S
C3594 H3586 0.930 . S
C3594 C3593 1.362 . S
C3594 C3597 1.409 . S
C3595 H3587 0.930 . S
C3595 C3596 1.355 . S
C3595 C3597 1.415 . S
C3596 C3595 1.355 . S
C3596 C3598 1.419 . S
C3597 C3592 1.425 . S
C3597 C3594 1.409 . S
C3597 C3595 1.415 . S
C3598 H3588 0.930 . S
C3598 C3596 1.419 . S
C3598 C3599 1.362 . S
C3599 H3589 0.930 . S
C3599 C3592 1.409 . S
C3599 C3598 1.362 . S
H3600 C3606 0.930 . S
H3601 C3609 0.930 . S
H3602 C3610 0.930 . S
H3603 C3611 0.930 . S
H3604 C3614 0.930 . S
H3605 C3615 0.930 . S
C3606 H3600 0.930 . S
C3606 C3607 1.355 . S
C3606 C3608 1.415 . S
C3607 C3606 1.355 . S
C3607 C3609 1.419 . S
C3608 C3606 1.415 . S
C3608 C3613 1.425 . S
C3608 C3615 1.409 . S
C3609 H3601 0.930 . S
C3609 C3607 1.419 . S
C3609 C3610 1.362 . S
C3610 H3602 0.930 . S
C3610 C3609 1.362 . S
C3610 C3613 1.409 . S
C3611 H3603 0.930 . S
C3611 C3612 1.355 . S
C3611 C3613 1.415 . S
C3612 C3611 1.355 . S
C3612 C3614 1.419 . S
C3613 C3608 1.425 . S
C3613 C3610 1.409 . S
C3613 C3611 1.415 . S
C3614 H3604 0.930 . S
C3614 C3612 1.419 . S
C3614 C3615 1.362 . S
C3615 H3605 0.930 . S
C3615 C3608 1.409 . S
C3615 C3614 1.362 . S
H3616 C3622 0.930 . S
H3617 C3625 0.930 . S
H3618 C3626 0.930 . S
H3619 C3627 0.930 . S
H3620 C3630 0.930 . S
H3621 C3631 0.930 . S
C3622 H3616 0.930 . S
C3622 C3623 1.355 . S
C3622 C3624 1.415 . S
C3623 C3622 1.355 . S
C3623 C3625 1.419 1_655 S
C3624 C3622 1.415 . S
C3624 C3629 1.425 1_655 S
C3624 C3631 1.409 . S
C3625 H3617 0.930 . S
C3625 C3623 1.419 1_455 S
C3625 C3626 1.362 . S
C3626 H3618 0.930 . S
C3626 C3625 1.362 . S
C3626 C3629 1.409 . S
C3627 H3619 0.930 . S
C3627 C3628 1.355 . S
C3627 C3629 1.415 . S
C3628 C3627 1.355 . S
C3628 C3630 1.419 1_455 S
C3629 C3624 1.425 1_455 S
C3629 C3626 1.409 . S
C3629 C3627 1.415 . S
C3630 H3620 0.930 . S
C3630 C3628 1.419 1_655 S
C3630 C3631 1.362 . S
C3631 H3621 0.930 . S
C3631 C3624 1.409 . S
C3631 C3630 1.362 . S
H3632 C3638 0.930 . S
H3633 C3641 0.930 . S
H3634 C3642 0.930 . S
H3635 C3643 0.930 . S
H3636 C3646 0.930 . S
H3637 C3647 0.930 . S
C3638 H3632 0.930 . S
C3638 C3639 1.355 . S
C3638 C3640 1.415 . S
C3639 C3638 1.355 . S
C3639 C3641 1.419 . S
C3640 C3638 1.415 . S
C3640 C3645 1.425 . S
C3640 C3647 1.409 . S
C3641 H3633 0.930 . S
C3641 C3639 1.419 . S
C3641 C3642 1.362 . S
C3642 H3634 0.930 . S
C3642 C3641 1.362 . S
C3642 C3645 1.409 . S
C3643 H3635 0.930 . S
C3643 C3644 1.355 . S
C3643 C3645 1.415 . S
C3644 C3643 1.355 . S
C3644 C3646 1.419 . S
C3645 C3640 1.425 . S
C3645 C3642 1.409 . S
C3645 C3643 1.415 . S
C3646 H3636 0.930 . S
C3646 C3644 1.419 . S
C3646 C3647 1.362 . S
C3647 H3637 0.930 . S
C3647 C3640 1.409 . S
C3647 C3646 1.362 . S
H3648 C3654 0.930 . S
H3649 C3657 0.930 . S
H3650 C3658 0.930 . S
H3651 C3659 0.930 . S
H3652 C3662 0.930 . S
H3653 C3663 0.930 . S
C3654 H3648 0.930 . S
C3654 C3655 1.355 . S
C3654 C3656 1.415 . S
C3655 C3654 1.355 . S
C3655 C3657 1.419 . S
C3656 C3654 1.415 . S
C3656 C3661 1.425 . S
C3656 C3663 1.409 . S
C3657 H3649 0.930 . S
C3657 C3655 1.419 . S
C3657 C3658 1.362 . S
C3658 H3650 0.930 . S
C3658 C3657 1.362 . S
C3658 C3661 1.409 . S
C3659 H3651 0.930 . S
C3659 C3660 1.355 . S
C3659 C3661 1.415 . S
C3660 C3659 1.355 . S
C3660 C3662 1.419 . S
C3661 C3656 1.425 . S
C3661 C3658 1.409 . S
C3661 C3659 1.415 . S
C3662 H3652 0.930 . S
C3662 C3660 1.419 . S
C3662 C3663 1.362 . S
C3663 H3653 0.930 . S
C3663 C3656 1.409 . S
C3663 C3662 1.362 . S
H3664 C3670 0.930 . S
H3665 C3673 0.930 . S
H3666 C3674 0.930 . S
H3667 C3675 0.930 . S
H3668 C3678 0.930 . S
H3669 C3679 0.930 . S
C3670 H3664 0.930 . S
C3670 C3671 1.355 . S
C3670 C3672 1.415 . S
C3671 C3670 1.355 . S
C3671 C3673 1.419 . S
C3672 C3670 1.415 . S
C3672 C3677 1.425 . S
C3672 C3679 1.409 . S
C3673 H3665 0.930 . S
C3673 C3671 1.419 . S
C3673 C3674 1.362 . S
C3674 H3666 0.930 . S
C3674 C3673 1.362 . S
C3674 C3677 1.409 . S
C3675 H3667 0.930 . S
C3675 C3676 1.355 . S
C3675 C3677 1.415 . S
C3676 C3675 1.355 . S
C3676 C3678 1.419 . S
C3677 C3672 1.425 . S
C3677 C3674 1.409 . S
C3677 C3675 1.415 . S
C3678 H3668 0.930 . S
C3678 C3676 1.419 . S
C3678 C3679 1.362 . S
C3679 H3669 0.930 . S
C3679 C3672 1.409 . S
C3679 C3678 1.362 . S
H3680 C3686 0.930 . S
H3681 C3689 0.930 . S
H3682 C3690 0.930 . S
H3683 C3691 0.930 . S
H3684 C3694 0.916 1_655 S
H3685 C3695 0.931 1_655 S
C3686 H3680 0.930 . S
C3686 C3687 1.355 . S
C3686 C3688 1.415 . S
C3687 C3686 1.355 . S
C3687 C3689 1.419 . S
C3688 C3686 1.415 . S
C3688 C3693 1.425 . S
C3688 C3695 1.408 . S
C3689 H3681 0.930 . S
C3689 C3687 1.419 . S
C3689 C3690 1.362 . S
C3690 H3682 0.930 . S
C3690 C3689 1.362 . S
C3690 C3693 1.409 . S
C3691 H3683 0.930 . S
C3691 C3692 1.355 . S
C3691 C3693 1.415 . S
C3692 C3691 1.355 . S
C3692 C3694 1.430 . S
C3693 C3688 1.425 . S
C3693 C3690 1.409 . S
C3693 C3691 1.415 . S
C3694 H3684 0.916 1_455 S
C3694 C3692 1.430 . S
C3694 C3695 1.366 . S
C3695 H3685 0.931 1_455 S
C3695 C3688 1.408 . S
C3695 C3694 1.366 . S
H3696 C3702 0.930 . S
H3697 C3705 0.930 . S
H3698 C3706 0.930 . S
H3699 C3707 0.930 . S
H3700 C3710 0.930 . S
H3701 C3711 0.930 . S
C3702 H3696 0.930 . S
C3702 C3703 1.355 . S
C3702 C3704 1.415 . S
C3703 C3702 1.355 . S
C3703 C3705 1.419 . S
C3704 C3702 1.415 . S
C3704 C3709 1.425 . S
C3704 C3711 1.409 . S
C3705 H3697 0.930 . S
C3705 C3703 1.419 . S
C3705 C3706 1.362 . S
C3706 H3698 0.930 . S
C3706 C3705 1.362 . S
C3706 C3709 1.409 . S
C3707 H3699 0.930 . S
C3707 C3708 1.355 . S
C3707 C3709 1.415 . S
C3708 C3707 1.355 . S
C3708 C3710 1.419 . S
C3709 C3704 1.425 . S
C3709 C3706 1.409 . S
C3709 C3707 1.415 . S
C3710 H3700 0.930 . S
C3710 C3708 1.419 . S
C3710 C3711 1.362 . S
C3711 H3701 0.930 . S
C3711 C3704 1.409 . S
C3711 C3710 1.362 . S
H3712 C3718 0.930 . S
H3713 C3721 0.930 . S
H3714 C3722 0.930 . S
H3715 C3723 0.930 . S
H3716 C3726 0.930 . S
H3717 C3727 0.930 . S
C3718 H3712 0.930 . S
C3718 C3719 1.355 . S
C3718 C3720 1.415 . S
C3719 C3718 1.355 . S
C3719 C3721 1.419 . S
C3720 C3718 1.415 . S
C3720 C3725 1.425 . S
C3720 C3727 1.409 . S
C3721 H3713 0.930 . S
C3721 C3719 1.419 . S
C3721 C3722 1.362 . S
C3722 H3714 0.930 . S
C3722 C3721 1.362 . S
C3722 C3725 1.409 . S
C3723 H3715 0.930 . S
C3723 C3724 1.355 . S
C3723 C3725 1.415 . S
C3724 C3723 1.355 . S
C3724 C3726 1.419 . S
C3725 C3720 1.425 . S
C3725 C3722 1.409 . S
C3725 C3723 1.415 . S
C3726 H3716 0.930 . S
C3726 C3724 1.419 . S
C3726 C3727 1.362 . S
C3727 H3717 0.930 . S
C3727 C3720 1.409 . S
C3727 C3726 1.362 . S
H3728 C3734 0.930 . S
H3729 C3737 0.930 . S
H3730 C3738 0.930 . S
H3731 C3739 0.930 . S
H3732 C3742 0.930 . S
H3733 C3743 0.930 . S
C3734 H3728 0.930 . S
C3734 C3735 1.355 . S
C3734 C3736 1.415 . S
C3735 C3734 1.355 . S
C3735 C3737 1.419 . S
C3736 C3734 1.415 . S
C3736 C3741 1.425 . S
C3736 C3743 1.409 . S
C3737 H3729 0.930 . S
C3737 C3735 1.419 . S
C3737 C3738 1.362 . S
C3738 H3730 0.930 . S
C3738 C3737 1.362 . S
C3738 C3741 1.409 . S
C3739 H3731 0.930 . S
C3739 C3740 1.355 . S
C3739 C3741 1.415 . S
C3740 C3739 1.355 . S
C3740 C3742 1.419 . S
C3741 C3736 1.425 . S
C3741 C3738 1.409 . S
C3741 C3739 1.415 . S
C3742 H3732 0.930 . S
C3742 C3740 1.419 . S
C3742 C3743 1.362 . S
C3743 H3733 0.930 . S
C3743 C3736 1.409 . S
C3743 C3742 1.362 . S
H3744 C3750 0.930 . S
H3745 C3753 0.930 . S
H3746 C3754 0.930 . S
H3747 C3755 0.930 1_455 S
H3748 C3758 0.930 . S
H3749 C3759 0.930 . S
C3750 H3744 0.930 . S
C3750 C3751 1.355 . S
C3750 C3752 1.415 . S
C3751 C3750 1.355 . S
C3751 C3753 1.419 . S
C3752 C3750 1.415 . S
C3752 C3757 1.425 . S
C3752 C3759 1.409 . S
C3753 H3745 0.930 . S
C3753 C3751 1.419 . S
C3753 C3754 1.362 . S
C3754 H3746 0.930 . S
C3754 C3753 1.362 . S
C3754 C3757 1.409 . S
C3755 H3747 0.930 1_655 S
C3755 C3756 1.355 . S
C3755 C3757 1.415 . S
C3756 C3755 1.355 . S
C3756 C3758 1.419 . S
C3757 C3752 1.425 . S
C3757 C3754 1.409 . S
C3757 C3755 1.415 . S
C3758 H3748 0.930 . S
C3758 C3756 1.419 . S
C3758 C3759 1.362 . S
C3759 H3749 0.930 . S
C3759 C3752 1.409 . S
C3759 C3758 1.362 . S
H3760 C3766 0.930 . S
H3761 C3769 0.930 . S
H3762 C3770 0.930 . S
H3763 C3771 0.930 . S
H3764 C3774 0.930 . S
H3765 C3775 0.930 . S
C3766 H3760 0.930 . S
C3766 C3767 1.355 . S
C3766 C3768 1.415 . S
C3767 C3766 1.355 . S
C3767 C3769 1.419 . S
C3768 C3766 1.415 . S
C3768 C3773 1.425 . S
C3768 C3775 1.409 . S
C3769 H3761 0.930 . S
C3769 C3767 1.419 . S
C3769 C3770 1.362 . S
C3770 H3762 0.930 . S
C3770 C3769 1.362 . S
C3770 C3773 1.409 . S
C3771 H3763 0.930 . S
C3771 C3772 1.355 . S
C3771 C3773 1.415 . S
C3772 C3771 1.355 . S
C3772 C3774 1.419 . S
C3773 C3768 1.425 . S
C3773 C3770 1.409 . S
C3773 C3771 1.415 . S
C3774 H3764 0.930 . S
C3774 C3772 1.419 . S
C3774 C3775 1.362 . S
C3775 H3765 0.930 . S
C3775 C3768 1.409 . S
C3775 C3774 1.362 . S
H3776 C3782 0.930 . S
H3777 C3785 0.930 . S
H3778 C3786 0.930 . S
H3779 C3787 0.930 . S
H3780 C3790 0.930 . S
H3781 C3791 0.930 . S
C3782 H3776 0.930 . S
C3782 C3783 1.355 . S
C3782 C3784 1.415 . S
C3783 C3782 1.355 . S
C3783 C3785 1.419 . S
C3784 C3782 1.415 . S
C3784 C3789 1.425 . S
C3784 C3791 1.409 . S
C3785 H3777 0.930 . S
C3785 C3783 1.419 . S
C3785 C3786 1.362 . S
C3786 H3778 0.930 . S
C3786 C3785 1.362 . S
C3786 C3789 1.409 . S
C3787 H3779 0.930 . S
C3787 C3788 1.355 . S
C3787 C3789 1.415 . S
C3788 C3787 1.355 . S
C3788 C3790 1.419 . S
C3789 C3784 1.425 . S
C3789 C3786 1.409 . S
C3789 C3787 1.415 . S
C3790 H3780 0.930 . S
C3790 C3788 1.419 . S
C3790 C3791 1.362 . S
C3791 H3781 0.930 . S
C3791 C3784 1.409 . S
C3791 C3790 1.362 . S
H3792 C3798 0.930 . S
H3793 C3801 0.930 . S
H3794 C3802 0.930 . S
H3795 C3803 0.930 . S
H3796 C3806 0.930 . S
H3797 C3807 0.930 . S
C3798 H3792 0.930 . S
C3798 C3799 1.355 . S
C3798 C3800 1.415 . S
C3799 C3798 1.355 . S
C3799 C3801 1.419 . S
C3800 C3798 1.415 . S
C3800 C3805 1.425 . S
C3800 C3807 1.409 . S
C3801 H3793 0.930 . S
C3801 C3799 1.419 . S
C3801 C3802 1.362 . S
C3802 H3794 0.930 . S
C3802 C3801 1.362 . S
C3802 C3805 1.409 . S
C3803 H3795 0.930 . S
C3803 C3804 1.355 . S
C3803 C3805 1.415 . S
C3804 C3803 1.355 . S
C3804 C3806 1.419 . S
C3805 C3800 1.425 . S
C3805 C3802 1.409 . S
C3805 C3803 1.415 . S
C3806 H3796 0.930 . S
C3806 C3804 1.419 . S
C3806 C3807 1.362 . S
C3807 H3797 0.930 . S
C3807 C3800 1.409 . S
C3807 C3806 1.362 . S
H3808 C3814 0.930 . S
H3809 C3817 0.930 . S
H3810 C3818 0.930 1_455 S
H3811 C3819 0.930 1_455 S
H3812 C3822 0.930 . S
H3813 C3823 0.930 . S
C3814 H3808 0.930 . S
C3814 C3815 1.355 . S
C3814 C3816 1.415 . S
C3815 C3814 1.355 . S
C3815 C3817 1.419 . S
C3816 C3814 1.415 . S
C3816 C3821 1.425 . S
C3816 C3823 1.409 . S
C3817 H3809 0.930 . S
C3817 C3815 1.419 . S
C3817 C3818 1.362 . S
C3818 H3810 0.930 1_655 S
C3818 C3817 1.362 . S
C3818 C3821 1.409 . S
C3819 H3811 0.930 1_655 S
C3819 C3820 1.355 . S
C3819 C3821 1.415 . S
C3820 C3819 1.355 . S
C3820 C3822 1.419 . S
C3821 C3816 1.425 . S
C3821 C3818 1.409 . S
C3821 C3819 1.415 . S
C3822 H3812 0.930 . S
C3822 C3820 1.419 . S
C3822 C3823 1.362 . S
C3823 H3813 0.930 . S
C3823 C3816 1.409 . S
C3823 C3822 1.362 . S
H3824 C3830 0.930 . S
H3825 C3833 0.930 . S
H3826 C3834 0.930 . S
H3827 C3835 0.930 . S
H3828 C3838 0.930 . S
H3829 C3839 0.930 . S
C3830 H3824 0.930 . S
C3830 C3831 1.355 . S
C3830 C3832 1.415 . S
C3831 C3830 1.355 . S
C3831 C3833 1.419 . S
C3832 C3830 1.415 . S
C3832 C3837 1.425 . S
C3832 C3839 1.409 . S
C3833 H3825 0.930 . S
C3833 C3831 1.419 . S
C3833 C3834 1.362 . S
C3834 H3826 0.930 . S
C3834 C3833 1.362 . S
C3834 C3837 1.409 . S
C3835 H3827 0.930 . S
C3835 C3836 1.355 . S
C3835 C3837 1.415 . S
C3836 C3835 1.355 . S
C3836 C3838 1.419 . S
C3837 C3832 1.425 . S
C3837 C3834 1.409 . S
C3837 C3835 1.415 . S
C3838 H3828 0.930 . S
C3838 C3836 1.419 . S
C3838 C3839 1.362 . S
C3839 H3829 0.930 . S
C3839 C3832 1.409 . S
C3839 C3838 1.362 . S
H3840 C3846 0.930 . S
H3841 C3849 0.930 . S
H3842 C3850 0.930 . S
H3843 C3851 0.930 . S
H3844 C3854 0.930 . S
H3845 C3855 0.930 . S
C3846 H3840 0.930 . S
C3846 C3847 1.355 . S
C3846 C3848 1.415 . S
C3847 C3846 1.355 . S
C3847 C3849 1.419 . S
C3848 C3846 1.415 . S
C3848 C3853 1.425 . S
C3848 C3855 1.409 . S
C3849 H3841 0.930 . S
C3849 C3847 1.419 . S
C3849 C3850 1.362 . S
C3850 H3842 0.930 . S
C3850 C3849 1.362 . S
C3850 C3853 1.409 . S
C3851 H3843 0.930 . S
C3851 C3852 1.355 . S
C3851 C3853 1.415 . S
C3852 C3851 1.355 . S
C3852 C3854 1.419 . S
C3853 C3848 1.425 . S
C3853 C3850 1.409 . S
C3853 C3851 1.415 . S
C3854 H3844 0.930 . S
C3854 C3852 1.419 . S
C3854 C3855 1.362 . S
C3855 H3845 0.930 . S
C3855 C3848 1.409 . S
C3855 C3854 1.362 . S
H3856 C3862 0.930 . S
H3857 C3865 0.930 1_545 S
H3858 C3866 0.930 . S
H3859 C3867 0.930 . S
H3860 C3870 0.930 . S
H3861 C3871 0.930 . S
C3862 H3856 0.930 . S
C3862 C3863 1.355 . S
C3862 C3864 1.415 . S
C3863 C3862 1.355 . S
C3863 C3865 1.419 . S
C3864 C3862 1.415 . S
C3864 C3869 1.425 . S
C3864 C3871 1.409 . S
C3865 H3857 0.930 1_565 S
C3865 C3863 1.419 . S
C3865 C3866 1.362 1_565 S
C3866 H3858 0.930 . S
C3866 C3865 1.362 1_545 S
C3866 C3869 1.409 1_545 S
C3867 H3859 0.930 . S
C3867 C3868 1.355 1_545 S
C3867 C3869 1.415 1_545 S
C3868 C3867 1.355 1_565 S
C3868 C3870 1.419 . S
C3869 C3864 1.425 . S
C3869 C3866 1.409 1_565 S
C3869 C3867 1.415 1_565 S
C3870 H3860 0.930 . S
C3870 C3868 1.419 . S
C3870 C3871 1.362 . S
C3871 H3861 0.930 . S
C3871 C3864 1.409 . S
C3871 C3870 1.362 . S
H3872 C3878 0.930 . S
H3873 C3881 0.930 . S
H3874 C3882 0.930 . S
H3875 C3883 0.930 . S
H3876 C3886 0.930 . S
H3877 C3887 0.930 . S
C3878 H3872 0.930 . S
C3878 C3879 1.355 . S
C3878 C3880 1.415 . S
C3879 C3878 1.355 . S
C3879 C3881 1.419 . S
C3880 C3878 1.415 . S
C3880 C3885 1.425 . S
C3880 C3887 1.409 . S
C3881 H3873 0.930 . S
C3881 C3879 1.419 . S
C3881 C3882 1.362 . S
C3882 H3874 0.930 . S
C3882 C3881 1.362 . S
C3882 C3885 1.409 . S
C3883 H3875 0.930 . S
C3883 C3884 1.355 . S
C3883 C3885 1.415 . S
C3884 C3883 1.355 . S
C3884 C3886 1.419 . S
C3885 C3880 1.425 . S
C3885 C3882 1.409 . S
C3885 C3883 1.415 . S
C3886 H3876 0.930 . S
C3886 C3884 1.419 . S
C3886 C3887 1.362 . S
C3887 H3877 0.930 . S
C3887 C3880 1.409 . S
C3887 C3886 1.362 . S
H3888 C3894 0.930 . S
H3889 C3897 0.930 . S
H3890 C3898 0.930 . S
H3891 C3899 0.930 . S
H3892 C3902 0.930 . S
H3893 C3903 0.930 . S
C3894 H3888 0.930 . S
C3894 C3895 1.355 . S
C3894 C3896 1.407 1_556 S
C3895 C3894 1.355 . S
C3895 C3897 1.419 . S
C3896 C3894 1.407 1_554 S
C3896 C3901 1.423 1_554 S
C3896 C3903 1.419 . S
C3897 H3889 0.930 . S
C3897 C3895 1.419 . S
C3897 C3898 1.362 . S
C3898 H3890 0.930 . S
C3898 C3897 1.362 . S
C3898 C3901 1.409 . S
C3899 H3891 0.930 . S
C3899 C3900 1.355 . S
C3899 C3901 1.415 1_554 S
C3900 C3899 1.355 . S
C3900 C3902 1.419 . S
C3901 C3896 1.423 1_556 S
C3901 C3898 1.409 . S
C3901 C3899 1.415 1_556 S
C3902 H3892 0.930 . S
C3902 C3900 1.419 . S
C3902 C3903 1.362 . S
C3903 H3893 0.930 . S
C3903 C3896 1.419 . S
C3903 C3902 1.362 . S
H3904 C3910 0.930 . S
H3905 C3913 0.930 . S
H3906 C3914 0.930 . S
H3907 C3915 0.930 . S
H3908 C3918 0.930 . S
H3909 C3919 0.930 . S
C3910 H3904 0.930 . S
C3910 C3911 1.355 . S
C3910 C3912 1.415 . S
C3911 C3910 1.355 . S
C3911 C3913 1.419 . S
C3912 C3910 1.415 . S
C3912 C3917 1.425 . S
C3912 C3919 1.409 . S
C3913 H3905 0.930 . S
C3913 C3911 1.419 . S
C3913 C3914 1.362 . S
C3914 H3906 0.930 . S
C3914 C3913 1.362 . S
C3914 C3917 1.409 . S
C3915 H3907 0.930 . S
C3915 C3916 1.355 . S
C3915 C3917 1.415 . S
C3916 C3915 1.355 . S
C3916 C3918 1.419 . S
C3917 C3912 1.425 . S
C3917 C3914 1.409 . S
C3917 C3915 1.415 . S
C3918 H3908 0.930 . S
C3918 C3916 1.419 . S
C3918 C3919 1.362 . S
C3919 H3909 0.930 . S
C3919 C3912 1.409 . S
C3919 C3918 1.362 . S
H3920 C3926 0.930 . S
H3921 C3929 0.930 . S
H3922 C3930 0.930 . S
H3923 C3931 0.930 . S
H3924 C3934 0.930 . S
H3925 C3935 0.916 1_556 S
C3926 H3920 0.930 . S
C3926 C3927 1.355 . S
C3926 C3928 1.415 . S
C3927 C3926 1.355 . S
C3927 C3929 1.419 . S
C3928 C3926 1.415 . S
C3928 C3933 1.425 . S
C3928 C3935 1.430 . S
C3929 H3921 0.930 . S
C3929 C3927 1.419 . S
C3929 C3930 1.362 . S
C3930 H3922 0.930 . S
C3930 C3929 1.362 . S
C3930 C3933 1.409 . S
C3931 H3923 0.930 . S
C3931 C3932 1.355 1_554 S
C3931 C3933 1.415 . S
C3932 C3931 1.355 1_556 S
C3932 C3934 1.419 . S
C3933 C3928 1.425 . S
C3933 C3930 1.409 . S
C3933 C3931 1.415 . S
C3934 H3924 0.930 . S
C3934 C3932 1.419 . S
C3934 C3935 1.354 1_556 S
C3935 H3925 0.916 1_554 S
C3935 C3928 1.430 . S
C3935 C3934 1.354 1_554 S
H3936 C3942 0.930 . S
H3937 C3945 0.930 . S
H3938 C3946 0.930 . S
H3939 C3947 0.930 . S
H3940 C3950 0.930 . S
H3941 C3951 0.930 . S
C3942 H3936 0.930 . S
C3942 C3943 1.355 . S
C3942 C3944 1.415 . S
C3943 C3942 1.355 . S
C3943 C3945 1.419 . S
C3944 C3942 1.415 . S
C3944 C3949 1.425 . S
C3944 C3951 1.409 . S
C3945 H3937 0.930 . S
C3945 C3943 1.419 . S
C3945 C3946 1.362 . S
C3946 H3938 0.930 . S
C3946 C3945 1.362 . S
C3946 C3949 1.409 . S
C3947 H3939 0.930 . S
C3947 C3948 1.355 . S
C3947 C3949 1.415 . S
C3948 C3947 1.355 . S
C3948 C3950 1.419 . S
C3949 C3944 1.425 . S
C3949 C3946 1.409 . S
C3949 C3947 1.415 . S
C3950 H3940 0.930 . S
C3950 C3948 1.419 . S
C3950 C3951 1.362 . S
C3951 H3941 0.930 . S
C3951 C3944 1.409 . S
C3951 C3950 1.362 . S
H3952 C3958 0.930 . S
H3953 C3961 0.930 . S
H3954 C3962 0.930 . S
H3955 C3963 0.930 . S
H3956 C3966 0.930 . S
H3957 C3967 0.930 . S
C3958 H3952 0.930 . S
C3958 C3959 1.355 . S
C3958 C3960 1.415 . S
C3959 C3958 1.355 . S
C3959 C3961 1.419 . S
C3960 C3958 1.415 . S
C3960 C3965 1.425 . S
C3960 C3967 1.409 . S
C3961 H3953 0.930 . S
C3961 C3959 1.419 . S
C3961 C3962 1.362 . S
C3962 H3954 0.930 . S
C3962 C3961 1.362 . S
C3962 C3965 1.409 . S
C3963 H3955 0.930 . S
C3963 C3964 1.355 . S
C3963 C3965 1.415 . S
C3964 C3963 1.355 . S
C3964 C3966 1.419 . S
C3965 C3960 1.425 . S
C3965 C3962 1.409 . S
C3965 C3963 1.415 . S
C3966 H3956 0.930 . S
C3966 C3964 1.419 . S
C3966 C3967 1.362 . S
C3967 H3957 0.930 . S
C3967 C3960 1.409 . S
C3967 C3966 1.362 . S
C2439 C665 1.123 . S
C2444 C2128 1.053 1_556 S
C2455 C381 1.240 . S
C2460 C2141 1.254 . S
C2471 C460 1.298 . S
C2476 C2160 1.301 . S
C2492 C2191 1.869 . S
C2487 C585 1.954 . S
C2503 C108 1.722 . S
C2508 C2211 1.683 . S
C2524 C2228 0.826 . S
C2519 C196 0.819 . S
C2540 C2241 1.453 . S
C2535 C313 1.429 . S
C2551 C49 0.894 . S
C2556 C2268 0.843 . S
C2572 C2121 1.116 . S
C2567 C1457 1.158 . S
C2583 C1545 1.418 . S
C2588 C2151 1.388 . S
C2604 C2153 1.785 . S
C2599 C1721 1.766 . S
C2620 C2188 0.942 . S
C2615 C1113 0.981 . S
C2631 C1428 1.201 . S
C2636 C2208 1.225 . S
C2652 C2221 1.870 . S
C2647 C1516 1.826 . S
C2668 C2251 1.168 . S
C2663 C1692 1.241 . S
C2684 C2261 1.141 . S
C2679 C1085 1.197 . S
C2700 C2131 1.455 . S
C2695 C988 1.528 . S
C2711 C1817 1.836 . S
C2716 C2281 1.809 . S
C2732 C2311 1.509 . S
C2727 C2081 1.560 . S
C2748 C2328 1.207 . S
C2743 C1993 1.151 . S
C2759 C761 1.898 . S
C2764 C2271 1.851 . S
C2775 C821 1.198 . S
C2780 C2158 1.181 . S
C2791 C2053 1.898 . S
C2796 C2341 1.885 . S
C2812 C2368 0.863 . S
C2807 C1868 0.877 . S
C2828 C2118 1.104 . S
C2823 C372 1.113 . S
C2844 C2353 1.279 . S
C2839 C645 1.267 . S
C2855 C577 1.301 . S
C2860 C2171 1.258 . S
C2871 C497 1.951 . S
C2876 C2340 1.867 . S
C2892 C2200 1.673 . S
C2887 C57 1.721 . S
C2903 C293 0.862 . S
C2908 C2298 0.819 . S
C2924 C2233 1.469 1_556 S
C2919 C205 1.445 . S
C2940 C2378 0.822 . S
C2935 C145 0.895 . S
C2956 C2113 1.123 . S
C2951 C909 1.134 . S
C2972 C2360 1.364 . S
C2967 C1956 1.434 . S
C2983 C724 1.786 . S
C2988 C2161 1.749 . S
C2999 C1780 0.877 . S
C3004 C2338 0.960 . S
C3015 C937 1.219 . S
C3020 C2198 1.214 . S
C3036 C2293 1.869 . S
C3031 C1985 1.831 . S
C3047 C753 1.235 . S
C3052 C2240 1.161 . S
C3063 C1809 1.166 . S
C3068 C2373 1.166 . S
C3079 C1173 1.525 . S
C3084 C2120 1.450 . S
C3095 C1105 1.831 . S
C3100 C2273 1.803 . S
C3111 C1633 1.552 . S
C3116 C2220 1.537 . S
C3127 C1553 1.178 . S
C3132 C2318 1.207 . S
C3148 C2380 1.867 . S
C3143 C1729 1.906 . S
C3159 C1340 1.195 . S
C3164 C2168 1.174 1_565 S
C3180 C2173 1.905 . S
C3175 C1604 1.887 . S
C3196 C2138 0.874 . S
C3191 C1252 0.886 . S
C3207 C489 1.112 . S
C3212 C2408 1.117 . S
C3228 C2361 1.280 . S
C3223 C557 1.279 . S
C3239 C636 1.300 . S
C3244 C2420 1.293 1_556 S
C3255 C409 1.956 . S
C3260 C2351 1.872 . S
C3271 C284 1.723 . S
C3276 C2291 1.688 . S
C3292 C2308 0.824 . S
C3287 C20 0.825 . S
C3308 C2321 1.440 . S
C3303 C137 1.455 . S
C3324 C2388 0.842 . S
C3319 C225 0.894 . S
C3340 C2401 1.171 . S
C3335 C1641 1.140 . S
C3351 C1193 1.413 . S
C3356 C2371 1.365 . S
C3372 C2413 1.789 . S
C3367 C1289 1.770 . S
C3388 C2348 0.942 . S
C3383 C1377 0.981 . S
C3404 C2288 1.239 . S
C3399 C1613 1.189 . S
C3415 C1164 1.849 . S
C3420 C2301 1.847 . S
C3436 C2331 1.159 . S
C3431 C1261 1.227 . S
C3447 C1349 1.190 . S
C3452 C2381 1.206 . S
C3468 C2411 1.520 . S
C3463 C1965 1.542 . S
C3479 C849 1.832 . S
C3484 C2201 1.804 . S
C3500 C2231 1.515 . S
C3495 C929 1.578 . S
C3516 C2248 1.210 . S
C3511 C1017 1.150 . S
C3532 C2391 1.838 . S
C3527 C1897 1.904 . S
C3543 C1789 1.181 . S
C3548 C2418 1.161 . S
C3564 C2181 1.915 . S
C3559 C900 1.921 . S
C3580 C2148 0.912 . S
C3575 C733 0.849 . S
C3591 C548 1.118 . S
C3596 C2398 1.047 . S
C3612 C2133 1.246 . S
C3607 C469 1.279 . S
C3623 C401 1.260 . S
C3628 C2431 1.294 . S
C3639 C673 1.953 . S
C3644 C2180 1.871 . S
C3655 C233 1.721 . S
C3660 C2280 1.676 1_556 S
C3676 C2218 0.806 . S
C3671 C117 0.860 . S
C3687 C29 1.466 . S
C3692 C2313 1.448 . S
C3703 C321 0.887 . S
C3708 C2258 0.857 . S
C3724 C2393 1.135 . S
C3719 C2044 1.127 . S
C3735 C997 1.413 . S
C3740 C2140 1.361 . S
C3756 C2421 1.790 1_655 S
C3751 C1877 1.788 . S
C3767 C812 0.911 . S
C3772 C2178 0.966 . S
C3783 C2073 1.155 . S
C3788 C2278 1.231 . S
C3804 C2213 1.862 . S
C3799 C1025 1.849 . S
C3815 C1905 1.253 . S
C3820 C2320 1.238 . S
C3836 C2253 1.166 . S
C3831 C841 1.165 . S
C3852 C2400 1.488 . S
C3847 C1525 1.532 . S
C3868 C2193 1.825 1_565 S
C3863 C1369 1.841 . S
C3879 C1465 1.573 . S
C3884 C2300 1.564 . S
C3900 C2238 1.180 . S
C3895 C1201 1.165 . S
C3911 C1281 1.903 . S
C3916 C2260 1.842 . S
C3927 C1076 1.184 . S
C3932 C2428 1.131 1_556 S
C3948 C2333 1.897 . S
C3943 C1437 1.884 . S
C3964 C2358 0.844 . S
C3959 C1701 0.890 . S
