# Generated by pormake.
# Topology eea, (3,6)-cn, num edge types: 1
# Building blocks:
#     Node 0, Type 0, BuildingBlock: WUSLED_clean_sbu_0, # of connection points: 3
#     Node 1, Type 0, BuildingBlock: WUSLED_clean_sbu_0, # of connection points: 3
#     Node 2, Type 0, BuildingBlock: WUSLED_clean_sbu_0, # of connection points: 3
#     Node 3, Type 0, BuildingBlock: WUSLED_clean_sbu_0, # of connection points: 3
#     Node 4, Type 0, BuildingBlock: WUSLED_clean_sbu_0, # of connection points: 3
#     Node 5, Type 0, BuildingBlock: WUSLED_clean_sbu_0, # of connection points: 3
#     Node 6, Type 0, BuildingBlock: WUSLED_clean_sbu_0, # of connection points: 3
#     Node 7, Type 0, BuildingBlock: WUSLED_clean_sbu_0, # of connection points: 3
#     Node 8, Type 0, BuildingBlock: WUSLED_clean_sbu_0, # of connection points: 3
#     Node 9, Type 0, BuildingBlock: WUSLED_clean_sbu_0, # of connection points: 3
#     Node 10, Type 0, BuildingBlock: WUSLED_clean_sbu_0, # of connection points: 3
#     Node 11, Type 0, BuildingBlock: WUSLED_clean_sbu_0, # of connection points: 3
#     Node 12, Type 0, BuildingBlock: WUSLED_clean_sbu_0, # of connection points: 3
#     Node 13, Type 0, BuildingBlock: WUSLED_clean_sbu_0, # of connection points: 3
#     Node 14, Type 0, BuildingBlock: WUSLED_clean_sbu_0, # of connection points: 3
#     Node 15, Type 0, BuildingBlock: WUSLED_clean_sbu_0, # of connection points: 3
#     Node 16, Type 0, BuildingBlock: WUSLED_clean_sbu_0, # of connection points: 3
#     Node 17, Type 0, BuildingBlock: WUSLED_clean_sbu_0, # of connection points: 3
#     Node 18, Type 1, BuildingBlock: KUMBOL_clean_sbu_0, # of connection points: 6
#     Node 19, Type 1, BuildingBlock: KUMBOL_clean_sbu_0, # of connection points: 6
#     Node 20, Type 1, BuildingBlock: KUMBOL_clean_sbu_0, # of connection points: 6
#     Node 21, Type 1, BuildingBlock: KUMBOL_clean_sbu_0, # of connection points: 6
#     Node 22, Type 1, BuildingBlock: KUMBOL_clean_sbu_0, # of connection points: 6
#     Node 23, Type 1, BuildingBlock: KUMBOL_clean_sbu_0, # of connection points: 6
#     Node 24, Type 1, BuildingBlock: KUMBOL_clean_sbu_0, # of connection points: 6
#     Node 25, Type 1, BuildingBlock: KUMBOL_clean_sbu_0, # of connection points: 6
#     Node 26, Type 1, BuildingBlock: KUMBOL_clean_sbu_0, # of connection points: 6
#     Edge 27, Type (0, 1), BuildingBlock: OJICUG_clean_linker_0, # of connection points: 2
#     Edge 28, Type (0, 1), BuildingBlock: OJICUG_clean_linker_0, # of connection points: 2
#     Edge 29, Type (0, 1), BuildingBlock: OJICUG_clean_linker_0, # of connection points: 2
#     Edge 30, Type (0, 1), BuildingBlock: OJICUG_clean_linker_0, # of connection points: 2
#     Edge 31, Type (0, 1), BuildingBlock: OJICUG_clean_linker_0, # of connection points: 2
#     Edge 32, Type (0, 1), BuildingBlock: OJICUG_clean_linker_0, # of connection points: 2
#     Edge 33, Type (0, 1), BuildingBlock: OJICUG_clean_linker_0, # of connection points: 2
#     Edge 34, Type (0, 1), BuildingBlock: OJICUG_clean_linker_0, # of connection points: 2
#     Edge 35, Type (0, 1), BuildingBlock: OJICUG_clean_linker_0, # of connection points: 2
#     Edge 36, Type (0, 1), BuildingBlock: OJICUG_clean_linker_0, # of connection points: 2
#     Edge 37, Type (0, 1), BuildingBlock: OJICUG_clean_linker_0, # of connection points: 2
#     Edge 38, Type (0, 1), BuildingBlock: OJICUG_clean_linker_0, # of connection points: 2
#     Edge 39, Type (0, 1), BuildingBlock: OJICUG_clean_linker_0, # of connection points: 2
#     Edge 40, Type (0, 1), BuildingBlock: OJICUG_clean_linker_0, # of connection points: 2
#     Edge 41, Type (0, 1), BuildingBlock: OJICUG_clean_linker_0, # of connection points: 2
#     Edge 42, Type (0, 1), BuildingBlock: OJICUG_clean_linker_0, # of connection points: 2
#     Edge 43, Type (0, 1), BuildingBlock: OJICUG_clean_linker_0, # of connection points: 2
#     Edge 44, Type (0, 1), BuildingBlock: OJICUG_clean_linker_0, # of connection points: 2
#     Edge 45, Type (0, 1), BuildingBlock: OJICUG_clean_linker_0, # of connection points: 2
#     Edge 46, Type (0, 1), BuildingBlock: OJICUG_clean_linker_0, # of connection points: 2
#     Edge 47, Type (0, 1), BuildingBlock: OJICUG_clean_linker_0, # of connection points: 2
#     Edge 48, Type (0, 1), BuildingBlock: OJICUG_clean_linker_0, # of connection points: 2
#     Edge 49, Type (0, 1), BuildingBlock: OJICUG_clean_linker_0, # of connection points: 2
#     Edge 50, Type (0, 1), BuildingBlock: OJICUG_clean_linker_0, # of connection points: 2
#     Edge 51, Type (0, 1), BuildingBlock: OJICUG_clean_linker_0, # of connection points: 2
#     Edge 52, Type (0, 1), BuildingBlock: OJICUG_clean_linker_0, # of connection points: 2
#     Edge 53, Type (0, 1), BuildingBlock: OJICUG_clean_linker_0, # of connection points: 2
#     Edge 54, Type (0, 1), BuildingBlock: OJICUG_clean_linker_0, # of connection points: 2
#     Edge 55, Type (0, 1), BuildingBlock: OJICUG_clean_linker_0, # of connection points: 2
#     Edge 56, Type (0, 1), BuildingBlock: OJICUG_clean_linker_0, # of connection points: 2
#     Edge 57, Type (0, 1), BuildingBlock: OJICUG_clean_linker_0, # of connection points: 2
#     Edge 58, Type (0, 1), BuildingBlock: OJICUG_clean_linker_0, # of connection points: 2
#     Edge 59, Type (0, 1), BuildingBlock: OJICUG_clean_linker_0, # of connection points: 2
#     Edge 60, Type (0, 1), BuildingBlock: OJICUG_clean_linker_0, # of connection points: 2
#     Edge 61, Type (0, 1), BuildingBlock: OJICUG_clean_linker_0, # of connection points: 2
#     Edge 62, Type (0, 1), BuildingBlock: OJICUG_clean_linker_0, # of connection points: 2
#     Edge 63, Type (0, 1), BuildingBlock: OJICUG_clean_linker_0, # of connection points: 2
#     Edge 64, Type (0, 1), BuildingBlock: OJICUG_clean_linker_0, # of connection points: 2
#     Edge 65, Type (0, 1), BuildingBlock: OJICUG_clean_linker_0, # of connection points: 2
#     Edge 66, Type (0, 1), BuildingBlock: OJICUG_clean_linker_0, # of connection points: 2
#     Edge 67, Type (0, 1), BuildingBlock: OJICUG_clean_linker_0, # of connection points: 2
#     Edge 68, Type (0, 1), BuildingBlock: OJICUG_clean_linker_0, # of connection points: 2
#     Edge 69, Type (0, 1), BuildingBlock: OJICUG_clean_linker_0, # of connection points: 2
#     Edge 70, Type (0, 1), BuildingBlock: OJICUG_clean_linker_0, # of connection points: 2
#     Edge 71, Type (0, 1), BuildingBlock: OJICUG_clean_linker_0, # of connection points: 2
#     Edge 72, Type (0, 1), BuildingBlock: OJICUG_clean_linker_0, # of connection points: 2
#     Edge 73, Type (0, 1), BuildingBlock: OJICUG_clean_linker_0, # of connection points: 2
#     Edge 74, Type (0, 1), BuildingBlock: OJICUG_clean_linker_0, # of connection points: 2
#     Edge 75, Type (0, 1), BuildingBlock: OJICUG_clean_linker_0, # of connection points: 2
#     Edge 76, Type (0, 1), BuildingBlock: OJICUG_clean_linker_0, # of connection points: 2
#     Edge 77, Type (0, 1), BuildingBlock: OJICUG_clean_linker_0, # of connection points: 2
#     Edge 78, Type (0, 1), BuildingBlock: OJICUG_clean_linker_0, # of connection points: 2
#     Edge 79, Type (0, 1), BuildingBlock: OJICUG_clean_linker_0, # of connection points: 2
#     Edge 80, Type (0, 1), BuildingBlock: OJICUG_clean_linker_0, # of connection points: 2
# Relax obj value: 0.008
# Max RMSD: 0.088
# Mean RMSD: 0.069
data_MOF--net-eea--node1-WUSLED_clean_sbu_0--node2-KUMBOL_clean_sbu_0--edge1-OJICUG_clean_linker_0
_symmetry_space_group_name_H-M    P1
_symmetry_Int_Tables_number       1
_symmetry_cell_setting            triclinic
loop_
_symmetry_equiv_pos_as_xyz
'x, y, z'
_cell_length_a     52.590853
_cell_length_b     53.955234
_cell_length_c     74.205714
_cell_angle_alpha  89.656553
_cell_angle_beta   89.950644
_cell_angle_gamma 119.96924
loop_
_atom_site_label
_atom_site_type_symbol
_atom_site_fract_x
_atom_site_fract_y
_atom_site_fract_z
_atom_type_partial_charge
C0 C 0.21933 0.16039 0.40803 0.0
C1 C 0.24293 0.18867 0.40823 0.0
C2 C 0.21187 0.20619 0.39561 0.0
C3 C 0.23926 0.21127 0.40205 0.0
C4 C 0.18824 0.17785 0.39565 0.0
C5 C 0.19198 0.15526 0.40172 0.0
U6 U 0.2428 0.12105 0.4418 0.0
O7 O 0.22089 0.07525 0.44904 0.0
O8 O 0.26498 0.09628 0.43701 0.0
C9 C 0.24247 0.07215 0.44271 0.0
C10 C 0.22281 0.13585 0.41371 0.0
C11 C 0.2341 0.04674 0.4315 0.0
C12 C 0.22298 0.02246 0.40257 0.0
C13 C 0.22932 0.04664 0.41287 0.0
C14 C 0.22562 0.99827 0.42949 0.0
C15 C 0.2215 0.99812 0.41074 0.0
C16 C 0.23186 0.02229 0.43972 0.0
C17 C 0.2766 0.15662 0.48717 0.0
C18 C 0.29283 0.13535 0.51019 0.0
C19 C 0.2992 0.18254 0.51467 0.0
C20 C 0.28625 0.18092 0.49794 0.0
C21 C 0.30277 0.15983 0.52104 0.0
C22 C 0.27986 0.13377 0.49341 0.0
C23 C 0.26354 0.15583 0.46945 0.0
O24 O 0.2498 0.14046 0.4148 0.0
O25 O 0.20591 0.12012 0.42707 0.0
O26 O 0.23567 0.13658 0.46764 0.0
O27 O 0.27951 0.15758 0.45535 0.0
H28 H 0.26433 0.19336 0.413 0.0
H29 H 0.25807 0.23269 0.40204 0.0
H30 H 0.1667 0.17306 0.39113 0.0
H31 H 0.17344 0.13367 0.40143 0.0
H32 H 0.22001 0.0231 0.38817 0.0
H33 H 0.23092 0.06534 0.40628 0.0
H34 H 0.22405 0.97974 0.43631 0.0
H35 H 0.23532 0.02189 0.45409 0.0
H36 H 0.29491 0.11733 0.51471 0.0
H37 H 0.30698 0.20191 0.52245 0.0
H38 H 0.284 0.19882 0.49332 0.0
H39 H 0.27246 0.11478 0.48528 0.0
C40 C 0.97114 0.16862 0.40438 0.0
C41 C 0.98399 0.19554 0.41261 0.0
C42 C 0.025 0.21446 0.39114 0.0
C43 C 1.01061 0.21823 0.40605 0.0
C44 C 1.01187 0.18741 0.38294 0.0
C45 C 0.98527 0.16482 0.38948 0.0
U46 U 0.90812 0.12782 0.43932 0.0
O47 O 0.86062 0.10176 0.43433 0.0
O48 O 0.88439 0.08168 0.44584 0.0
C49 C 0.85919 0.07791 0.43987 0.0
C50 C 0.94299 0.14423 0.41082 0.0
C51 C 0.84113 0.05195 0.42909 0.0
C52 C 0.82624 0.02597 0.40071 0.0
C53 C 0.84497 0.05084 0.41042 0.0
C54 C 0.80005 1.00316 0.42824 0.0
C55 C 0.80325 1.00191 0.40949 0.0
C56 C 0.81873 0.02783 0.43787 0.0
C57 C 0.90948 0.16083 0.48582 0.0
C58 C 0.87036 0.13967 0.50832 0.0
C59 C 0.91442 0.18454 0.51453 0.0
C60 C 0.92573 0.18358 0.4976 0.0
C61 C 0.88646 0.16271 0.52014 0.0
C62 C 0.88175 0.13874 0.49135 0.0
C63 C 0.92175 0.16104 0.46781 0.0
O64 O 0.94464 0.12877 0.42404 0.0
O65 O 0.92092 0.14896 0.41271 0.0
O66 O 0.90725 0.16285 0.45391 0.0
O67 O 0.93086 0.14263 0.46535 0.0
H68 H 0.97353 0.19898 0.42416 0.0
H69 H 0.02022 0.23858 0.41291 0.0
H70 H 0.02205 0.18372 0.37136 0.0
H71 H 0.97569 0.14427 0.38285 0.0
H72 H 0.82929 0.02582 0.38628 0.0
H73 H 0.86215 0.06925 0.40336 0.0
H74 H 0.78305 0.98496 0.43554 0.0
H75 H 0.81544 0.02816 0.45227 0.0
H76 H 0.84894 0.12227 0.51219 0.0
H77 H 0.92735 0.20285 0.52302 0.0
H78 H 0.94714 0.20089 0.4936 0.0
H79 H 0.86885 0.12091 0.4825 0.0
C80 C 0.85544 0.80895 0.40438 0.0
C81 C 0.82868 0.79274 0.41356 0.0
C82 C 0.80522 0.81227 0.3941 0.0
C83 C 0.80383 0.79436 0.40846 0.0
C84 C 0.83224 0.8287 0.38512 0.0
C85 C 0.85701 0.82701 0.3902 0.0
U86 U 0.90274 0.78969 0.43538 0.0
O87 O 0.92796 0.76868 0.42808 0.0
O88 O 0.95097 0.81248 0.43844 0.0
C89 C 0.95348 0.79143 0.43148 0.0
C90 C 0.88166 0.80664 0.40877 0.0
C91 C 0.9779 0.79906 0.41838 0.0
C92 C 0.99941 0.78566 0.39374 0.0
C93 C 0.9749 0.78096 0.40396 0.0
C94 C 0.03034 0.82744 0.4115 0.0
C95 C 0.02763 0.80852 0.39767 0.0
C96 C 1.00584 0.82268 0.42175 0.0
C97 C 0.8736 0.75762 0.48357 0.0
C98 C 0.85908 0.71566 0.50278 0.0
C99 C 0.8801 0.76242 0.51628 0.0
C100 C 0.88283 0.77471 0.49912 0.0
C101 C 0.86786 0.73262 0.5184 0.0
C102 C 0.86186 0.72793 0.48567 0.0
C103 C 0.87274 0.77009 0.4657 0.0
O104 O 0.89925 0.82398 0.42119 0.0
O105 O 0.87752 0.78058 0.41024 0.0
O106 O 0.86849 0.75422 0.4514 0.0
O107 O 0.89167 0.79732 0.46277 0.0
H108 H 0.82695 0.7787 0.42457 0.0
H109 H 0.78356 0.7817 0.41587 0.0
H110 H 0.83412 0.84246 0.3739 0.0
H111 H 0.87739 0.8396 0.38286 0.0
H112 H 0.99637 0.77084 0.38306 0.0
H113 H 0.95382 0.76245 0.40097 0.0
H114 H 0.05168 0.84505 0.41511 0.0
H115 H 1.00905 0.83681 0.4329 0.0
H116 H 0.849 0.69262 0.50375 0.0
H117 H 0.8874 0.77629 0.52789 0.0
H118 H 0.89154 0.79759 0.4981 0.0
H119 H 0.8539 0.71392 0.47412 0.0
C120 C 0.06112 0.21403 0.65229 0.0
C121 C 0.05016 0.22985 0.64349 0.0
C122 C 1.0069 0.20897 0.66323 0.0
C123 C 0.0234 0.22737 0.64891 0.0
C124 C 0.0178 0.19283 0.67178 0.0
C125 C 0.04461 0.1954 0.66639 0.0
U126 U 0.12691 0.23494 0.61994 0.0
O127 O 0.17436 0.25813 0.62579 0.0
O128 O 0.15327 0.21387 0.61617 0.0
C129 C 0.1776 0.23616 0.62184 0.0
C130 C 0.09005 0.21732 0.64748 0.0
C131 C 0.19733 0.23097 0.6336 0.0
C132 C 0.20717 0.20411 0.65654 0.0
C133 C 0.18714 0.20888 0.64658 0.0
C134 C 0.2475 0.24337 0.64068 0.0
C135 C 0.23773 0.22134 0.6537 0.0
C136 C 0.22764 0.24812 0.63088 0.0
C137 C 0.12508 0.26496 0.57216 0.0
C138 C 0.165 0.28688 0.5502 0.0
C139 C 0.1177 0.28168 0.54309 0.0
C140 C 0.10696 0.26875 0.55994 0.0
C141 C 0.14697 0.29119 0.53795 0.0
C142 C 0.15418 0.27394 0.56713 0.0
C143 C 0.1132 0.25273 0.59022 0.0
O144 O 0.09006 0.20005 0.63506 0.0
O145 O 0.1119 0.24369 0.64558 0.0
O146 O 0.12634 0.26929 0.60407 0.0
O147 O 0.10606 0.22596 0.59311 0.0
H148 H 0.06241 0.24427 0.63252 0.0
H149 H 1.01553 0.23979 0.64179 0.0
H150 H 1.00593 0.17866 0.68293 0.0
H151 H 0.05267 0.18305 0.67342 0.0
H152 H 0.19874 0.18703 0.66647 0.0
H153 H 0.16382 0.19524 0.6489 0.0
H154 H 0.27064 0.25666 0.63763 0.0
H155 H 0.23607 0.26505 0.62081 0.0
H156 H 0.18752 0.29352 0.54672 0.0
H157 H 0.10319 0.28495 0.53431 0.0
H158 H 0.08448 0.26213 0.56356 0.0
H159 H 0.16858 0.27121 0.57634 0.0
C160 C 0.81101 0.8563 0.64778 0.0
C161 C 0.80865 0.83524 0.63578 0.0
C162 C 0.81884 0.81076 0.66017 0.0
C163 C 0.81254 0.81269 0.64191 0.0
C164 C 0.82085 0.83184 0.67211 0.0
C165 C 0.81699 0.85432 0.66597 0.0
U166 U 0.78731 0.89515 0.6136 0.0
O167 O 0.76568 0.92036 0.61873 0.0
O168 O 0.80944 0.94095 0.60628 0.0
C169 C 0.78817 0.94435 0.61285 0.0
C170 C 0.80761 0.88061 0.64174 0.0
C171 C 0.79703 0.97002 0.62396 0.0
C172 C 0.80805 0.9946 0.65282 0.0
C173 C 0.80135 0.97017 0.64265 0.0
C174 C 0.80672 0.01897 0.62564 0.0
C175 C 0.81036 0.01917 0.64444 0.0
C176 C 0.80013 0.9947 0.61556 0.0
C177 C 0.75158 0.85828 0.56854 0.0
C178 C 0.74078 0.88003 0.54296 0.0
C179 C 0.72117 0.8288 0.54394 0.0
C180 C 0.73493 0.83144 0.56051 0.0
C181 C 0.72373 0.853 0.53496 0.0
C182 C 0.7545 0.88264 0.55965 0.0
C183 C 0.76543 0.86001 0.58616 0.0
O184 O 0.82413 0.8957 0.62806 0.0
O185 O 0.78052 0.87566 0.64065 0.0
O186 O 0.74996 0.8586 0.60044 0.0
O187 O 0.7934 0.87923 0.58761 0.0
H188 H 0.80402 0.83636 0.62167 0.0
H189 H 0.81113 0.79707 0.63227 0.0
H190 H 0.82515 0.83087 0.68629 0.0
H191 H 0.81875 0.87027 0.67548 0.0
H192 H 0.81062 0.99398 0.66726 0.0
H193 H 0.79909 0.95131 0.64941 0.0
H194 H 0.80891 0.03763 0.61867 0.0
H195 H 0.79704 0.9951 0.60114 0.0
H196 H 0.74301 0.89909 0.53652 0.0
H197 H 0.70863 0.80773 0.53809 0.0
H198 H 0.73251 0.8124 0.5671 0.0
H199 H 0.7672 0.90358 0.56564 0.0
C200 C 0.05828 0.84566 0.64976 0.0
C201 C 0.04653 0.81979 0.64034 0.0
C202 C 1.0054 0.7971 0.66165 0.0
C203 C 0.02039 0.79577 0.64622 0.0
C204 C 0.01721 0.82322 0.67091 0.0
C205 C 0.04335 0.84717 0.66503 0.0
U206 U 0.12248 0.8902 0.61643 0.0
O207 O 0.14647 0.93681 0.6117 0.0
O208 O 0.16985 0.91569 0.6222 0.0
C209 C 0.17127 0.94011 0.61813 0.0
C210 C 0.08638 0.87106 0.64432 0.0
C211 C 0.18848 0.96458 0.63048 0.0
C212 C 0.19848 0.00979 0.64399 0.0
C213 C 0.17989 0.98489 0.63434 0.0
C214 C 0.23428 0.99434 0.64653 0.0
C215 C 0.22621 0.01514 0.64992 0.0
C216 C 0.21575 0.96952 0.6369 0.0
C217 C 0.12246 0.8597 0.56903 0.0
C218 C 0.16178 0.88111 0.54669 0.0
C219 C 0.11777 0.83632 0.54024 0.0
C220 C 0.1063 0.83711 0.55713 0.0
C221 C 0.14578 0.85819 0.53476 0.0
C222 C 0.15024 0.88184 0.56365 0.0
C223 C 0.11002 0.85901 0.58705 0.0
O224 O 0.10892 0.86706 0.64236 0.0
O225 O 0.085 0.88742 0.63162 0.0
O226 O 0.1011 0.8775 0.58987 0.0
O227 O 0.12405 0.85632 0.60089 0.0
H228 H 0.05762 0.81814 0.62848 0.0
H229 H 1.01177 0.77621 0.63856 0.0
H230 H 1.00654 0.82504 0.68291 0.0
H231 H 0.05209 0.86689 0.67256 0.0
H232 H 0.19157 0.02538 0.64617 0.0
H233 H 0.15921 0.98203 0.62945 0.0
H234 H 0.2552 0.99739 0.6511 0.0
H235 H 0.22318 0.9545 0.63402 0.0
H236 H 0.18325 0.89853 0.54292 0.0
H237 H 0.10492 0.81809 0.53168 0.0
H238 H 0.08486 0.81973 0.56103 0.0
H239 H 0.16307 0.89953 0.57261 0.0
C240 C 0.88677 0.49575 0.74058 0.0
C241 C 0.88911 0.5167 0.75267 0.0
C242 C 0.87927 0.54154 0.72835 0.0
C243 C 0.8854 0.53939 0.74661 0.0
C244 C 0.87732 0.52058 0.71632 0.0
C245 C 0.88101 0.49796 0.72238 0.0
U246 U 0.9085 0.45582 0.7751 0.0
O247 O 0.88591 0.40984 0.78195 0.0
O248 O 0.93036 0.43067 0.77047 0.0
C249 C 0.90755 0.40657 0.77592 0.0
C250 C 0.8899 0.47126 0.74657 0.0
C251 C 0.89935 0.38111 0.76476 0.0
C252 C 0.88907 0.35672 0.73587 0.0
C253 C 0.89531 0.38102 0.74604 0.0
C254 C 0.89036 0.3324 0.76308 0.0
C255 C 0.88695 0.33224 0.74426 0.0
C256 C 0.8965 0.35653 0.77317 0.0
C257 C 0.94101 0.49021 0.82101 0.0
C258 C 0.95752 0.46884 0.84383 0.0
C259 C 0.96248 0.51533 0.84896 0.0
C260 C 0.94979 0.51398 0.83216 0.0
C261 C 0.96669 0.49285 0.85503 0.0
C262 C 0.9448 0.46754 0.82699 0.0
C263 C 0.92857 0.4899 0.80314 0.0
O264 O 0.91692 0.47623 0.74827 0.0
O265 O 0.87256 0.45565 0.75981 0.0
O266 O 0.9007 0.47093 0.80093 0.0
O267 O 0.94493 0.49179 0.78922 0.0
H268 H 0.89356 0.51537 0.76679 0.0
H269 H 0.88678 0.55493 0.75631 0.0
H270 H 0.87315 0.52173 0.70214 0.0
H271 H 0.87927 0.48209 0.71282 0.0
H272 H 0.88666 0.35737 0.72141 0.0
H273 H 0.8974 0.39981 0.73929 0.0
H274 H 0.8883 0.31379 0.77006 0.0
H275 H 0.89938 0.3561 0.7876 0.0
H276 H 0.96007 0.45098 0.84811 0.0
H277 H 0.96965 0.53435 0.857 0.0
H278 H 0.94714 0.53175 0.82776 0.0
H279 H 0.9381 0.44895 0.81858 0.0
C280 C 0.64048 0.5066 0.73893 0.0
C281 C 0.65203 0.53246 0.74834 0.0
C282 C 0.69313 0.55538 0.72704 0.0
C283 C 0.67805 0.5566 0.74245 0.0
C284 C 0.68149 0.52928 0.71777 0.0
C285 C 0.65546 0.50521 0.72365 0.0
U286 U 0.57618 0.46294 0.77222 0.0
O287 O 0.52907 0.4361 0.76636 0.0
O288 O 0.55318 0.41665 0.77832 0.0
C289 C 0.528 0.41245 0.772 0.0
C290 C 0.61262 0.48103 0.7445 0.0
C291 C 0.51045 0.38639 0.76121 0.0
C292 C 0.49516 0.36064 0.73277 0.0
C293 C 0.51382 0.38555 0.74247 0.0
C294 C 0.47005 0.33726 0.76046 0.0
C295 C 0.4727 0.33632 0.74164 0.0
C296 C 0.48868 0.36194 0.77008 0.0
C297 C 0.57301 0.49401 0.81874 0.0
C298 C 0.53648 0.49797 0.83692 0.0
C299 C 0.57505 0.49362 0.85165 0.0
C300 C 0.58642 0.49242 0.83476 0.0
C301 C 0.55001 0.49665 0.85301 0.0
C302 C 0.54778 0.49667 0.82006 0.0
C303 C 0.58683 0.49511 0.80096 0.0
O304 O 0.61425 0.46568 0.7578 0.0
O305 O 0.58962 0.48443 0.74577 0.0
O306 O 0.57364 0.4973 0.78648 0.0
O307 O 0.59721 0.47763 0.79878 0.0
H308 H 0.64088 0.53401 0.7602 0.0
H309 H 0.68654 0.57615 0.75011 0.0
H310 H 0.69223 0.52755 0.70578 0.0
H311 H 0.64687 0.48549 0.71615 0.0
H312 H 0.49777 0.36067 0.71829 0.0
H313 H 0.5305 0.40421 0.73535 0.0
H314 H 0.45344 0.31884 0.76781 0.0
H315 H 0.48574 0.36207 0.78453 0.0
H316 H 0.51751 0.50081 0.8373 0.0
H317 H 0.58594 0.49217 0.86365 0.0
H318 H 0.60604 0.49065 0.83424 0.0
H319 H 0.537 0.49832 0.80806 0.0
C320 C 0.52228 0.14112 0.73706 0.0
C321 C 0.49567 0.12557 0.74652 0.0
C322 C 0.47232 0.14505 0.72692 0.0
C323 C 0.47096 0.12747 0.74148 0.0
C324 C 0.49916 0.16079 0.71764 0.0
C325 C 0.5238 0.1588 0.72265 0.0
U326 U 0.56917 0.12304 0.76905 0.0
O327 O 0.59454 0.10171 0.7629 0.0
O328 O 0.61734 0.14597 0.77246 0.0
C329 C 0.62 0.12469 0.76606 0.0
C330 C 0.54845 0.13878 0.74162 0.0
C331 C 0.64444 0.13191 0.75302 0.0
C332 C 0.66575 0.11826 0.72837 0.0
C333 C 0.64133 0.11361 0.73869 0.0
C334 C 0.69682 0.16027 0.74589 0.0
C335 C 0.694 0.14125 0.7321 0.0
C336 C 0.67243 0.15558 0.75624 0.0
C337 C 0.5363 0.09443 0.81755 0.0
C338 C 0.55097 0.07226 0.84105 0.0
C339 C 0.50994 0.07986 0.84616 0.0
C340 C 0.5141 0.0923 0.82903 0.0
C341 C 0.52795 0.06921 0.85234 0.0
C342 C 0.55502 0.08464 0.82374 0.0
C343 C 0.53788 0.10558 0.79903 0.0
O344 O 0.56627 0.15674 0.75371 0.0
O345 O 0.54412 0.11275 0.74377 0.0
O346 O 0.53485 0.08849 0.78564 0.0
O347 O 0.55759 0.13244 0.79579 0.0
H348 H 0.49397 0.11187 0.75773 0.0
H349 H 0.45083 0.11534 0.74911 0.0
H350 H 0.50101 0.17427 0.70626 0.0
H351 H 0.54406 0.17092 0.71512 0.0
H352 H 0.66259 0.10334 0.71773 0.0
H353 H 0.62022 0.09508 0.7358 0.0
H354 H 0.71818 0.17798 0.74936 0.0
H355 H 0.67573 0.16987 0.76731 0.0
H356 H 0.56515 0.06416 0.84533 0.0
H357 H 0.49231 0.07831 0.85453 0.0
H358 H 0.49944 0.09976 0.82458 0.0
H359 H 0.5723 0.08603 0.81509 0.0
C360 C 0.72946 0.54929 0.98506 0.0
C361 C 0.70233 0.52668 0.97916 0.0
C362 C 0.67562 0.5444 0.997 0.0
C363 C 0.67579 0.52429 0.98505 0.0
C364 C 0.70277 0.56689 1.00293 0.0
C365 C 0.72926 0.56922 0.99711 0.0
U366 U 0.79403 0.56543 0.95222 0.0
O367 O 0.84161 0.58812 0.95759 0.0
O368 O 0.81926 0.54301 0.94956 0.0
C369 C 0.84403 0.56539 0.95463 0.0
C370 C 0.75792 0.55127 0.97999 0.0
C371 C 0.86351 0.56064 0.96689 0.0
C372 C 0.87292 0.53383 0.99007 0.0
C373 C 0.85308 0.53833 0.97972 0.0
C374 C 0.91356 0.57384 0.97493 0.0
C375 C 0.90353 0.55154 0.98778 0.0
C376 C 0.89388 0.57833 0.96474 0.0
C377 C 0.79258 0.59236 0.90353 0.0
C378 C 0.83089 0.60728 0.88064 0.0
C379 C 0.78824 0.61197 0.87476 0.0
C380 C 0.77699 0.60039 0.89182 0.0
C381 C 0.81548 0.61582 0.86891 0.0
C382 C 0.81958 0.59571 0.89778 0.0
C383 C 0.78051 0.58159 0.92178 0.0
O384 O 0.75719 0.5326 0.96837 0.0
O385 O 0.78041 0.57712 0.9774 0.0
O386 O 0.79411 0.59903 0.93517 0.0
O387 O 0.77271 0.55488 0.92555 0.0
H388 H 0.70151 0.51068 0.97006 0.0
H389 H 0.65537 0.50685 0.98002 0.0
H390 H 0.70359 0.58255 1.01233 0.0
H391 H 0.74968 0.58655 1.00223 0.0
H392 H 0.86429 0.51653 0.99985 0.0
H393 H 0.82971 0.52426 0.98161 0.0
H394 H 0.93678 0.58753 0.97231 0.0
H395 H 0.9025 0.59542 0.95479 0.0
H396 H 0.85173 0.60953 0.87661 0.0
H397 H 0.77589 0.61867 0.86639 0.0
H398 H 0.75619 0.59814 0.89601 0.0
H399 H 0.832 0.58965 0.9066 0.0
C400 C 0.47914 0.18915 0.97911 0.0
C401 C 0.45551 0.16088 0.97986 0.0
C402 C 0.48763 0.14391 0.99149 0.0
C403 C 0.4597 0.13857 0.986 0.0
C404 C 0.5113 0.17218 0.99039 0.0
C405 C 0.50706 0.19449 0.98435 0.0
U406 U 0.45392 0.22927 0.94686 0.0
O407 O 0.43061 0.25261 0.95318 0.0
O408 O 0.47451 0.27538 0.94092 0.0
C409 C 0.45287 0.27747 0.94825 0.0
C410 C 0.47501 0.21354 0.97397 0.0
C411 C 0.46066 0.30182 0.96057 0.0
C412 C 0.49671 0.34539 0.97569 0.0
C413 C 0.48984 0.32091 0.9656 0.0
C414 C 0.44535 0.33172 0.97634 0.0
C415 C 0.4746 0.35139 0.98091 0.0
C416 C 0.43853 0.30737 0.96625 0.0
C417 C 0.41863 0.19418 0.90124 0.0
C418 C 0.40814 0.21629 0.87574 0.0
C419 C 0.3874 0.16489 0.87685 0.0
C420 C 0.40131 0.16735 0.89333 0.0
C421 C 0.3905 0.18929 0.86784 0.0
C422 C 0.42201 0.21871 0.89234 0.0
C423 C 0.43288 0.19568 0.91866 0.0
O424 O 0.49145 0.22997 0.96067 0.0
O425 O 0.44785 0.20854 0.97335 0.0
O426 O 0.41725 0.19283 0.93316 0.0
O427 O 0.46059 0.21561 0.92021 0.0
H428 H 0.43365 0.15601 0.97597 0.0
H429 H 0.44085 0.11721 0.98682 0.0
H430 H 0.53323 0.17715 0.99416 0.0
H431 H 0.52564 0.21607 0.98395 0.0
H432 H 0.51949 0.36014 0.97883 0.0
H433 H 0.50749 0.31738 0.96138 0.0
H434 H 0.42766 0.33531 0.98037 0.0
H435 H 0.41588 0.29313 0.96253 0.0
H436 H 0.41078 0.23548 0.86926 0.0
H437 H 0.37439 0.14383 0.87108 0.0
H438 H 0.39854 0.14818 0.89993 0.0
H439 H 0.43524 0.23966 0.89823 0.0
C440 C 0.72543 0.1804 0.98283 0.0
C441 C 0.71398 0.15452 0.97344 0.0
C442 C 0.67297 0.13142 0.99481 0.0
C443 C 0.68806 0.1303 0.97937 0.0
C444 C 0.68449 0.15754 1.00405 0.0
C445 C 0.71043 0.1817 0.99813 0.0
U446 U 0.78919 0.22372 0.94923 0.0
O447 O 0.81227 0.26995 0.94287 0.0
O448 O 0.83644 0.25051 0.95472 0.0
C449 C 0.83749 0.27417 0.94914 0.0
C450 C 0.75322 0.20605 0.9772 0.0
C451 C 0.855 0.30019 0.96003 0.0
C452 C 0.8699 0.32574 0.98858 0.0
C453 C 0.85136 0.30091 0.97875 0.0
C454 C 0.89547 0.34932 0.96106 0.0
C455 C 0.89253 0.35014 0.97986 0.0
C456 C 0.87697 0.3247 0.95131 0.0
C457 C 0.78862 0.18885 0.90313 0.0
C458 C 0.82111 0.21094 0.87725 0.0
C459 C 0.78791 0.15978 0.87794 0.0
C460 C 0.77736 0.16219 0.89477 0.0
C461 C 0.81011 0.18405 0.86895 0.0
C462 C 0.81053 0.21332 0.89422 0.0
C463 C 0.77683 0.1901 0.92103 0.0
O464 O 0.77626 0.20271 0.97585 0.0
O465 O 0.75144 0.22129 0.96389 0.0
O466 O 0.7676 0.20853 0.92293 0.0
O467 O 0.79131 0.18892 0.93512 0.0
H468 H 0.72512 0.15303 0.96157 0.0
H469 H 0.67967 0.11075 0.97172 0.0
H470 H 0.67374 0.15921 1.01606 0.0
H471 H 0.71893 0.20143 1.00562 0.0
H472 H 0.86704 0.32556 1.00304 0.0
H473 H 0.83455 0.2822 0.98578 0.0
H474 H 0.91219 0.36779 0.9538 0.0
H475 H 0.88013 0.3247 0.93687 0.0
H476 H 0.83835 0.23006 0.87082 0.0
H477 H 0.77852 0.13881 0.87191 0.0
H478 H 0.76032 0.14305 0.90133 0.0
H479 H 0.81956 0.23415 0.90041 0.0
C480 C 0.55429 0.82927 0.07412 0.0
C481 C 0.55716 0.85061 0.08605 0.0
C482 C 0.54666 0.87487 0.06169 0.0
C483 C 0.55337 0.87319 0.07989 0.0
C484 C 0.54413 0.85349 0.04981 0.0
C485 C 0.54788 0.83097 0.05598 0.0
U486 U 0.57761 0.79099 0.10875 0.0
O487 O 0.55576 0.74528 0.11625 0.0
O488 O 0.59983 0.76618 0.10421 0.0
C489 C 0.57733 0.7421 0.10998 0.0
C490 C 0.55771 0.80502 0.08022 0.0
C491 C 0.56892 0.71656 0.09888 0.0
C492 C 0.55735 0.69187 0.07006 0.0
C493 C 0.56382 0.71618 0.08027 0.0
C494 C 0.56053 0.66808 0.09702 0.0
C495 C 0.55605 0.66764 0.0783 0.0
C496 C 0.56691 0.69224 0.10715 0.0
C497 C 0.61199 0.82817 0.15385 0.0
C498 C 0.62265 0.80648 0.17951 0.0
C499 C 0.6417 0.85764 0.17866 0.0
C500 C 0.62821 0.85498 0.16199 0.0
C501 C 0.63927 0.83348 0.18762 0.0
C502 C 0.60921 0.80386 0.16273 0.0
C503 C 0.59853 0.82639 0.1361 0.0
O504 O 0.58484 0.81021 0.08161 0.0
O505 O 0.54092 0.78984 0.09378 0.0
O506 O 0.57065 0.80697 0.13446 0.0
O507 O 0.6144 0.82789 0.12202 0.0
H508 H 0.56213 0.84969 0.10012 0.0
H509 H 0.55519 0.88905 0.08947 0.0
H510 H 0.53949 0.85427 0.03567 0.0
H511 H 0.54574 0.81479 0.04654 0.0
H512 H 0.55412 0.69231 0.05568 0.0
H513 H 0.56524 0.73477 0.07362 0.0
H514 H 0.55912 0.64967 0.1039 0.0
H515 H 0.57062 0.69204 0.1215 0.0
H516 H 0.62055 0.78748 0.18594 0.0
H517 H 0.65394 0.87868 0.18458 0.0
H518 H 0.63053 0.87398 0.15539 0.0
H519 H 0.59686 0.78295 0.15664 0.0
C520 C 0.30674 0.84171 0.07208 0.0
C521 C 0.33415 0.84446 0.07626 0.0
C522 C 0.35986 0.88917 0.059 0.0
C523 C 0.36032 0.86788 0.06984 0.0
C524 C 0.33243 0.88629 0.05474 0.0
C525 C 0.30629 0.86287 0.06112 0.0
U526 U 0.24255 0.79638 0.1056 0.0
O527 O 0.19513 0.77077 0.10004 0.0
O528 O 0.2187 0.74979 0.11049 0.0
C529 C 0.19379 0.7464 0.10417 0.0
C530 C 0.27867 0.8159 0.07773 0.0
C531 C 0.17635 0.72177 0.09199 0.0
C532 C 0.16654 0.67682 0.07817 0.0
C533 C 0.18526 0.70185 0.08769 0.0
C534 C 0.12995 0.69139 0.07668 0.0
C535 C 0.13837 0.67096 0.07284 0.0
C536 C 0.14862 0.71633 0.08616 0.0
C537 C 0.24378 0.82902 0.15273 0.0
C538 C 0.20844 0.80741 0.17735 0.0
C539 C 0.24707 0.85687 0.17921 0.0
C540 C 0.25774 0.85466 0.16238 0.0
C541 C 0.22209 0.83341 0.18688 0.0
C542 C 0.21913 0.80526 0.16036 0.0
C543 C 0.25534 0.82828 0.13466 0.0
O544 O 0.28001 0.79933 0.09033 0.0
O545 O 0.2556 0.81911 0.07949 0.0
O546 O 0.24108 0.83058 0.12082 0.0
O547 O 0.26393 0.80947 0.13215 0.0
H548 H 0.33545 0.82841 0.08441 0.0
H549 H 0.38098 0.86946 0.07358 0.0
H550 H 0.33109 0.90196 0.04622 0.0
H551 H 0.28562 0.86118 0.05726 0.0
H552 H 0.17374 0.66153 0.07563 0.0
H553 H 0.20632 0.70511 0.09211 0.0
H554 H 0.10869 0.68794 0.07256 0.0
H555 H 0.14095 0.73106 0.08938 0.0
H556 H 0.18906 0.78898 0.18279 0.0
H557 H 0.25843 0.87707 0.18624 0.0
H558 H 0.27688 0.87322 0.15679 0.0
H559 H 0.20798 0.78525 0.15313 0.0
C560 C 0.19019 0.47444 0.07068 0.0
C561 C 0.16354 0.4586 0.08005 0.0
C562 C 0.14002 0.47795 0.0605 0.0
C563 C 0.13873 0.4603 0.075 0.0
C564 C 0.16693 0.49408 0.05136 0.0
C565 C 0.19168 0.49229 0.05638 0.0
U566 U 0.23702 0.45527 0.10201 0.0
O567 O 0.26057 0.43219 0.09545 0.0
O568 O 0.2852 0.47673 0.10456 0.0
C569 C 0.28649 0.45438 0.09879 0.0
C570 C 0.21627 0.47183 0.07501 0.0
C571 C 0.31087 0.45933 0.08648 0.0
C572 C 0.34877 0.48717 0.06401 0.0
C573 C 0.32417 0.4825 0.0743 0.0
C574 C 0.34679 0.44559 0.07792 0.0
C575 C 0.36052 0.46877 0.06574 0.0
C576 C 0.32236 0.44093 0.08804 0.0
C577 C 0.2085 0.42505 0.15041 0.0
C578 C 0.19705 0.38353 0.16936 0.0
C579 C 0.21377 0.42953 0.18318 0.0
C580 C 0.21587 0.44178 0.16609 0.0
C581 C 0.20402 0.40011 0.18511 0.0
C582 C 0.19924 0.39577 0.15231 0.0
C583 C 0.20737 0.43741 0.13255 0.0
O584 O 0.23438 0.48951 0.08712 0.0
O585 O 0.21165 0.44566 0.07691 0.0
O586 O 0.20209 0.42108 0.11837 0.0
O587 O 0.22696 0.46435 0.12931 0.0
H588 H 0.16185 0.44473 0.09116 0.0
H589 H 0.11855 0.4479 0.08254 0.0
H590 H 0.16874 0.50764 0.04004 0.0
H591 H 0.21196 0.5046 0.0489 0.0
H592 H 0.35857 0.50516 0.05475 0.0
H593 H 0.31582 0.49713 0.07289 0.0
H594 H 0.35542 0.43133 0.08014 0.0
H595 H 0.3128 0.42315 0.09749 0.0
H596 H 0.18889 0.36074 0.17017 0.0
H597 H 0.21964 0.44314 0.1949 0.0
H598 H 0.2227 0.4643 0.16518 0.0
H599 H 0.19284 0.38199 0.14065 0.0
C600 C 0.39274 0.87689 0.3171 0.0
C601 C 0.38168 0.8926 0.30829 0.0
C602 C 0.33903 0.8725 0.32852 0.0
C603 C 0.35516 0.89045 0.31395 0.0
C604 C 0.34999 0.85641 0.33707 0.0
C605 C 0.37655 0.85865 0.33144 0.0
U606 U 0.45797 0.89619 0.28445 0.0
O607 O 0.50547 0.91985 0.2901 0.0
O608 O 0.48442 0.87507 0.28149 0.0
C609 C 0.50874 0.89769 0.28685 0.0
C610 C 0.42156 0.88003 0.31218 0.0
C611 C 0.52838 0.89319 0.2991 0.0
C612 C 0.5381 0.8669 0.32249 0.0
C613 C 0.51812 0.87111 0.31209 0.0
C614 C 0.57854 0.90675 0.3071 0.0
C615 C 0.56867 0.88469 0.32011 0.0
C616 C 0.55872 0.91094 0.29685 0.0
C617 C 0.45658 0.92368 0.23598 0.0
C618 C 0.49519 0.93897 0.21326 0.0
C619 C 0.45259 0.94369 0.20727 0.0
C620 C 0.44113 0.93188 0.22427 0.0
C621 C 0.4799 0.94762 0.2015 0.0
C622 C 0.48366 0.92716 0.23032 0.0
C623 C 0.44418 0.91238 0.25411 0.0
O624 O 0.42132 0.86211 0.30016 0.0
O625 O 0.44329 0.90632 0.30973 0.0
O626 O 0.45713 0.92964 0.26769 0.0
O627 O 0.43701 0.88577 0.25768 0.0
H628 H 0.39369 0.90674 0.29716 0.0
H629 H 0.34722 0.90281 0.30682 0.0
H630 H 0.3384 0.84258 0.3484 0.0
H631 H 0.3847 0.8464 0.33849 0.0
H632 H 0.5296 0.84978 0.3324 0.0
H633 H 0.49477 0.85701 0.31406 0.0
H634 H 0.60174 0.92048 0.30441 0.0
H635 H 0.56721 0.92788 0.28679 0.0
H636 H 0.51608 0.94127 0.20929 0.0
H637 H 0.44032 0.95046 0.19888 0.0
H638 H 0.42025 0.92952 0.22838 0.0
H639 H 0.49598 0.92096 0.23914 0.0
C640 C 0.1313 0.51482 0.31929 0.0
C641 C 0.12385 0.49129 0.30814 0.0
C642 C 0.13893 0.46916 0.33151 0.0
C643 C 0.1276 0.46866 0.3142 0.0
C644 C 0.14589 0.49266 0.34269 0.0
C645 C 0.14212 0.51524 0.33662 0.0
U646 U 0.11156 0.55542 0.28403 0.0
O647 O 0.08944 0.5805 0.28827 0.0
O648 O 0.1345 0.60148 0.27773 0.0
C649 C 0.11294 0.60482 0.28388 0.0
C650 C 0.12836 0.53929 0.31309 0.0
C651 C 0.12082 0.62938 0.29603 0.0
C652 C 0.15719 0.6728 0.31113 0.0
C653 C 0.15002 0.64813 0.30121 0.0
C654 C 0.10607 0.66005 0.31137 0.0
C655 C 0.13536 0.67936 0.31607 0.0
C656 C 0.09895 0.63549 0.30142 0.0
C657 C 0.0818 0.52262 0.23733 0.0
C658 C 0.06598 0.54442 0.21438 0.0
C659 C 0.06236 0.49861 0.20879 0.0
C660 C 0.07417 0.49946 0.22583 0.0
C661 C 0.0579 0.52098 0.20283 0.0
C662 C 0.07782 0.54523 0.23147 0.0
C663 C 0.09316 0.52232 0.25548 0.0
O664 O 0.1465 0.55514 0.30021 0.0
O665 O 0.10142 0.53416 0.31061 0.0
O666 O 0.07599 0.51999 0.26904 0.0
O667 O 0.1209 0.54116 0.25834 0.0
H668 H 0.11533 0.49052 0.29474 0.0
H669 H 0.12161 0.45076 0.3053 0.0
H670 H 0.15499 0.494 0.35597 0.0
H671 H 0.14801 0.53326 0.34541 0.0
H672 H 0.18 0.68727 0.31435 0.0
H673 H 0.1675 0.6442 0.29721 0.0
H674 H 0.08859 0.66408 0.31518 0.0
H675 H 0.0763 0.62154 0.29758 0.0
H676 H 0.06323 0.5622 0.21022 0.0
H677 H 0.05603 0.48001 0.20048 0.0
H678 H 0.07699 0.48176 0.23013 0.0
H679 H 0.08364 0.56336 0.24015 0.0
C680 C 0.3915 0.5124 0.31584 0.0
C681 C 0.36389 0.50723 0.30979 0.0
C682 C 0.33874 0.46433 0.32878 0.0
C683 C 0.3379 0.48352 0.31616 0.0
C684 C 0.36634 0.46961 0.33487 0.0
C685 C 0.3923 0.49335 0.32855 0.0
U686 U 0.45545 0.55741 0.28226 0.0
O687 O 0.47809 0.60372 0.27619 0.0
O688 O 0.50268 0.5845 0.28774 0.0
C689 C 0.50346 0.6081 0.28229 0.0
C690 C 0.4193 0.53848 0.31012 0.0
C691 C 0.52103 0.63414 0.29314 0.0
C692 C 0.5361 0.65982 0.32164 0.0
C693 C 0.51752 0.63493 0.31188 0.0
C694 C 0.56147 0.6833 0.29405 0.0
C695 C 0.55863 0.68422 0.31286 0.0
C696 C 0.54293 0.65863 0.28436 0.0
C697 C 0.45509 0.52328 0.2359 0.0
C698 C 0.48924 0.54531 0.21075 0.0
C699 C 0.45317 0.49486 0.21003 0.0
C700 C 0.44245 0.49709 0.22684 0.0
C701 C 0.4769 0.51883 0.20178 0.0
C702 C 0.4785 0.5475 0.2277 0.0
C703 C 0.44334 0.52423 0.25386 0.0
O704 O 0.44279 0.53587 0.30878 0.0
O705 O 0.41764 0.55434 0.29714 0.0
O706 O 0.43387 0.54244 0.25593 0.0
O707 O 0.45804 0.5231 0.26785 0.0
H708 H 0.36228 0.52157 0.30019 0.0
H709 H 0.31712 0.48005 0.311 0.0
H710 H 0.36791 0.45562 0.34477 0.0
H711 H 0.41308 0.49696 0.33381 0.0
H712 H 0.53333 0.65971 0.33611 0.0
H713 H 0.50078 0.61625 0.31895 0.0
H714 H 0.57811 0.70176 0.28675 0.0
H715 H 0.54599 0.65856 0.26992 0.0
H716 H 0.50767 0.56417 0.20488 0.0
H717 H 0.44277 0.47425 0.20345 0.0
H718 H 0.42426 0.47816 0.23285 0.0
H719 H 0.48861 0.56795 0.23447 0.0
Gd720 Gd 0.52833 0.02553 0.04964 0.0
Gd721 Gd 0.50566 0.99318 1.00443 0.0
C722 C 0.41587 0.91363 0.99665 0.0
C723 C 0.42901 0.87753 0.98951 0.0
C724 C 0.46704 0.92668 0.9949 0.0
C725 C 0.44591 0.93422 0.99804 0.0
C726 C 0.45889 0.89842 0.99016 0.0
C727 C 0.40753 0.88511 0.99278 0.0
C728 C 0.39516 0.92248 0.99872 0.0
C729 C 0.40467 0.95139 1.00143 0.0
N730 N 0.45477 0.96201 1.00158 0.0
C731 C 0.43473 0.97104 1.00259 0.0
H732 H 0.44169 0.99326 1.00479 0.0
C733 C 0.51725 0.94193 0.99024 0.0
N734 N 0.49565 0.94744 0.9955 0.0
C735 C 0.51029 0.91419 0.98552 0.0
C736 C 0.481 0.89224 0.98571 0.0
H737 H 0.53993 0.95882 0.99022 0.0
H738 H 0.38456 0.86893 0.99184 0.0
H739 H 0.59272 0.02624 0.04855 0.0
H740 H 0.37187 0.90731 0.99783 0.0
H741 H 0.38886 0.95855 1.00272 0.0
H742 H 0.42229 0.85561 0.98607 0.0
H743 H 0.49363 0.05888 0.06484 0.0
H744 H 0.66198 0.11222 0.05627 0.0
H745 H 0.64544 0.06126 0.05062 0.0
H746 H 0.61074 0.16259 0.06974 0.0
H747 H 0.5275 0.90974 0.98178 0.0
H748 H 0.47565 0.87078 0.982 0.0
H749 H 0.64881 0.15002 0.0632 0.0
H750 H 0.50559 0.10744 0.07417 0.0
N751 N 0.5792 0.05703 0.0525 0.0
C752 C 0.63872 0.09691 0.05538 0.0
C753 C 0.62947 0.06816 0.05224 0.0
C754 C 0.61781 0.10539 0.0579 0.0
C755 C 0.58783 0.08462 0.05649 0.0
C756 C 0.59945 0.04832 0.0511 0.0
N757 N 0.53801 0.07081 0.05937 0.0
C758 C 0.56653 0.09174 0.06007 0.0
C759 C 0.52294 0.10335 0.07016 0.0
C760 C 0.55214 0.12549 0.07011 0.0
C761 C 0.51625 0.07589 0.06492 0.0
C762 C 0.57442 0.11976 0.06528 0.0
H763 H 0.55728 0.14674 0.0742 0.0
O764 O 0.50457 0.01406 0.07519 0.0
O765 O 0.49335 0.99095 0.0333 0.0
O766 O 0.49316 0.02752 1.0093 0.0
O767 O 0.52375 0.05735 0.032 0.0
O768 O 0.47972 0.0099 0.05193 0.0
O769 O 0.54242 0.00884 0.07191 0.0
O770 O 0.52908 1.0035 0.9788 0.0
O771 O 0.54052 0.02793 1.02071 0.0
O772 O 0.5414 0.99167 0.04447 0.0
O773 O 0.50964 0.96141 1.02243 0.0
O774 O 0.55436 0.00916 1.00208 0.0
O775 O 0.49152 0.00925 0.98183 0.0
C776 C 0.47083 0.9899 0.04012 0.0
C777 C 0.60422 0.14086 0.06596 0.0
C778 C 0.62589 0.13369 0.06224 0.0
C779 C 0.5223 1.00707 0.083 0.0
C780 C 0.53205 0.01825 0.10138 0.0
C781 C 0.55347 0.04697 0.10378 0.0
C782 C 0.51989 1.00026 0.11665 0.0
C783 C 0.52927 0.01095 0.13426 0.0
C784 C 0.56264 0.05775 0.12104 0.0
C785 C 0.5507 0.04002 0.13613 0.0
C786 C 0.50603 0.05221 1.01808 0.0
C787 C 0.56314 0.02927 1.01382 0.0
C788 C 0.51139 0.01035 0.97078 0.0
C789 C 0.50123 0.9983 0.95261 0.0
C790 C 0.48231 0.96882 0.95065 0.0
C791 C 0.5102 0.01616 0.93713 0.0
C792 C 0.49982 1.00451 0.91985 0.0
C793 C 0.4724 0.95716 0.93365 0.0
C794 C 0.48097 0.97478 0.91839 0.0
C795 C 0.5279 0.96671 0.03605 0.0
H796 H 0.56309 0.06109 0.0923 0.0
H797 H 0.50349 0.97798 0.11478 0.0
H798 H 0.57906 0.08003 0.12276 0.0
H799 H 0.558 0.04928 0.14934 0.0
H800 H 0.47513 0.95478 0.96226 0.0
H801 H 0.52463 0.03902 0.93856 0.0
H802 H 0.45787 0.93434 0.93229 0.0
H803 H 0.4729 0.96508 0.90536 0.0
Gd804 Gd 0.99471 0.4996 0.0498 0.0
Gd805 Gd 0.03606 0.51727 1.00696 0.0
C806 C 0.12065 0.51352 1.00123 0.0
C807 C 0.15703 0.56351 0.99618 0.0
C808 C 0.1055 0.54909 0.99985 0.0
C809 C 0.09855 0.52102 1.0022 0.0
C810 C 0.13472 0.57061 0.99641 0.0
C811 C 0.15 0.535 0.99861 0.0
C812 C 0.11249 0.48461 1.00251 0.0
C813 C 0.08284 0.46398 1.00405 0.0
N814 N 0.06995 0.50087 1.00464 0.0
C815 C 0.06173 0.4725 1.00484 0.0
H816 H 0.03898 0.45624 1.00616 0.0
C817 C 0.08867 0.58196 0.99576 0.0
N818 N 0.0834 0.55512 1.00007 0.0
C819 C 0.11729 0.60408 0.99233 0.0
C820 C 0.14049 0.59847 0.99287 0.0
H821 H 0.07085 0.58647 0.99546 0.0
H822 H 0.16732 0.52969 0.99804 0.0
H823 H 0.99048 0.55969 0.0513 0.0
H824 H 0.1288 0.47796 1.00192 0.0
H825 H 0.07622 0.44151 1.00472 0.0
H826 H 0.17966 0.57978 0.99373 0.0
H827 H 0.96113 0.43032 0.06111 0.0
H828 H 0.89997 0.5362 0.05434 0.0
H829 H 0.95239 0.57347 0.05252 0.0
H830 H 0.85075 0.43426 0.06166 0.0
H831 H 0.12144 0.62544 0.98931 0.0
H832 H 0.16264 0.61562 0.99017 0.0
H833 H 0.8621 0.48409 0.05754 0.0
H834 H 0.91074 0.39056 0.06688 0.0
N835 N 0.96003 0.51494 0.05179 0.0
C836 C 0.91662 0.53 0.05376 0.0
C837 C 0.94618 0.55109 0.0528 0.0
C838 C 0.90898 0.50118 0.05465 0.0
C839 C 0.93152 0.49429 0.05378 0.0
C840 C 0.96775 0.54315 0.05212 0.0
N841 N 0.94766 0.46092 0.05619 0.0
C842 C 0.92513 0.46635 0.05611 0.0
C843 C 0.91446 0.41175 0.06379 0.0
C844 C 0.89084 0.41673 0.06295 0.0
C845 C 0.94295 0.4343 0.06058 0.0
C846 C 0.89604 0.44438 0.05934 0.0
H847 H 0.8688 0.39925 0.0655 0.0
O848 O 1.00234 0.48527 0.07566 0.0
O849 O 0.03387 0.5041 0.03551 0.0
O850 O 1.00224 0.46971 1.00964 0.0
O851 O 0.96615 0.46568 0.02963 0.0
O852 O 1.01288 0.46949 0.05256 0.0
O853 O 1.00689 0.52728 0.07316 0.0
O854 O 0.02816 0.53185 0.98127 0.0
O855 O 0.997 0.51338 1.02128 0.0
O856 O 0.02883 0.54725 0.04748 0.0
O857 O 0.06452 0.55145 0.02697 0.0
O858 O 0.01959 0.54864 1.00483 0.0
O859 O 0.02204 0.48926 0.98373 0.0
C860 C 0.03522 0.48315 0.04204 0.0
C861 C 0.87329 0.45088 0.05937 0.0
C862 C 0.87975 0.47924 0.05701 0.0
C863 C 1.00752 0.5085 0.08402 0.0
C864 C 0.99335 0.50465 0.10175 0.0
C865 C 0.96335 0.49547 0.10301 0.0
C866 C 1.01003 0.51023 0.11761 0.0
C867 C 0.99684 0.50673 0.13474 0.0
C868 C 0.9501 0.49186 0.11986 0.0
C869 C 0.96661 0.49739 0.13559 0.0
C870 C 0.97507 0.45573 1.01621 0.0
C871 C 0.99699 0.53528 1.01518 0.0
C872 C 0.0218 0.50829 0.97293 0.0
C873 C 0.03524 0.51142 0.95503 0.0
C874 C 0.06507 0.52004 0.95338 0.0
C875 C 0.01801 0.50563 0.93941 0.0
C876 C 0.03047 0.50838 0.92213 0.0
C877 C 0.07761 0.5229 0.93637 0.0
C878 C 0.06054 0.51717 0.92087 0.0
C879 C 0.05576 0.5614 0.0405 0.0
H880 H 0.9502 0.4911 0.09099 0.0
H881 H 0.0333 0.5176 0.11656 0.0
H882 H 0.92688 0.48463 0.12074 0.0
H883 H 0.95553 0.49389 0.14845 0.0
H884 H 0.07863 0.52455 0.96522 0.0
H885 H 0.99487 0.49867 0.94077 0.0
H886 H 0.1007 0.5297 0.93518 0.0
H887 H 0.07107 0.52008 0.90787 0.0
Gd888 Gd 0.50779 0.5216 1.00612 0.0
Gd889 Gd 0.5283 0.5021 0.04937 0.0
C890 C 0.61539 0.50363 0.05656 0.0
C891 C 0.59926 0.45326 0.06117 0.0
C892 C 0.56351 0.4688 0.0569 0.0
C893 C 0.58585 0.49676 0.05502 0.0
C894 C 0.56988 0.44676 0.06038 0.0
C895 C 0.62199 0.48166 0.05924 0.0
C896 C 0.63735 0.53242 0.05583 0.0
C897 C 0.62951 0.55352 0.05429 0.0
N898 N 0.57862 0.51741 0.05259 0.0
C899 C 0.59988 0.54562 0.05294 0.0
H900 H 0.5943 0.56223 0.05166 0.0
C901 C 0.51261 0.43662 0.06001 0.0
N902 N 0.53545 0.46338 0.0562 0.0
C903 C 0.51777 0.41399 0.06344 0.0
C904 C 0.54653 0.41901 0.06342 0.0
H905 H 0.49032 0.43256 0.05993 0.0
H906 H 0.64456 0.48648 0.06028 0.0
H907 H 0.44198 0.46167 1.00286 0.0
H908 H 0.66032 0.5386 0.05688 0.0
H909 H 0.64628 0.57589 0.05406 0.0
H910 H 0.60462 0.43659 0.06367 0.0
H911 H 0.54596 0.59137 0.99624 0.0
H912 H 0.37595 0.48551 0.99867 0.0
H913 H 0.38996 0.4481 1.0005 0.0
H914 H 0.43177 0.58772 0.99333 0.0
H915 H 0.49958 0.39271 0.06606 0.0
H916 H 0.55049 0.40147 0.06613 0.0
H917 H 0.39177 0.53776 0.9962 0.0
H918 H 0.5368 0.63148 0.99073 0.0
N919 N 0.45755 0.50646 1.00297 0.0
C920 C 0.3989 0.49163 0.99975 0.0
C921 C 0.40673 0.47046 1.00071 0.0
C922 C 0.42086 0.52044 0.9995 0.0
C923 C 0.45038 0.52723 1.00101 0.0
C924 C 0.43634 0.4783 1.00205 0.0
N925 N 0.50082 0.56058 0.99986 0.0
C926 C 0.47277 0.55522 0.99934 0.0
C927 C 0.51858 0.61015 0.99319 0.0
C928 C 0.48985 0.60519 0.99338 0.0
C929 C 0.5237 0.5874 0.99625 0.0
C930 C 0.46646 0.57739 0.99622 0.0
H931 H 0.48593 0.62282 0.99095 0.0
O932 O 0.53089 0.53713 0.98052 0.0
O933 O 0.54142 0.51642 1.02107 0.0
O934 O 0.54414 0.54978 0.04692 0.0
O935 O 0.51297 0.55457 0.02672 0.0
O936 O 0.55694 0.55163 1.00443 0.0
O937 O 0.49393 0.49413 0.98263 0.0
O938 O 0.50397 0.48733 0.07464 0.0
O939 O 0.49436 0.50693 0.03436 0.0
O940 O 0.49234 0.47391 1.0082 0.0
O941 O 0.52254 0.46859 0.02905 0.0
O942 O 0.47945 0.47124 0.05056 0.0
O943 O 0.54235 0.5294 0.07298 0.0
C944 C 0.56462 0.53757 1.01505 0.0
C945 C 0.43709 0.57096 0.99556 0.0
C946 C 0.41432 0.54252 0.99721 0.0
C947 C 0.51363 0.51357 0.97198 0.0
C948 C 0.50346 0.51659 0.95401 0.0
C949 C 0.48182 0.52437 0.95237 0.0
C950 C 0.51501 0.51105 0.93835 0.0
C951 C 0.50467 0.51289 0.9211 0.0
C952 C 0.47166 0.52646 0.93539 0.0
C953 C 0.48288 0.52072 0.91988 0.0
C954 C 0.53164 0.56403 0.04035 0.0
C955 C 0.4714 0.48506 0.04001 0.0
C956 C 0.52178 0.51042 0.0834 0.0
C957 C 0.53089 0.50626 0.10145 0.0
C958 C 0.55206 0.49787 0.10317 0.0
C959 C 0.51817 0.51038 0.11711 0.0
C960 C 0.52633 0.50572 0.13441 0.0
C961 C 0.56045 0.49355 0.12019 0.0
C962 C 0.54771 0.49736 0.13567 0.0
C963 C 0.50422 0.45933 1.01521 0.0
H964 H 0.47271 0.5287 0.96422 0.0
H965 H 0.53158 0.50481 0.93963 0.0
H966 H 0.45498 0.53252 0.93422 0.0
H967 H 0.47473 0.52278 0.90689 0.0
H968 H 0.5621 0.49467 0.09135 0.0
H969 H 0.5016 0.51661 0.1158 0.0
H970 H 0.57687 0.48714 0.1214 0.0
H971 H 0.55479 0.49397 0.1487 0.0
Gd972 Gd 0.19267 0.35639 0.3848 0.0
Gd973 Gd 0.17326 0.32736 0.33866 0.0
C974 C 0.08044 0.25256 0.33146 0.0
C975 C 0.0894 0.21402 0.32324 0.0
C976 C 0.13031 0.26161 0.32912 0.0
C977 C 0.11096 0.27126 0.33273 0.0
C978 C 0.1198 0.23312 0.32375 0.0
C979 C 0.06974 0.22371 0.32714 0.0
C980 C 0.06165 0.26359 0.33415 0.0
C981 C 0.07349 0.29275 0.33754 0.0
N982 N 0.12204 0.29927 0.33679 0.0
C983 C 0.10395 0.31042 0.33874 0.0
H984 H 0.1129 0.33285 0.34153 0.0
C985 C 0.17932 0.27351 0.32317 0.0
N986 N 0.15949 0.28067 0.32962 0.0
C987 C 0.17 0.24547 0.31775 0.0
C988 C 0.14013 0.22504 0.31835 0.0
H989 H 0.20242 0.28935 0.32272 0.0
H990 H 0.04635 0.20892 0.32631 0.0
H991 H 0.25408 0.34959 0.38867 0.0
H992 H 0.03805 0.24992 0.33332 0.0
H993 H 0.05917 0.30157 0.3394 0.0
H994 H 0.08087 0.19194 0.31937 0.0
H995 H 0.16799 0.40046 0.39946 0.0
H996 H 0.32924 0.43283 0.38619 0.0
H997 H 0.30717 0.38034 0.38795 0.0
H998 H 0.28941 0.49507 0.38979 0.0
H999 H 0.18582 0.23965 0.31312 0.0
H1000 H 0.13294 0.20336 0.31409 0.0
H1001 H 0.32236 0.47541 0.38631 0.0
H1002 H 0.18665 0.4521 0.40225 0.0
N1003 N 0.24469 0.38379 0.38641 0.0
C1004 C 0.30557 0.41934 0.38643 0.0
C1005 C 0.2932 0.38975 0.38741 0.0
C1006 C 0.28728 0.4312 0.3865 0.0
C1007 C 0.25652 0.41268 0.38676 0.0
C1008 C 0.26268 0.37224 0.38763 0.0
N1009 N 0.2087 0.40539 0.39011 0.0
C1010 C 0.23796 0.4238 0.38847 0.0
C1011 C 0.20128 0.44452 0.39808 0.0
C1012 C 0.23075 0.46389 0.39455 0.0
C1013 C 0.19079 0.41522 0.39634 0.0
C1014 C 0.24971 0.45362 0.39029 0.0
H1015 H 0.23892 0.4866 0.39607 0.0
O1016 O 0.16893 0.35549 0.4091 0.0
O1017 O 0.15584 0.32835 0.36597 0.0
O1018 O 0.16823 0.36625 0.34093 0.0
O1019 O 0.16775 0.37611 0.37144 0.0
O1020 O 0.15491 0.31305 0.39177 0.0
O1021 O 0.20431 0.34585 0.41066 0.0
O1022 O 0.1984 0.33847 0.31361 0.0
O1023 O 0.20698 0.36186 0.35591 0.0
O1024 O 0.20601 0.32282 0.38009 0.0
O1025 O 0.17895 0.29537 0.35554 0.0
O1026 O 0.22153 0.34189 0.33836 0.0
O1027 O 0.15859 0.34047 0.31485 0.0
C1028 C 0.14166 0.3073 0.37663 0.0
C1029 C 0.2801 0.47213 0.38876 0.0
C1030 C 0.29886 0.46093 0.38685 0.0
C1031 C 0.18428 0.34836 0.41954 0.0
C1032 C 0.19247 0.36163 0.43752 0.0
C1033 C 0.21064 0.39123 0.43928 0.0
C1034 C 0.18235 0.34422 0.45316 0.0
C1035 C 0.19022 0.35631 0.47055 0.0
C1036 C 0.2183 0.40342 0.45636 0.0
C1037 C 0.20819 0.38624 0.47184 0.0
C1038 C 0.16466 0.3805 0.35416 0.0
C1039 C 0.22976 0.36258 0.34966 0.0
C1040 C 0.18009 0.34338 0.30466 0.0
C1041 C 0.17242 0.33135 0.28631 0.0
C1042 C 0.15505 0.30174 0.28395 0.0
C1043 C 0.1828 0.34947 0.27097 0.0
C1044 C 0.17632 0.33788 0.25342 0.0
C1045 C 0.1485 0.29019 0.26669 0.0
C1046 C 0.1591 0.30802 0.25155 0.0
C1047 C 0.19496 0.29934 0.37017 0.0
H1048 H 0.21893 0.4049 0.42749 0.0
H1049 H 0.16875 0.32126 0.45171 0.0
H1050 H 0.23215 0.42636 0.45763 0.0
H1051 H 0.21421 0.39654 0.48485 0.0
H1052 H 0.14652 0.2875 0.29542 0.0
H1053 H 0.19621 0.3724 0.2727 0.0
H1054 H 0.13508 0.26728 0.26502 0.0
H1055 H 0.15339 0.29842 0.23832 0.0
Gd1056 Gd 0.66004 0.83391 0.38265 0.0
Gd1057 Gd 0.70206 0.85184 0.34006 0.0
C1058 C 0.78687 0.84834 0.33512 0.0
C1059 C 0.82326 0.89839 0.33028 0.0
C1060 C 0.77165 0.88385 0.33355 0.0
C1061 C 0.76471 0.85578 0.3359 0.0
C1062 C 0.80091 0.90543 0.3303 0.0
C1063 C 0.81626 0.86988 0.33272 0.0
C1064 C 0.77874 0.81943 0.33633 0.0
C1065 C 0.74907 0.79875 0.3376 0.0
N1066 N 0.73608 0.83556 0.33809 0.0
C1067 C 0.7279 0.8072 0.33821 0.0
H1068 H 0.70512 0.79091 0.33931 0.0
C1069 C 0.75477 0.91664 0.32916 0.0
N1070 N 0.7495 0.88982 0.33354 0.0
C1071 C 0.78344 0.93881 0.32592 0.0
C1072 C 0.80668 0.93328 0.32671 0.0
H1073 H 0.73691 0.92108 0.32867 0.0
H1074 H 0.83362 0.86462 0.33229 0.0
H1075 H 0.65573 0.894 0.38391 0.0
H1076 H 0.79509 0.81283 0.33587 0.0
H1077 H 0.74248 0.77628 0.3382 0.0
H1078 H 0.84593 0.91471 0.32799 0.0
H1079 H 0.6264 0.76467 0.39402 0.0
H1080 H 0.5652 0.87046 0.38663 0.0
H1081 H 0.61762 0.90775 0.38491 0.0
H1082 H 0.51599 0.76855 0.39411 0.0
H1083 H 0.78759 0.96016 0.32285 0.0
H1084 H 0.82886 0.95047 0.32415 0.0
H1085 H 0.52734 0.81835 0.38987 0.0
H1086 H 0.57599 0.7249 0.39969 0.0
N1087 N 0.62532 0.84924 0.38444 0.0
C1088 C 0.58186 0.86426 0.38616 0.0
C1089 C 0.61142 0.88537 0.38524 0.0
C1090 C 0.57424 0.83546 0.38713 0.0
C1091 C 0.5968 0.82858 0.38637 0.0
C1092 C 0.63301 0.87744 0.38469 0.0
N1093 N 0.61295 0.79525 0.38897 0.0
C1094 C 0.59041 0.80066 0.38879 0.0
C1095 C 0.57972 0.74609 0.39657 0.0
C1096 C 0.5561 0.75105 0.39562 0.0
C1097 C 0.60822 0.76864 0.39341 0.0
C1098 C 0.56131 0.77869 0.39196 0.0
H1099 H 0.53404 0.73356 0.39813 0.0
O1100 O 0.66742 0.8196 0.4086 0.0
O1101 O 0.6994 0.83846 0.36859 0.0
O1102 O 0.66809 0.80424 0.34247 0.0
O1103 O 0.63182 0.79997 0.36242 0.0
O1104 O 0.67813 0.80375 0.38555 0.0
O1105 O 0.67229 0.86172 0.40593 0.0
O1106 O 0.69476 0.8666 0.31425 0.0
O1107 O 0.6627 0.84768 0.3541 0.0
O1108 O 0.69398 0.88156 0.38036 0.0
O1109 O 0.73016 0.88597 0.36022 0.0
O1110 O 0.68533 0.88299 0.33769 0.0
O1111 O 0.68882 0.82408 0.31672 0.0
C1112 C 0.70062 0.81746 0.37515 0.0
C1113 C 0.53855 0.78517 0.39187 0.0
C1114 C 0.545 0.81352 0.38944 0.0
C1115 C 0.67272 0.84293 0.41688 0.0
C1116 C 0.65848 0.83929 0.43457 0.0
C1117 C 0.6289 0.8318 0.43571 0.0
C1118 C 0.67463 0.84322 0.4505 0.0
C1119 C 0.66121 0.83947 0.46756 0.0
C1120 C 0.61553 0.82827 0.45251 0.0
C1121 C 0.63147 0.83204 0.46831 0.0
C1122 C 0.6409 0.79013 0.34902 0.0
C1123 C 0.6626 0.8695 0.34792 0.0
C1124 C 0.68892 0.84322 0.30586 0.0
C1125 C 0.70328 0.84677 0.28823 0.0
C1126 C 0.73281 0.85402 0.2872 0.0
C1127 C 0.68733 0.84302 0.27225 0.0
C1128 C 0.70091 0.84674 0.25525 0.0
C1129 C 0.74633 0.85754 0.27046 0.0
C1130 C 0.7306 0.85398 0.25461 0.0
C1131 C 0.72108 0.89577 0.37365 0.0
H1132 H 0.61617 0.82874 0.42363 0.0
H1133 H 0.69743 0.84871 0.44958 0.0
H1134 H 0.59269 0.82259 0.4533 0.0
H1135 H 0.62054 0.82939 0.48114 0.0
H1136 H 0.74537 0.85691 0.29932 0.0
H1137 H 0.66457 0.83769 0.27307 0.0
H1138 H 0.76913 0.86305 0.26977 0.0
H1139 H 0.74163 0.85661 0.24181 0.0
Gd1140 Gd 0.17225 0.85117 0.33921 0.0
Gd1141 Gd 0.1931 0.83257 0.38268 0.0
C1142 C 0.2796 0.8329 0.38974 0.0
C1143 C 0.26281 0.78254 0.39506 0.0
C1144 C 0.22756 0.79867 0.39063 0.0
C1145 C 0.25016 0.82642 0.38836 0.0
C1146 C 0.23355 0.77646 0.3944 0.0
C1147 C 0.2858 0.81072 0.3927 0.0
C1148 C 0.30186 0.86153 0.38857 0.0
C1149 C 0.29443 0.88289 0.38674 0.0
N1150 N 0.24331 0.84728 0.38564 0.0
C1151 C 0.26489 0.87538 0.38556 0.0
H1152 H 0.25962 0.89218 0.38406 0.0
C1153 C 0.17659 0.76718 0.39421 0.0
N1154 N 0.19963 0.79364 0.39002 0.0
C1155 C 0.18138 0.7444 0.39796 0.0
C1156 C 0.20997 0.74897 0.39784 0.0
H1157 H 0.15443 0.76347 0.39419 0.0
H1158 H 0.30828 0.81523 0.39362 0.0
H1159 H 0.10565 0.79189 0.33748 0.0
H1160 H 0.32476 0.8674 0.38948 0.0
H1161 H 0.31145 0.90516 0.38616 0.0
H1162 H 0.26788 0.76572 0.39777 0.0
H1163 H 0.21142 0.92052 0.32828 0.0
H1164 H 0.04091 0.81732 0.33266 0.0
H1165 H 0.05387 0.77926 0.33546 0.0
H1166 H 0.09836 0.91913 0.32522 0.0
H1167 H 0.16303 0.72334 0.4009 0.0
H1168 H 0.21364 0.73131 0.40079 0.0
H1169 H 0.05773 0.86965 0.32901 0.0
H1170 H 0.20315 0.96101 0.32208 0.0
N1171 N 0.12216 0.83684 0.3364 0.0
C1172 C 0.06376 0.82303 0.33357 0.0
C1173 C 0.07099 0.8015 0.33509 0.0
C1174 C 0.08616 0.85164 0.33264 0.0
C1175 C 0.11553 0.8579 0.33398 0.0
C1176 C 0.10047 0.8088 0.33622 0.0
N1177 N 0.16615 0.89049 0.33235 0.0
C1178 C 0.13828 0.88565 0.33184 0.0
C1179 C 0.18471 0.93994 0.32487 0.0
C1180 C 0.15618 0.93554 0.32508 0.0
C1181 C 0.18931 0.91697 0.32833 0.0
C1182 C 0.13248 0.90805 0.32833 0.0
H1183 H 0.15266 0.95334 0.32233 0.0
O1184 O 0.1961 0.86492 0.31375 0.0
O1185 O 0.20584 0.84576 0.35414 0.0
O1186 O 0.2095 0.88028 0.37958 0.0
O1187 O 0.17835 0.88504 0.35932 0.0
O1188 O 0.22136 0.88079 0.33728 0.0
O1189 O 0.15654 0.8237 0.3157 0.0
O1190 O 0.16926 0.81893 0.40815 0.0
O1191 O 0.15938 0.83757 0.36765 0.0
O1192 O 0.15598 0.80342 0.34197 0.0
O1193 O 0.18617 0.7981 0.36283 0.0
O1194 O 0.14406 0.80258 0.38448 0.0
O1195 O 0.20804 0.86066 0.40591 0.0
C1196 C 0.22903 0.86674 0.34791 0.0
C1197 C 0.10328 0.90217 0.32775 0.0
C1198 C 0.08015 0.874 0.32991 0.0
C1199 C 0.17738 0.84206 0.30514 0.0
C1200 C 0.1685 0.84663 0.28712 0.0
C1201 C 0.14814 0.85605 0.28544 0.0
C1202 C 0.18086 0.84209 0.27145 0.0
C1203 C 0.17321 0.8474 0.25417 0.0
C1204 C 0.14024 0.86102 0.26843 0.0
C1205 C 0.15268 0.85684 0.25293 0.0
C1206 C 0.19716 0.89461 0.37288 0.0
C1207 C 0.13623 0.81639 0.37375 0.0
C1208 C 0.18742 0.84226 0.41657 0.0
C1209 C 0.1965 0.8387 0.43477 0.0
C1210 C 0.21645 0.82887 0.4369 0.0
C1211 C 0.18518 0.8452 0.45017 0.0
C1212 C 0.19384 0.84199 0.46768 0.0
C1213 C 0.22501 0.82551 0.4541 0.0
C1214 C 0.21385 0.83194 0.46935 0.0
C1215 C 0.16752 0.78866 0.34916 0.0
H1216 H 0.1384 0.85961 0.29728 0.0
H1217 H 0.19683 0.83507 0.27272 0.0
H1218 H 0.12447 0.86826 0.26725 0.0
H1219 H 0.14607 0.86082 0.23991 0.0
H1220 H 0.22536 0.82378 0.42527 0.0
H1221 H 0.16996 0.85305 0.44847 0.0
H1222 H 0.24031 0.81775 0.45564 0.0
H1223 H 0.22058 0.82857 0.48249 0.0
Gd1224 Gd 0.86107 0.69258 0.71692 0.0
Gd1225 Gd 0.83738 0.66001 0.67185 0.0
C1226 C 0.74786 0.57996 0.66443 0.0
C1227 C 0.76135 0.54432 0.65666 0.0
C1228 C 0.79913 0.59357 0.66206 0.0
C1229 C 0.77785 0.60077 0.66561 0.0
C1230 C 0.79116 0.56544 0.65711 0.0
C1231 C 0.73973 0.55156 0.66035 0.0
C1232 C 0.72697 0.58848 0.66693 0.0
C1233 C 0.73625 0.6173 0.66985 0.0
N1234 N 0.78651 0.62845 0.66936 0.0
C1235 C 0.76628 0.63717 0.67078 0.0
H1236 H 0.77308 0.65932 0.67316 0.0
C1237 C 0.84934 0.60935 0.65691 0.0
N1238 N 0.82766 0.61453 0.66252 0.0
C1239 C 0.84256 0.58175 0.65196 0.0
C1240 C 0.81337 0.5596 0.65228 0.0
H1241 H 0.87194 0.62638 0.65676 0.0
H1242 H 0.71679 0.5352 0.65958 0.0
H1243 H 0.92517 0.69276 0.71559 0.0
H1244 H 0.7037 0.57313 0.66622 0.0
H1245 H 0.72029 0.62421 0.67147 0.0
H1246 H 0.75478 0.5225 0.65307 0.0
H1247 H 0.82695 0.7266 0.73196 0.0
H1248 H 0.99497 0.77866 0.72277 0.0
H1249 H 0.978 0.72754 0.71737 0.0
H1250 H 0.94453 0.82987 0.73606 0.0
H1251 H 0.85984 0.57758 0.64793 0.0
H1252 H 0.80817 0.53825 0.64839 0.0
H1253 H 0.98226 0.81682 0.72954 0.0
H1254 H 0.83939 0.77547 0.74089 0.0
N1255 N 0.91202 0.72384 0.71949 0.0
C1256 C 0.97167 0.76345 0.72202 0.0
C1257 C 0.96217 0.73461 0.71902 0.0
C1258 C 0.95094 0.77217 0.72457 0.0
C1259 C 0.92089 0.75152 0.72334 0.0
C1260 C 0.9321 0.71492 0.71804 0.0
N1261 N 0.87119 0.73811 0.7264 0.0
C1262 C 0.89978 0.7589 0.72693 0.0
C1263 C 0.85659 0.77113 0.73692 0.0
C1264 C 0.88586 0.79312 0.73671 0.0
C1265 C 0.84962 0.7435 0.73192 0.0
C1266 C 0.90794 0.78707 0.73193 0.0
H1267 H 0.89121 0.8145 0.74062 0.0
O1268 O 0.83803 0.68182 0.7427 0.0
O1269 O 0.82574 0.65794 0.70083 0.0
O1270 O 0.82472 0.69417 0.67707 0.0
O1271 O 0.85647 0.72432 0.69921 0.0
O1272 O 0.81251 0.67694 0.71968 0.0
O1273 O 0.87539 0.67589 0.73905 0.0
O1274 O 0.8612 0.67201 0.64636 0.0
O1275 O 0.87265 0.69474 0.68792 0.0
O1276 O 0.87367 0.65836 0.71167 0.0
O1277 O 0.84191 0.62823 0.68954 0.0
O1278 O 0.88596 0.67569 0.66915 0.0
O1279 O 0.82194 0.67493 0.64929 0.0
C1280 C 0.80337 0.65686 0.70791 0.0
C1281 C 0.93781 0.80803 0.73243 0.0
C1282 C 0.95928 0.80059 0.72873 0.0
C1283 C 0.8557 0.67459 0.75033 0.0
C1284 C 0.866 0.68589 0.7686 0.0
C1285 C 0.8876 0.71459 0.77085 0.0
C1286 C 0.85417 0.66801 0.78395 0.0
C1287 C 0.86401 0.67878 0.80148 0.0
C1288 C 0.89725 0.72544 0.78805 0.0
C1289 C 0.8856 0.70782 0.80321 0.0
C1290 C 0.83813 0.71905 0.68562 0.0
C1291 C 0.89506 0.69582 0.68089 0.0
C1292 C 0.84255 0.67753 0.63832 0.0
C1293 C 0.83336 0.66553 0.62007 0.0
C1294 C 0.81409 0.63614 0.61796 0.0
C1295 C 0.8445 0.68324 0.6046 0.0
C1296 C 0.8368 0.67141 0.58714 0.0
C1297 C 0.80626 0.62439 0.6008 0.0
C1298 C 0.81756 0.64178 0.58552 0.0
C1299 C 0.86021 0.63347 0.70313 0.0
H1300 H 0.89696 0.72862 0.75931 0.0
H1301 H 0.83765 0.64575 0.78218 0.0
H1302 H 0.9138 0.74771 0.78965 0.0
H1303 H 0.89326 0.71716 0.81637 0.0
H1304 H 0.80515 0.62225 0.62958 0.0
H1305 H 0.8595 0.70597 0.60615 0.0
H1306 H 0.79137 0.60166 0.59933 0.0
H1307 H 0.81089 0.63204 0.57238 0.0
Gd1308 Gd 0.32823 0.16908 0.71557 0.0
Gd1309 Gd 0.37007 0.18562 0.67298 0.0
C1310 C 0.4545 0.18141 0.66799 0.0
C1311 C 0.49106 0.23126 0.66267 0.0
C1312 C 0.43957 0.21711 0.66613 0.0
C1313 C 0.43249 0.18905 0.66873 0.0
C1314 C 0.46884 0.23849 0.66266 0.0
C1315 C 0.4839 0.20276 0.66535 0.0
C1316 C 0.44621 0.15249 0.66949 0.0
C1317 C 0.41653 0.13198 0.67101 0.0
N1318 N 0.40385 0.16901 0.67116 0.0
C1319 C 0.3955 0.14062 0.67158 0.0
H1320 H 0.37272 0.12445 0.67289 0.0
C1321 C 0.42295 0.25005 0.66154 0.0
N1322 N 0.41755 0.22326 0.66612 0.0
C1323 C 0.45163 0.27203 0.65806 0.0
C1324 C 0.47475 0.26632 0.65885 0.0
H1325 H 0.4052 0.25465 0.66104 0.0
H1326 H 0.50116 0.19735 0.66495 0.0
H1327 H 0.32458 0.22952 0.71647 0.0
H1328 H 0.46245 0.14574 0.66907 0.0
H1329 H 0.40981 0.10949 0.67185 0.0
H1330 H 0.51373 0.24742 0.66021 0.0
H1331 H 0.29397 0.09989 0.72717 0.0
H1332 H 0.23425 0.20679 0.71897 0.0
H1333 H 0.28681 0.24373 0.71726 0.0
H1334 H 0.18419 0.1049 0.72675 0.0
H1335 H 0.45589 0.29336 0.65483 0.0
H1336 H 0.49694 0.28336 0.65611 0.0
H1337 H 0.19602 0.15482 0.72231 0.0
H1338 H 0.24337 0.06046 0.7328 0.0
N1339 N 0.29384 0.18484 0.71712 0.0
C1340 C 0.25077 0.20039 0.71859 0.0
C1341 C 0.2804 0.2213 0.71769 0.0
C1342 C 0.24288 0.17153 0.71968 0.0
C1343 C 0.26525 0.16438 0.71905 0.0
C1344 C 0.30179 0.21312 0.71725 0.0
N1345 N 0.28095 0.13073 0.72191 0.0
C1346 C 0.25859 0.1364 0.7216 0.0
C1347 C 0.24733 0.0817 0.72959 0.0
C1348 C 0.22389 0.08692 0.72852 0.0
C1349 C 0.27594 0.10406 0.72646 0.0
C1350 C 0.22938 0.11463 0.72475 0.0
H1351 H 0.20175 0.06958 0.73101 0.0
O1352 O 0.33511 0.15504 0.74174 0.0
O1353 O 0.36738 0.17288 0.70166 0.0
O1354 O 0.33599 0.13815 0.67595 0.0
O1355 O 0.29979 0.13508 0.69547 0.0
O1356 O 0.346 0.13872 0.719 0.0
O1357 O 0.34078 0.19742 0.73858 0.0
O1358 O 0.36268 0.19971 0.64697 0.0
O1359 O 0.33098 0.18232 0.6869 0.0
O1360 O 0.36251 0.21654 0.71286 0.0
O1361 O 0.39851 0.22004 0.69289 0.0
O1362 O 0.35377 0.21706 0.67009 0.0
O1363 O 0.35618 0.15702 0.65005 0.0
C1364 C 0.36843 0.15196 0.70851 0.0
C1365 C 0.20681 0.12137 0.72452 0.0
C1366 C 0.21355 0.14978 0.72198 0.0
C1367 C 0.3407 0.17865 0.74977 0.0
C1368 C 0.3263 0.17556 0.76732 0.0
C1369 C 0.29686 0.16865 0.76824 0.0
C1370 C 0.34215 0.17945 0.78336 0.0
C1371 C 0.3286 0.17625 0.80031 0.0
C1372 C 0.28336 0.16565 0.78493 0.0
C1373 C 0.29902 0.16938 0.80085 0.0
C1374 C 0.30876 0.12455 0.68243 0.0
C1375 C 0.33111 0.2041 0.68044 0.0
C1376 C 0.35632 0.1759 0.63894 0.0
C1377 C 0.37006 0.17854 0.62122 0.0
C1378 C 0.39975 0.1865 0.61985 0.0
C1379 C 0.3532 0.17292 0.60547 0.0
C1380 C 0.36589 0.17523 0.58832 0.0
C1381 C 0.41251 0.18887 0.60297 0.0
C1382 C 0.3958 0.18333 0.58732 0.0
C1383 C 0.38963 0.23032 0.70616 0.0
H1384 H 0.28436 0.16562 0.75607 0.0
H1385 H 0.36482 0.18446 0.78261 0.0
H1386 H 0.26064 0.16041 0.78555 0.0
H1387 H 0.28802 0.16716 0.8136 0.0
H1388 H 0.41303 0.19087 0.63181 0.0
H1389 H 0.33015 0.16645 0.60663 0.0
H1390 H 0.4355 0.19516 0.60199 0.0
H1391 H 0.40648 0.18585 0.57441 0.0
Gd1392 Gd 0.83886 0.18537 0.67276 0.0
Gd1393 Gd 0.8594 0.16626 0.71611 0.0
C1394 C 0.94663 0.16809 0.72327 0.0
C1395 C 0.93064 0.11775 0.7279 0.0
C1396 C 0.89478 0.13315 0.72367 0.0
C1397 C 0.91706 0.16114 0.72176 0.0
C1398 C 0.90123 0.11117 0.72714 0.0
C1399 C 0.95332 0.14617 0.72594 0.0
C1400 C 0.96854 0.1969 0.72248 0.0
C1401 C 0.96062 0.21794 0.72092 0.0
N1402 N 0.90976 0.18174 0.7193 0.0
C1403 C 0.93096 0.20997 0.7196 0.0
H1404 H 0.92532 0.22654 0.7183 0.0
C1405 C 0.84389 0.10085 0.72677 0.0
N1406 N 0.86668 0.12763 0.72296 0.0
C1407 C 0.84915 0.07828 0.7302 0.0
C1408 C 0.87794 0.08339 0.73018 0.0
H1409 H 0.82158 0.09674 0.72667 0.0
H1410 H 0.97591 0.15105 0.72694 0.0
H1411 H 0.77259 0.12568 0.67088 0.0
H1412 H 0.99152 0.20313 0.7235 0.0
H1413 H 0.97735 0.24033 0.72064 0.0
H1414 H 0.93607 0.10113 0.73039 0.0
H1415 H 0.87744 0.25479 0.66195 0.0
H1416 H 0.70717 0.15022 0.66603 0.0
H1417 H 0.72067 0.11253 0.66881 0.0
H1418 H 0.76375 0.2521 0.65872 0.0
H1419 H 0.831 0.05697 0.73283 0.0
H1420 H 0.88197 0.06589 0.73289 0.0
H1421 H 0.72347 0.20244 0.66243 0.0
H1422 H 0.86866 0.29496 0.65576 0.0
N1423 N 0.78866 0.17055 0.66986 0.0
C1424 C 0.73008 0.15616 0.66696 0.0
C1425 C 0.73762 0.13483 0.66848 0.0
C1426 C 0.75227 0.18486 0.66608 0.0
C1427 C 0.78173 0.19142 0.66745 0.0
C1428 C 0.76719 0.14243 0.66964 0.0
N1429 N 0.83225 0.2244 0.66593 0.0
C1430 C 0.80428 0.21926 0.66537 0.0
C1431 C 0.85035 0.27379 0.65851 0.0
C1432 C 0.82171 0.26909 0.65867 0.0
C1433 C 0.85524 0.251 0.66197 0.0
C1434 C 0.79819 0.24148 0.66187 0.0
H1435 H 0.81796 0.28675 0.65593 0.0
O1436 O 0.86282 0.1997 0.64735 0.0
O1437 O 0.87254 0.18021 0.68775 0.0
O1438 O 0.87511 0.21395 0.71361 0.0
O1439 O 0.84461 0.21903 0.69295 0.0
O1440 O 0.88794 0.21545 0.67111 0.0
O1441 O 0.82386 0.15802 0.64917 0.0
O1442 O 0.83563 0.15128 0.74156 0.0
O1443 O 0.82561 0.17126 0.70113 0.0
O1444 O 0.82302 0.13767 0.67522 0.0
O1445 O 0.85356 0.13257 0.69585 0.0
O1446 O 0.81043 0.13581 0.71752 0.0
O1447 O 0.8733 0.19379 0.7396 0.0
C1448 C 0.8957 0.20145 0.68172 0.0
C1449 C 0.7689 0.2353 0.66124 0.0
C1450 C 0.74597 0.20702 0.66336 0.0
C1451 C 0.84463 0.17666 0.63868 0.0
C1452 C 0.8358 0.1808 0.62054 0.0
C1453 C 0.81597 0.1908 0.61857 0.0
C1454 C 0.84722 0.17467 0.60502 0.0
C1455 C 0.83873 0.17838 0.58757 0.0
C1456 C 0.8076 0.19468 0.60143 0.0
C1457 C 0.81883 0.18858 0.58607 0.0
C1458 C 0.863 0.22839 0.70673 0.0
C1459 C 0.8025 0.14979 0.70702 0.0
C1460 C 0.85316 0.17464 0.75018 0.0
C1461 C 0.86284 0.17108 0.76821 0.0
C1462 C 0.88481 0.16374 0.76983 0.0
C1463 C 0.85005 0.17494 0.78393 0.0
C1464 C 0.85898 0.17112 0.80121 0.0
C1465 C 0.89395 0.16024 0.78682 0.0
C1466 C 0.8812 0.16386 0.80236 0.0
C1467 C 0.83511 0.1232 0.68208 0.0
H1468 H 0.80698 0.19562 0.63028 0.0
H1469 H 0.86237 0.1667 0.60659 0.0
H1470 H 0.79238 0.20256 0.60001 0.0
H1471 H 0.81222 0.19231 0.57299 0.0
H1472 H 0.89492 0.16076 0.75797 0.0
H1473 H 0.83287 0.18037 0.78269 0.0
H1474 H 0.91102 0.15468 0.78795 0.0
H1475 H 0.88896 0.16119 0.81535 0.0
C1476 C 0.3909 0.94209 0.05262 0.0
C1477 C 0.38781 0.91463 0.05258 0.0
H1478 H 0.41948 0.98716 0.04854 0.0
C1479 C 0.41197 0.91198 0.04698 0.0
H1480 H 0.37302 0.94512 0.05704 0.0
C1481 C 0.43867 0.93622 0.04208 0.0
C1482 C 0.44179 0.96364 0.04254 0.0
H1483 H 0.41036 0.89119 0.04655 0.0
H1484 H 0.45708 0.93352 0.03847 0.0
C1485 C 0.41757 0.96624 0.04779 0.0
C1486 C 0.08555 0.45447 0.0547 0.0
C1487 C 0.11339 0.47934 0.0549 0.0
H1488 H 0.03933 0.4363 0.0502 0.0
C1489 C 0.11542 0.50553 0.04992 0.0
H1490 H 0.08311 0.43387 0.0582 0.0
C1491 C 0.09024 0.50684 0.04527 0.0
C1492 C 0.0625 0.48194 0.04516 0.0
H1493 H 0.13637 0.52519 0.05009 0.0
H1494 H 0.09247 0.52745 0.04213 0.0
C1495 C 0.06047 0.45579 0.04997 0.0
C1496 C 0.52945 0.63105 0.0539 0.0
C1497 C 0.55074 0.64213 0.06759 0.0
H1498 H 0.50644 0.59762 0.03466 0.0
C1499 C 0.56659 0.62811 0.07144 0.0
H1500 H 0.51672 0.64122 0.05064 0.0
C1501 C 0.56077 0.60326 0.06231 0.0
C1502 C 0.53893 0.59163 0.049 0.0
H1503 H 0.58356 0.63631 0.08161 0.0
H1504 H 0.5733 0.59302 0.06591 0.0
C1505 C 0.52354 0.60603 0.04474 0.0
C1506 C 0.94365 0.39075 0.98564 0.0
C1507 C 0.9136 0.37625 0.99012 0.0
H1508 H 0.98631 0.42654 0.99031 0.0
C1509 C 0.90406 0.38747 1.00396 0.0
H1510 H 0.95196 0.38253 0.9753 0.0
C1511 C 0.92394 0.413 1.01266 0.0
C1512 C 0.95391 0.42777 1.00787 0.0
H1513 H 0.88108 0.37701 1.0077 0.0
H1514 H 0.91566 0.42144 1.02286 0.0
C1515 C 0.96346 0.41604 0.99436 0.0
C1516 C 0.62232 0.51584 1.00691 0.0
C1517 C 0.64738 0.54242 1.00289 0.0
H1518 H 0.57656 0.49332 1.01408 0.0
C1519 C 0.64504 0.56725 1.00407 0.0
H1520 H 0.62331 0.49628 1.00635 0.0
C1521 C 0.61836 0.56551 1.00866 0.0
C1522 C 0.59334 0.53899 1.01246 0.0
H1523 H 0.66364 0.58805 1.00086 0.0
H1524 H 0.61715 0.58497 1.00895 0.0
C1525 C 0.59559 0.51413 1.01159 0.0
C1526 C 0.47666 0.09266 0.99104 0.0
C1527 C 0.49201 0.12024 0.99849 0.0
H1528 H 0.46879 0.04972 0.99135 0.0
C1529 C 0.51167 0.12501 1.01269 0.0
H1530 H 0.46168 0.08818 0.97993 0.0
C1531 C 0.51605 0.10297 1.01911 0.0
C1532 C 0.50069 0.07542 1.01165 0.0
H1533 H 0.52361 0.14578 1.01898 0.0
H1534 H 0.53175 0.1077 0.02981 0.0
C1535 C 0.4809 0.07057 0.99754 0.0
C1536 C 0.6425 0.07816 1.00037 0.0
C1537 C 0.64534 0.10549 1.00115 0.0
H1538 H 0.61449 0.03292 1.0041 0.0
C1539 C 0.62127 0.10765 1.00756 0.0
H1540 H 0.66062 0.07561 0.99582 0.0
C1541 C 0.59483 0.08308 1.01241 0.0
C1542 C 0.59194 0.0558 1.01125 0.0
H1543 H 0.62247 0.12825 1.00821 0.0
H1544 H 0.57641 0.08544 1.01652 0.0
C1545 C 0.61614 0.05369 1.00528 0.0
C1546 C 0.95268 0.57016 1.00282 0.0
C1547 C 0.92534 0.5467 0.99802 0.0
H1548 H 0.99648 0.58468 1.012 0.0
C1549 C 0.92045 0.51892 1.00163 0.0
H1550 H 0.95713 0.59187 1.00086 0.0
C1551 C 0.94304 0.51486 1.00856 0.0
C1552 C 0.97093 0.53849 1.01198 0.0
H1553 H 0.89978 0.50028 0.99812 0.0
H1554 H 0.93922 0.4933 1.01021 0.0
C1555 C 0.97522 0.5661 1.00942 0.0
C1556 C 0.50375 0.39031 1.0036 0.0
C1557 C 0.48196 0.37868 0.99022 0.0
H1558 H 0.5279 0.42474 1.022 0.0
C1559 C 0.46746 0.39369 0.98542 0.0
H1560 H 0.51526 0.37929 1.00773 0.0
C1561 C 0.47449 0.41954 0.99368 0.0
C1562 C 0.4963 0.43127 1.00701 0.0
H1563 H 0.45096 0.38577 0.97495 0.0
H1564 H 0.46288 0.43042 0.98944 0.0
C1565 C 0.51081 0.41628 1.01191 0.0
C1566 C 0.08731 0.62891 0.06883 0.0
C1567 C 0.11728 0.64318 0.0641 0.0
H1568 H 0.04468 0.59237 0.06523 0.0
C1569 C 0.12677 0.63035 0.05129 0.0
H1570 H 0.07916 0.63775 0.07886 0.0
C1571 C 0.10687 0.60403 0.04348 0.0
C1572 C 0.07693 0.58978 0.0483 0.0
H1573 H 0.1496 0.64072 0.0472 0.0
H1574 H 0.11508 0.59472 0.03383 0.0
C1575 C 0.06748 0.60264 0.06107 0.0
C1576 C 0.3907 0.45048 0.05041 0.0
C1577 C 0.38758 0.47386 0.0557 0.0
H1578 H 0.41969 0.43595 0.04134 0.0
C1579 C 0.4116 0.50168 0.05287 0.0
H1580 H 0.37259 0.42878 0.05174 0.0
C1581 C 0.43857 0.50576 0.04629 0.0
C1582 C 0.44203 0.48211 0.0425 0.0
H1583 H 0.4102 0.52026 0.05676 0.0
H1584 H 0.45715 0.52728 0.0453 0.0
C1585 C 0.41763 0.45454 0.04422 0.0
C1586 C 0.51998 0.89319 0.04242 0.0
C1587 C 0.54206 0.89857 0.05507 0.0
H1588 H 0.49803 0.91013 0.0267 0.0
C1589 C 0.5596 0.92672 0.06131 0.0
H1590 H 0.50567 0.87174 0.03754 0.0
C1591 C 0.5552 0.94885 0.05505 0.0
C1592 C 0.53316 0.94343 0.04237 0.0
H1593 H 0.57703 0.93177 0.07088 0.0
H1594 H 0.56917 0.97024 0.06015 0.0
C1595 C 0.51558 0.91529 0.03618 0.0
C1596 C 0.07674 0.23285 0.37975 0.0
C1597 C 0.05407 0.23825 0.38464 0.0
H1598 H 0.1224 0.25074 0.37306 0.0
C1599 C 0.06003 0.26678 0.38425 0.0
H1600 H 0.07321 0.21129 0.38013 0.0
C1601 C 0.08819 0.2893 0.37994 0.0
C1602 C 0.11092 0.28384 0.37561 0.0
H1603 H 0.04313 0.2718 0.38777 0.0
H1604 H 0.09257 0.31113 0.3808 0.0
C1605 C 0.10492 0.25541 0.37557 0.0
C1606 C 0.75083 0.78875 0.38803 0.0
C1607 C 0.77862 0.81367 0.38846 0.0
H1608 H 0.70469 0.77055 0.38321 0.0
C1609 C 0.78065 0.83991 0.38363 0.0
H1610 H 0.7484 0.76812 0.39141 0.0
C1611 C 0.75553 0.84122 0.37886 0.0
C1612 C 0.72784 0.81627 0.37847 0.0
H1613 H 0.80157 0.8596 0.38399 0.0
H1614 H 0.75775 0.86185 0.37581 0.0
C1615 C 0.72579 0.79008 0.38318 0.0
C1616 C 0.23226 0.95879 0.40381 0.0
C1617 C 0.21637 0.97277 0.39995 0.0
H1618 H 0.23898 0.92372 0.39831 0.0
C1619 C 0.19517 0.96176 0.38622 0.0
H1620 H 0.24917 0.96698 0.41402 0.0
C1621 C 0.18931 0.93676 0.37705 0.0
C1622 C 0.20465 0.92234 0.38137 0.0
H1623 H 0.18244 0.97193 0.38295 0.0
H1624 H 0.17224 0.92837 0.36695 0.0
C1625 C 0.22648 0.93397 0.39468 0.0
C1626 C 0.57009 0.72163 0.33688 0.0
C1627 C 0.57967 0.71043 0.32304 0.0
H1628 H 0.58156 0.75563 0.35571 0.0
C1629 C 0.6097 0.72507 0.31851 0.0
H1630 H 0.54711 0.71107 0.34065 0.0
C1631 C 0.62945 0.75045 0.32718 0.0
C1632 C 0.61985 0.76212 0.34068 0.0
H1633 H 0.61804 0.71689 0.30816 0.0
H1634 H 0.65228 0.76106 0.32309 0.0
C1635 C 0.58989 0.74723 0.34552 0.0
C1636 C 0.28649 0.8446 0.33993 0.0
C1637 C 0.31114 0.87088 0.33483 0.0
H1638 H 0.24109 0.82248 0.34797 0.0
C1639 C 0.30877 0.89571 0.33545 0.0
H1640 H 0.28737 0.82499 0.3395 0.0
C1641 C 0.28238 0.89424 0.34046 0.0
C1642 C 0.25763 0.86798 0.34514 0.0
H1643 H 0.32734 0.91638 0.33195 0.0
H1644 H 0.28117 0.91371 0.34041 0.0
C1645 C 0.25996 0.84314 0.34487 0.0
C1646 C 0.15619 0.43421 0.32535 0.0
C1647 C 0.14467 0.44592 0.33753 0.0
H1648 H 0.1716 0.40491 0.32103 0.0
C1649 C 0.13941 0.43567 0.35546 0.0
H1650 H 0.16109 0.44187 0.31156 0.0
C1651 C 0.14557 0.41428 0.361 0.0
C1652 C 0.15728 0.40278 0.34877 0.0
H1653 H 0.1302 0.44395 0.36517 0.0
H1654 H 0.14084 0.40659 0.37477 0.0
C1655 C 0.16235 0.41299 0.33086 0.0
C1656 C 0.30962 0.41204 0.3374 0.0
C1657 C 0.31105 0.43866 0.33529 0.0
H1658 H 0.28285 0.36733 0.34368 0.0
C1659 C 0.2856 0.44025 0.33899 0.0
H1660 H 0.32854 0.4098 0.33444 0.0
C1661 C 0.25941 0.41582 0.34436 0.0
C1662 C 0.2581 0.38927 0.34632 0.0
H1663 H 0.28588 0.46038 0.33769 0.0
H1664 H 0.24003 0.41759 0.34666 0.0
C1665 C 0.28343 0.38765 0.34267 0.0
C1666 C 0.6179 0.9038 0.33513 0.0
C1667 C 0.59062 0.88016 0.33043 0.0
H1668 H 0.66175 0.9187 0.34434 0.0
C1669 C 0.58592 0.8525 0.3342 0.0
H1670 H 0.62221 0.92543 0.33302 0.0
C1671 C 0.60863 0.8487 0.34122 0.0
C1672 C 0.63645 0.87249 0.34457 0.0
H1673 H 0.56531 0.83374 0.33078 0.0
H1674 H 0.60494 0.82721 0.34301 0.0
C1675 C 0.64056 0.9 0.34182 0.0
C1676 C 0.12921 0.7223 0.32013 0.0
C1677 C 0.14318 0.70689 0.32518 0.0
H1678 H 0.1257 0.75971 0.32366 0.0
C1679 C 0.16502 0.71843 0.33853 0.0
H1680 H 0.1127 0.71445 0.30968 0.0
C1681 C 0.17274 0.74477 0.34653 0.0
C1682 C 0.15882 0.76019 0.34135 0.0
H1683 H 0.17611 0.70709 0.34286 0.0
H1684 H 0.1899 0.75318 0.35657 0.0
C1685 C 0.13688 0.74851 0.3281 0.0
C1686 C 0.75213 0.96127 0.40373 0.0
C1687 C 0.78222 0.97566 0.39935 0.0
H1688 H 0.70952 0.92535 0.39911 0.0
C1689 C 0.79189 0.96418 0.38574 0.0
H1690 H 0.74373 0.96968 0.41388 0.0
C1691 C 0.77209 0.93853 0.37717 0.0
C1692 C 0.74209 0.92385 0.38188 0.0
H1693 H 0.81491 0.97455 0.3821 0.0
H1694 H 0.78047 0.92991 0.36714 0.0
C1695 C 0.73241 0.9358 0.39515 0.0
C1696 C 0.07894 0.83761 0.38441 0.0
C1697 C 0.05438 0.81084 0.38882 0.0
H1698 H 0.12411 0.86052 0.37586 0.0
C1699 C 0.05649 0.78611 0.3862 0.0
H1700 H 0.07808 0.85709 0.38612 0.0
C1701 C 0.08273 0.78813 0.3803 0.0
C1702 C 0.10753 0.81484 0.37657 0.0
H1703 H 0.03832 0.76517 0.38964 0.0
H1704 H 0.08398 0.76874 0.37924 0.0
C1705 C 0.10525 0.83959 0.37835 0.0
C1706 C 0.18956 0.22647 0.3741 0.0
C1707 C 0.20795 0.23025 0.38886 0.0
H1708 H 0.17058 0.24477 0.35693 0.0
C1709 C 0.22233 0.25718 0.39721 0.0
H1710 H 0.17831 0.20619 0.36717 0.0
C1711 C 0.21841 0.2796 0.39102 0.0
C1712 C 0.19999 0.27579 0.37628 0.0
H1713 H 0.23623 0.26085 0.40881 0.0
H1714 H 0.22961 0.29983 0.398 0.0
C1715 C 0.1855 0.24884 0.36799 0.0
C1716 C 0.74484 0.57873 0.71443 0.0
C1717 C 0.72089 0.58116 0.72076 0.0
H1718 H 0.78971 0.6006 0.7055 0.0
C1719 C 0.72397 0.60858 0.72147 0.0
H1720 H 0.74347 0.55805 0.71385 0.0
C1721 C 0.75043 0.63291 0.71653 0.0
C1722 C 0.77448 0.63052 0.7106 0.0
H1723 H 0.70594 0.61132 0.72597 0.0
H1724 H 0.75227 0.65376 0.71764 0.0
C1725 C 0.77139 0.60314 0.70955 0.0
C1726 C 0.44833 0.17322 0.7164 0.0
C1727 C 0.44588 0.14687 0.72142 0.0
H1728 H 0.42594 0.19566 0.70856 0.0
C1729 C 0.41783 0.12227 0.72137 0.0
H1730 H 0.46946 0.19269 0.71647 0.0
C1731 C 0.39296 0.124 0.71667 0.0
C1732 C 0.39543 0.1503 0.71174 0.0
H1733 H 0.41507 0.10157 0.72493 0.0
H1734 H 0.37166 0.10471 0.71697 0.0
C1735 C 0.42338 0.17495 0.71178 0.0
C1736 C 0.86122 0.29591 0.71958 0.0
C1737 C 0.88187 0.30672 0.73363 0.0
H1738 H 0.83878 0.26264 0.70017 0.0
C1739 C 0.89724 0.29237 0.73795 0.0
H1740 H 0.84887 0.30633 0.71596 0.0
C1741 C 0.89154 0.26747 0.72893 0.0
C1742 C 0.8703 0.2561 0.71525 0.0
H1743 H 0.91372 0.30035 0.74843 0.0
H1744 H 0.90367 0.25697 0.73289 0.0
C1745 C 0.85542 0.27083 0.71054 0.0
C1746 C 0.27741 0.05662 0.65454 0.0
C1747 C 0.24727 0.04283 0.65877 0.0
H1748 H 0.32015 0.09276 0.65855 0.0
C1749 C 0.23758 0.05608 0.67114 0.0
H1750 H 0.28572 0.04745 0.64485 0.0
C1751 C 0.25746 0.08238 0.67898 0.0
C1752 C 0.28757 0.09616 0.67465 0.0
H1753 H 0.21461 0.04608 0.67484 0.0
H1754 H 0.24911 0.09205 0.68826 0.0
C1755 C 0.29722 0.08285 0.66233 0.0
C1756 C 0.95401 0.18034 0.67394 0.0
C1757 C 0.97865 0.20688 0.66924 0.0
H1758 H 0.90838 0.15761 0.68144 0.0
C1759 C 0.97592 0.23151 0.66999 0.0
H1760 H 0.95515 0.16086 0.67339 0.0
C1761 C 0.94924 0.2296 0.67477 0.0
C1762 C 0.92453 0.2031 0.67909 0.0
H1763 H 0.99445 0.25236 0.66678 0.0
H1764 H 0.94777 0.24893 0.67484 0.0
C1765 C 0.92719 0.17844 0.67864 0.0
C1766 C 0.8453 0.79239 0.67966 0.0
C1767 C 0.82356 0.78709 0.66677 0.0
H1768 H 0.86711 0.77545 0.69555 0.0
C1769 C 0.80645 0.75904 0.66028 0.0
H1770 H 0.85928 0.81377 0.68477 0.0
C1771 C 0.81096 0.73695 0.6665 0.0
C1772 C 0.8327 0.74229 0.6794 0.0
H1773 H 0.78928 0.75402 0.65052 0.0
H1774 H 0.79733 0.71566 0.66117 0.0
C1775 C 0.84982 0.77033 0.68587 0.0
C1776 C 0.97444 0.74393 0.66727 0.0
C1777 C 0.97761 0.77139 0.66799 0.0
H1778 H 0.94605 0.69878 0.67112 0.0
C1779 C 0.95376 0.77391 0.6744 0.0
H1780 H 0.9924 0.74111 0.66272 0.0
C1781 C 0.92719 0.74955 0.67932 0.0
C1782 C 0.92399 0.72214 0.67823 0.0
H1783 H 0.95522 0.79463 0.675 0.0
H1784 H 0.90893 0.75216 0.68343 0.0
C1785 C 0.94797 0.71966 0.67225 0.0
C1786 C 0.28743 0.23966 0.66796 0.0
C1787 C 0.25972 0.21633 0.66362 0.0
H1788 H 0.3314 0.25382 0.67665 0.0
C1789 C 0.25452 0.1885 0.66742 0.0
H1790 H 0.29217 0.26143 0.66582 0.0
C1791 C 0.27709 0.18421 0.67416 0.0
C1792 C 0.30526 0.20767 0.67721 0.0
H1793 H 0.23357 0.16996 0.66427 0.0
H1794 H 0.27297 0.16258 0.67601 0.0
C1795 C 0.30993 0.23536 0.67437 0.0
C1796 C 0.8365 0.05552 0.66907 0.0
C1797 C 0.81573 0.04478 0.65508 0.0
H1798 H 0.85921 0.08877 0.68848 0.0
C1799 C 0.80045 0.05925 0.65086 0.0
H1800 H 0.84878 0.045 0.67263 0.0
C1801 C 0.80632 0.08417 0.65992 0.0
C1802 C 0.82768 0.09547 0.67354 0.0
H1803 H 0.78387 0.05132 0.64044 0.0
H1804 H 0.79423 0.09473 0.65603 0.0
C1805 C 0.84249 0.08064 0.67816 0.0
C1806 C 0.46084 0.2986 0.71784 0.0
C1807 C 0.45147 0.31017 0.73155 0.0
H1808 H 0.44896 0.26421 0.69925 0.0
C1809 C 0.42147 0.29594 0.7361 0.0
H1810 H 0.4838 0.30889 0.71406 0.0
C1811 C 0.40151 0.27051 0.72759 0.0
C1812 C 0.41089 0.25842 0.71424 0.0
H1813 H 0.41333 0.30445 0.74636 0.0
H1814 H 0.37869 0.2602 0.7317 0.0
C1815 C 0.44082 0.27295 0.70935 0.0
C1816 C 0.7229 0.11911 0.72014 0.0
C1817 C 0.72068 0.14374 0.72298 0.0
H1818 H 0.75042 0.10197 0.71273 0.0
C1819 C 0.74506 0.17057 0.71844 0.0
H1820 H 0.70489 0.09812 0.72366 0.0
C1821 C 0.7713 0.17272 0.71207 0.0
C1822 C 0.77373 0.14808 0.71011 0.0
H1823 H 0.74412 0.18999 0.72027 0.0
H1824 H 0.79004 0.19371 0.70949 0.0
C1825 C 0.74908 0.12129 0.71393 0.0
C1826 C 0.89176 0.59329 0.72839 0.0
C1827 C 0.87462 0.56528 0.72184 0.0
H1828 H 0.90097 0.63671 0.72758 0.0
C1829 C 0.85288 0.56007 0.70897 0.0
H1830 H 0.90892 0.59822 0.73814 0.0
C1831 C 0.8484 0.58218 0.70283 0.0
C1832 C 0.86558 0.61019 0.70934 0.0
H1833 H 0.83886 0.53872 0.70384 0.0
H1834 H 0.83109 0.57712 0.69318 0.0
C1835 C 0.88731 0.61544 0.72222 0.0
C1836 C 0.47483 0.95739 0.16853 0.0
C1837 C 0.49278 0.96182 0.18368 0.0
H1838 H 0.47198 0.96916 0.14121 0.0
C1839 C 0.52308 0.98106 0.18187 0.0
H1840 H 0.45147 0.94242 0.16921 0.0
C1841 C 0.53488 0.99607 0.1657 0.0
C1842 C 0.51681 0.99251 0.15079 0.0
H1843 H 0.53771 0.98533 0.19315 0.0
H1844 H 0.55829 0.01086 0.165 0.0
C1845 C 0.48666 0.97249 0.15233 0.0
C1846 C 0.0232 0.52833 0.183 0.0
C1847 C 0.04388 0.51921 0.18497 0.0
H1848 H 0.9927 0.53208 0.16573 0.0
C1849 C 0.05008 0.50731 0.1699 0.0
H1850 H 0.01761 0.53737 0.19428 0.0
C1851 C 0.03543 0.50389 0.15352 0.0
C1852 C 1.01413 0.51226 0.15174 0.0
H1853 H 0.06617 0.50042 0.17078 0.0
H1854 H 0.04022 0.49392 0.14241 0.0
C1855 C 1.00859 0.52493 0.16664 0.0
C1856 C 0.4924 0.49166 0.18133 0.0
C1857 C 0.48913 0.51566 0.18426 0.0
H1858 H 0.50616 0.4696 0.16344 0.0
C1859 C 0.49754 0.53621 0.17034 0.0
H1860 H 0.48648 0.47551 0.19174 0.0
C1861 C 0.5089 0.53276 0.15397 0.0
C1862 C 0.51252 0.5089 0.15123 0.0
H1863 H 0.49511 0.55484 0.17206 0.0
H1864 H 0.51546 0.54908 0.14361 0.0
C1865 C 0.50394 0.48836 0.16511 0.0
C1866 C 0.9763 0.50774 0.8877 0.0
C1867 C 0.98149 0.49505 0.87265 0.0
H1868 H 0.98759 0.52203 0.91493 0.0
C1869 C 1.00184 0.4855 0.87439 0.0
H1870 H 0.96049 0.515 0.88699 0.0
C1871 C 0.01713 0.48921 0.89051 0.0
C1872 C 1.01257 0.50264 0.90539 0.0
H1873 H 1.00665 0.47584 0.86311 0.0
H1874 H 0.03273 0.4817 0.89126 0.0
C1875 C 0.99161 0.51148 0.90384 0.0
C1876 C 0.50804 0.48722 0.87389 0.0
C1877 C 0.53842 0.49915 0.87099 0.0
H1878 H 0.4737 0.48177 0.89186 0.0
C1879 C 0.55754 0.51426 0.88526 0.0
H1880 H 0.4925 0.47486 0.86348 0.0
C1881 C 0.54664 0.51799 0.9017 0.0
C1882 C 0.51634 0.50689 0.90428 0.0
H1883 H 0.58107 0.52406 0.88357 0.0
H1884 H 0.56203 0.53045 0.91215 0.0
C1885 C 0.4972 0.4911 0.89024 0.0
C1886 C 0.54363 0.05811 0.88234 0.0
C1887 C 0.52133 0.05358 0.87003 0.0
H1888 H 0.55437 0.04666 0.90794 0.0
C1889 C 0.49211 0.03369 0.87468 0.0
H1890 H 0.56634 0.07339 0.87924 0.0
C1891 C 0.48534 0.01849 0.89097 0.0
C1892 C 0.50752 0.02274 0.90323 0.0
H1893 H 0.47437 0.02937 0.86552 0.0
H1894 H 0.46259 1.00314 0.89393 0.0
C1895 C 0.53676 0.04303 0.89884 0.0
C1896 C 0.14084 0.29878 0.50478 0.0
C1897 C 0.1587 0.30646 0.52025 0.0
H1898 H 0.1364 0.30827 0.47723 0.0
C1899 C 0.18752 0.32973 0.51882 0.0
H1900 H 0.1187 0.28074 0.50515 0.0
C1901 C 0.19785 0.34527 0.50266 0.0
C1902 C 0.1797 0.3382 0.48737 0.0
H1903 H 0.20197 0.33658 0.53037 0.0
H1904 H 0.22014 0.36306 0.50224 0.0
C1905 C 0.15116 0.31441 0.48861 0.0
C1906 C 0.67927 0.8269 0.51522 0.0
C1907 C 0.70806 0.84974 0.51755 0.0
H1908 H 0.64227 0.8056 0.49774 0.0
C1909 C 0.72157 0.8691 0.50314 0.0
H1910 H 0.66802 0.81173 0.52604 0.0
C1911 C 0.70666 0.86562 0.48683 0.0
C1912 C 0.67777 0.84287 0.4846 0.0
H1913 H 0.7438 0.88679 0.5044 0.0
H1914 H 0.71758 0.88103 0.47606 0.0
C1915 C 0.66436 0.82354 0.49901 0.0
C1916 C 0.18846 0.86476 0.51552 0.0
C1917 C 0.15853 0.8563 0.51705 0.0
H1918 H 0.22308 0.86753 0.4989 0.0
C1919 C 0.1407 0.84477 0.50171 0.0
H1920 H 0.20294 0.87353 0.52698 0.0
C1921 C 0.15222 0.84091 0.48557 0.0
C1922 C 0.18194 0.84845 0.48428 0.0
H1923 H 0.11765 0.83841 0.5022 0.0
H1924 H 0.13758 0.83115 0.47429 0.0
C1925 C 0.19997 0.86094 0.49941 0.0
C1926 C 0.6834 0.85964 0.20756 0.0
C1927 C 0.65469 0.83675 0.2051 0.0
H1928 H 0.72017 0.88089 0.22522 0.0
C1929 C 0.64103 0.81728 0.21943 0.0
H1930 H 0.69474 0.87489 0.19679 0.0
C1931 C 0.65574 0.82069 0.23581 0.0
C1932 C 0.68457 0.84347 0.23816 0.0
H1933 H 0.61885 0.79955 0.21806 0.0
H1934 H 0.64473 0.8052 0.24652 0.0
C1935 C 0.69812 0.86293 0.22384 0.0
C1936 C 0.20821 0.86154 0.20759 0.0
C1937 C 0.20992 0.83674 0.20438 0.0
H1938 H 0.19571 0.88438 0.22569 0.0
C1939 C 0.20006 0.81557 0.21798 0.0
H1940 H 0.2153 0.87819 0.19741 0.0
C1941 C 0.18884 0.81921 0.23435 0.0
C1942 C 0.18678 0.84389 0.23737 0.0
H1943 H 0.20125 0.7963 0.21602 0.0
H1944 H 0.18118 0.80245 0.24448 0.0
C1945 C 0.19675 0.86502 0.22378 0.0
C1946 C 0.18932 0.39487 0.21816 0.0
C1947 C 0.19996 0.38635 0.20336 0.0
H1948 H 0.17373 0.38648 0.24557 0.0
C1949 C 0.20524 0.36343 0.20592 0.0
H1950 H 0.1847 0.41222 0.21678 0.0
C1951 C 0.19867 0.34857 0.22236 0.0
C1952 C 0.18686 0.35628 0.23686 0.0
H1953 H 0.21414 0.35662 0.19511 0.0
H1954 H 0.20239 0.33062 0.22364 0.0
C1955 C 0.18298 0.3801 0.23472 0.0
C1956 C 0.85845 0.6491 0.84909 0.0
C1957 C 0.82817 0.62988 0.85103 0.0
H1958 H 0.89345 0.67883 0.83207 0.0
C1959 C 0.81003 0.62538 0.83597 0.0
H1960 H 0.87321 0.65341 0.8603 0.0
C1961 C 0.82165 0.64043 0.81974 0.0
C1962 C 0.85178 0.66044 0.81806 0.0
H1963 H 0.78668 0.61041 0.83675 0.0
H1964 H 0.80682 0.63706 0.80871 0.0
C1965 C 0.87005 0.66405 0.83288 0.0
C1966 C 0.34586 0.16386 0.8482 0.0
C1967 C 0.37489 0.18626 0.85047 0.0
H1968 H 0.30881 0.14298 0.83072 0.0
C1969 C 0.38876 0.20533 0.83598 0.0
H1970 H 0.33435 0.14893 0.85909 0.0
C1971 C 0.37399 0.20196 0.81963 0.0
C1972 C 0.34489 0.17962 0.81745 0.0
H1973 H 0.41119 0.22267 0.8372 0.0
H1974 H 0.38521 0.21713 0.8088 0.0
C1975 C 0.33108 0.16061 0.83195 0.0
C1976 C 0.82698 0.15774 0.84868 0.0
C1977 C 0.82215 0.18086 0.85133 0.0
H1978 H 0.84174 0.13635 0.83095 0.0
C1979 C 0.8288 0.20053 0.83704 0.0
H1980 H 0.82246 0.1423 0.85937 0.0
C1981 C 0.84004 0.19711 0.8206 0.0
C1982 C 0.84523 0.17415 0.81813 0.0
H1983 H 0.82513 0.21845 0.83851 0.0
H1984 H 0.84526 0.21279 0.80997 0.0
C1985 C 0.83833 0.15445 0.83238 0.0
C1986 C 0.33741 0.15206 0.54061 0.0
C1987 C 0.31754 0.16217 0.53867 0.0
H1988 H 0.36776 0.14779 0.55773 0.0
C1989 C 0.31273 0.17547 0.55352 0.0
H1990 H 0.34189 0.14193 0.52947 0.0
C1991 C 0.32791 0.17919 0.5697 0.0
C1992 C 0.34832 0.16972 0.57148 0.0
H1993 H 0.29729 0.18316 0.55263 0.0
H1994 H 0.32417 0.19018 0.58065 0.0
C1995 C 0.35256 0.15577 0.55679 0.0
C1996 C 0.84395 0.15621 0.53953 0.0
C1997 C 0.87387 0.16467 0.53791 0.0
H1998 H 0.80942 0.15328 0.55631 0.0
C1999 C 0.8918 0.17613 0.55322 0.0
H2000 H 0.8294 0.14751 0.5281 0.0
C2001 C 0.88034 0.17979 0.56945 0.0
C2002 C 0.85062 0.17219 0.57085 0.0
H2003 H 0.91485 0.18251 0.55264 0.0
H2004 H 0.89503 0.18943 0.58073 0.0
C2005 C 0.83252 0.15987 0.55573 0.0
C2006 C 0.85413 0.72915 0.55155 0.0
C2007 C 0.86303 0.71896 0.53674 0.0
H2008 H 0.83907 0.72233 0.57907 0.0
C2009 C 0.86576 0.69452 0.53937 0.0
H2010 H 0.85149 0.74771 0.5501 0.0
C2011 C 0.85836 0.6799 0.55591 0.0
C2012 C 0.84825 0.68934 0.57043 0.0
H2013 H 0.87326 0.68636 0.52855 0.0
H2014 H 0.86011 0.6608 0.55726 0.0
C2015 C 0.84695 0.71458 0.5682 0.0
loop_
_geom_bond_atom_site_label_1
_geom_bond_atom_site_label_2
_geom_bond_distance
_geom_bond_site_symmetry_2
_ccdc_geom_bond_type
C0 C1 1.264 . S
C0 C5 1.479 . S
C0 C10 1.465 . S
C1 C0 1.264 . S
C1 C3 1.339 . S
C1 H28 0.931 . S
C2 C3 1.395 . S
C2 C4 1.320 . S
C3 C1 1.339 . S
C3 C2 1.395 . S
C3 H29 0.929 . S
C4 C2 1.320 . S
C4 C5 1.405 . S
C4 H30 0.930 . S
C5 C0 1.479 . S
C5 C4 1.405 . S
C5 H31 0.931 . S
U6 O7 2.454 . S
U6 O8 2.458 . S
U6 C9 2.984 . S
U6 C10 2.847 . S
U6 C23 2.882 . S
U6 O24 2.441 . S
U6 O25 2.420 . S
U6 O26 2.455 . S
U6 O27 2.449 . S
O7 U6 2.454 . S
O7 C9 1.353 . S
O8 U6 2.458 . S
O8 C9 1.286 . S
C9 U6 2.984 . S
C9 O7 1.353 . S
C9 O8 1.286 . S
C9 C11 1.363 . S
C10 C0 1.465 . S
C10 U6 2.847 . S
C10 O24 1.249 . S
C10 O25 1.202 . S
C11 C9 1.363 . S
C11 C13 1.408 . S
C11 C16 1.342 . S
C12 C13 1.310 . S
C12 C15 1.501 . S
C12 H32 0.932 . S
C13 C11 1.408 . S
C13 C12 1.310 . S
C13 H33 0.930 . S
C14 C15 1.480 . S
C14 C16 1.285 . S
C14 H34 0.929 1_545 S
C15 C12 1.501 . S
C15 C14 1.480 . S
C16 C11 1.342 . S
C16 C14 1.285 . S
C16 H35 0.930 . S
C17 C20 1.424 . S
C17 C22 1.245 . S
C17 C23 1.428 . S
C18 C21 1.260 . S
C18 C22 1.477 . S
C18 H36 0.932 . S
C19 C20 1.384 . S
C19 C21 1.479 . S
C19 H37 0.929 . S
C20 C17 1.424 . S
C20 C19 1.384 . S
C20 H38 0.928 . S
C21 C18 1.260 . S
C21 C19 1.479 . S
C22 C17 1.245 . S
C22 C18 1.477 . S
C22 H39 0.932 . S
C23 U6 2.882 . S
C23 C17 1.428 . S
C23 O26 1.301 . S
C23 O27 1.282 . S
O24 U6 2.441 . S
O24 C10 1.249 . S
O25 U6 2.420 . S
O25 C10 1.202 . S
O26 U6 2.455 . S
O26 C23 1.301 . S
O27 U6 2.449 . S
O27 C23 1.282 . S
H28 C1 0.931 . S
H29 C3 0.929 . S
H30 C4 0.930 . S
H31 C5 0.931 . S
H32 C12 0.932 . S
H33 C13 0.930 . S
H34 C14 0.929 1_565 S
H35 C16 0.930 . S
H36 C18 0.932 . S
H37 C19 0.929 . S
H38 C20 0.928 . S
H39 C22 0.932 . S
C40 C41 1.264 . S
C40 C45 1.479 . S
C40 C50 1.465 . S
C41 C40 1.264 . S
C41 C43 1.339 . S
C41 H68 0.931 . S
C42 C43 1.395 1_455 S
C42 C44 1.320 1_455 S
C43 C41 1.339 . S
C43 C42 1.395 1_655 S
C43 H69 0.929 1_655 S
C44 C42 1.320 1_655 S
C44 C45 1.405 . S
C44 H70 0.930 . S
C45 C40 1.479 . S
C45 C44 1.405 . S
C45 H71 0.931 . S
U46 O47 2.454 . S
U46 O48 2.458 . S
U46 C49 2.984 . S
U46 C50 2.847 . S
U46 C63 2.882 . S
U46 O64 2.441 . S
U46 O65 2.420 . S
U46 O66 2.455 . S
U46 O67 2.449 . S
O47 U46 2.454 . S
O47 C49 1.353 . S
O48 U46 2.458 . S
O48 C49 1.286 . S
C49 U46 2.984 . S
C49 O47 1.353 . S
C49 O48 1.286 . S
C49 C51 1.363 . S
C50 C40 1.465 . S
C50 U46 2.847 . S
C50 O64 1.249 . S
C50 O65 1.202 . S
C51 C49 1.363 . S
C51 C53 1.408 . S
C51 C56 1.342 . S
C52 C53 1.310 . S
C52 C55 1.461 1_545 S
C52 H72 0.932 . S
C53 C51 1.408 . S
C53 C52 1.310 . S
C53 H73 0.930 . S
C54 C55 1.474 1_545 S
C54 C56 1.285 . S
C54 H74 0.929 1_545 S
C55 C52 1.461 1_565 S
C55 C54 1.474 1_565 S
C56 C51 1.342 . S
C56 C54 1.285 . S
C56 H75 0.930 . S
C57 C60 1.424 . S
C57 C62 1.245 . S
C57 C63 1.428 . S
C58 C61 1.260 . S
C58 C62 1.477 . S
C58 H76 0.932 . S
C59 C60 1.384 . S
C59 C61 1.479 . S
C59 H77 0.929 . S
C60 C57 1.424 . S
C60 C59 1.384 . S
C60 H78 0.928 . S
C61 C58 1.260 . S
C61 C59 1.479 . S
C62 C57 1.245 . S
C62 C58 1.477 . S
C62 H79 0.932 . S
C63 U46 2.882 . S
C63 C57 1.428 . S
C63 O66 1.301 . S
C63 O67 1.282 . S
O64 U46 2.441 . S
O64 C50 1.249 . S
O65 U46 2.420 . S
O65 C50 1.202 . S
O66 U46 2.455 . S
O66 C63 1.301 . S
O67 U46 2.449 . S
O67 C63 1.282 . S
H68 C41 0.931 . S
H69 C43 0.929 1_455 S
H70 C44 0.930 . S
H71 C45 0.931 . S
H72 C52 0.932 . S
H73 C53 0.930 . S
H74 C54 0.929 1_565 S
H75 C56 0.930 . S
H76 C58 0.932 . S
H77 C59 0.929 . S
H78 C60 0.928 . S
H79 C62 0.932 . S
C80 C81 1.264 . S
C80 C85 1.479 . S
C80 C90 1.465 . S
C81 C80 1.264 . S
C81 C83 1.339 . S
C81 H108 0.931 . S
C82 C83 1.395 . S
C82 C84 1.320 . S
C83 C81 1.339 . S
C83 C82 1.395 . S
C83 H109 0.929 . S
C84 C82 1.320 . S
C84 C85 1.405 . S
C84 H110 0.930 . S
C85 C80 1.479 . S
C85 C84 1.405 . S
C85 H111 0.931 . S
U86 O87 2.454 . S
U86 O88 2.458 . S
U86 C89 2.984 . S
U86 C90 2.847 . S
U86 C103 2.882 . S
U86 O104 2.441 . S
U86 O105 2.420 . S
U86 O106 2.455 . S
U86 O107 2.449 . S
O87 U86 2.454 . S
O87 C89 1.353 . S
O88 U86 2.458 . S
O88 C89 1.286 . S
C89 U86 2.984 . S
C89 O87 1.353 . S
C89 O88 1.286 . S
C89 C91 1.363 . S
C90 C80 1.465 . S
C90 U86 2.847 . S
C90 O104 1.249 . S
C90 O105 1.202 . S
C91 C89 1.363 . S
C91 C93 1.408 . S
C91 C96 1.342 . S
C92 C93 1.310 . S
C92 C95 1.461 1_655 S
C92 H112 0.932 . S
C93 C91 1.408 . S
C93 C92 1.310 . S
C93 H113 0.930 . S
C94 C95 1.474 . S
C94 C96 1.285 1_455 S
C94 H114 0.929 . S
C95 C92 1.461 1_455 S
C95 C94 1.474 . S
C96 C91 1.342 . S
C96 C94 1.285 1_655 S
C96 H115 0.930 . S
C97 C100 1.424 . S
C97 C102 1.245 . S
C97 C103 1.428 . S
C98 C101 1.260 . S
C98 C102 1.477 . S
C98 H116 0.932 . S
C99 C100 1.384 . S
C99 C101 1.479 . S
C99 H117 0.929 . S
C100 C97 1.424 . S
C100 C99 1.384 . S
C100 H118 0.928 . S
C101 C98 1.260 . S
C101 C99 1.479 . S
C102 C97 1.245 . S
C102 C98 1.477 . S
C102 H119 0.932 . S
C103 U86 2.882 . S
C103 C97 1.428 . S
C103 O106 1.301 . S
C103 O107 1.282 . S
O104 U86 2.441 . S
O104 C90 1.249 . S
O105 U86 2.420 . S
O105 C90 1.202 . S
O106 U86 2.455 . S
O106 C103 1.301 . S
O107 U86 2.449 . S
O107 C103 1.282 . S
H108 C81 0.931 . S
H109 C83 0.929 . S
H110 C84 0.930 . S
H111 C85 0.931 . S
H112 C92 0.932 . S
H113 C93 0.930 . S
H114 C94 0.929 . S
H115 C96 0.930 . S
H116 C98 0.932 . S
H117 C99 0.929 . S
H118 C100 0.928 . S
H119 C102 0.932 . S
C120 C121 1.264 . S
C120 C125 1.479 . S
C120 C130 1.465 . S
C121 C120 1.264 . S
C121 C123 1.342 1_455 S
C121 H148 0.931 . S
C122 C123 1.394 . S
C122 C124 1.320 1_655 S
C123 C121 1.342 1_655 S
C123 C122 1.394 . S
C123 H149 0.925 . S
C124 C122 1.320 1_455 S
C124 C125 1.405 . S
C124 H150 0.930 . S
C125 C120 1.479 . S
C125 C124 1.405 . S
C125 H151 0.931 . S
U126 O127 2.454 . S
U126 O128 2.458 . S
U126 C129 2.984 . S
U126 C130 2.847 . S
U126 C143 2.882 . S
U126 O144 2.441 . S
U126 O145 2.420 . S
U126 O146 2.455 . S
U126 O147 2.449 . S
O127 U126 2.454 . S
O127 C129 1.353 . S
O128 U126 2.458 . S
O128 C129 1.286 . S
C129 U126 2.984 . S
C129 O127 1.353 . S
C129 O128 1.286 . S
C129 C131 1.363 . S
C130 C120 1.465 . S
C130 U126 2.847 . S
C130 O144 1.249 . S
C130 O145 1.202 . S
C131 C129 1.363 . S
C131 C133 1.408 . S
C131 C136 1.342 . S
C132 C133 1.310 . S
C132 C135 1.461 . S
C132 H152 0.932 . S
C133 C131 1.408 . S
C133 C132 1.310 . S
C133 H153 0.930 . S
C134 C135 1.474 . S
C134 C136 1.285 . S
C134 H154 0.929 . S
C135 C132 1.461 . S
C135 C134 1.474 . S
C136 C131 1.342 . S
C136 C134 1.285 . S
C136 H155 0.930 . S
C137 C140 1.424 . S
C137 C142 1.245 . S
C137 C143 1.428 . S
C138 C141 1.260 . S
C138 C142 1.477 . S
C138 H156 0.932 . S
C139 C140 1.384 . S
C139 C141 1.479 . S
C139 H157 0.929 . S
C140 C137 1.424 . S
C140 C139 1.384 . S
C140 H158 0.928 . S
C141 C138 1.260 . S
C141 C139 1.479 . S
C142 C137 1.245 . S
C142 C138 1.477 . S
C142 H159 0.932 . S
C143 U126 2.882 . S
C143 C137 1.428 . S
C143 O146 1.301 . S
C143 O147 1.282 . S
O144 U126 2.441 . S
O144 C130 1.249 . S
O145 U126 2.420 . S
O145 C130 1.202 . S
O146 U126 2.455 . S
O146 C143 1.301 . S
O147 U126 2.449 . S
O147 C143 1.282 . S
H148 C121 0.931 . S
H149 C123 0.925 . S
H150 C124 0.930 . S
H151 C125 0.931 . S
H152 C132 0.932 . S
H153 C133 0.930 . S
H154 C134 0.929 . S
H155 C136 0.930 . S
H156 C138 0.932 . S
H157 C139 0.929 . S
H158 C140 0.928 . S
H159 C142 0.932 . S
C160 C161 1.264 . S
C160 C165 1.479 . S
C160 C170 1.465 . S
C161 C160 1.264 . S
C161 C163 1.339 . S
C161 H188 0.931 . S
C162 C163 1.395 . S
C162 C164 1.320 . S
C163 C161 1.339 . S
C163 C162 1.395 . S
C163 H189 0.929 . S
C164 C162 1.320 . S
C164 C165 1.405 . S
C164 H190 0.930 . S
C165 C160 1.479 . S
C165 C164 1.405 . S
C165 H191 0.931 . S
U166 O167 2.454 . S
U166 O168 2.458 . S
U166 C169 2.984 . S
U166 C170 2.847 . S
U166 C183 2.882 . S
U166 O184 2.441 . S
U166 O185 2.420 . S
U166 O186 2.455 . S
U166 O187 2.449 . S
O167 U166 2.454 . S
O167 C169 1.353 . S
O168 U166 2.458 . S
O168 C169 1.286 . S
C169 U166 2.984 . S
C169 O167 1.353 . S
C169 O168 1.286 . S
C169 C171 1.363 . S
C170 C160 1.465 . S
C170 U166 2.847 . S
C170 O184 1.249 . S
C170 O185 1.202 . S
C171 C169 1.363 . S
C171 C173 1.408 . S
C171 C176 1.342 . S
C172 C173 1.310 . S
C172 C175 1.461 1_565 S
C172 H192 0.932 . S
C173 C171 1.408 . S
C173 C172 1.310 . S
C173 H193 0.930 . S
C174 C175 1.474 1_565 S
C174 C176 1.285 . S
C174 H194 0.929 1_565 S
C175 C172 1.461 1_545 S
C175 C174 1.474 1_545 S
C176 C171 1.342 . S
C176 C174 1.285 . S
C176 H195 0.930 . S
C177 C180 1.424 . S
C177 C182 1.245 . S
C177 C183 1.428 . S
C178 C181 1.260 . S
C178 C182 1.477 . S
C178 H196 0.932 . S
C179 C180 1.384 . S
C179 C181 1.479 . S
C179 H197 0.929 . S
C180 C177 1.424 . S
C180 C179 1.384 . S
C180 H198 0.928 . S
C181 C178 1.260 . S
C181 C179 1.479 . S
C182 C177 1.245 . S
C182 C178 1.477 . S
C182 H199 0.932 . S
C183 U166 2.882 . S
C183 C177 1.428 . S
C183 O186 1.301 . S
C183 O187 1.282 . S
O184 U166 2.441 . S
O184 C170 1.249 . S
O185 U166 2.420 . S
O185 C170 1.202 . S
O186 U166 2.455 . S
O186 C183 1.301 . S
O187 U166 2.449 . S
O187 C183 1.282 . S
H188 C161 0.931 . S
H189 C163 0.929 . S
H190 C164 0.930 . S
H191 C165 0.931 . S
H192 C172 0.932 . S
H193 C173 0.930 . S
H194 C174 0.929 1_545 S
H195 C176 0.930 . S
H196 C178 0.932 . S
H197 C179 0.929 . S
H198 C180 0.928 . S
H199 C182 0.932 . S
C200 C201 1.264 . S
C200 C205 1.479 . S
C200 C210 1.465 . S
C201 C200 1.264 . S
C201 C203 1.339 1_455 S
C201 H228 0.931 . S
C202 C203 1.395 . S
C202 C204 1.320 1_655 S
C203 C201 1.339 1_655 S
C203 C202 1.395 . S
C203 H229 0.929 . S
C204 C202 1.320 1_455 S
C204 C205 1.405 . S
C204 H230 0.930 . S
C205 C200 1.479 . S
C205 C204 1.405 . S
C205 H231 0.931 . S
U206 O207 2.454 . S
U206 O208 2.458 . S
U206 C209 2.984 . S
U206 C210 2.847 . S
U206 C223 2.882 . S
U206 O224 2.441 . S
U206 O225 2.420 . S
U206 O226 2.455 . S
U206 O227 2.449 . S
O207 U206 2.454 . S
O207 C209 1.353 . S
O208 U206 2.458 . S
O208 C209 1.286 . S
C209 U206 2.984 . S
C209 O207 1.353 . S
C209 O208 1.286 . S
C209 C211 1.363 . S
C210 C200 1.465 . S
C210 U206 2.847 . S
C210 O224 1.249 . S
C210 O225 1.202 . S
C211 C209 1.363 . S
C211 C213 1.408 . S
C211 C216 1.342 . S
C212 C213 1.310 . S
C212 C215 1.461 1_565 S
C212 H232 0.932 . S
C213 C211 1.408 . S
C213 C212 1.310 . S
C213 H233 0.930 . S
C214 C215 1.474 1_565 S
C214 C216 1.285 . S
C214 H234 0.929 1_565 S
C215 C212 1.461 1_545 S
C215 C214 1.474 1_545 S
C216 C211 1.342 . S
C216 C214 1.285 . S
C216 H235 0.930 . S
C217 C220 1.424 . S
C217 C222 1.245 . S
C217 C223 1.428 . S
C218 C221 1.260 . S
C218 C222 1.477 . S
C218 H236 0.932 . S
C219 C220 1.384 . S
C219 C221 1.479 . S
C219 H237 0.929 . S
C220 C217 1.424 . S
C220 C219 1.384 . S
C220 H238 0.928 . S
C221 C218 1.260 . S
C221 C219 1.479 . S
C222 C217 1.245 . S
C222 C218 1.477 . S
C222 H239 0.932 . S
C223 U206 2.882 . S
C223 C217 1.428 . S
C223 O226 1.301 . S
C223 O227 1.282 . S
O224 U206 2.441 . S
O224 C210 1.249 . S
O225 U206 2.420 . S
O225 C210 1.202 . S
O226 U206 2.455 . S
O226 C223 1.301 . S
O227 U206 2.449 . S
O227 C223 1.282 . S
H228 C201 0.931 . S
H229 C203 0.929 . S
H230 C204 0.930 . S
H231 C205 0.931 . S
H232 C212 0.932 . S
H233 C213 0.930 . S
H234 C214 0.929 1_545 S
H235 C216 0.930 . S
H236 C218 0.932 . S
H237 C219 0.929 . S
H238 C220 0.928 . S
H239 C222 0.932 . S
C240 C241 1.264 . S
C240 C245 1.479 . S
C240 C250 1.465 . S
C241 C240 1.264 . S
C241 C243 1.339 . S
C241 H268 0.931 . S
C242 C243 1.395 . S
C242 C244 1.320 . S
C243 C241 1.339 . S
C243 C242 1.395 . S
C243 H269 0.929 . S
C244 C242 1.320 . S
C244 C245 1.405 . S
C244 H270 0.930 . S
C245 C240 1.479 . S
C245 C244 1.405 . S
C245 H271 0.931 . S
U246 O247 2.454 . S
U246 O248 2.458 . S
U246 C249 2.984 . S
U246 C250 2.847 . S
U246 C263 2.882 . S
U246 O264 2.441 . S
U246 O265 2.420 . S
U246 O266 2.455 . S
U246 O267 2.449 . S
O247 U246 2.454 . S
O247 C249 1.353 . S
O248 U246 2.458 . S
O248 C249 1.286 . S
C249 U246 2.984 . S
C249 O247 1.353 . S
C249 O248 1.286 . S
C249 C251 1.363 . S
C250 C240 1.465 . S
C250 U246 2.847 . S
C250 O264 1.249 . S
C250 O265 1.202 . S
C251 C249 1.363 . S
C251 C253 1.408 . S
C251 C256 1.342 . S
C252 C253 1.310 . S
C252 C255 1.461 . S
C252 H272 0.932 . S
C253 C251 1.408 . S
C253 C252 1.310 . S
C253 H273 0.930 . S
C254 C255 1.474 . S
C254 C256 1.285 . S
C254 H274 0.929 . S
C255 C252 1.461 . S
C255 C254 1.474 . S
C256 C251 1.342 . S
C256 C254 1.285 . S
C256 H275 0.930 . S
C257 C260 1.424 . S
C257 C262 1.245 . S
C257 C263 1.428 . S
C258 C261 1.260 . S
C258 C262 1.477 . S
C258 H276 0.932 . S
C259 C260 1.384 . S
C259 C261 1.479 . S
C259 H277 0.929 . S
C260 C257 1.424 . S
C260 C259 1.384 . S
C260 H278 0.928 . S
C261 C258 1.260 . S
C261 C259 1.479 . S
C262 C257 1.245 . S
C262 C258 1.477 . S
C262 H279 0.932 . S
C263 U246 2.882 . S
C263 C257 1.428 . S
C263 O266 1.301 . S
C263 O267 1.282 . S
O264 U246 2.441 . S
O264 C250 1.249 . S
O265 U246 2.420 . S
O265 C250 1.202 . S
O266 U246 2.455 . S
O266 C263 1.301 . S
O267 U246 2.449 . S
O267 C263 1.282 . S
H268 C241 0.931 . S
H269 C243 0.929 . S
H270 C244 0.930 . S
H271 C245 0.931 . S
H272 C252 0.932 . S
H273 C253 0.930 . S
H274 C254 0.929 . S
H275 C256 0.930 . S
H276 C258 0.932 . S
H277 C259 0.929 . S
H278 C260 0.928 . S
H279 C262 0.932 . S
C280 C281 1.264 . S
C280 C285 1.479 . S
C280 C290 1.465 . S
C281 C280 1.264 . S
C281 C283 1.339 . S
C281 H308 0.931 . S
C282 C283 1.395 . S
C282 C284 1.320 . S
C283 C281 1.339 . S
C283 C282 1.395 . S
C283 H309 0.929 . S
C284 C282 1.320 . S
C284 C285 1.405 . S
C284 H310 0.930 . S
C285 C280 1.479 . S
C285 C284 1.405 . S
C285 H311 0.931 . S
U286 O287 2.454 . S
U286 O288 2.458 . S
U286 C289 2.984 . S
U286 C290 2.847 . S
U286 C303 2.882 . S
U286 O304 2.441 . S
U286 O305 2.420 . S
U286 O306 2.455 . S
U286 O307 2.449 . S
O287 U286 2.454 . S
O287 C289 1.353 . S
O288 U286 2.458 . S
O288 C289 1.286 . S
C289 U286 2.984 . S
C289 O287 1.353 . S
C289 O288 1.286 . S
C289 C291 1.363 . S
C290 C280 1.465 . S
C290 U286 2.847 . S
C290 O304 1.249 . S
C290 O305 1.202 . S
C291 C289 1.363 . S
C291 C293 1.408 . S
C291 C296 1.342 . S
C292 C293 1.310 . S
C292 C295 1.461 . S
C292 H312 0.932 . S
C293 C291 1.408 . S
C293 C292 1.310 . S
C293 H313 0.930 . S
C294 C295 1.474 . S
C294 C296 1.285 . S
C294 H314 0.929 . S
C295 C292 1.461 . S
C295 C294 1.474 . S
C296 C291 1.342 . S
C296 C294 1.285 . S
C296 H315 0.930 . S
C297 C300 1.424 . S
C297 C302 1.245 . S
C297 C303 1.428 . S
C298 C301 1.260 . S
C298 C302 1.477 . S
C298 H316 0.932 . S
C299 C300 1.384 . S
C299 C301 1.479 . S
C299 H317 0.929 . S
C300 C297 1.424 . S
C300 C299 1.384 . S
C300 H318 0.928 . S
C301 C298 1.260 . S
C301 C299 1.479 . S
C302 C297 1.245 . S
C302 C298 1.477 . S
C302 H319 0.932 . S
C303 U286 2.882 . S
C303 C297 1.428 . S
C303 O306 1.301 . S
C303 O307 1.282 . S
O304 U286 2.441 . S
O304 C290 1.249 . S
O305 U286 2.420 . S
O305 C290 1.202 . S
O306 U286 2.455 . S
O306 C303 1.301 . S
O307 U286 2.449 . S
O307 C303 1.282 . S
H308 C281 0.931 . S
H309 C283 0.929 . S
H310 C284 0.930 . S
H311 C285 0.931 . S
H312 C292 0.932 . S
H313 C293 0.930 . S
H314 C294 0.929 . S
H315 C296 0.930 . S
H316 C298 0.932 . S
H317 C299 0.929 . S
H318 C300 0.928 . S
H319 C302 0.932 . S
C320 C321 1.264 . S
C320 C325 1.479 . S
C320 C330 1.465 . S
C321 C320 1.264 . S
C321 C323 1.339 . S
C321 H348 0.931 . S
C322 C323 1.395 . S
C322 C324 1.320 . S
C323 C321 1.339 . S
C323 C322 1.395 . S
C323 H349 0.929 . S
C324 C322 1.320 . S
C324 C325 1.405 . S
C324 H350 0.930 . S
C325 C320 1.479 . S
C325 C324 1.405 . S
C325 H351 0.931 . S
U326 O327 2.454 . S
U326 O328 2.458 . S
U326 C329 2.984 . S
U326 C330 2.847 . S
U326 C343 2.882 . S
U326 O344 2.441 . S
U326 O345 2.420 . S
U326 O346 2.455 . S
U326 O347 2.449 . S
O327 U326 2.454 . S
O327 C329 1.353 . S
O328 U326 2.458 . S
O328 C329 1.286 . S
C329 U326 2.984 . S
C329 O327 1.353 . S
C329 O328 1.286 . S
C329 C331 1.363 . S
C330 C320 1.465 . S
C330 U326 2.847 . S
C330 O344 1.249 . S
C330 O345 1.202 . S
C331 C329 1.363 . S
C331 C333 1.408 . S
C331 C336 1.342 . S
C332 C333 1.310 . S
C332 C335 1.461 . S
C332 H352 0.932 . S
C333 C331 1.408 . S
C333 C332 1.310 . S
C333 H353 0.930 . S
C334 C335 1.474 . S
C334 C336 1.285 . S
C334 H354 0.929 . S
C335 C332 1.461 . S
C335 C334 1.474 . S
C336 C331 1.342 . S
C336 C334 1.285 . S
C336 H355 0.930 . S
C337 C340 1.424 . S
C337 C342 1.245 . S
C337 C343 1.428 . S
C338 C341 1.260 . S
C338 C342 1.477 . S
C338 H356 0.932 . S
C339 C340 1.384 . S
C339 C341 1.479 . S
C339 H357 0.929 . S
C340 C337 1.424 . S
C340 C339 1.384 . S
C340 H358 0.928 . S
C341 C338 1.260 . S
C341 C339 1.479 . S
C342 C337 1.245 . S
C342 C338 1.477 . S
C342 H359 0.932 . S
C343 U326 2.882 . S
C343 C337 1.428 . S
C343 O346 1.301 . S
C343 O347 1.282 . S
O344 U326 2.441 . S
O344 C330 1.249 . S
O345 U326 2.420 . S
O345 C330 1.202 . S
O346 U326 2.455 . S
O346 C343 1.301 . S
O347 U326 2.449 . S
O347 C343 1.282 . S
H348 C321 0.931 . S
H349 C323 0.929 . S
H350 C324 0.930 . S
H351 C325 0.931 . S
H352 C332 0.932 . S
H353 C333 0.930 . S
H354 C334 0.929 . S
H355 C336 0.930 . S
H356 C338 0.932 . S
H357 C339 0.929 . S
H358 C340 0.928 . S
H359 C342 0.932 . S
C360 C361 1.264 . S
C360 C365 1.479 . S
C360 C370 1.465 . S
C361 C360 1.264 . S
C361 C363 1.339 . S
C361 H388 0.931 . S
C362 C363 1.395 . S
C362 C364 1.320 . S
C363 C361 1.339 . S
C363 C362 1.395 . S
C363 H389 0.929 . S
C364 C362 1.320 . S
C364 C365 1.405 . S
C364 H390 0.930 . S
C365 C360 1.479 . S
C365 C364 1.405 . S
C365 H391 0.931 . S
U366 O367 2.454 . S
U366 O368 2.458 . S
U366 C369 2.984 . S
U366 C370 2.847 . S
U366 C383 2.882 . S
U366 O384 2.441 . S
U366 O385 2.420 . S
U366 O386 2.455 . S
U366 O387 2.449 . S
O367 U366 2.454 . S
O367 C369 1.353 . S
O368 U366 2.458 . S
O368 C369 1.286 . S
C369 U366 2.984 . S
C369 O367 1.353 . S
C369 O368 1.286 . S
C369 C371 1.363 . S
C370 C360 1.465 . S
C370 U366 2.847 . S
C370 O384 1.249 . S
C370 O385 1.202 . S
C371 C369 1.363 . S
C371 C373 1.408 . S
C371 C376 1.342 . S
C372 C373 1.310 . S
C372 C375 1.461 . S
C372 H392 0.932 . S
C373 C371 1.408 . S
C373 C372 1.310 . S
C373 H393 0.930 . S
C374 C375 1.474 . S
C374 C376 1.285 . S
C374 H394 0.929 . S
C375 C372 1.461 . S
C375 C374 1.474 . S
C376 C371 1.342 . S
C376 C374 1.285 . S
C376 H395 0.930 . S
C377 C380 1.424 . S
C377 C382 1.245 . S
C377 C383 1.428 . S
C378 C381 1.260 . S
C378 C382 1.477 . S
C378 H396 0.932 . S
C379 C380 1.384 . S
C379 C381 1.479 . S
C379 H397 0.929 . S
C380 C377 1.424 . S
C380 C379 1.384 . S
C380 H398 0.928 . S
C381 C378 1.260 . S
C381 C379 1.479 . S
C382 C377 1.245 . S
C382 C378 1.477 . S
C382 H399 0.932 . S
C383 U366 2.882 . S
C383 C377 1.428 . S
C383 O386 1.301 . S
C383 O387 1.282 . S
O384 U366 2.441 . S
O384 C370 1.249 . S
O385 U366 2.420 . S
O385 C370 1.202 . S
O386 U366 2.455 . S
O386 C383 1.301 . S
O387 U366 2.449 . S
O387 C383 1.282 . S
H388 C361 0.931 . S
H389 C363 0.929 . S
H390 C364 0.930 . S
H391 C365 0.931 . S
H392 C372 0.932 . S
H393 C373 0.930 . S
H394 C374 0.929 . S
H395 C376 0.930 . S
H396 C378 0.932 . S
H397 C379 0.929 . S
H398 C380 0.928 . S
H399 C382 0.932 . S
C400 C401 1.264 . S
C400 C405 1.479 . S
C400 C410 1.465 . S
C401 C400 1.264 . S
C401 C403 1.339 . S
C401 H428 0.931 . S
C402 C403 1.395 . S
C402 C404 1.320 . S
C403 C401 1.339 . S
C403 C402 1.395 . S
C403 H429 0.929 . S
C404 C402 1.320 . S
C404 C405 1.405 . S
C404 H430 0.930 . S
C405 C400 1.479 . S
C405 C404 1.405 . S
C405 H431 0.931 . S
U406 O407 2.454 . S
U406 O408 2.458 . S
U406 C409 2.984 . S
U406 C410 2.847 . S
U406 C423 2.882 . S
U406 O424 2.441 . S
U406 O425 2.420 . S
U406 O426 2.455 . S
U406 O427 2.449 . S
O407 U406 2.454 . S
O407 C409 1.353 . S
O408 U406 2.458 . S
O408 C409 1.286 . S
C409 U406 2.984 . S
C409 O407 1.353 . S
C409 O408 1.286 . S
C409 C411 1.363 . S
C410 C400 1.465 . S
C410 U406 2.847 . S
C410 O424 1.249 . S
C410 O425 1.202 . S
C411 C409 1.363 . S
C411 C413 1.408 . S
C411 C416 1.342 . S
C412 C413 1.310 . S
C412 C415 1.461 . S
C412 H432 0.932 . S
C413 C411 1.408 . S
C413 C412 1.310 . S
C413 H433 0.930 . S
C414 C415 1.474 . S
C414 C416 1.285 . S
C414 H434 0.929 . S
C415 C412 1.461 . S
C415 C414 1.474 . S
C416 C411 1.342 . S
C416 C414 1.285 . S
C416 H435 0.930 . S
C417 C420 1.424 . S
C417 C422 1.245 . S
C417 C423 1.428 . S
C418 C421 1.260 . S
C418 C422 1.477 . S
C418 H436 0.932 . S
C419 C420 1.384 . S
C419 C421 1.479 . S
C419 H437 0.929 . S
C420 C417 1.424 . S
C420 C419 1.384 . S
C420 H438 0.928 . S
C421 C418 1.260 . S
C421 C419 1.479 . S
C422 C417 1.245 . S
C422 C418 1.477 . S
C422 H439 0.932 . S
C423 U406 2.882 . S
C423 C417 1.428 . S
C423 O426 1.301 . S
C423 O427 1.282 . S
O424 U406 2.441 . S
O424 C410 1.249 . S
O425 U406 2.420 . S
O425 C410 1.202 . S
O426 U406 2.455 . S
O426 C423 1.301 . S
O427 U406 2.449 . S
O427 C423 1.282 . S
H428 C401 0.931 . S
H429 C403 0.929 . S
H430 C404 0.930 . S
H431 C405 0.931 . S
H432 C412 0.932 . S
H433 C413 0.930 . S
H434 C414 0.929 . S
H435 C416 0.930 . S
H436 C418 0.932 . S
H437 C419 0.929 . S
H438 C420 0.928 . S
H439 C422 0.932 . S
C440 C441 1.264 . S
C440 C445 1.479 . S
C440 C450 1.465 . S
C441 C440 1.264 . S
C441 C443 1.339 . S
C441 H468 0.931 . S
C442 C443 1.395 . S
C442 C444 1.320 . S
C443 C441 1.339 . S
C443 C442 1.395 . S
C443 H469 0.929 . S
C444 C442 1.320 . S
C444 C445 1.405 . S
C444 H470 0.930 . S
C445 C440 1.479 . S
C445 C444 1.405 . S
C445 H471 0.931 . S
U446 O447 2.454 . S
U446 O448 2.458 . S
U446 C449 2.984 . S
U446 C450 2.847 . S
U446 C463 2.882 . S
U446 O464 2.441 . S
U446 O465 2.420 . S
U446 O466 2.455 . S
U446 O467 2.449 . S
O447 U446 2.454 . S
O447 C449 1.353 . S
O448 U446 2.458 . S
O448 C449 1.286 . S
C449 U446 2.984 . S
C449 O447 1.353 . S
C449 O448 1.286 . S
C449 C451 1.363 . S
C450 C440 1.465 . S
C450 U446 2.847 . S
C450 O464 1.249 . S
C450 O465 1.202 . S
C451 C449 1.363 . S
C451 C453 1.408 . S
C451 C456 1.342 . S
C452 C453 1.310 . S
C452 C455 1.461 . S
C452 H472 0.932 . S
C453 C451 1.408 . S
C453 C452 1.310 . S
C453 H473 0.930 . S
C454 C455 1.474 . S
C454 C456 1.285 . S
C454 H474 0.929 . S
C455 C452 1.461 . S
C455 C454 1.474 . S
C456 C451 1.342 . S
C456 C454 1.285 . S
C456 H475 0.930 . S
C457 C460 1.424 . S
C457 C462 1.245 . S
C457 C463 1.428 . S
C458 C461 1.260 . S
C458 C462 1.477 . S
C458 H476 0.932 . S
C459 C460 1.384 . S
C459 C461 1.479 . S
C459 H477 0.929 . S
C460 C457 1.424 . S
C460 C459 1.384 . S
C460 H478 0.928 . S
C461 C458 1.260 . S
C461 C459 1.479 . S
C462 C457 1.245 . S
C462 C458 1.477 . S
C462 H479 0.932 . S
C463 U446 2.882 . S
C463 C457 1.428 . S
C463 O466 1.301 . S
C463 O467 1.282 . S
O464 U446 2.441 . S
O464 C450 1.249 . S
O465 U446 2.420 . S
O465 C450 1.202 . S
O466 U446 2.455 . S
O466 C463 1.301 . S
O467 U446 2.449 . S
O467 C463 1.282 . S
H468 C441 0.931 . S
H469 C443 0.929 . S
H470 C444 0.930 . S
H471 C445 0.931 . S
H472 C452 0.932 . S
H473 C453 0.930 . S
H474 C454 0.929 . S
H475 C456 0.930 . S
H476 C458 0.932 . S
H477 C459 0.929 . S
H478 C460 0.928 . S
H479 C462 0.932 . S
C480 C481 1.264 . S
C480 C485 1.479 . S
C480 C490 1.465 . S
C481 C480 1.264 . S
C481 C483 1.339 . S
C481 H508 0.931 . S
C482 C483 1.395 . S
C482 C484 1.320 . S
C483 C481 1.339 . S
C483 C482 1.395 . S
C483 H509 0.929 . S
C484 C482 1.320 . S
C484 C485 1.405 . S
C484 H510 0.930 . S
C485 C480 1.479 . S
C485 C484 1.405 . S
C485 H511 0.931 . S
U486 O487 2.454 . S
U486 O488 2.458 . S
U486 C489 2.984 . S
U486 C490 2.847 . S
U486 C503 2.882 . S
U486 O504 2.441 . S
U486 O505 2.420 . S
U486 O506 2.455 . S
U486 O507 2.449 . S
O487 U486 2.454 . S
O487 C489 1.353 . S
O488 U486 2.458 . S
O488 C489 1.286 . S
C489 U486 2.984 . S
C489 O487 1.353 . S
C489 O488 1.286 . S
C489 C491 1.363 . S
C490 C480 1.465 . S
C490 U486 2.847 . S
C490 O504 1.249 . S
C490 O505 1.202 . S
C491 C489 1.363 . S
C491 C493 1.408 . S
C491 C496 1.342 . S
C492 C493 1.310 . S
C492 C495 1.461 . S
C492 H512 0.932 . S
C493 C491 1.408 . S
C493 C492 1.310 . S
C493 H513 0.930 . S
C494 C495 1.474 . S
C494 C496 1.285 . S
C494 H514 0.929 . S
C495 C492 1.461 . S
C495 C494 1.474 . S
C496 C491 1.342 . S
C496 C494 1.285 . S
C496 H515 0.930 . S
C497 C500 1.424 . S
C497 C502 1.245 . S
C497 C503 1.428 . S
C498 C501 1.260 . S
C498 C502 1.477 . S
C498 H516 0.932 . S
C499 C500 1.384 . S
C499 C501 1.479 . S
C499 H517 0.929 . S
C500 C497 1.424 . S
C500 C499 1.384 . S
C500 H518 0.928 . S
C501 C498 1.260 . S
C501 C499 1.479 . S
C502 C497 1.245 . S
C502 C498 1.477 . S
C502 H519 0.932 . S
C503 U486 2.882 . S
C503 C497 1.428 . S
C503 O506 1.301 . S
C503 O507 1.282 . S
O504 U486 2.441 . S
O504 C490 1.249 . S
O505 U486 2.420 . S
O505 C490 1.202 . S
O506 U486 2.455 . S
O506 C503 1.301 . S
O507 U486 2.449 . S
O507 C503 1.282 . S
H508 C481 0.931 . S
H509 C483 0.929 . S
H510 C484 0.930 . S
H511 C485 0.931 . S
H512 C492 0.932 . S
H513 C493 0.930 . S
H514 C494 0.929 . S
H515 C496 0.930 . S
H516 C498 0.932 . S
H517 C499 0.929 . S
H518 C500 0.928 . S
H519 C502 0.932 . S
C520 C521 1.264 . S
C520 C525 1.479 . S
C520 C530 1.465 . S
C521 C520 1.264 . S
C521 C523 1.339 . S
C521 H548 0.931 . S
C522 C523 1.395 . S
C522 C524 1.320 . S
C523 C521 1.339 . S
C523 C522 1.395 . S
C523 H549 0.929 . S
C524 C522 1.320 . S
C524 C525 1.405 . S
C524 H550 0.930 . S
C525 C520 1.479 . S
C525 C524 1.405 . S
C525 H551 0.931 . S
U526 O527 2.454 . S
U526 O528 2.458 . S
U526 C529 2.984 . S
U526 C530 2.847 . S
U526 C543 2.882 . S
U526 O544 2.441 . S
U526 O545 2.420 . S
U526 O546 2.455 . S
U526 O547 2.449 . S
O527 U526 2.454 . S
O527 C529 1.353 . S
O528 U526 2.458 . S
O528 C529 1.286 . S
C529 U526 2.984 . S
C529 O527 1.353 . S
C529 O528 1.286 . S
C529 C531 1.363 . S
C530 C520 1.465 . S
C530 U526 2.847 . S
C530 O544 1.249 . S
C530 O545 1.202 . S
C531 C529 1.363 . S
C531 C533 1.408 . S
C531 C536 1.342 . S
C532 C533 1.310 . S
C532 C535 1.461 . S
C532 H552 0.932 . S
C533 C531 1.408 . S
C533 C532 1.310 . S
C533 H553 0.930 . S
C534 C535 1.474 . S
C534 C536 1.285 . S
C534 H554 0.929 . S
C535 C532 1.461 . S
C535 C534 1.474 . S
C536 C531 1.342 . S
C536 C534 1.285 . S
C536 H555 0.930 . S
C537 C540 1.424 . S
C537 C542 1.245 . S
C537 C543 1.428 . S
C538 C541 1.260 . S
C538 C542 1.477 . S
C538 H556 0.932 . S
C539 C540 1.384 . S
C539 C541 1.479 . S
C539 H557 0.929 . S
C540 C537 1.424 . S
C540 C539 1.384 . S
C540 H558 0.928 . S
C541 C538 1.260 . S
C541 C539 1.479 . S
C542 C537 1.245 . S
C542 C538 1.477 . S
C542 H559 0.932 . S
C543 U526 2.882 . S
C543 C537 1.428 . S
C543 O546 1.301 . S
C543 O547 1.282 . S
O544 U526 2.441 . S
O544 C530 1.249 . S
O545 U526 2.420 . S
O545 C530 1.202 . S
O546 U526 2.455 . S
O546 C543 1.301 . S
O547 U526 2.449 . S
O547 C543 1.282 . S
H548 C521 0.931 . S
H549 C523 0.929 . S
H550 C524 0.930 . S
H551 C525 0.931 . S
H552 C532 0.932 . S
H553 C533 0.930 . S
H554 C534 0.929 . S
H555 C536 0.930 . S
H556 C538 0.932 . S
H557 C539 0.929 . S
H558 C540 0.928 . S
H559 C542 0.932 . S
C560 C561 1.264 . S
C560 C565 1.479 . S
C560 C570 1.465 . S
C561 C560 1.264 . S
C561 C563 1.339 . S
C561 H588 0.931 . S
C562 C563 1.395 . S
C562 C564 1.320 . S
C563 C561 1.339 . S
C563 C562 1.395 . S
C563 H589 0.929 . S
C564 C562 1.320 . S
C564 C565 1.405 . S
C564 H590 0.930 . S
C565 C560 1.479 . S
C565 C564 1.405 . S
C565 H591 0.931 . S
U566 O567 2.454 . S
U566 O568 2.458 . S
U566 C569 2.984 . S
U566 C570 2.847 . S
U566 C583 2.882 . S
U566 O584 2.441 . S
U566 O585 2.420 . S
U566 O586 2.455 . S
U566 O587 2.449 . S
O567 U566 2.454 . S
O567 C569 1.353 . S
O568 U566 2.458 . S
O568 C569 1.286 . S
C569 U566 2.984 . S
C569 O567 1.353 . S
C569 O568 1.286 . S
C569 C571 1.363 . S
C570 C560 1.465 . S
C570 U566 2.847 . S
C570 O584 1.249 . S
C570 O585 1.202 . S
C571 C569 1.363 . S
C571 C573 1.408 . S
C571 C576 1.342 . S
C572 C573 1.310 . S
C572 C575 1.461 . S
C572 H592 0.932 . S
C573 C571 1.408 . S
C573 C572 1.310 . S
C573 H593 0.930 . S
C574 C575 1.474 . S
C574 C576 1.285 . S
C574 H594 0.929 . S
C575 C572 1.461 . S
C575 C574 1.474 . S
C576 C571 1.342 . S
C576 C574 1.285 . S
C576 H595 0.930 . S
C577 C580 1.424 . S
C577 C582 1.245 . S
C577 C583 1.428 . S
C578 C581 1.260 . S
C578 C582 1.477 . S
C578 H596 0.932 . S
C579 C580 1.384 . S
C579 C581 1.479 . S
C579 H597 0.929 . S
C580 C577 1.424 . S
C580 C579 1.384 . S
C580 H598 0.928 . S
C581 C578 1.260 . S
C581 C579 1.479 . S
C582 C577 1.245 . S
C582 C578 1.477 . S
C582 H599 0.932 . S
C583 U566 2.882 . S
C583 C577 1.428 . S
C583 O586 1.301 . S
C583 O587 1.282 . S
O584 U566 2.441 . S
O584 C570 1.249 . S
O585 U566 2.420 . S
O585 C570 1.202 . S
O586 U566 2.455 . S
O586 C583 1.301 . S
O587 U566 2.449 . S
O587 C583 1.282 . S
H588 C561 0.931 . S
H589 C563 0.929 . S
H590 C564 0.930 . S
H591 C565 0.931 . S
H592 C572 0.932 . S
H593 C573 0.930 . S
H594 C574 0.929 . S
H595 C576 0.930 . S
H596 C578 0.932 . S
H597 C579 0.929 . S
H598 C580 0.928 . S
H599 C582 0.932 . S
C600 C601 1.264 . S
C600 C605 1.479 . S
C600 C610 1.465 . S
C601 C600 1.264 . S
C601 C603 1.339 . S
C601 H628 0.931 . S
C602 C603 1.395 . S
C602 C604 1.320 . S
C603 C601 1.339 . S
C603 C602 1.395 . S
C603 H629 0.929 . S
C604 C602 1.320 . S
C604 C605 1.405 . S
C604 H630 0.930 . S
C605 C600 1.479 . S
C605 C604 1.405 . S
C605 H631 0.931 . S
U606 O607 2.454 . S
U606 O608 2.458 . S
U606 C609 2.984 . S
U606 C610 2.847 . S
U606 C623 2.882 . S
U606 O624 2.441 . S
U606 O625 2.420 . S
U606 O626 2.455 . S
U606 O627 2.449 . S
O607 U606 2.454 . S
O607 C609 1.353 . S
O608 U606 2.458 . S
O608 C609 1.286 . S
C609 U606 2.984 . S
C609 O607 1.353 . S
C609 O608 1.286 . S
C609 C611 1.363 . S
C610 C600 1.465 . S
C610 U606 2.847 . S
C610 O624 1.249 . S
C610 O625 1.202 . S
C611 C609 1.363 . S
C611 C613 1.408 . S
C611 C616 1.342 . S
C612 C613 1.310 . S
C612 C615 1.461 . S
C612 H632 0.932 . S
C613 C611 1.408 . S
C613 C612 1.310 . S
C613 H633 0.930 . S
C614 C615 1.474 . S
C614 C616 1.285 . S
C614 H634 0.929 . S
C615 C612 1.461 . S
C615 C614 1.474 . S
C616 C611 1.342 . S
C616 C614 1.285 . S
C616 H635 0.930 . S
C617 C620 1.424 . S
C617 C622 1.245 . S
C617 C623 1.428 . S
C618 C621 1.260 . S
C618 C622 1.477 . S
C618 H636 0.932 . S
C619 C620 1.384 . S
C619 C621 1.479 . S
C619 H637 0.929 . S
C620 C617 1.424 . S
C620 C619 1.384 . S
C620 H638 0.928 . S
C621 C618 1.260 . S
C621 C619 1.479 . S
C622 C617 1.245 . S
C622 C618 1.477 . S
C622 H639 0.932 . S
C623 U606 2.882 . S
C623 C617 1.428 . S
C623 O626 1.301 . S
C623 O627 1.282 . S
O624 U606 2.441 . S
O624 C610 1.249 . S
O625 U606 2.420 . S
O625 C610 1.202 . S
O626 U606 2.455 . S
O626 C623 1.301 . S
O627 U606 2.449 . S
O627 C623 1.282 . S
H628 C601 0.931 . S
H629 C603 0.929 . S
H630 C604 0.930 . S
H631 C605 0.931 . S
H632 C612 0.932 . S
H633 C613 0.930 . S
H634 C614 0.929 . S
H635 C616 0.930 . S
H636 C618 0.932 . S
H637 C619 0.929 . S
H638 C620 0.928 . S
H639 C622 0.932 . S
C640 C641 1.264 . S
C640 C645 1.479 . S
C640 C650 1.465 . S
C641 C640 1.264 . S
C641 C643 1.339 . S
C641 H668 0.931 . S
C642 C643 1.395 . S
C642 C644 1.320 . S
C643 C641 1.339 . S
C643 C642 1.395 . S
C643 H669 0.929 . S
C644 C642 1.320 . S
C644 C645 1.405 . S
C644 H670 0.930 . S
C645 C640 1.479 . S
C645 C644 1.405 . S
C645 H671 0.931 . S
U646 O647 2.454 . S
U646 O648 2.458 . S
U646 C649 2.984 . S
U646 C650 2.847 . S
U646 C663 2.882 . S
U646 O664 2.441 . S
U646 O665 2.420 . S
U646 O666 2.455 . S
U646 O667 2.449 . S
O647 U646 2.454 . S
O647 C649 1.353 . S
O648 U646 2.458 . S
O648 C649 1.286 . S
C649 U646 2.984 . S
C649 O647 1.353 . S
C649 O648 1.286 . S
C649 C651 1.363 . S
C650 C640 1.465 . S
C650 U646 2.847 . S
C650 O664 1.249 . S
C650 O665 1.202 . S
C651 C649 1.363 . S
C651 C653 1.408 . S
C651 C656 1.342 . S
C652 C653 1.310 . S
C652 C655 1.461 . S
C652 H672 0.932 . S
C653 C651 1.408 . S
C653 C652 1.310 . S
C653 H673 0.930 . S
C654 C655 1.474 . S
C654 C656 1.285 . S
C654 H674 0.929 . S
C655 C652 1.461 . S
C655 C654 1.474 . S
C656 C651 1.342 . S
C656 C654 1.285 . S
C656 H675 0.930 . S
C657 C660 1.424 . S
C657 C662 1.245 . S
C657 C663 1.428 . S
C658 C661 1.260 . S
C658 C662 1.477 . S
C658 H676 0.932 . S
C659 C660 1.384 . S
C659 C661 1.479 . S
C659 H677 0.929 . S
C660 C657 1.424 . S
C660 C659 1.384 . S
C660 H678 0.928 . S
C661 C658 1.260 . S
C661 C659 1.479 . S
C662 C657 1.245 . S
C662 C658 1.477 . S
C662 H679 0.932 . S
C663 U646 2.882 . S
C663 C657 1.428 . S
C663 O666 1.301 . S
C663 O667 1.282 . S
O664 U646 2.441 . S
O664 C650 1.249 . S
O665 U646 2.420 . S
O665 C650 1.202 . S
O666 U646 2.455 . S
O666 C663 1.301 . S
O667 U646 2.449 . S
O667 C663 1.282 . S
H668 C641 0.931 . S
H669 C643 0.929 . S
H670 C644 0.930 . S
H671 C645 0.931 . S
H672 C652 0.932 . S
H673 C653 0.930 . S
H674 C654 0.929 . S
H675 C656 0.930 . S
H676 C658 0.932 . S
H677 C659 0.929 . S
H678 C660 0.928 . S
H679 C662 0.932 . S
C680 C681 1.264 . S
C680 C685 1.479 . S
C680 C690 1.465 . S
C681 C680 1.264 . S
C681 C683 1.339 . S
C681 H708 0.931 . S
C682 C683 1.395 . S
C682 C684 1.320 . S
C683 C681 1.339 . S
C683 C682 1.395 . S
C683 H709 0.929 . S
C684 C682 1.320 . S
C684 C685 1.405 . S
C684 H710 0.930 . S
C685 C680 1.479 . S
C685 C684 1.405 . S
C685 H711 0.931 . S
U686 O687 2.454 . S
U686 O688 2.458 . S
U686 C689 2.984 . S
U686 C690 2.847 . S
U686 C703 2.882 . S
U686 O704 2.441 . S
U686 O705 2.420 . S
U686 O706 2.455 . S
U686 O707 2.449 . S
O687 U686 2.454 . S
O687 C689 1.353 . S
O688 U686 2.458 . S
O688 C689 1.286 . S
C689 U686 2.984 . S
C689 O687 1.353 . S
C689 O688 1.286 . S
C689 C691 1.363 . S
C690 C680 1.465 . S
C690 U686 2.847 . S
C690 O704 1.249 . S
C690 O705 1.202 . S
C691 C689 1.363 . S
C691 C693 1.408 . S
C691 C696 1.342 . S
C692 C693 1.310 . S
C692 C695 1.461 . S
C692 H712 0.932 . S
C693 C691 1.408 . S
C693 C692 1.310 . S
C693 H713 0.930 . S
C694 C695 1.474 . S
C694 C696 1.285 . S
C694 H714 0.929 . S
C695 C692 1.461 . S
C695 C694 1.474 . S
C696 C691 1.342 . S
C696 C694 1.285 . S
C696 H715 0.930 . S
C697 C700 1.424 . S
C697 C702 1.245 . S
C697 C703 1.428 . S
C698 C701 1.260 . S
C698 C702 1.477 . S
C698 H716 0.932 . S
C699 C700 1.384 . S
C699 C701 1.479 . S
C699 H717 0.929 . S
C700 C697 1.424 . S
C700 C699 1.384 . S
C700 H718 0.928 . S
C701 C698 1.260 . S
C701 C699 1.479 . S
C702 C697 1.245 . S
C702 C698 1.477 . S
C702 H719 0.932 . S
C703 U686 2.882 . S
C703 C697 1.428 . S
C703 O706 1.301 . S
C703 O707 1.282 . S
O704 U686 2.441 . S
O704 C690 1.249 . S
O705 U686 2.420 . S
O705 C690 1.202 . S
O706 U686 2.455 . S
O706 C703 1.301 . S
O707 U686 2.449 . S
O707 C703 1.282 . S
H708 C681 0.931 . S
H709 C683 0.929 . S
H710 C684 0.930 . S
H711 C685 0.931 . S
H712 C692 0.932 . S
H713 C693 0.930 . S
H714 C694 0.929 . S
H715 C696 0.930 . S
H716 C698 0.932 . S
H717 C699 0.929 . S
H718 C700 0.928 . S
H719 C702 0.932 . S
Gd720 N751 2.661 . S
Gd720 N757 2.601 . S
Gd720 O764 2.545 . S
Gd720 O765 2.606 1_545 S
Gd720 O767 2.429 . S
Gd720 O768 2.545 1_545 S
Gd720 O769 2.412 . S
Gd720 O771 2.332 1_554 S
Gd720 O772 2.324 1_545 S
Gd720 C779 2.828 . S
Gd721 N730 2.661 . S
Gd721 N734 2.601 . S
Gd721 O765 2.362 1_556 S
Gd721 O766 2.324 1_565 S
Gd721 O770 2.545 . S
Gd721 O771 2.624 1_565 S
Gd721 O773 2.429 . S
Gd721 O774 2.545 1_565 S
Gd721 O775 2.412 . S
Gd721 C788 2.828 . S
C722 C725 1.417 . S
C722 C727 1.431 . S
C722 C728 1.412 . S
C723 C726 1.437 . S
C723 C727 1.317 . S
C723 H742 0.929 . S
C724 C725 1.426 . S
C724 C726 1.413 . S
C724 N734 1.359 . S
C725 C722 1.417 . S
C725 C724 1.426 . S
C725 N730 1.350 . S
C726 C723 1.437 . S
C726 C724 1.413 . S
C726 C736 1.391 . S
C727 C722 1.431 . S
C727 C723 1.317 . S
C727 H738 0.930 . S
C728 C722 1.412 . S
C728 C729 1.355 . S
C728 H740 0.930 . S
C729 C728 1.355 . S
C729 C731 1.402 . S
C729 H741 0.930 . S
N730 Gd721 2.661 . S
N730 C725 1.350 . S
N730 C731 1.307 . S
C731 C729 1.402 . S
C731 N730 1.307 . S
C731 H732 0.930 . S
H732 C731 0.930 . S
C733 N734 1.334 . S
C733 C735 1.394 . S
C733 H737 0.930 . S
N734 Gd721 2.601 . S
N734 C724 1.359 . S
N734 C733 1.334 . S
C735 C733 1.394 . S
C735 C736 1.359 . S
C735 H747 0.930 . S
C736 C726 1.391 . S
C736 C735 1.359 . S
C736 H748 0.929 . S
H737 C733 0.930 . S
H738 C727 0.930 . S
H739 C756 0.930 . S
H740 C728 0.930 . S
H741 C729 0.930 . S
H742 C723 0.929 . S
H743 C761 0.930 . S
H744 C752 0.930 . S
H745 C753 0.930 . S
H746 C777 0.929 . S
H747 C735 0.930 . S
H748 C736 0.929 . S
H749 C778 0.930 . S
H750 C759 0.930 . S
N751 Gd720 2.661 . S
N751 C755 1.350 . S
N751 C756 1.307 . S
C752 H744 0.930 . S
C752 C753 1.355 . S
C752 C754 1.412 . S
C753 H745 0.930 . S
C753 C752 1.355 . S
C753 C756 1.402 . S
C754 C752 1.412 . S
C754 C755 1.417 . S
C754 C778 1.431 . S
C755 N751 1.350 . S
C755 C754 1.417 . S
C755 C758 1.426 . S
C756 H739 0.930 . S
C756 N751 1.307 . S
C756 C753 1.402 . S
N757 Gd720 2.601 . S
N757 C758 1.359 . S
N757 C761 1.334 . S
C758 C755 1.426 . S
C758 N757 1.359 . S
C758 C762 1.413 . S
C759 H750 0.930 . S
C759 C760 1.359 . S
C759 C761 1.394 . S
C760 C759 1.359 . S
C760 C762 1.391 . S
C760 H763 0.929 . S
C761 H743 0.930 . S
C761 N757 1.334 . S
C761 C759 1.394 . S
C762 C758 1.413 . S
C762 C760 1.391 . S
C762 C777 1.437 . S
H763 C760 0.929 . S
O764 Gd720 2.545 . S
O764 C779 1.258 . S
O765 Gd720 2.606 1_565 S
O765 Gd721 2.362 1_554 S
O765 C776 1.284 . S
O766 Gd721 2.324 1_545 S
O766 C786 1.254 . S
O767 Gd720 2.429 . S
O767 C786 1.268 1_554 S
O768 Gd720 2.545 1_565 S
O768 C776 1.250 . S
O769 Gd720 2.412 . S
O769 C779 1.252 . S
O770 Gd721 2.545 . S
O770 C788 1.258 . S
O771 Gd720 2.332 1_556 S
O771 Gd721 2.624 1_545 S
O771 C787 1.309 . S
O772 Gd720 2.324 1_565 S
O772 C795 1.254 . S
O773 Gd721 2.429 . S
O773 C795 1.268 1_556 S
O774 Gd721 2.545 1_545 S
O774 C787 1.250 . S
O775 Gd721 2.412 . S
O775 C788 1.252 . S
C776 O765 1.284 . S
C776 O768 1.250 . S
C777 H746 0.929 . S
C777 C762 1.437 . S
C777 C778 1.317 . S
C778 H749 0.930 . S
C778 C754 1.431 . S
C778 C777 1.317 . S
C779 Gd720 2.828 . S
C779 O764 1.258 . S
C779 O769 1.252 . S
C779 C780 1.497 . S
C780 C779 1.497 . S
C780 C781 1.395 . S
C780 C782 1.380 1_545 S
C781 C780 1.395 . S
C781 C784 1.398 . S
C781 H796 0.930 . S
C782 C780 1.380 1_565 S
C782 C783 1.391 . S
C782 H797 0.930 . S
C783 C782 1.391 . S
C783 C785 1.387 1_565 S
C784 C781 1.398 . S
C784 C785 1.380 . S
C784 H798 0.930 . S
C785 C783 1.387 1_545 S
C785 C784 1.380 . S
C785 H799 0.930 . S
C786 O766 1.254 . S
C786 O767 1.268 1_556 S
C787 O771 1.309 . S
C787 O774 1.250 . S
C788 Gd721 2.828 . S
C788 O770 1.258 . S
C788 O775 1.252 . S
C788 C789 1.497 . S
C789 C788 1.497 . S
C789 C790 1.395 . S
C789 C791 1.380 1_565 S
C790 C789 1.395 . S
C790 C793 1.398 . S
C790 H800 0.930 . S
C791 C789 1.380 1_545 S
C791 C792 1.391 . S
C791 H801 0.930 . S
C792 C791 1.391 . S
C792 C794 1.387 1_545 S
C793 C790 1.398 . S
C793 C794 1.380 . S
C793 H802 0.930 . S
C794 C792 1.387 1_565 S
C794 C793 1.380 . S
C794 H803 0.930 . S
C795 O772 1.254 . S
C795 O773 1.268 1_554 S
H796 C781 0.930 . S
H797 C782 0.930 . S
H798 C784 0.930 . S
H799 C785 0.930 . S
H800 C790 0.930 . S
H801 C791 0.930 . S
H802 C793 0.930 . S
H803 C794 0.930 . S
Gd804 N835 2.661 . S
Gd804 N841 2.601 . S
Gd804 O848 2.545 . S
Gd804 O849 2.606 1_655 S
Gd804 O851 2.429 . S
Gd804 O852 2.545 1_655 S
Gd804 O853 2.412 . S
Gd804 O855 2.319 1_554 S
Gd804 O856 2.324 1_655 S
Gd804 C863 2.828 . S
Gd805 N814 2.661 . S
Gd805 N818 2.601 . S
Gd805 O849 2.362 1_556 S
Gd805 O850 2.324 1_455 S
Gd805 O854 2.545 . S
Gd805 O855 2.632 1_455 S
Gd805 O857 2.429 . S
Gd805 O858 2.545 1_455 S
Gd805 O859 2.412 . S
Gd805 C872 2.828 . S
C806 C809 1.417 . S
C806 C811 1.431 . S
C806 C812 1.412 . S
C807 C810 1.437 . S
C807 C811 1.317 . S
C807 H826 0.929 . S
C808 C809 1.426 . S
C808 C810 1.413 . S
C808 N818 1.359 . S
C809 C806 1.417 . S
C809 C808 1.426 . S
C809 N814 1.350 . S
C810 C807 1.437 . S
C810 C808 1.413 . S
C810 C820 1.391 . S
C811 C806 1.431 . S
C811 C807 1.317 . S
C811 H822 0.930 . S
C812 C806 1.412 . S
C812 C813 1.355 . S
C812 H824 0.930 . S
C813 C812 1.355 . S
C813 C815 1.402 . S
C813 H825 0.930 . S
N814 Gd805 2.661 . S
N814 C809 1.350 . S
N814 C815 1.307 . S
C815 C813 1.402 . S
C815 N814 1.307 . S
C815 H816 0.930 . S
H816 C815 0.930 . S
C817 N818 1.334 . S
C817 C819 1.394 . S
C817 H821 0.930 . S
N818 Gd805 2.601 . S
N818 C808 1.359 . S
N818 C817 1.334 . S
C819 C817 1.394 . S
C819 C820 1.359 . S
C819 H831 0.930 . S
C820 C810 1.391 . S
C820 C819 1.359 . S
C820 H832 0.929 . S
H821 C817 0.930 . S
H822 C811 0.930 . S
H823 C840 0.930 . S
H824 C812 0.930 . S
H825 C813 0.930 . S
H826 C807 0.929 . S
H827 C845 0.930 . S
H828 C836 0.930 . S
H829 C837 0.930 . S
H830 C861 0.929 . S
H831 C819 0.930 . S
H832 C820 0.929 . S
H833 C862 0.930 . S
H834 C843 0.930 . S
N835 Gd804 2.661 . S
N835 C839 1.350 . S
N835 C840 1.307 . S
C836 H828 0.930 . S
C836 C837 1.355 . S
C836 C838 1.412 . S
C837 H829 0.930 . S
C837 C836 1.355 . S
C837 C840 1.402 . S
C838 C836 1.412 . S
C838 C839 1.417 . S
C838 C862 1.431 . S
C839 N835 1.350 . S
C839 C838 1.417 . S
C839 C842 1.426 . S
C840 H823 0.930 . S
C840 N835 1.307 . S
C840 C837 1.402 . S
N841 Gd804 2.601 . S
N841 C842 1.359 . S
N841 C845 1.334 . S
C842 C839 1.426 . S
C842 N841 1.359 . S
C842 C846 1.413 . S
C843 H834 0.930 . S
C843 C844 1.359 . S
C843 C845 1.394 . S
C844 C843 1.359 . S
C844 C846 1.391 . S
C844 H847 0.929 . S
C845 H827 0.930 . S
C845 N841 1.334 . S
C845 C843 1.394 . S
C846 C842 1.413 . S
C846 C844 1.391 . S
C846 C861 1.437 . S
H847 C844 0.929 . S
O848 Gd804 2.545 . S
O848 C863 1.258 . S
O849 Gd804 2.606 1_455 S
O849 Gd805 2.362 1_554 S
O849 C860 1.284 . S
O850 Gd805 2.324 1_655 S
O850 C870 1.254 . S
O851 Gd804 2.429 . S
O851 C870 1.268 1_554 S
O852 Gd804 2.545 1_455 S
O852 C860 1.250 . S
O853 Gd804 2.412 . S
O853 C863 1.252 . S
O854 Gd805 2.545 . S
O854 C872 1.258 . S
O855 Gd804 2.319 1_556 S
O855 Gd805 2.632 1_655 S
O855 C871 1.320 . S
O856 Gd804 2.324 1_455 S
O856 C879 1.254 . S
O857 Gd805 2.429 . S
O857 C879 1.268 1_556 S
O858 Gd805 2.545 1_655 S
O858 C871 1.250 . S
O859 Gd805 2.412 . S
O859 C872 1.252 . S
C860 O849 1.284 . S
C860 O852 1.250 . S
C861 H830 0.929 . S
C861 C846 1.437 . S
C861 C862 1.317 . S
C862 H833 0.930 . S
C862 C838 1.431 . S
C862 C861 1.317 . S
C863 Gd804 2.828 . S
C863 O848 1.258 . S
C863 O853 1.252 . S
C863 C864 1.497 . S
C864 C863 1.497 . S
C864 C865 1.395 . S
C864 C866 1.380 1_655 S
C865 C864 1.395 . S
C865 C868 1.398 . S
C865 H880 0.930 . S
C866 C864 1.380 1_455 S
C866 C867 1.391 . S
C866 H881 0.930 . S
C867 C866 1.391 . S
C867 C869 1.387 1_455 S
C868 C865 1.398 . S
C868 C869 1.380 . S
C868 H882 0.930 . S
C869 C867 1.387 1_655 S
C869 C868 1.380 . S
C869 H883 0.930 . S
C870 O850 1.254 . S
C870 O851 1.268 1_556 S
C871 O855 1.320 . S
C871 O858 1.250 . S
C872 Gd805 2.828 . S
C872 O854 1.258 . S
C872 O859 1.252 . S
C872 C873 1.497 . S
C873 C872 1.497 . S
C873 C874 1.395 . S
C873 C875 1.380 1_455 S
C874 C873 1.395 . S
C874 C877 1.398 . S
C874 H884 0.930 . S
C875 C873 1.380 1_655 S
C875 C876 1.391 . S
C875 H885 0.930 . S
C876 C875 1.391 . S
C876 C878 1.387 1_655 S
C877 C874 1.398 . S
C877 C878 1.380 . S
C877 H886 0.930 . S
C878 C876 1.387 1_455 S
C878 C877 1.380 . S
C878 H887 0.930 . S
C879 O856 1.254 . S
C879 O857 1.268 1_554 S
H880 C865 0.930 . S
H881 C866 0.930 . S
H882 C868 0.930 . S
H883 C869 0.930 . S
H884 C874 0.930 . S
H885 C875 0.930 . S
H886 C877 0.930 . S
H887 C878 0.930 . S
Gd888 N919 2.661 . S
Gd888 N925 2.601 . S
Gd888 O932 2.545 . S
Gd888 O933 2.606 . S
Gd888 O935 2.429 . S
Gd888 O936 2.545 . S
Gd888 O937 2.412 . S
Gd888 O939 2.362 1_556 S
Gd888 O940 2.324 . S
Gd888 C947 2.828 . S
Gd889 N898 2.661 . S
Gd889 N902 2.601 . S
Gd889 O933 2.362 1_554 S
Gd889 O934 2.324 . S
Gd889 O938 2.545 . S
Gd889 O939 2.606 . S
Gd889 O941 2.429 . S
Gd889 O942 2.545 . S
Gd889 O943 2.412 . S
Gd889 C956 2.828 . S
C890 C893 1.417 . S
C890 C895 1.431 . S
C890 C896 1.412 . S
C891 C894 1.437 . S
C891 C895 1.317 . S
C891 H910 0.929 . S
C892 C893 1.426 . S
C892 C894 1.413 . S
C892 N902 1.359 . S
C893 C890 1.417 . S
C893 C892 1.426 . S
C893 N898 1.350 . S
C894 C891 1.437 . S
C894 C892 1.413 . S
C894 C904 1.391 . S
C895 C890 1.431 . S
C895 C891 1.317 . S
C895 H906 0.930 . S
C896 C890 1.412 . S
C896 C897 1.355 . S
C896 H908 0.930 . S
C897 C896 1.355 . S
C897 C899 1.402 . S
C897 H909 0.930 . S
N898 Gd889 2.661 . S
N898 C893 1.350 . S
N898 C899 1.307 . S
C899 C897 1.402 . S
C899 N898 1.307 . S
C899 H900 0.930 . S
H900 C899 0.930 . S
C901 N902 1.334 . S
C901 C903 1.394 . S
C901 H905 0.930 . S
N902 Gd889 2.601 . S
N902 C892 1.359 . S
N902 C901 1.334 . S
C903 C901 1.394 . S
C903 C904 1.359 . S
C903 H915 0.930 . S
C904 C894 1.391 . S
C904 C903 1.359 . S
C904 H916 0.929 . S
H905 C901 0.930 . S
H906 C895 0.930 . S
H907 C924 0.930 . S
H908 C896 0.930 . S
H909 C897 0.930 . S
H910 C891 0.929 . S
H911 C929 0.930 . S
H912 C920 0.930 . S
H913 C921 0.930 . S
H914 C945 0.929 . S
H915 C903 0.930 . S
H916 C904 0.929 . S
H917 C946 0.930 . S
H918 C927 0.930 . S
N919 Gd888 2.661 . S
N919 C923 1.350 . S
N919 C924 1.307 . S
C920 H912 0.930 . S
C920 C921 1.355 . S
C920 C922 1.412 . S
C921 H913 0.930 . S
C921 C920 1.355 . S
C921 C924 1.402 . S
C922 C920 1.412 . S
C922 C923 1.417 . S
C922 C946 1.431 . S
C923 N919 1.350 . S
C923 C922 1.417 . S
C923 C926 1.426 . S
C924 H907 0.930 . S
C924 N919 1.307 . S
C924 C921 1.402 . S
N925 Gd888 2.601 . S
N925 C926 1.359 . S
N925 C929 1.334 . S
C926 C923 1.426 . S
C926 N925 1.359 . S
C926 C930 1.413 . S
C927 H918 0.930 . S
C927 C928 1.359 . S
C927 C929 1.394 . S
C928 C927 1.359 . S
C928 C930 1.391 . S
C928 H931 0.929 . S
C929 H911 0.930 . S
C929 N925 1.334 . S
C929 C927 1.394 . S
C930 C926 1.413 . S
C930 C928 1.391 . S
C930 C945 1.437 . S
H931 C928 0.929 . S
O932 Gd888 2.545 . S
O932 C947 1.258 . S
O933 Gd888 2.606 . S
O933 Gd889 2.362 1_556 S
O933 C944 1.284 . S
O934 Gd889 2.324 . S
O934 C954 1.254 . S
O935 Gd888 2.429 . S
O935 C954 1.268 1_556 S
O936 Gd888 2.545 . S
O936 C944 1.250 . S
O937 Gd888 2.412 . S
O937 C947 1.252 . S
O938 Gd889 2.545 . S
O938 C956 1.258 . S
O939 Gd888 2.362 1_554 S
O939 Gd889 2.606 . S
O939 C955 1.284 . S
O940 Gd888 2.324 . S
O940 C963 1.254 . S
O941 Gd889 2.429 . S
O941 C963 1.268 1_554 S
O942 Gd889 2.545 . S
O942 C955 1.250 . S
O943 Gd889 2.412 . S
O943 C956 1.252 . S
C944 O933 1.284 . S
C944 O936 1.250 . S
C945 H914 0.929 . S
C945 C930 1.437 . S
C945 C946 1.317 . S
C946 H917 0.930 . S
C946 C922 1.431 . S
C946 C945 1.317 . S
C947 Gd888 2.828 . S
C947 O932 1.258 . S
C947 O937 1.252 . S
C947 C948 1.497 . S
C948 C947 1.497 . S
C948 C949 1.395 . S
C948 C950 1.380 . S
C949 C948 1.395 . S
C949 C952 1.398 . S
C949 H964 0.930 . S
C950 C948 1.380 . S
C950 C951 1.391 . S
C950 H965 0.930 . S
C951 C950 1.391 . S
C951 C953 1.387 . S
C952 C949 1.398 . S
C952 C953 1.380 . S
C952 H966 0.930 . S
C953 C951 1.387 . S
C953 C952 1.380 . S
C953 H967 0.930 . S
C954 O934 1.254 . S
C954 O935 1.268 1_554 S
C955 O939 1.284 . S
C955 O942 1.250 . S
C956 Gd889 2.828 . S
C956 O938 1.258 . S
C956 O943 1.252 . S
C956 C957 1.497 . S
C957 C956 1.497 . S
C957 C958 1.395 . S
C957 C959 1.380 . S
C958 C957 1.395 . S
C958 C961 1.398 . S
C958 H968 0.930 . S
C959 C957 1.380 . S
C959 C960 1.391 . S
C959 H969 0.930 . S
C960 C959 1.391 . S
C960 C962 1.387 . S
C961 C958 1.398 . S
C961 C962 1.380 . S
C961 H970 0.930 . S
C962 C960 1.387 . S
C962 C961 1.380 . S
C962 H971 0.930 . S
C963 O940 1.254 . S
C963 O941 1.268 1_556 S
H964 C949 0.930 . S
H965 C950 0.930 . S
H966 C952 0.930 . S
H967 C953 0.930 . S
H968 C958 0.930 . S
H969 C959 0.930 . S
H970 C961 0.930 . S
H971 C962 0.930 . S
Gd972 N1003 2.661 . S
Gd972 N1009 2.601 . S
Gd972 O1016 2.545 . S
Gd972 O1017 2.606 . S
Gd972 O1019 2.429 . S
Gd972 O1020 2.545 . S
Gd972 O1021 2.412 . S
Gd972 O1023 2.362 . S
Gd972 O1024 2.324 . S
Gd972 C1031 2.828 . S
Gd973 N982 2.661 . S
Gd973 N986 2.601 . S
Gd973 O1017 2.362 . S
Gd973 O1018 2.324 . S
Gd973 O1022 2.545 . S
Gd973 O1023 2.606 . S
Gd973 O1025 2.429 . S
Gd973 O1026 2.545 . S
Gd973 O1027 2.412 . S
Gd973 C1040 2.828 . S
C974 C977 1.417 . S
C974 C979 1.431 . S
C974 C980 1.412 . S
C975 C978 1.437 . S
C975 C979 1.317 . S
C975 H994 0.929 . S
C976 C977 1.426 . S
C976 C978 1.413 . S
C976 N986 1.359 . S
C977 C974 1.417 . S
C977 C976 1.426 . S
C977 N982 1.350 . S
C978 C975 1.437 . S
C978 C976 1.413 . S
C978 C988 1.391 . S
C979 C974 1.431 . S
C979 C975 1.317 . S
C979 H990 0.930 . S
C980 C974 1.412 . S
C980 C981 1.355 . S
C980 H992 0.930 . S
C981 C980 1.355 . S
C981 C983 1.402 . S
C981 H993 0.930 . S
N982 Gd973 2.661 . S
N982 C977 1.350 . S
N982 C983 1.307 . S
C983 C981 1.402 . S
C983 N982 1.307 . S
C983 H984 0.930 . S
H984 C983 0.930 . S
C985 N986 1.334 . S
C985 C987 1.394 . S
C985 H989 0.930 . S
N986 Gd973 2.601 . S
N986 C976 1.359 . S
N986 C985 1.334 . S
C987 C985 1.394 . S
C987 C988 1.359 . S
C987 H999 0.930 . S
C988 C978 1.391 . S
C988 C987 1.359 . S
C988 H1000 0.929 . S
H989 C985 0.930 . S
H990 C979 0.930 . S
H991 C1008 0.930 . S
H992 C980 0.930 . S
H993 C981 0.930 . S
H994 C975 0.929 . S
H995 C1013 0.930 . S
H996 C1004 0.930 . S
H997 C1005 0.930 . S
H998 C1029 0.929 . S
H999 C987 0.930 . S
H1000 C988 0.929 . S
H1001 C1030 0.930 . S
H1002 C1011 0.930 . S
N1003 Gd972 2.661 . S
N1003 C1007 1.350 . S
N1003 C1008 1.307 . S
C1004 H996 0.930 . S
C1004 C1005 1.355 . S
C1004 C1006 1.412 . S
C1005 H997 0.930 . S
C1005 C1004 1.355 . S
C1005 C1008 1.402 . S
C1006 C1004 1.412 . S
C1006 C1007 1.417 . S
C1006 C1030 1.431 . S
C1007 N1003 1.350 . S
C1007 C1006 1.417 . S
C1007 C1010 1.426 . S
C1008 H991 0.930 . S
C1008 N1003 1.307 . S
C1008 C1005 1.402 . S
N1009 Gd972 2.601 . S
N1009 C1010 1.359 . S
N1009 C1013 1.334 . S
C1010 C1007 1.426 . S
C1010 N1009 1.359 . S
C1010 C1014 1.413 . S
C1011 H1002 0.930 . S
C1011 C1012 1.359 . S
C1011 C1013 1.394 . S
C1012 C1011 1.359 . S
C1012 C1014 1.391 . S
C1012 H1015 0.929 . S
C1013 H995 0.930 . S
C1013 N1009 1.334 . S
C1013 C1011 1.394 . S
C1014 C1010 1.413 . S
C1014 C1012 1.391 . S
C1014 C1029 1.437 . S
H1015 C1012 0.929 . S
O1016 Gd972 2.545 . S
O1016 C1031 1.258 . S
O1017 Gd972 2.606 . S
O1017 Gd973 2.362 . S
O1017 C1028 1.284 . S
O1018 Gd973 2.324 . S
O1018 C1038 1.254 . S
O1019 Gd972 2.429 . S
O1019 C1038 1.268 . S
O1020 Gd972 2.545 . S
O1020 C1028 1.250 . S
O1021 Gd972 2.412 . S
O1021 C1031 1.252 . S
O1022 Gd973 2.545 . S
O1022 C1040 1.258 . S
O1023 Gd972 2.362 . S
O1023 Gd973 2.606 . S
O1023 C1039 1.284 . S
O1024 Gd972 2.324 . S
O1024 C1047 1.254 . S
O1025 Gd973 2.429 . S
O1025 C1047 1.268 . S
O1026 Gd973 2.545 . S
O1026 C1039 1.250 . S
O1027 Gd973 2.412 . S
O1027 C1040 1.252 . S
C1028 O1017 1.284 . S
C1028 O1020 1.250 . S
C1029 H998 0.929 . S
C1029 C1014 1.437 . S
C1029 C1030 1.317 . S
C1030 H1001 0.930 . S
C1030 C1006 1.431 . S
C1030 C1029 1.317 . S
C1031 Gd972 2.828 . S
C1031 O1016 1.258 . S
C1031 O1021 1.252 . S
C1031 C1032 1.497 . S
C1032 C1031 1.497 . S
C1032 C1033 1.395 . S
C1032 C1034 1.380 . S
C1033 C1032 1.395 . S
C1033 C1036 1.398 . S
C1033 H1048 0.930 . S
C1034 C1032 1.380 . S
C1034 C1035 1.391 . S
C1034 H1049 0.930 . S
C1035 C1034 1.391 . S
C1035 C1037 1.387 . S
C1036 C1033 1.398 . S
C1036 C1037 1.380 . S
C1036 H1050 0.930 . S
C1037 C1035 1.387 . S
C1037 C1036 1.380 . S
C1037 H1051 0.930 . S
C1038 O1018 1.254 . S
C1038 O1019 1.268 . S
C1039 O1023 1.284 . S
C1039 O1026 1.250 . S
C1040 Gd973 2.828 . S
C1040 O1022 1.258 . S
C1040 O1027 1.252 . S
C1040 C1041 1.497 . S
C1041 C1040 1.497 . S
C1041 C1042 1.395 . S
C1041 C1043 1.380 . S
C1042 C1041 1.395 . S
C1042 C1045 1.398 . S
C1042 H1052 0.930 . S
C1043 C1041 1.380 . S
C1043 C1044 1.391 . S
C1043 H1053 0.930 . S
C1044 C1043 1.391 . S
C1044 C1046 1.387 . S
C1045 C1042 1.398 . S
C1045 C1046 1.380 . S
C1045 H1054 0.930 . S
C1046 C1044 1.387 . S
C1046 C1045 1.380 . S
C1046 H1055 0.930 . S
C1047 O1024 1.254 . S
C1047 O1025 1.268 . S
H1048 C1033 0.930 . S
H1049 C1034 0.930 . S
H1050 C1036 0.930 . S
H1051 C1037 0.930 . S
H1052 C1042 0.930 . S
H1053 C1043 0.930 . S
H1054 C1045 0.930 . S
H1055 C1046 0.930 . S
Gd1056 N1087 2.661 . S
Gd1056 N1093 2.601 . S
Gd1056 O1100 2.545 . S
Gd1056 O1101 2.606 . S
Gd1056 O1103 2.429 . S
Gd1056 O1104 2.545 . S
Gd1056 O1105 2.412 . S
Gd1056 O1107 2.362 . S
Gd1056 O1108 2.324 . S
Gd1056 C1115 2.828 . S
Gd1057 N1066 2.661 . S
Gd1057 N1070 2.601 . S
Gd1057 O1101 2.362 . S
Gd1057 O1102 2.324 . S
Gd1057 O1106 2.545 . S
Gd1057 O1107 2.606 . S
Gd1057 O1109 2.429 . S
Gd1057 O1110 2.545 . S
Gd1057 O1111 2.412 . S
Gd1057 C1124 2.828 . S
C1058 C1061 1.417 . S
C1058 C1063 1.431 . S
C1058 C1064 1.412 . S
C1059 C1062 1.437 . S
C1059 C1063 1.317 . S
C1059 H1078 0.929 . S
C1060 C1061 1.426 . S
C1060 C1062 1.413 . S
C1060 N1070 1.359 . S
C1061 C1058 1.417 . S
C1061 C1060 1.426 . S
C1061 N1066 1.350 . S
C1062 C1059 1.437 . S
C1062 C1060 1.413 . S
C1062 C1072 1.391 . S
C1063 C1058 1.431 . S
C1063 C1059 1.317 . S
C1063 H1074 0.930 . S
C1064 C1058 1.412 . S
C1064 C1065 1.355 . S
C1064 H1076 0.930 . S
C1065 C1064 1.355 . S
C1065 C1067 1.402 . S
C1065 H1077 0.930 . S
N1066 Gd1057 2.661 . S
N1066 C1061 1.350 . S
N1066 C1067 1.307 . S
C1067 C1065 1.402 . S
C1067 N1066 1.307 . S
C1067 H1068 0.930 . S
H1068 C1067 0.930 . S
C1069 N1070 1.334 . S
C1069 C1071 1.394 . S
C1069 H1073 0.930 . S
N1070 Gd1057 2.601 . S
N1070 C1060 1.359 . S
N1070 C1069 1.334 . S
C1071 C1069 1.394 . S
C1071 C1072 1.359 . S
C1071 H1083 0.930 . S
C1072 C1062 1.391 . S
C1072 C1071 1.359 . S
C1072 H1084 0.929 . S
H1073 C1069 0.930 . S
H1074 C1063 0.930 . S
H1075 C1092 0.930 . S
H1076 C1064 0.930 . S
H1077 C1065 0.930 . S
H1078 C1059 0.929 . S
H1079 C1097 0.930 . S
H1080 C1088 0.930 . S
H1081 C1089 0.930 . S
H1082 C1113 0.929 . S
H1083 C1071 0.930 . S
H1084 C1072 0.929 . S
H1085 C1114 0.930 . S
H1086 C1095 0.930 . S
N1087 Gd1056 2.661 . S
N1087 C1091 1.350 . S
N1087 C1092 1.307 . S
C1088 H1080 0.930 . S
C1088 C1089 1.355 . S
C1088 C1090 1.412 . S
C1089 H1081 0.930 . S
C1089 C1088 1.355 . S
C1089 C1092 1.402 . S
C1090 C1088 1.412 . S
C1090 C1091 1.417 . S
C1090 C1114 1.431 . S
C1091 N1087 1.350 . S
C1091 C1090 1.417 . S
C1091 C1094 1.426 . S
C1092 H1075 0.930 . S
C1092 N1087 1.307 . S
C1092 C1089 1.402 . S
N1093 Gd1056 2.601 . S
N1093 C1094 1.359 . S
N1093 C1097 1.334 . S
C1094 C1091 1.426 . S
C1094 N1093 1.359 . S
C1094 C1098 1.413 . S
C1095 H1086 0.930 . S
C1095 C1096 1.359 . S
C1095 C1097 1.394 . S
C1096 C1095 1.359 . S
C1096 C1098 1.391 . S
C1096 H1099 0.929 . S
C1097 H1079 0.930 . S
C1097 N1093 1.334 . S
C1097 C1095 1.394 . S
C1098 C1094 1.413 . S
C1098 C1096 1.391 . S
C1098 C1113 1.437 . S
H1099 C1096 0.929 . S
O1100 Gd1056 2.545 . S
O1100 C1115 1.258 . S
O1101 Gd1056 2.606 . S
O1101 Gd1057 2.362 . S
O1101 C1112 1.284 . S
O1102 Gd1057 2.324 . S
O1102 C1122 1.254 . S
O1103 Gd1056 2.429 . S
O1103 C1122 1.268 . S
O1104 Gd1056 2.545 . S
O1104 C1112 1.250 . S
O1105 Gd1056 2.412 . S
O1105 C1115 1.252 . S
O1106 Gd1057 2.545 . S
O1106 C1124 1.258 . S
O1107 Gd1056 2.362 . S
O1107 Gd1057 2.606 . S
O1107 C1123 1.284 . S
O1108 Gd1056 2.324 . S
O1108 C1131 1.254 . S
O1109 Gd1057 2.429 . S
O1109 C1131 1.268 . S
O1110 Gd1057 2.545 . S
O1110 C1123 1.250 . S
O1111 Gd1057 2.412 . S
O1111 C1124 1.252 . S
C1112 O1101 1.284 . S
C1112 O1104 1.250 . S
C1113 H1082 0.929 . S
C1113 C1098 1.437 . S
C1113 C1114 1.317 . S
C1114 H1085 0.930 . S
C1114 C1090 1.431 . S
C1114 C1113 1.317 . S
C1115 Gd1056 2.828 . S
C1115 O1100 1.258 . S
C1115 O1105 1.252 . S
C1115 C1116 1.497 . S
C1116 C1115 1.497 . S
C1116 C1117 1.395 . S
C1116 C1118 1.380 . S
C1117 C1116 1.395 . S
C1117 C1120 1.398 . S
C1117 H1132 0.930 . S
C1118 C1116 1.380 . S
C1118 C1119 1.391 . S
C1118 H1133 0.930 . S
C1119 C1118 1.391 . S
C1119 C1121 1.387 . S
C1120 C1117 1.398 . S
C1120 C1121 1.380 . S
C1120 H1134 0.930 . S
C1121 C1119 1.387 . S
C1121 C1120 1.380 . S
C1121 H1135 0.930 . S
C1122 O1102 1.254 . S
C1122 O1103 1.268 . S
C1123 O1107 1.284 . S
C1123 O1110 1.250 . S
C1124 Gd1057 2.828 . S
C1124 O1106 1.258 . S
C1124 O1111 1.252 . S
C1124 C1125 1.497 . S
C1125 C1124 1.497 . S
C1125 C1126 1.395 . S
C1125 C1127 1.380 . S
C1126 C1125 1.395 . S
C1126 C1129 1.398 . S
C1126 H1136 0.930 . S
C1127 C1125 1.380 . S
C1127 C1128 1.391 . S
C1127 H1137 0.930 . S
C1128 C1127 1.391 . S
C1128 C1130 1.387 . S
C1129 C1126 1.398 . S
C1129 C1130 1.380 . S
C1129 H1138 0.930 . S
C1130 C1128 1.387 . S
C1130 C1129 1.380 . S
C1130 H1139 0.930 . S
C1131 O1108 1.254 . S
C1131 O1109 1.268 . S
H1132 C1117 0.930 . S
H1133 C1118 0.930 . S
H1134 C1120 0.930 . S
H1135 C1121 0.930 . S
H1136 C1126 0.930 . S
H1137 C1127 0.930 . S
H1138 C1129 0.930 . S
H1139 C1130 0.930 . S
Gd1140 N1171 2.661 . S
Gd1140 N1177 2.601 . S
Gd1140 O1184 2.545 . S
Gd1140 O1185 2.606 . S
Gd1140 O1187 2.429 . S
Gd1140 O1188 2.545 . S
Gd1140 O1189 2.412 . S
Gd1140 O1191 2.362 . S
Gd1140 O1192 2.324 . S
Gd1140 C1199 2.828 . S
Gd1141 N1150 2.661 . S
Gd1141 N1154 2.601 . S
Gd1141 O1185 2.362 . S
Gd1141 O1186 2.324 . S
Gd1141 O1190 2.545 . S
Gd1141 O1191 2.606 . S
Gd1141 O1193 2.429 . S
Gd1141 O1194 2.545 . S
Gd1141 O1195 2.412 . S
Gd1141 C1208 2.828 . S
C1142 C1145 1.417 . S
C1142 C1147 1.431 . S
C1142 C1148 1.412 . S
C1143 C1146 1.437 . S
C1143 C1147 1.317 . S
C1143 H1162 0.929 . S
C1144 C1145 1.426 . S
C1144 C1146 1.413 . S
C1144 N1154 1.359 . S
C1145 C1142 1.417 . S
C1145 C1144 1.426 . S
C1145 N1150 1.350 . S
C1146 C1143 1.437 . S
C1146 C1144 1.413 . S
C1146 C1156 1.391 . S
C1147 C1142 1.431 . S
C1147 C1143 1.317 . S
C1147 H1158 0.930 . S
C1148 C1142 1.412 . S
C1148 C1149 1.355 . S
C1148 H1160 0.930 . S
C1149 C1148 1.355 . S
C1149 C1151 1.402 . S
C1149 H1161 0.930 . S
N1150 Gd1141 2.661 . S
N1150 C1145 1.350 . S
N1150 C1151 1.307 . S
C1151 C1149 1.402 . S
C1151 N1150 1.307 . S
C1151 H1152 0.930 . S
H1152 C1151 0.930 . S
C1153 N1154 1.334 . S
C1153 C1155 1.394 . S
C1153 H1157 0.930 . S
N1154 Gd1141 2.601 . S
N1154 C1144 1.359 . S
N1154 C1153 1.334 . S
C1155 C1153 1.394 . S
C1155 C1156 1.359 . S
C1155 H1167 0.930 . S
C1156 C1146 1.391 . S
C1156 C1155 1.359 . S
C1156 H1168 0.929 . S
H1157 C1153 0.930 . S
H1158 C1147 0.930 . S
H1159 C1176 0.930 . S
H1160 C1148 0.930 . S
H1161 C1149 0.930 . S
H1162 C1143 0.929 . S
H1163 C1181 0.930 . S
H1164 C1172 0.930 . S
H1165 C1173 0.930 . S
H1166 C1197 0.929 . S
H1167 C1155 0.930 . S
H1168 C1156 0.929 . S
H1169 C1198 0.930 . S
H1170 C1179 0.930 . S
N1171 Gd1140 2.661 . S
N1171 C1175 1.350 . S
N1171 C1176 1.307 . S
C1172 H1164 0.930 . S
C1172 C1173 1.355 . S
C1172 C1174 1.412 . S
C1173 H1165 0.930 . S
C1173 C1172 1.355 . S
C1173 C1176 1.402 . S
C1174 C1172 1.412 . S
C1174 C1175 1.417 . S
C1174 C1198 1.431 . S
C1175 N1171 1.350 . S
C1175 C1174 1.417 . S
C1175 C1178 1.426 . S
C1176 H1159 0.930 . S
C1176 N1171 1.307 . S
C1176 C1173 1.402 . S
N1177 Gd1140 2.601 . S
N1177 C1178 1.359 . S
N1177 C1181 1.334 . S
C1178 C1175 1.426 . S
C1178 N1177 1.359 . S
C1178 C1182 1.413 . S
C1179 H1170 0.930 . S
C1179 C1180 1.359 . S
C1179 C1181 1.394 . S
C1180 C1179 1.359 . S
C1180 C1182 1.391 . S
C1180 H1183 0.929 . S
C1181 H1163 0.930 . S
C1181 N1177 1.334 . S
C1181 C1179 1.394 . S
C1182 C1178 1.413 . S
C1182 C1180 1.391 . S
C1182 C1197 1.437 . S
H1183 C1180 0.929 . S
O1184 Gd1140 2.545 . S
O1184 C1199 1.258 . S
O1185 Gd1140 2.606 . S
O1185 Gd1141 2.362 . S
O1185 C1196 1.284 . S
O1186 Gd1141 2.324 . S
O1186 C1206 1.254 . S
O1187 Gd1140 2.429 . S
O1187 C1206 1.268 . S
O1188 Gd1140 2.545 . S
O1188 C1196 1.250 . S
O1189 Gd1140 2.412 . S
O1189 C1199 1.252 . S
O1190 Gd1141 2.545 . S
O1190 C1208 1.258 . S
O1191 Gd1140 2.362 . S
O1191 Gd1141 2.606 . S
O1191 C1207 1.284 . S
O1192 Gd1140 2.324 . S
O1192 C1215 1.254 . S
O1193 Gd1141 2.429 . S
O1193 C1215 1.268 . S
O1194 Gd1141 2.545 . S
O1194 C1207 1.250 . S
O1195 Gd1141 2.412 . S
O1195 C1208 1.252 . S
C1196 O1185 1.284 . S
C1196 O1188 1.250 . S
C1197 H1166 0.929 . S
C1197 C1182 1.437 . S
C1197 C1198 1.317 . S
C1198 H1169 0.930 . S
C1198 C1174 1.431 . S
C1198 C1197 1.317 . S
C1199 Gd1140 2.828 . S
C1199 O1184 1.258 . S
C1199 O1189 1.252 . S
C1199 C1200 1.497 . S
C1200 C1199 1.497 . S
C1200 C1201 1.395 . S
C1200 C1202 1.380 . S
C1201 C1200 1.395 . S
C1201 C1204 1.398 . S
C1201 H1216 0.930 . S
C1202 C1200 1.380 . S
C1202 C1203 1.391 . S
C1202 H1217 0.930 . S
C1203 C1202 1.391 . S
C1203 C1205 1.387 . S
C1204 C1201 1.398 . S
C1204 C1205 1.380 . S
C1204 H1218 0.930 . S
C1205 C1203 1.387 . S
C1205 C1204 1.380 . S
C1205 H1219 0.930 . S
C1206 O1186 1.254 . S
C1206 O1187 1.268 . S
C1207 O1191 1.284 . S
C1207 O1194 1.250 . S
C1208 Gd1141 2.828 . S
C1208 O1190 1.258 . S
C1208 O1195 1.252 . S
C1208 C1209 1.497 . S
C1209 C1208 1.497 . S
C1209 C1210 1.395 . S
C1209 C1211 1.380 . S
C1210 C1209 1.395 . S
C1210 C1213 1.398 . S
C1210 H1220 0.930 . S
C1211 C1209 1.380 . S
C1211 C1212 1.391 . S
C1211 H1221 0.930 . S
C1212 C1211 1.391 . S
C1212 C1214 1.387 . S
C1213 C1210 1.398 . S
C1213 C1214 1.380 . S
C1213 H1222 0.930 . S
C1214 C1212 1.387 . S
C1214 C1213 1.380 . S
C1214 H1223 0.930 . S
C1215 O1192 1.254 . S
C1215 O1193 1.268 . S
H1216 C1201 0.930 . S
H1217 C1202 0.930 . S
H1218 C1204 0.930 . S
H1219 C1205 0.930 . S
H1220 C1210 0.930 . S
H1221 C1211 0.930 . S
H1222 C1213 0.930 . S
H1223 C1214 0.930 . S
Gd1224 N1255 2.661 . S
Gd1224 N1261 2.601 . S
Gd1224 O1268 2.545 . S
Gd1224 O1269 2.606 . S
Gd1224 O1271 2.429 . S
Gd1224 O1272 2.545 . S
Gd1224 O1273 2.412 . S
Gd1224 O1275 2.362 . S
Gd1224 O1276 2.324 . S
Gd1224 C1283 2.828 . S
Gd1225 N1234 2.661 . S
Gd1225 N1238 2.601 . S
Gd1225 O1269 2.362 . S
Gd1225 O1270 2.324 . S
Gd1225 O1274 2.545 . S
Gd1225 O1275 2.606 . S
Gd1225 O1277 2.429 . S
Gd1225 O1278 2.545 . S
Gd1225 O1279 2.412 . S
Gd1225 C1292 2.828 . S
C1226 C1229 1.417 . S
C1226 C1231 1.431 . S
C1226 C1232 1.412 . S
C1227 C1230 1.437 . S
C1227 C1231 1.317 . S
C1227 H1246 0.929 . S
C1228 C1229 1.426 . S
C1228 C1230 1.413 . S
C1228 N1238 1.359 . S
C1229 C1226 1.417 . S
C1229 C1228 1.426 . S
C1229 N1234 1.350 . S
C1230 C1227 1.437 . S
C1230 C1228 1.413 . S
C1230 C1240 1.391 . S
C1231 C1226 1.431 . S
C1231 C1227 1.317 . S
C1231 H1242 0.930 . S
C1232 C1226 1.412 . S
C1232 C1233 1.355 . S
C1232 H1244 0.930 . S
C1233 C1232 1.355 . S
C1233 C1235 1.402 . S
C1233 H1245 0.930 . S
N1234 Gd1225 2.661 . S
N1234 C1229 1.350 . S
N1234 C1235 1.307 . S
C1235 C1233 1.402 . S
C1235 N1234 1.307 . S
C1235 H1236 0.930 . S
H1236 C1235 0.930 . S
C1237 N1238 1.334 . S
C1237 C1239 1.394 . S
C1237 H1241 0.930 . S
N1238 Gd1225 2.601 . S
N1238 C1228 1.359 . S
N1238 C1237 1.334 . S
C1239 C1237 1.394 . S
C1239 C1240 1.359 . S
C1239 H1251 0.930 . S
C1240 C1230 1.391 . S
C1240 C1239 1.359 . S
C1240 H1252 0.929 . S
H1241 C1237 0.930 . S
H1242 C1231 0.930 . S
H1243 C1260 0.930 . S
H1244 C1232 0.930 . S
H1245 C1233 0.930 . S
H1246 C1227 0.929 . S
H1247 C1265 0.930 . S
H1248 C1256 0.930 . S
H1249 C1257 0.930 . S
H1250 C1281 0.929 . S
H1251 C1239 0.930 . S
H1252 C1240 0.929 . S
H1253 C1282 0.930 . S
H1254 C1263 0.930 . S
N1255 Gd1224 2.661 . S
N1255 C1259 1.350 . S
N1255 C1260 1.307 . S
C1256 H1248 0.930 . S
C1256 C1257 1.355 . S
C1256 C1258 1.412 . S
C1257 H1249 0.930 . S
C1257 C1256 1.355 . S
C1257 C1260 1.402 . S
C1258 C1256 1.412 . S
C1258 C1259 1.417 . S
C1258 C1282 1.431 . S
C1259 N1255 1.350 . S
C1259 C1258 1.417 . S
C1259 C1262 1.426 . S
C1260 H1243 0.930 . S
C1260 N1255 1.307 . S
C1260 C1257 1.402 . S
N1261 Gd1224 2.601 . S
N1261 C1262 1.359 . S
N1261 C1265 1.334 . S
C1262 C1259 1.426 . S
C1262 N1261 1.359 . S
C1262 C1266 1.413 . S
C1263 H1254 0.930 . S
C1263 C1264 1.359 . S
C1263 C1265 1.394 . S
C1264 C1263 1.359 . S
C1264 C1266 1.391 . S
C1264 H1267 0.929 . S
C1265 H1247 0.930 . S
C1265 N1261 1.334 . S
C1265 C1263 1.394 . S
C1266 C1262 1.413 . S
C1266 C1264 1.391 . S
C1266 C1281 1.437 . S
H1267 C1264 0.929 . S
O1268 Gd1224 2.545 . S
O1268 C1283 1.258 . S
O1269 Gd1224 2.606 . S
O1269 Gd1225 2.362 . S
O1269 C1280 1.284 . S
O1270 Gd1225 2.324 . S
O1270 C1290 1.254 . S
O1271 Gd1224 2.429 . S
O1271 C1290 1.268 . S
O1272 Gd1224 2.545 . S
O1272 C1280 1.250 . S
O1273 Gd1224 2.412 . S
O1273 C1283 1.252 . S
O1274 Gd1225 2.545 . S
O1274 C1292 1.258 . S
O1275 Gd1224 2.362 . S
O1275 Gd1225 2.606 . S
O1275 C1291 1.284 . S
O1276 Gd1224 2.324 . S
O1276 C1299 1.254 . S
O1277 Gd1225 2.429 . S
O1277 C1299 1.268 . S
O1278 Gd1225 2.545 . S
O1278 C1291 1.250 . S
O1279 Gd1225 2.412 . S
O1279 C1292 1.252 . S
C1280 O1269 1.284 . S
C1280 O1272 1.250 . S
C1281 H1250 0.929 . S
C1281 C1266 1.437 . S
C1281 C1282 1.317 . S
C1282 H1253 0.930 . S
C1282 C1258 1.431 . S
C1282 C1281 1.317 . S
C1283 Gd1224 2.828 . S
C1283 O1268 1.258 . S
C1283 O1273 1.252 . S
C1283 C1284 1.497 . S
C1284 C1283 1.497 . S
C1284 C1285 1.395 . S
C1284 C1286 1.380 . S
C1285 C1284 1.395 . S
C1285 C1288 1.398 . S
C1285 H1300 0.930 . S
C1286 C1284 1.380 . S
C1286 C1287 1.391 . S
C1286 H1301 0.930 . S
C1287 C1286 1.391 . S
C1287 C1289 1.387 . S
C1288 C1285 1.398 . S
C1288 C1289 1.380 . S
C1288 H1302 0.930 . S
C1289 C1287 1.387 . S
C1289 C1288 1.380 . S
C1289 H1303 0.930 . S
C1290 O1270 1.254 . S
C1290 O1271 1.268 . S
C1291 O1275 1.284 . S
C1291 O1278 1.250 . S
C1292 Gd1225 2.828 . S
C1292 O1274 1.258 . S
C1292 O1279 1.252 . S
C1292 C1293 1.497 . S
C1293 C1292 1.497 . S
C1293 C1294 1.395 . S
C1293 C1295 1.380 . S
C1294 C1293 1.395 . S
C1294 C1297 1.398 . S
C1294 H1304 0.930 . S
C1295 C1293 1.380 . S
C1295 C1296 1.391 . S
C1295 H1305 0.930 . S
C1296 C1295 1.391 . S
C1296 C1298 1.387 . S
C1297 C1294 1.398 . S
C1297 C1298 1.380 . S
C1297 H1306 0.930 . S
C1298 C1296 1.387 . S
C1298 C1297 1.380 . S
C1298 H1307 0.930 . S
C1299 O1276 1.254 . S
C1299 O1277 1.268 . S
H1300 C1285 0.930 . S
H1301 C1286 0.930 . S
H1302 C1288 0.930 . S
H1303 C1289 0.930 . S
H1304 C1294 0.930 . S
H1305 C1295 0.930 . S
H1306 C1297 0.930 . S
H1307 C1298 0.930 . S
Gd1308 N1339 2.661 . S
Gd1308 N1345 2.601 . S
Gd1308 O1352 2.545 . S
Gd1308 O1353 2.606 . S
Gd1308 O1355 2.429 . S
Gd1308 O1356 2.545 . S
Gd1308 O1357 2.412 . S
Gd1308 O1359 2.362 . S
Gd1308 O1360 2.324 . S
Gd1308 C1367 2.828 . S
Gd1309 N1318 2.661 . S
Gd1309 N1322 2.601 . S
Gd1309 O1353 2.362 . S
Gd1309 O1354 2.324 . S
Gd1309 O1358 2.545 . S
Gd1309 O1359 2.606 . S
Gd1309 O1361 2.429 . S
Gd1309 O1362 2.545 . S
Gd1309 O1363 2.412 . S
Gd1309 C1376 2.828 . S
C1310 C1313 1.417 . S
C1310 C1315 1.431 . S
C1310 C1316 1.412 . S
C1311 C1314 1.437 . S
C1311 C1315 1.317 . S
C1311 H1330 0.929 . S
C1312 C1313 1.426 . S
C1312 C1314 1.413 . S
C1312 N1322 1.359 . S
C1313 C1310 1.417 . S
C1313 C1312 1.426 . S
C1313 N1318 1.350 . S
C1314 C1311 1.437 . S
C1314 C1312 1.413 . S
C1314 C1324 1.391 . S
C1315 C1310 1.431 . S
C1315 C1311 1.317 . S
C1315 H1326 0.930 . S
C1316 C1310 1.412 . S
C1316 C1317 1.355 . S
C1316 H1328 0.930 . S
C1317 C1316 1.355 . S
C1317 C1319 1.402 . S
C1317 H1329 0.930 . S
N1318 Gd1309 2.661 . S
N1318 C1313 1.350 . S
N1318 C1319 1.307 . S
C1319 C1317 1.402 . S
C1319 N1318 1.307 . S
C1319 H1320 0.930 . S
H1320 C1319 0.930 . S
C1321 N1322 1.334 . S
C1321 C1323 1.394 . S
C1321 H1325 0.930 . S
N1322 Gd1309 2.601 . S
N1322 C1312 1.359 . S
N1322 C1321 1.334 . S
C1323 C1321 1.394 . S
C1323 C1324 1.359 . S
C1323 H1335 0.930 . S
C1324 C1314 1.391 . S
C1324 C1323 1.359 . S
C1324 H1336 0.929 . S
H1325 C1321 0.930 . S
H1326 C1315 0.930 . S
H1327 C1344 0.930 . S
H1328 C1316 0.930 . S
H1329 C1317 0.930 . S
H1330 C1311 0.929 . S
H1331 C1349 0.930 . S
H1332 C1340 0.930 . S
H1333 C1341 0.930 . S
H1334 C1365 0.929 . S
H1335 C1323 0.930 . S
H1336 C1324 0.929 . S
H1337 C1366 0.930 . S
H1338 C1347 0.930 . S
N1339 Gd1308 2.661 . S
N1339 C1343 1.350 . S
N1339 C1344 1.307 . S
C1340 H1332 0.930 . S
C1340 C1341 1.355 . S
C1340 C1342 1.412 . S
C1341 H1333 0.930 . S
C1341 C1340 1.355 . S
C1341 C1344 1.402 . S
C1342 C1340 1.412 . S
C1342 C1343 1.417 . S
C1342 C1366 1.431 . S
C1343 N1339 1.350 . S
C1343 C1342 1.417 . S
C1343 C1346 1.426 . S
C1344 H1327 0.930 . S
C1344 N1339 1.307 . S
C1344 C1341 1.402 . S
N1345 Gd1308 2.601 . S
N1345 C1346 1.359 . S
N1345 C1349 1.334 . S
C1346 C1343 1.426 . S
C1346 N1345 1.359 . S
C1346 C1350 1.413 . S
C1347 H1338 0.930 . S
C1347 C1348 1.359 . S
C1347 C1349 1.394 . S
C1348 C1347 1.359 . S
C1348 C1350 1.391 . S
C1348 H1351 0.929 . S
C1349 H1331 0.930 . S
C1349 N1345 1.334 . S
C1349 C1347 1.394 . S
C1350 C1346 1.413 . S
C1350 C1348 1.391 . S
C1350 C1365 1.437 . S
H1351 C1348 0.929 . S
O1352 Gd1308 2.545 . S
O1352 C1367 1.258 . S
O1353 Gd1308 2.606 . S
O1353 Gd1309 2.362 . S
O1353 C1364 1.284 . S
O1354 Gd1309 2.324 . S
O1354 C1374 1.254 . S
O1355 Gd1308 2.429 . S
O1355 C1374 1.268 . S
O1356 Gd1308 2.545 . S
O1356 C1364 1.250 . S
O1357 Gd1308 2.412 . S
O1357 C1367 1.252 . S
O1358 Gd1309 2.545 . S
O1358 C1376 1.258 . S
O1359 Gd1308 2.362 . S
O1359 Gd1309 2.606 . S
O1359 C1375 1.284 . S
O1360 Gd1308 2.324 . S
O1360 C1383 1.254 . S
O1361 Gd1309 2.429 . S
O1361 C1383 1.268 . S
O1362 Gd1309 2.545 . S
O1362 C1375 1.250 . S
O1363 Gd1309 2.412 . S
O1363 C1376 1.252 . S
C1364 O1353 1.284 . S
C1364 O1356 1.250 . S
C1365 H1334 0.929 . S
C1365 C1350 1.437 . S
C1365 C1366 1.317 . S
C1366 H1337 0.930 . S
C1366 C1342 1.431 . S
C1366 C1365 1.317 . S
C1367 Gd1308 2.828 . S
C1367 O1352 1.258 . S
C1367 O1357 1.252 . S
C1367 C1368 1.497 . S
C1368 C1367 1.497 . S
C1368 C1369 1.395 . S
C1368 C1370 1.380 . S
C1369 C1368 1.395 . S
C1369 C1372 1.398 . S
C1369 H1384 0.930 . S
C1370 C1368 1.380 . S
C1370 C1371 1.391 . S
C1370 H1385 0.930 . S
C1371 C1370 1.391 . S
C1371 C1373 1.387 . S
C1372 C1369 1.398 . S
C1372 C1373 1.380 . S
C1372 H1386 0.930 . S
C1373 C1371 1.387 . S
C1373 C1372 1.380 . S
C1373 H1387 0.930 . S
C1374 O1354 1.254 . S
C1374 O1355 1.268 . S
C1375 O1359 1.284 . S
C1375 O1362 1.250 . S
C1376 Gd1309 2.828 . S
C1376 O1358 1.258 . S
C1376 O1363 1.252 . S
C1376 C1377 1.497 . S
C1377 C1376 1.497 . S
C1377 C1378 1.395 . S
C1377 C1379 1.380 . S
C1378 C1377 1.395 . S
C1378 C1381 1.398 . S
C1378 H1388 0.930 . S
C1379 C1377 1.380 . S
C1379 C1380 1.391 . S
C1379 H1389 0.930 . S
C1380 C1379 1.391 . S
C1380 C1382 1.387 . S
C1381 C1378 1.398 . S
C1381 C1382 1.380 . S
C1381 H1390 0.930 . S
C1382 C1380 1.387 . S
C1382 C1381 1.380 . S
C1382 H1391 0.930 . S
C1383 O1360 1.254 . S
C1383 O1361 1.268 . S
H1384 C1369 0.930 . S
H1385 C1370 0.930 . S
H1386 C1372 0.930 . S
H1387 C1373 0.930 . S
H1388 C1378 0.930 . S
H1389 C1379 0.930 . S
H1390 C1381 0.930 . S
H1391 C1382 0.930 . S
Gd1392 N1423 2.661 . S
Gd1392 N1429 2.601 . S
Gd1392 O1436 2.545 . S
Gd1392 O1437 2.606 . S
Gd1392 O1439 2.429 . S
Gd1392 O1440 2.545 . S
Gd1392 O1441 2.412 . S
Gd1392 O1443 2.362 . S
Gd1392 O1444 2.324 . S
Gd1392 C1451 2.828 . S
Gd1393 N1402 2.661 . S
Gd1393 N1406 2.601 . S
Gd1393 O1437 2.362 . S
Gd1393 O1438 2.324 . S
Gd1393 O1442 2.545 . S
Gd1393 O1443 2.606 . S
Gd1393 O1445 2.429 . S
Gd1393 O1446 2.545 . S
Gd1393 O1447 2.412 . S
Gd1393 C1460 2.828 . S
C1394 C1397 1.417 . S
C1394 C1399 1.431 . S
C1394 C1400 1.412 . S
C1395 C1398 1.437 . S
C1395 C1399 1.317 . S
C1395 H1414 0.929 . S
C1396 C1397 1.426 . S
C1396 C1398 1.413 . S
C1396 N1406 1.359 . S
C1397 C1394 1.417 . S
C1397 C1396 1.426 . S
C1397 N1402 1.350 . S
C1398 C1395 1.437 . S
C1398 C1396 1.413 . S
C1398 C1408 1.391 . S
C1399 C1394 1.431 . S
C1399 C1395 1.317 . S
C1399 H1410 0.930 . S
C1400 C1394 1.412 . S
C1400 C1401 1.355 . S
C1400 H1412 0.930 . S
C1401 C1400 1.355 . S
C1401 C1403 1.402 . S
C1401 H1413 0.930 . S
N1402 Gd1393 2.661 . S
N1402 C1397 1.350 . S
N1402 C1403 1.307 . S
C1403 C1401 1.402 . S
C1403 N1402 1.307 . S
C1403 H1404 0.930 . S
H1404 C1403 0.930 . S
C1405 N1406 1.334 . S
C1405 C1407 1.394 . S
C1405 H1409 0.930 . S
N1406 Gd1393 2.601 . S
N1406 C1396 1.359 . S
N1406 C1405 1.334 . S
C1407 C1405 1.394 . S
C1407 C1408 1.359 . S
C1407 H1419 0.930 . S
C1408 C1398 1.391 . S
C1408 C1407 1.359 . S
C1408 H1420 0.929 . S
H1409 C1405 0.930 . S
H1410 C1399 0.930 . S
H1411 C1428 0.930 . S
H1412 C1400 0.930 . S
H1413 C1401 0.930 . S
H1414 C1395 0.929 . S
H1415 C1433 0.930 . S
H1416 C1424 0.930 . S
H1417 C1425 0.930 . S
H1418 C1449 0.929 . S
H1419 C1407 0.930 . S
H1420 C1408 0.929 . S
H1421 C1450 0.930 . S
H1422 C1431 0.930 . S
N1423 Gd1392 2.661 . S
N1423 C1427 1.350 . S
N1423 C1428 1.307 . S
C1424 H1416 0.930 . S
C1424 C1425 1.355 . S
C1424 C1426 1.412 . S
C1425 H1417 0.930 . S
C1425 C1424 1.355 . S
C1425 C1428 1.402 . S
C1426 C1424 1.412 . S
C1426 C1427 1.417 . S
C1426 C1450 1.431 . S
C1427 N1423 1.350 . S
C1427 C1426 1.417 . S
C1427 C1430 1.426 . S
C1428 H1411 0.930 . S
C1428 N1423 1.307 . S
C1428 C1425 1.402 . S
N1429 Gd1392 2.601 . S
N1429 C1430 1.359 . S
N1429 C1433 1.334 . S
C1430 C1427 1.426 . S
C1430 N1429 1.359 . S
C1430 C1434 1.413 . S
C1431 H1422 0.930 . S
C1431 C1432 1.359 . S
C1431 C1433 1.394 . S
C1432 C1431 1.359 . S
C1432 C1434 1.391 . S
C1432 H1435 0.929 . S
C1433 H1415 0.930 . S
C1433 N1429 1.334 . S
C1433 C1431 1.394 . S
C1434 C1430 1.413 . S
C1434 C1432 1.391 . S
C1434 C1449 1.437 . S
H1435 C1432 0.929 . S
O1436 Gd1392 2.545 . S
O1436 C1451 1.258 . S
O1437 Gd1392 2.606 . S
O1437 Gd1393 2.362 . S
O1437 C1448 1.284 . S
O1438 Gd1393 2.324 . S
O1438 C1458 1.254 . S
O1439 Gd1392 2.429 . S
O1439 C1458 1.268 . S
O1440 Gd1392 2.545 . S
O1440 C1448 1.250 . S
O1441 Gd1392 2.412 . S
O1441 C1451 1.252 . S
O1442 Gd1393 2.545 . S
O1442 C1460 1.258 . S
O1443 Gd1392 2.362 . S
O1443 Gd1393 2.606 . S
O1443 C1459 1.284 . S
O1444 Gd1392 2.324 . S
O1444 C1467 1.254 . S
O1445 Gd1393 2.429 . S
O1445 C1467 1.268 . S
O1446 Gd1393 2.545 . S
O1446 C1459 1.250 . S
O1447 Gd1393 2.412 . S
O1447 C1460 1.252 . S
C1448 O1437 1.284 . S
C1448 O1440 1.250 . S
C1449 H1418 0.929 . S
C1449 C1434 1.437 . S
C1449 C1450 1.317 . S
C1450 H1421 0.930 . S
C1450 C1426 1.431 . S
C1450 C1449 1.317 . S
C1451 Gd1392 2.828 . S
C1451 O1436 1.258 . S
C1451 O1441 1.252 . S
C1451 C1452 1.497 . S
C1452 C1451 1.497 . S
C1452 C1453 1.395 . S
C1452 C1454 1.380 . S
C1453 C1452 1.395 . S
C1453 C1456 1.398 . S
C1453 H1468 0.930 . S
C1454 C1452 1.380 . S
C1454 C1455 1.391 . S
C1454 H1469 0.930 . S
C1455 C1454 1.391 . S
C1455 C1457 1.387 . S
C1456 C1453 1.398 . S
C1456 C1457 1.380 . S
C1456 H1470 0.930 . S
C1457 C1455 1.387 . S
C1457 C1456 1.380 . S
C1457 H1471 0.930 . S
C1458 O1438 1.254 . S
C1458 O1439 1.268 . S
C1459 O1443 1.284 . S
C1459 O1446 1.250 . S
C1460 Gd1393 2.828 . S
C1460 O1442 1.258 . S
C1460 O1447 1.252 . S
C1460 C1461 1.497 . S
C1461 C1460 1.497 . S
C1461 C1462 1.395 . S
C1461 C1463 1.380 . S
C1462 C1461 1.395 . S
C1462 C1465 1.398 . S
C1462 H1472 0.930 . S
C1463 C1461 1.380 . S
C1463 C1464 1.391 . S
C1463 H1473 0.930 . S
C1464 C1463 1.391 . S
C1464 C1466 1.387 . S
C1465 C1462 1.398 . S
C1465 C1466 1.380 . S
C1465 H1474 0.930 . S
C1466 C1464 1.387 . S
C1466 C1465 1.380 . S
C1466 H1475 0.930 . S
C1467 O1444 1.254 . S
C1467 O1445 1.268 . S
H1468 C1453 0.930 . S
H1469 C1454 0.930 . S
H1470 C1456 0.930 . S
H1471 C1457 0.930 . S
H1472 C1462 0.930 . S
H1473 C1463 0.930 . S
H1474 C1465 0.930 . S
H1475 C1466 0.930 . S
C1476 C1477 1.387 . S
C1476 H1480 0.950 . S
C1476 C1485 1.390 . S
C1477 C1476 1.387 . S
C1477 C1479 1.387 . S
H1478 C1485 0.950 1_556 S
C1479 C1477 1.387 . S
C1479 C1481 1.390 . S
C1479 H1483 0.950 . S
H1480 C1476 0.950 . S
C1481 C1479 1.390 . S
C1481 C1482 1.387 . S
C1481 H1484 0.950 . S
C1482 C1481 1.387 . S
C1482 C1485 1.387 . S
H1483 C1479 0.950 . S
H1484 C1481 0.950 . S
C1485 C1476 1.390 . S
C1485 H1478 0.950 1_554 S
C1485 C1482 1.387 . S
C1486 C1487 1.387 . S
C1486 H1490 0.950 . S
C1486 C1495 1.390 . S
C1487 C1486 1.387 . S
C1487 C1489 1.387 . S
H1488 C1495 0.950 . S
C1489 C1487 1.387 . S
C1489 C1491 1.390 . S
C1489 H1493 0.950 . S
H1490 C1486 0.950 . S
C1491 C1489 1.390 . S
C1491 C1492 1.387 . S
C1491 H1494 0.950 . S
C1492 C1491 1.387 . S
C1492 C1495 1.387 . S
H1493 C1489 0.950 . S
H1494 C1491 0.950 . S
C1495 C1486 1.390 . S
C1495 H1488 0.950 . S
C1495 C1492 1.387 . S
C1496 C1497 1.387 . S
C1496 H1500 0.950 . S
C1496 C1505 1.390 . S
C1497 C1496 1.387 . S
C1497 C1499 1.387 . S
H1498 C1505 0.950 . S
C1499 C1497 1.387 . S
C1499 C1501 1.390 . S
C1499 H1503 0.950 . S
H1500 C1496 0.950 . S
C1501 C1499 1.390 . S
C1501 C1502 1.387 . S
C1501 H1504 0.950 . S
C1502 C1501 1.387 . S
C1502 C1505 1.387 . S
H1503 C1499 0.950 . S
H1504 C1501 0.950 . S
C1505 C1496 1.390 . S
C1505 H1498 0.950 . S
C1505 C1502 1.387 . S
C1506 C1507 1.387 . S
C1506 H1510 0.950 . S
C1506 C1515 1.390 . S
C1507 C1506 1.387 . S
C1507 C1509 1.387 . S
H1508 C1515 0.950 . S
C1509 C1507 1.387 . S
C1509 C1511 1.390 . S
C1509 H1513 0.950 . S
H1510 C1506 0.950 . S
C1511 C1509 1.390 . S
C1511 C1512 1.387 . S
C1511 H1514 0.950 . S
C1512 C1511 1.387 . S
C1512 C1515 1.387 . S
H1513 C1509 0.950 . S
H1514 C1511 0.950 . S
C1515 C1506 1.390 . S
C1515 H1508 0.950 . S
C1515 C1512 1.387 . S
C1516 C1517 1.387 . S
C1516 H1520 0.950 . S
C1516 C1525 1.390 . S
C1517 C1516 1.387 . S
C1517 C1519 1.387 . S
H1518 C1525 0.950 . S
C1519 C1517 1.387 . S
C1519 C1521 1.390 . S
C1519 H1523 0.950 . S
H1520 C1516 0.950 . S
C1521 C1519 1.390 . S
C1521 C1522 1.387 . S
C1521 H1524 0.950 1_556 S
C1522 C1521 1.387 . S
C1522 C1525 1.387 . S
H1523 C1519 0.950 . S
H1524 C1521 0.950 1_554 S
C1525 C1516 1.390 . S
C1525 H1518 0.950 . S
C1525 C1522 1.387 . S
C1526 C1527 1.387 . S
C1526 H1530 0.950 . S
C1526 C1535 1.390 . S
C1527 C1526 1.387 . S
C1527 C1529 1.387 . S
H1528 C1535 0.950 . S
C1529 C1527 1.387 . S
C1529 C1531 1.390 . S
C1529 H1533 0.950 1_556 S
H1530 C1526 0.950 . S
C1531 C1529 1.390 . S
C1531 C1532 1.387 . S
C1531 H1534 0.950 1_556 S
C1532 C1531 1.387 . S
C1532 C1535 1.387 . S
H1533 C1529 0.950 1_554 S
H1534 C1531 0.950 1_554 S
C1535 C1526 1.390 . S
C1535 H1528 0.950 . S
C1535 C1532 1.387 . S
C1536 C1537 1.387 . S
C1536 H1540 0.950 . S
C1536 C1545 1.390 . S
C1537 C1536 1.387 . S
C1537 C1539 1.387 . S
H1538 C1545 0.950 . S
C1539 C1537 1.387 . S
C1539 C1541 1.390 . S
C1539 H1543 0.950 . S
H1540 C1536 0.950 . S
C1541 C1539 1.390 . S
C1541 C1542 1.387 . S
C1541 H1544 0.953 1_556 S
C1542 C1541 1.387 . S
C1542 C1545 1.387 . S
H1543 C1539 0.950 . S
H1544 C1541 0.953 1_554 S
C1545 C1536 1.390 . S
C1545 H1538 0.950 . S
C1545 C1542 1.387 . S
C1546 C1547 1.387 . S
C1546 H1550 0.950 . S
C1546 C1555 1.390 . S
C1547 C1546 1.387 . S
C1547 C1549 1.387 . S
H1548 C1555 0.950 . S
C1549 C1547 1.387 . S
C1549 C1551 1.390 . S
C1549 H1553 0.950 . S
H1550 C1546 0.950 . S
C1551 C1549 1.390 . S
C1551 C1552 1.387 . S
C1551 H1554 0.950 . S
C1552 C1551 1.387 . S
C1552 C1555 1.387 . S
H1553 C1549 0.950 . S
H1554 C1551 0.950 . S
C1555 C1546 1.390 . S
C1555 H1548 0.950 . S
C1555 C1552 1.387 . S
C1556 C1557 1.387 . S
C1556 H1560 0.950 1_556 S
C1556 C1565 1.390 . S
C1557 C1556 1.387 . S
C1557 C1559 1.387 . S
H1558 C1565 0.950 1_554 S
C1559 C1557 1.387 . S
C1559 C1561 1.390 . S
C1559 H1563 0.950 . S
H1560 C1556 0.950 1_554 S
C1561 C1559 1.390 . S
C1561 C1562 1.387 . S
C1561 H1564 0.950 . S
C1562 C1561 1.387 . S
C1562 C1565 1.387 . S
H1563 C1559 0.950 . S
H1564 C1561 0.950 . S
C1565 C1556 1.390 . S
C1565 H1558 0.950 1_556 S
C1565 C1562 1.387 . S
C1566 C1567 1.387 . S
C1566 H1570 0.950 . S
C1566 C1575 1.390 . S
C1567 C1566 1.387 . S
C1567 C1569 1.387 . S
H1568 C1575 0.950 . S
C1569 C1567 1.387 . S
C1569 C1571 1.390 . S
C1569 H1573 0.950 . S
H1570 C1566 0.950 . S
C1571 C1569 1.390 . S
C1571 C1572 1.387 . S
C1571 H1574 0.950 . S
C1572 C1571 1.387 . S
C1572 C1575 1.387 . S
H1573 C1569 0.950 . S
H1574 C1571 0.950 . S
C1575 C1566 1.390 . S
C1575 H1568 0.950 . S
C1575 C1572 1.387 . S
C1576 C1577 1.387 . S
C1576 H1580 0.950 . S
C1576 C1585 1.390 . S
C1577 C1576 1.387 . S
C1577 C1579 1.387 . S
H1578 C1585 0.950 . S
C1579 C1577 1.387 . S
C1579 C1581 1.390 . S
C1579 H1583 0.950 . S
H1580 C1576 0.950 . S
C1581 C1579 1.390 . S
C1581 C1582 1.387 . S
C1581 H1584 0.950 . S
C1582 C1581 1.387 . S
C1582 C1585 1.387 . S
H1583 C1579 0.950 . S
H1584 C1581 0.950 . S
C1585 C1576 1.390 . S
C1585 H1578 0.950 . S
C1585 C1582 1.387 . S
C1586 C1587 1.387 . S
C1586 H1590 0.950 . S
C1586 C1595 1.390 . S
C1587 C1586 1.387 . S
C1587 C1589 1.387 . S
H1588 C1595 0.950 . S
C1589 C1587 1.387 . S
C1589 C1591 1.390 . S
C1589 H1593 0.950 . S
H1590 C1586 0.950 . S
C1591 C1589 1.390 . S
C1591 C1592 1.387 . S
C1591 H1594 0.950 . S
C1592 C1591 1.387 . S
C1592 C1595 1.387 . S
H1593 C1589 0.950 . S
H1594 C1591 0.950 . S
C1595 C1586 1.390 . S
C1595 H1588 0.950 . S
C1595 C1592 1.387 . S
C1596 C1597 1.387 . S
C1596 H1600 0.950 . S
C1596 C1605 1.390 . S
C1597 C1596 1.387 . S
C1597 C1599 1.387 . S
H1598 C1605 0.950 . S
C1599 C1597 1.387 . S
C1599 C1601 1.390 . S
C1599 H1603 0.950 . S
H1600 C1596 0.950 . S
C1601 C1599 1.390 . S
C1601 C1602 1.387 . S
C1601 H1604 0.950 . S
C1602 C1601 1.387 . S
C1602 C1605 1.387 . S
H1603 C1599 0.950 . S
H1604 C1601 0.950 . S
C1605 C1596 1.390 . S
C1605 H1598 0.950 . S
C1605 C1602 1.387 . S
C1606 C1607 1.387 . S
C1606 H1610 0.950 . S
C1606 C1615 1.390 . S
C1607 C1606 1.387 . S
C1607 C1609 1.387 . S
H1608 C1615 0.950 . S
C1609 C1607 1.387 . S
C1609 C1611 1.390 . S
C1609 H1613 0.950 . S
H1610 C1606 0.950 . S
C1611 C1609 1.390 . S
C1611 C1612 1.387 . S
C1611 H1614 0.950 . S
C1612 C1611 1.387 . S
C1612 C1615 1.387 . S
H1613 C1609 0.950 . S
H1614 C1611 0.950 . S
C1615 C1606 1.390 . S
C1615 H1608 0.950 . S
C1615 C1612 1.387 . S
C1616 C1617 1.387 . S
C1616 H1620 0.950 . S
C1616 C1625 1.390 . S
C1617 C1616 1.387 . S
C1617 C1619 1.387 . S
H1618 C1625 0.950 . S
C1619 C1617 1.387 . S
C1619 C1621 1.390 . S
C1619 H1623 0.950 . S
H1620 C1616 0.950 . S
C1621 C1619 1.390 . S
C1621 C1622 1.387 . S
C1621 H1624 0.950 . S
C1622 C1621 1.387 . S
C1622 C1625 1.387 . S
H1623 C1619 0.950 . S
H1624 C1621 0.950 . S
C1625 C1616 1.390 . S
C1625 H1618 0.950 . S
C1625 C1622 1.387 . S
C1626 C1627 1.387 . S
C1626 H1630 0.950 . S
C1626 C1635 1.390 . S
C1627 C1626 1.387 . S
C1627 C1629 1.387 . S
H1628 C1635 0.950 . S
C1629 C1627 1.387 . S
C1629 C1631 1.390 . S
C1629 H1633 0.950 . S
H1630 C1626 0.950 . S
C1631 C1629 1.390 . S
C1631 C1632 1.387 . S
C1631 H1634 0.950 . S
C1632 C1631 1.387 . S
C1632 C1635 1.387 . S
H1633 C1629 0.950 . S
H1634 C1631 0.950 . S
C1635 C1626 1.390 . S
C1635 H1628 0.950 . S
C1635 C1632 1.387 . S
C1636 C1637 1.387 . S
C1636 H1640 0.950 . S
C1636 C1645 1.390 . S
C1637 C1636 1.387 . S
C1637 C1639 1.387 . S
H1638 C1645 0.950 . S
C1639 C1637 1.387 . S
C1639 C1641 1.390 . S
C1639 H1643 0.950 . S
H1640 C1636 0.950 . S
C1641 C1639 1.390 . S
C1641 C1642 1.387 . S
C1641 H1644 0.950 . S
C1642 C1641 1.387 . S
C1642 C1645 1.387 . S
H1643 C1639 0.950 . S
H1644 C1641 0.950 . S
C1645 C1636 1.390 . S
C1645 H1638 0.950 . S
C1645 C1642 1.387 . S
C1646 C1647 1.387 . S
C1646 H1650 0.950 . S
C1646 C1655 1.390 . S
C1647 C1646 1.387 . S
C1647 C1649 1.387 . S
H1648 C1655 0.950 . S
C1649 C1647 1.387 . S
C1649 C1651 1.390 . S
C1649 H1653 0.950 . S
H1650 C1646 0.950 . S
C1651 C1649 1.390 . S
C1651 C1652 1.387 . S
C1651 H1654 0.950 . S
C1652 C1651 1.387 . S
C1652 C1655 1.387 . S
H1653 C1649 0.950 . S
H1654 C1651 0.950 . S
C1655 C1646 1.390 . S
C1655 H1648 0.950 . S
C1655 C1652 1.387 . S
C1656 C1657 1.387 . S
C1656 H1660 0.950 . S
C1656 C1665 1.390 . S
C1657 C1656 1.387 . S
C1657 C1659 1.387 . S
H1658 C1665 0.950 . S
C1659 C1657 1.387 . S
C1659 C1661 1.390 . S
C1659 H1663 0.950 . S
H1660 C1656 0.950 . S
C1661 C1659 1.390 . S
C1661 C1662 1.387 . S
C1661 H1664 0.950 . S
C1662 C1661 1.387 . S
C1662 C1665 1.387 . S
H1663 C1659 0.950 . S
H1664 C1661 0.950 . S
C1665 C1656 1.390 . S
C1665 H1658 0.950 . S
C1665 C1662 1.387 . S
C1666 C1667 1.387 . S
C1666 H1670 0.950 . S
C1666 C1675 1.390 . S
C1667 C1666 1.387 . S
C1667 C1669 1.387 . S
H1668 C1675 0.950 . S
C1669 C1667 1.387 . S
C1669 C1671 1.390 . S
C1669 H1673 0.950 . S
H1670 C1666 0.950 . S
C1671 C1669 1.390 . S
C1671 C1672 1.387 . S
C1671 H1674 0.950 . S
C1672 C1671 1.387 . S
C1672 C1675 1.387 . S
H1673 C1669 0.950 . S
H1674 C1671 0.950 . S
C1675 C1666 1.390 . S
C1675 H1668 0.950 . S
C1675 C1672 1.387 . S
C1676 C1677 1.387 . S
C1676 H1680 0.950 . S
C1676 C1685 1.390 . S
C1677 C1676 1.387 . S
C1677 C1679 1.387 . S
H1678 C1685 0.950 . S
C1679 C1677 1.387 . S
C1679 C1681 1.390 . S
C1679 H1683 0.950 . S
H1680 C1676 0.950 . S
C1681 C1679 1.390 . S
C1681 C1682 1.387 . S
C1681 H1684 0.950 . S
C1682 C1681 1.387 . S
C1682 C1685 1.387 . S
H1683 C1679 0.950 . S
H1684 C1681 0.950 . S
C1685 C1676 1.390 . S
C1685 H1678 0.950 . S
C1685 C1682 1.387 . S
C1686 C1687 1.387 . S
C1686 H1690 0.950 . S
C1686 C1695 1.390 . S
C1687 C1686 1.387 . S
C1687 C1689 1.387 . S
H1688 C1695 0.950 . S
C1689 C1687 1.387 . S
C1689 C1691 1.390 . S
C1689 H1693 0.950 . S
H1690 C1686 0.950 . S
C1691 C1689 1.390 . S
C1691 C1692 1.387 . S
C1691 H1694 0.950 . S
C1692 C1691 1.387 . S
C1692 C1695 1.387 . S
H1693 C1689 0.950 . S
H1694 C1691 0.950 . S
C1695 C1686 1.390 . S
C1695 H1688 0.950 . S
C1695 C1692 1.387 . S
C1696 C1697 1.387 . S
C1696 H1700 0.950 . S
C1696 C1705 1.390 . S
C1697 C1696 1.387 . S
C1697 C1699 1.387 . S
H1698 C1705 0.950 . S
C1699 C1697 1.387 . S
C1699 C1701 1.390 . S
C1699 H1703 0.950 . S
H1700 C1696 0.950 . S
C1701 C1699 1.390 . S
C1701 C1702 1.387 . S
C1701 H1704 0.950 . S
C1702 C1701 1.387 . S
C1702 C1705 1.387 . S
H1703 C1699 0.950 . S
H1704 C1701 0.950 . S
C1705 C1696 1.390 . S
C1705 H1698 0.950 . S
C1705 C1702 1.387 . S
C1706 C1707 1.387 . S
C1706 H1710 0.950 . S
C1706 C1715 1.390 . S
C1707 C1706 1.387 . S
C1707 C1709 1.387 . S
H1708 C1715 0.950 . S
C1709 C1707 1.387 . S
C1709 C1711 1.390 . S
C1709 H1713 0.950 . S
H1710 C1706 0.950 . S
C1711 C1709 1.390 . S
C1711 C1712 1.387 . S
C1711 H1714 0.950 . S
C1712 C1711 1.387 . S
C1712 C1715 1.387 . S
H1713 C1709 0.950 . S
H1714 C1711 0.950 . S
C1715 C1706 1.390 . S
C1715 H1708 0.950 . S
C1715 C1712 1.387 . S
C1716 C1717 1.387 . S
C1716 H1720 0.950 . S
C1716 C1725 1.390 . S
C1717 C1716 1.387 . S
C1717 C1719 1.387 . S
H1718 C1725 0.950 . S
C1719 C1717 1.387 . S
C1719 C1721 1.390 . S
C1719 H1723 0.950 . S
H1720 C1716 0.950 . S
C1721 C1719 1.390 . S
C1721 C1722 1.387 . S
C1721 H1724 0.950 . S
C1722 C1721 1.387 . S
C1722 C1725 1.387 . S
H1723 C1719 0.950 . S
H1724 C1721 0.950 . S
C1725 C1716 1.390 . S
C1725 H1718 0.950 . S
C1725 C1722 1.387 . S
C1726 C1727 1.387 . S
C1726 H1730 0.950 . S
C1726 C1735 1.390 . S
C1727 C1726 1.387 . S
C1727 C1729 1.387 . S
H1728 C1735 0.950 . S
C1729 C1727 1.387 . S
C1729 C1731 1.390 . S
C1729 H1733 0.950 . S
H1730 C1726 0.950 . S
C1731 C1729 1.390 . S
C1731 C1732 1.387 . S
C1731 H1734 0.950 . S
C1732 C1731 1.387 . S
C1732 C1735 1.387 . S
H1733 C1729 0.950 . S
H1734 C1731 0.950 . S
C1735 C1726 1.390 . S
C1735 H1728 0.950 . S
C1735 C1732 1.387 . S
C1736 C1737 1.387 . S
C1736 H1740 0.950 . S
C1736 C1745 1.390 . S
C1737 C1736 1.387 . S
C1737 C1739 1.387 . S
H1738 C1745 0.950 . S
C1739 C1737 1.387 . S
C1739 C1741 1.390 . S
C1739 H1743 0.950 . S
H1740 C1736 0.950 . S
C1741 C1739 1.390 . S
C1741 C1742 1.387 . S
C1741 H1744 0.950 . S
C1742 C1741 1.387 . S
C1742 C1745 1.387 . S
H1743 C1739 0.950 . S
H1744 C1741 0.950 . S
C1745 C1736 1.390 . S
C1745 H1738 0.950 . S
C1745 C1742 1.387 . S
C1746 C1747 1.387 . S
C1746 H1750 0.950 . S
C1746 C1755 1.390 . S
C1747 C1746 1.387 . S
C1747 C1749 1.387 . S
H1748 C1755 0.950 . S
C1749 C1747 1.387 . S
C1749 C1751 1.390 . S
C1749 H1753 0.950 . S
H1750 C1746 0.950 . S
C1751 C1749 1.390 . S
C1751 C1752 1.387 . S
C1751 H1754 0.950 . S
C1752 C1751 1.387 . S
C1752 C1755 1.387 . S
H1753 C1749 0.950 . S
H1754 C1751 0.950 . S
C1755 C1746 1.390 . S
C1755 H1748 0.950 . S
C1755 C1752 1.387 . S
C1756 C1757 1.387 . S
C1756 H1760 0.950 . S
C1756 C1765 1.390 . S
C1757 C1756 1.387 . S
C1757 C1759 1.387 . S
H1758 C1765 0.950 . S
C1759 C1757 1.387 . S
C1759 C1761 1.390 . S
C1759 H1763 0.950 . S
H1760 C1756 0.950 . S
C1761 C1759 1.390 . S
C1761 C1762 1.387 . S
C1761 H1764 0.950 . S
C1762 C1761 1.387 . S
C1762 C1765 1.387 . S
H1763 C1759 0.950 . S
H1764 C1761 0.950 . S
C1765 C1756 1.390 . S
C1765 H1758 0.950 . S
C1765 C1762 1.387 . S
C1766 C1767 1.387 . S
C1766 H1770 0.950 . S
C1766 C1775 1.390 . S
C1767 C1766 1.387 . S
C1767 C1769 1.387 . S
H1768 C1775 0.950 . S
C1769 C1767 1.387 . S
C1769 C1771 1.390 . S
C1769 H1773 0.950 . S
H1770 C1766 0.950 . S
C1771 C1769 1.390 . S
C1771 C1772 1.387 . S
C1771 H1774 0.950 . S
C1772 C1771 1.387 . S
C1772 C1775 1.387 . S
H1773 C1769 0.950 . S
H1774 C1771 0.950 . S
C1775 C1766 1.390 . S
C1775 H1768 0.950 . S
C1775 C1772 1.387 . S
C1776 C1777 1.387 . S
C1776 H1780 0.950 . S
C1776 C1785 1.390 . S
C1777 C1776 1.387 . S
C1777 C1779 1.387 . S
H1778 C1785 0.950 . S
C1779 C1777 1.387 . S
C1779 C1781 1.390 . S
C1779 H1783 0.950 . S
H1780 C1776 0.950 . S
C1781 C1779 1.390 . S
C1781 C1782 1.387 . S
C1781 H1784 0.950 . S
C1782 C1781 1.387 . S
C1782 C1785 1.387 . S
H1783 C1779 0.950 . S
H1784 C1781 0.950 . S
C1785 C1776 1.390 . S
C1785 H1778 0.950 . S
C1785 C1782 1.387 . S
C1786 C1787 1.387 . S
C1786 H1790 0.950 . S
C1786 C1795 1.390 . S
C1787 C1786 1.387 . S
C1787 C1789 1.387 . S
H1788 C1795 0.950 . S
C1789 C1787 1.387 . S
C1789 C1791 1.390 . S
C1789 H1793 0.950 . S
H1790 C1786 0.950 . S
C1791 C1789 1.390 . S
C1791 C1792 1.387 . S
C1791 H1794 0.950 . S
C1792 C1791 1.387 . S
C1792 C1795 1.387 . S
H1793 C1789 0.950 . S
H1794 C1791 0.950 . S
C1795 C1786 1.390 . S
C1795 H1788 0.950 . S
C1795 C1792 1.387 . S
C1796 C1797 1.387 . S
C1796 H1800 0.950 . S
C1796 C1805 1.390 . S
C1797 C1796 1.387 . S
C1797 C1799 1.387 . S
H1798 C1805 0.950 . S
C1799 C1797 1.387 . S
C1799 C1801 1.390 . S
C1799 H1803 0.950 . S
H1800 C1796 0.950 . S
C1801 C1799 1.390 . S
C1801 C1802 1.387 . S
C1801 H1804 0.950 . S
C1802 C1801 1.387 . S
C1802 C1805 1.387 . S
H1803 C1799 0.950 . S
H1804 C1801 0.950 . S
C1805 C1796 1.390 . S
C1805 H1798 0.950 . S
C1805 C1802 1.387 . S
C1806 C1807 1.387 . S
C1806 H1810 0.950 . S
C1806 C1815 1.390 . S
C1807 C1806 1.387 . S
C1807 C1809 1.387 . S
H1808 C1815 0.950 . S
C1809 C1807 1.387 . S
C1809 C1811 1.390 . S
C1809 H1813 0.950 . S
H1810 C1806 0.950 . S
C1811 C1809 1.390 . S
C1811 C1812 1.387 . S
C1811 H1814 0.950 . S
C1812 C1811 1.387 . S
C1812 C1815 1.387 . S
H1813 C1809 0.950 . S
H1814 C1811 0.950 . S
C1815 C1806 1.390 . S
C1815 H1808 0.950 . S
C1815 C1812 1.387 . S
C1816 C1817 1.387 . S
C1816 H1820 0.950 . S
C1816 C1825 1.390 . S
C1817 C1816 1.387 . S
C1817 C1819 1.387 . S
H1818 C1825 0.950 . S
C1819 C1817 1.387 . S
C1819 C1821 1.390 . S
C1819 H1823 0.950 . S
H1820 C1816 0.950 . S
C1821 C1819 1.390 . S
C1821 C1822 1.387 . S
C1821 H1824 0.950 . S
C1822 C1821 1.387 . S
C1822 C1825 1.387 . S
H1823 C1819 0.950 . S
H1824 C1821 0.950 . S
C1825 C1816 1.390 . S
C1825 H1818 0.950 . S
C1825 C1822 1.387 . S
C1826 C1827 1.387 . S
C1826 H1830 0.950 . S
C1826 C1835 1.390 . S
C1827 C1826 1.387 . S
C1827 C1829 1.387 . S
H1828 C1835 0.950 . S
C1829 C1827 1.387 . S
C1829 C1831 1.390 . S
C1829 H1833 0.950 . S
H1830 C1826 0.950 . S
C1831 C1829 1.390 . S
C1831 C1832 1.387 . S
C1831 H1834 0.950 . S
C1832 C1831 1.387 . S
C1832 C1835 1.387 . S
H1833 C1829 0.950 . S
H1834 C1831 0.950 . S
C1835 C1826 1.390 . S
C1835 H1828 0.950 . S
C1835 C1832 1.387 . S
C1836 C1837 1.387 . S
C1836 H1840 0.950 . S
C1836 C1845 1.390 . S
C1837 C1836 1.387 . S
C1837 C1839 1.387 . S
H1838 C1845 0.950 . S
C1839 C1837 1.387 . S
C1839 C1841 1.390 . S
C1839 H1843 0.950 . S
H1840 C1836 0.950 . S
C1841 C1839 1.390 . S
C1841 C1842 1.387 . S
C1841 H1844 0.950 . S
C1842 C1841 1.387 . S
C1842 C1845 1.387 . S
H1843 C1839 0.950 . S
H1844 C1841 0.950 . S
C1845 C1836 1.390 . S
C1845 H1838 0.950 . S
C1845 C1842 1.387 . S
C1846 C1847 1.387 . S
C1846 H1850 0.950 1_455 S
C1846 C1855 1.390 . S
C1847 C1846 1.387 . S
C1847 C1849 1.387 . S
H1848 C1855 0.950 1_655 S
C1849 C1847 1.387 . S
C1849 C1851 1.390 . S
C1849 H1853 0.950 . S
H1850 C1846 0.950 1_655 S
C1851 C1849 1.390 . S
C1851 C1852 1.387 . S
C1851 H1854 0.950 . S
C1852 C1851 1.387 . S
C1852 C1855 1.387 . S
H1853 C1849 0.950 . S
H1854 C1851 0.950 . S
C1855 C1846 1.390 . S
C1855 H1848 0.950 1_455 S
C1855 C1852 1.387 . S
C1856 C1857 1.387 . S
C1856 H1860 0.950 . S
C1856 C1865 1.390 . S
C1857 C1856 1.387 . S
C1857 C1859 1.387 . S
H1858 C1865 0.950 . S
C1859 C1857 1.387 . S
C1859 C1861 1.390 . S
C1859 H1863 0.950 . S
H1860 C1856 0.950 . S
C1861 C1859 1.390 . S
C1861 C1862 1.387 . S
C1861 H1864 0.950 . S
C1862 C1861 1.387 . S
C1862 C1865 1.387 . S
H1863 C1859 0.950 . S
H1864 C1861 0.950 . S
C1865 C1856 1.390 . S
C1865 H1858 0.950 . S
C1865 C1862 1.387 . S
C1866 C1867 1.387 . S
C1866 H1870 0.950 . S
C1866 C1875 1.390 . S
C1867 C1866 1.387 . S
C1867 C1869 1.387 . S
H1868 C1875 0.950 . S
C1869 C1867 1.387 . S
C1869 C1871 1.390 . S
C1869 H1873 0.950 . S
H1870 C1866 0.950 . S
C1871 C1869 1.390 . S
C1871 C1872 1.387 . S
C1871 H1874 0.950 . S
C1872 C1871 1.387 . S
C1872 C1875 1.387 . S
H1873 C1869 0.950 . S
H1874 C1871 0.950 . S
C1875 C1866 1.390 . S
C1875 H1868 0.950 . S
C1875 C1872 1.387 . S
C1876 C1877 1.387 . S
C1876 H1880 0.950 . S
C1876 C1885 1.390 . S
C1877 C1876 1.387 . S
C1877 C1879 1.387 . S
H1878 C1885 0.950 . S
C1879 C1877 1.387 . S
C1879 C1881 1.390 . S
C1879 H1883 0.950 . S
H1880 C1876 0.950 . S
C1881 C1879 1.390 . S
C1881 C1882 1.387 . S
C1881 H1884 0.950 . S
C1882 C1881 1.387 . S
C1882 C1885 1.387 . S
H1883 C1879 0.950 . S
H1884 C1881 0.950 . S
C1885 C1876 1.390 . S
C1885 H1878 0.950 . S
C1885 C1882 1.387 . S
C1886 C1887 1.387 . S
C1886 H1890 0.950 . S
C1886 C1895 1.390 . S
C1887 C1886 1.387 . S
C1887 C1889 1.387 . S
H1888 C1895 0.950 . S
C1889 C1887 1.387 . S
C1889 C1891 1.390 . S
C1889 H1893 0.950 . S
H1890 C1886 0.950 . S
C1891 C1889 1.390 . S
C1891 C1892 1.387 . S
C1891 H1894 0.950 . S
C1892 C1891 1.387 . S
C1892 C1895 1.387 . S
H1893 C1889 0.950 . S
H1894 C1891 0.950 . S
C1895 C1886 1.390 . S
C1895 H1888 0.950 . S
C1895 C1892 1.387 . S
C1896 C1897 1.387 . S
C1896 H1900 0.950 . S
C1896 C1905 1.390 . S
C1897 C1896 1.387 . S
C1897 C1899 1.387 . S
H1898 C1905 0.950 . S
C1899 C1897 1.387 . S
C1899 C1901 1.390 . S
C1899 H1903 0.950 . S
H1900 C1896 0.950 . S
C1901 C1899 1.390 . S
C1901 C1902 1.387 . S
C1901 H1904 0.950 . S
C1902 C1901 1.387 . S
C1902 C1905 1.387 . S
H1903 C1899 0.950 . S
H1904 C1901 0.950 . S
C1905 C1896 1.390 . S
C1905 H1898 0.950 . S
C1905 C1902 1.387 . S
C1906 C1907 1.387 . S
C1906 H1910 0.950 . S
C1906 C1915 1.390 . S
C1907 C1906 1.387 . S
C1907 C1909 1.387 . S
H1908 C1915 0.950 . S
C1909 C1907 1.387 . S
C1909 C1911 1.390 . S
C1909 H1913 0.950 . S
H1910 C1906 0.950 . S
C1911 C1909 1.390 . S
C1911 C1912 1.387 . S
C1911 H1914 0.950 . S
C1912 C1911 1.387 . S
C1912 C1915 1.387 . S
H1913 C1909 0.950 . S
H1914 C1911 0.950 . S
C1915 C1906 1.390 . S
C1915 H1908 0.950 . S
C1915 C1912 1.387 . S
C1916 C1917 1.387 . S
C1916 H1920 0.950 . S
C1916 C1925 1.390 . S
C1917 C1916 1.387 . S
C1917 C1919 1.387 . S
H1918 C1925 0.950 . S
C1919 C1917 1.387 . S
C1919 C1921 1.390 . S
C1919 H1923 0.950 . S
H1920 C1916 0.950 . S
C1921 C1919 1.390 . S
C1921 C1922 1.387 . S
C1921 H1924 0.950 . S
C1922 C1921 1.387 . S
C1922 C1925 1.387 . S
H1923 C1919 0.950 . S
H1924 C1921 0.950 . S
C1925 C1916 1.390 . S
C1925 H1918 0.950 . S
C1925 C1922 1.387 . S
C1926 C1927 1.387 . S
C1926 H1930 0.950 . S
C1926 C1935 1.390 . S
C1927 C1926 1.387 . S
C1927 C1929 1.387 . S
H1928 C1935 0.950 . S
C1929 C1927 1.387 . S
C1929 C1931 1.390 . S
C1929 H1933 0.950 . S
H1930 C1926 0.950 . S
C1931 C1929 1.390 . S
C1931 C1932 1.387 . S
C1931 H1934 0.950 . S
C1932 C1931 1.387 . S
C1932 C1935 1.387 . S
H1933 C1929 0.950 . S
H1934 C1931 0.950 . S
C1935 C1926 1.390 . S
C1935 H1928 0.950 . S
C1935 C1932 1.387 . S
C1936 C1937 1.387 . S
C1936 H1940 0.950 . S
C1936 C1945 1.390 . S
C1937 C1936 1.387 . S
C1937 C1939 1.387 . S
H1938 C1945 0.950 . S
C1939 C1937 1.387 . S
C1939 C1941 1.390 . S
C1939 H1943 0.950 . S
H1940 C1936 0.950 . S
C1941 C1939 1.390 . S
C1941 C1942 1.387 . S
C1941 H1944 0.950 . S
C1942 C1941 1.387 . S
C1942 C1945 1.387 . S
H1943 C1939 0.950 . S
H1944 C1941 0.950 . S
C1945 C1936 1.390 . S
C1945 H1938 0.950 . S
C1945 C1942 1.387 . S
C1946 C1947 1.387 . S
C1946 H1950 0.950 . S
C1946 C1955 1.390 . S
C1947 C1946 1.387 . S
C1947 C1949 1.387 . S
H1948 C1955 0.950 . S
C1949 C1947 1.387 . S
C1949 C1951 1.390 . S
C1949 H1953 0.950 . S
H1950 C1946 0.950 . S
C1951 C1949 1.390 . S
C1951 C1952 1.387 . S
C1951 H1954 0.950 . S
C1952 C1951 1.387 . S
C1952 C1955 1.387 . S
H1953 C1949 0.950 . S
H1954 C1951 0.950 . S
C1955 C1946 1.390 . S
C1955 H1948 0.950 . S
C1955 C1952 1.387 . S
C1956 C1957 1.387 . S
C1956 H1960 0.950 . S
C1956 C1965 1.390 . S
C1957 C1956 1.387 . S
C1957 C1959 1.387 . S
H1958 C1965 0.950 . S
C1959 C1957 1.387 . S
C1959 C1961 1.390 . S
C1959 H1963 0.950 . S
H1960 C1956 0.950 . S
C1961 C1959 1.390 . S
C1961 C1962 1.387 . S
C1961 H1964 0.950 . S
C1962 C1961 1.387 . S
C1962 C1965 1.387 . S
H1963 C1959 0.950 . S
H1964 C1961 0.950 . S
C1965 C1956 1.390 . S
C1965 H1958 0.950 . S
C1965 C1962 1.387 . S
C1966 C1967 1.387 . S
C1966 H1970 0.950 . S
C1966 C1975 1.390 . S
C1967 C1966 1.387 . S
C1967 C1969 1.387 . S
H1968 C1975 0.950 . S
C1969 C1967 1.387 . S
C1969 C1971 1.390 . S
C1969 H1973 0.950 . S
H1970 C1966 0.950 . S
C1971 C1969 1.390 . S
C1971 C1972 1.387 . S
C1971 H1974 0.950 . S
C1972 C1971 1.387 . S
C1972 C1975 1.387 . S
H1973 C1969 0.950 . S
H1974 C1971 0.950 . S
C1975 C1966 1.390 . S
C1975 H1968 0.950 . S
C1975 C1972 1.387 . S
C1976 C1977 1.387 . S
C1976 H1980 0.950 . S
C1976 C1985 1.390 . S
C1977 C1976 1.387 . S
C1977 C1979 1.387 . S
H1978 C1985 0.950 . S
C1979 C1977 1.387 . S
C1979 C1981 1.390 . S
C1979 H1983 0.950 . S
H1980 C1976 0.950 . S
C1981 C1979 1.390 . S
C1981 C1982 1.387 . S
C1981 H1984 0.950 . S
C1982 C1981 1.387 . S
C1982 C1985 1.387 . S
H1983 C1979 0.950 . S
H1984 C1981 0.950 . S
C1985 C1976 1.390 . S
C1985 H1978 0.950 . S
C1985 C1982 1.387 . S
C1986 C1987 1.387 . S
C1986 H1990 0.950 . S
C1986 C1995 1.390 . S
C1987 C1986 1.387 . S
C1987 C1989 1.387 . S
H1988 C1995 0.950 . S
C1989 C1987 1.387 . S
C1989 C1991 1.390 . S
C1989 H1993 0.950 . S
H1990 C1986 0.950 . S
C1991 C1989 1.390 . S
C1991 C1992 1.387 . S
C1991 H1994 0.950 . S
C1992 C1991 1.387 . S
C1992 C1995 1.387 . S
H1993 C1989 0.950 . S
H1994 C1991 0.950 . S
C1995 C1986 1.390 . S
C1995 H1988 0.950 . S
C1995 C1992 1.387 . S
C1996 C1997 1.387 . S
C1996 H2000 0.950 . S
C1996 C2005 1.390 . S
C1997 C1996 1.387 . S
C1997 C1999 1.387 . S
H1998 C2005 0.950 . S
C1999 C1997 1.387 . S
C1999 C2001 1.390 . S
C1999 H2003 0.950 . S
H2000 C1996 0.950 . S
C2001 C1999 1.390 . S
C2001 C2002 1.387 . S
C2001 H2004 0.950 . S
C2002 C2001 1.387 . S
C2002 C2005 1.387 . S
H2003 C1999 0.950 . S
H2004 C2001 0.950 . S
C2005 C1996 1.390 . S
C2005 H1998 0.950 . S
C2005 C2002 1.387 . S
C2006 C2007 1.387 . S
C2006 H2010 0.950 . S
C2006 C2015 1.390 . S
C2007 C2006 1.387 . S
C2007 C2009 1.387 . S
H2008 C2015 0.950 . S
C2009 C2007 1.387 . S
C2009 C2011 1.390 . S
C2009 H2013 0.950 . S
H2010 C2006 0.950 . S
C2011 C2009 1.390 . S
C2011 C2012 1.387 . S
C2011 H2014 0.950 . S
C2012 C2011 1.387 . S
C2012 C2015 1.387 . S
H2013 C2009 0.950 . S
H2014 C2011 0.950 . S
C2015 C2006 1.390 . S
C2015 H2008 0.950 . S
C2015 C2012 1.387 . S
C1477 C522 1.503 . S
C1482 C776 1.413 . S
C1487 C562 1.488 . S
C1492 C860 1.412 . S
C1497 C495 1.523 . S
C1502 C954 1.468 . S
C1507 C455 1.475 . S
C1512 C870 1.425 . S
C1522 C944 1.355 . S
C1517 C362 1.433 . S
C1527 C402 1.497 . S
C1532 C786 1.416 . S
C1542 C787 1.438 . S
C1537 C442 1.475 . S
C1552 C871 1.399 . S
C1547 C375 1.462 . S
C1557 C415 1.531 . S
C1562 C963 1.469 . S
C1567 C535 1.478 . S
C1572 C879 1.422 . S
C1577 C575 1.408 . S
C1582 C955 1.339 . S
C1592 C795 1.440 . S
C1587 C482 1.459 . S
C1602 C1028 1.415 . S
C1597 C42 1.503 . S
C1607 C82 1.488 . S
C1612 C1112 1.411 . S
C1617 C15 1.483 1_565 S
C1622 C1206 1.468 . S
C1627 C695 1.474 . S
C1632 C1122 1.424 . S
C1637 C602 1.433 . S
C1642 C1196 1.352 . S
C1647 C642 1.497 . S
C1652 C1038 1.416 . S
C1657 C682 1.477 . S
C1662 C1039 1.440 . S
C1667 C615 1.462 . S
C1672 C1123 1.397 . S
C1682 C1215 1.466 . S
C1677 C655 1.530 . S
C1687 C55 1.478 . S
C1692 C1131 1.421 . S
C1702 C1207 1.335 . S
C1697 C95 1.408 . S
C1707 C2 1.460 . S
C1712 C1047 1.439 . S
C1722 C1280 1.414 . S
C1717 C282 1.503 . S
C1727 C322 1.488 . S
C1732 C1364 1.415 . S
C1742 C1458 1.466 . S
C1737 C255 1.522 . S
C1752 C1374 1.424 . S
C1747 C215 1.474 . S
C1762 C1448 1.355 . S
C1757 C122 1.433 . S
C1767 C162 1.497 . S
C1772 C1290 1.414 . S
C1777 C202 1.475 . S
C1782 C1291 1.437 . S
C1787 C135 1.462 . S
C1792 C1375 1.399 . S
C1802 C1467 1.468 . S
C1797 C175 1.530 . S
C1807 C295 1.479 . S
C1812 C1383 1.423 . S
C1817 C335 1.408 . S
C1822 C1459 1.339 . S
C1827 C242 1.457 . S
C1832 C1299 1.437 . S
C1837 C621 1.443 . S
C1842 C783 1.349 . S
C1852 C867 1.359 . S
C1847 C661 1.513 . S
C1857 C701 1.491 . S
C1862 C960 1.366 . S
C1867 C261 1.510 . S
C1872 C876 1.374 . S
C1877 C301 1.478 . S
C1882 C951 1.353 . S
C1892 C792 1.356 . S
C1887 C341 1.442 . S
C1897 C141 1.443 . S
C1902 C1035 1.349 . S
C1907 C181 1.513 . S
C1912 C1119 1.357 . S
C1917 C221 1.490 . S
C1922 C1212 1.361 . S
C1927 C501 1.510 . S
C1932 C1128 1.373 . S
C1942 C1203 1.350 . S
C1937 C541 1.479 . S
C1947 C581 1.444 . S
C1952 C1044 1.352 . S
C1957 C381 1.441 . S
C1962 C1287 1.354 . S
C1967 C421 1.513 . S
C1972 C1371 1.357 . S
C1982 C1464 1.365 . S
C1977 C461 1.491 . S
C1987 C21 1.508 . S
C1992 C1380 1.369 . S
C1997 C61 1.478 . S
C2002 C1455 1.352 . S
C2007 C101 1.444 . S
C2012 C1296 1.352 . S
