# Generated by pormake.
# Topology gar, (4,6)-cn, num edge types: 1
# Building blocks:
#     Node 0, Type 0, BuildingBlock: AZAVOO_clean_sbu_0, # of connection points: 4
#     Node 1, Type 0, BuildingBlock: AZAVOO_clean_sbu_0, # of connection points: 4
#     Node 2, Type 0, BuildingBlock: AZAVOO_clean_sbu_0, # of connection points: 4
#     Node 3, Type 0, BuildingBlock: AZAVOO_clean_sbu_0, # of connection points: 4
#     Node 4, Type 0, BuildingBlock: AZAVOO_clean_sbu_0, # of connection points: 4
#     Node 5, Type 0, BuildingBlock: AZAVOO_clean_sbu_0, # of connection points: 4
#     Node 6, Type 0, BuildingBlock: AZAVOO_clean_sbu_0, # of connection points: 4
#     Node 7, Type 0, BuildingBlock: AZAVOO_clean_sbu_0, # of connection points: 4
#     Node 8, Type 0, BuildingBlock: AZAVOO_clean_sbu_0, # of connection points: 4
#     Node 9, Type 0, BuildingBlock: AZAVOO_clean_sbu_0, # of connection points: 4
#     Node 10, Type 0, BuildingBlock: AZAVOO_clean_sbu_0, # of connection points: 4
#     Node 11, Type 0, BuildingBlock: AZAVOO_clean_sbu_0, # of connection points: 4
#     Node 12, Type 0, BuildingBlock: AZAVOO_clean_sbu_0, # of connection points: 4
#     Node 13, Type 0, BuildingBlock: AZAVOO_clean_sbu_0, # of connection points: 4
#     Node 14, Type 0, BuildingBlock: AZAVOO_clean_sbu_0, # of connection points: 4
#     Node 15, Type 0, BuildingBlock: AZAVOO_clean_sbu_0, # of connection points: 4
#     Node 16, Type 0, BuildingBlock: AZAVOO_clean_sbu_0, # of connection points: 4
#     Node 17, Type 0, BuildingBlock: AZAVOO_clean_sbu_0, # of connection points: 4
#     Node 18, Type 0, BuildingBlock: AZAVOO_clean_sbu_0, # of connection points: 4
#     Node 19, Type 0, BuildingBlock: AZAVOO_clean_sbu_0, # of connection points: 4
#     Node 20, Type 0, BuildingBlock: AZAVOO_clean_sbu_0, # of connection points: 4
#     Node 21, Type 0, BuildingBlock: AZAVOO_clean_sbu_0, # of connection points: 4
#     Node 22, Type 0, BuildingBlock: AZAVOO_clean_sbu_0, # of connection points: 4
#     Node 23, Type 0, BuildingBlock: AZAVOO_clean_sbu_0, # of connection points: 4
#     Node 24, Type 1, BuildingBlock: INOVEN_clean_sbu_0, # of connection points: 6
#     Node 25, Type 1, BuildingBlock: INOVEN_clean_sbu_0, # of connection points: 6
#     Node 26, Type 1, BuildingBlock: INOVEN_clean_sbu_0, # of connection points: 6
#     Node 27, Type 1, BuildingBlock: INOVEN_clean_sbu_0, # of connection points: 6
#     Node 28, Type 1, BuildingBlock: INOVEN_clean_sbu_0, # of connection points: 6
#     Node 29, Type 1, BuildingBlock: INOVEN_clean_sbu_0, # of connection points: 6
#     Node 30, Type 1, BuildingBlock: INOVEN_clean_sbu_0, # of connection points: 6
#     Node 31, Type 1, BuildingBlock: INOVEN_clean_sbu_0, # of connection points: 6
#     Node 32, Type 1, BuildingBlock: INOVEN_clean_sbu_0, # of connection points: 6
#     Node 33, Type 1, BuildingBlock: INOVEN_clean_sbu_0, # of connection points: 6
#     Node 34, Type 1, BuildingBlock: INOVEN_clean_sbu_0, # of connection points: 6
#     Node 35, Type 1, BuildingBlock: INOVEN_clean_sbu_0, # of connection points: 6
#     Node 36, Type 1, BuildingBlock: INOVEN_clean_sbu_0, # of connection points: 6
#     Node 37, Type 1, BuildingBlock: INOVEN_clean_sbu_0, # of connection points: 6
#     Node 38, Type 1, BuildingBlock: INOVEN_clean_sbu_0, # of connection points: 6
#     Node 39, Type 1, BuildingBlock: INOVEN_clean_sbu_0, # of connection points: 6
#     Edge 40, Type (0, 1), BuildingBlock: XIVTED_clean_linker_0, # of connection points: 2
#     Edge 41, Type (0, 1), BuildingBlock: XIVTED_clean_linker_0, # of connection points: 2
#     Edge 42, Type (0, 1), BuildingBlock: XIVTED_clean_linker_0, # of connection points: 2
#     Edge 43, Type (0, 1), BuildingBlock: XIVTED_clean_linker_0, # of connection points: 2
#     Edge 44, Type (0, 1), BuildingBlock: XIVTED_clean_linker_0, # of connection points: 2
#     Edge 45, Type (0, 1), BuildingBlock: XIVTED_clean_linker_0, # of connection points: 2
#     Edge 46, Type (0, 1), BuildingBlock: XIVTED_clean_linker_0, # of connection points: 2
#     Edge 47, Type (0, 1), BuildingBlock: XIVTED_clean_linker_0, # of connection points: 2
#     Edge 48, Type (0, 1), BuildingBlock: XIVTED_clean_linker_0, # of connection points: 2
#     Edge 49, Type (0, 1), BuildingBlock: XIVTED_clean_linker_0, # of connection points: 2
#     Edge 50, Type (0, 1), BuildingBlock: XIVTED_clean_linker_0, # of connection points: 2
#     Edge 51, Type (0, 1), BuildingBlock: XIVTED_clean_linker_0, # of connection points: 2
#     Edge 52, Type (0, 1), BuildingBlock: XIVTED_clean_linker_0, # of connection points: 2
#     Edge 53, Type (0, 1), BuildingBlock: XIVTED_clean_linker_0, # of connection points: 2
#     Edge 54, Type (0, 1), BuildingBlock: XIVTED_clean_linker_0, # of connection points: 2
#     Edge 55, Type (0, 1), BuildingBlock: XIVTED_clean_linker_0, # of connection points: 2
#     Edge 56, Type (0, 1), BuildingBlock: XIVTED_clean_linker_0, # of connection points: 2
#     Edge 57, Type (0, 1), BuildingBlock: XIVTED_clean_linker_0, # of connection points: 2
#     Edge 58, Type (0, 1), BuildingBlock: XIVTED_clean_linker_0, # of connection points: 2
#     Edge 59, Type (0, 1), BuildingBlock: XIVTED_clean_linker_0, # of connection points: 2
#     Edge 60, Type (0, 1), BuildingBlock: XIVTED_clean_linker_0, # of connection points: 2
#     Edge 61, Type (0, 1), BuildingBlock: XIVTED_clean_linker_0, # of connection points: 2
#     Edge 62, Type (0, 1), BuildingBlock: XIVTED_clean_linker_0, # of connection points: 2
#     Edge 63, Type (0, 1), BuildingBlock: XIVTED_clean_linker_0, # of connection points: 2
#     Edge 64, Type (0, 1), BuildingBlock: XIVTED_clean_linker_0, # of connection points: 2
#     Edge 65, Type (0, 1), BuildingBlock: XIVTED_clean_linker_0, # of connection points: 2
#     Edge 66, Type (0, 1), BuildingBlock: XIVTED_clean_linker_0, # of connection points: 2
#     Edge 67, Type (0, 1), BuildingBlock: XIVTED_clean_linker_0, # of connection points: 2
#     Edge 68, Type (0, 1), BuildingBlock: XIVTED_clean_linker_0, # of connection points: 2
#     Edge 69, Type (0, 1), BuildingBlock: XIVTED_clean_linker_0, # of connection points: 2
#     Edge 70, Type (0, 1), BuildingBlock: XIVTED_clean_linker_0, # of connection points: 2
#     Edge 71, Type (0, 1), BuildingBlock: XIVTED_clean_linker_0, # of connection points: 2
#     Edge 72, Type (0, 1), BuildingBlock: XIVTED_clean_linker_0, # of connection points: 2
#     Edge 73, Type (0, 1), BuildingBlock: XIVTED_clean_linker_0, # of connection points: 2
#     Edge 74, Type (0, 1), BuildingBlock: XIVTED_clean_linker_0, # of connection points: 2
#     Edge 75, Type (0, 1), BuildingBlock: XIVTED_clean_linker_0, # of connection points: 2
#     Edge 76, Type (0, 1), BuildingBlock: XIVTED_clean_linker_0, # of connection points: 2
#     Edge 77, Type (0, 1), BuildingBlock: XIVTED_clean_linker_0, # of connection points: 2
#     Edge 78, Type (0, 1), BuildingBlock: XIVTED_clean_linker_0, # of connection points: 2
#     Edge 79, Type (0, 1), BuildingBlock: XIVTED_clean_linker_0, # of connection points: 2
#     Edge 80, Type (0, 1), BuildingBlock: XIVTED_clean_linker_0, # of connection points: 2
#     Edge 81, Type (0, 1), BuildingBlock: XIVTED_clean_linker_0, # of connection points: 2
#     Edge 82, Type (0, 1), BuildingBlock: XIVTED_clean_linker_0, # of connection points: 2
#     Edge 83, Type (0, 1), BuildingBlock: XIVTED_clean_linker_0, # of connection points: 2
#     Edge 84, Type (0, 1), BuildingBlock: XIVTED_clean_linker_0, # of connection points: 2
#     Edge 85, Type (0, 1), BuildingBlock: XIVTED_clean_linker_0, # of connection points: 2
#     Edge 86, Type (0, 1), BuildingBlock: XIVTED_clean_linker_0, # of connection points: 2
#     Edge 87, Type (0, 1), BuildingBlock: XIVTED_clean_linker_0, # of connection points: 2
#     Edge 88, Type (0, 1), BuildingBlock: XIVTED_clean_linker_0, # of connection points: 2
#     Edge 89, Type (0, 1), BuildingBlock: XIVTED_clean_linker_0, # of connection points: 2
#     Edge 90, Type (0, 1), BuildingBlock: XIVTED_clean_linker_0, # of connection points: 2
#     Edge 91, Type (0, 1), BuildingBlock: XIVTED_clean_linker_0, # of connection points: 2
#     Edge 92, Type (0, 1), BuildingBlock: XIVTED_clean_linker_0, # of connection points: 2
#     Edge 93, Type (0, 1), BuildingBlock: XIVTED_clean_linker_0, # of connection points: 2
#     Edge 94, Type (0, 1), BuildingBlock: XIVTED_clean_linker_0, # of connection points: 2
#     Edge 95, Type (0, 1), BuildingBlock: XIVTED_clean_linker_0, # of connection points: 2
#     Edge 96, Type (0, 1), BuildingBlock: XIVTED_clean_linker_0, # of connection points: 2
#     Edge 97, Type (0, 1), BuildingBlock: XIVTED_clean_linker_0, # of connection points: 2
#     Edge 98, Type (0, 1), BuildingBlock: XIVTED_clean_linker_0, # of connection points: 2
#     Edge 99, Type (0, 1), BuildingBlock: XIVTED_clean_linker_0, # of connection points: 2
#     Edge 100, Type (0, 1), BuildingBlock: XIVTED_clean_linker_0, # of connection points: 2
#     Edge 101, Type (0, 1), BuildingBlock: XIVTED_clean_linker_0, # of connection points: 2
#     Edge 102, Type (0, 1), BuildingBlock: XIVTED_clean_linker_0, # of connection points: 2
#     Edge 103, Type (0, 1), BuildingBlock: XIVTED_clean_linker_0, # of connection points: 2
#     Edge 104, Type (0, 1), BuildingBlock: XIVTED_clean_linker_0, # of connection points: 2
#     Edge 105, Type (0, 1), BuildingBlock: XIVTED_clean_linker_0, # of connection points: 2
#     Edge 106, Type (0, 1), BuildingBlock: XIVTED_clean_linker_0, # of connection points: 2
#     Edge 107, Type (0, 1), BuildingBlock: XIVTED_clean_linker_0, # of connection points: 2
#     Edge 108, Type (0, 1), BuildingBlock: XIVTED_clean_linker_0, # of connection points: 2
#     Edge 109, Type (0, 1), BuildingBlock: XIVTED_clean_linker_0, # of connection points: 2
#     Edge 110, Type (0, 1), BuildingBlock: XIVTED_clean_linker_0, # of connection points: 2
#     Edge 111, Type (0, 1), BuildingBlock: XIVTED_clean_linker_0, # of connection points: 2
#     Edge 112, Type (0, 1), BuildingBlock: XIVTED_clean_linker_0, # of connection points: 2
#     Edge 113, Type (0, 1), BuildingBlock: XIVTED_clean_linker_0, # of connection points: 2
#     Edge 114, Type (0, 1), BuildingBlock: XIVTED_clean_linker_0, # of connection points: 2
#     Edge 115, Type (0, 1), BuildingBlock: XIVTED_clean_linker_0, # of connection points: 2
#     Edge 116, Type (0, 1), BuildingBlock: XIVTED_clean_linker_0, # of connection points: 2
#     Edge 117, Type (0, 1), BuildingBlock: XIVTED_clean_linker_0, # of connection points: 2
#     Edge 118, Type (0, 1), BuildingBlock: XIVTED_clean_linker_0, # of connection points: 2
#     Edge 119, Type (0, 1), BuildingBlock: XIVTED_clean_linker_0, # of connection points: 2
#     Edge 120, Type (0, 1), BuildingBlock: XIVTED_clean_linker_0, # of connection points: 2
#     Edge 121, Type (0, 1), BuildingBlock: XIVTED_clean_linker_0, # of connection points: 2
#     Edge 122, Type (0, 1), BuildingBlock: XIVTED_clean_linker_0, # of connection points: 2
#     Edge 123, Type (0, 1), BuildingBlock: XIVTED_clean_linker_0, # of connection points: 2
#     Edge 124, Type (0, 1), BuildingBlock: XIVTED_clean_linker_0, # of connection points: 2
#     Edge 125, Type (0, 1), BuildingBlock: XIVTED_clean_linker_0, # of connection points: 2
#     Edge 126, Type (0, 1), BuildingBlock: XIVTED_clean_linker_0, # of connection points: 2
#     Edge 127, Type (0, 1), BuildingBlock: XIVTED_clean_linker_0, # of connection points: 2
#     Edge 128, Type (0, 1), BuildingBlock: XIVTED_clean_linker_0, # of connection points: 2
#     Edge 129, Type (0, 1), BuildingBlock: XIVTED_clean_linker_0, # of connection points: 2
#     Edge 130, Type (0, 1), BuildingBlock: XIVTED_clean_linker_0, # of connection points: 2
#     Edge 131, Type (0, 1), BuildingBlock: XIVTED_clean_linker_0, # of connection points: 2
#     Edge 132, Type (0, 1), BuildingBlock: XIVTED_clean_linker_0, # of connection points: 2
#     Edge 133, Type (0, 1), BuildingBlock: XIVTED_clean_linker_0, # of connection points: 2
#     Edge 134, Type (0, 1), BuildingBlock: XIVTED_clean_linker_0, # of connection points: 2
#     Edge 135, Type (0, 1), BuildingBlock: XIVTED_clean_linker_0, # of connection points: 2
# Relax obj value: 0.212
# Max RMSD: 0.306
# Mean RMSD: 0.195
data_MOF--net-gar--node1-AZAVOO_clean_sbu_0--node2-INOVEN_clean_sbu_0--edge1-XIVTED_clean_linker_0
_symmetry_space_group_name_H-M    P1
_symmetry_Int_Tables_number       1
_symmetry_cell_setting            triclinic
loop_
_symmetry_equiv_pos_as_xyz
'x, y, z'
_cell_length_a     63.799465
_cell_length_b     56.174243
_cell_length_c     57.327632
_cell_angle_alpha  102.15483
_cell_angle_beta   94.884067
_cell_angle_gamma 104.43719
loop_
_atom_site_label
_atom_site_type_symbol
_atom_site_fract_x
_atom_site_fract_y
_atom_site_fract_z
_atom_type_partial_charge
Mg0 Mg 0.10317 0.31787 0.36685 0.0
O1 O 0.10573 0.35525 0.39303 0.0
O2 O 0.07225 0.35354 0.40274 0.0
Mg3 Mg 0.04943 0.31449 0.38589 0.0
C4 C 0.09232 0.36517 0.4039 0.0
C5 C 0.14323 0.33199 0.34747 0.0
O6 O 0.12686 0.32492 0.32983 0.0
O7 O 0.10455 0.29851 0.39745 0.0
O8 O 0.07096 0.29728 0.40697 0.0
O9 O 0.09081 0.33318 0.33716 0.0
O10 O 0.06988 0.31009 0.35775 0.0
C11 C 0.08948 0.29275 0.41018 0.0
C12 C 0.07166 0.32241 0.34129 0.0
O13 O 0.13948 0.32996 0.36841 0.0
Mg14 Mg 0.99243 0.76088 0.66507 0.0
O15 O 0.99276 0.72314 0.64249 0.0
O16 O 0.96581 0.71334 0.6116 0.0
Mg17 Mg 0.94468 0.7408 0.61958 0.0
C18 C 0.98218 0.70899 0.62257 0.0
C19 C 0.03051 0.75228 0.69281 0.0
O20 O 0.01418 0.73451 0.69631 0.0
O21 O 1.00315 0.77916 0.63563 0.0
O22 O 0.97186 0.77196 0.61097 0.0
O23 O 0.97371 0.7423 0.68941 0.0
O24 O 0.95928 0.75275 0.65781 0.0
C25 C 0.99234 0.78242 0.61749 0.0
C26 C 0.95652 0.74306 0.67617 0.0
O27 O 0.02684 0.76706 0.68011 0.0
Mg28 Mg 0.60345 0.81976 0.87587 0.0
O29 O 0.61288 0.86221 0.89291 0.0
O30 O 0.59638 0.85999 0.92493 0.0
Mg31 Mg 0.56207 0.83511 0.90983 0.0
C32 C 0.60899 0.87265 0.91332 0.0
C33 C 0.64585 0.83757 0.857 0.0
O34 O 0.63599 0.85466 0.85334 0.0
O35 O 0.60838 0.80724 0.91081 0.0
O36 O 0.57606 0.80742 0.92375 0.0
O37 O 0.5869 0.82726 0.84346 0.0
O38 O 0.57193 0.81957 0.87549 0.0
C39 C 0.5939 0.80104 0.9242 0.0
C40 C 0.57012 0.82495 0.85491 0.0
O41 O 0.63718 0.82134 0.8682 0.0
Mg42 Mg 0.49221 0.26374 0.16837 0.0
O43 O 0.49398 0.22769 0.14316 0.0
O44 O 0.4645 0.21323 0.11499 0.0
Mg45 Mg 0.44572 0.24299 0.12083 0.0
C46 C 0.48239 0.21118 0.12495 0.0
C47 C 0.53052 0.2516 0.19123 0.0
O48 O 0.51467 0.23077 0.18864 0.0
O49 O 0.503 0.28509 0.14165 0.0
O50 O 0.47476 0.2721 0.11174 0.0
O51 O 0.47344 0.24158 0.18993 0.0
O52 O 0.45909 0.25428 0.15963 0.0
C53 C 0.4941 0.28556 0.12118 0.0
C54 C 0.45629 0.24243 0.17664 0.0
O55 O 0.52654 0.27026 0.1845 0.0
Mg56 Mg 0.09044 0.82633 0.13404 0.0
O57 O 0.08386 0.78907 0.10619 0.0
O58 O 0.05089 0.77915 0.08403 0.0
Mg59 Mg 0.03431 0.80949 0.09908 0.0
C60 C 0.06911 0.77462 0.08921 0.0
C61 C 0.134 0.8255 0.16465 0.0
O62 O 0.12101 0.82933 0.18078 0.0
O63 O 0.09445 0.85035 0.10426 0.0
O64 O 0.05935 0.83883 0.08737 0.0
O65 O 0.07338 0.80575 0.16031 0.0
O66 O 0.05594 0.81958 0.13368 0.0
C67 C 0.07905 0.85201 0.08909 0.0
C68 C 0.05506 0.8076 0.15045 0.0
O69 O 0.12729 0.82481 0.14273 0.0
Mg70 Mg 0.50623 0.7577 0.39948 0.0
O71 O 0.51541 0.79436 0.42881 0.0
O72 O 0.49005 0.7925 0.45338 0.0
Mg73 Mg 0.46424 0.7544 0.43849 0.0
C74 C 0.50775 0.80407 0.44716 0.0
C75 C 0.55356 0.78807 0.39087 0.0
O76 O 0.54582 0.80783 0.39615 0.0
O77 O 0.51523 0.73502 0.42569 0.0
O78 O 0.48876 0.73241 0.44881 0.0
O79 O 0.48838 0.77636 0.37703 0.0
O80 O 0.4723 0.7535 0.40091 0.0
C81 C 0.50625 0.72723 0.44276 0.0
C82 C 0.47098 0.76787 0.38619 0.0
O83 O 0.54147 0.76626 0.39077 0.0
Mg84 Mg 0.59203 0.32509 0.63409 0.0
O85 O 0.58474 0.28901 0.60479 0.0
O86 O 0.55157 0.28041 0.5836 0.0
Mg87 Mg 0.53631 0.31178 0.59964 0.0
C88 C 0.56971 0.27535 0.5878 0.0
C89 C 0.63548 0.32412 0.66457 0.0
O90 O 0.62329 0.33068 0.68078 0.0
O91 O 0.59691 0.35082 0.60582 0.0
O92 O 0.56204 0.34083 0.58813 0.0
O93 O 0.57312 0.30288 0.65856 0.0
O94 O 0.55808 0.32116 0.63406 0.0
C95 C 0.58203 0.35339 0.59055 0.0
C96 C 0.55585 0.30789 0.64973 0.0
O97 O 0.62829 0.32155 0.64237 0.0
Mg98 Mg 0.00797 0.25816 0.90149 0.0
O99 O 0.01519 0.29471 0.93108 0.0
O100 O 0.98715 0.2913 0.95213 0.0
Mg101 Mg 0.96219 0.25315 0.93551 0.0
C102 C 0.00564 0.30366 0.94815 0.0
C103 C 0.05514 0.288 0.8928 0.0
O104 O 0.04648 0.30712 0.89501 0.0
O105 O 0.01518 0.23615 0.92852 0.0
O106 O 0.98635 0.23163 0.94824 0.0
O107 O 0.9924 0.27562 0.87666 0.0
O108 O 0.97368 0.254 0.89981 0.0
C109 C 0.00473 0.22751 0.94427 0.0
C110 C 0.97392 0.26758 0.88407 0.0
O111 O 0.04376 0.26674 0.89506 0.0
Mg112 Mg 0.45251 0.06009 0.30286 0.0
O113 O 0.43503 0.01873 0.2926 0.0
O114 O 0.41553 0.00847 0.3214 0.0
Mg115 Mg 0.41714 0.04479 0.34841 0.0
C116 C 0.4229 1.00269 0.30162 0.0
C117 C 0.46884 0.03365 0.26126 0.0
O118 O 0.47516 0.0251 0.27949 0.0
O119 O 0.42088 0.06577 0.29023 0.0
O120 O 0.39968 0.05701 0.31838 0.0
O121 O 0.47835 0.05159 0.32396 0.0
O122 O 0.44921 0.06068 0.33848 0.0
C123 C 0.40275 0.06305 0.29844 0.0
C124 C 0.46544 0.05107 0.34017 0.0
O125 O 0.46105 0.05263 0.26524 0.0
Mg126 Mg 0.28478 0.18113 0.49119 0.0
O127 O 0.28862 0.21018 0.52793 0.0
O128 O 0.32353 0.23355 0.53519 0.0
Mg129 Mg 0.34173 0.22284 0.50381 0.0
C130 C 0.30455 0.22755 0.54144 0.0
C131 C 0.23898 0.15246 0.50318 0.0
O132 O 0.25285 0.14635 0.51754 0.0
O133 O 0.28391 0.21097 0.46853 0.0
O134 O 0.31922 0.2329 0.47673 0.0
O135 O 0.29897 0.15577 0.51051 0.0
O136 O 0.31888 0.18508 0.49552 0.0
C137 C 0.30001 0.22841 0.4654 0.0
C138 C 0.31812 0.16784 0.50715 0.0
O139 O 0.24657 0.16721 0.48986 0.0
Mg140 Mg 0.16114 0.00949 0.77533 0.0
O141 O 0.18679 0.05018 0.77803 0.0
O142 O 0.20955 0.05966 0.81205 0.0
Mg143 Mg 0.19869 0.02535 0.83101 0.0
C144 C 0.20311 0.06567 0.79286 0.0
C145 C 0.12886 1.00056 0.72102 0.0
O146 O 0.11511 0.98409 0.72958 0.0
O147 O 0.1868 0.98117 0.76769 0.0
O148 O 0.20579 0.99043 0.80449 0.0
O149 O 0.13825 0.02757 0.80044 0.0
O150 O 0.16261 0.01261 0.81585 0.0
C151 C 0.20084 0.97646 0.78289 0.0
C152 C 0.14684 0.0229 0.81956 0.0
O153 O 0.14791 0.01169 0.73373 0.0
Mg154 Mg 0.31562 0.94478 0.02089 0.0
O155 O 0.32004 0.92089 0.9848 0.0
O156 O 0.35361 0.91487 0.9869 0.0
Mg157 Mg 0.36053 0.91716 0.02677 0.0
C158 C 0.33546 0.91385 0.97486 0.0
C159 C 0.28308 0.96934 0.01289 0.0
O160 O 0.30176 0.98609 0.02264 0.0
O161 O 0.30027 0.91137 0.03626 0.0
O162 O 0.32464 0.89651 0.01921 0.0
O163 O 0.33884 0.97651 0.01164 0.0
O164 O 0.34847 0.95142 0.03343 0.0
C165 C 0.31233 0.89652 0.0353 0.0
C166 C 0.35388 0.96952 0.02275 0.0
O167 O 0.28278 0.94629 0.00623 0.0
Mg168 Mg 0.31821 0.40007 0.04405 0.0
O169 O 0.3152 0.36911 0.00937 0.0
O170 O 0.34513 0.35564 0.01284 0.0
Mg171 Mg 0.36481 0.37389 0.05052 0.0
C172 C 0.32747 0.35575 1.00064 0.0
C173 C 0.28028 0.42302 0.04013 0.0
O174 O 0.29649 0.44058 0.05453 0.0
O175 O 0.3074 0.37214 0.06831 0.0
O176 O 0.33729 0.35842 0.07157 0.0
O177 O 0.33967 0.42783 0.02671 0.0
O178 O 0.35267 0.40725 0.05058 0.0
C179 C 0.31836 0.35894 0.07702 0.0
C180 C 0.35641 0.42279 0.03688 0.0
O181 O 0.28315 0.40136 0.03214 0.0
Mg182 Mg 0.78267 0.1356 0.01479 0.0
O183 O 0.77506 0.14631 0.05345 0.0
O184 O 0.80498 0.17981 0.06547 0.0
Mg185 Mg 0.83231 0.17995 0.04149 0.0
C186 C 0.78637 0.16668 0.0687 0.0
C187 C 0.73229 0.10524 0.98917 0.0
O188 O 0.71801 0.09882 0.96947 0.0
O189 O 0.77995 0.1741 0.01573 0.0
O190 O 0.81381 0.19075 0.01057 0.0
O191 O 0.79256 0.10105 0.01667 0.0
O192 O 0.81427 0.13991 0.02953 0.0
C193 C 0.7934 0.18835 0.00635 0.0
C194 C 0.81209 0.11595 0.02401 0.0
O195 O 0.75057 0.12071 0.9899 0.0
Mg196 Mg 0.16064 0.53911 0.24365 0.0
O197 O 0.1771 0.58074 0.26106 0.0
O198 O 0.18381 0.58915 0.30141 0.0
Mg199 Mg 0.1856 0.55029 0.30455 0.0
C200 C 0.18304 0.59632 0.28171 0.0
C201 C 0.14285 0.5293 0.19614 0.0
O202 O 0.13484 0.51071 0.20627 0.0
O203 O 0.19261 0.52953 0.23928 0.0
O204 O 0.20482 0.55667 0.27383 0.0
O205 O 0.13123 0.54628 0.25697 0.0
O206 O 0.15592 0.53327 0.2772 0.0
C207 C 0.20744 0.53929 0.25737 0.0
C208 C 0.13943 0.54267 0.27699 0.0
O209 O 0.15844 0.54769 0.20795 0.0
Mg210 Mg 0.81958 0.90231 0.54768 0.0
O211 O 0.81372 0.87347 0.51107 0.0
O212 O 0.83919 0.85252 0.51086 0.0
Mg213 Mg 0.8624 0.8694 0.54687 0.0
C214 C 0.82248 0.85685 0.50056 0.0
C215 C 0.78321 0.92389 0.52885 0.0
O216 O 0.8013 0.93849 0.52462 0.0
O217 O 0.80845 0.87295 0.57046 0.0
O218 O 0.83657 0.8559 0.57051 0.0
O219 O 0.84153 0.93032 0.53114 0.0
O220 O 0.85368 0.90577 0.55096 0.0
C221 C 0.81859 0.85821 0.57769 0.0
C222 C 0.8578 0.92275 0.53874 0.0
O223 O 0.78461 0.90631 0.53924 0.0
Mg224 Mg 0.94142 0.07148 0.26523 0.0
O225 O 0.91513 0.02993 0.26242 0.0
O226 O 0.90024 0.03637 0.29633 0.0
Mg227 Mg 0.9149 0.07686 0.32115 0.0
C228 C 0.90202 0.02147 0.27678 0.0
C229 C 0.97 0.07304 0.21734 0.0
O230 O 0.98442 0.08813 0.23552 0.0
O231 O 0.91491 0.09805 0.26095 0.0
O232 O 0.90326 0.10139 0.29674 0.0
O233 O 0.96797 0.05928 0.28797 0.0
O234 O 0.94531 0.07729 0.30533 0.0
C235 C 0.90384 0.10793 0.27663 0.0
C236 C 0.96102 0.06706 0.30786 0.0
O237 O 0.95072 0.06305 0.22236 0.0
Mg238 Mg 0.28261 0.6301 0.51711 0.0
O239 O 0.27337 0.64326 0.55457 0.0
O240 O 0.30178 0.67858 0.56478 0.0
Mg241 Mg 0.33068 0.67778 0.54342 0.0
C242 C 0.2833 0.66526 0.56811 0.0
C243 C 0.23106 0.60194 0.49242 0.0
O244 O 0.21761 0.59288 0.47201 0.0
O245 O 0.27825 0.66689 0.51401 0.0
O246 O 0.31224 0.68666 0.51128 0.0
O247 O 0.2939 0.59752 0.52241 0.0
O248 O 0.31402 0.63731 0.53353 0.0
C249 C 0.29166 0.68239 0.50574 0.0
C250 C 0.31301 0.61361 0.52904 0.0
O251 O 0.25088 0.61237 0.49193 0.0
Mg252 Mg 0.44146 0.57164 0.7655 0.0
O253 O 0.41489 0.53021 0.76148 0.0
O254 O 0.40034 0.53388 0.79579 0.0
Mg255 Mg 0.41352 0.57499 0.81998 0.0
C256 C 0.40238 0.52031 0.77563 0.0
C257 C 0.4698 0.5723 0.71737 0.0
O258 O 0.48466 0.58668 0.73548 0.0
O259 O 0.41596 0.59891 0.76157 0.0
O260 O 0.40101 0.59932 0.79542 0.0
O261 O 0.46647 0.55745 0.78776 0.0
O262 O 0.44521 0.57751 0.80571 0.0
C263 C 0.40322 0.60712 0.77604 0.0
C264 C 0.46009 0.56592 0.80787 0.0
O265 O 0.45041 0.56314 0.72257 0.0
Mg266 Mg 0.66463 0.03373 0.73335 0.0
O267 O 0.67669 0.07611 0.74763 0.0
O268 O 0.67998 0.08798 0.78782 0.0
Mg269 Mg 0.68664 0.05266 0.79622 0.0
C270 C 0.67962 0.09317 0.76714 0.0
C271 C 0.64336 0.0276 0.68809 0.0
O272 O 0.63312 0.00993 0.69816 0.0
O273 O 0.69848 0.02908 0.73245 0.0
O274 O 0.70726 0.05773 0.76638 0.0
O275 O 0.63346 0.03855 0.74431 0.0
O276 O 0.6593 0.03016 0.76753 0.0
C277 C 0.71167 0.04005 0.75175 0.0
C278 C 0.64134 0.03654 0.76513 0.0
O279 O 0.66281 0.03994 0.69682 0.0
Mg280 Mg 0.78412 0.68422 0.99529 0.0
O281 O 0.78996 0.71451 0.03086 0.0
O282 O 0.82533 0.73599 0.03736 0.0
Mg283 Mg 0.84176 0.72311 1.00493 0.0
C284 C 0.8064 0.73135 0.0439 0.0
C285 C 0.73808 0.64861 0.99318 0.0
O286 O 0.75062 0.6338 0.98658 0.0
O287 O 0.78332 0.71315 0.97135 0.0
O288 O 0.81903 0.73352 0.97843 0.0
O289 O 0.79827 0.65929 0.01538 0.0
O290 O 0.81771 0.68623 0.99746 0.0
C291 C 0.79976 0.72976 0.96756 0.0
C292 C 0.81708 0.66974 0.00993 0.0
O293 O 0.7466 0.67251 0.99782 0.0
Mg294 Mg 0.95083 0.55403 0.78776 0.0
O295 O 0.93344 0.51196 0.76854 0.0
O296 O 0.92717 0.52339 0.80461 0.0
Mg297 Mg 0.91909 0.53717 0.8408 0.0
C298 C 0.92264 0.50661 0.78512 0.0
C299 C 0.9595 0.55205 0.73324 0.0
O300 O 0.96218 0.56254 0.7149 0.0
O301 O 0.91815 0.5623 0.78535 0.0
O302 O 0.90163 0.55764 0.81829 0.0
O303 O 0.97953 0.54471 0.8058 0.0
O304 O 0.94886 0.54569 0.82103 0.0
C305 C 0.90263 0.56343 0.79788 0.0
C306 C 0.9683 0.5432 0.82351 0.0
O307 O 0.95762 0.56539 0.75324 0.0
Mg308 Mg 0.82184 0.4494 0.52067 0.0
O309 O 0.82481 0.42473 0.48475 0.0
O310 O 0.85765 0.41714 0.48697 0.0
Mg311 Mg 0.8741 0.43407 0.52571 0.0
C312 C 0.83903 0.41486 0.4754 0.0
C313 C 0.78599 0.4689 0.51767 0.0
O314 O 0.80393 0.48622 0.52882 0.0
O315 O 0.81292 0.41448 0.53466 0.0
O316 O 0.84598 0.40735 0.53701 0.0
O317 O 0.84075 0.48508 0.51197 0.0
O318 O 0.85447 0.46086 0.53125 0.0
C319 C 0.82571 0.40141 0.53931 0.0
C320 C 0.85733 0.48099 0.52344 0.0
O321 O 0.787 0.44661 0.50895 0.0
Mg322 Mg 0.66113 0.50931 0.27545 0.0
O323 O 0.68644 0.55031 0.27793 0.0
O324 O 0.70915 0.56081 0.31212 0.0
Mg325 Mg 0.69836 0.52704 0.3316 0.0
C326 C 0.70264 0.56621 0.29264 0.0
C327 C 0.62877 0.50095 0.22153 0.0
O328 O 0.61455 0.48539 0.23053 0.0
O329 O 0.6871 0.48133 0.2686 0.0
O330 O 0.70651 0.49287 0.30529 0.0
O331 O 0.63759 0.5268 0.29958 0.0
O332 O 0.66232 0.51306 0.31603 0.0
C333 C 0.70171 0.47799 0.28409 0.0
C334 C 0.64596 0.5225 0.31904 0.0
O335 O 0.6481 0.51118 0.23382 0.0
Gd336 Gd 0.02973 0.02697 0.99831 0.0
Gd337 Gd 0.07238 0.05788 0.02845 0.0
C338 C 0.04497 0.08832 1.00512 0.0
C339 C 0.98829 0.01024 0.98325 0.0
C340 C 0.97089 0.02309 0.98448 0.0
C341 C 0.9533 0.01532 0.96571 0.0
C342 C 0.97275 0.04457 1.00306 0.0
C343 C 0.93854 0.04915 0.98504 0.0
C344 C 0.95666 0.05747 1.00337 0.0
C345 C 0.93723 0.02824 0.96596 0.0
C346 C 0.06066 0.0274 0.96673 0.0
C347 C 0.05766 0.99683 0.02334 0.0
C348 C 0.11363 0.07417 0.04291 0.0
C349 C 0.12868 0.05905 0.04652 0.0
C350 C 0.14321 0.06597 0.06804 0.0
C351 C 0.12685 0.0361 0.02989 0.0
C352 C 0.15605 0.02884 0.0549 0.0
C353 C 0.14049 0.02115 0.03402 0.0
C354 C 0.15674 0.05089 0.0723 0.0
C355 C 0.04198 0.05759 0.06031 0.0
O356 O 0.02878 0.06729 0.99964 0.0
O357 O 0.06459 0.08935 0.01494 0.0
O358 O 1.00267 0.01789 0.96967 0.0
O359 O 0.99719 1.00747 1.00362 0.0
O360 O 0.04036 0.01437 0.96184 0.0
O361 O 0.06406 0.03815 0.98937 0.0
O362 O 0.07317 0.01843 0.02993 0.0
O363 O 0.03848 0.99508 0.0114 0.0
O364 O 0.09925 0.07367 0.05773 0.0
O365 O 0.10523 0.07177 0.02062 0.0
O366 O 0.06234 0.07035 0.06482 0.0
O367 O 0.03786 0.04658 0.03763 0.0
H368 H 0.95201 0.99926 0.95085 0.0
H369 H 0.98655 0.05129 0.0174 0.0
H370 H 0.95802 0.07338 0.0184 0.0
H371 H 0.92362 0.02168 0.95141 0.0
H372 H 0.14419 0.08313 0.08145 0.0
H373 H 0.11513 0.02987 0.01352 0.0
H374 H 0.1397 1.0044 0.02016 0.0
H375 H 0.16842 0.05702 0.08869 0.0
Gd376 Gd 0.3145 0.78718 0.24588 0.0
Gd377 Gd 0.29631 0.79425 0.28703 0.0
C378 C 0.32061 0.84312 0.27553 0.0
C379 C 0.33408 0.79022 0.20863 0.0
C380 C 0.34768 0.81107 0.20057 0.0
C381 C 0.36479 0.80696 0.18797 0.0
C382 C 0.34306 0.83459 0.20411 0.0
C383 C 0.36778 0.84647 0.17626 0.0
C384 C 0.3533 0.85242 0.1922 0.0
C385 C 0.37502 0.82478 0.17599 0.0
C386 C 0.34024 0.78167 0.28393 0.0
C387 C 0.28888 0.7382 0.25466 0.0
C388 C 0.28084 0.79215 0.32682 0.0
C389 C 0.26885 0.77228 0.33727 0.0
C390 C 0.2507 0.77584 0.34817 0.0
C391 C 0.27586 0.75058 0.33773 0.0
C392 C 0.24986 0.73951 0.36471 0.0
C393 C 0.26636 0.73422 0.35143 0.0
C394 C 0.24113 0.75942 0.36174 0.0
C395 C 0.2702 0.80176 0.25078 0.0
O396 O 0.31684 0.82841 0.2538 0.0
O397 O 0.31743 0.83333 0.29411 0.0
O398 O 0.34274 0.78556 0.22789 0.0
O399 O 0.31343 0.78937 0.20859 0.0
O400 O 0.33394 0.7655 0.26333 0.0
O401 O 0.33141 0.79959 0.28437 0.0
O402 O 0.29208 0.75235 0.27673 0.0
O403 O 0.29279 0.7484 0.23652 0.0
O404 O 0.2701 0.79598 0.30829 0.0
O405 O 0.30115 0.79292 0.32444 0.0
O406 O 0.27629 0.81636 0.27221 0.0
O407 O 0.27902 0.78349 0.2486 0.0
H408 H 0.36898 0.78914 0.18574 0.0
H409 H 0.33021 0.83828 0.21424 0.0
H410 H 0.34749 0.86907 0.19276 0.0
H411 H 0.3863 0.81999 0.1639 0.0
H412 H 0.24483 0.79223 0.34746 0.0
H413 H 0.28954 0.74716 0.32886 0.0
H414 H 0.27345 0.71903 0.35356 0.0
H415 H 0.2283 0.76365 0.37174 0.0
Gd416 Gd 0.57386 0.0431 0.51358 0.0
Gd417 Gd 0.52479 0.04122 0.51829 0.0
C418 C 0.53764 0.98936 0.50984 0.0
C419 C 0.61279 0.03711 0.51661 0.0
C420 C 0.62364 0.01648 0.51094 0.0
C421 C 0.63261 0.01211 0.48938 0.0
C422 C 0.62684 1.00247 0.5279 0.0
C423 C 0.64964 0.98212 0.50304 0.0
C424 C 0.63963 0.98549 0.52399 0.0
C425 C 0.64533 0.99502 0.48541 0.0
C426 C 0.54754 0.03743 0.47311 0.0
C427 C 0.56153 0.09508 0.52204 0.0
C428 C 0.48546 0.04639 0.51576 0.0
C429 C 0.47371 0.06625 0.52135 0.0
C430 C 0.46591 0.07149 0.5436 0.0
C431 C 0.46827 0.07838 0.50355 0.0
C432 C 0.44618 0.09902 0.52936 0.0
C433 C 0.45475 0.09455 0.50751 0.0
C434 C 0.45239 0.08774 0.54758 0.0
C435 C 0.55074 0.04643 0.55895 0.0
O436 O 0.55833 1.00293 0.5163 0.0
O437 O 0.52168 0.99975 0.50547 0.0
O438 O 0.60384 0.04358 0.49836 0.0
O439 O 0.60127 0.03738 0.53452 0.0
O440 O 0.56797 0.05002 0.47638 0.0
O441 O 0.54269 0.02752 0.49009 0.0
O442 O 0.54066 0.08179 0.51708 0.0
O443 O 0.57766 0.08464 0.5251 0.0
O444 O 0.49488 0.04021 0.53392 0.0
O445 O 0.49691 0.04664 0.49785 0.0
O446 O 0.53031 0.03359 0.5548 0.0
O447 O 0.556 0.05678 0.54221 0.0
H448 H 0.63045 0.02254 0.47588 0.0
H449 H 0.62022 1.00536 0.54473 0.0
H450 H 0.64271 0.97617 0.53812 0.0
H451 H 0.6524 0.99258 0.46884 0.0
H452 H 0.4697 0.06245 0.55772 0.0
H453 H 0.4738 0.07466 0.48614 0.0
H454 H 0.45017 0.10254 0.49288 0.0
H455 H 0.44642 0.09101 0.56477 0.0
Gd456 Gd 0.28026 0.29596 0.76848 0.0
Gd457 Gd 0.32531 0.28093 0.76963 0.0
C458 C 0.30934 0.30109 0.81993 0.0
C459 C 0.24036 0.29725 0.77204 0.0
C460 C 0.22569 0.2988 0.79056 0.0
C461 C 0.21439 0.31744 0.79267 0.0
C462 C 0.22256 0.28217 0.80593 0.0
C463 C 0.1954 0.3014 0.82363 0.0
C464 C 0.20753 0.28346 0.8223 0.0
C465 C 0.19945 0.31878 0.80901 0.0
C466 C 0.31374 0.33783 0.76659 0.0
C467 C 0.29604 0.27532 0.71813 0.0
C468 C 0.36556 0.28073 0.76574 0.0
C469 C 0.38055 0.27949 0.74729 0.0
C470 C 0.39135 0.26033 0.7443 0.0
C471 C 0.38525 0.29771 0.73363 0.0
C472 C 0.41311 0.2792 0.71646 0.0
C473 C 0.4013 0.29752 0.71836 0.0
C474 C 0.40739 0.26012 0.72905 0.0
C475 C 0.29147 0.23928 0.77194 0.0
O476 O 0.29016 0.29958 0.808 0.0
O477 O 0.32613 0.297 0.80914 0.0
O478 O 0.25661 0.3174 0.7744 0.0
O479 O 0.24578 0.27611 0.765 0.0
O480 O 0.29317 0.33661 0.76551 0.0
O481 O 0.31527 0.31581 0.76794 0.0
O482 O 0.31494 0.27635 0.73031 0.0
O483 O 0.27943 0.28046 0.72864 0.0
O484 O 0.34976 0.2603 0.76408 0.0
O485 O 0.35952 0.30152 0.77232 0.0
O486 O 0.31185 0.23972 0.77182 0.0
O487 O 0.29043 0.26146 0.77072 0.0
H488 H 0.21674 0.33066 0.78118 0.0
H489 H 0.23142 0.26794 0.80503 0.0
H490 H 0.20514 0.27011 0.83363 0.0
H491 H 0.19036 0.33273 0.80935 0.0
H492 H 0.38795 0.24594 0.75449 0.0
H493 H 0.37699 0.31252 0.73521 0.0
H494 H 0.40486 0.31217 0.70851 0.0
H495 H 0.41609 0.24577 0.72819 0.0
Gd496 Gd 0.04405 0.06259 0.5284 0.0
Gd497 Gd 0.04873 0.01539 0.50413 0.0
C498 C 0.02905 0.04359 0.46898 0.0
C499 C 0.04236 0.10881 0.54035 0.0
C500 C 0.0415 0.12651 0.52518 0.0
C501 C 0.03056 0.14517 0.53124 0.0
C502 C 0.0512 0.12429 0.50404 0.0
C503 C 0.04091 0.16079 0.49638 0.0
C504 C 0.05076 0.14121 0.48965 0.0
C505 C 0.03044 0.16247 0.51698 0.0
C506 C 0.00995 0.02345 0.53048 0.0
C507 C 0.06387 0.03435 0.56346 0.0
C508 C 0.04925 0.96879 0.49421 0.0
C509 C 0.04981 0.95215 0.5108 0.0
C510 C 0.06633 0.93979 0.51141 0.0
C511 C 0.0349 0.95009 0.52745 0.0
C512 C 0.05218 0.92212 0.54401 0.0
C513 C 0.036 0.93512 0.54376 0.0
C514 C 0.06756 0.92492 0.52792 0.0
C515 C 0.08276 0.05429 0.50111 0.0
O516 O 0.03668 0.06307 0.48807 0.0
O517 O 0.02983 0.02084 0.47112 0.0
O518 O 0.02506 0.08957 0.53653 0.0
O519 O 0.06063 0.10234 0.54227 0.0
O520 O 0.01975 0.04188 0.54885 0.0
O521 O 0.01886 0.02636 0.51209 0.0
O522 O 0.05625 0.01495 0.54435 0.0
O523 O 0.06296 0.05707 0.56139 0.0
O524 O 0.06689 0.98741 0.49674 0.0
O525 O 0.03128 0.97573 0.49134 0.0
O526 O 0.07311 0.0351 0.48329 0.0
O527 O 0.07404 0.05196 0.51984 0.0
H528 H 0.02264 0.14675 0.54726 0.0
H529 H 0.05969 0.10995 0.49899 0.0
H530 H 0.05925 0.13988 0.47402 0.0
H531 H 0.02281 0.17758 0.52238 0.0
H532 H 0.07831 0.94167 0.49913 0.0
H533 H 0.02227 0.95991 0.52786 0.0
H534 H 0.02365 0.93311 0.5556 0.0
H535 H 0.08037 0.9154 0.52791 0.0
Gd536 Gd 0.32202 0.80926 0.76634 0.0
Gd537 Gd 0.27953 0.76833 0.76806 0.0
C538 C 0.32506 0.75071 0.77176 0.0
C539 C 0.36107 0.83838 0.775 0.0
C540 C 0.38214 0.83286 0.77958 0.0
C541 C 0.39291 0.82486 0.76025 0.0
C542 C 0.39097 0.83397 0.80319 0.0
C543 C 0.42104 0.81945 0.78806 0.0
C544 C 0.41023 0.82725 0.80738 0.0
C545 C 0.41218 0.81813 0.76446 0.0
C546 C 0.29952 0.78039 0.72404 0.0
C547 C 0.27716 0.82831 0.7675 0.0
C548 C 0.24295 0.73636 0.74966 0.0
C549 C 0.22093 0.73979 0.74822 0.0
C550 C 0.21008 0.7419 0.76856 0.0
C551 C 0.2118 0.74417 0.72689 0.0
C552 C 0.18159 0.75311 0.74627 0.0
C553 C 0.19242 0.75108 0.72603 0.0
C554 C 0.19041 0.7484 0.76752 0.0
C555 C 0.29492 0.7972 0.81256 0.0
O556 O 0.3354 0.77455 0.77087 0.0
O557 O 0.30333 0.74392 0.77099 0.0
O558 O 0.35042 0.82868 0.75311 0.0
O559 O 0.34844 0.83636 0.79176 0.0
O560 O 0.30896 0.80442 0.72706 0.0
O561 O 0.30308 0.7735 0.74305 0.0
O562 O 0.26657 0.80385 0.76566 0.0
O563 O 0.29893 0.83519 0.76902 0.0
O564 O 0.25277 0.73726 0.7711 0.0
O565 O 0.25562 0.7491 0.73702 0.0
O566 O 0.27732 0.77832 0.80794 0.0
O567 O 0.30288 0.79887 0.79352 0.0
H568 H 0.38642 0.82368 0.74183 0.0
H569 H 0.38303 0.84004 0.81846 0.0
H570 H 0.417 0.82892 0.82583 0.0
H571 H 0.42025 0.81209 0.74932 0.0
H572 H 0.21685 0.73888 0.78532 0.0
H573 H 0.21988 0.74276 0.71097 0.0
H574 H 0.18558 0.75414 0.7093 0.0
H575 H 0.18205 0.74972 0.78323 0.0
Gd576 Gd 0.55994 0.04325 0.04767 0.0
Gd577 Gd 0.55126 0.0464 0.99717 0.0
C578 C 0.51216 0.01476 0.01519 0.0
C579 C 0.5546 0.03925 0.09036 0.0
C580 C 0.53706 0.02086 0.09749 0.0
C581 C 0.53975 0.99735 0.09987 0.0
C582 C 0.51689 0.02598 0.1004 0.0
C583 C 0.50352 0.98602 0.11133 0.0
C584 C 0.50025 0.00867 0.10703 0.0
C585 C 0.52307 0.98001 0.10662 0.0
C586 C 0.57138 1.0082 0.01583 0.0
C587 C 0.5996 0.07137 0.02947 0.0
C588 C 0.55465 0.0538 0.95504 0.0
C589 C 0.57218 0.07126 0.9473 0.0
C590 C 0.56698 0.0871 0.9332 0.0
C591 C 0.59421 0.07284 0.95434 0.0
C592 C 0.60449 0.09828 0.92596 0.0
C593 C 0.61048 0.08712 0.94429 0.0
C594 C 0.58329 0.10114 0.92295 0.0
C595 C 0.53916 0.08022 0.02941 0.0
O596 O 0.52391 0.02587 0.03655 0.0
O597 O 0.52046 0.01641 0.99516 0.0
O598 O 0.56861 0.02983 0.07878 0.0
O599 O 0.54858 0.05638 0.08114 0.0
O600 O 0.58252 0.01948 0.03692 0.0
O601 O 0.55415 0.01493 0.01285 0.0
O602 O 0.588 0.05968 0.00807 0.0
O603 O 0.59038 0.07288 0.04908 0.0
O604 O 0.54345 0.0649 0.96955 0.0
O605 O 0.55938 0.03448 0.96148 0.0
O606 O 0.52731 0.0676 0.00908 0.0
O607 O 0.55702 0.07468 0.0319 0.0
H608 H 0.55495 0.99261 0.09715 0.0
H609 H 0.51406 0.04364 0.09813 0.0
H610 H 0.48552 0.01415 0.11071 0.0
H611 H 0.52598 0.96264 0.10967 0.0
H612 H 0.55015 0.0871 0.92863 0.0
H613 H 0.59878 0.06153 0.96597 0.0
H614 H 0.6269 0.08507 0.94714 0.0
H615 H 0.57848 0.11027 0.90932 0.0
Gd616 Gd 0.31771 0.32429 0.28599 0.0
Gd617 Gd 0.29987 0.26904 0.26342 0.0
C618 C 0.26602 0.29981 0.27162 0.0
C619 C 0.32516 0.37174 0.30509 0.0
C620 C 0.31153 0.38858 0.30374 0.0
C621 C 0.31415 0.40998 0.32255 0.0
C622 C 0.29456 0.38207 0.28442 0.0
C623 C 0.28436 0.41977 0.30126 0.0
C624 C 0.28092 0.39753 0.28327 0.0
C625 C 0.30055 0.42571 0.32127 0.0
C626 C 0.31665 0.29369 0.31663 0.0
C627 C 0.35126 0.29616 0.26959 0.0
C628 C 0.2917 0.22127 0.25905 0.0
C629 C 0.30605 0.20486 0.25284 0.0
C630 C 0.30357 0.18969 0.22939 0.0
C631 C 0.32336 0.20556 0.27006 0.0
C632 C 0.33481 0.17526 0.24092 0.0
C633 C 0.33759 0.19099 0.26414 0.0
C634 C 0.31788 0.17494 0.22346 0.0
C635 C 0.30398 0.29179 0.22601 0.0
O636 O 0.28244 0.31994 0.27325 0.0
O637 O 0.26875 0.27719 0.26986 0.0
O638 O 0.3173 0.35422 0.3162 0.0
O639 O 0.3321 0.36313 0.28498 0.0
O640 O 0.33368 0.31157 0.31586 0.0
O641 O 0.3016 0.29184 0.30008 0.0
O642 O 0.3362 0.27566 0.27052 0.0
O643 O 0.34719 0.31814 0.27143 0.0
O644 O 0.2849 0.23084 0.24187 0.0
O645 O 0.29783 0.23771 0.27991 0.0
O646 O 0.29695 0.26769 0.22389 0.0
O647 O 0.30888 0.30323 0.24812 0.0
H648 H 0.3269 0.4147 0.33784 0.0
H649 H 0.29218 0.36541 0.26992 0.0
H650 H 0.2684 0.39287 0.26774 0.0
H651 H 0.30334 0.44302 0.33515 0.0
H652 H 0.29051 0.1891 0.21572 0.0
H653 H 0.32589 0.21713 0.28829 0.0
H654 H 0.35008 0.19112 0.27824 0.0
H655 H 0.31538 0.16278 0.2055 0.0
Gd656 Gd 0.54355 0.56321 0.0296 0.0
Gd657 Gd 0.54805 0.51642 1.0053 0.0
C658 C 0.52845 0.5447 0.97007 0.0
C659 C 0.54221 0.60938 0.04037 0.0
C660 C 0.54124 0.62543 0.0235 0.0
C661 C 0.52612 0.63975 0.02448 0.0
C662 C 0.5542 0.62476 1.00489 0.0
C663 C 0.53909 0.65529 0.99038 0.0
C664 C 0.55317 0.63958 0.98853 0.0
C665 C 0.52498 0.65457 0.00795 0.0
C666 C 0.50932 0.52445 0.03196 0.0
C667 C 0.56328 0.53486 0.06453 0.0
C668 C 0.54827 0.46974 0.99442 0.0
C669 C 0.54936 0.45267 0.01032 0.0
C670 C 0.56349 0.43717 0.00703 0.0
C671 C 0.53747 0.45303 0.02987 0.0
C672 C 0.55251 0.42094 0.04144 0.0
C673 C 0.539 0.43724 0.04528 0.0
C674 C 0.56506 0.42136 0.02249 0.0
C675 C 0.58241 0.55484 1.00208 0.0
O676 O 0.53499 0.56386 0.98956 0.0
O677 O 0.5303 0.52221 0.97179 0.0
O678 O 0.52482 0.59047 0.03779 0.0
O679 O 0.56042 0.60293 0.04317 0.0
O680 O 0.51934 0.54293 0.05023 0.0
O681 O 0.51809 0.52709 0.0134 0.0
O682 O 0.55584 0.51564 0.04527 0.0
O683 O 0.56226 0.55761 0.06271 0.0
O684 O 0.56591 0.48833 0.99688 0.0
O685 O 0.5303 0.47686 0.99273 0.0
O686 O 0.57241 0.5356 0.98449 0.0
O687 O 0.57373 0.55294 0.02093 0.0
H688 H 0.51545 0.63975 0.03821 0.0
H689 H 0.56552 0.61316 1.00322 0.0
H690 H 0.56444 0.63988 0.97542 0.0
H691 H 0.51377 0.66628 0.00953 0.0
H692 H 0.57319 0.43718 0.99241 0.0
H693 H 0.5268 0.46531 0.03313 0.0
H694 H 0.52895 0.43709 0.05959 0.0
H695 H 0.57574 0.4091 0.01936 0.0
Gd696 Gd 0.82225 0.30831 0.27338 0.0
Gd697 Gd 0.78006 0.27161 0.26647 0.0
C698 C 0.8243 0.25044 0.27174 0.0
C699 C 0.85914 0.34186 0.28651 0.0
C700 C 0.8809 0.33776 0.29052 0.0
C701 C 0.8926 0.33294 0.27116 0.0
C702 C 0.88917 0.33617 0.31351 0.0
C703 C 0.92067 0.32602 0.29792 0.0
C704 C 0.90888 0.33027 0.31714 0.0
C705 C 0.91236 0.32698 0.27485 0.0
C706 C 0.80879 0.28091 0.22757 0.0
C707 C 0.77798 0.32965 0.26845 0.0
C708 C 0.74365 0.23751 0.25385 0.0
C709 C 0.7221 0.24203 0.25006 0.0
C710 C 0.70789 0.23882 0.26726 0.0
C711 C 0.71671 0.25263 0.23099 0.0
C712 C 0.68299 0.25563 0.2458 0.0
C713 C 0.69725 0.2594 0.22891 0.0
C714 C 0.68837 0.24554 0.26509 0.0
C715 C 0.79381 0.29789 0.31237 0.0
O716 O 0.83527 0.2748 0.27958 0.0
O717 O 0.80293 0.24468 0.26377 0.0
O718 O 0.84929 0.335 0.26421 0.0
O719 O 0.84613 0.33505 0.30174 0.0
O720 O 0.82866 0.2868 0.23843 0.0
O721 O 0.79699 0.2905 0.24118 0.0
O722 O 0.76695 0.30527 0.26048 0.0
O723 O 0.79936 0.33525 0.2764 0.0
O724 O 0.75339 0.24507 0.27618 0.0
O725 O 0.75679 0.24338 0.23834 0.0
O726 O 0.77384 0.29253 0.30208 0.0
O727 O 0.80548 0.28874 0.29833 0.0
H728 H 0.88655 0.33377 0.2532 0.0
H729 H 0.88041 0.33944 0.32872 0.0
H730 H 0.91522 0.32963 0.33509 0.0
H731 H 0.92155 0.3241 0.25994 0.0
H732 H 0.71189 0.23116 0.28237 0.0
H733 H 0.72745 0.25576 0.21764 0.0
H734 H 0.69291 0.2666 0.2136 0.0
H735 H 0.67714 0.24213 0.27795 0.0
Gd736 Gd 0.05293 0.53627 0.54653 0.0
Gd737 Gd 0.05014 0.54516 0.49334 0.0
C738 C 0.0096 0.50704 0.50859 0.0
C739 C 0.0456 0.53698 0.58982 0.0
C740 C 0.03133 0.51799 0.59996 0.0
C741 C 0.0372 0.49619 0.60305 0.0
C742 C 0.01146 0.52159 0.60658 0.0
C743 C 0.00519 0.48397 0.62239 0.0
C744 C 0.99842 0.50462 0.61754 0.0
C745 C 0.02428 0.4794 0.61435 0.0
C746 C 0.06794 0.50237 0.5165 0.0
C747 C 0.09495 0.56656 0.52928 0.0
C748 C 0.04791 0.54706 0.44912 0.0
C749 C 0.06469 0.562 0.43796 0.0
C750 C 0.06589 0.5875 0.43861 0.0
C751 C 0.08129 0.55185 0.42933 0.0
C752 C 0.10013 0.59241 0.42241 0.0
C753 C 0.09885 0.56689 0.42176 0.0
C754 C 0.08351 0.60259 0.43095 0.0
C755 C 0.04517 0.58196 0.52872 0.0
O756 O 0.02063 0.50974 0.52997 0.0
O757 O 0.01763 0.51821 0.49194 0.0
O758 O 0.06298 0.53163 0.58191 0.0
O759 O 0.0355 0.54739 0.5757 0.0
O760 O 0.06754 0.50274 0.53916 0.0
O761 O 0.05961 0.51907 0.51182 0.0
O762 O 0.08592 0.5562 0.50652 0.0
O763 O 0.08367 0.56665 0.54761 0.0
O764 O 0.03853 0.56013 0.46454 0.0
O765 O 0.05304 0.5285 0.45666 0.0
O766 O 0.05561 0.58639 0.51093 0.0
O767 O 0.03767 0.55856 0.52653 0.0
H768 H 0.05217 0.49255 0.59761 0.0
H769 H 0.00638 0.53803 0.60411 0.0
H770 H 0.98391 0.5088 0.62391 0.0
H771 H 0.02979 0.46362 0.618 0.0
H772 H 0.05335 0.59589 0.44528 0.0
H773 H 0.08085 0.53228 0.42858 0.0
H774 H 0.11094 0.55811 0.4144 0.0
H775 H 0.08393 0.62203 0.43118 0.0
Gd776 Gd 0.78036 0.79608 0.27031 0.0
Gd777 Gd 0.82608 0.78218 0.27078 0.0
C778 C 0.80972 0.80126 0.32122 0.0
C779 C 0.74008 0.79583 0.27329 0.0
C780 C 0.72582 0.7982 0.29214 0.0
C781 C 0.7143 0.81662 0.29378 0.0
C782 C 0.72298 0.7821 0.30802 0.0
C783 C 0.69535 0.80093 0.32493 0.0
C784 C 0.70788 0.78346 0.32425 0.0
C785 C 0.69926 0.81803 0.31002 0.0
C786 C 0.81394 0.83882 0.27056 0.0
C787 C 0.7959 0.7755 0.21961 0.0
C788 C 0.86673 0.78568 0.26596 0.0
C789 C 0.88069 0.78091 0.24693 0.0
C790 C 0.89075 0.76117 0.24576 0.0
C791 C 0.88621 0.79759 0.23175 0.0
C792 C 0.91334 0.7767 0.21706 0.0
C793 C 0.90236 0.79544 0.21691 0.0
C794 C 0.90696 0.75915 0.23105 0.0
C795 C 0.7929 0.73942 0.27174 0.0
O796 O 0.79017 0.79864 0.30955 0.0
O797 O 0.82682 0.79852 0.31037 0.0
O798 O 0.75553 0.81621 0.27378 0.0
O799 O 0.74641 0.7751 0.26801 0.0
O800 O 0.79356 0.83806 0.27113 0.0
O801 O 0.81505 0.81637 0.27028 0.0
O802 O 0.81449 0.77509 0.23142 0.0
O803 O 0.77992 0.78213 0.23035 0.0
O804 O 0.85378 0.76608 0.2712 0.0
O805 O 0.85789 0.80441 0.26655 0.0
O806 O 0.81344 0.7405 0.27138 0.0
O807 O 0.79129 0.76162 0.27124 0.0
H808 H 0.71642 0.82944 0.2819 0.0
H809 H 0.732 0.76806 0.30752 0.0
H810 H 0.70561 0.77037 0.33585 0.0
H811 H 0.68989 0.83166 0.30995 0.0
H812 H 0.88691 0.74805 0.25719 0.0
H813 H 0.87886 0.81307 0.23218 0.0
H814 H 0.90723 0.80937 0.20648 0.0
H815 H 0.91533 0.74464 0.23151 0.0
Gd816 Gd 0.81464 0.28397 0.74533 0.0
Gd817 Gd 0.79868 0.2945 0.788 0.0
C818 C 0.82185 0.34164 0.77217 0.0
C819 C 0.82961 0.28304 0.70507 0.0
C820 C 0.84084 0.30373 0.69519 0.0
C821 C 0.86109 0.30382 0.68743 0.0
C822 C 0.83224 0.3243 0.69497 0.0
C823 C 0.86199 0.34264 0.67506 0.0
C824 C 0.84281 0.34371 0.68516 0.0
C825 C 0.87173 0.32331 0.67753 0.0
C826 C 0.84263 0.28194 0.78303 0.0
C827 C 0.7928 0.23684 0.7606 0.0
C828 C 0.78454 0.29529 0.82884 0.0
C829 C 0.77219 0.27596 0.83973 0.0
C830 C 0.75346 0.27953 0.84938 0.0
C831 C 0.7788 0.25414 0.84077 0.0
C832 C 0.75062 0.24242 0.8653 0.0
C833 C 0.76803 0.23742 0.85347 0.0
C834 C 0.74261 0.26276 0.86198 0.0
C835 C 0.77078 0.29868 0.7514 0.0
O836 O 0.81821 0.3255 0.75111 0.0
O837 O 0.81907 0.33356 0.7918 0.0
O838 O 0.84063 0.2807 0.72419 0.0
O839 O 0.80897 0.28082 0.70692 0.0
O840 O 0.83665 0.26521 0.76277 0.0
O841 O 0.83316 0.29926 0.78307 0.0
O842 O 0.79571 0.25296 0.78158 0.0
O843 O 0.79532 0.24486 0.74103 0.0
O844 O 0.77371 0.29909 0.81036 0.0
O845 O 0.80458 0.29511 0.8259 0.0
O846 O 0.77778 0.3148 0.77193 0.0
O847 O 0.77964 0.28049 0.75022 0.0
H848 H 0.86826 0.28839 0.68828 0.0
H849 H 0.8169 0.32498 0.70149 0.0
H850 H 0.83466 0.35814 0.68337 0.0
H851 H 0.88654 0.32216 0.66997 0.0
H852 H 0.74784 0.29597 0.84816 0.0
H853 H 0.79294 0.25069 0.83292 0.0
H854 H 0.77467 0.22198 0.85588 0.0
H855 H 0.72912 0.26683 0.87082 0.0
Gd856 Gd 0.81715 0.82457 0.78721 0.0
Gd857 Gd 0.79869 0.76931 0.76467 0.0
C858 C 0.76481 0.80068 0.77194 0.0
C859 C 0.82566 0.87238 0.80507 0.0
C860 C 0.8117 0.88901 0.80416 0.0
C861 C 0.81409 0.91009 0.82326 0.0
C862 C 0.79461 0.88252 0.78497 0.0
C863 C 0.78396 0.91976 0.80241 0.0
C864 C 0.78067 0.89772 0.78421 0.0
C865 C 0.80023 0.92562 0.82233 0.0
C866 C 0.81521 0.79402 0.81793 0.0
C867 C 0.85036 0.79502 0.77133 0.0
C868 C 0.79002 0.72156 0.7602 0.0
C869 C 0.80408 0.70507 0.75299 0.0
C870 C 0.79864 0.68718 0.73074 0.0
C871 C 0.82384 0.70827 0.76767 0.0
C872 C 0.83149 0.6743 0.73905 0.0
C873 C 0.83737 0.69305 0.76078 0.0
C874 C 0.81229 0.67187 0.72379 0.0
C875 C 0.8045 0.79187 0.72728 0.0
O876 O 0.7816 0.82106 0.77612 0.0
O877 O 0.7673 0.77782 0.76904 0.0
O878 O 0.81899 0.85561 0.81738 0.0
O879 O 0.83134 0.86288 0.78444 0.0
O880 O 0.83243 0.81182 0.81749 0.0
O881 O 0.80036 0.79236 0.8012 0.0
O882 O 0.83485 0.77479 0.77194 0.0
O883 O 0.84677 0.81731 0.77345 0.0
O884 O 0.78274 0.73126 0.74339 0.0
O885 O 0.79679 0.73789 0.78109 0.0
O886 O 0.79719 0.7678 0.72516 0.0
O887 O 0.80898 0.80332 0.7494 0.0
H888 H 0.82694 0.91482 0.83846 0.0
H889 H 0.79239 0.86611 0.77021 0.0
H890 H 0.76824 0.89322 0.76863 0.0
H891 H 0.80303 0.94287 0.83628 0.0
H892 H 0.78371 0.68482 0.71892 0.0
H893 H 0.8288 0.7222 0.78476 0.0
H894 H 0.85179 0.69505 0.77327 0.0
H895 H 0.80746 0.65752 0.70696 0.0
Gd896 Gd 0.52955 0.52632 0.49788 0.0
Gd897 Gd 0.57208 0.55689 0.52866 0.0
C898 C 0.54483 0.58792 0.5055 0.0
C899 C 0.48814 0.50997 0.48288 0.0
C900 C 0.47111 0.52342 0.48433 0.0
C901 C 0.45575 0.51944 0.46393 0.0
C902 C 0.47143 0.54213 0.50501 0.0
C903 C 0.44007 0.55138 0.48545 0.0
C904 C 0.45596 0.55587 0.50562 0.0
C905 C 0.4404 0.53336 0.46443 0.0
C906 C 0.5611 0.52743 0.46703 0.0
C907 C 0.55662 0.49588 0.52381 0.0
C908 C 0.6135 0.57241 0.54222 0.0
C909 C 0.62864 0.55733 0.54568 0.0
C910 C 0.64339 0.56445 0.56706 0.0
C911 C 0.62712 0.53459 0.52887 0.0
C912 C 0.65717 0.52818 0.5533 0.0
C913 C 0.64137 0.52018 0.5326 0.0
C914 C 0.65747 0.54987 0.57094 0.0
C915 C 0.54179 0.55696 0.56029 0.0
O916 O 0.52896 0.56661 0.49861 0.0
O917 O 0.56408 0.58914 0.51658 0.0
O918 O 0.50252 0.51718 0.46915 0.0
O919 O 0.49698 0.50687 0.50312 0.0
O920 O 0.54061 0.5153 0.4611 0.0
O921 O 0.56384 0.53758 0.48971 0.0
O922 O 0.57184 0.5176 0.53156 0.0
O923 O 0.5382 0.49384 0.51013 0.0
O924 O 0.59943 0.57235 0.55741 0.0
O925 O 0.60474 0.56978 0.52001 0.0
O926 O 0.56224 0.5694 0.56478 0.0
O927 O 0.53735 0.54581 0.53756 0.0
H928 H 0.45572 0.50565 0.44756 0.0
H929 H 0.48357 0.54609 0.52075 0.0
H930 H 0.45604 0.56938 0.52219 0.0
H931 H 0.42865 0.5298 0.44845 0.0
H932 H 0.64417 0.58144 0.5806 0.0
H933 H 0.61525 0.5282 0.51261 0.0
H934 H 0.64084 0.50365 0.51859 0.0
H935 H 0.66925 0.55617 0.58726 0.0
Gd936 Gd 0.07328 0.54352 0.01261 0.0
Gd937 Gd 0.02443 0.54166 0.01691 0.0
C938 C 0.03729 0.48964 0.0092 0.0
C939 C 0.11207 0.53728 0.01475 0.0
C940 C 0.12272 0.51663 0.0081 0.0
C941 C 0.13518 0.51626 0.98899 0.0
C942 C 0.12262 0.49889 0.02218 0.0
C943 C 0.14977 0.48372 1.0006 0.0
C944 C 0.13603 0.48256 0.01842 0.0
C945 C 0.14866 0.50001 0.98533 0.0
C946 C 0.04728 0.538 0.97209 0.0
C947 C 0.06129 0.59527 0.02068 0.0
C948 C 0.98525 0.54712 0.0144 0.0
C949 C 0.97363 0.56698 0.02048 0.0
C950 C 0.95896 0.56522 0.03743 0.0
C951 C 0.97552 0.58644 0.00826 0.0
C952 C 0.94607 0.59967 0.02729 0.0
C953 C 0.96199 0.60266 0.01172 0.0
C954 C 0.94536 0.58141 0.04085 0.0
C955 C 0.04998 0.54636 0.05768 0.0
O956 O 0.058 0.50323 0.01422 0.0
O957 O 0.02092 0.4998 0.00597 0.0
O958 O 0.10315 0.54453 0.99702 0.0
O959 O 0.10071 0.53704 0.03279 0.0
O960 O 0.06738 0.55181 0.9763 0.0
O961 O 0.04217 0.52747 0.98863 0.0
O962 O 0.04044 0.58202 0.01475 0.0
O963 O 0.07708 0.58479 0.02514 0.0
O964 O 0.99457 0.54084 0.03252 0.0
O965 O 0.9967 0.54745 0.99643 0.0
O966 O 0.02957 0.53359 0.05319 0.0
O967 O 0.05546 0.55706 0.04124 0.0
H968 H 0.13556 0.52963 0.97779 0.0
H969 H 0.11319 0.49858 0.037 0.0
H970 H 0.13699 0.47049 0.0307 0.0
H971 H 0.15939 0.50144 0.97172 0.0
H972 H 0.95727 0.55052 0.04727 0.0
H973 H 0.98688 0.58862 0.99535 0.0
H974 H 0.96347 0.61699 1.00147 0.0
H975 H 0.9334 0.57851 0.05302 0.0
H976 H 0.99447 0.2135 0.98618 0.0
H977 H 0.05575 0.10443 0.96552 0.0
H978 H 0.03467 0.2022 0.9302 0.0
H979 H 0.02611 0.12306 0.02916 0.0
H980 H 0.04849 0.14095 0.95284 0.0
H981 H 0.00664 0.18183 1.00336 0.0
C982 C 0.0059 0.20447 0.97756 0.0
C983 C 0.01334 0.21035 0.95654 0.0
C984 C 0.04373 0.1373 0.96971 0.0
C985 C 0.02707 0.17389 0.97589 0.0
C986 C 0.04785 0.11646 0.97687 0.0
C987 C 0.04137 0.11088 0.99825 0.0
C988 C 0.03302 0.15266 0.98406 0.0
C989 C 0.03114 0.1268 0.01242 0.0
C990 C 0.01287 0.18643 0.9874 0.0
C991 C 0.0284 0.19828 0.94636 0.0
N992 N 0.02717 0.14699 1.00503 0.0
N993 N 0.03452 0.18047 0.95594 0.0
H994 H 0.15606 0.79084 0.14393 0.0
H995 H 0.25075 0.83944 0.25891 0.0
H996 H 0.16141 0.85226 0.20544 0.0
H997 H 0.2457 0.76991 0.20672 0.0
H998 H 0.21941 0.84482 0.23625 0.0
H999 H 0.18964 0.78346 0.1628 0.0
C1000 C 0.16452 0.80312 0.16108 0.0
C1001 C 0.15594 0.82245 0.17299 0.0
C1002 C 0.22497 0.82831 0.22945 0.0
C1003 C 0.19421 0.81394 0.19477 0.0
C1004 C 0.2431 0.82518 0.24252 0.0
C1005 C 0.25115 0.80412 0.23492 0.0
C1006 C 0.21428 0.8104 0.20813 0.0
C1007 C 0.2402 0.78648 0.21333 0.0
C1008 C 0.18355 0.79871 0.17196 0.0
C1009 C 0.16733 0.83726 0.19547 0.0
N1010 N 0.22231 0.78999 0.20068 0.0
N1011 N 0.18565 0.83275 0.20543 0.0
H1012 H 0.51356 0.82813 0.49514 0.0
H1013 H 0.51568 0.9589 0.46739 0.0
H1014 H 0.52257 0.84147 0.42479 0.0
H1015 H 0.55099 0.95803 0.53462 0.0
H1016 H 0.51213 0.91361 0.45275 0.0
H1017 H 0.52312 0.87426 0.5119 0.0
C1018 C 0.51788 0.84079 0.48337 0.0
C1019 C 0.51726 0.83114 0.45861 0.0
C1020 C 0.52053 0.92333 0.47076 0.0
C1021 C 0.5272 0.88324 0.47729 0.0
C1022 C 0.52228 0.94896 0.4792 0.0
C1023 C 0.53335 0.96184 0.5023 0.0
C1024 C 0.52943 0.91049 0.4858 0.0
C1025 C 0.54217 0.94847 0.51676 0.0
C1026 C 0.52329 0.86695 0.49288 0.0
C1027 C 0.52299 0.84821 0.44402 0.0
N1028 N 0.53979 0.92328 0.50838 0.0
N1029 N 0.52725 0.87346 0.45348 0.0
H1030 H 0.53481 0.34129 0.6684 0.0
H1031 H 0.42799 0.24141 0.68888 0.0
H1032 H 0.52866 0.26121 0.65123 0.0
H1033 H 0.44367 0.32256 0.71527 0.0
H1034 H 0.46241 0.24675 0.67156 0.0
H1035 H 0.4994 0.33334 0.68243 0.0
C1036 C 0.52591 0.32194 0.66769 0.0
C1037 C 0.53476 0.30195 0.65905 0.0
C1038 C 0.45819 0.26332 0.68107 0.0
C1039 C 0.49369 0.29243 0.67471 0.0
C1040 C 0.43855 0.26033 0.69099 0.0
C1041 C 0.43276 0.28159 0.70362 0.0
C1042 C 0.47215 0.28774 0.68384 0.0
C1043 C 0.44704 0.30559 0.70542 0.0
C1044 C 0.50563 0.31736 0.67567 0.0
C1045 C 0.52252 0.27718 0.6583 0.0
N1046 N 0.46594 0.30792 0.69578 0.0
N1047 N 0.50247 0.27306 0.66598 0.0
H1048 H 0.98247 0.82627 0.61937 0.0
H1049 H 0.05943 0.87528 0.53224 0.0
H1050 H 0.0276 0.78469 0.59348 0.0
H1051 H 0.04253 0.92665 0.59025 0.0
H1052 H 0.04891 0.84152 0.55316 0.0
H1053 H 1.00325 0.86271 0.60627 0.0
C1054 C 0.99657 0.8248 0.61045 0.0
C1055 C 1.00319 0.80258 0.60681 0.0
C1056 C 0.04799 0.86035 0.56151 0.0
C1057 C 0.02708 0.84389 0.59222 0.0
C1058 C 0.05411 0.87971 0.54968 0.0
C1059 C 0.05126 0.90368 0.55918 0.0
C1060 C 0.03862 0.86498 0.58264 0.0
C1061 C 0.04421 0.9082 0.58183 0.0
C1062 C 0.00862 0.84562 0.60342 0.0
C1063 C 0.02193 0.80157 0.59603 0.0
N1064 N 0.03759 0.88883 0.59253 0.0
N1065 N 0.03314 0.82194 0.58868 0.0
H1066 H 0.53283 0.818 0.87489 0.0
H1067 H 0.4576 0.83692 0.76861 0.0
H1068 H 0.5587 0.83319 0.81061 0.0
H1069 H 0.43349 0.79308 0.81904 0.0
H1070 H 0.49485 0.83737 0.78313 0.0
H1071 H 0.49647 0.81328 0.8556 0.0
C1072 C 0.53093 0.82068 0.85677 0.0
C1073 C 0.54881 0.82591 0.84425 0.0
C1074 C 0.48134 0.82729 0.79066 0.0
C1075 C 0.50698 0.81992 0.82187 0.0
C1076 C 0.46012 0.82685 0.78231 0.0
C1077 C 0.44261 0.8153 0.79299 0.0
C1078 C 0.48486 0.81636 0.80992 0.0
C1079 C 0.44667 0.8027 0.81077 0.0
C1080 C 0.51006 0.81759 0.84564 0.0
C1081 C 0.54526 0.82908 0.82079 0.0
N1082 N 0.4675 0.80389 0.81897 0.0
N1083 N 0.52458 0.82599 0.81022 0.0
H1084 H 0.45859 0.16584 0.09595 0.0
H1085 H 0.56335 0.11767 0.06772 0.0
H1086 H 0.5241 0.20674 0.13128 0.0
H1087 H 0.49734 0.08002 0.03239 0.0
H1088 H 0.54927 0.14767 0.09547 0.0
H1089 H 0.47238 0.13102 0.07691 0.0
C1090 C 0.47589 0.16746 0.09969 0.0
C1091 C 0.49029 0.18932 0.11481 0.0
C1092 C 0.53789 0.13264 0.08181 0.0
C1093 C 0.50626 0.1497 0.09297 0.0
C1094 C 0.54591 0.11562 0.06608 0.0
C1095 C 0.53143 0.09684 0.0477 0.0
C1096 C 0.51532 0.13047 0.079 0.0
C1097 C 0.50902 0.09465 0.04613 0.0
C1098 C 0.48377 0.14755 0.0889 0.0
C1099 C 0.51248 0.19024 0.11951 0.0
N1100 N 0.50166 0.11139 0.06151 0.0
N1101 N 0.51988 0.17079 0.10832 0.0
H1102 H 0.15672 0.35186 0.31073 0.0
H1103 H 0.24472 0.27784 0.30308 0.0
H1104 H 0.17918 0.32362 0.36987 0.0
H1105 H 0.24459 0.3334 0.26125 0.0
H1106 H 0.21861 0.2932 0.32618 0.0
H1107 H 0.18891 0.34714 0.29232 0.0
C1108 C 0.16886 0.34542 0.32017 0.0
C1109 C 0.16524 0.33741 0.34138 0.0
C1110 C 0.22414 0.30192 0.31183 0.0
C1111 C 0.20144 0.33158 0.32041 0.0
C1112 C 0.23854 0.29273 0.29824 0.0
C1113 C 0.24634 0.30424 0.2801 0.0
C1114 C 0.21725 0.32233 0.30683 0.0
C1115 C 0.23858 0.32401 0.27502 0.0
C1116 C 0.18712 0.3427 0.30966 0.0
C1117 C 0.18138 0.32959 0.35326 0.0
N1118 N 0.22421 0.33246 0.28833 0.0
N1119 N 0.19868 0.3262 0.34221 0.0
H1120 H 0.00545 0.10254 0.20339 0.0
H1121 H 1.00101 0.02417 0.06522 0.0
H1122 H 0.95294 0.03504 0.1727 0.0
H1123 H 0.05024 0.09197 0.1035 0.0
H1124 H 0.98203 0.02626 0.10162 0.0
H1125 H 0.02035 0.09764 0.16567 0.0
C1126 C 0.99679 0.08654 0.18875 0.0
C1127 C 0.97752 0.06935 0.19205 0.0
C1128 C 0.9969 0.0408 0.10195 0.0
C1129 C 0.99539 0.06333 0.14693 0.0
C1130 C 0.00775 0.03969 0.08092 0.0
C1131 C 0.02746 0.05808 0.08061 0.0
C1132 C 0.00558 0.06049 0.12313 0.0
C1133 C 0.03522 0.07728 0.1022 0.0
C1134 C 0.00553 0.08374 0.16682 0.0
C1135 C 0.96761 0.04914 0.17154 0.0
N1136 N 0.0245 0.07791 0.12199 0.0
N1137 N 0.97659 0.04669 0.15018 0.0
H1138 H 0.26008 0.65357 0.46979 0.0
H1139 H 0.25335 0.76677 0.41022 0.0
H1140 H 0.3024 0.72951 0.4965 0.0
H1141 H 0.24108 0.69006 0.36796 0.0
H1142 H 0.26007 0.75251 0.4467 0.0
H1143 H 0.24343 0.66668 0.43654 0.0
C1144 C 0.26576 0.67309 0.46865 0.0
C1145 C 0.28261 0.69063 0.48569 0.0
C1146 C 0.25535 0.73875 0.42948 0.0
C1147 C 0.26343 0.70559 0.44823 0.0
C1148 C 0.25117 0.74672 0.40872 0.0
C1149 C 0.24672 0.72947 0.38613 0.0
C1150 C 0.25488 0.71342 0.42754 0.0
C1151 C 0.24457 0.70385 0.38511 0.0
C1152 C 0.25624 0.68046 0.44977 0.0
C1153 C 0.28957 0.71554 0.48348 0.0
N1154 N 0.24893 0.69655 0.40566 0.0
N1155 N 0.27981 0.7224 0.46498 0.0
H1156 H 0.60181 0.02924 0.69099 0.0
H1157 H 0.59287 0.07537 0.57088 0.0
H1158 H 0.65689 0.05366 0.65459 0.0
H1159 H 0.53965 0.03141 0.599 0.0
H1160 H 0.61663 0.08216 0.60886 0.0
H1161 H 0.57979 0.04628 0.66569 0.0
C1162 C 0.60915 0.03797 0.67741 0.0
C1163 C 0.63065 0.03879 0.67362 0.0
C1164 C 0.59964 0.07146 0.60679 0.0
C1165 C 0.60576 0.05818 0.64491 0.0
C1166 C 0.5862 0.06737 0.58518 0.0
C1167 C 0.56459 0.05225 0.58187 0.0
C1168 C 0.59121 0.0603 0.62491 0.0
C1169 C 0.55641 0.04275 0.60084 0.0
C1170 C 0.59672 0.04804 0.66331 0.0
C1171 C 0.63996 0.05174 0.65708 0.0
N1172 N 0.56986 0.0467 0.62156 0.0
N1173 N 0.6272 0.06042 0.64271 0.0
H1174 H 0.28812 0.33484 0.97014 0.0
H1175 H 0.34725 0.32187 0.8518 0.0
H1176 H 0.35799 0.35128 0.97115 0.0
H1177 H 0.27728 0.29549 0.84888 0.0
H1178 H 0.35105 0.33345 0.89578 0.0
H1179 H 0.2832 0.32008 0.9259 0.0
C1180 C 0.30238 0.3351 0.96109 0.0
C1181 C 0.32349 0.34398 0.97438 0.0
C1182 C 0.33485 0.32495 0.88557 0.0
C1183 C 0.31806 0.32795 0.92391 0.0
C1184 C 0.3327 0.3183 0.86042 0.0
C1185 C 0.31194 0.30767 0.84663 0.0
C1186 C 0.31614 0.32078 0.89712 0.0
C1187 C 0.29361 0.30381 0.85881 0.0
C1188 C 0.29958 0.32678 0.93587 0.0
C1189 C 0.3414 0.34411 0.96173 0.0
N1190 N 0.29613 0.31032 0.88335 0.0
N1191 N 0.33829 0.33647 0.9373 0.0
H1192 H 0.94395 0.03183 0.33377 0.0
H1193 H 0.03827 0.08641 0.45029 0.0
H1194 H 1.0001 0.09427 0.33723 0.0
H1195 H 0.99767 0.00951 0.43241 0.0
H1196 H 0.02229 0.09207 0.41178 0.0
H1197 H 0.9605 0.02584 0.37197 0.0
C1198 C 0.95968 0.04444 0.34259 0.0
C1199 C 0.97046 0.06369 0.33199 0.0
C1200 C 0.0168 0.07393 0.41622 0.0
C1201 C 0.98972 0.05706 0.37652 0.0
C1202 C 0.02595 0.07068 0.4384 0.0
C1203 C 0.01951 0.04737 0.44503 0.0
C1204 C 1.00044 0.05401 0.40037 0.0
C1205 C 1.00341 0.0278 0.42836 0.0
C1206 C 0.96923 0.04093 0.36447 0.0
C1207 C 0.991 0.07922 0.34452 0.0
N1208 N 0.9944 0.03162 0.40723 0.0
N1209 N 0.99975 0.07573 0.36594 0.0
H1210 H 0.2759 0.64857 0.60886 0.0
H1211 H 0.28966 0.79044 0.68033 0.0
H1212 H 0.27217 0.70903 0.57473 0.0
H1213 H 0.28874 0.72905 0.71487 0.0
H1214 H 0.27752 0.75955 0.64136 0.0
H1215 H 0.27382 0.67573 0.64772 0.0
C1216 C 0.27365 0.66717 0.60944 0.0
C1217 C 0.27408 0.67667 0.58876 0.0
C1218 C 0.27968 0.7528 0.65751 0.0
C1219 C 0.27256 0.70808 0.6329 0.0
C1220 C 0.28667 0.77045 0.67969 0.0
C1221 C 0.29032 0.76227 0.7007 0.0
C1222 C 0.27659 0.72684 0.6564 0.0
C1223 C 0.28615 0.73615 0.69901 0.0
C1224 C 0.27278 0.68282 0.63162 0.0
C1225 C 0.27177 0.7011 0.5904 0.0
N1226 N 0.27975 0.71939 0.67721 0.0
N1227 N 0.27145 0.71613 0.61216 0.0
H1228 H 0.6313 0.08175 0.77855 0.0
H1229 H 0.60109 0.05179 0.9016 0.0
H1230 H 0.63549 0.0146 0.80164 0.0
H1231 H 0.62518 0.12986 0.89851 0.0
H1232 H 0.60875 0.03829 0.86148 0.0
H1233 H 0.62479 0.10049 0.81945 0.0
C1234 C 0.63016 0.07076 0.79205 0.0
C1235 C 0.63321 0.04638 0.78692 0.0
C1236 C 0.61303 0.05843 0.86964 0.0
C1237 C 0.62647 0.06751 0.83283 0.0
C1238 C 0.60888 0.06615 0.89268 0.0
C1239 C 0.61339 0.09197 0.90358 0.0
C1240 C 0.62193 0.07653 0.85719 0.0
C1241 C 0.62214 0.1098 0.8907 0.0
C1242 C 0.62695 0.0816 0.8153 0.0
C1243 C 0.63269 0.03319 0.80493 0.0
N1244 N 0.62631 0.10171 0.86788 0.0
N1245 N 0.62932 0.04391 0.82706 0.0
H1246 H 0.29573 0.3751 0.11347 0.0
H1247 H 0.31175 0.26927 0.18263 0.0
H1248 H 0.32585 0.31609 0.08665 0.0
H1249 H 0.30039 0.3388 0.2203 0.0
H1250 H 0.31228 0.28425 0.14578 0.0
H1251 H 0.29165 0.35963 0.15052 0.0
C1252 C 0.30095 0.35852 0.11507 0.0
C1253 C 0.31111 0.34682 0.09683 0.0
C1254 C 0.30973 0.29639 0.16203 0.0
C1255 C 0.30681 0.32934 0.13928 0.0
C1256 C 0.30947 0.28785 0.18316 0.0
C1257 C 0.3062 0.30287 0.20465 0.0
C1258 C 0.30632 0.32013 0.16198 0.0
C1259 C 0.30327 0.32677 0.20418 0.0
C1260 C 0.29891 0.34995 0.13637 0.0
C1261 C 0.31794 0.32571 0.10015 0.0
N1262 N 0.30325 0.33463 0.18311 0.0
N1263 N 0.3157 0.31775 0.12085 0.0
H1264 H 0.27852 0.01667 0.02256 0.0
H1265 H 0.1545 0.97818 0.04259 0.0
H1266 H 0.24221 0.93831 0.01203 0.0
H1267 H 0.19905 0.05312 0.06811 0.0
H1268 H 0.18557 0.9617 0.03229 0.0
H1269 H 0.24767 0.0295 0.03744 0.0
C1270 C 0.26386 1.00215 0.02305 0.0
C1271 C 0.26288 0.97646 0.01627 0.0
C1272 C 0.18847 0.98163 0.04061 0.0
C1273 C 0.22766 0.99094 0.03377 0.0
C1274 C 0.17084 0.991 0.04657 0.0
C1275 C 0.1742 0.01711 0.05577 0.0
C1276 C 0.20931 0.99865 0.04374 0.0
C1277 C 0.19564 0.03288 0.06105 0.0
C1278 C 0.24634 0.00946 0.03185 0.0
C1279 C 0.24349 0.95836 0.01709 0.0
N1280 N 0.21232 0.02345 0.05454 0.0
N1281 N 0.22654 0.96598 0.0259 0.0
H1282 H 0.70838 0.67027 0.01681 0.0
H1283 H 0.61115 0.54148 0.97316 0.0
H1284 H 0.71448 0.59974 0.97457 0.0
H1285 H 0.60606 0.60201 0.03077 0.0
H1286 H 0.6484 0.56502 0.97197 0.0
H1287 H 0.67047 0.64843 0.02063 0.0
C1288 C 0.70177 0.65032 0.00822 0.0
C1289 C 0.71473 0.6369 0.99526 0.0
C1290 C 0.63926 0.57336 0.9849 0.0
C1291 C 0.67144 0.61186 0.99953 0.0
C1292 C 0.61784 0.55988 0.98553 0.0
C1293 C 0.60531 0.56978 1.002 0.0
C1294 C 0.64847 0.59736 1.00057 0.0
C1295 C 0.61513 0.59366 0.01778 0.0
C1296 C 0.68019 0.63784 0.01054 0.0
C1297 C 0.70529 0.611 0.98474 0.0
N1298 N 0.63608 0.60676 0.01656 0.0
N1299 N 0.6844 0.59951 0.98703 0.0
H1300 H 0.72965 0.4655 0.31629 0.0
H1301 H 0.74563 0.33517 0.23456 0.0
H1302 H 0.69969 0.43768 0.24204 0.0
H1303 H 0.78283 0.37417 0.30416 0.0
H1304 H 0.72763 0.36978 0.23642 0.0
H1305 H 0.74687 0.43093 0.31189 0.0
C1306 C 0.72665 0.45239 0.29878 0.0
C1307 C 0.71289 0.4557 0.27954 0.0
C1308 C 0.73964 0.37085 0.2514 0.0
C1309 C 0.7335 0.414 0.27433 0.0
C1310 C 0.75005 0.35081 0.25038 0.0
C1311 C 0.76622 0.3511 0.26918 0.0
C1312 C 0.74466 0.39175 0.27173 0.0
C1313 C 0.77086 0.37259 0.28895 0.0
C1314 C 0.73672 0.43223 0.29635 0.0
C1315 C 0.71002 0.43683 0.25765 0.0
N1316 N 0.76022 0.39139 0.28972 0.0
N1317 N 0.72005 0.41722 0.25574 0.0
H1318 H 0.8752 0.50494 0.49006 0.0
H1319 H 0.98608 0.48083 0.53708 0.0
H1320 H 0.88993 0.49029 0.55965 0.0
H1321 H 0.97912 0.51322 0.47574 0.0
H1322 H 0.94949 0.48267 0.54408 0.0
H1323 H 0.91401 0.51274 0.48568 0.0
C1324 C 0.88677 0.50432 0.50474 0.0
C1325 C 0.87961 0.49603 0.52473 0.0
C1326 C 0.95595 0.48929 0.52901 0.0
C1327 C 0.92304 0.50356 0.51951 0.0
C1328 C 0.97663 0.48768 0.52467 0.0
C1329 C 0.98585 0.49759 0.50626 0.0
C1330 C 0.94439 0.50044 0.51453 0.0
C1331 C 0.97276 0.50577 0.49043 0.0
C1332 C 0.90877 0.50834 0.50212 0.0
C1333 C 0.895 0.49585 0.54356 0.0
N1334 N 0.9527 0.50743 0.49519 0.0
N1335 N 0.91605 0.49879 0.54021 0.0
H1336 H 0.38323 0.04576 0.25188 0.0
H1337 H 0.37841 0.18211 0.25416 0.0
H1338 H 0.3877 0.10189 0.31763 0.0
H1339 H 0.31866 0.12493 0.21998 0.0
H1340 H 0.39343 0.14902 0.26443 0.0
H1341 H 0.367 0.07119 0.2292 0.0
C1342 C 0.38005 0.06299 0.2615 0.0
C1343 C 0.3865 0.07197 0.28645 0.0
C1344 C 0.37735 0.1438 0.25385 0.0
C1345 C 0.36986 0.10117 0.26099 0.0
C1346 C 0.36886 0.16251 0.24788 0.0
C1347 C 0.34705 0.15619 0.237 0.0
C1348 C 0.36406 0.11886 0.24831 0.0
C1349 C 0.33544 0.13053 0.22874 0.0
C1350 C 0.3712 0.07747 0.24863 0.0
C1351 C 0.38258 0.09441 0.2984 0.0
N1352 N 0.34392 0.11261 0.23518 0.0
N1353 N 0.37496 0.10871 0.2854 0.0
H1354 H 0.35928 0.18651 0.49715 0.0
H1355 H 0.40958 0.09005 0.55202 0.0
H1356 H 0.32365 0.13578 0.53619 0.0
H1357 H 0.4444 0.14132 0.51288 0.0
H1358 H 0.38003 0.11052 0.5515 0.0
H1359 H 0.39204 0.17396 0.50742 0.0
C1360 C 0.35837 0.17299 0.50822 0.0
C1361 C 0.33853 0.16206 0.51567 0.0
C1362 C 0.39422 0.11743 0.5432 0.0
C1363 C 0.37625 0.14726 0.5273 0.0
C1364 C 0.41126 0.10587 0.54365 0.0
C1365 C 0.4295 0.11363 0.53213 0.0
C1366 C 0.39528 0.13686 0.53107 0.0
C1367 C 0.43048 0.13416 0.52145 0.0
C1368 C 0.37716 0.16573 0.51402 0.0
C1369 C 0.3385 0.1445 0.52985 0.0
N1370 N 0.41355 0.14484 0.52096 0.0
N1371 N 0.35701 0.13748 0.53503 0.0
H1372 H 0.72852 0.57662 0.2572 0.0
H1373 H 0.75379 0.73068 0.2932 0.0
H1374 H 0.70294 0.61502 0.31651 0.0
H1375 H 0.79342 0.69086 0.25232 0.0
H1376 H 0.73089 0.68938 0.29746 0.0
H1377 H 0.74812 0.61811 0.25094 0.0
C1378 C 0.72678 0.5937 0.26882 0.0
C1379 C 0.71389 0.59182 0.28753 0.0
C1380 C 0.74449 0.68965 0.28735 0.0
C1381 C 0.73647 0.64045 0.28012 0.0
C1382 C 0.75752 0.71341 0.28469 0.0
C1383 C 0.77581 0.71478 0.2722 0.0
C1384 C 0.74931 0.66666 0.27715 0.0
C1385 C 0.77967 0.69124 0.26208 0.0
C1386 C 0.73811 0.61761 0.26526 0.0
C1387 C 0.71265 0.61514 0.30192 0.0
N1388 N 0.76674 0.66864 0.26465 0.0
N1389 N 0.72353 0.63812 0.29788 0.0
H1390 H 0.90679 0.46848 0.74437 0.0
H1391 H 0.83241 0.3807 0.81236 0.0
H1392 H 0.89715 0.49339 0.81829 0.0
H1393 H 0.82861 0.36399 0.7348 0.0
H1394 H 0.85262 0.42421 0.81437 0.0
H1395 H 0.87605 0.43094 0.73979 0.0
C1396 C 0.89814 0.46607 0.75955 0.0
C1397 C 0.90453 0.48383 0.78175 0.0
C1398 C 0.8471 0.41108 0.79687 0.0
C1399 C 0.86947 0.44151 0.77667 0.0
C1400 C 0.83563 0.38628 0.79575 0.0
C1401 C 0.82984 0.36861 0.77348 0.0
C1402 C 0.85294 0.41783 0.77559 0.0
C1403 C 0.83366 0.37686 0.75242 0.0
C1404 C 0.8805 0.44487 0.7569 0.0
C1405 C 0.89281 0.48004 0.80088 0.0
N1406 N 0.84547 0.40085 0.75401 0.0
N1407 N 0.87591 0.45915 0.79795 0.0
H1408 H 0.10765 0.90025 0.10066 0.0
H1409 H 0.03251 0.94693 0.01079 0.0
H1410 H 0.05582 0.84944 0.04624 0.0
H1411 H 0.09353 0.9954 0.05231 0.0
H1412 H 0.04073 0.91097 0.02391 0.0
H1413 H 0.10376 0.93533 0.08269 0.0
C1414 C 0.09598 0.89629 0.08452 0.0
C1415 C 0.08208 0.87182 0.07502 0.0
C1416 C 0.05239 0.92947 0.03 0.0
C1417 C 0.0769 0.91198 0.05491 0.0
C1418 C 0.04765 0.95004 0.02255 0.0
C1419 C 0.06232 0.97433 0.03036 0.0
C1420 C 0.07184 0.93318 0.0456 0.0
C1421 C 0.08169 0.97709 0.04569 0.0
C1422 C 0.09352 0.91638 0.07445 0.0
C1423 C 0.06687 0.868 0.05431 0.0
N1424 N 0.08579 0.95689 0.05289 0.0
N1425 N 0.06448 0.88782 0.04524 0.0
H1426 H 0.96634 0.26593 0.83709 0.0
H1427 H 0.85282 0.30237 0.83269 0.0
H1428 H 0.93589 0.27604 0.90143 0.0
H1429 H 0.87659 0.26351 0.77184 0.0
H1430 H 0.88428 0.29947 0.85953 0.0
H1431 H 0.93495 0.27155 0.81436 0.0
C1432 C 0.95299 0.26947 0.84652 0.0
C1433 C 0.95382 0.27052 0.87122 0.0
C1434 C 0.88251 0.29167 0.84028 0.0
C1435 C 0.91733 0.27724 0.84498 0.0
C1436 C 0.86472 0.29351 0.82498 0.0
C1437 C 0.86205 0.28309 0.79999 0.0
C1438 C 0.89784 0.27983 0.83031 0.0
C1439 C 0.87783 0.27166 0.79095 0.0
C1440 C 0.93495 0.27261 0.83344 0.0
C1441 C 0.93583 0.27491 0.88234 0.0
N1442 N 0.89492 0.27046 0.80599 0.0
N1443 N 0.91829 0.2783 0.86914 0.0
H1444 H 0.57665 0.25573 0.54176 0.0
H1445 H 0.5527 0.11715 0.56435 0.0
H1446 H 0.56631 0.23796 0.61016 0.0
H1447 H 0.58023 0.13392 0.50167 0.0
H1448 H 0.55743 0.16207 0.58071 0.0
H1449 H 0.57801 0.21181 0.52554 0.0
C1450 C 0.57469 0.24251 0.55324 0.0
C1451 C 0.57123 0.25 0.57716 0.0
C1452 C 0.56261 0.15614 0.56344 0.0
C1453 C 0.57259 0.20054 0.55905 0.0
C1454 C 0.55983 0.13054 0.55413 0.0
C1455 C 0.56591 0.12222 0.53169 0.0
C1456 C 0.57126 0.17352 0.55 0.0
C1457 C 0.57527 0.13997 0.51904 0.0
C1458 C 0.57558 0.21767 0.54411 0.0
C1459 C 0.56898 0.23264 0.59159 0.0
N1460 N 0.57748 0.16501 0.52829 0.0
N1461 N 0.56952 0.20866 0.58226 0.0
H1462 H 0.58461 0.83191 0.39086 0.0
H1463 H 0.66621 0.75849 0.33052 0.0
H1464 H 0.57358 0.75081 0.376 0.0
H1465 H 0.68145 0.84006 0.35082 0.0
H1466 H 0.63328 0.75586 0.34942 0.0
H1467 H 0.62077 0.83582 0.37819 0.0
C1468 C 0.58979 0.81492 0.38501 0.0
C1469 C 0.57591 0.79096 0.38432 0.0
C1470 C 0.6439 0.77438 0.35001 0.0
C1471 C 0.61731 0.79533 0.36978 0.0
C1472 C 0.66289 0.77591 0.33938 0.0
C1473 C 0.6767 0.79954 0.33901 0.0
C1474 C 0.63847 0.79663 0.36033 0.0
C1475 C 0.67115 0.82142 0.35036 0.0
C1476 C 0.61048 0.81719 0.37783 0.0
C1477 C 0.58361 0.76967 0.37674 0.0
N1478 N 0.65238 0.81944 0.36041 0.0
N1479 N 0.60369 0.77236 0.36965 0.0
H1480 H 0.09591 0.30159 0.45904 0.0
H1481 H 0.03176 0.15782 0.44837 0.0
H1482 H 0.08214 0.24308 0.39331 0.0
H1483 H 0.06077 0.2101 0.51668 0.0
H1484 H 0.0469 0.19085 0.42775 0.0
H1485 H 0.08284 0.26919 0.48122 0.0
C1486 C 0.09096 0.28178 0.44956 0.0
C1487 C 0.09044 0.27466 0.42461 0.0
C1488 C 0.04986 0.19512 0.44726 0.0
C1489 C 0.07417 0.23811 0.44911 0.0
C1490 C 0.04099 0.17645 0.45895 0.0
C1491 C 0.04508 0.18149 0.48412 0.0
C1492 C 0.06308 0.21871 0.46095 0.0
C1493 C 0.05711 0.20575 0.49721 0.0
C1494 C 0.08314 0.2634 0.46203 0.0
C1495 C 0.08324 0.24901 0.41273 0.0
N1496 N 0.06593 0.22349 0.48543 0.0
N1497 N 0.07497 0.2316 0.42505 0.0
H1498 H 0.54696 0.21209 0.19356 0.0
H1499 H 0.66723 0.29736 0.25304 0.0
H1500 H 0.56459 0.29381 0.2096 0.0
H1501 H 0.64905 0.21642 0.22504 0.0
H1502 H 0.62926 0.29738 0.24046 0.0
H1503 H 0.5843 0.214 0.20816 0.0
C1504 C 0.55872 0.23045 0.20038 0.0
C1505 C 0.55282 0.25281 0.20056 0.0
C1506 C 0.63366 0.27967 0.23716 0.0
C1507 C 0.59552 0.25524 0.21723 0.0
C1508 C 0.65511 0.27969 0.24439 0.0
C1509 C 0.66071 0.25678 0.24018 0.0
C1510 C 0.61823 0.25659 0.22563 0.0
C1511 C 0.64495 0.23431 0.22879 0.0
C1512 C 0.58005 0.23158 0.20861 0.0
C1513 C 0.56867 0.27615 0.20921 0.0
N1514 N 0.62437 0.23477 0.22184 0.0
N1515 N 0.58944 0.27681 0.21733 0.0
H1516 H 0.5804 0.89415 0.89571 0.0
H1517 H 0.61095 0.99907 0.01851 0.0
H1518 H 0.63931 0.91034 0.94572 0.0
H1519 H 0.55025 0.98154 0.97075 0.0
H1520 H 0.62469 0.97247 0.98786 0.0
H1521 H 0.57289 0.93258 0.91779 0.0
C1522 C 0.5924 0.90671 0.91057 0.0
C1523 C 0.61059 0.89951 0.91893 0.0
C1524 C 0.60842 0.97453 0.98392 0.0
C1525 C 0.60184 0.94271 0.94466 0.0
C1526 C 0.60052 0.98957 1.00148 0.0
C1527 C 0.57942 0.99222 0.99712 0.0
C1528 C 0.59499 0.96172 0.96194 0.0
C1529 C 0.56661 0.97977 0.97474 0.0
C1530 C 0.58792 0.92836 0.92341 0.0
C1531 C 0.62527 0.9156 0.93869 0.0
N1532 N 0.57454 0.96475 0.95798 0.0
N1533 N 0.6204 0.93638 0.95117 0.0
H1534 H 0.94477 0.72285 0.71394 0.0
H1535 H 0.87557 0.82098 0.74425 0.0
H1536 H 0.92323 0.76192 0.66321 0.0
H1537 H 0.86986 0.7592 0.77933 0.0
H1538 H 0.90053 0.80456 0.71959 0.0
H1539 H 0.92075 0.73771 0.74112 0.0
C1540 C 0.93444 0.73381 0.70818 0.0
C1541 C 0.93635 0.74178 0.68667 0.0
C1542 C 0.89401 0.79484 0.73295 0.0
C1543 C 0.90985 0.75941 0.71776 0.0
C1544 C 0.88018 0.80446 0.74731 0.0
C1545 C 0.87047 0.791 0.76335 0.0
C1546 C 0.89815 0.77193 0.73503 0.0
C1547 C 0.87686 0.76972 0.76673 0.0
C1548 C 0.92106 0.74258 0.72382 0.0
C1549 C 0.9225 0.75572 0.67985 0.0
N1550 N 0.89019 0.76054 0.75235 0.0
N1551 N 0.91019 0.76472 0.69572 0.0
H1552 H 0.14561 0.0656 0.8549 0.0
H1553 H 0.05764 0.98989 0.92631 0.0
H1554 H 0.12238 0.98438 0.83782 0.0
H1555 H 0.09836 0.0647 0.96076 0.0
H1556 H 0.0787 0.98921 0.89246 0.0
H1557 H 0.12681 0.06743 0.89111 0.0
C1558 C 0.13672 0.04806 0.8587 0.0
C1559 C 0.13618 0.02474 0.84296 0.0
C1560 C 0.08332 1.00579 0.9074 0.0
C1561 C 0.11354 0.02676 0.88494 0.0
C1562 C 0.07121 1.00622 0.92707 0.0
C1563 C 0.07614 0.02718 0.9473 0.0
C1564 C 0.10064 0.02682 0.90682 0.0
C1565 C 0.09392 0.04777 0.94624 0.0
C1566 C 0.12588 0.04915 0.87958 0.0
C1567 C 0.12384 1.00287 0.84923 0.0
N1568 N 0.10519 0.04713 0.92652 0.0
N1569 N 0.11308 1.00445 0.8692 0.0
H1570 H 0.82992 0.35379 0.53353 0.0
H1571 H 0.86395 0.3922 0.67554 0.0
H1572 H 0.81079 0.41212 0.58148 0.0
H1573 H 0.86955 0.32283 0.63027 0.0
H1574 H 0.84992 0.40351 0.63962 0.0
H1575 H 0.84454 0.34127 0.56833 0.0
C1576 C 0.82773 0.36299 0.55141 0.0
C1577 C 0.81979 0.38436 0.5549 0.0
C1578 C 0.85458 0.386 0.6376 0.0
C1579 C 0.83751 0.37148 0.59438 0.0
C1580 C 0.86311 0.37989 0.65796 0.0
C1581 C 0.86682 0.35601 0.6559 0.0
C1582 C 0.85039 0.36828 0.61529 0.0
C1583 C 0.86623 0.34111 0.63278 0.0
C1584 C 0.83668 0.35644 0.57125 0.0
C1585 C 0.81713 0.39572 0.57822 0.0
N1586 N 0.85739 0.34712 0.61331 0.0
N1587 N 0.8268 0.38978 0.59731 0.0
H1588 H 0.48547 0.01338 0.33797 0.0
H1589 H 0.52124 0.06692 0.46827 0.0
H1590 H 0.44814 0.05404 0.38222 0.0
H1591 H 0.53661 0.99876 0.43382 0.0
H1592 H 0.48907 0.05622 0.43803 0.0
H1593 H 0.49655 0.99758 0.37205 0.0
C1594 C 0.4794 0.01871 0.35484 0.0
C1595 C 0.46742 0.0366 0.35815 0.0
C1596 C 0.49932 0.04341 0.43703 0.0
C1597 C 0.47993 0.01888 0.39676 0.0
C1598 C 0.51789 0.0499 0.45391 0.0
C1599 C 0.53164 0.03409 0.4526 0.0
C1600 C 0.49517 0.0215 0.41824 0.0
C1601 C 0.52658 0.0118 0.43447 0.0
C1602 C 0.48537 0.00932 0.37414 0.0
C1603 C 0.45852 0.04142 0.37952 0.0
N1604 N 0.50887 1.00634 0.4175 0.0
N1605 N 0.46556 0.03322 0.39848 0.0
H1606 H 0.83383 0.73194 0.08226 0.0
H1607 H 0.77312 0.79186 0.18562 0.0
H1608 H 0.77476 0.75198 0.06327 0.0
H1609 H 0.81402 0.74246 0.19316 0.0
H1610 H 0.77482 0.78269 0.1418 0.0
H1611 H 0.82932 0.74244 0.12453 0.0
C1612 C 0.82014 0.73916 0.08713 0.0
C1613 C 0.80474 0.74132 0.06937 0.0
C1614 C 0.78316 0.77372 0.15314 0.0
C1615 C 0.79929 0.75323 0.11788 0.0
C1616 C 0.78211 0.77882 0.17803 0.0
C1617 C 0.79366 0.7681 0.19302 0.0
C1618 C 0.79589 0.75794 0.14352 0.0
C1619 C 0.80519 0.75149 0.18237 0.0
C1620 C 0.8174 0.74487 0.11124 0.0
C1621 C 0.78697 0.75013 0.07657 0.0
N1622 N 0.80612 0.74711 0.15841 0.0
N1623 N 0.78474 0.75595 0.10042 0.0
H1624 H 0.09754 0.96909 0.68401 0.0
H1625 H 0.08964 0.06994 0.6038 0.0
H1626 H 0.14105 0.04456 0.70308 0.0
H1627 H 0.06057 0.98958 0.57818 0.0
H1628 H 0.10618 0.06264 0.64127 0.0
H1629 H 0.08213 0.9776 0.64705 0.0
C1630 C 0.10408 0.9875 0.68046 0.0
C1631 C 0.12105 1.00591 0.69706 0.0
C1632 C 0.09619 0.04657 0.62748 0.0
C1633 C 0.1026 0.0162 0.65392 0.0
C1634 C 0.08658 0.05073 0.60595 0.0
C1635 C 0.07356 0.03039 0.58727 0.0
C1636 C 0.09268 0.02182 0.63098 0.0
C1637 C 0.07046 1.00599 0.59164 0.0
C1638 C 0.09512 0.99237 0.65914 0.0
C1639 C 0.12836 0.02946 0.69097 0.0
N1640 N 0.07973 1.00251 0.61277 0.0
N1641 N 0.11906 0.03392 0.67021 0.0
H1642 H 0.80241 0.37607 0.45986 0.0
H1643 H 0.81795 0.34694 0.32359 0.0
H1644 H 0.86175 0.41422 0.43717 0.0
H1645 H 0.78602 0.28724 0.35537 0.0
H1646 H 0.83125 0.37476 0.36388 0.0
H1647 H 0.79251 0.34591 0.42029 0.0
C1648 C 0.81318 0.3782 0.44635 0.0
C1649 C 0.83272 0.39768 0.4514 0.0
C1650 C 0.8217 0.35541 0.36205 0.0
C1651 C 0.82154 0.36367 0.40648 0.0
C1652 C 0.81449 0.33944 0.33914 0.0
C1653 C 0.80199 0.3145 0.33643 0.0
C1654 C 0.81547 0.34659 0.38222 0.0
C1655 C 0.7961 0.30628 0.35696 0.0
C1656 C 0.80767 0.36092 0.42399 0.0
C1657 C 0.84646 0.39946 0.4337 0.0
N1658 N 0.80281 0.32239 0.37913 0.0
N1659 N 0.84046 0.38281 0.41177 0.0
H1660 H 0.46128 0.04697 0.21875 0.0
H1661 H 0.45867 0.97435 0.10879 0.0
H1662 H 0.47142 0.98523 0.24811 0.0
H1663 H 0.51677 0.96977 0.15008 0.0
H1664 H 0.44128 0.97752 0.14542 0.0
H1665 H 0.4597 0.02108 0.17816 0.0
C1666 C 0.46283 0.02788 0.21662 0.0
C1667 C 0.46702 0.01841 0.2367 0.0
C1668 C 0.45747 0.97466 0.14599 0.0
C1669 C 0.4645 0.98867 0.19075 0.0
C1670 C 0.46736 0.97271 0.1252 0.0
C1671 C 0.48956 0.97321 0.12677 0.0
C1672 C 0.46984 0.97629 0.16794 0.0
C1673 C 0.49983 0.97009 0.14814 0.0
C1674 C 0.46151 0.013 0.19354 0.0
C1675 C 0.46882 0.99351 0.23306 0.0
N1676 N 0.49009 0.97262 0.16822 0.0
N1677 N 0.46809 0.97965 0.21046 0.0
H1678 H 0.82826 0.77234 0.96185 0.0
H1679 H 0.77838 0.76041 0.82548 0.0
H1680 H 0.76854 0.71575 0.92677 0.0
H1681 H 0.84348 0.8043 0.85932 0.0
H1682 H 0.77221 0.74612 0.86273 0.0
H1683 H 0.83108 0.78769 0.92542 0.0
C1684 C 0.81542 0.7634 0.94661 0.0
C1685 C 0.79813 0.74257 0.94748 0.0
C1686 C 0.78783 0.75883 0.86192 0.0
C1687 C 0.80152 0.76007 0.90513 0.0
C1688 C 0.79139 0.76689 0.84068 0.0
C1689 C 0.81149 0.78353 0.83932 0.0
C1690 C 0.80441 0.76771 0.88197 0.0
C1691 C 0.82775 0.79145 0.85953 0.0
C1692 C 0.81718 0.7721 0.92565 0.0
C1693 C 0.78207 0.73193 0.92703 0.0
N1694 N 0.82382 0.78358 0.87997 0.0
N1695 N 0.78424 0.74065 0.90659 0.0
H1696 H 0.81226 0.06661 0.01034 0.0
H1697 H 0.93964 0.09948 0.99889 0.0
H1698 H 0.85511 0.14276 0.03099 0.0
H1699 H 0.89519 0.0243 0.97687 0.0
H1700 H 0.9088 0.1164 0.00899 0.0
H1701 H 0.84291 0.05103 0.99811 0.0
C1702 C 0.82823 0.08001 0.01274 0.0
C1703 C 0.83118 0.106 0.02169 0.0
C1704 C 0.90583 0.09623 1.00179 0.0
C1705 C 0.86625 0.08837 0.00727 0.0
C1706 C 0.92338 0.08659 0.996 0.0
C1707 C 0.91999 0.06041 0.98736 0.0
C1708 C 0.88488 0.07948 0.99909 0.0
C1709 C 0.89857 0.0446 0.98345 0.0
C1710 C 0.84569 0.07113 1.00549 0.0
C1711 C 0.85218 0.12253 0.02426 0.0
N1712 N 0.88188 0.05435 0.98959 0.0
N1713 N 0.86895 0.11344 0.01692 0.0
H1714 H 0.37097 0.44208 0.9989 0.0
H1715 H 0.4899 0.5143 0.07058 0.0
H1716 H 0.39361 0.43177 0.06814 0.0
H1717 H 0.47844 0.49623 0.99286 0.0
H1718 H 0.45304 0.48782 0.07048 0.0
H1719 H 0.40874 0.46502 0.99631 0.0
C1720 C 0.38388 0.44458 0.01349 0.0
C1721 C 0.37914 0.43509 0.03381 0.0
C1722 C 0.45862 0.48947 0.05342 0.0
C1723 C 0.42213 0.46171 0.03122 0.0
C1724 C 0.47965 0.50463 0.05347 0.0
C1725 C 0.48732 0.50738 0.03171 0.0
C1726 C 0.44487 0.47724 0.03146 0.0
C1727 C 0.47323 0.49449 0.01006 0.0
C1728 C 0.4054 0.45759 0.01198 0.0
C1729 C 0.39651 0.4387 0.05212 0.0
N1730 N 0.4526 0.48016 0.01046 0.0
N1731 N 0.4171 0.45198 0.05055 0.0
H1732 H 0.36155 0.60969 0.7846 0.0
H1733 H 0.36986 0.75302 0.76968 0.0
H1734 H 0.41767 0.65288 0.76073 0.0
H1735 H 0.30968 0.70045 0.77526 0.0
H1736 H 0.38854 0.71922 0.76931 0.0
H1737 H 0.34371 0.64363 0.78359 0.0
C1738 C 0.37018 0.62611 0.77878 0.0
C1739 C 0.39127 0.62739 0.77214 0.0
C1740 C 0.37123 0.71497 0.77058 0.0
C1741 C 0.37058 0.66825 0.77192 0.0
C1742 C 0.3604 0.73453 0.77088 0.0
C1743 C 0.33772 0.73028 0.77244 0.0
C1744 C 0.35969 0.69037 0.77208 0.0
C1745 C 0.32698 0.70535 0.774 0.0
C1746 C 0.35986 0.64583 0.77836 0.0
C1747 C 0.40129 0.65007 0.76538 0.0
N1748 N 0.33786 0.68688 0.77385 0.0
N1749 N 0.3911 0.66929 0.76565 0.0
H1750 H 0.22146 0.63889 0.52457 0.0
H1751 H 0.11862 0.53505 0.51394 0.0
H1752 H 0.21977 0.56003 0.50932 0.0
H1753 H 0.12436 0.60972 0.55717 0.0
H1754 H 0.15806 0.54355 0.52011 0.0
H1755 H 0.19067 0.63007 0.54704 0.0
C1756 C 0.21536 0.61998 0.52721 0.0
C1757 C 0.22254 0.59996 0.51482 0.0
C1758 C 0.1509 0.55808 0.52871 0.0
C1759 C 0.18721 0.58957 0.53937 0.0
C1760 C 0.12838 0.5533 0.52485 0.0
C1761 C 0.11859 0.57203 0.53455 0.0
C1762 C 0.16378 0.58215 0.54164 0.0
C1763 C 0.13164 0.5951 0.54907 0.0
C1764 C 0.19769 0.61487 0.53986 0.0
C1765 C 0.21427 0.5758 0.51846 0.0
N1766 N 0.1538 0.59986 0.55166 0.0
N1767 N 0.19655 0.57107 0.52992 0.0
H1768 H 0.71949 0.03677 0.7984 0.0
H1769 H 0.79224 0.94324 0.76727 0.0
H1770 H 0.73152 1.00837 0.72611 0.0
H1771 H 0.75421 0.9398 0.8258 0.0
H1772 H 0.77528 0.97417 0.75596 0.0
H1773 H 0.73691 1.00721 0.81242 0.0
C1774 C 0.72607 0.02458 0.78557 0.0
C1775 C 0.72428 0.02495 0.76108 0.0
C1776 C 0.77056 0.96662 0.77123 0.0
C1777 C 0.74408 0.99169 0.77699 0.0
C1778 C 0.78022 0.94915 0.77767 0.0
C1779 C 0.77426 0.93912 0.79721 0.0
C1780 C 0.75496 0.97412 0.78453 0.0
C1781 C 0.759 0.94736 0.81057 0.0
C1782 C 0.73575 1.00765 0.79356 0.0
C1783 C 0.73276 0.00864 0.74514 0.0
N1784 N 0.74964 0.96456 0.80388 0.0
N1785 N 0.74243 0.99265 0.75343 0.0
H1786 H 0.77593 0.95587 0.50155 0.0
H1787 H 0.65026 0.93835 0.51776 0.0
H1788 H 0.7419 0.90203 0.53874 0.0
H1789 H 0.68807 0.99366 0.4845 0.0
H1790 H 0.68139 0.92033 0.52086 0.0
H1791 H 0.74193 0.9654 0.49067 0.0
C1792 C 0.76126 0.94596 0.50743 0.0
C1793 C 0.76192 0.92834 0.52138 0.0
C1794 C 0.68271 0.93621 0.51263 0.0
C1795 C 0.72251 0.93936 0.50892 0.0
C1796 C 0.66497 0.94658 0.5109 0.0
C1797 C 0.66655 0.96788 0.50118 0.0
C1798 C 0.70218 0.94723 0.50459 0.0
C1799 C 0.68586 0.97724 0.49203 0.0
C1800 C 0.74174 0.95139 0.50112 0.0
C1801 C 0.7422 0.91592 0.52814 0.0
N1802 N 0.7029 0.96705 0.49421 0.0
N1803 N 0.7233 0.92185 0.52204 0.0
H1804 H 0.41256 0.4875 0.80123 0.0
H1805 H 0.30754 0.36997 0.73914 0.0
H1806 H 0.36784 0.48767 0.7408 0.0
H1807 H 0.35736 0.36245 0.79036 0.0
H1808 H 0.32986 0.41231 0.73955 0.0
H1809 H 0.39377 0.44258 0.79768 0.0
C1810 C 0.39895 0.47804 0.78693 0.0
C1811 C 0.3922 0.49174 0.77104 0.0
C1812 C 0.33624 0.40147 0.75051 0.0
C1813 C 0.36976 0.43953 0.76728 0.0
C1814 C 0.32345 0.37695 0.7502 0.0
C1815 C 0.33044 0.36181 0.76435 0.0
C1816 C 0.3565 0.41206 0.76554 0.0
C1817 C 0.35122 0.37274 0.77864 0.0
C1818 C 0.38811 0.45222 0.78499 0.0
C1819 C 0.3741 0.47816 0.75322 0.0
N1820 N 0.36328 0.39705 0.77901 0.0
N1821 N 0.36357 0.4532 0.75201 0.0
H1822 H 0.1751 0.62584 0.25212 0.0
H1823 H 0.29951 0.70654 0.27985 0.0
H1824 H 0.22184 0.62179 0.30915 0.0
H1825 H 0.25351 0.71084 0.22237 0.0
H1826 H 0.27259 0.67045 0.28675 0.0
H1827 H 0.20385 0.65671 0.24027 0.0
C1828 C 0.19126 0.63224 0.26267 0.0
C1829 C 0.19622 0.62143 0.28158 0.0
C1830 C 0.26849 0.67888 0.27226 0.0
C1831 C 0.22921 0.65527 0.26742 0.0
C1832 C 0.28396 0.69908 0.26807 0.0
C1833 C 0.27823 0.71161 0.25095 0.0
C1834 C 0.24729 0.67183 0.25943 0.0
C1835 C 0.25821 0.70153 0.23589 0.0
C1836 C 0.20774 0.64929 0.25556 0.0
C1837 C 0.21734 0.62996 0.29462 0.0
N1838 N 0.24303 0.68248 0.24095 0.0
N1839 N 0.23324 0.64613 0.287 0.0
H1840 H 0.53275 0.69844 0.42502 0.0
H1841 H 0.5375 0.63 0.53393 0.0
H1842 H 0.50025 0.71603 0.48682 0.0
H1843 H 0.54452 0.59693 0.46111 0.0
H1844 H 0.53041 0.66665 0.52053 0.0
H1845 H 0.54433 0.66655 0.4419 0.0
C1846 C 0.52827 0.69587 0.44231 0.0
C1847 C 0.51528 0.70982 0.45436 0.0
C1848 C 0.53359 0.6514 0.50755 0.0
C1849 C 0.52863 0.6732 0.47388 0.0
C1850 C 0.53765 0.63061 0.51518 0.0
C1851 C 0.54139 0.61054 0.49847 0.0
C1852 C 0.53371 0.65215 0.48318 0.0
C1853 C 0.54152 0.61205 0.47443 0.0
C1854 C 0.5348 0.67751 0.45187 0.0
C1855 C 0.51001 0.7055 0.47674 0.0
N1856 N 0.5378 0.63251 0.46751 0.0
N1857 N 0.51667 0.68756 0.48577 0.0
H1858 H 0.65673 0.28832 0.644 0.0
H1859 H 0.75051 0.33548 0.75965 0.0
H1860 H 0.66291 0.35 0.70558 0.0
H1861 H 0.74608 0.26618 0.70735 0.0
H1862 H 0.71939 0.34077 0.7369 0.0
H1863 H 0.68977 0.27993 0.66305 0.0
C1864 C 0.6652 0.30039 0.66124 0.0
C1865 C 0.65698 0.32007 0.67312 0.0
C1866 C 0.72498 0.3243 0.73007 0.0
C1867 C 0.69465 0.31043 0.69508 0.0
C1868 C 0.74303 0.32119 0.74322 0.0
C1869 C 0.75128 0.30029 0.73564 0.0
C1870 C 0.71449 0.30653 0.70861 0.0
C1871 C 0.74043 0.28264 0.71399 0.0
C1872 C 0.68394 0.2954 0.67221 0.0
C1873 C 0.66846 0.33466 0.69564 0.0
N1874 N 0.72258 0.28615 0.7012 0.0
N1875 N 0.68645 0.32958 0.70566 0.0
H1876 H 0.03876 0.33993 0.93807 0.0
H1877 H 0.00846 0.4537 0.02517 0.0
H1878 H 0.99286 0.32858 0.98858 0.0
H1879 H 0.05748 0.46364 0.9781 0.0
H1880 H 0.00385 0.40771 0.01399 0.0
H1881 H 0.04817 0.38537 0.9553 0.0
C1882 C 0.03092 0.34692 0.95308 0.0
C1883 C 0.01465 0.33041 0.96156 0.0
C1884 C 0.01562 0.41999 0.00614 0.0
C1885 C 0.02517 0.38256 0.98121 0.0
C1886 C 0.01809 0.44607 0.01238 0.0
C1887 C 0.03333 0.46214 1.00249 0.0
C1888 C 0.02823 0.41014 0.98959 0.0
C1889 C 0.04567 0.45168 0.98622 0.0
C1890 C 0.03622 0.37294 0.96284 0.0
C1891 C 0.00518 0.34064 0.98115 0.0
N1892 N 0.04275 0.42632 0.98013 0.0
N1893 N 0.01038 0.3661 0.99013 0.0
H1894 H 0.01403 0.78717 0.12367 0.0
H1895 H 0.95438 0.79225 0.24095 0.0
H1896 H 0.04787 0.80525 0.19616 0.0
H1897 H 0.91867 0.76505 0.16902 0.0
H1898 H 0.98869 0.79635 0.22424 0.0
H1899 H 0.97908 0.77721 0.13899 0.0
C1900 C 0.01415 0.78909 0.14281 0.0
C1901 C 0.03395 0.79757 0.15872 0.0
C1902 C 0.97343 0.7892 0.212 0.0
C1903 C 0.99389 0.78617 0.17644 0.0
C1904 C 0.95386 0.78688 0.22157 0.0
C1905 C 0.9338 0.7782 0.20633 0.0
C1906 C 0.97303 0.78273 0.1869 0.0
C1907 C 0.9339 0.77184 0.18132 0.0
C1908 C 0.99413 0.78323 0.15154 0.0
C1909 C 0.03303 0.79881 0.18326 0.0
N1910 N 0.95327 0.77423 0.17234 0.0
N1911 N 0.01337 0.79351 0.19138 0.0
H1912 H 0.4966 0.28069 0.07307 0.0
H1913 H 0.55292 0.42639 0.09015 0.0
H1914 H 0.51922 0.33244 0.143 0.0
H1915 H 0.5483 0.37096 0.02372 0.0
H1916 H 0.54271 0.39205 0.1106 0.0
H1917 H 0.51694 0.3133 0.05461 0.0
C1918 C 0.50583 0.29894 0.08443 0.0
C1919 C 0.5062 0.30416 0.10941 0.0
C1920 C 0.54438 0.38744 0.09165 0.0
C1921 C 0.52919 0.34124 0.08878 0.0
C1922 C 0.55016 0.407 0.08002 0.0
C1923 C 0.55117 0.40138 0.0552 0.0
C1924 C 0.53927 0.36223 0.07821 0.0
C1925 C 0.54772 0.37606 0.0429 0.0
C1926 C 0.51757 0.3174 0.07402 0.0
C1927 C 0.51862 0.32781 0.12359 0.0
N1928 N 0.54152 0.35733 0.05445 0.0
N1929 N 0.52942 0.34565 0.11304 0.0
H1930 H 0.05661 0.36341 0.35218 0.0
H1931 H 0.93838 0.28816 0.2781 0.0
H1932 H 0.04234 0.28835 0.30617 0.0
H1933 H 0.95339 0.36106 0.32837 0.0
H1934 H 0.97698 0.28846 0.28557 0.0
H1935 H 0.01934 0.36461 0.33982 0.0
C1936 C 0.04571 0.3476 0.33878 0.0
C1937 C 0.0522 0.32599 0.32964 0.0
C1938 C 0.97179 0.3044 0.29488 0.0
C1939 C 0.00982 0.32661 0.31618 0.0
C1940 C 0.9499 0.30414 0.29068 0.0
C1941 C 0.94305 0.32457 0.30279 0.0
C1942 C 0.98665 0.32543 0.31093 0.0
C1943 C 0.95823 0.34489 0.31896 0.0
C1944 C 0.02445 0.34806 0.33198 0.0
C1945 C 0.03764 0.30545 0.3131 0.0
N1946 N 0.9794 0.34486 0.32251 0.0
N1947 N 0.01691 0.30616 0.30692 0.0
H1948 H 0.98899 0.66842 0.638 0.0
H1949 H 0.05912 0.63296 0.53495 0.0
H1950 H 0.99752 0.70663 0.58025 0.0
H1951 H 0.01506 0.57456 0.55936 0.0
H1952 H 0.04508 0.66468 0.56024 0.0
H1953 H 0.00681 0.63735 0.6173 0.0
C1954 C 0.9945 0.67004 0.6209 0.0
C1955 C 0.99139 0.6894 0.61026 0.0
C1956 C 0.03885 0.64491 0.56031 0.0
C1957 C 0.01238 0.65533 0.58751 0.0
C1958 C 0.04683 0.62689 0.546 0.0
C1959 C 0.03846 0.60124 0.54547 0.0
C1960 C 0.02264 0.63711 0.57427 0.0
C1961 C 0.02242 0.59424 0.5599 0.0
C1962 C 0.00468 0.65256 0.60926 0.0
C1963 C 0.99917 0.6914 0.5885 0.0
N1964 N 0.01499 0.61214 0.57382 0.0
N1965 N 0.00949 0.6746 0.57784 0.0
H1966 H 0.67087 0.86947 0.83379 0.0
H1967 H 0.7293 0.76532 0.77814 0.0
H1968 H 0.66045 0.79551 0.84884 0.0
H1969 H 0.75131 0.84355 0.77459 0.0
H1970 H 0.69834 0.77422 0.79644 0.0
H1971 H 0.69682 0.85914 0.80687 0.0
C1972 C 0.67416 0.85118 0.83155 0.0
C1973 C 0.66356 0.83332 0.84349 0.0
C1974 C 0.70976 0.78937 0.79133 0.0
C1975 C 0.69247 0.82122 0.81246 0.0
C1976 C 0.72733 0.78425 0.78061 0.0
C1977 C 0.74322 0.80399 0.77556 0.0
C1978 C 0.70812 0.81432 0.79686 0.0
C1979 C 0.7397 0.82803 0.7789 0.0
C1980 C 0.68877 0.84524 0.81608 0.0
C1981 C 0.66835 0.8099 0.84006 0.0
N1982 N 0.72263 0.83269 0.7898 0.0
N1983 N 0.68239 0.80448 0.82473 0.0
H1984 H 0.44923 0.53771 0.67185 0.0
H1985 H 0.55342 0.58783 0.60517 0.0
H1986 H 0.50794 0.59709 0.70394 0.0
H1987 H 0.49821 0.52788 0.56459 0.0
H1988 H 0.53511 0.58997 0.64044 0.0
H1989 H 0.46428 0.53244 0.63292 0.0
C1990 C 0.46511 0.5498 0.67093 0.0
C1991 C 0.47703 0.56804 0.69196 0.0
C1992 C 0.52666 0.57629 0.62399 0.0
C1993 C 0.49469 0.56193 0.64661 0.0
C1994 C 0.53726 0.57502 0.60337 0.0
C1995 C 0.52771 0.55772 0.58103 0.0
C1996 C 0.50573 0.56014 0.62338 0.0
C1997 C 0.50651 0.54179 0.58094 0.0
C1998 C 0.4738 0.54668 0.64849 0.0
C1999 C 0.49773 0.5827 0.68888 0.0
N2000 N 0.49639 0.54336 0.60158 0.0
N2001 N 0.50559 0.57934 0.66721 0.0
H2002 H 0.76637 0.15639 0.96798 0.0
H2003 H 0.74899 0.26766 0.91045 0.0
H2004 H 0.79927 0.23542 0.99783 0.0
H2005 H 0.7422 0.19249 0.86724 0.0
H2006 H 0.75508 0.25295 0.94667 0.0
H2007 H 0.74764 0.16735 0.93448 0.0
C2008 C 0.7696 0.17608 0.96736 0.0
C2009 C 0.7843 0.19516 0.98541 0.0
C2010 C 0.75166 0.23954 0.92928 0.0
C2011 C 0.76279 0.2077 0.94777 0.0
C2012 C 0.7478 0.24775 0.90858 0.0
C2013 C 0.7455 0.2313 0.88584 0.0
C2014 C 0.75311 0.21477 0.92711 0.0
C2015 C 0.74433 0.2058 0.88452 0.0
C2016 C 0.75888 0.18226 0.9484 0.0
C2017 C 0.78817 0.22031 0.984 0.0
N2018 N 0.74861 0.19833 0.905 0.0
N2019 N 0.77735 0.22593 0.96538 0.0
H2020 H 0.10455 0.49763 0.17227 0.0
H2021 H 0.08966 0.57923 0.07754 0.0
H2022 H 0.15436 0.56485 0.16982 0.0
H2023 H 0.04499 0.50834 0.07989 0.0
H2024 H 0.11462 0.57496 0.11058 0.0
H2025 H 0.08317 0.50191 0.13754 0.0
C2026 C 0.11118 0.51309 0.16411 0.0
C2027 C 0.13129 0.53076 0.1737 0.0
C2028 C 0.09941 0.56034 0.1037 0.0
C2029 C 0.10681 0.53591 0.13385 0.0
C2030 C 0.08527 0.56279 0.08504 0.0
C2031 C 0.06532 0.54426 0.07662 0.0
C2032 C 0.09335 0.53911 0.11343 0.0
C2033 C 0.0601 0.52323 0.08641 0.0
C2034 C 0.09891 0.51561 0.14428 0.0
C2035 C 0.13891 0.55073 0.16272 0.0
N2036 N 0.07409 0.52123 0.10436 0.0
N2037 N 0.12654 0.55285 0.14322 0.0
H2038 H 0.81155 0.80724 0.47434 0.0
H2039 H 0.83305 0.84601 0.3512 0.0
H2040 H 0.82114 0.88384 0.46697 0.0
H2041 H 0.79134 0.77268 0.35092 0.0
H2042 H 0.83377 0.85905 0.39505 0.0
H2043 H 0.80747 0.79262 0.43005 0.0
C2044 C 0.81251 0.82087 0.46336 0.0
C2045 C 0.81649 0.84672 0.47419 0.0
C2046 C 0.82458 0.84004 0.38542 0.0
C2047 C 0.81294 0.83043 0.424 0.0
C2048 C 0.82438 0.83257 0.36053 0.0
C2049 C 0.81233 0.80823 0.34772 0.0
C2050 C 0.81298 0.82285 0.39756 0.0
C2051 C 0.80096 0.79157 0.36039 0.0
C2052 C 0.81027 0.81259 0.43819 0.0
C2053 C 0.81778 0.86371 0.45925 0.0
N2054 N 0.80169 0.7991 0.38471 0.0
N2055 N 0.81639 0.85534 0.43497 0.0
H2056 H 0.48309 0.53183 0.81609 0.0
H2057 H 0.51563 0.58613 0.96061 0.0
H2058 H 0.45959 0.5918 0.85518 0.0
H2059 H 0.5188 0.51205 0.9242 0.0
H2060 H 0.49897 0.59118 0.92219 0.0
H2061 H 0.49946 0.52684 0.8546 0.0
C2062 C 0.48126 0.54399 0.83271 0.0
C2063 C 0.46957 0.56219 0.83192 0.0
C2064 C 0.50328 0.57379 0.92254 0.0
C2065 C 0.48911 0.55683 0.87696 0.0
C2066 C 0.51295 0.57088 0.94463 0.0
C2067 C 0.51877 0.54852 0.94616 0.0
C2068 C 0.4995 0.55441 0.90123 0.0
C2069 C 0.51468 0.52963 0.92435 0.0
C2070 C 0.4907 0.54108 0.85487 0.0
C2071 C 0.46812 0.57732 0.8545 0.0
N2072 N 0.50554 0.53305 0.9031 0.0
N2073 N 0.47781 0.57446 0.87579 0.0
H2074 H 0.80266 0.15749 0.10934 0.0
H2075 H 0.76907 0.26773 0.1979 0.0
H2076 H 0.7586 0.19559 0.08231 0.0
H2077 H 0.83043 0.24892 0.20596 0.0
H2078 H 0.75754 0.23447 0.15979 0.0
H2079 H 0.80406 0.18255 0.15003 0.0
C2080 C 0.79246 0.17036 0.11223 0.0
C2081 C 0.78023 0.17426 0.09266 0.0
C2082 C 0.77344 0.23767 0.1701 0.0
C2083 C 0.78243 0.2038 0.13896 0.0
C2084 C 0.78002 0.25658 0.19171 0.0
C2085 C 0.8008 0.26117 0.2049 0.0
C2086 C 0.78762 0.22309 0.16218 0.0
C2087 C 0.81435 0.24618 0.19627 0.0
C2088 C 0.79352 0.18495 0.13536 0.0
C2089 C 0.76791 0.19181 0.09713 0.0
N2090 N 0.80751 0.22786 0.17556 0.0
N2091 N 0.76952 0.20628 0.11989 0.0
H2092 H 0.14576 0.5315 0.31992 0.0
H2093 H 0.09269 0.61954 0.39001 0.0
H2094 H 0.12646 0.58615 0.28628 0.0
H2095 H 0.14396 0.59557 0.42432 0.0
H2096 H 0.11025 0.61766 0.35413 0.0
H2097 H 0.14747 0.559 0.35923 0.0
C2098 C 0.1416 0.54922 0.32092 0.0
C2099 C 0.13561 0.55645 0.30002 0.0
C2100 C 0.11828 0.61394 0.36986 0.0
C2101 C 0.13818 0.58843 0.34481 0.0
C2102 C 0.10833 0.61525 0.39055 0.0
C2103 C 0.11618 0.606 0.40943 0.0
C2104 C 0.13568 0.6029 0.36835 0.0
C2105 C 0.13679 0.60144 0.40942 0.0
C2106 C 0.14313 0.56522 0.34329 0.0
C2107 C 0.13057 0.57965 0.30211 0.0
N2108 N 0.14542 0.59869 0.38858 0.0
N2109 N 0.13177 0.59484 0.32426 0.0
H2110 H 0.79721 0.87529 0.61496 0.0
H2111 H 0.81158 0.76872 0.68373 0.0
H2112 H 0.82575 0.81507 0.58723 0.0
H2113 H 0.80253 0.83943 0.72173 0.0
H2114 H 0.81238 0.78366 0.64685 0.0
H2115 H 0.79356 0.8601 0.65215 0.0
C2116 C 0.80221 0.85853 0.61641 0.0
C2117 C 0.81178 0.84641 0.59784 0.0
C2118 C 0.8103 0.79607 0.66318 0.0
C2119 C 0.80796 0.82922 0.64049 0.0
C2120 C 0.8099 0.78755 0.68434 0.0
C2121 C 0.80714 0.8029 0.70593 0.0
C2122 C 0.80756 0.8201 0.66323 0.0
C2123 C 0.80497 0.82712 0.70554 0.0
C2124 C 0.80041 0.85011 0.63779 0.0
C2125 C 0.8183 0.82505 0.60098 0.0
N2126 N 0.80506 0.83493 0.68446 0.0
N2127 N 0.8163 0.81723 0.62179 0.0
H2128 H 0.74586 0.43633 0.51685 0.0
H2129 H 0.69998 0.55345 0.5667 0.0
H2130 H 0.77938 0.51504 0.52417 0.0
H2131 H 0.65669 0.47784 0.5405 0.0
H2132 H 0.73082 0.53699 0.55867 0.0
H2133 H 0.71354 0.44901 0.52943 0.0
C2134 C 0.74619 0.45616 0.52058 0.0
C2135 C 0.76518 0.47478 0.51971 0.0
C2136 C 0.71461 0.52388 0.55488 0.0
C2137 C 0.72908 0.48921 0.53459 0.0
C2138 C 0.69697 0.53321 0.5599 0.0
C2139 C 0.6757 0.51701 0.55401 0.0
C2140 C 0.71098 0.49821 0.54368 0.0
C2141 C 0.67286 0.49099 0.54483 0.0
C2142 C 0.72795 0.46336 0.52801 0.0
C2143 C 0.76507 0.50018 0.5249 0.0
N2144 N 0.69039 0.48234 0.53958 0.0
N2145 N 0.74734 0.50666 0.53233 0.0
H2146 H 0.21829 0.1426 0.541 0.0
H2147 H 0.10344 0.06171 0.46224 0.0
H2148 H 0.20514 0.13723 0.46482 0.0
H2149 H 0.11236 0.08603 0.53978 0.0
H2150 H 0.1405 0.08805 0.46234 0.0
H2151 H 0.17981 0.12126 0.5406 0.0
C2152 C 0.20724 0.13706 0.52417 0.0
C2153 C 0.21502 0.1418 0.50294 0.0
C2154 C 0.13432 0.08781 0.47932 0.0
C2155 C 0.17069 0.11663 0.50221 0.0
C2156 C 0.11315 0.07272 0.4793 0.0
C2157 C 0.10472 0.07159 0.50104 0.0
C2158 C 0.14742 0.1017 0.5013 0.0
C2159 C 0.1181 0.0863 0.52258 0.0
C2160 C 0.18521 0.12486 0.52396 0.0
C2161 C 0.19986 0.13419 0.48167 0.0
N2162 N 0.13877 0.1005 0.52216 0.0
N2163 N 0.17851 0.1217 0.48178 0.0
H2164 H 0.21873 0.9544 0.74184 0.0
H2165 H 0.24152 0.83565 0.79143 0.0
H2166 H 0.20624 0.94428 0.81214 0.0
H2167 H 0.2835 0.86966 0.74562 0.0
H2168 H 0.22319 0.86993 0.794 0.0
H2169 H 0.23658 0.91934 0.73743 0.0
C2170 C 0.21934 0.94481 0.75629 0.0
C2171 C 0.21054 0.95308 0.77751 0.0
C2172 C 0.23628 0.86991 0.78316 0.0
C2173 C 0.23125 0.91144 0.77226 0.0
C2174 C 0.24685 0.85 0.78157 0.0
C2175 C 0.26446 0.849 0.76821 0.0
C2176 C 0.24244 0.88928 0.77066 0.0
C2177 C 0.27023 0.86903 0.75625 0.0
C2178 C 0.22982 0.92464 0.7538 0.0
C2179 C 0.21253 0.93925 0.79539 0.0
N2180 N 0.25931 0.88771 0.75752 0.0
N2181 N 0.2222 0.91951 0.7923 0.0
H2182 H 0.37146 0.97433 0.98179 0.0
H2183 H 0.49141 0.01131 0.05383 0.0
H2184 H 0.38735 0.98339 0.05834 0.0
H2185 H 0.47964 0.99334 0.97591 0.0
H2186 H 0.45284 1.00055 0.05472 0.0
H2187 H 0.41064 0.98205 0.97813 0.0
C2188 C 0.38335 0.97866 0.99782 0.0
C2189 C 0.37665 0.97874 0.02045 0.0
C2190 C 0.45849 0.99855 0.03731 0.0
C2191 C 0.42058 0.98679 0.01645 0.0
C2192 C 0.48068 1.00464 0.03677 0.0
C2193 C 0.48879 1.00354 0.01474 0.0
C2194 C 0.44408 0.99113 0.01564 0.0
C2195 C 0.47396 0.99466 0.99328 0.0
C2196 C 0.40548 0.9826 0.99571 0.0
C2197 C 0.39216 0.98349 0.04068 0.0
N2198 N 0.4521 0.98893 0.99424 0.0
N2199 N 0.41345 0.98735 0.03819 0.0
H2200 H 0.905 0.61192 0.81457 0.0
H2201 H 0.81342 0.62334 0.72523 0.0
H2202 H 0.86881 0.54442 0.76138 0.0
H2203 H 0.87565 0.68025 0.74584 0.0
H2204 H 0.83058 0.59262 0.73691 0.0
H2205 H 0.88946 0.63733 0.79201 0.0
C2206 C 0.89303 0.60251 0.79861 0.0
C2207 C 0.88764 0.57633 0.78984 0.0
C2208 C 0.84057 0.61162 0.73808 0.0
C2209 C 0.87074 0.60484 0.76365 0.0
C2210 C 0.8309 0.62912 0.73115 0.0
C2211 C 0.84305 0.65454 0.73538 0.0
C2212 C 0.86223 0.61998 0.74954 0.0
C2213 C 0.86562 0.66096 0.74308 0.0
C2214 C 0.88469 0.61692 0.78544 0.0
C2215 C 0.8728 0.56469 0.7687 0.0
N2216 N 0.8744 0.64394 0.75079 0.0
N2217 N 0.86466 0.57914 0.75616 0.0
H2218 H 0.82954 0.65221 0.04934 0.0
H2219 H 0.9259 0.61037 0.98848 0.0
H2220 H 0.85057 0.67077 0.98427 0.0
H2221 H 0.92577 0.6191 0.06513 0.0
H2222 H 0.89615 0.62985 0.98682 0.0
H2223 H 0.86283 0.63809 0.05628 0.0
C2224 C 0.84111 0.65328 0.03657 0.0
C2225 C 0.83721 0.66238 0.01606 0.0
C2226 C 0.90276 0.62787 1.00412 0.0
C2227 C 0.87478 0.64602 0.02358 0.0
C2228 C 0.91997 0.61686 1.00514 0.0
C2229 C 0.92873 0.61331 0.02703 0.0
C2230 C 0.89379 0.63526 0.02508 0.0
C2231 C 0.91951 0.62132 0.0478 0.0
C2232 C 0.8601 0.64538 0.04059 0.0
C2233 C 0.85287 0.66385 1.00029 0.0
N2234 N 0.90244 0.63182 0.04631 0.0
N2235 N 0.87071 0.65546 1.0042 0.0
H2236 H 0.21351 0.07877 0.74983 0.0
H2237 H 0.26051 0.23096 0.80373 0.0
H2238 H 0.21863 0.11277 0.82545 0.0
H2239 H 0.28348 0.19153 0.7428 0.0
H2240 H 0.23839 0.1896 0.80844 0.0
H2241 H 0.23254 0.12058 0.74366 0.0
C2242 C 0.21843 0.09494 0.76518 0.0
C2243 C 0.21439 0.09163 0.78833 0.0
C2244 C 0.24799 0.18998 0.79377 0.0
C2245 C 0.23599 0.14071 0.78111 0.0
C2246 C 0.26047 0.2138 0.79086 0.0
C2247 C 0.27381 0.21526 0.77247 0.0
C2248 C 0.2483 0.167 0.77799 0.0
C2249 C 0.27334 0.19179 0.75701 0.0
C2250 C 0.22941 0.119 0.76162 0.0
C2251 C 0.22142 0.11387 0.8073 0.0
N2252 N 0.2609 0.16906 0.75996 0.0
N2253 N 0.23152 0.13711 0.80328 0.0
H2254 H 0.39542 0.98534 0.25961 0.0
H2255 H 0.34782 0.87313 0.31512 0.0
H2256 H 0.43218 0.96207 0.31299 0.0
H2257 H 0.32132 0.87184 0.24284 0.0
H2258 H 0.37773 0.90927 0.31448 0.0
H2259 H 0.36945 0.94317 0.24883 0.0
C2260 C 0.39855 0.97084 0.26814 0.0
C2261 C 0.41515 0.97686 0.28772 0.0
C2262 C 0.36543 0.90099 0.29868 0.0
C2263 C 0.38581 0.92996 0.27634 0.0
C2264 C 0.34807 0.88089 0.29934 0.0
C2265 C 0.33276 0.86924 0.27869 0.0
C2266 C 0.36709 0.90947 0.27738 0.0
C2267 C 0.33348 0.88007 0.25877 0.0
C2268 C 0.3837 0.94699 0.26219 0.0
C2269 C 0.419 0.95791 0.29826 0.0
N2270 N 0.35072 0.89962 0.25841 0.0
N2271 N 0.40396 0.93521 0.29284 0.0
H2272 H 0.60251 0.40371 0.60931 0.0
H2273 H 0.54273 0.44472 0.50084 0.0
H2274 H 0.56753 0.35051 0.54377 0.0
H2275 H 0.58 0.49696 0.56594 0.0
H2276 H 0.55241 0.40986 0.51516 0.0
H2277 H 0.59666 0.43841 0.59215 0.0
C2278 C 0.59449 0.39941 0.59089 0.0
C2279 C 0.58592 0.37419 0.5778 0.0
C2280 C 0.55845 0.42898 0.52628 0.0
C2281 C 0.57822 0.41377 0.55829 0.0
C2282 C 0.5528 0.44883 0.51816 0.0
C2283 C 0.56073 0.47383 0.53209 0.0
C2284 C 0.57191 0.43417 0.54862 0.0
C2285 C 0.57379 0.47805 0.55439 0.0
C2286 C 0.59072 0.41919 0.58123 0.0
C2287 C 0.57474 0.36972 0.55435 0.0
N2288 N 0.57889 0.45854 0.56193 0.0
N2289 N 0.57104 0.38921 0.54545 0.0
H2290 H 0.45939 0.81208 0.38721 0.0
H2291 H 0.35826 0.74279 0.28321 0.0
H2292 H 0.43513 0.73112 0.36166 0.0
H2293 H 0.36424 0.81826 0.32482 0.0
H2294 H 0.38855 0.74021 0.31044 0.0
H2295 H 0.42645 0.81665 0.36459 0.0
C2296 C 0.44693 0.79528 0.37717 0.0
C2297 C 0.44979 0.77115 0.37656 0.0
C2298 C 0.38321 0.7573 0.31388 0.0
C2299 C 0.41265 0.77623 0.34981 0.0
C2300 C 0.36586 0.75885 0.29822 0.0
C2301 C 0.35844 0.7807 0.30171 0.0
C2302 C 0.39369 0.77784 0.33335 0.0
C2303 C 0.36925 0.80095 0.32149 0.0
C2304 C 0.4282 0.7979 0.3642 0.0
C2305 C 0.43336 0.75003 0.36301 0.0
N2306 N 0.38641 0.7991 0.33649 0.0
N2307 N 0.41575 0.75307 0.34996 0.0
H2308 H 0.07892 0.7414 0.11265 0.0
H2309 H 0.06357 0.63058 0.99389 0.0
H2310 H 0.06446 0.75153 0.04114 0.0
H2311 H 0.06919 0.62115 0.06661 0.0
H2312 H 0.06891 0.67636 0.00998 0.0
H2313 H 0.08002 0.69837 0.09529 0.0
C2314 C 0.07641 0.73458 0.09319 0.0
C2315 C 0.0717 0.74979 0.0782 0.0
C2316 C 0.06903 0.66424 0.02236 0.0
C2317 C 0.07291 0.70068 0.05811 0.0
C2318 C 0.06603 0.63832 0.01321 0.0
C2319 C 0.06596 0.62257 0.02912 0.0
C2320 C 0.07164 0.67397 0.04746 0.0
C2321 C 0.06929 0.63301 0.05393 0.0
C2322 C 0.07693 0.71002 0.08327 0.0
C2323 C 0.06807 0.74012 0.05317 0.0
N2324 N 0.07183 0.65807 0.06236 0.0
N2325 N 0.06878 0.71603 0.0438 0.0
H2326 H 0.07543 0.2506 0.88031 0.0
H2327 H 0.18282 0.34128 0.85013 0.0
H2328 H 0.08557 0.33114 0.8897 0.0
H2329 H 0.16598 0.25959 0.83033 0.0
H2330 H 0.14988 0.33881 0.86964 0.0
H2331 H 0.11109 0.25451 0.86687 0.0
C2332 C 0.08522 0.26917 0.87974 0.0
C2333 C 0.07739 0.29056 0.88605 0.0
C2334 C 0.15352 0.32146 0.86117 0.0
C2335 C 0.11843 0.29518 0.8706 0.0
C2336 C 0.17231 0.32283 0.84999 0.0
C2337 C 0.17718 0.30059 0.83836 0.0
C2338 C 0.1395 0.29768 0.86078 0.0
C2339 C 0.16312 0.27726 0.83921 0.0
C2340 C 0.10561 0.27139 0.87199 0.0
C2341 C 0.09087 0.31412 0.88488 0.0
N2342 N 0.14491 0.27644 0.85004 0.0
N2343 N 0.11071 0.31579 0.87723 0.0
H2344 H 0.58966 0.80333 0.97075 0.0
H2345 H 0.54651 0.65289 0.94344 0.0
H2346 H 0.59686 0.75406 0.90514 0.0
H2347 H 0.54072 0.70446 0.00852 0.0
H2348 H 0.56374 0.68926 0.92787 0.0
H2349 H 0.5736 0.76646 0.98572 0.0
C2350 C 0.58879 0.78465 0.96004 0.0
C2351 C 0.59473 0.7815 0.93693 0.0
C2352 C 0.55845 0.69251 0.94544 0.0
C2353 C 0.57526 0.73935 0.95307 0.0
C2354 C 0.54845 0.67184 0.95421 0.0
C2355 C 0.54262 0.67571 0.97751 0.0
C2356 C 0.56253 0.71702 0.96015 0.0
C2357 C 0.54499 0.70053 0.99051 0.0
C2358 C 0.57913 0.7636 0.96826 0.0
C2359 C 0.59278 0.75705 0.92329 0.0
N2360 N 0.55507 0.72025 0.98178 0.0
N2361 N 0.58276 0.73672 0.9314 0.0
H2362 H 0.0678 0.78444 0.68573 0.0
H2363 H 0.14485 0.72406 0.75665 0.0
H2364 H 0.04408 0.72568 0.72271 0.0
H2365 H 0.1692 0.79019 0.72945 0.0
H2366 H 0.10764 0.7256 0.74564 0.0
H2367 H 0.10514 0.78754 0.70207 0.0
C2368 C 0.07046 0.77232 0.69743 0.0
C2369 C 0.05292 0.75476 0.70294 0.0
C2370 C 0.12109 0.7401 0.74249 0.0
C2371 C 0.09537 0.75833 0.72171 0.0
C2372 C 0.14227 0.73934 0.74897 0.0
C2373 C 0.15985 0.75707 0.74395 0.0
C2374 C 0.1176 0.75874 0.73094 0.0
C2375 C 0.15586 0.77617 0.73346 0.0
C2376 C 0.09175 0.77416 0.70679 0.0
C2377 C 0.05719 0.73942 0.71803 0.0
N2378 N 0.13501 0.77641 0.72707 0.0
N2379 N 0.07807 0.74153 0.72687 0.0
H2380 H 0.08597 0.40678 0.39152 0.0
H2381 H 0.08772 0.46768 0.52699 0.0
H2382 H 0.11467 0.38148 0.44918 0.0
H2383 H 0.07449 0.50365 0.47031 0.0
H2384 H 0.10376 0.44025 0.49946 0.0
H2385 H 0.08856 0.44701 0.41967 0.0
C2386 C 0.09348 0.41019 0.41004 0.0
C2387 C 0.0999 0.39108 0.41837 0.0
C2388 C 0.09757 0.45435 0.49304 0.0
C2389 C 0.10215 0.43618 0.45071 0.0
C2390 C 0.08825 0.46984 0.50869 0.0
C2391 C 0.07902 0.48725 0.50048 0.0
C2392 C 0.09733 0.45612 0.46895 0.0
C2393 C 0.08059 0.48978 0.47691 0.0
C2394 C 0.09491 0.43303 0.42612 0.0
C2395 C 0.10945 0.39596 0.44234 0.0
N2396 N 0.0892 0.47405 0.46176 0.0
N2397 N 0.10984 0.41794 0.45793 0.0
H2398 H 0.41874 0.25086 0.15822 0.0
H2399 H 0.37634 0.26858 0.28481 0.0
H2400 H 0.44689 0.2267 0.21735 0.0
H2401 H 0.36945 0.31373 0.23388 0.0
H2402 H 0.39994 0.24933 0.26 0.0
H2403 H 0.39382 0.26575 0.18378 0.0
C2404 C 0.41917 0.24787 0.1763 0.0
C2405 C 0.43552 0.23871 0.18615 0.0
C2406 C 0.39355 0.26376 0.25452 0.0
C2407 C 0.40769 0.25611 0.21534 0.0
C2408 C 0.38049 0.27497 0.2688 0.0
C2409 C 0.37111 0.29247 0.26108 0.0
C2410 C 0.39654 0.26983 0.23232 0.0
C2411 C 0.37663 0.30031 0.24032 0.0
C2412 C 0.40529 0.25686 0.191 0.0
C2413 C 0.43495 0.2345 0.20937 0.0
N2414 N 0.3887 0.28845 0.22624 0.0
N2415 N 0.42162 0.24395 0.22356 0.0
H2416 H 0.61356 0.54635 0.33129 0.0
H2417 H 0.59684 0.50724 0.45936 0.0
H2418 H 0.65241 0.50411 0.36063 0.0
H2419 H 0.56018 0.55108 0.42939 0.0
H2420 H 0.61754 0.50614 0.42464 0.0
H2421 H 0.59473 0.54861 0.36709 0.0
C2422 C 0.61839 0.53764 0.34525 0.0
C2423 C 0.63516 0.52527 0.34241 0.0
C2424 C 0.60528 0.51645 0.42579 0.0
C2425 C 0.61274 0.52753 0.38458 0.0
C2426 C 0.59351 0.51734 0.44597 0.0
C2427 C 0.57699 0.53009 0.44827 0.0
C2428 C 0.60075 0.52833 0.40718 0.0
C2429 C 0.573 0.54157 0.42917 0.0
C2430 C 0.60743 0.5389 0.36592 0.0
C2431 C 0.64002 0.51424 0.36163 0.0
N2432 N 0.58464 0.54053 0.40991 0.0
N2433 N 0.62901 0.51556 0.38147 0.0
H2434 H 0.34728 0.92744 0.06727 0.0
H2435 H 0.35356 0.81822 0.13133 0.0
H2436 H 0.29696 0.85687 0.05435 0.0
H2437 H 0.37871 0.89593 0.17202 0.0
H2438 H 0.3407 0.83259 0.09728 0.0
H2439 H 0.36519 0.91678 0.10171 0.0
C2440 C 0.33991 0.90987 0.07195 0.0
C2441 C 0.32084 0.89274 0.05809 0.0
C2442 C 0.3495 0.84654 0.11345 0.0
C2443 C 0.34108 0.8806 0.09675 0.0
C2444 C 0.35728 0.83843 0.13272 0.0
C2445 C 0.36741 0.85601 0.15439 0.0
C2446 C 0.35205 0.87239 0.11574 0.0
C2447 C 0.37108 0.88191 0.15547 0.0
C2448 C 0.35008 0.9039 0.0915 0.0
C2449 C 0.3117 0.87037 0.06472 0.0
N2450 N 0.36323 0.88946 0.13629 0.0
N2451 N 0.32207 0.86477 0.08358 0.0
H2452 H 0.95991 0.56312 0.86691 0.0
H2453 H 0.02738 0.4948 0.93913 0.0
H2454 H 0.99308 0.51119 0.83029 0.0
H2455 H 0.03193 0.57451 0.95957 0.0
H2456 H 1.00156 0.49047 0.90299 0.0
H2457 H 0.9729 0.55593 0.90531 0.0
C2458 C 0.96983 0.55002 0.86705 0.0
C2459 C 0.97616 0.53822 0.84584 0.0
C2460 C 0.00808 0.50873 0.91564 0.0
C2461 C 0.99036 0.52966 0.8891 0.0
C2462 C 0.02276 0.51125 0.93586 0.0
C2463 C 0.032 0.53518 0.95126 0.0
C2464 C 1.00245 0.53023 0.91175 0.0
C2465 C 0.02547 0.55601 0.9473 0.0
C2466 C 0.97697 0.54582 0.8888 0.0
C2467 C 0.98865 0.52119 0.8466 0.0
N2468 N 0.01095 0.55307 0.92768 0.0
N2469 N 0.99563 0.5175 0.8682 0.0
H2470 H 0.33457 0.23483 0.58002 0.0
H2471 H 0.26951 0.28649 0.68324 0.0
H2472 H 0.27001 0.24218 0.56095 0.0
H2473 H 0.31874 0.24729 0.69228 0.0
H2474 H 0.2706 0.27653 0.63927 0.0
H2475 H 0.33102 0.24692 0.6224 0.0
C2476 C 0.31973 0.23946 0.5848 0.0
C2477 C 0.30255 0.23751 0.56695 0.0
C2478 C 0.28096 0.27001 0.65101 0.0
C2479 C 0.29829 0.25136 0.61578 0.0
C2480 C 0.2803 0.27558 0.67601 0.0
C2481 C 0.29421 0.26791 0.69148 0.0
C2482 C 0.29567 0.25682 0.64171 0.0
C2483 C 0.30798 0.25399 0.68119 0.0
C2484 C 0.31763 0.24614 0.60905 0.0
C2485 C 0.28355 0.24332 0.57425 0.0
N2486 N 0.30842 0.24907 0.65712 0.0
N2487 N 0.28192 0.25012 0.59822 0.0
H2488 H 0.6433 0.54418 0.2033 0.0
H2489 H 0.55696 0.49017 0.0795 0.0
H2490 H 0.5956 0.47135 0.18538 0.0
H2491 H 0.59142 0.56928 0.10415 0.0
H2492 H 0.57305 0.48266 0.11678 0.0
H2493 H 0.62736 0.55331 0.16633 0.0
C2494 C 0.62975 0.5299 0.19154 0.0
C2495 C 0.62111 0.50675 0.19779 0.0
C2496 C 0.57721 0.50172 0.11416 0.0
C2497 C 0.60249 0.51723 0.15484 0.0
C2498 C 0.56796 0.50605 0.09266 0.0
C2499 C 0.57271 0.53045 0.08819 0.0
C2500 C 0.5919 0.52176 0.1317 0.0
C2501 C 0.58709 0.55012 0.10649 0.0
C2502 C 0.62047 0.53525 0.17041 0.0
C2503 C 0.6031 0.48942 0.18165 0.0
N2504 N 0.59622 0.54535 0.12709 0.0
N2505 N 0.59466 0.4949 0.16122 0.0
H2506 H 0.29632 0.89919 0.94574 0.0
H2507 H 0.33659 0.82619 0.83118 0.0
H2508 H 0.36402 0.89894 0.94545 0.0
H2509 H 0.27031 0.80868 0.84675 0.0
H2510 H 0.34788 0.85794 0.86992 0.0
H2511 H 0.28747 0.87211 0.90529 0.0
C2512 C 0.30942 0.89376 0.93705 0.0
C2513 C 0.3309 0.90103 0.94912 0.0
C2514 C 0.33088 0.84716 0.86472 0.0
C2515 C 0.32076 0.86982 0.90283 0.0
C2516 C 0.32446 0.82927 0.84268 0.0
C2517 C 0.30252 0.81527 0.83587 0.0
C2518 C 0.31506 0.8511 0.87956 0.0
C2519 C 0.2874 0.8192 0.85148 0.0
C2520 C 0.3043 0.87812 0.91401 0.0
C2521 C 0.34718 0.89346 0.93686 0.0
N2522 N 0.29393 0.83693 0.87257 0.0
N2523 N 0.34174 0.87803 0.91432 0.0
H2524 H 0.99211 0.53404 0.74985 0.0
H2525 H 0.96198 0.46032 0.62232 0.0
H2526 H 0.9278 0.51035 0.70856 0.0
H2527 H 0.02587 0.48081 0.6643 0.0
H2528 H 0.94551 0.45758 0.6589 0.0
H2529 H 0.99968 0.4957 0.72763 0.0
C2530 C 0.9792 0.52007 0.73689 0.0
C2531 C 0.9597 0.5256 0.73009 0.0
C2532 C 0.96314 0.46178 0.66009 0.0
C2533 C 0.96846 0.48264 0.70393 0.0
C2534 C 0.97249 0.46323 0.63913 0.0
C2535 C 0.99525 0.47158 0.64056 0.0
C2536 C 0.97673 0.47017 0.68257 0.0
C2537 C 0.0082 0.47478 0.6626 0.0
C2538 C 0.98352 0.4982 0.72405 0.0
C2539 C 0.94337 0.50698 0.71353 0.0
N2540 N 0.99879 0.47501 0.68295 0.0
N2541 N 0.94832 0.48656 0.70044 0.0
H2542 H 0.26822 0.21449 0.42526 0.0
H2543 H 0.345 0.30568 0.35816 0.0
H2544 H 0.32822 0.27114 0.45935 0.0
H2545 H 0.28021 0.26003 0.32498 0.0
H2546 H 0.3386 0.29216 0.39521 0.0
H2547 H 0.27094 0.2309 0.38875 0.0
C2548 C 0.28164 0.23071 0.42533 0.0
C2549 C 0.29807 0.24128 0.44544 0.0
C2550 C 0.32571 0.28501 0.37988 0.0
C2551 C 0.30159 0.25967 0.40356 0.0
C2552 C 0.32944 0.29262 0.35862 0.0
C2553 C 0.31315 0.28389 0.33843 0.0
C2554 C 0.30556 0.26831 0.38105 0.0
C2555 C 0.29324 0.26711 0.34015 0.0
C2556 C 0.28331 0.2399 0.40439 0.0
C2557 C 0.31522 0.26215 0.44431 0.0
N2558 N 0.29001 0.25977 0.36109 0.0
N2559 N 0.31664 0.27038 0.42373 0.0
H2560 H 0.35571 0.64208 0.54076 0.0
H2561 H 0.39697 0.52966 0.46707 0.0
H2562 H 0.31495 0.56629 0.5084 0.0
H2563 H 0.44145 0.60019 0.5085 0.0
H2564 H 0.36639 0.54634 0.47684 0.0
H2565 H 0.38731 0.62925 0.52657 0.0
C2566 C 0.35351 0.62265 0.53112 0.0
C2567 C 0.33276 0.60516 0.52588 0.0
C2568 C 0.38284 0.55825 0.48372 0.0
C2569 C 0.36844 0.59072 0.50898 0.0
C2570 C 0.40038 0.54886 0.47785 0.0
C2571 C 0.42185 0.56332 0.48743 0.0
C2572 C 0.38675 0.58217 0.49948 0.0
C2573 C 0.42513 0.58808 0.50138 0.0
C2574 C 0.37145 0.61545 0.52278 0.0
C2575 C 0.33069 0.58033 0.51308 0.0
N2576 N 0.4077 0.59664 0.5073 0.0
N2577 N 0.34828 0.57393 0.5049 0.0
H2578 H 0.89606 0.92169 0.56325 0.0
H2579 H 0.97641 1.00442 0.4925 0.0
H2580 H 0.87125 0.95074 0.50598 0.0
H2581 H 0.99305 1.00448 0.56697 0.0
H2582 H 0.9392 0.97829 0.49278 0.0
H2583 H 0.93328 0.94485 0.56009 0.0
C2584 C 0.89845 0.93265 0.54977 0.0
C2585 C 0.88048 0.93437 0.53495 0.0
C2586 C 0.95107 0.9839 0.50898 0.0
C2587 C 0.92314 0.96087 0.53118 0.0
C2588 C 0.9723 0.99866 0.50881 0.0
C2589 C 0.98783 1.00652 0.52976 0.0
C2590 C 0.94553 0.9764 0.53006 0.0
C2591 C 0.98157 0.99883 0.55047 0.0
C2592 C 0.9197 0.94601 0.54811 0.0
C2593 C 0.88462 0.949 0.51788 0.0
N2594 N 0.96099 0.98406 0.55005 0.0
N2595 N 0.90552 0.96166 0.51641 0.0
H2596 H 0.89342 0.12738 0.23568 0.0
H2597 H 0.84393 0.23692 0.31067 0.0
H2598 H 0.88719 0.13781 0.3111 0.0
H2599 H 0.83228 0.21496 0.23321 0.0
H2600 H 0.86251 0.20327 0.31079 0.0
H2601 H 0.87456 0.16087 0.23382 0.0
C2602 C 0.88821 0.13644 0.25189 0.0
C2603 C 0.89215 0.12879 0.27356 0.0
C2604 C 0.85602 0.20571 0.29365 0.0
C2605 C 0.87027 0.16852 0.2716 0.0
C2606 C 0.84529 0.2252 0.29358 0.0
C2607 C 0.83611 0.22931 0.27192 0.0
C2608 C 0.85849 0.1899 0.27184 0.0
C2609 C 0.83874 0.21285 0.2505 0.0
C2610 C 0.87728 0.1558 0.2508 0.0
C2611 C 0.88471 0.14217 0.29374 0.0
N2612 N 0.84963 0.1944 0.25102 0.0
N2613 N 0.87453 0.16091 0.29226 0.0
H2614 H 0.71811 0.05715 0.99358 0.0
H2615 H 0.63125 0.10728 0.06309 0.0
H2616 H 0.7294 0.1349 0.03181 0.0
H2617 H 0.62124 0.04314 1.00264 0.0
H2618 H 0.6709 0.11141 0.06714 0.0
H2619 H 0.6886 0.04486 0.01668 0.0
C2620 C 0.7151 0.07143 0.00783 0.0
C2621 C 0.72546 0.09706 0.01043 0.0
C2622 C 0.65984 0.09617 0.05337 0.0
C2623 C 0.69111 0.08359 0.03539 0.0
C2624 C 0.63744 0.09411 0.05079 0.0
C2625 C 0.62327 0.07544 0.032 0.0
C2626 C 0.66773 0.07894 0.03745 0.0
C2627 C 0.63175 0.05833 0.01688 0.0
C2628 C 0.69813 0.06451 0.02082 0.0
C2629 C 0.72126 0.11494 0.0291 0.0
N2630 N 0.65342 0.06054 0.01991 0.0
N2631 N 0.7036 0.10803 0.04028 0.0
H2632 H 0.22766 0.51064 0.22798 0.0
H2633 H 0.2561 0.43954 0.32712 0.0
H2634 H 0.21645 0.53182 0.30182 0.0
H2635 H 0.28907 0.44214 0.26467 0.0
H2636 H 0.23748 0.47004 0.31646 0.0
H2637 H 0.24719 0.48147 0.23946 0.0
C2638 C 0.22946 0.50919 0.24656 0.0
C2639 C 0.22067 0.52353 0.26401 0.0
C2640 C 0.24895 0.46401 0.30527 0.0
C2641 C 0.24217 0.49035 0.27706 0.0
C2642 C 0.25945 0.44679 0.31135 0.0
C2643 C 0.27379 0.4386 0.29654 0.0
C2644 C 0.25308 0.47273 0.2844 0.0
C2645 C 0.2778 0.44808 0.27621 0.0
C2646 C 0.2405 0.49267 0.2531 0.0
C2647 C 0.22321 0.52118 0.28788 0.0
N2648 N 0.26739 0.46469 0.27063 0.0
N2649 N 0.23361 0.50462 0.2937 0.0
H2650 H 0.24488 0.3949 1.00509 0.0
H2651 H 0.19014 0.50998 0.02187 0.0
H2652 H 0.26919 0.46604 0.05825 0.0
H2653 H 0.15254 0.4346 0.98421 0.0
H2654 H 0.22152 0.49407 0.0297 0.0
H2655 H 0.2126 0.40851 0.99254 0.0
C2656 C 0.2434 0.41323 0.01421 0.0
C2657 C 0.25985 0.4294 0.03274 0.0
C2658 C 0.20653 0.48088 0.01956 0.0
C2659 C 0.22331 0.44503 0.01835 0.0
C2660 C 0.18869 0.49004 0.01496 0.0
C2661 C 0.1689 0.47355 1.00244 0.0
C2662 C 0.2047 0.45492 0.01155 0.0
C2663 C 0.16765 0.44781 0.99401 0.0
C2664 C 0.22503 0.42096 0.00701 0.0
C2665 C 0.25711 0.45295 0.04381 0.0
N2666 N 0.1854 0.43917 0.99874 0.0
N2667 N 0.23935 0.45999 0.03642 0.0
H2668 H 0.90517 0.97726 0.24373 0.0
H2669 H 0.81814 0.88327 0.30245 0.0
H2670 H 0.87079 1.0003 0.30222 0.0
H2671 H 0.84828 0.85269 0.24317 0.0
H2672 H 0.83968 0.9258 0.30274 0.0
H2673 H 0.88658 0.93237 0.24238 0.0
C2674 C 0.89364 0.97314 0.25611 0.0
C2675 C 0.8897 0.99332 0.27302 0.0
C2676 C 0.84197 0.90998 0.28973 0.0
C2677 C 0.86838 0.9412 0.27184 0.0
C2678 C 0.8297 0.88537 0.28973 0.0
C2679 C 0.83144 0.86378 0.27315 0.0
C2680 C 0.85629 0.91401 0.27264 0.0
C2681 C 0.84657 0.86839 0.25678 0.0
C2682 C 0.88308 0.9473 0.25544 0.0
C2683 C 0.87464 0.98605 0.28871 0.0
N2684 N 0.8582 0.8928 0.25684 0.0
N2685 N 0.86483 0.96114 0.28771 0.0
H2686 H 0.69796 0.13462 0.80456 0.0
H2687 H 0.77335 0.19981 0.72024 0.0
H2688 H 0.6849 0.11119 0.72672 0.0
H2689 H 0.78999 0.21319 0.79736 0.0
H2690 H 0.74229 0.16478 0.72116 0.0
H2691 H 0.7299 0.16743 0.80159 0.0
C2692 C 0.70143 0.1368 0.78683 0.0
C2693 C 0.68971 0.11918 0.76588 0.0
C2694 C 0.75292 0.17519 0.73784 0.0
C2695 C 0.72638 0.15563 0.76242 0.0
C2696 C 0.77084 0.19484 0.73726 0.0
C2697 C 0.78297 0.21028 0.75904 0.0
C2698 C 0.74768 0.17141 0.7603 0.0
C2699 C 0.77996 0.20248 0.7804 0.0
C2700 C 0.71997 0.1551 0.78516 0.0
C2701 C 0.69426 0.12366 0.74339 0.0
N2702 N 0.76198 0.18396 0.78069 0.0
N2703 N 0.71282 0.14101 0.7422 0.0
loop_
_geom_bond_atom_site_label_1
_geom_bond_atom_site_label_2
_geom_bond_distance
_geom_bond_site_symmetry_2
_ccdc_geom_bond_type
Mg0 O1 2.028 . S
Mg0 O7 1.986 . S
Mg0 O9 2.114 . S
Mg0 O10 2.251 . S
Mg0 O13 2.010 . S
O1 Mg0 2.028 . S
O1 C4 1.250 . S
O2 Mg3 2.028 . S
O2 C4 1.248 . S
Mg3 O2 2.028 . S
Mg3 O8 2.032 . S
Mg3 O10 2.079 . S
C4 O1 1.250 . S
C4 O2 1.248 . S
C5 O6 1.264 . S
C5 O13 1.249 . S
O6 C5 1.264 . S
O7 Mg0 1.986 . S
O7 C11 1.246 . S
O8 Mg3 2.032 . S
O8 C11 1.259 . S
O9 Mg0 2.114 . S
O9 C12 1.252 . S
O10 Mg0 2.251 . S
O10 Mg3 2.079 . S
O10 C12 1.273 . S
C11 O7 1.246 . S
C11 O8 1.259 . S
C12 O9 1.252 . S
C12 O10 1.273 . S
O13 Mg0 2.010 . S
O13 C5 1.249 . S
Mg14 O15 2.028 . S
Mg14 O21 1.986 . S
Mg14 O23 2.114 1_455 S
Mg14 O24 2.251 1_455 S
Mg14 O27 2.010 . S
O15 Mg14 2.028 . S
O15 C18 1.250 1_455 S
O16 Mg17 2.028 . S
O16 C18 1.248 . S
Mg17 O16 2.028 . S
Mg17 O22 2.032 . S
Mg17 O24 2.079 . S
C18 O15 1.250 1_655 S
C18 O16 1.248 . S
C19 O20 1.264 . S
C19 O27 1.249 . S
O20 C19 1.264 . S
O21 Mg14 1.986 . S
O21 C25 1.246 1_455 S
O22 Mg17 2.032 . S
O22 C25 1.259 . S
O23 Mg14 2.114 1_655 S
O23 C26 1.252 . S
O24 Mg14 2.251 1_655 S
O24 Mg17 2.079 . S
O24 C26 1.273 . S
C25 O21 1.246 1_655 S
C25 O22 1.259 . S
C26 O23 1.252 . S
C26 O24 1.273 . S
O27 Mg14 2.010 . S
O27 C19 1.249 . S
Mg28 O29 2.028 . S
Mg28 O35 1.986 . S
Mg28 O37 2.114 . S
Mg28 O38 2.251 . S
Mg28 O41 2.010 . S
O29 Mg28 2.028 . S
O29 C32 1.250 . S
O30 Mg31 2.028 . S
O30 C32 1.248 . S
Mg31 O30 2.028 . S
Mg31 O36 2.032 . S
Mg31 O38 2.079 . S
C32 O29 1.250 . S
C32 O30 1.248 . S
C33 O34 1.264 . S
C33 O41 1.249 . S
O34 C33 1.264 . S
O35 Mg28 1.986 . S
O35 C39 1.246 . S
O36 Mg31 2.032 . S
O36 C39 1.259 . S
O37 Mg28 2.114 . S
O37 C40 1.252 . S
O38 Mg28 2.251 . S
O38 Mg31 2.079 . S
O38 C40 1.273 . S
C39 O35 1.246 . S
C39 O36 1.259 . S
C40 O37 1.252 . S
C40 O38 1.273 . S
O41 Mg28 2.010 . S
O41 C33 1.249 . S
Mg42 O43 2.028 . S
Mg42 O49 1.986 . S
Mg42 O51 2.114 . S
Mg42 O52 2.251 . S
Mg42 O55 2.010 . S
O43 Mg42 2.028 . S
O43 C46 1.250 . S
O44 Mg45 2.028 . S
O44 C46 1.248 . S
Mg45 O44 2.028 . S
Mg45 O50 2.032 . S
Mg45 O52 2.079 . S
C46 O43 1.250 . S
C46 O44 1.248 . S
C47 O48 1.264 . S
C47 O55 1.249 . S
O48 C47 1.264 . S
O49 Mg42 1.986 . S
O49 C53 1.246 . S
O50 Mg45 2.032 . S
O50 C53 1.259 . S
O51 Mg42 2.114 . S
O51 C54 1.252 . S
O52 Mg42 2.251 . S
O52 Mg45 2.079 . S
O52 C54 1.273 . S
C53 O49 1.246 . S
C53 O50 1.259 . S
C54 O51 1.252 . S
C54 O52 1.273 . S
O55 Mg42 2.010 . S
O55 C47 1.249 . S
Mg56 O57 2.028 . S
Mg56 O63 1.986 . S
Mg56 O65 2.114 . S
Mg56 O66 2.251 . S
Mg56 O69 2.010 . S
O57 Mg56 2.028 . S
O57 C60 1.250 . S
O58 Mg59 2.028 . S
O58 C60 1.248 . S
Mg59 O58 2.028 . S
Mg59 O64 2.032 . S
Mg59 O66 2.079 . S
C60 O57 1.250 . S
C60 O58 1.248 . S
C61 O62 1.264 . S
C61 O69 1.249 . S
O62 C61 1.264 . S
O63 Mg56 1.986 . S
O63 C67 1.246 . S
O64 Mg59 2.032 . S
O64 C67 1.259 . S
O65 Mg56 2.114 . S
O65 C68 1.252 . S
O66 Mg56 2.251 . S
O66 Mg59 2.079 . S
O66 C68 1.273 . S
C67 O63 1.246 . S
C67 O64 1.259 . S
C68 O65 1.252 . S
C68 O66 1.273 . S
O69 Mg56 2.010 . S
O69 C61 1.249 . S
Mg70 O71 2.028 . S
Mg70 O77 1.986 . S
Mg70 O79 2.114 . S
Mg70 O80 2.251 . S
Mg70 O83 2.010 . S
O71 Mg70 2.028 . S
O71 C74 1.250 . S
O72 Mg73 2.028 . S
O72 C74 1.248 . S
Mg73 O72 2.028 . S
Mg73 O78 2.032 . S
Mg73 O80 2.079 . S
C74 O71 1.250 . S
C74 O72 1.248 . S
C75 O76 1.264 . S
C75 O83 1.249 . S
O76 C75 1.264 . S
O77 Mg70 1.986 . S
O77 C81 1.246 . S
O78 Mg73 2.032 . S
O78 C81 1.259 . S
O79 Mg70 2.114 . S
O79 C82 1.252 . S
O80 Mg70 2.251 . S
O80 Mg73 2.079 . S
O80 C82 1.273 . S
C81 O77 1.246 . S
C81 O78 1.259 . S
C82 O79 1.252 . S
C82 O80 1.273 . S
O83 Mg70 2.010 . S
O83 C75 1.249 . S
Mg84 O85 2.028 . S
Mg84 O91 1.986 . S
Mg84 O93 2.114 . S
Mg84 O94 2.251 . S
Mg84 O97 2.010 . S
O85 Mg84 2.028 . S
O85 C88 1.250 . S
O86 Mg87 2.028 . S
O86 C88 1.248 . S
Mg87 O86 2.028 . S
Mg87 O92 2.032 . S
Mg87 O94 2.079 . S
C88 O85 1.250 . S
C88 O86 1.248 . S
C89 O90 1.264 . S
C89 O97 1.249 . S
O90 C89 1.264 . S
O91 Mg84 1.986 . S
O91 C95 1.246 . S
O92 Mg87 2.032 . S
O92 C95 1.259 . S
O93 Mg84 2.114 . S
O93 C96 1.252 . S
O94 Mg84 2.251 . S
O94 Mg87 2.079 . S
O94 C96 1.273 . S
C95 O91 1.246 . S
C95 O92 1.259 . S
C96 O93 1.252 . S
C96 O94 1.273 . S
O97 Mg84 2.010 . S
O97 C89 1.249 . S
Mg98 O99 2.028 . S
Mg98 O105 1.986 . S
Mg98 O107 2.114 1_455 S
Mg98 O108 2.251 1_455 S
Mg98 O111 2.010 . S
O99 Mg98 2.028 . S
O99 C102 1.250 . S
O100 Mg101 2.009 1_455 S
O100 C102 1.281 . S
Mg101 O100 2.009 1_655 S
Mg101 O106 2.032 . S
Mg101 O108 2.079 . S
C102 O99 1.250 . S
C102 O100 1.281 . S
C103 O104 1.264 . S
C103 O111 1.249 . S
O104 C103 1.264 . S
O105 Mg98 1.986 . S
O105 C109 1.246 . S
O106 Mg101 2.032 . S
O106 C109 1.259 1_655 S
O107 Mg98 2.114 1_655 S
O107 C110 1.252 . S
O108 Mg98 2.251 1_655 S
O108 Mg101 2.079 . S
O108 C110 1.273 . S
C109 O105 1.246 . S
C109 O106 1.259 1_455 S
C110 O107 1.252 . S
C110 O108 1.273 . S
O111 Mg98 2.010 . S
O111 C103 1.249 . S
Mg112 O113 2.028 1_545 S
Mg112 O119 1.986 . S
Mg112 O121 2.114 . S
Mg112 O122 2.251 . S
Mg112 O125 2.010 . S
O113 Mg112 2.028 1_565 S
O113 C116 1.250 . S
O114 Mg115 2.028 1_565 S
O114 C116 1.248 . S
Mg115 O114 2.028 1_545 S
Mg115 O120 2.032 . S
Mg115 O122 2.079 . S
C116 O113 1.250 . S
C116 O114 1.248 . S
C117 O118 1.264 . S
C117 O125 1.249 . S
O118 C117 1.264 . S
O119 Mg112 1.986 . S
O119 C123 1.246 . S
O120 Mg115 2.032 . S
O120 C123 1.259 . S
O121 Mg112 2.114 . S
O121 C124 1.252 . S
O122 Mg112 2.251 . S
O122 Mg115 2.079 . S
O122 C124 1.273 . S
C123 O119 1.246 . S
C123 O120 1.259 . S
C124 O121 1.252 . S
C124 O122 1.273 . S
O125 Mg112 2.010 . S
O125 C117 1.249 . S
Mg126 O127 2.028 . S
Mg126 O133 1.986 . S
Mg126 O135 2.114 . S
Mg126 O136 2.251 . S
Mg126 O139 2.010 . S
O127 Mg126 2.028 . S
O127 C130 1.250 . S
O128 Mg129 2.028 . S
O128 C130 1.248 . S
Mg129 O128 2.028 . S
Mg129 O134 2.032 . S
Mg129 O136 2.079 . S
C130 O127 1.250 . S
C130 O128 1.248 . S
C131 O132 1.264 . S
C131 O139 1.249 . S
O132 C131 1.264 . S
O133 Mg126 1.986 . S
O133 C137 1.246 . S
O134 Mg129 2.032 . S
O134 C137 1.259 . S
O135 Mg126 2.114 . S
O135 C138 1.252 . S
O136 Mg126 2.251 . S
O136 Mg129 2.079 . S
O136 C138 1.273 . S
C137 O133 1.246 . S
C137 O134 1.259 . S
C138 O135 1.252 . S
C138 O136 1.273 . S
O139 Mg126 2.010 . S
O139 C131 1.249 . S
Mg140 O141 2.028 1_565 S
Mg140 O147 1.986 . S
Mg140 O149 2.114 1_565 S
Mg140 O150 2.250 . S
Mg140 O153 2.010 . S
O141 Mg140 2.028 1_545 S
O141 C144 1.250 . S
O142 Mg143 2.028 . S
O142 C144 1.248 . S
Mg143 O142 2.028 . S
Mg143 O148 2.032 1_545 S
Mg143 O150 2.080 1_545 S
C144 O141 1.250 . S
C144 O142 1.248 . S
C145 O146 1.264 . S
C145 O153 1.249 . S
O146 C145 1.264 . S
O147 Mg140 1.986 . S
O147 C151 1.246 . S
O148 Mg143 2.032 1_565 S
O148 C151 1.259 . S
O149 Mg140 2.114 1_545 S
O149 C152 1.252 . S
O150 Mg140 2.250 . S
O150 Mg143 2.080 1_565 S
O150 C152 1.263 1_565 S
C151 O147 1.246 . S
C151 O148 1.259 . S
C152 O149 1.252 . S
C152 O150 1.263 1_545 S
O153 Mg140 2.010 . S
O153 C145 1.249 . S
Mg154 O155 2.028 1_554 S
Mg154 O161 1.986 . S
Mg154 O163 2.114 . S
Mg154 O164 2.251 . S
Mg154 O167 2.010 . S
O155 Mg154 2.028 1_556 S
O155 C158 1.250 . S
O156 Mg157 2.028 1_556 S
O156 C158 1.248 . S
Mg157 O156 2.028 1_554 S
Mg157 O162 2.032 . S
Mg157 O164 2.079 . S
C158 O155 1.250 . S
C158 O156 1.248 . S
C159 O160 1.264 . S
C159 O167 1.249 . S
O160 C159 1.264 . S
O161 Mg154 1.986 . S
O161 C165 1.246 . S
O162 Mg157 2.032 . S
O162 C165 1.259 . S
O163 Mg154 2.114 . S
O163 C166 1.252 . S
O164 Mg154 2.251 . S
O164 Mg157 2.079 . S
O164 C166 1.273 . S
C165 O161 1.246 . S
C165 O162 1.259 . S
C166 O163 1.252 . S
C166 O164 1.273 . S
O167 Mg154 2.010 . S
O167 C159 1.249 . S
Mg168 O169 2.028 1_554 S
Mg168 O175 1.986 . S
Mg168 O177 2.114 . S
Mg168 O178 2.251 . S
Mg168 O181 2.010 . S
O169 Mg168 2.028 1_556 S
O169 C172 1.250 . S
O170 Mg171 2.028 1_556 S
O170 C172 1.248 . S
Mg171 O170 2.028 1_554 S
Mg171 O176 2.032 . S
Mg171 O178 2.079 . S
C172 O169 1.250 . S
C172 O170 1.248 . S
C173 O174 1.264 . S
C173 O181 1.249 . S
O174 C173 1.264 . S
O175 Mg168 1.986 . S
O175 C179 1.246 . S
O176 Mg171 2.032 . S
O176 C179 1.259 . S
O177 Mg168 2.114 . S
O177 C180 1.252 . S
O178 Mg168 2.251 . S
O178 Mg171 2.079 . S
O178 C180 1.273 . S
C179 O175 1.246 . S
C179 O176 1.259 . S
C180 O177 1.252 . S
C180 O178 1.273 . S
O181 Mg168 2.010 . S
O181 C173 1.249 . S
Mg182 O183 2.028 . S
Mg182 O189 1.986 1_554 S
Mg182 O191 2.114 . S
Mg182 O192 2.251 . S
Mg182 O195 2.010 . S
O183 Mg182 2.028 . S
O183 C186 1.250 . S
O184 Mg185 2.028 . S
O184 C186 1.248 . S
Mg185 O184 2.028 . S
Mg185 O190 2.032 1_554 S
Mg185 O192 2.079 . S
C186 O183 1.250 . S
C186 O184 1.248 . S
C187 O188 1.264 1_554 S
C187 O195 1.252 . S
O188 C187 1.264 1_556 S
O189 Mg182 1.986 1_556 S
O189 C193 1.246 . S
O190 Mg185 2.032 1_556 S
O190 C193 1.259 . S
O191 Mg182 2.114 . S
O191 C194 1.252 . S
O192 Mg182 2.251 . S
O192 Mg185 2.079 . S
O192 C194 1.273 . S
C193 O189 1.246 . S
C193 O190 1.259 . S
C194 O191 1.252 . S
C194 O192 1.273 . S
O195 Mg182 2.010 . S
O195 C187 1.252 . S
Mg196 O197 2.028 . S
Mg196 O203 1.986 . S
Mg196 O205 2.114 . S
Mg196 O206 2.251 . S
Mg196 O209 2.010 . S
O197 Mg196 2.028 . S
O197 C200 1.250 . S
O198 Mg199 2.028 . S
O198 C200 1.248 . S
Mg199 O198 2.028 . S
Mg199 O204 2.032 . S
Mg199 O206 2.079 . S
C200 O197 1.250 . S
C200 O198 1.248 . S
C201 O202 1.264 . S
C201 O209 1.249 . S
O202 C201 1.264 . S
O203 Mg196 1.986 . S
O203 C207 1.246 . S
O204 Mg199 2.032 . S
O204 C207 1.259 . S
O205 Mg196 2.114 . S
O205 C208 1.252 . S
O206 Mg196 2.251 . S
O206 Mg199 2.079 . S
O206 C208 1.273 . S
C207 O203 1.246 . S
C207 O204 1.259 . S
C208 O205 1.252 . S
C208 O206 1.273 . S
O209 Mg196 2.010 . S
O209 C201 1.249 . S
Mg210 O211 2.028 . S
Mg210 O217 1.986 . S
Mg210 O219 2.114 . S
Mg210 O220 2.251 . S
Mg210 O223 2.010 . S
O211 Mg210 2.028 . S
O211 C214 1.250 . S
O212 Mg213 2.028 . S
O212 C214 1.248 . S
Mg213 O212 2.028 . S
Mg213 O218 2.032 . S
Mg213 O220 2.079 . S
C214 O211 1.250 . S
C214 O212 1.248 . S
C215 O216 1.264 . S
C215 O223 1.249 . S
O216 C215 1.264 . S
O217 Mg210 1.986 . S
O217 C221 1.246 . S
O218 Mg213 2.032 . S
O218 C221 1.259 . S
O219 Mg210 2.114 . S
O219 C222 1.252 . S
O220 Mg210 2.251 . S
O220 Mg213 2.079 . S
O220 C222 1.273 . S
C221 O217 1.246 . S
C221 O218 1.259 . S
C222 O219 1.252 . S
C222 O220 1.273 . S
O223 Mg210 2.010 . S
O223 C215 1.249 . S
Mg224 O225 2.028 . S
Mg224 O231 1.986 . S
Mg224 O233 2.114 . S
Mg224 O234 2.251 . S
Mg224 O237 2.010 . S
O225 Mg224 2.028 . S
O225 C228 1.250 . S
O226 Mg227 2.028 . S
O226 C228 1.248 . S
Mg227 O226 2.028 . S
Mg227 O232 2.032 . S
Mg227 O234 2.079 . S
C228 O225 1.250 . S
C228 O226 1.248 . S
C229 O230 1.264 . S
C229 O237 1.249 . S
O230 C229 1.264 . S
O231 Mg224 1.986 . S
O231 C235 1.246 . S
O232 Mg227 2.032 . S
O232 C235 1.259 . S
O233 Mg224 2.114 . S
O233 C236 1.252 . S
O234 Mg224 2.251 . S
O234 Mg227 2.079 . S
O234 C236 1.273 . S
C235 O231 1.246 . S
C235 O232 1.259 . S
C236 O233 1.252 . S
C236 O234 1.273 . S
O237 Mg224 2.010 . S
O237 C229 1.249 . S
Mg238 O239 2.028 . S
Mg238 O245 1.986 . S
Mg238 O247 2.114 . S
Mg238 O248 2.251 . S
Mg238 O251 2.010 . S
O239 Mg238 2.028 . S
O239 C242 1.250 . S
O240 Mg241 2.028 . S
O240 C242 1.248 . S
Mg241 O240 2.028 . S
Mg241 O246 2.032 . S
Mg241 O248 2.079 . S
C242 O239 1.250 . S
C242 O240 1.248 . S
C243 O244 1.264 . S
C243 O251 1.249 . S
O244 C243 1.264 . S
O245 Mg238 1.986 . S
O245 C249 1.246 . S
O246 Mg241 2.032 . S
O246 C249 1.259 . S
O247 Mg238 2.114 . S
O247 C250 1.252 . S
O248 Mg238 2.251 . S
O248 Mg241 2.079 . S
O248 C250 1.273 . S
C249 O245 1.246 . S
C249 O246 1.259 . S
C250 O247 1.252 . S
C250 O248 1.273 . S
O251 Mg238 2.010 . S
O251 C243 1.249 . S
Mg252 O253 2.028 . S
Mg252 O259 1.986 . S
Mg252 O261 2.114 . S
Mg252 O262 2.251 . S
Mg252 O265 2.010 . S
O253 Mg252 2.028 . S
O253 C256 1.250 . S
O254 Mg255 2.028 . S
O254 C256 1.248 . S
Mg255 O254 2.028 . S
Mg255 O260 2.032 . S
Mg255 O262 2.079 . S
C256 O253 1.250 . S
C256 O254 1.248 . S
C257 O258 1.264 . S
C257 O265 1.249 . S
O258 C257 1.264 . S
O259 Mg252 1.986 . S
O259 C263 1.246 . S
O260 Mg255 2.032 . S
O260 C263 1.259 . S
O261 Mg252 2.114 . S
O261 C264 1.252 . S
O262 Mg252 2.251 . S
O262 Mg255 2.079 . S
O262 C264 1.273 . S
C263 O259 1.246 . S
C263 O260 1.259 . S
C264 O261 1.252 . S
C264 O262 1.273 . S
O265 Mg252 2.010 . S
O265 C257 1.249 . S
Mg266 O267 2.028 . S
Mg266 O273 1.986 . S
Mg266 O275 2.114 . S
Mg266 O276 2.251 . S
Mg266 O279 2.010 . S
O267 Mg266 2.028 . S
O267 C270 1.250 . S
O268 Mg269 2.028 . S
O268 C270 1.248 . S
Mg269 O268 2.028 . S
Mg269 O274 2.032 . S
Mg269 O276 2.079 . S
C270 O267 1.250 . S
C270 O268 1.248 . S
C271 O272 1.264 . S
C271 O279 1.249 . S
O272 C271 1.264 . S
O273 Mg266 1.986 . S
O273 C277 1.246 . S
O274 Mg269 2.032 . S
O274 C277 1.259 . S
O275 Mg266 2.114 . S
O275 C278 1.252 . S
O276 Mg266 2.251 . S
O276 Mg269 2.079 . S
O276 C278 1.273 . S
C277 O273 1.246 . S
C277 O274 1.259 . S
C278 O275 1.252 . S
C278 O276 1.273 . S
O279 Mg266 2.010 . S
O279 C271 1.249 . S
Mg280 O281 2.028 1_556 S
Mg280 O287 1.986 . S
Mg280 O289 2.114 1_556 S
Mg280 O290 2.251 1_556 S
Mg280 O293 2.010 . S
O281 Mg280 2.028 1_554 S
O281 C284 1.250 . S
O282 Mg283 2.028 . S
O282 C284 1.248 . S
Mg283 O282 2.028 . S
Mg283 O288 2.032 1_554 S
Mg283 O290 2.079 . S
C284 O281 1.250 . S
C284 O282 1.248 . S
C285 O286 1.264 . S
C285 O293 1.249 . S
O286 C285 1.264 . S
O287 Mg280 1.986 . S
O287 C291 1.246 . S
O288 Mg283 2.032 1_556 S
O288 C291 1.259 . S
O289 Mg280 2.114 1_554 S
O289 C292 1.252 . S
O290 Mg280 2.251 1_554 S
O290 Mg283 2.079 . S
O290 C292 1.273 . S
C291 O287 1.246 . S
C291 O288 1.259 . S
C292 O289 1.252 . S
C292 O290 1.273 . S
O293 Mg280 2.010 . S
O293 C285 1.249 . S
Mg294 O295 2.028 . S
Mg294 O301 1.986 . S
Mg294 O303 2.114 . S
Mg294 O304 2.251 . S
Mg294 O307 2.010 . S
O295 Mg294 2.028 . S
O295 C298 1.250 . S
O296 Mg297 2.028 . S
O296 C298 1.248 . S
Mg297 O296 2.028 . S
Mg297 O302 2.032 . S
Mg297 O304 2.079 . S
C298 O295 1.250 . S
C298 O296 1.248 . S
C299 O300 1.264 . S
C299 O307 1.249 . S
O300 C299 1.264 . S
O301 Mg294 1.986 . S
O301 C305 1.246 . S
O302 Mg297 2.032 . S
O302 C305 1.259 . S
O303 Mg294 2.114 . S
O303 C306 1.252 . S
O304 Mg294 2.251 . S
O304 Mg297 2.079 . S
O304 C306 1.273 . S
C305 O301 1.246 . S
C305 O302 1.259 . S
C306 O303 1.252 . S
C306 O304 1.273 . S
O307 Mg294 2.010 . S
O307 C299 1.249 . S
Mg308 O309 2.028 . S
Mg308 O315 1.986 . S
Mg308 O317 2.114 . S
Mg308 O318 2.251 . S
Mg308 O321 2.010 . S
O309 Mg308 2.028 . S
O309 C312 1.250 . S
O310 Mg311 2.028 . S
O310 C312 1.248 . S
Mg311 O310 2.028 . S
Mg311 O316 2.032 . S
Mg311 O318 2.079 . S
C312 O309 1.250 . S
C312 O310 1.248 . S
C313 O314 1.264 . S
C313 O321 1.249 . S
O314 C313 1.264 . S
O315 Mg308 1.986 . S
O315 C319 1.246 . S
O316 Mg311 2.032 . S
O316 C319 1.259 . S
O317 Mg308 2.114 . S
O317 C320 1.252 . S
O318 Mg308 2.251 . S
O318 Mg311 2.079 . S
O318 C320 1.273 . S
C319 O315 1.246 . S
C319 O316 1.259 . S
C320 O317 1.252 . S
C320 O318 1.273 . S
O321 Mg308 2.010 . S
O321 C313 1.249 . S
Mg322 O323 2.028 . S
Mg322 O329 1.986 . S
Mg322 O331 2.114 . S
Mg322 O332 2.251 . S
Mg322 O335 2.010 . S
O323 Mg322 2.028 . S
O323 C326 1.250 . S
O324 Mg325 2.028 . S
O324 C326 1.248 . S
Mg325 O324 2.028 . S
Mg325 O330 2.032 . S
Mg325 O332 2.079 . S
C326 O323 1.250 . S
C326 O324 1.248 . S
C327 O328 1.264 . S
C327 O335 1.249 . S
O328 C327 1.264 . S
O329 Mg322 1.986 . S
O329 C333 1.246 . S
O330 Mg325 2.032 . S
O330 C333 1.259 . S
O331 Mg322 2.114 . S
O331 C334 1.252 . S
O332 Mg322 2.251 . S
O332 Mg325 2.079 . S
O332 C334 1.273 . S
C333 O329 1.246 . S
C333 O330 1.259 . S
C334 O331 1.252 . S
C334 O332 1.273 . S
O335 Mg322 2.010 . S
O335 C327 1.249 . S
Gd336 C339 2.818 1_455 S
Gd336 O356 2.377 . S
Gd336 O358 2.448 1_455 S
Gd336 O359 2.506 1_456 S
Gd336 O360 2.435 . S
Gd336 O361 2.717 . S
Gd336 O363 2.395 1_546 S
Gd336 O367 2.327 1_556 S
Gd337 C348 2.818 . S
Gd337 O357 2.395 . S
Gd337 O361 2.327 1_554 S
Gd337 O362 2.377 . S
Gd337 O364 2.448 . S
Gd337 O365 2.506 . S
Gd337 O366 2.435 . S
Gd337 O367 2.717 . S
C338 O356 1.240 1_554 S
C338 O357 1.240 . S
C339 Gd336 2.818 1_655 S
C339 C340 1.510 . S
C339 O358 1.249 . S
C339 O359 1.252 1_556 S
C340 C339 1.510 . S
C340 C341 1.404 . S
C340 C342 1.379 . S
C341 C340 1.404 . S
C341 C345 1.389 . S
C341 H368 0.930 . S
C342 C340 1.379 . S
C342 C344 1.383 . S
C342 H369 0.894 1_556 S
C343 C344 1.359 . S
C343 C345 1.364 . S
C344 C342 1.383 . S
C344 C343 1.359 . S
C344 H370 0.931 1_556 S
C345 C341 1.389 . S
C345 C343 1.364 . S
C345 H371 0.931 . S
C346 O360 1.256 . S
C346 O361 1.257 . S
C347 O362 1.240 1_565 S
C347 O363 1.240 . S
C348 Gd337 2.818 . S
C348 C349 1.510 . S
C348 O364 1.249 . S
C348 O365 1.252 . S
C349 C348 1.510 . S
C349 C350 1.404 . S
C349 C351 1.352 . S
C350 C349 1.404 . S
C350 C354 1.389 . S
C350 H372 0.930 . S
C351 C349 1.352 . S
C351 C353 1.374 1_545 S
C351 H373 0.932 1_545 S
C352 C353 1.359 1_545 S
C352 C354 1.364 . S
C353 C351 1.374 1_565 S
C353 C352 1.359 1_565 S
C353 H374 0.931 . S
C354 C350 1.389 . S
C354 C352 1.364 . S
C354 H375 0.931 . S
C355 O366 1.256 . S
C355 O367 1.257 . S
O356 Gd336 2.377 . S
O356 C338 1.240 1_556 S
O357 Gd337 2.395 . S
O357 C338 1.240 . S
O358 Gd336 2.448 1_655 S
O358 C339 1.249 . S
O359 Gd336 2.506 1_654 S
O359 C339 1.252 1_554 S
O360 Gd336 2.435 . S
O360 C346 1.256 . S
O361 Gd336 2.717 . S
O361 Gd337 2.327 1_556 S
O361 C346 1.257 . S
O362 Gd337 2.377 . S
O362 C347 1.240 1_545 S
O363 Gd336 2.395 1_564 S
O363 C347 1.240 . S
O364 Gd337 2.448 . S
O364 C348 1.249 . S
O365 Gd337 2.506 . S
O365 C348 1.252 . S
O366 Gd337 2.435 . S
O366 C355 1.256 . S
O367 Gd336 2.327 1_554 S
O367 Gd337 2.717 . S
O367 C355 1.257 . S
H368 C341 0.930 . S
H369 C342 0.894 1_554 S
H370 C344 0.931 1_554 S
H371 C345 0.931 . S
H372 C350 0.930 . S
H373 C351 0.932 1_565 S
H374 C353 0.931 . S
H375 C354 0.931 . S
Gd376 C379 2.818 . S
Gd376 O396 2.377 . S
Gd376 O398 2.448 . S
Gd376 O399 2.506 . S
Gd376 O400 2.435 . S
Gd376 O401 2.717 . S
Gd376 O403 2.395 . S
Gd376 O407 2.327 . S
Gd377 C388 2.818 . S
Gd377 O397 2.395 . S
Gd377 O401 2.327 . S
Gd377 O402 2.377 . S
Gd377 O404 2.448 . S
Gd377 O405 2.506 . S
Gd377 O406 2.435 . S
Gd377 O407 2.717 . S
C378 O396 1.240 . S
C378 O397 1.240 . S
C379 Gd376 2.818 . S
C379 C380 1.510 . S
C379 O398 1.249 . S
C379 O399 1.252 . S
C380 C379 1.510 . S
C380 C381 1.404 . S
C380 C382 1.352 . S
C381 C380 1.404 . S
C381 C385 1.389 . S
C381 H408 0.930 . S
C382 C380 1.352 . S
C382 C384 1.374 . S
C382 H409 0.931 . S
C383 C384 1.359 . S
C383 C385 1.364 . S
C384 C382 1.374 . S
C384 C383 1.359 . S
C384 H410 0.931 . S
C385 C381 1.389 . S
C385 C383 1.364 . S
C385 H411 0.931 . S
C386 O400 1.256 . S
C386 O401 1.257 . S
C387 O402 1.240 . S
C387 O403 1.240 . S
C388 Gd377 2.818 . S
C388 C389 1.510 . S
C388 O404 1.249 . S
C388 O405 1.252 . S
C389 C388 1.510 . S
C389 C390 1.404 . S
C389 C391 1.352 . S
C390 C389 1.404 . S
C390 C394 1.389 . S
C390 H412 0.930 . S
C391 C389 1.352 . S
C391 C393 1.374 . S
C391 H413 0.931 . S
C392 C393 1.359 . S
C392 C394 1.364 . S
C393 C391 1.374 . S
C393 C392 1.359 . S
C393 H414 0.931 . S
C394 C390 1.389 . S
C394 C392 1.364 . S
C394 H415 0.931 . S
C395 O406 1.256 . S
C395 O407 1.257 . S
O396 Gd376 2.377 . S
O396 C378 1.240 . S
O397 Gd377 2.395 . S
O397 C378 1.240 . S
O398 Gd376 2.448 . S
O398 C379 1.249 . S
O399 Gd376 2.506 . S
O399 C379 1.252 . S
O400 Gd376 2.435 . S
O400 C386 1.256 . S
O401 Gd376 2.717 . S
O401 Gd377 2.327 . S
O401 C386 1.257 . S
O402 Gd377 2.377 . S
O402 C387 1.240 . S
O403 Gd376 2.395 . S
O403 C387 1.240 . S
O404 Gd377 2.448 . S
O404 C388 1.249 . S
O405 Gd377 2.506 . S
O405 C388 1.252 . S
O406 Gd377 2.435 . S
O406 C395 1.256 . S
O407 Gd376 2.327 . S
O407 Gd377 2.717 . S
O407 C395 1.257 . S
H408 C381 0.930 . S
H409 C382 0.931 . S
H410 C384 0.931 . S
H411 C385 0.931 . S
H412 C390 0.930 . S
H413 C391 0.931 . S
H414 C393 0.931 . S
H415 C394 0.931 . S
Gd416 C419 2.818 . S
Gd416 O436 2.377 1_545 S
Gd416 O438 2.448 . S
Gd416 O439 2.506 . S
Gd416 O440 2.435 . S
Gd416 O441 2.717 . S
Gd416 O443 2.395 . S
Gd416 O447 2.327 . S
Gd417 C428 2.818 . S
Gd417 O437 2.395 1_545 S
Gd417 O441 2.327 . S
Gd417 O442 2.377 . S
Gd417 O444 2.448 . S
Gd417 O445 2.506 . S
Gd417 O446 2.435 . S
Gd417 O447 2.717 . S
C418 O436 1.240 . S
C418 O437 1.240 . S
C419 Gd416 2.818 . S
C419 C420 1.510 1_545 S
C419 O438 1.249 . S
C419 O439 1.252 . S
C420 C419 1.510 1_565 S
C420 C421 1.404 . S
C420 C422 1.352 . S
C421 C420 1.404 . S
C421 C425 1.389 . S
C421 H448 0.903 1_565 S
C422 C420 1.352 . S
C422 C424 1.374 . S
C422 H449 0.931 . S
C423 C424 1.359 . S
C423 C425 1.364 . S
C424 C422 1.374 . S
C424 C423 1.359 . S
C424 H450 0.931 . S
C425 C421 1.389 . S
C425 C423 1.364 . S
C425 H451 0.931 . S
C426 O440 1.256 . S
C426 O441 1.257 . S
C427 O442 1.240 . S
C427 O443 1.240 . S
C428 Gd417 2.818 . S
C428 C429 1.510 . S
C428 O444 1.249 . S
C428 O445 1.252 . S
C429 C428 1.510 . S
C429 C430 1.404 . S
C429 C431 1.352 . S
C430 C429 1.404 . S
C430 C434 1.389 . S
C430 H452 0.930 . S
C431 C429 1.352 . S
C431 C433 1.374 . S
C431 H453 0.931 . S
C432 C433 1.359 . S
C432 C434 1.364 . S
C433 C431 1.374 . S
C433 C432 1.359 . S
C433 H454 0.931 . S
C434 C430 1.389 . S
C434 C432 1.364 . S
C434 H455 0.931 . S
C435 O446 1.256 . S
C435 O447 1.257 . S
O436 Gd416 2.377 1_565 S
O436 C418 1.240 . S
O437 Gd417 2.395 1_565 S
O437 C418 1.240 . S
O438 Gd416 2.448 . S
O438 C419 1.249 . S
O439 Gd416 2.506 . S
O439 C419 1.252 . S
O440 Gd416 2.435 . S
O440 C426 1.256 . S
O441 Gd416 2.717 . S
O441 Gd417 2.327 . S
O441 C426 1.257 . S
O442 Gd417 2.377 . S
O442 C427 1.240 . S
O443 Gd416 2.395 . S
O443 C427 1.240 . S
O444 Gd417 2.448 . S
O444 C428 1.249 . S
O445 Gd417 2.506 . S
O445 C428 1.252 . S
O446 Gd417 2.435 . S
O446 C435 1.256 . S
O447 Gd416 2.327 . S
O447 Gd417 2.717 . S
O447 C435 1.257 . S
H448 C421 0.903 1_545 S
H449 C422 0.931 . S
H450 C424 0.931 . S
H451 C425 0.931 . S
H452 C430 0.930 . S
H453 C431 0.931 . S
H454 C433 0.931 . S
H455 C434 0.931 . S
Gd456 C459 2.818 . S
Gd456 O476 2.377 . S
Gd456 O478 2.448 . S
Gd456 O479 2.506 . S
Gd456 O480 2.435 . S
Gd456 O481 2.717 . S
Gd456 O483 2.395 . S
Gd456 O487 2.327 . S
Gd457 C468 2.818 . S
Gd457 O477 2.395 . S
Gd457 O481 2.327 . S
Gd457 O482 2.377 . S
Gd457 O484 2.448 . S
Gd457 O485 2.506 . S
Gd457 O486 2.435 . S
Gd457 O487 2.717 . S
C458 O476 1.240 . S
C458 O477 1.240 . S
C459 Gd456 2.818 . S
C459 C460 1.510 . S
C459 O478 1.249 . S
C459 O479 1.252 . S
C460 C459 1.510 . S
C460 C461 1.404 . S
C460 C462 1.352 . S
C461 C460 1.404 . S
C461 C465 1.389 . S
C461 H488 0.930 . S
C462 C460 1.352 . S
C462 C464 1.374 . S
C462 H489 0.931 . S
C463 C464 1.359 . S
C463 C465 1.364 . S
C464 C462 1.374 . S
C464 C463 1.359 . S
C464 H490 0.931 . S
C465 C461 1.389 . S
C465 C463 1.364 . S
C465 H491 0.931 . S
C466 O480 1.256 . S
C466 O481 1.257 . S
C467 O482 1.240 . S
C467 O483 1.240 . S
C468 Gd457 2.818 . S
C468 C469 1.510 . S
C468 O484 1.249 . S
C468 O485 1.252 . S
C469 C468 1.510 . S
C469 C470 1.404 . S
C469 C471 1.352 . S
C470 C469 1.404 . S
C470 C474 1.389 . S
C470 H492 0.930 . S
C471 C469 1.352 . S
C471 C473 1.374 . S
C471 H493 0.931 . S
C472 C473 1.359 . S
C472 C474 1.364 . S
C473 C471 1.374 . S
C473 C472 1.359 . S
C473 H494 0.931 . S
C474 C470 1.389 . S
C474 C472 1.364 . S
C474 H495 0.931 . S
C475 O486 1.256 . S
C475 O487 1.257 . S
O476 Gd456 2.377 . S
O476 C458 1.240 . S
O477 Gd457 2.395 . S
O477 C458 1.240 . S
O478 Gd456 2.448 . S
O478 C459 1.249 . S
O479 Gd456 2.506 . S
O479 C459 1.252 . S
O480 Gd456 2.435 . S
O480 C466 1.256 . S
O481 Gd456 2.717 . S
O481 Gd457 2.327 . S
O481 C466 1.257 . S
O482 Gd457 2.377 . S
O482 C467 1.240 . S
O483 Gd456 2.395 . S
O483 C467 1.240 . S
O484 Gd457 2.448 . S
O484 C468 1.249 . S
O485 Gd457 2.506 . S
O485 C468 1.252 . S
O486 Gd457 2.435 . S
O486 C475 1.256 . S
O487 Gd456 2.327 . S
O487 Gd457 2.717 . S
O487 C475 1.257 . S
H488 C461 0.930 . S
H489 C462 0.931 . S
H490 C464 0.931 . S
H491 C465 0.931 . S
H492 C470 0.930 . S
H493 C471 0.931 . S
H494 C473 0.931 . S
H495 C474 0.931 . S
Gd496 C499 2.818 . S
Gd496 O516 2.377 . S
Gd496 O518 2.448 . S
Gd496 O519 2.506 . S
Gd496 O520 2.435 . S
Gd496 O521 2.717 . S
Gd496 O523 2.395 . S
Gd496 O527 2.327 . S
Gd497 C508 2.818 . S
Gd497 O517 2.395 1_565 S
Gd497 O521 2.327 1_565 S
Gd497 O522 2.377 1_565 S
Gd497 O524 2.448 . S
Gd497 O525 2.506 . S
Gd497 O526 2.435 1_565 S
Gd497 O527 2.717 1_565 S
C498 O516 1.240 . S
C498 O517 1.240 . S
C499 Gd496 2.818 . S
C499 C500 1.510 . S
C499 O518 1.249 . S
C499 O519 1.252 . S
C500 C499 1.510 . S
C500 C501 1.404 . S
C500 C502 1.352 . S
C501 C500 1.404 . S
C501 C505 1.389 . S
C501 H528 0.930 . S
C502 C500 1.352 . S
C502 C504 1.374 . S
C502 H529 0.931 . S
C503 C504 1.359 . S
C503 C505 1.364 . S
C504 C502 1.374 . S
C504 C503 1.359 . S
C504 H530 0.931 . S
C505 C501 1.389 . S
C505 C503 1.364 . S
C505 H531 0.931 . S
C506 O520 1.256 . S
C506 O521 1.257 . S
C507 O522 1.240 . S
C507 O523 1.240 . S
C508 Gd497 2.818 . S
C508 C509 1.510 . S
C508 O524 1.249 . S
C508 O525 1.252 . S
C509 C508 1.510 . S
C509 C510 1.404 . S
C509 C511 1.352 . S
C510 C509 1.404 . S
C510 C514 1.389 . S
C510 H532 0.930 . S
C511 C509 1.352 . S
C511 C513 1.374 . S
C511 H533 0.931 . S
C512 C513 1.359 . S
C512 C514 1.364 . S
C513 C511 1.374 . S
C513 C512 1.359 . S
C513 H534 0.931 . S
C514 C510 1.389 . S
C514 C512 1.364 . S
C514 H535 0.931 . S
C515 O526 1.256 . S
C515 O527 1.257 . S
O516 Gd496 2.377 . S
O516 C498 1.240 . S
O517 Gd497 2.395 1_545 S
O517 C498 1.240 . S
O518 Gd496 2.448 . S
O518 C499 1.249 . S
O519 Gd496 2.506 . S
O519 C499 1.252 . S
O520 Gd496 2.435 . S
O520 C506 1.256 . S
O521 Gd496 2.717 . S
O521 Gd497 2.327 1_545 S
O521 C506 1.257 . S
O522 Gd497 2.377 1_545 S
O522 C507 1.240 . S
O523 Gd496 2.395 . S
O523 C507 1.240 . S
O524 Gd497 2.448 . S
O524 C508 1.249 . S
O525 Gd497 2.506 . S
O525 C508 1.252 . S
O526 Gd497 2.435 1_545 S
O526 C515 1.256 . S
O527 Gd496 2.327 . S
O527 Gd497 2.717 1_545 S
O527 C515 1.257 . S
H528 C501 0.930 . S
H529 C502 0.931 . S
H530 C504 0.931 . S
H531 C505 0.931 . S
H532 C510 0.930 . S
H533 C511 0.931 . S
H534 C513 0.931 . S
H535 C514 0.931 . S
Gd536 C539 2.818 . S
Gd536 O556 2.377 . S
Gd536 O558 2.448 . S
Gd536 O559 2.506 . S
Gd536 O560 2.435 . S
Gd536 O561 2.717 . S
Gd536 O563 2.395 . S
Gd536 O567 2.327 . S
Gd537 C548 2.818 . S
Gd537 O557 2.395 . S
Gd537 O561 2.327 . S
Gd537 O562 2.377 . S
Gd537 O564 2.448 . S
Gd537 O565 2.506 . S
Gd537 O566 2.435 . S
Gd537 O567 2.717 . S
C538 O556 1.240 . S
C538 O557 1.240 . S
C539 Gd536 2.818 . S
C539 C540 1.510 . S
C539 O558 1.249 . S
C539 O559 1.252 . S
C540 C539 1.510 . S
C540 C541 1.404 . S
C540 C542 1.352 . S
C541 C540 1.404 . S
C541 C545 1.389 . S
C541 H568 0.930 . S
C542 C540 1.352 . S
C542 C544 1.374 . S
C542 H569 0.931 . S
C543 C544 1.359 . S
C543 C545 1.364 . S
C544 C542 1.374 . S
C544 C543 1.359 . S
C544 H570 0.931 . S
C545 C541 1.389 . S
C545 C543 1.364 . S
C545 H571 0.931 . S
C546 O560 1.256 . S
C546 O561 1.257 . S
C547 O562 1.240 . S
C547 O563 1.240 . S
C548 Gd537 2.818 . S
C548 C549 1.510 . S
C548 O564 1.249 . S
C548 O565 1.252 . S
C549 C548 1.510 . S
C549 C550 1.404 . S
C549 C551 1.352 . S
C550 C549 1.404 . S
C550 C554 1.389 . S
C550 H572 0.930 . S
C551 C549 1.352 . S
C551 C553 1.374 . S
C551 H573 0.931 . S
C552 C553 1.359 . S
C552 C554 1.364 . S
C553 C551 1.374 . S
C553 C552 1.359 . S
C553 H574 0.931 . S
C554 C550 1.389 . S
C554 C552 1.364 . S
C554 H575 0.931 . S
C555 O566 1.256 . S
C555 O567 1.257 . S
O556 Gd536 2.377 . S
O556 C538 1.240 . S
O557 Gd537 2.395 . S
O557 C538 1.240 . S
O558 Gd536 2.448 . S
O558 C539 1.249 . S
O559 Gd536 2.506 . S
O559 C539 1.252 . S
O560 Gd536 2.435 . S
O560 C546 1.256 . S
O561 Gd536 2.717 . S
O561 Gd537 2.327 . S
O561 C546 1.257 . S
O562 Gd537 2.377 . S
O562 C547 1.240 . S
O563 Gd536 2.395 . S
O563 C547 1.240 . S
O564 Gd537 2.448 . S
O564 C548 1.249 . S
O565 Gd537 2.506 . S
O565 C548 1.252 . S
O566 Gd537 2.435 . S
O566 C555 1.256 . S
O567 Gd536 2.327 . S
O567 Gd537 2.717 . S
O567 C555 1.257 . S
H568 C541 0.930 . S
H569 C542 0.931 . S
H570 C544 0.931 . S
H571 C545 0.931 . S
H572 C550 0.930 . S
H573 C551 0.931 . S
H574 C553 0.931 . S
H575 C554 0.931 . S
Gd576 C579 2.818 . S
Gd576 O596 2.377 . S
Gd576 O598 2.448 1_545 S
Gd576 O599 2.506 . S
Gd576 O600 2.435 1_545 S
Gd576 O601 2.717 1_554 S
Gd576 O603 2.395 . S
Gd576 O607 2.327 . S
Gd577 C588 2.818 . S
Gd577 O597 2.395 . S
Gd577 O601 2.327 . S
Gd577 O602 2.391 . S
Gd577 O604 2.448 . S
Gd577 O605 2.506 . S
Gd577 O606 2.435 1_556 S
Gd577 O607 2.717 1_556 S
C578 O596 1.240 . S
C578 O597 1.240 1_554 S
C579 Gd576 2.818 . S
C579 C580 1.510 1_545 S
C579 O598 1.249 1_545 S
C579 O599 1.252 . S
C580 C579 1.510 1_565 S
C580 C581 1.404 . S
C580 C582 1.352 1_565 S
C581 C580 1.404 . S
C581 C585 1.389 . S
C581 H608 0.930 . S
C582 C580 1.352 1_545 S
C582 C584 1.374 . S
C582 H609 0.931 . S
C583 C584 1.359 1_565 S
C583 C585 1.364 . S
C584 C582 1.374 . S
C584 C583 1.359 1_545 S
C584 H610 0.931 . S
C585 C581 1.389 . S
C585 C583 1.364 . S
C585 H611 0.931 . S
C586 O600 1.256 1_556 S
C586 O601 1.257 1_565 S
C587 O602 1.212 1_554 S
C587 O603 1.240 . S
C588 Gd577 2.818 . S
C588 C589 1.510 . S
C588 O604 1.249 . S
C588 O605 1.252 . S
C589 C588 1.510 . S
C589 C590 1.404 . S
C589 C591 1.352 . S
C590 C589 1.404 . S
C590 C594 1.389 . S
C590 H612 0.930 . S
C591 C589 1.352 . S
C591 C593 1.374 . S
C591 H613 0.931 . S
C592 C593 1.359 . S
C592 C594 1.364 . S
C593 C591 1.374 . S
C593 C592 1.359 . S
C593 H614 0.931 . S
C594 C590 1.389 . S
C594 C592 1.364 . S
C594 H615 0.931 . S
C595 O606 1.256 . S
C595 O607 1.257 . S
O596 Gd576 2.377 . S
O596 C578 1.240 . S
O597 Gd577 2.395 . S
O597 C578 1.240 1_556 S
O598 Gd576 2.448 1_565 S
O598 C579 1.249 1_565 S
O599 Gd576 2.506 . S
O599 C579 1.252 . S
O600 Gd576 2.435 1_565 S
O600 C586 1.256 1_554 S
O601 Gd576 2.717 1_556 S
O601 Gd577 2.327 . S
O601 C586 1.257 1_545 S
O602 Gd577 2.391 . S
O602 C587 1.212 1_556 S
O603 Gd576 2.395 . S
O603 C587 1.240 . S
O604 Gd577 2.448 . S
O604 C588 1.249 . S
O605 Gd577 2.506 . S
O605 C588 1.252 . S
O606 Gd577 2.435 1_554 S
O606 C595 1.256 . S
O607 Gd576 2.327 . S
O607 Gd577 2.717 1_554 S
O607 C595 1.257 . S
H608 C581 0.930 . S
H609 C582 0.931 . S
H610 C584 0.931 . S
H611 C585 0.931 . S
H612 C590 0.930 . S
H613 C591 0.931 . S
H614 C593 0.931 . S
H615 C594 0.931 . S
Gd616 C619 2.818 . S
Gd616 O636 2.377 . S
Gd616 O638 2.448 . S
Gd616 O639 2.506 . S
Gd616 O640 2.435 . S
Gd616 O641 2.717 . S
Gd616 O643 2.395 . S
Gd616 O647 2.327 . S
Gd617 C628 2.818 . S
Gd617 O637 2.395 . S
Gd617 O641 2.327 . S
Gd617 O642 2.377 . S
Gd617 O644 2.448 . S
Gd617 O645 2.506 . S
Gd617 O646 2.435 . S
Gd617 O647 2.717 . S
C618 O636 1.240 . S
C618 O637 1.240 . S
C619 Gd616 2.818 . S
C619 C620 1.510 . S
C619 O638 1.249 . S
C619 O639 1.252 . S
C620 C619 1.510 . S
C620 C621 1.404 . S
C620 C622 1.352 . S
C621 C620 1.404 . S
C621 C625 1.389 . S
C621 H648 0.930 . S
C622 C620 1.352 . S
C622 C624 1.374 . S
C622 H649 0.931 . S
C623 C624 1.359 . S
C623 C625 1.364 . S
C624 C622 1.374 . S
C624 C623 1.359 . S
C624 H650 0.931 . S
C625 C621 1.389 . S
C625 C623 1.364 . S
C625 H651 0.931 . S
C626 O640 1.256 . S
C626 O641 1.257 . S
C627 O642 1.240 . S
C627 O643 1.240 . S
C628 Gd617 2.818 . S
C628 C629 1.510 . S
C628 O644 1.249 . S
C628 O645 1.252 . S
C629 C628 1.510 . S
C629 C630 1.404 . S
C629 C631 1.352 . S
C630 C629 1.404 . S
C630 C634 1.389 . S
C630 H652 0.930 . S
C631 C629 1.352 . S
C631 C633 1.374 . S
C631 H653 0.931 . S
C632 C633 1.359 . S
C632 C634 1.364 . S
C633 C631 1.374 . S
C633 C632 1.359 . S
C633 H654 0.931 . S
C634 C630 1.389 . S
C634 C632 1.364 . S
C634 H655 0.931 . S
C635 O646 1.256 . S
C635 O647 1.257 . S
O636 Gd616 2.377 . S
O636 C618 1.240 . S
O637 Gd617 2.395 . S
O637 C618 1.240 . S
O638 Gd616 2.448 . S
O638 C619 1.249 . S
O639 Gd616 2.506 . S
O639 C619 1.252 . S
O640 Gd616 2.435 . S
O640 C626 1.256 . S
O641 Gd616 2.717 . S
O641 Gd617 2.327 . S
O641 C626 1.257 . S
O642 Gd617 2.377 . S
O642 C627 1.240 . S
O643 Gd616 2.395 . S
O643 C627 1.240 . S
O644 Gd617 2.448 . S
O644 C628 1.249 . S
O645 Gd617 2.506 . S
O645 C628 1.252 . S
O646 Gd617 2.435 . S
O646 C635 1.256 . S
O647 Gd616 2.327 . S
O647 Gd617 2.717 . S
O647 C635 1.257 . S
H648 C621 0.930 . S
H649 C622 0.931 . S
H650 C624 0.931 . S
H651 C625 0.931 . S
H652 C630 0.930 . S
H653 C631 0.931 . S
H654 C633 0.931 . S
H655 C634 0.931 . S
Gd656 C659 2.818 . S
Gd656 O676 2.377 1_554 S
Gd656 O678 2.448 . S
Gd656 O679 2.506 . S
Gd656 O680 2.435 . S
Gd656 O681 2.717 . S
Gd656 O683 2.395 . S
Gd656 O687 2.327 . S
Gd657 C668 2.837 . S
Gd657 O677 2.370 1_554 S
Gd657 O681 2.339 . S
Gd657 O682 2.404 . S
Gd657 O684 2.459 . S
Gd657 O685 2.528 . S
Gd657 O686 2.439 . S
Gd657 O687 2.715 . S
C658 O676 1.240 . S
C658 O677 1.240 . S
C659 Gd656 2.818 . S
C659 C660 1.510 1_554 S
C659 O678 1.249 . S
C659 O679 1.252 . S
C660 C659 1.510 1_556 S
C660 C661 1.404 . S
C660 C662 1.352 . S
C661 C660 1.404 . S
C661 C665 1.389 . S
C661 H688 0.930 1_556 S
C662 C660 1.352 . S
C662 C664 1.374 . S
C662 H689 0.931 . S
C663 C664 1.359 . S
C663 C665 1.364 . S
C664 C662 1.374 . S
C664 C663 1.359 . S
C664 H690 0.931 . S
C665 C661 1.389 . S
C665 C663 1.364 . S
C665 H691 0.931 . S
C666 O680 1.256 . S
C666 O681 1.257 . S
C667 O682 1.240 . S
C667 O683 1.240 . S
C668 Gd657 2.837 . S
C668 C669 1.510 . S
C668 O684 1.249 . S
C668 O685 1.252 . S
C669 C668 1.510 . S
C669 C670 1.404 . S
C669 C671 1.352 . S
C670 C669 1.404 . S
C670 C674 1.389 . S
C670 H692 0.930 . S
C671 C669 1.352 . S
C671 C673 1.374 . S
C671 H693 0.931 . S
C672 C673 1.359 . S
C672 C674 1.364 . S
C673 C671 1.374 . S
C673 C672 1.359 . S
C673 H694 0.931 . S
C674 C670 1.389 . S
C674 C672 1.364 . S
C674 H695 0.931 . S
C675 O686 1.256 . S
C675 O687 1.257 . S
O676 Gd656 2.377 1_556 S
O676 C658 1.240 . S
O677 Gd657 2.370 1_556 S
O677 C658 1.240 . S
O678 Gd656 2.448 . S
O678 C659 1.249 . S
O679 Gd656 2.506 . S
O679 C659 1.252 . S
O680 Gd656 2.435 . S
O680 C666 1.256 . S
O681 Gd656 2.717 . S
O681 Gd657 2.339 . S
O681 C666 1.257 . S
O682 Gd657 2.404 . S
O682 C667 1.240 . S
O683 Gd656 2.395 . S
O683 C667 1.240 . S
O684 Gd657 2.459 . S
O684 C668 1.249 . S
O685 Gd657 2.528 . S
O685 C668 1.252 . S
O686 Gd657 2.439 . S
O686 C675 1.256 . S
O687 Gd656 2.327 . S
O687 Gd657 2.715 . S
O687 C675 1.257 . S
H688 C661 0.930 1_554 S
H689 C662 0.931 . S
H690 C664 0.931 . S
H691 C665 0.931 . S
H692 C670 0.930 . S
H693 C671 0.931 . S
H694 C673 0.931 . S
H695 C674 0.931 . S
Gd696 C699 2.818 . S
Gd696 O716 2.377 . S
Gd696 O718 2.448 . S
Gd696 O719 2.506 . S
Gd696 O720 2.435 . S
Gd696 O721 2.717 . S
Gd696 O723 2.395 . S
Gd696 O727 2.327 . S
Gd697 C708 2.818 . S
Gd697 O717 2.395 . S
Gd697 O721 2.327 . S
Gd697 O722 2.377 . S
Gd697 O724 2.448 . S
Gd697 O725 2.506 . S
Gd697 O726 2.435 . S
Gd697 O727 2.717 . S
C698 O716 1.240 . S
C698 O717 1.240 . S
C699 Gd696 2.818 . S
C699 C700 1.510 . S
C699 O718 1.249 . S
C699 O719 1.252 . S
C700 C699 1.510 . S
C700 C701 1.404 . S
C700 C702 1.352 . S
C701 C700 1.404 . S
C701 C705 1.389 . S
C701 H728 0.930 . S
C702 C700 1.352 . S
C702 C704 1.374 . S
C702 H729 0.931 . S
C703 C704 1.359 . S
C703 C705 1.364 . S
C704 C702 1.374 . S
C704 C703 1.359 . S
C704 H730 0.931 . S
C705 C701 1.389 . S
C705 C703 1.364 . S
C705 H731 0.931 . S
C706 O720 1.256 . S
C706 O721 1.257 . S
C707 O722 1.240 . S
C707 O723 1.240 . S
C708 Gd697 2.818 . S
C708 C709 1.510 . S
C708 O724 1.249 . S
C708 O725 1.252 . S
C709 C708 1.510 . S
C709 C710 1.404 . S
C709 C711 1.352 . S
C710 C709 1.404 . S
C710 C714 1.389 . S
C710 H732 0.930 . S
C711 C709 1.352 . S
C711 C713 1.374 . S
C711 H733 0.931 . S
C712 C713 1.359 . S
C712 C714 1.364 . S
C713 C711 1.374 . S
C713 C712 1.359 . S
C713 H734 0.931 . S
C714 C710 1.389 . S
C714 C712 1.364 . S
C714 H735 0.931 . S
C715 O726 1.256 . S
C715 O727 1.257 . S
O716 Gd696 2.377 . S
O716 C698 1.240 . S
O717 Gd697 2.395 . S
O717 C698 1.240 . S
O718 Gd696 2.448 . S
O718 C699 1.249 . S
O719 Gd696 2.506 . S
O719 C699 1.252 . S
O720 Gd696 2.435 . S
O720 C706 1.256 . S
O721 Gd696 2.717 . S
O721 Gd697 2.327 . S
O721 C706 1.257 . S
O722 Gd697 2.377 . S
O722 C707 1.240 . S
O723 Gd696 2.395 . S
O723 C707 1.240 . S
O724 Gd697 2.448 . S
O724 C708 1.249 . S
O725 Gd697 2.506 . S
O725 C708 1.252 . S
O726 Gd697 2.435 . S
O726 C715 1.256 . S
O727 Gd696 2.327 . S
O727 Gd697 2.717 . S
O727 C715 1.257 . S
H728 C701 0.930 . S
H729 C702 0.931 . S
H730 C704 0.931 . S
H731 C705 0.931 . S
H732 C710 0.930 . S
H733 C711 0.931 . S
H734 C713 0.931 . S
H735 C714 0.931 . S
Gd736 C739 2.818 . S
Gd736 O756 2.377 . S
Gd736 O758 2.448 . S
Gd736 O759 2.506 . S
Gd736 O760 2.435 . S
Gd736 O761 2.717 . S
Gd736 O763 2.395 . S
Gd736 O767 2.327 . S
Gd737 C748 2.818 . S
Gd737 O757 2.395 . S
Gd737 O761 2.327 . S
Gd737 O762 2.377 . S
Gd737 O764 2.448 . S
Gd737 O765 2.506 . S
Gd737 O766 2.435 . S
Gd737 O767 2.717 . S
C738 O756 1.240 . S
C738 O757 1.240 . S
C739 Gd736 2.818 . S
C739 C740 1.510 . S
C739 O758 1.249 . S
C739 O759 1.252 . S
C740 C739 1.510 . S
C740 C741 1.404 . S
C740 C742 1.361 . S
C741 C740 1.404 . S
C741 C745 1.389 . S
C741 H768 0.930 . S
C742 C740 1.361 . S
C742 C744 1.368 1_455 S
C742 H769 0.918 1_455 S
C743 C744 1.359 . S
C743 C745 1.364 1_655 S
C744 C742 1.368 1_655 S
C744 C743 1.359 . S
C744 H770 0.931 . S
C745 C741 1.389 . S
C745 C743 1.364 1_455 S
C745 H771 0.931 . S
C746 O760 1.256 . S
C746 O761 1.257 . S
C747 O762 1.240 . S
C747 O763 1.240 . S
C748 Gd737 2.818 . S
C748 C749 1.510 . S
C748 O764 1.249 . S
C748 O765 1.252 . S
C749 C748 1.510 . S
C749 C750 1.404 . S
C749 C751 1.352 . S
C750 C749 1.404 . S
C750 C754 1.389 . S
C750 H772 0.930 . S
C751 C749 1.352 . S
C751 C753 1.374 . S
C751 H773 0.931 . S
C752 C753 1.359 . S
C752 C754 1.364 . S
C753 C751 1.374 . S
C753 C752 1.359 . S
C753 H774 0.931 . S
C754 C750 1.389 . S
C754 C752 1.364 . S
C754 H775 0.931 . S
C755 O766 1.256 . S
C755 O767 1.257 . S
O756 Gd736 2.377 . S
O756 C738 1.240 . S
O757 Gd737 2.395 . S
O757 C738 1.240 . S
O758 Gd736 2.448 . S
O758 C739 1.249 . S
O759 Gd736 2.506 . S
O759 C739 1.252 . S
O760 Gd736 2.435 . S
O760 C746 1.256 . S
O761 Gd736 2.717 . S
O761 Gd737 2.327 . S
O761 C746 1.257 . S
O762 Gd737 2.377 . S
O762 C747 1.240 . S
O763 Gd736 2.395 . S
O763 C747 1.240 . S
O764 Gd737 2.448 . S
O764 C748 1.249 . S
O765 Gd737 2.506 . S
O765 C748 1.252 . S
O766 Gd737 2.435 . S
O766 C755 1.256 . S
O767 Gd736 2.327 . S
O767 Gd737 2.717 . S
O767 C755 1.257 . S
H768 C741 0.930 . S
H769 C742 0.918 1_655 S
H770 C744 0.931 . S
H771 C745 0.931 . S
H772 C750 0.930 . S
H773 C751 0.931 . S
H774 C753 0.931 . S
H775 C754 0.931 . S
Gd776 C779 2.818 . S
Gd776 O796 2.377 . S
Gd776 O798 2.448 . S
Gd776 O799 2.506 . S
Gd776 O800 2.435 . S
Gd776 O801 2.717 . S
Gd776 O803 2.395 . S
Gd776 O807 2.327 . S
Gd777 C788 2.818 . S
Gd777 O797 2.395 . S
Gd777 O801 2.327 . S
Gd777 O802 2.377 . S
Gd777 O804 2.448 . S
Gd777 O805 2.506 . S
Gd777 O806 2.435 . S
Gd777 O807 2.717 . S
C778 O796 1.240 . S
C778 O797 1.240 . S
C779 Gd776 2.818 . S
C779 C780 1.510 . S
C779 O798 1.249 . S
C779 O799 1.252 . S
C780 C779 1.510 . S
C780 C781 1.404 . S
C780 C782 1.352 . S
C781 C780 1.404 . S
C781 C785 1.389 . S
C781 H808 0.930 . S
C782 C780 1.352 . S
C782 C784 1.374 . S
C782 H809 0.931 . S
C783 C784 1.359 . S
C783 C785 1.364 . S
C784 C782 1.374 . S
C784 C783 1.359 . S
C784 H810 0.931 . S
C785 C781 1.389 . S
C785 C783 1.364 . S
C785 H811 0.931 . S
C786 O800 1.256 . S
C786 O801 1.257 . S
C787 O802 1.240 . S
C787 O803 1.240 . S
C788 Gd777 2.818 . S
C788 C789 1.510 . S
C788 O804 1.249 . S
C788 O805 1.252 . S
C789 C788 1.510 . S
C789 C790 1.404 . S
C789 C791 1.352 . S
C790 C789 1.404 . S
C790 C794 1.389 . S
C790 H812 0.930 . S
C791 C789 1.352 . S
C791 C793 1.374 . S
C791 H813 0.931 . S
C792 C793 1.359 . S
C792 C794 1.364 . S
C793 C791 1.374 . S
C793 C792 1.359 . S
C793 H814 0.931 . S
C794 C790 1.389 . S
C794 C792 1.364 . S
C794 H815 0.931 . S
C795 O806 1.256 . S
C795 O807 1.257 . S
O796 Gd776 2.377 . S
O796 C778 1.240 . S
O797 Gd777 2.395 . S
O797 C778 1.240 . S
O798 Gd776 2.448 . S
O798 C779 1.249 . S
O799 Gd776 2.506 . S
O799 C779 1.252 . S
O800 Gd776 2.435 . S
O800 C786 1.256 . S
O801 Gd776 2.717 . S
O801 Gd777 2.327 . S
O801 C786 1.257 . S
O802 Gd777 2.377 . S
O802 C787 1.240 . S
O803 Gd776 2.395 . S
O803 C787 1.240 . S
O804 Gd777 2.448 . S
O804 C788 1.249 . S
O805 Gd777 2.506 . S
O805 C788 1.252 . S
O806 Gd777 2.435 . S
O806 C795 1.256 . S
O807 Gd776 2.327 . S
O807 Gd777 2.717 . S
O807 C795 1.257 . S
H808 C781 0.930 . S
H809 C782 0.931 . S
H810 C784 0.931 . S
H811 C785 0.931 . S
H812 C790 0.930 . S
H813 C791 0.931 . S
H814 C793 0.931 . S
H815 C794 0.931 . S
Gd816 C819 2.818 . S
Gd816 O836 2.377 . S
Gd816 O838 2.448 . S
Gd816 O839 2.506 . S
Gd816 O840 2.435 . S
Gd816 O841 2.717 . S
Gd816 O843 2.395 . S
Gd816 O847 2.327 . S
Gd817 C828 2.818 . S
Gd817 O837 2.395 . S
Gd817 O841 2.327 . S
Gd817 O842 2.377 . S
Gd817 O844 2.448 . S
Gd817 O845 2.506 . S
Gd817 O846 2.435 . S
Gd817 O847 2.717 . S
C818 O836 1.240 . S
C818 O837 1.240 . S
C819 Gd816 2.818 . S
C819 C820 1.510 . S
C819 O838 1.249 . S
C819 O839 1.252 . S
C820 C819 1.510 . S
C820 C821 1.404 . S
C820 C822 1.352 . S
C821 C820 1.404 . S
C821 C825 1.389 . S
C821 H848 0.930 . S
C822 C820 1.352 . S
C822 C824 1.374 . S
C822 H849 0.931 . S
C823 C824 1.359 . S
C823 C825 1.364 . S
C824 C822 1.374 . S
C824 C823 1.359 . S
C824 H850 0.931 . S
C825 C821 1.389 . S
C825 C823 1.364 . S
C825 H851 0.931 . S
C826 O840 1.256 . S
C826 O841 1.257 . S
C827 O842 1.240 . S
C827 O843 1.240 . S
C828 Gd817 2.818 . S
C828 C829 1.510 . S
C828 O844 1.249 . S
C828 O845 1.252 . S
C829 C828 1.510 . S
C829 C830 1.404 . S
C829 C831 1.352 . S
C830 C829 1.404 . S
C830 C834 1.389 . S
C830 H852 0.930 . S
C831 C829 1.352 . S
C831 C833 1.374 . S
C831 H853 0.931 . S
C832 C833 1.359 . S
C832 C834 1.364 . S
C833 C831 1.374 . S
C833 C832 1.359 . S
C833 H854 0.931 . S
C834 C830 1.389 . S
C834 C832 1.364 . S
C834 H855 0.931 . S
C835 O846 1.256 . S
C835 O847 1.257 . S
O836 Gd816 2.377 . S
O836 C818 1.240 . S
O837 Gd817 2.395 . S
O837 C818 1.240 . S
O838 Gd816 2.448 . S
O838 C819 1.249 . S
O839 Gd816 2.506 . S
O839 C819 1.252 . S
O840 Gd816 2.435 . S
O840 C826 1.256 . S
O841 Gd816 2.717 . S
O841 Gd817 2.327 . S
O841 C826 1.257 . S
O842 Gd817 2.377 . S
O842 C827 1.240 . S
O843 Gd816 2.395 . S
O843 C827 1.240 . S
O844 Gd817 2.448 . S
O844 C828 1.249 . S
O845 Gd817 2.506 . S
O845 C828 1.252 . S
O846 Gd817 2.435 . S
O846 C835 1.256 . S
O847 Gd816 2.327 . S
O847 Gd817 2.717 . S
O847 C835 1.257 . S
H848 C821 0.930 . S
H849 C822 0.931 . S
H850 C824 0.931 . S
H851 C825 0.931 . S
H852 C830 0.930 . S
H853 C831 0.931 . S
H854 C833 0.931 . S
H855 C834 0.931 . S
Gd856 C859 2.818 . S
Gd856 O876 2.377 . S
Gd856 O878 2.448 . S
Gd856 O879 2.506 . S
Gd856 O880 2.435 . S
Gd856 O881 2.717 . S
Gd856 O883 2.395 . S
Gd856 O887 2.327 . S
Gd857 C868 2.818 . S
Gd857 O877 2.395 . S
Gd857 O881 2.327 . S
Gd857 O882 2.377 . S
Gd857 O884 2.448 . S
Gd857 O885 2.506 . S
Gd857 O886 2.435 . S
Gd857 O887 2.717 . S
C858 O876 1.240 . S
C858 O877 1.240 . S
C859 Gd856 2.818 . S
C859 C860 1.510 . S
C859 O878 1.249 . S
C859 O879 1.252 . S
C860 C859 1.510 . S
C860 C861 1.404 . S
C860 C862 1.352 . S
C861 C860 1.404 . S
C861 C865 1.389 . S
C861 H888 0.930 . S
C862 C860 1.352 . S
C862 C864 1.374 . S
C862 H889 0.931 . S
C863 C864 1.359 . S
C863 C865 1.364 . S
C864 C862 1.374 . S
C864 C863 1.359 . S
C864 H890 0.931 . S
C865 C861 1.389 . S
C865 C863 1.364 . S
C865 H891 0.931 . S
C866 O880 1.256 . S
C866 O881 1.257 . S
C867 O882 1.240 . S
C867 O883 1.240 . S
C868 Gd857 2.818 . S
C868 C869 1.510 . S
C868 O884 1.249 . S
C868 O885 1.252 . S
C869 C868 1.510 . S
C869 C870 1.404 . S
C869 C871 1.352 . S
C870 C869 1.404 . S
C870 C874 1.389 . S
C870 H892 0.930 . S
C871 C869 1.352 . S
C871 C873 1.374 . S
C871 H893 0.931 . S
C872 C873 1.359 . S
C872 C874 1.364 . S
C873 C871 1.374 . S
C873 C872 1.359 . S
C873 H894 0.931 . S
C874 C870 1.389 . S
C874 C872 1.364 . S
C874 H895 0.931 . S
C875 O886 1.256 . S
C875 O887 1.257 . S
O876 Gd856 2.377 . S
O876 C858 1.240 . S
O877 Gd857 2.395 . S
O877 C858 1.240 . S
O878 Gd856 2.448 . S
O878 C859 1.249 . S
O879 Gd856 2.506 . S
O879 C859 1.252 . S
O880 Gd856 2.435 . S
O880 C866 1.256 . S
O881 Gd856 2.717 . S
O881 Gd857 2.327 . S
O881 C866 1.257 . S
O882 Gd857 2.377 . S
O882 C867 1.240 . S
O883 Gd856 2.395 . S
O883 C867 1.240 . S
O884 Gd857 2.448 . S
O884 C868 1.249 . S
O885 Gd857 2.506 . S
O885 C868 1.252 . S
O886 Gd857 2.435 . S
O886 C875 1.256 . S
O887 Gd856 2.327 . S
O887 Gd857 2.717 . S
O887 C875 1.257 . S
H888 C861 0.930 . S
H889 C862 0.931 . S
H890 C864 0.931 . S
H891 C865 0.931 . S
H892 C870 0.930 . S
H893 C871 0.931 . S
H894 C873 0.931 . S
H895 C874 0.931 . S
Gd896 C899 2.818 . S
Gd896 O916 2.377 . S
Gd896 O918 2.448 . S
Gd896 O919 2.506 . S
Gd896 O920 2.435 . S
Gd896 O921 2.717 . S
Gd896 O923 2.395 . S
Gd896 O927 2.327 . S
Gd897 C908 2.818 . S
Gd897 O917 2.395 . S
Gd897 O921 2.327 . S
Gd897 O922 2.377 . S
Gd897 O924 2.448 . S
Gd897 O925 2.506 . S
Gd897 O926 2.435 . S
Gd897 O927 2.717 . S
C898 O916 1.240 . S
C898 O917 1.240 . S
C899 Gd896 2.818 . S
C899 C900 1.510 . S
C899 O918 1.249 . S
C899 O919 1.252 . S
C900 C899 1.510 . S
C900 C901 1.404 . S
C900 C902 1.352 . S
C901 C900 1.404 . S
C901 C905 1.389 . S
C901 H928 0.930 . S
C902 C900 1.352 . S
C902 C904 1.374 . S
C902 H929 0.931 . S
C903 C904 1.359 . S
C903 C905 1.364 . S
C904 C902 1.374 . S
C904 C903 1.359 . S
C904 H930 0.931 . S
C905 C901 1.389 . S
C905 C903 1.364 . S
C905 H931 0.931 . S
C906 O920 1.256 . S
C906 O921 1.257 . S
C907 O922 1.240 . S
C907 O923 1.240 . S
C908 Gd897 2.818 . S
C908 C909 1.510 . S
C908 O924 1.249 . S
C908 O925 1.252 . S
C909 C908 1.510 . S
C909 C910 1.404 . S
C909 C911 1.352 . S
C910 C909 1.404 . S
C910 C914 1.389 . S
C910 H932 0.930 . S
C911 C909 1.352 . S
C911 C913 1.374 . S
C911 H933 0.931 . S
C912 C913 1.359 . S
C912 C914 1.364 . S
C913 C911 1.374 . S
C913 C912 1.359 . S
C913 H934 0.931 . S
C914 C910 1.389 . S
C914 C912 1.364 . S
C914 H935 0.931 . S
C915 O926 1.256 . S
C915 O927 1.257 . S
O916 Gd896 2.377 . S
O916 C898 1.240 . S
O917 Gd897 2.395 . S
O917 C898 1.240 . S
O918 Gd896 2.448 . S
O918 C899 1.249 . S
O919 Gd896 2.506 . S
O919 C899 1.252 . S
O920 Gd896 2.435 . S
O920 C906 1.256 . S
O921 Gd896 2.717 . S
O921 Gd897 2.327 . S
O921 C906 1.257 . S
O922 Gd897 2.377 . S
O922 C907 1.240 . S
O923 Gd896 2.395 . S
O923 C907 1.240 . S
O924 Gd897 2.448 . S
O924 C908 1.249 . S
O925 Gd897 2.506 . S
O925 C908 1.252 . S
O926 Gd897 2.435 . S
O926 C915 1.256 . S
O927 Gd896 2.327 . S
O927 Gd897 2.717 . S
O927 C915 1.257 . S
H928 C901 0.930 . S
H929 C902 0.931 . S
H930 C904 0.931 . S
H931 C905 0.931 . S
H932 C910 0.930 . S
H933 C911 0.931 . S
H934 C913 0.931 . S
H935 C914 0.931 . S
Gd936 C939 2.818 1_554 S
Gd936 O956 2.377 1_554 S
Gd936 O958 2.448 1_554 S
Gd936 O959 2.506 . S
Gd936 O960 2.435 1_554 S
Gd936 O961 2.717 1_554 S
Gd936 O963 2.395 . S
Gd936 O967 2.327 . S
Gd937 C948 2.818 1_455 S
Gd937 O957 2.395 . S
Gd937 O961 2.327 1_554 S
Gd937 O962 2.377 . S
Gd937 O964 2.448 1_455 S
Gd937 O965 2.506 1_455 S
Gd937 O966 2.435 . S
Gd937 O967 2.717 . S
C938 O956 1.236 1_554 S
C938 O957 1.244 . S
C939 Gd936 2.818 1_556 S
C939 C940 1.510 . S
C939 O958 1.249 . S
C939 O959 1.252 1_556 S
C940 C939 1.510 . S
C940 C941 1.404 . S
C940 C942 1.352 1_556 S
C941 C940 1.404 . S
C941 C945 1.389 . S
C941 H968 0.930 . S
C942 C940 1.352 1_554 S
C942 C944 1.378 . S
C942 H969 0.931 . S
C943 C944 1.327 1_556 S
C943 C945 1.364 . S
C944 C942 1.378 . S
C944 C943 1.327 1_554 S
C944 H970 0.959 . S
C945 C941 1.389 . S
C945 C943 1.364 . S
C945 H971 0.931 . S
C946 O960 1.256 . S
C946 O961 1.257 . S
C947 O962 1.240 . S
C947 O963 1.240 . S
C948 Gd937 2.818 1_655 S
C948 C949 1.510 . S
C948 O964 1.249 . S
C948 O965 1.252 . S
C949 C948 1.510 . S
C949 C950 1.404 . S
C949 C951 1.352 . S
C950 C949 1.404 . S
C950 C954 1.389 . S
C950 H972 0.930 . S
C951 C949 1.352 . S
C951 C953 1.374 . S
C951 H973 0.931 . S
C952 C953 1.359 . S
C952 C954 1.364 . S
C953 C951 1.374 . S
C953 C952 1.359 . S
C953 H974 0.931 . S
C954 C950 1.389 . S
C954 C952 1.364 . S
C954 H975 0.931 . S
C955 O966 1.256 . S
C955 O967 1.257 . S
O956 Gd936 2.377 1_556 S
O956 C938 1.236 1_556 S
O957 Gd937 2.395 . S
O957 C938 1.244 . S
O958 Gd936 2.448 1_556 S
O958 C939 1.249 . S
O959 Gd936 2.506 . S
O959 C939 1.252 1_554 S
O960 Gd936 2.435 1_556 S
O960 C946 1.256 . S
O961 Gd936 2.717 1_556 S
O961 Gd937 2.327 1_556 S
O961 C946 1.257 . S
O962 Gd937 2.377 . S
O962 C947 1.240 . S
O963 Gd936 2.395 . S
O963 C947 1.240 . S
O964 Gd937 2.448 1_655 S
O964 C948 1.249 . S
O965 Gd937 2.506 1_655 S
O965 C948 1.252 . S
O966 Gd937 2.435 . S
O966 C955 1.256 . S
O967 Gd936 2.327 . S
O967 Gd937 2.717 . S
O967 C955 1.257 . S
H968 C941 0.930 . S
H969 C942 0.931 . S
H970 C944 0.959 . S
H971 C945 0.931 . S
H972 C950 0.930 . S
H973 C951 0.931 . S
H974 C953 0.931 . S
H975 C954 0.931 . S
H976 C982 0.930 . S
H977 C986 0.930 . S
H978 C991 0.929 . S
H979 C989 0.929 . S
H980 C984 0.929 . S
H981 C990 0.929 1_554 S
C982 H976 0.930 . S
C982 C983 1.367 . S
C982 C990 1.378 . S
C983 C982 1.367 . S
C983 C991 1.433 . S
C984 H980 0.929 . S
C984 C986 1.378 . S
C984 C988 1.350 . S
C985 C988 1.463 . S
C985 C990 1.350 . S
C985 N993 1.427 . S
C986 H977 0.930 . S
C986 C984 1.378 . S
C986 C987 1.367 . S
C987 C986 1.367 . S
C987 C989 1.433 1_556 S
C988 C984 1.350 . S
C988 C985 1.463 . S
C988 N992 1.427 1_556 S
C989 H979 0.929 . S
C989 C987 1.433 1_554 S
C989 N992 1.384 . S
C990 H981 0.929 1_556 S
C990 C982 1.378 . S
C990 C985 1.350 . S
C991 H978 0.929 . S
C991 C983 1.433 . S
C991 N993 1.384 . S
N992 C988 1.427 1_554 S
N992 C989 1.384 . S
N993 C985 1.427 . S
N993 C991 1.384 . S
H994 C1000 0.930 . S
H995 C1004 0.930 . S
H996 C1009 0.929 . S
H997 C1007 0.929 . S
H998 C1002 0.929 . S
H999 C1008 0.929 . S
C1000 H994 0.930 . S
C1000 C1001 1.367 . S
C1000 C1008 1.378 . S
C1001 C1000 1.367 . S
C1001 C1009 1.433 . S
C1002 H998 0.929 . S
C1002 C1004 1.378 . S
C1002 C1006 1.350 . S
C1003 C1006 1.463 . S
C1003 C1008 1.350 . S
C1003 N1011 1.427 . S
C1004 H995 0.930 . S
C1004 C1002 1.378 . S
C1004 C1005 1.367 . S
C1005 C1004 1.367 . S
C1005 C1007 1.433 . S
C1006 C1002 1.350 . S
C1006 C1003 1.463 . S
C1006 N1010 1.427 . S
C1007 H997 0.929 . S
C1007 C1005 1.433 . S
C1007 N1010 1.384 . S
C1008 H999 0.929 . S
C1008 C1000 1.378 . S
C1008 C1003 1.350 . S
C1009 H996 0.929 . S
C1009 C1001 1.433 . S
C1009 N1011 1.384 . S
N1010 C1006 1.427 . S
N1010 C1007 1.384 . S
N1011 C1003 1.427 . S
N1011 C1009 1.384 . S
H1012 C1018 0.930 . S
H1013 C1022 0.930 . S
H1014 C1027 0.929 . S
H1015 C1025 0.929 . S
H1016 C1020 0.929 . S
H1017 C1026 0.929 . S
C1018 H1012 0.930 . S
C1018 C1019 1.367 . S
C1018 C1026 1.378 . S
C1019 C1018 1.367 . S
C1019 C1027 1.433 . S
C1020 H1016 0.929 . S
C1020 C1022 1.378 . S
C1020 C1024 1.350 . S
C1021 C1024 1.463 . S
C1021 C1026 1.350 . S
C1021 N1029 1.427 . S
C1022 H1013 0.930 . S
C1022 C1020 1.378 . S
C1022 C1023 1.367 . S
C1023 C1022 1.367 . S
C1023 C1025 1.433 . S
C1024 C1020 1.350 . S
C1024 C1021 1.463 . S
C1024 N1028 1.427 . S
C1025 H1015 0.929 . S
C1025 C1023 1.433 . S
C1025 N1028 1.384 . S
C1026 H1017 0.929 . S
C1026 C1018 1.378 . S
C1026 C1021 1.350 . S
C1027 H1014 0.929 . S
C1027 C1019 1.433 . S
C1027 N1029 1.384 . S
N1028 C1024 1.427 . S
N1028 C1025 1.384 . S
N1029 C1021 1.427 . S
N1029 C1027 1.384 . S
H1030 C1036 0.930 . S
H1031 C1040 0.930 . S
H1032 C1045 0.929 . S
H1033 C1043 0.929 . S
H1034 C1038 0.929 . S
H1035 C1044 0.929 . S
C1036 H1030 0.930 . S
C1036 C1037 1.367 . S
C1036 C1044 1.378 . S
C1037 C1036 1.367 . S
C1037 C1045 1.433 . S
C1038 H1034 0.929 . S
C1038 C1040 1.378 . S
C1038 C1042 1.350 . S
C1039 C1042 1.463 . S
C1039 C1044 1.350 . S
C1039 N1047 1.427 . S
C1040 H1031 0.930 . S
C1040 C1038 1.378 . S
C1040 C1041 1.367 . S
C1041 C1040 1.367 . S
C1041 C1043 1.433 . S
C1042 C1038 1.350 . S
C1042 C1039 1.463 . S
C1042 N1046 1.427 . S
C1043 H1033 0.929 . S
C1043 C1041 1.433 . S
C1043 N1046 1.384 . S
C1044 H1035 0.929 . S
C1044 C1036 1.378 . S
C1044 C1039 1.350 . S
C1045 H1032 0.929 . S
C1045 C1037 1.433 . S
C1045 N1047 1.384 . S
N1046 C1042 1.427 . S
N1046 C1043 1.384 . S
N1047 C1039 1.427 . S
N1047 C1045 1.384 . S
H1048 C1054 0.930 . S
H1049 C1058 0.930 . S
H1050 C1063 0.929 . S
H1051 C1061 0.929 . S
H1052 C1056 0.929 . S
H1053 C1062 0.929 . S
C1054 H1048 0.930 . S
C1054 C1055 1.367 1_655 S
C1054 C1062 1.378 1_655 S
C1055 C1054 1.367 1_455 S
C1055 C1063 1.433 . S
C1056 H1052 0.929 . S
C1056 C1058 1.378 . S
C1056 C1060 1.350 . S
C1057 C1060 1.463 . S
C1057 C1062 1.350 . S
C1057 N1065 1.427 . S
C1058 H1049 0.930 . S
C1058 C1056 1.378 . S
C1058 C1059 1.367 . S
C1059 C1058 1.367 . S
C1059 C1061 1.433 . S
C1060 C1056 1.350 . S
C1060 C1057 1.463 . S
C1060 N1064 1.427 . S
C1061 H1051 0.929 . S
C1061 C1059 1.433 . S
C1061 N1064 1.384 . S
C1062 H1053 0.929 . S
C1062 C1054 1.378 1_455 S
C1062 C1057 1.350 . S
C1063 H1050 0.929 . S
C1063 C1055 1.433 . S
C1063 N1065 1.384 . S
N1064 C1060 1.427 . S
N1064 C1061 1.384 . S
N1065 C1057 1.427 . S
N1065 C1063 1.384 . S
H1066 C1072 0.930 . S
H1067 C1076 0.930 . S
H1068 C1081 0.929 . S
H1069 C1079 0.929 . S
H1070 C1074 0.929 . S
H1071 C1080 0.929 . S
C1072 H1066 0.930 . S
C1072 C1073 1.367 . S
C1072 C1080 1.378 . S
C1073 C1072 1.367 . S
C1073 C1081 1.433 . S
C1074 H1070 0.929 . S
C1074 C1076 1.378 . S
C1074 C1078 1.350 . S
C1075 C1078 1.463 . S
C1075 C1080 1.350 . S
C1075 N1083 1.427 . S
C1076 H1067 0.930 . S
C1076 C1074 1.378 . S
C1076 C1077 1.367 . S
C1077 C1076 1.367 . S
C1077 C1079 1.433 . S
C1078 C1074 1.350 . S
C1078 C1075 1.463 . S
C1078 N1082 1.427 . S
C1079 H1069 0.929 . S
C1079 C1077 1.433 . S
C1079 N1082 1.384 . S
C1080 H1071 0.929 . S
C1080 C1072 1.378 . S
C1080 C1075 1.350 . S
C1081 H1068 0.929 . S
C1081 C1073 1.433 . S
C1081 N1083 1.384 . S
N1082 C1078 1.427 . S
N1082 C1079 1.384 . S
N1083 C1075 1.427 . S
N1083 C1081 1.384 . S
H1084 C1090 0.930 . S
H1085 C1094 0.930 . S
H1086 C1099 0.929 . S
H1087 C1097 0.929 . S
H1088 C1092 0.929 . S
H1089 C1098 0.929 . S
C1090 H1084 0.930 . S
C1090 C1091 1.367 . S
C1090 C1098 1.378 . S
C1091 C1090 1.367 . S
C1091 C1099 1.433 . S
C1092 H1088 0.929 . S
C1092 C1094 1.378 . S
C1092 C1096 1.350 . S
C1093 C1096 1.463 . S
C1093 C1098 1.350 . S
C1093 N1101 1.427 . S
C1094 H1085 0.930 . S
C1094 C1092 1.378 . S
C1094 C1095 1.367 . S
C1095 C1094 1.367 . S
C1095 C1097 1.433 . S
C1096 C1092 1.350 . S
C1096 C1093 1.463 . S
C1096 N1100 1.427 . S
C1097 H1087 0.929 . S
C1097 C1095 1.433 . S
C1097 N1100 1.384 . S
C1098 H1089 0.929 . S
C1098 C1090 1.378 . S
C1098 C1093 1.350 . S
C1099 H1086 0.929 . S
C1099 C1091 1.433 . S
C1099 N1101 1.384 . S
N1100 C1096 1.427 . S
N1100 C1097 1.384 . S
N1101 C1093 1.427 . S
N1101 C1099 1.384 . S
H1102 C1108 0.930 . S
H1103 C1112 0.930 . S
H1104 C1117 0.929 . S
H1105 C1115 0.929 . S
H1106 C1110 0.929 . S
H1107 C1116 0.929 . S
C1108 H1102 0.930 . S
C1108 C1109 1.367 . S
C1108 C1116 1.378 . S
C1109 C1108 1.367 . S
C1109 C1117 1.433 . S
C1110 H1106 0.929 . S
C1110 C1112 1.378 . S
C1110 C1114 1.350 . S
C1111 C1114 1.463 . S
C1111 C1116 1.350 . S
C1111 N1119 1.427 . S
C1112 H1103 0.930 . S
C1112 C1110 1.378 . S
C1112 C1113 1.367 . S
C1113 C1112 1.367 . S
C1113 C1115 1.433 . S
C1114 C1110 1.350 . S
C1114 C1111 1.463 . S
C1114 N1118 1.427 . S
C1115 H1105 0.929 . S
C1115 C1113 1.433 . S
C1115 N1118 1.384 . S
C1116 H1107 0.929 . S
C1116 C1108 1.378 . S
C1116 C1111 1.350 . S
C1117 H1104 0.929 . S
C1117 C1109 1.433 . S
C1117 N1119 1.384 . S
N1118 C1114 1.427 . S
N1118 C1115 1.384 . S
N1119 C1111 1.427 . S
N1119 C1117 1.384 . S
H1120 C1126 0.931 . S
H1121 C1130 0.930 . S
H1122 C1135 0.929 . S
H1123 C1133 0.929 . S
H1124 C1128 0.929 . S
H1125 C1134 0.929 . S
C1126 H1120 0.931 . S
C1126 C1127 1.367 . S
C1126 C1134 1.378 1_655 S
C1127 C1126 1.367 . S
C1127 C1135 1.433 . S
C1128 H1124 0.929 . S
C1128 C1130 1.378 1_655 S
C1128 C1132 1.350 1_655 S
C1129 C1132 1.463 1_655 S
C1129 C1134 1.350 1_655 S
C1129 N1137 1.427 . S
C1130 H1121 0.930 . S
C1130 C1128 1.378 1_455 S
C1130 C1131 1.367 . S
C1131 C1130 1.367 . S
C1131 C1133 1.433 . S
C1132 C1128 1.350 1_455 S
C1132 C1129 1.463 1_455 S
C1132 N1136 1.427 . S
C1133 H1123 0.929 . S
C1133 C1131 1.433 . S
C1133 N1136 1.384 . S
C1134 H1125 0.929 . S
C1134 C1126 1.378 1_455 S
C1134 C1129 1.350 1_455 S
C1135 H1122 0.929 . S
C1135 C1127 1.433 . S
C1135 N1137 1.384 . S
N1136 C1132 1.427 . S
N1136 C1133 1.384 . S
N1137 C1129 1.427 . S
N1137 C1135 1.384 . S
H1138 C1144 0.930 . S
H1139 C1148 0.930 . S
H1140 C1153 0.929 . S
H1141 C1151 0.929 . S
H1142 C1146 0.929 . S
H1143 C1152 0.929 . S
C1144 H1138 0.930 . S
C1144 C1145 1.367 . S
C1144 C1152 1.378 . S
C1145 C1144 1.367 . S
C1145 C1153 1.433 . S
C1146 H1142 0.929 . S
C1146 C1148 1.378 . S
C1146 C1150 1.350 . S
C1147 C1150 1.463 . S
C1147 C1152 1.350 . S
C1147 N1155 1.427 . S
C1148 H1139 0.930 . S
C1148 C1146 1.378 . S
C1148 C1149 1.367 . S
C1149 C1148 1.367 . S
C1149 C1151 1.433 . S
C1150 C1146 1.350 . S
C1150 C1147 1.463 . S
C1150 N1154 1.427 . S
C1151 H1141 0.929 . S
C1151 C1149 1.433 . S
C1151 N1154 1.384 . S
C1152 H1143 0.929 . S
C1152 C1144 1.378 . S
C1152 C1147 1.350 . S
C1153 H1140 0.929 . S
C1153 C1145 1.433 . S
C1153 N1155 1.384 . S
N1154 C1150 1.427 . S
N1154 C1151 1.384 . S
N1155 C1147 1.427 . S
N1155 C1153 1.384 . S
H1156 C1162 0.930 . S
H1157 C1166 0.930 . S
H1158 C1171 0.929 . S
H1159 C1169 0.929 . S
H1160 C1164 0.929 . S
H1161 C1170 0.929 . S
C1162 H1156 0.930 . S
C1162 C1163 1.367 . S
C1162 C1170 1.378 . S
C1163 C1162 1.367 . S
C1163 C1171 1.433 . S
C1164 H1160 0.929 . S
C1164 C1166 1.378 . S
C1164 C1168 1.350 . S
C1165 C1168 1.463 . S
C1165 C1170 1.350 . S
C1165 N1173 1.427 . S
C1166 H1157 0.930 . S
C1166 C1164 1.378 . S
C1166 C1167 1.367 . S
C1167 C1166 1.367 . S
C1167 C1169 1.433 . S
C1168 C1164 1.350 . S
C1168 C1165 1.463 . S
C1168 N1172 1.427 . S
C1169 H1159 0.929 . S
C1169 C1167 1.433 . S
C1169 N1172 1.384 . S
C1170 H1161 0.929 . S
C1170 C1162 1.378 . S
C1170 C1165 1.350 . S
C1171 H1158 0.929 . S
C1171 C1163 1.433 . S
C1171 N1173 1.384 . S
N1172 C1168 1.427 . S
N1172 C1169 1.384 . S
N1173 C1165 1.427 . S
N1173 C1171 1.384 . S
H1174 C1180 0.930 . S
H1175 C1184 0.930 . S
H1176 C1189 0.929 . S
H1177 C1187 0.929 . S
H1178 C1182 0.929 . S
H1179 C1188 0.929 . S
C1180 H1174 0.930 . S
C1180 C1181 1.367 . S
C1180 C1188 1.378 . S
C1181 C1180 1.367 . S
C1181 C1189 1.433 . S
C1182 H1178 0.929 . S
C1182 C1184 1.378 . S
C1182 C1186 1.350 . S
C1183 C1186 1.463 . S
C1183 C1188 1.350 . S
C1183 N1191 1.427 . S
C1184 H1175 0.930 . S
C1184 C1182 1.378 . S
C1184 C1185 1.367 . S
C1185 C1184 1.367 . S
C1185 C1187 1.433 . S
C1186 C1182 1.350 . S
C1186 C1183 1.463 . S
C1186 N1190 1.427 . S
C1187 H1177 0.929 . S
C1187 C1185 1.433 . S
C1187 N1190 1.384 . S
C1188 H1179 0.929 . S
C1188 C1180 1.378 . S
C1188 C1183 1.350 . S
C1189 H1176 0.929 . S
C1189 C1181 1.433 . S
C1189 N1191 1.384 . S
N1190 C1186 1.427 . S
N1190 C1187 1.384 . S
N1191 C1183 1.427 . S
N1191 C1189 1.384 . S
H1192 C1198 0.930 . S
H1193 C1202 0.930 . S
H1194 C1207 0.929 1_455 S
H1195 C1205 0.929 1_655 S
H1196 C1200 0.929 . S
H1197 C1206 0.929 . S
C1198 H1192 0.930 . S
C1198 C1199 1.367 . S
C1198 C1206 1.378 . S
C1199 C1198 1.367 . S
C1199 C1207 1.433 . S
C1200 H1196 0.929 . S
C1200 C1202 1.378 . S
C1200 C1204 1.350 . S
C1201 C1204 1.463 1_655 S
C1201 C1206 1.350 . S
C1201 N1209 1.427 1_655 S
C1202 H1193 0.930 . S
C1202 C1200 1.378 . S
C1202 C1203 1.367 . S
C1203 C1202 1.367 . S
C1203 C1205 1.433 . S
C1204 C1200 1.350 . S
C1204 C1201 1.463 1_455 S
C1204 N1208 1.427 1_455 S
C1205 H1195 0.929 1_455 S
C1205 C1203 1.433 . S
C1205 N1208 1.384 1_455 S
C1206 H1197 0.929 . S
C1206 C1198 1.378 . S
C1206 C1201 1.350 . S
C1207 H1194 0.929 1_655 S
C1207 C1199 1.433 . S
C1207 N1209 1.384 1_655 S
N1208 C1204 1.427 1_655 S
N1208 C1205 1.384 1_655 S
N1209 C1201 1.427 1_455 S
N1209 C1207 1.384 1_455 S
H1210 C1216 0.930 . S
H1211 C1220 0.930 . S
H1212 C1225 0.929 . S
H1213 C1223 0.929 . S
H1214 C1218 0.929 . S
H1215 C1224 0.929 . S
C1216 H1210 0.930 . S
C1216 C1217 1.367 . S
C1216 C1224 1.378 . S
C1217 C1216 1.367 . S
C1217 C1225 1.433 . S
C1218 H1214 0.929 . S
C1218 C1220 1.378 . S
C1218 C1222 1.350 . S
C1219 C1222 1.463 . S
C1219 C1224 1.350 . S
C1219 N1227 1.427 . S
C1220 H1211 0.930 . S
C1220 C1218 1.378 . S
C1220 C1221 1.367 . S
C1221 C1220 1.367 . S
C1221 C1223 1.433 . S
C1222 C1218 1.350 . S
C1222 C1219 1.463 . S
C1222 N1226 1.427 . S
C1223 H1213 0.929 . S
C1223 C1221 1.433 . S
C1223 N1226 1.384 . S
C1224 H1215 0.929 . S
C1224 C1216 1.378 . S
C1224 C1219 1.350 . S
C1225 H1212 0.929 . S
C1225 C1217 1.433 . S
C1225 N1227 1.384 . S
N1226 C1222 1.427 . S
N1226 C1223 1.384 . S
N1227 C1219 1.427 . S
N1227 C1225 1.384 . S
H1228 C1234 0.930 . S
H1229 C1238 0.930 . S
H1230 C1243 0.929 . S
H1231 C1241 0.929 . S
H1232 C1236 0.929 . S
H1233 C1242 0.929 . S
C1234 H1228 0.930 . S
C1234 C1235 1.367 . S
C1234 C1242 1.378 . S
C1235 C1234 1.367 . S
C1235 C1243 1.433 . S
C1236 H1232 0.929 . S
C1236 C1238 1.378 . S
C1236 C1240 1.350 . S
C1237 C1240 1.463 . S
C1237 C1242 1.350 . S
C1237 N1245 1.427 . S
C1238 H1229 0.930 . S
C1238 C1236 1.378 . S
C1238 C1239 1.367 . S
C1239 C1238 1.367 . S
C1239 C1241 1.433 . S
C1240 C1236 1.350 . S
C1240 C1237 1.463 . S
C1240 N1244 1.427 . S
C1241 H1231 0.929 . S
C1241 C1239 1.433 . S
C1241 N1244 1.384 . S
C1242 H1233 0.929 . S
C1242 C1234 1.378 . S
C1242 C1237 1.350 . S
C1243 H1230 0.929 . S
C1243 C1235 1.433 . S
C1243 N1245 1.384 . S
N1244 C1240 1.427 . S
N1244 C1241 1.384 . S
N1245 C1237 1.427 . S
N1245 C1243 1.384 . S
H1246 C1252 0.930 . S
H1247 C1256 0.930 . S
H1248 C1261 0.929 . S
H1249 C1259 0.929 . S
H1250 C1254 0.929 . S
H1251 C1260 0.929 . S
C1252 H1246 0.930 . S
C1252 C1253 1.367 . S
C1252 C1260 1.378 . S
C1253 C1252 1.367 . S
C1253 C1261 1.433 . S
C1254 H1250 0.929 . S
C1254 C1256 1.378 . S
C1254 C1258 1.350 . S
C1255 C1258 1.463 . S
C1255 C1260 1.350 . S
C1255 N1263 1.427 . S
C1256 H1247 0.930 . S
C1256 C1254 1.378 . S
C1256 C1257 1.367 . S
C1257 C1256 1.367 . S
C1257 C1259 1.433 . S
C1258 C1254 1.350 . S
C1258 C1255 1.463 . S
C1258 N1262 1.427 . S
C1259 H1249 0.929 . S
C1259 C1257 1.433 . S
C1259 N1262 1.384 . S
C1260 H1251 0.929 . S
C1260 C1252 1.378 . S
C1260 C1255 1.350 . S
C1261 H1248 0.929 . S
C1261 C1253 1.433 . S
C1261 N1263 1.384 . S
N1262 C1258 1.427 . S
N1262 C1259 1.384 . S
N1263 C1255 1.427 . S
N1263 C1261 1.384 . S
H1264 C1270 0.930 1_545 S
H1265 C1274 0.930 . S
H1266 C1279 0.929 . S
H1267 C1277 0.929 . S
H1268 C1272 0.929 . S
H1269 C1278 0.929 1_545 S
C1270 H1264 0.930 1_565 S
C1270 C1271 1.367 . S
C1270 C1278 1.378 . S
C1271 C1270 1.367 . S
C1271 C1279 1.433 . S
C1272 H1268 0.929 . S
C1272 C1274 1.378 . S
C1272 C1276 1.350 . S
C1273 C1276 1.463 . S
C1273 C1278 1.350 . S
C1273 N1281 1.427 . S
C1274 H1265 0.930 . S
C1274 C1272 1.378 . S
C1274 C1275 1.367 . S
C1275 C1274 1.367 . S
C1275 C1277 1.433 1_565 S
C1276 C1272 1.350 . S
C1276 C1273 1.463 . S
C1276 N1280 1.427 1_565 S
C1277 H1267 0.929 . S
C1277 C1275 1.433 1_545 S
C1277 N1280 1.384 . S
C1278 H1269 0.929 1_565 S
C1278 C1270 1.378 . S
C1278 C1273 1.350 . S
C1279 H1266 0.929 . S
C1279 C1271 1.433 . S
C1279 N1281 1.384 . S
N1280 C1276 1.427 1_545 S
N1280 C1277 1.384 . S
N1281 C1273 1.427 . S
N1281 C1279 1.384 . S
H1282 C1288 0.930 . S
H1283 C1292 0.930 . S
H1284 C1297 0.929 . S
H1285 C1295 0.929 . S
H1286 C1290 0.929 . S
H1287 C1296 0.929 . S
C1288 H1282 0.930 . S
C1288 C1289 1.367 . S
C1288 C1296 1.378 . S
C1289 C1288 1.367 . S
C1289 C1297 1.433 1_554 S
C1290 H1286 0.929 . S
C1290 C1292 1.378 . S
C1290 C1294 1.350 1_556 S
C1291 C1294 1.463 . S
C1291 C1296 1.350 . S
C1291 N1299 1.427 1_554 S
C1292 H1283 0.930 . S
C1292 C1290 1.378 . S
C1292 C1293 1.367 1_556 S
C1293 C1292 1.367 1_554 S
C1293 C1295 1.433 . S
C1294 C1290 1.350 1_554 S
C1294 C1291 1.463 . S
C1294 N1298 1.427 . S
C1295 H1285 0.929 . S
C1295 C1293 1.433 . S
C1295 N1298 1.384 . S
C1296 H1287 0.929 . S
C1296 C1288 1.378 . S
C1296 C1291 1.350 . S
C1297 H1284 0.929 . S
C1297 C1289 1.433 1_556 S
C1297 N1299 1.384 . S
N1298 C1294 1.427 . S
N1298 C1295 1.384 . S
N1299 C1291 1.427 1_556 S
N1299 C1297 1.384 . S
H1300 C1306 0.930 . S
H1301 C1310 0.930 . S
H1302 C1315 0.929 . S
H1303 C1313 0.929 . S
H1304 C1308 0.929 . S
H1305 C1314 0.929 . S
C1306 H1300 0.930 . S
C1306 C1307 1.367 . S
C1306 C1314 1.378 . S
C1307 C1306 1.367 . S
C1307 C1315 1.433 . S
C1308 H1304 0.929 . S
C1308 C1310 1.378 . S
C1308 C1312 1.350 . S
C1309 C1312 1.463 . S
C1309 C1314 1.350 . S
C1309 N1317 1.427 . S
C1310 H1301 0.930 . S
C1310 C1308 1.378 . S
C1310 C1311 1.367 . S
C1311 C1310 1.367 . S
C1311 C1313 1.433 . S
C1312 C1308 1.350 . S
C1312 C1309 1.463 . S
C1312 N1316 1.427 . S
C1313 H1303 0.929 . S
C1313 C1311 1.433 . S
C1313 N1316 1.384 . S
C1314 H1305 0.929 . S
C1314 C1306 1.378 . S
C1314 C1309 1.350 . S
C1315 H1302 0.929 . S
C1315 C1307 1.433 . S
C1315 N1317 1.384 . S
N1316 C1312 1.427 . S
N1316 C1313 1.384 . S
N1317 C1309 1.427 . S
N1317 C1315 1.384 . S
H1318 C1324 0.930 . S
H1319 C1328 0.930 . S
H1320 C1333 0.929 . S
H1321 C1331 0.929 . S
H1322 C1326 0.929 . S
H1323 C1332 0.929 . S
C1324 H1318 0.930 . S
C1324 C1325 1.367 . S
C1324 C1332 1.378 . S
C1325 C1324 1.367 . S
C1325 C1333 1.433 . S
C1326 H1322 0.929 . S
C1326 C1328 1.378 . S
C1326 C1330 1.350 . S
C1327 C1330 1.463 . S
C1327 C1332 1.350 . S
C1327 N1335 1.427 . S
C1328 H1319 0.930 . S
C1328 C1326 1.378 . S
C1328 C1329 1.367 . S
C1329 C1328 1.367 . S
C1329 C1331 1.433 . S
C1330 C1326 1.350 . S
C1330 C1327 1.463 . S
C1330 N1334 1.427 . S
C1331 H1321 0.929 . S
C1331 C1329 1.433 . S
C1331 N1334 1.384 . S
C1332 H1323 0.929 . S
C1332 C1324 1.378 . S
C1332 C1327 1.350 . S
C1333 H1320 0.929 . S
C1333 C1325 1.433 . S
C1333 N1335 1.384 . S
N1334 C1330 1.427 . S
N1334 C1331 1.384 . S
N1335 C1327 1.427 . S
N1335 C1333 1.384 . S
H1336 C1342 0.930 . S
H1337 C1346 0.930 . S
H1338 C1351 0.929 . S
H1339 C1349 0.929 . S
H1340 C1344 0.929 . S
H1341 C1350 0.929 . S
C1342 H1336 0.930 . S
C1342 C1343 1.367 . S
C1342 C1350 1.378 . S
C1343 C1342 1.367 . S
C1343 C1351 1.433 . S
C1344 H1340 0.929 . S
C1344 C1346 1.378 . S
C1344 C1348 1.350 . S
C1345 C1348 1.463 . S
C1345 C1350 1.350 . S
C1345 N1353 1.427 . S
C1346 H1337 0.930 . S
C1346 C1344 1.378 . S
C1346 C1347 1.367 . S
C1347 C1346 1.367 . S
C1347 C1349 1.433 . S
C1348 C1344 1.350 . S
C1348 C1345 1.463 . S
C1348 N1352 1.427 . S
C1349 H1339 0.929 . S
C1349 C1347 1.433 . S
C1349 N1352 1.384 . S
C1350 H1341 0.929 . S
C1350 C1342 1.378 . S
C1350 C1345 1.350 . S
C1351 H1338 0.929 . S
C1351 C1343 1.433 . S
C1351 N1353 1.384 . S
N1352 C1348 1.427 . S
N1352 C1349 1.384 . S
N1353 C1345 1.427 . S
N1353 C1351 1.384 . S
H1354 C1360 0.930 . S
H1355 C1364 0.930 . S
H1356 C1369 0.929 . S
H1357 C1367 0.929 . S
H1358 C1362 0.929 . S
H1359 C1368 0.929 . S
C1360 H1354 0.930 . S
C1360 C1361 1.367 . S
C1360 C1368 1.378 . S
C1361 C1360 1.367 . S
C1361 C1369 1.433 . S
C1362 H1358 0.929 . S
C1362 C1364 1.378 . S
C1362 C1366 1.350 . S
C1363 C1366 1.463 . S
C1363 C1368 1.350 . S
C1363 N1371 1.427 . S
C1364 H1355 0.930 . S
C1364 C1362 1.378 . S
C1364 C1365 1.367 . S
C1365 C1364 1.367 . S
C1365 C1367 1.433 . S
C1366 C1362 1.350 . S
C1366 C1363 1.463 . S
C1366 N1370 1.427 . S
C1367 H1357 0.929 . S
C1367 C1365 1.433 . S
C1367 N1370 1.384 . S
C1368 H1359 0.929 . S
C1368 C1360 1.378 . S
C1368 C1363 1.350 . S
C1369 H1356 0.929 . S
C1369 C1361 1.433 . S
C1369 N1371 1.384 . S
N1370 C1366 1.427 . S
N1370 C1367 1.384 . S
N1371 C1363 1.427 . S
N1371 C1369 1.384 . S
H1372 C1378 0.930 . S
H1373 C1382 0.930 . S
H1374 C1387 0.929 . S
H1375 C1385 0.929 . S
H1376 C1380 0.929 . S
H1377 C1386 0.929 . S
C1378 H1372 0.930 . S
C1378 C1379 1.367 . S
C1378 C1386 1.378 . S
C1379 C1378 1.367 . S
C1379 C1387 1.433 . S
C1380 H1376 0.929 . S
C1380 C1382 1.378 . S
C1380 C1384 1.350 . S
C1381 C1384 1.463 . S
C1381 C1386 1.350 . S
C1381 N1389 1.427 . S
C1382 H1373 0.930 . S
C1382 C1380 1.378 . S
C1382 C1383 1.367 . S
C1383 C1382 1.367 . S
C1383 C1385 1.433 . S
C1384 C1380 1.350 . S
C1384 C1381 1.463 . S
C1384 N1388 1.427 . S
C1385 H1375 0.929 . S
C1385 C1383 1.433 . S
C1385 N1388 1.384 . S
C1386 H1377 0.929 . S
C1386 C1378 1.378 . S
C1386 C1381 1.350 . S
C1387 H1374 0.929 . S
C1387 C1379 1.433 . S
C1387 N1389 1.384 . S
N1388 C1384 1.427 . S
N1388 C1385 1.384 . S
N1389 C1381 1.427 . S
N1389 C1387 1.384 . S
H1390 C1396 0.930 . S
H1391 C1400 0.930 . S
H1392 C1405 0.929 . S
H1393 C1403 0.929 . S
H1394 C1398 0.929 . S
H1395 C1404 0.929 . S
C1396 H1390 0.930 . S
C1396 C1397 1.367 . S
C1396 C1404 1.378 . S
C1397 C1396 1.367 . S
C1397 C1405 1.433 . S
C1398 H1394 0.929 . S
C1398 C1400 1.378 . S
C1398 C1402 1.350 . S
C1399 C1402 1.463 . S
C1399 C1404 1.350 . S
C1399 N1407 1.427 . S
C1400 H1391 0.930 . S
C1400 C1398 1.378 . S
C1400 C1401 1.367 . S
C1401 C1400 1.367 . S
C1401 C1403 1.433 . S
C1402 C1398 1.350 . S
C1402 C1399 1.463 . S
C1402 N1406 1.427 . S
C1403 H1393 0.929 . S
C1403 C1401 1.433 . S
C1403 N1406 1.384 . S
C1404 H1395 0.929 . S
C1404 C1396 1.378 . S
C1404 C1399 1.350 . S
C1405 H1392 0.929 . S
C1405 C1397 1.433 . S
C1405 N1407 1.384 . S
N1406 C1402 1.427 . S
N1406 C1403 1.384 . S
N1407 C1399 1.427 . S
N1407 C1405 1.384 . S
H1408 C1414 0.930 . S
H1409 C1418 0.930 . S
H1410 C1423 0.929 . S
H1411 C1421 0.929 . S
H1412 C1416 0.929 . S
H1413 C1422 0.929 . S
C1414 H1408 0.930 . S
C1414 C1415 1.367 . S
C1414 C1422 1.378 . S
C1415 C1414 1.367 . S
C1415 C1423 1.433 . S
C1416 H1412 0.929 . S
C1416 C1418 1.378 . S
C1416 C1420 1.350 . S
C1417 C1420 1.463 . S
C1417 C1422 1.350 . S
C1417 N1425 1.427 . S
C1418 H1409 0.930 . S
C1418 C1416 1.378 . S
C1418 C1419 1.367 . S
C1419 C1418 1.367 . S
C1419 C1421 1.433 . S
C1420 C1416 1.350 . S
C1420 C1417 1.463 . S
C1420 N1424 1.427 . S
C1421 H1411 0.929 . S
C1421 C1419 1.433 . S
C1421 N1424 1.384 . S
C1422 H1413 0.929 . S
C1422 C1414 1.378 . S
C1422 C1417 1.350 . S
C1423 H1410 0.929 . S
C1423 C1415 1.433 . S
C1423 N1425 1.384 . S
N1424 C1420 1.427 . S
N1424 C1421 1.384 . S
N1425 C1417 1.427 . S
N1425 C1423 1.384 . S
H1426 C1432 0.930 . S
H1427 C1436 0.930 . S
H1428 C1441 0.929 . S
H1429 C1439 0.929 . S
H1430 C1434 0.929 . S
H1431 C1440 0.929 . S
C1432 H1426 0.930 . S
C1432 C1433 1.367 . S
C1432 C1440 1.378 . S
C1433 C1432 1.367 . S
C1433 C1441 1.433 . S
C1434 H1430 0.929 . S
C1434 C1436 1.378 . S
C1434 C1438 1.350 . S
C1435 C1438 1.463 . S
C1435 C1440 1.350 . S
C1435 N1443 1.427 . S
C1436 H1427 0.930 . S
C1436 C1434 1.378 . S
C1436 C1437 1.367 . S
C1437 C1436 1.367 . S
C1437 C1439 1.433 . S
C1438 C1434 1.350 . S
C1438 C1435 1.463 . S
C1438 N1442 1.427 . S
C1439 H1429 0.929 . S
C1439 C1437 1.433 . S
C1439 N1442 1.384 . S
C1440 H1431 0.929 . S
C1440 C1432 1.378 . S
C1440 C1435 1.350 . S
C1441 H1428 0.929 . S
C1441 C1433 1.433 . S
C1441 N1443 1.384 . S
N1442 C1438 1.427 . S
N1442 C1439 1.384 . S
N1443 C1435 1.427 . S
N1443 C1441 1.384 . S
H1444 C1450 0.930 . S
H1445 C1454 0.930 . S
H1446 C1459 0.929 . S
H1447 C1457 0.929 . S
H1448 C1452 0.929 . S
H1449 C1458 0.929 . S
C1450 H1444 0.930 . S
C1450 C1451 1.367 . S
C1450 C1458 1.378 . S
C1451 C1450 1.367 . S
C1451 C1459 1.433 . S
C1452 H1448 0.929 . S
C1452 C1454 1.378 . S
C1452 C1456 1.350 . S
C1453 C1456 1.463 . S
C1453 C1458 1.350 . S
C1453 N1461 1.427 . S
C1454 H1445 0.930 . S
C1454 C1452 1.378 . S
C1454 C1455 1.367 . S
C1455 C1454 1.367 . S
C1455 C1457 1.433 . S
C1456 C1452 1.350 . S
C1456 C1453 1.463 . S
C1456 N1460 1.427 . S
C1457 H1447 0.929 . S
C1457 C1455 1.433 . S
C1457 N1460 1.384 . S
C1458 H1449 0.929 . S
C1458 C1450 1.378 . S
C1458 C1453 1.350 . S
C1459 H1446 0.929 . S
C1459 C1451 1.433 . S
C1459 N1461 1.384 . S
N1460 C1456 1.427 . S
N1460 C1457 1.384 . S
N1461 C1453 1.427 . S
N1461 C1459 1.384 . S
H1462 C1468 0.930 . S
H1463 C1472 0.930 . S
H1464 C1477 0.929 . S
H1465 C1475 0.929 . S
H1466 C1470 0.929 . S
H1467 C1476 0.929 . S
C1468 H1462 0.930 . S
C1468 C1469 1.367 . S
C1468 C1476 1.378 . S
C1469 C1468 1.367 . S
C1469 C1477 1.433 . S
C1470 H1466 0.929 . S
C1470 C1472 1.378 . S
C1470 C1474 1.350 . S
C1471 C1474 1.463 . S
C1471 C1476 1.350 . S
C1471 N1479 1.427 . S
C1472 H1463 0.930 . S
C1472 C1470 1.378 . S
C1472 C1473 1.367 . S
C1473 C1472 1.367 . S
C1473 C1475 1.433 . S
C1474 C1470 1.350 . S
C1474 C1471 1.463 . S
C1474 N1478 1.427 . S
C1475 H1465 0.929 . S
C1475 C1473 1.433 . S
C1475 N1478 1.384 . S
C1476 H1467 0.929 . S
C1476 C1468 1.378 . S
C1476 C1471 1.350 . S
C1477 H1464 0.929 . S
C1477 C1469 1.433 . S
C1477 N1479 1.384 . S
N1478 C1474 1.427 . S
N1478 C1475 1.384 . S
N1479 C1471 1.427 . S
N1479 C1477 1.384 . S
H1480 C1486 0.930 . S
H1481 C1490 0.930 . S
H1482 C1495 0.929 . S
H1483 C1493 0.929 . S
H1484 C1488 0.929 . S
H1485 C1494 0.929 . S
C1486 H1480 0.930 . S
C1486 C1487 1.367 . S
C1486 C1494 1.378 . S
C1487 C1486 1.367 . S
C1487 C1495 1.433 . S
C1488 H1484 0.929 . S
C1488 C1490 1.378 . S
C1488 C1492 1.350 . S
C1489 C1492 1.463 . S
C1489 C1494 1.350 . S
C1489 N1497 1.427 . S
C1490 H1481 0.930 . S
C1490 C1488 1.378 . S
C1490 C1491 1.367 . S
C1491 C1490 1.367 . S
C1491 C1493 1.433 . S
C1492 C1488 1.350 . S
C1492 C1489 1.463 . S
C1492 N1496 1.427 . S
C1493 H1483 0.929 . S
C1493 C1491 1.433 . S
C1493 N1496 1.384 . S
C1494 H1485 0.929 . S
C1494 C1486 1.378 . S
C1494 C1489 1.350 . S
C1495 H1482 0.929 . S
C1495 C1487 1.433 . S
C1495 N1497 1.384 . S
N1496 C1492 1.427 . S
N1496 C1493 1.384 . S
N1497 C1489 1.427 . S
N1497 C1495 1.384 . S
H1498 C1504 0.930 . S
H1499 C1508 0.930 . S
H1500 C1513 0.929 . S
H1501 C1511 0.929 . S
H1502 C1506 0.929 . S
H1503 C1512 0.929 . S
C1504 H1498 0.930 . S
C1504 C1505 1.367 . S
C1504 C1512 1.378 . S
C1505 C1504 1.367 . S
C1505 C1513 1.433 . S
C1506 H1502 0.929 . S
C1506 C1508 1.378 . S
C1506 C1510 1.350 . S
C1507 C1510 1.463 . S
C1507 C1512 1.350 . S
C1507 N1515 1.427 . S
C1508 H1499 0.930 . S
C1508 C1506 1.378 . S
C1508 C1509 1.367 . S
C1509 C1508 1.367 . S
C1509 C1511 1.433 . S
C1510 C1506 1.350 . S
C1510 C1507 1.463 . S
C1510 N1514 1.427 . S
C1511 H1501 0.929 . S
C1511 C1509 1.433 . S
C1511 N1514 1.384 . S
C1512 H1503 0.929 . S
C1512 C1504 1.378 . S
C1512 C1507 1.350 . S
C1513 H1500 0.929 . S
C1513 C1505 1.433 . S
C1513 N1515 1.384 . S
N1514 C1510 1.427 . S
N1514 C1511 1.384 . S
N1515 C1507 1.427 . S
N1515 C1513 1.384 . S
H1516 C1522 0.930 . S
H1517 C1526 0.930 1_554 S
H1518 C1531 0.929 . S
H1519 C1529 0.929 . S
H1520 C1524 0.929 . S
H1521 C1530 0.929 . S
C1522 H1516 0.930 . S
C1522 C1523 1.367 . S
C1522 C1530 1.378 . S
C1523 C1522 1.367 . S
C1523 C1531 1.433 . S
C1524 H1520 0.929 . S
C1524 C1526 1.378 . S
C1524 C1528 1.350 . S
C1525 C1528 1.463 . S
C1525 C1530 1.350 . S
C1525 N1533 1.427 . S
C1526 H1517 0.930 1_556 S
C1526 C1524 1.378 . S
C1526 C1527 1.367 . S
C1527 C1526 1.367 . S
C1527 C1529 1.433 . S
C1528 C1524 1.350 . S
C1528 C1525 1.463 . S
C1528 N1532 1.427 . S
C1529 H1519 0.929 . S
C1529 C1527 1.433 . S
C1529 N1532 1.384 . S
C1530 H1521 0.929 . S
C1530 C1522 1.378 . S
C1530 C1525 1.350 . S
C1531 H1518 0.929 . S
C1531 C1523 1.433 . S
C1531 N1533 1.384 . S
N1532 C1528 1.427 . S
N1532 C1529 1.384 . S
N1533 C1525 1.427 . S
N1533 C1531 1.384 . S
H1534 C1540 0.930 . S
H1535 C1544 0.930 . S
H1536 C1549 0.929 . S
H1537 C1547 0.929 . S
H1538 C1542 0.929 . S
H1539 C1548 0.929 . S
C1540 H1534 0.930 . S
C1540 C1541 1.367 . S
C1540 C1548 1.378 . S
C1541 C1540 1.367 . S
C1541 C1549 1.433 . S
C1542 H1538 0.929 . S
C1542 C1544 1.378 . S
C1542 C1546 1.350 . S
C1543 C1546 1.463 . S
C1543 C1548 1.350 . S
C1543 N1551 1.427 . S
C1544 H1535 0.930 . S
C1544 C1542 1.378 . S
C1544 C1545 1.367 . S
C1545 C1544 1.367 . S
C1545 C1547 1.433 . S
C1546 C1542 1.350 . S
C1546 C1543 1.463 . S
C1546 N1550 1.427 . S
C1547 H1537 0.929 . S
C1547 C1545 1.433 . S
C1547 N1550 1.384 . S
C1548 H1539 0.929 . S
C1548 C1540 1.378 . S
C1548 C1543 1.350 . S
C1549 H1536 0.929 . S
C1549 C1541 1.433 . S
C1549 N1551 1.384 . S
N1550 C1546 1.427 . S
N1550 C1547 1.384 . S
N1551 C1543 1.427 . S
N1551 C1549 1.384 . S
H1552 C1558 0.930 . S
H1553 C1562 0.930 . S
H1554 C1567 0.929 . S
H1555 C1565 0.929 . S
H1556 C1560 0.929 . S
H1557 C1566 0.929 . S
C1558 H1552 0.930 . S
C1558 C1559 1.367 . S
C1558 C1566 1.378 . S
C1559 C1558 1.367 . S
C1559 C1567 1.433 1_545 S
C1560 H1556 0.929 . S
C1560 C1562 1.378 . S
C1560 C1564 1.350 1_565 S
C1561 C1564 1.463 . S
C1561 C1566 1.350 . S
C1561 N1569 1.427 1_545 S
C1562 H1553 0.930 . S
C1562 C1560 1.378 . S
C1562 C1563 1.367 1_565 S
C1563 C1562 1.367 1_545 S
C1563 C1565 1.433 . S
C1564 C1560 1.350 1_545 S
C1564 C1561 1.463 . S
C1564 N1568 1.427 . S
C1565 H1555 0.929 . S
C1565 C1563 1.433 . S
C1565 N1568 1.384 . S
C1566 H1557 0.929 . S
C1566 C1558 1.378 . S
C1566 C1561 1.350 . S
C1567 H1554 0.929 . S
C1567 C1559 1.433 1_565 S
C1567 N1569 1.384 . S
N1568 C1564 1.427 . S
N1568 C1565 1.384 . S
N1569 C1561 1.427 1_565 S
N1569 C1567 1.384 . S
H1570 C1576 0.930 . S
H1571 C1580 0.930 . S
H1572 C1585 0.929 . S
H1573 C1583 0.929 . S
H1574 C1578 0.929 . S
H1575 C1584 0.929 . S
C1576 H1570 0.930 . S
C1576 C1577 1.367 . S
C1576 C1584 1.378 . S
C1577 C1576 1.367 . S
C1577 C1585 1.433 . S
C1578 H1574 0.929 . S
C1578 C1580 1.378 . S
C1578 C1582 1.350 . S
C1579 C1582 1.463 . S
C1579 C1584 1.350 . S
C1579 N1587 1.427 . S
C1580 H1571 0.930 . S
C1580 C1578 1.378 . S
C1580 C1581 1.367 . S
C1581 C1580 1.367 . S
C1581 C1583 1.433 . S
C1582 C1578 1.350 . S
C1582 C1579 1.463 . S
C1582 N1586 1.427 . S
C1583 H1573 0.929 . S
C1583 C1581 1.433 . S
C1583 N1586 1.384 . S
C1584 H1575 0.929 . S
C1584 C1576 1.378 . S
C1584 C1579 1.350 . S
C1585 H1572 0.929 . S
C1585 C1577 1.433 . S
C1585 N1587 1.384 . S
N1586 C1582 1.427 . S
N1586 C1583 1.384 . S
N1587 C1579 1.427 . S
N1587 C1585 1.384 . S
H1588 C1594 0.930 . S
H1589 C1598 0.930 . S
H1590 C1603 0.929 . S
H1591 C1601 0.929 . S
H1592 C1596 0.929 . S
H1593 C1602 0.929 1_565 S
C1594 H1588 0.930 . S
C1594 C1595 1.367 1_565 S
C1594 C1602 1.378 1_565 S
C1595 C1594 1.367 1_545 S
C1595 C1603 1.433 . S
C1596 H1592 0.929 . S
C1596 C1598 1.378 . S
C1596 C1600 1.350 . S
C1597 C1600 1.463 . S
C1597 C1602 1.350 . S
C1597 N1605 1.427 . S
C1598 H1589 0.930 . S
C1598 C1596 1.378 . S
C1598 C1599 1.367 . S
C1599 C1598 1.367 . S
C1599 C1601 1.433 . S
C1600 C1596 1.350 . S
C1600 C1597 1.463 . S
C1600 N1604 1.427 . S
C1601 H1591 0.929 . S
C1601 C1599 1.433 . S
C1601 N1604 1.384 . S
C1602 H1593 0.929 1_545 S
C1602 C1594 1.378 1_545 S
C1602 C1597 1.350 . S
C1603 H1590 0.929 . S
C1603 C1595 1.433 . S
C1603 N1605 1.384 . S
N1604 C1600 1.427 . S
N1604 C1601 1.384 . S
N1605 C1597 1.427 . S
N1605 C1603 1.384 . S
H1606 C1612 0.930 . S
H1607 C1616 0.930 . S
H1608 C1621 0.929 . S
H1609 C1619 0.929 . S
H1610 C1614 0.929 . S
H1611 C1620 0.929 . S
C1612 H1606 0.930 . S
C1612 C1613 1.367 . S
C1612 C1620 1.378 . S
C1613 C1612 1.367 . S
C1613 C1621 1.433 . S
C1614 H1610 0.929 . S
C1614 C1616 1.378 . S
C1614 C1618 1.350 . S
C1615 C1618 1.463 . S
C1615 C1620 1.350 . S
C1615 N1623 1.427 . S
C1616 H1607 0.930 . S
C1616 C1614 1.378 . S
C1616 C1617 1.367 . S
C1617 C1616 1.367 . S
C1617 C1619 1.433 . S
C1618 C1614 1.350 . S
C1618 C1615 1.463 . S
C1618 N1622 1.427 . S
C1619 H1609 0.929 . S
C1619 C1617 1.433 . S
C1619 N1622 1.384 . S
C1620 H1611 0.929 . S
C1620 C1612 1.378 . S
C1620 C1615 1.350 . S
C1621 H1608 0.929 . S
C1621 C1613 1.433 . S
C1621 N1623 1.384 . S
N1622 C1618 1.427 . S
N1622 C1619 1.384 . S
N1623 C1615 1.427 . S
N1623 C1621 1.384 . S
H1624 C1630 0.930 . S
H1625 C1634 0.930 . S
H1626 C1639 0.929 . S
H1627 C1637 0.929 . S
H1628 C1632 0.929 . S
H1629 C1638 0.929 . S
C1630 H1624 0.930 . S
C1630 C1631 1.367 . S
C1630 C1638 1.378 . S
C1631 C1630 1.367 . S
C1631 C1639 1.433 1_565 S
C1632 H1628 0.929 . S
C1632 C1634 1.378 . S
C1632 C1636 1.350 . S
C1633 C1636 1.463 . S
C1633 C1638 1.350 1_545 S
C1633 N1641 1.427 . S
C1634 H1625 0.930 . S
C1634 C1632 1.378 . S
C1634 C1635 1.367 . S
C1635 C1634 1.367 . S
C1635 C1637 1.433 1_545 S
C1636 C1632 1.350 . S
C1636 C1633 1.463 . S
C1636 N1640 1.427 1_545 S
C1637 H1627 0.929 . S
C1637 C1635 1.433 1_565 S
C1637 N1640 1.384 . S
C1638 H1629 0.929 . S
C1638 C1630 1.378 . S
C1638 C1633 1.350 1_565 S
C1639 H1626 0.929 . S
C1639 C1631 1.433 1_545 S
C1639 N1641 1.384 . S
N1640 C1636 1.427 1_565 S
N1640 C1637 1.384 . S
N1641 C1633 1.427 . S
N1641 C1639 1.384 . S
H1642 C1648 0.930 . S
H1643 C1652 0.930 . S
H1644 C1657 0.929 . S
H1645 C1655 0.929 . S
H1646 C1650 0.929 . S
H1647 C1656 0.929 . S
C1648 H1642 0.930 . S
C1648 C1649 1.367 . S
C1648 C1656 1.378 . S
C1649 C1648 1.367 . S
C1649 C1657 1.433 . S
C1650 H1646 0.929 . S
C1650 C1652 1.378 . S
C1650 C1654 1.350 . S
C1651 C1654 1.463 . S
C1651 C1656 1.350 . S
C1651 N1659 1.427 . S
C1652 H1643 0.930 . S
C1652 C1650 1.378 . S
C1652 C1653 1.367 . S
C1653 C1652 1.367 . S
C1653 C1655 1.433 . S
C1654 C1650 1.350 . S
C1654 C1651 1.463 . S
C1654 N1658 1.427 . S
C1655 H1645 0.929 . S
C1655 C1653 1.433 . S
C1655 N1658 1.384 . S
C1656 H1647 0.929 . S
C1656 C1648 1.378 . S
C1656 C1651 1.350 . S
C1657 H1644 0.929 . S
C1657 C1649 1.433 . S
C1657 N1659 1.384 . S
N1658 C1654 1.427 . S
N1658 C1655 1.384 . S
N1659 C1651 1.427 . S
N1659 C1657 1.384 . S
H1660 C1666 0.930 . S
H1661 C1670 0.930 . S
H1662 C1675 0.929 . S
H1663 C1673 0.942 . S
H1664 C1668 0.929 . S
H1665 C1674 0.929 . S
C1666 H1660 0.930 . S
C1666 C1667 1.367 1_545 S
C1666 C1674 1.378 . S
C1667 C1666 1.367 1_565 S
C1667 C1675 1.433 . S
C1668 H1664 0.929 . S
C1668 C1670 1.378 . S
C1668 C1672 1.350 . S
C1669 C1672 1.463 . S
C1669 C1674 1.350 1_565 S
C1669 N1677 1.427 . S
C1670 H1661 0.930 . S
C1670 C1668 1.378 . S
C1670 C1671 1.367 . S
C1671 C1670 1.367 . S
C1671 C1673 1.420 1_565 S
C1672 C1668 1.350 . S
C1672 C1669 1.463 . S
C1672 N1676 1.427 1_565 S
C1673 H1663 0.942 . S
C1673 C1671 1.420 1_545 S
C1673 N1676 1.385 . S
C1674 H1665 0.929 . S
C1674 C1666 1.378 . S
C1674 C1669 1.350 1_545 S
C1675 H1662 0.929 . S
C1675 C1667 1.433 . S
C1675 N1677 1.384 . S
N1676 C1672 1.427 1_545 S
N1676 C1673 1.385 . S
N1677 C1669 1.427 . S
N1677 C1675 1.384 . S
H1678 C1684 0.930 . S
H1679 C1688 0.930 . S
H1680 C1693 0.929 . S
H1681 C1691 0.929 . S
H1682 C1686 0.929 . S
H1683 C1692 0.929 . S
C1684 H1678 0.930 . S
C1684 C1685 1.367 . S
C1684 C1692 1.378 . S
C1685 C1684 1.367 . S
C1685 C1693 1.433 . S
C1686 H1682 0.929 . S
C1686 C1688 1.378 . S
C1686 C1690 1.350 . S
C1687 C1690 1.463 . S
C1687 C1692 1.350 . S
C1687 N1695 1.427 . S
C1688 H1679 0.930 . S
C1688 C1686 1.378 . S
C1688 C1689 1.367 . S
C1689 C1688 1.367 . S
C1689 C1691 1.433 . S
C1690 C1686 1.350 . S
C1690 C1687 1.463 . S
C1690 N1694 1.427 . S
C1691 H1681 0.929 . S
C1691 C1689 1.433 . S
C1691 N1694 1.384 . S
C1692 H1683 0.929 . S
C1692 C1684 1.378 . S
C1692 C1687 1.350 . S
C1693 H1680 0.929 . S
C1693 C1685 1.433 . S
C1693 N1695 1.384 . S
N1694 C1690 1.427 . S
N1694 C1691 1.384 . S
N1695 C1687 1.427 . S
N1695 C1693 1.384 . S
H1696 C1702 0.930 . S
H1697 C1706 0.930 . S
H1698 C1711 0.929 . S
H1699 C1709 0.929 . S
H1700 C1704 0.929 . S
H1701 C1710 0.929 . S
C1702 H1696 0.930 . S
C1702 C1703 1.367 . S
C1702 C1710 1.378 1_554 S
C1703 C1702 1.367 . S
C1703 C1711 1.433 . S
C1704 H1700 0.929 . S
C1704 C1706 1.378 . S
C1704 C1708 1.350 . S
C1705 C1708 1.463 . S
C1705 C1710 1.350 . S
C1705 N1713 1.427 1_556 S
C1706 H1697 0.930 . S
C1706 C1704 1.378 . S
C1706 C1707 1.367 . S
C1707 C1706 1.367 . S
C1707 C1709 1.433 . S
C1708 C1704 1.350 . S
C1708 C1705 1.463 . S
C1708 N1712 1.427 . S
C1709 H1699 0.929 . S
C1709 C1707 1.433 . S
C1709 N1712 1.384 . S
C1710 H1701 0.929 . S
C1710 C1702 1.378 1_556 S
C1710 C1705 1.350 . S
C1711 H1698 0.929 . S
C1711 C1703 1.433 . S
C1711 N1713 1.384 . S
N1712 C1708 1.427 . S
N1712 C1709 1.384 . S
N1713 C1705 1.427 1_554 S
N1713 C1711 1.384 . S
H1714 C1720 0.930 1_556 S
H1715 C1724 0.930 . S
H1716 C1729 0.929 . S
H1717 C1727 0.930 1_556 S
H1718 C1722 0.929 . S
H1719 C1728 0.929 1_556 S
C1720 H1714 0.930 1_554 S
C1720 C1721 1.367 . S
C1720 C1728 1.378 . S
C1721 C1720 1.367 . S
C1721 C1729 1.433 . S
C1722 H1718 0.929 . S
C1722 C1724 1.378 . S
C1722 C1726 1.350 . S
C1723 C1726 1.463 . S
C1723 C1728 1.350 . S
C1723 N1731 1.427 . S
C1724 H1715 0.930 . S
C1724 C1722 1.378 . S
C1724 C1725 1.367 . S
C1725 C1724 1.367 . S
C1725 C1727 1.433 . S
C1726 C1722 1.350 . S
C1726 C1723 1.463 . S
C1726 N1730 1.427 . S
C1727 H1717 0.930 1_554 S
C1727 C1725 1.433 . S
C1727 N1730 1.383 . S
C1728 H1719 0.929 1_554 S
C1728 C1720 1.378 . S
C1728 C1723 1.350 . S
C1729 H1716 0.929 . S
C1729 C1721 1.433 . S
C1729 N1731 1.384 . S
N1730 C1726 1.427 . S
N1730 C1727 1.383 . S
N1731 C1723 1.427 . S
N1731 C1729 1.384 . S
H1732 C1738 0.930 . S
H1733 C1742 0.930 . S
H1734 C1747 0.929 . S
H1735 C1745 0.929 . S
H1736 C1740 0.929 . S
H1737 C1746 0.929 . S
C1738 H1732 0.930 . S
C1738 C1739 1.367 . S
C1738 C1746 1.378 . S
C1739 C1738 1.367 . S
C1739 C1747 1.433 . S
C1740 H1736 0.929 . S
C1740 C1742 1.378 . S
C1740 C1744 1.350 . S
C1741 C1744 1.463 . S
C1741 C1746 1.350 . S
C1741 N1749 1.427 . S
C1742 H1733 0.930 . S
C1742 C1740 1.378 . S
C1742 C1743 1.367 . S
C1743 C1742 1.367 . S
C1743 C1745 1.433 . S
C1744 C1740 1.350 . S
C1744 C1741 1.463 . S
C1744 N1748 1.427 . S
C1745 H1735 0.929 . S
C1745 C1743 1.433 . S
C1745 N1748 1.384 . S
C1746 H1737 0.929 . S
C1746 C1738 1.378 . S
C1746 C1741 1.350 . S
C1747 H1734 0.929 . S
C1747 C1739 1.433 . S
C1747 N1749 1.384 . S
N1748 C1744 1.427 . S
N1748 C1745 1.384 . S
N1749 C1741 1.427 . S
N1749 C1747 1.384 . S
H1750 C1756 0.930 . S
H1751 C1760 0.930 . S
H1752 C1765 0.929 . S
H1753 C1763 0.929 . S
H1754 C1758 0.929 . S
H1755 C1764 0.929 . S
C1756 H1750 0.930 . S
C1756 C1757 1.367 . S
C1756 C1764 1.378 . S
C1757 C1756 1.367 . S
C1757 C1765 1.433 . S
C1758 H1754 0.929 . S
C1758 C1760 1.378 . S
C1758 C1762 1.350 . S
C1759 C1762 1.463 . S
C1759 C1764 1.350 . S
C1759 N1767 1.427 . S
C1760 H1751 0.930 . S
C1760 C1758 1.378 . S
C1760 C1761 1.367 . S
C1761 C1760 1.367 . S
C1761 C1763 1.433 . S
C1762 C1758 1.350 . S
C1762 C1759 1.463 . S
C1762 N1766 1.427 . S
C1763 H1753 0.929 . S
C1763 C1761 1.433 . S
C1763 N1766 1.384 . S
C1764 H1755 0.929 . S
C1764 C1756 1.378 . S
C1764 C1759 1.350 . S
C1765 H1752 0.929 . S
C1765 C1757 1.433 . S
C1765 N1767 1.384 . S
N1766 C1762 1.427 . S
N1766 C1763 1.384 . S
N1767 C1759 1.427 . S
N1767 C1765 1.384 . S
H1768 C1774 0.930 . S
H1769 C1778 0.930 . S
H1770 C1783 0.924 . S
H1771 C1781 0.929 . S
H1772 C1776 0.929 . S
H1773 C1782 0.925 . S
C1774 H1768 0.930 . S
C1774 C1775 1.367 . S
C1774 C1782 1.380 1_545 S
C1775 C1774 1.367 . S
C1775 C1783 1.441 . S
C1776 H1772 0.929 . S
C1776 C1778 1.378 . S
C1776 C1780 1.350 . S
C1777 C1780 1.463 . S
C1777 C1782 1.349 . S
C1777 N1785 1.427 . S
C1778 H1769 0.930 . S
C1778 C1776 1.378 . S
C1778 C1779 1.367 . S
C1779 C1778 1.367 . S
C1779 C1781 1.433 . S
C1780 C1776 1.350 . S
C1780 C1777 1.463 . S
C1780 N1784 1.427 . S
C1781 H1771 0.929 . S
C1781 C1779 1.433 . S
C1781 N1784 1.384 . S
C1782 H1773 0.925 . S
C1782 C1774 1.380 1_565 S
C1782 C1777 1.349 . S
C1783 H1770 0.924 . S
C1783 C1775 1.441 . S
C1783 N1785 1.372 1_545 S
N1784 C1780 1.427 . S
N1784 C1781 1.384 . S
N1785 C1777 1.427 . S
N1785 C1783 1.372 1_565 S
H1786 C1792 0.930 . S
H1787 C1796 0.930 . S
H1788 C1801 0.929 . S
H1789 C1799 0.929 . S
H1790 C1794 0.929 . S
H1791 C1800 0.929 . S
C1792 H1786 0.930 . S
C1792 C1793 1.367 . S
C1792 C1800 1.378 . S
C1793 C1792 1.367 . S
C1793 C1801 1.433 . S
C1794 H1790 0.929 . S
C1794 C1796 1.378 . S
C1794 C1798 1.350 . S
C1795 C1798 1.463 . S
C1795 C1800 1.350 . S
C1795 N1803 1.427 . S
C1796 H1787 0.930 . S
C1796 C1794 1.378 . S
C1796 C1797 1.367 . S
C1797 C1796 1.367 . S
C1797 C1799 1.433 . S
C1798 C1794 1.350 . S
C1798 C1795 1.463 . S
C1798 N1802 1.427 . S
C1799 H1789 0.929 . S
C1799 C1797 1.433 . S
C1799 N1802 1.384 . S
C1800 H1791 0.929 . S
C1800 C1792 1.378 . S
C1800 C1795 1.350 . S
C1801 H1788 0.929 . S
C1801 C1793 1.433 . S
C1801 N1803 1.384 . S
N1802 C1798 1.427 . S
N1802 C1799 1.384 . S
N1803 C1795 1.427 . S
N1803 C1801 1.384 . S
H1804 C1810 0.930 . S
H1805 C1814 0.930 . S
H1806 C1819 0.929 . S
H1807 C1817 0.929 . S
H1808 C1812 0.929 . S
H1809 C1818 0.929 . S
C1810 H1804 0.930 . S
C1810 C1811 1.367 . S
C1810 C1818 1.378 . S
C1811 C1810 1.367 . S
C1811 C1819 1.433 . S
C1812 H1808 0.929 . S
C1812 C1814 1.378 . S
C1812 C1816 1.350 . S
C1813 C1816 1.463 . S
C1813 C1818 1.350 . S
C1813 N1821 1.427 . S
C1814 H1805 0.930 . S
C1814 C1812 1.378 . S
C1814 C1815 1.367 . S
C1815 C1814 1.367 . S
C1815 C1817 1.433 . S
C1816 C1812 1.350 . S
C1816 C1813 1.463 . S
C1816 N1820 1.427 . S
C1817 H1807 0.929 . S
C1817 C1815 1.433 . S
C1817 N1820 1.384 . S
C1818 H1809 0.929 . S
C1818 C1810 1.378 . S
C1818 C1813 1.350 . S
C1819 H1806 0.929 . S
C1819 C1811 1.433 . S
C1819 N1821 1.384 . S
N1820 C1816 1.427 . S
N1820 C1817 1.384 . S
N1821 C1813 1.427 . S
N1821 C1819 1.384 . S
H1822 C1828 0.930 . S
H1823 C1832 0.930 . S
H1824 C1837 0.929 . S
H1825 C1835 0.929 . S
H1826 C1830 0.929 . S
H1827 C1836 0.929 . S
C1828 H1822 0.930 . S
C1828 C1829 1.367 . S
C1828 C1836 1.378 . S
C1829 C1828 1.367 . S
C1829 C1837 1.433 . S
C1830 H1826 0.929 . S
C1830 C1832 1.378 . S
C1830 C1834 1.350 . S
C1831 C1834 1.463 . S
C1831 C1836 1.350 . S
C1831 N1839 1.427 . S
C1832 H1823 0.930 . S
C1832 C1830 1.378 . S
C1832 C1833 1.367 . S
C1833 C1832 1.367 . S
C1833 C1835 1.433 . S
C1834 C1830 1.350 . S
C1834 C1831 1.463 . S
C1834 N1838 1.427 . S
C1835 H1825 0.929 . S
C1835 C1833 1.433 . S
C1835 N1838 1.384 . S
C1836 H1827 0.929 . S
C1836 C1828 1.378 . S
C1836 C1831 1.350 . S
C1837 H1824 0.929 . S
C1837 C1829 1.433 . S
C1837 N1839 1.384 . S
N1838 C1834 1.427 . S
N1838 C1835 1.384 . S
N1839 C1831 1.427 . S
N1839 C1837 1.384 . S
H1840 C1846 0.930 . S
H1841 C1850 0.930 . S
H1842 C1855 0.929 . S
H1843 C1853 0.929 . S
H1844 C1848 0.929 . S
H1845 C1854 0.929 . S
C1846 H1840 0.930 . S
C1846 C1847 1.367 . S
C1846 C1854 1.378 . S
C1847 C1846 1.367 . S
C1847 C1855 1.433 . S
C1848 H1844 0.929 . S
C1848 C1850 1.378 . S
C1848 C1852 1.350 . S
C1849 C1852 1.463 . S
C1849 C1854 1.350 . S
C1849 N1857 1.427 . S
C1850 H1841 0.930 . S
C1850 C1848 1.378 . S
C1850 C1851 1.367 . S
C1851 C1850 1.367 . S
C1851 C1853 1.433 . S
C1852 C1848 1.350 . S
C1852 C1849 1.463 . S
C1852 N1856 1.427 . S
C1853 H1843 0.929 . S
C1853 C1851 1.433 . S
C1853 N1856 1.384 . S
C1854 H1845 0.929 . S
C1854 C1846 1.378 . S
C1854 C1849 1.350 . S
C1855 H1842 0.929 . S
C1855 C1847 1.433 . S
C1855 N1857 1.384 . S
N1856 C1852 1.427 . S
N1856 C1853 1.384 . S
N1857 C1849 1.427 . S
N1857 C1855 1.384 . S
H1858 C1864 0.930 . S
H1859 C1868 0.930 . S
H1860 C1873 0.929 . S
H1861 C1871 0.929 . S
H1862 C1866 0.929 . S
H1863 C1872 0.929 . S
C1864 H1858 0.930 . S
C1864 C1865 1.367 . S
C1864 C1872 1.378 . S
C1865 C1864 1.367 . S
C1865 C1873 1.433 . S
C1866 H1862 0.929 . S
C1866 C1868 1.378 . S
C1866 C1870 1.350 . S
C1867 C1870 1.463 . S
C1867 C1872 1.350 . S
C1867 N1875 1.427 . S
C1868 H1859 0.930 . S
C1868 C1866 1.378 . S
C1868 C1869 1.367 . S
C1869 C1868 1.367 . S
C1869 C1871 1.433 . S
C1870 C1866 1.350 . S
C1870 C1867 1.463 . S
C1870 N1874 1.427 . S
C1871 H1861 0.929 . S
C1871 C1869 1.433 . S
C1871 N1874 1.384 . S
C1872 H1863 0.929 . S
C1872 C1864 1.378 . S
C1872 C1867 1.350 . S
C1873 H1860 0.929 . S
C1873 C1865 1.433 . S
C1873 N1875 1.384 . S
N1874 C1870 1.427 . S
N1874 C1871 1.384 . S
N1875 C1867 1.427 . S
N1875 C1873 1.384 . S
H1876 C1882 0.930 . S
H1877 C1886 0.930 . S
H1878 C1891 0.929 . S
H1879 C1889 0.929 . S
H1880 C1884 0.965 . S
H1881 C1890 0.929 . S
C1882 H1876 0.930 . S
C1882 C1883 1.367 . S
C1882 C1890 1.378 . S
C1883 C1882 1.367 . S
C1883 C1891 1.433 . S
C1884 H1880 0.965 . S
C1884 C1886 1.383 . S
C1884 C1888 1.311 1_554 S
C1885 C1888 1.463 . S
C1885 C1890 1.350 . S
C1885 N1893 1.427 . S
C1886 H1877 0.930 . S
C1886 C1884 1.383 . S
C1886 C1887 1.367 1_554 S
C1887 C1886 1.367 1_556 S
C1887 C1889 1.433 . S
C1888 C1884 1.311 1_556 S
C1888 C1885 1.463 . S
C1888 N1892 1.427 . S
C1889 H1879 0.929 . S
C1889 C1887 1.433 . S
C1889 N1892 1.384 . S
C1890 H1881 0.929 . S
C1890 C1882 1.378 . S
C1890 C1885 1.350 . S
C1891 H1878 0.929 . S
C1891 C1883 1.433 . S
C1891 N1893 1.384 . S
N1892 C1888 1.427 . S
N1892 C1889 1.384 . S
N1893 C1885 1.427 . S
N1893 C1891 1.384 . S
H1894 C1900 0.930 . S
H1895 C1904 0.930 . S
H1896 C1909 0.929 . S
H1897 C1907 0.929 . S
H1898 C1902 0.929 . S
H1899 C1908 0.929 . S
C1900 H1894 0.930 . S
C1900 C1901 1.367 . S
C1900 C1908 1.378 1_455 S
C1901 C1900 1.367 . S
C1901 C1909 1.433 . S
C1902 H1898 0.929 . S
C1902 C1904 1.378 . S
C1902 C1906 1.350 . S
C1903 C1906 1.463 . S
C1903 C1908 1.350 . S
C1903 N1911 1.427 1_655 S
C1904 H1895 0.930 . S
C1904 C1902 1.378 . S
C1904 C1905 1.367 . S
C1905 C1904 1.367 . S
C1905 C1907 1.433 . S
C1906 C1902 1.350 . S
C1906 C1903 1.463 . S
C1906 N1910 1.427 . S
C1907 H1897 0.929 . S
C1907 C1905 1.433 . S
C1907 N1910 1.384 . S
C1908 H1899 0.929 . S
C1908 C1900 1.378 1_655 S
C1908 C1903 1.350 . S
C1909 H1896 0.929 . S
C1909 C1901 1.433 . S
C1909 N1911 1.384 . S
N1910 C1906 1.427 . S
N1910 C1907 1.384 . S
N1911 C1903 1.427 1_455 S
N1911 C1909 1.384 . S
H1912 C1918 0.930 . S
H1913 C1922 0.930 . S
H1914 C1927 0.929 . S
H1915 C1925 0.929 . S
H1916 C1920 0.929 . S
H1917 C1926 0.929 . S
C1918 H1912 0.930 . S
C1918 C1919 1.367 . S
C1918 C1926 1.378 . S
C1919 C1918 1.367 . S
C1919 C1927 1.433 . S
C1920 H1916 0.929 . S
C1920 C1922 1.378 . S
C1920 C1924 1.350 . S
C1921 C1924 1.463 . S
C1921 C1926 1.350 . S
C1921 N1929 1.427 . S
C1922 H1913 0.930 . S
C1922 C1920 1.378 . S
C1922 C1923 1.367 . S
C1923 C1922 1.367 . S
C1923 C1925 1.433 . S
C1924 C1920 1.350 . S
C1924 C1921 1.463 . S
C1924 N1928 1.427 . S
C1925 H1915 0.929 . S
C1925 C1923 1.433 . S
C1925 N1928 1.384 . S
C1926 H1917 0.929 . S
C1926 C1918 1.378 . S
C1926 C1921 1.350 . S
C1927 H1914 0.929 . S
C1927 C1919 1.433 . S
C1927 N1929 1.384 . S
N1928 C1924 1.427 . S
N1928 C1925 1.384 . S
N1929 C1921 1.427 . S
N1929 C1927 1.384 . S
H1930 C1936 0.930 . S
H1931 C1940 0.930 . S
H1932 C1945 0.929 . S
H1933 C1943 0.929 . S
H1934 C1938 0.929 . S
H1935 C1944 0.929 . S
C1936 H1930 0.930 . S
C1936 C1937 1.367 . S
C1936 C1944 1.378 . S
C1937 C1936 1.367 . S
C1937 C1945 1.433 . S
C1938 H1934 0.929 . S
C1938 C1940 1.378 . S
C1938 C1942 1.350 . S
C1939 C1942 1.463 1_455 S
C1939 C1944 1.350 . S
C1939 N1947 1.427 . S
C1940 H1931 0.930 . S
C1940 C1938 1.378 . S
C1940 C1941 1.367 . S
C1941 C1940 1.367 . S
C1941 C1943 1.433 . S
C1942 C1938 1.350 . S
C1942 C1939 1.463 1_655 S
C1942 N1946 1.427 . S
C1943 H1933 0.929 . S
C1943 C1941 1.433 . S
C1943 N1946 1.384 . S
C1944 H1935 0.929 . S
C1944 C1936 1.378 . S
C1944 C1939 1.350 . S
C1945 H1932 0.929 . S
C1945 C1937 1.433 . S
C1945 N1947 1.384 . S
N1946 C1942 1.427 . S
N1946 C1943 1.384 . S
N1947 C1939 1.427 . S
N1947 C1945 1.384 . S
H1948 C1954 0.930 . S
H1949 C1958 0.930 . S
H1950 C1963 0.929 . S
H1951 C1961 0.929 . S
H1952 C1956 0.929 . S
H1953 C1962 0.929 . S
C1954 H1948 0.930 . S
C1954 C1955 1.367 . S
C1954 C1962 1.378 1_655 S
C1955 C1954 1.367 . S
C1955 C1963 1.433 1_655 S
C1956 H1952 0.929 . S
C1956 C1958 1.378 . S
C1956 C1960 1.350 . S
C1957 C1960 1.463 . S
C1957 C1962 1.350 . S
C1957 N1965 1.427 . S
C1958 H1949 0.930 . S
C1958 C1956 1.378 . S
C1958 C1959 1.367 . S
C1959 C1958 1.367 . S
C1959 C1961 1.433 . S
C1960 C1956 1.350 . S
C1960 C1957 1.463 . S
C1960 N1964 1.427 . S
C1961 H1951 0.929 . S
C1961 C1959 1.433 . S
C1961 N1964 1.384 . S
C1962 H1953 0.929 . S
C1962 C1954 1.378 1_455 S
C1962 C1957 1.350 . S
C1963 H1950 0.929 . S
C1963 C1955 1.433 1_455 S
C1963 N1965 1.384 . S
N1964 C1960 1.427 . S
N1964 C1961 1.384 . S
N1965 C1957 1.427 . S
N1965 C1963 1.384 . S
H1966 C1972 0.930 . S
H1967 C1976 0.930 . S
H1968 C1981 0.929 . S
H1969 C1979 0.929 . S
H1970 C1974 0.929 . S
H1971 C1980 0.929 . S
C1972 H1966 0.930 . S
C1972 C1973 1.367 . S
C1972 C1980 1.378 . S
C1973 C1972 1.367 . S
C1973 C1981 1.433 . S
C1974 H1970 0.929 . S
C1974 C1976 1.378 . S
C1974 C1978 1.350 . S
C1975 C1978 1.463 . S
C1975 C1980 1.350 . S
C1975 N1983 1.427 . S
C1976 H1967 0.930 . S
C1976 C1974 1.378 . S
C1976 C1977 1.367 . S
C1977 C1976 1.367 . S
C1977 C1979 1.433 . S
C1978 C1974 1.350 . S
C1978 C1975 1.463 . S
C1978 N1982 1.427 . S
C1979 H1969 0.929 . S
C1979 C1977 1.433 . S
C1979 N1982 1.384 . S
C1980 H1971 0.929 . S
C1980 C1972 1.378 . S
C1980 C1975 1.350 . S
C1981 H1968 0.929 . S
C1981 C1973 1.433 . S
C1981 N1983 1.384 . S
N1982 C1978 1.427 . S
N1982 C1979 1.384 . S
N1983 C1975 1.427 . S
N1983 C1981 1.384 . S
H1984 C1990 0.930 . S
H1985 C1994 0.930 . S
H1986 C1999 0.929 . S
H1987 C1997 0.929 . S
H1988 C1992 0.929 . S
H1989 C1998 0.929 . S
C1990 H1984 0.930 . S
C1990 C1991 1.367 . S
C1990 C1998 1.378 . S
C1991 C1990 1.367 . S
C1991 C1999 1.433 . S
C1992 H1988 0.929 . S
C1992 C1994 1.378 . S
C1992 C1996 1.350 . S
C1993 C1996 1.463 . S
C1993 C1998 1.350 . S
C1993 N2001 1.427 . S
C1994 H1985 0.930 . S
C1994 C1992 1.378 . S
C1994 C1995 1.367 . S
C1995 C1994 1.367 . S
C1995 C1997 1.433 . S
C1996 C1992 1.350 . S
C1996 C1993 1.463 . S
C1996 N2000 1.427 . S
C1997 H1987 0.929 . S
C1997 C1995 1.433 . S
C1997 N2000 1.384 . S
C1998 H1989 0.929 . S
C1998 C1990 1.378 . S
C1998 C1993 1.350 . S
C1999 H1986 0.929 . S
C1999 C1991 1.433 . S
C1999 N2001 1.384 . S
N2000 C1996 1.427 . S
N2000 C1997 1.384 . S
N2001 C1993 1.427 . S
N2001 C1999 1.384 . S
H2002 C2008 0.930 . S
H2003 C2012 0.930 . S
H2004 C2017 0.929 . S
H2005 C2015 0.929 . S
H2006 C2010 0.929 . S
H2007 C2016 0.929 . S
C2008 H2002 0.930 . S
C2008 C2009 1.367 . S
C2008 C2016 1.378 . S
C2009 C2008 1.367 . S
C2009 C2017 1.433 . S
C2010 H2006 0.929 . S
C2010 C2012 1.378 . S
C2010 C2014 1.350 . S
C2011 C2014 1.463 . S
C2011 C2016 1.350 . S
C2011 N2019 1.427 . S
C2012 H2003 0.930 . S
C2012 C2010 1.378 . S
C2012 C2013 1.367 . S
C2013 C2012 1.367 . S
C2013 C2015 1.433 . S
C2014 C2010 1.350 . S
C2014 C2011 1.463 . S
C2014 N2018 1.427 . S
C2015 H2005 0.929 . S
C2015 C2013 1.433 . S
C2015 N2018 1.384 . S
C2016 H2007 0.929 . S
C2016 C2008 1.378 . S
C2016 C2011 1.350 . S
C2017 H2004 0.929 . S
C2017 C2009 1.433 . S
C2017 N2019 1.384 . S
N2018 C2014 1.427 . S
N2018 C2015 1.384 . S
N2019 C2011 1.427 . S
N2019 C2017 1.384 . S
H2020 C2026 0.930 . S
H2021 C2030 0.930 . S
H2022 C2035 0.929 . S
H2023 C2033 0.929 . S
H2024 C2028 0.929 . S
H2025 C2034 0.929 . S
C2026 H2020 0.930 . S
C2026 C2027 1.367 . S
C2026 C2034 1.378 . S
C2027 C2026 1.367 . S
C2027 C2035 1.433 . S
C2028 H2024 0.929 . S
C2028 C2030 1.378 . S
C2028 C2032 1.350 . S
C2029 C2032 1.463 . S
C2029 C2034 1.350 . S
C2029 N2037 1.427 . S
C2030 H2021 0.930 . S
C2030 C2028 1.378 . S
C2030 C2031 1.367 . S
C2031 C2030 1.367 . S
C2031 C2033 1.433 . S
C2032 C2028 1.350 . S
C2032 C2029 1.463 . S
C2032 N2036 1.427 . S
C2033 H2023 0.929 . S
C2033 C2031 1.433 . S
C2033 N2036 1.384 . S
C2034 H2025 0.929 . S
C2034 C2026 1.378 . S
C2034 C2029 1.350 . S
C2035 H2022 0.929 . S
C2035 C2027 1.433 . S
C2035 N2037 1.384 . S
N2036 C2032 1.427 . S
N2036 C2033 1.384 . S
N2037 C2029 1.427 . S
N2037 C2035 1.384 . S
H2038 C2044 0.930 . S
H2039 C2048 0.930 . S
H2040 C2053 0.929 . S
H2041 C2051 0.929 . S
H2042 C2046 0.929 . S
H2043 C2052 0.929 . S
C2044 H2038 0.930 . S
C2044 C2045 1.367 . S
C2044 C2052 1.378 . S
C2045 C2044 1.367 . S
C2045 C2053 1.433 . S
C2046 H2042 0.929 . S
C2046 C2048 1.378 . S
C2046 C2050 1.350 . S
C2047 C2050 1.463 . S
C2047 C2052 1.350 . S
C2047 N2055 1.427 . S
C2048 H2039 0.930 . S
C2048 C2046 1.378 . S
C2048 C2049 1.367 . S
C2049 C2048 1.367 . S
C2049 C2051 1.433 . S
C2050 C2046 1.350 . S
C2050 C2047 1.463 . S
C2050 N2054 1.427 . S
C2051 H2041 0.929 . S
C2051 C2049 1.433 . S
C2051 N2054 1.384 . S
C2052 H2043 0.929 . S
C2052 C2044 1.378 . S
C2052 C2047 1.350 . S
C2053 H2040 0.929 . S
C2053 C2045 1.433 . S
C2053 N2055 1.384 . S
N2054 C2050 1.427 . S
N2054 C2051 1.384 . S
N2055 C2047 1.427 . S
N2055 C2053 1.384 . S
H2056 C2062 0.930 . S
H2057 C2066 0.930 . S
H2058 C2071 0.929 . S
H2059 C2069 0.929 . S
H2060 C2064 0.929 . S
H2061 C2070 0.929 . S
C2062 H2056 0.930 . S
C2062 C2063 1.367 . S
C2062 C2070 1.378 . S
C2063 C2062 1.367 . S
C2063 C2071 1.433 . S
C2064 H2060 0.929 . S
C2064 C2066 1.378 . S
C2064 C2068 1.350 . S
C2065 C2068 1.463 . S
C2065 C2070 1.350 . S
C2065 N2073 1.427 . S
C2066 H2057 0.930 . S
C2066 C2064 1.378 . S
C2066 C2067 1.367 . S
C2067 C2066 1.367 . S
C2067 C2069 1.433 . S
C2068 C2064 1.350 . S
C2068 C2065 1.463 . S
C2068 N2072 1.427 . S
C2069 H2059 0.929 . S
C2069 C2067 1.433 . S
C2069 N2072 1.384 . S
C2070 H2061 0.929 . S
C2070 C2062 1.378 . S
C2070 C2065 1.350 . S
C2071 H2058 0.929 . S
C2071 C2063 1.433 . S
C2071 N2073 1.384 . S
N2072 C2068 1.427 . S
N2072 C2069 1.384 . S
N2073 C2065 1.427 . S
N2073 C2071 1.384 . S
H2074 C2080 0.930 . S
H2075 C2084 0.930 . S
H2076 C2089 0.929 . S
H2077 C2087 0.929 . S
H2078 C2082 0.929 . S
H2079 C2088 0.929 . S
C2080 H2074 0.930 . S
C2080 C2081 1.367 . S
C2080 C2088 1.378 . S
C2081 C2080 1.367 . S
C2081 C2089 1.433 . S
C2082 H2078 0.929 . S
C2082 C2084 1.378 . S
C2082 C2086 1.350 . S
C2083 C2086 1.463 . S
C2083 C2088 1.350 . S
C2083 N2091 1.427 . S
C2084 H2075 0.930 . S
C2084 C2082 1.378 . S
C2084 C2085 1.367 . S
C2085 C2084 1.367 . S
C2085 C2087 1.433 . S
C2086 C2082 1.350 . S
C2086 C2083 1.463 . S
C2086 N2090 1.427 . S
C2087 H2077 0.929 . S
C2087 C2085 1.433 . S
C2087 N2090 1.384 . S
C2088 H2079 0.929 . S
C2088 C2080 1.378 . S
C2088 C2083 1.350 . S
C2089 H2076 0.929 . S
C2089 C2081 1.433 . S
C2089 N2091 1.384 . S
N2090 C2086 1.427 . S
N2090 C2087 1.384 . S
N2091 C2083 1.427 . S
N2091 C2089 1.384 . S
H2092 C2098 0.930 . S
H2093 C2102 0.930 . S
H2094 C2107 0.929 . S
H2095 C2105 0.929 . S
H2096 C2100 0.929 . S
H2097 C2106 0.929 . S
C2098 H2092 0.930 . S
C2098 C2099 1.367 . S
C2098 C2106 1.378 . S
C2099 C2098 1.367 . S
C2099 C2107 1.433 . S
C2100 H2096 0.929 . S
C2100 C2102 1.378 . S
C2100 C2104 1.350 . S
C2101 C2104 1.463 . S
C2101 C2106 1.350 . S
C2101 N2109 1.427 . S
C2102 H2093 0.930 . S
C2102 C2100 1.378 . S
C2102 C2103 1.367 . S
C2103 C2102 1.367 . S
C2103 C2105 1.433 . S
C2104 C2100 1.350 . S
C2104 C2101 1.463 . S
C2104 N2108 1.427 . S
C2105 H2095 0.929 . S
C2105 C2103 1.433 . S
C2105 N2108 1.384 . S
C2106 H2097 0.929 . S
C2106 C2098 1.378 . S
C2106 C2101 1.350 . S
C2107 H2094 0.929 . S
C2107 C2099 1.433 . S
C2107 N2109 1.384 . S
N2108 C2104 1.427 . S
N2108 C2105 1.384 . S
N2109 C2101 1.427 . S
N2109 C2107 1.384 . S
H2110 C2116 0.930 . S
H2111 C2120 0.930 . S
H2112 C2125 0.929 . S
H2113 C2123 0.929 . S
H2114 C2118 0.929 . S
H2115 C2124 0.929 . S
C2116 H2110 0.930 . S
C2116 C2117 1.367 . S
C2116 C2124 1.378 . S
C2117 C2116 1.367 . S
C2117 C2125 1.433 . S
C2118 H2114 0.929 . S
C2118 C2120 1.378 . S
C2118 C2122 1.350 . S
C2119 C2122 1.463 . S
C2119 C2124 1.350 . S
C2119 N2127 1.427 . S
C2120 H2111 0.930 . S
C2120 C2118 1.378 . S
C2120 C2121 1.367 . S
C2121 C2120 1.367 . S
C2121 C2123 1.433 . S
C2122 C2118 1.350 . S
C2122 C2119 1.463 . S
C2122 N2126 1.427 . S
C2123 H2113 0.929 . S
C2123 C2121 1.433 . S
C2123 N2126 1.384 . S
C2124 H2115 0.929 . S
C2124 C2116 1.378 . S
C2124 C2119 1.350 . S
C2125 H2112 0.929 . S
C2125 C2117 1.433 . S
C2125 N2127 1.384 . S
N2126 C2122 1.427 . S
N2126 C2123 1.384 . S
N2127 C2119 1.427 . S
N2127 C2125 1.384 . S
H2128 C2134 0.930 . S
H2129 C2138 0.930 . S
H2130 C2143 0.929 . S
H2131 C2141 0.929 . S
H2132 C2136 0.929 . S
H2133 C2142 0.929 . S
C2134 H2128 0.930 . S
C2134 C2135 1.367 . S
C2134 C2142 1.378 . S
C2135 C2134 1.367 . S
C2135 C2143 1.433 . S
C2136 H2132 0.929 . S
C2136 C2138 1.378 . S
C2136 C2140 1.350 . S
C2137 C2140 1.463 . S
C2137 C2142 1.350 . S
C2137 N2145 1.427 . S
C2138 H2129 0.930 . S
C2138 C2136 1.378 . S
C2138 C2139 1.367 . S
C2139 C2138 1.367 . S
C2139 C2141 1.433 . S
C2140 C2136 1.350 . S
C2140 C2137 1.463 . S
C2140 N2144 1.427 . S
C2141 H2131 0.929 . S
C2141 C2139 1.433 . S
C2141 N2144 1.384 . S
C2142 H2133 0.929 . S
C2142 C2134 1.378 . S
C2142 C2137 1.350 . S
C2143 H2130 0.929 . S
C2143 C2135 1.433 . S
C2143 N2145 1.384 . S
N2144 C2140 1.427 . S
N2144 C2141 1.384 . S
N2145 C2137 1.427 . S
N2145 C2143 1.384 . S
H2146 C2152 0.930 . S
H2147 C2156 0.930 . S
H2148 C2161 0.929 . S
H2149 C2159 0.929 . S
H2150 C2154 0.929 . S
H2151 C2160 0.929 . S
C2152 H2146 0.930 . S
C2152 C2153 1.367 . S
C2152 C2160 1.378 . S
C2153 C2152 1.367 . S
C2153 C2161 1.433 . S
C2154 H2150 0.929 . S
C2154 C2156 1.378 . S
C2154 C2158 1.350 . S
C2155 C2158 1.463 . S
C2155 C2160 1.350 . S
C2155 N2163 1.427 . S
C2156 H2147 0.930 . S
C2156 C2154 1.378 . S
C2156 C2157 1.367 . S
C2157 C2156 1.367 . S
C2157 C2159 1.433 . S
C2158 C2154 1.350 . S
C2158 C2155 1.463 . S
C2158 N2162 1.427 . S
C2159 H2149 0.929 . S
C2159 C2157 1.433 . S
C2159 N2162 1.384 . S
C2160 H2151 0.929 . S
C2160 C2152 1.378 . S
C2160 C2155 1.350 . S
C2161 H2148 0.929 . S
C2161 C2153 1.433 . S
C2161 N2163 1.384 . S
N2162 C2158 1.427 . S
N2162 C2159 1.384 . S
N2163 C2155 1.427 . S
N2163 C2161 1.384 . S
H2164 C2170 0.930 . S
H2165 C2174 0.930 . S
H2166 C2179 0.929 . S
H2167 C2177 0.929 . S
H2168 C2172 0.929 . S
H2169 C2178 0.929 . S
C2170 H2164 0.930 . S
C2170 C2171 1.367 . S
C2170 C2178 1.378 . S
C2171 C2170 1.367 . S
C2171 C2179 1.433 . S
C2172 H2168 0.929 . S
C2172 C2174 1.378 . S
C2172 C2176 1.350 . S
C2173 C2176 1.463 . S
C2173 C2178 1.350 . S
C2173 N2181 1.427 . S
C2174 H2165 0.930 . S
C2174 C2172 1.378 . S
C2174 C2175 1.367 . S
C2175 C2174 1.367 . S
C2175 C2177 1.433 . S
C2176 C2172 1.350 . S
C2176 C2173 1.463 . S
C2176 N2180 1.427 . S
C2177 H2167 0.929 . S
C2177 C2175 1.433 . S
C2177 N2180 1.384 . S
C2178 H2169 0.929 . S
C2178 C2170 1.378 . S
C2178 C2173 1.350 . S
C2179 H2166 0.929 . S
C2179 C2171 1.433 . S
C2179 N2181 1.384 . S
N2180 C2176 1.427 . S
N2180 C2177 1.384 . S
N2181 C2173 1.427 . S
N2181 C2179 1.384 . S
H2182 C2188 0.930 . S
H2183 C2192 0.930 . S
H2184 C2197 0.929 . S
H2185 C2195 0.929 . S
H2186 C2190 0.929 . S
H2187 C2196 0.929 . S
C2188 H2182 0.930 . S
C2188 C2189 1.367 1_556 S
C2188 C2196 1.378 . S
C2189 C2188 1.367 1_554 S
C2189 C2197 1.433 . S
C2190 H2186 0.929 . S
C2190 C2192 1.378 . S
C2190 C2194 1.350 1_545 S
C2191 C2194 1.463 . S
C2191 C2196 1.350 1_554 S
C2191 N2199 1.427 . S
C2192 H2183 0.930 . S
C2192 C2190 1.378 . S
C2192 C2193 1.367 . S
C2193 C2192 1.367 . S
C2193 C2195 1.433 1_544 S
C2194 C2190 1.350 1_565 S
C2194 C2191 1.463 . S
C2194 N2198 1.427 1_554 S
C2195 H2185 0.929 . S
C2195 C2193 1.433 1_566 S
C2195 N2198 1.384 . S
C2196 H2187 0.929 . S
C2196 C2188 1.378 . S
C2196 C2191 1.350 1_556 S
C2197 H2184 0.929 . S
C2197 C2189 1.433 . S
C2197 N2199 1.384 . S
N2198 C2194 1.427 1_556 S
N2198 C2195 1.384 . S
N2199 C2191 1.427 . S
N2199 C2197 1.384 . S
H2200 C2206 0.930 . S
H2201 C2210 0.930 . S
H2202 C2215 0.929 . S
H2203 C2213 0.929 . S
H2204 C2208 0.929 . S
H2205 C2214 0.929 . S
C2206 H2200 0.930 . S
C2206 C2207 1.367 . S
C2206 C2214 1.378 . S
C2207 C2206 1.367 . S
C2207 C2215 1.433 . S
C2208 H2204 0.929 . S
C2208 C2210 1.378 . S
C2208 C2212 1.350 . S
C2209 C2212 1.463 . S
C2209 C2214 1.350 . S
C2209 N2217 1.427 . S
C2210 H2201 0.930 . S
C2210 C2208 1.378 . S
C2210 C2211 1.367 . S
C2211 C2210 1.367 . S
C2211 C2213 1.433 . S
C2212 C2208 1.350 . S
C2212 C2209 1.463 . S
C2212 N2216 1.427 . S
C2213 H2203 0.929 . S
C2213 C2211 1.433 . S
C2213 N2216 1.384 . S
C2214 H2205 0.929 . S
C2214 C2206 1.378 . S
C2214 C2209 1.350 . S
C2215 H2202 0.929 . S
C2215 C2207 1.433 . S
C2215 N2217 1.384 . S
N2216 C2212 1.427 . S
N2216 C2213 1.384 . S
N2217 C2209 1.427 . S
N2217 C2215 1.384 . S
H2218 C2224 0.930 . S
H2219 C2228 0.930 . S
H2220 C2233 0.929 . S
H2221 C2231 0.929 . S
H2222 C2226 0.929 1_556 S
H2223 C2232 0.929 . S
C2224 H2218 0.930 . S
C2224 C2225 1.367 . S
C2224 C2232 1.378 . S
C2225 C2224 1.367 . S
C2225 C2233 1.433 1_554 S
C2226 H2222 0.929 1_554 S
C2226 C2228 1.378 . S
C2226 C2230 1.350 . S
C2227 C2230 1.463 . S
C2227 C2232 1.350 . S
C2227 N2235 1.427 1_554 S
C2228 H2219 0.930 . S
C2228 C2226 1.378 . S
C2228 C2229 1.367 . S
C2229 C2228 1.367 . S
C2229 C2231 1.433 . S
C2230 C2226 1.350 . S
C2230 C2227 1.463 . S
C2230 N2234 1.427 . S
C2231 H2221 0.929 . S
C2231 C2229 1.433 . S
C2231 N2234 1.384 . S
C2232 H2223 0.929 . S
C2232 C2224 1.378 . S
C2232 C2227 1.350 . S
C2233 H2220 0.929 . S
C2233 C2225 1.433 1_556 S
C2233 N2235 1.384 . S
N2234 C2230 1.427 . S
N2234 C2231 1.384 . S
N2235 C2227 1.427 1_556 S
N2235 C2233 1.384 . S
H2236 C2242 0.930 . S
H2237 C2246 0.930 . S
H2238 C2251 0.929 . S
H2239 C2249 0.929 . S
H2240 C2244 0.929 . S
H2241 C2250 0.929 . S
C2242 H2236 0.930 . S
C2242 C2243 1.367 . S
C2242 C2250 1.378 . S
C2243 C2242 1.367 . S
C2243 C2251 1.433 . S
C2244 H2240 0.929 . S
C2244 C2246 1.378 . S
C2244 C2248 1.350 . S
C2245 C2248 1.463 . S
C2245 C2250 1.350 . S
C2245 N2253 1.427 . S
C2246 H2237 0.930 . S
C2246 C2244 1.378 . S
C2246 C2247 1.367 . S
C2247 C2246 1.367 . S
C2247 C2249 1.433 . S
C2248 C2244 1.350 . S
C2248 C2245 1.463 . S
C2248 N2252 1.427 . S
C2249 H2239 0.929 . S
C2249 C2247 1.433 . S
C2249 N2252 1.384 . S
C2250 H2241 0.929 . S
C2250 C2242 1.378 . S
C2250 C2245 1.350 . S
C2251 H2238 0.929 . S
C2251 C2243 1.433 . S
C2251 N2253 1.384 . S
N2252 C2248 1.427 . S
N2252 C2249 1.384 . S
N2253 C2245 1.427 . S
N2253 C2251 1.384 . S
H2254 C2260 0.930 . S
H2255 C2264 0.930 . S
H2256 C2269 0.929 . S
H2257 C2267 0.929 . S
H2258 C2262 0.929 . S
H2259 C2268 0.929 . S
C2260 H2254 0.930 . S
C2260 C2261 1.367 . S
C2260 C2268 1.378 . S
C2261 C2260 1.367 . S
C2261 C2269 1.433 . S
C2262 H2258 0.929 . S
C2262 C2264 1.378 . S
C2262 C2266 1.350 . S
C2263 C2266 1.463 . S
C2263 C2268 1.350 . S
C2263 N2271 1.427 . S
C2264 H2255 0.930 . S
C2264 C2262 1.378 . S
C2264 C2265 1.367 . S
C2265 C2264 1.367 . S
C2265 C2267 1.433 . S
C2266 C2262 1.350 . S
C2266 C2263 1.463 . S
C2266 N2270 1.427 . S
C2267 H2257 0.929 . S
C2267 C2265 1.433 . S
C2267 N2270 1.384 . S
C2268 H2259 0.929 . S
C2268 C2260 1.378 . S
C2268 C2263 1.350 . S
C2269 H2256 0.929 . S
C2269 C2261 1.433 . S
C2269 N2271 1.384 . S
N2270 C2266 1.427 . S
N2270 C2267 1.384 . S
N2271 C2263 1.427 . S
N2271 C2269 1.384 . S
H2272 C2278 0.930 . S
H2273 C2282 0.930 . S
H2274 C2287 0.929 . S
H2275 C2285 0.929 . S
H2276 C2280 0.929 . S
H2277 C2286 0.929 . S
C2278 H2272 0.930 . S
C2278 C2279 1.367 . S
C2278 C2286 1.378 . S
C2279 C2278 1.367 . S
C2279 C2287 1.433 . S
C2280 H2276 0.929 . S
C2280 C2282 1.378 . S
C2280 C2284 1.350 . S
C2281 C2284 1.463 . S
C2281 C2286 1.350 . S
C2281 N2289 1.427 . S
C2282 H2273 0.930 . S
C2282 C2280 1.378 . S
C2282 C2283 1.367 . S
C2283 C2282 1.367 . S
C2283 C2285 1.433 . S
C2284 C2280 1.350 . S
C2284 C2281 1.463 . S
C2284 N2288 1.427 . S
C2285 H2275 0.929 . S
C2285 C2283 1.433 . S
C2285 N2288 1.384 . S
C2286 H2277 0.929 . S
C2286 C2278 1.378 . S
C2286 C2281 1.350 . S
C2287 H2274 0.929 . S
C2287 C2279 1.433 . S
C2287 N2289 1.384 . S
N2288 C2284 1.427 . S
N2288 C2285 1.384 . S
N2289 C2281 1.427 . S
N2289 C2287 1.384 . S
H2290 C2296 0.930 . S
H2291 C2300 0.930 . S
H2292 C2305 0.929 . S
H2293 C2303 0.929 . S
H2294 C2298 0.929 . S
H2295 C2304 0.929 . S
C2296 H2290 0.930 . S
C2296 C2297 1.367 . S
C2296 C2304 1.378 . S
C2297 C2296 1.367 . S
C2297 C2305 1.433 . S
C2298 H2294 0.929 . S
C2298 C2300 1.378 . S
C2298 C2302 1.350 . S
C2299 C2302 1.463 . S
C2299 C2304 1.350 . S
C2299 N2307 1.427 . S
C2300 H2291 0.930 . S
C2300 C2298 1.378 . S
C2300 C2301 1.367 . S
C2301 C2300 1.367 . S
C2301 C2303 1.433 . S
C2302 C2298 1.350 . S
C2302 C2299 1.463 . S
C2302 N2306 1.427 . S
C2303 H2293 0.929 . S
C2303 C2301 1.433 . S
C2303 N2306 1.384 . S
C2304 H2295 0.929 . S
C2304 C2296 1.378 . S
C2304 C2299 1.350 . S
C2305 H2292 0.929 . S
C2305 C2297 1.433 . S
C2305 N2307 1.384 . S
N2306 C2302 1.427 . S
N2306 C2303 1.384 . S
N2307 C2299 1.427 . S
N2307 C2305 1.384 . S
H2308 C2314 0.930 . S
H2309 C2318 0.930 1_556 S
H2310 C2323 0.929 . S
H2311 C2321 0.929 . S
H2312 C2316 0.929 . S
H2313 C2322 0.929 . S
C2314 H2308 0.930 . S
C2314 C2315 1.367 . S
C2314 C2322 1.378 . S
C2315 C2314 1.367 . S
C2315 C2323 1.433 . S
C2316 H2312 0.929 . S
C2316 C2318 1.378 . S
C2316 C2320 1.350 . S
C2317 C2320 1.463 . S
C2317 C2322 1.350 . S
C2317 N2325 1.427 . S
C2318 H2309 0.930 1_554 S
C2318 C2316 1.378 . S
C2318 C2319 1.367 . S
C2319 C2318 1.367 . S
C2319 C2321 1.433 . S
C2320 C2316 1.350 . S
C2320 C2317 1.463 . S
C2320 N2324 1.427 . S
C2321 H2311 0.929 . S
C2321 C2319 1.433 . S
C2321 N2324 1.384 . S
C2322 H2313 0.929 . S
C2322 C2314 1.378 . S
C2322 C2317 1.350 . S
C2323 H2310 0.929 . S
C2323 C2315 1.433 . S
C2323 N2325 1.384 . S
N2324 C2320 1.427 . S
N2324 C2321 1.384 . S
N2325 C2317 1.427 . S
N2325 C2323 1.384 . S
H2326 C2332 0.930 . S
H2327 C2336 0.930 . S
H2328 C2341 0.929 . S
H2329 C2339 0.929 . S
H2330 C2334 0.929 . S
H2331 C2340 0.929 . S
C2332 H2326 0.930 . S
C2332 C2333 1.367 . S
C2332 C2340 1.378 . S
C2333 C2332 1.367 . S
C2333 C2341 1.433 . S
C2334 H2330 0.929 . S
C2334 C2336 1.378 . S
C2334 C2338 1.350 . S
C2335 C2338 1.463 . S
C2335 C2340 1.350 . S
C2335 N2343 1.427 . S
C2336 H2327 0.930 . S
C2336 C2334 1.378 . S
C2336 C2337 1.367 . S
C2337 C2336 1.367 . S
C2337 C2339 1.433 . S
C2338 C2334 1.350 . S
C2338 C2335 1.463 . S
C2338 N2342 1.427 . S
C2339 H2329 0.929 . S
C2339 C2337 1.433 . S
C2339 N2342 1.384 . S
C2340 H2331 0.929 . S
C2340 C2332 1.378 . S
C2340 C2335 1.350 . S
C2341 H2328 0.929 . S
C2341 C2333 1.433 . S
C2341 N2343 1.384 . S
N2342 C2338 1.427 . S
N2342 C2339 1.384 . S
N2343 C2335 1.427 . S
N2343 C2341 1.384 . S
H2344 C2350 0.930 . S
H2345 C2354 0.930 . S
H2346 C2359 0.929 . S
H2347 C2357 0.929 . S
H2348 C2352 0.929 . S
H2349 C2358 0.929 . S
C2350 H2344 0.930 . S
C2350 C2351 1.367 . S
C2350 C2358 1.378 . S
C2351 C2350 1.367 . S
C2351 C2359 1.433 . S
C2352 H2348 0.929 . S
C2352 C2354 1.378 . S
C2352 C2356 1.350 . S
C2353 C2356 1.463 . S
C2353 C2358 1.350 . S
C2353 N2361 1.427 . S
C2354 H2345 0.930 . S
C2354 C2352 1.378 . S
C2354 C2355 1.367 . S
C2355 C2354 1.367 . S
C2355 C2357 1.433 . S
C2356 C2352 1.350 . S
C2356 C2353 1.463 . S
C2356 N2360 1.427 . S
C2357 H2347 0.929 . S
C2357 C2355 1.433 . S
C2357 N2360 1.384 . S
C2358 H2349 0.929 . S
C2358 C2350 1.378 . S
C2358 C2353 1.350 . S
C2359 H2346 0.929 . S
C2359 C2351 1.433 . S
C2359 N2361 1.384 . S
N2360 C2356 1.427 . S
N2360 C2357 1.384 . S
N2361 C2353 1.427 . S
N2361 C2359 1.384 . S
H2362 C2368 0.930 . S
H2363 C2372 0.930 . S
H2364 C2377 0.929 . S
H2365 C2375 0.929 . S
H2366 C2370 0.929 . S
H2367 C2376 0.929 . S
C2368 H2362 0.930 . S
C2368 C2369 1.367 . S
C2368 C2376 1.378 . S
C2369 C2368 1.367 . S
C2369 C2377 1.433 . S
C2370 H2366 0.929 . S
C2370 C2372 1.378 . S
C2370 C2374 1.350 . S
C2371 C2374 1.463 . S
C2371 C2376 1.350 . S
C2371 N2379 1.427 . S
C2372 H2363 0.930 . S
C2372 C2370 1.378 . S
C2372 C2373 1.367 . S
C2373 C2372 1.367 . S
C2373 C2375 1.433 . S
C2374 C2370 1.350 . S
C2374 C2371 1.463 . S
C2374 N2378 1.427 . S
C2375 H2365 0.929 . S
C2375 C2373 1.433 . S
C2375 N2378 1.384 . S
C2376 H2367 0.929 . S
C2376 C2368 1.378 . S
C2376 C2371 1.350 . S
C2377 H2364 0.929 . S
C2377 C2369 1.433 . S
C2377 N2379 1.384 . S
N2378 C2374 1.427 . S
N2378 C2375 1.384 . S
N2379 C2371 1.427 . S
N2379 C2377 1.384 . S
H2380 C2386 0.930 . S
H2381 C2390 0.930 . S
H2382 C2395 0.929 . S
H2383 C2393 0.929 . S
H2384 C2388 0.929 . S
H2385 C2394 0.929 . S
C2386 H2380 0.930 . S
C2386 C2387 1.367 . S
C2386 C2394 1.378 . S
C2387 C2386 1.367 . S
C2387 C2395 1.433 . S
C2388 H2384 0.929 . S
C2388 C2390 1.378 . S
C2388 C2392 1.350 . S
C2389 C2392 1.463 . S
C2389 C2394 1.350 . S
C2389 N2397 1.427 . S
C2390 H2381 0.930 . S
C2390 C2388 1.378 . S
C2390 C2391 1.367 . S
C2391 C2390 1.367 . S
C2391 C2393 1.433 . S
C2392 C2388 1.350 . S
C2392 C2389 1.463 . S
C2392 N2396 1.427 . S
C2393 H2383 0.929 . S
C2393 C2391 1.433 . S
C2393 N2396 1.384 . S
C2394 H2385 0.929 . S
C2394 C2386 1.378 . S
C2394 C2389 1.350 . S
C2395 H2382 0.929 . S
C2395 C2387 1.433 . S
C2395 N2397 1.384 . S
N2396 C2392 1.427 . S
N2396 C2393 1.384 . S
N2397 C2389 1.427 . S
N2397 C2395 1.384 . S
H2398 C2404 0.930 . S
H2399 C2408 0.930 . S
H2400 C2413 0.929 . S
H2401 C2411 0.929 . S
H2402 C2406 0.929 . S
H2403 C2412 0.929 . S
C2404 H2398 0.930 . S
C2404 C2405 1.367 . S
C2404 C2412 1.378 . S
C2405 C2404 1.367 . S
C2405 C2413 1.433 . S
C2406 H2402 0.929 . S
C2406 C2408 1.378 . S
C2406 C2410 1.350 . S
C2407 C2410 1.463 . S
C2407 C2412 1.350 . S
C2407 N2415 1.427 . S
C2408 H2399 0.930 . S
C2408 C2406 1.378 . S
C2408 C2409 1.367 . S
C2409 C2408 1.367 . S
C2409 C2411 1.433 . S
C2410 C2406 1.350 . S
C2410 C2407 1.463 . S
C2410 N2414 1.427 . S
C2411 H2401 0.929 . S
C2411 C2409 1.433 . S
C2411 N2414 1.384 . S
C2412 H2403 0.929 . S
C2412 C2404 1.378 . S
C2412 C2407 1.350 . S
C2413 H2400 0.929 . S
C2413 C2405 1.433 . S
C2413 N2415 1.384 . S
N2414 C2410 1.427 . S
N2414 C2411 1.384 . S
N2415 C2407 1.427 . S
N2415 C2413 1.384 . S
H2416 C2422 0.930 . S
H2417 C2426 0.930 . S
H2418 C2431 0.929 . S
H2419 C2429 0.929 . S
H2420 C2424 0.929 . S
H2421 C2430 0.929 . S
C2422 H2416 0.930 . S
C2422 C2423 1.367 . S
C2422 C2430 1.378 . S
C2423 C2422 1.367 . S
C2423 C2431 1.433 . S
C2424 H2420 0.929 . S
C2424 C2426 1.378 . S
C2424 C2428 1.350 . S
C2425 C2428 1.463 . S
C2425 C2430 1.350 . S
C2425 N2433 1.427 . S
C2426 H2417 0.930 . S
C2426 C2424 1.378 . S
C2426 C2427 1.367 . S
C2427 C2426 1.367 . S
C2427 C2429 1.433 . S
C2428 C2424 1.350 . S
C2428 C2425 1.463 . S
C2428 N2432 1.427 . S
C2429 H2419 0.929 . S
C2429 C2427 1.433 . S
C2429 N2432 1.384 . S
C2430 H2421 0.929 . S
C2430 C2422 1.378 . S
C2430 C2425 1.350 . S
C2431 H2418 0.929 . S
C2431 C2423 1.433 . S
C2431 N2433 1.384 . S
N2432 C2428 1.427 . S
N2432 C2429 1.384 . S
N2433 C2425 1.427 . S
N2433 C2431 1.384 . S
H2434 C2440 0.930 . S
H2435 C2444 0.930 . S
H2436 C2449 0.929 . S
H2437 C2447 0.929 . S
H2438 C2442 0.929 . S
H2439 C2448 0.929 . S
C2440 H2434 0.930 . S
C2440 C2441 1.367 . S
C2440 C2448 1.378 . S
C2441 C2440 1.367 . S
C2441 C2449 1.433 . S
C2442 H2438 0.929 . S
C2442 C2444 1.378 . S
C2442 C2446 1.350 . S
C2443 C2446 1.463 . S
C2443 C2448 1.350 . S
C2443 N2451 1.427 . S
C2444 H2435 0.930 . S
C2444 C2442 1.378 . S
C2444 C2445 1.367 . S
C2445 C2444 1.367 . S
C2445 C2447 1.433 . S
C2446 C2442 1.350 . S
C2446 C2443 1.463 . S
C2446 N2450 1.427 . S
C2447 H2437 0.929 . S
C2447 C2445 1.433 . S
C2447 N2450 1.384 . S
C2448 H2439 0.929 . S
C2448 C2440 1.378 . S
C2448 C2443 1.350 . S
C2449 H2436 0.929 . S
C2449 C2441 1.433 . S
C2449 N2451 1.384 . S
N2450 C2446 1.427 . S
N2450 C2447 1.384 . S
N2451 C2443 1.427 . S
N2451 C2449 1.384 . S
H2452 C2458 0.930 . S
H2453 C2462 0.930 . S
H2454 C2467 0.929 . S
H2455 C2465 0.929 . S
H2456 C2460 0.929 . S
H2457 C2466 0.929 . S
C2458 H2452 0.930 . S
C2458 C2459 1.367 . S
C2458 C2466 1.378 . S
C2459 C2458 1.367 . S
C2459 C2467 1.433 . S
C2460 H2456 0.929 . S
C2460 C2462 1.378 . S
C2460 C2464 1.346 1_455 S
C2461 C2464 1.466 . S
C2461 C2466 1.350 . S
C2461 N2469 1.427 . S
C2462 H2453 0.930 . S
C2462 C2460 1.378 . S
C2462 C2463 1.367 . S
C2463 C2462 1.367 . S
C2463 C2465 1.433 . S
C2464 C2460 1.346 1_655 S
C2464 C2461 1.466 . S
C2464 N2468 1.428 1_655 S
C2465 H2455 0.929 . S
C2465 C2463 1.433 . S
C2465 N2468 1.384 . S
C2466 H2457 0.929 . S
C2466 C2458 1.378 . S
C2466 C2461 1.350 . S
C2467 H2454 0.929 . S
C2467 C2459 1.433 . S
C2467 N2469 1.384 . S
N2468 C2464 1.428 1_455 S
N2468 C2465 1.384 . S
N2469 C2461 1.427 . S
N2469 C2467 1.384 . S
H2470 C2476 0.930 . S
H2471 C2480 0.930 . S
H2472 C2485 0.929 . S
H2473 C2483 0.929 . S
H2474 C2478 0.929 . S
H2475 C2484 0.929 . S
C2476 H2470 0.930 . S
C2476 C2477 1.367 . S
C2476 C2484 1.378 . S
C2477 C2476 1.367 . S
C2477 C2485 1.433 . S
C2478 H2474 0.929 . S
C2478 C2480 1.378 . S
C2478 C2482 1.350 . S
C2479 C2482 1.463 . S
C2479 C2484 1.350 . S
C2479 N2487 1.427 . S
C2480 H2471 0.930 . S
C2480 C2478 1.378 . S
C2480 C2481 1.367 . S
C2481 C2480 1.367 . S
C2481 C2483 1.433 . S
C2482 C2478 1.350 . S
C2482 C2479 1.463 . S
C2482 N2486 1.427 . S
C2483 H2473 0.929 . S
C2483 C2481 1.433 . S
C2483 N2486 1.384 . S
C2484 H2475 0.929 . S
C2484 C2476 1.378 . S
C2484 C2479 1.350 . S
C2485 H2472 0.929 . S
C2485 C2477 1.433 . S
C2485 N2487 1.384 . S
N2486 C2482 1.427 . S
N2486 C2483 1.384 . S
N2487 C2479 1.427 . S
N2487 C2485 1.384 . S
H2488 C2494 0.930 . S
H2489 C2498 0.930 . S
H2490 C2503 0.929 . S
H2491 C2501 0.929 . S
H2492 C2496 0.929 . S
H2493 C2502 0.929 . S
C2494 H2488 0.930 . S
C2494 C2495 1.367 . S
C2494 C2502 1.378 . S
C2495 C2494 1.367 . S
C2495 C2503 1.433 . S
C2496 H2492 0.929 . S
C2496 C2498 1.378 . S
C2496 C2500 1.350 . S
C2497 C2500 1.463 . S
C2497 C2502 1.350 . S
C2497 N2505 1.427 . S
C2498 H2489 0.930 . S
C2498 C2496 1.378 . S
C2498 C2499 1.367 . S
C2499 C2498 1.367 . S
C2499 C2501 1.433 . S
C2500 C2496 1.350 . S
C2500 C2497 1.463 . S
C2500 N2504 1.427 . S
C2501 H2491 0.929 . S
C2501 C2499 1.433 . S
C2501 N2504 1.384 . S
C2502 H2493 0.929 . S
C2502 C2494 1.378 . S
C2502 C2497 1.350 . S
C2503 H2490 0.929 . S
C2503 C2495 1.433 . S
C2503 N2505 1.384 . S
N2504 C2500 1.427 . S
N2504 C2501 1.384 . S
N2505 C2497 1.427 . S
N2505 C2503 1.384 . S
H2506 C2512 0.930 . S
H2507 C2516 0.930 . S
H2508 C2521 0.929 . S
H2509 C2519 0.929 . S
H2510 C2514 0.929 . S
H2511 C2520 0.929 . S
C2512 H2506 0.930 . S
C2512 C2513 1.367 . S
C2512 C2520 1.378 . S
C2513 C2512 1.367 . S
C2513 C2521 1.433 . S
C2514 H2510 0.929 . S
C2514 C2516 1.378 . S
C2514 C2518 1.350 . S
C2515 C2518 1.463 . S
C2515 C2520 1.350 . S
C2515 N2523 1.427 . S
C2516 H2507 0.930 . S
C2516 C2514 1.378 . S
C2516 C2517 1.367 . S
C2517 C2516 1.367 . S
C2517 C2519 1.433 . S
C2518 C2514 1.350 . S
C2518 C2515 1.463 . S
C2518 N2522 1.427 . S
C2519 H2509 0.929 . S
C2519 C2517 1.433 . S
C2519 N2522 1.384 . S
C2520 H2511 0.929 . S
C2520 C2512 1.378 . S
C2520 C2515 1.350 . S
C2521 H2508 0.929 . S
C2521 C2513 1.433 . S
C2521 N2523 1.384 . S
N2522 C2518 1.427 . S
N2522 C2519 1.384 . S
N2523 C2515 1.427 . S
N2523 C2521 1.384 . S
H2524 C2530 0.930 . S
H2525 C2534 0.930 . S
H2526 C2539 0.929 . S
H2527 C2537 0.929 1_455 S
H2528 C2532 0.929 . S
H2529 C2538 0.929 . S
C2530 H2524 0.930 . S
C2530 C2531 1.367 . S
C2530 C2538 1.378 . S
C2531 C2530 1.367 . S
C2531 C2539 1.433 . S
C2532 H2528 0.929 . S
C2532 C2534 1.378 . S
C2532 C2536 1.350 . S
C2533 C2536 1.463 . S
C2533 C2538 1.350 . S
C2533 N2541 1.427 . S
C2534 H2525 0.930 . S
C2534 C2532 1.378 . S
C2534 C2535 1.367 . S
C2535 C2534 1.367 . S
C2535 C2537 1.433 . S
C2536 C2532 1.350 . S
C2536 C2533 1.463 . S
C2536 N2540 1.427 . S
C2537 H2527 0.929 1_655 S
C2537 C2535 1.433 . S
C2537 N2540 1.384 . S
C2538 H2529 0.929 . S
C2538 C2530 1.378 . S
C2538 C2533 1.350 . S
C2539 H2526 0.929 . S
C2539 C2531 1.433 . S
C2539 N2541 1.384 . S
N2540 C2536 1.427 . S
N2540 C2537 1.384 . S
N2541 C2533 1.427 . S
N2541 C2539 1.384 . S
H2542 C2548 0.930 . S
H2543 C2552 0.930 . S
H2544 C2557 0.929 . S
H2545 C2555 0.929 . S
H2546 C2550 0.929 . S
H2547 C2556 0.929 . S
C2548 H2542 0.930 . S
C2548 C2549 1.367 . S
C2548 C2556 1.378 . S
C2549 C2548 1.367 . S
C2549 C2557 1.433 . S
C2550 H2546 0.929 . S
C2550 C2552 1.378 . S
C2550 C2554 1.350 . S
C2551 C2554 1.463 . S
C2551 C2556 1.350 . S
C2551 N2559 1.427 . S
C2552 H2543 0.930 . S
C2552 C2550 1.378 . S
C2552 C2553 1.367 . S
C2553 C2552 1.367 . S
C2553 C2555 1.433 . S
C2554 C2550 1.350 . S
C2554 C2551 1.463 . S
C2554 N2558 1.427 . S
C2555 H2545 0.929 . S
C2555 C2553 1.433 . S
C2555 N2558 1.384 . S
C2556 H2547 0.929 . S
C2556 C2548 1.378 . S
C2556 C2551 1.350 . S
C2557 H2544 0.929 . S
C2557 C2549 1.433 . S
C2557 N2559 1.384 . S
N2558 C2554 1.427 . S
N2558 C2555 1.384 . S
N2559 C2551 1.427 . S
N2559 C2557 1.384 . S
H2560 C2566 0.930 . S
H2561 C2570 0.930 . S
H2562 C2575 0.929 . S
H2563 C2573 0.929 . S
H2564 C2568 0.929 . S
H2565 C2574 0.929 . S
C2566 H2560 0.930 . S
C2566 C2567 1.367 . S
C2566 C2574 1.378 . S
C2567 C2566 1.367 . S
C2567 C2575 1.433 . S
C2568 H2564 0.929 . S
C2568 C2570 1.378 . S
C2568 C2572 1.350 . S
C2569 C2572 1.463 . S
C2569 C2574 1.350 . S
C2569 N2577 1.427 . S
C2570 H2561 0.930 . S
C2570 C2568 1.378 . S
C2570 C2571 1.367 . S
C2571 C2570 1.367 . S
C2571 C2573 1.433 . S
C2572 C2568 1.350 . S
C2572 C2569 1.463 . S
C2572 N2576 1.427 . S
C2573 H2563 0.929 . S
C2573 C2571 1.433 . S
C2573 N2576 1.384 . S
C2574 H2565 0.929 . S
C2574 C2566 1.378 . S
C2574 C2569 1.350 . S
C2575 H2562 0.929 . S
C2575 C2567 1.433 . S
C2575 N2577 1.384 . S
N2576 C2572 1.427 . S
N2576 C2573 1.384 . S
N2577 C2569 1.427 . S
N2577 C2575 1.384 . S
H2578 C2584 0.930 . S
H2579 C2588 0.930 1_545 S
H2580 C2593 0.929 . S
H2581 C2591 0.929 . S
H2582 C2586 0.929 . S
H2583 C2592 0.929 . S
C2584 H2578 0.930 . S
C2584 C2585 1.367 . S
C2584 C2592 1.378 . S
C2585 C2584 1.367 . S
C2585 C2593 1.433 . S
C2586 H2582 0.929 . S
C2586 C2588 1.378 . S
C2586 C2590 1.350 . S
C2587 C2590 1.463 . S
C2587 C2592 1.350 . S
C2587 N2595 1.427 . S
C2588 H2579 0.930 1_565 S
C2588 C2586 1.378 . S
C2588 C2589 1.361 . S
C2589 C2588 1.361 . S
C2589 C2591 1.450 . S
C2590 C2586 1.350 . S
C2590 C2587 1.463 . S
C2590 N2594 1.427 . S
C2591 H2581 0.929 . S
C2591 C2589 1.450 . S
C2591 N2594 1.384 . S
C2592 H2583 0.929 . S
C2592 C2584 1.378 . S
C2592 C2587 1.350 . S
C2593 H2580 0.929 . S
C2593 C2585 1.433 . S
C2593 N2595 1.384 . S
N2594 C2590 1.427 . S
N2594 C2591 1.384 . S
N2595 C2587 1.427 . S
N2595 C2593 1.384 . S
H2596 C2602 0.930 . S
H2597 C2606 0.930 . S
H2598 C2611 0.929 . S
H2599 C2609 0.929 . S
H2600 C2604 0.929 . S
H2601 C2610 0.929 . S
C2602 H2596 0.930 . S
C2602 C2603 1.367 . S
C2602 C2610 1.378 . S
C2603 C2602 1.367 . S
C2603 C2611 1.433 . S
C2604 H2600 0.929 . S
C2604 C2606 1.378 . S
C2604 C2608 1.350 . S
C2605 C2608 1.463 . S
C2605 C2610 1.350 . S
C2605 N2613 1.427 . S
C2606 H2597 0.930 . S
C2606 C2604 1.378 . S
C2606 C2607 1.367 . S
C2607 C2606 1.367 . S
C2607 C2609 1.433 . S
C2608 C2604 1.350 . S
C2608 C2605 1.463 . S
C2608 N2612 1.427 . S
C2609 H2599 0.929 . S
C2609 C2607 1.433 . S
C2609 N2612 1.384 . S
C2610 H2601 0.929 . S
C2610 C2602 1.378 . S
C2610 C2605 1.350 . S
C2611 H2598 0.929 . S
C2611 C2603 1.433 . S
C2611 N2613 1.384 . S
N2612 C2608 1.427 . S
N2612 C2609 1.384 . S
N2613 C2605 1.427 . S
N2613 C2611 1.384 . S
H2614 C2620 0.930 . S
H2615 C2624 0.930 . S
H2616 C2629 0.929 . S
H2617 C2627 0.929 . S
H2618 C2622 0.929 . S
H2619 C2628 0.929 . S
C2620 H2614 0.930 . S
C2620 C2621 1.367 1_556 S
C2620 C2628 1.378 . S
C2621 C2620 1.367 1_554 S
C2621 C2629 1.433 . S
C2622 H2618 0.929 . S
C2622 C2624 1.378 . S
C2622 C2626 1.350 . S
C2623 C2626 1.463 . S
C2623 C2628 1.350 1_554 S
C2623 N2631 1.427 . S
C2624 H2615 0.930 . S
C2624 C2622 1.378 . S
C2624 C2625 1.367 . S
C2625 C2624 1.367 . S
C2625 C2627 1.433 1_554 S
C2626 C2622 1.350 . S
C2626 C2623 1.463 . S
C2626 N2630 1.427 1_554 S
C2627 H2617 0.929 . S
C2627 C2625 1.433 1_556 S
C2627 N2630 1.384 . S
C2628 H2619 0.929 . S
C2628 C2620 1.378 . S
C2628 C2623 1.350 1_556 S
C2629 H2616 0.929 . S
C2629 C2621 1.433 . S
C2629 N2631 1.384 . S
N2630 C2626 1.427 1_556 S
N2630 C2627 1.384 . S
N2631 C2623 1.427 . S
N2631 C2629 1.384 . S
H2632 C2638 0.930 . S
H2633 C2642 0.930 . S
H2634 C2647 0.929 . S
H2635 C2645 0.929 . S
H2636 C2640 0.929 . S
H2637 C2646 0.929 . S
C2638 H2632 0.930 . S
C2638 C2639 1.367 . S
C2638 C2646 1.378 . S
C2639 C2638 1.367 . S
C2639 C2647 1.433 . S
C2640 H2636 0.929 . S
C2640 C2642 1.378 . S
C2640 C2644 1.350 . S
C2641 C2644 1.463 . S
C2641 C2646 1.350 . S
C2641 N2649 1.427 . S
C2642 H2633 0.930 . S
C2642 C2640 1.378 . S
C2642 C2643 1.367 . S
C2643 C2642 1.367 . S
C2643 C2645 1.433 . S
C2644 C2640 1.350 . S
C2644 C2641 1.463 . S
C2644 N2648 1.427 . S
C2645 H2635 0.929 . S
C2645 C2643 1.433 . S
C2645 N2648 1.384 . S
C2646 H2637 0.929 . S
C2646 C2638 1.378 . S
C2646 C2641 1.350 . S
C2647 H2634 0.929 . S
C2647 C2639 1.433 . S
C2647 N2649 1.384 . S
N2648 C2644 1.427 . S
N2648 C2645 1.384 . S
N2649 C2641 1.427 . S
N2649 C2647 1.384 . S
H2650 C2656 0.930 . S
H2651 C2660 0.946 . S
H2652 C2665 0.929 . S
H2653 C2663 0.929 . S
H2654 C2658 0.929 . S
H2655 C2664 0.929 . S
C2656 H2650 0.930 . S
C2656 C2657 1.367 1_556 S
C2656 C2664 1.378 . S
C2657 C2656 1.367 1_554 S
C2657 C2665 1.433 . S
C2658 H2654 0.929 . S
C2658 C2660 1.390 . S
C2658 C2662 1.350 1_554 S
C2659 C2662 1.462 1_554 S
C2659 C2664 1.349 1_554 S
C2659 N2667 1.429 . S
C2660 H2651 0.946 . S
C2660 C2658 1.390 . S
C2660 C2661 1.340 1_554 S
C2661 C2660 1.340 1_556 S
C2661 C2663 1.433 . S
C2662 C2658 1.350 1_556 S
C2662 C2659 1.462 1_556 S
C2662 N2666 1.427 . S
C2663 H2653 0.929 . S
C2663 C2661 1.433 . S
C2663 N2666 1.384 . S
C2664 H2655 0.929 . S
C2664 C2656 1.378 . S
C2664 C2659 1.349 1_556 S
C2665 H2652 0.929 . S
C2665 C2657 1.433 . S
C2665 N2667 1.384 . S
N2666 C2662 1.427 . S
N2666 C2663 1.384 . S
N2667 C2659 1.429 . S
N2667 C2665 1.384 . S
H2668 C2674 0.930 . S
H2669 C2678 0.930 . S
H2670 C2683 0.929 . S
H2671 C2681 0.929 . S
H2672 C2676 0.929 . S
H2673 C2682 0.929 . S
C2674 H2668 0.930 . S
C2674 C2675 1.367 . S
C2674 C2682 1.378 . S
C2675 C2674 1.367 . S
C2675 C2683 1.433 . S
C2676 H2672 0.929 . S
C2676 C2678 1.378 . S
C2676 C2680 1.350 . S
C2677 C2680 1.463 . S
C2677 C2682 1.350 . S
C2677 N2685 1.427 . S
C2678 H2669 0.930 . S
C2678 C2676 1.378 . S
C2678 C2679 1.367 . S
C2679 C2678 1.367 . S
C2679 C2681 1.433 . S
C2680 C2676 1.350 . S
C2680 C2677 1.463 . S
C2680 N2684 1.427 . S
C2681 H2671 0.929 . S
C2681 C2679 1.433 . S
C2681 N2684 1.384 . S
C2682 H2673 0.929 . S
C2682 C2674 1.378 . S
C2682 C2677 1.350 . S
C2683 H2670 0.929 . S
C2683 C2675 1.433 . S
C2683 N2685 1.384 . S
N2684 C2680 1.427 . S
N2684 C2681 1.384 . S
N2685 C2677 1.427 . S
N2685 C2683 1.384 . S
H2686 C2692 0.930 . S
H2687 C2696 0.930 . S
H2688 C2701 0.929 . S
H2689 C2699 0.929 . S
H2690 C2694 0.929 . S
H2691 C2700 0.929 . S
C2692 H2686 0.930 . S
C2692 C2693 1.367 . S
C2692 C2700 1.378 . S
C2693 C2692 1.367 . S
C2693 C2701 1.433 . S
C2694 H2690 0.929 . S
C2694 C2696 1.378 . S
C2694 C2698 1.350 . S
C2695 C2698 1.463 . S
C2695 C2700 1.350 . S
C2695 N2703 1.427 . S
C2696 H2687 0.930 . S
C2696 C2694 1.378 . S
C2696 C2697 1.367 . S
C2697 C2696 1.367 . S
C2697 C2699 1.433 . S
C2698 C2694 1.350 . S
C2698 C2695 1.463 . S
C2698 N2702 1.427 . S
C2699 H2689 0.929 . S
C2699 C2697 1.433 . S
C2699 N2702 1.384 . S
C2700 H2691 0.929 . S
C2700 C2692 1.378 . S
C2700 C2695 1.350 . S
C2701 H2688 0.929 . S
C2701 C2693 1.433 . S
C2701 N2703 1.384 . S
N2702 C2698 1.427 . S
N2702 C2699 1.384 . S
N2703 C2695 1.427 . S
N2703 C2701 1.384 . S
C983 C109 2.159 . S
C987 C338 2.132 1_556 S
C1001 C61 1.865 . S
C1005 C395 2.081 . S
C1019 C74 1.213 . S
C1023 C418 1.223 . S
C1041 C472 1.409 . S
C1037 C96 1.429 . S
C1055 C25 1.248 1_455 S
C1059 C512 1.199 . S
C1077 C543 0.461 . S
C1073 C40 0.442 . S
C1095 C595 1.375 . S
C1091 C46 1.380 . S
C1109 C5 1.326 . S
C1113 C618 1.693 . S
C1131 C355 2.323 . S
C1127 C229 2.030 . S
C1145 C249 0.427 . S
C1149 C392 0.506 . S
C1167 C435 1.153 . S
C1163 C271 0.978 . S
C1185 C458 1.503 . S
C1181 C172 1.464 . S
C1199 C236 1.845 . S
C1203 C498 1.854 . S
C1221 C546 1.602 . S
C1217 C242 1.598 . S
C1239 C592 0.310 . S
C1235 C278 0.223 . S
C1257 C635 2.068 . S
C1253 C179 2.095 . S
C1275 C352 1.424 1_565 S
C1271 C159 1.153 . S
C1289 C285 1.664 1_554 S
C1293 C675 1.875 . S
C1311 C707 2.519 . S
C1307 C333 2.524 . S
C1329 C738 0.591 1_655 S
C1325 C320 0.606 . S
C1343 C123 1.387 . S
C1347 C632 1.309 . S
C1361 C138 1.573 . S
C1365 C432 1.537 . S
C1379 C326 2.349 . S
C1383 C795 2.339 . S
C1401 C818 0.532 . S
C1397 C298 0.565 . S
C1419 C347 2.127 . S
C1415 C67 2.085 . S
C1437 C826 2.022 . S
C1433 C110 2.019 . S
C1451 C88 1.210 . S
C1455 C427 1.208 . S
C1469 C75 1.185 . S
C1473 C783 1.316 . S
C1491 C503 1.214 . S
C1487 C11 1.210 . S
C1505 C47 0.671 . S
C1509 C712 0.440 . S
C1527 C586 1.195 . S
C1523 C32 1.074 . S
C1545 C867 1.764 . S
C1541 C26 1.812 . S
C1563 C346 2.431 . S
C1559 C152 2.448 . S
C1581 C823 0.544 . S
C1577 C319 0.521 . S
C1595 C124 1.129 . S
C1599 C426 1.123 . S
C1613 C284 1.493 . S
C1617 C787 1.516 . S
C1631 C145 1.723 . S
C1635 C507 1.849 . S
C1653 C715 1.500 . S
C1649 C312 1.496 . S
C1667 C117 0.646 1_565 S
C1671 C583 0.386 . S
C1685 C291 1.989 . S
C1689 C866 1.996 . S
C1703 C194 1.518 . S
C1707 C343 1.475 . S
C1721 C180 1.850 . S
C1725 C666 1.845 . S
C1739 C263 2.406 . S
C1743 C538 2.388 . S
C1757 C243 0.665 . S
C1761 C747 0.529 . S
C1779 C863 1.382 . S
C1775 C277 1.362 . S
C1793 C215 1.402 . S
C1797 C423 1.507 . S
C1815 C466 2.234 . S
C1811 C256 2.189 . S
C1833 C387 0.635 . S
C1829 C200 0.628 . S
C1847 C81 2.157 . S
C1851 C898 2.138 . S
C1869 C835 2.081 . S
C1865 C89 1.865 . S
C1883 C102 1.211 . S
C1887 C938 1.230 1_556 S
C1901 C68 1.425 . S
C1905 C792 1.400 . S
C1919 C53 1.244 . S
C1923 C672 1.185 . S
C1941 C703 0.456 . S
C1937 C12 0.446 . S
C1959 C755 1.368 . S
C1955 C18 1.379 . S
C1977 C858 1.699 . S
C1973 C33 1.340 . S
C1995 C915 2.321 . S
C1991 C257 2.048 . S
C2009 C193 0.427 . S
C2013 C832 0.505 . S
C2031 C955 1.151 . S
C2027 C201 0.976 . S
C2049 C778 1.503 . S
C2045 C214 1.462 . S
C2067 C658 1.851 . S
C2063 C264 1.845 . S
C2081 C186 1.595 . S
C2085 C706 1.605 . S
C2103 C752 0.356 . S
C2099 C208 0.217 . S
C2117 C221 2.095 . S
C2121 C875 2.068 . S
C2139 C912 1.422 . S
C2135 C313 1.162 . S
C2153 C131 1.664 . S
C2157 C515 1.877 . S
C2175 C547 2.513 . S
C2171 C151 2.528 . S
C2193 C578 0.591 . S
C2189 C166 0.593 . S
C2211 C872 1.324 . S
C2207 C305 1.392 . S
C2225 C292 1.568 . S
C2229 C952 1.526 . S
C2247 C475 2.338 . S
C2243 C144 2.350 . S
C2265 C378 0.523 . S
C2261 C116 0.563 . S
C2279 C95 2.081 . S
C2283 C907 2.129 . S
C2301 C386 2.019 . S
C2297 C82 2.018 . S
C2315 C60 1.202 . S
C2319 C947 1.216 . S
C2333 C103 1.155 . S
C2337 C463 1.327 . S
C2351 C39 1.198 . S
C2355 C663 1.202 . S
C2373 C552 0.441 . S
C2369 C19 0.624 . S
C2387 C4 1.085 . S
C2391 C746 1.196 . S
C2405 C54 1.802 . S
C2409 C627 1.773 . S
C2427 C906 2.433 . S
C2423 C334 2.448 . S
C2441 C165 0.510 . S
C2445 C383 0.528 . S
C2463 C946 1.115 . S
C2459 C306 1.128 . S
C2477 C130 1.493 . S
C2481 C467 1.515 . S
C2495 C327 1.740 . S
C2499 C667 1.851 . S
C2517 C555 1.502 . S
C2513 C158 1.499 . S
C2531 C299 0.646 . S
C2535 C743 0.385 . S
C2553 C626 1.998 . S
C2549 C137 1.995 . S
C2571 C903 1.478 . S
C2567 C250 1.515 . S
C2589 C506 1.832 1_665 S
C2585 C222 1.853 . S
C2603 C235 2.410 . S
C2607 C698 2.391 . S
C2625 C587 0.522 . S
C2621 C187 0.621 . S
C2639 C207 1.381 . S
C2643 C623 1.399 . S
C2657 C173 1.413 . S
C2661 C943 1.505 . S
C2679 C786 2.235 . S
C2675 C228 2.196 1_565 S
C2697 C827 0.620 . S
C2693 C270 0.608 . S
