# Generated by pormake.
# Topology gar, (4,6)-cn, num edge types: 1
# Building blocks:
#     Node 0, Type 0, BuildingBlock: QUQFOY_clean_sbu_1, # of connection points: 4
#     Node 1, Type 0, BuildingBlock: QUQFOY_clean_sbu_1, # of connection points: 4
#     Node 2, Type 0, BuildingBlock: QUQFOY_clean_sbu_1, # of connection points: 4
#     Node 3, Type 0, BuildingBlock: QUQFOY_clean_sbu_1, # of connection points: 4
#     Node 4, Type 0, BuildingBlock: QUQFOY_clean_sbu_1, # of connection points: 4
#     Node 5, Type 0, BuildingBlock: QUQFOY_clean_sbu_1, # of connection points: 4
#     Node 6, Type 0, BuildingBlock: QUQFOY_clean_sbu_1, # of connection points: 4
#     Node 7, Type 0, BuildingBlock: QUQFOY_clean_sbu_1, # of connection points: 4
#     Node 8, Type 0, BuildingBlock: QUQFOY_clean_sbu_1, # of connection points: 4
#     Node 9, Type 0, BuildingBlock: QUQFOY_clean_sbu_1, # of connection points: 4
#     Node 10, Type 0, BuildingBlock: QUQFOY_clean_sbu_1, # of connection points: 4
#     Node 11, Type 0, BuildingBlock: QUQFOY_clean_sbu_1, # of connection points: 4
#     Node 12, Type 0, BuildingBlock: QUQFOY_clean_sbu_1, # of connection points: 4
#     Node 13, Type 0, BuildingBlock: QUQFOY_clean_sbu_1, # of connection points: 4
#     Node 14, Type 0, BuildingBlock: QUQFOY_clean_sbu_1, # of connection points: 4
#     Node 15, Type 0, BuildingBlock: QUQFOY_clean_sbu_1, # of connection points: 4
#     Node 16, Type 0, BuildingBlock: QUQFOY_clean_sbu_1, # of connection points: 4
#     Node 17, Type 0, BuildingBlock: QUQFOY_clean_sbu_1, # of connection points: 4
#     Node 18, Type 0, BuildingBlock: QUQFOY_clean_sbu_1, # of connection points: 4
#     Node 19, Type 0, BuildingBlock: QUQFOY_clean_sbu_1, # of connection points: 4
#     Node 20, Type 0, BuildingBlock: QUQFOY_clean_sbu_1, # of connection points: 4
#     Node 21, Type 0, BuildingBlock: QUQFOY_clean_sbu_1, # of connection points: 4
#     Node 22, Type 0, BuildingBlock: QUQFOY_clean_sbu_1, # of connection points: 4
#     Node 23, Type 0, BuildingBlock: QUQFOY_clean_sbu_1, # of connection points: 4
#     Node 24, Type 1, BuildingBlock: GEDQOX_clean_sbu_0, # of connection points: 6
#     Node 25, Type 1, BuildingBlock: GEDQOX_clean_sbu_0, # of connection points: 6
#     Node 26, Type 1, BuildingBlock: GEDQOX_clean_sbu_0, # of connection points: 6
#     Node 27, Type 1, BuildingBlock: GEDQOX_clean_sbu_0, # of connection points: 6
#     Node 28, Type 1, BuildingBlock: GEDQOX_clean_sbu_0, # of connection points: 6
#     Node 29, Type 1, BuildingBlock: GEDQOX_clean_sbu_0, # of connection points: 6
#     Node 30, Type 1, BuildingBlock: GEDQOX_clean_sbu_0, # of connection points: 6
#     Node 31, Type 1, BuildingBlock: GEDQOX_clean_sbu_0, # of connection points: 6
#     Node 32, Type 1, BuildingBlock: GEDQOX_clean_sbu_0, # of connection points: 6
#     Node 33, Type 1, BuildingBlock: GEDQOX_clean_sbu_0, # of connection points: 6
#     Node 34, Type 1, BuildingBlock: GEDQOX_clean_sbu_0, # of connection points: 6
#     Node 35, Type 1, BuildingBlock: GEDQOX_clean_sbu_0, # of connection points: 6
#     Node 36, Type 1, BuildingBlock: GEDQOX_clean_sbu_0, # of connection points: 6
#     Node 37, Type 1, BuildingBlock: GEDQOX_clean_sbu_0, # of connection points: 6
#     Node 38, Type 1, BuildingBlock: GEDQOX_clean_sbu_0, # of connection points: 6
#     Node 39, Type 1, BuildingBlock: GEDQOX_clean_sbu_0, # of connection points: 6
#     Edge 40, Type (0, 1), BuildingBlock: MIFKUJ_clean_linker_0, # of connection points: 2
#     Edge 41, Type (0, 1), BuildingBlock: MIFKUJ_clean_linker_0, # of connection points: 2
#     Edge 42, Type (0, 1), BuildingBlock: MIFKUJ_clean_linker_0, # of connection points: 2
#     Edge 43, Type (0, 1), BuildingBlock: MIFKUJ_clean_linker_0, # of connection points: 2
#     Edge 44, Type (0, 1), BuildingBlock: MIFKUJ_clean_linker_0, # of connection points: 2
#     Edge 45, Type (0, 1), BuildingBlock: MIFKUJ_clean_linker_0, # of connection points: 2
#     Edge 46, Type (0, 1), BuildingBlock: MIFKUJ_clean_linker_0, # of connection points: 2
#     Edge 47, Type (0, 1), BuildingBlock: MIFKUJ_clean_linker_0, # of connection points: 2
#     Edge 48, Type (0, 1), BuildingBlock: MIFKUJ_clean_linker_0, # of connection points: 2
#     Edge 49, Type (0, 1), BuildingBlock: MIFKUJ_clean_linker_0, # of connection points: 2
#     Edge 50, Type (0, 1), BuildingBlock: MIFKUJ_clean_linker_0, # of connection points: 2
#     Edge 51, Type (0, 1), BuildingBlock: MIFKUJ_clean_linker_0, # of connection points: 2
#     Edge 52, Type (0, 1), BuildingBlock: MIFKUJ_clean_linker_0, # of connection points: 2
#     Edge 53, Type (0, 1), BuildingBlock: MIFKUJ_clean_linker_0, # of connection points: 2
#     Edge 54, Type (0, 1), BuildingBlock: MIFKUJ_clean_linker_0, # of connection points: 2
#     Edge 55, Type (0, 1), BuildingBlock: MIFKUJ_clean_linker_0, # of connection points: 2
#     Edge 56, Type (0, 1), BuildingBlock: MIFKUJ_clean_linker_0, # of connection points: 2
#     Edge 57, Type (0, 1), BuildingBlock: MIFKUJ_clean_linker_0, # of connection points: 2
#     Edge 58, Type (0, 1), BuildingBlock: MIFKUJ_clean_linker_0, # of connection points: 2
#     Edge 59, Type (0, 1), BuildingBlock: MIFKUJ_clean_linker_0, # of connection points: 2
#     Edge 60, Type (0, 1), BuildingBlock: MIFKUJ_clean_linker_0, # of connection points: 2
#     Edge 61, Type (0, 1), BuildingBlock: MIFKUJ_clean_linker_0, # of connection points: 2
#     Edge 62, Type (0, 1), BuildingBlock: MIFKUJ_clean_linker_0, # of connection points: 2
#     Edge 63, Type (0, 1), BuildingBlock: MIFKUJ_clean_linker_0, # of connection points: 2
#     Edge 64, Type (0, 1), BuildingBlock: MIFKUJ_clean_linker_0, # of connection points: 2
#     Edge 65, Type (0, 1), BuildingBlock: MIFKUJ_clean_linker_0, # of connection points: 2
#     Edge 66, Type (0, 1), BuildingBlock: MIFKUJ_clean_linker_0, # of connection points: 2
#     Edge 67, Type (0, 1), BuildingBlock: MIFKUJ_clean_linker_0, # of connection points: 2
#     Edge 68, Type (0, 1), BuildingBlock: MIFKUJ_clean_linker_0, # of connection points: 2
#     Edge 69, Type (0, 1), BuildingBlock: MIFKUJ_clean_linker_0, # of connection points: 2
#     Edge 70, Type (0, 1), BuildingBlock: MIFKUJ_clean_linker_0, # of connection points: 2
#     Edge 71, Type (0, 1), BuildingBlock: MIFKUJ_clean_linker_0, # of connection points: 2
#     Edge 72, Type (0, 1), BuildingBlock: MIFKUJ_clean_linker_0, # of connection points: 2
#     Edge 73, Type (0, 1), BuildingBlock: MIFKUJ_clean_linker_0, # of connection points: 2
#     Edge 74, Type (0, 1), BuildingBlock: MIFKUJ_clean_linker_0, # of connection points: 2
#     Edge 75, Type (0, 1), BuildingBlock: MIFKUJ_clean_linker_0, # of connection points: 2
#     Edge 76, Type (0, 1), BuildingBlock: MIFKUJ_clean_linker_0, # of connection points: 2
#     Edge 77, Type (0, 1), BuildingBlock: MIFKUJ_clean_linker_0, # of connection points: 2
#     Edge 78, Type (0, 1), BuildingBlock: MIFKUJ_clean_linker_0, # of connection points: 2
#     Edge 79, Type (0, 1), BuildingBlock: MIFKUJ_clean_linker_0, # of connection points: 2
#     Edge 80, Type (0, 1), BuildingBlock: MIFKUJ_clean_linker_0, # of connection points: 2
#     Edge 81, Type (0, 1), BuildingBlock: MIFKUJ_clean_linker_0, # of connection points: 2
#     Edge 82, Type (0, 1), BuildingBlock: MIFKUJ_clean_linker_0, # of connection points: 2
#     Edge 83, Type (0, 1), BuildingBlock: MIFKUJ_clean_linker_0, # of connection points: 2
#     Edge 84, Type (0, 1), BuildingBlock: MIFKUJ_clean_linker_0, # of connection points: 2
#     Edge 85, Type (0, 1), BuildingBlock: MIFKUJ_clean_linker_0, # of connection points: 2
#     Edge 86, Type (0, 1), BuildingBlock: MIFKUJ_clean_linker_0, # of connection points: 2
#     Edge 87, Type (0, 1), BuildingBlock: MIFKUJ_clean_linker_0, # of connection points: 2
#     Edge 88, Type (0, 1), BuildingBlock: MIFKUJ_clean_linker_0, # of connection points: 2
#     Edge 89, Type (0, 1), BuildingBlock: MIFKUJ_clean_linker_0, # of connection points: 2
#     Edge 90, Type (0, 1), BuildingBlock: MIFKUJ_clean_linker_0, # of connection points: 2
#     Edge 91, Type (0, 1), BuildingBlock: MIFKUJ_clean_linker_0, # of connection points: 2
#     Edge 92, Type (0, 1), BuildingBlock: MIFKUJ_clean_linker_0, # of connection points: 2
#     Edge 93, Type (0, 1), BuildingBlock: MIFKUJ_clean_linker_0, # of connection points: 2
#     Edge 94, Type (0, 1), BuildingBlock: MIFKUJ_clean_linker_0, # of connection points: 2
#     Edge 95, Type (0, 1), BuildingBlock: MIFKUJ_clean_linker_0, # of connection points: 2
#     Edge 96, Type (0, 1), BuildingBlock: MIFKUJ_clean_linker_0, # of connection points: 2
#     Edge 97, Type (0, 1), BuildingBlock: MIFKUJ_clean_linker_0, # of connection points: 2
#     Edge 98, Type (0, 1), BuildingBlock: MIFKUJ_clean_linker_0, # of connection points: 2
#     Edge 99, Type (0, 1), BuildingBlock: MIFKUJ_clean_linker_0, # of connection points: 2
#     Edge 100, Type (0, 1), BuildingBlock: MIFKUJ_clean_linker_0, # of connection points: 2
#     Edge 101, Type (0, 1), BuildingBlock: MIFKUJ_clean_linker_0, # of connection points: 2
#     Edge 102, Type (0, 1), BuildingBlock: MIFKUJ_clean_linker_0, # of connection points: 2
#     Edge 103, Type (0, 1), BuildingBlock: MIFKUJ_clean_linker_0, # of connection points: 2
#     Edge 104, Type (0, 1), BuildingBlock: MIFKUJ_clean_linker_0, # of connection points: 2
#     Edge 105, Type (0, 1), BuildingBlock: MIFKUJ_clean_linker_0, # of connection points: 2
#     Edge 106, Type (0, 1), BuildingBlock: MIFKUJ_clean_linker_0, # of connection points: 2
#     Edge 107, Type (0, 1), BuildingBlock: MIFKUJ_clean_linker_0, # of connection points: 2
#     Edge 108, Type (0, 1), BuildingBlock: MIFKUJ_clean_linker_0, # of connection points: 2
#     Edge 109, Type (0, 1), BuildingBlock: MIFKUJ_clean_linker_0, # of connection points: 2
#     Edge 110, Type (0, 1), BuildingBlock: MIFKUJ_clean_linker_0, # of connection points: 2
#     Edge 111, Type (0, 1), BuildingBlock: MIFKUJ_clean_linker_0, # of connection points: 2
#     Edge 112, Type (0, 1), BuildingBlock: MIFKUJ_clean_linker_0, # of connection points: 2
#     Edge 113, Type (0, 1), BuildingBlock: MIFKUJ_clean_linker_0, # of connection points: 2
#     Edge 114, Type (0, 1), BuildingBlock: MIFKUJ_clean_linker_0, # of connection points: 2
#     Edge 115, Type (0, 1), BuildingBlock: MIFKUJ_clean_linker_0, # of connection points: 2
#     Edge 116, Type (0, 1), BuildingBlock: MIFKUJ_clean_linker_0, # of connection points: 2
#     Edge 117, Type (0, 1), BuildingBlock: MIFKUJ_clean_linker_0, # of connection points: 2
#     Edge 118, Type (0, 1), BuildingBlock: MIFKUJ_clean_linker_0, # of connection points: 2
#     Edge 119, Type (0, 1), BuildingBlock: MIFKUJ_clean_linker_0, # of connection points: 2
#     Edge 120, Type (0, 1), BuildingBlock: MIFKUJ_clean_linker_0, # of connection points: 2
#     Edge 121, Type (0, 1), BuildingBlock: MIFKUJ_clean_linker_0, # of connection points: 2
#     Edge 122, Type (0, 1), BuildingBlock: MIFKUJ_clean_linker_0, # of connection points: 2
#     Edge 123, Type (0, 1), BuildingBlock: MIFKUJ_clean_linker_0, # of connection points: 2
#     Edge 124, Type (0, 1), BuildingBlock: MIFKUJ_clean_linker_0, # of connection points: 2
#     Edge 125, Type (0, 1), BuildingBlock: MIFKUJ_clean_linker_0, # of connection points: 2
#     Edge 126, Type (0, 1), BuildingBlock: MIFKUJ_clean_linker_0, # of connection points: 2
#     Edge 127, Type (0, 1), BuildingBlock: MIFKUJ_clean_linker_0, # of connection points: 2
#     Edge 128, Type (0, 1), BuildingBlock: MIFKUJ_clean_linker_0, # of connection points: 2
#     Edge 129, Type (0, 1), BuildingBlock: MIFKUJ_clean_linker_0, # of connection points: 2
#     Edge 130, Type (0, 1), BuildingBlock: MIFKUJ_clean_linker_0, # of connection points: 2
#     Edge 131, Type (0, 1), BuildingBlock: MIFKUJ_clean_linker_0, # of connection points: 2
#     Edge 132, Type (0, 1), BuildingBlock: MIFKUJ_clean_linker_0, # of connection points: 2
#     Edge 133, Type (0, 1), BuildingBlock: MIFKUJ_clean_linker_0, # of connection points: 2
#     Edge 134, Type (0, 1), BuildingBlock: MIFKUJ_clean_linker_0, # of connection points: 2
#     Edge 135, Type (0, 1), BuildingBlock: MIFKUJ_clean_linker_0, # of connection points: 2
# Relax obj value: 0.230
# Max RMSD: 0.376
# Mean RMSD: 0.193
data_MOF--net-gar--node1-QUQFOY_clean_sbu_1--node2-GEDQOX_clean_sbu_0--edge1-MIFKUJ_clean_linker_0
_symmetry_space_group_name_H-M    P1
_symmetry_Int_Tables_number       1
_symmetry_cell_setting            triclinic
loop_
_symmetry_equiv_pos_as_xyz
'x, y, z'
_cell_length_a     79.096057
_cell_length_b     76.645659
_cell_length_c     70.866675
_cell_angle_alpha  97.40708
_cell_angle_beta   97.360622
_cell_angle_gamma 102.83123
loop_
_atom_site_label
_atom_site_type_symbol
_atom_site_fract_x
_atom_site_fract_y
_atom_site_fract_z
_atom_type_partial_charge
O0 O 0.06601 0.32014 0.45687 0.0
Cd1 Cd 0.07179 0.34542 0.44904 0.0
Cd2 Cd 0.07055 0.35017 0.48312 0.0
O3 O 0.08063 0.32881 0.48622 0.0
O4 O 0.09562 0.35404 0.44248 0.0
O5 O 0.07208 0.33839 0.42168 0.0
C6 C 0.08872 0.34549 0.42534 0.0
C7 C 0.08156 0.37942 0.49496 0.0
C8 C 0.07277 0.31621 0.47249 0.0
C9 C 0.04061 0.3521 0.45715 0.0
O10 O 0.04452 0.34408 0.47104 0.0
O11 O 0.05273 0.35948 0.44863 0.0
O12 O 0.07451 0.36836 0.50575 0.0
O13 O 0.08445 0.37308 0.47816 0.0
O14 O 0.99107 0.74401 0.63938 0.0
Cd15 Cd 0.99848 0.77112 0.64765 0.0
Cd16 Cd 1.00188 0.76825 0.61224 0.0
O17 O 0.9792 0.74958 0.6122 0.0
O18 O 0.99142 0.77723 0.6724 0.0
O19 O 0.97936 0.7837 0.6446 0.0
C20 C 0.97986 0.78371 0.66287 0.0
C21 C 1.00429 0.79634 0.60495 0.0
C22 C 0.98208 0.7381 0.62278 0.0
C23 C 0.03312 0.77361 0.63946 0.0
O24 O 0.02546 0.76381 0.62352 0.0
O25 O 0.02465 0.78176 0.65016 0.0
O26 O 1.00382 0.78306 0.59143 0.0
O27 O 1.00177 0.79299 0.62185 0.0
O28 O 0.59958 0.83691 0.95514 0.0
Cd29 Cd 0.58067 0.83474 0.97201 0.0
Cd30 Cd 0.56263 0.83922 0.94237 0.0
O31 O 0.57858 0.82575 0.93033 0.0
O32 O 0.58318 0.81789 0.98998 0.0
O33 O 0.56101 0.8132 0.96535 0.0
C34 C 0.56879 0.80774 0.9798 0.0
C35 C 0.5341 0.83241 0.92828 0.0
C36 C 0.59463 0.82996 0.93761 0.0
C37 C 0.57426 0.86965 0.97267 0.0
O38 O 0.57219 0.86552 0.95453 0.0
O39 O 0.57539 0.85777 0.98331 0.0
O40 O 0.53813 0.828 0.94493 0.0
O41 O 0.54633 0.84041 0.91976 0.0
O42 O 0.50146 0.23807 0.13994 0.0
Cd43 Cd 0.50888 0.26447 0.15209 0.0
Cd44 Cd 0.51097 0.26501 0.11758 0.0
O45 O 0.48912 0.24459 0.11331 0.0
O46 O 0.50268 0.26469 0.17784 0.0
O47 O 0.48967 0.27644 0.15436 0.0
C48 C 0.49033 0.27197 0.17137 0.0
C49 C 0.51273 0.29328 0.11154 0.0
C50 C 0.49142 0.23291 0.12384 0.0
C51 C 0.5429 0.26931 0.14323 0.0
O52 O 0.53477 0.26 0.12725 0.0
O53 O 0.53465 0.27678 0.15476 0.0
O54 O 0.51327 0.2806 0.09782 0.0
O55 O 0.50945 0.28919 0.12804 0.0
O56 O 0.02291 0.76159 0.20908 0.0
Cd57 Cd 0.02563 0.78569 0.22803 0.0
Cd58 Cd 0.04022 0.79994 0.1965 0.0
O59 O 0.02824 0.77391 0.18322 0.0
O60 O 1.0075 0.78164 0.24699 0.0
O61 O 1.00421 0.79725 0.22357 0.0
C62 C 0.99776 0.79015 0.2375 0.0
C63 C 0.03881 0.82328 0.17827 0.0
C64 C 0.02401 0.75996 0.19116 0.0
C65 C 0.06655 0.80008 0.23165 0.0
O66 O 0.06372 0.80183 0.214 0.0
O67 O 0.0535 0.79589 0.24083 0.0
O68 O 0.04727 0.81126 0.17377 0.0
O69 O 0.03107 0.82224 0.19318 0.0
O70 O 0.5827 0.82073 0.38987 0.0
Cd71 Cd 0.56309 0.82053 0.40666 0.0
Cd72 Cd 0.54473 0.83111 0.37121 0.0
O73 O 0.56943 0.82528 0.36203 0.0
O74 O 0.57056 0.81007 0.43008 0.0
O75 O 0.54685 0.79653 0.40876 0.0
C76 C 0.55706 0.79662 0.42453 0.0
C77 C 0.51326 0.82186 0.35676 0.0
C78 C 0.58313 0.82246 0.37228 0.0
C79 C 0.55387 0.85723 0.41026 0.0
O80 O 0.54835 0.85443 0.39212 0.0
O81 O 0.55957 0.84537 0.41841 0.0
O82 O 0.52473 0.83272 0.34952 0.0
O83 O 0.51965 0.81474 0.37079 0.0
O84 O 0.52836 0.25499 0.70568 0.0
Cd85 Cd 0.53131 0.27851 0.7261 0.0
Cd86 Cd 0.54649 0.29462 0.69609 0.0
O87 O 0.53526 0.26902 0.68133 0.0
O88 O 0.51246 0.274 0.74433 0.0
O89 O 0.51044 0.29106 0.72208 0.0
C90 C 0.50336 0.28341 0.73537 0.0
C91 C 0.54504 0.31892 0.67924 0.0
C92 C 0.53037 0.25443 0.68802 0.0
C93 C 0.57248 0.29321 0.73091 0.0
O94 O 0.56978 0.29598 0.71359 0.0
O95 O 0.55925 0.28838 0.73971 0.0
O96 O 0.55377 0.3073 0.67426 0.0
O97 O 0.53707 0.31697 0.69389 0.0
O98 O 0.05515 0.29335 0.89515 0.0
Cd99 Cd 0.05607 0.30885 0.87236 0.0
Cd100 Cd 0.04279 0.332 0.90517 0.0
O101 O 0.04855 0.31143 0.91871 0.0
O102 O 0.07171 0.29802 0.85445 0.0
O103 O 0.0813 0.32493 0.87172 0.0
C104 C 0.08476 0.31202 0.86034 0.0
C105 C 0.04596 0.35986 0.92584 0.0
C106 C 0.05232 0.29669 0.91248 0.0
C107 C 0.01733 0.31649 0.86678 0.0
O108 O 0.02074 0.32438 0.88425 0.0
O109 O 0.02944 0.31079 0.85877 0.0
O110 O 0.03424 0.34554 0.92677 0.0
O111 O 0.05605 0.35859 0.91306 0.0
O112 O 0.44691 0.12084 0.26505 0.0
Cd113 Cd 0.42827 0.12337 0.2829 0.0
Cd114 Cd 0.45801 0.10921 0.30853 0.0
O115 O 0.46882 0.1139 0.28359 0.0
O116 O 0.40863 0.13144 0.26764 0.0
O117 O 0.42352 0.14722 0.29516 0.0
C118 C 0.41087 0.14519 0.281 0.0
C119 C 0.475 0.10802 0.33874 0.0
C120 C 0.46192 0.11704 0.26741 0.0
C121 C 0.42009 0.08595 0.29436 0.0
O122 O 0.43578 0.08844 0.30284 0.0
O123 O 0.41471 0.09834 0.2869 0.0
O124 O 0.47426 0.09673 0.32339 0.0
O125 O 0.46721 0.12095 0.33681 0.0
O126 O 0.27661 0.13929 0.5176 0.0
Cd127 Cd 0.27521 0.12066 0.49388 0.0
Cd128 Cd 0.27082 0.14791 0.47708 0.0
O129 O 0.28623 0.16166 0.50235 0.0
O130 O 0.28817 0.10366 0.50381 0.0
O131 O 0.29797 0.12244 0.48403 0.0
C132 C 0.30077 0.11103 0.49531 0.0
C133 C 0.27328 0.16497 0.4522 0.0
C134 C 0.28387 0.15583 0.51797 0.0
C135 C 0.23967 0.11769 0.48027 0.0
O136 O 0.24576 0.13433 0.47944 0.0
O137 O 0.25002 0.10727 0.48191 0.0
O138 O 0.2658 0.16921 0.46658 0.0
O139 O 0.27896 0.15041 0.4514 0.0
O140 O 0.16585 0.02711 0.77496 0.0
Cd141 Cd 0.1887 0.02916 0.79553 0.0
Cd142 Cd 0.16074 0.04842 0.81991 0.0
O143 O 0.1473 0.03881 0.79123 0.0
O144 O 0.20482 0.01302 0.78363 0.0
O145 O 0.19121 1.0052 0.80701 0.0
C146 C 0.20115 1.00112 0.79482 0.0
C147 C 0.14451 0.04724 0.84787 0.0
C148 C 0.15128 0.03189 0.77537 0.0
C149 C 0.19674 0.0727 0.81182 0.0
O150 O 0.18238 0.07048 0.81898 0.0
O151 O 0.2017 0.05871 0.804 0.0
O152 O 0.14296 0.05802 0.83553 0.0
O153 O 0.15524 0.03711 0.8447 0.0
O154 O 0.22762 0.9045 0.07686 0.0
Cd155 Cd 0.22426 0.92309 0.05801 0.0
Cd156 Cd 0.23772 0.89197 0.03386 0.0
O157 O 0.23223 0.88049 0.05858 0.0
O158 O 0.2154 0.94343 0.07222 0.0
O159 O 0.20002 0.92593 0.0459 0.0
C160 C 0.20147 0.93946 0.05938 0.0
C161 C 0.23749 0.87618 1.00197 0.0
C162 C 0.23056 0.88861 0.075 0.0
C163 C 0.26093 0.9306 0.04773 0.0
O164 O 0.25886 0.91383 0.04157 0.0
O165 O 0.24833 0.9372 0.05242 0.0
O166 O 0.24726 0.87384 0.01695 0.0
O167 O 0.22686 0.88643 0.00502 0.0
O168 O 0.3114 0.45969 0.14216 0.0
Cd169 Cd 0.31407 0.47906 0.12443 0.0
Cd170 Cd 0.31556 0.45177 0.09731 0.0
O171 O 0.30575 0.43738 0.1175 0.0
O172 O 0.29652 0.49405 0.12722 0.0
O173 O 0.29512 0.47353 0.10162 0.0
C174 C 0.28826 0.48523 0.11059 0.0
C175 C 0.30739 0.4381 0.06564 0.0
C176 C 0.30626 0.44291 0.13526 0.0
C177 C 0.34742 0.4835 0.1099 0.0
O178 O 0.34051 0.46753 0.10118 0.0
O179 O 0.33894 0.49201 0.1203 0.0
O180 O 0.31804 0.4326 0.07744 0.0
O181 O 0.30051 0.45095 0.07208 0.0
O182 O 0.8519 0.20642 0.07713 0.0
Cd183 Cd 0.85157 0.1868 0.05359 0.0
Cd184 Cd 0.83515 0.21274 0.03461 0.0
O185 O 0.8413 0.22686 0.06293 0.0
O186 O 0.86744 0.17108 0.06289 0.0
O187 O 0.87078 0.18445 0.0374 0.0
C188 C 0.87577 0.17394 0.04867 0.0
C189 C 0.8334 0.22734 0.00702 0.0
C190 C 0.84687 0.2212 0.07817 0.0
C191 C 0.8134 0.17458 0.03614 0.0
O192 O 0.81477 0.19008 0.03111 0.0
O193 O 0.82662 0.17023 0.04475 0.0
O194 O 0.82296 0.22819 0.01943 0.0
O195 O 0.8458 0.21925 0.01085 0.0
O196 O 0.13217 0.49158 0.27827 0.0
Cd197 Cd 0.1533 0.49215 0.29967 0.0
Cd198 Cd 0.13177 0.51291 0.32392 0.0
O199 O 0.11875 0.50927 0.29538 0.0
O200 O 0.17009 0.47908 0.28772 0.0
O201 O 0.15753 0.47035 0.312 0.0
C202 C 0.16831 0.46825 0.30017 0.0
C203 C 0.11691 0.51569 0.35104 0.0
C204 C 0.1205 0.50072 0.27926 0.0
C205 C 0.16829 0.53192 0.31952 0.0
O206 O 0.15547 0.53164 0.32864 0.0
O207 O 0.16912 0.51815 0.30787 0.0
O208 O 0.1187 0.52762 0.33978 0.0
O209 O 0.12253 0.50141 0.34636 0.0
O210 O 0.8141 0.96402 0.64524 0.0
Cd211 Cd 0.81579 0.98282 0.62648 0.0
Cd212 Cd 0.82055 0.95562 0.60206 0.0
O213 O 0.81027 0.94104 0.62164 0.0
O214 O 0.79799 0.99779 0.62863 0.0
O215 O 0.79594 0.97524 0.60495 0.0
C216 C 0.78932 0.98765 0.61281 0.0
C217 C 0.81129 0.94434 0.56981 0.0
C218 C 0.81002 0.94701 0.63911 0.0
C219 C 0.85041 0.9875 0.61349 0.0
O220 O 0.84568 0.97048 0.60836 0.0
O221 O 0.83975 0.99618 0.61972 0.0
O222 O 0.8219 0.93747 0.58015 0.0
O223 O 0.80565 0.95749 0.57777 0.0
O224 O 0.91051 0.07172 0.2456 0.0
Cd225 Cd 0.89155 0.07123 0.26612 0.0
Cd226 Cd 0.92322 0.05758 0.28725 0.0
O227 O 0.93355 0.0654 0.26247 0.0
O228 O 0.87254 0.08614 0.25854 0.0
O229 O 0.89305 0.09687 0.28327 0.0
C230 C 0.87963 0.09943 0.27247 0.0
C231 C 0.94122 0.06376 0.31878 0.0
C232 C 0.92639 0.06961 0.24696 0.0
C233 C 0.88621 0.03049 0.2778 0.0
O234 O 0.90287 0.03378 0.28274 0.0
O235 O 0.87925 0.04335 0.27253 0.0
O236 O 0.9429 0.05173 0.30513 0.0
O237 O 0.92985 0.07298 0.31447 0.0
O238 O 0.35315 0.70698 0.57077 0.0
Cd239 Cd 0.35292 0.68635 0.54797 0.0
Cd240 Cd 0.3369 0.71281 0.52635 0.0
O241 O 0.34264 0.72648 0.55469 0.0
O242 O 0.36647 0.66867 0.55775 0.0
O243 O 0.37441 0.68438 0.53509 0.0
C244 C 0.37711 0.67248 0.54571 0.0
C245 C 0.33363 0.72801 0.49906 0.0
C246 C 0.34787 0.7216 0.57059 0.0
C247 C 0.31451 0.67532 0.52931 0.0
O248 O 0.31654 0.69063 0.52377 0.0
O249 O 0.32745 0.67052 0.53799 0.0
O250 O 0.32398 0.72865 0.51228 0.0
O251 O 0.34602 0.7197 0.50175 0.0
O252 O 0.4133 0.5754 0.75098 0.0
Cd253 Cd 0.39268 0.57476 0.76926 0.0
Cd254 Cd 0.42543 0.56133 0.79419 0.0
O255 O 0.43568 0.56885 0.76909 0.0
O256 O 0.3737 0.58933 0.75962 0.0
O257 O 0.39269 0.60061 0.78546 0.0
C258 C 0.37985 0.60288 0.77352 0.0
C259 C 0.44378 0.56534 0.82559 0.0
C260 C 0.42911 0.57305 0.75322 0.0
C261 C 0.38784 0.53413 0.78199 0.0
O262 O 0.40415 0.53843 0.78925 0.0
O263 O 0.38084 0.54621 0.77473 0.0
O264 O 0.44478 0.55369 0.81119 0.0
O265 O 0.43303 0.57543 0.82215 0.0
O266 O 0.63501 0.99448 0.77376 0.0
Cd267 Cd 0.65333 0.99421 0.79793 0.0
Cd268 Cd 0.62782 0.0116 0.81623 0.0
O269 O 0.61488 1.00513 0.78768 0.0
O270 O 0.67136 0.98139 0.78905 0.0
O271 O 0.65506 0.97177 0.81033 0.0
C272 C 0.66761 0.97013 0.80076 0.0
C273 C 0.61333 0.0123 0.84353 0.0
C274 C 0.62059 0.99955 0.77251 0.0
C275 C 0.66509 0.0336 0.81717 0.0
O276 O 0.64959 0.03279 0.82055 0.0
O277 O 0.66926 0.01961 0.80934 0.0
O278 O 0.61214 0.0232 0.83131 0.0
O279 O 0.62168 0.99996 0.83956 0.0
O280 O 0.78069 0.64585 0.02477 0.0
Cd281 Cd 0.77832 0.62746 1.00078 0.0
Cd282 Cd 0.76782 0.65362 0.98396 0.0
O283 O 0.77866 0.66902 0.01005 0.0
O284 O 0.79018 0.61072 0.01282 0.0
O285 O 0.80108 0.62686 0.99149 0.0
C286 C 0.80317 0.61655 0.00422 0.0
C287 C 0.77218 0.66956 0.95886 0.0
C288 C 0.78183 0.66261 0.02533 0.0
C289 C 0.74097 0.61951 0.98645 0.0
O290 O 0.74412 0.63575 0.98324 0.0
O291 O 0.75347 0.6122 0.99107 0.0
O292 O 0.76089 0.67214 0.96976 0.0
O293 O 0.78067 0.6573 0.9616 0.0
O294 O 0.94891 0.62619 0.77491 0.0
Cd295 Cd 0.92835 0.62746 0.79064 0.0
Cd296 Cd 0.95587 0.61133 0.81756 0.0
O297 O 0.96804 0.61574 0.79365 0.0
O298 O 0.91211 0.63913 0.77443 0.0
O299 O 0.92248 0.64975 0.80503 0.0
C300 C 0.91267 0.65083 0.78941 0.0
C301 C 0.97191 0.60938 0.84824 0.0
C302 C 0.96299 0.62062 0.7777 0.0
C303 C 0.91806 0.5892 0.79976 0.0
O304 O 0.93319 0.59132 0.80959 0.0
O305 O 0.91341 0.60191 0.79209 0.0
O306 O 0.97109 0.59804 0.83291 0.0
O307 O 0.96441 0.6225 0.84618 0.0
O308 O 0.72912 0.40129 0.58616 0.0
Cd309 Cd 0.72687 0.42141 0.56912 0.0
Cd310 Cd 0.74043 0.39151 0.54134 0.0
O311 O 0.73804 0.38078 0.56694 0.0
O312 O 0.71773 0.44089 0.58425 0.0
O313 O 0.70345 0.42539 0.55637 0.0
C314 C 0.70447 0.43806 0.57067 0.0
C315 C 0.74163 0.37377 0.51104 0.0
C316 C 0.73434 0.38663 0.58331 0.0
C317 C 0.7626 0.43083 0.5557 0.0
O318 O 0.75964 0.41499 0.5461 0.0
O319 O 0.75127 0.43586 0.56498 0.0
O320 O 0.75298 0.37527 0.52624 0.0
O321 O 0.72871 0.38117 0.51317 0.0
O322 O 0.67018 0.52504 0.28304 0.0
Cd323 Cd 0.69333 0.52804 0.30361 0.0
Cd324 Cd 0.66505 0.54753 0.3274 0.0
O325 O 0.65167 0.53745 0.29869 0.0
O326 O 0.7085 0.51104 0.29111 0.0
O327 O 0.69718 0.50509 0.31651 0.0
C328 C 0.70596 0.50009 0.30347 0.0
C329 C 0.64936 0.54662 0.35588 0.0
C330 C 0.65564 0.52993 0.28311 0.0
C331 C 0.70064 0.57198 0.31863 0.0
O332 O 0.68621 0.56972 0.32566 0.0
O333 O 0.70598 0.55799 0.31136 0.0
O334 O 0.647 0.55673 0.34305 0.0
O335 O 0.66053 0.53697 0.3529 0.0
Nd336 Nd 0.052 0.0783 0.05425 0.0
Nd337 Nd 0.02828 0.04213 0.04596 0.0
C338 C 0.06485 0.11392 0.06434 0.0
C339 C 0.06415 0.12937 0.05355 0.0
C340 C 0.06024 0.14515 0.06247 0.0
C341 C 0.05835 0.1593 0.05217 0.0
C342 C 0.0602 0.15808 0.03253 0.0
C343 C 0.06409 0.14219 0.02364 0.0
C344 C 0.06607 0.1281 0.03398 0.0
C345 C 0.05345 0.06511 0.01554 0.0
C346 C 1.0105 0.0741 0.03704 0.0
C347 C 0.0158 0.0066 0.0355 0.0
C348 C 0.01862 0.99112 0.04489 0.0
C349 C 0.02367 0.97666 0.03467 0.0
C350 C 0.02751 0.96259 0.04396 0.0
C351 C 0.02648 0.96286 0.06366 0.0
C352 C 0.02122 0.97723 0.07374 0.0
C353 C 0.0174 0.99122 0.0645 0.0
C354 C 0.02229 0.05997 0.08024 0.0
C355 C 0.06982 0.04614 0.06512 0.0
O356 O 0.04986 0.1053 0.06827 0.0
O357 O 0.0744 0.10281 0.05898 0.0
O358 O 0.06144 0.08094 0.02477 0.0
O359 O 0.04434 0.05681 0.02658 0.0
O360 O 0.02508 0.08393 0.04767 0.0
O361 O 1.00916 0.0568 0.03054 0.0
O362 O 0.02938 0.01577 0.02938 0.0
O363 O 1.00718 0.01714 0.04396 0.0
O364 O 1.01076 0.04913 0.06677 0.0
O365 O 0.03794 0.06127 0.0758 0.0
O366 O 0.05372 0.03584 0.05996 0.0
O367 O 0.073 0.0639 0.06572 0.0
H368 H 0.05851 0.14648 0.07746 0.0
H369 H 0.05557 0.17129 0.05971 0.0
H370 H 0.0653 0.14039 0.00851 0.0
H371 H 0.06886 0.11611 0.0265 0.0
H372 H 0.02492 0.9764 0.01959 0.0
H373 H 0.03166 0.95174 0.03588 0.0
H374 H 0.02003 0.97767 0.08885 0.0
H375 H 0.01372 1.00225 0.07284 0.0
Nd376 Nd 0.29239 0.82571 0.29489 0.0
Nd377 Nd 0.28503 0.78681 0.27373 0.0
C378 C 0.28981 0.85883 0.30693 0.0
C379 C 0.29992 0.8766 0.30411 0.0
C380 C 0.29099 0.8894 0.29836 0.0
C381 C 0.30022 0.90561 0.29369 0.0
C382 C 0.31856 0.90927 0.29471 0.0
C383 C 0.32747 0.89638 0.30044 0.0
C384 C 0.31823 0.88017 0.30504 0.0
C385 C 0.32559 0.81823 0.29469 0.0
C386 C 0.28881 0.81873 0.24716 0.0
C387 C 0.28613 0.75297 0.26252 0.0
C388 C 0.2765 0.73573 0.26768 0.0
C389 C 0.28492 0.7274 0.28138 0.0
C390 C 0.27574 0.71191 0.2875 0.0
C391 C 0.25791 0.70427 0.27998 0.0
C392 C 0.2495 0.71248 0.26613 0.0
C393 C 0.25867 0.72804 0.26007 0.0
C394 C 0.25202 0.79404 0.27597 0.0
C395 C 0.28821 0.79385 0.32108 0.0
O396 O 0.28035 0.84873 0.29122 0.0
O397 O 0.29795 0.84972 0.31788 0.0
O398 O 0.32265 0.83357 0.30142 0.0
O399 O 0.3108 0.80729 0.28721 0.0
O400 O 0.29031 0.83017 0.26323 0.0
O401 O 0.28862 0.80144 0.24742 0.0
O402 O 0.29749 0.7639 0.27644 0.0
O403 O 0.27709 0.76163 0.25195 0.0
O404 O 0.25478 0.77867 0.26913 0.0
O405 O 0.26687 0.80499 0.28267 0.0
O406 O 0.28812 0.78274 0.30526 0.0
O407 O 0.28716 0.81077 0.32062 0.0
H408 H 0.27682 0.88672 0.29719 0.0
H409 H 0.29303 0.91534 0.28945 0.0
H410 H 0.34156 0.89869 0.30106 0.0
H411 H 0.3254 0.87034 0.30899 0.0
H412 H 0.29863 0.73299 0.28756 0.0
H413 H 0.2827 0.70579 0.29798 0.0
H414 H 0.23573 0.70704 0.26019 0.0
H415 H 0.25168 0.73417 0.24963 0.0
Nd416 Nd 0.56244 0.06015 0.55576 0.0
Nd417 Nd 0.52464 0.0462 0.55863 0.0
C418 C 0.59352 0.06718 0.54499 0.0
C419 C 0.60743 0.0574 0.5464 0.0
C420 C 0.6176 0.05636 0.53168 0.0
C421 C 0.63081 0.04693 0.53303 0.0
C422 C 0.63397 0.03856 0.54918 0.0
C423 C 0.62327 0.03902 0.5635 0.0
C424 C 0.61004 0.04829 0.56207 0.0
C425 C 0.55791 0.04815 0.59044 0.0
C426 C 0.54283 0.01722 0.53716 0.0
C427 C 0.49499 0.03818 0.57229 0.0
C428 C 0.4806 0.04752 0.57142 0.0
C429 C 0.47207 0.05003 0.58738 0.0
C430 C 0.45964 0.06051 0.58718 0.0
C431 C 0.45595 0.06892 0.57118 0.0
C432 C 0.46449 0.06638 0.55527 0.0
C433 C 0.47658 0.0557 0.55534 0.0
C434 C 0.52516 0.06356 0.52636 0.0
C435 C 0.54422 0.08848 0.57572 0.0
O436 O 0.57919 0.05864 0.53313 0.0
O437 O 0.59043 0.07485 0.56135 0.0
O438 O 0.56953 0.0623 0.58838 0.0
O439 O 0.5493 0.04017 0.57406 0.0
O440 O 0.55702 0.03073 0.53997 0.0
O441 O 0.52842 0.01918 0.54386 0.0
O442 O 0.50971 0.04764 0.58295 0.0
O443 O 0.49732 0.02978 0.55585 0.0
O444 O 0.5111 0.05562 0.5321 0.0
O445 O 0.53833 0.06205 0.5374 0.0
O446 O 0.53334 0.07375 0.57863 0.0
O447 O 0.55531 0.0873 0.56352 0.0
H448 H 0.61542 0.06298 0.51929 0.0
H449 H 0.6389 0.04668 0.52182 0.0
H450 H 0.62528 0.03236 0.5759 0.0
H451 H 0.60195 0.04846 0.5733 0.0
H452 H 0.47518 0.04407 0.60005 0.0
H453 H 0.45309 0.06224 0.59956 0.0
H454 H 0.46158 0.07241 0.54259 0.0
H455 H 0.48279 0.05395 0.54278 0.0
Nd456 Nd 0.30199 0.30551 0.81117 0.0
Nd457 Nd 0.28571 0.29851 0.77849 0.0
C458 C 0.3141 0.30788 0.84814 0.0
C459 C 0.30775 0.31047 0.86638 0.0
C460 C 0.29012 0.30331 0.86791 0.0
C461 C 0.28387 0.3081 0.88486 0.0
C462 C 0.29522 0.32006 0.90029 0.0
C463 C 0.31298 0.32668 0.89883 0.0
C464 C 0.31919 0.32187 0.88198 0.0
C465 C 0.31146 0.3379 0.79552 0.0
C466 C 0.26055 0.30864 0.80763 0.0
C467 C 0.27557 0.29523 0.74096 0.0
C468 C 0.28153 0.28659 0.72421 0.0
C469 C 0.29881 0.29243 0.72062 0.0
C470 C 0.30465 0.28288 0.7057 0.0
C471 C 0.29335 0.26729 0.69441 0.0
C472 C 0.27603 0.26166 0.69781 0.0
C473 C 0.27014 0.27128 0.71254 0.0
C474 C 0.27623 0.26624 0.7941 0.0
C475 C 0.32725 0.29466 0.78274 0.0
O476 O 0.30712 0.29252 0.83673 0.0
O477 O 0.31586 0.32175 0.83912 0.0
O478 O 0.32219 0.32942 0.80345 0.0
O479 O 0.29573 0.32818 0.79429 0.0
O480 O 0.27436 0.30753 0.81965 0.0
O481 O 0.26195 0.30731 0.78928 0.0
O482 O 0.28635 0.3097 0.75121 0.0
O483 O 0.26807 0.28417 0.75157 0.0
O484 O 0.26545 0.27469 0.78624 0.0
O485 O 0.29194 0.27585 0.79505 0.0
O486 O 0.31309 0.2944 0.77043 0.0
O487 O 0.32617 0.29772 0.80106 0.0
H488 H 0.28108 0.29462 0.85582 0.0
H489 H 0.27011 0.30303 0.88568 0.0
H490 H 0.32185 0.3364 0.91031 0.0
H491 H 0.33274 0.32771 0.8808 0.0
H492 H 0.30793 0.30413 0.72953 0.0
H493 H 0.31804 0.28743 0.70321 0.0
H494 H 0.267 0.24983 0.68899 0.0
H495 H 0.25679 0.26654 0.71508 0.0
Nd496 Nd 0.04329 0.07796 0.56023 0.0
Nd497 Nd 0.04933 0.04082 0.54217 0.0
C498 C 0.03105 0.10638 0.56985 0.0
C499 C 0.02998 0.12202 0.56012 0.0
C500 C 0.01511 0.12144 0.5466 0.0
C501 C 0.01471 0.13569 0.53631 0.0
C502 C 0.02908 0.15076 0.53959 0.0
C503 C 0.04393 0.15136 0.55302 0.0
C504 C 0.04436 0.13715 0.56326 0.0
C505 C 0.07531 0.07955 0.54878 0.0
C506 C 0.03007 0.06276 0.51265 0.0
C507 C 0.06405 0.01511 0.53059 0.0
C508 C 0.06322 0.9981 0.53818 0.0
C509 C 0.0786 0.99465 0.54752 0.0
C510 C 0.07761 0.9798 0.55718 0.0
C511 C 0.06123 0.96825 0.55737 0.0
C512 C 0.04587 0.97171 0.54816 0.0
C513 C 0.04682 0.98655 0.53869 0.0
C514 C 0.01847 0.03492 0.55756 0.0
C515 C 0.06081 0.05502 0.58937 0.0
O516 O 0.02092 0.09074 0.56124 0.0
O517 O 0.04688 0.10531 0.57675 0.0
O518 O 0.07303 0.08999 0.56366 0.0
O519 O 0.06084 0.0698 0.53982 0.0
O520 O 0.03044 0.07509 0.52788 0.0
O521 O 0.03743 0.04897 0.51425 0.0
O522 O 0.07279 0.02967 0.54274 0.0
O523 O 0.04927 0.01691 0.52119 0.0
O524 O 0.02412 0.02183 0.54907 0.0
O525 O 0.02923 0.04954 0.55755 0.0
O526 O 0.06413 0.04589 0.57363 0.0
O527 O 0.05049 0.06645 0.58808 0.0
H528 H 1.00386 0.10989 0.54381 0.0
H529 H 1.00315 0.13506 0.52598 0.0
H530 H 0.05529 0.16278 0.55548 0.0
H531 H 0.05608 0.13795 0.57341 0.0
H532 H 0.09131 1.00365 0.54768 0.0
H533 H 0.08957 0.97717 0.56421 0.0
H534 H 0.03311 0.96295 0.54837 0.0
H535 H 0.03466 0.98911 0.53213 0.0
Nd536 Nd 0.30349 0.8125 0.78859 0.0
Nd537 Nd 0.27219 0.78965 0.77437 0.0
C538 C 0.33347 0.83689 0.79345 0.0
C539 C 0.35108 0.83434 0.79333 0.0
C540 C 0.35305 0.81708 0.78606 0.0
C541 C 0.368 0.81163 0.79292 0.0
C542 C 0.381 0.82358 0.80674 0.0
C543 C 0.38003 0.84156 0.81206 0.0
C544 C 0.365 0.84694 0.80539 0.0
C545 C 0.28441 0.80751 0.81852 0.0
C546 C 0.30473 0.76955 0.78586 0.0
C547 C 0.2417 0.76584 0.76589 0.0
C548 C 0.22397 0.76851 0.76217 0.0
C549 C 0.21886 0.78196 0.77402 0.0
C550 C 0.20384 0.78762 0.76772 0.0
C551 C 0.19416 0.78011 0.74944 0.0
C552 C 0.1988 0.76618 0.73798 0.0
C553 C 0.21357 0.76031 0.74438 0.0
C554 C 0.29143 0.79556 0.74483 0.0
C555 C 0.27079 0.83246 0.77754 0.0
O556 O 0.32285 0.83212 0.77695 0.0
O557 O 0.32639 0.83079 0.80773 0.0
O558 O 0.30052 0.80608 0.81919 0.0
O559 O 0.27861 0.81012 0.80193 0.0
O560 O 0.31459 0.78619 0.78687 0.0
O561 O 0.28745 0.76779 0.78386 0.0
O562 O 0.25023 0.7709 0.78354 0.0
O563 O 0.25122 0.77103 0.75298 0.0
O564 O 0.27552 0.79756 0.74439 0.0
O565 O 0.29703 0.79226 0.76114 0.0
O566 O 0.2609 0.81581 0.77631 0.0
O567 O 0.28804 0.83429 0.77977 0.0
H568 H 0.34229 0.8072 0.77677 0.0
H569 H 0.36862 0.79768 0.7889 0.0
H570 H 0.39006 0.85082 0.82288 0.0
H571 H 0.36351 0.86017 0.81128 0.0
H572 H 0.22693 0.78877 0.78762 0.0
H573 H 0.20025 0.79836 0.77664 0.0
H574 H 0.19127 0.76025 0.72384 0.0
H575 H 0.21753 0.7502 0.73492 0.0
Nd576 Nd 0.52279 0.0483 0.05324 0.0
Nd577 Nd 0.56265 0.0543 0.07286 0.0
C578 C 0.49006 0.0496 0.04266 0.0
C579 C 0.47319 0.04089 0.04817 0.0
C580 C 0.46084 0.05105 0.05133 0.0
C581 C 0.44442 0.04279 0.05546 0.0
C582 C 0.44005 0.02418 0.05663 0.0
C583 C 0.45275 0.01417 0.05431 0.0
C584 C 0.46918 0.02245 0.05014 0.0
C585 C 0.53237 0.01769 0.06131 0.0
C586 C 0.53364 0.05739 0.10094 0.0
C587 C 0.59595 0.05468 0.08232 0.0
C588 C 0.61168 0.06396 0.07509 0.0
C589 C 0.62468 0.0548 0.07155 0.0
C590 C 0.63971 0.06344 0.06483 0.0
C591 C 0.64203 0.08149 0.06161 0.0
C592 C 0.62877 0.09055 0.06468 0.0
C593 C 0.6137 0.08185 0.07133 0.0
C594 C 0.55296 0.08444 0.06336 0.0
C595 C 0.55211 0.04547 0.02527 0.0
O596 O 0.50101 0.06204 0.05579 0.0
O597 O 0.4978 0.0388 0.03298 0.0
O598 O 0.519 0.01767 0.04863 0.0
O599 O 0.53783 0.03312 0.07139 0.0
O600 O 0.5224 0.05738 0.0854 0.0
O601 O 0.54938 0.05424 0.10006 0.0
O602 O 0.58496 0.04137 0.07023 0.0
O603 O 0.58808 0.06519 0.09218 0.0
O604 O 0.56502 0.08486 0.07771 0.0
O605 O 0.54784 0.06881 0.05396 0.0
O606 O 0.56274 0.04428 0.04082 0.0
O607 O 0.53683 0.04975 0.02643 0.0
H608 H 0.46383 0.06534 0.05039 0.0
H609 H 0.43505 0.05096 0.05755 0.0
H610 H 0.44979 0.9998 0.05503 0.0
H611 H 0.47859 0.01432 0.0481 0.0
H612 H 0.62328 0.04102 0.07424 0.0
H613 H 0.64962 0.05605 0.06232 0.0
H614 H 0.63028 0.1045 0.06246 0.0
H615 H 0.60375 0.08921 0.07372 0.0
Nd616 Nd 0.26188 0.28444 0.275 0.0
Nd617 Nd 0.29594 0.3084 0.29333 0.0
C618 C 0.22876 0.26986 0.25967 0.0
C619 C 0.21298 0.27277 0.26759 0.0
C620 C 0.20633 0.28794 0.26457 0.0
C621 C 0.19408 0.29282 0.27548 0.0
C622 C 0.18839 0.28268 0.2896 0.0
C623 C 0.19416 0.26694 0.2918 0.0
C624 C 0.20619 0.26193 0.28078 0.0
C625 C 0.27361 0.27655 0.30987 0.0
C626 C 0.26288 0.32623 0.29541 0.0
C627 C 0.32715 0.32584 0.31134 0.0
C628 C 0.34332 0.32196 0.30513 0.0
C629 C 0.34975 0.30762 0.31145 0.0
C630 C 0.36062 0.29953 0.30104 0.0
C631 C 0.36527 0.30566 0.28416 0.0
C632 C 0.36039 0.32116 0.27901 0.0
C633 C 0.34958 0.32928 0.28942 0.0
C634 C 0.28953 0.30646 0.25367 0.0
C635 C 0.2959 0.2684 0.27292 0.0
O636 O 0.23834 0.28353 0.25355 0.0
O637 O 0.23837 0.26157 0.26986 0.0
O638 O 0.2661 0.26465 0.29489 0.0
O639 O 0.27446 0.29258 0.30672 0.0
O640 O 0.25317 0.30978 0.28789 0.0
O641 O 0.28011 0.32943 0.29954 0.0
O642 O 0.31735 0.31272 0.31815 0.0
O643 O 0.31786 0.33309 0.29932 0.0
O644 O 0.30413 0.30523 0.26333 0.0
O645 O 0.27877 0.30764 0.26499 0.0
O646 O 0.30253 0.28094 0.28814 0.0
O647 O 0.28083 0.26842 0.26218 0.0
H648 H 0.21127 0.29658 0.25456 0.0
H649 H 0.18982 0.30508 0.27364 0.0
H650 H 0.18978 0.25883 0.3025 0.0
H651 H 0.21092 0.25009 0.2834 0.0
H652 H 0.34524 0.30165 0.32351 0.0
H653 H 0.36431 0.28767 0.3054 0.0
H654 H 0.3643 0.32655 0.26639 0.0
H655 H 0.34506 0.34039 0.2842 0.0
Nd656 Nd 0.54504 0.57103 0.06547 0.0
Nd657 Nd 0.55009 0.53354 0.04704 0.0
C658 C 0.53139 0.59773 0.07676 0.0
C659 C 0.5309 0.61359 0.06712 0.0
C660 C 0.51542 0.61403 0.05524 0.0
C661 C 0.51554 0.62706 0.04321 0.0
C662 C 0.53111 0.64004 0.04301 0.0
C663 C 0.5465 0.63995 0.05529 0.0
C664 C 0.54641 0.62684 0.0672 0.0
C665 C 0.57484 0.5761 0.04849 0.0
C666 C 0.53294 0.55654 0.01804 0.0
C667 C 0.56238 0.50542 0.0369 0.0
C668 C 0.56585 0.49167 0.04815 0.0
C669 C 0.58007 0.48405 0.0457 0.0
C670 C 0.58355 0.47113 0.05677 0.0
C671 C 0.57287 0.4659 0.07041 0.0
C672 C 0.55904 0.47408 0.07336 0.0
C673 C 0.55558 0.48697 0.06233 0.0
C674 C 0.51807 0.53319 0.05765 0.0
C675 C 0.56411 0.54819 0.09461 0.0
O676 O 0.52175 0.58221 0.06701 0.0
O677 O 0.54697 0.59666 0.08482 0.0
O678 O 0.56975 0.58951 0.05706 0.0
O679 O 0.56419 0.56169 0.04927 0.0
O680 O 0.52993 0.56602 0.03383 0.0
O681 O 0.54311 0.54502 0.01934 0.0
O682 O 0.57262 0.52161 0.04312 0.0
O683 O 0.54578 0.50537 0.03245 0.0
O684 O 0.52018 0.52332 0.04222 0.0
O685 O 0.53262 0.54204 0.06741 0.0
O686 O 0.56239 0.53544 0.07935 0.0
O687 O 0.55803 0.56289 0.0932 0.0
H688 H 0.50334 0.60385 0.05468 0.0
H689 H 0.50353 0.62674 0.03378 0.0
H690 H 0.55861 0.65003 0.05572 0.0
H691 H 0.55864 0.62683 0.07604 0.0
H692 H 0.58833 0.48795 0.03512 0.0
H693 H 0.59426 0.46487 0.05436 0.0
H694 H 0.55046 0.46996 0.08358 0.0
H695 H 0.54475 0.49307 0.0647 0.0
Nd696 Nd 0.80748 0.30997 0.30029 0.0
Nd697 Nd 0.77607 0.28801 0.2842 0.0
C698 C 0.83785 0.33394 0.31015 0.0
C699 C 0.85596 0.33253 0.31424 0.0
C700 C 0.86204 0.31919 0.3034 0.0
C701 C 0.87847 0.31619 0.3096 0.0
C702 C 0.88881 0.3265 0.32662 0.0
C703 C 0.88269 0.33985 0.33731 0.0
C704 C 0.8664 0.34287 0.33112 0.0
C705 C 0.78748 0.30284 0.32889 0.0
C706 C 0.80838 0.26709 0.29466 0.0
C707 C 0.74575 0.26388 0.27657 0.0
C708 C 0.72789 0.26602 0.2754 0.0
C709 C 0.72466 0.2818 0.28519 0.0
C710 C 0.70875 0.28632 0.28019 0.0
C711 C 0.69607 0.27497 0.26555 0.0
C712 C 0.69892 0.25873 0.25654 0.0
C713 C 0.71483 0.25429 0.26142 0.0
C714 C 0.7956 0.29518 0.25521 0.0
C715 C 0.77563 0.33115 0.28907 0.0
O716 O 0.82983 0.32912 0.29228 0.0
O717 O 0.8282 0.32779 0.32256 0.0
O718 O 0.80327 0.30048 0.32928 0.0
O719 O 0.78215 0.30684 0.31279 0.0
O720 O 0.81852 0.28379 0.29784 0.0
O721 O 0.79113 0.26537 0.29122 0.0
O722 O 0.75538 0.26806 0.2937 0.0
O723 O 0.75389 0.27059 0.26326 0.0
O724 O 0.77941 0.29622 0.25465 0.0
O725 O 0.80129 0.2915 0.27138 0.0
O726 O 0.76533 0.3145 0.28583 0.0
O727 O 0.79284 0.33272 0.29283 0.0
H728 H 0.85389 0.31074 0.29057 0.0
H729 H 0.88299 0.30573 0.30132 0.0
H730 H 0.8903 0.34756 0.3508 0.0
H731 H 0.86162 0.35277 0.33994 0.0
H732 H 0.73482 0.29119 0.29575 0.0
H733 H 0.7067 0.299 0.287 0.0
H734 H 0.68927 0.2501 0.24489 0.0
H735 H 0.71739 0.24237 0.2534 0.0
Nd736 Nd 0.02315 0.55455 0.55897 0.0
Nd737 Nd 0.06365 0.56666 0.57852 0.0
C738 C 0.98969 0.55252 0.54718 0.0
C739 C 0.97302 0.54295 0.55239 0.0
C740 C 0.96039 0.55253 0.55642 0.0
C741 C 0.94435 0.54357 0.56093 0.0
C742 C 0.94065 0.52483 0.5614 0.0
C743 C 0.95352 0.51535 0.55782 0.0
C744 C 0.96957 0.52432 0.55342 0.0
C745 C 0.03554 0.52714 0.57314 0.0
C746 C 0.03377 0.56982 0.60559 0.0
C747 C 0.09759 0.57196 0.59081 0.0
C748 C 0.11364 0.5795 0.58291 0.0
C749 C 0.12025 0.5686 0.56961 0.0
C750 C 0.1352 0.57599 0.56198 0.0
C751 C 0.14388 0.59446 0.56742 0.0
C752 C 0.13726 0.60529 0.58078 0.0
C753 C 0.12236 0.59791 0.58843 0.0
C754 C 0.0492 0.59323 0.56741 0.0
C755 C 0.05292 0.55431 0.53055 0.0
O756 O 0.99964 0.56579 0.56014 0.0
O757 O 0.99863 0.5424 0.53844 0.0
O758 O 0.02145 0.52446 0.56054 0.0
O759 O 0.04068 0.54383 0.57951 0.0
O760 O 0.02269 0.56847 0.58954 0.0
O761 O 0.04959 0.56657 0.60538 0.0
O762 O 0.08777 0.55617 0.58211 0.0
O763 O 0.08839 0.58346 0.59604 0.0
O764 O 0.06125 0.59579 0.58242 0.0
O765 O 0.04604 0.57744 0.55827 0.0
O766 O 0.06541 0.56021 0.54588 0.0
O767 O 0.03597 0.55206 0.53158 0.0
H768 H 0.96284 0.56692 0.55585 0.0
H769 H 0.93467 0.55124 0.5635 0.0
H770 H 0.95117 0.50097 0.55839 0.0
H771 H 0.97919 0.51661 0.5507 0.0
H772 H 0.11388 0.55436 0.56502 0.0
H773 H 0.13986 0.56719 0.55175 0.0
H774 H 0.14378 0.61944 0.58571 0.0
H775 H 0.11769 0.60667 0.59874 0.0
Nd776 Nd 0.79656 0.80621 0.31606 0.0
Nd777 Nd 0.7803 0.79987 0.284 0.0
C778 C 0.80758 0.80885 0.35326 0.0
C779 C 0.8 0.81349 0.37024 0.0
C780 C 0.8029 0.80507 0.38631 0.0
C781 C 0.79634 0.81008 0.40294 0.0
C782 C 0.78685 0.82354 0.40354 0.0
C783 C 0.78306 0.83113 0.38698 0.0
C784 C 0.78956 0.82608 0.37037 0.0
C785 C 0.80582 0.83869 0.30037 0.0
C786 C 0.7553 0.81015 0.31268 0.0
C787 C 0.77045 0.79767 0.24668 0.0
C788 C 0.77649 0.78911 0.23007 0.0
C789 C 0.78415 0.79998 0.21749 0.0
C790 C 0.79146 0.79244 0.20259 0.0
C791 C 0.7911 0.77391 0.20008 0.0
C792 C 0.78351 0.76303 0.21272 0.0
C793 C 0.7763 0.77058 0.22768 0.0
C794 C 0.77146 0.7667 0.2985 0.0
C795 C 0.82162 0.79567 0.28763 0.0
O796 O 0.79923 0.79362 0.34234 0.0
O797 O 0.81218 0.82191 0.3435 0.0
O798 O 0.81669 0.82979 0.30717 0.0
O799 O 0.79018 0.82934 0.30029 0.0
O800 O 0.76852 0.80728 0.32429 0.0
O801 O 0.7574 0.81036 0.29468 0.0
O802 O 0.78202 0.81142 0.25713 0.0
O803 O 0.76201 0.78693 0.25702 0.0
O804 O 0.76048 0.77494 0.29061 0.0
O805 O 0.78701 0.77677 0.29981 0.0
O806 O 0.80779 0.7967 0.27557 0.0
O807 O 0.82025 0.79735 0.30592 0.0
H808 H 0.81062 0.79503 0.38614 0.0
H809 H 0.79932 0.80406 0.4156 0.0
H810 H 0.77602 0.84176 0.3872 0.0
H811 H 0.78693 0.83246 0.35789 0.0
H812 H 0.78469 0.81437 0.21937 0.0
H813 H 0.79733 0.80104 0.19299 0.0
H814 H 0.78281 0.74862 0.21078 0.0
H815 H 0.7707 0.76194 0.23739 0.0
Nd816 Nd 0.79925 0.32484 0.8027 0.0
Nd817 Nd 0.79187 0.28516 0.78058 0.0
C818 C 0.79747 0.35829 0.81454 0.0
C819 C 0.80667 0.37592 0.81028 0.0
C820 C 0.79673 0.38738 0.80318 0.0
C821 C 0.80495 0.40353 0.79761 0.0
C822 C 0.82335 0.40867 0.79917 0.0
C823 C 0.83332 0.39707 0.80614 0.0
C824 C 0.82505 0.3808 0.81155 0.0
C825 C 0.83206 0.31646 0.80076 0.0
C826 C 0.7946 0.31732 0.75489 0.0
C827 C 0.79354 0.25151 0.76971 0.0
C828 C 0.78411 0.23438 0.77506 0.0
C829 C 0.79376 0.22338 0.78372 0.0
C830 C 0.78522 0.20813 0.79074 0.0
C831 C 0.7668 0.2035 0.7892 0.0
C832 C 0.75713 0.21446 0.78037 0.0
C833 C 0.76569 0.22978 0.77345 0.0
C834 C 0.75902 0.293 0.78296 0.0
C835 C 0.79456 0.29257 0.82803 0.0
O836 O 0.78674 0.34766 0.79992 0.0
O837 O 0.80667 0.34962 0.82492 0.0
O838 O 0.82989 0.33194 0.80824 0.0
O839 O 0.81685 0.30636 0.79371 0.0
O840 O 0.79486 0.32832 0.77092 0.0
O841 O 0.79631 0.30052 0.75495 0.0
O842 O 0.80468 0.26255 0.78373 0.0
O843 O 0.78435 0.25992 0.75897 0.0
O844 O 0.76153 0.27767 0.77549 0.0
O845 O 0.77409 0.30353 0.78988 0.0
O846 O 0.79507 0.28163 0.81228 0.0
O847 O 0.79321 0.30942 0.82777 0.0
H848 H 0.78252 0.38369 0.80169 0.0
H849 H 0.79684 0.41196 0.79197 0.0
H850 H 0.84752 0.40071 0.80773 0.0
H851 H 0.83304 0.37203 0.81663 0.0
H852 H 0.80797 0.22684 0.78547 0.0
H853 H 0.7931 0.20018 0.79773 0.0
H854 H 0.74293 0.21118 0.7787 0.0
H855 H 0.75787 0.23813 0.76711 0.0
Nd856 Nd 0.76469 0.78999 0.78764 0.0
Nd857 Nd 0.79916 0.81448 0.79763 0.0
C858 C 0.73311 0.76884 0.77556 0.0
C859 C 0.71634 0.77165 0.78089 0.0
C860 C 0.70759 0.7832 0.77183 0.0
C861 C 0.69404 0.78897 0.77961 0.0
C862 C 0.68897 0.78325 0.79651 0.0
C863 C 0.69703 0.77092 0.80494 0.0
C864 C 0.71048 0.76508 0.79714 0.0
C865 C 0.7784 0.79315 0.82585 0.0
C866 C 0.76538 0.83182 0.80322 0.0
C867 C 0.83085 0.83445 0.81154 0.0
C868 C 0.84712 0.82842 0.81031 0.0
C869 C 0.84746 0.81052 0.81257 0.0
C870 C 0.86017 0.80264 0.8056 0.0
C871 C 0.87281 0.81254 0.79635 0.0
C872 C 0.87329 0.83087 0.79541 0.0
C873 C 0.8605 0.83874 0.80231 0.0
C874 C 0.78453 0.81257 0.7597 0.0
C875 C 0.79838 0.77329 0.78048 0.0
O876 O 0.74096 0.78007 0.76515 0.0
O877 O 0.74406 0.76589 0.78954 0.0
O878 O 0.76286 0.795 0.81963 0.0
O879 O 0.78669 0.79148 0.81195 0.0
O880 O 0.75563 0.81617 0.79369 0.0
O881 O 0.78251 0.83409 0.80841 0.0
O882 O 0.82043 0.82657 0.82254 0.0
O883 O 0.82243 0.83556 0.79481 0.0
O884 O 0.80031 0.81093 0.76511 0.0
O885 O 0.77684 0.81342 0.7741 0.0
O886 O 0.80813 0.78842 0.79091 0.0
O887 O 0.78133 0.77123 0.77515 0.0
H888 H 0.71176 0.7885 0.75929 0.0
H889 H 0.68791 0.79835 0.77275 0.0
H890 H 0.69363 0.76652 0.81819 0.0
H891 H 0.71697 0.75624 0.80453 0.0
H892 H 0.83718 0.80214 0.81847 0.0
H893 H 0.85956 0.78852 0.80655 0.0
H894 H 0.88273 0.83873 0.78805 0.0
H895 H 0.86025 0.85239 0.80003 0.0
Nd896 Nd 0.55774 0.57962 0.56287 0.0
Nd897 Nd 0.53214 0.54163 0.55492 0.0
C898 C 0.57133 0.61476 0.57393 0.0
C899 C 0.56971 0.63035 0.56377 0.0
C900 C 0.55593 0.63897 0.56594 0.0
C901 C 0.55342 0.65259 0.55523 0.0
C902 C 0.56467 0.65808 0.54211 0.0
C903 C 0.57867 0.64973 0.54023 0.0
C904 C 0.58116 0.63606 0.55091 0.0
C905 C 0.55933 0.56456 0.52508 0.0
C906 C 0.51568 0.57498 0.54456 0.0
C907 C 0.51951 0.50658 0.54291 0.0
C908 C 0.52241 0.49128 0.55265 0.0
C909 C 0.52655 0.47633 0.5423 0.0
C910 C 0.5311 0.46266 0.55177 0.0
C911 C 0.5317 0.46372 0.57184 0.0
C912 C 0.52755 0.47874 0.58216 0.0
C913 C 0.52303 0.49238 0.5727 0.0
C914 C 0.52969 0.55676 0.59244 0.0
C915 C 0.57404 0.54589 0.57321 0.0
O916 O 0.55703 0.60604 0.57929 0.0
O917 O 0.58034 0.60375 0.56695 0.0
O918 O 0.56758 0.58066 0.5336 0.0
O919 O 0.54971 0.55714 0.53648 0.0
O920 O 0.53129 0.58548 0.55218 0.0
O921 O 0.51282 0.55706 0.54156 0.0
O922 O 0.53344 0.51591 0.53746 0.0
O923 O 0.51025 0.51691 0.55068 0.0
O924 O 0.52163 0.54066 0.58369 0.0
O925 O 0.53966 0.56437 0.58135 0.0
O926 O 0.55824 0.53556 0.5663 0.0
O927 O 0.5772 0.56384 0.57561 0.0
H928 H 0.54681 0.63494 0.57566 0.0
H929 H 0.54238 0.65851 0.55693 0.0
H930 H 0.58778 0.65378 0.53051 0.0
H931 H 0.59193 0.6298 0.54886 0.0
H932 H 0.5266 0.47541 0.52692 0.0
H933 H 0.53446 0.45143 0.54342 0.0
H934 H 0.52766 0.4799 0.59757 0.0
H935 H 0.52026 0.50392 0.58116 0.0
Nd936 Nd 0.06466 0.5681 0.06485 0.0
Nd937 Nd 0.02698 0.55395 0.07066 0.0
C938 C 0.09519 0.57536 0.05255 0.0
C939 C 0.11012 0.56671 0.05366 0.0
C940 C 0.11246 0.55543 0.03745 0.0
C941 C 0.12545 0.54575 0.03888 0.0
C942 C 0.13647 0.54721 0.05654 0.0
C943 C 0.1346 0.55921 0.0725 0.0
C944 C 0.12152 0.56873 0.07112 0.0
C945 C 0.06188 0.55631 0.09996 0.0
C946 C 0.04397 0.52564 0.0468 0.0
C947 C 0.99787 0.54564 0.08525 0.0
C948 C 0.98269 0.55387 0.0835 0.0
C949 C 0.97603 0.55966 0.10001 0.0
C950 C 0.9634 0.5699 0.09879 0.0
C951 C 0.95752 0.57468 0.08106 0.0
C952 C 0.96382 0.56841 0.06449 0.0
C953 C 0.97623 0.5581 0.06568 0.0
C954 C 0.026 0.57052 0.03769 0.0
C955 C 0.04698 0.59606 0.08595 0.0
O956 O 0.08067 0.56585 0.04161 0.0
O957 O 0.09237 0.58368 0.06872 0.0
O958 O 0.07325 0.57042 0.0974 0.0
O959 O 0.0526 0.54825 0.08399 0.0
O960 O 0.05724 0.53956 0.0469 0.0
O961 O 0.03124 0.52689 0.05686 0.0
O962 O 0.0124 0.55637 0.09519 0.0
O963 O 1.00043 0.53632 0.06944 0.0
O964 O 0.01227 0.5631 0.04443 0.0
O965 O 0.03936 0.56914 0.04842 0.0
O966 O 0.03731 0.5814 0.09058 0.0
O967 O 0.05661 0.59477 0.07221 0.0
H968 H 0.10393 0.55372 0.02375 0.0
H969 H 0.1265 0.53684 0.02622 0.0
H970 H 0.14322 0.56129 0.08617 0.0
H971 H 0.12022 0.57745 0.08387 0.0
H972 H 0.98097 0.55673 0.11393 0.0
H973 H 0.95866 0.57454 0.11174 0.0
H974 H 0.95918 0.57156 0.05056 0.0
H975 H 0.98102 0.55381 0.05266 0.0
H976 H 0.03645 0.29418 0.9444 0.0
H977 H 0.03541 0.27143 0.96552 0.0
H978 H 0.06761 0.2455 0.93212 0.0
H979 H 0.06784 0.26779 0.9102 0.0
H980 H 0.04321 0.22079 0.94013 0.0
H981 H 0.08223 0.27535 0.98068 0.0
H982 H 0.08887 0.30709 0.9971 0.0
H983 H 0.04519 0.2939 0.02731 0.0
H984 H 0.03821 0.26214 0.01094 0.0
H985 H 0.07781 0.1695 0.00344 0.0
H986 H 0.07384 0.19311 0.98454 0.0
H987 H 0.03466 0.20552 0.01748 0.0
H988 H 0.03799 0.18133 0.03611 0.0
H989 H 0.05872 0.23706 0.01131 0.0
H990 H 0.01969 0.18478 0.97462 0.0
H991 H 1.00937 0.15293 0.95864 0.0
H992 H 0.04829 0.16172 0.92156 0.0
H993 H 0.05898 0.19362 0.93749 0.0
C994 C 0.04342 0.2837 0.94156 0.0
C995 C 0.05237 0.28294 0.92561 0.0
C996 C 0.04291 0.2707 0.95382 0.0
C997 C 0.0518 0.25685 0.95088 0.0
C998 C 0.06069 0.25604 0.93488 0.0
C999 C 0.06088 0.26884 0.92233 0.0
C1000 C 0.05146 0.24289 0.96399 0.0
C1001 C 0.04693 0.22447 0.95566 0.0
C1002 C 0.05521 0.24739 0.98444 0.0
C1003 C 0.05965 0.26641 0.9945 0.0
C1004 C 0.07402 0.27925 0.99078 0.0
C1005 C 0.07784 0.29723 1.00008 0.0
C1006 C 0.06744 0.30251 0.01322 0.0
C1007 C 0.05324 0.2898 0.01714 0.0
C1008 C 0.04937 0.2718 0.00788 0.0
C1009 C 0.06813 0.17698 0.00661 0.0
C1010 C 0.05814 0.17318 0.02136 0.0
C1011 C 0.06598 0.19065 0.99581 0.0
C1012 C 0.05388 0.20109 0.99945 0.0
C1013 C 0.04414 0.19773 0.01441 0.0
C1014 C 0.04614 0.18387 0.02513 0.0
C1015 C 0.05138 0.21519 0.98726 0.0
C1016 C 0.05515 0.2335 0.99576 0.0
C1017 C 0.04653 0.21065 0.96699 0.0
C1018 C 0.04026 0.19151 0.95739 0.0
C1019 C 0.02616 0.17987 0.96318 0.0
C1020 C 0.02021 0.16183 0.9541 0.0
C1021 C 0.02821 0.15529 0.93913 0.0
C1022 C 0.04213 0.1668 0.93317 0.0
C1023 C 0.04812 0.18487 0.94221 0.0
H1024 H 0.02359 0.1413 0.93212 0.0
H1025 H 0.0704 0.31645 0.02038 0.0
H1026 H 0.09175 0.8262 0.25815 0.0
H1027 H 0.12331 0.8274 0.26652 0.0
H1028 H 0.11551 0.7758 0.23001 0.0
H1029 H 0.08424 0.77465 0.22186 0.0
H1030 H 0.13691 0.7751 0.25963 0.0
H1031 H 0.13612 0.81754 0.21745 0.0
H1032 H 0.12993 0.84397 0.20399 0.0
H1033 H 0.16031 0.87953 0.25462 0.0
H1034 H 0.16648 0.85325 0.26853 0.0
H1035 H 0.2239 0.77359 0.25073 0.0
H1036 H 0.19408 0.77701 0.24421 0.0
H1037 H 0.20766 0.8257 0.28643 0.0
H1038 H 0.23841 0.82274 0.29245 0.0
H1039 H 0.18369 0.82897 0.2557 0.0
H1040 H 0.1845 0.78172 0.29555 0.0
H1041 H 0.19191 0.75339 0.30273 0.0
H1042 H 0.16144 0.72469 0.24864 0.0
H1043 H 0.15402 0.75288 0.24106 0.0
C1044 C 0.09671 0.81492 0.25231 0.0
C1045 C 0.08518 0.80005 0.23977 0.0
C1046 C 0.11493 0.81573 0.25685 0.0
C1047 C 0.12226 0.80174 0.2489 0.0
C1048 C 0.11058 0.78681 0.23659 0.0
C1049 C 0.09251 0.78608 0.232 0.0
C1050 C 0.14186 0.80234 0.25339 0.0
C1051 C 0.14701 0.78695 0.25864 0.0
C1052 C 0.15553 0.8176 0.25219 0.0
C1053 C 0.15151 0.83341 0.24418 0.0
C1054 C 0.14129 0.83098 0.22583 0.0
C1055 C 0.13783 0.84593 0.21809 0.0
C1056 C 0.14465 0.86341 0.22848 0.0
C1057 C 0.15498 0.86597 0.24662 0.0
C1058 C 0.15846 0.85105 0.25445 0.0
C1059 C 0.22075 0.78513 0.25876 0.0
C1060 C 0.23382 0.79768 0.27245 0.0
C1061 C 0.20341 0.78702 0.25502 0.0
C1062 C 0.19799 0.80127 0.26519 0.0
C1063 C 0.21114 0.81436 0.27843 0.0
C1064 C 0.22883 0.81264 0.28198 0.0
C1065 C 0.17861 0.80182 0.26218 0.0
C1066 C 0.17352 0.81732 0.25705 0.0
C1067 C 0.16489 0.78643 0.26283 0.0
C1068 C 0.16876 0.76939 0.26775 0.0
C1069 C 0.17939 0.76935 0.28522 0.0
C1070 C 0.18361 0.75333 0.28933 0.0
C1071 C 0.17717 0.73726 0.27614 0.0
C1072 C 0.16641 0.73714 0.25884 0.0
C1073 C 0.16216 0.75312 0.25466 0.0
H1074 H 0.1805 0.72488 0.27933 0.0
H1075 H 0.14199 0.87498 0.22244 0.0
H1076 H 0.58061 0.88216 0.43414 0.0
H1077 H 0.57877 0.90922 0.45547 0.0
H1078 H 0.52259 0.89612 0.43689 0.0
H1079 H 0.52485 0.8701 0.41419 0.0
H1080 H 0.53164 0.9291 0.44143 0.0
H1081 H 0.54792 0.88879 0.48427 0.0
H1082 H 0.56641 0.87013 0.49829 0.0
H1083 H 0.61031 0.91659 0.51289 0.0
H1084 H 0.59216 0.93544 0.49873 0.0
H1085 H 0.51512 0.9885 0.51995 0.0
H1086 H 0.51638 0.96085 0.49897 0.0
H1087 H 0.57288 0.97873 0.50727 0.0
H1088 H 0.57175 0.00617 0.5282 0.0
H1089 H 0.56303 0.94333 0.50881 0.0
H1090 H 0.5474 0.98333 0.46646 0.0
H1091 H 0.52937 1.00286 0.45355 0.0
H1092 H 0.48453 0.95737 0.43886 0.0
H1093 H 0.50224 0.93764 0.45201 0.0
C1094 C 0.56793 0.88526 0.43449 0.0
C1095 C 0.55289 0.87414 0.42244 0.0
C1096 C 0.56679 0.9006 0.44696 0.0
C1097 C 0.55043 0.90465 0.4485 0.0
C1098 C 0.53542 0.8935 0.43621 0.0
C1099 C 0.53668 0.87858 0.42318 0.0
C1100 C 0.54887 0.92052 0.46255 0.0
C1101 C 0.53829 0.93188 0.45625 0.0
C1102 C 0.55786 0.92484 0.4819 0.0
C1103 C 0.56874 0.91345 0.49027 0.0
C1104 C 0.56155 0.89497 0.49035 0.0
C1105 C 0.57197 0.88438 0.49834 0.0
C1106 C 0.58953 0.89216 0.50642 0.0
C1107 C 0.59672 0.91057 0.50658 0.0
C1108 C 0.58637 0.92121 0.49859 0.0
C1109 C 0.52782 0.98645 0.51746 0.0
C1110 C 0.54332 0.99965 0.52572 0.0
C1111 C 0.52851 0.97068 0.50534 0.0
C1112 C 0.54473 0.96775 0.50128 0.0
C1113 C 0.56021 0.98063 0.51007 0.0
C1114 C 0.55952 0.9964 0.52203 0.0
C1115 C 0.54572 0.95152 0.48766 0.0
C1116 C 0.55624 0.94026 0.49403 0.0
C1117 C 0.5367 0.94728 0.46844 0.0
C1118 C 0.52608 0.95907 0.46041 0.0
C1119 C 0.53366 0.97753 0.46062 0.0
C1120 C 0.5235 0.98863 0.45324 0.0
C1121 C 0.5058 0.98137 0.44544 0.0
C1122 C 0.49823 0.96298 0.44495 0.0
C1123 C 0.50832 0.95184 0.45236 0.0
H1124 H 0.49795 0.98998 0.43973 0.0
H1125 H 0.59757 0.88393 0.5126 0.0
H1126 H 0.47165 0.27173 0.71067 0.0
H1127 H 0.442 0.27135 0.7172 0.0
H1128 H 0.46351 0.29829 0.7754 0.0
H1129 H 0.493 0.29666 0.76927 0.0
H1130 H 0.43636 0.27985 0.77968 0.0
H1131 H 0.44118 0.31664 0.72717 0.0
H1132 H 0.44552 0.32104 0.69403 0.0
H1133 H 0.40399 0.27368 0.6711 0.0
H1134 H 0.39937 0.26904 0.704 0.0
H1135 H 0.36032 0.30608 0.8042 0.0
H1136 H 0.38863 0.30419 0.79537 0.0
H1137 H 0.36292 0.27615 0.73876 0.0
H1138 H 0.33443 0.27943 0.74728 0.0
H1139 H 0.39098 0.29305 0.73248 0.0
H1140 H 0.38405 0.25626 0.78168 0.0
H1141 H 0.37875 0.24833 0.81343 0.0
H1142 H 0.42313 0.29118 0.84132 0.0
H1143 H 0.42858 0.29948 0.80976 0.0
C1144 C 0.47009 0.27766 0.72487 0.0
C1145 C 0.48503 0.28442 0.73932 0.0
C1146 C 0.45287 0.27774 0.72861 0.0
C1147 C 0.44975 0.28548 0.74675 0.0
C1148 C 0.46486 0.29223 0.76118 0.0
C1149 C 0.482 0.29144 0.75764 0.0
C1150 C 0.43113 0.28613 0.75109 0.0
C1151 C 0.42673 0.28316 0.76932 0.0
C1152 C 0.41747 0.28937 0.73768 0.0
C1153 C 0.42005 0.29245 0.71799 0.0
C1154 C 0.43299 0.3072 0.71502 0.0
C1155 C 0.43546 0.30973 0.69628 0.0
C1156 C 0.42502 0.29764 0.68045 0.0
C1157 C 0.41201 0.28306 0.68333 0.0
C1158 C 0.40944 0.2805 0.702 0.0
C1159 C 0.36055 0.29941 0.78983 0.0
C1160 C 0.3447 0.29274 0.77664 0.0
C1161 C 0.37701 0.29809 0.78477 0.0
C1162 C 0.37854 0.28934 0.76646 0.0
C1163 C 0.36266 0.28286 0.75309 0.0
C1164 C 0.34614 0.28466 0.75802 0.0
C1165 C 0.39654 0.28741 0.76128 0.0
C1166 C 0.40074 0.28999 0.7429 0.0
C1167 C 0.40992 0.28347 0.77442 0.0
C1168 C 0.40662 0.27858 0.79339 0.0
C1169 C 0.39261 0.26405 0.7946 0.0
C1170 C 0.38959 0.25949 0.81256 0.0
C1171 C 0.40057 0.26927 0.82938 0.0
C1172 C 0.41462 0.28363 0.82828 0.0
C1173 C 0.41769 0.28825 0.81037 0.0
H1174 H 0.39822 0.26571 0.84327 0.0
H1175 H 0.42699 0.29958 0.66596 0.0
H1176 H 1.00648 0.80959 0.57115 0.0
H1177 H 0.02094 0.84052 0.56787 0.0
H1178 H 0.03185 0.85547 0.62991 0.0
H1179 H 0.01658 0.82522 0.63323 0.0
H1180 H 0.02268 0.88082 0.61594 0.0
H1181 H 0.06407 0.84648 0.60259 0.0
H1182 H 0.0751 0.82149 0.58712 0.0
H1183 H 0.06379 0.8375 0.53191 0.0
H1184 H 0.05242 0.86241 0.547 0.0
H1185 H 0.07299 0.96543 0.59456 0.0
H1186 H 0.06851 0.93736 0.60883 0.0
H1187 H 0.04192 0.90672 0.55344 0.0
H1188 H 0.0464 0.93438 0.53934 0.0
H1189 H 0.06652 0.89112 0.57188 0.0
H1190 H 0.0196 0.92169 0.58691 0.0
H1191 H 1.00788 0.94544 0.60385 0.0
H1192 H 0.03125 0.93574 0.65842 0.0
H1193 H 0.04333 0.91212 0.64176 0.0
C1194 C 0.01168 0.81963 0.584 0.0
C1195 C 1.01041 0.81512 0.60238 0.0
C1196 C 0.02015 0.83715 0.58216 0.0
C1197 C 0.02787 0.85004 0.5987 0.0
C1198 C 0.02606 0.84566 0.617 0.0
C1199 C 0.01723 0.82838 0.61883 0.0
C1200 C 0.03746 0.86832 0.59699 0.0
C1201 C 0.03258 0.8831 0.60665 0.0
C1202 C 0.0505 0.87123 0.58509 0.0
C1203 C 0.05734 0.85627 0.57593 0.0
C1204 C 0.06384 0.8446 0.58713 0.0
C1205 C 0.07016 0.83046 0.57843 0.0
C1206 C 0.07014 0.8279 0.55854 0.0
C1207 C 0.0638 0.8395 0.54731 0.0
C1208 C 0.05744 0.85365 0.55594 0.0
C1209 C 0.06643 0.95258 0.58554 0.0
C1210 C 0.05997 0.9518 0.56597 0.0
C1211 C 0.06384 0.93672 0.59364 0.0
C1212 C 0.05495 0.92016 0.58208 0.0
C1213 C 0.04892 0.91944 0.56248 0.0
C1214 C 0.05139 0.93516 0.55448 0.0
C1215 C 0.05101 0.90332 0.59002 0.0
C1216 C 0.05706 0.88879 0.58166 0.0
C1217 C 0.03923 0.90064 0.60332 0.0
C1218 C 0.03268 0.91546 0.6131 0.0
C1219 C 0.02249 0.92486 0.6025 0.0
C1220 C 0.01572 0.93823 0.61205 0.0
C1221 C 0.0189 0.94218 0.63219 0.0
C1222 C 0.02888 0.93276 0.64282 0.0
C1223 C 0.03571 0.91941 0.63334 0.0
H1224 H 0.01358 0.95247 0.63956 0.0
H1225 H 0.07505 0.81694 0.55184 0.0
H1226 H 0.52192 0.82183 0.89053 0.0
H1227 H 0.49204 0.8187 0.87431 0.0
H1228 H 0.47592 0.83267 0.92909 0.0
H1229 H 0.50601 0.8355 0.94558 0.0
H1230 H 0.45294 0.80054 0.90037 0.0
H1231 H 0.47652 0.86469 0.90716 0.0
H1232 H 0.49994 0.89218 0.90786 0.0
H1233 H 0.5041 0.87429 0.84904 0.0
H1234 H 0.48068 0.8467 0.848 0.0
H1235 H 0.37734 0.81487 0.84151 0.0
H1236 H 0.40087 0.812 0.86589 0.0
H1237 H 0.43576 0.81414 0.82359 0.0
H1238 H 0.41223 0.81769 0.79933 0.0
H1239 H 0.44673 0.84171 0.85269 0.0
H1240 H 0.42729 0.77513 0.84869 0.0
H1241 H 0.40613 0.74629 0.84949 0.0
H1242 H 0.39424 0.76885 0.90344 0.0
H1243 H 0.41578 0.79758 0.90326 0.0
C1244 C 0.51194 0.82404 0.89909 0.0
C1245 C 0.51597 0.82884 0.91914 0.0
C1246 C 0.49501 0.82231 0.88989 0.0
C1247 C 0.4821 0.8257 0.90065 0.0
C1248 C 0.4859 0.83001 0.92076 0.0
C1249 C 0.5029 0.83153 0.93006 0.0
C1250 C 0.4648 0.82495 0.89026 0.0
C1251 C 0.45125 0.80976 0.89026 0.0
C1252 C 0.46299 0.83696 0.87712 0.0
C1253 C 0.47685 0.85367 0.8775 0.0
C1254 C 0.48245 0.86663 0.89439 0.0
C1255 C 0.4957 0.88223 0.89484 0.0
C1256 C 0.5035 0.88499 0.8785 0.0
C1257 C 0.49801 0.87217 0.86166 0.0
C1258 C 0.48469 0.85659 0.8611 0.0
C1259 C 0.3899 0.81402 0.83736 0.0
C1260 C 0.39333 0.81663 0.81887 0.0
C1261 C 0.40323 0.81225 0.85119 0.0
C1262 C 0.41998 0.81291 0.84647 0.0
C1263 C 0.42284 0.81363 0.82738 0.0
C1264 C 0.40952 0.81561 0.81358 0.0
C1265 C 0.43508 0.8166 0.86193 0.0
C1266 C 0.44813 0.8326 0.86299 0.0
C1267 C 0.4363 0.8054 0.87612 0.0
C1268 C 0.42292 0.78849 0.87584 0.0
C1269 C 0.42005 0.77394 0.86064 0.0
C1270 C 0.40809 0.75761 0.86104 0.0
C1271 C 0.39869 0.75582 0.87638 0.0
C1272 C 0.40144 0.77028 0.89151 0.0
C1273 C 0.41362 0.78653 0.89135 0.0
H1274 H 0.38935 0.74319 0.87659 0.0
H1275 H 0.51379 0.89705 0.8789 0.0
H1276 H 0.49092 0.20342 0.14135 0.0
H1277 H 0.49999 0.17658 0.12789 0.0
H1278 H 0.49968 0.19541 0.07298 0.0
H1279 H 0.48987 0.22154 0.08588 0.0
H1280 H 0.48614 0.16158 0.06819 0.0
H1281 H 0.53721 0.20258 0.10667 0.0
H1282 H 0.55796 0.22136 0.13465 0.0
H1283 H 0.55774 0.17434 0.16168 0.0
H1284 H 0.53712 0.15528 0.13396 0.0
H1285 H 0.54156 0.103 0.03638 0.0
H1286 H 0.52559 0.12682 0.04224 0.0
H1287 H 0.52099 0.11371 0.09921 0.0
H1288 H 0.53853 0.09201 0.09425 0.0
H1289 H 0.53965 0.14698 0.09987 0.0
H1290 H 0.48382 0.10764 0.06299 0.0
H1291 H 0.46486 0.08944 0.03335 0.0
H1292 H 0.4774 0.13437 0.00303 0.0
H1293 H 0.49637 0.15285 0.0324 0.0
C1294 C 0.49205 0.20133 0.12619 0.0
C1295 C 0.48972 0.21444 0.11463 0.0
C1296 C 0.49765 0.18635 0.11872 0.0
C1297 C 0.50102 0.18458 0.09976 0.0
C1298 C 0.49728 0.19682 0.08776 0.0
C1299 C 0.49136 0.21154 0.09506 0.0
C1300 C 0.50777 0.16955 0.09196 0.0
C1301 C 0.49792 0.15845 0.07509 0.0
C1302 C 0.52322 0.16573 0.10108 0.0
C1303 C 0.53505 0.17751 0.11833 0.0
C1304 C 0.54125 0.19627 0.11873 0.0
C1305 C 0.55316 0.20696 0.13451 0.0
C1306 C 0.55904 0.19909 0.15002 0.0
C1307 C 0.55309 0.18048 0.14975 0.0
C1308 C 0.54127 0.16973 0.13398 0.0
C1309 C 0.5368 0.10522 0.04995 0.0
C1310 C 0.54123 0.09615 0.06503 0.0
C1311 C 0.52754 0.11846 0.05316 0.0
C1312 C 0.52227 0.12184 0.07115 0.0
C1313 C 0.52502 0.11118 0.08528 0.0
C1314 C 0.53498 0.0988 0.08245 0.0
C1315 C 0.51728 0.13853 0.07708 0.0
C1316 C 0.52777 0.15017 0.09327 0.0
C1317 C 0.50255 0.14291 0.06746 0.0
C1318 C 0.49159 0.13154 0.04979 0.0
C1319 C 0.48265 0.11356 0.04994 0.0
C1320 C 0.47188 0.10322 0.03323 0.0
C1321 C 0.47 0.1107 0.01635 0.0
C1322 C 0.47887 0.12857 0.01611 0.0
C1323 C 0.48959 0.13899 0.03277 0.0
H1324 H 0.46162 0.10266 0.00346 0.0
H1325 H 0.5683 0.20739 0.16216 0.0
H1326 H 0.07754 0.32525 0.38984 0.0
H1327 H 0.09562 0.31428 0.368 0.0
H1328 H 0.14251 0.34537 0.40622 0.0
H1329 H 0.12448 0.35626 0.42862 0.0
H1330 H 0.13845 0.34827 0.36449 0.0
H1331 H 0.13588 0.30459 0.40782 0.0
H1332 H 0.11964 0.28312 0.42613 0.0
H1333 H 0.08952 0.25121 0.37329 0.0
H1334 H 0.10544 0.27265 0.35468 0.0
H1335 H 0.19518 0.28779 0.32866 0.0
H1336 H 0.17803 0.29977 0.3513 0.0
H1337 H 0.13973 0.30311 0.30365 0.0
H1338 H 0.15735 0.29208 0.28087 0.0
H1339 H 0.14002 0.28354 0.35136 0.0
H1340 H 0.13525 0.33108 0.31001 0.0
H1341 H 0.14359 0.3573 0.29361 0.0
H1342 H 0.18106 0.38509 0.34363 0.0
H1343 H 0.17395 0.35835 0.35963 0.0
C1344 C 0.09169 0.32993 0.39358 0.0
C1345 C 0.09965 0.34158 0.41095 0.0
C1346 C 0.10194 0.32348 0.3812 0.0
C1347 C 0.12023 0.32873 0.38591 0.0
C1348 C 0.12832 0.34104 0.40269 0.0
C1349 C 0.11805 0.34735 0.41529 0.0
C1350 C 0.13078 0.32202 0.37254 0.0
C1351 C 0.13914 0.33419 0.36176 0.0
C1352 C 0.13086 0.30353 0.36878 0.0
C1353 C 0.1218 0.29025 0.37987 0.0
C1354 C 0.12575 0.29302 0.40012 0.0
C1355 C 0.11661 0.28086 0.41055 0.0
C1356 C 0.10354 0.26582 0.40088 0.0
C1357 C 0.09966 0.26286 0.38076 0.0
C1358 C 0.10877 0.27499 0.37026 0.0
C1359 C 0.18315 0.29122 0.32304 0.0
C1360 C 0.1776 0.28923 0.30308 0.0
C1361 C 0.17346 0.29815 0.33594 0.0
C1362 C 0.1581 0.30315 0.32908 0.0
C1363 C 0.15212 0.30044 0.30918 0.0
C1364 C 0.162 0.29384 0.29622 0.0
C1365 C 0.14787 0.3099 0.34303 0.0
C1366 C 0.13958 0.29767 0.35411 0.0
C1367 C 0.1475 0.32837 0.34685 0.0
C1368 C 0.15481 0.34223 0.33553 0.0
C1369 C 0.14613 0.34222 0.31696 0.0
C1370 C 0.15044 0.35732 0.30784 0.0
C1371 C 0.16296 0.37278 0.31746 0.0
C1372 C 0.17151 0.37304 0.33605 0.0
C1373 C 0.16758 0.35778 0.34501 0.0
H1374 H 0.1658 0.38461 0.31058 0.0
H1375 H 0.09644 0.25645 0.40898 0.0
H1376 H 0.9625 0.07745 0.24817 0.0
H1377 H 0.97973 0.07843 0.22175 0.0
H1378 H 0.93204 0.06583 0.18056 0.0
H1379 H 0.91469 0.06533 0.20712 0.0
H1380 H 0.95429 0.04507 0.16866 0.0
H1381 H 0.96036 0.10796 0.18879 0.0
H1382 H 0.96732 0.1371 0.21088 0.0
H1383 H 0.02103 0.13412 0.22392 0.0
H1384 H 0.01433 0.10477 0.20215 0.0
H1385 H 0.98904 0.05999 0.08456 0.0
H1386 H 0.9754 0.06343 0.11291 0.0
H1387 H 0.0259 0.07511 0.14904 0.0
H1388 H 0.04008 0.07129 0.11986 0.0
H1389 H 1.00349 0.09658 0.16441 0.0
H1390 H 0.99722 0.03332 0.14484 0.0
H1391 H 0.9904 1.00476 0.12179 0.0
H1392 H 0.93714 0.00885 0.10756 0.0
H1393 H 0.94372 0.0376 0.13036 0.0
C1394 C 0.95554 0.07506 0.23353 0.0
C1395 C 0.93694 0.07138 0.23018 0.0
C1396 C 0.96556 0.07567 0.21824 0.0
C1397 C 0.95752 0.07227 0.1987 0.0
C1398 C 0.93891 0.06856 0.19526 0.0
C1399 C 0.92887 0.06837 0.21063 0.0
C1400 C 0.96842 0.07202 0.18211 0.0
C1401 C 0.96489 0.0565 0.16779 0.0
C1402 C 0.98278 0.08657 0.18064 0.0
C1403 C 0.98678 0.10402 0.19404 0.0
C1404 C 0.97361 0.11339 0.19656 0.0
C1405 C 0.97751 0.12997 0.20898 0.0
C1406 C 0.99459 0.13742 0.21885 0.0
C1407 C 1.0078 0.1283 0.21631 0.0
C1408 C 1.00395 0.11169 0.20393 0.0
C1409 C 0.99758 0.06335 0.09841 0.0
C1410 C 0.01591 0.06511 0.09936 0.0
C1411 C 0.98953 0.06529 0.11491 0.0
C1412 C 0.99922 0.06919 0.13364 0.0
C1413 C 0.01778 0.07193 0.13495 0.0
C1414 C 0.02601 0.0698 0.11811 0.0
C1415 C 0.98942 0.06956 0.15116 0.0
C1416 C 0.99302 0.0851 0.16549 0.0
C1417 C 0.97513 0.05502 0.15275 0.0
C1418 C 0.97099 0.03765 0.13921 0.0
C1419 C 0.98407 0.02817 0.13672 0.0
C1420 C 0.98025 0.01195 0.12371 0.0
C1421 C 0.96335 1.00501 0.1132 0.0
C1422 C 0.95022 0.01425 0.11571 0.0
C1423 C 0.95398 0.0305 0.1287 0.0
H1424 H 0.96042 0.99245 0.10313 0.0
H1425 H 0.9976 0.15029 0.22843 0.0
H1426 H 0.30971 0.74801 0.49108 0.0
H1427 H 0.30188 0.75898 0.46113 0.0
H1428 H 0.3401 0.73553 0.43565 0.0
H1429 H 0.34833 0.72489 0.46591 0.0
H1430 H 0.34164 0.76629 0.42464 0.0
H1431 H 0.29451 0.71611 0.42353 0.0
H1432 H 0.27017 0.69566 0.43422 0.0
H1433 H 0.24255 0.73794 0.43902 0.0
H1434 H 0.26684 0.75874 0.42858 0.0
H1435 H 0.30161 0.76495 0.32729 0.0
H1436 H 0.30937 0.75481 0.35769 0.0
H1437 H 0.29048 0.79715 0.388 0.0
H1438 H 0.28305 0.80792 0.35739 0.0
H1439 H 0.2791 0.75662 0.39564 0.0
H1440 H 0.32944 0.80595 0.39394 0.0
H1441 H 0.35332 0.82175 0.37853 0.0
H1442 H 0.37455 0.77474 0.37415 0.0
H1443 H 0.35054 0.75849 0.38915 0.0
C1444 C 0.31657 0.74526 0.47917 0.0
C1445 C 0.32972 0.73558 0.48102 0.0
C1446 C 0.31193 0.75142 0.4619 0.0
C1447 C 0.32013 0.74788 0.44583 0.0
C1448 C 0.3335 0.73847 0.44773 0.0
C1449 C 0.33824 0.73239 0.4651 0.0
C1450 C 0.31487 0.75424 0.42726 0.0
C1451 C 0.32795 0.76398 0.4183 0.0
C1452 C 0.29701 0.7513 0.41868 0.0
C1453 C 0.28261 0.73906 0.42553 0.0
C1454 C 0.28335 0.72112 0.4271 0.0
C1455 C 0.26954 0.70945 0.43305 0.0
C1456 C 0.25486 0.71552 0.43737 0.0
C1457 C 0.25396 0.73327 0.43572 0.0
C1458 C 0.26774 0.74501 0.42978 0.0
C1459 C 0.29891 0.77212 0.34034 0.0
C1460 C 0.29155 0.78725 0.3398 0.0
C1461 C 0.30347 0.76629 0.35776 0.0
C1462 C 0.30057 0.77523 0.37512 0.0
C1463 C 0.29284 0.79007 0.37473 0.0
C1464 C 0.28859 0.7962 0.35724 0.0
C1465 C 0.30581 0.76898 0.39357 0.0
C1466 C 0.29273 0.75906 0.40228 0.0
C1467 C 0.32366 0.77119 0.40151 0.0
C1468 C 0.33809 0.78095 0.3925 0.0
C1469 C 0.33908 0.7989 0.38949 0.0
C1470 C 0.35265 0.80795 0.38086 0.0
C1471 C 0.36542 0.79924 0.37534 0.0
C1472 C 0.36463 0.78145 0.37841 0.0
C1473 C 0.35104 0.77232 0.38698 0.0
H1474 H 0.37596 0.80631 0.36877 0.0
H1475 H 0.24416 0.70645 0.44193 0.0
H1476 H 0.63372 0.99945 0.73849 0.0
H1477 H 0.62083 0.00663 0.7081 0.0
H1478 H 0.57448 0.01187 0.7321 0.0
H1479 H 0.58742 1.00489 0.76275 0.0
H1480 H 0.56567 0.994 0.69477 0.0
H1481 H 0.6012 0.05142 0.72592 0.0
H1482 H 0.62709 0.07443 0.7437 0.0
H1483 H 0.65763 0.06086 0.70057 0.0
H1484 H 0.63168 0.03798 0.68226 0.0
H1485 H 0.53608 0.03899 0.6168 0.0
H1486 H 0.54407 0.02923 0.64782 0.0
H1487 H 0.59514 0.02759 0.63338 0.0
H1488 H 0.58737 0.03797 0.603 0.0
H1489 H 0.59957 0.04472 0.66773 0.0
H1490 H 0.55909 0.98813 0.63491 0.0
H1491 H 0.5303 0.96923 0.61819 0.0
H1492 H 0.50644 0.98414 0.66699 0.0
H1493 H 0.53504 1.00332 0.68389 0.0
C1494 C 0.62067 1.00184 0.7373 0.0
C1495 C 0.61162 1.00146 0.75319 0.0
C1496 C 0.61336 0.00615 0.71989 0.0
C1497 C 0.59672 0.01003 0.71775 0.0
C1498 C 0.58735 0.009 0.73332 0.0
C1499 C 0.59477 1.00494 0.75087 0.0
C1500 C 0.58934 0.01532 0.69932 0.0
C1501 C 0.57301 1.0052 0.68893 0.0
C1502 C 0.59872 0.02995 0.69159 0.0
C1503 C 0.61461 0.04288 0.70289 0.0
C1504 C 0.6135 0.05322 0.72035 0.0
C1505 C 0.62816 0.0663 0.73047 0.0
C1506 C 0.64408 0.06903 0.72338 0.0
C1507 C 0.64532 0.05871 0.70608 0.0
C1508 C 0.63061 0.04575 0.69576 0.0
C1509 C 0.54883 0.0361 0.62013 0.0
C1510 C 0.56102 0.039 0.60738 0.0
C1511 C 0.55344 0.03052 0.6379 0.0
C1512 C 0.57025 0.02747 0.64311 0.0
C1513 C 0.58212 0.02984 0.62993 0.0
C1514 C 0.57763 0.03563 0.61243 0.0
C1515 C 0.57614 0.02295 0.66258 0.0
C1516 C 0.59222 0.03337 0.67334 0.0
C1517 C 0.56628 0.00883 0.67076 0.0
C1518 C 0.54916 0.99728 0.66057 0.0
C1519 C 0.54768 0.98747 0.64201 0.0
C1520 C 0.5314 0.9767 0.63251 0.0
C1521 C 0.51655 0.97552 0.6415 0.0
C1522 C 0.51795 0.98508 0.66003 0.0
C1523 C 0.53418 0.99589 0.66957 0.0
H1524 H 0.50396 0.96716 0.63413 0.0
H1525 H 0.65543 0.07919 0.73124 0.0
H1526 H 0.27947 0.43859 0.03882 0.0
H1527 H 0.27215 0.42202 0.00562 0.0
H1528 H 0.3198 0.40332 0.01387 0.0
H1529 H 0.32713 0.41968 0.04668 0.0
H1530 H 0.31262 0.41065 0.97773 0.0
H1531 H 0.28393 0.37862 0.02407 0.0
H1532 H 0.26479 0.37525 0.0489 0.0
H1533 H 0.22118 0.37944 0.00833 0.0
H1534 H 0.24022 0.38317 0.98336 0.0
H1535 H 0.30901 0.32426 0.9381 0.0
H1536 H 0.30441 0.34671 0.96342 0.0
H1537 H 0.26201 0.35663 0.92489 0.0
H1538 H 0.26675 0.33442 0.89929 0.0
H1539 H 0.2611 0.35811 0.97005 0.0
H1540 H 0.29415 0.38201 0.92124 0.0
H1541 H 0.31674 0.38122 0.90038 0.0
H1542 H 0.35621 0.38852 0.95025 0.0
H1543 H 0.33378 0.38888 0.97137 0.0
C1544 C 0.28846 0.43116 0.03334 0.0
C1545 C 0.30361 0.42998 0.04529 0.0
C1546 C 0.28433 0.42183 0.01446 0.0
C1547 C 0.29541 0.41144 0.0075 0.0
C1548 C 0.31113 0.41134 0.01903 0.0
C1549 C 0.31517 0.42048 0.03783 0.0
C1550 C 0.28981 0.39857 0.98941 0.0
C1551 C 0.30116 0.39935 0.97578 0.0
C1552 C 0.27495 0.38381 0.98712 0.0
C1553 C 0.26351 0.38147 1.002 0.0
C1554 C 0.2703 0.37899 0.02053 0.0
C1555 C 0.25947 0.377 0.0346 0.0
C1556 C 0.24179 0.37722 0.03022 0.0
C1557 C 0.2349 0.37936 0.01172 0.0
C1558 C 0.24569 0.38143 0.99761 0.0
C1559 C 0.29827 0.33072 0.9353 0.0
C1560 C 0.28842 0.32795 0.91679 0.0
C1561 C 0.29567 0.34347 0.94969 0.0
C1562 C 0.28314 0.35339 0.94566 0.0
C1563 C 0.27176 0.34902 0.92803 0.0
C1564 C 0.27443 0.3363 0.91353 0.0
C1565 C 0.28411 0.37008 0.95871 0.0
C1566 C 0.27199 0.3699 0.9714 0.0
C1567 C 0.29867 0.38508 0.96056 0.0
C1568 C 0.31224 0.38536 0.94787 0.0
C1569 C 0.30762 0.3833 0.92774 0.0
C1570 C 0.3204 0.38293 0.91587 0.0
C1571 C 0.33789 0.3848 0.92398 0.0
C1572 C 0.34265 0.38707 0.94398 0.0
C1573 C 0.32991 0.38736 0.95591 0.0
H1574 H 0.34776 0.38451 0.91476 0.0
H1575 H 0.23342 0.37566 0.04113 0.0
H1576 H 0.94033 0.08741 0.35152 0.0
H1577 H 0.95544 0.08932 0.38452 0.0
H1578 H 0.98015 0.04717 0.36463 0.0
H1579 H 0.96503 0.04512 0.33183 0.0
H1580 H 0.967 0.03998 0.39593 0.0
H1581 H 1.00216 0.09418 0.37858 0.0
H1582 H 1.0077 0.12439 0.36875 0.0
H1583 H 0.98764 0.14559 0.418 0.0
H1584 H 0.98171 0.11545 0.42795 0.0
H1585 H 0.02862 0.04142 0.47784 0.0
H1586 H 0.01389 0.04331 0.44606 0.0
H1587 H 0.99619 0.08921 0.47059 0.0
H1588 H 0.01143 0.0877 0.50252 0.0
H1589 H 1.00419 0.09552 0.43792 0.0
H1590 H 0.96845 0.04431 0.456 0.0
H1591 H 0.96013 0.01486 0.46709 0.0
H1592 H 0.9772 0.98875 0.4182 0.0
H1593 H 0.98592 0.01811 0.40699 0.0
C1594 C 0.94912 0.07867 0.35411 0.0
C1595 C 0.95137 0.06609 0.33882 0.0
C1596 C 0.95786 0.07982 0.37308 0.0
C1597 C 0.96916 0.06847 0.37732 0.0
C1598 C 0.97157 0.05612 0.36198 0.0
C1599 C 0.9629 0.05499 0.34308 0.0
C1600 C 0.97777 0.06859 0.39769 0.0
C1601 C 0.97535 0.05212 0.40495 0.0
C1602 C 0.98802 0.0845 0.41011 0.0
C1603 C 0.99127 0.10249 0.40386 0.0
C1604 C 0.99873 0.10523 0.38718 0.0
C1605 C 1.00198 0.12236 0.38162 0.0
C1606 C 0.99796 0.13689 0.3927 0.0
C1607 C 0.9907 0.13432 0.40939 0.0
C1608 C 0.98738 0.11722 0.41499 0.0
C1609 C 0.02163 0.05198 0.47659 0.0
C1610 C 0.02123 0.06434 0.49301 0.0
C1611 C 0.01302 0.05296 0.45827 0.0
C1612 C 1.00344 0.06617 0.45566 0.0
C1613 C 1.00332 0.07878 0.47197 0.0
C1614 C 0.01206 0.07788 0.49035 0.0
C1615 C 0.99374 0.0668 0.43598 0.0
C1616 C 0.99587 0.08336 0.4289 0.0
C1617 C 0.98282 0.05106 0.42385 0.0
C1618 C 0.97804 0.03346 0.43079 0.0
C1619 C 0.97063 0.03233 0.44774 0.0
C1620 C 0.9658 0.01564 0.45402 0.0
C1621 C 0.96819 0.99996 0.44339 0.0
C1622 C 0.97541 1.00092 0.42645 0.0
C1623 C 0.9803 0.01758 0.42013 0.0
H1624 H 0.96439 0.98704 0.44825 0.0
H1625 H 1.00053 0.15014 0.38838 0.0
H1626 H 0.36236 0.72112 0.60816 0.0
H1627 H 0.35435 0.73472 0.63792 0.0
H1628 H 0.3166 0.7561 0.6043 0.0
H1629 H 0.32545 0.74373 0.57485 0.0
H1630 H 0.32859 0.77938 0.63239 0.0
H1631 H 0.30698 0.71529 0.62881 0.0
H1632 H 0.30828 0.68323 0.62676 0.0
H1633 H 0.34499 0.69629 0.67961 0.0
H1634 H 0.34411 0.72846 0.68188 0.0
H1635 H 0.27773 0.7949 0.707 0.0
H1636 H 0.28818 0.78329 0.67793 0.0
H1637 H 0.33172 0.77185 0.71326 0.0
H1638 H 0.32118 0.78322 0.74235 0.0
H1639 H 0.3171 0.74377 0.68498 0.0
H1640 H 0.33617 0.80893 0.68737 0.0
H1641 H 0.33167 0.83986 0.68837 0.0
H1642 H 0.29494 0.82253 0.63552 0.0
H1643 H 0.29907 0.79146 0.63435 0.0
C1644 C 0.35259 0.72902 0.60715 0.0
C1645 C 0.34474 0.73144 0.589 0.0
C1646 C 0.34776 0.73658 0.62424 0.0
C1647 C 0.33446 0.7462 0.62365 0.0
C1648 C 0.3269 0.74886 0.60548 0.0
C1649 C 0.33205 0.74176 0.58849 0.0
C1650 C 0.32842 0.75366 0.64171 0.0
C1651 C 0.32587 0.77138 0.64369 0.0
C1652 C 0.32497 0.74359 0.65688 0.0
C1653 C 0.32564 0.7243 0.6554 0.0
C1654 C 0.31544 0.71134 0.63991 0.0
C1655 C 0.31608 0.69316 0.63872 0.0
C1656 C 0.32674 0.68775 0.653 0.0
C1657 C 0.33677 0.70051 0.66854 0.0
C1658 C 0.3362 0.71871 0.66979 0.0
C1659 C 0.28965 0.79012 0.70859 0.0
C1660 C 0.29865 0.79014 0.72707 0.0
C1661 C 0.29566 0.78348 0.6919 0.0
C1662 C 0.31091 0.77678 0.69323 0.0
C1663 C 0.31996 0.77691 0.71171 0.0
C1664 C 0.31396 0.78356 0.72838 0.0
C1665 C 0.31725 0.76933 0.67546 0.0
C1666 C 0.31984 0.75166 0.67359 0.0
C1667 C 0.32024 0.77921 0.66013 0.0
C1668 C 0.31782 0.79788 0.66086 0.0
C1669 C 0.32705 0.81171 0.67604 0.0
C1670 C 0.32458 0.82926 0.67663 0.0
C1671 C 0.313 0.83315 0.66204 0.0
C1672 C 0.30389 0.8195 0.64682 0.0
C1673 C 0.3063 0.80193 0.64618 0.0
H1674 H 0.31111 0.84675 0.66252 0.0
H1675 H 0.3272 0.67366 0.65205 0.0
H1676 H 0.61547 0.99315 0.87368 0.0
H1677 H 0.6059 0.99912 0.90493 0.0
H1678 H 0.58651 0.04364 0.88682 0.0
H1679 H 0.59624 0.03794 0.85574 0.0
H1680 H 0.60417 0.05306 0.92326 0.0
H1681 H 0.55902 1.00147 0.88754 0.0
H1682 H 0.54796 0.9704 0.86942 0.0
H1683 H 0.56888 0.94893 0.91787 0.0
H1684 H 0.58031 0.9799 0.93616 0.0
H1685 H 0.54288 0.05812 0.99167 0.0
H1686 H 0.55442 0.05334 0.96121 0.0
H1687 H 0.58588 0.02016 0.98582 0.0
H1688 H 0.57536 0.02564 0.0164 0.0
H1689 H 0.56301 1.00523 0.94714 0.0
H1690 H 0.60816 0.05392 0.98302 0.0
H1691 H 0.62155 0.0839 0.00273 0.0
H1692 H 0.60386 0.10981 0.95636 0.0
H1693 H 0.58994 0.07991 0.93651 0.0
C1694 C 0.60902 1.00411 0.87627 0.0
C1695 C 0.60646 0.01492 0.86206 0.0
C1696 C 0.60357 0.00753 0.89418 0.0
C1697 C 0.59531 0.02175 0.89824 0.0
C1698 C 0.59283 0.0326 0.8841 0.0
C1699 C 0.59829 0.02921 0.86623 0.0
C1700 C 0.58906 0.02528 0.91708 0.0
C1701 C 0.59495 0.04267 0.92831 0.0
C1702 C 0.57755 0.01158 0.92413 0.0
C1703 C 0.57066 0.993 0.91313 0.0
C1704 C 0.56137 0.99013 0.89426 0.0
C1705 C 0.55503 0.97253 0.88397 0.0
C1706 C 0.55775 0.9577 0.89247 0.0
C1707 C 0.56681 0.96043 0.91129 0.0
C1708 C 0.57321 0.97799 0.92162 0.0
C1709 C 0.55224 0.0498 0.99055 0.0
C1710 C 0.55807 0.04214 0.0064 0.0
C1711 C 0.55889 0.04717 0.97322 0.0
C1712 C 0.57108 0.03646 0.97137 0.0
C1713 C 0.57658 0.02852 0.98703 0.0
C1714 C 0.57043 0.03161 0.00445 0.0
C1715 C 0.57781 0.03302 0.95298 0.0
C1716 C 0.57209 0.01565 0.94194 0.0
C1717 C 0.58974 0.04661 0.94635 0.0
C1718 C 0.59767 0.06463 0.9584 0.0
C1719 C 0.6068 0.06598 0.97714 0.0
C1720 C 0.61457 0.08297 0.98832 0.0
C1721 C 0.61348 0.09875 0.98084 0.0
C1722 C 0.60462 0.09756 0.96217 0.0
C1723 C 0.59677 0.08059 0.95095 0.0
H1724 H 0.61956 0.11189 0.98948 0.0
H1725 H 0.55281 0.94409 0.88448 0.0
H1726 H 0.31957 0.44409 0.17295 0.0
H1727 H 0.31329 0.41952 0.19203 0.0
H1728 H 0.27481 0.38711 0.14459 0.0
H1729 H 0.28136 0.41132 0.12529 0.0
H1730 H 0.2661 0.38785 0.18593 0.0
H1731 H 0.30882 0.37698 0.14444 0.0
H1732 H 0.33646 0.38513 0.13139 0.0
H1733 H 0.36599 0.39548 0.18861 0.0
H1734 H 0.33849 0.3877 0.202 0.0
H1735 H 0.26294 0.305 0.22449 0.0
H1736 H 0.26216 0.32709 0.20229 0.0
H1737 H 0.31494 0.35614 0.22878 0.0
H1738 H 0.31622 0.33347 0.24937 0.0
H1739 H 0.31358 0.35541 0.19422 0.0
H1740 H 0.27323 0.36813 0.23747 0.0
H1741 H 0.24665 0.36229 0.25279 0.0
H1742 H 0.21409 0.35137 0.1972 0.0
H1743 H 0.24047 0.35693 0.18155 0.0
C1744 C 0.30956 0.43185 0.16678 0.0
C1745 C 0.30103 0.42945 0.14769 0.0
C1746 C 0.30599 0.4179 0.17763 0.0
C1747 C 0.29361 0.40164 0.16959 0.0
C1748 C 0.28434 0.39965 0.15096 0.0
C1749 C 0.28818 0.41339 0.13997 0.0
C1750 C 0.29166 0.38604 0.17987 0.0
C1751 C 0.27637 0.38059 0.18777 0.0
C1752 C 0.30517 0.37687 0.18225 0.0
C1753 C 0.32162 0.38201 0.17421 0.0
C1754 C 0.3212 0.38125 0.15424 0.0
C1755 C 0.33684 0.38574 0.14679 0.0
C1756 C 0.35297 0.39088 0.15917 0.0
C1757 C 0.35349 0.39155 0.17904 0.0
C1758 C 0.33789 0.38712 0.18656 0.0
C1759 C 0.27451 0.31581 0.22494 0.0
C1760 C 0.28982 0.31729 0.23811 0.0
C1761 C 0.27394 0.32862 0.21262 0.0
C1762 C 0.28841 0.34345 0.214 0.0
C1763 C 0.30366 0.34474 0.2272 0.0
C1764 C 0.30446 0.33167 0.23889 0.0
C1765 C 0.28836 0.35753 0.20152 0.0
C1766 C 0.30322 0.36258 0.19273 0.0
C1767 C 0.27463 0.36661 0.19892 0.0
C1768 C 0.25882 0.36267 0.20833 0.0
C1769 C 0.2604 0.36426 0.22851 0.0
C1770 C 0.24537 0.36105 0.23725 0.0
C1771 C 0.22869 0.35638 0.22597 0.0
C1772 C 0.22701 0.35492 0.20592 0.0
C1773 C 0.24199 0.35809 0.19711 0.0
H1774 H 0.21708 0.35396 0.23278 0.0
H1775 H 0.36507 0.39428 0.15336 0.0
H1776 H 0.20728 0.97631 0.06717 0.0
H1777 H 0.18586 0.99479 0.06745 0.0
H1778 H 0.14371 0.9462 0.05467 0.0
H1779 H 0.16533 0.92783 0.05226 0.0
H1780 H 0.13133 0.96733 0.03886 0.0
H1781 H 0.16111 0.97791 0.10378 0.0
H1782 H 0.18633 0.98601 0.1303 0.0
H1783 H 0.20166 0.03915 0.11528 0.0
H1784 H 0.17662 0.0313 0.08855 0.0
H1785 H 0.06719 0.01083 0.06987 0.0
H1786 H 0.08963 0.99367 0.06933 0.0
H1787 H 0.12814 0.04191 0.06499 0.0
H1788 H 0.10558 0.05942 0.06578 0.0
H1789 H 0.14191 0.02155 0.08925 0.0
H1790 H 0.1081 0.00827 0.02437 0.0
H1791 H 0.0801 0.99842 1.0017 0.0
H1792 H 0.06915 0.94727 0.02199 0.0
H1793 H 0.09704 0.95688 0.04486 0.0
C1794 C 0.19343 0.96957 0.06438 0.0
C1795 C 0.18807 0.95055 0.05985 0.0
C1796 C 0.18105 0.9802 0.06481 0.0
C1797 C 0.16284 0.97217 0.06187 0.0
C1798 C 0.15752 0.95305 0.05714 0.0
C1799 C 0.16993 0.94244 0.05585 0.0
C1800 C 0.14947 0.98359 0.06349 0.0
C1801 C 0.13371 0.97899 0.05013 0.0
C1802 C 0.15214 0.99913 0.07796 0.0
C1803 C 0.16712 1.00395 0.09407 0.0
C1804 C 0.16992 0.99129 0.10609 0.0
C1805 C 0.18417 0.99584 0.12115 0.0
C1806 C 0.19562 0.01306 0.12444 0.0
C1807 C 0.1928 0.02581 0.11271 0.0
C1808 C 0.17857 0.02132 0.09761 0.0
C1809 C 0.08047 0.01798 0.0691 0.0
C1810 C 0.08446 0.03666 0.06798 0.0
C1811 C 0.09333 0.00801 0.06857 0.0
C1812 C 0.11062 0.01626 0.06665 0.0
C1813 C 0.11491 0.03509 0.06635 0.0
C1814 C 0.10199 0.04516 0.06694 0.0
C1815 C 0.12403 1.00516 0.06476 0.0
C1816 C 0.13972 0.00986 0.07804 0.0
C1817 C 0.121 0.98936 0.0507 0.0
C1818 C 0.10462 0.98332 0.03636 0.0
C1819 C 0.09972 0.99492 0.02398 0.0
C1820 C 0.08387 0.98938 0.01111 0.0
C1821 C 0.07284 0.97224 0.01042 0.0
C1822 C 0.07771 0.96054 0.02252 0.0
C1823 C 0.09356 0.966 0.0354 0.0
H1824 H 0.06054 0.968 1.00051 0.0
H1825 H 0.20666 0.01655 0.1361 0.0
H1826 H 0.73162 0.59191 0.00659 0.0
H1827 H 0.70393 0.58309 0.01852 0.0
H1828 H 0.68262 0.61973 0.98657 0.0
H1829 H 0.71054 0.62913 0.97503 0.0
H1830 H 0.67705 0.62309 0.02453 0.0
H1831 H 0.67065 0.57312 0.97053 0.0
H1832 H 0.68363 0.54969 0.95497 0.0
H1833 H 0.68539 0.52553 0.00639 0.0
H1834 H 0.67254 0.54892 0.02227 0.0
H1835 H 0.58834 0.60113 0.02759 0.0
H1836 H 0.61662 0.60542 0.01622 0.0
H1837 H 0.62679 0.55968 0.04158 0.0
H1838 H 0.59774 0.55455 0.05158 0.0
H1839 H 0.64023 0.55993 0.01102 0.0
H1840 H 0.64471 0.60502 0.06475 0.0
H1841 H 0.63556 0.62891 0.08482 0.0
H1842 H 0.64161 0.66252 0.04093 0.0
H1843 H 0.65058 0.63872 0.02048 0.0
C1844 C 0.7209 0.59774 1.00164 0.0
C1845 C 0.72318 0.61105 0.98964 0.0
C1846 C 0.70514 0.59279 0.00863 0.0
C1847 C 0.69126 0.60071 0.00333 0.0
C1848 C 0.69325 0.61352 0.99083 0.0
C1849 C 0.70909 0.61867 0.98404 0.0
C1850 C 0.67459 0.5957 0.01081 0.0
C1851 C 0.66886 0.60935 0.02142 0.0
C1852 C 0.66449 0.57761 0.00766 0.0
C1853 C 0.6706 0.56266 0.99751 0.0
C1854 C 0.67366 0.56269 0.97842 0.0
C1855 C 0.68106 0.54948 0.96959 0.0
C1856 C 0.68531 0.53612 0.97968 0.0
C1857 C 0.68203 0.53585 0.99857 0.0
C1858 C 0.67464 0.54903 0.00747 0.0
C1859 C 0.59657 0.59189 0.03045 0.0
C1860 C 0.59112 0.57763 0.04048 0.0
C1861 C 0.61275 0.5944 0.02414 0.0
C1862 C 0.62411 0.58327 0.02866 0.0
C1863 C 0.61832 0.56853 0.03806 0.0
C1864 C 0.60179 0.56561 0.04376 0.0
C1865 C 0.64216 0.58751 0.02405 0.0
C1866 C 0.64832 0.57371 0.01421 0.0
C1867 C 0.65298 0.6054 0.02853 0.0
C1868 C 0.64822 0.62005 0.04105 0.0
C1869 C 0.64406 0.6175 0.05937 0.0
C1870 C 0.63889 0.63101 0.0708 0.0
C1871 C 0.63797 0.64721 0.06414 0.0
C1872 C 0.64233 0.64996 0.04607 0.0
C1873 C 0.64749 0.63648 0.03456 0.0
H1874 H 0.63391 0.65763 0.07298 0.0
H1875 H 0.69117 0.52598 0.97287 0.0
H1876 H 0.68945 0.46548 0.283 0.0
H1877 H 0.6997 0.43734 0.2805 0.0
H1878 H 0.74741 0.46538 0.31894 0.0
H1879 H 0.7372 0.49354 0.3211 0.0
H1880 H 0.75736 0.44478 0.29464 0.0
H1881 H 0.70799 0.42853 0.32811 0.0
H1882 H 0.6771 0.42218 0.33329 0.0
H1883 H 0.66212 0.38305 0.28127 0.0
H1884 H 0.69285 0.38937 0.27563 0.0
H1885 H 0.79173 0.36686 0.30605 0.0
H1886 H 0.77981 0.39364 0.30934 0.0
H1887 H 0.73015 0.36207 0.27707 0.0
H1888 H 0.74183 0.33484 0.27518 0.0
H1889 H 0.72051 0.3842 0.29754 0.0
H1890 H 0.76721 0.40052 0.26172 0.0
H1891 H 0.7974 0.40573 0.25432 0.0
H1892 H 0.81621 0.44384 0.30684 0.0
H1893 H 0.78616 0.4387 0.31464 0.0
C1894 C 0.70213 0.46573 0.29105 0.0
C1895 C 0.71232 0.48226 0.30233 0.0
C1896 C 0.70804 0.44931 0.28974 0.0
C1897 C 0.72452 0.44837 0.29972 0.0
C1898 C 0.73469 0.465 0.31093 0.0
C1899 C 0.72876 0.48139 0.31226 0.0
C1900 C 0.73152 0.43071 0.29803 0.0
C1901 C 0.74917 0.43166 0.29561 0.0
C1902 C 0.72123 0.41283 0.29834 0.0
C1903 C 0.70268 0.40964 0.30131 0.0
C1904 C 0.69807 0.41876 0.31765 0.0
C1905 C 0.68059 0.41512 0.32069 0.0
C1906 C 0.66764 0.40228 0.30758 0.0
C1907 C 0.67214 0.39305 0.29138 0.0
C1908 C 0.68957 0.39667 0.28824 0.0
C1909 C 0.77827 0.36549 0.29946 0.0
C1910 C 0.76806 0.34823 0.29004 0.0
C1911 C 0.77134 0.38121 0.30116 0.0
C1912 C 0.75389 0.38091 0.2929 0.0
C1913 C 0.74362 0.36351 0.28363 0.0
C1914 C 0.75044 0.34765 0.28238 0.0
C1915 C 0.7464 0.3983 0.2942 0.0
C1916 C 0.72869 0.39731 0.29655 0.0
C1917 C 0.75648 0.41612 0.29336 0.0
C1918 C 0.77452 0.41908 0.28884 0.0
C1919 C 0.77783 0.40991 0.27174 0.0
C1920 C 0.7949 0.41287 0.26747 0.0
C1921 C 0.80872 0.42507 0.28013 0.0
C1922 C 0.8055 0.43437 0.29707 0.0
C1923 C 0.78846 0.43145 0.30142 0.0
H1924 H 0.82193 0.42735 0.27679 0.0
H1925 H 0.65414 0.39943 0.31 0.0
H1926 H 0.77816 0.4612 0.58263 0.0
H1927 H 0.80927 0.47739 0.58889 0.0
H1928 H 0.81892 0.4423 0.54088 0.0
H1929 H 0.78811 0.42605 0.53461 0.0
H1930 H 0.84411 0.44695 0.573 0.0
H1931 H 0.81522 0.4844 0.53568 0.0
H1932 H 0.79224 0.50118 0.53051 0.0
H1933 H 0.81266 0.53522 0.58541 0.0
H1934 H 0.83566 0.51846 0.59096 0.0
H1935 H 0.9206 0.49208 0.54236 0.0
H1936 H 0.8912 0.47668 0.54661 0.0
H1937 H 0.8915 0.52009 0.59205 0.0
H1938 H 0.92101 0.53563 0.58782 0.0
H1939 H 0.8618 0.51217 0.56754 0.0
H1940 H 0.89442 0.4782 0.6021 0.0
H1941 H 0.91645 0.4605 0.60824 0.0
H1942 H 0.88902 0.41932 0.5605 0.0
H1943 H 0.86698 0.43692 0.55384 0.0
C1944 C 0.78685 0.45714 0.57322 0.0
C1945 C 0.78061 0.44244 0.55801 0.0
C1946 C 0.80464 0.46628 0.57692 0.0
C1947 C 0.81638 0.46096 0.56538 0.0
C1948 C 0.81011 0.44649 0.55007 0.0
C1949 C 0.79243 0.43736 0.54639 0.0
C1950 C 0.8351 0.47085 0.56855 0.0
C1951 C 0.84804 0.46119 0.57175 0.0
C1952 C 0.84019 0.48951 0.56753 0.0
C1953 C 0.82705 0.50018 0.56376 0.0
C1954 C 0.8148 0.49549 0.54662 0.0
C1955 C 0.80176 0.50496 0.54364 0.0
C1956 C 0.80097 0.51925 0.55764 0.0
C1957 C 0.81329 0.52416 0.57459 0.0
C1958 C 0.82634 0.5147 0.57764 0.0
C1959 C 0.91456 0.4982 0.5535 0.0
C1960 C 0.92316 0.51506 0.5648 0.0
C1961 C 0.89774 0.48937 0.55593 0.0
C1962 C 0.88924 0.49711 0.56983 0.0
C1963 C 0.89784 0.51386 0.58126 0.0
C1964 C 0.91467 0.52274 0.57879 0.0
C1965 C 0.87095 0.48819 0.57148 0.0
C1966 C 0.85803 0.49801 0.56916 0.0
C1967 C 0.86594 0.46966 0.57341 0.0
C1968 C 0.87911 0.45896 0.57739 0.0
C1969 C 0.89315 0.46543 0.59281 0.0
C1970 C 0.90564 0.45541 0.5964 0.0
C1971 C 0.90415 0.43881 0.58475 0.0
C1972 C 0.89016 0.43219 0.56951 0.0
C1973 C 0.87765 0.44218 0.56583 0.0
H1974 H 0.91383 0.43107 0.58755 0.0
H1975 H 0.79082 0.52653 0.55534 0.0
H1976 H 0.41812 0.18178 0.29458 0.0
H1977 H 0.39814 0.20184 0.29256 0.0
H1978 H 0.35552 0.15607 0.26576 0.0
H1979 H 0.37598 0.13649 0.26604 0.0
H1980 H 0.35038 0.1798 0.24896 0.0
H1981 H 0.3643 0.18427 0.31872 0.0
H1982 H 0.38403 0.19045 0.35002 0.0
H1983 H 0.40583 0.24455 0.3406 0.0
H1984 H 0.38634 0.23863 0.3092 0.0
H1985 H 0.28438 0.23108 0.26141 0.0
H1986 H 0.30287 0.20904 0.26212 0.0
H1987 H 0.34932 0.25314 0.27749 0.0
H1988 H 0.33103 0.27483 0.27673 0.0
H1989 H 0.35101 0.22976 0.30103 0.0
H1990 H 0.33828 0.2266 0.23302 0.0
H1991 H 0.3203 0.22183 0.20088 0.0
H1992 H 0.29781 0.16665 0.20625 0.0
H1993 H 0.31547 0.17119 0.2386 0.0
C1994 C 0.40446 0.17604 0.2883 0.0
C1995 C 0.39868 0.15753 0.28046 0.0
C1996 C 0.39284 0.1875 0.28746 0.0
C1997 C 0.37486 0.18064 0.27959 0.0
C1998 C 0.36915 0.162 0.27196 0.0
C1999 C 0.38091 0.15071 0.27214 0.0
C2000 C 0.36226 0.19286 0.27795 0.0
C2001 C 0.35028 0.19035 0.26068 0.0
C2002 C 0.36236 0.2074 0.29266 0.0
C2003 C 0.37394 0.21096 0.31159 0.0
C2004 C 0.37334 0.19745 0.32332 0.0
C2005 C 0.38448 0.20092 0.34107 0.0
C2006 C 0.3962 0.21787 0.34728 0.0
C2007 C 0.39676 0.23142 0.33578 0.0
C2008 C 0.38565 0.22804 0.31803 0.0
C2009 C 0.29854 0.23598 0.26435 0.0
C2010 C 0.30626 0.25471 0.26892 0.0
C2011 C 0.30914 0.2234 0.26494 0.0
C2012 C 0.32759 0.22935 0.27003 0.0
C2013 C 0.33519 0.24807 0.27376 0.0
C2014 C 0.3247 0.2605 0.27319 0.0
C2015 C 0.33915 0.21638 0.27228 0.0
C2016 C 0.35092 0.21885 0.28959 0.0
C2017 C 0.33897 0.20194 0.25759 0.0
C2018 C 0.328 0.19931 0.23836 0.0
C2019 C 0.32932 0.21352 0.22747 0.0
C2020 C 0.31923 0.21084 0.20918 0.0
C2021 C 0.30787 0.19397 0.20155 0.0
C2022 C 0.30658 0.17973 0.2122 0.0
C2023 C 0.31662 0.18235 0.23052 0.0
H2024 H 0.3001 0.1919 0.18736 0.0
H2025 H 0.40482 0.22051 0.36101 0.0
H2026 H 0.33202 0.13436 0.49412 0.0
H2027 H 0.36099 0.13369 0.51052 0.0
H2028 H 0.33861 0.0821 0.52659 0.0
H2029 H 0.30959 0.08307 0.5109 0.0
H2030 H 0.35812 0.1049 0.55694 0.0
H2031 H 0.36534 0.08879 0.48893 0.0
H2032 H 0.3667 0.09556 0.45596 0.0
H2033 H 0.40694 0.14417 0.47837 0.0
H2034 H 0.40565 0.13778 0.51147 0.0
H2035 H 0.42223 0.05795 0.57678 0.0
H2036 H 0.39826 0.07208 0.56805 0.0
H2037 H 0.43514 0.1176 0.55448 0.0
H2038 H 0.45907 0.10295 0.56242 0.0
H2039 H 0.4112 0.10661 0.52621 0.0
H2040 H 0.40948 0.12207 0.59178 0.0
H2041 H 0.40972 0.11924 0.62606 0.0
H2042 H 0.36147 0.07795 0.61132 0.0
H2043 H 0.36106 0.08031 0.57691 0.0
C2044 C 0.33339 0.12265 0.5007 0.0
C2045 C 0.31859 0.10867 0.5011 0.0
C2046 C 0.34993 0.12234 0.51017 0.0
C2047 C 0.35197 0.10783 0.51978 0.0
C2048 C 0.33732 0.09349 0.51938 0.0
C2049 C 0.32078 0.09395 0.51023 0.0
C2050 C 0.36911 0.10761 0.53088 0.0
C2051 C 0.36973 0.10513 0.55023 0.0
C2052 C 0.38458 0.10922 0.52255 0.0
C2053 C 0.38526 0.11291 0.50264 0.0
C2054 C 0.37438 0.10097 0.48681 0.0
C2055 C 0.37516 0.10473 0.46811 0.0
C2056 C 0.38686 0.1203 0.46507 0.0
C2057 C 0.39786 0.13213 0.48073 0.0
C2058 C 0.39711 0.12845 0.49945 0.0
C2059 C 0.42525 0.07122 0.5725 0.0
C2060 C 0.44239 0.07936 0.57017 0.0
C2061 C 0.41156 0.07937 0.56759 0.0
C2062 C 0.41487 0.09601 0.56069 0.0
C2063 C 0.43225 0.10475 0.55968 0.0
C2064 C 0.44589 0.09643 0.56426 0.0
C2065 C 0.39997 0.10276 0.55203 0.0
C2066 C 0.39977 0.10666 0.53318 0.0
C2067 C 0.38506 0.10301 0.56104 0.0
C2068 C 0.38527 0.10134 0.58172 0.0
C2069 C 0.39898 0.11228 0.59582 0.0
C2070 C 0.39914 0.11078 0.61528 0.0
C2071 C 0.38562 0.09842 0.62086 0.0
C2072 C 0.37192 0.08753 0.60698 0.0
C2073 C 0.37171 0.08897 0.58749 0.0
H2074 H 0.38575 0.0973 0.63594 0.0
H2075 H 0.38745 0.12318 0.45058 0.0
H2076 H 0.6852 0.59978 0.3114 0.0
H2077 H 0.69814 0.63122 0.30835 0.0
H2078 H 0.74986 0.62191 0.31953 0.0
H2079 H 0.7368 0.58986 0.32181 0.0
H2080 H 0.74468 0.65798 0.34135 0.0
H2081 H 0.73646 0.62518 0.27642 0.0
H2082 H 0.71888 0.60454 0.24756 0.0
H2083 H 0.68341 0.63938 0.24271 0.0
H2084 H 0.70062 0.66009 0.27176 0.0
H2085 H 0.7901 0.74467 0.31797 0.0
H2086 H 0.77972 0.71274 0.32218 0.0
H2087 H 0.72926 0.71052 0.28961 0.0
H2088 H 0.73949 0.74213 0.28559 0.0
H2089 H 0.73432 0.67961 0.27895 0.0
H2090 H 0.73793 0.71098 0.34104 0.0
H2091 H 0.7496 0.73123 0.37211 0.0
H2092 H 0.78726 0.70006 0.38494 0.0
H2093 H 0.77602 0.67978 0.35375 0.0
C2094 C 0.69938 0.60423 0.31326 0.0
C2095 C 0.70973 0.59171 0.31694 0.0
C2096 C 0.70686 0.62251 0.31146 0.0
C2097 C 0.72522 0.62963 0.31376 0.0
C2098 C 0.7357 0.61726 0.31771 0.0
C2099 C 0.72815 0.59868 0.31895 0.0
C2100 C 0.73309 0.6496 0.31154 0.0
C2101 C 0.74275 0.66253 0.32754 0.0
C2102 C 0.72998 0.65641 0.29395 0.0
C2103 C 0.71976 0.64411 0.27636 0.0
C2104 C 0.72483 0.62837 0.26929 0.0
C2105 C 0.71494 0.61667 0.25289 0.0
C2106 C 0.70002 0.62063 0.24333 0.0
C2107 C 0.69497 0.63632 0.25014 0.0
C2108 C 0.7048 0.64805 0.26657 0.0
C2109 C 0.77679 0.73744 0.31164 0.0
C2110 C 0.76585 0.74656 0.3013 0.0
C2111 C 0.77069 0.71892 0.31419 0.0
C2112 C 0.75338 0.70843 0.30636 0.0
C2113 C 0.74262 0.71759 0.29591 0.0
C2114 C 0.7486 0.73605 0.29362 0.0
C2115 C 0.74644 0.68818 0.30871 0.0
C2116 C 0.73667 0.67517 0.29275 0.0
C2117 C 0.74894 0.68144 0.32653 0.0
C2118 C 0.75634 0.69405 0.34488 0.0
C2119 C 0.7489 0.70861 0.35033 0.0
C2120 C 0.75539 0.72005 0.368 0.0
C2121 C 0.76922 0.71699 0.38045 0.0
C2122 C 0.7766 0.70247 0.37524 0.0
C2123 C 0.77019 0.691 0.35755 0.0
H2124 H 0.77418 0.72581 0.39417 0.0
H2125 H 0.69238 0.61155 0.23063 0.0
H2126 H 0.92832 0.55878 0.78902 0.0
H2127 H 0.91074 0.52748 0.78329 0.0
H2128 H 0.86512 0.54648 0.79488 0.0
H2129 H 0.88266 0.57811 0.80005 0.0
H2130 H 0.8782 0.51997 0.81863 0.0
H2131 H 0.86313 0.52986 0.75272 0.0
H2132 H 0.87072 0.53845 0.72195 0.0
H2133 H 0.89813 0.49612 0.71543 0.0
H2134 H 0.89099 0.48749 0.74635 0.0
H2135 H 0.81436 0.44084 0.80708 0.0
H2136 H 0.82965 0.47056 0.80183 0.0
H2137 H 0.86791 0.44716 0.77639 0.0
H2138 H 0.85216 0.41695 0.78091 0.0
H2139 H 0.86003 0.47525 0.7581 0.0
H2140 H 0.8792 0.46553 0.82036 0.0
H2141 H 0.87707 0.45597 0.85203 0.0
H2142 H 0.84943 0.49676 0.86691 0.0
H2143 H 0.85111 0.50635 0.83513 0.0
C2144 C 0.91448 0.55627 0.79013 0.0
C2145 C 0.90679 0.57071 0.79518 0.0
C2146 C 0.90447 0.53844 0.7867 0.0
C2147 C 0.8867 0.53478 0.78857 0.0
C2148 C 0.87884 0.54918 0.79322 0.0
C2149 C 0.8888 0.56714 0.7962 0.0
C2150 C 0.87697 0.51589 0.78784 0.0
C2151 C 0.87385 0.51028 0.80536 0.0
C2152 C 0.87255 0.50307 0.77065 0.0
C2153 C 0.87666 0.50815 0.75195 0.0
C2154 C 0.87092 0.5225 0.74483 0.0
C2155 C 0.87512 0.52735 0.72733 0.0
C2156 C 0.88494 0.51786 0.71676 0.0
C2157 C 0.89054 0.50347 0.72364 0.0
C2158 C 0.88641 0.49858 0.74114 0.0
C2159 C 0.82575 0.44184 0.79992 0.0
C2160 C 0.83208 0.42649 0.79454 0.0
C2161 C 0.83455 0.45889 0.79704 0.0
C2162 C 0.85001 0.46106 0.78896 0.0
C2163 C 0.856 0.44573 0.7827 0.0
C2164 C 0.84712 0.42855 0.78552 0.0
C2165 C 0.86055 0.47956 0.78884 0.0
C2166 C 0.86413 0.48501 0.77132 0.0
C2167 C 0.86618 0.49217 0.80614 0.0
C2168 C 0.86509 0.48651 0.82528 0.0
C2169 C 0.8725 0.47234 0.83031 0.0
C2170 C 0.87141 0.46694 0.84829 0.0
C2171 C 0.86307 0.47572 0.86146 0.0
C2172 C 0.85585 0.48995 0.85667 0.0
C2173 C 0.85687 0.49538 0.83868 0.0
H2174 H 0.86225 0.47153 0.87539 0.0
H2175 H 0.88817 0.52164 0.70323 0.0
H2176 H 0.0513 0.85957 0.18989 0.0
H2177 H 0.0523 0.88344 0.1699 0.0
H2178 H 0.02509 0.84329 0.12058 0.0
H2179 H 0.02568 0.81934 0.14029 0.0
H2180 H 0.04741 0.86554 0.10849 0.0
H2181 H 1.0052 0.87526 0.15066 0.0
H2182 H 0.99559 0.88084 0.18221 0.0
H2183 H 0.03677 0.92966 0.19841 0.0
H2184 H 0.04669 0.92426 0.16704 0.0
H2185 H 0.01613 0.92609 0.05171 0.0
H2186 H 0.02072 0.90234 0.07041 0.0
H2187 H 0.05149 0.94319 0.11733 0.0
H2188 H 0.04659 0.96688 0.09888 0.0
H2189 H 0.02862 0.9212 0.13068 0.0
H2190 H 0.06947 0.91307 0.08787 0.0
H2191 H 0.07952 0.90783 0.05656 0.0
H2192 H 0.04145 0.85667 0.04144 0.0
H2193 H 0.03099 0.86172 0.07255 0.0
C2194 C 0.04547 0.85595 0.17479 0.0
C2195 C 0.03818 0.83775 0.16661 0.0
C2196 C 0.04592 0.86959 0.16336 0.0
C2197 C 0.0383 0.86536 0.14374 0.0
C2198 C 0.03101 0.84704 0.13564 0.0
C2199 C 0.0312 0.83336 0.14691 0.0
C2200 C 0.03798 0.87987 0.13158 0.0
C2201 C 0.04306 0.87759 0.11328 0.0
C2202 C 0.03287 0.89596 0.13789 0.0
C2203 C 0.02675 0.89927 0.15661 0.0
C2204 C 0.01222 0.88714 0.161 0.0
C2205 C 1.00673 0.89028 0.17884 0.0
C2206 C 0.01559 0.90558 0.19232 0.0
C2207 C 0.02992 0.91781 0.18797 0.0
C2208 C 0.03547 0.91474 0.17016 0.0
C2209 C 0.02411 0.92995 0.06589 0.0
C2210 C 0.03085 0.94833 0.07392 0.0
C2211 C 0.02679 0.91636 0.07656 0.0
C2212 C 0.03652 0.92093 0.0953 0.0
C2213 C 0.04385 0.93929 0.10297 0.0
C2214 C 0.04101 0.95283 0.09242 0.0
C2215 C 0.0379 0.90679 0.10758 0.0
C2216 C 0.033 0.90916 0.1259 0.0
C2217 C 0.04317 0.89083 0.10125 0.0
C2218 C 0.04936 0.88784 0.08248 0.0
C2219 C 0.06314 0.90077 0.0778 0.0
C2220 C 0.06893 0.89782 0.0601 0.0
C2221 C 0.06111 0.88194 0.04701 0.0
C2222 C 0.04749 0.86897 0.05159 0.0
C2223 C 0.04163 0.87186 0.06926 0.0
H2224 H 0.06563 0.87967 0.03332 0.0
H2225 H 0.01132 0.90797 0.20613 0.0
H2226 H 1.00258 0.32183 0.83005 0.0
H2227 H 0.9714 0.32033 0.81826 0.0
H2228 H 0.95732 0.30299 0.87079 0.0
H2229 H 0.9881 0.30458 0.88246 0.0
H2230 H 0.93209 0.28521 0.8444 0.0
H2231 H 0.95861 0.3467 0.86178 0.0
H2232 H 0.97936 0.37633 0.86386 0.0
H2233 H 0.96373 0.37572 0.80342 0.0
H2234 H 0.94304 0.34589 0.80091 0.0
H2235 H 0.84508 0.30289 0.83218 0.0
H2236 H 0.87547 0.30175 0.843 0.0
H2237 H 0.89015 0.31936 0.79075 0.0
H2238 H 0.85982 0.32125 0.78045 0.0
H2239 H 0.91502 0.33668 0.81795 0.0
H2240 H 0.88575 0.27144 0.80556 0.0
H2241 H 0.86359 0.24513 0.81105 0.0
H2242 H 0.8836 0.25723 0.87174 0.0
H2243 H 0.90574 0.28369 0.86664 0.0
C2244 C 0.99282 0.31733 0.83891 0.0
C2245 C 0.99818 0.3131 0.85722 0.0
C2246 C 0.97483 0.31669 0.83225 0.0
C2247 C 0.96147 0.31163 0.84353 0.0
C2248 C 0.96688 0.30688 0.8615 0.0
C2249 C 0.98473 0.30779 0.86822 0.0
C2250 C 0.94208 0.31152 0.83703 0.0
C2251 C 0.92851 0.29656 0.83864 0.0
C2252 C 0.93671 0.3263 0.82989 0.0
C2253 C 0.94949 0.34392 0.83108 0.0
C2254 C 0.95977 0.35276 0.84886 0.0
C2255 C 0.97148 0.36962 0.85014 0.0
C2256 C 0.97292 0.37787 0.83376 0.0
C2257 C 0.96264 0.36927 0.81608 0.0
C2258 C 0.95093 0.35238 0.81471 0.0
C2259 C 0.85463 0.30591 0.82264 0.0
C2260 C 0.84954 0.31137 0.80491 0.0
C2261 C 0.87227 0.30531 0.82892 0.0
C2262 C 0.88567 0.31001 0.81767 0.0
C2263 C 0.88047 0.31542 0.7999 0.0
C2264 C 0.86287 0.31622 0.79375 0.0
C2265 C 0.90502 0.31003 0.8245 0.0
C2266 C 0.91862 0.32514 0.82324 0.0
C2267 C 0.91036 0.29571 0.83281 0.0
C2268 C 0.89733 0.27956 0.83571 0.0
C2269 C 0.8854 0.26848 0.82007 0.0
C2270 C 0.87283 0.25356 0.82312 0.0
C2271 C 0.87217 0.24952 0.84173 0.0
C2272 C 0.88412 0.26036 0.85733 0.0
C2273 C 0.89669 0.27529 0.85436 0.0
H2274 H 0.86242 0.23799 0.84407 0.0
H2275 H 0.98195 0.39096 0.83479 0.0
H2276 H 0.54047 0.24989 0.65271 0.0
H2277 H 0.54335 0.22227 0.63397 0.0
H2278 H 0.52156 0.19132 0.67564 0.0
H2279 H 0.51949 0.21939 0.69525 0.0
H2280 H 0.54799 0.17984 0.66647 0.0
H2281 H 0.49834 0.19109 0.62768 0.0
H2282 H 0.48173 0.20886 0.60936 0.0
H2283 H 0.52044 0.21623 0.57189 0.0
H2284 H 0.53738 0.19867 0.59014 0.0
H2285 H 0.52879 0.09369 0.60745 0.0
H2286 H 0.52768 0.12217 0.62629 0.0
H2287 H 0.55828 0.15189 0.58941 0.0
H2288 H 0.55957 0.12315 0.57031 0.0
H2289 H 0.52843 0.16416 0.59572 0.0
H2290 H 0.57721 0.15153 0.63387 0.0
H2291 H 0.59326 0.13312 0.65189 0.0
H2292 H 0.55528 0.12756 0.6903 0.0
H2293 H 0.53886 0.14573 0.67234 0.0
C2294 C 0.53599 0.23723 0.65787 0.0
C2295 C 0.52957 0.23695 0.67552 0.0
C2296 C 0.5376 0.22132 0.64698 0.0
C2297 C 0.53237 0.20451 0.65306 0.0
C2298 C 0.52564 0.20408 0.67052 0.0
C2299 C 0.52432 0.22013 0.68167 0.0
C2300 C 0.53469 0.18762 0.6416 0.0
C2301 C 0.54341 0.1763 0.65106 0.0
C2302 C 0.52933 0.18315 0.62132 0.0
C2303 C 0.51919 0.19373 0.61038 0.0
C2304 C 0.50337 0.19662 0.61562 0.0
C2305 C 0.49388 0.20663 0.60524 0.0
C2306 C 0.50005 0.21372 0.58951 0.0
C2307 C 0.51569 0.21076 0.58409 0.0
C2308 C 0.52522 0.20077 0.59444 0.0
C2309 C 0.53537 0.10624 0.60329 0.0
C2310 C 0.54422 0.1061 0.58726 0.0
C2311 C 0.53481 0.12255 0.61422 0.0
C2312 C 0.54301 0.13918 0.6094 0.0
C2313 C 0.55191 0.13919 0.59343 0.0
C2314 C 0.55266 0.12278 0.58255 0.0
C2315 C 0.54151 0.15642 0.62065 0.0
C2316 C 0.53297 0.16777 0.61114 0.0
C2317 C 0.54692 0.16084 0.64087 0.0
C2318 C 0.55671 0.14984 0.65165 0.0
C2319 C 0.57219 0.14624 0.64605 0.0
C2320 C 0.58137 0.13588 0.65628 0.0
C2321 C 0.57527 0.12913 0.6722 0.0
C2322 C 0.55998 0.13277 0.67795 0.0
C2323 C 0.55074 0.14311 0.66776 0.0
H2324 H 0.5824 0.12112 0.6801 0.0
H2325 H 0.49269 0.22147 0.58148 0.0
H2326 H 0.59326 0.82563 0.33554 0.0
H2327 H 0.62179 0.8245 0.32553 0.0
H2328 H 0.64128 0.81579 0.38225 0.0
H2329 H 0.61337 0.8173 0.39229 0.0
H2330 H 0.66739 0.83567 0.37282 0.0
H2331 H 0.62877 0.78092 0.33801 0.0
H2332 H 0.60234 0.76215 0.31625 0.0
H2333 H 0.61735 0.79004 0.26991 0.0
H2334 H 0.6438 0.80911 0.29149 0.0
H2335 H 0.74484 0.80825 0.34875 0.0
H2336 H 0.71654 0.81009 0.35848 0.0
H2337 H 0.69769 0.81868 0.30145 0.0
H2338 H 0.72566 0.81606 0.29154 0.0
H2339 H 0.67139 0.79928 0.31125 0.0
H2340 H 0.71161 0.85376 0.3482 0.0
H2341 H 0.7382 0.87041 0.37114 0.0
H2342 H 0.72031 0.84059 0.41504 0.0
H2343 H 0.69367 0.82366 0.39231 0.0
C2344 C 0.60355 0.82341 0.3459 0.0
C2345 C 0.60043 0.82145 0.36482 0.0
C2346 C 0.62008 0.82265 0.34011 0.0
C2347 C 0.63424 0.81978 0.35291 0.0
C2348 C 0.63108 0.81804 0.37179 0.0
C2349 C 0.61473 0.81881 0.37754 0.0
C2350 C 0.65217 0.81849 0.34699 0.0
C2351 C 0.66808 0.82753 0.35937 0.0
C2352 C 0.65384 0.80808 0.32946 0.0
C2353 C 0.63814 0.79654 0.31639 0.0
C2354 C 0.62638 0.78309 0.3232 0.0
C2355 C 0.61141 0.7724 0.31091 0.0
C2356 C 0.60814 0.77494 0.29173 0.0
C2357 C 0.61989 0.78812 0.28478 0.0
C2358 C 0.63488 0.79886 0.29702 0.0
C2359 C 0.73474 0.81062 0.33824 0.0
C2360 C 0.73798 0.81212 0.31927 0.0
C2361 C 0.71835 0.81185 0.34391 0.0
C2362 C 0.70447 0.815 0.33101 0.0
C2363 C 0.70775 0.81635 0.31203 0.0
C2364 C 0.72404 0.81494 0.30631 0.0
C2365 C 0.68664 0.81663 0.33695 0.0
C2366 C 0.67072 0.80756 0.32461 0.0
C2367 C 0.68499 0.82681 0.35468 0.0
C2368 C 0.70071 0.83737 0.36851 0.0
C2369 C 0.71336 0.85075 0.36274 0.0
C2370 C 0.72844 0.86022 0.3757 0.0
C2371 C 0.73095 0.85653 0.39452 0.0
C2372 C 0.71834 0.84343 0.40046 0.0
C2373 C 0.70323 0.83392 0.38755 0.0
H2374 H 0.74266 0.86384 0.40451 0.0
H2375 H 0.59653 0.76666 0.28223 0.0
H2376 H 0.05806 0.28588 0.44598 0.0
H2377 H 0.04638 0.25532 0.45264 0.0
H2378 H 0.06321 0.27466 0.51363 0.0
H2379 H 0.07521 0.30493 0.50718 0.0
H2380 H 0.07456 0.24562 0.50072 0.0
H2381 H 0.02062 0.26574 0.49411 0.0
H2382 H 0.997 0.27689 0.47705 0.0
H2383 H 0.98453 0.22959 0.43334 0.0
H2384 H 1.00828 0.2183 0.45001 0.0
H2385 H 0.03646 0.18603 0.55541 0.0
H2386 H 0.04043 0.21204 0.5385 0.0
H2387 H 0.02524 0.17614 0.4838 0.0
H2388 H 0.02114 0.14983 0.50078 0.0
H2389 H 0.01255 0.20985 0.48672 0.0
H2390 H 0.06655 0.18964 0.4969 0.0
H2391 H 0.09072 0.18036 0.51544 0.0
H2392 H 0.10276 0.23047 0.55505 0.0
H2393 H 0.07856 0.23994 0.53686 0.0
C2394 C 0.05943 0.28349 0.46078 0.0
C2395 C 0.06778 0.29761 0.47607 0.0
C2396 C 0.05254 0.26619 0.46452 0.0
C2397 C 0.05383 0.26298 0.48357 0.0
C2398 C 0.06213 0.27704 0.49882 0.0
C2399 C 0.06917 0.29422 0.4951 0.0
C2400 C 0.04814 0.24468 0.48786 0.0
C2401 C 0.06098 0.23782 0.49771 0.0
C2402 C 0.03054 0.23441 0.48323 0.0
C2403 C 0.0164 0.24131 0.47314 0.0
C2404 C 0.01299 0.25783 0.48074 0.0
C2405 C 0.99954 0.26415 0.47117 0.0
C2406 C 0.98932 0.254 0.45408 0.0
C2407 C 0.99249 0.23747 0.44655 0.0
C2408 C 1.00594 0.23111 0.45605 0.0
C2409 C 0.03372 0.18371 0.53979 0.0
C2410 C 0.02878 0.16609 0.5293 0.0
C2411 C 0.03591 0.19849 0.5302 0.0
C2412 C 0.03336 0.1958 0.51002 0.0
C2413 C 0.02726 0.17828 0.49942 0.0
C2414 C 0.02496 0.16339 0.50907 0.0
C2415 C 0.03889 0.21136 0.50041 0.0
C2416 C 0.02613 0.21757 0.48938 0.0
C2417 C 0.05657 0.22138 0.50426 0.0
C2418 C 0.07068 0.2154 0.51561 0.0
C2419 C 0.07423 0.19857 0.50969 0.0
C2420 C 0.08798 0.19331 0.5201 0.0
C2421 C 0.09825 0.20481 0.53643 0.0
C2422 C 0.09479 0.22157 0.54241 0.0
C2423 C 0.08108 0.22689 0.53205 0.0
H2424 H 0.10892 0.20073 0.54443 0.0
H2425 H 0.9789 0.2589 0.44671 0.0
H2426 H 0.57466 0.28839 0.13784 0.0
H2427 H 0.60278 0.2902 0.15837 0.0
H2428 H 0.57676 0.24861 0.18777 0.0
H2429 H 0.54889 0.24656 0.16711 0.0
H2430 H 0.59403 0.28505 0.21062 0.0
H2431 H 0.60246 0.23604 0.16718 0.0
H2432 H 0.60366 0.21975 0.13525 0.0
H2433 H 0.6467 0.26259 0.12854 0.0
H2434 H 0.6455 0.27934 0.16033 0.0
H2435 H 0.66253 0.26293 0.27061 0.0
H2436 H 0.6366 0.26584 0.24952 0.0
H2437 H 0.66996 0.30193 0.22002 0.0
H2438 H 0.69589 0.29909 0.24127 0.0
H2439 H 0.64958 0.27033 0.19654 0.0
H2440 H 0.64131 0.31825 0.24279 0.0
H2441 H 0.63882 0.33279 0.27511 0.0
H2442 H 0.59459 0.28939 0.27736 0.0
H2443 H 0.59691 0.2745 0.24511 0.0
C2444 C 0.57525 0.27919 0.14817 0.0
C2445 C 0.55999 0.26728 0.15106 0.0
C2446 C 0.59113 0.28028 0.15987 0.0
C2447 C 0.59155 0.26963 0.17452 0.0
C2448 C 0.57648 0.2569 0.1765 0.0
C2449 C 0.56073 0.25568 0.16471 0.0
C2450 C 0.60712 0.27329 0.18924 0.0
C2451 C 0.60619 0.28177 0.20767 0.0
C2452 C 0.62281 0.26916 0.18502 0.0
C2453 C 0.62376 0.25905 0.16603 0.0
C2454 C 0.61206 0.24209 0.15882 0.0
C2455 C 0.61276 0.23275 0.14076 0.0
C2456 C 0.62523 0.24015 0.12985 0.0
C2457 C 0.63704 0.25689 0.13701 0.0
C2458 C 0.63636 0.26631 0.15504 0.0
C2459 C 0.66414 0.27208 0.26017 0.0
C2460 C 0.68089 0.28092 0.25746 0.0
C2461 C 0.64944 0.27372 0.24816 0.0
C2462 C 0.65152 0.28407 0.23329 0.0
C2463 C 0.66823 0.29397 0.23151 0.0
C2464 C 0.68292 0.29246 0.24366 0.0
C2465 C 0.6366 0.28225 0.21804 0.0
C2466 C 0.63756 0.27396 0.19946 0.0
C2467 C 0.62082 0.2863 0.22222 0.0
C2468 C 0.61933 0.29524 0.24158 0.0
C2469 C 0.63112 0.31176 0.25023 0.0
C2470 C 0.62972 0.32008 0.26852 0.0
C2471 C 0.61656 0.31201 0.27829 0.0
C2472 C 0.60476 0.29563 0.26977 0.0
C2473 C 0.60608 0.28727 0.25146 0.0
H2474 H 0.61551 0.31847 0.29245 0.0
H2475 H 0.62576 0.2329 0.11587 0.0
H2476 H 0.57481 0.88098 0.01032 0.0
H2477 H 0.57186 0.91017 0.02497 0.0
H2478 H 0.5696 0.92835 0.9697 0.0
H2479 H 0.57253 0.89874 0.95455 0.0
H2480 H 0.59296 0.95296 1.00225 0.0
H2481 H 0.53429 0.92261 0.98226 0.0
H2482 H 0.50742 0.89779 0.97502 0.0
H2483 H 0.50952 0.89485 0.03533 0.0
H2484 H 0.53658 0.9195 0.04295 0.0
H2485 H 0.53835 0.00979 0.02541 0.0
H2486 H 0.55677 0.99092 0.01421 0.0
H2487 H 0.57039 0.98092 0.07211 0.0
H2488 H 0.55333 1.00218 0.08409 0.0
H2489 H 0.5434 0.95333 0.03864 0.0
H2490 H 0.60442 0.98766 0.05511 0.0
H2491 H 0.62865 0.01471 0.05726 0.0
H2492 H 0.61622 0.0141 0.99636 0.0
H2493 H 0.59216 0.98672 0.99377 0.0
C2494 C 0.57385 0.89116 1.00123 0.0
C2495 C 0.5739 0.8877 0.98135 0.0
C2496 C 0.57208 0.90773 0.00959 0.0
C2497 C 0.57035 0.921 0.99821 0.0
C2498 C 0.57088 0.91797 0.97846 0.0
C2499 C 0.57256 0.9012 0.96995 0.0
C2500 C 0.56805 0.93796 0.00763 0.0
C2501 C 0.58202 0.95326 0.01 0.0
C2502 C 0.55375 0.93794 0.01758 0.0
C2503 C 0.53761 0.92282 0.01317 0.0
C2504 C 0.52916 0.91654 0.99398 0.0
C2505 C 0.51385 0.90253 0.98981 0.0
C2506 C 0.50679 0.89472 0.0047 0.0
C2507 C 0.51502 0.90091 0.02381 0.0
C2508 C 0.53034 0.91492 0.02807 0.0
C2509 C 0.54598 1.00439 0.03599 0.0
C2510 C 0.54452 0.00726 0.05557 0.0
C2511 C 0.55668 0.99383 0.02959 0.0
C2512 C 0.565 0.9849 0.04245 0.0
C2513 C 0.56432 0.98826 0.06223 0.0
C2514 C 0.55436 0.99994 0.06892 0.0
C2515 C 0.5686 0.96826 0.03384 0.0
C2516 C 0.55455 0.95292 0.03126 0.0
C2517 C 0.58224 0.9687 0.02283 0.0
C2518 C 0.59652 0.98521 0.02428 0.0
C2519 C 0.60681 0.99336 0.0422 0.0
C2520 C 0.62051 0.00874 0.04349 0.0
C2521 C 0.62383 0.01628 0.02701 0.0
C2522 C 0.6136 0.00829 0.00913 0.0
C2523 C 0.60002 0.99275 0.00772 0.0
H2524 H 0.6344 0.02825 0.02807 0.0
H2525 H 0.49492 0.8839 1.00145 0.0
H2526 H 0.9463 0.76547 0.65414 0.0
H2527 H 0.92483 0.76495 0.67605 0.0
H2528 H 0.96053 0.81033 0.71442 0.0
H2529 H 0.98254 0.80977 0.69317 0.0
H2530 H 0.95152 0.78188 0.7317 0.0
H2531 H 0.91932 0.81168 0.68609 0.0
H2532 H 0.90506 0.8111 0.65286 0.0
H2533 H 0.8698 0.76003 0.65432 0.0
H2534 H 0.88401 0.76021 0.68747 0.0
H2535 H 0.9077 0.82455 0.79494 0.0
H2536 H 0.92394 0.81242 0.77166 0.0
H2537 H 0.87917 0.76751 0.74965 0.0
H2538 H 0.86254 0.78022 0.77235 0.0
H2539 H 0.88942 0.78602 0.72218 0.0
H2540 H 0.9271 0.74923 0.75531 0.0
H2541 H 0.94497 0.74184 0.78299 0.0
H2542 H 0.96917 0.79845 0.80197 0.0
H2543 H 0.95202 0.80602 0.77389 0.0
C2544 C 0.94916 0.77576 0.6669 0.0
C2545 C 0.96574 0.78781 0.67214 0.0
C2546 C 0.93695 0.77544 0.67937 0.0
C2547 C 0.94113 0.78765 0.69675 0.0
C2548 C 0.95717 0.8008 0.70103 0.0
C2549 C 0.9696 0.80065 0.68891 0.0
C2550 C 0.93004 0.78539 0.71171 0.0
C2551 C 0.93799 0.78304 0.72969 0.0
C2552 C 0.91205 0.78529 0.70855 0.0
C2553 C 0.9027 0.78597 0.68925 0.0
C2554 C 0.90846 0.80038 0.67935 0.0
C2555 C 0.90044 0.80009 0.66051 0.0
C2556 C 0.88653 0.78554 0.65149 0.0
C2557 C 0.88055 0.77131 0.66134 0.0
C2558 C 0.88855 0.77152 0.68017 0.0
C2559 C 0.90151 0.81182 0.78552 0.0
C2560 C 0.88389 0.80326 0.78546 0.0
C2561 C 0.91091 0.80468 0.77247 0.0
C2562 C 0.90295 0.78875 0.75932 0.0
C2563 C 0.88566 0.77961 0.75995 0.0
C2564 C 0.87621 0.78681 0.77298 0.0
C2565 C 0.91143 0.78413 0.74271 0.0
C2566 C 0.90291 0.78478 0.72421 0.0
C2567 C 0.92884 0.78222 0.74514 0.0
C2568 C 0.9377 0.77823 0.7631 0.0
C2569 C 0.93605 0.76009 0.76558 0.0
C2570 C 0.94627 0.75584 0.78113 0.0
C2571 C 0.95805 0.76969 0.79436 0.0
C2572 C 0.95985 0.78777 0.79187 0.0
C2573 C 0.94992 0.79204 0.77612 0.0
H2574 H 0.96586 0.76639 0.80647 0.0
H2575 H 0.88039 0.7853 0.63687 0.0
H2576 H 0.14936 0.03114 0.88065 0.0
H2577 H 0.1337 0.03129 0.90835 0.0
H2578 H 0.10012 0.06136 0.88133 0.0
H2579 H 0.11642 0.06206 0.85424 0.0
H2580 H 0.10545 0.07484 0.91538 0.0
H2581 H 0.08924 0.0104 0.88902 0.0
H2582 H 0.0945 0.98027 0.87895 0.0
H2583 H 0.12223 0.98195 0.93562 0.0
H2584 H 0.1173 0.01215 0.94595 0.0
H2585 H 0.04363 0.07044 0.97861 0.0
H2586 H 0.05723 0.0639 0.95018 0.0
H2587 H 0.09106 0.03761 0.9828 0.0
H2588 H 0.07664 0.04334 0.011 0.0
H2589 H 0.08653 0.02162 0.94734 0.0
H2590 H 0.10384 0.08445 0.97409 0.0
H2591 H 0.09893 0.11424 0.98629 0.0
H2592 H 0.07092 0.11576 0.93068 0.0
H2593 H 0.07546 0.08584 0.91824 0.0
C2594 C 0.13861 0.03776 0.88052 0.0
C2595 C 0.13437 0.04662 0.86488 0.0
C2596 C 0.12938 0.03768 0.89649 0.0
C2597 C 0.11516 0.04605 0.89735 0.0
C2598 C 0.1109 0.05476 0.88158 0.0
C2599 C 0.1203 0.05512 0.86583 0.0
C2600 C 0.10521 0.04661 0.91471 0.0
C2601 C 0.10111 0.06296 0.92194 0.0
C2602 C 0.09991 0.03161 0.92451 0.0
C2603 C 0.10308 0.01361 0.91817 0.0
C2604 C 0.09659 1.0044 0.89927 0.0
C2605 C 0.09948 0.9873 0.89354 0.0
C2606 C 0.10874 0.97923 0.90662 0.0
C2607 C 0.1151 0.98822 0.92549 0.0
C2608 C 0.11225 1.00532 0.93129 0.0
C2609 C 0.05357 0.06275 0.97958 0.0
C2610 C 0.05875 0.05722 0.99715 0.0
C2611 C 0.06168 0.05926 0.96329 0.0
C2612 C 0.07586 0.05076 0.96409 0.0
C2613 C 0.08039 0.04433 0.98142 0.0
C2614 C 0.07201 0.04753 0.99766 0.0
C2615 C 0.08642 0.04965 0.94739 0.0
C2616 C 0.09076 0.03336 0.94051 0.0
C2617 C 0.09221 0.06472 0.93802 0.0
C2618 C 0.0899 0.0829 0.94528 0.0
C2619 C 0.09661 0.09114 0.96448 0.0
C2620 C 0.09387 0.10803 0.97144 0.0
C2621 C 0.0846 0.11688 0.95927 0.0
C2622 C 0.0781 0.10889 0.94009 0.0
C2623 C 0.08076 0.09197 0.93307 0.0
H2624 H 0.08247 0.12995 0.96469 0.0
H2625 H 0.11095 0.96598 0.90215 0.0
H2626 H 0.72325 0.38957 0.61877 0.0
H2627 H 0.73349 0.37746 0.64727 0.0
H2628 H 0.76764 0.35311 0.61529 0.0
H2629 H 0.75662 0.36414 0.58662 0.0
H2630 H 0.75652 0.33119 0.63579 0.0
H2631 H 0.7807 0.396 0.65217 0.0
H2632 H 0.78052 0.42838 0.65843 0.0
H2633 H 0.74802 0.41801 0.70182 0.0
H2634 H 0.74784 0.38556 0.69565 0.0
H2635 H 0.80581 0.31121 0.71952 0.0
H2636 H 0.79696 0.323 0.69006 0.0
H2637 H 0.76163 0.34822 0.7192 0.0
H2638 H 0.77142 0.33775 0.74863 0.0
H2639 H 0.7749 0.37019 0.69982 0.0
H2640 H 0.74973 0.30489 0.68204 0.0
H2641 H 0.75153 0.27292 0.67679 0.0
H2642 H 0.78713 0.28487 0.63662 0.0
H2643 H 0.78564 0.31692 0.64178 0.0
C2644 C 0.73273 0.38138 0.61774 0.0
C2645 C 0.73893 0.37773 0.60023 0.0
C2646 C 0.73884 0.37467 0.6342 0.0
C2647 C 0.75178 0.36464 0.63384 0.0
C2648 C 0.75769 0.36075 0.61622 0.0
C2649 C 0.75129 0.36705 0.59968 0.0
C2650 C 0.75905 0.35792 0.65149 0.0
C2651 C 0.7607 0.33988 0.64971 0.0
C2652 C 0.76435 0.3689 0.66997 0.0
C2653 C 0.76408 0.38833 0.67327 0.0
C2654 C 0.77337 0.4006 0.6629 0.0
C2655 C 0.77336 0.41898 0.66647 0.0
C2656 C 0.76422 0.42524 0.68047 0.0
C2657 C 0.75506 0.41315 0.69094 0.0
C2658 C 0.75501 0.39477 0.68742 0.0
C2659 C 0.79622 0.31933 0.71955 0.0
C2660 C 0.78946 0.32366 0.73647 0.0
C2661 C 0.79099 0.32596 0.70263 0.0
C2662 C 0.7783 0.33638 0.70204 0.0
C2663 C 0.77149 0.34042 0.71901 0.0
C2664 C 0.7771 0.33434 0.73594 0.0
C2665 C 0.77205 0.34341 0.68416 0.0
C2666 C 0.77066 0.36152 0.68588 0.0
C2667 C 0.76702 0.33253 0.66565 0.0
C2668 C 0.76769 0.31327 0.66242 0.0
C2669 C 0.75798 0.30068 0.67215 0.0
C2670 C 0.75894 0.28256 0.66918 0.0
C2671 C 0.76947 0.27688 0.65641 0.0
C2672 C 0.779 0.28929 0.64652 0.0
C2673 C 0.77808 0.30741 0.64944 0.0
H2674 H 0.77022 0.26286 0.65416 0.0
H2675 H 0.76426 0.43947 0.68323 0.0
H2676 H 0.48951 0.08001 0.34705 0.0
H2677 H 0.50047 0.07366 0.37864 0.0
H2678 H 0.48964 0.12268 0.406 0.0
H2679 H 0.47874 0.1292 0.3743 0.0
H2680 H 0.52035 0.11851 0.42355 0.0
H2681 H 0.46211 0.08063 0.40472 0.0
H2682 H 0.4377 0.0578 0.38384 0.0
H2683 H 0.46798 0.01783 0.38623 0.0
H2684 H 0.49269 0.04051 0.40689 0.0
H2685 H 0.51576 0.09402 0.51795 0.0
H2686 H 0.51049 0.10288 0.486 0.0
H2687 H 0.52719 0.05661 0.46064 0.0
H2688 H 0.53293 0.04807 0.49275 0.0
H2689 H 0.49452 0.05926 0.44203 0.0
H2690 H 0.55237 0.09691 0.4618 0.0
H2691 H 0.5765 0.11961 0.48319 0.0
H2692 H 0.54664 0.15985 0.47961 0.0
H2693 H 0.52218 0.13728 0.45842 0.0
C2694 C 0.4896 0.08958 0.35974 0.0
C2695 C 0.48319 0.10516 0.35801 0.0
C2696 C 0.49578 0.08584 0.37789 0.0
C2697 C 0.49568 0.09751 0.39489 0.0
C2698 C 0.48984 0.11339 0.39319 0.0
C2699 C 0.48359 0.11712 0.375 0.0
C2700 C 0.50133 0.09294 0.41436 0.0
C2701 C 0.51452 0.10563 0.42763 0.0
C2702 C 0.4941 0.07597 0.41973 0.0
C2703 C 0.47933 0.06234 0.40716 0.0
C2704 C 0.46363 0.06703 0.40064 0.0
C2705 C 0.44973 0.0541 0.38887 0.0
C2706 C 0.45131 0.03639 0.38366 0.0
C2707 C 0.46679 0.03156 0.39024 0.0
C2708 C 0.48075 0.04445 0.40198 0.0
C2709 C 0.51878 0.08608 0.50561 0.0
C2710 C 0.5251 0.0706 0.50784 0.0
C2711 C 0.5157 0.09108 0.48733 0.0
C2712 C 0.51845 0.08045 0.47082 0.0
C2713 C 0.52502 0.06509 0.47312 0.0
C2714 C 0.52846 0.06031 0.49147 0.0
C2715 C 0.51351 0.08481 0.45114 0.0
C2716 C 0.5004 0.0721 0.43788 0.0
C2717 C 0.52076 0.10175 0.44582 0.0
C2718 C 0.53536 0.11534 0.45868 0.0
C2719 C 0.55087 0.11054 0.46573 0.0
C2720 C 0.56462 0.1234 0.47779 0.0
C2721 C 0.56309 0.14115 0.4828 0.0
C2722 C 0.5478 0.14608 0.47574 0.0
C2723 C 0.53399 0.13327 0.46369 0.0
H2724 H 0.57377 0.1511 0.49211 0.0
H2725 H 0.44052 0.02639 0.37457 0.0
H2726 H 0.79932 0.65655 0.05846 0.0
H2727 H 0.80644 0.67632 0.08977 0.0
H2728 H 0.78132 0.71479 0.06536 0.0
H2729 H 0.77477 0.69545 0.03392 0.0
H2730 H 0.81104 0.73149 0.08681 0.0
H2731 H 0.76109 0.68472 0.09243 0.0
H2732 H 0.74406 0.6535 0.09196 0.0
H2733 H 0.78275 0.64655 0.13686 0.0
H2734 H 0.80017 0.67765 0.13738 0.0
H2735 H 0.78305 0.77854 0.1632 0.0
H2736 H 0.78824 0.76071 0.13458 0.0
H2737 H 0.81738 0.73219 0.17028 0.0
H2738 H 0.8119 0.74994 0.19919 0.0
H2739 H 0.79107 0.70976 0.14508 0.0
H2740 H 0.83806 0.76097 0.14107 0.0
H2741 H 0.85105 0.79336 0.14107 0.0
H2742 H 0.81265 0.79303 0.09226 0.0
H2743 H 0.79932 0.76073 0.0921 0.0
C2744 C 0.79538 0.66926 0.05983 0.0
C2745 C 0.78649 0.67456 0.04392 0.0
C2746 C 0.79939 0.68046 0.07766 0.0
C2747 C 0.79422 0.69684 0.0798 0.0
C2748 C 0.78546 0.70218 0.06388 0.0
C2749 C 0.78172 0.69116 0.04599 0.0
C2750 C 0.79793 0.70859 0.09859 0.0
C2751 C 0.80667 0.72678 0.09958 0.0
C2752 C 0.79247 0.70221 0.1152 0.0
C2753 C 0.78208 0.68343 0.11474 0.0
C2754 C 0.76607 0.67647 0.10205 0.0
C2755 C 0.75633 0.6588 0.10181 0.0
C2756 C 0.76235 0.64802 0.11432 0.0
C2757 C 0.77812 0.65489 0.12713 0.0
C2758 C 0.78794 0.67254 0.1274 0.0
C2759 C 0.79105 0.76889 0.16494 0.0
C2760 C 0.79708 0.76551 0.18326 0.0
C2761 C 0.79405 0.75876 0.14861 0.0
C2762 C 0.80339 0.74536 0.15041 0.0
C2763 C 0.81024 0.74259 0.16872 0.0
C2764 C 0.80708 0.75264 0.18512 0.0
C2765 C 0.80388 0.73276 0.1332 0.0
C2766 C 0.79589 0.71437 0.13247 0.0
C2767 C 0.80951 0.73906 0.11665 0.0
C2768 C 0.81772 0.75843 0.11657 0.0
C2769 C 0.83237 0.76783 0.13037 0.0
C2770 C 0.83979 0.78618 0.1304 0.0
C2771 C 0.83269 0.79525 0.11666 0.0
C2772 C 0.81817 0.78599 0.10286 0.0
C2773 C 0.8107 0.76765 0.10276 0.0
H2774 H 0.83845 0.80945 0.11672 0.0
H2775 H 0.75478 0.63436 0.11413 0.0
H2776 H 0.12531 0.05016 0.76886 0.0
H2777 H 0.10961 0.05365 0.73821 0.0
H2778 H 0.13505 0.017 0.70799 0.0
H2779 H 0.15158 0.01429 0.73871 0.0
H2780 H 0.13494 0.04143 0.68834 0.0
H2781 H 0.08722 0.00745 0.71385 0.0
H2782 H 0.06742 0.99994 0.7374 0.0
H2783 H 0.05283 0.05059 0.73644 0.0
H2784 H 0.07268 0.05847 0.71303 0.0
H2785 H 0.08072 0.03084 0.59721 0.0
H2786 H 0.09477 0.02632 0.62829 0.0
H2787 H 0.07469 0.06852 0.65714 0.0
H2788 H 0.06018 0.07287 0.6259 0.0
H2789 H 0.07181 0.0415 0.67727 0.0
H2790 H 0.1196 0.07406 0.64997 0.0
H2791 H 0.13872 0.0797 0.62547 0.0
H2792 H 0.15238 0.02885 0.62875 0.0
H2793 H 0.13306 0.02276 0.65305 0.0
C2794 C 0.12741 0.04256 0.75576 0.0
C2795 C 0.13975 0.03178 0.75655 0.0
C2796 C 0.11825 0.04452 0.73803 0.0
C2797 C 0.12068 0.0354 0.72034 0.0
C2798 C 0.13274 0.0243 0.72116 0.0
C2799 C 0.14217 0.02261 0.73889 0.0
C2800 C 0.11138 0.03805 0.70111 0.0
C2801 C 0.12105 0.04109 0.68597 0.0
C2802 C 0.09328 0.03819 0.69762 0.0
C2803 C 0.08155 0.03362 0.71187 0.0
C2804 C 0.07989 0.01704 0.7188 0.0
C2805 C 0.06864 0.01271 0.73208 0.0
C2806 C 0.05891 0.0248 0.73845 0.0
C2807 C 0.06039 0.04124 0.73152 0.0
C2808 C 0.07162 0.04565 0.71823 0.0
C2809 C 0.07924 0.03925 0.6101 0.0
C2810 C 0.06926 0.05232 0.60879 0.0
C2811 C 0.08745 0.03669 0.62802 0.0
C2812 C 0.08622 0.04726 0.64536 0.0
C2813 C 0.07603 0.06016 0.64415 0.0
C2814 C 0.06771 0.06268 0.62617 0.0
C2815 C 0.09537 0.04469 0.66462 0.0
C2816 C 0.08569 0.04175 0.67972 0.0
C2817 C 0.11339 0.04436 0.66799 0.0
C2818 C 0.12482 0.04793 0.65323 0.0
C2819 C 0.12658 0.06403 0.64535 0.0
C2820 C 0.13748 0.06731 0.63151 0.0
C2821 C 0.14682 0.05466 0.62559 0.0
C2822 C 0.14517 0.03865 0.63338 0.0
C2823 C 0.13425 0.03528 0.64718 0.0
H2824 H 0.15541 0.05728 0.61504 0.0
H2825 H 0.05019 0.02141 0.74873 0.0
H2826 H 0.76792 0.35738 0.50291 0.0
H2827 H 0.77389 0.34544 0.47148 0.0
H2828 H 0.72792 0.35906 0.44361 0.0
H2829 H 0.72168 0.3708 0.47523 0.0
H2830 H 0.73015 0.3279 0.42524 0.0
H2831 H 0.76997 0.3851 0.44403 0.0
H2832 H 0.79245 0.40988 0.46502 0.0
H2833 H 0.82906 0.37607 0.46614 0.0
H2834 H 0.80669 0.35096 0.44538 0.0
H2835 H 0.75845 0.31644 0.33243 0.0
H2836 H 0.7492 0.32857 0.3621 0.0
H2837 H 0.792 0.31444 0.39592 0.0
H2838 H 0.80145 0.30261 0.36631 0.0
H2839 H 0.79018 0.3478 0.40987 0.0
H2840 H 0.74698 0.28992 0.39001 0.0
H2841 H 0.72356 0.26781 0.36696 0.0
H2842 H 0.69229 0.30695 0.36531 0.0
H2843 H 0.71562 0.32936 0.38817 0.0
C2844 C 0.75894 0.35772 0.49015 0.0
C2845 C 0.74428 0.36511 0.49175 0.0
C2846 C 0.76247 0.35099 0.47206 0.0
C2847 C 0.75158 0.35157 0.45492 0.0
C2848 C 0.73662 0.35845 0.45648 0.0
C2849 C 0.73305 0.36518 0.47464 0.0
C2850 C 0.75602 0.34518 0.43554 0.0
C2851 C 0.74324 0.33246 0.42185 0.0
C2852 C 0.77305 0.35106 0.43078 0.0
C2853 C 0.78658 0.36608 0.4433 0.0
C2854 C 0.78276 0.38289 0.44888 0.0
C2855 C 0.79549 0.39701 0.46072 0.0
C2856 C 0.81216 0.39454 0.46695 0.0
C2857 C 0.81613 0.37795 0.46132 0.0
C2858 C 0.80343 0.36377 0.44951 0.0
C2859 C 0.76576 0.31569 0.34619 0.0
C2860 C 0.78065 0.30839 0.34691 0.0
C2861 C 0.76044 0.32265 0.36322 0.0
C2862 C 0.76976 0.32235 0.38147 0.0
C2863 C 0.78452 0.31489 0.38215 0.0
C2864 C 0.78986 0.30797 0.36515 0.0
C2865 C 0.76449 0.33009 0.39986 0.0
C2866 C 0.77712 0.34321 0.41332 0.0
C2867 C 0.74721 0.32492 0.40415 0.0
C2868 C 0.73309 0.31134 0.39069 0.0
C2869 C 0.73514 0.29382 0.38466 0.0
C2870 C 0.72188 0.28125 0.37163 0.0
C2871 C 0.70646 0.28599 0.36465 0.0
C2872 C 0.70424 0.3033 0.37072 0.0
C2873 C 0.71747 0.31593 0.38373 0.0
H2874 H 0.69622 0.27624 0.35455 0.0
H2875 H 0.822 0.40549 0.4761 0.0
H2876 H 0.4463 0.09087 0.23718 0.0
H2877 H 0.45889 0.08011 0.20932 0.0
H2878 H 0.507 0.12106 0.23027 0.0
H2879 H 0.49463 0.13138 0.25877 0.0
H2880 H 0.48907 0.11534 0.18667 0.0
H2881 H 0.50968 0.08395 0.23788 0.0
H2882 H 0.50487 0.06407 0.2624 0.0
H2883 H 0.47228 0.02126 0.21912 0.0
H2884 H 0.4766 0.04102 0.19441 0.0
H2885 H 0.54872 0.08609 0.12943 0.0
H2886 H 0.53599 0.09624 0.15756 0.0
H2887 H 0.49288 0.04869 0.14235 0.0
H2888 H 0.50518 0.039 0.11379 0.0
H2889 H 0.50676 0.05695 0.18233 0.0
H2890 H 0.48492 0.08248 0.13158 0.0
H2891 H 0.48272 0.09915 0.10431 0.0
H2892 H 0.50775 0.14921 0.142 0.0
H2893 H 0.51139 0.13273 0.16926 0.0
C2894 C 0.45951 0.0977 0.23573 0.0
C2895 C 0.46946 0.11208 0.24999 0.0
C2896 C 0.4667 0.09148 0.21987 0.0
C2897 C 0.48387 0.09978 0.21772 0.0
C2898 C 0.49371 0.11448 0.23168 0.0
C2899 C 0.48667 0.12038 0.2479 0.0
C2900 C 0.49157 0.09282 0.20105 0.0
C2901 C 0.49337 0.10282 0.18587 0.0
C2902 C 0.49595 0.07582 0.19945 0.0
C2903 C 0.49329 0.06404 0.21436 0.0
C2904 C 0.50131 0.07038 0.23364 0.0
C2905 C 0.49871 0.05911 0.24756 0.0
C2906 C 0.48823 0.04143 0.24234 0.0
C2907 C 0.48035 0.03497 0.22317 0.0
C2908 C 0.48287 0.0462 0.2092 0.0
C2909 C 0.53675 0.07766 0.13239 0.0
C2910 C 0.52804 0.06164 0.11971 0.0
C2911 C 0.52939 0.08353 0.14831 0.0
C2912 C 0.51344 0.07326 0.15201 0.0
C2913 C 0.5052 0.0568 0.13981 0.0
C2914 C 0.51226 0.05123 0.12359 0.0
C2915 C 0.50512 0.07993 0.16827 0.0
C2916 C 0.50288 0.06971 0.18322 0.0
C2917 C 0.49961 0.09635 0.16921 0.0
C2918 C 0.49882 0.10624 0.15249 0.0
C2919 C 0.49055 0.09696 0.13399 0.0
C2920 C 0.48902 0.1064 0.11849 0.0
C2921 C 0.49528 0.12522 0.12137 0.0
C2922 C 0.50321 0.1346 0.13971 0.0
C2923 C 0.50514 0.12519 0.15517 0.0
H2924 H 0.49385 0.13254 0.10942 0.0
H2925 H 0.48627 0.03272 0.25313 0.0
H2926 H 0.79874 0.69935 0.96327 0.0
H2927 H 0.8028 0.72194 0.94156 0.0
H2928 H 0.75738 0.68945 0.90185 0.0
H2929 H 0.7534 0.66693 0.92359 0.0
H2930 H 0.78349 0.70133 0.88344 0.0
H2931 H 0.75457 0.72625 0.93096 0.0
H2932 H 0.74938 0.73726 0.96342 0.0
H2933 H 0.79745 0.77869 0.97236 0.0
H2934 H 0.8031 0.76769 0.94003 0.0
H2935 H 0.75469 0.76371 0.83063 0.0
H2936 H 0.75803 0.74317 0.85359 0.0
H2937 H 0.80965 0.77656 0.87795 0.0
H2938 H 0.80654 0.79714 0.85428 0.0
H2939 H 0.78429 0.76576 0.90506 0.0
H2940 H 0.81215 0.73663 0.85543 0.0
H2941 H 0.81508 0.72169 0.8235 0.0
H2942 H 0.76318 0.68726 0.81785 0.0
H2943 H 0.76022 0.7017 0.85005 0.0
C2944 C 0.78991 0.69697 0.94968 0.0
C2945 C 0.776 0.68143 0.9447 0.0
C2946 C 0.79208 0.70991 0.93748 0.0
C2947 C 0.78028 0.7074 0.92024 0.0
C2948 C 0.7666 0.69159 0.91511 0.0
C2949 C 0.76439 0.67874 0.92738 0.0
C2950 C 0.78222 0.72111 0.90735 0.0
C2951 C 0.78358 0.7154 0.88819 0.0
C2952 C 0.78257 0.7395 0.91364 0.0
C2953 C 0.77941 0.74596 0.93321 0.0
C2954 C 0.76416 0.73755 0.93994 0.0
C2955 C 0.76111 0.74382 0.9583 0.0
C2956 C 0.77312 0.75862 0.96999 0.0
C2957 C 0.78819 0.76719 0.96332 0.0
C2958 C 0.79133 0.76093 0.94498 0.0
C2959 C 0.76667 0.76683 0.84103 0.0
C2960 C 0.78023 0.78217 0.84109 0.0
C2961 C 0.76864 0.75498 0.85395 0.0
C2962 C 0.78411 0.75834 0.86728 0.0
C2963 C 0.79765 0.77379 0.86762 0.0
C2964 C 0.79584 0.78553 0.8543 0.0
C2965 C 0.7855 0.74586 0.88122 0.0
C2966 C 0.7846 0.75177 0.90053 0.0
C2967 C 0.78498 0.72748 0.87502 0.0
C2968 C 0.78592 0.72034 0.85495 0.0
C2969 C 0.80128 0.72608 0.84721 0.0
C2970 C 0.80298 0.71759 0.82913 0.0
C2971 C 0.78925 0.70358 0.81859 0.0
C2972 C 0.77377 0.69812 0.82603 0.0
C2973 C 0.77212 0.70638 0.84421 0.0
H2974 H 0.79056 0.69678 0.80474 0.0
H2975 H 0.77071 0.76348 0.98418 0.0
H2976 H 0.90696 0.17705 0.07202 0.0
H2977 H 0.9296 0.1603 0.06669 0.0
H2978 H 0.89855 0.13221 0.01238 0.0
H2979 H 0.8763 0.14954 0.0173 0.0
H2980 H 0.9109 0.10928 0.03929 0.0
H2981 H 0.9324 0.16087 0.00902 0.0
H2982 H 0.94305 0.19319 0.00678 0.0
H2983 H 0.98499 0.19868 0.05371 0.0
H2984 H 0.97443 0.16645 0.05644 0.0
H2985 H 0.97652 0.06151 0.01563 0.0
H2986 H 0.95294 0.07788 0.01413 0.0
H2987 H 0.98701 0.12288 0.05428 0.0
H2988 H 1.01033 0.10751 0.05489 0.0
H2989 H 0.97176 0.13696 0.03089 0.0
H2990 H 0.95009 0.08872 0.06543 0.0
H2991 H 0.94062 0.05696 0.07037 0.0
H2992 H 0.90059 0.04603 0.0204 0.0
H2993 H 0.90996 0.07769 0.01507 0.0
C2994 C 0.90512 0.16748 0.05883 0.0
C2995 C 0.88997 0.1647 0.04499 0.0
C2996 C 0.91805 0.15791 0.0558 0.0
C2997 C 0.91582 0.14497 0.03911 0.0
C2998 C 0.90062 0.14215 0.02531 0.0
C2999 C 0.88795 0.1521 0.02809 0.0
C3000 C 0.92899 0.13392 0.03645 0.0
C3001 C 0.92417 0.11528 0.03721 0.0
C3002 C 0.94645 0.14177 0.03428 0.0
C3003 C 0.95246 0.16129 0.03309 0.0
C3004 C 0.94374 0.16903 0.01905 0.0
C3005 C 0.9498 0.18732 0.01764 0.0
C3006 C 0.96465 0.198 0.03014 0.0
C3007 C 0.97346 0.19041 0.04407 0.0
C3008 C 0.96744 0.17213 0.04555 0.0
C3009 C 0.97896 0.07496 0.02392 0.0
C3010 C 0.99552 0.08312 0.03513 0.0
C3011 C 0.9654 0.0843 0.02325 0.0
C3012 C 0.96799 0.10177 0.0342 0.0
C3013 C 0.98449 0.10965 0.04546 0.0
C3014 C 0.99795 0.10062 0.04581 0.0
C3015 C 0.95393 0.11221 0.03424 0.0
C3016 C 0.95853 0.13083 0.03297 0.0
C3017 C 0.93645 0.10445 0.03657 0.0
C3018 C 0.93084 0.08547 0.03973 0.0
C3019 C 0.93934 0.07949 0.05543 0.0
C3020 C 0.93398 0.06153 0.05832 0.0
C3021 C 0.92004 0.04947 0.04568 0.0
C3022 C 0.9114 0.05537 0.03016 0.0
C3023 C 0.91672 0.07332 0.0272 0.0
H3024 H 0.9159 0.03556 0.04793 0.0
H3025 H 0.96936 0.21214 0.02898 0.0
H3026 H 0.35682 0.48488 0.07503 0.0
H3027 H 0.38615 0.49559 0.06744 0.0
H3028 H 0.40687 0.51072 0.12825 0.0
H3029 H 0.37703 0.50095 0.13581 0.0
H3030 H 0.42258 0.53478 0.10999 0.0
H3031 H 0.40938 0.46909 0.09843 0.0
H3032 H 0.39256 0.43811 0.08382 0.0
H3033 H 0.39769 0.45089 0.02727 0.0
H3034 H 0.41435 0.48199 0.04151 0.0
H3035 H 0.51145 0.5408 0.09439 0.0
H3036 H 0.48266 0.53454 0.10491 0.0
H3037 H 0.4575 0.51701 0.04557 0.0
H3038 H 0.4862 0.52229 0.03524 0.0
H3039 H 0.44482 0.49348 0.06503 0.0
H3040 H 0.45637 0.55857 0.07486 0.0
H3041 H 0.47296 0.58995 0.08802 0.0
H3042 H 0.47034 0.57903 0.14566 0.0
H3043 H 0.45397 0.5475 0.13283 0.0
C3044 C 0.36763 0.49079 0.08675 0.0
C3045 C 0.3648 0.4922 0.10598 0.0
C3046 C 0.38442 0.49666 0.08242 0.0
C3047 C 0.39885 0.50339 0.09727 0.0
C3048 C 0.39595 0.50541 0.11655 0.0
C3049 C 0.37896 0.49994 0.12088 0.0
C3050 C 0.41688 0.50835 0.09257 0.0
C3051 C 0.42756 0.52564 0.10039 0.0
C3052 C 0.42322 0.49661 0.0796 0.0
C3053 C 0.41301 0.47792 0.07106 0.0
C3054 C 0.40681 0.46533 0.08288 0.0
C3055 C 0.39732 0.44774 0.07465 0.0
C3056 C 0.39403 0.44255 0.05463 0.0
C3057 C 0.40023 0.45493 0.04278 0.0
C3058 C 0.40971 0.47253 0.05092 0.0
C3059 C 0.49971 0.53581 0.08365 0.0
C3060 C 0.50094 0.53185 0.06405 0.0
C3061 C 0.48327 0.53232 0.08964 0.0
C3062 C 0.46785 0.52535 0.07603 0.0
C3063 C 0.46917 0.52223 0.05637 0.0
C3064 C 0.48556 0.5253 0.05046 0.0
C3065 C 0.45039 0.52007 0.08212 0.0
C3066 C 0.43987 0.50263 0.07466 0.0
C3067 C 0.44413 0.53174 0.09518 0.0
C3068 C 0.45411 0.55064 0.10289 0.0
C3069 C 0.45947 0.56282 0.09034 0.0
C3070 C 0.46881 0.58064 0.09774 0.0
C3071 C 0.47273 0.58647 0.11766 0.0
C3072 C 0.46732 0.57449 0.13023 0.0
C3073 C 0.45801 0.55665 0.1229 0.0
H3074 H 0.47994 0.60028 0.12337 0.0
H3075 H 0.38671 0.42892 0.0483 0.0
H3076 H 0.34584 0.60652 0.77666 0.0
H3077 H 0.33437 0.63358 0.78064 0.0
H3078 H 0.38519 0.66671 0.77706 0.0
H3079 H 0.39705 0.63958 0.7754 0.0
H3080 H 0.37435 0.68918 0.79474 0.0
H3081 H 0.33834 0.6514 0.73801 0.0
H3082 H 0.31889 0.62325 0.71892 0.0
H3083 H 0.28162 0.62435 0.75786 0.0
H3084 H 0.30092 0.65245 0.77724 0.0
H3085 H 0.33825 0.76657 0.7795 0.0
H3086 H 0.35075 0.7401 0.77662 0.0
H3087 H 0.30289 0.70714 0.78852 0.0
H3088 H 0.28992 0.73351 0.78992 0.0
H3089 H 0.31288 0.68547 0.76632 0.0
H3090 H 0.35105 0.72646 0.82183 0.0
H3091 H 0.37 0.75679 0.83566 0.0
H3092 H 0.40398 0.75119 0.79381 0.0
H3093 H 0.3851 0.72095 0.77956 0.0
C3094 C 0.35469 0.61952 0.77672 0.0
C3095 C 0.37256 0.62026 0.77552 0.0
C3096 C 0.34792 0.63542 0.77863 0.0
C3097 C 0.35826 0.65315 0.77829 0.0
C3098 C 0.37628 0.65382 0.77728 0.0
C3099 C 0.38322 0.63796 0.7762 0.0
C3100 C 0.35055 0.67059 0.77914 0.0
C3101 C 0.3609 0.68804 0.78826 0.0
C3102 C 0.33292 0.67044 0.77099 0.0
C3103 C 0.32111 0.6539 0.75912 0.0
C3104 C 0.32599 0.64562 0.74248 0.0
C3105 C 0.31501 0.62967 0.73163 0.0
C3106 C 0.29906 0.62199 0.7372 0.0
C3107 C 0.29399 0.63031 0.75357 0.0
C3108 C 0.30492 0.64625 0.76447 0.0
C3109 C 0.3303 0.75377 0.7817 0.0
C3110 C 0.31291 0.75281 0.7853 0.0
C3111 C 0.33768 0.73829 0.78026 0.0
C3112 C 0.32842 0.72087 0.78304 0.0
C3113 C 0.31091 0.71993 0.78642 0.0
C3114 C 0.30337 0.73534 0.78738 0.0
C3115 C 0.33654 0.70381 0.7821 0.0
C3116 C 0.32627 0.68648 0.77293 0.0
C3117 C 0.35434 0.70422 0.78976 0.0
C3118 C 0.3666 0.7215 0.79956 0.0
C3119 C 0.36263 0.73166 0.81567 0.0
C3120 C 0.37328 0.74888 0.82348 0.0
C3121 C 0.38807 0.75598 0.81548 0.0
C3122 C 0.39245 0.74571 0.79991 0.0
C3123 C 0.3818 0.72852 0.79198 0.0
H3124 H 0.3962 0.76939 0.82142 0.0
H3125 H 0.2906 0.60962 0.72882 0.0
H3126 H 0.28453 0.68641 0.52034 0.0
H3127 H 0.25499 0.67208 0.52475 0.0
H3128 H 0.27286 0.62628 0.54145 0.0
H3129 H 0.30298 0.64086 0.53767 0.0
H3130 H 0.23806 0.6203 0.51218 0.0
H3131 H 0.26975 0.6525 0.57515 0.0
H3132 H 0.28759 0.67967 0.59721 0.0
H3133 H 0.24721 0.70788 0.58542 0.0
H3134 H 0.22932 0.68104 0.56277 0.0
H3135 H 0.17031 0.57819 0.55926 0.0
H3136 H 0.19768 0.59165 0.5487 0.0
H3137 H 0.18229 0.64218 0.5485 0.0
H3138 H 0.15443 0.62862 0.55828 0.0
H3139 H 0.21536 0.64703 0.56839 0.0
H3140 H 0.18536 0.62154 0.50591 0.0
H3141 H 0.16676 0.5993 0.4788 0.0
H3142 H 0.20097 0.56346 0.48582 0.0
H3143 H 0.22008 0.58574 0.51268 0.0
C3144 C 0.28227 0.67313 0.52463 0.0
C3145 C 0.29623 0.66477 0.52865 0.0
C3146 C 0.26533 0.66504 0.52724 0.0
C3147 C 0.26186 0.64827 0.53358 0.0
C3148 C 0.27541 0.63931 0.53659 0.0
C3149 C 0.29256 0.6476 0.53436 0.0
C3150 C 0.24414 0.64055 0.53768 0.0
C3151 C 0.23319 0.62587 0.52468 0.0
C3152 C 0.23752 0.64866 0.55332 0.0
C3153 C 0.24828 0.66479 0.56704 0.0
C3154 C 0.26475 0.66456 0.57704 0.0
C3155 C 0.27487 0.6799 0.58971 0.0
C3156 C 0.26856 0.69551 0.59273 0.0
C3157 C 0.25211 0.6958 0.58305 0.0
C3158 C 0.24198 0.68052 0.57027 0.0
C3159 C 0.17247 0.59203 0.55655 0.0
C3160 C 0.16012 0.60231 0.55977 0.0
C3161 C 0.1882 0.59973 0.55057 0.0
C3162 C 0.19201 0.6179 0.54783 0.0
C3163 C 0.17963 0.62815 0.55064 0.0
C3164 C 0.16377 0.62039 0.55638 0.0
C3165 C 0.20939 0.62637 0.54318 0.0
C3166 C 0.22025 0.64132 0.55598 0.0
C3167 C 0.21573 0.61898 0.52698 0.0
C3168 C 0.204 0.60517 0.51146 0.0
C3169 C 0.1888 0.60882 0.50182 0.0
C3170 C 0.17821 0.59625 0.48646 0.0
C3171 C 0.18253 0.57986 0.48078 0.0
C3172 C 0.19758 0.57611 0.49032 0.0
C3173 C 0.20837 0.58875 0.50553 0.0
H3174 H 0.17428 0.57014 0.4689 0.0
H3175 H 0.27641 0.70735 0.60257 0.0
H3176 H 0.70301 0.97603 0.80455 0.0
H3177 H 0.72117 0.95453 0.80908 0.0
H3178 H 0.67466 0.91208 0.80751 0.0
H3179 H 0.65651 0.9342 0.80468 0.0
H3180 H 0.7001 0.90643 0.83172 0.0
H3181 H 0.69804 0.92 0.76559 0.0
H3182 H 0.70201 0.94173 0.74271 0.0
H3183 H 0.75615 0.96239 0.7687 0.0
H3184 H 0.75244 0.94084 0.79177 0.0
H3185 H 0.73039 0.83026 0.79986 0.0
H3186 H 0.71595 0.85522 0.80091 0.0
H3187 H 0.76637 0.8937 0.81295 0.0
H3188 H 0.7811 0.86854 0.81167 0.0
H3189 H 0.74141 0.90264 0.78494 0.0
H3190 H 0.74619 0.89283 0.84968 0.0
H3191 H 0.74751 0.86959 0.87043 0.0
H3192 H 0.69331 0.8439 0.84911 0.0
H3193 H 0.69168 0.86677 0.82776 0.0
C3194 C 0.69665 0.96212 0.80526 0.0
C3195 C 0.6783 0.95674 0.80392 0.0
C3196 C 0.70706 0.94975 0.80772 0.0
C3197 C 0.69936 0.93137 0.80787 0.0
C3198 C 0.68101 0.92608 0.80722 0.0
C3199 C 0.67061 0.9387 0.8055 0.0
C3200 C 0.71034 0.91767 0.80787 0.0
C3201 C 0.70892 0.90559 0.8213 0.0
C3202 C 0.72255 0.9167 0.79487 0.0
C3203 C 0.72495 0.9289 0.78038 0.0
C3204 C 0.71079 0.92915 0.76634 0.0
C3205 C 0.71299 0.94145 0.75338 0.0
C3206 C 0.72931 0.95344 0.75426 0.0
C3207 C 0.74352 0.95308 0.76802 0.0
C3208 C 0.74139 0.9408 0.78099 0.0
C3209 C 0.7385 0.844 0.80285 0.0
C3210 C 0.75695 0.84734 0.80586 0.0
C3211 C 0.73018 0.8583 0.80339 0.0
C3212 C 0.74003 0.87639 0.80702 0.0
C3213 C 0.75848 0.87987 0.81004 0.0
C3214 C 0.76688 0.86547 0.80956 0.0
C3215 C 0.73079 0.89143 0.80839 0.0
C3216 C 0.73256 0.90365 0.79531 0.0
C3217 C 0.7193 0.89288 0.82193 0.0
C3218 C 0.71882 0.88147 0.83721 0.0
C3219 C 0.73443 0.88241 0.84971 0.0
C3220 C 0.73529 0.86922 0.86137 0.0
C3221 C 0.72055 0.85517 0.86082 0.0
C3222 C 0.7047 0.85471 0.84926 0.0
C3223 C 0.70377 0.86783 0.83743 0.0
H3224 H 0.72157 0.84455 0.86916 0.0
H3225 H 0.73096 0.96302 0.74428 0.0
H3226 H 0.77058 0.97098 0.57765 0.0
H3227 H 0.74211 0.97438 0.56281 0.0
H3228 H 0.74066 0.01216 0.61291 0.0
H3229 H 0.7692 0.00889 0.62792 0.0
H3230 H 0.70857 0.98535 0.59901 0.0
H3231 H 0.75324 0.02807 0.57477 0.0
H3232 H 0.77874 0.03541 0.55797 0.0
H3233 H 0.74966 0.99933 0.50702 0.0
H3234 H 0.72407 0.99161 0.52364 0.0
H3235 H 0.65824 0.04467 0.58121 0.0
H3236 H 0.6827 0.03056 0.58697 0.0
H3237 H 0.66862 1.00014 0.52925 0.0
H3238 H 0.64386 0.01444 0.52332 0.0
H3239 H 0.70534 0.01556 0.54115 0.0
H3240 H 0.65917 0.97654 0.56222 0.0
H3241 H 0.63288 0.96929 0.57776 0.0
H3242 H 0.66329 0.99625 0.6325 0.0
H3243 H 0.68974 1.00386 0.61724 0.0
C3244 C 0.76421 0.98001 0.58554 0.0
C3245 C 0.77217 0.98981 0.60392 0.0
C3246 C 0.74795 0.98189 0.57703 0.0
C3247 C 0.7394 0.99353 0.58678 0.0
C3248 C 0.74712 1.00307 0.60524 0.0
C3249 C 0.76345 1.0013 0.61372 0.0
C3250 C 0.72271 0.99644 0.57752 0.0
C3251 C 0.70782 0.9919 0.58634 0.0
C3252 C 0.7216 1.00425 0.56051 0.0
C3253 C 0.73687 0.00911 0.5505 0.0
C3254 C 0.75235 0.02161 0.56003 0.0
C3255 C 0.7668 0.02585 0.55054 0.0
C3256 C 0.76585 0.01779 0.53146 0.0
C3257 C 0.7504 0.00553 0.52181 0.0
C3258 C 0.73593 1.00123 0.53125 0.0
C3259 C 0.66029 0.03491 0.56977 0.0
C3260 C 0.64908 0.03038 0.55195 0.0
C3261 C 0.67425 0.02691 0.57305 0.0
C3262 C 0.67717 0.0141 0.55864 0.0
C3263 C 0.66641 0.00994 0.54053 0.0
C3264 C 0.65237 0.01807 0.53719 0.0
C3265 C 0.69146 1.00511 0.5631 0.0
C3266 C 0.7059 0.00847 0.55343 0.0
C3267 C 0.69207 0.99589 0.5791 0.0
C3268 C 0.67643 0.99075 0.58859 0.0
C3269 C 0.66025 0.98093 0.57758 0.0
C3270 C 0.64532 0.97677 0.58633 0.0
C3271 C 0.64642 0.9823 0.60611 0.0
C3272 C 0.66247 0.99194 0.61719 0.0
C3273 C 0.67746 0.99613 0.60851 0.0
H3274 H 0.63483 0.97912 0.61285 0.0
H3275 H 0.77705 0.02108 0.52414 0.0
H3276 H 0.3535 0.5133 0.76386 0.0
H3277 H 0.33978 0.48109 0.764 0.0
H3278 H 0.38572 0.47681 0.80111 0.0
H3279 H 0.39943 0.50836 0.80055 0.0
H3280 H 0.37671 0.44685 0.77975 0.0
H3281 H 0.33949 0.47732 0.81407 0.0
H3282 H 0.31986 0.4981 0.81721 0.0
H3283 H 0.28472 0.46691 0.76692 0.0
H3284 H 0.30425 0.44607 0.76342 0.0
H3285 H 0.34373 0.3616 0.80896 0.0
H3286 H 0.35476 0.3932 0.80605 0.0
H3287 H 0.30524 0.39281 0.7725 0.0
H3288 H 0.29371 0.36102 0.77653 0.0
H3289 H 0.31517 0.42475 0.78937 0.0
H3290 H 0.3509 0.39343 0.75538 0.0
H3291 H 0.37087 0.37335 0.75007 0.0
H3292 H 0.40916 0.40627 0.79695 0.0
H3293 H 0.38933 0.4264 0.80271 0.0
C3294 C 0.36069 0.50563 0.77222 0.0
C3295 C 0.37781 0.51422 0.7823 0.0
C3296 C 0.35269 0.48687 0.77241 0.0
C3297 C 0.36126 0.47567 0.78287 0.0
C3298 C 0.37834 0.48436 0.79279 0.0
C3299 C 0.38629 0.50289 0.79253 0.0
C3300 C 0.35301 0.45522 0.78359 0.0
C3301 C 0.36329 0.44228 0.78214 0.0
C3302 C 0.33526 0.44812 0.78601 0.0
C3303 C 0.32334 0.46027 0.78842 0.0
C3304 C 0.32757 0.47494 0.80369 0.0
C3305 C 0.31649 0.48672 0.80552 0.0
C3306 C 0.30107 0.48385 0.79225 0.0
C3307 C 0.29666 0.46913 0.77718 0.0
C3308 C 0.30772 0.45732 0.77528 0.0
C3309 C 0.335 0.36805 0.80089 0.0
C3310 C 0.31762 0.35807 0.79299 0.0
C3311 C 0.34156 0.3865 0.79894 0.0
C3312 C 0.33141 0.39621 0.78839 0.0
C3313 C 0.31385 0.3863 0.78065 0.0
C3314 C 0.30713 0.36779 0.78292 0.0
C3315 C 0.33899 0.41638 0.78588 0.0
C3316 C 0.32861 0.42926 0.787 0.0
C3317 C 0.35666 0.42341 0.78294 0.0
C3318 C 0.36856 0.4113 0.77959 0.0
C3319 C 0.36353 0.39631 0.76464 0.0
C3320 C 0.37483 0.38493 0.76154 0.0
C3321 C 0.39125 0.3885 0.7732 0.0
C3322 C 0.39642 0.40349 0.78796 0.0
C3323 C 0.38517 0.41489 0.79114 0.0
H3324 H 0.39998 0.37968 0.77077 0.0
H3325 H 0.29252 0.49301 0.79366 0.0
H3326 H 0.18309 0.56036 0.3491 0.0
H3327 H 0.19937 0.59088 0.34602 0.0
H3328 H 0.19255 0.57434 0.28429 0.0
H3329 H 0.17805 0.54382 0.28767 0.0
H3330 H 0.22219 0.59241 0.29341 0.0
H3331 H 0.16796 0.60295 0.3121 0.0
H3332 H 0.14551 0.60367 0.33317 0.0
H3333 H 0.18452 0.63834 0.37828 0.0
H3334 H 0.20724 0.63763 0.35756 0.0
H3335 H 0.23468 0.67477 0.25762 0.0
H3336 H 0.21993 0.64678 0.26768 0.0
H3337 H 0.2448 0.66768 0.32651 0.0
H3338 H 0.25934 0.69599 0.31663 0.0
H3339 H 0.20894 0.64906 0.32291 0.0
H3340 H 0.26209 0.63881 0.30053 0.0
H3341 H 0.28258 0.63802 0.27712 0.0
H3342 H 0.24129 0.60219 0.23523 0.0
H3343 H 0.22054 0.60293 0.25833 0.0
C3344 C 0.18556 0.56327 0.33501 0.0
C3345 C 0.17979 0.54967 0.31869 0.0
C3346 C 0.19454 0.58079 0.33317 0.0
C3347 C 0.19709 0.58515 0.31486 0.0
C3348 C 0.19108 0.57145 0.29864 0.0
C3349 C 0.18284 0.5539 0.30057 0.0
C3350 C 0.20645 0.6036 0.31216 0.0
C3351 C 0.21897 0.60468 0.29971 0.0
C3352 C 0.20292 0.6199 0.32083 0.0
C3353 C 0.18933 0.62003 0.33338 0.0
C3354 C 0.17177 0.61057 0.32658 0.0
C3355 C 0.159 0.61101 0.33845 0.0
C3356 C 0.1636 0.62099 0.35708 0.0
C3357 C 0.18098 0.63058 0.36387 0.0
C3358 C 0.19381 0.63016 0.35208 0.0
C3359 C 0.23682 0.67356 0.27275 0.0
C3360 C 0.24828 0.68759 0.2863 0.0
C3361 C 0.22847 0.6575 0.27846 0.0
C3362 C 0.23144 0.65509 0.2978 0.0
C3363 C 0.24239 0.66926 0.3115 0.0
C3364 C 0.2508 0.68534 0.30579 0.0
C3365 C 0.22374 0.63743 0.30345 0.0
C3366 C 0.21189 0.63662 0.31663 0.0
C3367 C 0.22737 0.62123 0.29501 0.0
C3368 C 0.23978 0.62104 0.28108 0.0
C3369 C 0.25737 0.63089 0.28627 0.0
C3370 C 0.26903 0.63042 0.27307 0.0
C3371 C 0.26323 0.62009 0.25469 0.0
C3372 C 0.24576 0.6102 0.24946 0.0
C3373 C 0.23406 0.61062 0.2626 0.0
H3374 H 0.27229 0.61972 0.2445 0.0
H3375 H 0.15369 0.62134 0.36623 0.0
H3376 H 0.54833 0.79845 0.46043 0.0
H3377 H 0.54509 0.77459 0.48056 0.0
H3378 H 0.55675 0.73808 0.43507 0.0
H3379 H 0.55855 0.7616 0.41445 0.0
H3380 H 0.5341 0.71935 0.45193 0.0
H3381 H 0.58882 0.76546 0.47746 0.0
H3382 H 0.60536 0.79692 0.49054 0.0
H3383 H 0.57527 0.79783 0.53682 0.0
H3384 H 0.55846 0.76645 0.52391 0.0
H3385 H 0.56834 0.65914 0.5042 0.0
H3386 H 0.56387 0.68249 0.48505 0.0
H3387 H 0.54909 0.71228 0.53357 0.0
H3388 H 0.5542 0.68929 0.55311 0.0
H3389 H 0.57046 0.73476 0.51699 0.0
H3390 H 0.51794 0.68902 0.49486 0.0
H3391 H 0.49967 0.65812 0.48263 0.0
H3392 H 0.5233 0.65677 0.43135 0.0
H3393 H 0.54188 0.68761 0.44338 0.0
C3394 C 0.5499 0.7852 0.45469 0.0
C3395 C 0.5537 0.78178 0.43596 0.0
C3396 C 0.54825 0.77161 0.46626 0.0
C3397 C 0.55125 0.75459 0.45968 0.0
C3398 C 0.55447 0.75105 0.44063 0.0
C3399 C 0.55554 0.76448 0.42884 0.0
C3400 C 0.55177 0.74075 0.47272 0.0
C3401 C 0.54223 0.72273 0.46605 0.0
C3402 C 0.56178 0.74511 0.49156 0.0
C3403 C 0.57233 0.76369 0.49966 0.0
C3404 C 0.58575 0.77239 0.49043 0.0
C3405 C 0.59515 0.79021 0.49779 0.0
C3406 C 0.59135 0.79938 0.51448 0.0
C3407 C 0.5782 0.79072 0.5239 0.0
C3408 C 0.56876 0.77292 0.51659 0.0
C3409 C 0.5643 0.67072 0.51091 0.0
C3410 C 0.56168 0.67228 0.53028 0.0
C3411 C 0.56152 0.68398 0.49982 0.0
C3412 C 0.5559 0.69908 0.50774 0.0
C3413 C 0.55334 0.70074 0.52708 0.0
C3414 C 0.55614 0.68748 0.5382 0.0
C3415 C 0.55322 0.71333 0.49594 0.0
C3416 C 0.5623 0.73141 0.50288 0.0
C3417 C 0.54263 0.70906 0.47748 0.0
C3418 C 0.5314 0.69057 0.47009 0.0
C3419 C 0.51933 0.68209 0.48103 0.0
C3420 C 0.5089 0.66459 0.47412 0.0
C3421 C 0.51036 0.65547 0.45624 0.0
C3422 C 0.5222 0.66386 0.4452 0.0
C3423 C 0.53266 0.68135 0.45204 0.0
H3424 H 0.50228 0.64192 0.45093 0.0
H3425 H 0.5986 0.81319 0.52012 0.0
H3426 H 0.59323 0.30969 0.76692 0.0
H3427 H 0.6249 0.31195 0.777 0.0
H3428 H 0.6262 0.27975 0.72296 0.0
H3429 H 0.59508 0.27789 0.71282 0.0
H3430 H 0.64456 0.26847 0.75093 0.0
H3431 H 0.64439 0.32422 0.73071 0.0
H3432 H 0.63678 0.35345 0.72858 0.0
H3433 H 0.65981 0.37278 0.78795 0.0
H3434 H 0.66732 0.34349 0.79052 0.0
H3435 H 0.73521 0.28044 0.75044 0.0
H3436 H 0.70498 0.28271 0.74314 0.0
H3437 H 0.71063 0.31642 0.79822 0.0
H3438 H 0.74172 0.31479 0.8053 0.0
H3439 H 0.68858 0.32726 0.77148 0.0
H3440 H 0.68964 0.26759 0.78787 0.0
H3441 H 0.69865 0.23868 0.78398 0.0
H3442 H 0.67452 0.22708 0.72445 0.0
H3443 H 0.66556 0.25602 0.72795 0.0
C3444 C 0.60021 0.30292 0.7573 0.0
C3445 C 0.59131 0.29346 0.73904 0.0
C3446 C 0.61848 0.30435 0.763 0.0
C3447 C 0.62837 0.29609 0.7508 0.0
C3448 C 0.61926 0.28629 0.73284 0.0
C3449 C 0.60127 0.28522 0.72702 0.0
C3450 C 0.64801 0.29738 0.75647 0.0
C3451 C 0.65408 0.2814 0.7554 0.0
C3452 C 0.66091 0.3141 0.76218 0.0
C3453 C 0.65613 0.33156 0.76091 0.0
C3454 C 0.64761 0.33461 0.7434 0.0
C3455 C 0.64337 0.35121 0.74208 0.0
C3456 C 0.64773 0.36494 0.75815 0.0
C3457 C 0.65638 0.3621 0.77554 0.0
C3458 C 0.66062 0.3455 0.77694 0.0
C3459 C 0.73022 0.28856 0.76105 0.0
C3460 C 0.74118 0.2973 0.77859 0.0
C3461 C 0.71264 0.28971 0.75687 0.0
C3462 C 0.70482 0.29916 0.77029 0.0
C3463 C 0.71596 0.30876 0.78754 0.0
C3464 C 0.73388 0.30788 0.79162 0.0
C3465 C 0.68507 0.2983 0.76634 0.0
C3466 C 0.679 0.31434 0.76748 0.0
C3467 C 0.67214 0.28162 0.76006 0.0
C3468 C 0.67702 0.26398 0.75817 0.0
C3469 C 0.68628 0.25887 0.77396 0.0
C3470 C 0.69139 0.24249 0.77182 0.0
C3471 C 0.68718 0.23106 0.75398 0.0
C3472 C 0.67777 0.23594 0.73826 0.0
C3473 C 0.67265 0.25231 0.74033 0.0
H3474 H 0.6912 0.21842 0.75233 0.0
H3475 H 0.64446 0.3778 0.7571 0.0
H3476 H 0.03609 0.3637 0.96121 0.0
H3477 H 0.03692 0.39172 0.9824 0.0
H3478 H 0.05901 0.42289 0.94101 0.0
H3479 H 0.05914 0.39473 0.92021 0.0
H3480 H 0.07363 0.43945 0.97511 0.0
H3481 H 0.0133 0.41407 0.94615 0.0
H3482 H 0.9859 0.38995 0.93717 0.0
H3483 H 0.9836 0.38733 0.99699 0.0
H3484 H 0.01111 0.41129 0.00631 0.0
H3485 H 0.05501 0.5216 0.01233 0.0
H3486 H 0.0555 0.49355 0.99208 0.0
H3487 H 0.03325 0.46271 0.03366 0.0
H3488 H 0.03176 0.49093 0.05348 0.0
H3489 H 0.01904 0.44599 0.99975 0.0
H3490 H 0.07964 0.47287 0.02838 0.0
H3491 H 0.1077 0.4962 0.0363 0.0
H3492 H 0.10934 0.49648 0.97602 0.0
H3493 H 0.08121 0.47338 0.96774 0.0
C3494 C 0.04122 0.37653 0.95666 0.0
C3495 C 0.04741 0.37702 0.93896 0.0
C3496 C 0.04158 0.39258 0.96875 0.0
C3497 C 0.04754 0.40951 0.96312 0.0
C3498 C 0.05422 0.41004 0.94567 0.0
C3499 C 0.05427 0.39394 0.93376 0.0
C3500 C 0.04656 0.42656 0.97531 0.0
C3501 C 0.06162 0.44096 0.98029 0.0
C3502 C 0.03102 0.4285 0.98246 0.0
C3503 C 0.01431 0.41436 0.97691 0.0
C3504 C 1.00698 0.40829 0.95737 0.0
C3505 C 0.99143 0.39465 0.95223 0.0
C3506 C 0.98303 0.38709 0.9665 0.0
C3507 C 0.99012 0.39319 0.98595 0.0
C3508 C 1.00567 0.40682 0.99117 0.0
C3509 C 0.05021 0.50881 0.01714 0.0
C3510 C 0.04353 0.5084 0.03456 0.0
C3511 C 0.05063 0.49278 0.00562 0.0
C3512 C 0.04495 0.47596 0.01157 0.0
C3513 C 0.03786 0.4755 0.0288 0.0
C3514 C 0.03701 0.49159 0.04013 0.0
C3515 C 0.04614 0.4589 0.99963 0.0
C3516 C 0.03109 0.4445 0.99465 0.0
C3517 C 0.06167 0.45705 0.99237 0.0
C3518 C 0.07832 0.47138 0.99744 0.0
C3519 C 0.08592 0.47801 0.01683 0.0
C3520 C 0.10184 0.49119 0.02138 0.0
C3521 C 0.11033 0.49771 0.00667 0.0
C3522 C 0.10279 0.49134 0.98739 0.0
C3523 C 0.08687 0.4782 0.98276 0.0
H3524 H 0.12284 0.50757 0.01016 0.0
H3525 H 0.97101 0.37651 0.96248 0.0
H3526 H 0.96627 0.78027 0.2124 0.0
H3527 H 0.93654 0.77889 0.21916 0.0
H3528 H 0.95767 0.80136 0.27874 0.0
H3529 H 0.98719 0.80052 0.27222 0.0
H3530 H 0.93067 0.78213 0.28155 0.0
H3531 H 0.93572 0.82313 0.23275 0.0
H3532 H 0.93976 0.83011 0.20031 0.0
H3533 H 0.89743 0.78423 0.17461 0.0
H3534 H 0.89327 0.77692 0.20685 0.0
H3535 H 0.85456 0.80571 0.30948 0.0
H3536 H 0.88294 0.80481 0.30017 0.0
H3537 H 0.85742 0.78065 0.24228 0.0
H3538 H 0.8289 0.78299 0.25138 0.0
H3539 H 0.88534 0.79864 0.23718 0.0
H3540 H 0.87833 0.75758 0.28231 0.0
H3541 H 0.87301 0.7469 0.31291 0.0
H3542 H 0.91746 0.78824 0.34356 0.0
H3543 H 0.92292 0.7993 0.31317 0.0
C3544 C 0.9646 0.78502 0.22696 0.0
C3545 C 0.97942 0.79073 0.24166 0.0
C3546 C 0.94734 0.78452 0.23086 0.0
C3547 C 0.94411 0.79072 0.24949 0.0
C3548 C 0.95911 0.79648 0.26416 0.0
C3549 C 0.97627 0.79616 0.2604 0.0
C3550 C 0.92547 0.79073 0.25409 0.0
C3551 C 0.92105 0.78619 0.27185 0.0
C3552 C 0.91181 0.79484 0.24141 0.0
C3553 C 0.91431 0.79942 0.22216 0.0
C3554 C 0.92733 0.81453 0.22016 0.0
C3555 C 0.92963 0.81853 0.20181 0.0
C3556 C 0.91889 0.8076 0.18541 0.0
C3557 C 0.90577 0.79267 0.18731 0.0
C3558 C 0.90342 0.78861 0.2056 0.0
C3559 C 0.85486 0.80009 0.29473 0.0
C3560 C 0.83908 0.79423 0.28134 0.0
C3561 C 0.87134 0.79935 0.28937 0.0
C3562 C 0.87292 0.792 0.2705 0.0
C3563 C 0.8571 0.7863 0.257 0.0
C3564 C 0.84057 0.78754 0.26225 0.0
C3565 C 0.89091 0.79073 0.26491 0.0
C3566 C 0.8951 0.79486 0.24696 0.0
C3567 C 0.90425 0.78587 0.27723 0.0
C3568 C 0.90092 0.77935 0.29551 0.0
C3569 C 0.88689 0.76446 0.2956 0.0
C3570 C 0.88386 0.75833 0.3129 0.0
C3571 C 0.89487 0.76691 0.33017 0.0
C3572 C 0.90894 0.78163 0.33018 0.0
C3573 C 0.91201 0.78782 0.31292 0.0
H3574 H 0.89251 0.76214 0.34354 0.0
H3575 H 0.92071 0.81071 0.17123 0.0
H3576 H 0.52178 0.32208 0.14035 0.0
H3577 H 0.53737 0.35274 0.1384 0.0
H3578 H 0.53318 0.33817 0.07677 0.0
H3579 H 0.51809 0.30707 0.07865 0.0
H3580 H 0.56662 0.35668 0.0946 0.0
H3581 H 0.50625 0.36233 0.09542 0.0
H3582 H 0.47948 0.35718 0.11045 0.0
H3583 H 0.50862 0.38998 0.1633 0.0
H3584 H 0.53561 0.39514 0.14861 0.0
H3585 H 0.57274 0.43302 0.05207 0.0
H3586 H 0.56789 0.40497 0.06512 0.0
H3587 H 0.57091 0.43481 0.12204 0.0
H3588 H 0.57483 0.46311 0.10857 0.0
H3589 H 0.54277 0.40975 0.11404 0.0
H3590 H 0.6021 0.40953 0.11052 0.0
H3591 H 0.62911 0.41352 0.09598 0.0
H3592 H 0.60337 0.37023 0.04957 0.0
H3593 H 0.57612 0.36616 0.06366 0.0
C3594 C 0.52385 0.32545 0.12631 0.0
C3595 C 0.51866 0.31229 0.1096 0.0
C3596 C 0.53287 0.34292 0.12528 0.0
C3597 C 0.53635 0.34755 0.10747 0.0
C3598 C 0.53065 0.33465 0.09064 0.0
C3599 C 0.52186 0.31704 0.0917 0.0
C3600 C 0.54579 0.36599 0.10634 0.0
C3601 C 0.56148 0.36836 0.09875 0.0
C3602 C 0.53935 0.38109 0.11265 0.0
C3603 C 0.5229 0.37909 0.12095 0.0
C3604 C 0.5069 0.3685 0.11022 0.0
C3605 C 0.49172 0.36553 0.11869 0.0
C3606 C 0.49235 0.37324 0.13782 0.0
C3607 C 0.50815 0.38404 0.14848 0.0
C3608 C 0.52338 0.38703 0.14008 0.0
C3609 C 0.57301 0.43364 0.06748 0.0
C3610 C 0.57427 0.45006 0.07941 0.0
C3611 C 0.57033 0.41762 0.07497 0.0
C3612 C 0.5694 0.41784 0.09464 0.0
C3613 C 0.57174 0.43442 0.10685 0.0
C3614 C 0.57402 0.45049 0.09922 0.0
C3615 C 0.56343 0.40058 0.10152 0.0
C3616 C 0.54833 0.39829 0.1103 0.0
C3617 C 0.57053 0.38557 0.09641 0.0
C3618 C 0.58707 0.38753 0.08819 0.0
C3619 C 0.60219 0.40087 0.0972 0.0
C3620 C 0.61754 0.40316 0.08902 0.0
C3621 C 0.61796 0.39212 0.07187 0.0
C3622 C 0.60304 0.37874 0.06288 0.0
C3623 C 0.58765 0.3764 0.07099 0.0
H3624 H 0.62985 0.39395 0.06554 0.0
H3625 H 0.4806 0.37084 0.1444 0.0
H3626 H 0.01901 0.31873 0.4496 0.0
H3627 H 0.99251 0.30846 0.42521 0.0
H3628 H 0.996 0.36358 0.41589 0.0
H3629 H 0.02309 0.37389 0.43972 0.0
H3630 H 0.96004 0.33601 0.42199 0.0
H3631 H 1.00904 0.34859 0.38601 0.0
H3632 H 0.03743 0.34519 0.37721 0.0
H3633 H 0.01652 0.28769 0.36117 0.0
H3634 H 0.98813 0.29072 0.37041 0.0
H3635 H 0.91974 0.3512 0.33676 0.0
H3636 H 0.94546 0.34794 0.35767 0.0
H3637 H 0.9215 0.29114 0.35502 0.0
H3638 H 0.89536 0.29442 0.3342 0.0
H3639 H 0.96614 0.31211 0.35527 0.0
H3640 H 0.91562 0.30057 0.38959 0.0
H3641 H 0.88763 0.3057 0.39807 0.0
H3642 H 0.91186 0.36235 0.41669 0.0
H3643 H 0.93989 0.35758 0.40793 0.0
C3644 C 0.01381 0.32871 0.44275 0.0
C3645 C 0.02277 0.34711 0.44658 0.0
C3646 C 0.9989 0.3228 0.42871 0.0
C3647 C 0.99269 0.3353 0.41877 0.0
C3648 C 1.0009 0.35384 0.42346 0.0
C3649 C 0.01613 0.35971 0.4371 0.0
C3650 C 0.97768 0.32898 0.40325 0.0
C3651 C 0.96129 0.3306 0.40745 0.0
C3652 C 0.97948 0.32165 0.38449 0.0
C3653 C 0.99664 0.31982 0.37938 0.0
C3654 C 1.01062 0.33518 0.38102 0.0
C3655 C 0.02668 0.33333 0.37585 0.0
C3656 C 0.02882 0.31622 0.36877 0.0
C3657 C 0.01488 0.30092 0.36678 0.0
C3658 C 0.99882 0.30269 0.37203 0.0
C3659 C 0.92022 0.33791 0.34014 0.0
C3660 C 0.90568 0.3231 0.33418 0.0
C3661 C 0.93485 0.33606 0.35199 0.0
C3662 C 0.93508 0.31938 0.3579 0.0
C3663 C 0.92135 0.30408 0.35049 0.0
C3664 C 0.90656 0.30595 0.3386 0.0
C3665 C 0.94851 0.31921 0.37401 0.0
C3666 C 0.96473 0.31672 0.36999 0.0
C3667 C 0.94662 0.32577 0.39299 0.0
C3668 C 0.92972 0.32876 0.39784 0.0
C3669 C 0.91488 0.31416 0.39521 0.0
C3670 C 0.89903 0.31699 0.40013 0.0
C3671 C 0.89794 0.33436 0.40785 0.0
C3672 C 0.9127 0.34892 0.41066 0.0
C3673 C 0.92856 0.34616 0.4057 0.0
H3674 H 0.88568 0.33651 0.41172 0.0
H3675 H 0.04125 0.31482 0.36472 0.0
H3676 H 0.97861 0.72704 0.58422 0.0
H3677 H 0.99129 0.70395 0.56899 0.0
H3678 H 1.00411 0.68757 0.62402 0.0
H3679 H 0.99202 0.71123 0.63974 0.0
H3680 H 0.03131 0.68998 0.60194 0.0
H3681 H 0.96937 0.66321 0.59681 0.0
H3682 H 0.93867 0.66549 0.58971 0.0
H3683 H 0.94454 0.66986 0.53094 0.0
H3684 H 0.97541 0.66788 0.53785 0.0
H3685 H 0.03489 0.60537 0.5967 0.0
H3686 H 0.01903 0.629 0.59775 0.0
H3687 H 0.02216 0.63179 0.53776 0.0
H3688 H 0.03671 0.60642 0.5362 0.0
H3689 H 0.99025 0.63991 0.55498 0.0
H3690 H 0.05403 0.65694 0.56412 0.0
H3691 H 0.08254 0.65167 0.57726 0.0
H3692 H 0.07161 0.66252 0.63483 0.0
H3693 H 0.04287 0.66747 0.62203 0.0
C3694 C 0.98375 0.71831 0.59311 0.0
C3695 C 0.98426 0.72089 0.6132 0.0
C3696 C 0.99128 0.7054 0.58441 0.0
C3697 C 0.99876 0.69445 0.59553 0.0
C3698 C 0.9986 0.69628 0.6154 0.0
C3699 C 0.9913 0.70942 0.62421 0.0
C3700 C 1.00506 0.67974 0.58605 0.0
C3701 C 0.02251 0.67913 0.59148 0.0
C3702 C 0.99342 0.6658 0.57244 0.0
C3703 C 0.97459 0.66544 0.56781 0.0
C3704 C 0.96404 0.66457 0.58235 0.0
C3705 C 0.94666 0.66588 0.5784 0.0
C3706 C 0.93965 0.66784 0.55988 0.0
C3707 C 0.94999 0.66834 0.54526 0.0
C3708 C 0.96741 0.66709 0.54917 0.0
C3709 C 0.03128 0.61028 0.58349 0.0
C3710 C 0.03685 0.60438 0.56641 0.0
C3711 C 0.02237 0.62378 0.58411 0.0
C3712 C 0.02006 0.63222 0.56796 0.0
C3713 C 0.02409 0.62529 0.55029 0.0
C3714 C 0.03239 0.61104 0.54945 0.0
C3715 C 0.01639 0.64995 0.57106 0.0
C3716 C 0.99938 0.65119 0.56459 0.0
C3717 C 0.02836 0.66417 0.58424 0.0
C3718 C 0.04628 0.66263 0.59207 0.0
C3719 C 0.05771 0.65825 0.57958 0.0
C3720 C 0.0739 0.65525 0.58697 0.0
C3721 C 0.07889 0.65677 0.60687 0.0
C3722 C 0.06775 0.66139 0.61942 0.0
C3723 C 0.05152 0.66434 0.6121 0.0
H3724 H 0.09138 0.65436 0.61255 0.0
H3725 H 0.92621 0.66896 0.55686 0.0
H3726 H 0.60174 0.85549 0.91567 0.0
H3727 H 0.61813 0.85422 0.88853 0.0
H3728 H 0.62983 0.80443 0.90244 0.0
H3729 H 0.61373 0.80593 0.92966 0.0
H3730 H 0.65775 0.82919 0.89578 0.0
H3731 H 0.59574 0.8037 0.86897 0.0
H3732 H 0.56531 0.807 0.86255 0.0
H3733 H 0.58168 0.84937 0.82983 0.0
H3734 H 0.61229 0.84653 0.83637 0.0
H3735 H 0.66246 0.76589 0.81351 0.0
H3736 H 0.646 0.78007 0.83534 0.0
H3737 H 0.67045 0.83269 0.82347 0.0
H3738 H 0.68756 0.81883 0.80212 0.0
H3739 H 0.6266 0.81514 0.82823 0.0
H3740 H 0.68845 0.84474 0.8862 0.0
H3741 H 0.71506 0.83845 0.90314 0.0
H3742 H 0.69583 0.78182 0.88019 0.0
H3743 H 0.66862 0.78762 0.8643 0.0
C3744 C 0.60831 0.84461 0.91307 0.0
C3745 C 0.60702 0.83091 0.92452 0.0
C3746 C 0.61736 0.84381 0.89759 0.0
C3747 C 0.62486 0.82918 0.89359 0.0
C3748 C 0.62402 0.81582 0.90552 0.0
C3749 C 0.61508 0.8167 0.92103 0.0
C3750 C 0.63377 0.82737 0.87701 0.0
C3751 C 0.65117 0.82645 0.8809 0.0
C3752 C 0.6248 0.82389 0.85788 0.0
C3753 C 0.60631 0.82502 0.85329 0.0
C3754 C 0.59286 0.81377 0.86047 0.0
C3755 C 0.57558 0.81556 0.85682 0.0
C3756 C 0.57157 0.82842 0.84583 0.0
C3757 C 0.58481 0.83944 0.83837 0.0
C3758 C 0.60212 0.83774 0.84204 0.0
C3759 C 0.66428 0.78047 0.81547 0.0
C3760 C 0.67658 0.79129 0.8065 0.0
C3761 C 0.65489 0.7885 0.82786 0.0
C3762 C 0.65793 0.8074 0.83164 0.0
C3763 C 0.66878 0.81813 0.82132 0.0
C3764 C 0.67824 0.81014 0.80891 0.0
C3765 C 0.65047 0.81581 0.84718 0.0
C3766 C 0.63347 0.81842 0.84298 0.0
C3767 C 0.65956 0.82017 0.86638 0.0
C3768 C 0.67696 0.81681 0.87281 0.0
C3769 C 0.69011 0.831 0.88432 0.0
C3770 C 0.70513 0.82746 0.89414 0.0
C3771 C 0.70735 0.8098 0.89235 0.0
C3772 C 0.69434 0.79559 0.88108 0.0
C3773 C 0.67909 0.799 0.87159 0.0
H3774 H 0.71902 0.80709 0.89995 0.0
H3775 H 0.5582 0.82982 0.84306 0.0
H3776 H 0.46492 0.5759 0.75487 0.0
H3777 H 0.48249 0.57602 0.72884 0.0
H3778 H 0.43642 0.57247 0.68759 0.0
H3779 H 0.41872 0.57249 0.71375 0.0
H3780 H 0.45435 0.55018 0.67228 0.0
H3781 H 0.47127 0.61226 0.70144 0.0
H3782 H 0.48224 0.63869 0.72733 0.0
H3783 H 0.53131 0.62375 0.73866 0.0
H3784 H 0.52054 0.59705 0.713 0.0
H3785 H 0.49779 0.56471 0.59211 0.0
H3786 H 0.48217 0.56993 0.61915 0.0
H3787 H 0.52837 0.57087 0.65902 0.0
H3788 H 0.54413 0.56566 0.63168 0.0
H3789 H 0.51086 0.59504 0.6752 0.0
H3790 H 0.49329 0.53226 0.64708 0.0
H3791 H 0.48289 0.50679 0.62002 0.0
H3792 H 0.43532 0.52401 0.60627 0.0
H3793 H 0.44553 0.5497 0.63318 0.0
C3794 C 0.4584 0.5753 0.74032 0.0
C3795 C 0.44013 0.57429 0.73683 0.0
C3796 C 0.46864 0.57544 0.72523 0.0
C3797 C 0.46115 0.5744 0.70578 0.0
C3798 C 0.44287 0.57333 0.70222 0.0
C3799 C 0.43265 0.57345 0.71738 0.0
C3800 C 0.47218 0.574 0.68933 0.0
C3801 C 0.46655 0.56023 0.67298 0.0
C3802 C 0.48855 0.58667 0.6898 0.0
C3803 C 0.495 0.60252 0.70545 0.0
C3804 C 0.48433 0.61449 0.70959 0.0
C3805 C 0.49053 0.62955 0.72419 0.0
C3806 C 0.50744 0.63286 0.73468 0.0
C3807 C 0.5182 0.62114 0.73056 0.0
C3808 C 0.51205 0.60604 0.71598 0.0
C3809 C 0.50492 0.56666 0.60663 0.0
C3810 C 0.52257 0.56531 0.60941 0.0
C3811 C 0.49578 0.56937 0.62228 0.0
C3812 C 0.50371 0.57056 0.64159 0.0
C3813 C 0.52165 0.57006 0.64451 0.0
C3814 C 0.53083 0.56727 0.62874 0.0
C3815 C 0.49296 0.57127 0.65826 0.0
C3816 C 0.49865 0.58502 0.6746 0.0
C3817 C 0.47665 0.55862 0.65783 0.0
C3818 C 0.4702 0.54292 0.64205 0.0
C3819 C 0.48062 0.53062 0.63826 0.0
C3820 C 0.47476 0.51615 0.62295 0.0
C3821 C 0.45846 0.51379 0.61142 0.0
C3822 C 0.44794 0.52585 0.61523 0.0
C3823 C 0.45373 0.54034 0.63053 0.0
H3824 H 0.45396 0.50261 0.59955 0.0
H3825 H 0.51223 0.64454 0.74596 0.0
H3826 H 0.80591 0.24108 0.99392 0.0
H3827 H 0.7995 0.2509 0.96298 0.0
H3828 H 0.84689 0.23888 0.94671 0.0
H3829 H 0.85344 0.22897 0.97787 0.0
H3830 H 0.84387 0.26994 0.93637 0.0
H3831 H 0.8075 0.21163 0.92556 0.0
H3832 H 0.78588 0.18426 0.92939 0.0
H3833 H 0.74545 0.21354 0.92757 0.0
H3834 H 0.7669 0.24118 0.92396 0.0
H3835 H 0.81373 0.26842 0.83561 0.0
H3836 H 0.82037 0.25754 0.86588 0.0
H3837 H 0.78966 0.29039 0.8929 0.0
H3838 H 0.78326 0.3019 0.86246 0.0
H3839 H 0.78483 0.2476 0.89617 0.0
H3840 H 0.82713 0.30719 0.9064 0.0
H3841 H 0.84993 0.32888 0.89484 0.0
H3842 H 0.88106 0.28966 0.89064 0.0
H3843 H 0.85828 0.26761 0.90185 0.0
C3844 C 0.81507 0.24059 0.98385 0.0
C3845 C 0.83027 0.23429 0.98849 0.0
C3846 C 0.81128 0.24608 0.96603 0.0
C3847 C 0.82256 0.24545 0.95232 0.0
C3848 C 0.83793 0.23947 0.95699 0.0
C3849 C 0.84168 0.23383 0.97484 0.0
C3850 C 0.81838 0.2515 0.93341 0.0
C3851 C 0.83097 0.26492 0.92761 0.0
C3852 C 0.80168 0.24483 0.92158 0.0
C3853 C 0.78889 0.22857 0.92482 0.0
C3854 C 0.79407 0.21233 0.92631 0.0
C3855 C 0.78183 0.19673 0.92833 0.0
C3856 C 0.76432 0.19718 0.92881 0.0
C3857 C 0.75903 0.21323 0.92726 0.0
C3858 C 0.77123 0.22887 0.92523 0.0
C3859 C 0.80822 0.27328 0.84791 0.0
C3860 C 0.7978 0.28592 0.84659 0.0
C3861 C 0.81212 0.26707 0.86522 0.0
C3862 C 0.80548 0.27311 0.88157 0.0
C3863 C 0.79487 0.28556 0.88036 0.0
C3864 C 0.79126 0.29214 0.86304 0.0
C3865 C 0.80997 0.2665 0.89991 0.0
C3866 C 0.79755 0.25277 0.9053 0.0
C3867 C 0.82702 0.27229 0.91088 0.0
C3868 C 0.84099 0.28575 0.90487 0.0
C3869 C 0.83881 0.30317 0.90292 0.0
C3870 C 0.85171 0.31552 0.89642 0.0
C3871 C 0.86691 0.31062 0.89194 0.0
C3872 C 0.86927 0.29341 0.89406 0.0
C3873 C 0.85638 0.281 0.90053 0.0
H3874 H 0.87687 0.32018 0.88685 0.0
H3875 H 0.75485 0.18507 0.93031 0.0
H3876 H 0.10823 0.47753 0.24457 0.0
H3877 H 0.0943 0.48441 0.2144 0.0
H3878 H 0.09917 0.53926 0.2422 0.0
H3879 H 0.1114 0.53181 0.27256 0.0
H3880 H 0.07248 0.53303 0.21991 0.0
H3881 H 0.1278 0.52303 0.20802 0.0
H3882 H 0.15135 0.50684 0.20584 0.0
H3883 H 0.11626 0.46409 0.16442 0.0
H3884 H 0.09244 0.47993 0.16656 0.0
H3885 H 0.07643 0.57512 0.13545 0.0
H3886 H 0.08221 0.56359 0.16559 0.0
H3887 H 0.05708 0.50923 0.13672 0.0
H3888 H 0.05102 0.52086 0.10631 0.0
H3889 H 0.09119 0.51311 0.15824 0.0
H3890 H 0.03732 0.53005 0.16936 0.0
H3891 H 0.01787 0.55102 0.17214 0.0
H3892 H 0.05675 0.58755 0.21599 0.0
H3893 H 0.07652 0.56693 0.2133 0.0
C3894 C 0.10601 0.49095 0.24426 0.0
C3895 C 0.11079 0.50404 0.26107 0.0
C3896 C 0.09828 0.49502 0.22685 0.0
C3897 C 0.09595 0.5126 0.2255 0.0
C3898 C 0.10058 0.52556 0.24249 0.0
C3899 C 0.10765 0.52128 0.25999 0.0
C3900 C 0.08887 0.51768 0.20663 0.0
C3901 C 0.07685 0.52876 0.20656 0.0
C3902 C 0.09412 0.51216 0.1888 0.0
C3903 C 0.10831 0.50252 0.18765 0.0
C3904 C 0.12509 0.5101 0.19857 0.0
C3905 C 0.13848 0.501 0.19732 0.0
C3906 C 0.13529 0.48441 0.18505 0.0
C3907 C 0.1187 0.47691 0.17396 0.0
C3908 C 0.10525 0.48594 0.17519 0.0
C3909 C 0.07187 0.56072 0.13554 0.0
C3910 C 0.06327 0.54892 0.11844 0.0
C3911 C 0.07515 0.55414 0.15285 0.0
C3912 C 0.07004 0.53552 0.15359 0.0
C3913 C 0.06112 0.52367 0.1366 0.0
C3914 C 0.05758 0.53032 0.11923 0.0
C3915 C 0.07516 0.52853 0.17178 0.0
C3916 C 0.08682 0.51716 0.17167 0.0
C3917 C 0.07027 0.53453 0.18958 0.0
C3918 C 0.05843 0.54699 0.19103 0.0
C3919 C 0.04178 0.54263 0.17947 0.0
C3920 C 0.03068 0.55444 0.18106 0.0
C3921 C 0.03608 0.57062 0.19421 0.0
C3922 C 0.05258 0.57502 0.20581 0.0
C3923 C 0.06373 0.56327 0.20427 0.0
H3924 H 0.02745 0.57973 0.19544 0.0
H3925 H 0.14568 0.47739 0.18409 0.0
H3926 H 0.83096 0.93423 0.54409 0.0
H3927 H 0.82005 0.91651 0.51185 0.0
H3928 H 0.76709 0.91891 0.51849 0.0
H3929 H 0.77809 0.93735 0.55056 0.0
H3930 H 0.77795 0.8828 0.51524 0.0
H3931 H 0.77684 0.93461 0.48346 0.0
H3932 H 0.78949 0.96501 0.47635 0.0
H3933 H 0.83161 0.94591 0.45493 0.0
H3934 H 0.81934 0.91544 0.46213 0.0
H3935 H 0.75683 0.83261 0.41187 0.0
H3936 H 0.75484 0.85402 0.43995 0.0
H3937 H 0.80845 0.85637 0.46374 0.0
H3938 H 0.81049 0.83497 0.43614 0.0
H3939 H 0.79001 0.89086 0.44949 0.0
H3940 H 0.80069 0.84812 0.49424 0.0
H3941 H 0.7938 0.81788 0.50391 0.0
H3942 H 0.73996 0.82022 0.50314 0.0
H3943 H 0.74654 0.85037 0.49302 0.0
C3944 C 0.81708 0.93141 0.53836 0.0
C3945 C 0.80525 0.93679 0.54958 0.0
C3946 C 0.81091 0.9215 0.52 0.0
C3947 C 0.79284 0.91658 0.51302 0.0
C3948 C 0.7811 0.92287 0.52375 0.0
C3949 C 0.78735 0.93326 0.54194 0.0
C3950 C 0.78631 0.90204 0.49655 0.0
C3951 C 0.77996 0.88459 0.50067 0.0
C3952 C 0.78983 0.90451 0.47795 0.0
C3953 C 0.79717 0.92275 0.47337 0.0
C3954 C 0.78885 0.93692 0.47733 0.0
C3955 C 0.79594 0.95415 0.47326 0.0
C3956 C 0.81135 0.95739 0.4652 0.0
C3957 C 0.81967 0.94337 0.46115 0.0
C3958 C 0.81262 0.92611 0.46518 0.0
C3959 C 0.76792 0.83721 0.42349 0.0
C3960 C 0.78377 0.83215 0.42203 0.0
C3961 C 0.76677 0.84937 0.43938 0.0
C3962 C 0.78146 0.85644 0.45376 0.0
C3963 C 0.79691 0.85062 0.45287 0.0
C3964 C 0.79802 0.83836 0.43717 0.0
C3965 C 0.78169 0.87179 0.46829 0.0
C3966 C 0.78714 0.88923 0.46382 0.0
C3967 C 0.7781 0.86937 0.48681 0.0
C3968 C 0.774 0.85123 0.4925 0.0
C3969 C 0.78733 0.84203 0.49582 0.0
C3970 C 0.78351 0.82496 0.50144 0.0
C3971 C 0.76643 0.81708 0.50403 0.0
C3972 C 0.75316 0.82629 0.50102 0.0
C3973 C 0.75692 0.84334 0.49529 0.0
H3974 H 0.76349 0.80389 0.50846 0.0
H3975 H 0.81682 0.97075 0.46208 0.0
H3976 H 0.46981 0.54817 0.83609 0.0
H3977 H 0.48521 0.54822 0.86828 0.0
H3978 H 0.45602 0.58416 0.89288 0.0
H3979 H 0.44098 0.58464 0.86046 0.0
H3980 H 0.48731 0.59355 0.91297 0.0
H3981 H 0.44626 0.53638 0.89441 0.0
H3982 H 0.43109 0.50754 0.87325 0.0
H3983 H 0.4796 0.49087 0.87592 0.0
H3984 H 0.49511 0.51974 0.89692 0.0
H3985 H 0.50849 0.57622 0.0092 0.0
H3986 H 0.49355 0.57843 0.97752 0.0
H3987 H 0.52268 0.54385 0.95031 0.0
H3988 H 0.53717 0.54103 0.98205 0.0
H3989 H 0.49064 0.53424 0.9321 0.0
H3990 H 0.53133 0.59408 0.95092 0.0
H3991 H 0.54409 0.62237 0.97411 0.0
H3992 H 0.49295 0.63291 0.97338 0.0
H3993 H 0.47992 0.6048 0.95004 0.0
C3994 C 0.46669 0.55621 0.84829 0.0
C3995 C 0.45397 0.56633 0.84545 0.0
C3996 C 0.47548 0.55612 0.86688 0.0
C3997 C 0.47166 0.56585 0.88345 0.0
C3998 C 0.45932 0.57642 0.88059 0.0
C3999 C 0.45064 0.57666 0.86192 0.0
C4000 C 0.48021 0.56461 0.90359 0.0
C4001 C 0.48785 0.58051 0.91709 0.0
C4002 C 0.48114 0.54775 0.90947 0.0
C4003 C 0.47186 0.53027 0.89709 0.0
C4004 C 0.4537 0.52659 0.89041 0.0
C4005 C 0.44505 0.51025 0.87845 0.0
C4006 C 0.45438 0.4974 0.87321 0.0
C4007 C 0.47239 0.50085 0.87998 0.0
C4008 C 0.48112 0.51719 0.89193 0.0
C4009 C 0.51183 0.56911 0.99651 0.0
C4010 C 0.52421 0.55849 0.99843 0.0
C4011 C 0.5033 0.57051 0.97822 0.0
C4012 C 0.50708 0.56164 0.9611 0.0
C4013 C 0.51941 0.55095 0.96304 0.0
C4014 C 0.52781 0.5494 0.98134 0.0
C4015 C 0.49806 0.56315 0.94131 0.0
C4016 C 0.49024 0.54727 0.92789 0.0
C4017 C 0.49669 0.58 0.93566 0.0
C4018 C 0.50466 0.59736 0.9488 0.0
C4019 C 0.52284 0.60249 0.95565 0.0
C4020 C 0.5301 0.61846 0.96882 0.0
C4021 C 0.5193 0.62935 0.97525 0.0
C4022 C 0.50126 0.6244 0.96842 0.0
C4023 C 0.49395 0.60855 0.9551 0.0
H4024 H 0.52491 0.64172 0.98537 0.0
H4025 H 0.44766 0.48476 0.86393 0.0
H4026 H 0.83546 0.20443 0.10733 0.0
H4027 H 0.82745 0.21791 0.13716 0.0
H4028 H 0.84416 0.27113 0.12238 0.0
H4029 H 0.85144 0.2576 0.09189 0.0
H4030 H 0.85511 0.25766 0.16672 0.0
H4031 H 0.80978 0.26611 0.11564 0.0
H4032 H 0.78685 0.25372 0.08712 0.0
H4033 H 0.75948 0.21518 0.11849 0.0
H4034 H 0.78255 0.22704 0.14704 0.0
H4035 H 0.82663 0.30842 0.24257 0.0
H4036 H 0.83626 0.29721 0.21273 0.0
H4037 H 0.78872 0.25425 0.19875 0.0
H4038 H 0.77861 0.26648 0.22763 0.0
H4039 H 0.79371 0.2623 0.16793 0.0
H4040 H 0.83394 0.24981 0.21704 0.0
H4041 H 0.85595 0.25569 0.24656 0.0
H4042 H 0.89149 0.29353 0.22153 0.0
H4043 H 0.86959 0.28806 0.19196 0.0
C4044 C 0.8377 0.21905 0.11054 0.0
C4045 C 0.84432 0.22997 0.09731 0.0
C4046 C 0.83299 0.22671 0.12756 0.0
C4047 C 0.83514 0.24552 0.13202 0.0
C4048 C 0.84231 0.25657 0.1192 0.0
C4049 C 0.84654 0.24884 0.10183 0.0
C4050 C 0.82955 0.25349 0.14989 0.0
C4051 C 0.84178 0.25902 0.16698 0.0
C4052 C 0.81193 0.25428 0.15051 0.0
C4053 C 0.79806 0.24727 0.13336 0.0
C4054 C 0.79904 0.25481 0.11636 0.0
C4055 C 0.78598 0.24791 0.1002 0.0
C4056 C 0.77175 0.23361 0.10096 0.0
C4057 C 0.77054 0.22621 0.11789 0.0
C4058 C 0.78361 0.233 0.13405 0.0
C4059 C 0.81824 0.29669 0.23297 0.0
C4060 C 0.80179 0.28848 0.2373 0.0
C4061 C 0.82383 0.29006 0.21597 0.0
C4062 C 0.81346 0.27453 0.20329 0.0
C4063 C 0.79707 0.26628 0.20792 0.0
C4064 C 0.79126 0.27325 0.22454 0.0
C4065 C 0.81939 0.26701 0.18515 0.0
C4066 C 0.80716 0.26127 0.16792 0.0
C4067 C 0.83688 0.2653 0.18462 0.0
C4068 C 0.85006 0.26868 0.20238 0.0
C4069 C 0.8464 0.25949 0.2179 0.0
C4070 C 0.85887 0.26273 0.23462 0.0
C4071 C 0.87509 0.27501 0.23593 0.0
C4072 C 0.87891 0.28405 0.2205 0.0
C4073 C 0.86648 0.28088 0.20375 0.0
H4074 H 0.88473 0.2775 0.24889 0.0
H4075 H 0.76164 0.22832 0.08845 0.0
H4076 H 0.1024 0.49092 0.37303 0.0
H4077 H 0.09132 0.49719 0.40348 0.0
H4078 H 0.1052 0.55445 0.40129 0.0
H4079 H 0.11573 0.54829 0.3707 0.0
H4080 H 0.11612 0.54395 0.43884 0.0
H4081 H 0.06563 0.53659 0.38997 0.0
H4082 H 0.04423 0.5204 0.36127 0.0
H4083 H 0.02813 0.47562 0.39097 0.0
H4084 H 0.04968 0.49144 0.41977 0.0
H4085 H 0.07521 0.57736 0.5136 0.0
H4086 H 0.08513 0.57094 0.48272 0.0
H4087 H 0.05409 0.51574 0.47483 0.0
H4088 H 0.04293 0.52283 0.50493 0.0
H4089 H 0.05258 0.52447 0.44225 0.0
H4090 H 0.10318 0.53111 0.49127 0.0
H4091 H 0.12425 0.54733 0.52024 0.0
H4092 H 0.13989 0.59269 0.49131 0.0
H4093 H 0.11912 0.57667 0.46202 0.0
C4094 C 0.10301 0.50483 0.379 0.0
C4095 C 0.10981 0.51907 0.36932 0.0
C4096 C 0.09671 0.5084 0.39642 0.0
C4097 C 0.09747 0.52631 0.40471 0.0
C4098 C 0.10452 0.54054 0.39523 0.0
C4099 C 0.11042 0.53696 0.37764 0.0
C4100 C 0.09053 0.53025 0.42301 0.0
C4101 C 0.10222 0.53978 0.4396 0.0
C4102 C 0.07246 0.52457 0.42413 0.0
C4103 C 0.05941 0.51509 0.40692 0.0
C4104 C 0.05765 0.52321 0.39031 0.0
C4105 C 0.04547 0.51412 0.37404 0.0
C4106 C 0.03486 0.49697 0.37427 0.0
C4107 C 0.03638 0.48889 0.3908 0.0
C4108 C 0.04857 0.49792 0.40711 0.0
C4109 C 0.07041 0.56393 0.5051 0.0
C4110 C 0.05832 0.55059 0.51154 0.0
C4111 C 0.07627 0.56014 0.48755 0.0
C4112 C 0.07093 0.54261 0.47652 0.0
C4113 C 0.05857 0.52935 0.48294 0.0
C4114 C 0.05218 0.53337 0.50015 0.0
C4115 C 0.07817 0.53809 0.4584 0.0
C4116 C 0.06653 0.52848 0.44173 0.0
C4117 C 0.09636 0.54351 0.45729 0.0
C4118 C 0.10962 0.55269 0.47446 0.0
C4119 C 0.11125 0.54448 0.49102 0.0
C4120 C 0.12318 0.55362 0.50748 0.0
C4121 C 0.1336 0.57093 0.50751 0.0
C4122 C 0.13207 0.57915 0.49111 0.0
C4123 C 0.12028 0.57003 0.47456 0.0
H4124 H 0.14279 0.57804 0.52025 0.0
H4125 H 0.02544 0.48995 0.36166 0.0
H4126 H 0.81184 0.9533 0.67848 0.0
H4127 H 0.80417 0.93058 0.69938 0.0
H4128 H 0.78904 0.88834 0.64957 0.0
H4129 H 0.79636 0.91074 0.62872 0.0
H4130 H 0.76596 0.88321 0.67406 0.0
H4131 H 0.82888 0.89629 0.67707 0.0
H4132 H 0.85895 0.91587 0.68286 0.0
H4133 H 0.85419 0.93248 0.74178 0.0
H4134 H 0.82398 0.91318 0.73625 0.0
H4135 H 0.78795 0.80806 0.72155 0.0
H4136 H 0.78818 0.83116 0.70025 0.0
H4137 H 0.77776 0.86793 0.74622 0.0
H4138 H 0.77673 0.84497 0.76705 0.0
H4139 H 0.81232 0.87627 0.72476 0.0
H4140 H 0.74901 0.86258 0.72125 0.0
H4141 H 0.71934 0.84219 0.715 0.0
H4142 H 0.7253 0.82613 0.65637 0.0
H4143 H 0.75523 0.84611 0.66245 0.0
C4144 C 0.80677 0.93919 0.67202 0.0
C4145 C 0.80487 0.9338 0.652 0.0
C4146 C 0.80243 0.92625 0.68394 0.0
C4147 C 0.79619 0.9078 0.67598 0.0
C4148 C 0.79382 0.90251 0.65598 0.0
C4149 C 0.79815 0.91536 0.64411 0.0
C4150 C 0.79277 0.89375 0.68836 0.0
C4151 C 0.77612 0.88165 0.68509 0.0
C4152 C 0.80599 0.89185 0.70284 0.0
C4153 C 0.82412 0.90348 0.70619 0.0
C4154 C 0.8342 0.90425 0.69121 0.0
C4155 C 0.85127 0.91527 0.69445 0.0
C4156 C 0.85845 0.92546 0.71266 0.0
C4157 C 0.84859 0.92461 0.72768 0.0
C4158 C 0.8315 0.91363 0.7245 0.0
C4159 C 0.7852 0.82089 0.72679 0.0
C4160 C 0.78209 0.82469 0.74573 0.0
C4161 C 0.78535 0.834 0.71473 0.0
C4162 C 0.78283 0.85106 0.72176 0.0
C4163 C 0.77944 0.85471 0.74054 0.0
C4164 C 0.7788 0.84154 0.75235 0.0
C4165 C 0.78561 0.86582 0.71035 0.0
C4166 C 0.80217 0.87797 0.71381 0.0
C4167 C 0.77235 0.86774 0.69604 0.0
C4168 C 0.75448 0.85555 0.69241 0.0
C4169 C 0.74413 0.85444 0.70713 0.0
C4170 C 0.72723 0.84302 0.7036 0.0
C4171 C 0.72047 0.83279 0.68533 0.0
C4172 C 0.73059 0.834 0.67054 0.0
C4173 C 0.74753 0.84535 0.67403 0.0
H4174 H 0.70736 0.824 0.6826 0.0
H4175 H 0.87168 0.93397 0.71514 0.0
H4176 H 0.70973 0.47315 0.58836 0.0
H4177 H 0.6889 0.4923 0.58878 0.0
H4178 H 0.64814 0.44765 0.55594 0.0
H4179 H 0.66955 0.42902 0.55407 0.0
H4180 H 0.64151 0.47404 0.54417 0.0
H4181 H 0.65356 0.46564 0.60942 0.0
H4182 H 0.67157 0.46539 0.64045 0.0
H4183 H 0.69299 0.5228 0.64627 0.0
H4184 H 0.67524 0.52334 0.61515 0.0
H4185 H 0.5706 0.50933 0.56998 0.0
H4186 H 0.59325 0.49257 0.56974 0.0
H4187 H 0.63326 0.54267 0.58217 0.0
H4188 H 0.61036 0.55992 0.58208 0.0
H4189 H 0.64023 0.51466 0.60413 0.0
H4190 H 0.6238 0.52038 0.53714 0.0
H4191 H 0.60261 0.51743 0.50749 0.0
H4192 H 0.58486 0.4603 0.5076 0.0
H4193 H 0.60586 0.46292 0.53734 0.0
C4194 C 0.69632 0.46739 0.58124 0.0
C4195 C 0.69133 0.44944 0.57132 0.0
C4196 C 0.68424 0.47835 0.58166 0.0
C4197 C 0.66652 0.4715 0.57295 0.0
C4198 C 0.66158 0.45352 0.56291 0.0
C4199 C 0.67385 0.44274 0.56191 0.0
C4200 C 0.65331 0.48308 0.57403 0.0
C4201 C 0.64122 0.48267 0.55744 0.0
C4202 C 0.65263 0.49471 0.59115 0.0
C4203 C 0.66323 0.49449 0.60989 0.0
C4204 C 0.66219 0.47818 0.61728 0.0
C4205 C 0.67234 0.478 0.63488 0.0
C4206 C 0.68345 0.49406 0.64529 0.0
C4207 C 0.68439 0.51036 0.63817 0.0
C4208 C 0.67428 0.51063 0.62056 0.0
C4209 C 0.58418 0.517 0.57287 0.0
C4210 C 0.5885 0.53618 0.57609 0.0
C4211 C 0.59718 0.50725 0.57259 0.0
C4212 C 0.61503 0.51625 0.57564 0.0
C4213 C 0.61957 0.53537 0.57967 0.0
C4214 C 0.60645 0.54524 0.57974 0.0
C4215 C 0.6287 0.50549 0.57439 0.0
C4216 C 0.64075 0.50603 0.59093 0.0
C4217 C 0.62887 0.49346 0.55747 0.0
C4218 C 0.61633 0.49188 0.53953 0.0
C4219 C 0.6153 0.50722 0.53091 0.0
C4220 C 0.60334 0.5056 0.51407 0.0
C4221 C 0.59237 0.48871 0.50569 0.0
C4222 C 0.59337 0.47338 0.5141 0.0
C4223 C 0.60532 0.47491 0.53093 0.0
H4224 H 0.58312 0.4875 0.49266 0.0
H4225 H 0.69131 0.49388 0.65891 0.0
H4226 H 0.21813 0.08328 0.47432 0.0
H4227 H 0.18939 0.07434 0.48491 0.0
H4228 H 0.19287 0.13022 0.5075 0.0
H4229 H 0.22091 0.13933 0.49641 0.0
H4230 H 0.18547 0.09983 0.53342 0.0
H4231 H 0.16705 0.12194 0.47487 0.0
H4232 H 0.16638 0.12288 0.44015 0.0
H4233 H 0.14223 0.06578 0.42714 0.0
H4234 H 0.14306 0.06448 0.4619 0.0
H4235 H 0.10471 0.10668 0.56061 0.0
H4236 H 0.13214 0.11099 0.5476 0.0
H4237 H 0.11139 0.06102 0.5075 0.0
H4238 H 0.08341 0.05723 0.51981 0.0
H4239 H 0.12811 0.08533 0.48985 0.0
H4240 H 0.14203 0.06561 0.55032 0.0
H4241 H 0.14378 0.06628 0.58533 0.0
H4242 H 0.1777 0.11991 0.59572 0.0
H4243 H 0.1757 0.11978 0.5607 0.0
C4244 C 0.21254 0.09364 0.48118 0.0
C4245 C 0.22159 0.11199 0.48424 0.0
C4246 C 0.19627 0.08853 0.48731 0.0
C4247 C 0.1892 0.10168 0.49698 0.0
C4248 C 0.19818 0.11995 0.50001 0.0
C4249 C 0.21411 0.1251 0.49347 0.0
C4250 C 0.17245 0.09656 0.5042 0.0
C4251 C 0.17287 0.09665 0.524 0.0
C4252 C 0.15621 0.0923 0.49176 0.0
C4253 C 0.15531 0.09307 0.47092 0.0
C4254 C 0.16175 0.10956 0.4646 0.0
C4255 C 0.16132 0.11017 0.44493 0.0
C4256 C 0.15432 0.09438 0.43144 0.0
C4257 C 0.14768 0.07798 0.43761 0.0
C4258 C 0.14812 0.0773 0.45729 0.0
C4259 C 0.10602 0.09658 0.54906 0.0
C4260 C 0.09203 0.08156 0.5413 0.0
C4261 C 0.12175 0.09899 0.54171 0.0
C4262 C 0.12401 0.0861 0.52687 0.0
C4263 C 0.10999 0.07108 0.51903 0.0
C4264 C 0.09407 0.06888 0.52612 0.0
C4265 C 0.1409 0.08859 0.51934 0.0
C4266 C 0.14059 0.08811 0.4994 0.0
C4267 C 0.15731 0.09265 0.53177 0.0
C4268 C 0.15864 0.0927 0.55286 0.0
C4269 C 0.14977 0.07759 0.56006 0.0
C4270 C 0.15082 0.07788 0.57993 0.0
C4271 C 0.16092 0.09311 0.59277 0.0
C4272 C 0.16991 0.10811 0.58576 0.0
C4273 C 0.1688 0.10795 0.5659 0.0
H4274 H 0.16183 0.09329 0.60816 0.0
H4275 H 0.15401 0.09487 0.41621 0.0
H4276 H 0.18658 0.96759 0.80525 0.0
H4277 H 0.19601 0.93922 0.8015 0.0
H4278 H 0.24107 0.96555 0.77848 0.0
H4279 H 0.23054 0.99337 0.78051 0.0
H4280 H 0.23629 0.93579 0.76172 0.0
H4281 H 0.23437 0.94704 0.83138 0.0
H4282 H 0.22011 0.95066 0.86019 0.0
H4283 H 0.18296 0.89954 0.83939 0.0
H4284 H 0.19684 0.89575 0.8104 0.0
H4285 H 0.28616 0.86826 0.77399 0.0
H4286 H 0.27393 0.89511 0.77643 0.0
H4287 H 0.22506 0.86258 0.78634 0.0
H4288 H 0.23722 0.83564 0.78362 0.0
H4289 H 0.23043 0.89367 0.80918 0.0
H4290 H 0.23074 0.88041 0.74258 0.0
H4291 H 0.24185 0.87417 0.71211 0.0
H4292 H 0.27848 0.92631 0.725 0.0
H4293 H 0.26779 0.93276 0.75575 0.0
C4294 C 0.19858 0.96747 0.79945 0.0
C4295 C 0.20771 0.98338 0.79342 0.0
C4296 C 0.20429 0.95095 0.79753 0.0
C4297 C 0.21997 0.94945 0.79027 0.0
C4298 C 0.22902 0.96547 0.78421 0.0
C4299 C 0.22297 0.98178 0.78552 0.0
C4300 C 0.22678 0.93161 0.78835 0.0
C4301 C 0.23526 0.92705 0.77258 0.0
C4302 C 0.22498 0.91869 0.80143 0.0
C4303 C 0.2165 0.92125 0.81864 0.0
C4304 C 0.22308 0.93666 0.83291 0.0
C4305 C 0.21507 0.93873 0.84927 0.0
C4306 C 0.2006 0.92538 0.85159 0.0
C4307 C 0.19412 0.90991 0.83756 0.0
C4308 C 0.20204 0.90781 0.82117 0.0
C4309 C 0.27273 0.86664 0.7765 0.0
C4310 C 0.26283 0.84925 0.77831 0.0
C4311 C 0.26559 0.88224 0.77787 0.0
C4312 C 0.24821 0.88148 0.78141 0.0
C4313 C 0.2384 0.86414 0.78353 0.0
C4314 C 0.24544 0.84846 0.78184 0.0
C4315 C 0.24047 0.89856 0.78312 0.0
C4316 C 0.23171 0.90277 0.79865 0.0
C4317 C 0.24174 0.91099 0.7697 0.0
C4318 C 0.24863 0.90696 0.75159 0.0
C4319 C 0.24133 0.89045 0.73905 0.0
C4320 C 0.24752 0.8869 0.7217 0.0
C4321 C 0.26091 0.89981 0.71665 0.0
C4322 C 0.26815 0.9163 0.72896 0.0
C4323 C 0.26204 0.91991 0.74636 0.0
H4324 H 0.26564 0.89706 0.70318 0.0
H4325 H 0.19444 0.92699 0.86427 0.0
H4326 H 0.27503 0.96072 0.03276 0.0
H4327 H 0.30639 0.97641 0.03734 0.0
H4328 H 0.31853 0.94104 0.07704 0.0
H4329 H 0.28741 0.92511 0.07207 0.0
H4330 H 0.33711 0.97786 0.08917 0.0
H4331 H 0.32666 0.93039 0.03697 0.0
H4332 H 0.31175 0.91056 0.00649 0.0
H4333 H 0.32289 0.95558 0.97593 0.0
H4334 H 0.3376 0.97579 0.00634 0.0
H4335 H 0.42989 0.9983 0.07924 0.0
H4336 H 0.39978 0.98211 0.08107 0.0
H4337 H 0.37941 0.0132 0.04105 0.0
H4338 H 0.40924 0.02915 0.03892 0.0
H4339 H 0.36589 0.97549 0.03096 0.0
H4340 H 0.37784 0.0224 0.08816 0.0
H4341 H 0.3937 0.03817 0.12021 0.0
H4342 H 0.38156 0.98841 0.14301 0.0
H4343 H 0.36588 0.97227 0.11101 0.0
C4344 C 0.28442 0.95657 0.04267 0.0
C4345 C 0.27901 0.9418 0.05206 0.0
C4346 C 0.30225 0.96543 0.04524 0.0
C4347 C 0.31472 0.95978 0.05748 0.0
C4348 C 0.30911 0.9456 0.06759 0.0
C4349 C 0.29141 0.93652 0.0647 0.0
C4350 C 0.3337 0.9679 0.05876 0.0
C4351 C 0.34349 0.97725 0.0765 0.0
C4352 C 0.34203 0.96664 0.04233 0.0
C4353 C 0.33301 0.95467 0.02399 0.0
C4354 C 0.32573 0.93613 0.0238 0.0
C4355 C 0.31736 0.9248 0.00653 0.0
C4356 C 0.31632 0.93182 0.98929 0.0
C4357 C 0.32367 0.95018 0.98931 0.0
C4358 C 0.33202 0.96158 0.00656 0.0
C4359 C 0.41897 1.0017 0.07089 0.0
C4360 C 0.42196 0.01505 0.05896 0.0
C4361 C 0.40181 0.99253 0.07204 0.0
C4362 C 0.3874 0.99652 0.06123 0.0
C4363 C 0.39036 0.00995 0.04953 0.0
C4364 C 0.40743 0.01916 0.04845 0.0
C4365 C 0.36918 0.98626 0.06119 0.0
C4366 C 0.35954 0.97621 0.04364 0.0
C4367 C 0.36122 0.98636 0.07798 0.0
C4368 C 0.37087 0.99608 0.09712 0.0
C4369 C 0.37873 0.01477 0.09994 0.0
C4370 C 0.38765 0.02379 0.11812 0.0
C4371 C 0.38868 0.01429 0.13362 0.0
C4372 C 0.38079 0.99575 0.13098 0.0
C4373 C 0.37189 0.98667 0.11284 0.0
H4374 H 0.39556 0.02131 0.14769 0.0
H4375 H 0.30986 0.92302 0.97592 0.0
H4376 H 0.90521 0.66941 0.76003 0.0
H4377 H 0.88592 0.69055 0.75861 0.0
H4378 H 0.87457 0.68244 0.81513 0.0
H4379 H 0.89472 0.66227 0.81714 0.0
H4380 H 0.84455 0.67644 0.77558 0.0
H4381 H 0.89229 0.71465 0.82127 0.0
H4382 H 0.92077 0.73458 0.8368 0.0
H4383 H 0.91694 0.76993 0.79503 0.0
H4384 H 0.88969 0.74884 0.77761 0.0
H4385 H 0.7891 0.73916 0.78932 0.0
H4386 H 0.80706 0.71696 0.7893 0.0
H4387 H 0.84466 0.75085 0.76247 0.0
H4388 H 0.82746 0.77376 0.76385 0.0
H4389 H 0.86161 0.74348 0.79003 0.0
H4390 H 0.81302 0.7031 0.74348 0.0
H4391 H 0.7822 0.68581 0.73306 0.0
H4392 H 0.78555 0.65777 0.78158 0.0
H4393 H 0.81624 0.67509 0.79246 0.0
C4394 C 0.89889 0.67245 0.77232 0.0
C4395 C 0.9017 0.66436 0.78883 0.0
C4396 C 0.8879 0.68456 0.7715 0.0
C4397 C 0.87908 0.68845 0.78694 0.0
C4398 C 0.88157 0.68005 0.80324 0.0
C4399 C 0.89308 0.66851 0.80438 0.0
C4400 C 0.86606 0.69987 0.78527 0.0
C4401 C 0.84829 0.69114 0.77867 0.0
C4402 C 0.87089 0.71908 0.78937 0.0
C4403 C 0.88902 0.72973 0.79773 0.0
C4404 C 0.89798 0.72597 0.81461 0.0
C4405 C 0.91398 0.73756 0.8238 0.0
C4406 C 0.92084 0.75336 0.81672 0.0
C4407 C 0.91189 0.75744 0.80022 0.0
C4408 C 0.89635 0.74548 0.79046 0.0
C4409 C 0.80103 0.74166 0.78304 0.0
C4410 C 0.80686 0.75813 0.77646 0.0
C4411 C 0.81137 0.72893 0.78312 0.0
C4412 C 0.82753 0.73214 0.77627 0.0
C4413 C 0.83257 0.74811 0.76839 0.0
C4414 C 0.8226 0.76111 0.7689 0.0
C4415 C 0.84018 0.72023 0.77904 0.0
C4416 C 0.8579 0.72881 0.78622 0.0
C4417 C 0.8353 0.70095 0.7756 0.0
C4418 C 0.81689 0.69048 0.76883 0.0
C4419 C 0.80715 0.69331 0.75196 0.0
C4420 C 0.7897 0.68351 0.74598 0.0
C4421 C 0.78192 0.67072 0.75666 0.0
C4422 C 0.79159 0.66766 0.7733 0.0
C4423 C 0.809 0.67746 0.77937 0.0
H4424 H 0.76841 0.66316 0.75201 0.0
H4425 H 0.93299 0.76256 0.82415 0.0
H4426 H 0.81117 0.597 0.03197 0.0
H4427 H 0.84025 0.59755 0.04849 0.0
H4428 H 0.86396 0.63191 0.01054 0.0
H4429 H 0.83472 0.63158 0.99386 0.0
H4430 H 0.87864 0.60336 0.01478 0.0
H4431 H 0.8652 0.6505 0.05534 0.0
H4432 H 0.84749 0.66584 0.0749 0.0
H4433 H 0.84695 0.62701 0.11354 0.0
H4434 H 0.86439 0.61121 0.09402 0.0
H4435 H 0.95961 0.60393 0.06284 0.0
H4436 H 0.93643 0.61929 0.05482 0.0
H4437 H 0.90286 0.58553 0.08614 0.0
H4438 H 0.92651 0.57074 0.09513 0.0
H4439 H 0.89571 0.62011 0.08589 0.0
H4440 H 0.90333 0.56996 0.04052 0.0
H4441 H 0.92104 0.55463 0.0209 0.0
H4442 H 0.93213 0.60021 0.99108 0.0
H4443 H 0.91468 0.6159 0.01077 0.0
C4444 C 0.82254 0.6045 0.02692 0.0
C4445 C 0.82066 0.61418 0.01152 0.0
C4446 C 0.83913 0.60503 0.03659 0.0
C4447 C 0.85415 0.61517 0.03103 0.0
C4448 C 0.85243 0.62423 0.01517 0.0
C4449 C 0.83577 0.62383 0.00552 0.0
C4450 C 0.87163 0.61508 0.04104 0.0
C4451 C 0.88257 0.60748 0.03026 0.0
C4452 C 0.87654 0.62018 0.06128 0.0
C4453 C 0.86599 0.62956 0.07309 0.0
C4454 C 0.86117 0.64511 0.0679 0.0
C4455 C 0.8512 0.65392 0.079 0.0
C4456 C 0.84607 0.64738 0.09543 0.0
C4457 C 0.85092 0.63204 0.1008 0.0
C4458 C 0.86087 0.62317 0.08973 0.0
C4459 C 0.94756 0.6003 0.06868 0.0
C4460 C 0.94477 0.58608 0.07946 0.0
C4461 C 0.93433 0.60907 0.06408 0.0
C4462 C 0.91787 0.60326 0.06957 0.0
C4463 C 0.91552 0.59018 0.08179 0.0
C4464 C 0.92897 0.58168 0.0868 0.0
C4465 C 0.90243 0.6081 0.0596 0.0
C4466 C 0.89189 0.61645 0.07037 0.0
C4467 C 0.89777 0.60371 0.03929 0.0
C4468 C 0.9079 0.59414 0.02721 0.0
C4469 C 0.90963 0.57672 0.02983 0.0
C4470 C 0.91961 0.56798 0.01871 0.0
C4471 C 0.92775 0.57646 0.00479 0.0
C4472 C 0.92586 0.59367 1.0019 0.0
C4473 C 0.91592 0.60249 0.01303 0.0
H4474 H 0.93549 0.56968 0.9962 0.0
H4475 H 0.83835 0.65422 0.104 0.0
H4476 H 0.18577 0.10442 0.81974 0.0
H4477 H 0.19957 0.13558 0.81686 0.0
H4478 H 0.24398 0.11832 0.79883 0.0
H4479 H 0.22997 0.08672 0.80144 0.0
H4480 H 0.25533 0.15148 0.82419 0.0
H4481 H 0.2114 0.1298 0.76671 0.0
H4482 H 0.18133 0.11662 0.74907 0.0
H4483 H 0.16341 0.15987 0.77862 0.0
H4484 H 0.19332 0.17316 0.79664 0.0
H4485 H 0.29466 0.23865 0.79849 0.0
H4486 H 0.28279 0.20668 0.80118 0.0
H4487 H 0.23113 0.21644 0.80041 0.0
H4488 H 0.2428 0.2478 0.79668 0.0
H4489 H 0.22356 0.18602 0.78397 0.0
H4490 H 0.26269 0.20693 0.84304 0.0
H4491 H 0.29022 0.22048 0.86579 0.0
H4492 H 0.3143 0.18045 0.83992 0.0
H4493 H 0.28698 0.16682 0.81684 0.0
C4494 C 0.19855 0.10703 0.81525 0.0
C4495 C 0.20655 0.09243 0.811 0.0
C4496 C 0.20649 0.12518 0.81344 0.0
C4497 C 0.22303 0.12997 0.80739 0.0
C4498 C 0.23129 0.11552 0.80351 0.0
C4499 C 0.22318 0.0972 0.80504 0.0
C4500 C 0.23144 0.1498 0.80514 0.0
C4501 C 0.24842 0.15885 0.81508 0.0
C4502 C 0.22253 0.16035 0.79408 0.0
C4503 C 0.20459 0.15241 0.78312 0.0
C4504 C 0.20103 0.13644 0.76953 0.0
C4505 C 0.18401 0.12895 0.75946 0.0
C4506 C 0.17046 0.13739 0.76275 0.0
C4507 C 0.17391 0.15334 0.77609 0.0
C4508 C 0.1909 0.16087 0.78623 0.0
C4509 C 0.28079 0.23407 0.79902 0.0
C4510 C 0.26991 0.24638 0.79738 0.0
C4511 C 0.27384 0.21549 0.80074 0.0
C4512 C 0.25571 0.20826 0.80137 0.0
C4513 C 0.24502 0.22078 0.7999 0.0
C4514 C 0.25187 0.23913 0.79787 0.0
C4515 C 0.24768 0.18802 0.8031 0.0
C4516 C 0.23067 0.17881 0.79307 0.0
C4517 C 0.25629 0.17755 0.81468 0.0
C4518 C 0.2729 0.18603 0.82805 0.0
C4519 C 0.27393 0.20116 0.84206 0.0
C4520 C 0.28948 0.20882 0.85505 0.0
C4521 C 0.30402 0.20137 0.85425 0.0
C4522 C 0.30305 0.18624 0.84048 0.0
C4523 C 0.28754 0.17855 0.82743 0.0
H4524 H 0.31603 0.20728 0.86436 0.0
H4525 H 0.1573 0.13158 0.75493 0.0
H4526 H 0.39196 0.07122 0.2659 0.0
H4527 H 0.37488 0.03971 0.25869 0.0
H4528 H 0.40562 0.02741 0.30784 0.0
H4529 H 0.42314 0.05872 0.31475 0.0
H4530 H 0.39927 1.00035 0.27681 0.0
H4531 H 0.3652 0.03626 0.31138 0.0
H4532 H 0.35241 0.06288 0.31431 0.0
H4533 H 0.32163 0.04369 0.25793 0.0
H4534 H 0.33439 0.01703 0.25466 0.0
H4535 H 0.34945 0.93087 0.31448 0.0
H4536 H 0.36581 0.95953 0.30747 0.0
H4537 H 0.32644 0.95586 0.25802 0.0
H4538 H 0.30996 0.92688 0.26488 0.0
H4539 H 0.33562 0.98961 0.28068 0.0
H4540 H 0.36493 0.94954 0.24971 0.0
H4541 H 0.37872 0.92368 0.24645 0.0
H4542 H 0.41895 0.95055 0.29444 0.0
H4543 H 0.40525 0.97647 0.29817 0.0
C4544 C 0.39494 0.06184 0.27529 0.0
C4545 C 0.40865 0.06749 0.29111 0.0
C4546 C 0.3853 0.04382 0.27104 0.0
C4547 C 0.38892 0.03129 0.28282 0.0
C4548 C 0.40269 0.03687 0.29852 0.0
C4549 C 0.41252 0.0548 0.30259 0.0
C4550 C 0.37761 0.0127 0.27981 0.0
C4551 C 0.38536 0.99795 0.27764 0.0
C4552 C 0.35937 0.00958 0.28022 0.0
C4553 C 0.3507 0.02473 0.28279 0.0
C4554 C 0.3556 0.03769 0.29969 0.0
C4555 C 0.34842 0.0528 0.30137 0.0
C4556 C 0.33621 0.05497 0.28631 0.0
C4557 C 0.33106 0.04196 0.2696 0.0
C4558 C 0.33822 0.02683 0.26784 0.0
C4559 C 0.34438 0.936 0.30195 0.0
C4560 C 0.32847 0.92659 0.29018 0.0
C4561 C 0.35373 0.95239 0.29797 0.0
C4562 C 0.34744 0.95965 0.28207 0.0
C4563 C 0.33151 0.95041 0.27032 0.0
C4564 C 0.3221 0.93394 0.2743 0.0
C4565 C 0.35741 0.97726 0.27842 0.0
C4566 C 0.34942 0.99187 0.27933 0.0
C4567 C 0.37541 0.9802 0.27674 0.0
C4568 C 0.38403 0.96492 0.27425 0.0
C4569 C 0.37669 0.94991 0.25961 0.0
C4570 C 0.38448 0.93524 0.25768 0.0
C4571 C 0.39969 0.93547 0.27024 0.0
C4572 C 0.40718 0.9504 0.28471 0.0
C4573 C 0.39942 0.96511 0.28671 0.0
H4574 H 0.40569 0.92408 0.26875 0.0
H4575 H 0.33074 0.06674 0.28759 0.0
H4576 H 0.53436 0.31641 0.64087 0.0
H4577 H 0.53366 0.34119 0.62246 0.0
H4578 H 0.55534 0.38002 0.67451 0.0
H4579 H 0.5543 0.35508 0.6931 0.0
H4580 H 0.53413 0.39285 0.65665 0.0
H4581 H 0.57947 0.36728 0.63455 0.0
H4582 H 0.59254 0.34302 0.62107 0.0
H4583 H 0.55515 0.33266 0.5689 0.0
H4584 H 0.54171 0.35668 0.58217 0.0
H4585 H 0.55262 0.46733 0.60684 0.0
H4586 H 0.55786 0.44327 0.62468 0.0
H4587 H 0.52639 0.40299 0.57776 0.0
H4588 H 0.52119 0.42697 0.55979 0.0
H4589 H 0.55455 0.39205 0.59329 0.0
H4590 H 0.50923 0.41806 0.6179 0.0
H4591 H 0.49826 0.44368 0.63203 0.0
H4592 H 0.53936 0.4548 0.68098 0.0
H4593 H 0.55072 0.4294 0.66698 0.0
C4594 C 0.53881 0.33028 0.64832 0.0
C4595 C 0.54431 0.33394 0.66834 0.0
C4596 C 0.53868 0.34448 0.63776 0.0
C4597 C 0.54496 0.36266 0.64687 0.0
C4598 C 0.55043 0.36621 0.667 0.0
C4599 C 0.54987 0.35199 0.67766 0.0
C4600 C 0.54531 0.37795 0.63561 0.0
C4601 C 0.53895 0.39271 0.64299 0.0
C4602 C 0.55129 0.37792 0.61754 0.0
C4603 C 0.55951 0.36366 0.60942 0.0
C4604 C 0.574 0.35976 0.62024 0.0
C4605 C 0.58146 0.34606 0.61264 0.0
C4606 C 0.57465 0.33627 0.59416 0.0
C4607 C 0.5604 0.34023 0.58322 0.0
C4608 C 0.55287 0.3539 0.59076 0.0
C4609 C 0.54683 0.45335 0.60029 0.0
C4610 C 0.53624 0.4491 0.58199 0.0
C4611 C 0.54988 0.4396 0.6105 0.0
C4612 C 0.54221 0.4213 0.60274 0.0
C4613 C 0.53239 0.41699 0.58408 0.0
C4614 C 0.52943 0.43074 0.57381 0.0
C4615 C 0.54345 0.40671 0.61445 0.0
C4616 C 0.54999 0.39212 0.6071 0.0
C4617 C 0.53801 0.40704 0.63273 0.0
C4618 C 0.53088 0.42195 0.64134 0.0
C4619 C 0.51595 0.42602 0.63164 0.0
C4620 C 0.50967 0.4405 0.63962 0.0
C4621 C 0.51813 0.45088 0.65738 0.0
C4622 C 0.53284 0.44676 0.66723 0.0
C4623 C 0.53919 0.43232 0.65928 0.0
H4624 H 0.51326 0.46211 0.66352 0.0
H4625 H 0.58044 0.32565 0.58832 0.0
H4626 H 0.48756 0.82391 0.37934 0.0
H4627 H 0.45649 0.82255 0.36972 0.0
H4628 H 0.46217 0.81079 0.30996 0.0
H4629 H 0.49377 0.81449 0.31979 0.0
H4630 H 0.44036 0.82663 0.30698 0.0
H4631 H 0.4378 0.77935 0.3474 0.0
H4632 H 0.44294 0.76641 0.37716 0.0
H4633 H 0.4191 0.80434 0.40732 0.0
H4634 H 0.41403 0.81764 0.37785 0.0
H4635 H 0.34615 0.80012 0.27315 0.0
H4636 H 0.37688 0.79865 0.28316 0.0
H4637 H 0.37647 0.82644 0.33988 0.0
H4638 H 0.34621 0.82808 0.3299 0.0
H4639 H 0.39438 0.80137 0.344 0.0
H4640 H 0.39709 0.8483 0.305 0.0
H4641 H 0.39022 0.86108 0.27555 0.0
H4642 H 0.41259 0.8231 0.24325 0.0
H4643 H 0.41939 0.80996 0.2725 0.0
C4644 C 0.48218 0.8209 0.36411 0.0
C4645 C 0.49347 0.81909 0.35045 0.0
C4646 C 0.46401 0.81981 0.35847 0.0
C4647 C 0.4559 0.81583 0.33883 0.0
C4648 C 0.46735 0.81387 0.32522 0.0
C4649 C 0.48568 0.81581 0.33087 0.0
C4650 C 0.43603 0.81441 0.33231 0.0
C4651 C 0.43051 0.82063 0.3151 0.0
C4652 C 0.42232 0.80737 0.3427 0.0
C4653 C 0.42576 0.79963 0.36049 0.0
C4654 C 0.4338 0.78502 0.36043 0.0
C4655 C 0.43668 0.77761 0.37724 0.0
C4656 C 0.43142 0.78459 0.39413 0.0
C4657 C 0.42323 0.79898 0.39426 0.0
C4658 C 0.42037 0.80646 0.37751 0.0
C4659 C 0.35249 0.80562 0.28784 0.0
C4660 C 0.34337 0.81413 0.30065 0.0
C4661 C 0.37029 0.80498 0.29359 0.0
C4662 C 0.37957 0.81264 0.31242 0.0
C4663 C 0.37009 0.8204 0.32532 0.0
C4664 C 0.35256 0.82132 0.31952 0.0
C4665 C 0.39907 0.81314 0.31873 0.0
C4666 C 0.40443 0.807 0.33591 0.0
C4667 C 0.4126 0.82017 0.30837 0.0
C4668 C 0.40857 0.82805 0.29085 0.0
C4669 C 0.40042 0.84261 0.29158 0.0
C4670 C 0.39656 0.84992 0.27494 0.0
C4671 C 0.40092 0.84288 0.25753 0.0
C4672 C 0.40919 0.82853 0.25674 0.0
C4673 C 0.41306 0.82115 0.27334 0.0
H4674 H 0.39793 0.84856 0.24466 0.0
H4675 H 0.43363 0.77881 0.40712 0.0
H4676 H 0.02562 0.72829 0.20472 0.0
H4677 H 0.03003 0.70063 0.18669 0.0
H4678 H 0.0264 0.72369 0.13435 0.0
H4679 H 0.02173 0.75118 0.15215 0.0
H4680 H 1.01008 0.68907 0.12696 0.0
H4681 H 0.06607 0.72402 0.16006 0.0
H4682 H 0.08848 0.74094 0.18762 0.0
H4683 H 0.08428 0.69286 0.21358 0.0
H4684 H 0.06159 0.67571 0.18633 0.0
H4685 H 0.05147 0.62902 0.0736 0.0
H4686 H 0.04819 0.65754 0.09143 0.0
H4687 H 0.03971 0.63145 0.14098 0.0
H4688 H 0.04251 0.60298 0.1232 0.0
H4689 H 0.06313 0.66804 0.14909 0.0
H4690 H 1.00622 0.63374 0.11518 0.0
H4691 H 0.98558 0.61721 0.08622 0.0
H4692 H 0.99298 0.66557 0.06046 0.0
H4693 H 0.01423 0.68226 0.08914 0.0
C4694 C 0.02534 0.72731 0.1893 0.0
C4695 C 0.02331 0.74199 0.17991 0.0
C4696 C 0.02809 0.71157 0.17904 0.0
C4697 C 0.0289 0.71021 0.15921 0.0
C4698 C 0.02593 0.72444 0.14964 0.0
C4699 C 0.02322 0.74016 0.15987 0.0
C4700 C 0.03325 0.69421 0.14848 0.0
C4701 C 0.02181 0.68465 0.13171 0.0
C4702 C 0.0485 0.68829 0.15468 0.0
C4703 C 0.06196 0.69863 0.17125 0.0
C4704 C 0.06977 0.71709 0.17175 0.0
C4705 C 0.08256 0.72672 0.1873 0.0
C4706 C 0.08777 0.71799 0.20237 0.0
C4707 C 0.08021 0.69961 0.20191 0.0
C4708 C 0.06737 0.68993 0.18642 0.0
C4709 C 0.04915 0.6295 0.08837 0.0
C4710 C 0.04712 0.61381 0.09698 0.0
C4711 C 0.04725 0.64573 0.09851 0.0
C4712 C 0.04367 0.64653 0.11749 0.0
C4713 C 0.04251 0.6311 0.12638 0.0
C4714 C 0.04402 0.61485 0.11615 0.0
C4715 C 0.03994 0.66303 0.12776 0.0
C4716 C 0.05148 0.6726 0.1444 0.0
C4717 C 0.02492 0.66911 0.12134 0.0
C4718 C 0.012 0.65918 0.10419 0.0
C4719 C 1.00362 0.64081 0.10326 0.0
C4720 C 0.99176 0.63141 0.08688 0.0
C4721 C 0.98794 0.64033 0.07145 0.0
C4722 C 0.99598 0.65867 0.0724 0.0
C4723 C 1.00797 0.66809 0.0887 0.0
H4724 H 0.97874 0.63306 0.05877 0.0
H4725 H 0.0977 0.72546 0.21437 0.0
H4726 H 0.11551 0.33975 0.87065 0.0
H4727 H 0.14515 0.34018 0.86354 0.0
H4728 H 0.1262 0.28619 0.8312 0.0
H4729 H 0.09664 0.28563 0.83861 0.0
H4730 H 0.15694 0.2874 0.8499 0.0
H4731 H 0.13823 0.32987 0.81128 0.0
H4732 H 0.12807 0.35734 0.80608 0.0
H4733 H 0.17337 0.39042 0.8448 0.0
H4734 H 0.18365 0.36313 0.85042 0.0
H4735 H 0.22716 0.28824 0.79214 0.0
H4736 H 0.19892 0.2894 0.80273 0.0
H4737 H 0.22557 0.33329 0.84835 0.0
H4738 H 0.25403 0.33142 0.83844 0.0
H4739 H 0.19241 0.33848 0.82479 0.0
H4740 H 0.21228 0.30006 0.86382 0.0
H4741 H 0.22417 0.27477 0.87314 0.0
H4742 H 0.17904 0.23654 0.83924 0.0
H4743 H 0.16706 0.26166 0.82931 0.0
C4744 C 0.11752 0.32797 0.86186 0.0
C4745 C 0.10319 0.31274 0.8551 0.0
C4746 C 0.1347 0.32824 0.85765 0.0
C4747 C 0.13846 0.31334 0.84636 0.0
C4748 C 0.12416 0.29805 0.83981 0.0
C4749 C 0.10699 0.29777 0.84401 0.0
C4750 C 0.15704 0.31344 0.84155 0.0
C4751 C 0.16441 0.29852 0.84408 0.0
C4752 C 0.1678 0.32814 0.83478 0.0
C4753 C 0.16158 0.34447 0.83142 0.0
C4754 C 0.14594 0.343 0.81878 0.0
C4755 C 0.14017 0.35853 0.81575 0.0
C4756 C 0.15004 0.37561 0.82515 0.0
C4757 C 0.16571 0.37719 0.83756 0.0
C4758 C 0.17151 0.3617 0.84068 0.0
C4759 C 0.22709 0.29815 0.80448 0.0
C4760 C 0.24313 0.30976 0.81431 0.0
C4761 C 0.21079 0.29879 0.81059 0.0
C4762 C 0.20969 0.31149 0.82642 0.0
C4763 C 0.2257 0.32332 0.8361 0.0
C4764 C 0.24212 0.32222 0.83042 0.0
C4765 C 0.19192 0.31229 0.83268 0.0
C4766 C 0.18479 0.32733 0.83045 0.0
C4767 C 0.18159 0.29795 0.8402 0.0
C4768 C 0.18893 0.28275 0.8455 0.0
C4769 C 0.20504 0.28626 0.85804 0.0
C4770 C 0.21177 0.27196 0.86351 0.0
C4771 C 0.20241 0.25405 0.85671 0.0
C4772 C 0.18631 0.25042 0.84442 0.0
C4773 C 0.17956 0.26469 0.83884 0.0
H4774 H 0.20761 0.24298 0.86103 0.0
H4775 H 0.14556 0.38762 0.82277 0.0
H4776 H 0.5374 0.79391 0.9902 0.0
H4777 H 0.52707 0.76299 0.99714 0.0
H4778 H 0.5751 0.75026 0.98351 0.0
H4779 H 0.58557 0.78117 0.9772 0.0
H4780 H 0.54439 0.72342 0.96707 0.0
H4781 H 0.57352 0.76038 0.02696 0.0
H4782 H 0.57949 0.78638 0.05326 0.0
H4783 H 0.52734 0.7689 0.06601 0.0
H4784 H 0.52091 0.74299 0.03943 0.0
H4785 H 0.55621 0.65305 0.02169 0.0
H4786 H 0.55795 0.6793 0.00503 0.0
H4787 H 0.50794 0.68487 0.01971 0.0
H4788 H 0.50623 0.65898 0.0367 0.0
H4789 H 0.5366 0.71488 0.0339 0.0
H4790 H 0.50879 0.67662 0.97267 0.0
H4791 H 0.50433 0.65238 0.94466 0.0
H4792 H 0.55744 0.67221 0.93586 0.0
H4793 H 0.56204 0.69689 0.96343 0.0
C4794 C 0.54561 0.78438 0.98873 0.0
C4795 C 0.56226 0.78958 0.98352 0.0
C4796 C 0.53976 0.76688 0.9926 0.0
C4797 C 0.55042 0.75458 0.99081 0.0
C4798 C 0.56679 0.7597 0.98492 0.0
C4799 C 0.57278 0.77724 0.9815 0.0
C4800 C 0.54502 0.73656 0.99598 0.0
C4801 C 0.54269 0.72146 0.98167 0.0
C4802 C 0.54281 0.7343 0.01502 0.0
C4803 C 0.54662 0.74991 0.03098 0.0
C4804 C 0.56323 0.76221 0.03518 0.0
C4805 C 0.56672 0.77691 0.05018 0.0
C4806 C 0.55377 0.77934 0.06125 0.0
C4807 C 0.53733 0.76704 0.05737 0.0
C4808 C 0.53375 0.75235 0.04233 0.0
C4809 C 0.54551 0.65977 0.02118 0.0
C4810 C 0.53117 0.65414 0.03067 0.0
C4811 C 0.5464 0.67453 0.01142 0.0
C4812 C 0.53298 0.68379 0.0111 0.0
C4813 C 0.51827 0.67765 0.01968 0.0
C4814 C 0.51733 0.66288 0.02935 0.0
C4815 C 0.53577 0.70159 0.00493 0.0
C4816 C 0.53788 0.71676 0.01918 0.0
C4817 C 0.53818 0.7039 0.98595 0.0
C4818 C 0.53582 0.68842 0.97024 0.0
C4819 C 0.51956 0.67568 0.96488 0.0
C4820 C 0.51697 0.66195 0.949 0.0
C4821 C 0.53065 0.66061 0.93865 0.0
C4822 C 0.54689 0.67317 0.94398 0.0
C4823 C 0.54946 0.6871 0.95963 0.0
H4824 H 0.52862 0.64991 0.92642 0.0
H4825 H 0.55651 0.79072 0.07288 0.0
H4826 H 0.04123 0.75876 0.67026 0.0
H4827 H 0.07057 0.76208 0.68822 0.0
H4828 H 0.09342 0.79107 0.64564 0.0
H4829 H 0.06384 0.78721 0.62722 0.0
H4830 H 0.11273 0.76753 0.6605 0.0
H4831 H 0.08529 0.81473 0.68416 0.0
H4832 H 0.06076 0.82551 0.69586 0.0
H4833 H 0.06465 0.79659 0.74365 0.0
H4834 H 0.08899 0.78538 0.73203 0.0
H4835 H 0.19295 0.79976 0.72064 0.0
H4836 H 0.16617 0.80339 0.70168 0.0
H4837 H 0.13538 0.77763 0.7411 0.0
H4838 H 0.16225 0.77454 0.76035 0.0
H4839 H 0.12094 0.80243 0.72654 0.0
H4840 H 0.14476 0.75287 0.70344 0.0
H4841 H 0.1673 0.73834 0.69216 0.0
H4842 H 0.16833 0.76735 0.64419 0.0
H4843 H 0.14607 0.78237 0.65545 0.0
C4844 C 0.05261 0.76542 0.66456 0.0
C4845 C 0.05062 0.77287 0.64762 0.0
C4846 C 0.06923 0.76737 0.67479 0.0
C4847 C 0.08393 0.77721 0.66841 0.0
C4848 C 0.08207 0.78357 0.65073 0.0
C4849 C 0.06534 0.78137 0.64028 0.0
C4850 C 0.10096 0.78207 0.68108 0.0
C4851 C 0.11472 0.77549 0.67479 0.0
C4852 C 0.10315 0.79197 0.69987 0.0
C4853 C 0.08888 0.79916 0.70717 0.0
C4854 C 0.08086 0.81062 0.69712 0.0
C4855 C 0.06698 0.81679 0.70373 0.0
C4856 C 0.06114 0.81172 0.72048 0.0
C4857 C 0.06919 0.80051 0.73069 0.0
C4858 C 0.08303 0.79426 0.7241 0.0
C4859 C 0.18048 0.79559 0.72558 0.0
C4860 C 0.17934 0.78681 0.74169 0.0
C4861 C 0.16529 0.79756 0.71477 0.0
C4862 C 0.14891 0.79035 0.71981 0.0
C4863 C 0.14797 0.7832 0.73701 0.0
C4864 C 0.16321 0.78144 0.74797 0.0
C4865 C 0.13279 0.78791 0.70599 0.0
C4866 C 0.11913 0.79484 0.7121 0.0
C4867 C 0.13056 0.77795 0.68719 0.0
C4868 C 0.14398 0.76897 0.68047 0.0
C4869 C 0.14995 0.75631 0.69062 0.0
C4870 C 0.16265 0.74797 0.68421 0.0
C4871 C 0.1693 0.75198 0.66752 0.0
C4872 C 0.16322 0.76431 0.65717 0.0
C4873 C 0.15059 0.77277 0.66357 0.0
H4874 H 0.17912 0.74548 0.66256 0.0
H4875 H 0.05037 0.8165 0.72556 0.0
H4876 H 0.07068 0.39556 0.52575 0.0
H4877 H 0.06432 0.42515 0.52934 0.0
H4878 H 0.08693 0.43665 0.47871 0.0
H4879 H 0.09301 0.40643 0.47448 0.0
H4880 H 0.09835 0.46324 0.51616 0.0
H4881 H 0.04877 0.4357 0.46996 0.0
H4882 H 0.02327 0.4124 0.45164 0.0
H4883 H 0.99799 0.41204 0.50173 0.0
H4884 H 0.02343 0.43499 0.52051 0.0
H4885 H 0.06569 0.53535 0.56017 0.0
H4886 H 0.07684 0.51468 0.53985 0.0
H4887 H 0.04241 0.47002 0.55806 0.0
H4888 H 0.02985 0.49167 0.57682 0.0
H4889 H 0.0372 0.46666 0.52126 0.0
H4890 H 0.09166 0.48389 0.56911 0.0
H4891 H 0.11715 0.50654 0.58855 0.0
H4892 H 0.13308 0.52411 0.53702 0.0
H4893 H 0.10744 0.50186 0.51729 0.0
C4894 C 0.0746 0.40439 0.51549 0.0
C4895 C 0.08232 0.39869 0.49981 0.0
C4896 C 0.07064 0.42112 0.51736 0.0
C4897 C 0.07461 0.43254 0.50382 0.0
C4898 C 0.08341 0.4276 0.48889 0.0
C4899 C 0.08713 0.41057 0.48676 0.0
C4900 C 0.07089 0.45031 0.50715 0.0
C4901 C 0.08498 0.46438 0.51678 0.0
C4902 C 0.05341 0.45149 0.50772 0.0
C4903 C 0.03811 0.43721 0.49667 0.0
C4904 C 0.03787 0.43056 0.47715 0.0
C4905 C 0.02338 0.4174 0.46666 0.0
C4906 C 1.00901 0.41077 0.4755 0.0
C4907 C 1.00911 0.41722 0.49488 0.0
C4908 C 0.02357 0.43034 0.50545 0.0
C4909 C 0.06127 0.52137 0.56067 0.0
C4910 C 0.04723 0.51527 0.5701 0.0
C4911 C 0.06755 0.50935 0.54891 0.0
C4912 C 0.06052 0.49078 0.54746 0.0
C4913 C 0.04791 0.48442 0.55889 0.0
C4914 C 0.04101 0.49669 0.56992 0.0
C4915 C 0.06466 0.47812 0.53245 0.0
C4916 C 0.05055 0.4657 0.52028 0.0
C4917 C 0.08211 0.47818 0.5299 0.0
C4918 C 0.0976 0.49133 0.54177 0.0
C4919 C 0.10055 0.49267 0.56195 0.0
C4920 C 0.11499 0.50546 0.57301 0.0
C4921 C 0.12666 0.51683 0.56402 0.0
C4922 C 0.12395 0.51538 0.54395 0.0
C4923 C 0.10949 0.50268 0.53283 0.0
H4924 H 0.13782 0.52673 0.5726 0.0
H4925 H 0.9978 0.40062 0.46734 0.0
H4926 H 0.45742 0.27331 0.15705 0.0
H4927 H 0.43275 0.27245 0.17459 0.0
H4928 H 0.46631 0.27155 0.22736 0.0
H4929 H 0.49101 0.27174 0.20974 0.0
H4930 H 0.43202 0.24796 0.22172 0.0
H4931 H 0.46007 0.31119 0.21894 0.0
H4932 H 0.472 0.33339 0.19876 0.0
H4933 H 0.42123 0.3229 0.16369 0.0
H4934 H 0.40907 0.30049 0.18356 0.0
H4935 H 0.39292 0.29082 0.29426 0.0
H4936 H 0.41004 0.27756 0.27248 0.0
H4937 H 0.37502 0.28417 0.22346 0.0
H4938 H 0.35769 0.29711 0.24506 0.0
H4939 H 0.40827 0.3028 0.22452 0.0
H4940 H 0.37873 0.24276 0.22484 0.0
H4941 H 0.3663 0.21208 0.23118 0.0
H4942 H 0.41602 0.21121 0.26289 0.0
H4943 H 0.42885 0.24189 0.25666 0.0
C4944 C 0.45957 0.2731 0.17242 0.0
C4945 C 0.47611 0.27305 0.18224 0.0
C4946 C 0.44547 0.27238 0.18231 0.0
C4947 C 0.44793 0.27215 0.20218 0.0
C4948 C 0.46432 0.27172 0.21198 0.0
C4949 C 0.47838 0.27209 0.202 0.0
C4950 C 0.43378 0.27403 0.21305 0.0
C4951 C 0.42695 0.26004 0.22278 0.0
C4952 C 0.42683 0.28944 0.21333 0.0
C4953 C 0.43365 0.3043 0.20279 0.0
C4954 C 0.45142 0.31379 0.20705 0.0
C4955 C 0.45824 0.32632 0.19561 0.0
C4956 C 0.44737 0.32958 0.17997 0.0
C4957 C 0.42961 0.32042 0.17585 0.0
C4958 C 0.42273 0.30785 0.18723 0.0
C4959 C 0.38863 0.28901 0.27885 0.0
C4960 C 0.37433 0.29549 0.27132 0.0
C4961 C 0.39832 0.28131 0.26644 0.0
C4962 C 0.39377 0.28002 0.24644 0.0
C4963 C 0.37871 0.28517 0.23889 0.0
C4964 C 0.36901 0.29277 0.25124 0.0
C4965 C 0.40646 0.27673 0.2338 0.0
C4966 C 0.41324 0.29066 0.22376 0.0
C4967 C 0.4131 0.26106 0.23297 0.0
C4968 C 0.4047 0.24468 0.24042 0.0
C4969 C 0.38687 0.23629 0.23371 0.0
C4970 C 0.3798 0.21883 0.23712 0.0
C4971 C 0.39039 0.20971 0.24732 0.0
C4972 C 0.40787 0.2183 0.25492 0.0
C4973 C 0.41505 0.23572 0.25146 0.0
H4974 H 0.38515 0.19584 0.24893 0.0
H4975 H 0.4527 0.33918 0.17103 0.0
H4976 H 0.6581 0.53598 0.39134 0.0
H4977 H 0.64305 0.53667 0.41946 0.0
H4978 H 0.6024 0.55575 0.38778 0.0
H4979 H 0.61825 0.55641 0.36034 0.0
H4980 H 0.60473 0.57174 0.41957 0.0
H4981 H 0.60174 0.50733 0.4042 0.0
H4982 H 0.61306 0.47983 0.39927 0.0
H4983 H 0.64321 0.49439 0.45628 0.0
H4984 H 0.63224 0.52206 0.46146 0.0
H4985 H 0.54482 0.56113 0.4867 0.0
H4986 H 0.55887 0.55542 0.45827 0.0
H4987 H 0.60285 0.54604 0.4946 0.0
H4988 H 0.58847 0.55111 0.52286 0.0
H4989 H 0.59903 0.52456 0.46155 0.0
H4990 H 0.60289 0.58807 0.47701 0.0
H4991 H 0.59132 0.61519 0.48365 0.0
H4992 H 0.55983 0.60196 0.42733 0.0
H4993 H 0.57106 0.57462 0.42047 0.0
C4994 C 0.64593 0.54031 0.3903 0.0
C4995 C 0.63959 0.54616 0.37323 0.0
C4996 C 0.63703 0.54048 0.40654 0.0
C4997 C 0.62097 0.54588 0.40628 0.0
C4998 C 0.61463 0.55154 0.38904 0.0
C4999 C 0.62377 0.55185 0.37305 0.0
C5000 C 0.61113 0.54646 0.42382 0.0
C5001 C 0.6033 0.56105 0.42831 0.0
C5002 C 0.60944 0.53323 0.43643 0.0
C5003 C 0.61635 0.51686 0.4331 0.0
C5004 C 0.61092 0.50474 0.4156 0.0
C5005 C 0.61724 0.48911 0.41278 0.0
C5006 C 0.62889 0.48541 0.42742 0.0
C5007 C 0.63423 0.4973 0.44493 0.0
C5008 C 0.62797 0.51295 0.44781 0.0
C5009 C 0.55714 0.55709 0.48856 0.0
C5010 C 0.56507 0.55597 0.50722 0.0
C5011 C 0.56546 0.55418 0.47221 0.0
C5012 C 0.58233 0.5505 0.47387 0.0
C5013 C 0.58991 0.54868 0.49245 0.0
C5014 C 0.58153 0.55148 0.50876 0.0
C5015 C 0.59235 0.54946 0.45666 0.0
C5016 C 0.60033 0.53499 0.45247 0.0
C5017 C 0.59426 0.56277 0.44432 0.0
C5018 C 0.58768 0.57926 0.4483 0.0
C5019 C 0.59343 0.59092 0.46609 0.0
C5020 C 0.58694 0.60632 0.46989 0.0
C5021 C 0.57482 0.61028 0.45594 0.0
C5022 C 0.56921 0.59887 0.43813 0.0
C5023 C 0.57563 0.58343 0.43427 0.0
H5024 H 0.5698 0.62221 0.45891 0.0
H5025 H 0.63375 0.47328 0.42523 0.0
H5026 H 0.22943 0.85285 0.07862 0.0
H5027 H 0.23941 0.84095 0.10756 0.0
H5028 H 0.25274 0.89479 0.14054 0.0
H5029 H 0.24231 0.90666 0.11196 0.0
H5030 H 0.27997 0.87634 0.14618 0.0
H5031 H 0.21991 0.86838 0.15018 0.0
H5032 H 0.18786 0.85903 0.13962 0.0
H5033 H 0.19022 0.80321 0.1298 0.0
H5034 H 0.22239 0.81228 0.14003 0.0
H5035 H 0.29367 0.85398 0.24104 0.0
H5036 H 0.28422 0.86526 0.21181 0.0
H5037 H 0.26585 0.81043 0.18137 0.0
H5038 H 0.27514 0.79896 0.21081 0.0
H5039 H 0.24146 0.82962 0.17425 0.0
H5040 H 0.3039 0.84043 0.17305 0.0
H5041 H 0.33517 0.85261 0.18706 0.0
H5042 H 0.32734 0.90657 0.19524 0.0
H5043 H 0.29596 0.89468 0.18147 0.0
C5044 C 0.23421 0.86212 0.09209 0.0
C5045 C 0.2348 0.88072 0.09287 0.0
C5046 C 0.24 0.8553 0.10866 0.0
C5047 C 0.24695 0.86694 0.12634 0.0
C5048 C 0.24752 0.88548 0.12715 0.0
C5049 C 0.24134 0.89223 0.11075 0.0
C5050 C 0.25373 0.85983 0.14389 0.0
C5051 C 0.2715 0.86621 0.15237 0.0
C5052 C 0.24282 0.8466 0.15214 0.0
C5053 C 0.22358 0.84103 0.14556 0.0
C5054 C 0.21363 0.85413 0.1455 0.0
C5055 C 0.19544 0.84888 0.13965 0.0
C5056 C 0.18701 0.83054 0.13396 0.0
C5057 C 0.19677 0.81742 0.13415 0.0
C5058 C 0.21499 0.8226 0.13997 0.0
C5059 C 0.28789 0.84425 0.22808 0.0
C5060 C 0.28537 0.82549 0.2284 0.0
C5061 C 0.28247 0.85078 0.21126 0.0
C5062 C 0.27438 0.83879 0.19412 0.0
C5063 C 0.27207 0.82004 0.19429 0.0
C5064 C 0.27758 0.81348 0.21114 0.0
C5065 C 0.26782 0.84582 0.17636 0.0
C5066 C 0.25002 0.83953 0.1679 0.0
C5067 C 0.27865 0.85944 0.16842 0.0
C5068 C 0.29757 0.86665 0.17635 0.0
C5069 C 0.30883 0.85488 0.17791 0.0
C5070 C 0.32658 0.86174 0.18581 0.0
C5071 C 0.33323 0.88035 0.19207 0.0
C5072 C 0.32217 0.89216 0.19039 0.0
C5073 C 0.30441 0.88537 0.18251 0.0
H5074 H 0.34697 0.88563 0.1982 0.0
H5075 H 0.17291 0.82649 0.12948 0.0
H5076 H 0.98892 0.583 0.8564 0.0
H5077 H 1.00104 0.57736 0.8879 0.0
H5078 H 0.98555 0.62346 0.91562 0.0
H5079 H 0.97375 0.62943 0.88401 0.0
H5080 H 0.01639 0.62283 0.93366 0.0
H5081 H 0.96192 0.57787 0.91353 0.0
H5082 H 0.94033 0.55285 0.89176 0.0
H5083 H 0.97738 0.51954 0.89422 0.0
H5084 H 0.99929 0.54447 0.91582 0.0
H5085 H 0.01131 0.59721 0.02695 0.0
H5086 H 1.00589 0.60486 0.99449 0.0
H5087 H 0.03208 0.56463 0.9728 0.0
H5088 H 0.0381 0.55746 0.00557 0.0
H5089 H 0.99792 0.5617 0.95137 0.0
H5090 H 0.05171 0.6064 0.97334 0.0
H5091 H 0.07268 0.63135 0.99583 0.0
H5092 H 0.03605 0.66494 0.99074 0.0
H5093 H 0.01475 0.64008 0.96838 0.0
C5094 C 0.98818 0.59206 0.86917 0.0
C5095 C 0.98028 0.60669 0.86754 0.0
C5096 C 0.99504 0.58872 0.88728 0.0
C5097 C 0.99401 0.59975 0.90439 0.0
C5098 C 0.98653 0.61465 0.90277 0.0
C5099 C 0.97974 0.61806 0.88462 0.0
C5100 C 1.0005 0.59564 0.92388 0.0
C5101 C 0.01215 0.60949 0.93752 0.0
C5102 C 0.99545 0.57813 0.92905 0.0
C5103 C 0.98231 0.56311 0.91611 0.0
C5104 C 0.96551 0.56526 0.90931 0.0
C5105 C 0.95321 0.55109 0.89702 0.0
C5106 C 0.9575 0.53464 0.89156 0.0
C5107 C 0.97409 0.53231 0.89843 0.0
C5108 C 0.98645 0.54645 0.91071 0.0
C5109 C 0.01629 0.59034 0.01533 0.0
C5110 C 0.02534 0.57696 0.0188 0.0
C5111 C 0.01314 0.59466 0.99676 0.0
C5112 C 0.01853 0.58533 0.98109 0.0
C5113 C 0.02781 0.57207 0.9846 0.0
C5114 C 0.03139 0.56809 0.00334 0.0
C5115 C 0.01363 0.5889 0.96104 0.0
C5116 C 1.00223 0.57497 0.94737 0.0
C5117 C 0.01882 0.60633 0.9559 0.0
C5118 C 0.03158 0.62133 0.9693 0.0
C5119 C 0.04806 0.61906 0.97713 0.0
C5120 C 0.06002 0.63319 0.98983 0.0
C5121 C 0.05568 0.64971 0.99474 0.0
C5122 C 0.03938 0.65213 0.98693 0.0
C5123 C 0.02737 0.63803 0.97422 0.0
H5124 H 0.06496 0.66065 0.00456 0.0
H5125 H 0.94796 0.52368 0.88205 0.0
H5126 H 0.27848 0.14787 0.5533 0.0
H5127 H 0.28321 0.16908 0.58325 0.0
H5128 H 0.30315 0.2135 0.55406 0.0
H5129 H 0.29855 0.19231 0.52386 0.0
H5130 H 0.32324 0.21463 0.58937 0.0
H5131 H 0.26324 0.20831 0.56335 0.0
H5132 H 0.23281 0.19231 0.54897 0.0
H5133 H 0.22676 0.16732 0.59934 0.0
H5134 H 0.25728 0.18293 0.61391 0.0
H5135 H 0.30928 0.28047 0.66562 0.0
H5136 H 0.31276 0.26257 0.63574 0.0
H5137 H 0.29358 0.21326 0.65784 0.0
H5138 H 0.29013 0.23104 0.68766 0.0
H5139 H 0.2732 0.21721 0.6244 0.0
H5140 H 0.33398 0.22255 0.64952 0.0
H5141 H 0.36491 0.23763 0.66282 0.0
H5142 H 0.36921 0.26479 0.61367 0.0
H5143 H 0.33823 0.2501 0.60023 0.0
C5144 C 0.284 0.16212 0.55324 0.0
C5145 C 0.28811 0.16846 0.53626 0.0
C5146 C 0.28659 0.1742 0.57031 0.0
C5147 C 0.29325 0.19277 0.57064 0.0
C5148 C 0.2979 0.19915 0.55392 0.0
C5149 C 0.29528 0.18706 0.53676 0.0
C5150 C 0.29535 0.20541 0.58863 0.0
C5151 C 0.31229 0.21551 0.59694 0.0
C5152 C 0.281 0.20619 0.59841 0.0
C5153 C 0.26263 0.19669 0.58965 0.0
C5154 C 0.25549 0.19927 0.57129 0.0
C5155 C 0.23821 0.19029 0.56312 0.0
C5156 C 0.22787 0.17877 0.57322 0.0
C5157 C 0.23479 0.17623 0.59153 0.0
C5158 C 0.25208 0.18515 0.59975 0.0
C5159 C 0.3064 0.26583 0.66429 0.0
C5160 C 0.29917 0.25702 0.67863 0.0
C5161 C 0.30839 0.25566 0.6473 0.0
C5162 C 0.30326 0.23668 0.64468 0.0
C5163 C 0.29749 0.22793 0.65969 0.0
C5164 C 0.29547 0.23805 0.6766 0.0
C5165 C 0.3012 0.22601 0.62546 0.0
C5166 C 0.28416 0.21643 0.61682 0.0
C5167 C 0.31543 0.22581 0.61538 0.0
C5168 C 0.33374 0.23538 0.62398 0.0
C5169 C 0.34143 0.23196 0.64171 0.0
C5170 C 0.35899 0.24038 0.64923 0.0
C5171 C 0.36899 0.25216 0.63908 0.0
C5172 C 0.36144 0.25567 0.6215 0.0
C5173 C 0.34388 0.24732 0.61394 0.0
H5174 H 0.38263 0.25847 0.64475 0.0
H5175 H 0.21448 0.17185 0.56687 0.0
H5176 H 0.64659 0.50372 0.25011 0.0
H5177 H 0.63002 0.50504 0.21884 0.0
H5178 H 0.62513 0.55858 0.24092 0.0
H5179 H 0.63994 0.55629 0.27252 0.0
H5180 H 0.59858 0.54685 0.21911 0.0
H5181 H 0.65639 0.5436 0.20585 0.0
H5182 H 0.68191 0.53017 0.20448 0.0
H5183 H 0.64882 0.48208 0.16878 0.0
H5184 H 0.62309 0.49514 0.17016 0.0
H5185 H 0.57629 0.57352 0.12786 0.0
H5186 H 0.59136 0.56985 0.15891 0.0
H5187 H 0.58716 0.51365 0.13699 0.0
H5188 H 0.57276 0.5175 0.10561 0.0
H5189 H 0.61745 0.52571 0.15801 0.0
H5190 H 0.55996 0.53121 0.17075 0.0
H5191 H 0.53564 0.54651 0.17142 0.0
H5192 H 0.57036 0.59317 0.20789 0.0
H5193 H 0.59492 0.57823 0.20722 0.0
C5194 C 0.64172 0.51564 0.24833 0.0
C5195 C 0.64451 0.52979 0.26406 0.0
C5196 C 0.63244 0.5166 0.23017 0.0
C5197 C 0.6265 0.53221 0.22672 0.0
C5198 C 0.62927 0.54625 0.24264 0.0
C5199 C 0.63785 0.54495 0.26093 0.0
C5200 C 0.61732 0.5341 0.20695 0.0
C5201 C 0.60308 0.54243 0.2059 0.0
C5202 C 0.62239 0.52807 0.1891 0.0
C5203 C 0.63783 0.52026 0.18829 0.0
C5204 C 0.65457 0.53012 0.19781 0.0
C5205 C 0.66906 0.52258 0.19702 0.0
C5206 C 0.66698 0.50526 0.1866 0.0
C5207 C 0.65041 0.49547 0.17689 0.0
C5208 C 0.63588 0.50293 0.17766 0.0
C5209 C 0.57848 0.56032 0.12959 0.0
C5210 C 0.57306 0.5458 0.114 0.0
C5211 C 0.58708 0.55817 0.14758 0.0
C5212 C 0.59024 0.5413 0.15088 0.0
C5213 C 0.58498 0.52684 0.13521 0.0
C5214 C 0.57661 0.52905 0.11713 0.0
C5215 C 0.59908 0.53872 0.1704 0.0
C5216 C 0.61314 0.53018 0.17133 0.0
C5217 C 0.59409 0.54487 0.18817 0.0
C5218 C 0.57926 0.55367 0.18881 0.0
C5219 C 0.5624 0.54476 0.17885 0.0
C5220 C 0.54858 0.55336 0.17923 0.0
C5221 C 0.55146 0.57081 0.18966 0.0
C5222 C 0.56815 0.57967 0.1998 0.0
C5223 C 0.58201 0.57113 0.19944 0.0
H5224 H 0.54075 0.57746 0.18992 0.0
H5225 H 0.67821 0.49944 0.18601 0.0
H5226 H 0.24545 0.84391 0.98991 0.0
H5227 H 0.25089 0.83233 0.95805 0.0
H5228 H 0.24147 0.88037 0.93727 0.0
H5229 H 0.23447 0.89114 0.96879 0.0
H5230 H 0.23145 0.85629 0.90874 0.0
H5231 H 0.28567 0.87159 0.95196 0.0
H5232 H 0.3058 0.87153 0.98156 0.0
H5233 H 0.29858 0.81392 0.96689 0.0
H5234 H 0.27826 0.81362 0.9373 0.0
H5235 H 0.27281 0.83842 0.8258 0.0
H5236 H 0.26454 0.85125 0.85562 0.0
H5237 H 0.27173 0.80447 0.88079 0.0
H5238 H 0.28178 0.79266 0.85152 0.0
H5239 H 0.28337 0.83034 0.9067 0.0
H5240 H 0.22781 0.81809 0.86073 0.0
H5241 H 0.21055 0.82257 0.83092 0.0
H5242 H 0.22398 0.88007 0.85046 0.0
H5243 H 0.24146 0.87594 0.88026 0.0
C5244 C 0.24431 0.8519 0.97848 0.0
C5245 C 0.23951 0.86848 0.98201 0.0
C5246 C 0.24768 0.84537 0.96019 0.0
C5247 C 0.24732 0.85566 0.94503 0.0
C5248 C 0.24203 0.87204 0.94846 0.0
C5249 C 0.23801 0.87825 0.96659 0.0
C5250 C 0.25283 0.84953 0.92597 0.0
C5251 C 0.24288 0.85072 0.9084 0.0
C5252 C 0.26786 0.84238 0.925 0.0
C5253 C 0.28037 0.84257 0.94252 0.0
C5254 C 0.28836 0.85891 0.95508 0.0
C5255 C 0.29979 0.85894 0.97186 0.0
C5256 C 0.30344 0.84272 0.97612 0.0
C5257 C 0.29574 0.82646 0.96357 0.0
C5258 C 0.28429 0.82636 0.94679 0.0
C5259 C 0.2725 0.83082 0.83768 0.0
C5260 C 0.27781 0.81439 0.8362 0.0
C5261 C 0.26753 0.8381 0.85481 0.0
C5262 C 0.26683 0.82874 0.8707 0.0
C5263 C 0.27199 0.81216 0.86899 0.0
C5264 C 0.27765 0.80526 0.85214 0.0
C5265 C 0.26158 0.83631 0.88938 0.0
C5266 C 0.27176 0.83563 0.90698 0.0
C5267 C 0.24708 0.84443 0.89028 0.0
C5268 C 0.236 0.8467 0.87267 0.0
C5269 C 0.22706 0.83167 0.85866 0.0
C5270 C 0.21727 0.83416 0.84175 0.0
C5271 C 0.2162 0.85159 0.83879 0.0
C5272 C 0.22483 0.86657 0.85277 0.0
C5273 C 0.23465 0.86416 0.86968 0.0
H5274 H 0.20867 0.85349 0.82567 0.0
H5275 H 0.31227 0.84276 0.98913 0.0
H5276 H 0.9847 0.59765 0.77374 0.0
H5277 H 0.99579 0.58735 0.74493 0.0
H5278 H 0.97254 0.62357 0.71429 0.0
H5279 H 0.96044 0.63322 0.74295 0.0
H5280 H 0.96748 0.5927 0.69143 0.0
H5281 H 0.01975 0.63159 0.73357 0.0
H5282 H 0.04054 0.64061 0.76423 0.0
H5283 H 0.05099 0.5877 0.7585 0.0
H5284 H 0.03016 0.57834 0.72791 0.0
H5285 H 0.01114 0.59109 0.61167 0.0
H5286 H 1.0 0.59917 0.64103 0.0
H5287 H 0.02941 0.56648 0.6702 0.0
H5288 H 0.0421 0.55985 0.641 0.0
H5289 H 0.03055 0.59314 0.69417 0.0
H5290 H 0.98108 0.55389 0.65187 0.0
H5291 H 0.96024 0.54296 0.62139 0.0
H5292 H 0.94337 0.59261 0.62747 0.0
H5293 H 0.96426 0.60395 0.65783 0.0
C5294 C 0.98218 0.60374 0.76102 0.0
C5295 C 0.97194 0.61661 0.7609 0.0
C5296 C 0.98857 0.59778 0.74444 0.0
C5297 C 0.98543 0.60492 0.72738 0.0
C5298 C 0.97528 0.61786 0.72722 0.0
C5299 C 0.96853 0.62355 0.74372 0.0
C5300 C 0.99267 0.59888 0.70976 0.0
C5301 C 0.98132 0.59301 0.69199 0.0
C5302 C 1.01056 0.59844 0.71044 0.0
C5303 C 0.02338 0.60427 0.72854 0.0
C5304 C 0.02649 0.6219 0.73889 0.0
C5305 C 0.03826 0.62706 0.75625 0.0
C5306 C 0.04706 0.61473 0.76332 0.0
C5307 C 0.04417 0.59723 0.75301 0.0
C5308 C 0.03242 0.59201 0.73565 0.0
C5309 C 0.0155 0.58581 0.6244 0.0
C5310 C 0.02766 0.57493 0.62401 0.0
C5311 C 1.00879 0.59018 0.6412 0.0
C5312 C 0.01325 0.58297 0.65787 0.0
C5313 C 0.02558 0.57219 0.65759 0.0
C5314 C 0.03287 0.56839 0.64089 0.0
C5315 C 1.00547 0.5872 0.67565 0.0
C5316 C 0.01668 0.5927 0.6935 0.0
C5317 C 0.98735 0.58688 0.67505 0.0
C5318 C 0.97433 0.57981 0.6571 0.0
C5319 C 0.97295 0.56249 0.6467 0.0
C5320 C 0.96114 0.55623 0.62943 0.0
C5321 C 0.95053 0.56711 0.62249 0.0
C5322 C 0.95161 0.58421 0.63286 0.0
C5323 C 0.96341 0.59054 0.65012 0.0
H5324 H 0.94147 0.5623 0.60908 0.0
H5325 H 0.05614 0.61874 0.77678 0.0
H5326 H 0.27949 0.15712 0.41515 0.0
H5327 H 0.28314 0.17802 0.39162 0.0
H5328 H 0.27742 0.2212 0.43405 0.0
H5329 H 0.27297 0.20038 0.45705 0.0
H5330 H 0.25824 0.22077 0.40129 0.0
H5331 H 0.31916 0.21557 0.42016 0.0
H5332 H 0.34184 0.19805 0.42246 0.0
H5333 H 0.32952 0.17929 0.36137 0.0
H5334 H 0.30667 0.19653 0.35877 0.0
H5335 H 0.27619 0.29127 0.34802 0.0
H5336 H 0.28167 0.27528 0.37535 0.0
H5337 H 0.29303 0.23256 0.33661 0.0
H5338 H 0.28869 0.24881 0.31008 0.0
H5339 H 0.31025 0.23335 0.36834 0.0
H5340 H 0.2501 0.23309 0.34673 0.0
H5341 H 0.22486 0.24656 0.33978 0.0
H5342 H 0.23139 0.26971 0.39954 0.0
H5343 H 0.25685 0.25661 0.40677 0.0
C5344 C 0.27903 0.17109 0.41936 0.0
C5345 C 0.27587 0.17714 0.43784 0.0
C5346 C 0.28123 0.18303 0.406 0.0
C5347 C 0.28078 0.20124 0.41119 0.0
C5348 C 0.27778 0.20722 0.42971 0.0
C5349 C 0.27524 0.19529 0.44284 0.0
C5350 C 0.28283 0.2142 0.39742 0.0
C5351 C 0.26975 0.22372 0.39429 0.0
C5352 C 0.29742 0.21747 0.38763 0.0
C5353 C 0.31118 0.20722 0.38932 0.0
C5354 C 0.32126 0.20763 0.40726 0.0
C5355 C 0.33413 0.19776 0.4086 0.0
C5356 C 0.3371 0.18754 0.39208 0.0
C5357 C 0.32721 0.18719 0.37416 0.0
C5358 C 0.31432 0.19701 0.37274 0.0
C5359 C 0.28062 0.27888 0.3457 0.0
C5360 C 0.28169 0.27099 0.32707 0.0
C5361 C 0.28352 0.26964 0.36116 0.0
C5362 C 0.28715 0.2524 0.35787 0.0
C5363 C 0.2901 0.2457 0.33957 0.0
C5364 C 0.28751 0.25498 0.32435 0.0
C5365 C 0.2858 0.24016 0.37243 0.0
C5366 C 0.29888 0.23064 0.37558 0.0
C5367 C 0.27081 0.23627 0.38156 0.0
C5368 C 0.25551 0.24411 0.37724 0.0
C5369 C 0.24622 0.24117 0.35835 0.0
C5370 C 0.23188 0.24872 0.35437 0.0
C5371 C 0.22657 0.25904 0.3692 0.0
C5372 C 0.23556 0.26177 0.38806 0.0
C5373 C 0.24995 0.2543 0.39211 0.0
H5374 H 0.21546 0.26488 0.36609 0.0
H5375 H 0.34707 0.17991 0.39316 0.0
H5376 H 0.41276 0.68658 0.5546 0.0
H5377 H 0.43607 0.67026 0.55343 0.0
H5378 H 0.39704 0.62052 0.52995 0.0
H5379 H 0.37381 0.63666 0.53289 0.0
H5380 H 0.41819 0.61155 0.5522 0.0
H5381 H 0.43031 0.65086 0.50389 0.0
H5382 H 0.43796 0.67992 0.49175 0.0
H5383 H 0.48476 0.69723 0.53419 0.0
H5384 H 0.47728 0.66839 0.5467 0.0
H5385 H 0.4804 0.56028 0.52894 0.0
H5386 H 0.45666 0.57624 0.52671 0.0
H5387 H 0.49388 0.62648 0.55265 0.0
H5388 H 0.51743 0.61106 0.55378 0.0
H5389 H 0.47356 0.63467 0.52801 0.0
H5390 H 0.46224 0.59789 0.57748 0.0
H5391 H 0.45639 0.5693 0.59076 0.0
H5392 H 0.40996 0.54829 0.54825 0.0
H5393 H 0.41563 0.57668 0.53462 0.0
C5394 C 0.40924 0.67217 0.54913 0.0
C5395 C 0.39146 0.66292 0.54376 0.0
C5396 C 0.42263 0.66279 0.54822 0.0
C5397 C 0.41865 0.644 0.54111 0.0
C5398 C 0.40076 0.63491 0.53552 0.0
C5399 C 0.38739 0.64417 0.53708 0.0
C5400 C 0.43278 0.63356 0.54021 0.0
C5401 C 0.43013 0.6166 0.54655 0.0
C5402 C 0.44891 0.64009 0.53361 0.0
C5403 C 0.45312 0.65756 0.52633 0.0
C5404 C 0.44214 0.66094 0.51072 0.0
C5405 C 0.44647 0.67736 0.50376 0.0
C5406 C 0.46181 0.69043 0.51223 0.0
C5407 C 0.47286 0.68712 0.52767 0.0
C5408 C 0.46859 0.67075 0.53469 0.0
C5409 C 0.48353 0.57477 0.53388 0.0
C5410 C 0.50096 0.58426 0.54144 0.0
C5411 C 0.46987 0.58391 0.53286 0.0
C5412 C 0.47322 0.60268 0.53986 0.0
C5413 C 0.4907 0.6121 0.54707 0.0
C5414 C 0.50428 0.60312 0.54773 0.0
C5415 C 0.45885 0.61275 0.53988 0.0
C5416 C 0.46152 0.62963 0.53348 0.0
C5417 C 0.4429 0.60631 0.54669 0.0
C5418 C 0.43944 0.58932 0.55495 0.0
C5419 C 0.45083 0.58712 0.57093 0.0
C5420 C 0.44755 0.57097 0.57852 0.0
C5421 C 0.43284 0.55697 0.57033 0.0
C5422 C 0.42135 0.55913 0.55457 0.0
C5423 C 0.42458 0.57525 0.54692 0.0
H5424 H 0.43032 0.54448 0.57622 0.0
H5425 H 0.46515 0.70311 0.50679 0.0
H5426 H 0.86021 0.01984 0.6005 0.0
H5427 H 0.88846 0.03185 0.59001 0.0
H5428 H 0.90761 0.98706 0.60789 0.0
H5429 H 0.87967 0.97509 0.61814 0.0
H5430 H 0.93115 0.01966 0.62036 0.0
H5431 H 0.89404 0.98566 0.56227 0.0
H5432 H 0.86866 0.97725 0.53596 0.0
H5433 H 0.88278 0.0302 0.52021 0.0
H5434 H 0.90813 0.03902 0.54663 0.0
H5435 H 0.99846 1.00489 0.56724 0.0
H5436 H 0.96934 1.00128 0.57689 0.0
H5437 H 0.96994 0.05653 0.57026 0.0
H5438 H 0.99929 0.06034 0.56106 0.0
H5439 H 0.93637 0.02375 0.55194 0.0
H5440 H 0.97545 0.05598 0.61073 0.0
H5441 H 1.00148 0.06114 0.63584 0.0
H5442 H 0.98334 0.00763 0.64893 0.0
H5443 H 0.95733 1.00207 0.62366 0.0
C5444 C 0.87066 0.01288 0.60258 0.0
C5445 C 0.86795 0.99672 0.61037 0.0
C5446 C 0.88662 0.01957 0.59634 0.0
C5447 C 0.90001 0.01025 0.59809 0.0
C5448 C 0.89743 0.99445 0.60643 0.0
C5449 C 0.88153 0.98768 0.61238 0.0
C5450 C 0.91698 0.01682 0.59164 0.0
C5451 C 0.93225 0.02063 0.6054 0.0
C5452 C 0.91838 0.0182 0.57213 0.0
C5453 C 0.9028 0.01312 0.55667 0.0
C5454 C 0.89158 0.99561 0.5534 0.0
C5455 C 0.87724 0.99074 0.53841 0.0
C5456 C 0.87406 1.00321 0.52648 0.0
C5457 C 0.88522 0.02058 0.52951 0.0
C5458 C 0.89957 0.02552 0.5445 0.0
C5459 C 0.99239 0.01627 0.56792 0.0
C5460 C 1.00115 0.03296 0.56367 0.0
C5461 C 0.97579 0.01418 0.57334 0.0
C5462 C 0.96759 0.02864 0.5742 0.0
C5463 C 0.97613 0.04524 0.56962 0.0
C5464 C 0.99291 0.04745 0.56458 0.0
C5465 C 0.95036 0.02641 0.58069 0.0
C5466 C 0.93514 0.02328 0.56695 0.0
C5467 C 0.9489 0.02531 0.60015 0.0
C5468 C 0.96457 0.02856 0.6152 0.0
C5469 C 0.97713 0.04525 0.61882 0.0
C5470 C 0.99185 0.04826 0.63311 0.0
C5471 C 0.99409 0.03471 0.64394 0.0
C5472 C 0.9816 0.01811 0.64051 0.0
C5473 C 0.96687 0.01503 0.62622 0.0
H5474 H 1.00548 0.03708 0.65503 0.0
H5475 H 0.86298 0.9994 0.51485 0.0
H5476 H 0.84529 0.10354 0.26621 0.0
H5477 H 0.83407 0.13062 0.27171 0.0
H5478 H 0.88698 0.16325 0.28994 0.0
H5479 H 0.89794 0.13561 0.28648 0.0
H5480 H 0.87201 0.18217 0.30676 0.0
H5481 H 0.85257 0.1586 0.24008 0.0
H5482 H 0.83843 0.1356 0.21148 0.0
H5483 H 0.78911 0.12855 0.23235 0.0
H5484 H 0.80301 0.15143 0.26115 0.0
H5485 H 0.84347 0.26506 0.29662 0.0
H5486 H 0.85588 0.23847 0.29308 0.0
H5487 H 0.80401 0.20348 0.28653 0.0
H5488 H 0.79155 0.23014 0.28928 0.0
H5489 H 0.81941 0.18697 0.26358 0.0
H5490 H 0.84267 0.21462 0.33094 0.0
H5491 H 0.8593 0.24044 0.35579 0.0
H5492 H 0.90495 0.24322 0.32833 0.0
H5493 H 0.88857 0.21749 0.30328 0.0
C5494 C 0.85464 0.11644 0.27143 0.0
C5495 C 0.87272 0.11687 0.2757 0.0
C5496 C 0.84814 0.13239 0.27429 0.0
C5497 C 0.85936 0.15007 0.28052 0.0
C5498 C 0.87751 0.1504 0.285 0.0
C5499 C 0.88395 0.13429 0.2829 0.0
C5500 C 0.85231 0.16777 0.28251 0.0
C5501 C 0.86059 0.18299 0.297 0.0
C5502 C 0.83734 0.17003 0.2702 0.0
C5503 C 0.82885 0.15657 0.25281 0.0
C5504 C 0.83872 0.1521 0.23856 0.0
C5505 C 0.83075 0.1391 0.22233 0.0
C5506 C 0.81289 0.13059 0.22013 0.0
C5507 C 0.80294 0.13514 0.23409 0.0
C5508 C 0.81084 0.14815 0.25035 0.0
C5509 C 0.8346 0.25175 0.2946 0.0
C5510 C 0.81629 0.25026 0.29352 0.0
C5511 C 0.84184 0.23623 0.2927 0.0
C5512 C 0.83125 0.21821 0.28996 0.0
C5513 C 0.81292 0.21678 0.28872 0.0
C5514 C 0.80567 0.2323 0.29044 0.0
C5515 C 0.83893 0.20104 0.2879 0.0
C5516 C 0.83076 0.18598 0.27336 0.0
C5517 C 0.85437 0.19927 0.29969 0.0
C5518 C 0.86438 0.21418 0.31521 0.0
C5519 C 0.85627 0.22072 0.33024 0.0
C5520 C 0.86564 0.23535 0.34434 0.0
C5521 C 0.88316 0.24348 0.34362 0.0
C5522 C 0.89139 0.23691 0.32888 0.0
C5523 C 0.88208 0.22227 0.31476 0.0
H5524 H 0.89037 0.25486 0.35449 0.0
H5525 H 0.80675 0.12049 0.20757 0.0
H5526 H 0.8022 0.14964 0.05872 0.0
H5527 H 0.77195 0.13408 0.05958 0.0
H5528 H 0.75394 0.15745 0.01085 0.0
H5529 H 0.78423 0.17383 0.01055 0.0
H5530 H 0.73332 0.15958 0.03669 0.0
H5531 H 0.75489 0.11134 0.00626 0.0
H5532 H 0.77688 0.09324 0.00329 0.0
H5533 H 0.76983 0.07684 0.05804 0.0
H5534 H 0.74792 0.095 0.06141 0.0
H5535 H 0.64661 0.1026 0.03322 0.0
H5536 H 0.67454 0.11812 0.02464 0.0
H5537 H 0.7028 0.09827 0.07017 0.0
H5538 H 0.6751 0.08229 0.07817 0.0
H5539 H 0.7169 0.09393 0.04033 0.0
H5540 H 0.69678 0.14455 0.07158 0.0
H5541 H 0.67639 0.16447 0.075 0.0
H5542 H 0.68107 0.17715 0.01831 0.0
H5543 H 0.70131 0.15713 0.01449 0.0
C5544 C 0.79186 0.15115 0.04791 0.0
C5545 C 0.79561 0.16274 0.0344 0.0
C5546 C 0.77453 0.14228 0.04844 0.0
C5547 C 0.76065 0.14434 0.03506 0.0
C5548 C 0.76441 0.15562 0.02128 0.0
C5549 C 0.78173 0.16482 0.02101 0.0
C5550 C 0.74223 0.13494 0.03582 0.0
C5551 C 0.72962 0.14516 0.03717 0.0
C5552 C 0.73739 0.11618 0.03653 0.0
C5553 C 0.74982 0.10451 0.03408 0.0
C5554 C 0.75802 0.10383 0.01763 0.0
C5555 C 0.77048 0.0936 0.0159 0.0
C5556 C 0.77475 0.0839 0.03047 0.0
C5557 C 0.76648 0.08433 0.04675 0.0
C5558 C 0.75401 0.09454 0.04856 0.0
C5559 C 0.65883 0.10161 0.04135 0.0
C5560 C 0.65872 0.09113 0.05626 0.0
C5561 C 0.67478 0.11056 0.03653 0.0
C5562 C 0.69085 0.10954 0.04687 0.0
C5563 C 0.69063 0.09921 0.06187 0.0
C5564 C 0.67478 0.09004 0.06643 0.0
C5565 C 0.70805 0.11866 0.04203 0.0
C5566 C 0.72046 0.10833 0.03969 0.0
C5567 C 0.71261 0.1373 0.04035 0.0
C5568 C 0.70035 0.14917 0.04266 0.0
C5569 C 0.69332 0.15146 0.05979 0.0
C5570 C 0.68182 0.1628 0.06181 0.0
C5571 C 0.67738 0.17201 0.04685 0.0
C5572 C 0.68447 0.16996 0.02987 0.0
C5573 C 0.69596 0.15863 0.02777 0.0
H5574 H 0.66848 0.18079 0.04845 0.0
H5575 H 0.78447 0.07605 0.02914 0.0
H5576 H 0.20393 0.47442 0.3078 0.0
H5577 H 0.22181 0.45218 0.30947 0.0
H5578 H 0.17472 0.40886 0.29476 0.0
H5579 H 0.15681 0.43123 0.29509 0.0
H5580 H 0.19599 0.39953 0.32007 0.0
H5581 H 0.20594 0.4251 0.26106 0.0
H5582 H 0.21519 0.45114 0.24439 0.0
H5583 H 0.26583 0.46556 0.28033 0.0
H5584 H 0.25682 0.43968 0.29728 0.0
H5585 H 0.22904 0.3263 0.28142 0.0
H5586 H 0.2156 0.35201 0.28193 0.0
H5587 H 0.26361 0.38736 0.31401 0.0
H5588 H 0.27758 0.36171 0.31272 0.0
H5589 H 0.24509 0.40236 0.28265 0.0
H5590 H 0.23075 0.38409 0.34674 0.0
H5591 H 0.22497 0.35774 0.36381 0.0
H5592 H 0.18536 0.32854 0.31619 0.0
H5593 H 0.19049 0.35479 0.29934 0.0
C5594 C 0.19742 0.46012 0.30513 0.0
C5595 C 0.17897 0.45455 0.3013 0.0
C5596 C 0.20768 0.44734 0.30588 0.0
C5597 C 0.19979 0.42858 0.30187 0.0
C5598 C 0.18128 0.4231 0.29814 0.0
C5599 C 0.17099 0.43591 0.29815 0.0
C5600 C 0.21063 0.41466 0.30141 0.0
C5601 C 0.20635 0.40002 0.31145 0.0
C5602 C 0.22508 0.41556 0.29118 0.0
C5603 C 0.23069 0.43056 0.28044 0.0
C5604 C 0.21905 0.43383 0.26535 0.0
C5605 C 0.22424 0.44856 0.25589 0.0
C5606 C 0.24108 0.46001 0.26131 0.0
C5607 C 0.2528 0.45668 0.27613 0.0
C5608 C 0.24768 0.44196 0.28564 0.0
C5609 C 0.23677 0.33946 0.28876 0.0
C5610 C 0.25433 0.34175 0.29737 0.0
C5611 C 0.22903 0.35422 0.28902 0.0
C5612 C 0.23844 0.37162 0.29835 0.0
C5613 C 0.25604 0.37408 0.30678 0.0
C5614 C 0.26394 0.35933 0.30622 0.0
C5615 C 0.2294 0.38682 0.30017 0.0
C5616 C 0.23432 0.40176 0.29081 0.0
C5617 C 0.2155 0.38623 0.31088 0.0
C5618 C 0.21083 0.37138 0.32196 0.0
C5619 C 0.22056 0.37211 0.34018 0.0
C5620 C 0.21742 0.35718 0.34979 0.0
C5621 C 0.20476 0.34142 0.34116 0.0
C5622 C 0.19512 0.34064 0.32297 0.0
C5623 C 0.19799 0.35562 0.31347 0.0
H5624 H 0.20247 0.32983 0.34856 0.0
H5625 H 0.24505 0.47145 0.25402 0.0
H5626 H 0.26528 0.49939 0.12958 0.0
H5627 H 0.23665 0.50345 0.11583 0.0
H5628 H 0.24391 0.48119 0.05923 0.0
H5629 H 0.27238 0.47659 0.07293 0.0
H5630 H 0.23595 0.51743 0.06449 0.0
H5631 H 0.21455 0.45645 0.07318 0.0
H5632 H 0.20992 0.42995 0.08993 0.0
H5633 H 0.18553 0.45757 0.13125 0.0
H5634 H 0.19027 0.48437 0.11492 0.0
H5635 H 0.15538 0.5358 0.02923 0.0
H5636 H 0.17788 0.5189 0.03335 0.0
H5637 H 0.17131 0.51817 0.09281 0.0
H5638 H 0.14743 0.53304 0.08821 0.0
H5639 H 0.17801 0.48868 0.08038 0.0
H5640 H 0.20478 0.55163 0.07555 0.0
H5641 H 0.20935 0.57836 0.05905 0.0
H5642 H 0.22398 0.54754 0.01147 0.0
H5643 H 0.21934 0.5206 0.02764 0.0
C5644 C 0.26076 0.49532 0.11422 0.0
C5645 C 0.27111 0.48787 0.10229 0.0
C5646 C 0.24436 0.49746 0.10644 0.0
C5647 C 0.2382 0.49246 0.08659 0.0
C5648 C 0.24846 0.48498 0.07462 0.0
C5649 C 0.2647 0.48246 0.08245 0.0
C5650 C 0.22181 0.49667 0.07826 0.0
C5651 C 0.22319 0.51094 0.06762 0.0
C5652 C 0.20532 0.48833 0.08266 0.0
C5653 C 0.20297 0.47251 0.09295 0.0
C5654 C 0.20844 0.45698 0.086 0.0
C5655 C 0.20573 0.44187 0.09538 0.0
C5656 C 0.19749 0.44209 0.11168 0.0
C5657 C 0.19195 0.45743 0.11865 0.0
C5658 C 0.19464 0.47258 0.10933 0.0
C5659 C 0.15835 0.53166 0.04306 0.0
C5660 C 0.14976 0.53624 0.05852 0.0
C5661 C 0.17147 0.52221 0.04548 0.0
C5662 C 0.17674 0.51778 0.06357 0.0
C5663 C 0.16766 0.52161 0.07874 0.0
C5664 C 0.15419 0.53049 0.07618 0.0
C5665 C 0.19221 0.51002 0.06725 0.0
C5666 C 0.1907 0.49507 0.07701 0.0
C5667 C 0.20868 0.5179 0.06228 0.0
C5668 C 0.21155 0.53411 0.05269 0.0
C5669 C 0.2089 0.55056 0.06153 0.0
C5670 C 0.2115 0.56574 0.05225 0.0
C5671 C 0.21691 0.56463 0.0342 0.0
C5672 C 0.21977 0.54837 0.02543 0.0
C5673 C 0.21717 0.53316 0.03465 0.0
H5674 H 0.21891 0.57639 0.02703 0.0
H5675 H 0.19536 0.43036 0.11889 0.0
H5676 H 0.8956 0.99835 0.26815 0.0
H5677 H 0.88119 0.96718 0.27075 0.0
H5678 H 0.83878 0.98584 0.29221 0.0
H5679 H 0.85304 0.01729 0.28899 0.0
H5680 H 0.85093 0.95956 0.3144 0.0
H5681 H 0.83253 0.96183 0.247 0.0
H5682 H 0.83775 0.96733 0.21447 0.0
H5683 H 0.8691 0.92823 0.21206 0.0
H5684 H 0.86429 0.92269 0.24471 0.0
H5685 H 0.79257 0.86974 0.30884 0.0
H5686 H 0.80507 0.90136 0.30484 0.0
H5687 H 0.84592 0.88432 0.27826 0.0
H5688 H 0.834 0.85304 0.28311 0.0
H5689 H 0.83455 0.90981 0.25838 0.0
H5690 H 0.85671 0.90738 0.32148 0.0
H5691 H 0.85824 0.90189 0.35506 0.0
H5692 H 0.82766 0.94058 0.36714 0.0
H5693 H 0.82566 0.94606 0.33344 0.0
C5694 C 0.88306 0.99598 0.2732 0.0
C5695 C 0.87564 0.01089 0.27805 0.0
C5696 C 0.87472 0.97784 0.27474 0.0
C5697 C 0.85859 0.97343 0.28173 0.0
C5698 C 0.85112 0.98831 0.28675 0.0
C5699 C 0.85929 0.00652 0.28472 0.0
C5700 C 0.84983 0.95356 0.28374 0.0
C5701 C 0.84695 0.94888 0.30196 0.0
C5702 C 0.84541 0.93878 0.26804 0.0
C5703 C 0.84816 0.94196 0.24836 0.0
C5704 C 0.84064 0.9545 0.23959 0.0
C5705 C 0.84351 0.95761 0.22112 0.0
C5706 C 0.85378 0.94817 0.21122 0.0
C5707 C 0.86116 0.93555 0.21975 0.0
C5708 C 0.85835 0.93241 0.23823 0.0
C5709 C 0.80411 0.87259 0.30196 0.0
C5710 C 0.81197 0.85828 0.29619 0.0
C5711 C 0.81145 0.89095 0.29975 0.0
C5712 C 0.82673 0.89593 0.29113 0.0
C5713 C 0.83422 0.88148 0.28489 0.0
C5714 C 0.82726 0.86331 0.28769 0.0
C5715 C 0.83499 0.9159 0.28895 0.0
C5716 C 0.83808 0.92055 0.27077 0.0
C5717 C 0.84024 0.93055 0.30479 0.0
C5718 C 0.84072 0.92686 0.32483 0.0
C5719 C 0.85003 0.91448 0.33119 0.0
C5720 C 0.85106 0.91143 0.35027 0.0
C5721 C 0.84297 0.92081 0.3632 0.0
C5722 C 0.83385 0.93327 0.35707 0.0
C5723 C 0.83274 0.93634 0.33797 0.0
H5724 H 0.84384 0.91848 0.378 0.0
H5725 H 0.85599 0.9506 0.19692 0.0
H5726 H 0.66074 0.06604 0.8342 0.0
H5727 H 0.67923 0.09617 0.83449 0.0
H5728 H 0.71607 0.07218 0.8069 0.0
H5729 H 0.69775 0.04191 0.80673 0.0
H5730 H 0.73241 0.10174 0.83483 0.0
H5731 H 0.68401 0.08571 0.78165 0.0
H5732 H 0.65261 0.07634 0.76792 0.0
H5733 H 0.64443 0.12535 0.79802 0.0
H5734 H 0.67572 0.1346 0.81276 0.0
H5735 H 0.77459 0.17028 0.78689 0.0
H5736 H 0.75878 0.1431 0.79743 0.0
H5737 H 0.72244 0.17234 0.81848 0.0
H5738 H 0.73832 0.19971 0.80815 0.0
H5739 H 0.7052 0.14152 0.79711 0.0
H5740 H 0.75179 0.15852 0.85012 0.0
H5741 H 0.78199 0.16764 0.8682 0.0
H5742 H 0.79272 0.11864 0.84129 0.0
H5743 H 0.76265 0.10933 0.82288 0.0
C5744 C 0.67293 0.06711 0.8285 0.0
C5745 C 0.67768 0.05154 0.82027 0.0
C5746 C 0.68344 0.08437 0.82862 0.0
C5747 C 0.69883 0.08639 0.8204 0.0
C5748 C 0.70418 0.07089 0.81325 0.0
C5749 C 0.69369 0.0536 0.81316 0.0
C5750 C 0.70879 0.10457 0.81811 0.0
C5751 C 0.72655 0.1104 0.82644 0.0
C5752 C 0.70089 0.11611 0.80775 0.0
C5753 C 0.68218 0.11073 0.7985 0.0
C5754 C 0.6755 0.09442 0.7855 0.0
C5755 C 0.6577 0.08913 0.77752 0.0
C5756 C 0.64651 0.10028 0.78201 0.0
C5757 C 0.65311 0.11672 0.79456 0.0
C5758 C 0.67086 0.12194 0.80281 0.0
C5759 C 0.76344 0.17107 0.79409 0.0
C5760 C 0.75769 0.1872 0.79657 0.0
C5761 C 0.75442 0.15549 0.80014 0.0
C5762 C 0.7395 0.15569 0.80889 0.0
C5763 C 0.73391 0.17185 0.81174 0.0
C5764 C 0.74294 0.18746 0.8057 0.0
C5765 C 0.729 0.13869 0.81364 0.0
C5766 C 0.7111 0.13301 0.80568 0.0
C5767 C 0.7367 0.12742 0.82459 0.0
C5768 C 0.75503 0.13333 0.83497 0.0
C5769 C 0.76067 0.1498 0.84786 0.0
C5770 C 0.77774 0.15498 0.85823 0.0
C5771 C 0.78928 0.14375 0.85586 0.0
C5772 C 0.78378 0.12734 0.84309 0.0
C5773 C 0.76672 0.1221 0.8327 0.0
H5774 H 0.80248 0.14774 0.86395 0.0
H5775 H 0.63272 0.09618 0.77578 0.0
loop_
_geom_bond_atom_site_label_1
_geom_bond_atom_site_label_2
_geom_bond_distance
_geom_bond_site_symmetry_2
_ccdc_geom_bond_type
O0 Cd1 2.223 . S
O0 C8 1.315 . S
Cd1 O0 2.223 . S
Cd1 O4 2.297 . S
Cd1 O5 2.439 . S
Cd1 O11 2.240 . S
Cd2 O3 2.240 . S
Cd2 O10 2.223 . S
Cd2 O12 2.297 . S
Cd2 O13 2.439 . S
O3 Cd2 2.240 . S
O3 C8 1.279 . S
O4 Cd1 2.297 . S
O4 C6 1.247 . S
O5 Cd1 2.439 . S
O5 C6 1.208 . S
C6 O4 1.247 . S
C6 O5 1.208 . S
C7 O12 1.247 . S
C7 O13 1.208 . S
C8 O0 1.315 . S
C8 O3 1.279 . S
C9 O10 1.315 . S
C9 O11 1.279 . S
O10 Cd2 2.223 . S
O10 C9 1.315 . S
O11 Cd1 2.240 . S
O11 C9 1.279 . S
O12 Cd2 2.297 . S
O12 C7 1.247 . S
O13 Cd2 2.439 . S
O13 C7 1.208 . S
O14 Cd15 2.213 1_455 S
O14 C22 1.313 1_455 S
Cd15 O14 2.213 1_655 S
Cd15 O18 2.297 . S
Cd15 O19 2.439 . S
Cd15 O25 2.240 1_655 S
Cd16 O17 2.240 1_455 S
Cd16 O24 2.223 . S
Cd16 O26 2.297 . S
Cd16 O27 2.432 1_455 S
O17 Cd16 2.240 1_655 S
O17 C22 1.279 . S
O18 Cd15 2.297 . S
O18 C20 1.247 . S
O19 Cd15 2.439 . S
O19 C20 1.208 . S
C20 O18 1.247 . S
C20 O19 1.208 . S
C21 O26 1.247 . S
C21 O27 1.200 1_455 S
C22 O14 1.313 1_655 S
C22 O17 1.279 . S
C23 O24 1.315 . S
C23 O25 1.279 . S
O24 Cd16 2.223 . S
O24 C23 1.315 . S
O25 Cd15 2.240 1_455 S
O25 C23 1.279 . S
O26 Cd16 2.297 . S
O26 C21 1.247 . S
O27 Cd16 2.432 1_655 S
O27 C21 1.200 1_655 S
O28 Cd29 2.223 . S
O28 C36 1.315 . S
Cd29 O28 2.223 . S
Cd29 O32 2.297 . S
Cd29 O33 2.439 . S
Cd29 O39 2.240 . S
Cd30 O31 2.240 . S
Cd30 O38 2.223 . S
Cd30 O40 2.297 . S
Cd30 O41 2.439 . S
O31 Cd30 2.240 . S
O31 C36 1.279 . S
O32 Cd29 2.297 . S
O32 C34 1.247 . S
O33 Cd29 2.439 . S
O33 C34 1.208 . S
C34 O32 1.247 . S
C34 O33 1.208 . S
C35 O40 1.247 . S
C35 O41 1.208 . S
C36 O28 1.315 . S
C36 O31 1.279 . S
C37 O38 1.315 . S
C37 O39 1.279 . S
O38 Cd30 2.223 . S
O38 C37 1.315 . S
O39 Cd29 2.240 . S
O39 C37 1.279 . S
O40 Cd30 2.297 . S
O40 C35 1.247 . S
O41 Cd30 2.439 . S
O41 C35 1.208 . S
O42 Cd43 2.223 . S
O42 C50 1.315 . S
Cd43 O42 2.223 . S
Cd43 O46 2.297 . S
Cd43 O47 2.439 . S
Cd43 O53 2.240 . S
Cd44 O45 2.240 . S
Cd44 O52 2.223 . S
Cd44 O54 2.297 . S
Cd44 O55 2.439 . S
O45 Cd44 2.240 . S
O45 C50 1.279 . S
O46 Cd43 2.297 . S
O46 C48 1.247 . S
O47 Cd43 2.439 . S
O47 C48 1.208 . S
C48 O46 1.247 . S
C48 O47 1.208 . S
C49 O54 1.247 . S
C49 O55 1.208 . S
C50 O42 1.315 . S
C50 O45 1.279 . S
C51 O52 1.315 . S
C51 O53 1.279 . S
O52 Cd44 2.223 . S
O52 C51 1.315 . S
O53 Cd43 2.240 . S
O53 C51 1.279 . S
O54 Cd44 2.297 . S
O54 C49 1.247 . S
O55 Cd44 2.439 . S
O55 C49 1.208 . S
O56 Cd57 2.223 . S
O56 C64 1.315 . S
Cd57 O56 2.223 . S
Cd57 O60 2.297 1_455 S
Cd57 O61 2.439 1_455 S
Cd57 O67 2.240 . S
Cd58 O59 2.240 . S
Cd58 O66 2.223 . S
Cd58 O68 2.297 . S
Cd58 O69 2.439 . S
O59 Cd58 2.240 . S
O59 C64 1.279 . S
O60 Cd57 2.297 1_655 S
O60 C62 1.247 . S
O61 Cd57 2.439 1_655 S
O61 C62 1.208 . S
C62 O60 1.247 . S
C62 O61 1.208 . S
C63 O68 1.247 . S
C63 O69 1.208 . S
C64 O56 1.315 . S
C64 O59 1.279 . S
C65 O66 1.315 . S
C65 O67 1.279 . S
O66 Cd58 2.223 . S
O66 C65 1.315 . S
O67 Cd57 2.240 . S
O67 C65 1.279 . S
O68 Cd58 2.297 . S
O68 C63 1.247 . S
O69 Cd58 2.439 . S
O69 C63 1.208 . S
O70 Cd71 2.223 . S
O70 C78 1.315 . S
Cd71 O70 2.223 . S
Cd71 O74 2.297 . S
Cd71 O75 2.439 . S
Cd71 O81 2.240 . S
Cd72 O73 2.240 . S
Cd72 O80 2.223 . S
Cd72 O82 2.297 . S
Cd72 O83 2.439 . S
O73 Cd72 2.240 . S
O73 C78 1.279 . S
O74 Cd71 2.297 . S
O74 C76 1.247 . S
O75 Cd71 2.439 . S
O75 C76 1.208 . S
C76 O74 1.247 . S
C76 O75 1.208 . S
C77 O82 1.247 . S
C77 O83 1.208 . S
C78 O70 1.315 . S
C78 O73 1.279 . S
C79 O80 1.315 . S
C79 O81 1.279 . S
O80 Cd72 2.223 . S
O80 C79 1.315 . S
O81 Cd71 2.240 . S
O81 C79 1.279 . S
O82 Cd72 2.297 . S
O82 C77 1.247 . S
O83 Cd72 2.439 . S
O83 C77 1.208 . S
O84 Cd85 2.223 . S
O84 C92 1.315 . S
Cd85 O84 2.223 . S
Cd85 O88 2.297 . S
Cd85 O89 2.439 . S
Cd85 O95 2.240 . S
Cd86 O87 2.240 . S
Cd86 O94 2.223 . S
Cd86 O96 2.297 . S
Cd86 O97 2.439 . S
O87 Cd86 2.240 . S
O87 C92 1.279 . S
O88 Cd85 2.297 . S
O88 C90 1.247 . S
O89 Cd85 2.439 . S
O89 C90 1.208 . S
C90 O88 1.247 . S
C90 O89 1.208 . S
C91 O96 1.247 . S
C91 O97 1.208 . S
C92 O84 1.315 . S
C92 O87 1.279 . S
C93 O94 1.315 . S
C93 O95 1.279 . S
O94 Cd86 2.223 . S
O94 C93 1.315 . S
O95 Cd85 2.240 . S
O95 C93 1.279 . S
O96 Cd86 2.297 . S
O96 C91 1.247 . S
O97 Cd86 2.439 . S
O97 C91 1.208 . S
O98 Cd99 2.223 . S
O98 C106 1.315 . S
Cd99 O98 2.223 . S
Cd99 O102 2.297 . S
Cd99 O103 2.439 . S
Cd99 O109 2.240 . S
Cd100 O101 2.240 . S
Cd100 O108 2.223 . S
Cd100 O110 2.297 . S
Cd100 O111 2.439 . S
O101 Cd100 2.240 . S
O101 C106 1.279 . S
O102 Cd99 2.297 . S
O102 C104 1.247 . S
O103 Cd99 2.439 . S
O103 C104 1.208 . S
C104 O102 1.247 . S
C104 O103 1.208 . S
C105 O110 1.247 . S
C105 O111 1.208 . S
C106 O98 1.315 . S
C106 O101 1.279 . S
C107 O108 1.315 . S
C107 O109 1.279 . S
O108 Cd100 2.223 . S
O108 C107 1.315 . S
O109 Cd99 2.240 . S
O109 C107 1.279 . S
O110 Cd100 2.297 . S
O110 C105 1.247 . S
O111 Cd100 2.439 . S
O111 C105 1.208 . S
O112 Cd113 2.223 . S
O112 C120 1.315 . S
Cd113 O112 2.223 . S
Cd113 O116 2.297 . S
Cd113 O117 2.439 . S
Cd113 O123 2.240 . S
Cd114 O115 2.240 . S
Cd114 O122 2.223 . S
Cd114 O124 2.297 . S
Cd114 O125 2.439 . S
O115 Cd114 2.240 . S
O115 C120 1.279 . S
O116 Cd113 2.297 . S
O116 C118 1.247 . S
O117 Cd113 2.439 . S
O117 C118 1.208 . S
C118 O116 1.247 . S
C118 O117 1.208 . S
C119 O124 1.247 . S
C119 O125 1.208 . S
C120 O112 1.315 . S
C120 O115 1.279 . S
C121 O122 1.315 . S
C121 O123 1.279 . S
O122 Cd114 2.223 . S
O122 C121 1.315 . S
O123 Cd113 2.240 . S
O123 C121 1.279 . S
O124 Cd114 2.297 . S
O124 C119 1.247 . S
O125 Cd114 2.439 . S
O125 C119 1.208 . S
O126 Cd127 2.223 . S
O126 C134 1.315 . S
Cd127 O126 2.223 . S
Cd127 O130 2.297 . S
Cd127 O131 2.439 . S
Cd127 O137 2.240 . S
Cd128 O129 2.240 . S
Cd128 O136 2.223 . S
Cd128 O138 2.297 . S
Cd128 O139 2.439 . S
O129 Cd128 2.240 . S
O129 C134 1.279 . S
O130 Cd127 2.297 . S
O130 C132 1.247 . S
O131 Cd127 2.439 . S
O131 C132 1.208 . S
C132 O130 1.247 . S
C132 O131 1.208 . S
C133 O138 1.247 . S
C133 O139 1.208 . S
C134 O126 1.315 . S
C134 O129 1.279 . S
C135 O136 1.315 . S
C135 O137 1.279 . S
O136 Cd128 2.223 . S
O136 C135 1.315 . S
O137 Cd127 2.240 . S
O137 C135 1.279 . S
O138 Cd128 2.297 . S
O138 C133 1.247 . S
O139 Cd128 2.439 . S
O139 C133 1.208 . S
O140 Cd141 2.223 . S
O140 C148 1.315 . S
Cd141 O140 2.223 . S
Cd141 O144 2.297 1_545 S
Cd141 O145 2.439 1_545 S
Cd141 O151 2.240 . S
Cd142 O143 2.240 . S
Cd142 O150 2.223 . S
Cd142 O152 2.297 . S
Cd142 O153 2.439 . S
O143 Cd142 2.240 . S
O143 C148 1.279 . S
O144 Cd141 2.297 1_565 S
O144 C146 1.247 . S
O145 Cd141 2.439 1_565 S
O145 C146 1.208 . S
C146 O144 1.247 . S
C146 O145 1.208 . S
C147 O152 1.247 . S
C147 O153 1.208 . S
C148 O140 1.315 . S
C148 O143 1.279 . S
C149 O150 1.315 . S
C149 O151 1.279 . S
O150 Cd142 2.223 . S
O150 C149 1.315 . S
O151 Cd141 2.240 . S
O151 C149 1.279 . S
O152 Cd142 2.297 . S
O152 C147 1.247 . S
O153 Cd142 2.439 . S
O153 C147 1.208 . S
O154 Cd155 2.223 . S
O154 C162 1.315 . S
Cd155 O154 2.223 . S
Cd155 O158 2.297 . S
Cd155 O159 2.439 . S
Cd155 O165 2.240 . S
Cd156 O157 2.240 . S
Cd156 O164 2.223 . S
Cd156 O166 2.297 . S
Cd156 O167 2.439 . S
O157 Cd156 2.240 . S
O157 C162 1.279 . S
O158 Cd155 2.297 . S
O158 C160 1.247 . S
O159 Cd155 2.439 . S
O159 C160 1.208 . S
C160 O158 1.247 . S
C160 O159 1.208 . S
C161 O166 1.247 . S
C161 O167 1.208 . S
C162 O154 1.315 . S
C162 O157 1.279 . S
C163 O164 1.315 . S
C163 O165 1.279 . S
O164 Cd156 2.223 . S
O164 C163 1.315 . S
O165 Cd155 2.240 . S
O165 C163 1.279 . S
O166 Cd156 2.297 . S
O166 C161 1.247 . S
O167 Cd156 2.439 . S
O167 C161 1.208 . S
O168 Cd169 2.223 . S
O168 C176 1.315 . S
Cd169 O168 2.223 . S
Cd169 O172 2.297 . S
Cd169 O173 2.439 . S
Cd169 O179 2.240 . S
Cd170 O171 2.240 . S
Cd170 O178 2.223 . S
Cd170 O180 2.297 . S
Cd170 O181 2.439 . S
O171 Cd170 2.240 . S
O171 C176 1.279 . S
O172 Cd169 2.297 . S
O172 C174 1.247 . S
O173 Cd169 2.439 . S
O173 C174 1.208 . S
C174 O172 1.247 . S
C174 O173 1.208 . S
C175 O180 1.247 . S
C175 O181 1.208 . S
C176 O168 1.315 . S
C176 O171 1.279 . S
C177 O178 1.315 . S
C177 O179 1.279 . S
O178 Cd170 2.223 . S
O178 C177 1.315 . S
O179 Cd169 2.240 . S
O179 C177 1.279 . S
O180 Cd170 2.297 . S
O180 C175 1.247 . S
O181 Cd170 2.439 . S
O181 C175 1.208 . S
O182 Cd183 2.223 . S
O182 C190 1.315 . S
Cd183 O182 2.223 . S
Cd183 O186 2.297 . S
Cd183 O187 2.439 . S
Cd183 O193 2.240 . S
Cd184 O185 2.240 . S
Cd184 O192 2.223 . S
Cd184 O194 2.297 1_554 S
Cd184 O195 2.439 1_554 S
O185 Cd184 2.240 . S
O185 C190 1.279 . S
O186 Cd183 2.297 . S
O186 C188 1.247 . S
O187 Cd183 2.439 . S
O187 C188 1.208 . S
C188 O186 1.247 . S
C188 O187 1.208 . S
C189 O194 1.247 . S
C189 O195 1.208 . S
C190 O182 1.315 . S
C190 O185 1.279 . S
C191 O192 1.315 . S
C191 O193 1.279 . S
O192 Cd184 2.223 . S
O192 C191 1.315 . S
O193 Cd183 2.240 . S
O193 C191 1.279 . S
O194 Cd184 2.297 1_556 S
O194 C189 1.247 . S
O195 Cd184 2.439 1_556 S
O195 C189 1.208 . S
O196 Cd197 2.223 . S
O196 C204 1.315 . S
Cd197 O196 2.223 . S
Cd197 O200 2.297 . S
Cd197 O201 2.439 . S
Cd197 O207 2.240 . S
Cd198 O199 2.240 . S
Cd198 O206 2.223 . S
Cd198 O208 2.297 . S
Cd198 O209 2.439 . S
O199 Cd198 2.240 . S
O199 C204 1.279 . S
O200 Cd197 2.297 . S
O200 C202 1.247 . S
O201 Cd197 2.439 . S
O201 C202 1.208 . S
C202 O200 1.247 . S
C202 O201 1.208 . S
C203 O208 1.247 . S
C203 O209 1.208 . S
C204 O196 1.315 . S
C204 O199 1.279 . S
C205 O206 1.315 . S
C205 O207 1.279 . S
O206 Cd198 2.223 . S
O206 C205 1.315 . S
O207 Cd197 2.240 . S
O207 C205 1.279 . S
O208 Cd198 2.297 . S
O208 C203 1.247 . S
O209 Cd198 2.439 . S
O209 C203 1.208 . S
O210 Cd211 2.223 . S
O210 C218 1.315 . S
Cd211 O210 2.223 . S
Cd211 O214 2.297 . S
Cd211 O215 2.439 . S
Cd211 O221 2.240 . S
Cd212 O213 2.240 . S
Cd212 O220 2.223 . S
Cd212 O222 2.297 . S
Cd212 O223 2.439 . S
O213 Cd212 2.240 . S
O213 C218 1.279 . S
O214 Cd211 2.297 . S
O214 C216 1.247 . S
O215 Cd211 2.439 . S
O215 C216 1.208 . S
C216 O214 1.247 . S
C216 O215 1.208 . S
C217 O222 1.247 . S
C217 O223 1.208 . S
C218 O210 1.315 . S
C218 O213 1.279 . S
C219 O220 1.315 . S
C219 O221 1.279 . S
O220 Cd212 2.223 . S
O220 C219 1.315 . S
O221 Cd211 2.240 . S
O221 C219 1.279 . S
O222 Cd212 2.297 . S
O222 C217 1.247 . S
O223 Cd212 2.439 . S
O223 C217 1.208 . S
O224 Cd225 2.223 . S
O224 C232 1.315 . S
Cd225 O224 2.223 . S
Cd225 O228 2.297 . S
Cd225 O229 2.439 . S
Cd225 O235 2.240 . S
Cd226 O227 2.240 . S
Cd226 O234 2.223 . S
Cd226 O236 2.297 . S
Cd226 O237 2.439 . S
O227 Cd226 2.240 . S
O227 C232 1.279 . S
O228 Cd225 2.297 . S
O228 C230 1.247 . S
O229 Cd225 2.439 . S
O229 C230 1.208 . S
C230 O228 1.247 . S
C230 O229 1.208 . S
C231 O236 1.247 . S
C231 O237 1.208 . S
C232 O224 1.315 . S
C232 O227 1.279 . S
C233 O234 1.315 . S
C233 O235 1.279 . S
O234 Cd226 2.223 . S
O234 C233 1.315 . S
O235 Cd225 2.240 . S
O235 C233 1.279 . S
O236 Cd226 2.297 . S
O236 C231 1.247 . S
O237 Cd226 2.439 . S
O237 C231 1.208 . S
O238 Cd239 2.223 . S
O238 C246 1.315 . S
Cd239 O238 2.223 . S
Cd239 O242 2.297 . S
Cd239 O243 2.439 . S
Cd239 O249 2.240 . S
Cd240 O241 2.240 . S
Cd240 O248 2.223 . S
Cd240 O250 2.297 . S
Cd240 O251 2.439 . S
O241 Cd240 2.240 . S
O241 C246 1.279 . S
O242 Cd239 2.297 . S
O242 C244 1.247 . S
O243 Cd239 2.439 . S
O243 C244 1.208 . S
C244 O242 1.247 . S
C244 O243 1.208 . S
C245 O250 1.247 . S
C245 O251 1.208 . S
C246 O238 1.315 . S
C246 O241 1.279 . S
C247 O248 1.315 . S
C247 O249 1.279 . S
O248 Cd240 2.223 . S
O248 C247 1.315 . S
O249 Cd239 2.240 . S
O249 C247 1.279 . S
O250 Cd240 2.297 . S
O250 C245 1.247 . S
O251 Cd240 2.439 . S
O251 C245 1.208 . S
O252 Cd253 2.223 . S
O252 C260 1.315 . S
Cd253 O252 2.223 . S
Cd253 O256 2.297 . S
Cd253 O257 2.439 . S
Cd253 O263 2.240 . S
Cd254 O255 2.240 . S
Cd254 O262 2.223 . S
Cd254 O264 2.297 . S
Cd254 O265 2.439 . S
O255 Cd254 2.240 . S
O255 C260 1.279 . S
O256 Cd253 2.297 . S
O256 C258 1.247 . S
O257 Cd253 2.439 . S
O257 C258 1.208 . S
C258 O256 1.247 . S
C258 O257 1.208 . S
C259 O264 1.247 . S
C259 O265 1.208 . S
C260 O252 1.315 . S
C260 O255 1.279 . S
C261 O262 1.315 . S
C261 O263 1.279 . S
O262 Cd254 2.223 . S
O262 C261 1.315 . S
O263 Cd253 2.240 . S
O263 C261 1.279 . S
O264 Cd254 2.297 . S
O264 C259 1.247 . S
O265 Cd254 2.439 . S
O265 C259 1.208 . S
O266 Cd267 2.202 1_545 S
O266 C274 1.315 1_545 S
Cd267 O266 2.202 1_565 S
Cd267 O270 2.350 . S
Cd267 O271 2.486 . S
Cd267 O277 2.196 1_565 S
Cd268 O269 2.240 1_545 S
Cd268 O276 2.223 . S
Cd268 O278 2.297 . S
Cd268 O279 2.439 1_545 S
O269 Cd268 2.240 1_565 S
O269 C274 1.298 . S
O270 Cd267 2.350 . S
O270 C272 1.247 . S
O271 Cd267 2.486 . S
O271 C272 1.208 . S
C272 O270 1.247 . S
C272 O271 1.208 . S
C273 O278 1.247 . S
C273 O279 1.208 1_545 S
C274 O266 1.315 1_565 S
C274 O269 1.298 . S
C275 O276 1.315 . S
C275 O277 1.279 . S
O276 Cd268 2.223 . S
O276 C275 1.315 . S
O277 Cd267 2.196 1_545 S
O277 C275 1.279 . S
O278 Cd268 2.297 . S
O278 C273 1.247 . S
O279 Cd268 2.439 1_565 S
O279 C273 1.208 1_565 S
O280 Cd281 2.223 . S
O280 C288 1.315 . S
Cd281 O280 2.223 . S
Cd281 O284 2.297 . S
Cd281 O285 2.439 1_554 S
Cd281 O291 2.240 1_554 S
Cd282 O283 2.240 1_556 S
Cd282 O290 2.223 1_556 S
Cd282 O292 2.297 . S
Cd282 O293 2.439 . S
O283 Cd282 2.240 1_554 S
O283 C288 1.279 . S
O284 Cd281 2.297 . S
O284 C286 1.247 . S
O285 Cd281 2.439 1_556 S
O285 C286 1.208 1_556 S
C286 O284 1.247 . S
C286 O285 1.208 1_554 S
C287 O292 1.247 . S
C287 O293 1.208 . S
C288 O280 1.315 . S
C288 O283 1.279 . S
C289 O290 1.315 1_556 S
C289 O291 1.279 . S
O290 Cd282 2.223 1_554 S
O290 C289 1.315 1_554 S
O291 Cd281 2.240 1_556 S
O291 C289 1.279 . S
O292 Cd282 2.297 . S
O292 C287 1.247 . S
O293 Cd282 2.439 . S
O293 C287 1.208 . S
O294 Cd295 2.223 . S
O294 C302 1.315 . S
Cd295 O294 2.223 . S
Cd295 O298 2.297 . S
Cd295 O299 2.439 . S
Cd295 O305 2.240 . S
Cd296 O297 2.240 . S
Cd296 O304 2.223 . S
Cd296 O306 2.297 . S
Cd296 O307 2.439 . S
O297 Cd296 2.240 . S
O297 C302 1.279 . S
O298 Cd295 2.297 . S
O298 C300 1.247 . S
O299 Cd295 2.439 . S
O299 C300 1.208 . S
C300 O298 1.247 . S
C300 O299 1.208 . S
C301 O306 1.247 . S
C301 O307 1.208 . S
C302 O294 1.315 . S
C302 O297 1.279 . S
C303 O304 1.315 . S
C303 O305 1.279 . S
O304 Cd296 2.223 . S
O304 C303 1.315 . S
O305 Cd295 2.240 . S
O305 C303 1.279 . S
O306 Cd296 2.297 . S
O306 C301 1.247 . S
O307 Cd296 2.439 . S
O307 C301 1.208 . S
O308 Cd309 2.223 . S
O308 C316 1.315 . S
Cd309 O308 2.223 . S
Cd309 O312 2.297 . S
Cd309 O313 2.439 . S
Cd309 O319 2.240 . S
Cd310 O311 2.240 . S
Cd310 O318 2.223 . S
Cd310 O320 2.297 . S
Cd310 O321 2.439 . S
O311 Cd310 2.240 . S
O311 C316 1.279 . S
O312 Cd309 2.297 . S
O312 C314 1.247 . S
O313 Cd309 2.439 . S
O313 C314 1.208 . S
C314 O312 1.247 . S
C314 O313 1.208 . S
C315 O320 1.247 . S
C315 O321 1.208 . S
C316 O308 1.315 . S
C316 O311 1.279 . S
C317 O318 1.315 . S
C317 O319 1.279 . S
O318 Cd310 2.223 . S
O318 C317 1.315 . S
O319 Cd309 2.240 . S
O319 C317 1.279 . S
O320 Cd310 2.297 . S
O320 C315 1.247 . S
O321 Cd310 2.439 . S
O321 C315 1.208 . S
O322 Cd323 2.223 . S
O322 C330 1.315 . S
Cd323 O322 2.223 . S
Cd323 O326 2.297 . S
Cd323 O327 2.439 . S
Cd323 O333 2.240 . S
Cd324 O325 2.240 . S
Cd324 O332 2.223 . S
Cd324 O334 2.297 . S
Cd324 O335 2.439 . S
O325 Cd324 2.240 . S
O325 C330 1.279 . S
O326 Cd323 2.297 . S
O326 C328 1.247 . S
O327 Cd323 2.439 . S
O327 C328 1.208 . S
C328 O326 1.247 . S
C328 O327 1.208 . S
C329 O334 1.247 . S
C329 O335 1.208 . S
C330 O322 1.315 . S
C330 O325 1.279 . S
C331 O332 1.315 . S
C331 O333 1.279 . S
O332 Cd324 2.223 . S
O332 C331 1.315 . S
O333 Cd323 2.240 . S
O333 C331 1.279 . S
O334 Cd324 2.297 . S
O334 C329 1.247 . S
O335 Cd324 2.439 . S
O335 C329 1.208 . S
Nd336 C338 2.836 . S
Nd336 O356 2.500 . S
Nd336 O357 2.492 . S
Nd336 O358 2.487 . S
Nd336 O359 2.682 . S
Nd336 O360 2.410 . S
Nd336 O365 2.414 . S
Nd336 O367 2.424 . S
Nd337 C347 2.836 1_545 S
Nd337 O359 2.414 . S
Nd337 O361 2.424 1_455 S
Nd337 O362 2.500 . S
Nd337 O363 2.492 . S
Nd337 O364 2.487 . S
Nd337 O365 2.682 . S
Nd337 O366 2.410 . S
C338 Nd336 2.836 . S
C338 C339 1.498 . S
C338 O356 1.258 . S
C338 O357 1.239 . S
C339 C338 1.498 . S
C339 C340 1.366 . S
C339 C344 1.407 . S
C340 C339 1.366 . S
C340 C341 1.392 . S
C340 H368 0.930 . S
C341 C340 1.392 . S
C341 C342 1.398 . S
C341 H369 0.929 . S
C342 C341 1.398 . S
C342 C343 1.352 . S
C343 C342 1.352 . S
C343 C344 1.384 . S
C343 H370 0.930 . S
C344 C339 1.407 . S
C344 C343 1.384 . S
C344 H371 0.929 . S
C345 O358 1.241 . S
C345 O359 1.273 . S
C346 O360 1.251 . S
C346 O361 1.268 1_455 S
C347 Nd337 2.836 1_565 S
C347 C348 1.498 . S
C347 O362 1.258 1_565 S
C347 O363 1.239 1_565 S
C348 C347 1.498 . S
C348 C349 1.366 . S
C348 C353 1.407 . S
C349 C348 1.366 . S
C349 C350 1.392 . S
C349 H372 0.930 . S
C350 C349 1.392 . S
C350 C351 1.398 . S
C350 H373 0.929 . S
C351 C350 1.398 . S
C351 C352 1.352 . S
C352 C351 1.352 . S
C352 C353 1.384 . S
C352 H374 0.930 . S
C353 C348 1.407 . S
C353 C352 1.384 . S
C353 H375 0.929 . S
C354 O364 1.241 . S
C354 O365 1.273 . S
C355 O366 1.251 . S
C355 O367 1.268 . S
O356 Nd336 2.500 . S
O356 C338 1.258 . S
O357 Nd336 2.492 . S
O357 C338 1.239 . S
O358 Nd336 2.487 . S
O358 C345 1.241 . S
O359 Nd336 2.682 . S
O359 Nd337 2.414 . S
O359 C345 1.273 . S
O360 Nd336 2.410 . S
O360 C346 1.251 . S
O361 Nd337 2.424 1_655 S
O361 C346 1.268 1_655 S
O362 Nd337 2.500 . S
O362 C347 1.258 1_545 S
O363 Nd337 2.492 . S
O363 C347 1.239 1_545 S
O364 Nd337 2.487 . S
O364 C354 1.241 . S
O365 Nd336 2.414 . S
O365 Nd337 2.682 . S
O365 C354 1.273 . S
O366 Nd337 2.410 . S
O366 C355 1.251 . S
O367 Nd336 2.424 . S
O367 C355 1.268 . S
H368 C340 0.930 . S
H369 C341 0.929 . S
H370 C343 0.930 . S
H371 C344 0.929 . S
H372 C349 0.930 . S
H373 C350 0.929 . S
H374 C352 0.930 . S
H375 C353 0.929 . S
Nd376 C378 2.836 . S
Nd376 O396 2.500 . S
Nd376 O397 2.492 . S
Nd376 O398 2.487 . S
Nd376 O399 2.682 . S
Nd376 O400 2.410 . S
Nd376 O405 2.414 . S
Nd376 O407 2.424 . S
Nd377 C387 2.836 . S
Nd377 O399 2.414 . S
Nd377 O401 2.424 . S
Nd377 O402 2.500 . S
Nd377 O403 2.492 . S
Nd377 O404 2.487 . S
Nd377 O405 2.682 . S
Nd377 O406 2.410 . S
C378 Nd376 2.836 . S
C378 C379 1.498 . S
C378 O396 1.258 . S
C378 O397 1.239 . S
C379 C378 1.498 . S
C379 C380 1.366 . S
C379 C384 1.407 . S
C380 C379 1.366 . S
C380 C381 1.392 . S
C380 H408 0.930 . S
C381 C380 1.392 . S
C381 C382 1.398 . S
C381 H409 0.929 . S
C382 C381 1.398 . S
C382 C383 1.352 . S
C383 C382 1.352 . S
C383 C384 1.384 . S
C383 H410 0.930 . S
C384 C379 1.407 . S
C384 C383 1.384 . S
C384 H411 0.929 . S
C385 O398 1.241 . S
C385 O399 1.273 . S
C386 O400 1.251 . S
C386 O401 1.268 . S
C387 Nd377 2.836 . S
C387 C388 1.498 . S
C387 O402 1.258 . S
C387 O403 1.239 . S
C388 C387 1.498 . S
C388 C389 1.366 . S
C388 C393 1.407 . S
C389 C388 1.366 . S
C389 C390 1.392 . S
C389 H412 0.930 . S
C390 C389 1.392 . S
C390 C391 1.398 . S
C390 H413 0.929 . S
C391 C390 1.398 . S
C391 C392 1.352 . S
C392 C391 1.352 . S
C392 C393 1.384 . S
C392 H414 0.930 . S
C393 C388 1.407 . S
C393 C392 1.384 . S
C393 H415 0.929 . S
C394 O404 1.241 . S
C394 O405 1.273 . S
C395 O406 1.251 . S
C395 O407 1.268 . S
O396 Nd376 2.500 . S
O396 C378 1.258 . S
O397 Nd376 2.492 . S
O397 C378 1.239 . S
O398 Nd376 2.487 . S
O398 C385 1.241 . S
O399 Nd376 2.682 . S
O399 Nd377 2.414 . S
O399 C385 1.273 . S
O400 Nd376 2.410 . S
O400 C386 1.251 . S
O401 Nd377 2.424 . S
O401 C386 1.268 . S
O402 Nd377 2.500 . S
O402 C387 1.258 . S
O403 Nd377 2.492 . S
O403 C387 1.239 . S
O404 Nd377 2.487 . S
O404 C394 1.241 . S
O405 Nd376 2.414 . S
O405 Nd377 2.682 . S
O405 C394 1.273 . S
O406 Nd377 2.410 . S
O406 C395 1.251 . S
O407 Nd376 2.424 . S
O407 C395 1.268 . S
H408 C380 0.930 . S
H409 C381 0.929 . S
H410 C383 0.930 . S
H411 C384 0.929 . S
H412 C389 0.930 . S
H413 C390 0.929 . S
H414 C392 0.930 . S
H415 C393 0.929 . S
Nd416 C418 2.836 . S
Nd416 O436 2.500 . S
Nd416 O437 2.492 . S
Nd416 O438 2.487 . S
Nd416 O439 2.682 . S
Nd416 O440 2.410 . S
Nd416 O445 2.414 . S
Nd416 O447 2.424 . S
Nd417 C427 2.836 . S
Nd417 O439 2.414 . S
Nd417 O441 2.424 . S
Nd417 O442 2.500 . S
Nd417 O443 2.492 . S
Nd417 O444 2.487 . S
Nd417 O445 2.682 . S
Nd417 O446 2.410 . S
C418 Nd416 2.836 . S
C418 C419 1.498 . S
C418 O436 1.258 . S
C418 O437 1.239 . S
C419 C418 1.498 . S
C419 C420 1.366 . S
C419 C424 1.407 . S
C420 C419 1.366 . S
C420 C421 1.392 . S
C420 H448 0.930 . S
C421 C420 1.392 . S
C421 C422 1.398 . S
C421 H449 0.929 . S
C422 C421 1.398 . S
C422 C423 1.352 . S
C423 C422 1.352 . S
C423 C424 1.384 . S
C423 H450 0.930 . S
C424 C419 1.407 . S
C424 C423 1.384 . S
C424 H451 0.929 . S
C425 O438 1.241 . S
C425 O439 1.273 . S
C426 O440 1.251 . S
C426 O441 1.268 . S
C427 Nd417 2.836 . S
C427 C428 1.498 . S
C427 O442 1.258 . S
C427 O443 1.239 . S
C428 C427 1.498 . S
C428 C429 1.366 . S
C428 C433 1.407 . S
C429 C428 1.366 . S
C429 C430 1.392 . S
C429 H452 0.930 . S
C430 C429 1.392 . S
C430 C431 1.398 . S
C430 H453 0.929 . S
C431 C430 1.398 . S
C431 C432 1.352 . S
C432 C431 1.352 . S
C432 C433 1.384 . S
C432 H454 0.930 . S
C433 C428 1.407 . S
C433 C432 1.384 . S
C433 H455 0.929 . S
C434 O444 1.241 . S
C434 O445 1.273 . S
C435 O446 1.251 . S
C435 O447 1.268 . S
O436 Nd416 2.500 . S
O436 C418 1.258 . S
O437 Nd416 2.492 . S
O437 C418 1.239 . S
O438 Nd416 2.487 . S
O438 C425 1.241 . S
O439 Nd416 2.682 . S
O439 Nd417 2.414 . S
O439 C425 1.273 . S
O440 Nd416 2.410 . S
O440 C426 1.251 . S
O441 Nd417 2.424 . S
O441 C426 1.268 . S
O442 Nd417 2.500 . S
O442 C427 1.258 . S
O443 Nd417 2.492 . S
O443 C427 1.239 . S
O444 Nd417 2.487 . S
O444 C434 1.241 . S
O445 Nd416 2.414 . S
O445 Nd417 2.682 . S
O445 C434 1.273 . S
O446 Nd417 2.410 . S
O446 C435 1.251 . S
O447 Nd416 2.424 . S
O447 C435 1.268 . S
H448 C420 0.930 . S
H449 C421 0.929 . S
H450 C423 0.930 . S
H451 C424 0.929 . S
H452 C429 0.930 . S
H453 C430 0.929 . S
H454 C432 0.930 . S
H455 C433 0.929 . S
Nd456 C458 2.836 . S
Nd456 O476 2.500 . S
Nd456 O477 2.492 . S
Nd456 O478 2.487 . S
Nd456 O479 2.682 . S
Nd456 O480 2.410 . S
Nd456 O485 2.414 . S
Nd456 O487 2.424 . S
Nd457 C467 2.836 . S
Nd457 O479 2.414 . S
Nd457 O481 2.424 . S
Nd457 O482 2.500 . S
Nd457 O483 2.492 . S
Nd457 O484 2.487 . S
Nd457 O485 2.682 . S
Nd457 O486 2.410 . S
C458 Nd456 2.836 . S
C458 C459 1.498 . S
C458 O476 1.258 . S
C458 O477 1.239 . S
C459 C458 1.498 . S
C459 C460 1.366 . S
C459 C464 1.407 . S
C460 C459 1.366 . S
C460 C461 1.392 . S
C460 H488 0.930 . S
C461 C460 1.392 . S
C461 C462 1.398 . S
C461 H489 0.929 . S
C462 C461 1.398 . S
C462 C463 1.352 . S
C463 C462 1.352 . S
C463 C464 1.384 . S
C463 H490 0.930 . S
C464 C459 1.407 . S
C464 C463 1.384 . S
C464 H491 0.929 . S
C465 O478 1.241 . S
C465 O479 1.273 . S
C466 O480 1.251 . S
C466 O481 1.268 . S
C467 Nd457 2.836 . S
C467 C468 1.498 . S
C467 O482 1.258 . S
C467 O483 1.239 . S
C468 C467 1.498 . S
C468 C469 1.366 . S
C468 C473 1.407 . S
C469 C468 1.366 . S
C469 C470 1.392 . S
C469 H492 0.930 . S
C470 C469 1.392 . S
C470 C471 1.398 . S
C470 H493 0.929 . S
C471 C470 1.398 . S
C471 C472 1.352 . S
C472 C471 1.352 . S
C472 C473 1.384 . S
C472 H494 0.930 . S
C473 C468 1.407 . S
C473 C472 1.384 . S
C473 H495 0.929 . S
C474 O484 1.241 . S
C474 O485 1.273 . S
C475 O486 1.251 . S
C475 O487 1.268 . S
O476 Nd456 2.500 . S
O476 C458 1.258 . S
O477 Nd456 2.492 . S
O477 C458 1.239 . S
O478 Nd456 2.487 . S
O478 C465 1.241 . S
O479 Nd456 2.682 . S
O479 Nd457 2.414 . S
O479 C465 1.273 . S
O480 Nd456 2.410 . S
O480 C466 1.251 . S
O481 Nd457 2.424 . S
O481 C466 1.268 . S
O482 Nd457 2.500 . S
O482 C467 1.258 . S
O483 Nd457 2.492 . S
O483 C467 1.239 . S
O484 Nd457 2.487 . S
O484 C474 1.241 . S
O485 Nd456 2.414 . S
O485 Nd457 2.682 . S
O485 C474 1.273 . S
O486 Nd457 2.410 . S
O486 C475 1.251 . S
O487 Nd456 2.424 . S
O487 C475 1.268 . S
H488 C460 0.930 . S
H489 C461 0.929 . S
H490 C463 0.930 . S
H491 C464 0.929 . S
H492 C469 0.930 . S
H493 C470 0.929 . S
H494 C472 0.930 . S
H495 C473 0.929 . S
Nd496 C498 2.836 . S
Nd496 O516 2.500 . S
Nd496 O517 2.492 . S
Nd496 O518 2.487 . S
Nd496 O519 2.682 . S
Nd496 O520 2.410 . S
Nd496 O525 2.414 . S
Nd496 O527 2.424 . S
Nd497 C507 2.836 1_545 S
Nd497 O519 2.414 . S
Nd497 O521 2.424 . S
Nd497 O522 2.500 . S
Nd497 O523 2.492 1_545 S
Nd497 O524 2.487 . S
Nd497 O525 2.682 . S
Nd497 O526 2.410 . S
C498 Nd496 2.836 . S
C498 C499 1.498 . S
C498 O516 1.258 . S
C498 O517 1.239 . S
C499 C498 1.498 . S
C499 C500 1.366 . S
C499 C504 1.407 . S
C500 C499 1.366 . S
C500 C501 1.392 . S
C500 H528 0.930 . S
C501 C500 1.392 . S
C501 C502 1.398 . S
C501 H529 0.929 1_455 S
C502 C501 1.398 . S
C502 C503 1.352 . S
C503 C502 1.352 . S
C503 C504 1.384 . S
C503 H530 0.930 . S
C504 C499 1.407 . S
C504 C503 1.384 . S
C504 H531 0.929 . S
C505 O518 1.241 . S
C505 O519 1.273 . S
C506 O520 1.251 . S
C506 O521 1.268 . S
C507 Nd497 2.836 1_565 S
C507 C508 1.498 . S
C507 O522 1.258 1_565 S
C507 O523 1.239 . S
C508 C507 1.498 . S
C508 C509 1.366 . S
C508 C513 1.407 . S
C509 C508 1.366 . S
C509 C510 1.392 . S
C509 H532 0.930 . S
C510 C509 1.392 . S
C510 C511 1.398 . S
C510 H533 0.929 . S
C511 C510 1.398 . S
C511 C512 1.352 . S
C512 C511 1.352 . S
C512 C513 1.384 . S
C512 H534 0.930 . S
C513 C508 1.407 . S
C513 C512 1.384 . S
C513 H535 0.929 . S
C514 O524 1.241 . S
C514 O525 1.273 . S
C515 O526 1.251 . S
C515 O527 1.268 . S
O516 Nd496 2.500 . S
O516 C498 1.258 . S
O517 Nd496 2.492 . S
O517 C498 1.239 . S
O518 Nd496 2.487 . S
O518 C505 1.241 . S
O519 Nd496 2.682 . S
O519 Nd497 2.414 . S
O519 C505 1.273 . S
O520 Nd496 2.410 . S
O520 C506 1.251 . S
O521 Nd497 2.424 . S
O521 C506 1.268 . S
O522 Nd497 2.500 . S
O522 C507 1.258 1_545 S
O523 Nd497 2.492 1_565 S
O523 C507 1.239 . S
O524 Nd497 2.487 . S
O524 C514 1.241 . S
O525 Nd496 2.414 . S
O525 Nd497 2.682 . S
O525 C514 1.273 . S
O526 Nd497 2.410 . S
O526 C515 1.251 . S
O527 Nd496 2.424 . S
O527 C515 1.268 . S
H528 C500 0.930 . S
H529 C501 0.929 1_655 S
H530 C503 0.930 . S
H531 C504 0.929 . S
H532 C509 0.930 . S
H533 C510 0.929 . S
H534 C512 0.930 . S
H535 C513 0.929 . S
Nd536 C538 2.836 . S
Nd536 O556 2.500 . S
Nd536 O557 2.492 . S
Nd536 O558 2.487 . S
Nd536 O559 2.682 . S
Nd536 O560 2.410 . S
Nd536 O565 2.414 . S
Nd536 O567 2.424 . S
Nd537 C547 2.836 . S
Nd537 O559 2.414 . S
Nd537 O561 2.424 . S
Nd537 O562 2.500 . S
Nd537 O563 2.492 . S
Nd537 O564 2.487 . S
Nd537 O565 2.682 . S
Nd537 O566 2.410 . S
C538 Nd536 2.836 . S
C538 C539 1.498 . S
C538 O556 1.258 . S
C538 O557 1.239 . S
C539 C538 1.498 . S
C539 C540 1.366 . S
C539 C544 1.407 . S
C540 C539 1.366 . S
C540 C541 1.392 . S
C540 H568 0.930 . S
C541 C540 1.392 . S
C541 C542 1.398 . S
C541 H569 0.929 . S
C542 C541 1.398 . S
C542 C543 1.352 . S
C543 C542 1.352 . S
C543 C544 1.384 . S
C543 H570 0.930 . S
C544 C539 1.407 . S
C544 C543 1.384 . S
C544 H571 0.929 . S
C545 O558 1.241 . S
C545 O559 1.273 . S
C546 O560 1.251 . S
C546 O561 1.268 . S
C547 Nd537 2.836 . S
C547 C548 1.498 . S
C547 O562 1.258 . S
C547 O563 1.239 . S
C548 C547 1.498 . S
C548 C549 1.366 . S
C548 C553 1.407 . S
C549 C548 1.366 . S
C549 C550 1.392 . S
C549 H572 0.930 . S
C550 C549 1.392 . S
C550 C551 1.398 . S
C550 H573 0.929 . S
C551 C550 1.398 . S
C551 C552 1.352 . S
C552 C551 1.352 . S
C552 C553 1.384 . S
C552 H574 0.930 . S
C553 C548 1.407 . S
C553 C552 1.384 . S
C553 H575 0.929 . S
C554 O564 1.241 . S
C554 O565 1.273 . S
C555 O566 1.251 . S
C555 O567 1.268 . S
O556 Nd536 2.500 . S
O556 C538 1.258 . S
O557 Nd536 2.492 . S
O557 C538 1.239 . S
O558 Nd536 2.487 . S
O558 C545 1.241 . S
O559 Nd536 2.682 . S
O559 Nd537 2.414 . S
O559 C545 1.273 . S
O560 Nd536 2.410 . S
O560 C546 1.251 . S
O561 Nd537 2.424 . S
O561 C546 1.268 . S
O562 Nd537 2.500 . S
O562 C547 1.258 . S
O563 Nd537 2.492 . S
O563 C547 1.239 . S
O564 Nd537 2.487 . S
O564 C554 1.241 . S
O565 Nd536 2.414 . S
O565 Nd537 2.682 . S
O565 C554 1.273 . S
O566 Nd537 2.410 . S
O566 C555 1.251 . S
O567 Nd536 2.424 . S
O567 C555 1.268 . S
H568 C540 0.930 . S
H569 C541 0.929 . S
H570 C543 0.930 . S
H571 C544 0.929 . S
H572 C549 0.930 . S
H573 C550 0.929 . S
H574 C552 0.930 . S
H575 C553 0.929 . S
Nd576 C578 2.836 . S
Nd576 O596 2.500 . S
Nd576 O597 2.492 . S
Nd576 O598 2.487 . S
Nd576 O599 2.682 . S
Nd576 O600 2.410 . S
Nd576 O605 2.414 . S
Nd576 O607 2.424 . S
Nd577 C587 2.836 . S
Nd577 O599 2.414 . S
Nd577 O601 2.424 . S
Nd577 O602 2.500 . S
Nd577 O603 2.492 . S
Nd577 O604 2.487 . S
Nd577 O605 2.682 . S
Nd577 O606 2.410 . S
C578 Nd576 2.836 . S
C578 C579 1.498 . S
C578 O596 1.258 . S
C578 O597 1.239 . S
C579 C578 1.498 . S
C579 C580 1.366 . S
C579 C584 1.407 . S
C580 C579 1.366 . S
C580 C581 1.392 . S
C580 H608 0.930 . S
C581 C580 1.392 . S
C581 C582 1.398 . S
C581 H609 0.929 . S
C582 C581 1.398 . S
C582 C583 1.369 . S
C583 C582 1.369 . S
C583 C584 1.386 . S
C583 H610 0.912 1_545 S
C584 C579 1.407 . S
C584 C583 1.386 . S
C584 H611 0.929 1_545 S
C585 O598 1.241 . S
C585 O599 1.273 . S
C586 O600 1.251 . S
C586 O601 1.268 . S
C587 Nd577 2.836 . S
C587 C588 1.498 . S
C587 O602 1.258 . S
C587 O603 1.239 . S
C588 C587 1.498 . S
C588 C589 1.366 . S
C588 C593 1.407 . S
C589 C588 1.366 . S
C589 C590 1.392 . S
C589 H612 0.930 . S
C590 C589 1.392 . S
C590 C591 1.398 . S
C590 H613 0.929 . S
C591 C590 1.398 . S
C591 C592 1.352 . S
C592 C591 1.352 . S
C592 C593 1.384 . S
C592 H614 0.930 . S
C593 C588 1.407 . S
C593 C592 1.384 . S
C593 H615 0.929 . S
C594 O604 1.241 . S
C594 O605 1.273 . S
C595 O606 1.251 . S
C595 O607 1.268 . S
O596 Nd576 2.500 . S
O596 C578 1.258 . S
O597 Nd576 2.492 . S
O597 C578 1.239 . S
O598 Nd576 2.487 . S
O598 C585 1.241 . S
O599 Nd576 2.682 . S
O599 Nd577 2.414 . S
O599 C585 1.273 . S
O600 Nd576 2.410 . S
O600 C586 1.251 . S
O601 Nd577 2.424 . S
O601 C586 1.268 . S
O602 Nd577 2.500 . S
O602 C587 1.258 . S
O603 Nd577 2.492 . S
O603 C587 1.239 . S
O604 Nd577 2.487 . S
O604 C594 1.241 . S
O605 Nd576 2.414 . S
O605 Nd577 2.682 . S
O605 C594 1.273 . S
O606 Nd577 2.410 . S
O606 C595 1.251 . S
O607 Nd576 2.424 . S
O607 C595 1.268 . S
H608 C580 0.930 . S
H609 C581 0.929 . S
H610 C583 0.912 1_565 S
H611 C584 0.929 1_565 S
H612 C589 0.930 . S
H613 C590 0.929 . S
H614 C592 0.930 . S
H615 C593 0.929 . S
Nd616 C618 2.836 . S
Nd616 O636 2.500 . S
Nd616 O637 2.492 . S
Nd616 O638 2.487 . S
Nd616 O639 2.682 . S
Nd616 O640 2.410 . S
Nd616 O645 2.414 . S
Nd616 O647 2.424 . S
Nd617 C627 2.836 . S
Nd617 O639 2.414 . S
Nd617 O641 2.424 . S
Nd617 O642 2.500 . S
Nd617 O643 2.492 . S
Nd617 O644 2.487 . S
Nd617 O645 2.682 . S
Nd617 O646 2.410 . S
C618 Nd616 2.836 . S
C618 C619 1.498 . S
C618 O636 1.258 . S
C618 O637 1.239 . S
C619 C618 1.498 . S
C619 C620 1.366 . S
C619 C624 1.407 . S
C620 C619 1.366 . S
C620 C621 1.392 . S
C620 H648 0.930 . S
C621 C620 1.392 . S
C621 C622 1.398 . S
C621 H649 0.929 . S
C622 C621 1.398 . S
C622 C623 1.352 . S
C623 C622 1.352 . S
C623 C624 1.384 . S
C623 H650 0.930 . S
C624 C619 1.407 . S
C624 C623 1.384 . S
C624 H651 0.929 . S
C625 O638 1.241 . S
C625 O639 1.273 . S
C626 O640 1.251 . S
C626 O641 1.268 . S
C627 Nd617 2.836 . S
C627 C628 1.498 . S
C627 O642 1.258 . S
C627 O643 1.239 . S
C628 C627 1.498 . S
C628 C629 1.366 . S
C628 C633 1.407 . S
C629 C628 1.366 . S
C629 C630 1.392 . S
C629 H652 0.930 . S
C630 C629 1.392 . S
C630 C631 1.398 . S
C630 H653 0.929 . S
C631 C630 1.398 . S
C631 C632 1.352 . S
C632 C631 1.352 . S
C632 C633 1.384 . S
C632 H654 0.930 . S
C633 C628 1.407 . S
C633 C632 1.384 . S
C633 H655 0.929 . S
C634 O644 1.241 . S
C634 O645 1.273 . S
C635 O646 1.251 . S
C635 O647 1.268 . S
O636 Nd616 2.500 . S
O636 C618 1.258 . S
O637 Nd616 2.492 . S
O637 C618 1.239 . S
O638 Nd616 2.487 . S
O638 C625 1.241 . S
O639 Nd616 2.682 . S
O639 Nd617 2.414 . S
O639 C625 1.273 . S
O640 Nd616 2.410 . S
O640 C626 1.251 . S
O641 Nd617 2.424 . S
O641 C626 1.268 . S
O642 Nd617 2.500 . S
O642 C627 1.258 . S
O643 Nd617 2.492 . S
O643 C627 1.239 . S
O644 Nd617 2.487 . S
O644 C634 1.241 . S
O645 Nd616 2.414 . S
O645 Nd617 2.682 . S
O645 C634 1.273 . S
O646 Nd617 2.410 . S
O646 C635 1.251 . S
O647 Nd616 2.424 . S
O647 C635 1.268 . S
H648 C620 0.930 . S
H649 C621 0.929 . S
H650 C623 0.930 . S
H651 C624 0.929 . S
H652 C629 0.930 . S
H653 C630 0.929 . S
H654 C632 0.930 . S
H655 C633 0.929 . S
Nd656 C658 2.836 . S
Nd656 O676 2.500 . S
Nd656 O677 2.492 . S
Nd656 O678 2.487 . S
Nd656 O679 2.682 . S
Nd656 O680 2.410 . S
Nd656 O685 2.414 . S
Nd656 O687 2.424 . S
Nd657 C667 2.836 . S
Nd657 O679 2.414 . S
Nd657 O681 2.424 . S
Nd657 O682 2.500 . S
Nd657 O683 2.492 . S
Nd657 O684 2.487 . S
Nd657 O685 2.682 . S
Nd657 O686 2.410 . S
C658 Nd656 2.836 . S
C658 C659 1.498 . S
C658 O676 1.258 . S
C658 O677 1.239 . S
C659 C658 1.498 . S
C659 C660 1.366 . S
C659 C664 1.407 . S
C660 C659 1.366 . S
C660 C661 1.392 . S
C660 H688 0.930 . S
C661 C660 1.392 . S
C661 C662 1.398 . S
C661 H689 0.929 . S
C662 C661 1.398 . S
C662 C663 1.352 . S
C663 C662 1.352 . S
C663 C664 1.384 . S
C663 H690 0.930 . S
C664 C659 1.407 . S
C664 C663 1.384 . S
C664 H691 0.929 . S
C665 O678 1.241 . S
C665 O679 1.273 . S
C666 O680 1.251 . S
C666 O681 1.268 . S
C667 Nd657 2.836 . S
C667 C668 1.498 . S
C667 O682 1.258 . S
C667 O683 1.239 . S
C668 C667 1.498 . S
C668 C669 1.366 . S
C668 C673 1.407 . S
C669 C668 1.366 . S
C669 C670 1.392 . S
C669 H692 0.930 . S
C670 C669 1.392 . S
C670 C671 1.398 . S
C670 H693 0.929 . S
C671 C670 1.398 . S
C671 C672 1.352 . S
C672 C671 1.352 . S
C672 C673 1.384 . S
C672 H694 0.930 . S
C673 C668 1.407 . S
C673 C672 1.384 . S
C673 H695 0.929 . S
C674 O684 1.241 . S
C674 O685 1.273 . S
C675 O686 1.251 . S
C675 O687 1.268 . S
O676 Nd656 2.500 . S
O676 C658 1.258 . S
O677 Nd656 2.492 . S
O677 C658 1.239 . S
O678 Nd656 2.487 . S
O678 C665 1.241 . S
O679 Nd656 2.682 . S
O679 Nd657 2.414 . S
O679 C665 1.273 . S
O680 Nd656 2.410 . S
O680 C666 1.251 . S
O681 Nd657 2.424 . S
O681 C666 1.268 . S
O682 Nd657 2.500 . S
O682 C667 1.258 . S
O683 Nd657 2.492 . S
O683 C667 1.239 . S
O684 Nd657 2.487 . S
O684 C674 1.241 . S
O685 Nd656 2.414 . S
O685 Nd657 2.682 . S
O685 C674 1.273 . S
O686 Nd657 2.410 . S
O686 C675 1.251 . S
O687 Nd656 2.424 . S
O687 C675 1.268 . S
H688 C660 0.930 . S
H689 C661 0.929 . S
H690 C663 0.930 . S
H691 C664 0.929 . S
H692 C669 0.930 . S
H693 C670 0.929 . S
H694 C672 0.930 . S
H695 C673 0.929 . S
Nd696 C698 2.836 . S
Nd696 O716 2.500 . S
Nd696 O717 2.492 . S
Nd696 O718 2.487 . S
Nd696 O719 2.682 . S
Nd696 O720 2.410 . S
Nd696 O725 2.414 . S
Nd696 O727 2.424 . S
Nd697 C707 2.836 . S
Nd697 O719 2.414 . S
Nd697 O721 2.424 . S
Nd697 O722 2.500 . S
Nd697 O723 2.492 . S
Nd697 O724 2.487 . S
Nd697 O725 2.682 . S
Nd697 O726 2.410 . S
C698 Nd696 2.836 . S
C698 C699 1.498 . S
C698 O716 1.258 . S
C698 O717 1.239 . S
C699 C698 1.498 . S
C699 C700 1.366 . S
C699 C704 1.407 . S
C700 C699 1.366 . S
C700 C701 1.392 . S
C700 H728 0.930 . S
C701 C700 1.392 . S
C701 C702 1.398 . S
C701 H729 0.929 . S
C702 C701 1.398 . S
C702 C703 1.352 . S
C703 C702 1.352 . S
C703 C704 1.384 . S
C703 H730 0.930 . S
C704 C699 1.407 . S
C704 C703 1.384 . S
C704 H731 0.929 . S
C705 O718 1.241 . S
C705 O719 1.273 . S
C706 O720 1.251 . S
C706 O721 1.268 . S
C707 Nd697 2.836 . S
C707 C708 1.498 . S
C707 O722 1.258 . S
C707 O723 1.239 . S
C708 C707 1.498 . S
C708 C709 1.366 . S
C708 C713 1.407 . S
C709 C708 1.366 . S
C709 C710 1.392 . S
C709 H732 0.930 . S
C710 C709 1.392 . S
C710 C711 1.398 . S
C710 H733 0.929 . S
C711 C710 1.398 . S
C711 C712 1.352 . S
C712 C711 1.352 . S
C712 C713 1.384 . S
C712 H734 0.930 . S
C713 C708 1.407 . S
C713 C712 1.384 . S
C713 H735 0.929 . S
C714 O724 1.241 . S
C714 O725 1.273 . S
C715 O726 1.251 . S
C715 O727 1.268 . S
O716 Nd696 2.500 . S
O716 C698 1.258 . S
O717 Nd696 2.492 . S
O717 C698 1.239 . S
O718 Nd696 2.487 . S
O718 C705 1.241 . S
O719 Nd696 2.682 . S
O719 Nd697 2.414 . S
O719 C705 1.273 . S
O720 Nd696 2.410 . S
O720 C706 1.251 . S
O721 Nd697 2.424 . S
O721 C706 1.268 . S
O722 Nd697 2.500 . S
O722 C707 1.258 . S
O723 Nd697 2.492 . S
O723 C707 1.239 . S
O724 Nd697 2.487 . S
O724 C714 1.241 . S
O725 Nd696 2.414 . S
O725 Nd697 2.682 . S
O725 C714 1.273 . S
O726 Nd697 2.410 . S
O726 C715 1.251 . S
O727 Nd696 2.424 . S
O727 C715 1.268 . S
H728 C700 0.930 . S
H729 C701 0.929 . S
H730 C703 0.930 . S
H731 C704 0.929 . S
H732 C709 0.930 . S
H733 C710 0.929 . S
H734 C712 0.930 . S
H735 C713 0.929 . S
Nd736 C738 2.836 1_455 S
Nd736 O756 2.500 1_455 S
Nd736 O757 2.492 1_455 S
Nd736 O758 2.487 . S
Nd736 O759 2.682 . S
Nd736 O760 2.410 . S
Nd736 O765 2.414 . S
Nd736 O767 2.424 . S
Nd737 C747 2.836 . S
Nd737 O759 2.414 . S
Nd737 O761 2.424 . S
Nd737 O762 2.500 . S
Nd737 O763 2.492 . S
Nd737 O764 2.487 . S
Nd737 O765 2.682 . S
Nd737 O766 2.410 . S
C738 Nd736 2.836 1_655 S
C738 C739 1.498 . S
C738 O756 1.258 . S
C738 O757 1.239 . S
C739 C738 1.498 . S
C739 C740 1.366 . S
C739 C744 1.407 . S
C740 C739 1.366 . S
C740 C741 1.392 . S
C740 H768 0.930 . S
C741 C740 1.392 . S
C741 C742 1.398 . S
C741 H769 0.929 . S
C742 C741 1.398 . S
C742 C743 1.352 . S
C743 C742 1.352 . S
C743 C744 1.384 . S
C743 H770 0.930 . S
C744 C739 1.407 . S
C744 C743 1.384 . S
C744 H771 0.929 . S
C745 O758 1.241 . S
C745 O759 1.273 . S
C746 O760 1.251 . S
C746 O761 1.268 . S
C747 Nd737 2.836 . S
C747 C748 1.498 . S
C747 O762 1.258 . S
C747 O763 1.239 . S
C748 C747 1.498 . S
C748 C749 1.366 . S
C748 C753 1.407 . S
C749 C748 1.366 . S
C749 C750 1.392 . S
C749 H772 0.930 . S
C750 C749 1.392 . S
C750 C751 1.398 . S
C750 H773 0.929 . S
C751 C750 1.398 . S
C751 C752 1.352 . S
C752 C751 1.352 . S
C752 C753 1.384 . S
C752 H774 0.930 . S
C753 C748 1.407 . S
C753 C752 1.384 . S
C753 H775 0.929 . S
C754 O764 1.241 . S
C754 O765 1.273 . S
C755 O766 1.251 . S
C755 O767 1.268 . S
O756 Nd736 2.500 1_655 S
O756 C738 1.258 . S
O757 Nd736 2.492 1_655 S
O757 C738 1.239 . S
O758 Nd736 2.487 . S
O758 C745 1.241 . S
O759 Nd736 2.682 . S
O759 Nd737 2.414 . S
O759 C745 1.273 . S
O760 Nd736 2.410 . S
O760 C746 1.251 . S
O761 Nd737 2.424 . S
O761 C746 1.268 . S
O762 Nd737 2.500 . S
O762 C747 1.258 . S
O763 Nd737 2.492 . S
O763 C747 1.239 . S
O764 Nd737 2.487 . S
O764 C754 1.241 . S
O765 Nd736 2.414 . S
O765 Nd737 2.682 . S
O765 C754 1.273 . S
O766 Nd737 2.410 . S
O766 C755 1.251 . S
O767 Nd736 2.424 . S
O767 C755 1.268 . S
H768 C740 0.930 . S
H769 C741 0.929 . S
H770 C743 0.930 . S
H771 C744 0.929 . S
H772 C749 0.930 . S
H773 C750 0.929 . S
H774 C752 0.930 . S
H775 C753 0.929 . S
Nd776 C778 2.836 . S
Nd776 O796 2.500 . S
Nd776 O797 2.492 . S
Nd776 O798 2.487 . S
Nd776 O799 2.682 . S
Nd776 O800 2.410 . S
Nd776 O805 2.414 . S
Nd776 O807 2.424 . S
Nd777 C787 2.836 . S
Nd777 O799 2.414 . S
Nd777 O801 2.424 . S
Nd777 O802 2.500 . S
Nd777 O803 2.492 . S
Nd777 O804 2.487 . S
Nd777 O805 2.682 . S
Nd777 O806 2.410 . S
C778 Nd776 2.836 . S
C778 C779 1.498 . S
C778 O796 1.258 . S
C778 O797 1.239 . S
C779 C778 1.498 . S
C779 C780 1.366 . S
C779 C784 1.407 . S
C780 C779 1.366 . S
C780 C781 1.392 . S
C780 H808 0.930 . S
C781 C780 1.392 . S
C781 C782 1.398 . S
C781 H809 0.929 . S
C782 C781 1.398 . S
C782 C783 1.352 . S
C783 C782 1.352 . S
C783 C784 1.384 . S
C783 H810 0.930 . S
C784 C779 1.407 . S
C784 C783 1.384 . S
C784 H811 0.929 . S
C785 O798 1.241 . S
C785 O799 1.273 . S
C786 O800 1.251 . S
C786 O801 1.268 . S
C787 Nd777 2.836 . S
C787 C788 1.498 . S
C787 O802 1.258 . S
C787 O803 1.239 . S
C788 C787 1.498 . S
C788 C789 1.366 . S
C788 C793 1.407 . S
C789 C788 1.366 . S
C789 C790 1.392 . S
C789 H812 0.930 . S
C790 C789 1.392 . S
C790 C791 1.398 . S
C790 H813 0.929 . S
C791 C790 1.398 . S
C791 C792 1.352 . S
C792 C791 1.352 . S
C792 C793 1.384 . S
C792 H814 0.930 . S
C793 C788 1.407 . S
C793 C792 1.384 . S
C793 H815 0.929 . S
C794 O804 1.241 . S
C794 O805 1.273 . S
C795 O806 1.251 . S
C795 O807 1.268 . S
O796 Nd776 2.500 . S
O796 C778 1.258 . S
O797 Nd776 2.492 . S
O797 C778 1.239 . S
O798 Nd776 2.487 . S
O798 C785 1.241 . S
O799 Nd776 2.682 . S
O799 Nd777 2.414 . S
O799 C785 1.273 . S
O800 Nd776 2.410 . S
O800 C786 1.251 . S
O801 Nd777 2.424 . S
O801 C786 1.268 . S
O802 Nd777 2.500 . S
O802 C787 1.258 . S
O803 Nd777 2.492 . S
O803 C787 1.239 . S
O804 Nd777 2.487 . S
O804 C794 1.241 . S
O805 Nd776 2.414 . S
O805 Nd777 2.682 . S
O805 C794 1.273 . S
O806 Nd777 2.410 . S
O806 C795 1.251 . S
O807 Nd776 2.424 . S
O807 C795 1.268 . S
H808 C780 0.930 . S
H809 C781 0.929 . S
H810 C783 0.930 . S
H811 C784 0.929 . S
H812 C789 0.930 . S
H813 C790 0.929 . S
H814 C792 0.930 . S
H815 C793 0.929 . S
Nd816 C818 2.836 . S
Nd816 O836 2.500 . S
Nd816 O837 2.492 . S
Nd816 O838 2.487 . S
Nd816 O839 2.682 . S
Nd816 O840 2.410 . S
Nd816 O845 2.414 . S
Nd816 O847 2.424 . S
Nd817 C827 2.836 . S
Nd817 O839 2.414 . S
Nd817 O841 2.424 . S
Nd817 O842 2.500 . S
Nd817 O843 2.492 . S
Nd817 O844 2.487 . S
Nd817 O845 2.682 . S
Nd817 O846 2.410 . S
C818 Nd816 2.836 . S
C818 C819 1.498 . S
C818 O836 1.258 . S
C818 O837 1.239 . S
C819 C818 1.498 . S
C819 C820 1.366 . S
C819 C824 1.407 . S
C820 C819 1.366 . S
C820 C821 1.392 . S
C820 H848 0.930 . S
C821 C820 1.392 . S
C821 C822 1.398 . S
C821 H849 0.929 . S
C822 C821 1.398 . S
C822 C823 1.352 . S
C823 C822 1.352 . S
C823 C824 1.384 . S
C823 H850 0.930 . S
C824 C819 1.407 . S
C824 C823 1.384 . S
C824 H851 0.929 . S
C825 O838 1.241 . S
C825 O839 1.273 . S
C826 O840 1.251 . S
C826 O841 1.268 . S
C827 Nd817 2.836 . S
C827 C828 1.498 . S
C827 O842 1.258 . S
C827 O843 1.239 . S
C828 C827 1.498 . S
C828 C829 1.366 . S
C828 C833 1.407 . S
C829 C828 1.366 . S
C829 C830 1.392 . S
C829 H852 0.930 . S
C830 C829 1.392 . S
C830 C831 1.398 . S
C830 H853 0.929 . S
C831 C830 1.398 . S
C831 C832 1.352 . S
C832 C831 1.352 . S
C832 C833 1.384 . S
C832 H854 0.930 . S
C833 C828 1.407 . S
C833 C832 1.384 . S
C833 H855 0.929 . S
C834 O844 1.241 . S
C834 O845 1.273 . S
C835 O846 1.251 . S
C835 O847 1.268 . S
O836 Nd816 2.500 . S
O836 C818 1.258 . S
O837 Nd816 2.492 . S
O837 C818 1.239 . S
O838 Nd816 2.487 . S
O838 C825 1.241 . S
O839 Nd816 2.682 . S
O839 Nd817 2.414 . S
O839 C825 1.273 . S
O840 Nd816 2.410 . S
O840 C826 1.251 . S
O841 Nd817 2.424 . S
O841 C826 1.268 . S
O842 Nd817 2.500 . S
O842 C827 1.258 . S
O843 Nd817 2.492 . S
O843 C827 1.239 . S
O844 Nd817 2.487 . S
O844 C834 1.241 . S
O845 Nd816 2.414 . S
O845 Nd817 2.682 . S
O845 C834 1.273 . S
O846 Nd817 2.410 . S
O846 C835 1.251 . S
O847 Nd816 2.424 . S
O847 C835 1.268 . S
H848 C820 0.930 . S
H849 C821 0.929 . S
H850 C823 0.930 . S
H851 C824 0.929 . S
H852 C829 0.930 . S
H853 C830 0.929 . S
H854 C832 0.930 . S
H855 C833 0.929 . S
Nd856 C858 2.836 . S
Nd856 O876 2.500 . S
Nd856 O877 2.492 . S
Nd856 O878 2.487 . S
Nd856 O879 2.682 . S
Nd856 O880 2.410 . S
Nd856 O885 2.414 . S
Nd856 O887 2.424 . S
Nd857 C867 2.836 . S
Nd857 O879 2.414 . S
Nd857 O881 2.424 . S
Nd857 O882 2.500 . S
Nd857 O883 2.492 . S
Nd857 O884 2.487 . S
Nd857 O885 2.682 . S
Nd857 O886 2.410 . S
C858 Nd856 2.836 . S
C858 C859 1.498 . S
C858 O876 1.258 . S
C858 O877 1.239 . S
C859 C858 1.498 . S
C859 C860 1.366 . S
C859 C864 1.407 . S
C860 C859 1.366 . S
C860 C861 1.392 . S
C860 H888 0.930 . S
C861 C860 1.392 . S
C861 C862 1.398 . S
C861 H889 0.929 . S
C862 C861 1.398 . S
C862 C863 1.352 . S
C863 C862 1.352 . S
C863 C864 1.384 . S
C863 H890 0.930 . S
C864 C859 1.407 . S
C864 C863 1.384 . S
C864 H891 0.929 . S
C865 O878 1.241 . S
C865 O879 1.273 . S
C866 O880 1.251 . S
C866 O881 1.268 . S
C867 Nd857 2.836 . S
C867 C868 1.498 . S
C867 O882 1.258 . S
C867 O883 1.239 . S
C868 C867 1.498 . S
C868 C869 1.366 . S
C868 C873 1.407 . S
C869 C868 1.366 . S
C869 C870 1.392 . S
C869 H892 0.930 . S
C870 C869 1.392 . S
C870 C871 1.398 . S
C870 H893 0.929 . S
C871 C870 1.398 . S
C871 C872 1.352 . S
C872 C871 1.352 . S
C872 C873 1.384 . S
C872 H894 0.930 . S
C873 C868 1.407 . S
C873 C872 1.384 . S
C873 H895 0.929 . S
C874 O884 1.241 . S
C874 O885 1.273 . S
C875 O886 1.251 . S
C875 O887 1.268 . S
O876 Nd856 2.500 . S
O876 C858 1.258 . S
O877 Nd856 2.492 . S
O877 C858 1.239 . S
O878 Nd856 2.487 . S
O878 C865 1.241 . S
O879 Nd856 2.682 . S
O879 Nd857 2.414 . S
O879 C865 1.273 . S
O880 Nd856 2.410 . S
O880 C866 1.251 . S
O881 Nd857 2.424 . S
O881 C866 1.268 . S
O882 Nd857 2.500 . S
O882 C867 1.258 . S
O883 Nd857 2.492 . S
O883 C867 1.239 . S
O884 Nd857 2.487 . S
O884 C874 1.241 . S
O885 Nd856 2.414 . S
O885 Nd857 2.682 . S
O885 C874 1.273 . S
O886 Nd857 2.410 . S
O886 C875 1.251 . S
O887 Nd856 2.424 . S
O887 C875 1.268 . S
H888 C860 0.930 . S
H889 C861 0.929 . S
H890 C863 0.930 . S
H891 C864 0.929 . S
H892 C869 0.930 . S
H893 C870 0.929 . S
H894 C872 0.930 . S
H895 C873 0.929 . S
Nd896 C898 2.836 . S
Nd896 O916 2.500 . S
Nd896 O917 2.492 . S
Nd896 O918 2.487 . S
Nd896 O919 2.682 . S
Nd896 O920 2.410 . S
Nd896 O925 2.414 . S
Nd896 O927 2.424 . S
Nd897 C907 2.836 . S
Nd897 O919 2.414 . S
Nd897 O921 2.424 . S
Nd897 O922 2.500 . S
Nd897 O923 2.492 . S
Nd897 O924 2.487 . S
Nd897 O925 2.682 . S
Nd897 O926 2.410 . S
C898 Nd896 2.836 . S
C898 C899 1.498 . S
C898 O916 1.258 . S
C898 O917 1.239 . S
C899 C898 1.498 . S
C899 C900 1.366 . S
C899 C904 1.407 . S
C900 C899 1.366 . S
C900 C901 1.392 . S
C900 H928 0.930 . S
C901 C900 1.392 . S
C901 C902 1.398 . S
C901 H929 0.929 . S
C902 C901 1.398 . S
C902 C903 1.352 . S
C903 C902 1.352 . S
C903 C904 1.384 . S
C903 H930 0.930 . S
C904 C899 1.407 . S
C904 C903 1.384 . S
C904 H931 0.929 . S
C905 O918 1.241 . S
C905 O919 1.273 . S
C906 O920 1.251 . S
C906 O921 1.268 . S
C907 Nd897 2.836 . S
C907 C908 1.498 . S
C907 O922 1.258 . S
C907 O923 1.239 . S
C908 C907 1.498 . S
C908 C909 1.366 . S
C908 C913 1.407 . S
C909 C908 1.366 . S
C909 C910 1.392 . S
C909 H932 0.930 . S
C910 C909 1.392 . S
C910 C911 1.398 . S
C910 H933 0.929 . S
C911 C910 1.398 . S
C911 C912 1.352 . S
C912 C911 1.352 . S
C912 C913 1.384 . S
C912 H934 0.930 . S
C913 C908 1.407 . S
C913 C912 1.384 . S
C913 H935 0.929 . S
C914 O924 1.241 . S
C914 O925 1.273 . S
C915 O926 1.251 . S
C915 O927 1.268 . S
O916 Nd896 2.500 . S
O916 C898 1.258 . S
O917 Nd896 2.492 . S
O917 C898 1.239 . S
O918 Nd896 2.487 . S
O918 C905 1.241 . S
O919 Nd896 2.682 . S
O919 Nd897 2.414 . S
O919 C905 1.273 . S
O920 Nd896 2.410 . S
O920 C906 1.251 . S
O921 Nd897 2.424 . S
O921 C906 1.268 . S
O922 Nd897 2.500 . S
O922 C907 1.258 . S
O923 Nd897 2.492 . S
O923 C907 1.239 . S
O924 Nd897 2.487 . S
O924 C914 1.241 . S
O925 Nd896 2.414 . S
O925 Nd897 2.682 . S
O925 C914 1.273 . S
O926 Nd897 2.410 . S
O926 C915 1.251 . S
O927 Nd896 2.424 . S
O927 C915 1.268 . S
H928 C900 0.930 . S
H929 C901 0.929 . S
H930 C903 0.930 . S
H931 C904 0.929 . S
H932 C909 0.930 . S
H933 C910 0.929 . S
H934 C912 0.930 . S
H935 C913 0.929 . S
Nd936 C938 2.836 . S
Nd936 O956 2.500 . S
Nd936 O957 2.492 . S
Nd936 O958 2.487 . S
Nd936 O959 2.682 . S
Nd936 O960 2.410 . S
Nd936 O965 2.414 . S
Nd936 O967 2.424 . S
Nd937 C947 2.836 1_455 S
Nd937 O959 2.414 . S
Nd937 O961 2.424 . S
Nd937 O962 2.500 1_455 S
Nd937 O963 2.492 1_455 S
Nd937 O964 2.487 . S
Nd937 O965 2.682 . S
Nd937 O966 2.410 . S
C938 Nd936 2.836 . S
C938 C939 1.498 . S
C938 O956 1.258 . S
C938 O957 1.239 . S
C939 C938 1.498 . S
C939 C940 1.366 . S
C939 C944 1.407 . S
C940 C939 1.366 . S
C940 C941 1.392 . S
C940 H968 0.930 . S
C941 C940 1.392 . S
C941 C942 1.398 . S
C941 H969 0.929 . S
C942 C941 1.398 . S
C942 C943 1.352 . S
C943 C942 1.352 . S
C943 C944 1.384 . S
C943 H970 0.930 . S
C944 C939 1.407 . S
C944 C943 1.384 . S
C944 H971 0.929 . S
C945 O958 1.241 . S
C945 O959 1.273 . S
C946 O960 1.251 . S
C946 O961 1.268 . S
C947 Nd937 2.836 1_655 S
C947 C948 1.498 . S
C947 O962 1.258 . S
C947 O963 1.239 . S
C948 C947 1.498 . S
C948 C949 1.366 . S
C948 C953 1.407 . S
C949 C948 1.366 . S
C949 C950 1.392 . S
C949 H972 0.930 . S
C950 C949 1.392 . S
C950 C951 1.398 . S
C950 H973 0.929 . S
C951 C950 1.398 . S
C951 C952 1.352 . S
C952 C951 1.352 . S
C952 C953 1.384 . S
C952 H974 0.930 . S
C953 C948 1.407 . S
C953 C952 1.384 . S
C953 H975 0.929 . S
C954 O964 1.241 . S
C954 O965 1.273 . S
C955 O966 1.251 . S
C955 O967 1.268 . S
O956 Nd936 2.500 . S
O956 C938 1.258 . S
O957 Nd936 2.492 . S
O957 C938 1.239 . S
O958 Nd936 2.487 . S
O958 C945 1.241 . S
O959 Nd936 2.682 . S
O959 Nd937 2.414 . S
O959 C945 1.273 . S
O960 Nd936 2.410 . S
O960 C946 1.251 . S
O961 Nd937 2.424 . S
O961 C946 1.268 . S
O962 Nd937 2.500 1_655 S
O962 C947 1.258 . S
O963 Nd937 2.492 1_655 S
O963 C947 1.239 . S
O964 Nd937 2.487 . S
O964 C954 1.241 . S
O965 Nd936 2.414 . S
O965 Nd937 2.682 . S
O965 C954 1.273 . S
O966 Nd937 2.410 . S
O966 C955 1.251 . S
O967 Nd936 2.424 . S
O967 C955 1.268 . S
H968 C940 0.930 . S
H969 C941 0.929 . S
H970 C943 0.930 . S
H971 C944 0.929 . S
H972 C949 0.930 . S
H973 C950 0.929 . S
H974 C952 0.930 . S
H975 C953 0.929 . S
H976 C994 0.951 . S
H977 C996 0.951 . S
H978 C998 0.950 . S
H979 C999 0.950 . S
H980 C1001 0.950 . S
H981 C1004 0.950 . S
H982 C1005 0.950 . S
H983 C1007 0.950 . S
H984 C1008 0.950 . S
H985 C1009 0.951 . S
H986 C1011 0.951 . S
H987 C1013 0.950 . S
H988 C1014 0.950 . S
H989 C1016 0.950 1_554 S
H990 C1019 0.950 . S
H991 C1020 0.950 1_655 S
H992 C1022 0.950 . S
H993 C1023 0.950 . S
C994 H976 0.951 . S
C994 C995 1.366 . S
C994 C996 1.388 . S
C995 C994 1.366 . S
C995 C999 1.385 . S
C996 H977 0.951 . S
C996 C994 1.388 . S
C996 C997 1.366 . S
C997 C996 1.366 . S
C997 C998 1.414 . S
C997 C1000 1.499 . S
C998 H978 0.950 . S
C998 C997 1.414 . S
C998 C999 1.374 . S
C999 H979 0.950 . S
C999 C995 1.385 . S
C999 C998 1.374 . S
C1000 C997 1.499 . S
C1000 C1001 1.373 . S
C1000 C1002 1.389 . S
C1001 H980 0.950 . S
C1001 C1000 1.373 . S
C1001 C1017 1.377 . S
C1002 C1000 1.389 . S
C1002 C1003 1.524 . S
C1002 C1016 1.377 . S
C1003 C1002 1.524 . S
C1003 C1004 1.397 . S
C1003 C1008 1.363 1_556 S
C1004 H981 0.950 . S
C1004 C1003 1.397 . S
C1004 C1005 1.334 . S
C1005 H982 0.950 . S
C1005 C1004 1.334 . S
C1005 C1006 1.287 1_556 S
C1006 C1005 1.287 1_554 S
C1006 C1007 1.524 . S
C1006 H1025 0.913 . S
C1007 H983 0.950 . S
C1007 C1006 1.524 . S
C1007 C1008 1.415 . S
C1008 H984 0.950 . S
C1008 C1003 1.363 1_554 S
C1008 C1007 1.415 . S
C1009 H985 0.951 . S
C1009 C1010 1.366 . S
C1009 C1011 1.388 1_554 S
C1010 C1009 1.366 . S
C1010 C1014 1.385 . S
C1011 H986 0.951 . S
C1011 C1009 1.388 1_556 S
C1011 C1012 1.370 . S
C1012 C1011 1.370 . S
C1012 C1013 1.368 1_556 S
C1012 C1015 1.539 . S
C1013 H987 0.950 . S
C1013 C1012 1.368 1_554 S
C1013 C1014 1.374 . S
C1014 H988 0.950 . S
C1014 C1010 1.385 . S
C1014 C1013 1.374 . S
C1015 C1012 1.539 . S
C1015 C1016 1.373 . S
C1015 C1017 1.389 . S
C1016 H989 0.950 1_556 S
C1016 C1002 1.377 . S
C1016 C1015 1.373 . S
C1017 C1001 1.377 . S
C1017 C1015 1.389 . S
C1017 C1018 1.524 . S
C1018 C1017 1.524 . S
C1018 C1019 1.397 . S
C1018 C1023 1.363 . S
C1019 H990 0.950 . S
C1019 C1018 1.397 . S
C1019 C1020 1.334 . S
C1020 H991 0.950 1_455 S
C1020 C1019 1.334 . S
C1020 C1021 1.287 . S
C1021 C1020 1.287 . S
C1021 C1022 1.524 . S
C1021 H1024 0.999 . S
C1022 H992 0.950 . S
C1022 C1021 1.524 . S
C1022 C1023 1.415 . S
C1023 H993 0.950 . S
C1023 C1018 1.363 . S
C1023 C1022 1.415 . S
H1024 C1021 0.999 . S
H1025 C1006 0.913 . S
H1026 C1044 0.951 . S
H1027 C1046 0.951 . S
H1028 C1048 0.950 . S
H1029 C1049 0.950 . S
H1030 C1051 0.950 . S
H1031 C1054 0.950 . S
H1032 C1055 0.950 . S
H1033 C1057 0.950 . S
H1034 C1058 0.950 . S
H1035 C1059 0.951 . S
H1036 C1061 0.951 . S
H1037 C1063 0.950 . S
H1038 C1064 0.950 . S
H1039 C1066 0.950 . S
H1040 C1069 0.950 . S
H1041 C1070 0.950 . S
H1042 C1072 0.950 . S
H1043 C1073 0.950 . S
C1044 H1026 0.951 . S
C1044 C1045 1.366 . S
C1044 C1046 1.388 . S
C1045 C1044 1.366 . S
C1045 C1049 1.385 . S
C1046 H1027 0.951 . S
C1046 C1044 1.388 . S
C1046 C1047 1.366 . S
C1047 C1046 1.366 . S
C1047 C1048 1.414 . S
C1047 C1050 1.499 . S
C1048 H1028 0.950 . S
C1048 C1047 1.414 . S
C1048 C1049 1.374 . S
C1049 H1029 0.950 . S
C1049 C1045 1.385 . S
C1049 C1048 1.374 . S
C1050 C1047 1.499 . S
C1050 C1051 1.373 . S
C1050 C1052 1.389 . S
C1051 H1030 0.950 . S
C1051 C1050 1.373 . S
C1051 C1067 1.377 . S
C1052 C1050 1.389 . S
C1052 C1053 1.524 . S
C1052 C1066 1.377 . S
C1053 C1052 1.524 . S
C1053 C1054 1.397 . S
C1053 C1058 1.363 . S
C1054 H1031 0.950 . S
C1054 C1053 1.397 . S
C1054 C1055 1.334 . S
C1055 H1032 0.950 . S
C1055 C1054 1.334 . S
C1055 C1056 1.287 . S
C1056 C1055 1.287 . S
C1056 C1057 1.524 . S
C1056 H1075 0.913 . S
C1057 H1033 0.950 . S
C1057 C1056 1.524 . S
C1057 C1058 1.415 . S
C1058 H1034 0.950 . S
C1058 C1053 1.363 . S
C1058 C1057 1.415 . S
C1059 H1035 0.951 . S
C1059 C1060 1.366 . S
C1059 C1061 1.388 . S
C1060 C1059 1.366 . S
C1060 C1064 1.385 . S
C1061 H1036 0.951 . S
C1061 C1059 1.388 . S
C1061 C1062 1.366 . S
C1062 C1061 1.366 . S
C1062 C1063 1.414 . S
C1062 C1065 1.499 . S
C1063 H1037 0.950 . S
C1063 C1062 1.414 . S
C1063 C1064 1.374 . S
C1064 H1038 0.950 . S
C1064 C1060 1.385 . S
C1064 C1063 1.374 . S
C1065 C1062 1.499 . S
C1065 C1066 1.373 . S
C1065 C1067 1.389 . S
C1066 H1039 0.950 . S
C1066 C1052 1.377 . S
C1066 C1065 1.373 . S
C1067 C1051 1.377 . S
C1067 C1065 1.389 . S
C1067 C1068 1.524 . S
C1068 C1067 1.524 . S
C1068 C1069 1.397 . S
C1068 C1073 1.363 . S
C1069 H1040 0.950 . S
C1069 C1068 1.397 . S
C1069 C1070 1.334 . S
C1070 H1041 0.950 . S
C1070 C1069 1.334 . S
C1070 C1071 1.287 . S
C1071 C1070 1.287 . S
C1071 C1072 1.524 . S
C1071 H1074 0.999 . S
C1072 H1042 0.950 . S
C1072 C1071 1.524 . S
C1072 C1073 1.415 . S
C1073 H1043 0.950 . S
C1073 C1068 1.363 . S
C1073 C1072 1.415 . S
H1074 C1071 0.999 . S
H1075 C1056 0.913 . S
H1076 C1094 0.951 . S
H1077 C1096 0.951 . S
H1078 C1098 0.950 . S
H1079 C1099 0.950 . S
H1080 C1101 0.950 . S
H1081 C1104 0.950 . S
H1082 C1105 0.950 . S
H1083 C1107 0.950 . S
H1084 C1108 0.950 . S
H1085 C1109 0.951 . S
H1086 C1111 0.951 . S
H1087 C1113 0.950 . S
H1088 C1114 0.950 1_545 S
H1089 C1116 0.950 . S
H1090 C1119 0.950 . S
H1091 C1120 0.950 . S
H1092 C1122 0.950 . S
H1093 C1123 0.950 . S
C1094 H1076 0.951 . S
C1094 C1095 1.366 . S
C1094 C1096 1.388 . S
C1095 C1094 1.366 . S
C1095 C1099 1.385 . S
C1096 H1077 0.951 . S
C1096 C1094 1.388 . S
C1096 C1097 1.366 . S
C1097 C1096 1.366 . S
C1097 C1098 1.414 . S
C1097 C1100 1.499 . S
C1098 H1078 0.950 . S
C1098 C1097 1.414 . S
C1098 C1099 1.374 . S
C1099 H1079 0.950 . S
C1099 C1095 1.385 . S
C1099 C1098 1.374 . S
C1100 C1097 1.499 . S
C1100 C1101 1.373 . S
C1100 C1102 1.389 . S
C1101 H1080 0.950 . S
C1101 C1100 1.373 . S
C1101 C1117 1.377 . S
C1102 C1100 1.389 . S
C1102 C1103 1.524 . S
C1102 C1116 1.377 . S
C1103 C1102 1.524 . S
C1103 C1104 1.397 . S
C1103 C1108 1.363 . S
C1104 H1081 0.950 . S
C1104 C1103 1.397 . S
C1104 C1105 1.334 . S
C1105 H1082 0.950 . S
C1105 C1104 1.334 . S
C1105 C1106 1.287 . S
C1106 C1105 1.287 . S
C1106 C1107 1.524 . S
C1106 H1125 0.913 . S
C1107 H1083 0.950 . S
C1107 C1106 1.524 . S
C1107 C1108 1.415 . S
C1108 H1084 0.950 . S
C1108 C1103 1.363 . S
C1108 C1107 1.415 . S
C1109 H1085 0.951 . S
C1109 C1110 1.366 . S
C1109 C1111 1.388 . S
C1110 C1109 1.366 . S
C1110 C1114 1.385 . S
C1111 H1086 0.951 . S
C1111 C1109 1.388 . S
C1111 C1112 1.366 . S
C1112 C1111 1.366 . S
C1112 C1113 1.414 . S
C1112 C1115 1.499 . S
C1113 H1087 0.950 . S
C1113 C1112 1.414 . S
C1113 C1114 1.374 . S
C1114 H1088 0.950 1_565 S
C1114 C1110 1.385 . S
C1114 C1113 1.374 . S
C1115 C1112 1.499 . S
C1115 C1116 1.373 . S
C1115 C1117 1.389 . S
C1116 H1089 0.950 . S
C1116 C1102 1.377 . S
C1116 C1115 1.373 . S
C1117 C1101 1.377 . S
C1117 C1115 1.389 . S
C1117 C1118 1.524 . S
C1118 C1117 1.524 . S
C1118 C1119 1.397 . S
C1118 C1123 1.363 . S
C1119 H1090 0.950 . S
C1119 C1118 1.397 . S
C1119 C1120 1.334 . S
C1120 H1091 0.950 . S
C1120 C1119 1.334 . S
C1120 C1121 1.287 . S
C1121 C1120 1.287 . S
C1121 C1122 1.524 . S
C1121 H1124 0.999 . S
C1122 H1092 0.950 . S
C1122 C1121 1.524 . S
C1122 C1123 1.415 . S
C1123 H1093 0.950 . S
C1123 C1118 1.363 . S
C1123 C1122 1.415 . S
H1124 C1121 0.999 . S
H1125 C1106 0.913 . S
H1126 C1144 0.951 . S
H1127 C1146 0.951 . S
H1128 C1148 0.950 . S
H1129 C1149 0.950 . S
H1130 C1151 0.950 . S
H1131 C1154 0.950 . S
H1132 C1155 0.950 . S
H1133 C1157 0.950 . S
H1134 C1158 0.950 . S
H1135 C1159 0.951 . S
H1136 C1161 0.951 . S
H1137 C1163 0.950 . S
H1138 C1164 0.950 . S
H1139 C1166 0.950 . S
H1140 C1169 0.950 . S
H1141 C1170 0.950 . S
H1142 C1172 0.950 . S
H1143 C1173 0.950 . S
C1144 H1126 0.951 . S
C1144 C1145 1.366 . S
C1144 C1146 1.388 . S
C1145 C1144 1.366 . S
C1145 C1149 1.385 . S
C1146 H1127 0.951 . S
C1146 C1144 1.388 . S
C1146 C1147 1.366 . S
C1147 C1146 1.366 . S
C1147 C1148 1.414 . S
C1147 C1150 1.499 . S
C1148 H1128 0.950 . S
C1148 C1147 1.414 . S
C1148 C1149 1.374 . S
C1149 H1129 0.950 . S
C1149 C1145 1.385 . S
C1149 C1148 1.374 . S
C1150 C1147 1.499 . S
C1150 C1151 1.373 . S
C1150 C1152 1.389 . S
C1151 H1130 0.950 . S
C1151 C1150 1.373 . S
C1151 C1167 1.377 . S
C1152 C1150 1.389 . S
C1152 C1153 1.524 . S
C1152 C1166 1.377 . S
C1153 C1152 1.524 . S
C1153 C1154 1.397 . S
C1153 C1158 1.363 . S
C1154 H1131 0.950 . S
C1154 C1153 1.397 . S
C1154 C1155 1.334 . S
C1155 H1132 0.950 . S
C1155 C1154 1.334 . S
C1155 C1156 1.287 . S
C1156 C1155 1.287 . S
C1156 C1157 1.524 . S
C1156 H1175 0.913 . S
C1157 H1133 0.950 . S
C1157 C1156 1.524 . S
C1157 C1158 1.415 . S
C1158 H1134 0.950 . S
C1158 C1153 1.363 . S
C1158 C1157 1.415 . S
C1159 H1135 0.951 . S
C1159 C1160 1.366 . S
C1159 C1161 1.388 . S
C1160 C1159 1.366 . S
C1160 C1164 1.385 . S
C1161 H1136 0.951 . S
C1161 C1159 1.388 . S
C1161 C1162 1.366 . S
C1162 C1161 1.366 . S
C1162 C1163 1.414 . S
C1162 C1165 1.499 . S
C1163 H1137 0.950 . S
C1163 C1162 1.414 . S
C1163 C1164 1.374 . S
C1164 H1138 0.950 . S
C1164 C1160 1.385 . S
C1164 C1163 1.374 . S
C1165 C1162 1.499 . S
C1165 C1166 1.373 . S
C1165 C1167 1.389 . S
C1166 H1139 0.950 . S
C1166 C1152 1.377 . S
C1166 C1165 1.373 . S
C1167 C1151 1.377 . S
C1167 C1165 1.389 . S
C1167 C1168 1.524 . S
C1168 C1167 1.524 . S
C1168 C1169 1.397 . S
C1168 C1173 1.363 . S
C1169 H1140 0.950 . S
C1169 C1168 1.397 . S
C1169 C1170 1.334 . S
C1170 H1141 0.950 . S
C1170 C1169 1.334 . S
C1170 C1171 1.287 . S
C1171 C1170 1.287 . S
C1171 C1172 1.524 . S
C1171 H1174 0.999 . S
C1172 H1142 0.950 . S
C1172 C1171 1.524 . S
C1172 C1173 1.415 . S
C1173 H1143 0.950 . S
C1173 C1168 1.363 . S
C1173 C1172 1.415 . S
H1174 C1171 0.999 . S
H1175 C1156 0.913 . S
H1176 C1194 0.951 . S
H1177 C1196 0.951 . S
H1178 C1198 0.950 . S
H1179 C1199 0.950 . S
H1180 C1201 0.950 . S
H1181 C1204 0.950 . S
H1182 C1205 0.950 . S
H1183 C1207 0.950 . S
H1184 C1208 0.950 . S
H1185 C1209 0.951 . S
H1186 C1211 0.951 . S
H1187 C1213 0.950 . S
H1188 C1214 0.950 . S
H1189 C1216 0.950 . S
H1190 C1219 0.950 . S
H1191 C1220 0.950 1_655 S
H1192 C1222 0.950 . S
H1193 C1223 0.950 . S
C1194 H1176 0.951 . S
C1194 C1195 1.366 . S
C1194 C1196 1.388 . S
C1195 C1194 1.366 . S
C1195 C1199 1.385 . S
C1196 H1177 0.951 . S
C1196 C1194 1.388 . S
C1196 C1197 1.366 . S
C1197 C1196 1.366 . S
C1197 C1198 1.414 . S
C1197 C1200 1.499 . S
C1198 H1178 0.950 . S
C1198 C1197 1.414 . S
C1198 C1199 1.374 . S
C1199 H1179 0.950 . S
C1199 C1195 1.385 . S
C1199 C1198 1.374 . S
C1200 C1197 1.499 . S
C1200 C1201 1.373 . S
C1200 C1202 1.389 . S
C1201 H1180 0.950 . S
C1201 C1200 1.373 . S
C1201 C1217 1.377 . S
C1202 C1200 1.389 . S
C1202 C1203 1.524 . S
C1202 C1216 1.377 . S
C1203 C1202 1.524 . S
C1203 C1204 1.397 . S
C1203 C1208 1.363 . S
C1204 H1181 0.950 . S
C1204 C1203 1.397 . S
C1204 C1205 1.334 . S
C1205 H1182 0.950 . S
C1205 C1204 1.334 . S
C1205 C1206 1.287 . S
C1206 C1205 1.287 . S
C1206 C1207 1.524 . S
C1206 H1225 0.913 . S
C1207 H1183 0.950 . S
C1207 C1206 1.524 . S
C1207 C1208 1.415 . S
C1208 H1184 0.950 . S
C1208 C1203 1.363 . S
C1208 C1207 1.415 . S
C1209 H1185 0.951 . S
C1209 C1210 1.366 . S
C1209 C1211 1.388 . S
C1210 C1209 1.366 . S
C1210 C1214 1.385 . S
C1211 H1186 0.951 . S
C1211 C1209 1.388 . S
C1211 C1212 1.366 . S
C1212 C1211 1.366 . S
C1212 C1213 1.414 . S
C1212 C1215 1.499 . S
C1213 H1187 0.950 . S
C1213 C1212 1.414 . S
C1213 C1214 1.374 . S
C1214 H1188 0.950 . S
C1214 C1210 1.385 . S
C1214 C1213 1.374 . S
C1215 C1212 1.499 . S
C1215 C1216 1.373 . S
C1215 C1217 1.389 . S
C1216 H1189 0.950 . S
C1216 C1202 1.377 . S
C1216 C1215 1.373 . S
C1217 C1201 1.377 . S
C1217 C1215 1.389 . S
C1217 C1218 1.524 . S
C1218 C1217 1.524 . S
C1218 C1219 1.397 . S
C1218 C1223 1.363 . S
C1219 H1190 0.950 . S
C1219 C1218 1.397 . S
C1219 C1220 1.334 . S
C1220 H1191 0.950 1_455 S
C1220 C1219 1.334 . S
C1220 C1221 1.287 . S
C1221 C1220 1.287 . S
C1221 C1222 1.524 . S
C1221 H1224 0.999 1_455 S
C1222 H1192 0.950 . S
C1222 C1221 1.524 . S
C1222 C1223 1.415 . S
C1223 H1193 0.950 . S
C1223 C1218 1.363 . S
C1223 C1222 1.415 . S
H1224 C1221 0.999 1_655 S
H1225 C1206 0.913 . S
H1226 C1244 0.951 . S
H1227 C1246 0.951 . S
H1228 C1248 0.950 . S
H1229 C1249 0.950 . S
H1230 C1251 0.950 . S
H1231 C1254 0.950 . S
H1232 C1255 0.950 . S
H1233 C1257 0.950 . S
H1234 C1258 0.950 . S
H1235 C1259 0.951 . S
H1236 C1261 0.951 . S
H1237 C1263 0.950 . S
H1238 C1264 0.950 . S
H1239 C1266 0.950 . S
H1240 C1269 0.950 . S
H1241 C1270 0.950 . S
H1242 C1272 0.950 . S
H1243 C1273 0.950 . S
C1244 H1226 0.951 . S
C1244 C1245 1.366 . S
C1244 C1246 1.388 . S
C1245 C1244 1.366 . S
C1245 C1249 1.385 . S
C1246 H1227 0.951 . S
C1246 C1244 1.388 . S
C1246 C1247 1.366 . S
C1247 C1246 1.366 . S
C1247 C1248 1.414 . S
C1247 C1250 1.499 . S
C1248 H1228 0.950 . S
C1248 C1247 1.414 . S
C1248 C1249 1.374 . S
C1249 H1229 0.950 . S
C1249 C1245 1.385 . S
C1249 C1248 1.374 . S
C1250 C1247 1.499 . S
C1250 C1251 1.373 . S
C1250 C1252 1.389 . S
C1251 H1230 0.950 . S
C1251 C1250 1.373 . S
C1251 C1267 1.377 . S
C1252 C1250 1.389 . S
C1252 C1253 1.524 . S
C1252 C1266 1.377 . S
C1253 C1252 1.524 . S
C1253 C1254 1.397 . S
C1253 C1258 1.363 . S
C1254 H1231 0.950 . S
C1254 C1253 1.397 . S
C1254 C1255 1.334 . S
C1255 H1232 0.950 . S
C1255 C1254 1.334 . S
C1255 C1256 1.287 . S
C1256 C1255 1.287 . S
C1256 C1257 1.524 . S
C1256 H1275 0.913 . S
C1257 H1233 0.950 . S
C1257 C1256 1.524 . S
C1257 C1258 1.415 . S
C1258 H1234 0.950 . S
C1258 C1253 1.363 . S
C1258 C1257 1.415 . S
C1259 H1235 0.951 . S
C1259 C1260 1.366 . S
C1259 C1261 1.388 . S
C1260 C1259 1.366 . S
C1260 C1264 1.385 . S
C1261 H1236 0.951 . S
C1261 C1259 1.388 . S
C1261 C1262 1.366 . S
C1262 C1261 1.366 . S
C1262 C1263 1.414 . S
C1262 C1265 1.499 . S
C1263 H1237 0.950 . S
C1263 C1262 1.414 . S
C1263 C1264 1.374 . S
C1264 H1238 0.950 . S
C1264 C1260 1.385 . S
C1264 C1263 1.374 . S
C1265 C1262 1.499 . S
C1265 C1266 1.373 . S
C1265 C1267 1.389 . S
C1266 H1239 0.950 . S
C1266 C1252 1.377 . S
C1266 C1265 1.373 . S
C1267 C1251 1.377 . S
C1267 C1265 1.389 . S
C1267 C1268 1.524 . S
C1268 C1267 1.524 . S
C1268 C1269 1.397 . S
C1268 C1273 1.363 . S
C1269 H1240 0.950 . S
C1269 C1268 1.397 . S
C1269 C1270 1.334 . S
C1270 H1241 0.950 . S
C1270 C1269 1.334 . S
C1270 C1271 1.287 . S
C1271 C1270 1.287 . S
C1271 C1272 1.524 . S
C1271 H1274 0.999 . S
C1272 H1242 0.950 . S
C1272 C1271 1.524 . S
C1272 C1273 1.415 . S
C1273 H1243 0.950 . S
C1273 C1268 1.363 . S
C1273 C1272 1.415 . S
H1274 C1271 0.999 . S
H1275 C1256 0.913 . S
H1276 C1294 0.951 . S
H1277 C1296 0.951 . S
H1278 C1298 0.950 . S
H1279 C1299 0.950 . S
H1280 C1301 0.950 . S
H1281 C1304 0.950 . S
H1282 C1305 0.950 . S
H1283 C1307 0.950 . S
H1284 C1308 0.950 . S
H1285 C1309 0.951 . S
H1286 C1311 0.951 . S
H1287 C1313 0.950 . S
H1288 C1314 0.950 . S
H1289 C1316 0.950 . S
H1290 C1319 0.950 . S
H1291 C1320 0.950 . S
H1292 C1322 0.950 . S
H1293 C1323 0.950 . S
C1294 H1276 0.951 . S
C1294 C1295 1.366 . S
C1294 C1296 1.388 . S
C1295 C1294 1.366 . S
C1295 C1299 1.385 . S
C1296 H1277 0.951 . S
C1296 C1294 1.388 . S
C1296 C1297 1.366 . S
C1297 C1296 1.366 . S
C1297 C1298 1.414 . S
C1297 C1300 1.499 . S
C1298 H1278 0.950 . S
C1298 C1297 1.414 . S
C1298 C1299 1.374 . S
C1299 H1279 0.950 . S
C1299 C1295 1.385 . S
C1299 C1298 1.374 . S
C1300 C1297 1.499 . S
C1300 C1301 1.373 . S
C1300 C1302 1.389 . S
C1301 H1280 0.950 . S
C1301 C1300 1.373 . S
C1301 C1317 1.377 . S
C1302 C1300 1.389 . S
C1302 C1303 1.524 . S
C1302 C1316 1.377 . S
C1303 C1302 1.524 . S
C1303 C1304 1.397 . S
C1303 C1308 1.363 . S
C1304 H1281 0.950 . S
C1304 C1303 1.397 . S
C1304 C1305 1.334 . S
C1305 H1282 0.950 . S
C1305 C1304 1.334 . S
C1305 C1306 1.287 . S
C1306 C1305 1.287 . S
C1306 C1307 1.524 . S
C1306 H1325 0.913 . S
C1307 H1283 0.950 . S
C1307 C1306 1.524 . S
C1307 C1308 1.415 . S
C1308 H1284 0.950 . S
C1308 C1303 1.363 . S
C1308 C1307 1.415 . S
C1309 H1285 0.951 . S
C1309 C1310 1.366 . S
C1309 C1311 1.388 . S
C1310 C1309 1.366 . S
C1310 C1314 1.385 . S
C1311 H1286 0.951 . S
C1311 C1309 1.388 . S
C1311 C1312 1.366 . S
C1312 C1311 1.366 . S
C1312 C1313 1.414 . S
C1312 C1315 1.499 . S
C1313 H1287 0.950 . S
C1313 C1312 1.414 . S
C1313 C1314 1.374 . S
C1314 H1288 0.950 . S
C1314 C1310 1.385 . S
C1314 C1313 1.374 . S
C1315 C1312 1.499 . S
C1315 C1316 1.373 . S
C1315 C1317 1.389 . S
C1316 H1289 0.950 . S
C1316 C1302 1.377 . S
C1316 C1315 1.373 . S
C1317 C1301 1.377 . S
C1317 C1315 1.389 . S
C1317 C1318 1.524 . S
C1318 C1317 1.524 . S
C1318 C1319 1.397 . S
C1318 C1323 1.363 . S
C1319 H1290 0.950 . S
C1319 C1318 1.397 . S
C1319 C1320 1.334 . S
C1320 H1291 0.950 . S
C1320 C1319 1.334 . S
C1320 C1321 1.287 . S
C1321 C1320 1.287 . S
C1321 C1322 1.524 . S
C1321 H1324 0.999 . S
C1322 H1292 0.950 . S
C1322 C1321 1.524 . S
C1322 C1323 1.415 . S
C1323 H1293 0.950 . S
C1323 C1318 1.363 . S
C1323 C1322 1.415 . S
H1324 C1321 0.999 . S
H1325 C1306 0.913 . S
H1326 C1344 0.951 . S
H1327 C1346 0.951 . S
H1328 C1348 0.950 . S
H1329 C1349 0.950 . S
H1330 C1351 0.950 . S
H1331 C1354 0.950 . S
H1332 C1355 0.950 . S
H1333 C1357 0.950 . S
H1334 C1358 0.950 . S
H1335 C1359 0.951 . S
H1336 C1361 0.951 . S
H1337 C1363 0.950 . S
H1338 C1364 0.950 . S
H1339 C1366 0.950 . S
H1340 C1369 0.950 . S
H1341 C1370 0.950 . S
H1342 C1372 0.950 . S
H1343 C1373 0.950 . S
C1344 H1326 0.951 . S
C1344 C1345 1.366 . S
C1344 C1346 1.388 . S
C1345 C1344 1.366 . S
C1345 C1349 1.385 . S
C1346 H1327 0.951 . S
C1346 C1344 1.388 . S
C1346 C1347 1.366 . S
C1347 C1346 1.366 . S
C1347 C1348 1.414 . S
C1347 C1350 1.499 . S
C1348 H1328 0.950 . S
C1348 C1347 1.414 . S
C1348 C1349 1.374 . S
C1349 H1329 0.950 . S
C1349 C1345 1.385 . S
C1349 C1348 1.374 . S
C1350 C1347 1.499 . S
C1350 C1351 1.373 . S
C1350 C1352 1.389 . S
C1351 H1330 0.950 . S
C1351 C1350 1.373 . S
C1351 C1367 1.377 . S
C1352 C1350 1.389 . S
C1352 C1353 1.524 . S
C1352 C1366 1.377 . S
C1353 C1352 1.524 . S
C1353 C1354 1.397 . S
C1353 C1358 1.363 . S
C1354 H1331 0.950 . S
C1354 C1353 1.397 . S
C1354 C1355 1.334 . S
C1355 H1332 0.950 . S
C1355 C1354 1.334 . S
C1355 C1356 1.287 . S
C1356 C1355 1.287 . S
C1356 C1357 1.524 . S
C1356 H1375 0.913 . S
C1357 H1333 0.950 . S
C1357 C1356 1.524 . S
C1357 C1358 1.415 . S
C1358 H1334 0.950 . S
C1358 C1353 1.363 . S
C1358 C1357 1.415 . S
C1359 H1335 0.951 . S
C1359 C1360 1.366 . S
C1359 C1361 1.388 . S
C1360 C1359 1.366 . S
C1360 C1364 1.385 . S
C1361 H1336 0.951 . S
C1361 C1359 1.388 . S
C1361 C1362 1.366 . S
C1362 C1361 1.366 . S
C1362 C1363 1.414 . S
C1362 C1365 1.499 . S
C1363 H1337 0.950 . S
C1363 C1362 1.414 . S
C1363 C1364 1.374 . S
C1364 H1338 0.950 . S
C1364 C1360 1.385 . S
C1364 C1363 1.374 . S
C1365 C1362 1.499 . S
C1365 C1366 1.373 . S
C1365 C1367 1.389 . S
C1366 H1339 0.950 . S
C1366 C1352 1.377 . S
C1366 C1365 1.373 . S
C1367 C1351 1.377 . S
C1367 C1365 1.389 . S
C1367 C1368 1.524 . S
C1368 C1367 1.524 . S
C1368 C1369 1.397 . S
C1368 C1373 1.363 . S
C1369 H1340 0.950 . S
C1369 C1368 1.397 . S
C1369 C1370 1.334 . S
C1370 H1341 0.950 . S
C1370 C1369 1.334 . S
C1370 C1371 1.287 . S
C1371 C1370 1.287 . S
C1371 C1372 1.524 . S
C1371 H1374 0.999 . S
C1372 H1342 0.950 . S
C1372 C1371 1.524 . S
C1372 C1373 1.415 . S
C1373 H1343 0.950 . S
C1373 C1368 1.363 . S
C1373 C1372 1.415 . S
H1374 C1371 0.999 . S
H1375 C1356 0.913 . S
H1376 C1394 0.951 . S
H1377 C1396 0.951 . S
H1378 C1398 0.950 . S
H1379 C1399 0.950 . S
H1380 C1401 0.950 . S
H1381 C1404 0.950 . S
H1382 C1405 0.950 . S
H1383 C1407 0.950 1_455 S
H1384 C1408 0.950 1_455 S
H1385 C1409 0.951 . S
H1386 C1411 0.951 . S
H1387 C1413 0.950 . S
H1388 C1414 0.950 . S
H1389 C1416 0.950 . S
H1390 C1419 0.950 . S
H1391 C1420 0.950 . S
H1392 C1422 0.950 . S
H1393 C1423 0.950 . S
C1394 H1376 0.951 . S
C1394 C1395 1.366 . S
C1394 C1396 1.388 . S
C1395 C1394 1.366 . S
C1395 C1399 1.385 . S
C1396 H1377 0.951 . S
C1396 C1394 1.388 . S
C1396 C1397 1.366 . S
C1397 C1396 1.366 . S
C1397 C1398 1.414 . S
C1397 C1400 1.499 . S
C1398 H1378 0.950 . S
C1398 C1397 1.414 . S
C1398 C1399 1.374 . S
C1399 H1379 0.950 . S
C1399 C1395 1.385 . S
C1399 C1398 1.374 . S
C1400 C1397 1.499 . S
C1400 C1401 1.373 . S
C1400 C1402 1.389 . S
C1401 H1380 0.950 . S
C1401 C1400 1.373 . S
C1401 C1417 1.377 . S
C1402 C1400 1.389 . S
C1402 C1403 1.524 . S
C1402 C1416 1.377 . S
C1403 C1402 1.524 . S
C1403 C1404 1.397 . S
C1403 C1408 1.363 . S
C1404 H1381 0.950 . S
C1404 C1403 1.397 . S
C1404 C1405 1.334 . S
C1405 H1382 0.950 . S
C1405 C1404 1.334 . S
C1405 C1406 1.287 . S
C1406 C1405 1.287 . S
C1406 C1407 1.524 . S
C1406 H1425 0.913 . S
C1407 H1383 0.950 1_655 S
C1407 C1406 1.524 . S
C1407 C1408 1.415 . S
C1408 H1384 0.950 1_655 S
C1408 C1403 1.363 . S
C1408 C1407 1.415 . S
C1409 H1385 0.951 . S
C1409 C1410 1.366 1_655 S
C1409 C1411 1.388 . S
C1410 C1409 1.366 1_455 S
C1410 C1414 1.385 . S
C1411 H1386 0.951 . S
C1411 C1409 1.388 . S
C1411 C1412 1.366 . S
C1412 C1411 1.366 . S
C1412 C1413 1.414 1_655 S
C1412 C1415 1.499 . S
C1413 H1387 0.950 . S
C1413 C1412 1.414 1_455 S
C1413 C1414 1.374 . S
C1414 H1388 0.950 . S
C1414 C1410 1.385 . S
C1414 C1413 1.374 . S
C1415 C1412 1.499 . S
C1415 C1416 1.373 . S
C1415 C1417 1.389 . S
C1416 H1389 0.950 . S
C1416 C1402 1.377 . S
C1416 C1415 1.373 . S
C1417 C1401 1.377 . S
C1417 C1415 1.389 . S
C1417 C1418 1.524 . S
C1418 C1417 1.524 . S
C1418 C1419 1.397 . S
C1418 C1423 1.363 . S
C1419 H1390 0.950 . S
C1419 C1418 1.397 . S
C1419 C1420 1.334 . S
C1420 H1391 0.950 . S
C1420 C1419 1.334 . S
C1420 C1421 1.287 . S
C1421 C1420 1.287 . S
C1421 C1422 1.524 . S
C1421 H1424 0.999 1_545 S
C1422 H1392 0.950 . S
C1422 C1421 1.524 . S
C1422 C1423 1.415 . S
C1423 H1393 0.950 . S
C1423 C1418 1.363 . S
C1423 C1422 1.415 . S
H1424 C1421 0.999 1_565 S
H1425 C1406 0.913 . S
H1426 C1444 0.951 . S
H1427 C1446 0.951 . S
H1428 C1448 0.950 . S
H1429 C1449 0.950 . S
H1430 C1451 0.950 . S
H1431 C1454 0.950 . S
H1432 C1455 0.950 . S
H1433 C1457 0.950 . S
H1434 C1458 0.950 . S
H1435 C1459 0.951 . S
H1436 C1461 0.951 . S
H1437 C1463 0.950 . S
H1438 C1464 0.950 . S
H1439 C1466 0.950 . S
H1440 C1469 0.950 . S
H1441 C1470 0.950 . S
H1442 C1472 0.950 . S
H1443 C1473 0.950 . S
C1444 H1426 0.951 . S
C1444 C1445 1.366 . S
C1444 C1446 1.388 . S
C1445 C1444 1.366 . S
C1445 C1449 1.385 . S
C1446 H1427 0.951 . S
C1446 C1444 1.388 . S
C1446 C1447 1.366 . S
C1447 C1446 1.366 . S
C1447 C1448 1.414 . S
C1447 C1450 1.499 . S
C1448 H1428 0.950 . S
C1448 C1447 1.414 . S
C1448 C1449 1.374 . S
C1449 H1429 0.950 . S
C1449 C1445 1.385 . S
C1449 C1448 1.374 . S
C1450 C1447 1.499 . S
C1450 C1451 1.373 . S
C1450 C1452 1.389 . S
C1451 H1430 0.950 . S
C1451 C1450 1.373 . S
C1451 C1467 1.377 . S
C1452 C1450 1.389 . S
C1452 C1453 1.524 . S
C1452 C1466 1.377 . S
C1453 C1452 1.524 . S
C1453 C1454 1.397 . S
C1453 C1458 1.363 . S
C1454 H1431 0.950 . S
C1454 C1453 1.397 . S
C1454 C1455 1.334 . S
C1455 H1432 0.950 . S
C1455 C1454 1.334 . S
C1455 C1456 1.287 . S
C1456 C1455 1.287 . S
C1456 C1457 1.524 . S
C1456 H1475 0.913 . S
C1457 H1433 0.950 . S
C1457 C1456 1.524 . S
C1457 C1458 1.415 . S
C1458 H1434 0.950 . S
C1458 C1453 1.363 . S
C1458 C1457 1.415 . S
C1459 H1435 0.951 . S
C1459 C1460 1.366 . S
C1459 C1461 1.388 . S
C1460 C1459 1.366 . S
C1460 C1464 1.385 . S
C1461 H1436 0.951 . S
C1461 C1459 1.388 . S
C1461 C1462 1.366 . S
C1462 C1461 1.366 . S
C1462 C1463 1.414 . S
C1462 C1465 1.499 . S
C1463 H1437 0.950 . S
C1463 C1462 1.414 . S
C1463 C1464 1.374 . S
C1464 H1438 0.950 . S
C1464 C1460 1.385 . S
C1464 C1463 1.374 . S
C1465 C1462 1.499 . S
C1465 C1466 1.373 . S
C1465 C1467 1.389 . S
C1466 H1439 0.950 . S
C1466 C1452 1.377 . S
C1466 C1465 1.373 . S
C1467 C1451 1.377 . S
C1467 C1465 1.389 . S
C1467 C1468 1.524 . S
C1468 C1467 1.524 . S
C1468 C1469 1.397 . S
C1468 C1473 1.363 . S
C1469 H1440 0.950 . S
C1469 C1468 1.397 . S
C1469 C1470 1.334 . S
C1470 H1441 0.950 . S
C1470 C1469 1.334 . S
C1470 C1471 1.287 . S
C1471 C1470 1.287 . S
C1471 C1472 1.524 . S
C1471 H1474 0.999 . S
C1472 H1442 0.950 . S
C1472 C1471 1.524 . S
C1472 C1473 1.415 . S
C1473 H1443 0.950 . S
C1473 C1468 1.363 . S
C1473 C1472 1.415 . S
H1474 C1471 0.999 . S
H1475 C1456 0.913 . S
H1476 C1494 0.951 . S
H1477 C1496 0.951 . S
H1478 C1498 0.950 . S
H1479 C1499 0.950 . S
H1480 C1501 0.950 1_565 S
H1481 C1504 0.950 . S
H1482 C1505 0.950 . S
H1483 C1507 0.950 . S
H1484 C1508 0.950 . S
H1485 C1509 0.951 . S
H1486 C1511 0.951 . S
H1487 C1513 0.950 . S
H1488 C1514 0.950 . S
H1489 C1516 0.950 . S
H1490 C1519 0.950 . S
H1491 C1520 0.950 . S
H1492 C1522 0.950 . S
H1493 C1523 0.962 . S
C1494 H1476 0.951 . S
C1494 C1495 1.366 . S
C1494 C1496 1.388 . S
C1495 C1494 1.366 . S
C1495 C1499 1.385 . S
C1496 H1477 0.951 . S
C1496 C1494 1.388 . S
C1496 C1497 1.366 . S
C1497 C1496 1.366 . S
C1497 C1498 1.414 . S
C1497 C1500 1.499 . S
C1498 H1478 0.950 . S
C1498 C1497 1.414 . S
C1498 C1499 1.374 . S
C1499 H1479 0.950 . S
C1499 C1495 1.385 . S
C1499 C1498 1.374 . S
C1500 C1497 1.499 . S
C1500 C1501 1.373 . S
C1500 C1502 1.389 . S
C1501 H1480 0.950 1_545 S
C1501 C1500 1.373 . S
C1501 C1517 1.377 . S
C1502 C1500 1.389 . S
C1502 C1503 1.524 . S
C1502 C1516 1.377 . S
C1503 C1502 1.524 . S
C1503 C1504 1.397 . S
C1503 C1508 1.363 . S
C1504 H1481 0.950 . S
C1504 C1503 1.397 . S
C1504 C1505 1.334 . S
C1505 H1482 0.950 . S
C1505 C1504 1.334 . S
C1505 C1506 1.287 . S
C1506 C1505 1.287 . S
C1506 C1507 1.524 . S
C1506 H1525 0.913 . S
C1507 H1483 0.950 . S
C1507 C1506 1.524 . S
C1507 C1508 1.415 . S
C1508 H1484 0.950 . S
C1508 C1503 1.363 . S
C1508 C1507 1.415 . S
C1509 H1485 0.951 . S
C1509 C1510 1.366 . S
C1509 C1511 1.388 . S
C1510 C1509 1.366 . S
C1510 C1514 1.385 . S
C1511 H1486 0.951 . S
C1511 C1509 1.388 . S
C1511 C1512 1.366 . S
C1512 C1511 1.366 . S
C1512 C1513 1.414 . S
C1512 C1515 1.499 . S
C1513 H1487 0.950 . S
C1513 C1512 1.414 . S
C1513 C1514 1.374 . S
C1514 H1488 0.950 . S
C1514 C1510 1.385 . S
C1514 C1513 1.374 . S
C1515 C1512 1.499 . S
C1515 C1516 1.373 . S
C1515 C1517 1.389 . S
C1516 H1489 0.950 . S
C1516 C1502 1.377 . S
C1516 C1515 1.373 . S
C1517 C1501 1.377 . S
C1517 C1515 1.389 . S
C1517 C1518 1.524 1_545 S
C1518 C1517 1.524 1_565 S
C1518 C1519 1.397 . S
C1518 C1523 1.363 . S
C1519 H1490 0.950 . S
C1519 C1518 1.397 . S
C1519 C1520 1.334 . S
C1520 H1491 0.950 . S
C1520 C1519 1.334 . S
C1520 C1521 1.287 . S
C1521 C1520 1.287 . S
C1521 C1522 1.524 . S
C1521 H1524 0.999 . S
C1522 H1492 0.950 . S
C1522 C1521 1.524 . S
C1522 C1523 1.415 . S
C1523 H1493 0.962 . S
C1523 C1518 1.363 . S
C1523 C1522 1.415 . S
H1524 C1521 0.999 . S
H1525 C1506 0.913 . S
H1526 C1544 0.951 . S
H1527 C1546 0.951 . S
H1528 C1548 0.950 . S
H1529 C1549 0.950 . S
H1530 C1551 0.950 . S
H1531 C1554 0.950 . S
H1532 C1555 0.950 . S
H1533 C1557 0.950 1_556 S
H1534 C1558 0.950 . S
H1535 C1559 0.951 . S
H1536 C1561 0.951 . S
H1537 C1563 0.950 . S
H1538 C1564 0.950 . S
H1539 C1566 0.950 . S
H1540 C1569 0.950 . S
H1541 C1570 0.950 . S
H1542 C1572 0.950 . S
H1543 C1573 0.950 . S
C1544 H1526 0.951 . S
C1544 C1545 1.366 . S
C1544 C1546 1.388 . S
C1545 C1544 1.366 . S
C1545 C1549 1.385 . S
C1546 H1527 0.951 . S
C1546 C1544 1.388 . S
C1546 C1547 1.366 . S
C1547 C1546 1.366 . S
C1547 C1548 1.414 . S
C1547 C1550 1.499 1_554 S
C1548 H1528 0.950 . S
C1548 C1547 1.414 . S
C1548 C1549 1.374 . S
C1549 H1529 0.950 . S
C1549 C1545 1.385 . S
C1549 C1548 1.374 . S
C1550 C1547 1.499 1_556 S
C1550 C1551 1.373 . S
C1550 C1552 1.389 . S
C1551 H1530 0.950 . S
C1551 C1550 1.373 . S
C1551 C1567 1.377 . S
C1552 C1550 1.389 . S
C1552 C1553 1.523 . S
C1552 C1566 1.377 . S
C1553 C1552 1.523 . S
C1553 C1554 1.398 1_556 S
C1553 C1558 1.362 . S
C1554 H1531 0.950 . S
C1554 C1553 1.398 1_554 S
C1554 C1555 1.334 . S
C1555 H1532 0.950 . S
C1555 C1554 1.334 . S
C1555 C1556 1.287 . S
C1556 C1555 1.287 . S
C1556 C1557 1.524 . S
C1556 H1575 0.913 . S
C1557 H1533 0.950 1_554 S
C1557 C1556 1.524 . S
C1557 C1558 1.415 1_554 S
C1558 H1534 0.950 . S
C1558 C1553 1.362 . S
C1558 C1557 1.415 1_556 S
C1559 H1535 0.951 . S
C1559 C1560 1.366 . S
C1559 C1561 1.388 . S
C1560 C1559 1.366 . S
C1560 C1564 1.385 . S
C1561 H1536 0.951 . S
C1561 C1559 1.388 . S
C1561 C1562 1.366 . S
C1562 C1561 1.366 . S
C1562 C1563 1.414 . S
C1562 C1565 1.499 . S
C1563 H1537 0.950 . S
C1563 C1562 1.414 . S
C1563 C1564 1.374 . S
C1564 H1538 0.950 . S
C1564 C1560 1.385 . S
C1564 C1563 1.374 . S
C1565 C1562 1.499 . S
C1565 C1566 1.373 . S
C1565 C1567 1.389 . S
C1566 H1539 0.950 . S
C1566 C1552 1.377 . S
C1566 C1565 1.373 . S
C1567 C1551 1.377 . S
C1567 C1565 1.389 . S
C1567 C1568 1.524 . S
C1568 C1567 1.524 . S
C1568 C1569 1.397 . S
C1568 C1573 1.363 . S
C1569 H1540 0.950 . S
C1569 C1568 1.397 . S
C1569 C1570 1.334 . S
C1570 H1541 0.950 . S
C1570 C1569 1.334 . S
C1570 C1571 1.287 . S
C1571 C1570 1.287 . S
C1571 C1572 1.524 . S
C1571 H1574 0.999 . S
C1572 H1542 0.950 . S
C1572 C1571 1.524 . S
C1572 C1573 1.415 . S
C1573 H1543 0.950 . S
C1573 C1568 1.363 . S
C1573 C1572 1.415 . S
H1574 C1571 0.999 . S
H1575 C1556 0.913 . S
H1576 C1594 0.951 . S
H1577 C1596 0.951 . S
H1578 C1598 0.950 . S
H1579 C1599 0.950 . S
H1580 C1601 0.950 . S
H1581 C1604 0.950 . S
H1582 C1605 0.950 . S
H1583 C1607 0.950 . S
H1584 C1608 0.950 . S
H1585 C1609 0.951 . S
H1586 C1611 0.951 . S
H1587 C1613 0.950 . S
H1588 C1614 0.945 . S
H1589 C1616 0.950 . S
H1590 C1619 0.950 . S
H1591 C1620 0.950 . S
H1592 C1622 0.996 . S
H1593 C1623 0.950 . S
C1594 H1576 0.951 . S
C1594 C1595 1.366 . S
C1594 C1596 1.388 . S
C1595 C1594 1.366 . S
C1595 C1599 1.385 . S
C1596 H1577 0.951 . S
C1596 C1594 1.388 . S
C1596 C1597 1.366 . S
C1597 C1596 1.366 . S
C1597 C1598 1.414 . S
C1597 C1600 1.499 . S
C1598 H1578 0.950 . S
C1598 C1597 1.414 . S
C1598 C1599 1.374 . S
C1599 H1579 0.950 . S
C1599 C1595 1.385 . S
C1599 C1598 1.374 . S
C1600 C1597 1.499 . S
C1600 C1601 1.373 . S
C1600 C1602 1.389 . S
C1601 H1580 0.950 . S
C1601 C1600 1.373 . S
C1601 C1617 1.377 . S
C1602 C1600 1.389 . S
C1602 C1603 1.524 . S
C1602 C1616 1.377 . S
C1603 C1602 1.524 . S
C1603 C1604 1.397 . S
C1603 C1608 1.363 . S
C1604 H1581 0.950 . S
C1604 C1603 1.397 . S
C1604 C1605 1.334 . S
C1605 H1582 0.950 . S
C1605 C1604 1.334 . S
C1605 C1606 1.287 . S
C1606 C1605 1.287 . S
C1606 C1607 1.524 . S
C1606 H1625 0.913 . S
C1607 H1583 0.950 . S
C1607 C1606 1.524 . S
C1607 C1608 1.415 . S
C1608 H1584 0.950 . S
C1608 C1603 1.363 . S
C1608 C1607 1.415 . S
C1609 H1585 0.951 . S
C1609 C1610 1.366 . S
C1609 C1611 1.388 . S
C1610 C1609 1.366 . S
C1610 C1614 1.434 . S
C1611 H1586 0.951 . S
C1611 C1609 1.388 . S
C1611 C1612 1.366 1_455 S
C1612 C1611 1.366 1_655 S
C1612 C1613 1.414 . S
C1612 C1615 1.499 . S
C1613 H1587 0.950 . S
C1613 C1612 1.414 . S
C1613 C1614 1.345 1_655 S
C1614 H1588 0.945 . S
C1614 C1610 1.434 . S
C1614 C1613 1.345 1_455 S
C1615 C1612 1.499 . S
C1615 C1616 1.373 . S
C1615 C1617 1.389 . S
C1616 H1589 0.950 . S
C1616 C1602 1.377 . S
C1616 C1615 1.373 . S
C1617 C1601 1.377 . S
C1617 C1615 1.389 . S
C1617 C1618 1.524 . S
C1618 C1617 1.524 . S
C1618 C1619 1.397 . S
C1618 C1623 1.363 . S
C1619 H1590 0.950 . S
C1619 C1618 1.397 . S
C1619 C1620 1.334 . S
C1620 H1591 0.950 . S
C1620 C1619 1.334 . S
C1620 C1621 1.265 1_545 S
C1621 C1620 1.265 1_565 S
C1621 C1622 1.525 . S
C1621 H1624 1.026 . S
C1622 H1592 0.996 . S
C1622 C1621 1.525 . S
C1622 C1623 1.362 1_565 S
C1623 H1593 0.950 . S
C1623 C1618 1.363 . S
C1623 C1622 1.362 1_545 S
H1624 C1621 1.026 . S
H1625 C1606 0.913 . S
H1626 C1644 0.951 . S
H1627 C1646 0.951 . S
H1628 C1648 0.950 . S
H1629 C1649 0.950 . S
H1630 C1651 0.950 . S
H1631 C1654 0.950 . S
H1632 C1655 0.950 . S
H1633 C1657 0.950 . S
H1634 C1658 0.950 . S
H1635 C1659 0.951 . S
H1636 C1661 0.951 . S
H1637 C1663 0.950 . S
H1638 C1664 0.950 . S
H1639 C1666 0.950 . S
H1640 C1669 0.950 . S
H1641 C1670 0.950 . S
H1642 C1672 0.950 . S
H1643 C1673 0.950 . S
C1644 H1626 0.951 . S
C1644 C1645 1.366 . S
C1644 C1646 1.388 . S
C1645 C1644 1.366 . S
C1645 C1649 1.385 . S
C1646 H1627 0.951 . S
C1646 C1644 1.388 . S
C1646 C1647 1.366 . S
C1647 C1646 1.366 . S
C1647 C1648 1.414 . S
C1647 C1650 1.499 . S
C1648 H1628 0.950 . S
C1648 C1647 1.414 . S
C1648 C1649 1.374 . S
C1649 H1629 0.950 . S
C1649 C1645 1.385 . S
C1649 C1648 1.374 . S
C1650 C1647 1.499 . S
C1650 C1651 1.373 . S
C1650 C1652 1.389 . S
C1651 H1630 0.950 . S
C1651 C1650 1.373 . S
C1651 C1667 1.377 . S
C1652 C1650 1.389 . S
C1652 C1653 1.524 . S
C1652 C1666 1.377 . S
C1653 C1652 1.524 . S
C1653 C1654 1.397 . S
C1653 C1658 1.363 . S
C1654 H1631 0.950 . S
C1654 C1653 1.397 . S
C1654 C1655 1.334 . S
C1655 H1632 0.950 . S
C1655 C1654 1.334 . S
C1655 C1656 1.287 . S
C1656 C1655 1.287 . S
C1656 C1657 1.524 . S
C1656 H1675 0.913 . S
C1657 H1633 0.950 . S
C1657 C1656 1.524 . S
C1657 C1658 1.415 . S
C1658 H1634 0.950 . S
C1658 C1653 1.363 . S
C1658 C1657 1.415 . S
C1659 H1635 0.951 . S
C1659 C1660 1.366 . S
C1659 C1661 1.388 . S
C1660 C1659 1.366 . S
C1660 C1664 1.385 . S
C1661 H1636 0.951 . S
C1661 C1659 1.388 . S
C1661 C1662 1.366 . S
C1662 C1661 1.366 . S
C1662 C1663 1.414 . S
C1662 C1665 1.499 . S
C1663 H1637 0.950 . S
C1663 C1662 1.414 . S
C1663 C1664 1.374 . S
C1664 H1638 0.950 . S
C1664 C1660 1.385 . S
C1664 C1663 1.374 . S
C1665 C1662 1.499 . S
C1665 C1666 1.373 . S
C1665 C1667 1.389 . S
C1666 H1639 0.950 . S
C1666 C1652 1.377 . S
C1666 C1665 1.373 . S
C1667 C1651 1.377 . S
C1667 C1665 1.389 . S
C1667 C1668 1.524 . S
C1668 C1667 1.524 . S
C1668 C1669 1.397 . S
C1668 C1673 1.363 . S
C1669 H1640 0.950 . S
C1669 C1668 1.397 . S
C1669 C1670 1.334 . S
C1670 H1641 0.950 . S
C1670 C1669 1.334 . S
C1670 C1671 1.287 . S
C1671 C1670 1.287 . S
C1671 C1672 1.524 . S
C1671 H1674 0.999 . S
C1672 H1642 0.950 . S
C1672 C1671 1.524 . S
C1672 C1673 1.415 . S
C1673 H1643 0.950 . S
C1673 C1668 1.363 . S
C1673 C1672 1.415 . S
H1674 C1671 0.999 . S
H1675 C1656 0.913 . S
H1676 C1694 0.917 1_565 S
H1677 C1696 0.951 1_565 S
H1678 C1698 0.950 . S
H1679 C1699 0.950 . S
H1680 C1701 0.950 . S
H1681 C1704 0.950 1_545 S
H1682 C1705 0.950 . S
H1683 C1707 0.950 . S
H1684 C1708 0.950 . S
H1685 C1709 0.951 . S
H1686 C1711 0.951 . S
H1687 C1713 0.950 . S
H1688 C1714 0.950 . S
H1689 C1716 0.950 . S
H1690 C1719 0.950 . S
H1691 C1720 0.950 1_554 S
H1692 C1722 0.950 . S
H1693 C1723 0.950 . S
C1694 H1676 0.917 1_545 S
C1694 C1695 1.391 . S
C1694 C1696 1.397 . S
C1695 C1694 1.391 . S
C1695 C1699 1.385 . S
C1696 H1677 0.951 1_545 S
C1696 C1694 1.397 . S
C1696 C1697 1.366 . S
C1697 C1696 1.366 . S
C1697 C1698 1.414 . S
C1697 C1700 1.499 . S
C1698 H1678 0.950 . S
C1698 C1697 1.414 . S
C1698 C1699 1.374 . S
C1699 H1679 0.950 . S
C1699 C1695 1.385 . S
C1699 C1698 1.374 . S
C1700 C1697 1.499 . S
C1700 C1701 1.373 . S
C1700 C1702 1.389 . S
C1701 H1680 0.950 . S
C1701 C1700 1.373 . S
C1701 C1717 1.377 . S
C1702 C1700 1.389 . S
C1702 C1703 1.524 1_545 S
C1702 C1716 1.377 . S
C1703 C1702 1.524 1_565 S
C1703 C1704 1.397 . S
C1703 C1708 1.363 . S
C1704 H1681 0.950 1_565 S
C1704 C1703 1.397 . S
C1704 C1705 1.334 . S
C1705 H1682 0.950 . S
C1705 C1704 1.334 . S
C1705 C1706 1.287 . S
C1706 C1705 1.287 . S
C1706 C1707 1.524 . S
C1706 H1725 0.913 . S
C1707 H1683 0.950 . S
C1707 C1706 1.524 . S
C1707 C1708 1.415 . S
C1708 H1684 0.950 . S
C1708 C1703 1.363 . S
C1708 C1707 1.415 . S
C1709 H1685 0.951 . S
C1709 C1710 1.366 1_556 S
C1709 C1711 1.388 . S
C1710 C1709 1.366 1_554 S
C1710 C1714 1.385 . S
C1711 H1686 0.951 . S
C1711 C1709 1.388 . S
C1711 C1712 1.366 . S
C1712 C1711 1.366 . S
C1712 C1713 1.414 . S
C1712 C1715 1.499 . S
C1713 H1687 0.950 . S
C1713 C1712 1.414 . S
C1713 C1714 1.374 1_556 S
C1714 H1688 0.950 . S
C1714 C1710 1.385 . S
C1714 C1713 1.374 1_554 S
C1715 C1712 1.499 . S
C1715 C1716 1.373 . S
C1715 C1717 1.389 . S
C1716 H1689 0.950 . S
C1716 C1702 1.377 . S
C1716 C1715 1.373 . S
C1717 C1701 1.377 . S
C1717 C1715 1.389 . S
C1717 C1718 1.524 . S
C1718 C1717 1.524 . S
C1718 C1719 1.397 . S
C1718 C1723 1.363 . S
C1719 H1690 0.950 . S
C1719 C1718 1.397 . S
C1719 C1720 1.334 . S
C1720 H1691 0.950 1_556 S
C1720 C1719 1.334 . S
C1720 C1721 1.287 . S
C1721 C1720 1.287 . S
C1721 C1722 1.524 . S
C1721 H1724 0.999 . S
C1722 H1692 0.950 . S
C1722 C1721 1.524 . S
C1722 C1723 1.415 . S
C1723 H1693 0.950 . S
C1723 C1718 1.363 . S
C1723 C1722 1.415 . S
H1724 C1721 0.999 . S
H1725 C1706 0.913 . S
H1726 C1744 0.951 . S
H1727 C1746 0.951 . S
H1728 C1748 0.950 . S
H1729 C1749 0.950 . S
H1730 C1751 0.950 . S
H1731 C1754 0.950 . S
H1732 C1755 0.950 . S
H1733 C1757 0.950 . S
H1734 C1758 0.950 . S
H1735 C1759 0.951 . S
H1736 C1761 0.951 . S
H1737 C1763 0.950 . S
H1738 C1764 0.950 . S
H1739 C1766 0.950 . S
H1740 C1769 0.950 . S
H1741 C1770 0.950 . S
H1742 C1772 0.950 . S
H1743 C1773 0.950 . S
C1744 H1726 0.951 . S
C1744 C1745 1.366 . S
C1744 C1746 1.388 . S
C1745 C1744 1.366 . S
C1745 C1749 1.385 . S
C1746 H1727 0.951 . S
C1746 C1744 1.388 . S
C1746 C1747 1.366 . S
C1747 C1746 1.366 . S
C1747 C1748 1.414 . S
C1747 C1750 1.499 . S
C1748 H1728 0.950 . S
C1748 C1747 1.414 . S
C1748 C1749 1.374 . S
C1749 H1729 0.950 . S
C1749 C1745 1.385 . S
C1749 C1748 1.374 . S
C1750 C1747 1.499 . S
C1750 C1751 1.373 . S
C1750 C1752 1.389 . S
C1751 H1730 0.950 . S
C1751 C1750 1.373 . S
C1751 C1767 1.377 . S
C1752 C1750 1.389 . S
C1752 C1753 1.524 . S
C1752 C1766 1.377 . S
C1753 C1752 1.524 . S
C1753 C1754 1.397 . S
C1753 C1758 1.363 . S
C1754 H1731 0.950 . S
C1754 C1753 1.397 . S
C1754 C1755 1.334 . S
C1755 H1732 0.950 . S
C1755 C1754 1.334 . S
C1755 C1756 1.287 . S
C1756 C1755 1.287 . S
C1756 C1757 1.524 . S
C1756 H1775 0.913 . S
C1757 H1733 0.950 . S
C1757 C1756 1.524 . S
C1757 C1758 1.415 . S
C1758 H1734 0.950 . S
C1758 C1753 1.363 . S
C1758 C1757 1.415 . S
C1759 H1735 0.951 . S
C1759 C1760 1.366 . S
C1759 C1761 1.388 . S
C1760 C1759 1.366 . S
C1760 C1764 1.385 . S
C1761 H1736 0.951 . S
C1761 C1759 1.388 . S
C1761 C1762 1.366 . S
C1762 C1761 1.366 . S
C1762 C1763 1.414 . S
C1762 C1765 1.499 . S
C1763 H1737 0.950 . S
C1763 C1762 1.414 . S
C1763 C1764 1.374 . S
C1764 H1738 0.950 . S
C1764 C1760 1.385 . S
C1764 C1763 1.374 . S
C1765 C1762 1.499 . S
C1765 C1766 1.373 . S
C1765 C1767 1.389 . S
C1766 H1739 0.950 . S
C1766 C1752 1.377 . S
C1766 C1765 1.373 . S
C1767 C1751 1.377 . S
C1767 C1765 1.389 . S
C1767 C1768 1.524 . S
C1768 C1767 1.524 . S
C1768 C1769 1.397 . S
C1768 C1773 1.363 . S
C1769 H1740 0.950 . S
C1769 C1768 1.397 . S
C1769 C1770 1.334 . S
C1770 H1741 0.950 . S
C1770 C1769 1.334 . S
C1770 C1771 1.287 . S
C1771 C1770 1.287 . S
C1771 C1772 1.524 . S
C1771 H1774 0.999 . S
C1772 H1742 0.950 . S
C1772 C1771 1.524 . S
C1772 C1773 1.415 . S
C1773 H1743 0.950 . S
C1773 C1768 1.363 . S
C1773 C1772 1.415 . S
H1774 C1771 0.999 . S
H1775 C1756 0.913 . S
H1776 C1794 0.951 . S
H1777 C1796 0.951 . S
H1778 C1798 0.950 . S
H1779 C1799 0.950 . S
H1780 C1801 0.950 . S
H1781 C1804 0.950 . S
H1782 C1805 0.950 . S
H1783 C1807 0.950 . S
H1784 C1808 0.950 . S
H1785 C1809 0.951 . S
H1786 C1811 0.951 . S
H1787 C1813 0.950 . S
H1788 C1814 0.950 . S
H1789 C1816 0.950 1_545 S
H1790 C1819 0.950 . S
H1791 C1820 0.950 1_556 S
H1792 C1822 0.950 . S
H1793 C1823 0.950 . S
C1794 H1776 0.951 . S
C1794 C1795 1.366 . S
C1794 C1796 1.388 . S
C1795 C1794 1.366 . S
C1795 C1799 1.385 . S
C1796 H1777 0.951 . S
C1796 C1794 1.388 . S
C1796 C1797 1.366 . S
C1797 C1796 1.366 . S
C1797 C1798 1.414 . S
C1797 C1800 1.499 . S
C1798 H1778 0.950 . S
C1798 C1797 1.414 . S
C1798 C1799 1.374 . S
C1799 H1779 0.950 . S
C1799 C1795 1.385 . S
C1799 C1798 1.374 . S
C1800 C1797 1.499 . S
C1800 C1801 1.373 . S
C1800 C1802 1.389 . S
C1801 H1780 0.950 . S
C1801 C1800 1.373 . S
C1801 C1817 1.377 . S
C1802 C1800 1.389 . S
C1802 C1803 1.524 . S
C1802 C1816 1.377 . S
C1803 C1802 1.524 . S
C1803 C1804 1.397 . S
C1803 C1808 1.363 1_565 S
C1804 H1781 0.950 . S
C1804 C1803 1.397 . S
C1804 C1805 1.334 . S
C1805 H1782 0.950 . S
C1805 C1804 1.334 . S
C1805 C1806 1.281 1_565 S
C1806 C1805 1.281 1_545 S
C1806 C1807 1.530 . S
C1806 H1825 0.913 . S
C1807 H1783 0.950 . S
C1807 C1806 1.530 . S
C1807 C1808 1.415 . S
C1808 H1784 0.950 . S
C1808 C1803 1.363 1_545 S
C1808 C1807 1.415 . S
C1809 H1785 0.951 . S
C1809 C1810 1.366 . S
C1809 C1811 1.388 1_545 S
C1810 C1809 1.366 . S
C1810 C1814 1.385 . S
C1811 H1786 0.951 . S
C1811 C1809 1.388 1_565 S
C1811 C1812 1.366 1_565 S
C1812 C1811 1.366 1_545 S
C1812 C1813 1.414 . S
C1812 C1815 1.499 1_545 S
C1813 H1787 0.950 . S
C1813 C1812 1.414 . S
C1813 C1814 1.374 . S
C1814 H1788 0.950 . S
C1814 C1810 1.385 . S
C1814 C1813 1.374 . S
C1815 C1812 1.499 1_565 S
C1815 C1816 1.373 . S
C1815 C1817 1.389 . S
C1816 H1789 0.950 1_565 S
C1816 C1802 1.377 . S
C1816 C1815 1.373 . S
C1817 C1801 1.377 . S
C1817 C1815 1.389 . S
C1817 C1818 1.524 . S
C1818 C1817 1.524 . S
C1818 C1819 1.397 . S
C1818 C1823 1.363 . S
C1819 H1790 0.950 . S
C1819 C1818 1.397 . S
C1819 C1820 1.334 . S
C1820 H1791 0.950 1_554 S
C1820 C1819 1.334 . S
C1820 C1821 1.287 . S
C1821 C1820 1.287 . S
C1821 C1822 1.524 . S
C1821 H1824 0.999 1_554 S
C1822 H1792 0.950 . S
C1822 C1821 1.524 . S
C1822 C1823 1.415 . S
C1823 H1793 0.950 . S
C1823 C1818 1.363 . S
C1823 C1822 1.415 . S
H1824 C1821 0.999 1_556 S
H1825 C1806 0.913 . S
H1826 C1844 0.951 . S
H1827 C1846 0.951 . S
H1828 C1848 0.950 1_556 S
H1829 C1849 0.950 . S
H1830 C1851 0.950 . S
H1831 C1854 0.950 . S
H1832 C1855 0.950 . S
H1833 C1857 0.950 . S
H1834 C1858 0.950 . S
H1835 C1859 0.951 . S
H1836 C1861 0.951 . S
H1837 C1863 0.950 . S
H1838 C1864 0.950 . S
H1839 C1866 0.950 . S
H1840 C1869 0.950 . S
H1841 C1870 0.950 . S
H1842 C1872 0.950 . S
H1843 C1873 0.950 . S
C1844 H1826 0.951 . S
C1844 C1845 1.366 . S
C1844 C1846 1.388 . S
C1845 C1844 1.366 . S
C1845 C1849 1.385 1_554 S
C1846 H1827 0.951 . S
C1846 C1844 1.388 . S
C1846 C1847 1.366 . S
C1847 C1846 1.366 . S
C1847 C1848 1.414 . S
C1847 C1850 1.499 . S
C1848 H1828 0.950 1_554 S
C1848 C1847 1.414 . S
C1848 C1849 1.374 1_554 S
C1849 H1829 0.950 . S
C1849 C1845 1.385 1_556 S
C1849 C1848 1.374 1_556 S
C1850 C1847 1.499 . S
C1850 C1851 1.373 . S
C1850 C1852 1.389 . S
C1851 H1830 0.950 . S
C1851 C1850 1.373 . S
C1851 C1867 1.377 . S
C1852 C1850 1.389 . S
C1852 C1853 1.524 . S
C1852 C1866 1.377 . S
C1853 C1852 1.524 . S
C1853 C1854 1.397 1_554 S
C1853 C1858 1.363 . S
C1854 H1831 0.950 . S
C1854 C1853 1.397 1_556 S
C1854 C1855 1.334 . S
C1855 H1832 0.950 . S
C1855 C1854 1.334 . S
C1855 C1856 1.287 . S
C1856 C1855 1.287 . S
C1856 C1857 1.524 1_556 S
C1856 H1875 0.913 . S
C1857 H1833 0.950 . S
C1857 C1856 1.524 1_554 S
C1857 C1858 1.415 . S
C1858 H1834 0.950 . S
C1858 C1853 1.363 . S
C1858 C1857 1.415 . S
C1859 H1835 0.951 . S
C1859 C1860 1.366 . S
C1859 C1861 1.388 . S
C1860 C1859 1.366 . S
C1860 C1864 1.385 . S
C1861 H1836 0.951 . S
C1861 C1859 1.388 . S
C1861 C1862 1.366 . S
C1862 C1861 1.366 . S
C1862 C1863 1.414 . S
C1862 C1865 1.499 . S
C1863 H1837 0.950 . S
C1863 C1862 1.414 . S
C1863 C1864 1.374 . S
C1864 H1838 0.950 . S
C1864 C1860 1.385 . S
C1864 C1863 1.374 . S
C1865 C1862 1.499 . S
C1865 C1866 1.373 . S
C1865 C1867 1.389 . S
C1866 H1839 0.950 . S
C1866 C1852 1.377 . S
C1866 C1865 1.373 . S
C1867 C1851 1.377 . S
C1867 C1865 1.389 . S
C1867 C1868 1.524 . S
C1868 C1867 1.524 . S
C1868 C1869 1.397 . S
C1868 C1873 1.363 . S
C1869 H1840 0.950 . S
C1869 C1868 1.397 . S
C1869 C1870 1.334 . S
C1870 H1841 0.950 . S
C1870 C1869 1.334 . S
C1870 C1871 1.287 . S
C1871 C1870 1.287 . S
C1871 C1872 1.524 . S
C1871 H1874 0.999 . S
C1872 H1842 0.950 . S
C1872 C1871 1.524 . S
C1872 C1873 1.415 . S
C1873 H1843 0.950 . S
C1873 C1868 1.363 . S
C1873 C1872 1.415 . S
H1874 C1871 0.999 . S
H1875 C1856 0.913 . S
H1876 C1894 0.951 . S
H1877 C1896 0.951 . S
H1878 C1898 0.950 . S
H1879 C1899 0.950 . S
H1880 C1901 0.950 . S
H1881 C1904 0.950 . S
H1882 C1905 0.950 . S
H1883 C1907 0.950 . S
H1884 C1908 0.950 . S
H1885 C1909 0.951 . S
H1886 C1911 0.951 . S
H1887 C1913 0.950 . S
H1888 C1914 0.950 . S
H1889 C1916 0.950 . S
H1890 C1919 0.950 . S
H1891 C1920 0.950 . S
H1892 C1922 0.950 . S
H1893 C1923 0.950 . S
C1894 H1876 0.951 . S
C1894 C1895 1.366 . S
C1894 C1896 1.388 . S
C1895 C1894 1.366 . S
C1895 C1899 1.385 . S
C1896 H1877 0.951 . S
C1896 C1894 1.388 . S
C1896 C1897 1.366 . S
C1897 C1896 1.366 . S
C1897 C1898 1.414 . S
C1897 C1900 1.499 . S
C1898 H1878 0.950 . S
C1898 C1897 1.414 . S
C1898 C1899 1.374 . S
C1899 H1879 0.950 . S
C1899 C1895 1.385 . S
C1899 C1898 1.374 . S
C1900 C1897 1.499 . S
C1900 C1901 1.373 . S
C1900 C1902 1.389 . S
C1901 H1880 0.950 . S
C1901 C1900 1.373 . S
C1901 C1917 1.377 . S
C1902 C1900 1.389 . S
C1902 C1903 1.524 . S
C1902 C1916 1.377 . S
C1903 C1902 1.524 . S
C1903 C1904 1.397 . S
C1903 C1908 1.363 . S
C1904 H1881 0.950 . S
C1904 C1903 1.397 . S
C1904 C1905 1.334 . S
C1905 H1882 0.950 . S
C1905 C1904 1.334 . S
C1905 C1906 1.287 . S
C1906 C1905 1.287 . S
C1906 C1907 1.524 . S
C1906 H1925 0.913 . S
C1907 H1883 0.950 . S
C1907 C1906 1.524 . S
C1907 C1908 1.415 . S
C1908 H1884 0.950 . S
C1908 C1903 1.363 . S
C1908 C1907 1.415 . S
C1909 H1885 0.951 . S
C1909 C1910 1.366 . S
C1909 C1911 1.388 . S
C1910 C1909 1.366 . S
C1910 C1914 1.385 . S
C1911 H1886 0.951 . S
C1911 C1909 1.388 . S
C1911 C1912 1.366 . S
C1912 C1911 1.366 . S
C1912 C1913 1.414 . S
C1912 C1915 1.499 . S
C1913 H1887 0.950 . S
C1913 C1912 1.414 . S
C1913 C1914 1.374 . S
C1914 H1888 0.950 . S
C1914 C1910 1.385 . S
C1914 C1913 1.374 . S
C1915 C1912 1.499 . S
C1915 C1916 1.373 . S
C1915 C1917 1.389 . S
C1916 H1889 0.950 . S
C1916 C1902 1.377 . S
C1916 C1915 1.373 . S
C1917 C1901 1.377 . S
C1917 C1915 1.389 . S
C1917 C1918 1.524 . S
C1918 C1917 1.524 . S
C1918 C1919 1.397 . S
C1918 C1923 1.363 . S
C1919 H1890 0.950 . S
C1919 C1918 1.397 . S
C1919 C1920 1.334 . S
C1920 H1891 0.950 . S
C1920 C1919 1.334 . S
C1920 C1921 1.287 . S
C1921 C1920 1.287 . S
C1921 C1922 1.524 . S
C1921 H1924 0.999 . S
C1922 H1892 0.950 . S
C1922 C1921 1.524 . S
C1922 C1923 1.415 . S
C1923 H1893 0.950 . S
C1923 C1918 1.363 . S
C1923 C1922 1.415 . S
H1924 C1921 0.999 . S
H1925 C1906 0.913 . S
H1926 C1944 0.951 . S
H1927 C1946 0.951 . S
H1928 C1948 0.950 . S
H1929 C1949 0.950 . S
H1930 C1951 0.950 . S
H1931 C1954 0.950 . S
H1932 C1955 0.950 . S
H1933 C1957 0.950 . S
H1934 C1958 0.950 . S
H1935 C1959 0.951 . S
H1936 C1961 0.951 . S
H1937 C1963 0.950 . S
H1938 C1964 0.950 . S
H1939 C1966 0.950 . S
H1940 C1969 0.950 . S
H1941 C1970 0.950 . S
H1942 C1972 0.950 . S
H1943 C1973 0.950 . S
C1944 H1926 0.951 . S
C1944 C1945 1.366 . S
C1944 C1946 1.388 . S
C1945 C1944 1.366 . S
C1945 C1949 1.385 . S
C1946 H1927 0.951 . S
C1946 C1944 1.388 . S
C1946 C1947 1.366 . S
C1947 C1946 1.366 . S
C1947 C1948 1.414 . S
C1947 C1950 1.499 . S
C1948 H1928 0.950 . S
C1948 C1947 1.414 . S
C1948 C1949 1.374 . S
C1949 H1929 0.950 . S
C1949 C1945 1.385 . S
C1949 C1948 1.374 . S
C1950 C1947 1.499 . S
C1950 C1951 1.373 . S
C1950 C1952 1.389 . S
C1951 H1930 0.950 . S
C1951 C1950 1.373 . S
C1951 C1967 1.377 . S
C1952 C1950 1.389 . S
C1952 C1953 1.524 . S
C1952 C1966 1.377 . S
C1953 C1952 1.524 . S
C1953 C1954 1.397 . S
C1953 C1958 1.363 . S
C1954 H1931 0.950 . S
C1954 C1953 1.397 . S
C1954 C1955 1.334 . S
C1955 H1932 0.950 . S
C1955 C1954 1.334 . S
C1955 C1956 1.287 . S
C1956 C1955 1.287 . S
C1956 C1957 1.524 . S
C1956 H1975 0.913 . S
C1957 H1933 0.950 . S
C1957 C1956 1.524 . S
C1957 C1958 1.415 . S
C1958 H1934 0.950 . S
C1958 C1953 1.363 . S
C1958 C1957 1.415 . S
C1959 H1935 0.951 . S
C1959 C1960 1.366 . S
C1959 C1961 1.388 . S
C1960 C1959 1.366 . S
C1960 C1964 1.385 . S
C1961 H1936 0.951 . S
C1961 C1959 1.388 . S
C1961 C1962 1.366 . S
C1962 C1961 1.366 . S
C1962 C1963 1.414 . S
C1962 C1965 1.499 . S
C1963 H1937 0.950 . S
C1963 C1962 1.414 . S
C1963 C1964 1.374 . S
C1964 H1938 0.950 . S
C1964 C1960 1.385 . S
C1964 C1963 1.374 . S
C1965 C1962 1.499 . S
C1965 C1966 1.373 . S
C1965 C1967 1.389 . S
C1966 H1939 0.950 . S
C1966 C1952 1.377 . S
C1966 C1965 1.373 . S
C1967 C1951 1.377 . S
C1967 C1965 1.389 . S
C1967 C1968 1.524 . S
C1968 C1967 1.524 . S
C1968 C1969 1.397 . S
C1968 C1973 1.363 . S
C1969 H1940 0.950 . S
C1969 C1968 1.397 . S
C1969 C1970 1.334 . S
C1970 H1941 0.950 . S
C1970 C1969 1.334 . S
C1970 C1971 1.287 . S
C1971 C1970 1.287 . S
C1971 C1972 1.524 . S
C1971 H1974 0.999 . S
C1972 H1942 0.950 . S
C1972 C1971 1.524 . S
C1972 C1973 1.415 . S
C1973 H1943 0.950 . S
C1973 C1968 1.363 . S
C1973 C1972 1.415 . S
H1974 C1971 0.999 . S
H1975 C1956 0.913 . S
H1976 C1994 0.951 . S
H1977 C1996 0.951 . S
H1978 C1998 0.950 . S
H1979 C1999 0.950 . S
H1980 C2001 0.950 . S
H1981 C2004 0.950 . S
H1982 C2005 0.950 . S
H1983 C2007 0.950 . S
H1984 C2008 0.950 . S
H1985 C2009 0.951 . S
H1986 C2011 0.951 . S
H1987 C2013 0.950 . S
H1988 C2014 0.950 . S
H1989 C2016 0.950 . S
H1990 C2019 0.950 . S
H1991 C2020 0.950 . S
H1992 C2022 0.950 . S
H1993 C2023 0.950 . S
C1994 H1976 0.951 . S
C1994 C1995 1.366 . S
C1994 C1996 1.388 . S
C1995 C1994 1.366 . S
C1995 C1999 1.385 . S
C1996 H1977 0.951 . S
C1996 C1994 1.388 . S
C1996 C1997 1.366 . S
C1997 C1996 1.366 . S
C1997 C1998 1.414 . S
C1997 C2000 1.499 . S
C1998 H1978 0.950 . S
C1998 C1997 1.414 . S
C1998 C1999 1.374 . S
C1999 H1979 0.950 . S
C1999 C1995 1.385 . S
C1999 C1998 1.374 . S
C2000 C1997 1.499 . S
C2000 C2001 1.373 . S
C2000 C2002 1.389 . S
C2001 H1980 0.950 . S
C2001 C2000 1.373 . S
C2001 C2017 1.377 . S
C2002 C2000 1.389 . S
C2002 C2003 1.524 . S
C2002 C2016 1.377 . S
C2003 C2002 1.524 . S
C2003 C2004 1.397 . S
C2003 C2008 1.363 . S
C2004 H1981 0.950 . S
C2004 C2003 1.397 . S
C2004 C2005 1.334 . S
C2005 H1982 0.950 . S
C2005 C2004 1.334 . S
C2005 C2006 1.287 . S
C2006 C2005 1.287 . S
C2006 C2007 1.524 . S
C2006 H2025 0.913 . S
C2007 H1983 0.950 . S
C2007 C2006 1.524 . S
C2007 C2008 1.415 . S
C2008 H1984 0.950 . S
C2008 C2003 1.363 . S
C2008 C2007 1.415 . S
C2009 H1985 0.951 . S
C2009 C2010 1.366 . S
C2009 C2011 1.388 . S
C2010 C2009 1.366 . S
C2010 C2014 1.385 . S
C2011 H1986 0.951 . S
C2011 C2009 1.388 . S
C2011 C2012 1.366 . S
C2012 C2011 1.366 . S
C2012 C2013 1.414 . S
C2012 C2015 1.499 . S
C2013 H1987 0.950 . S
C2013 C2012 1.414 . S
C2013 C2014 1.374 . S
C2014 H1988 0.950 . S
C2014 C2010 1.385 . S
C2014 C2013 1.374 . S
C2015 C2012 1.499 . S
C2015 C2016 1.373 . S
C2015 C2017 1.389 . S
C2016 H1989 0.950 . S
C2016 C2002 1.377 . S
C2016 C2015 1.373 . S
C2017 C2001 1.377 . S
C2017 C2015 1.389 . S
C2017 C2018 1.524 . S
C2018 C2017 1.524 . S
C2018 C2019 1.397 . S
C2018 C2023 1.363 . S
C2019 H1990 0.950 . S
C2019 C2018 1.397 . S
C2019 C2020 1.334 . S
C2020 H1991 0.950 . S
C2020 C2019 1.334 . S
C2020 C2021 1.287 . S
C2021 C2020 1.287 . S
C2021 C2022 1.524 . S
C2021 H2024 0.999 . S
C2022 H1992 0.950 . S
C2022 C2021 1.524 . S
C2022 C2023 1.415 . S
C2023 H1993 0.950 . S
C2023 C2018 1.363 . S
C2023 C2022 1.415 . S
H2024 C2021 0.999 . S
H2025 C2006 0.913 . S
H2026 C2044 0.951 . S
H2027 C2046 0.951 . S
H2028 C2048 0.950 . S
H2029 C2049 0.950 . S
H2030 C2051 0.950 . S
H2031 C2054 0.950 . S
H2032 C2055 0.950 . S
H2033 C2057 0.950 . S
H2034 C2058 0.950 . S
H2035 C2059 0.951 . S
H2036 C2061 0.951 . S
H2037 C2063 0.950 . S
H2038 C2064 0.950 . S
H2039 C2066 0.950 . S
H2040 C2069 0.950 . S
H2041 C2070 0.950 . S
H2042 C2072 0.950 . S
H2043 C2073 0.950 . S
C2044 H2026 0.951 . S
C2044 C2045 1.366 . S
C2044 C2046 1.388 . S
C2045 C2044 1.366 . S
C2045 C2049 1.385 . S
C2046 H2027 0.951 . S
C2046 C2044 1.388 . S
C2046 C2047 1.366 . S
C2047 C2046 1.366 . S
C2047 C2048 1.414 . S
C2047 C2050 1.499 . S
C2048 H2028 0.950 . S
C2048 C2047 1.414 . S
C2048 C2049 1.374 . S
C2049 H2029 0.950 . S
C2049 C2045 1.385 . S
C2049 C2048 1.374 . S
C2050 C2047 1.499 . S
C2050 C2051 1.373 . S
C2050 C2052 1.389 . S
C2051 H2030 0.950 . S
C2051 C2050 1.373 . S
C2051 C2067 1.377 . S
C2052 C2050 1.389 . S
C2052 C2053 1.524 . S
C2052 C2066 1.377 . S
C2053 C2052 1.524 . S
C2053 C2054 1.397 . S
C2053 C2058 1.363 . S
C2054 H2031 0.950 . S
C2054 C2053 1.397 . S
C2054 C2055 1.334 . S
C2055 H2032 0.950 . S
C2055 C2054 1.334 . S
C2055 C2056 1.287 . S
C2056 C2055 1.287 . S
C2056 C2057 1.524 . S
C2056 H2075 0.913 . S
C2057 H2033 0.950 . S
C2057 C2056 1.524 . S
C2057 C2058 1.415 . S
C2058 H2034 0.950 . S
C2058 C2053 1.363 . S
C2058 C2057 1.415 . S
C2059 H2035 0.951 . S
C2059 C2060 1.366 . S
C2059 C2061 1.388 . S
C2060 C2059 1.366 . S
C2060 C2064 1.385 . S
C2061 H2036 0.951 . S
C2061 C2059 1.388 . S
C2061 C2062 1.366 . S
C2062 C2061 1.366 . S
C2062 C2063 1.414 . S
C2062 C2065 1.499 . S
C2063 H2037 0.950 . S
C2063 C2062 1.414 . S
C2063 C2064 1.374 . S
C2064 H2038 0.950 . S
C2064 C2060 1.385 . S
C2064 C2063 1.374 . S
C2065 C2062 1.499 . S
C2065 C2066 1.373 . S
C2065 C2067 1.389 . S
C2066 H2039 0.950 . S
C2066 C2052 1.377 . S
C2066 C2065 1.373 . S
C2067 C2051 1.377 . S
C2067 C2065 1.389 . S
C2067 C2068 1.524 . S
C2068 C2067 1.524 . S
C2068 C2069 1.397 . S
C2068 C2073 1.363 . S
C2069 H2040 0.950 . S
C2069 C2068 1.397 . S
C2069 C2070 1.334 . S
C2070 H2041 0.950 . S
C2070 C2069 1.334 . S
C2070 C2071 1.287 . S
C2071 C2070 1.287 . S
C2071 C2072 1.524 . S
C2071 H2074 0.999 . S
C2072 H2042 0.950 . S
C2072 C2071 1.524 . S
C2072 C2073 1.415 . S
C2073 H2043 0.950 . S
C2073 C2068 1.363 . S
C2073 C2072 1.415 . S
H2074 C2071 0.999 . S
H2075 C2056 0.913 . S
H2076 C2094 0.951 . S
H2077 C2096 0.951 . S
H2078 C2098 0.950 . S
H2079 C2099 0.950 . S
H2080 C2101 0.950 . S
H2081 C2104 0.950 . S
H2082 C2105 0.950 . S
H2083 C2107 0.950 . S
H2084 C2108 0.950 . S
H2085 C2109 0.951 . S
H2086 C2111 0.951 . S
H2087 C2113 0.950 . S
H2088 C2114 0.950 . S
H2089 C2116 0.950 . S
H2090 C2119 0.950 . S
H2091 C2120 0.950 . S
H2092 C2122 0.950 . S
H2093 C2123 0.950 . S
C2094 H2076 0.951 . S
C2094 C2095 1.366 . S
C2094 C2096 1.388 . S
C2095 C2094 1.366 . S
C2095 C2099 1.385 . S
C2096 H2077 0.951 . S
C2096 C2094 1.388 . S
C2096 C2097 1.366 . S
C2097 C2096 1.366 . S
C2097 C2098 1.414 . S
C2097 C2100 1.499 . S
C2098 H2078 0.950 . S
C2098 C2097 1.414 . S
C2098 C2099 1.374 . S
C2099 H2079 0.950 . S
C2099 C2095 1.385 . S
C2099 C2098 1.374 . S
C2100 C2097 1.499 . S
C2100 C2101 1.373 . S
C2100 C2102 1.389 . S
C2101 H2080 0.950 . S
C2101 C2100 1.373 . S
C2101 C2117 1.377 . S
C2102 C2100 1.389 . S
C2102 C2103 1.524 . S
C2102 C2116 1.377 . S
C2103 C2102 1.524 . S
C2103 C2104 1.397 . S
C2103 C2108 1.363 . S
C2104 H2081 0.950 . S
C2104 C2103 1.397 . S
C2104 C2105 1.334 . S
C2105 H2082 0.950 . S
C2105 C2104 1.334 . S
C2105 C2106 1.287 . S
C2106 C2105 1.287 . S
C2106 C2107 1.524 . S
C2106 H2125 0.913 . S
C2107 H2083 0.950 . S
C2107 C2106 1.524 . S
C2107 C2108 1.415 . S
C2108 H2084 0.950 . S
C2108 C2103 1.363 . S
C2108 C2107 1.415 . S
C2109 H2085 0.951 . S
C2109 C2110 1.366 . S
C2109 C2111 1.388 . S
C2110 C2109 1.366 . S
C2110 C2114 1.385 . S
C2111 H2086 0.951 . S
C2111 C2109 1.388 . S
C2111 C2112 1.366 . S
C2112 C2111 1.366 . S
C2112 C2113 1.414 . S
C2112 C2115 1.499 . S
C2113 H2087 0.950 . S
C2113 C2112 1.414 . S
C2113 C2114 1.374 . S
C2114 H2088 0.950 . S
C2114 C2110 1.385 . S
C2114 C2113 1.374 . S
C2115 C2112 1.499 . S
C2115 C2116 1.373 . S
C2115 C2117 1.389 . S
C2116 H2089 0.950 . S
C2116 C2102 1.377 . S
C2116 C2115 1.373 . S
C2117 C2101 1.377 . S
C2117 C2115 1.389 . S
C2117 C2118 1.524 . S
C2118 C2117 1.524 . S
C2118 C2119 1.397 . S
C2118 C2123 1.363 . S
C2119 H2090 0.950 . S
C2119 C2118 1.397 . S
C2119 C2120 1.334 . S
C2120 H2091 0.950 . S
C2120 C2119 1.334 . S
C2120 C2121 1.287 . S
C2121 C2120 1.287 . S
C2121 C2122 1.524 . S
C2121 H2124 0.999 . S
C2122 H2092 0.950 . S
C2122 C2121 1.524 . S
C2122 C2123 1.415 . S
C2123 H2093 0.950 . S
C2123 C2118 1.363 . S
C2123 C2122 1.415 . S
H2124 C2121 0.999 . S
H2125 C2106 0.913 . S
H2126 C2144 0.951 . S
H2127 C2146 0.951 . S
H2128 C2148 0.950 . S
H2129 C2149 0.950 . S
H2130 C2151 0.950 . S
H2131 C2154 0.950 . S
H2132 C2155 0.950 . S
H2133 C2157 0.950 . S
H2134 C2158 0.950 . S
H2135 C2159 0.951 . S
H2136 C2161 0.951 . S
H2137 C2163 0.950 . S
H2138 C2164 0.950 . S
H2139 C2166 0.950 . S
H2140 C2169 0.950 . S
H2141 C2170 0.950 . S
H2142 C2172 0.950 . S
H2143 C2173 0.950 . S
C2144 H2126 0.951 . S
C2144 C2145 1.366 . S
C2144 C2146 1.388 . S
C2145 C2144 1.366 . S
C2145 C2149 1.385 . S
C2146 H2127 0.951 . S
C2146 C2144 1.388 . S
C2146 C2147 1.366 . S
C2147 C2146 1.366 . S
C2147 C2148 1.414 . S
C2147 C2150 1.499 . S
C2148 H2128 0.950 . S
C2148 C2147 1.414 . S
C2148 C2149 1.374 . S
C2149 H2129 0.950 . S
C2149 C2145 1.385 . S
C2149 C2148 1.374 . S
C2150 C2147 1.499 . S
C2150 C2151 1.373 . S
C2150 C2152 1.389 . S
C2151 H2130 0.950 . S
C2151 C2150 1.373 . S
C2151 C2167 1.377 . S
C2152 C2150 1.389 . S
C2152 C2153 1.524 . S
C2152 C2166 1.377 . S
C2153 C2152 1.524 . S
C2153 C2154 1.397 . S
C2153 C2158 1.363 . S
C2154 H2131 0.950 . S
C2154 C2153 1.397 . S
C2154 C2155 1.334 . S
C2155 H2132 0.950 . S
C2155 C2154 1.334 . S
C2155 C2156 1.287 . S
C2156 C2155 1.287 . S
C2156 C2157 1.524 . S
C2156 H2175 0.913 . S
C2157 H2133 0.950 . S
C2157 C2156 1.524 . S
C2157 C2158 1.415 . S
C2158 H2134 0.950 . S
C2158 C2153 1.363 . S
C2158 C2157 1.415 . S
C2159 H2135 0.951 . S
C2159 C2160 1.366 . S
C2159 C2161 1.388 . S
C2160 C2159 1.366 . S
C2160 C2164 1.385 . S
C2161 H2136 0.951 . S
C2161 C2159 1.388 . S
C2161 C2162 1.366 . S
C2162 C2161 1.366 . S
C2162 C2163 1.414 . S
C2162 C2165 1.499 . S
C2163 H2137 0.950 . S
C2163 C2162 1.414 . S
C2163 C2164 1.374 . S
C2164 H2138 0.950 . S
C2164 C2160 1.385 . S
C2164 C2163 1.374 . S
C2165 C2162 1.499 . S
C2165 C2166 1.373 . S
C2165 C2167 1.389 . S
C2166 H2139 0.950 . S
C2166 C2152 1.377 . S
C2166 C2165 1.373 . S
C2167 C2151 1.377 . S
C2167 C2165 1.389 . S
C2167 C2168 1.524 . S
C2168 C2167 1.524 . S
C2168 C2169 1.397 . S
C2168 C2173 1.363 . S
C2169 H2140 0.950 . S
C2169 C2168 1.397 . S
C2169 C2170 1.334 . S
C2170 H2141 0.950 . S
C2170 C2169 1.334 . S
C2170 C2171 1.287 . S
C2171 C2170 1.287 . S
C2171 C2172 1.524 . S
C2171 H2174 0.999 . S
C2172 H2142 0.950 . S
C2172 C2171 1.524 . S
C2172 C2173 1.415 . S
C2173 H2143 0.950 . S
C2173 C2168 1.363 . S
C2173 C2172 1.415 . S
H2174 C2171 0.999 . S
H2175 C2156 0.913 . S
H2176 C2194 0.951 . S
H2177 C2196 0.951 . S
H2178 C2198 0.950 . S
H2179 C2199 0.950 . S
H2180 C2201 0.950 . S
H2181 C2204 0.963 . S
H2182 C2205 0.932 1_655 S
H2183 C2207 0.950 . S
H2184 C2208 0.950 . S
H2185 C2209 0.951 . S
H2186 C2211 0.951 . S
H2187 C2213 0.950 . S
H2188 C2214 0.950 . S
H2189 C2216 0.950 . S
H2190 C2219 0.950 . S
H2191 C2220 0.950 . S
H2192 C2222 0.950 . S
H2193 C2223 0.950 . S
C2194 H2176 0.951 . S
C2194 C2195 1.366 . S
C2194 C2196 1.388 . S
C2195 C2194 1.366 . S
C2195 C2199 1.385 . S
C2196 H2177 0.951 . S
C2196 C2194 1.388 . S
C2196 C2197 1.366 . S
C2197 C2196 1.366 . S
C2197 C2198 1.414 . S
C2197 C2200 1.499 . S
C2198 H2178 0.950 . S
C2198 C2197 1.414 . S
C2198 C2199 1.374 . S
C2199 H2179 0.950 . S
C2199 C2195 1.385 . S
C2199 C2198 1.374 . S
C2200 C2197 1.499 . S
C2200 C2201 1.373 . S
C2200 C2202 1.389 . S
C2201 H2180 0.950 . S
C2201 C2200 1.373 . S
C2201 C2217 1.377 . S
C2202 C2200 1.389 . S
C2202 C2203 1.524 . S
C2202 C2216 1.377 . S
C2203 C2202 1.524 . S
C2203 C2204 1.397 . S
C2203 C2208 1.363 . S
C2204 H2181 0.963 . S
C2204 C2203 1.397 . S
C2204 C2205 1.350 . S
C2205 H2182 0.932 1_455 S
C2205 C2204 1.350 . S
C2205 C2206 1.291 . S
C2206 C2205 1.291 . S
C2206 C2207 1.524 . S
C2206 H2225 0.913 . S
C2207 H2183 0.950 . S
C2207 C2206 1.524 . S
C2207 C2208 1.415 . S
C2208 H2184 0.950 . S
C2208 C2203 1.363 . S
C2208 C2207 1.415 . S
C2209 H2185 0.951 . S
C2209 C2210 1.366 . S
C2209 C2211 1.388 . S
C2210 C2209 1.366 . S
C2210 C2214 1.385 . S
C2211 H2186 0.951 . S
C2211 C2209 1.388 . S
C2211 C2212 1.366 . S
C2212 C2211 1.366 . S
C2212 C2213 1.414 . S
C2212 C2215 1.499 . S
C2213 H2187 0.950 . S
C2213 C2212 1.414 . S
C2213 C2214 1.374 . S
C2214 H2188 0.950 . S
C2214 C2210 1.385 . S
C2214 C2213 1.374 . S
C2215 C2212 1.499 . S
C2215 C2216 1.373 . S
C2215 C2217 1.389 . S
C2216 H2189 0.950 . S
C2216 C2202 1.377 . S
C2216 C2215 1.373 . S
C2217 C2201 1.377 . S
C2217 C2215 1.389 . S
C2217 C2218 1.524 . S
C2218 C2217 1.524 . S
C2218 C2219 1.397 . S
C2218 C2223 1.363 . S
C2219 H2190 0.950 . S
C2219 C2218 1.397 . S
C2219 C2220 1.334 . S
C2220 H2191 0.950 . S
C2220 C2219 1.334 . S
C2220 C2221 1.287 . S
C2221 C2220 1.287 . S
C2221 C2222 1.524 . S
C2221 H2224 0.999 . S
C2222 H2192 0.950 . S
C2222 C2221 1.524 . S
C2222 C2223 1.415 . S
C2223 H2193 0.950 . S
C2223 C2218 1.363 . S
C2223 C2222 1.415 . S
H2224 C2221 0.999 . S
H2225 C2206 0.913 . S
H2226 C2244 0.951 . S
H2227 C2246 0.951 . S
H2228 C2248 0.950 . S
H2229 C2249 0.950 . S
H2230 C2251 0.950 . S
H2231 C2254 0.950 . S
H2232 C2255 0.950 . S
H2233 C2257 0.950 . S
H2234 C2258 0.950 . S
H2235 C2259 0.951 . S
H2236 C2261 0.951 . S
H2237 C2263 0.950 . S
H2238 C2264 0.950 . S
H2239 C2266 0.950 . S
H2240 C2269 0.950 . S
H2241 C2270 0.950 . S
H2242 C2272 0.950 . S
H2243 C2273 0.950 . S
C2244 H2226 0.951 . S
C2244 C2245 1.366 . S
C2244 C2246 1.388 . S
C2245 C2244 1.366 . S
C2245 C2249 1.385 . S
C2246 H2227 0.951 . S
C2246 C2244 1.388 . S
C2246 C2247 1.366 . S
C2247 C2246 1.366 . S
C2247 C2248 1.414 . S
C2247 C2250 1.499 . S
C2248 H2228 0.950 . S
C2248 C2247 1.414 . S
C2248 C2249 1.374 . S
C2249 H2229 0.950 . S
C2249 C2245 1.385 . S
C2249 C2248 1.374 . S
C2250 C2247 1.499 . S
C2250 C2251 1.373 . S
C2250 C2252 1.389 . S
C2251 H2230 0.950 . S
C2251 C2250 1.373 . S
C2251 C2267 1.377 . S
C2252 C2250 1.389 . S
C2252 C2253 1.524 . S
C2252 C2266 1.377 . S
C2253 C2252 1.524 . S
C2253 C2254 1.397 . S
C2253 C2258 1.363 . S
C2254 H2231 0.950 . S
C2254 C2253 1.397 . S
C2254 C2255 1.334 . S
C2255 H2232 0.950 . S
C2255 C2254 1.334 . S
C2255 C2256 1.287 . S
C2256 C2255 1.287 . S
C2256 C2257 1.524 . S
C2256 H2275 0.913 . S
C2257 H2233 0.950 . S
C2257 C2256 1.524 . S
C2257 C2258 1.415 . S
C2258 H2234 0.950 . S
C2258 C2253 1.363 . S
C2258 C2257 1.415 . S
C2259 H2235 0.951 . S
C2259 C2260 1.366 . S
C2259 C2261 1.388 . S
C2260 C2259 1.366 . S
C2260 C2264 1.385 . S
C2261 H2236 0.951 . S
C2261 C2259 1.388 . S
C2261 C2262 1.366 . S
C2262 C2261 1.366 . S
C2262 C2263 1.414 . S
C2262 C2265 1.499 . S
C2263 H2237 0.950 . S
C2263 C2262 1.414 . S
C2263 C2264 1.374 . S
C2264 H2238 0.950 . S
C2264 C2260 1.385 . S
C2264 C2263 1.374 . S
C2265 C2262 1.499 . S
C2265 C2266 1.373 . S
C2265 C2267 1.389 . S
C2266 H2239 0.950 . S
C2266 C2252 1.377 . S
C2266 C2265 1.373 . S
C2267 C2251 1.377 . S
C2267 C2265 1.389 . S
C2267 C2268 1.524 . S
C2268 C2267 1.524 . S
C2268 C2269 1.397 . S
C2268 C2273 1.363 . S
C2269 H2240 0.950 . S
C2269 C2268 1.397 . S
C2269 C2270 1.334 . S
C2270 H2241 0.950 . S
C2270 C2269 1.334 . S
C2270 C2271 1.287 . S
C2271 C2270 1.287 . S
C2271 C2272 1.524 . S
C2271 H2274 0.999 . S
C2272 H2242 0.950 . S
C2272 C2271 1.524 . S
C2272 C2273 1.415 . S
C2273 H2243 0.950 . S
C2273 C2268 1.363 . S
C2273 C2272 1.415 . S
H2274 C2271 0.999 . S
H2275 C2256 0.913 . S
H2276 C2294 0.951 . S
H2277 C2296 0.951 . S
H2278 C2298 0.950 . S
H2279 C2299 0.950 . S
H2280 C2301 0.950 . S
H2281 C2304 0.950 . S
H2282 C2305 0.950 . S
H2283 C2307 0.950 . S
H2284 C2308 0.950 . S
H2285 C2309 0.951 . S
H2286 C2311 0.951 . S
H2287 C2313 0.950 . S
H2288 C2314 0.950 . S
H2289 C2316 0.950 . S
H2290 C2319 0.950 . S
H2291 C2320 0.950 . S
H2292 C2322 0.950 . S
H2293 C2323 0.950 . S
C2294 H2276 0.951 . S
C2294 C2295 1.366 . S
C2294 C2296 1.388 . S
C2295 C2294 1.366 . S
C2295 C2299 1.385 . S
C2296 H2277 0.951 . S
C2296 C2294 1.388 . S
C2296 C2297 1.366 . S
C2297 C2296 1.366 . S
C2297 C2298 1.414 . S
C2297 C2300 1.499 . S
C2298 H2278 0.950 . S
C2298 C2297 1.414 . S
C2298 C2299 1.374 . S
C2299 H2279 0.950 . S
C2299 C2295 1.385 . S
C2299 C2298 1.374 . S
C2300 C2297 1.499 . S
C2300 C2301 1.373 . S
C2300 C2302 1.389 . S
C2301 H2280 0.950 . S
C2301 C2300 1.373 . S
C2301 C2317 1.377 . S
C2302 C2300 1.389 . S
C2302 C2303 1.524 . S
C2302 C2316 1.377 . S
C2303 C2302 1.524 . S
C2303 C2304 1.397 . S
C2303 C2308 1.363 . S
C2304 H2281 0.950 . S
C2304 C2303 1.397 . S
C2304 C2305 1.334 . S
C2305 H2282 0.950 . S
C2305 C2304 1.334 . S
C2305 C2306 1.287 . S
C2306 C2305 1.287 . S
C2306 C2307 1.524 . S
C2306 H2325 0.913 . S
C2307 H2283 0.950 . S
C2307 C2306 1.524 . S
C2307 C2308 1.415 . S
C2308 H2284 0.950 . S
C2308 C2303 1.363 . S
C2308 C2307 1.415 . S
C2309 H2285 0.951 . S
C2309 C2310 1.366 . S
C2309 C2311 1.388 . S
C2310 C2309 1.366 . S
C2310 C2314 1.385 . S
C2311 H2286 0.951 . S
C2311 C2309 1.388 . S
C2311 C2312 1.366 . S
C2312 C2311 1.366 . S
C2312 C2313 1.414 . S
C2312 C2315 1.499 . S
C2313 H2287 0.950 . S
C2313 C2312 1.414 . S
C2313 C2314 1.374 . S
C2314 H2288 0.950 . S
C2314 C2310 1.385 . S
C2314 C2313 1.374 . S
C2315 C2312 1.499 . S
C2315 C2316 1.373 . S
C2315 C2317 1.389 . S
C2316 H2289 0.950 . S
C2316 C2302 1.377 . S
C2316 C2315 1.373 . S
C2317 C2301 1.377 . S
C2317 C2315 1.389 . S
C2317 C2318 1.524 . S
C2318 C2317 1.524 . S
C2318 C2319 1.397 . S
C2318 C2323 1.363 . S
C2319 H2290 0.950 . S
C2319 C2318 1.397 . S
C2319 C2320 1.334 . S
C2320 H2291 0.950 . S
C2320 C2319 1.334 . S
C2320 C2321 1.287 . S
C2321 C2320 1.287 . S
C2321 C2322 1.524 . S
C2321 H2324 0.999 . S
C2322 H2292 0.950 . S
C2322 C2321 1.524 . S
C2322 C2323 1.415 . S
C2323 H2293 0.950 . S
C2323 C2318 1.363 . S
C2323 C2322 1.415 . S
H2324 C2321 0.999 . S
H2325 C2306 0.913 . S
H2326 C2344 0.951 . S
H2327 C2346 0.951 . S
H2328 C2348 0.950 . S
H2329 C2349 0.950 . S
H2330 C2351 0.950 . S
H2331 C2354 0.950 . S
H2332 C2355 0.950 . S
H2333 C2357 0.950 . S
H2334 C2358 0.950 . S
H2335 C2359 0.951 . S
H2336 C2361 0.951 . S
H2337 C2363 0.950 . S
H2338 C2364 0.950 . S
H2339 C2366 0.950 . S
H2340 C2369 0.950 . S
H2341 C2370 0.950 . S
H2342 C2372 0.950 . S
H2343 C2373 0.950 . S
C2344 H2326 0.951 . S
C2344 C2345 1.366 . S
C2344 C2346 1.388 . S
C2345 C2344 1.366 . S
C2345 C2349 1.385 . S
C2346 H2327 0.951 . S
C2346 C2344 1.388 . S
C2346 C2347 1.366 . S
C2347 C2346 1.366 . S
C2347 C2348 1.414 . S
C2347 C2350 1.499 . S
C2348 H2328 0.950 . S
C2348 C2347 1.414 . S
C2348 C2349 1.374 . S
C2349 H2329 0.950 . S
C2349 C2345 1.385 . S
C2349 C2348 1.374 . S
C2350 C2347 1.499 . S
C2350 C2351 1.373 . S
C2350 C2352 1.389 . S
C2351 H2330 0.950 . S
C2351 C2350 1.373 . S
C2351 C2367 1.377 . S
C2352 C2350 1.389 . S
C2352 C2353 1.524 . S
C2352 C2366 1.377 . S
C2353 C2352 1.524 . S
C2353 C2354 1.397 . S
C2353 C2358 1.363 . S
C2354 H2331 0.950 . S
C2354 C2353 1.397 . S
C2354 C2355 1.334 . S
C2355 H2332 0.950 . S
C2355 C2354 1.334 . S
C2355 C2356 1.287 . S
C2356 C2355 1.287 . S
C2356 C2357 1.524 . S
C2356 H2375 0.913 . S
C2357 H2333 0.950 . S
C2357 C2356 1.524 . S
C2357 C2358 1.415 . S
C2358 H2334 0.950 . S
C2358 C2353 1.363 . S
C2358 C2357 1.415 . S
C2359 H2335 0.951 . S
C2359 C2360 1.366 . S
C2359 C2361 1.388 . S
C2360 C2359 1.366 . S
C2360 C2364 1.385 . S
C2361 H2336 0.951 . S
C2361 C2359 1.388 . S
C2361 C2362 1.366 . S
C2362 C2361 1.366 . S
C2362 C2363 1.414 . S
C2362 C2365 1.499 . S
C2363 H2337 0.950 . S
C2363 C2362 1.414 . S
C2363 C2364 1.374 . S
C2364 H2338 0.950 . S
C2364 C2360 1.385 . S
C2364 C2363 1.374 . S
C2365 C2362 1.499 . S
C2365 C2366 1.373 . S
C2365 C2367 1.389 . S
C2366 H2339 0.950 . S
C2366 C2352 1.377 . S
C2366 C2365 1.373 . S
C2367 C2351 1.377 . S
C2367 C2365 1.389 . S
C2367 C2368 1.524 . S
C2368 C2367 1.524 . S
C2368 C2369 1.397 . S
C2368 C2373 1.363 . S
C2369 H2340 0.950 . S
C2369 C2368 1.397 . S
C2369 C2370 1.334 . S
C2370 H2341 0.950 . S
C2370 C2369 1.334 . S
C2370 C2371 1.287 . S
C2371 C2370 1.287 . S
C2371 C2372 1.524 . S
C2371 H2374 0.999 . S
C2372 H2342 0.950 . S
C2372 C2371 1.524 . S
C2372 C2373 1.415 . S
C2373 H2343 0.950 . S
C2373 C2368 1.363 . S
C2373 C2372 1.415 . S
H2374 C2371 0.999 . S
H2375 C2356 0.913 . S
H2376 C2394 0.951 . S
H2377 C2396 0.951 . S
H2378 C2398 0.950 . S
H2379 C2399 0.950 . S
H2380 C2401 0.950 . S
H2381 C2404 0.950 1_455 S
H2382 C2405 0.950 . S
H2383 C2407 0.950 . S
H2384 C2408 0.950 . S
H2385 C2409 0.951 . S
H2386 C2411 0.951 . S
H2387 C2413 0.950 . S
H2388 C2414 0.950 . S
H2389 C2416 0.950 . S
H2390 C2419 0.950 . S
H2391 C2420 0.950 . S
H2392 C2422 0.950 . S
H2393 C2423 0.950 . S
C2394 H2376 0.951 . S
C2394 C2395 1.366 . S
C2394 C2396 1.388 . S
C2395 C2394 1.366 . S
C2395 C2399 1.385 . S
C2396 H2377 0.951 . S
C2396 C2394 1.388 . S
C2396 C2397 1.366 . S
C2397 C2396 1.366 . S
C2397 C2398 1.414 . S
C2397 C2400 1.499 . S
C2398 H2378 0.950 . S
C2398 C2397 1.414 . S
C2398 C2399 1.374 . S
C2399 H2379 0.950 . S
C2399 C2395 1.385 . S
C2399 C2398 1.374 . S
C2400 C2397 1.499 . S
C2400 C2401 1.373 . S
C2400 C2402 1.389 . S
C2401 H2380 0.950 . S
C2401 C2400 1.373 . S
C2401 C2417 1.377 . S
C2402 C2400 1.389 . S
C2402 C2403 1.524 . S
C2402 C2416 1.377 . S
C2403 C2402 1.524 . S
C2403 C2404 1.397 1_455 S
C2403 C2408 1.363 1_455 S
C2404 H2381 0.950 1_655 S
C2404 C2403 1.397 1_655 S
C2404 C2405 1.334 . S
C2405 H2382 0.950 . S
C2405 C2404 1.334 . S
C2405 C2406 1.287 . S
C2406 C2405 1.287 . S
C2406 C2407 1.524 . S
C2406 H2425 0.913 . S
C2407 H2383 0.950 . S
C2407 C2406 1.524 . S
C2407 C2408 1.415 . S
C2408 H2384 0.950 . S
C2408 C2403 1.363 1_655 S
C2408 C2407 1.415 . S
C2409 H2385 0.951 . S
C2409 C2410 1.366 . S
C2409 C2411 1.388 . S
C2410 C2409 1.366 . S
C2410 C2414 1.385 . S
C2411 H2386 0.951 . S
C2411 C2409 1.388 . S
C2411 C2412 1.366 . S
C2412 C2411 1.366 . S
C2412 C2413 1.414 . S
C2412 C2415 1.499 . S
C2413 H2387 0.950 . S
C2413 C2412 1.414 . S
C2413 C2414 1.374 . S
C2414 H2388 0.950 . S
C2414 C2410 1.385 . S
C2414 C2413 1.374 . S
C2415 C2412 1.499 . S
C2415 C2416 1.373 . S
C2415 C2417 1.389 . S
C2416 H2389 0.950 . S
C2416 C2402 1.377 . S
C2416 C2415 1.373 . S
C2417 C2401 1.377 . S
C2417 C2415 1.389 . S
C2417 C2418 1.524 . S
C2418 C2417 1.524 . S
C2418 C2419 1.397 . S
C2418 C2423 1.363 . S
C2419 H2390 0.950 . S
C2419 C2418 1.397 . S
C2419 C2420 1.334 . S
C2420 H2391 0.950 . S
C2420 C2419 1.334 . S
C2420 C2421 1.287 . S
C2421 C2420 1.287 . S
C2421 C2422 1.524 . S
C2421 H2424 0.999 . S
C2422 H2392 0.950 . S
C2422 C2421 1.524 . S
C2422 C2423 1.415 . S
C2423 H2393 0.950 . S
C2423 C2418 1.363 . S
C2423 C2422 1.415 . S
H2424 C2421 0.999 . S
H2425 C2406 0.913 . S
H2426 C2444 0.951 . S
H2427 C2446 0.951 . S
H2428 C2448 0.950 . S
H2429 C2449 0.950 . S
H2430 C2451 0.950 . S
H2431 C2454 0.950 . S
H2432 C2455 0.950 . S
H2433 C2457 0.950 . S
H2434 C2458 0.950 . S
H2435 C2459 0.951 . S
H2436 C2461 0.951 . S
H2437 C2463 0.950 . S
H2438 C2464 0.950 . S
H2439 C2466 0.950 . S
H2440 C2469 0.950 . S
H2441 C2470 0.950 . S
H2442 C2472 0.950 . S
H2443 C2473 0.950 . S
C2444 H2426 0.951 . S
C2444 C2445 1.366 . S
C2444 C2446 1.388 . S
C2445 C2444 1.366 . S
C2445 C2449 1.385 . S
C2446 H2427 0.951 . S
C2446 C2444 1.388 . S
C2446 C2447 1.366 . S
C2447 C2446 1.366 . S
C2447 C2448 1.414 . S
C2447 C2450 1.499 . S
C2448 H2428 0.950 . S
C2448 C2447 1.414 . S
C2448 C2449 1.374 . S
C2449 H2429 0.950 . S
C2449 C2445 1.385 . S
C2449 C2448 1.374 . S
C2450 C2447 1.499 . S
C2450 C2451 1.373 . S
C2450 C2452 1.389 . S
C2451 H2430 0.950 . S
C2451 C2450 1.373 . S
C2451 C2467 1.377 . S
C2452 C2450 1.389 . S
C2452 C2453 1.524 . S
C2452 C2466 1.377 . S
C2453 C2452 1.524 . S
C2453 C2454 1.397 . S
C2453 C2458 1.363 . S
C2454 H2431 0.950 . S
C2454 C2453 1.397 . S
C2454 C2455 1.334 . S
C2455 H2432 0.950 . S
C2455 C2454 1.334 . S
C2455 C2456 1.287 . S
C2456 C2455 1.287 . S
C2456 C2457 1.524 . S
C2456 H2475 0.913 . S
C2457 H2433 0.950 . S
C2457 C2456 1.524 . S
C2457 C2458 1.415 . S
C2458 H2434 0.950 . S
C2458 C2453 1.363 . S
C2458 C2457 1.415 . S
C2459 H2435 0.951 . S
C2459 C2460 1.366 . S
C2459 C2461 1.388 . S
C2460 C2459 1.366 . S
C2460 C2464 1.385 . S
C2461 H2436 0.951 . S
C2461 C2459 1.388 . S
C2461 C2462 1.366 . S
C2462 C2461 1.366 . S
C2462 C2463 1.414 . S
C2462 C2465 1.499 . S
C2463 H2437 0.950 . S
C2463 C2462 1.414 . S
C2463 C2464 1.374 . S
C2464 H2438 0.950 . S
C2464 C2460 1.385 . S
C2464 C2463 1.374 . S
C2465 C2462 1.499 . S
C2465 C2466 1.373 . S
C2465 C2467 1.389 . S
C2466 H2439 0.950 . S
C2466 C2452 1.377 . S
C2466 C2465 1.373 . S
C2467 C2451 1.377 . S
C2467 C2465 1.389 . S
C2467 C2468 1.524 . S
C2468 C2467 1.524 . S
C2468 C2469 1.397 . S
C2468 C2473 1.363 . S
C2469 H2440 0.950 . S
C2469 C2468 1.397 . S
C2469 C2470 1.334 . S
C2470 H2441 0.950 . S
C2470 C2469 1.334 . S
C2470 C2471 1.287 . S
C2471 C2470 1.287 . S
C2471 C2472 1.524 . S
C2471 H2474 0.999 . S
C2472 H2442 0.950 . S
C2472 C2471 1.524 . S
C2472 C2473 1.415 . S
C2473 H2443 0.950 . S
C2473 C2468 1.363 . S
C2473 C2472 1.415 . S
H2474 C2471 0.999 . S
H2475 C2456 0.913 . S
H2476 C2494 0.951 . S
H2477 C2496 0.951 1_554 S
H2478 C2498 0.950 . S
H2479 C2499 0.950 . S
H2480 C2501 0.972 . S
H2481 C2504 0.950 . S
H2482 C2505 0.950 . S
H2483 C2507 0.950 . S
H2484 C2508 0.950 . S
H2485 C2509 0.951 . S
H2486 C2511 0.951 . S
H2487 C2513 0.950 . S
H2488 C2514 0.950 . S
H2489 C2516 0.950 . S
H2490 C2519 0.950 . S
H2491 C2520 0.950 1_545 S
H2492 C2522 0.950 . S
H2493 C2523 0.950 . S
C2494 H2476 0.951 . S
C2494 C2495 1.366 . S
C2494 C2496 1.388 . S
C2495 C2494 1.366 . S
C2495 C2499 1.385 . S
C2496 H2477 0.951 1_556 S
C2496 C2494 1.388 . S
C2496 C2497 1.366 . S
C2497 C2496 1.366 . S
C2497 C2498 1.414 . S
C2497 C2500 1.499 . S
C2498 H2478 0.950 . S
C2498 C2497 1.414 . S
C2498 C2499 1.374 . S
C2499 H2479 0.950 . S
C2499 C2495 1.385 . S
C2499 C2498 1.374 . S
C2500 C2497 1.499 . S
C2500 C2501 1.369 . S
C2500 C2502 1.389 1_556 S
C2501 H2480 0.972 . S
C2501 C2500 1.369 . S
C2501 C2517 1.361 1_556 S
C2502 C2500 1.389 1_554 S
C2502 C2503 1.524 . S
C2502 C2516 1.377 . S
C2503 C2502 1.524 . S
C2503 C2504 1.397 1_554 S
C2503 C2508 1.363 . S
C2504 H2481 0.950 . S
C2504 C2503 1.397 1_556 S
C2504 C2505 1.334 . S
C2505 H2482 0.950 . S
C2505 C2504 1.334 . S
C2505 C2506 1.287 . S
C2506 C2505 1.287 . S
C2506 C2507 1.524 1_556 S
C2506 H2525 0.913 . S
C2507 H2483 0.950 . S
C2507 C2506 1.524 1_554 S
C2507 C2508 1.415 . S
C2508 H2484 0.950 . S
C2508 C2503 1.363 . S
C2508 C2507 1.415 . S
C2509 H2485 0.951 . S
C2509 C2510 1.366 . S
C2509 C2511 1.388 1_545 S
C2510 C2509 1.366 . S
C2510 C2514 1.385 1_545 S
C2511 H2486 0.951 . S
C2511 C2509 1.388 1_565 S
C2511 C2512 1.366 . S
C2512 C2511 1.366 . S
C2512 C2513 1.414 . S
C2512 C2515 1.499 . S
C2513 H2487 0.950 . S
C2513 C2512 1.414 . S
C2513 C2514 1.374 . S
C2514 H2488 0.950 . S
C2514 C2510 1.385 1_565 S
C2514 C2513 1.374 . S
C2515 C2512 1.499 . S
C2515 C2516 1.373 . S
C2515 C2517 1.389 . S
C2516 H2489 0.950 . S
C2516 C2502 1.377 . S
C2516 C2515 1.373 . S
C2517 C2501 1.361 1_554 S
C2517 C2515 1.389 . S
C2517 C2518 1.524 . S
C2518 C2517 1.524 . S
C2518 C2519 1.397 . S
C2518 C2523 1.363 1_554 S
C2519 H2490 0.950 . S
C2519 C2518 1.397 . S
C2519 C2520 1.334 . S
C2520 H2491 0.950 1_565 S
C2520 C2519 1.334 . S
C2520 C2521 1.287 1_565 S
C2521 C2520 1.287 1_545 S
C2521 C2522 1.524 1_544 S
C2521 H2524 0.999 . S
C2522 H2492 0.950 . S
C2522 C2521 1.524 1_566 S
C2522 C2523 1.415 . S
C2523 H2493 0.950 . S
C2523 C2518 1.363 1_556 S
C2523 C2522 1.415 . S
H2524 C2521 0.999 . S
H2525 C2506 0.913 . S
H2526 C2544 0.951 . S
H2527 C2546 0.951 . S
H2528 C2548 0.950 . S
H2529 C2549 0.950 . S
H2530 C2551 0.950 . S
H2531 C2554 0.950 . S
H2532 C2555 0.950 . S
H2533 C2557 0.950 . S
H2534 C2558 0.950 . S
H2535 C2559 0.951 . S
H2536 C2561 0.951 . S
H2537 C2563 0.950 . S
H2538 C2564 0.950 . S
H2539 C2566 0.950 . S
H2540 C2569 0.950 . S
H2541 C2570 0.950 . S
H2542 C2572 0.950 . S
H2543 C2573 0.950 . S
C2544 H2526 0.951 . S
C2544 C2545 1.366 . S
C2544 C2546 1.388 . S
C2545 C2544 1.366 . S
C2545 C2549 1.385 . S
C2546 H2527 0.951 . S
C2546 C2544 1.388 . S
C2546 C2547 1.366 . S
C2547 C2546 1.366 . S
C2547 C2548 1.414 . S
C2547 C2550 1.499 . S
C2548 H2528 0.950 . S
C2548 C2547 1.414 . S
C2548 C2549 1.374 . S
C2549 H2529 0.950 . S
C2549 C2545 1.385 . S
C2549 C2548 1.374 . S
C2550 C2547 1.499 . S
C2550 C2551 1.373 . S
C2550 C2552 1.389 . S
C2551 H2530 0.950 . S
C2551 C2550 1.373 . S
C2551 C2567 1.377 . S
C2552 C2550 1.389 . S
C2552 C2553 1.524 . S
C2552 C2566 1.377 . S
C2553 C2552 1.524 . S
C2553 C2554 1.397 . S
C2553 C2558 1.363 . S
C2554 H2531 0.950 . S
C2554 C2553 1.397 . S
C2554 C2555 1.334 . S
C2555 H2532 0.950 . S
C2555 C2554 1.334 . S
C2555 C2556 1.287 . S
C2556 C2555 1.287 . S
C2556 C2557 1.524 . S
C2556 H2575 0.913 . S
C2557 H2533 0.950 . S
C2557 C2556 1.524 . S
C2557 C2558 1.415 . S
C2558 H2534 0.950 . S
C2558 C2553 1.363 . S
C2558 C2557 1.415 . S
C2559 H2535 0.951 . S
C2559 C2560 1.366 . S
C2559 C2561 1.388 . S
C2560 C2559 1.366 . S
C2560 C2564 1.385 . S
C2561 H2536 0.951 . S
C2561 C2559 1.388 . S
C2561 C2562 1.366 . S
C2562 C2561 1.366 . S
C2562 C2563 1.414 . S
C2562 C2565 1.499 . S
C2563 H2537 0.950 . S
C2563 C2562 1.414 . S
C2563 C2564 1.374 . S
C2564 H2538 0.950 . S
C2564 C2560 1.385 . S
C2564 C2563 1.374 . S
C2565 C2562 1.499 . S
C2565 C2566 1.373 . S
C2565 C2567 1.389 . S
C2566 H2539 0.950 . S
C2566 C2552 1.377 . S
C2566 C2565 1.373 . S
C2567 C2551 1.377 . S
C2567 C2565 1.389 . S
C2567 C2568 1.524 . S
C2568 C2567 1.524 . S
C2568 C2569 1.397 . S
C2568 C2573 1.363 . S
C2569 H2540 0.950 . S
C2569 C2568 1.397 . S
C2569 C2570 1.334 . S
C2570 H2541 0.950 . S
C2570 C2569 1.334 . S
C2570 C2571 1.287 . S
C2571 C2570 1.287 . S
C2571 C2572 1.524 . S
C2571 H2574 0.999 . S
C2572 H2542 0.950 . S
C2572 C2571 1.524 . S
C2572 C2573 1.415 . S
C2573 H2543 0.950 . S
C2573 C2568 1.363 . S
C2573 C2572 1.415 . S
H2574 C2571 0.999 . S
H2575 C2556 0.913 . S
H2576 C2594 0.951 . S
H2577 C2596 0.951 . S
H2578 C2598 0.950 . S
H2579 C2599 0.950 . S
H2580 C2601 0.950 . S
H2581 C2604 0.973 . S
H2582 C2605 0.950 . S
H2583 C2607 0.950 . S
H2584 C2608 0.950 1_545 S
H2585 C2609 0.951 . S
H2586 C2611 0.951 . S
H2587 C2613 0.950 . S
H2588 C2614 0.950 1_554 S
H2589 C2616 0.950 . S
H2590 C2619 0.950 . S
H2591 C2620 0.950 . S
H2592 C2622 0.950 . S
H2593 C2623 0.950 . S
C2594 H2576 0.951 . S
C2594 C2595 1.366 . S
C2594 C2596 1.388 . S
C2595 C2594 1.366 . S
C2595 C2599 1.385 . S
C2596 H2577 0.951 . S
C2596 C2594 1.388 . S
C2596 C2597 1.366 . S
C2597 C2596 1.366 . S
C2597 C2598 1.414 . S
C2597 C2600 1.499 . S
C2598 H2578 0.950 . S
C2598 C2597 1.414 . S
C2598 C2599 1.374 . S
C2599 H2579 0.950 . S
C2599 C2595 1.385 . S
C2599 C2598 1.374 . S
C2600 C2597 1.499 . S
C2600 C2601 1.373 . S
C2600 C2602 1.389 . S
C2601 H2580 0.950 . S
C2601 C2600 1.373 . S
C2601 C2617 1.377 . S
C2602 C2600 1.389 . S
C2602 C2603 1.524 . S
C2602 C2616 1.377 . S
C2603 C2602 1.524 . S
C2603 C2604 1.397 1_545 S
C2603 C2608 1.363 1_545 S
C2604 H2581 0.973 . S
C2604 C2603 1.397 1_565 S
C2604 C2605 1.334 . S
C2605 H2582 0.950 . S
C2605 C2604 1.334 . S
C2605 C2606 1.287 . S
C2606 C2605 1.287 . S
C2606 C2607 1.524 . S
C2606 H2625 0.913 . S
C2607 H2583 0.950 . S
C2607 C2606 1.524 . S
C2607 C2608 1.415 . S
C2608 H2584 0.950 1_565 S
C2608 C2603 1.363 1_565 S
C2608 C2607 1.415 . S
C2609 H2585 0.951 . S
C2609 C2610 1.366 . S
C2609 C2611 1.388 . S
C2610 C2609 1.366 . S
C2610 C2614 1.385 . S
C2611 H2586 0.951 . S
C2611 C2609 1.388 . S
C2611 C2612 1.366 . S
C2612 C2611 1.366 . S
C2612 C2613 1.414 . S
C2612 C2615 1.499 . S
C2613 H2587 0.950 . S
C2613 C2612 1.414 . S
C2613 C2614 1.374 . S
C2614 H2588 0.950 1_556 S
C2614 C2610 1.385 . S
C2614 C2613 1.374 . S
C2615 C2612 1.499 . S
C2615 C2616 1.373 . S
C2615 C2617 1.389 . S
C2616 H2589 0.950 . S
C2616 C2602 1.377 . S
C2616 C2615 1.373 . S
C2617 C2601 1.377 . S
C2617 C2615 1.389 . S
C2617 C2618 1.524 . S
C2618 C2617 1.524 . S
C2618 C2619 1.397 . S
C2618 C2623 1.363 . S
C2619 H2590 0.950 . S
C2619 C2618 1.397 . S
C2619 C2620 1.334 . S
C2620 H2591 0.950 . S
C2620 C2619 1.334 . S
C2620 C2621 1.287 . S
C2621 C2620 1.287 . S
C2621 C2622 1.524 . S
C2621 H2624 0.999 . S
C2622 H2592 0.950 . S
C2622 C2621 1.524 . S
C2622 C2623 1.415 . S
C2623 H2593 0.950 . S
C2623 C2618 1.363 . S
C2623 C2622 1.415 . S
H2624 C2621 0.999 . S
H2625 C2606 0.913 . S
H2626 C2644 0.951 . S
H2627 C2646 0.951 . S
H2628 C2648 0.950 . S
H2629 C2649 0.950 . S
H2630 C2651 0.950 . S
H2631 C2654 0.950 . S
H2632 C2655 0.950 . S
H2633 C2657 0.950 . S
H2634 C2658 0.950 . S
H2635 C2659 0.951 . S
H2636 C2661 0.951 . S
H2637 C2663 0.950 . S
H2638 C2664 0.950 . S
H2639 C2666 0.950 . S
H2640 C2669 0.950 . S
H2641 C2670 0.950 . S
H2642 C2672 0.950 . S
H2643 C2673 0.950 . S
C2644 H2626 0.951 . S
C2644 C2645 1.366 . S
C2644 C2646 1.388 . S
C2645 C2644 1.366 . S
C2645 C2649 1.385 . S
C2646 H2627 0.951 . S
C2646 C2644 1.388 . S
C2646 C2647 1.366 . S
C2647 C2646 1.366 . S
C2647 C2648 1.414 . S
C2647 C2650 1.499 . S
C2648 H2628 0.950 . S
C2648 C2647 1.414 . S
C2648 C2649 1.374 . S
C2649 H2629 0.950 . S
C2649 C2645 1.385 . S
C2649 C2648 1.374 . S
C2650 C2647 1.499 . S
C2650 C2651 1.373 . S
C2650 C2652 1.389 . S
C2651 H2630 0.950 . S
C2651 C2650 1.373 . S
C2651 C2667 1.377 . S
C2652 C2650 1.389 . S
C2652 C2653 1.524 . S
C2652 C2666 1.377 . S
C2653 C2652 1.524 . S
C2653 C2654 1.397 . S
C2653 C2658 1.363 . S
C2654 H2631 0.950 . S
C2654 C2653 1.397 . S
C2654 C2655 1.334 . S
C2655 H2632 0.950 . S
C2655 C2654 1.334 . S
C2655 C2656 1.287 . S
C2656 C2655 1.287 . S
C2656 C2657 1.524 . S
C2656 H2675 0.913 . S
C2657 H2633 0.950 . S
C2657 C2656 1.524 . S
C2657 C2658 1.415 . S
C2658 H2634 0.950 . S
C2658 C2653 1.363 . S
C2658 C2657 1.415 . S
C2659 H2635 0.951 . S
C2659 C2660 1.366 . S
C2659 C2661 1.388 . S
C2660 C2659 1.366 . S
C2660 C2664 1.385 . S
C2661 H2636 0.951 . S
C2661 C2659 1.388 . S
C2661 C2662 1.366 . S
C2662 C2661 1.366 . S
C2662 C2663 1.414 . S
C2662 C2665 1.499 . S
C2663 H2637 0.950 . S
C2663 C2662 1.414 . S
C2663 C2664 1.374 . S
C2664 H2638 0.950 . S
C2664 C2660 1.385 . S
C2664 C2663 1.374 . S
C2665 C2662 1.499 . S
C2665 C2666 1.373 . S
C2665 C2667 1.389 . S
C2666 H2639 0.950 . S
C2666 C2652 1.377 . S
C2666 C2665 1.373 . S
C2667 C2651 1.377 . S
C2667 C2665 1.389 . S
C2667 C2668 1.524 . S
C2668 C2667 1.524 . S
C2668 C2669 1.397 . S
C2668 C2673 1.363 . S
C2669 H2640 0.950 . S
C2669 C2668 1.397 . S
C2669 C2670 1.334 . S
C2670 H2641 0.950 . S
C2670 C2669 1.334 . S
C2670 C2671 1.287 . S
C2671 C2670 1.287 . S
C2671 C2672 1.524 . S
C2671 H2674 0.999 . S
C2672 H2642 0.950 . S
C2672 C2671 1.524 . S
C2672 C2673 1.415 . S
C2673 H2643 0.950 . S
C2673 C2668 1.363 . S
C2673 C2672 1.415 . S
H2674 C2671 0.999 . S
H2675 C2656 0.913 . S
H2676 C2694 0.951 . S
H2677 C2696 0.951 . S
H2678 C2698 0.950 . S
H2679 C2699 0.950 . S
H2680 C2701 0.950 . S
H2681 C2704 0.950 . S
H2682 C2705 0.950 . S
H2683 C2707 0.950 . S
H2684 C2708 0.950 . S
H2685 C2709 0.951 . S
H2686 C2711 0.951 . S
H2687 C2713 0.950 . S
H2688 C2714 0.950 . S
H2689 C2716 0.950 . S
H2690 C2719 0.950 . S
H2691 C2720 0.950 . S
H2692 C2722 0.950 . S
H2693 C2723 0.950 . S
C2694 H2676 0.951 . S
C2694 C2695 1.366 . S
C2694 C2696 1.388 . S
C2695 C2694 1.366 . S
C2695 C2699 1.385 . S
C2696 H2677 0.951 . S
C2696 C2694 1.388 . S
C2696 C2697 1.366 . S
C2697 C2696 1.366 . S
C2697 C2698 1.414 . S
C2697 C2700 1.499 . S
C2698 H2678 0.950 . S
C2698 C2697 1.414 . S
C2698 C2699 1.374 . S
C2699 H2679 0.950 . S
C2699 C2695 1.385 . S
C2699 C2698 1.374 . S
C2700 C2697 1.499 . S
C2700 C2701 1.373 . S
C2700 C2702 1.389 . S
C2701 H2680 0.950 . S
C2701 C2700 1.373 . S
C2701 C2717 1.377 . S
C2702 C2700 1.389 . S
C2702 C2703 1.524 . S
C2702 C2716 1.377 . S
C2703 C2702 1.524 . S
C2703 C2704 1.397 . S
C2703 C2708 1.363 . S
C2704 H2681 0.950 . S
C2704 C2703 1.397 . S
C2704 C2705 1.334 . S
C2705 H2682 0.950 . S
C2705 C2704 1.334 . S
C2705 C2706 1.287 . S
C2706 C2705 1.287 . S
C2706 C2707 1.524 . S
C2706 H2725 0.913 . S
C2707 H2683 0.950 . S
C2707 C2706 1.524 . S
C2707 C2708 1.415 . S
C2708 H2684 0.950 . S
C2708 C2703 1.363 . S
C2708 C2707 1.415 . S
C2709 H2685 0.951 . S
C2709 C2710 1.366 . S
C2709 C2711 1.388 . S
C2710 C2709 1.366 . S
C2710 C2714 1.385 . S
C2711 H2686 0.951 . S
C2711 C2709 1.388 . S
C2711 C2712 1.366 . S
C2712 C2711 1.366 . S
C2712 C2713 1.414 . S
C2712 C2715 1.499 . S
C2713 H2687 0.950 . S
C2713 C2712 1.414 . S
C2713 C2714 1.374 . S
C2714 H2688 0.950 . S
C2714 C2710 1.385 . S
C2714 C2713 1.374 . S
C2715 C2712 1.499 . S
C2715 C2716 1.373 . S
C2715 C2717 1.389 . S
C2716 H2689 0.950 . S
C2716 C2702 1.377 . S
C2716 C2715 1.373 . S
C2717 C2701 1.377 . S
C2717 C2715 1.389 . S
C2717 C2718 1.524 . S
C2718 C2717 1.524 . S
C2718 C2719 1.397 . S
C2718 C2723 1.363 . S
C2719 H2690 0.950 . S
C2719 C2718 1.397 . S
C2719 C2720 1.334 . S
C2720 H2691 0.950 . S
C2720 C2719 1.334 . S
C2720 C2721 1.287 . S
C2721 C2720 1.287 . S
C2721 C2722 1.524 . S
C2721 H2724 0.999 . S
C2722 H2692 0.950 . S
C2722 C2721 1.524 . S
C2722 C2723 1.415 . S
C2723 H2693 0.950 . S
C2723 C2718 1.363 . S
C2723 C2722 1.415 . S
H2724 C2721 0.999 . S
H2725 C2706 0.913 . S
H2726 C2744 0.951 . S
H2727 C2746 0.951 . S
H2728 C2748 0.950 . S
H2729 C2749 0.950 . S
H2730 C2751 0.950 . S
H2731 C2754 0.950 . S
H2732 C2755 0.950 . S
H2733 C2757 0.950 . S
H2734 C2758 0.950 . S
H2735 C2759 0.951 . S
H2736 C2761 0.951 . S
H2737 C2763 0.950 . S
H2738 C2764 0.950 . S
H2739 C2766 0.950 . S
H2740 C2769 0.950 . S
H2741 C2770 0.950 . S
H2742 C2772 0.950 . S
H2743 C2773 0.950 . S
C2744 H2726 0.951 . S
C2744 C2745 1.366 . S
C2744 C2746 1.388 . S
C2745 C2744 1.366 . S
C2745 C2749 1.385 . S
C2746 H2727 0.951 . S
C2746 C2744 1.388 . S
C2746 C2747 1.366 . S
C2747 C2746 1.366 . S
C2747 C2748 1.414 . S
C2747 C2750 1.499 . S
C2748 H2728 0.950 . S
C2748 C2747 1.414 . S
C2748 C2749 1.374 . S
C2749 H2729 0.950 . S
C2749 C2745 1.385 . S
C2749 C2748 1.374 . S
C2750 C2747 1.499 . S
C2750 C2751 1.373 . S
C2750 C2752 1.389 . S
C2751 H2730 0.950 . S
C2751 C2750 1.373 . S
C2751 C2767 1.377 . S
C2752 C2750 1.389 . S
C2752 C2753 1.524 . S
C2752 C2766 1.377 . S
C2753 C2752 1.524 . S
C2753 C2754 1.397 . S
C2753 C2758 1.363 . S
C2754 H2731 0.950 . S
C2754 C2753 1.397 . S
C2754 C2755 1.334 . S
C2755 H2732 0.950 . S
C2755 C2754 1.334 . S
C2755 C2756 1.287 . S
C2756 C2755 1.287 . S
C2756 C2757 1.524 . S
C2756 H2775 0.913 . S
C2757 H2733 0.950 . S
C2757 C2756 1.524 . S
C2757 C2758 1.415 . S
C2758 H2734 0.950 . S
C2758 C2753 1.363 . S
C2758 C2757 1.415 . S
C2759 H2735 0.951 . S
C2759 C2760 1.366 . S
C2759 C2761 1.388 . S
C2760 C2759 1.366 . S
C2760 C2764 1.385 . S
C2761 H2736 0.951 . S
C2761 C2759 1.388 . S
C2761 C2762 1.366 . S
C2762 C2761 1.366 . S
C2762 C2763 1.414 . S
C2762 C2765 1.499 . S
C2763 H2737 0.950 . S
C2763 C2762 1.414 . S
C2763 C2764 1.374 . S
C2764 H2738 0.950 . S
C2764 C2760 1.385 . S
C2764 C2763 1.374 . S
C2765 C2762 1.499 . S
C2765 C2766 1.373 . S
C2765 C2767 1.389 . S
C2766 H2739 0.950 . S
C2766 C2752 1.377 . S
C2766 C2765 1.373 . S
C2767 C2751 1.377 . S
C2767 C2765 1.389 . S
C2767 C2768 1.524 . S
C2768 C2767 1.524 . S
C2768 C2769 1.397 . S
C2768 C2773 1.363 . S
C2769 H2740 0.950 . S
C2769 C2768 1.397 . S
C2769 C2770 1.334 . S
C2770 H2741 0.950 . S
C2770 C2769 1.334 . S
C2770 C2771 1.287 . S
C2771 C2770 1.287 . S
C2771 C2772 1.524 . S
C2771 H2774 0.999 . S
C2772 H2742 0.950 . S
C2772 C2771 1.524 . S
C2772 C2773 1.415 . S
C2773 H2743 0.950 . S
C2773 C2768 1.363 . S
C2773 C2772 1.415 . S
H2774 C2771 0.999 . S
H2775 C2756 0.913 . S
H2776 C2794 0.951 . S
H2777 C2796 0.951 . S
H2778 C2798 0.950 . S
H2779 C2799 0.950 . S
H2780 C2801 0.950 . S
H2781 C2804 0.950 . S
H2782 C2805 0.950 1_565 S
H2783 C2807 0.950 . S
H2784 C2808 0.950 . S
H2785 C2809 0.951 . S
H2786 C2811 0.951 . S
H2787 C2813 0.950 . S
H2788 C2814 0.950 . S
H2789 C2816 0.950 . S
H2790 C2819 0.950 . S
H2791 C2820 0.950 . S
H2792 C2822 0.950 . S
H2793 C2823 0.950 . S
C2794 H2776 0.951 . S
C2794 C2795 1.366 . S
C2794 C2796 1.388 . S
C2795 C2794 1.366 . S
C2795 C2799 1.385 . S
C2796 H2777 0.951 . S
C2796 C2794 1.388 . S
C2796 C2797 1.366 . S
C2797 C2796 1.366 . S
C2797 C2798 1.414 . S
C2797 C2800 1.499 . S
C2798 H2778 0.950 . S
C2798 C2797 1.414 . S
C2798 C2799 1.374 . S
C2799 H2779 0.950 . S
C2799 C2795 1.385 . S
C2799 C2798 1.374 . S
C2800 C2797 1.499 . S
C2800 C2801 1.373 . S
C2800 C2802 1.389 . S
C2801 H2780 0.950 . S
C2801 C2800 1.373 . S
C2801 C2817 1.377 . S
C2802 C2800 1.389 . S
C2802 C2803 1.524 . S
C2802 C2816 1.377 . S
C2803 C2802 1.524 . S
C2803 C2804 1.397 . S
C2803 C2808 1.363 . S
C2804 H2781 0.950 . S
C2804 C2803 1.397 . S
C2804 C2805 1.334 . S
C2805 H2782 0.950 1_545 S
C2805 C2804 1.334 . S
C2805 C2806 1.287 . S
C2806 C2805 1.287 . S
C2806 C2807 1.524 . S
C2806 H2825 0.913 . S
C2807 H2783 0.950 . S
C2807 C2806 1.524 . S
C2807 C2808 1.415 . S
C2808 H2784 0.950 . S
C2808 C2803 1.363 . S
C2808 C2807 1.415 . S
C2809 H2785 0.951 . S
C2809 C2810 1.366 . S
C2809 C2811 1.388 . S
C2810 C2809 1.366 . S
C2810 C2814 1.385 . S
C2811 H2786 0.951 . S
C2811 C2809 1.388 . S
C2811 C2812 1.366 . S
C2812 C2811 1.366 . S
C2812 C2813 1.414 . S
C2812 C2815 1.499 . S
C2813 H2787 0.950 . S
C2813 C2812 1.414 . S
C2813 C2814 1.374 . S
C2814 H2788 0.950 . S
C2814 C2810 1.385 . S
C2814 C2813 1.374 . S
C2815 C2812 1.499 . S
C2815 C2816 1.373 . S
C2815 C2817 1.389 . S
C2816 H2789 0.950 . S
C2816 C2802 1.377 . S
C2816 C2815 1.373 . S
C2817 C2801 1.377 . S
C2817 C2815 1.389 . S
C2817 C2818 1.524 . S
C2818 C2817 1.524 . S
C2818 C2819 1.397 . S
C2818 C2823 1.363 . S
C2819 H2790 0.950 . S
C2819 C2818 1.397 . S
C2819 C2820 1.334 . S
C2820 H2791 0.950 . S
C2820 C2819 1.334 . S
C2820 C2821 1.287 . S
C2821 C2820 1.287 . S
C2821 C2822 1.524 . S
C2821 H2824 0.999 . S
C2822 H2792 0.950 . S
C2822 C2821 1.524 . S
C2822 C2823 1.415 . S
C2823 H2793 0.950 . S
C2823 C2818 1.363 . S
C2823 C2822 1.415 . S
H2824 C2821 0.999 . S
H2825 C2806 0.913 . S
H2826 C2844 0.951 . S
H2827 C2846 0.951 . S
H2828 C2848 0.950 . S
H2829 C2849 0.950 . S
H2830 C2851 0.950 . S
H2831 C2854 0.950 . S
H2832 C2855 0.950 . S
H2833 C2857 0.950 . S
H2834 C2858 0.950 . S
H2835 C2859 0.951 . S
H2836 C2861 0.951 . S
H2837 C2863 0.950 . S
H2838 C2864 0.950 . S
H2839 C2866 0.950 . S
H2840 C2869 0.950 . S
H2841 C2870 0.950 . S
H2842 C2872 0.950 . S
H2843 C2873 0.950 . S
C2844 H2826 0.951 . S
C2844 C2845 1.366 . S
C2844 C2846 1.388 . S
C2845 C2844 1.366 . S
C2845 C2849 1.385 . S
C2846 H2827 0.951 . S
C2846 C2844 1.388 . S
C2846 C2847 1.366 . S
C2847 C2846 1.366 . S
C2847 C2848 1.414 . S
C2847 C2850 1.499 . S
C2848 H2828 0.950 . S
C2848 C2847 1.414 . S
C2848 C2849 1.374 . S
C2849 H2829 0.950 . S
C2849 C2845 1.385 . S
C2849 C2848 1.374 . S
C2850 C2847 1.499 . S
C2850 C2851 1.373 . S
C2850 C2852 1.389 . S
C2851 H2830 0.950 . S
C2851 C2850 1.373 . S
C2851 C2867 1.377 . S
C2852 C2850 1.389 . S
C2852 C2853 1.524 . S
C2852 C2866 1.377 . S
C2853 C2852 1.524 . S
C2853 C2854 1.397 . S
C2853 C2858 1.363 . S
C2854 H2831 0.950 . S
C2854 C2853 1.397 . S
C2854 C2855 1.334 . S
C2855 H2832 0.950 . S
C2855 C2854 1.334 . S
C2855 C2856 1.287 . S
C2856 C2855 1.287 . S
C2856 C2857 1.524 . S
C2856 H2875 0.913 . S
C2857 H2833 0.950 . S
C2857 C2856 1.524 . S
C2857 C2858 1.415 . S
C2858 H2834 0.950 . S
C2858 C2853 1.363 . S
C2858 C2857 1.415 . S
C2859 H2835 0.951 . S
C2859 C2860 1.366 . S
C2859 C2861 1.388 . S
C2860 C2859 1.366 . S
C2860 C2864 1.385 . S
C2861 H2836 0.951 . S
C2861 C2859 1.388 . S
C2861 C2862 1.366 . S
C2862 C2861 1.366 . S
C2862 C2863 1.414 . S
C2862 C2865 1.499 . S
C2863 H2837 0.950 . S
C2863 C2862 1.414 . S
C2863 C2864 1.374 . S
C2864 H2838 0.950 . S
C2864 C2860 1.385 . S
C2864 C2863 1.374 . S
C2865 C2862 1.499 . S
C2865 C2866 1.373 . S
C2865 C2867 1.389 . S
C2866 H2839 0.950 . S
C2866 C2852 1.377 . S
C2866 C2865 1.373 . S
C2867 C2851 1.377 . S
C2867 C2865 1.389 . S
C2867 C2868 1.524 . S
C2868 C2867 1.524 . S
C2868 C2869 1.397 . S
C2868 C2873 1.363 . S
C2869 H2840 0.950 . S
C2869 C2868 1.397 . S
C2869 C2870 1.334 . S
C2870 H2841 0.950 . S
C2870 C2869 1.334 . S
C2870 C2871 1.287 . S
C2871 C2870 1.287 . S
C2871 C2872 1.524 . S
C2871 H2874 0.999 . S
C2872 H2842 0.950 . S
C2872 C2871 1.524 . S
C2872 C2873 1.415 . S
C2873 H2843 0.950 . S
C2873 C2868 1.363 . S
C2873 C2872 1.415 . S
H2874 C2871 0.999 . S
H2875 C2856 0.913 . S
H2876 C2894 0.951 . S
H2877 C2896 0.951 . S
H2878 C2898 0.950 . S
H2879 C2899 0.950 . S
H2880 C2901 0.950 . S
H2881 C2904 0.950 . S
H2882 C2905 0.950 . S
H2883 C2907 0.950 . S
H2884 C2908 0.950 . S
H2885 C2909 0.951 . S
H2886 C2911 0.951 . S
H2887 C2913 0.950 . S
H2888 C2914 0.950 . S
H2889 C2916 0.950 . S
H2890 C2919 0.950 . S
H2891 C2920 0.950 . S
H2892 C2922 0.950 . S
H2893 C2923 0.950 . S
C2894 H2876 0.951 . S
C2894 C2895 1.366 . S
C2894 C2896 1.388 . S
C2895 C2894 1.366 . S
C2895 C2899 1.385 . S
C2896 H2877 0.951 . S
C2896 C2894 1.388 . S
C2896 C2897 1.366 . S
C2897 C2896 1.366 . S
C2897 C2898 1.414 . S
C2897 C2900 1.499 . S
C2898 H2878 0.950 . S
C2898 C2897 1.414 . S
C2898 C2899 1.374 . S
C2899 H2879 0.950 . S
C2899 C2895 1.385 . S
C2899 C2898 1.374 . S
C2900 C2897 1.499 . S
C2900 C2901 1.373 . S
C2900 C2902 1.389 . S
C2901 H2880 0.950 . S
C2901 C2900 1.373 . S
C2901 C2917 1.377 . S
C2902 C2900 1.389 . S
C2902 C2903 1.524 . S
C2902 C2916 1.377 . S
C2903 C2902 1.524 . S
C2903 C2904 1.397 . S
C2903 C2908 1.363 . S
C2904 H2881 0.950 . S
C2904 C2903 1.397 . S
C2904 C2905 1.334 . S
C2905 H2882 0.950 . S
C2905 C2904 1.334 . S
C2905 C2906 1.287 . S
C2906 C2905 1.287 . S
C2906 C2907 1.524 . S
C2906 H2925 0.913 . S
C2907 H2883 0.950 . S
C2907 C2906 1.524 . S
C2907 C2908 1.415 . S
C2908 H2884 0.950 . S
C2908 C2903 1.363 . S
C2908 C2907 1.415 . S
C2909 H2885 0.951 . S
C2909 C2910 1.366 . S
C2909 C2911 1.388 . S
C2910 C2909 1.366 . S
C2910 C2914 1.385 . S
C2911 H2886 0.951 . S
C2911 C2909 1.388 . S
C2911 C2912 1.366 . S
C2912 C2911 1.366 . S
C2912 C2913 1.414 . S
C2912 C2915 1.499 . S
C2913 H2887 0.950 . S
C2913 C2912 1.414 . S
C2913 C2914 1.374 . S
C2914 H2888 0.950 . S
C2914 C2910 1.385 . S
C2914 C2913 1.374 . S
C2915 C2912 1.499 . S
C2915 C2916 1.373 . S
C2915 C2917 1.389 . S
C2916 H2889 0.950 . S
C2916 C2902 1.377 . S
C2916 C2915 1.373 . S
C2917 C2901 1.377 . S
C2917 C2915 1.389 . S
C2917 C2918 1.524 . S
C2918 C2917 1.524 . S
C2918 C2919 1.397 . S
C2918 C2923 1.363 . S
C2919 H2890 0.950 . S
C2919 C2918 1.397 . S
C2919 C2920 1.334 . S
C2920 H2891 0.950 . S
C2920 C2919 1.334 . S
C2920 C2921 1.287 . S
C2921 C2920 1.287 . S
C2921 C2922 1.524 . S
C2921 H2924 0.999 . S
C2922 H2892 0.950 . S
C2922 C2921 1.524 . S
C2922 C2923 1.415 . S
C2923 H2893 0.950 . S
C2923 C2918 1.363 . S
C2923 C2922 1.415 . S
H2924 C2921 0.999 . S
H2925 C2906 0.913 . S
H2926 C2944 0.951 . S
H2927 C2946 0.951 . S
H2928 C2948 0.950 . S
H2929 C2949 0.950 . S
H2930 C2951 0.950 . S
H2931 C2954 0.950 . S
H2932 C2955 0.950 . S
H2933 C2957 0.950 . S
H2934 C2958 0.950 . S
H2935 C2959 0.951 . S
H2936 C2961 0.951 . S
H2937 C2963 0.950 . S
H2938 C2964 0.950 . S
H2939 C2966 0.950 . S
H2940 C2969 0.950 . S
H2941 C2970 0.950 . S
H2942 C2972 0.950 . S
H2943 C2973 0.950 . S
C2944 H2926 0.951 . S
C2944 C2945 1.366 . S
C2944 C2946 1.388 . S
C2945 C2944 1.366 . S
C2945 C2949 1.385 . S
C2946 H2927 0.951 . S
C2946 C2944 1.388 . S
C2946 C2947 1.366 . S
C2947 C2946 1.366 . S
C2947 C2948 1.414 . S
C2947 C2950 1.499 . S
C2948 H2928 0.950 . S
C2948 C2947 1.414 . S
C2948 C2949 1.374 . S
C2949 H2929 0.950 . S
C2949 C2945 1.385 . S
C2949 C2948 1.374 . S
C2950 C2947 1.499 . S
C2950 C2951 1.373 . S
C2950 C2952 1.389 . S
C2951 H2930 0.950 . S
C2951 C2950 1.373 . S
C2951 C2967 1.377 . S
C2952 C2950 1.389 . S
C2952 C2953 1.524 . S
C2952 C2966 1.377 . S
C2953 C2952 1.524 . S
C2953 C2954 1.397 . S
C2953 C2958 1.363 . S
C2954 H2931 0.950 . S
C2954 C2953 1.397 . S
C2954 C2955 1.334 . S
C2955 H2932 0.950 . S
C2955 C2954 1.334 . S
C2955 C2956 1.287 . S
C2956 C2955 1.287 . S
C2956 C2957 1.524 . S
C2956 H2975 0.913 . S
C2957 H2933 0.950 . S
C2957 C2956 1.524 . S
C2957 C2958 1.415 . S
C2958 H2934 0.950 . S
C2958 C2953 1.363 . S
C2958 C2957 1.415 . S
C2959 H2935 0.951 . S
C2959 C2960 1.366 . S
C2959 C2961 1.388 . S
C2960 C2959 1.366 . S
C2960 C2964 1.385 . S
C2961 H2936 0.951 . S
C2961 C2959 1.388 . S
C2961 C2962 1.366 . S
C2962 C2961 1.366 . S
C2962 C2963 1.414 . S
C2962 C2965 1.499 . S
C2963 H2937 0.950 . S
C2963 C2962 1.414 . S
C2963 C2964 1.374 . S
C2964 H2938 0.950 . S
C2964 C2960 1.385 . S
C2964 C2963 1.374 . S
C2965 C2962 1.499 . S
C2965 C2966 1.373 . S
C2965 C2967 1.389 . S
C2966 H2939 0.950 . S
C2966 C2952 1.377 . S
C2966 C2965 1.373 . S
C2967 C2951 1.377 . S
C2967 C2965 1.389 . S
C2967 C2968 1.524 . S
C2968 C2967 1.524 . S
C2968 C2969 1.397 . S
C2968 C2973 1.363 . S
C2969 H2940 0.950 . S
C2969 C2968 1.397 . S
C2969 C2970 1.334 . S
C2970 H2941 0.950 . S
C2970 C2969 1.334 . S
C2970 C2971 1.287 . S
C2971 C2970 1.287 . S
C2971 C2972 1.524 . S
C2971 H2974 0.999 . S
C2972 H2942 0.950 . S
C2972 C2971 1.524 . S
C2972 C2973 1.415 . S
C2973 H2943 0.950 . S
C2973 C2968 1.363 . S
C2973 C2972 1.415 . S
H2974 C2971 0.999 . S
H2975 C2956 0.913 . S
H2976 C2994 0.951 . S
H2977 C2996 0.951 . S
H2978 C2998 0.950 . S
H2979 C2999 0.950 . S
H2980 C3001 0.950 . S
H2981 C3004 0.950 . S
H2982 C3005 0.950 . S
H2983 C3007 0.950 . S
H2984 C3008 0.950 . S
H2985 C3009 0.951 . S
H2986 C3011 0.951 . S
H2987 C3013 0.950 . S
H2988 C3014 0.950 . S
H2989 C3016 0.950 . S
H2990 C3019 0.950 . S
H2991 C3020 0.950 . S
H2992 C3022 0.950 . S
H2993 C3023 0.950 . S
C2994 H2976 0.951 . S
C2994 C2995 1.366 . S
C2994 C2996 1.388 . S
C2995 C2994 1.366 . S
C2995 C2999 1.385 . S
C2996 H2977 0.951 . S
C2996 C2994 1.388 . S
C2996 C2997 1.366 . S
C2997 C2996 1.366 . S
C2997 C2998 1.414 . S
C2997 C3000 1.499 . S
C2998 H2978 0.950 . S
C2998 C2997 1.414 . S
C2998 C2999 1.374 . S
C2999 H2979 0.950 . S
C2999 C2995 1.385 . S
C2999 C2998 1.374 . S
C3000 C2997 1.499 . S
C3000 C3001 1.373 . S
C3000 C3002 1.389 . S
C3001 H2980 0.950 . S
C3001 C3000 1.373 . S
C3001 C3017 1.377 . S
C3002 C3000 1.389 . S
C3002 C3003 1.524 . S
C3002 C3016 1.377 . S
C3003 C3002 1.524 . S
C3003 C3004 1.397 . S
C3003 C3008 1.363 . S
C3004 H2981 0.950 . S
C3004 C3003 1.397 . S
C3004 C3005 1.334 . S
C3005 H2982 0.950 . S
C3005 C3004 1.334 . S
C3005 C3006 1.287 . S
C3006 C3005 1.287 . S
C3006 C3007 1.524 . S
C3006 H3025 0.913 . S
C3007 H2983 0.950 . S
C3007 C3006 1.524 . S
C3007 C3008 1.415 . S
C3008 H2984 0.950 . S
C3008 C3003 1.363 . S
C3008 C3007 1.415 . S
C3009 H2985 0.951 . S
C3009 C3010 1.366 . S
C3009 C3011 1.388 . S
C3010 C3009 1.366 . S
C3010 C3014 1.385 . S
C3011 H2986 0.951 . S
C3011 C3009 1.388 . S
C3011 C3012 1.366 . S
C3012 C3011 1.366 . S
C3012 C3013 1.414 . S
C3012 C3015 1.499 . S
C3013 H2987 0.950 . S
C3013 C3012 1.414 . S
C3013 C3014 1.374 . S
C3014 H2988 0.950 . S
C3014 C3010 1.385 . S
C3014 C3013 1.374 . S
C3015 C3012 1.499 . S
C3015 C3016 1.373 . S
C3015 C3017 1.389 . S
C3016 H2989 0.950 . S
C3016 C3002 1.377 . S
C3016 C3015 1.373 . S
C3017 C3001 1.377 . S
C3017 C3015 1.389 . S
C3017 C3018 1.524 . S
C3018 C3017 1.524 . S
C3018 C3019 1.397 . S
C3018 C3023 1.363 . S
C3019 H2990 0.950 . S
C3019 C3018 1.397 . S
C3019 C3020 1.334 . S
C3020 H2991 0.950 . S
C3020 C3019 1.334 . S
C3020 C3021 1.287 . S
C3021 C3020 1.287 . S
C3021 C3022 1.524 . S
C3021 H3024 0.999 . S
C3022 H2992 0.950 . S
C3022 C3021 1.524 . S
C3022 C3023 1.415 . S
C3023 H2993 0.950 . S
C3023 C3018 1.363 . S
C3023 C3022 1.415 . S
H3024 C3021 0.999 . S
H3025 C3006 0.913 . S
H3026 C3044 0.951 . S
H3027 C3046 0.951 . S
H3028 C3048 0.950 . S
H3029 C3049 0.950 . S
H3030 C3051 0.950 . S
H3031 C3054 0.950 . S
H3032 C3055 0.950 . S
H3033 C3057 0.950 . S
H3034 C3058 0.950 . S
H3035 C3059 0.951 . S
H3036 C3061 0.951 . S
H3037 C3063 0.950 . S
H3038 C3064 0.950 . S
H3039 C3066 0.950 . S
H3040 C3069 0.950 . S
H3041 C3070 0.950 . S
H3042 C3072 0.950 . S
H3043 C3073 0.950 . S
C3044 H3026 0.951 . S
C3044 C3045 1.366 . S
C3044 C3046 1.388 . S
C3045 C3044 1.366 . S
C3045 C3049 1.385 . S
C3046 H3027 0.951 . S
C3046 C3044 1.388 . S
C3046 C3047 1.366 . S
C3047 C3046 1.366 . S
C3047 C3048 1.414 . S
C3047 C3050 1.499 . S
C3048 H3028 0.950 . S
C3048 C3047 1.414 . S
C3048 C3049 1.374 . S
C3049 H3029 0.950 . S
C3049 C3045 1.385 . S
C3049 C3048 1.374 . S
C3050 C3047 1.499 . S
C3050 C3051 1.373 . S
C3050 C3052 1.389 . S
C3051 H3030 0.950 . S
C3051 C3050 1.373 . S
C3051 C3067 1.377 . S
C3052 C3050 1.389 . S
C3052 C3053 1.524 . S
C3052 C3066 1.377 . S
C3053 C3052 1.524 . S
C3053 C3054 1.397 . S
C3053 C3058 1.363 . S
C3054 H3031 0.950 . S
C3054 C3053 1.397 . S
C3054 C3055 1.334 . S
C3055 H3032 0.950 . S
C3055 C3054 1.334 . S
C3055 C3056 1.287 . S
C3056 C3055 1.287 . S
C3056 C3057 1.524 . S
C3056 H3075 0.913 . S
C3057 H3033 0.950 . S
C3057 C3056 1.524 . S
C3057 C3058 1.415 . S
C3058 H3034 0.950 . S
C3058 C3053 1.363 . S
C3058 C3057 1.415 . S
C3059 H3035 0.951 . S
C3059 C3060 1.366 . S
C3059 C3061 1.388 . S
C3060 C3059 1.366 . S
C3060 C3064 1.385 . S
C3061 H3036 0.951 . S
C3061 C3059 1.388 . S
C3061 C3062 1.366 . S
C3062 C3061 1.366 . S
C3062 C3063 1.414 . S
C3062 C3065 1.499 . S
C3063 H3037 0.950 . S
C3063 C3062 1.414 . S
C3063 C3064 1.374 . S
C3064 H3038 0.950 . S
C3064 C3060 1.385 . S
C3064 C3063 1.374 . S
C3065 C3062 1.499 . S
C3065 C3066 1.373 . S
C3065 C3067 1.389 . S
C3066 H3039 0.950 . S
C3066 C3052 1.377 . S
C3066 C3065 1.373 . S
C3067 C3051 1.377 . S
C3067 C3065 1.389 . S
C3067 C3068 1.524 . S
C3068 C3067 1.524 . S
C3068 C3069 1.397 . S
C3068 C3073 1.363 . S
C3069 H3040 0.950 . S
C3069 C3068 1.397 . S
C3069 C3070 1.334 . S
C3070 H3041 0.950 . S
C3070 C3069 1.334 . S
C3070 C3071 1.287 . S
C3071 C3070 1.287 . S
C3071 C3072 1.524 . S
C3071 H3074 0.999 . S
C3072 H3042 0.950 . S
C3072 C3071 1.524 . S
C3072 C3073 1.415 . S
C3073 H3043 0.950 . S
C3073 C3068 1.363 . S
C3073 C3072 1.415 . S
H3074 C3071 0.999 . S
H3075 C3056 0.913 . S
H3076 C3094 0.951 . S
H3077 C3096 0.951 . S
H3078 C3098 0.950 . S
H3079 C3099 0.950 . S
H3080 C3101 0.950 . S
H3081 C3104 0.950 . S
H3082 C3105 0.950 . S
H3083 C3107 0.950 . S
H3084 C3108 0.950 . S
H3085 C3109 0.951 . S
H3086 C3111 0.951 . S
H3087 C3113 0.950 . S
H3088 C3114 0.950 . S
H3089 C3116 0.950 . S
H3090 C3119 0.950 . S
H3091 C3120 0.950 . S
H3092 C3122 0.950 . S
H3093 C3123 0.950 . S
C3094 H3076 0.951 . S
C3094 C3095 1.366 . S
C3094 C3096 1.388 . S
C3095 C3094 1.366 . S
C3095 C3099 1.385 . S
C3096 H3077 0.951 . S
C3096 C3094 1.388 . S
C3096 C3097 1.366 . S
C3097 C3096 1.366 . S
C3097 C3098 1.414 . S
C3097 C3100 1.499 . S
C3098 H3078 0.950 . S
C3098 C3097 1.414 . S
C3098 C3099 1.374 . S
C3099 H3079 0.950 . S
C3099 C3095 1.385 . S
C3099 C3098 1.374 . S
C3100 C3097 1.499 . S
C3100 C3101 1.373 . S
C3100 C3102 1.389 . S
C3101 H3080 0.950 . S
C3101 C3100 1.373 . S
C3101 C3117 1.377 . S
C3102 C3100 1.389 . S
C3102 C3103 1.524 . S
C3102 C3116 1.377 . S
C3103 C3102 1.524 . S
C3103 C3104 1.397 . S
C3103 C3108 1.363 . S
C3104 H3081 0.950 . S
C3104 C3103 1.397 . S
C3104 C3105 1.334 . S
C3105 H3082 0.950 . S
C3105 C3104 1.334 . S
C3105 C3106 1.287 . S
C3106 C3105 1.287 . S
C3106 C3107 1.524 . S
C3106 H3125 0.913 . S
C3107 H3083 0.950 . S
C3107 C3106 1.524 . S
C3107 C3108 1.415 . S
C3108 H3084 0.950 . S
C3108 C3103 1.363 . S
C3108 C3107 1.415 . S
C3109 H3085 0.951 . S
C3109 C3110 1.366 . S
C3109 C3111 1.388 . S
C3110 C3109 1.366 . S
C3110 C3114 1.385 . S
C3111 H3086 0.951 . S
C3111 C3109 1.388 . S
C3111 C3112 1.366 . S
C3112 C3111 1.366 . S
C3112 C3113 1.414 . S
C3112 C3115 1.499 . S
C3113 H3087 0.950 . S
C3113 C3112 1.414 . S
C3113 C3114 1.374 . S
C3114 H3088 0.950 . S
C3114 C3110 1.385 . S
C3114 C3113 1.374 . S
C3115 C3112 1.499 . S
C3115 C3116 1.373 . S
C3115 C3117 1.389 . S
C3116 H3089 0.950 . S
C3116 C3102 1.377 . S
C3116 C3115 1.373 . S
C3117 C3101 1.377 . S
C3117 C3115 1.389 . S
C3117 C3118 1.524 . S
C3118 C3117 1.524 . S
C3118 C3119 1.397 . S
C3118 C3123 1.363 . S
C3119 H3090 0.950 . S
C3119 C3118 1.397 . S
C3119 C3120 1.334 . S
C3120 H3091 0.950 . S
C3120 C3119 1.334 . S
C3120 C3121 1.287 . S
C3121 C3120 1.287 . S
C3121 C3122 1.524 . S
C3121 H3124 0.999 . S
C3122 H3092 0.950 . S
C3122 C3121 1.524 . S
C3122 C3123 1.415 . S
C3123 H3093 0.950 . S
C3123 C3118 1.363 . S
C3123 C3122 1.415 . S
H3124 C3121 0.999 . S
H3125 C3106 0.913 . S
H3126 C3144 0.951 . S
H3127 C3146 0.951 . S
H3128 C3148 0.950 . S
H3129 C3149 0.950 . S
H3130 C3151 0.950 . S
H3131 C3154 0.950 . S
H3132 C3155 0.950 . S
H3133 C3157 0.950 . S
H3134 C3158 0.950 . S
H3135 C3159 0.951 . S
H3136 C3161 0.951 . S
H3137 C3163 0.950 . S
H3138 C3164 0.950 . S
H3139 C3166 0.950 . S
H3140 C3169 0.950 . S
H3141 C3170 0.950 . S
H3142 C3172 0.950 . S
H3143 C3173 0.950 . S
C3144 H3126 0.951 . S
C3144 C3145 1.366 . S
C3144 C3146 1.388 . S
C3145 C3144 1.366 . S
C3145 C3149 1.385 . S
C3146 H3127 0.951 . S
C3146 C3144 1.388 . S
C3146 C3147 1.366 . S
C3147 C3146 1.366 . S
C3147 C3148 1.414 . S
C3147 C3150 1.499 . S
C3148 H3128 0.950 . S
C3148 C3147 1.414 . S
C3148 C3149 1.374 . S
C3149 H3129 0.950 . S
C3149 C3145 1.385 . S
C3149 C3148 1.374 . S
C3150 C3147 1.499 . S
C3150 C3151 1.373 . S
C3150 C3152 1.389 . S
C3151 H3130 0.950 . S
C3151 C3150 1.373 . S
C3151 C3167 1.377 . S
C3152 C3150 1.389 . S
C3152 C3153 1.524 . S
C3152 C3166 1.377 . S
C3153 C3152 1.524 . S
C3153 C3154 1.397 . S
C3153 C3158 1.363 . S
C3154 H3131 0.950 . S
C3154 C3153 1.397 . S
C3154 C3155 1.334 . S
C3155 H3132 0.950 . S
C3155 C3154 1.334 . S
C3155 C3156 1.287 . S
C3156 C3155 1.287 . S
C3156 C3157 1.524 . S
C3156 H3175 0.913 . S
C3157 H3133 0.950 . S
C3157 C3156 1.524 . S
C3157 C3158 1.415 . S
C3158 H3134 0.950 . S
C3158 C3153 1.363 . S
C3158 C3157 1.415 . S
C3159 H3135 0.951 . S
C3159 C3160 1.366 . S
C3159 C3161 1.388 . S
C3160 C3159 1.366 . S
C3160 C3164 1.385 . S
C3161 H3136 0.951 . S
C3161 C3159 1.388 . S
C3161 C3162 1.366 . S
C3162 C3161 1.366 . S
C3162 C3163 1.414 . S
C3162 C3165 1.499 . S
C3163 H3137 0.950 . S
C3163 C3162 1.414 . S
C3163 C3164 1.374 . S
C3164 H3138 0.950 . S
C3164 C3160 1.385 . S
C3164 C3163 1.374 . S
C3165 C3162 1.499 . S
C3165 C3166 1.373 . S
C3165 C3167 1.389 . S
C3166 H3139 0.950 . S
C3166 C3152 1.377 . S
C3166 C3165 1.373 . S
C3167 C3151 1.377 . S
C3167 C3165 1.389 . S
C3167 C3168 1.524 . S
C3168 C3167 1.524 . S
C3168 C3169 1.397 . S
C3168 C3173 1.363 . S
C3169 H3140 0.950 . S
C3169 C3168 1.397 . S
C3169 C3170 1.334 . S
C3170 H3141 0.950 . S
C3170 C3169 1.334 . S
C3170 C3171 1.287 . S
C3171 C3170 1.287 . S
C3171 C3172 1.524 . S
C3171 H3174 0.999 . S
C3172 H3142 0.950 . S
C3172 C3171 1.524 . S
C3172 C3173 1.415 . S
C3173 H3143 0.950 . S
C3173 C3168 1.363 . S
C3173 C3172 1.415 . S
H3174 C3171 0.999 . S
H3175 C3156 0.913 . S
H3176 C3194 0.951 . S
H3177 C3196 0.951 . S
H3178 C3198 0.950 . S
H3179 C3199 0.950 . S
H3180 C3201 0.950 . S
H3181 C3204 0.950 . S
H3182 C3205 0.950 . S
H3183 C3207 0.950 . S
H3184 C3208 0.950 . S
H3185 C3209 0.951 . S
H3186 C3211 0.951 . S
H3187 C3213 0.950 . S
H3188 C3214 0.950 . S
H3189 C3216 0.950 . S
H3190 C3219 0.950 . S
H3191 C3220 0.950 . S
H3192 C3222 0.950 . S
H3193 C3223 0.950 . S
C3194 H3176 0.951 . S
C3194 C3195 1.366 . S
C3194 C3196 1.388 . S
C3195 C3194 1.366 . S
C3195 C3199 1.385 . S
C3196 H3177 0.951 . S
C3196 C3194 1.388 . S
C3196 C3197 1.366 . S
C3197 C3196 1.366 . S
C3197 C3198 1.414 . S
C3197 C3200 1.499 . S
C3198 H3178 0.950 . S
C3198 C3197 1.414 . S
C3198 C3199 1.374 . S
C3199 H3179 0.950 . S
C3199 C3195 1.385 . S
C3199 C3198 1.374 . S
C3200 C3197 1.499 . S
C3200 C3201 1.373 . S
C3200 C3202 1.389 . S
C3201 H3180 0.950 . S
C3201 C3200 1.373 . S
C3201 C3217 1.377 . S
C3202 C3200 1.389 . S
C3202 C3203 1.524 . S
C3202 C3216 1.377 . S
C3203 C3202 1.524 . S
C3203 C3204 1.397 . S
C3203 C3208 1.363 . S
C3204 H3181 0.950 . S
C3204 C3203 1.397 . S
C3204 C3205 1.334 . S
C3205 H3182 0.950 . S
C3205 C3204 1.334 . S
C3205 C3206 1.287 . S
C3206 C3205 1.287 . S
C3206 C3207 1.524 . S
C3206 H3225 0.913 . S
C3207 H3183 0.950 . S
C3207 C3206 1.524 . S
C3207 C3208 1.415 . S
C3208 H3184 0.950 . S
C3208 C3203 1.363 . S
C3208 C3207 1.415 . S
C3209 H3185 0.951 . S
C3209 C3210 1.366 . S
C3209 C3211 1.388 . S
C3210 C3209 1.366 . S
C3210 C3214 1.385 . S
C3211 H3186 0.951 . S
C3211 C3209 1.388 . S
C3211 C3212 1.366 . S
C3212 C3211 1.366 . S
C3212 C3213 1.414 . S
C3212 C3215 1.499 . S
C3213 H3187 0.950 . S
C3213 C3212 1.414 . S
C3213 C3214 1.374 . S
C3214 H3188 0.950 . S
C3214 C3210 1.385 . S
C3214 C3213 1.374 . S
C3215 C3212 1.499 . S
C3215 C3216 1.373 . S
C3215 C3217 1.389 . S
C3216 H3189 0.950 . S
C3216 C3202 1.377 . S
C3216 C3215 1.373 . S
C3217 C3201 1.377 . S
C3217 C3215 1.389 . S
C3217 C3218 1.524 . S
C3218 C3217 1.524 . S
C3218 C3219 1.397 . S
C3218 C3223 1.363 . S
C3219 H3190 0.950 . S
C3219 C3218 1.397 . S
C3219 C3220 1.334 . S
C3220 H3191 0.950 . S
C3220 C3219 1.334 . S
C3220 C3221 1.287 . S
C3221 C3220 1.287 . S
C3221 C3222 1.524 . S
C3221 H3224 0.999 . S
C3222 H3192 0.950 . S
C3222 C3221 1.524 . S
C3222 C3223 1.415 . S
C3223 H3193 0.950 . S
C3223 C3218 1.363 . S
C3223 C3222 1.415 . S
H3224 C3221 0.999 . S
H3225 C3206 0.913 . S
H3226 C3244 0.951 . S
H3227 C3246 0.951 . S
H3228 C3248 0.950 . S
H3229 C3249 0.950 . S
H3230 C3251 0.950 . S
H3231 C3254 0.950 . S
H3232 C3255 0.950 . S
H3233 C3257 0.950 1_565 S
H3234 C3258 0.950 . S
H3235 C3259 0.951 . S
H3236 C3261 0.951 . S
H3237 C3263 0.934 1_565 S
H3238 C3264 0.950 . S
H3239 C3266 0.950 . S
H3240 C3269 0.950 . S
H3241 C3270 0.950 . S
H3242 C3272 0.950 . S
H3243 C3273 0.937 1_545 S
C3244 H3226 0.951 . S
C3244 C3245 1.366 . S
C3244 C3246 1.388 . S
C3245 C3244 1.366 . S
C3245 C3249 1.385 . S
C3246 H3227 0.951 . S
C3246 C3244 1.388 . S
C3246 C3247 1.366 . S
C3247 C3246 1.366 . S
C3247 C3248 1.414 . S
C3247 C3250 1.499 . S
C3248 H3228 0.950 . S
C3248 C3247 1.414 . S
C3248 C3249 1.374 . S
C3249 H3229 0.950 . S
C3249 C3245 1.385 . S
C3249 C3248 1.374 . S
C3250 C3247 1.499 . S
C3250 C3251 1.373 . S
C3250 C3252 1.389 . S
C3251 H3230 0.950 . S
C3251 C3250 1.373 . S
C3251 C3267 1.377 . S
C3252 C3250 1.389 . S
C3252 C3253 1.524 1_565 S
C3252 C3266 1.377 1_565 S
C3253 C3252 1.524 1_545 S
C3253 C3254 1.397 . S
C3253 C3258 1.363 1_545 S
C3254 H3231 0.950 . S
C3254 C3253 1.397 . S
C3254 C3255 1.334 . S
C3255 H3232 0.950 . S
C3255 C3254 1.334 . S
C3255 C3256 1.287 . S
C3256 C3255 1.287 . S
C3256 C3257 1.524 . S
C3256 H3275 0.913 . S
C3257 H3233 0.950 1_545 S
C3257 C3256 1.524 . S
C3257 C3258 1.415 1_545 S
C3258 H3234 0.950 . S
C3258 C3253 1.363 1_565 S
C3258 C3257 1.415 1_565 S
C3259 H3235 0.951 . S
C3259 C3260 1.366 . S
C3259 C3261 1.388 . S
C3260 C3259 1.366 . S
C3260 C3264 1.385 . S
C3261 H3236 0.951 . S
C3261 C3259 1.388 . S
C3261 C3262 1.366 . S
C3262 C3261 1.366 . S
C3262 C3263 1.416 . S
C3262 C3265 1.477 1_545 S
C3263 H3237 0.934 1_545 S
C3263 C3262 1.416 . S
C3263 C3264 1.389 . S
C3264 H3238 0.950 . S
C3264 C3260 1.385 . S
C3264 C3263 1.389 . S
C3265 C3262 1.477 1_565 S
C3265 C3266 1.374 1_565 S
C3265 C3267 1.409 . S
C3266 H3239 0.950 . S
C3266 C3252 1.377 1_545 S
C3266 C3265 1.374 1_545 S
C3267 C3251 1.377 . S
C3267 C3265 1.409 . S
C3267 C3268 1.524 . S
C3268 C3267 1.524 . S
C3268 C3269 1.397 . S
C3268 C3273 1.363 . S
C3269 H3240 0.950 . S
C3269 C3268 1.397 . S
C3269 C3270 1.334 . S
C3270 H3241 0.950 . S
C3270 C3269 1.334 . S
C3270 C3271 1.287 . S
C3271 C3270 1.287 . S
C3271 C3272 1.524 . S
C3271 H3274 0.999 . S
C3272 H3242 0.950 . S
C3272 C3271 1.524 . S
C3272 C3273 1.415 . S
C3273 H3243 0.937 1_565 S
C3273 C3268 1.363 . S
C3273 C3272 1.415 . S
H3274 C3271 0.999 . S
H3275 C3256 0.913 . S
H3276 C3294 0.951 . S
H3277 C3296 0.951 . S
H3278 C3298 0.950 . S
H3279 C3299 0.950 . S
H3280 C3301 0.950 . S
H3281 C3304 0.950 . S
H3282 C3305 0.950 . S
H3283 C3307 0.950 . S
H3284 C3308 0.950 . S
H3285 C3309 0.951 . S
H3286 C3311 0.951 . S
H3287 C3313 0.950 . S
H3288 C3314 0.950 . S
H3289 C3316 0.950 . S
H3290 C3319 0.950 . S
H3291 C3320 0.950 . S
H3292 C3322 0.950 . S
H3293 C3323 0.950 . S
C3294 H3276 0.951 . S
C3294 C3295 1.366 . S
C3294 C3296 1.388 . S
C3295 C3294 1.366 . S
C3295 C3299 1.385 . S
C3296 H3277 0.951 . S
C3296 C3294 1.388 . S
C3296 C3297 1.366 . S
C3297 C3296 1.366 . S
C3297 C3298 1.414 . S
C3297 C3300 1.499 . S
C3298 H3278 0.950 . S
C3298 C3297 1.414 . S
C3298 C3299 1.374 . S
C3299 H3279 0.950 . S
C3299 C3295 1.385 . S
C3299 C3298 1.374 . S
C3300 C3297 1.499 . S
C3300 C3301 1.373 . S
C3300 C3302 1.389 . S
C3301 H3280 0.950 . S
C3301 C3300 1.373 . S
C3301 C3317 1.377 . S
C3302 C3300 1.389 . S
C3302 C3303 1.524 . S
C3302 C3316 1.377 . S
C3303 C3302 1.524 . S
C3303 C3304 1.397 . S
C3303 C3308 1.363 . S
C3304 H3281 0.950 . S
C3304 C3303 1.397 . S
C3304 C3305 1.334 . S
C3305 H3282 0.950 . S
C3305 C3304 1.334 . S
C3305 C3306 1.287 . S
C3306 C3305 1.287 . S
C3306 C3307 1.524 . S
C3306 H3325 0.913 . S
C3307 H3283 0.950 . S
C3307 C3306 1.524 . S
C3307 C3308 1.415 . S
C3308 H3284 0.950 . S
C3308 C3303 1.363 . S
C3308 C3307 1.415 . S
C3309 H3285 0.951 . S
C3309 C3310 1.366 . S
C3309 C3311 1.388 . S
C3310 C3309 1.366 . S
C3310 C3314 1.385 . S
C3311 H3286 0.951 . S
C3311 C3309 1.388 . S
C3311 C3312 1.366 . S
C3312 C3311 1.366 . S
C3312 C3313 1.414 . S
C3312 C3315 1.499 . S
C3313 H3287 0.950 . S
C3313 C3312 1.414 . S
C3313 C3314 1.374 . S
C3314 H3288 0.950 . S
C3314 C3310 1.385 . S
C3314 C3313 1.374 . S
C3315 C3312 1.499 . S
C3315 C3316 1.373 . S
C3315 C3317 1.389 . S
C3316 H3289 0.950 . S
C3316 C3302 1.377 . S
C3316 C3315 1.373 . S
C3317 C3301 1.377 . S
C3317 C3315 1.389 . S
C3317 C3318 1.524 . S
C3318 C3317 1.524 . S
C3318 C3319 1.397 . S
C3318 C3323 1.363 . S
C3319 H3290 0.950 . S
C3319 C3318 1.397 . S
C3319 C3320 1.334 . S
C3320 H3291 0.950 . S
C3320 C3319 1.334 . S
C3320 C3321 1.287 . S
C3321 C3320 1.287 . S
C3321 C3322 1.524 . S
C3321 H3324 0.999 . S
C3322 H3292 0.950 . S
C3322 C3321 1.524 . S
C3322 C3323 1.415 . S
C3323 H3293 0.950 . S
C3323 C3318 1.363 . S
C3323 C3322 1.415 . S
H3324 C3321 0.999 . S
H3325 C3306 0.913 . S
H3326 C3344 0.951 . S
H3327 C3346 0.951 . S
H3328 C3348 0.950 . S
H3329 C3349 0.950 . S
H3330 C3351 0.950 . S
H3331 C3354 0.950 . S
H3332 C3355 0.950 . S
H3333 C3357 0.950 . S
H3334 C3358 0.950 . S
H3335 C3359 0.951 . S
H3336 C3361 0.951 . S
H3337 C3363 0.950 . S
H3338 C3364 0.950 . S
H3339 C3366 0.950 . S
H3340 C3369 0.950 . S
H3341 C3370 0.950 . S
H3342 C3372 0.950 . S
H3343 C3373 0.950 . S
C3344 H3326 0.951 . S
C3344 C3345 1.366 . S
C3344 C3346 1.388 . S
C3345 C3344 1.366 . S
C3345 C3349 1.385 . S
C3346 H3327 0.951 . S
C3346 C3344 1.388 . S
C3346 C3347 1.366 . S
C3347 C3346 1.366 . S
C3347 C3348 1.414 . S
C3347 C3350 1.499 . S
C3348 H3328 0.950 . S
C3348 C3347 1.414 . S
C3348 C3349 1.374 . S
C3349 H3329 0.950 . S
C3349 C3345 1.385 . S
C3349 C3348 1.374 . S
C3350 C3347 1.499 . S
C3350 C3351 1.373 . S
C3350 C3352 1.389 . S
C3351 H3330 0.950 . S
C3351 C3350 1.373 . S
C3351 C3367 1.377 . S
C3352 C3350 1.389 . S
C3352 C3353 1.524 . S
C3352 C3366 1.377 . S
C3353 C3352 1.524 . S
C3353 C3354 1.397 . S
C3353 C3358 1.363 . S
C3354 H3331 0.950 . S
C3354 C3353 1.397 . S
C3354 C3355 1.334 . S
C3355 H3332 0.950 . S
C3355 C3354 1.334 . S
C3355 C3356 1.287 . S
C3356 C3355 1.287 . S
C3356 C3357 1.524 . S
C3356 H3375 0.913 . S
C3357 H3333 0.950 . S
C3357 C3356 1.524 . S
C3357 C3358 1.415 . S
C3358 H3334 0.950 . S
C3358 C3353 1.363 . S
C3358 C3357 1.415 . S
C3359 H3335 0.951 . S
C3359 C3360 1.366 . S
C3359 C3361 1.388 . S
C3360 C3359 1.366 . S
C3360 C3364 1.385 . S
C3361 H3336 0.951 . S
C3361 C3359 1.388 . S
C3361 C3362 1.366 . S
C3362 C3361 1.366 . S
C3362 C3363 1.414 . S
C3362 C3365 1.499 . S
C3363 H3337 0.950 . S
C3363 C3362 1.414 . S
C3363 C3364 1.374 . S
C3364 H3338 0.950 . S
C3364 C3360 1.385 . S
C3364 C3363 1.374 . S
C3365 C3362 1.499 . S
C3365 C3366 1.373 . S
C3365 C3367 1.389 . S
C3366 H3339 0.950 . S
C3366 C3352 1.377 . S
C3366 C3365 1.373 . S
C3367 C3351 1.377 . S
C3367 C3365 1.389 . S
C3367 C3368 1.524 . S
C3368 C3367 1.524 . S
C3368 C3369 1.397 . S
C3368 C3373 1.363 . S
C3369 H3340 0.950 . S
C3369 C3368 1.397 . S
C3369 C3370 1.334 . S
C3370 H3341 0.950 . S
C3370 C3369 1.334 . S
C3370 C3371 1.287 . S
C3371 C3370 1.287 . S
C3371 C3372 1.524 . S
C3371 H3374 0.999 . S
C3372 H3342 0.950 . S
C3372 C3371 1.524 . S
C3372 C3373 1.415 . S
C3373 H3343 0.950 . S
C3373 C3368 1.363 . S
C3373 C3372 1.415 . S
H3374 C3371 0.999 . S
H3375 C3356 0.913 . S
H3376 C3394 0.951 . S
H3377 C3396 0.951 . S
H3378 C3398 0.950 . S
H3379 C3399 0.950 . S
H3380 C3401 0.950 . S
H3381 C3404 0.950 . S
H3382 C3405 0.950 . S
H3383 C3407 0.950 . S
H3384 C3408 0.950 . S
H3385 C3409 0.951 . S
H3386 C3411 0.951 . S
H3387 C3413 0.950 . S
H3388 C3414 0.950 . S
H3389 C3416 0.950 . S
H3390 C3419 0.950 . S
H3391 C3420 0.950 . S
H3392 C3422 0.950 . S
H3393 C3423 0.950 . S
C3394 H3376 0.951 . S
C3394 C3395 1.366 . S
C3394 C3396 1.388 . S
C3395 C3394 1.366 . S
C3395 C3399 1.385 . S
C3396 H3377 0.951 . S
C3396 C3394 1.388 . S
C3396 C3397 1.366 . S
C3397 C3396 1.366 . S
C3397 C3398 1.414 . S
C3397 C3400 1.499 . S
C3398 H3378 0.950 . S
C3398 C3397 1.414 . S
C3398 C3399 1.374 . S
C3399 H3379 0.950 . S
C3399 C3395 1.385 . S
C3399 C3398 1.374 . S
C3400 C3397 1.499 . S
C3400 C3401 1.373 . S
C3400 C3402 1.389 . S
C3401 H3380 0.950 . S
C3401 C3400 1.373 . S
C3401 C3417 1.377 . S
C3402 C3400 1.389 . S
C3402 C3403 1.524 . S
C3402 C3416 1.377 . S
C3403 C3402 1.524 . S
C3403 C3404 1.397 . S
C3403 C3408 1.363 . S
C3404 H3381 0.950 . S
C3404 C3403 1.397 . S
C3404 C3405 1.334 . S
C3405 H3382 0.950 . S
C3405 C3404 1.334 . S
C3405 C3406 1.287 . S
C3406 C3405 1.287 . S
C3406 C3407 1.524 . S
C3406 H3425 0.913 . S
C3407 H3383 0.950 . S
C3407 C3406 1.524 . S
C3407 C3408 1.415 . S
C3408 H3384 0.950 . S
C3408 C3403 1.363 . S
C3408 C3407 1.415 . S
C3409 H3385 0.951 . S
C3409 C3410 1.366 . S
C3409 C3411 1.388 . S
C3410 C3409 1.366 . S
C3410 C3414 1.385 . S
C3411 H3386 0.951 . S
C3411 C3409 1.388 . S
C3411 C3412 1.366 . S
C3412 C3411 1.366 . S
C3412 C3413 1.414 . S
C3412 C3415 1.499 . S
C3413 H3387 0.950 . S
C3413 C3412 1.414 . S
C3413 C3414 1.374 . S
C3414 H3388 0.950 . S
C3414 C3410 1.385 . S
C3414 C3413 1.374 . S
C3415 C3412 1.499 . S
C3415 C3416 1.373 . S
C3415 C3417 1.389 . S
C3416 H3389 0.950 . S
C3416 C3402 1.377 . S
C3416 C3415 1.373 . S
C3417 C3401 1.377 . S
C3417 C3415 1.389 . S
C3417 C3418 1.524 . S
C3418 C3417 1.524 . S
C3418 C3419 1.397 . S
C3418 C3423 1.363 . S
C3419 H3390 0.950 . S
C3419 C3418 1.397 . S
C3419 C3420 1.334 . S
C3420 H3391 0.950 . S
C3420 C3419 1.334 . S
C3420 C3421 1.287 . S
C3421 C3420 1.287 . S
C3421 C3422 1.524 . S
C3421 H3424 0.999 . S
C3422 H3392 0.950 . S
C3422 C3421 1.524 . S
C3422 C3423 1.415 . S
C3423 H3393 0.950 . S
C3423 C3418 1.363 . S
C3423 C3422 1.415 . S
H3424 C3421 0.999 . S
H3425 C3406 0.913 . S
H3426 C3444 0.951 . S
H3427 C3446 0.951 . S
H3428 C3448 0.950 . S
H3429 C3449 0.950 . S
H3430 C3451 0.950 . S
H3431 C3454 0.950 . S
H3432 C3455 0.950 . S
H3433 C3457 0.950 . S
H3434 C3458 0.950 . S
H3435 C3459 0.951 . S
H3436 C3461 0.951 . S
H3437 C3463 0.950 . S
H3438 C3464 0.950 . S
H3439 C3466 0.950 . S
H3440 C3469 0.950 . S
H3441 C3470 0.950 . S
H3442 C3472 0.950 . S
H3443 C3473 0.950 . S
C3444 H3426 0.951 . S
C3444 C3445 1.366 . S
C3444 C3446 1.388 . S
C3445 C3444 1.366 . S
C3445 C3449 1.385 . S
C3446 H3427 0.951 . S
C3446 C3444 1.388 . S
C3446 C3447 1.366 . S
C3447 C3446 1.366 . S
C3447 C3448 1.414 . S
C3447 C3450 1.499 . S
C3448 H3428 0.950 . S
C3448 C3447 1.414 . S
C3448 C3449 1.374 . S
C3449 H3429 0.950 . S
C3449 C3445 1.385 . S
C3449 C3448 1.374 . S
C3450 C3447 1.499 . S
C3450 C3451 1.373 . S
C3450 C3452 1.389 . S
C3451 H3430 0.950 . S
C3451 C3450 1.373 . S
C3451 C3467 1.377 . S
C3452 C3450 1.389 . S
C3452 C3453 1.524 . S
C3452 C3466 1.377 . S
C3453 C3452 1.524 . S
C3453 C3454 1.397 . S
C3453 C3458 1.363 . S
C3454 H3431 0.950 . S
C3454 C3453 1.397 . S
C3454 C3455 1.334 . S
C3455 H3432 0.950 . S
C3455 C3454 1.334 . S
C3455 C3456 1.287 . S
C3456 C3455 1.287 . S
C3456 C3457 1.524 . S
C3456 H3475 0.913 . S
C3457 H3433 0.950 . S
C3457 C3456 1.524 . S
C3457 C3458 1.415 . S
C3458 H3434 0.950 . S
C3458 C3453 1.363 . S
C3458 C3457 1.415 . S
C3459 H3435 0.951 . S
C3459 C3460 1.366 . S
C3459 C3461 1.388 . S
C3460 C3459 1.366 . S
C3460 C3464 1.385 . S
C3461 H3436 0.951 . S
C3461 C3459 1.388 . S
C3461 C3462 1.366 . S
C3462 C3461 1.366 . S
C3462 C3463 1.414 . S
C3462 C3465 1.499 . S
C3463 H3437 0.950 . S
C3463 C3462 1.414 . S
C3463 C3464 1.374 . S
C3464 H3438 0.950 . S
C3464 C3460 1.385 . S
C3464 C3463 1.374 . S
C3465 C3462 1.499 . S
C3465 C3466 1.373 . S
C3465 C3467 1.389 . S
C3466 H3439 0.950 . S
C3466 C3452 1.377 . S
C3466 C3465 1.373 . S
C3467 C3451 1.377 . S
C3467 C3465 1.389 . S
C3467 C3468 1.524 . S
C3468 C3467 1.524 . S
C3468 C3469 1.397 . S
C3468 C3473 1.363 . S
C3469 H3440 0.950 . S
C3469 C3468 1.397 . S
C3469 C3470 1.334 . S
C3470 H3441 0.950 . S
C3470 C3469 1.334 . S
C3470 C3471 1.287 . S
C3471 C3470 1.287 . S
C3471 C3472 1.524 . S
C3471 H3474 0.999 . S
C3472 H3442 0.950 . S
C3472 C3471 1.524 . S
C3472 C3473 1.415 . S
C3473 H3443 0.950 . S
C3473 C3468 1.363 . S
C3473 C3472 1.415 . S
H3474 C3471 0.999 . S
H3475 C3456 0.913 . S
H3476 C3494 0.951 . S
H3477 C3496 0.951 . S
H3478 C3498 0.950 . S
H3479 C3499 0.950 . S
H3480 C3501 0.950 . S
H3481 C3504 0.947 1_455 S
H3482 C3505 0.950 . S
H3483 C3507 0.950 . S
H3484 C3508 0.950 1_554 S
H3485 C3509 0.951 . S
H3486 C3511 0.951 1_556 S
H3487 C3513 0.950 . S
H3488 C3514 0.950 . S
H3489 C3516 0.950 1_554 S
H3490 C3519 0.950 . S
H3491 C3520 0.950 . S
H3492 C3522 0.950 . S
H3493 C3523 0.950 . S
C3494 H3476 0.951 . S
C3494 C3495 1.366 . S
C3494 C3496 1.388 . S
C3495 C3494 1.366 . S
C3495 C3499 1.385 . S
C3496 H3477 0.951 . S
C3496 C3494 1.388 . S
C3496 C3497 1.366 . S
C3497 C3496 1.366 . S
C3497 C3498 1.414 . S
C3497 C3500 1.499 . S
C3498 H3478 0.950 . S
C3498 C3497 1.414 . S
C3498 C3499 1.374 . S
C3499 H3479 0.950 . S
C3499 C3495 1.385 . S
C3499 C3498 1.374 . S
C3500 C3497 1.499 . S
C3500 C3501 1.373 . S
C3500 C3502 1.389 . S
C3501 H3480 0.950 . S
C3501 C3500 1.373 . S
C3501 C3517 1.377 . S
C3502 C3500 1.389 . S
C3502 C3503 1.524 . S
C3502 C3516 1.377 . S
C3503 C3502 1.524 . S
C3503 C3504 1.395 1_455 S
C3503 C3508 1.363 . S
C3504 H3481 0.947 1_655 S
C3504 C3503 1.395 1_655 S
C3504 C3505 1.339 . S
C3505 H3482 0.950 . S
C3505 C3504 1.339 . S
C3505 C3506 1.287 . S
C3506 C3505 1.287 . S
C3506 C3507 1.524 . S
C3506 H3525 0.913 . S
C3507 H3483 0.950 . S
C3507 C3506 1.524 . S
C3507 C3508 1.415 1_655 S
C3508 H3484 0.950 1_556 S
C3508 C3503 1.363 . S
C3508 C3507 1.415 1_455 S
C3509 H3485 0.951 . S
C3509 C3510 1.366 . S
C3509 C3511 1.388 . S
C3510 C3509 1.366 . S
C3510 C3514 1.385 . S
C3511 H3486 0.951 1_554 S
C3511 C3509 1.388 . S
C3511 C3512 1.366 . S
C3512 C3511 1.366 . S
C3512 C3513 1.414 . S
C3512 C3515 1.498 1_554 S
C3513 H3487 0.950 . S
C3513 C3512 1.414 . S
C3513 C3514 1.374 . S
C3514 H3488 0.950 . S
C3514 C3510 1.385 . S
C3514 C3513 1.374 . S
C3515 C3512 1.498 1_556 S
C3515 C3516 1.373 . S
C3515 C3517 1.391 . S
C3516 H3489 0.950 1_556 S
C3516 C3502 1.377 . S
C3516 C3515 1.373 . S
C3517 C3501 1.377 . S
C3517 C3515 1.391 . S
C3517 C3518 1.524 . S
C3518 C3517 1.524 . S
C3518 C3519 1.397 1_556 S
C3518 C3523 1.363 . S
C3519 H3490 0.950 . S
C3519 C3518 1.397 1_554 S
C3519 C3520 1.334 . S
C3520 H3491 0.950 . S
C3520 C3519 1.334 . S
C3520 C3521 1.287 . S
C3521 C3520 1.287 . S
C3521 C3522 1.524 1_554 S
C3521 H3524 0.999 . S
C3522 H3492 0.950 . S
C3522 C3521 1.524 1_556 S
C3522 C3523 1.415 . S
C3523 H3493 0.950 . S
C3523 C3518 1.363 . S
C3523 C3522 1.415 . S
H3524 C3521 0.999 . S
H3525 C3506 0.913 . S
H3526 C3544 0.951 . S
H3527 C3546 0.951 . S
H3528 C3548 0.950 . S
H3529 C3549 0.950 . S
H3530 C3551 0.950 . S
H3531 C3554 0.950 . S
H3532 C3555 0.950 . S
H3533 C3557 0.950 . S
H3534 C3558 0.950 . S
H3535 C3559 0.951 . S
H3536 C3561 0.951 . S
H3537 C3563 0.950 . S
H3538 C3564 0.950 . S
H3539 C3566 0.950 . S
H3540 C3569 0.950 . S
H3541 C3570 0.950 . S
H3542 C3572 0.950 . S
H3543 C3573 0.950 . S
C3544 H3526 0.951 . S
C3544 C3545 1.366 . S
C3544 C3546 1.388 . S
C3545 C3544 1.366 . S
C3545 C3549 1.385 . S
C3546 H3527 0.951 . S
C3546 C3544 1.388 . S
C3546 C3547 1.366 . S
C3547 C3546 1.366 . S
C3547 C3548 1.414 . S
C3547 C3550 1.499 . S
C3548 H3528 0.950 . S
C3548 C3547 1.414 . S
C3548 C3549 1.374 . S
C3549 H3529 0.950 . S
C3549 C3545 1.385 . S
C3549 C3548 1.374 . S
C3550 C3547 1.499 . S
C3550 C3551 1.373 . S
C3550 C3552 1.389 . S
C3551 H3530 0.950 . S
C3551 C3550 1.373 . S
C3551 C3567 1.377 . S
C3552 C3550 1.389 . S
C3552 C3553 1.524 . S
C3552 C3566 1.377 . S
C3553 C3552 1.524 . S
C3553 C3554 1.397 . S
C3553 C3558 1.363 . S
C3554 H3531 0.950 . S
C3554 C3553 1.397 . S
C3554 C3555 1.334 . S
C3555 H3532 0.950 . S
C3555 C3554 1.334 . S
C3555 C3556 1.287 . S
C3556 C3555 1.287 . S
C3556 C3557 1.524 . S
C3556 H3575 0.913 . S
C3557 H3533 0.950 . S
C3557 C3556 1.524 . S
C3557 C3558 1.415 . S
C3558 H3534 0.950 . S
C3558 C3553 1.363 . S
C3558 C3557 1.415 . S
C3559 H3535 0.951 . S
C3559 C3560 1.366 . S
C3559 C3561 1.388 . S
C3560 C3559 1.366 . S
C3560 C3564 1.385 . S
C3561 H3536 0.951 . S
C3561 C3559 1.388 . S
C3561 C3562 1.366 . S
C3562 C3561 1.366 . S
C3562 C3563 1.414 . S
C3562 C3565 1.499 . S
C3563 H3537 0.950 . S
C3563 C3562 1.414 . S
C3563 C3564 1.374 . S
C3564 H3538 0.950 . S
C3564 C3560 1.385 . S
C3564 C3563 1.374 . S
C3565 C3562 1.499 . S
C3565 C3566 1.373 . S
C3565 C3567 1.389 . S
C3566 H3539 0.950 . S
C3566 C3552 1.377 . S
C3566 C3565 1.373 . S
C3567 C3551 1.377 . S
C3567 C3565 1.389 . S
C3567 C3568 1.524 . S
C3568 C3567 1.524 . S
C3568 C3569 1.397 . S
C3568 C3573 1.363 . S
C3569 H3540 0.950 . S
C3569 C3568 1.397 . S
C3569 C3570 1.334 . S
C3570 H3541 0.950 . S
C3570 C3569 1.334 . S
C3570 C3571 1.287 . S
C3571 C3570 1.287 . S
C3571 C3572 1.524 . S
C3571 H3574 0.999 . S
C3572 H3542 0.950 . S
C3572 C3571 1.524 . S
C3572 C3573 1.415 . S
C3573 H3543 0.950 . S
C3573 C3568 1.363 . S
C3573 C3572 1.415 . S
H3574 C3571 0.999 . S
H3575 C3556 0.913 . S
H3576 C3594 0.951 . S
H3577 C3596 0.951 . S
H3578 C3598 0.950 . S
H3579 C3599 0.950 . S
H3580 C3601 0.950 . S
H3581 C3604 0.950 . S
H3582 C3605 0.950 . S
H3583 C3607 0.950 . S
H3584 C3608 0.950 . S
H3585 C3609 0.951 . S
H3586 C3611 0.951 . S
H3587 C3613 0.950 . S
H3588 C3614 0.950 . S
H3589 C3616 0.950 . S
H3590 C3619 0.950 . S
H3591 C3620 0.950 . S
H3592 C3622 0.950 . S
H3593 C3623 0.950 . S
C3594 H3576 0.951 . S
C3594 C3595 1.366 . S
C3594 C3596 1.388 . S
C3595 C3594 1.366 . S
C3595 C3599 1.385 . S
C3596 H3577 0.951 . S
C3596 C3594 1.388 . S
C3596 C3597 1.366 . S
C3597 C3596 1.366 . S
C3597 C3598 1.414 . S
C3597 C3600 1.499 . S
C3598 H3578 0.950 . S
C3598 C3597 1.414 . S
C3598 C3599 1.374 . S
C3599 H3579 0.950 . S
C3599 C3595 1.385 . S
C3599 C3598 1.374 . S
C3600 C3597 1.499 . S
C3600 C3601 1.373 . S
C3600 C3602 1.389 . S
C3601 H3580 0.950 . S
C3601 C3600 1.373 . S
C3601 C3617 1.377 . S
C3602 C3600 1.389 . S
C3602 C3603 1.524 . S
C3602 C3616 1.377 . S
C3603 C3602 1.524 . S
C3603 C3604 1.397 . S
C3603 C3608 1.363 . S
C3604 H3581 0.950 . S
C3604 C3603 1.397 . S
C3604 C3605 1.334 . S
C3605 H3582 0.950 . S
C3605 C3604 1.334 . S
C3605 C3606 1.287 . S
C3606 C3605 1.287 . S
C3606 C3607 1.524 . S
C3606 H3625 0.913 . S
C3607 H3583 0.950 . S
C3607 C3606 1.524 . S
C3607 C3608 1.415 . S
C3608 H3584 0.950 . S
C3608 C3603 1.363 . S
C3608 C3607 1.415 . S
C3609 H3585 0.951 . S
C3609 C3610 1.366 . S
C3609 C3611 1.388 . S
C3610 C3609 1.366 . S
C3610 C3614 1.385 . S
C3611 H3586 0.951 . S
C3611 C3609 1.388 . S
C3611 C3612 1.366 . S
C3612 C3611 1.366 . S
C3612 C3613 1.414 . S
C3612 C3615 1.499 . S
C3613 H3587 0.950 . S
C3613 C3612 1.414 . S
C3613 C3614 1.374 . S
C3614 H3588 0.950 . S
C3614 C3610 1.385 . S
C3614 C3613 1.374 . S
C3615 C3612 1.499 . S
C3615 C3616 1.373 . S
C3615 C3617 1.389 . S
C3616 H3589 0.950 . S
C3616 C3602 1.377 . S
C3616 C3615 1.373 . S
C3617 C3601 1.377 . S
C3617 C3615 1.389 . S
C3617 C3618 1.524 . S
C3618 C3617 1.524 . S
C3618 C3619 1.397 . S
C3618 C3623 1.363 . S
C3619 H3590 0.950 . S
C3619 C3618 1.397 . S
C3619 C3620 1.334 . S
C3620 H3591 0.950 . S
C3620 C3619 1.334 . S
C3620 C3621 1.287 . S
C3621 C3620 1.287 . S
C3621 C3622 1.524 . S
C3621 H3624 0.999 . S
C3622 H3592 0.950 . S
C3622 C3621 1.524 . S
C3622 C3623 1.415 . S
C3623 H3593 0.950 . S
C3623 C3618 1.363 . S
C3623 C3622 1.415 . S
H3624 C3621 0.999 . S
H3625 C3606 0.913 . S
H3626 C3644 0.951 . S
H3627 C3646 0.951 . S
H3628 C3648 0.950 . S
H3629 C3649 0.950 . S
H3630 C3651 0.950 . S
H3631 C3654 0.930 . S
H3632 C3655 0.950 . S
H3633 C3657 0.955 . S
H3634 C3658 0.950 . S
H3635 C3659 0.951 . S
H3636 C3661 0.951 . S
H3637 C3663 0.950 . S
H3638 C3664 0.950 . S
H3639 C3666 0.950 . S
H3640 C3669 0.950 . S
H3641 C3670 0.950 . S
H3642 C3672 0.950 . S
H3643 C3673 0.950 . S
C3644 H3626 0.951 . S
C3644 C3645 1.366 . S
C3644 C3646 1.388 1_455 S
C3645 C3644 1.366 . S
C3645 C3649 1.385 . S
C3646 H3627 0.951 . S
C3646 C3644 1.388 1_655 S
C3646 C3647 1.366 . S
C3647 C3646 1.366 . S
C3647 C3648 1.414 . S
C3647 C3650 1.499 . S
C3648 H3628 0.950 . S
C3648 C3647 1.414 . S
C3648 C3649 1.374 1_655 S
C3649 H3629 0.950 . S
C3649 C3645 1.385 . S
C3649 C3648 1.374 1_455 S
C3650 C3647 1.499 . S
C3650 C3651 1.373 . S
C3650 C3652 1.389 . S
C3651 H3630 0.950 . S
C3651 C3650 1.373 . S
C3651 C3667 1.377 . S
C3652 C3650 1.389 . S
C3652 C3653 1.524 . S
C3652 C3666 1.377 . S
C3653 C3652 1.524 . S
C3653 C3654 1.398 . S
C3653 C3658 1.363 . S
C3654 H3631 0.930 . S
C3654 C3653 1.398 . S
C3654 C3655 1.332 1_655 S
C3655 H3632 0.950 . S
C3655 C3654 1.332 1_455 S
C3655 C3656 1.287 . S
C3656 C3655 1.287 . S
C3656 C3657 1.532 . S
C3656 H3675 0.913 . S
C3657 H3633 0.955 . S
C3657 C3656 1.532 . S
C3657 C3658 1.401 1_455 S
C3658 H3634 0.950 . S
C3658 C3653 1.363 . S
C3658 C3657 1.401 1_655 S
C3659 H3635 0.951 . S
C3659 C3660 1.366 . S
C3659 C3661 1.388 . S
C3660 C3659 1.366 . S
C3660 C3664 1.385 . S
C3661 H3636 0.951 . S
C3661 C3659 1.388 . S
C3661 C3662 1.366 . S
C3662 C3661 1.366 . S
C3662 C3663 1.414 . S
C3662 C3665 1.499 . S
C3663 H3637 0.950 . S
C3663 C3662 1.414 . S
C3663 C3664 1.374 . S
C3664 H3638 0.950 . S
C3664 C3660 1.385 . S
C3664 C3663 1.374 . S
C3665 C3662 1.499 . S
C3665 C3666 1.373 . S
C3665 C3667 1.389 . S
C3666 H3639 0.950 . S
C3666 C3652 1.377 . S
C3666 C3665 1.373 . S
C3667 C3651 1.377 . S
C3667 C3665 1.389 . S
C3667 C3668 1.524 . S
C3668 C3667 1.524 . S
C3668 C3669 1.397 . S
C3668 C3673 1.363 . S
C3669 H3640 0.950 . S
C3669 C3668 1.397 . S
C3669 C3670 1.334 . S
C3670 H3641 0.950 . S
C3670 C3669 1.334 . S
C3670 C3671 1.287 . S
C3671 C3670 1.287 . S
C3671 C3672 1.524 . S
C3671 H3674 0.999 . S
C3672 H3642 0.950 . S
C3672 C3671 1.524 . S
C3672 C3673 1.415 . S
C3673 H3643 0.950 . S
C3673 C3668 1.363 . S
C3673 C3672 1.415 . S
H3674 C3671 0.999 . S
H3675 C3656 0.913 . S
H3676 C3694 0.951 . S
H3677 C3696 0.951 . S
H3678 C3698 0.950 . S
H3679 C3699 0.950 . S
H3680 C3701 0.950 . S
H3681 C3704 0.950 . S
H3682 C3705 0.950 . S
H3683 C3707 0.950 . S
H3684 C3708 0.950 . S
H3685 C3709 0.951 . S
H3686 C3711 0.951 . S
H3687 C3713 0.950 . S
H3688 C3714 0.950 . S
H3689 C3716 0.950 . S
H3690 C3719 0.950 . S
H3691 C3720 0.950 . S
H3692 C3722 0.950 . S
H3693 C3723 0.950 . S
C3694 H3676 0.951 . S
C3694 C3695 1.366 . S
C3694 C3696 1.388 . S
C3695 C3694 1.366 . S
C3695 C3699 1.385 1_655 S
C3696 H3677 0.951 . S
C3696 C3694 1.388 . S
C3696 C3697 1.366 1_655 S
C3697 C3696 1.366 1_455 S
C3697 C3698 1.414 . S
C3697 C3700 1.499 . S
C3698 H3678 0.950 . S
C3698 C3697 1.414 . S
C3698 C3699 1.374 . S
C3699 H3679 0.950 . S
C3699 C3695 1.385 1_455 S
C3699 C3698 1.374 . S
C3700 C3697 1.499 . S
C3700 C3701 1.373 . S
C3700 C3702 1.389 1_455 S
C3701 H3680 0.950 . S
C3701 C3700 1.373 . S
C3701 C3717 1.377 . S
C3702 C3700 1.389 1_655 S
C3702 C3703 1.524 . S
C3702 C3716 1.377 . S
C3703 C3702 1.524 . S
C3703 C3704 1.397 . S
C3703 C3708 1.363 . S
C3704 H3681 0.950 . S
C3704 C3703 1.397 . S
C3704 C3705 1.334 . S
C3705 H3682 0.950 . S
C3705 C3704 1.334 . S
C3705 C3706 1.287 . S
C3706 C3705 1.287 . S
C3706 C3707 1.524 . S
C3706 H3725 0.913 . S
C3707 H3683 0.950 . S
C3707 C3706 1.524 . S
C3707 C3708 1.415 . S
C3708 H3684 0.950 . S
C3708 C3703 1.363 . S
C3708 C3707 1.415 . S
C3709 H3685 0.951 . S
C3709 C3710 1.366 . S
C3709 C3711 1.388 . S
C3710 C3709 1.366 . S
C3710 C3714 1.385 . S
C3711 H3686 0.951 . S
C3711 C3709 1.388 . S
C3711 C3712 1.366 . S
C3712 C3711 1.366 . S
C3712 C3713 1.414 . S
C3712 C3715 1.499 . S
C3713 H3687 0.950 . S
C3713 C3712 1.414 . S
C3713 C3714 1.374 . S
C3714 H3688 0.950 . S
C3714 C3710 1.385 . S
C3714 C3713 1.374 . S
C3715 C3712 1.499 . S
C3715 C3716 1.373 1_455 S
C3715 C3717 1.389 . S
C3716 H3689 0.950 . S
C3716 C3702 1.377 . S
C3716 C3715 1.373 1_655 S
C3717 C3701 1.377 . S
C3717 C3715 1.389 . S
C3717 C3718 1.524 . S
C3718 C3717 1.524 . S
C3718 C3719 1.397 . S
C3718 C3723 1.363 . S
C3719 H3690 0.950 . S
C3719 C3718 1.397 . S
C3719 C3720 1.334 . S
C3720 H3691 0.950 . S
C3720 C3719 1.334 . S
C3720 C3721 1.287 . S
C3721 C3720 1.287 . S
C3721 C3722 1.524 . S
C3721 H3724 0.999 . S
C3722 H3692 0.950 . S
C3722 C3721 1.524 . S
C3722 C3723 1.415 . S
C3723 H3693 0.950 . S
C3723 C3718 1.363 . S
C3723 C3722 1.415 . S
H3724 C3721 0.999 . S
H3725 C3706 0.913 . S
H3726 C3744 0.951 . S
H3727 C3746 0.951 . S
H3728 C3748 0.950 . S
H3729 C3749 0.950 . S
H3730 C3751 0.950 . S
H3731 C3754 0.950 . S
H3732 C3755 0.950 . S
H3733 C3757 0.950 . S
H3734 C3758 0.950 . S
H3735 C3759 0.951 . S
H3736 C3761 0.951 . S
H3737 C3763 0.950 . S
H3738 C3764 0.950 . S
H3739 C3766 0.950 . S
H3740 C3769 0.950 . S
H3741 C3770 0.950 . S
H3742 C3772 0.950 . S
H3743 C3773 0.950 . S
C3744 H3726 0.951 . S
C3744 C3745 1.366 . S
C3744 C3746 1.388 . S
C3745 C3744 1.366 . S
C3745 C3749 1.385 . S
C3746 H3727 0.951 . S
C3746 C3744 1.388 . S
C3746 C3747 1.366 . S
C3747 C3746 1.366 . S
C3747 C3748 1.414 . S
C3747 C3750 1.499 . S
C3748 H3728 0.950 . S
C3748 C3747 1.414 . S
C3748 C3749 1.374 . S
C3749 H3729 0.950 . S
C3749 C3745 1.385 . S
C3749 C3748 1.374 . S
C3750 C3747 1.499 . S
C3750 C3751 1.373 . S
C3750 C3752 1.389 . S
C3751 H3730 0.950 . S
C3751 C3750 1.373 . S
C3751 C3767 1.377 . S
C3752 C3750 1.389 . S
C3752 C3753 1.524 . S
C3752 C3766 1.377 . S
C3753 C3752 1.524 . S
C3753 C3754 1.397 . S
C3753 C3758 1.363 . S
C3754 H3731 0.950 . S
C3754 C3753 1.397 . S
C3754 C3755 1.334 . S
C3755 H3732 0.950 . S
C3755 C3754 1.334 . S
C3755 C3756 1.287 . S
C3756 C3755 1.287 . S
C3756 C3757 1.524 . S
C3756 H3775 0.913 . S
C3757 H3733 0.950 . S
C3757 C3756 1.524 . S
C3757 C3758 1.415 . S
C3758 H3734 0.950 . S
C3758 C3753 1.363 . S
C3758 C3757 1.415 . S
C3759 H3735 0.951 . S
C3759 C3760 1.366 . S
C3759 C3761 1.388 . S
C3760 C3759 1.366 . S
C3760 C3764 1.385 . S
C3761 H3736 0.951 . S
C3761 C3759 1.388 . S
C3761 C3762 1.366 . S
C3762 C3761 1.366 . S
C3762 C3763 1.414 . S
C3762 C3765 1.499 . S
C3763 H3737 0.950 . S
C3763 C3762 1.414 . S
C3763 C3764 1.374 . S
C3764 H3738 0.950 . S
C3764 C3760 1.385 . S
C3764 C3763 1.374 . S
C3765 C3762 1.499 . S
C3765 C3766 1.373 . S
C3765 C3767 1.389 . S
C3766 H3739 0.950 . S
C3766 C3752 1.377 . S
C3766 C3765 1.373 . S
C3767 C3751 1.377 . S
C3767 C3765 1.389 . S
C3767 C3768 1.524 . S
C3768 C3767 1.524 . S
C3768 C3769 1.397 . S
C3768 C3773 1.363 . S
C3769 H3740 0.950 . S
C3769 C3768 1.397 . S
C3769 C3770 1.334 . S
C3770 H3741 0.950 . S
C3770 C3769 1.334 . S
C3770 C3771 1.287 . S
C3771 C3770 1.287 . S
C3771 C3772 1.524 . S
C3771 H3774 0.999 . S
C3772 H3742 0.950 . S
C3772 C3771 1.524 . S
C3772 C3773 1.415 . S
C3773 H3743 0.950 . S
C3773 C3768 1.363 . S
C3773 C3772 1.415 . S
H3774 C3771 0.999 . S
H3775 C3756 0.913 . S
H3776 C3794 0.951 . S
H3777 C3796 0.951 . S
H3778 C3798 0.950 . S
H3779 C3799 0.950 . S
H3780 C3801 0.950 . S
H3781 C3804 0.950 . S
H3782 C3805 0.950 . S
H3783 C3807 0.950 . S
H3784 C3808 0.950 . S
H3785 C3809 0.951 . S
H3786 C3811 0.951 . S
H3787 C3813 0.950 . S
H3788 C3814 0.950 . S
H3789 C3816 0.950 . S
H3790 C3819 0.950 . S
H3791 C3820 0.950 . S
H3792 C3822 0.950 . S
H3793 C3823 0.950 . S
C3794 H3776 0.951 . S
C3794 C3795 1.366 . S
C3794 C3796 1.388 . S
C3795 C3794 1.366 . S
C3795 C3799 1.385 . S
C3796 H3777 0.951 . S
C3796 C3794 1.388 . S
C3796 C3797 1.366 . S
C3797 C3796 1.366 . S
C3797 C3798 1.414 . S
C3797 C3800 1.499 . S
C3798 H3778 0.950 . S
C3798 C3797 1.414 . S
C3798 C3799 1.374 . S
C3799 H3779 0.950 . S
C3799 C3795 1.385 . S
C3799 C3798 1.374 . S
C3800 C3797 1.499 . S
C3800 C3801 1.373 . S
C3800 C3802 1.389 . S
C3801 H3780 0.950 . S
C3801 C3800 1.373 . S
C3801 C3817 1.377 . S
C3802 C3800 1.389 . S
C3802 C3803 1.524 . S
C3802 C3816 1.377 . S
C3803 C3802 1.524 . S
C3803 C3804 1.397 . S
C3803 C3808 1.363 . S
C3804 H3781 0.950 . S
C3804 C3803 1.397 . S
C3804 C3805 1.334 . S
C3805 H3782 0.950 . S
C3805 C3804 1.334 . S
C3805 C3806 1.287 . S
C3806 C3805 1.287 . S
C3806 C3807 1.524 . S
C3806 H3825 0.913 . S
C3807 H3783 0.950 . S
C3807 C3806 1.524 . S
C3807 C3808 1.415 . S
C3808 H3784 0.950 . S
C3808 C3803 1.363 . S
C3808 C3807 1.415 . S
C3809 H3785 0.951 . S
C3809 C3810 1.366 . S
C3809 C3811 1.388 . S
C3810 C3809 1.366 . S
C3810 C3814 1.385 . S
C3811 H3786 0.951 . S
C3811 C3809 1.388 . S
C3811 C3812 1.366 . S
C3812 C3811 1.366 . S
C3812 C3813 1.414 . S
C3812 C3815 1.499 . S
C3813 H3787 0.950 . S
C3813 C3812 1.414 . S
C3813 C3814 1.374 . S
C3814 H3788 0.950 . S
C3814 C3810 1.385 . S
C3814 C3813 1.374 . S
C3815 C3812 1.499 . S
C3815 C3816 1.373 . S
C3815 C3817 1.389 . S
C3816 H3789 0.950 . S
C3816 C3802 1.377 . S
C3816 C3815 1.373 . S
C3817 C3801 1.377 . S
C3817 C3815 1.389 . S
C3817 C3818 1.524 . S
C3818 C3817 1.524 . S
C3818 C3819 1.397 . S
C3818 C3823 1.363 . S
C3819 H3790 0.950 . S
C3819 C3818 1.397 . S
C3819 C3820 1.334 . S
C3820 H3791 0.950 . S
C3820 C3819 1.334 . S
C3820 C3821 1.287 . S
C3821 C3820 1.287 . S
C3821 C3822 1.524 . S
C3821 H3824 0.999 . S
C3822 H3792 0.950 . S
C3822 C3821 1.524 . S
C3822 C3823 1.415 . S
C3823 H3793 0.950 . S
C3823 C3818 1.363 . S
C3823 C3822 1.415 . S
H3824 C3821 0.999 . S
H3825 C3806 0.913 . S
H3826 C3844 0.951 . S
H3827 C3846 0.951 . S
H3828 C3848 0.950 . S
H3829 C3849 0.950 . S
H3830 C3851 0.950 . S
H3831 C3854 0.950 . S
H3832 C3855 0.950 . S
H3833 C3857 0.950 . S
H3834 C3858 0.950 . S
H3835 C3859 0.951 . S
H3836 C3861 0.951 . S
H3837 C3863 0.950 . S
H3838 C3864 0.950 . S
H3839 C3866 0.950 . S
H3840 C3869 0.950 . S
H3841 C3870 0.950 . S
H3842 C3872 0.950 . S
H3843 C3873 0.950 . S
C3844 H3826 0.951 . S
C3844 C3845 1.366 . S
C3844 C3846 1.388 . S
C3845 C3844 1.366 . S
C3845 C3849 1.385 . S
C3846 H3827 0.951 . S
C3846 C3844 1.388 . S
C3846 C3847 1.366 . S
C3847 C3846 1.366 . S
C3847 C3848 1.414 . S
C3847 C3850 1.499 . S
C3848 H3828 0.950 . S
C3848 C3847 1.414 . S
C3848 C3849 1.374 . S
C3849 H3829 0.950 . S
C3849 C3845 1.385 . S
C3849 C3848 1.374 . S
C3850 C3847 1.499 . S
C3850 C3851 1.373 . S
C3850 C3852 1.389 . S
C3851 H3830 0.950 . S
C3851 C3850 1.373 . S
C3851 C3867 1.377 . S
C3852 C3850 1.389 . S
C3852 C3853 1.524 . S
C3852 C3866 1.377 . S
C3853 C3852 1.524 . S
C3853 C3854 1.397 . S
C3853 C3858 1.363 . S
C3854 H3831 0.950 . S
C3854 C3853 1.397 . S
C3854 C3855 1.334 . S
C3855 H3832 0.950 . S
C3855 C3854 1.334 . S
C3855 C3856 1.287 . S
C3856 C3855 1.287 . S
C3856 C3857 1.524 . S
C3856 H3875 0.913 . S
C3857 H3833 0.950 . S
C3857 C3856 1.524 . S
C3857 C3858 1.415 . S
C3858 H3834 0.950 . S
C3858 C3853 1.363 . S
C3858 C3857 1.415 . S
C3859 H3835 0.951 . S
C3859 C3860 1.366 . S
C3859 C3861 1.388 . S
C3860 C3859 1.366 . S
C3860 C3864 1.385 . S
C3861 H3836 0.951 . S
C3861 C3859 1.388 . S
C3861 C3862 1.366 . S
C3862 C3861 1.366 . S
C3862 C3863 1.414 . S
C3862 C3865 1.499 . S
C3863 H3837 0.950 . S
C3863 C3862 1.414 . S
C3863 C3864 1.374 . S
C3864 H3838 0.950 . S
C3864 C3860 1.385 . S
C3864 C3863 1.374 . S
C3865 C3862 1.499 . S
C3865 C3866 1.373 . S
C3865 C3867 1.389 . S
C3866 H3839 0.950 . S
C3866 C3852 1.377 . S
C3866 C3865 1.373 . S
C3867 C3851 1.377 . S
C3867 C3865 1.389 . S
C3867 C3868 1.524 . S
C3868 C3867 1.524 . S
C3868 C3869 1.397 . S
C3868 C3873 1.363 . S
C3869 H3840 0.950 . S
C3869 C3868 1.397 . S
C3869 C3870 1.334 . S
C3870 H3841 0.950 . S
C3870 C3869 1.334 . S
C3870 C3871 1.287 . S
C3871 C3870 1.287 . S
C3871 C3872 1.524 . S
C3871 H3874 0.999 . S
C3872 H3842 0.950 . S
C3872 C3871 1.524 . S
C3872 C3873 1.415 . S
C3873 H3843 0.950 . S
C3873 C3868 1.363 . S
C3873 C3872 1.415 . S
H3874 C3871 0.999 . S
H3875 C3856 0.913 . S
H3876 C3894 0.951 . S
H3877 C3896 0.951 . S
H3878 C3898 0.950 . S
H3879 C3899 0.950 . S
H3880 C3901 0.950 . S
H3881 C3904 0.950 . S
H3882 C3905 0.950 . S
H3883 C3907 0.950 . S
H3884 C3908 0.950 . S
H3885 C3909 0.951 . S
H3886 C3911 0.951 . S
H3887 C3913 0.950 . S
H3888 C3914 0.950 . S
H3889 C3916 0.950 . S
H3890 C3919 0.950 . S
H3891 C3920 0.950 . S
H3892 C3922 0.950 . S
H3893 C3923 0.950 . S
C3894 H3876 0.951 . S
C3894 C3895 1.366 . S
C3894 C3896 1.388 . S
C3895 C3894 1.366 . S
C3895 C3899 1.385 . S
C3896 H3877 0.951 . S
C3896 C3894 1.388 . S
C3896 C3897 1.366 . S
C3897 C3896 1.366 . S
C3897 C3898 1.414 . S
C3897 C3900 1.499 . S
C3898 H3878 0.950 . S
C3898 C3897 1.414 . S
C3898 C3899 1.374 . S
C3899 H3879 0.950 . S
C3899 C3895 1.385 . S
C3899 C3898 1.374 . S
C3900 C3897 1.499 . S
C3900 C3901 1.373 . S
C3900 C3902 1.389 . S
C3901 H3880 0.950 . S
C3901 C3900 1.373 . S
C3901 C3917 1.377 . S
C3902 C3900 1.389 . S
C3902 C3903 1.524 . S
C3902 C3916 1.377 . S
C3903 C3902 1.524 . S
C3903 C3904 1.397 . S
C3903 C3908 1.363 . S
C3904 H3881 0.950 . S
C3904 C3903 1.397 . S
C3904 C3905 1.334 . S
C3905 H3882 0.950 . S
C3905 C3904 1.334 . S
C3905 C3906 1.287 . S
C3906 C3905 1.287 . S
C3906 C3907 1.524 . S
C3906 H3925 0.913 . S
C3907 H3883 0.950 . S
C3907 C3906 1.524 . S
C3907 C3908 1.415 . S
C3908 H3884 0.950 . S
C3908 C3903 1.363 . S
C3908 C3907 1.415 . S
C3909 H3885 0.951 . S
C3909 C3910 1.366 . S
C3909 C3911 1.388 . S
C3910 C3909 1.366 . S
C3910 C3914 1.385 . S
C3911 H3886 0.951 . S
C3911 C3909 1.388 . S
C3911 C3912 1.366 . S
C3912 C3911 1.366 . S
C3912 C3913 1.414 . S
C3912 C3915 1.499 . S
C3913 H3887 0.950 . S
C3913 C3912 1.414 . S
C3913 C3914 1.374 . S
C3914 H3888 0.950 . S
C3914 C3910 1.385 . S
C3914 C3913 1.374 . S
C3915 C3912 1.499 . S
C3915 C3916 1.373 . S
C3915 C3917 1.389 . S
C3916 H3889 0.950 . S
C3916 C3902 1.377 . S
C3916 C3915 1.373 . S
C3917 C3901 1.377 . S
C3917 C3915 1.389 . S
C3917 C3918 1.524 . S
C3918 C3917 1.524 . S
C3918 C3919 1.397 . S
C3918 C3923 1.363 . S
C3919 H3890 0.950 . S
C3919 C3918 1.397 . S
C3919 C3920 1.334 . S
C3920 H3891 0.950 . S
C3920 C3919 1.334 . S
C3920 C3921 1.287 . S
C3921 C3920 1.287 . S
C3921 C3922 1.524 . S
C3921 H3924 0.999 . S
C3922 H3892 0.950 . S
C3922 C3921 1.524 . S
C3922 C3923 1.415 . S
C3923 H3893 0.950 . S
C3923 C3918 1.363 . S
C3923 C3922 1.415 . S
H3924 C3921 0.999 . S
H3925 C3906 0.913 . S
H3926 C3944 0.951 . S
H3927 C3946 0.951 . S
H3928 C3948 0.950 . S
H3929 C3949 0.950 . S
H3930 C3951 0.950 . S
H3931 C3954 0.950 . S
H3932 C3955 0.950 . S
H3933 C3957 0.950 . S
H3934 C3958 0.950 . S
H3935 C3959 0.951 . S
H3936 C3961 0.951 . S
H3937 C3963 0.950 . S
H3938 C3964 0.950 . S
H3939 C3966 0.950 . S
H3940 C3969 0.950 . S
H3941 C3970 0.950 . S
H3942 C3972 0.950 . S
H3943 C3973 0.950 . S
C3944 H3926 0.951 . S
C3944 C3945 1.366 . S
C3944 C3946 1.388 . S
C3945 C3944 1.366 . S
C3945 C3949 1.385 . S
C3946 H3927 0.951 . S
C3946 C3944 1.388 . S
C3946 C3947 1.366 . S
C3947 C3946 1.366 . S
C3947 C3948 1.414 . S
C3947 C3950 1.499 . S
C3948 H3928 0.950 . S
C3948 C3947 1.414 . S
C3948 C3949 1.374 . S
C3949 H3929 0.950 . S
C3949 C3945 1.385 . S
C3949 C3948 1.374 . S
C3950 C3947 1.499 . S
C3950 C3951 1.373 . S
C3950 C3952 1.389 . S
C3951 H3930 0.950 . S
C3951 C3950 1.373 . S
C3951 C3967 1.377 . S
C3952 C3950 1.389 . S
C3952 C3953 1.524 . S
C3952 C3966 1.377 . S
C3953 C3952 1.524 . S
C3953 C3954 1.397 . S
C3953 C3958 1.363 . S
C3954 H3931 0.950 . S
C3954 C3953 1.397 . S
C3954 C3955 1.334 . S
C3955 H3932 0.950 . S
C3955 C3954 1.334 . S
C3955 C3956 1.287 . S
C3956 C3955 1.287 . S
C3956 C3957 1.524 . S
C3956 H3975 0.913 . S
C3957 H3933 0.950 . S
C3957 C3956 1.524 . S
C3957 C3958 1.415 . S
C3958 H3934 0.950 . S
C3958 C3953 1.363 . S
C3958 C3957 1.415 . S
C3959 H3935 0.951 . S
C3959 C3960 1.366 . S
C3959 C3961 1.388 . S
C3960 C3959 1.366 . S
C3960 C3964 1.385 . S
C3961 H3936 0.951 . S
C3961 C3959 1.388 . S
C3961 C3962 1.366 . S
C3962 C3961 1.366 . S
C3962 C3963 1.414 . S
C3962 C3965 1.499 . S
C3963 H3937 0.950 . S
C3963 C3962 1.414 . S
C3963 C3964 1.374 . S
C3964 H3938 0.950 . S
C3964 C3960 1.385 . S
C3964 C3963 1.374 . S
C3965 C3962 1.499 . S
C3965 C3966 1.373 . S
C3965 C3967 1.389 . S
C3966 H3939 0.950 . S
C3966 C3952 1.377 . S
C3966 C3965 1.373 . S
C3967 C3951 1.377 . S
C3967 C3965 1.389 . S
C3967 C3968 1.524 . S
C3968 C3967 1.524 . S
C3968 C3969 1.397 . S
C3968 C3973 1.363 . S
C3969 H3940 0.950 . S
C3969 C3968 1.397 . S
C3969 C3970 1.334 . S
C3970 H3941 0.950 . S
C3970 C3969 1.334 . S
C3970 C3971 1.287 . S
C3971 C3970 1.287 . S
C3971 C3972 1.524 . S
C3971 H3974 0.999 . S
C3972 H3942 0.950 . S
C3972 C3971 1.524 . S
C3972 C3973 1.415 . S
C3973 H3943 0.950 . S
C3973 C3968 1.363 . S
C3973 C3972 1.415 . S
H3974 C3971 0.999 . S
H3975 C3956 0.913 . S
H3976 C3994 0.951 . S
H3977 C3996 0.951 . S
H3978 C3998 0.950 . S
H3979 C3999 0.950 . S
H3980 C4001 0.950 . S
H3981 C4004 0.950 . S
H3982 C4005 0.950 . S
H3983 C4007 0.950 . S
H3984 C4008 0.950 . S
H3985 C4009 0.951 1_554 S
H3986 C4011 0.951 . S
H3987 C4013 0.950 . S
H3988 C4014 0.950 . S
H3989 C4016 0.950 . S
H3990 C4019 0.950 . S
H3991 C4020 0.950 . S
H3992 C4022 0.950 . S
H3993 C4023 0.950 . S
C3994 H3976 0.951 . S
C3994 C3995 1.366 . S
C3994 C3996 1.388 . S
C3995 C3994 1.366 . S
C3995 C3999 1.385 . S
C3996 H3977 0.951 . S
C3996 C3994 1.388 . S
C3996 C3997 1.366 . S
C3997 C3996 1.366 . S
C3997 C3998 1.414 . S
C3997 C4000 1.499 . S
C3998 H3978 0.950 . S
C3998 C3997 1.414 . S
C3998 C3999 1.374 . S
C3999 H3979 0.950 . S
C3999 C3995 1.385 . S
C3999 C3998 1.374 . S
C4000 C3997 1.499 . S
C4000 C4001 1.373 . S
C4000 C4002 1.389 . S
C4001 H3980 0.950 . S
C4001 C4000 1.373 . S
C4001 C4017 1.377 . S
C4002 C4000 1.389 . S
C4002 C4003 1.524 . S
C4002 C4016 1.377 . S
C4003 C4002 1.524 . S
C4003 C4004 1.397 . S
C4003 C4008 1.363 . S
C4004 H3981 0.950 . S
C4004 C4003 1.397 . S
C4004 C4005 1.334 . S
C4005 H3982 0.950 . S
C4005 C4004 1.334 . S
C4005 C4006 1.287 . S
C4006 C4005 1.287 . S
C4006 C4007 1.524 . S
C4006 H4025 0.913 . S
C4007 H3983 0.950 . S
C4007 C4006 1.524 . S
C4007 C4008 1.415 . S
C4008 H3984 0.950 . S
C4008 C4003 1.363 . S
C4008 C4007 1.415 . S
C4009 H3985 0.951 1_556 S
C4009 C4010 1.366 . S
C4009 C4011 1.388 . S
C4010 C4009 1.366 . S
C4010 C4014 1.385 . S
C4011 H3986 0.951 . S
C4011 C4009 1.388 . S
C4011 C4012 1.366 . S
C4012 C4011 1.366 . S
C4012 C4013 1.414 . S
C4012 C4015 1.499 . S
C4013 H3987 0.950 . S
C4013 C4012 1.414 . S
C4013 C4014 1.374 . S
C4014 H3988 0.950 . S
C4014 C4010 1.385 . S
C4014 C4013 1.374 . S
C4015 C4012 1.499 . S
C4015 C4016 1.373 . S
C4015 C4017 1.389 . S
C4016 H3989 0.950 . S
C4016 C4002 1.377 . S
C4016 C4015 1.373 . S
C4017 C4001 1.377 . S
C4017 C4015 1.389 . S
C4017 C4018 1.524 . S
C4018 C4017 1.524 . S
C4018 C4019 1.397 . S
C4018 C4023 1.363 . S
C4019 H3990 0.950 . S
C4019 C4018 1.397 . S
C4019 C4020 1.334 . S
C4020 H3991 0.950 . S
C4020 C4019 1.334 . S
C4020 C4021 1.287 . S
C4021 C4020 1.287 . S
C4021 C4022 1.524 . S
C4021 H4024 0.999 . S
C4022 H3992 0.950 . S
C4022 C4021 1.524 . S
C4022 C4023 1.415 . S
C4023 H3993 0.950 . S
C4023 C4018 1.363 . S
C4023 C4022 1.415 . S
H4024 C4021 0.999 . S
H4025 C4006 0.913 . S
H4026 C4044 0.951 . S
H4027 C4046 0.951 . S
H4028 C4048 0.950 . S
H4029 C4049 0.950 . S
H4030 C4051 0.950 . S
H4031 C4054 0.950 . S
H4032 C4055 0.950 . S
H4033 C4057 0.950 . S
H4034 C4058 0.950 . S
H4035 C4059 0.951 . S
H4036 C4061 0.951 . S
H4037 C4063 0.950 . S
H4038 C4064 0.950 . S
H4039 C4066 0.950 . S
H4040 C4069 0.950 . S
H4041 C4070 0.950 . S
H4042 C4072 0.950 . S
H4043 C4073 0.950 . S
C4044 H4026 0.951 . S
C4044 C4045 1.366 . S
C4044 C4046 1.388 . S
C4045 C4044 1.366 . S
C4045 C4049 1.385 . S
C4046 H4027 0.951 . S
C4046 C4044 1.388 . S
C4046 C4047 1.366 . S
C4047 C4046 1.366 . S
C4047 C4048 1.414 . S
C4047 C4050 1.499 . S
C4048 H4028 0.950 . S
C4048 C4047 1.414 . S
C4048 C4049 1.374 . S
C4049 H4029 0.950 . S
C4049 C4045 1.385 . S
C4049 C4048 1.374 . S
C4050 C4047 1.499 . S
C4050 C4051 1.373 . S
C4050 C4052 1.389 . S
C4051 H4030 0.950 . S
C4051 C4050 1.373 . S
C4051 C4067 1.377 . S
C4052 C4050 1.389 . S
C4052 C4053 1.524 . S
C4052 C4066 1.377 . S
C4053 C4052 1.524 . S
C4053 C4054 1.397 . S
C4053 C4058 1.363 . S
C4054 H4031 0.950 . S
C4054 C4053 1.397 . S
C4054 C4055 1.334 . S
C4055 H4032 0.950 . S
C4055 C4054 1.334 . S
C4055 C4056 1.287 . S
C4056 C4055 1.287 . S
C4056 C4057 1.524 . S
C4056 H4075 0.913 . S
C4057 H4033 0.950 . S
C4057 C4056 1.524 . S
C4057 C4058 1.415 . S
C4058 H4034 0.950 . S
C4058 C4053 1.363 . S
C4058 C4057 1.415 . S
C4059 H4035 0.951 . S
C4059 C4060 1.366 . S
C4059 C4061 1.388 . S
C4060 C4059 1.366 . S
C4060 C4064 1.385 . S
C4061 H4036 0.951 . S
C4061 C4059 1.388 . S
C4061 C4062 1.366 . S
C4062 C4061 1.366 . S
C4062 C4063 1.414 . S
C4062 C4065 1.499 . S
C4063 H4037 0.950 . S
C4063 C4062 1.414 . S
C4063 C4064 1.374 . S
C4064 H4038 0.950 . S
C4064 C4060 1.385 . S
C4064 C4063 1.374 . S
C4065 C4062 1.499 . S
C4065 C4066 1.373 . S
C4065 C4067 1.389 . S
C4066 H4039 0.950 . S
C4066 C4052 1.377 . S
C4066 C4065 1.373 . S
C4067 C4051 1.377 . S
C4067 C4065 1.389 . S
C4067 C4068 1.524 . S
C4068 C4067 1.524 . S
C4068 C4069 1.397 . S
C4068 C4073 1.363 . S
C4069 H4040 0.950 . S
C4069 C4068 1.397 . S
C4069 C4070 1.334 . S
C4070 H4041 0.950 . S
C4070 C4069 1.334 . S
C4070 C4071 1.287 . S
C4071 C4070 1.287 . S
C4071 C4072 1.524 . S
C4071 H4074 0.999 . S
C4072 H4042 0.950 . S
C4072 C4071 1.524 . S
C4072 C4073 1.415 . S
C4073 H4043 0.950 . S
C4073 C4068 1.363 . S
C4073 C4072 1.415 . S
H4074 C4071 0.999 . S
H4075 C4056 0.913 . S
H4076 C4094 0.951 . S
H4077 C4096 0.951 . S
H4078 C4098 0.950 . S
H4079 C4099 0.950 . S
H4080 C4101 0.950 . S
H4081 C4104 0.950 . S
H4082 C4105 0.950 . S
H4083 C4107 0.950 . S
H4084 C4108 0.950 . S
H4085 C4109 0.951 . S
H4086 C4111 0.951 . S
H4087 C4113 0.950 . S
H4088 C4114 0.950 . S
H4089 C4116 0.950 . S
H4090 C4119 0.950 . S
H4091 C4120 0.950 . S
H4092 C4122 0.950 . S
H4093 C4123 0.950 . S
C4094 H4076 0.951 . S
C4094 C4095 1.366 . S
C4094 C4096 1.388 . S
C4095 C4094 1.366 . S
C4095 C4099 1.385 . S
C4096 H4077 0.951 . S
C4096 C4094 1.388 . S
C4096 C4097 1.366 . S
C4097 C4096 1.366 . S
C4097 C4098 1.414 . S
C4097 C4100 1.499 . S
C4098 H4078 0.950 . S
C4098 C4097 1.414 . S
C4098 C4099 1.374 . S
C4099 H4079 0.950 . S
C4099 C4095 1.385 . S
C4099 C4098 1.374 . S
C4100 C4097 1.499 . S
C4100 C4101 1.373 . S
C4100 C4102 1.389 . S
C4101 H4080 0.950 . S
C4101 C4100 1.373 . S
C4101 C4117 1.377 . S
C4102 C4100 1.389 . S
C4102 C4103 1.524 . S
C4102 C4116 1.377 . S
C4103 C4102 1.524 . S
C4103 C4104 1.397 . S
C4103 C4108 1.363 . S
C4104 H4081 0.950 . S
C4104 C4103 1.397 . S
C4104 C4105 1.334 . S
C4105 H4082 0.950 . S
C4105 C4104 1.334 . S
C4105 C4106 1.287 . S
C4106 C4105 1.287 . S
C4106 C4107 1.524 . S
C4106 H4125 0.913 . S
C4107 H4083 0.950 . S
C4107 C4106 1.524 . S
C4107 C4108 1.415 . S
C4108 H4084 0.950 . S
C4108 C4103 1.363 . S
C4108 C4107 1.415 . S
C4109 H4085 0.951 . S
C4109 C4110 1.366 . S
C4109 C4111 1.388 . S
C4110 C4109 1.366 . S
C4110 C4114 1.385 . S
C4111 H4086 0.951 . S
C4111 C4109 1.388 . S
C4111 C4112 1.366 . S
C4112 C4111 1.366 . S
C4112 C4113 1.414 . S
C4112 C4115 1.499 . S
C4113 H4087 0.950 . S
C4113 C4112 1.414 . S
C4113 C4114 1.374 . S
C4114 H4088 0.950 . S
C4114 C4110 1.385 . S
C4114 C4113 1.374 . S
C4115 C4112 1.499 . S
C4115 C4116 1.373 . S
C4115 C4117 1.389 . S
C4116 H4089 0.950 . S
C4116 C4102 1.377 . S
C4116 C4115 1.373 . S
C4117 C4101 1.377 . S
C4117 C4115 1.389 . S
C4117 C4118 1.524 . S
C4118 C4117 1.524 . S
C4118 C4119 1.397 . S
C4118 C4123 1.363 . S
C4119 H4090 0.950 . S
C4119 C4118 1.397 . S
C4119 C4120 1.334 . S
C4120 H4091 0.950 . S
C4120 C4119 1.334 . S
C4120 C4121 1.287 . S
C4121 C4120 1.287 . S
C4121 C4122 1.524 . S
C4121 H4124 0.999 . S
C4122 H4092 0.950 . S
C4122 C4121 1.524 . S
C4122 C4123 1.415 . S
C4123 H4093 0.950 . S
C4123 C4118 1.363 . S
C4123 C4122 1.415 . S
H4124 C4121 0.999 . S
H4125 C4106 0.913 . S
H4126 C4144 0.951 . S
H4127 C4146 0.951 . S
H4128 C4148 0.950 . S
H4129 C4149 0.950 . S
H4130 C4151 0.950 . S
H4131 C4154 0.950 . S
H4132 C4155 0.950 . S
H4133 C4157 0.950 . S
H4134 C4158 0.950 . S
H4135 C4159 0.951 . S
H4136 C4161 0.951 . S
H4137 C4163 0.950 . S
H4138 C4164 0.950 . S
H4139 C4166 0.950 . S
H4140 C4169 0.950 . S
H4141 C4170 0.950 . S
H4142 C4172 0.950 . S
H4143 C4173 0.950 . S
C4144 H4126 0.951 . S
C4144 C4145 1.366 . S
C4144 C4146 1.388 . S
C4145 C4144 1.366 . S
C4145 C4149 1.385 . S
C4146 H4127 0.951 . S
C4146 C4144 1.388 . S
C4146 C4147 1.366 . S
C4147 C4146 1.366 . S
C4147 C4148 1.414 . S
C4147 C4150 1.499 . S
C4148 H4128 0.950 . S
C4148 C4147 1.414 . S
C4148 C4149 1.374 . S
C4149 H4129 0.950 . S
C4149 C4145 1.385 . S
C4149 C4148 1.374 . S
C4150 C4147 1.499 . S
C4150 C4151 1.373 . S
C4150 C4152 1.389 . S
C4151 H4130 0.950 . S
C4151 C4150 1.373 . S
C4151 C4167 1.377 . S
C4152 C4150 1.389 . S
C4152 C4153 1.524 . S
C4152 C4166 1.377 . S
C4153 C4152 1.524 . S
C4153 C4154 1.397 . S
C4153 C4158 1.363 . S
C4154 H4131 0.950 . S
C4154 C4153 1.397 . S
C4154 C4155 1.334 . S
C4155 H4132 0.950 . S
C4155 C4154 1.334 . S
C4155 C4156 1.287 . S
C4156 C4155 1.287 . S
C4156 C4157 1.524 . S
C4156 H4175 0.913 . S
C4157 H4133 0.950 . S
C4157 C4156 1.524 . S
C4157 C4158 1.415 . S
C4158 H4134 0.950 . S
C4158 C4153 1.363 . S
C4158 C4157 1.415 . S
C4159 H4135 0.951 . S
C4159 C4160 1.366 . S
C4159 C4161 1.388 . S
C4160 C4159 1.366 . S
C4160 C4164 1.385 . S
C4161 H4136 0.951 . S
C4161 C4159 1.388 . S
C4161 C4162 1.366 . S
C4162 C4161 1.366 . S
C4162 C4163 1.414 . S
C4162 C4165 1.499 . S
C4163 H4137 0.950 . S
C4163 C4162 1.414 . S
C4163 C4164 1.374 . S
C4164 H4138 0.950 . S
C4164 C4160 1.385 . S
C4164 C4163 1.374 . S
C4165 C4162 1.499 . S
C4165 C4166 1.373 . S
C4165 C4167 1.389 . S
C4166 H4139 0.950 . S
C4166 C4152 1.377 . S
C4166 C4165 1.373 . S
C4167 C4151 1.377 . S
C4167 C4165 1.389 . S
C4167 C4168 1.524 . S
C4168 C4167 1.524 . S
C4168 C4169 1.397 . S
C4168 C4173 1.363 . S
C4169 H4140 0.950 . S
C4169 C4168 1.397 . S
C4169 C4170 1.334 . S
C4170 H4141 0.950 . S
C4170 C4169 1.334 . S
C4170 C4171 1.287 . S
C4171 C4170 1.287 . S
C4171 C4172 1.524 . S
C4171 H4174 0.999 . S
C4172 H4142 0.950 . S
C4172 C4171 1.524 . S
C4172 C4173 1.415 . S
C4173 H4143 0.950 . S
C4173 C4168 1.363 . S
C4173 C4172 1.415 . S
H4174 C4171 0.999 . S
H4175 C4156 0.913 . S
H4176 C4194 0.951 . S
H4177 C4196 0.951 . S
H4178 C4198 0.950 . S
H4179 C4199 0.950 . S
H4180 C4201 0.950 . S
H4181 C4204 0.950 . S
H4182 C4205 0.950 . S
H4183 C4207 0.950 . S
H4184 C4208 0.950 . S
H4185 C4209 0.951 . S
H4186 C4211 0.951 . S
H4187 C4213 0.950 . S
H4188 C4214 0.950 . S
H4189 C4216 0.950 . S
H4190 C4219 0.950 . S
H4191 C4220 0.950 . S
H4192 C4222 0.950 . S
H4193 C4223 0.950 . S
C4194 H4176 0.951 . S
C4194 C4195 1.366 . S
C4194 C4196 1.388 . S
C4195 C4194 1.366 . S
C4195 C4199 1.385 . S
C4196 H4177 0.951 . S
C4196 C4194 1.388 . S
C4196 C4197 1.366 . S
C4197 C4196 1.366 . S
C4197 C4198 1.414 . S
C4197 C4200 1.499 . S
C4198 H4178 0.950 . S
C4198 C4197 1.414 . S
C4198 C4199 1.374 . S
C4199 H4179 0.950 . S
C4199 C4195 1.385 . S
C4199 C4198 1.374 . S
C4200 C4197 1.499 . S
C4200 C4201 1.373 . S
C4200 C4202 1.389 . S
C4201 H4180 0.950 . S
C4201 C4200 1.373 . S
C4201 C4217 1.377 . S
C4202 C4200 1.389 . S
C4202 C4203 1.524 . S
C4202 C4216 1.377 . S
C4203 C4202 1.524 . S
C4203 C4204 1.397 . S
C4203 C4208 1.363 . S
C4204 H4181 0.950 . S
C4204 C4203 1.397 . S
C4204 C4205 1.334 . S
C4205 H4182 0.950 . S
C4205 C4204 1.334 . S
C4205 C4206 1.287 . S
C4206 C4205 1.287 . S
C4206 C4207 1.524 . S
C4206 H4225 0.913 . S
C4207 H4183 0.950 . S
C4207 C4206 1.524 . S
C4207 C4208 1.415 . S
C4208 H4184 0.950 . S
C4208 C4203 1.363 . S
C4208 C4207 1.415 . S
C4209 H4185 0.951 . S
C4209 C4210 1.366 . S
C4209 C4211 1.388 . S
C4210 C4209 1.366 . S
C4210 C4214 1.385 . S
C4211 H4186 0.951 . S
C4211 C4209 1.388 . S
C4211 C4212 1.366 . S
C4212 C4211 1.366 . S
C4212 C4213 1.414 . S
C4212 C4215 1.499 . S
C4213 H4187 0.950 . S
C4213 C4212 1.414 . S
C4213 C4214 1.374 . S
C4214 H4188 0.950 . S
C4214 C4210 1.385 . S
C4214 C4213 1.374 . S
C4215 C4212 1.499 . S
C4215 C4216 1.373 . S
C4215 C4217 1.389 . S
C4216 H4189 0.950 . S
C4216 C4202 1.377 . S
C4216 C4215 1.373 . S
C4217 C4201 1.377 . S
C4217 C4215 1.389 . S
C4217 C4218 1.524 . S
C4218 C4217 1.524 . S
C4218 C4219 1.397 . S
C4218 C4223 1.363 . S
C4219 H4190 0.950 . S
C4219 C4218 1.397 . S
C4219 C4220 1.334 . S
C4220 H4191 0.950 . S
C4220 C4219 1.334 . S
C4220 C4221 1.287 . S
C4221 C4220 1.287 . S
C4221 C4222 1.524 . S
C4221 H4224 0.999 . S
C4222 H4192 0.950 . S
C4222 C4221 1.524 . S
C4222 C4223 1.415 . S
C4223 H4193 0.950 . S
C4223 C4218 1.363 . S
C4223 C4222 1.415 . S
H4224 C4221 0.999 . S
H4225 C4206 0.913 . S
H4226 C4244 0.951 . S
H4227 C4246 0.951 . S
H4228 C4248 0.950 . S
H4229 C4249 0.950 . S
H4230 C4251 0.950 . S
H4231 C4254 0.950 . S
H4232 C4255 0.950 . S
H4233 C4257 0.950 . S
H4234 C4258 0.950 . S
H4235 C4259 0.951 . S
H4236 C4261 0.951 . S
H4237 C4263 0.950 . S
H4238 C4264 0.950 . S
H4239 C4266 0.950 . S
H4240 C4269 0.950 . S
H4241 C4270 0.950 . S
H4242 C4272 0.950 . S
H4243 C4273 0.950 . S
C4244 H4226 0.951 . S
C4244 C4245 1.366 . S
C4244 C4246 1.388 . S
C4245 C4244 1.366 . S
C4245 C4249 1.385 . S
C4246 H4227 0.951 . S
C4246 C4244 1.388 . S
C4246 C4247 1.366 . S
C4247 C4246 1.366 . S
C4247 C4248 1.414 . S
C4247 C4250 1.499 . S
C4248 H4228 0.950 . S
C4248 C4247 1.414 . S
C4248 C4249 1.374 . S
C4249 H4229 0.950 . S
C4249 C4245 1.385 . S
C4249 C4248 1.374 . S
C4250 C4247 1.499 . S
C4250 C4251 1.373 . S
C4250 C4252 1.389 . S
C4251 H4230 0.950 . S
C4251 C4250 1.373 . S
C4251 C4267 1.377 . S
C4252 C4250 1.389 . S
C4252 C4253 1.524 . S
C4252 C4266 1.377 . S
C4253 C4252 1.524 . S
C4253 C4254 1.397 . S
C4253 C4258 1.363 . S
C4254 H4231 0.950 . S
C4254 C4253 1.397 . S
C4254 C4255 1.334 . S
C4255 H4232 0.950 . S
C4255 C4254 1.334 . S
C4255 C4256 1.287 . S
C4256 C4255 1.287 . S
C4256 C4257 1.524 . S
C4256 H4275 0.913 . S
C4257 H4233 0.950 . S
C4257 C4256 1.524 . S
C4257 C4258 1.415 . S
C4258 H4234 0.950 . S
C4258 C4253 1.363 . S
C4258 C4257 1.415 . S
C4259 H4235 0.951 . S
C4259 C4260 1.366 . S
C4259 C4261 1.388 . S
C4260 C4259 1.366 . S
C4260 C4264 1.385 . S
C4261 H4236 0.951 . S
C4261 C4259 1.388 . S
C4261 C4262 1.366 . S
C4262 C4261 1.366 . S
C4262 C4263 1.414 . S
C4262 C4265 1.499 . S
C4263 H4237 0.950 . S
C4263 C4262 1.414 . S
C4263 C4264 1.374 . S
C4264 H4238 0.950 . S
C4264 C4260 1.385 . S
C4264 C4263 1.374 . S
C4265 C4262 1.499 . S
C4265 C4266 1.373 . S
C4265 C4267 1.389 . S
C4266 H4239 0.950 . S
C4266 C4252 1.377 . S
C4266 C4265 1.373 . S
C4267 C4251 1.377 . S
C4267 C4265 1.389 . S
C4267 C4268 1.524 . S
C4268 C4267 1.524 . S
C4268 C4269 1.397 . S
C4268 C4273 1.363 . S
C4269 H4240 0.950 . S
C4269 C4268 1.397 . S
C4269 C4270 1.334 . S
C4270 H4241 0.950 . S
C4270 C4269 1.334 . S
C4270 C4271 1.287 . S
C4271 C4270 1.287 . S
C4271 C4272 1.524 . S
C4271 H4274 0.999 . S
C4272 H4242 0.950 . S
C4272 C4271 1.524 . S
C4272 C4273 1.415 . S
C4273 H4243 0.950 . S
C4273 C4268 1.363 . S
C4273 C4272 1.415 . S
H4274 C4271 0.999 . S
H4275 C4256 0.913 . S
H4276 C4294 0.951 . S
H4277 C4296 0.951 . S
H4278 C4298 0.950 . S
H4279 C4299 0.950 . S
H4280 C4301 0.950 . S
H4281 C4304 0.950 . S
H4282 C4305 0.950 . S
H4283 C4307 0.950 . S
H4284 C4308 0.950 . S
H4285 C4309 0.951 . S
H4286 C4311 0.951 . S
H4287 C4313 0.950 . S
H4288 C4314 0.950 . S
H4289 C4316 0.950 . S
H4290 C4319 0.950 . S
H4291 C4320 0.950 . S
H4292 C4322 0.950 . S
H4293 C4323 0.950 . S
C4294 H4276 0.951 . S
C4294 C4295 1.366 . S
C4294 C4296 1.388 . S
C4295 C4294 1.366 . S
C4295 C4299 1.385 . S
C4296 H4277 0.951 . S
C4296 C4294 1.388 . S
C4296 C4297 1.366 . S
C4297 C4296 1.366 . S
C4297 C4298 1.414 . S
C4297 C4300 1.499 . S
C4298 H4278 0.950 . S
C4298 C4297 1.414 . S
C4298 C4299 1.374 . S
C4299 H4279 0.950 . S
C4299 C4295 1.385 . S
C4299 C4298 1.374 . S
C4300 C4297 1.499 . S
C4300 C4301 1.373 . S
C4300 C4302 1.389 . S
C4301 H4280 0.950 . S
C4301 C4300 1.373 . S
C4301 C4317 1.377 . S
C4302 C4300 1.389 . S
C4302 C4303 1.524 . S
C4302 C4316 1.377 . S
C4303 C4302 1.524 . S
C4303 C4304 1.397 . S
C4303 C4308 1.363 . S
C4304 H4281 0.950 . S
C4304 C4303 1.397 . S
C4304 C4305 1.334 . S
C4305 H4282 0.950 . S
C4305 C4304 1.334 . S
C4305 C4306 1.287 . S
C4306 C4305 1.287 . S
C4306 C4307 1.524 . S
C4306 H4325 0.913 . S
C4307 H4283 0.950 . S
C4307 C4306 1.524 . S
C4307 C4308 1.415 . S
C4308 H4284 0.950 . S
C4308 C4303 1.363 . S
C4308 C4307 1.415 . S
C4309 H4285 0.951 . S
C4309 C4310 1.366 . S
C4309 C4311 1.388 . S
C4310 C4309 1.366 . S
C4310 C4314 1.385 . S
C4311 H4286 0.951 . S
C4311 C4309 1.388 . S
C4311 C4312 1.366 . S
C4312 C4311 1.366 . S
C4312 C4313 1.414 . S
C4312 C4315 1.499 . S
C4313 H4287 0.950 . S
C4313 C4312 1.414 . S
C4313 C4314 1.374 . S
C4314 H4288 0.950 . S
C4314 C4310 1.385 . S
C4314 C4313 1.374 . S
C4315 C4312 1.499 . S
C4315 C4316 1.373 . S
C4315 C4317 1.389 . S
C4316 H4289 0.950 . S
C4316 C4302 1.377 . S
C4316 C4315 1.373 . S
C4317 C4301 1.377 . S
C4317 C4315 1.389 . S
C4317 C4318 1.524 . S
C4318 C4317 1.524 . S
C4318 C4319 1.397 . S
C4318 C4323 1.363 . S
C4319 H4290 0.950 . S
C4319 C4318 1.397 . S
C4319 C4320 1.334 . S
C4320 H4291 0.950 . S
C4320 C4319 1.334 . S
C4320 C4321 1.287 . S
C4321 C4320 1.287 . S
C4321 C4322 1.524 . S
C4321 H4324 0.999 . S
C4322 H4292 0.950 . S
C4322 C4321 1.524 . S
C4322 C4323 1.415 . S
C4323 H4293 0.950 . S
C4323 C4318 1.363 . S
C4323 C4322 1.415 . S
H4324 C4321 0.999 . S
H4325 C4306 0.913 . S
H4326 C4344 0.951 . S
H4327 C4346 0.951 . S
H4328 C4348 0.950 . S
H4329 C4349 0.950 . S
H4330 C4351 0.950 . S
H4331 C4354 0.950 . S
H4332 C4355 0.950 . S
H4333 C4357 0.950 . S
H4334 C4358 0.950 . S
H4335 C4359 0.951 . S
H4336 C4361 0.951 . S
H4337 C4363 0.922 1_545 S
H4338 C4364 0.950 . S
H4339 C4366 0.950 . S
H4340 C4369 0.950 . S
H4341 C4370 0.950 . S
H4342 C4372 0.950 . S
H4343 C4373 0.950 . S
C4344 H4326 0.951 . S
C4344 C4345 1.366 . S
C4344 C4346 1.388 . S
C4345 C4344 1.366 . S
C4345 C4349 1.385 . S
C4346 H4327 0.951 . S
C4346 C4344 1.388 . S
C4346 C4347 1.366 . S
C4347 C4346 1.366 . S
C4347 C4348 1.414 . S
C4347 C4350 1.499 . S
C4348 H4328 0.950 . S
C4348 C4347 1.414 . S
C4348 C4349 1.374 . S
C4349 H4329 0.950 . S
C4349 C4345 1.385 . S
C4349 C4348 1.374 . S
C4350 C4347 1.499 . S
C4350 C4351 1.373 . S
C4350 C4352 1.389 . S
C4351 H4330 0.950 . S
C4351 C4350 1.373 . S
C4351 C4367 1.377 . S
C4352 C4350 1.389 . S
C4352 C4353 1.524 . S
C4352 C4366 1.377 . S
C4353 C4352 1.524 . S
C4353 C4354 1.397 . S
C4353 C4358 1.363 . S
C4354 H4331 0.950 . S
C4354 C4353 1.397 . S
C4354 C4355 1.334 . S
C4355 H4332 0.950 . S
C4355 C4354 1.334 . S
C4355 C4356 1.287 1_554 S
C4356 C4355 1.287 1_556 S
C4356 C4357 1.524 . S
C4356 H4375 0.913 . S
C4357 H4333 0.950 . S
C4357 C4356 1.524 . S
C4357 C4358 1.415 1_556 S
C4358 H4334 0.950 . S
C4358 C4353 1.363 . S
C4358 C4357 1.415 1_554 S
C4359 H4335 0.951 . S
C4359 C4360 1.366 1_565 S
C4359 C4361 1.388 . S
C4360 C4359 1.366 1_545 S
C4360 C4364 1.385 . S
C4361 H4336 0.951 . S
C4361 C4359 1.388 . S
C4361 C4362 1.366 . S
C4362 C4361 1.366 . S
C4362 C4363 1.461 . S
C4362 C4365 1.499 . S
C4363 H4337 0.922 1_565 S
C4363 C4362 1.461 . S
C4363 C4364 1.353 1_565 S
C4364 H4338 0.950 . S
C4364 C4360 1.385 . S
C4364 C4363 1.353 1_545 S
C4365 C4362 1.499 . S
C4365 C4366 1.373 . S
C4365 C4367 1.389 . S
C4366 H4339 0.950 . S
C4366 C4352 1.377 . S
C4366 C4365 1.373 . S
C4367 C4351 1.377 . S
C4367 C4365 1.389 . S
C4367 C4368 1.524 . S
C4368 C4367 1.524 . S
C4368 C4369 1.397 1_565 S
C4368 C4373 1.363 . S
C4369 H4340 0.950 . S
C4369 C4368 1.397 1_545 S
C4369 C4370 1.334 . S
C4370 H4341 0.950 . S
C4370 C4369 1.334 . S
C4370 C4371 1.287 . S
C4371 C4370 1.287 . S
C4371 C4372 1.524 1_545 S
C4371 H4374 0.999 . S
C4372 H4342 0.950 . S
C4372 C4371 1.524 1_565 S
C4372 C4373 1.415 . S
C4373 H4343 0.950 . S
C4373 C4368 1.363 . S
C4373 C4372 1.415 . S
H4374 C4371 0.999 . S
H4375 C4356 0.913 . S
H4376 C4394 0.951 . S
H4377 C4396 0.951 . S
H4378 C4398 0.950 . S
H4379 C4399 0.950 . S
H4380 C4401 0.950 . S
H4381 C4404 0.950 . S
H4382 C4405 0.950 . S
H4383 C4407 0.950 . S
H4384 C4408 0.950 . S
H4385 C4409 0.951 . S
H4386 C4411 0.951 . S
H4387 C4413 0.950 . S
H4388 C4414 0.950 . S
H4389 C4416 0.950 . S
H4390 C4419 0.950 . S
H4391 C4420 0.950 . S
H4392 C4422 0.950 . S
H4393 C4423 0.950 . S
C4394 H4376 0.951 . S
C4394 C4395 1.366 . S
C4394 C4396 1.388 . S
C4395 C4394 1.366 . S
C4395 C4399 1.385 . S
C4396 H4377 0.951 . S
C4396 C4394 1.388 . S
C4396 C4397 1.366 . S
C4397 C4396 1.366 . S
C4397 C4398 1.414 . S
C4397 C4400 1.499 . S
C4398 H4378 0.950 . S
C4398 C4397 1.414 . S
C4398 C4399 1.374 . S
C4399 H4379 0.950 . S
C4399 C4395 1.385 . S
C4399 C4398 1.374 . S
C4400 C4397 1.499 . S
C4400 C4401 1.373 . S
C4400 C4402 1.389 . S
C4401 H4380 0.950 . S
C4401 C4400 1.373 . S
C4401 C4417 1.377 . S
C4402 C4400 1.389 . S
C4402 C4403 1.524 . S
C4402 C4416 1.377 . S
C4403 C4402 1.524 . S
C4403 C4404 1.397 . S
C4403 C4408 1.363 . S
C4404 H4381 0.950 . S
C4404 C4403 1.397 . S
C4404 C4405 1.334 . S
C4405 H4382 0.950 . S
C4405 C4404 1.334 . S
C4405 C4406 1.287 . S
C4406 C4405 1.287 . S
C4406 C4407 1.524 . S
C4406 H4425 0.913 . S
C4407 H4383 0.950 . S
C4407 C4406 1.524 . S
C4407 C4408 1.415 . S
C4408 H4384 0.950 . S
C4408 C4403 1.363 . S
C4408 C4407 1.415 . S
C4409 H4385 0.951 . S
C4409 C4410 1.366 . S
C4409 C4411 1.388 . S
C4410 C4409 1.366 . S
C4410 C4414 1.385 . S
C4411 H4386 0.951 . S
C4411 C4409 1.388 . S
C4411 C4412 1.366 . S
C4412 C4411 1.366 . S
C4412 C4413 1.414 . S
C4412 C4415 1.499 . S
C4413 H4387 0.950 . S
C4413 C4412 1.414 . S
C4413 C4414 1.374 . S
C4414 H4388 0.950 . S
C4414 C4410 1.385 . S
C4414 C4413 1.374 . S
C4415 C4412 1.499 . S
C4415 C4416 1.373 . S
C4415 C4417 1.389 . S
C4416 H4389 0.950 . S
C4416 C4402 1.377 . S
C4416 C4415 1.373 . S
C4417 C4401 1.377 . S
C4417 C4415 1.389 . S
C4417 C4418 1.524 . S
C4418 C4417 1.524 . S
C4418 C4419 1.397 . S
C4418 C4423 1.363 . S
C4419 H4390 0.950 . S
C4419 C4418 1.397 . S
C4419 C4420 1.334 . S
C4420 H4391 0.950 . S
C4420 C4419 1.334 . S
C4420 C4421 1.287 . S
C4421 C4420 1.287 . S
C4421 C4422 1.524 . S
C4421 H4424 0.999 . S
C4422 H4392 0.950 . S
C4422 C4421 1.524 . S
C4422 C4423 1.415 . S
C4423 H4393 0.950 . S
C4423 C4418 1.363 . S
C4423 C4422 1.415 . S
H4424 C4421 0.999 . S
H4425 C4406 0.913 . S
H4426 C4444 0.951 . S
H4427 C4446 0.951 . S
H4428 C4448 0.950 . S
H4429 C4449 0.950 1_556 S
H4430 C4451 0.950 . S
H4431 C4454 0.950 . S
H4432 C4455 0.950 . S
H4433 C4457 0.950 . S
H4434 C4458 0.950 . S
H4435 C4459 0.951 . S
H4436 C4461 0.951 . S
H4437 C4463 0.950 . S
H4438 C4464 0.950 . S
H4439 C4466 0.950 . S
H4440 C4469 0.950 . S
H4441 C4470 0.950 . S
H4442 C4472 0.950 1_556 S
H4443 C4473 0.950 . S
C4444 H4426 0.951 . S
C4444 C4445 1.366 . S
C4444 C4446 1.388 . S
C4445 C4444 1.366 . S
C4445 C4449 1.385 . S
C4446 H4427 0.951 . S
C4446 C4444 1.388 . S
C4446 C4447 1.366 . S
C4447 C4446 1.366 . S
C4447 C4448 1.414 . S
C4447 C4450 1.499 . S
C4448 H4428 0.950 . S
C4448 C4447 1.414 . S
C4448 C4449 1.374 . S
C4449 H4429 0.950 1_554 S
C4449 C4445 1.385 . S
C4449 C4448 1.374 . S
C4450 C4447 1.499 . S
C4450 C4451 1.373 . S
C4450 C4452 1.389 . S
C4451 H4430 0.950 . S
C4451 C4450 1.373 . S
C4451 C4467 1.377 . S
C4452 C4450 1.389 . S
C4452 C4453 1.524 . S
C4452 C4466 1.377 . S
C4453 C4452 1.524 . S
C4453 C4454 1.397 . S
C4453 C4458 1.363 . S
C4454 H4431 0.950 . S
C4454 C4453 1.397 . S
C4454 C4455 1.334 . S
C4455 H4432 0.950 . S
C4455 C4454 1.334 . S
C4455 C4456 1.287 . S
C4456 C4455 1.287 . S
C4456 C4457 1.524 . S
C4456 H4475 0.913 . S
C4457 H4433 0.950 . S
C4457 C4456 1.524 . S
C4457 C4458 1.415 . S
C4458 H4434 0.950 . S
C4458 C4453 1.363 . S
C4458 C4457 1.415 . S
C4459 H4435 0.951 . S
C4459 C4460 1.366 . S
C4459 C4461 1.388 . S
C4460 C4459 1.366 . S
C4460 C4464 1.385 . S
C4461 H4436 0.951 . S
C4461 C4459 1.388 . S
C4461 C4462 1.366 . S
C4462 C4461 1.366 . S
C4462 C4463 1.414 . S
C4462 C4465 1.499 . S
C4463 H4437 0.950 . S
C4463 C4462 1.414 . S
C4463 C4464 1.374 . S
C4464 H4438 0.950 . S
C4464 C4460 1.385 . S
C4464 C4463 1.374 . S
C4465 C4462 1.499 . S
C4465 C4466 1.373 . S
C4465 C4467 1.389 . S
C4466 H4439 0.950 . S
C4466 C4452 1.377 . S
C4466 C4465 1.373 . S
C4467 C4451 1.377 . S
C4467 C4465 1.389 . S
C4467 C4468 1.524 . S
C4468 C4467 1.524 . S
C4468 C4469 1.397 . S
C4468 C4473 1.363 . S
C4469 H4440 0.950 . S
C4469 C4468 1.397 . S
C4469 C4470 1.334 . S
C4470 H4441 0.950 . S
C4470 C4469 1.334 . S
C4470 C4471 1.287 . S
C4471 C4470 1.287 . S
C4471 C4472 1.524 . S
C4471 H4474 0.999 1_554 S
C4472 H4442 0.950 1_554 S
C4472 C4471 1.524 . S
C4472 C4473 1.415 . S
C4473 H4443 0.950 . S
C4473 C4468 1.363 . S
C4473 C4472 1.415 . S
H4474 C4471 0.999 1_556 S
H4475 C4456 0.913 . S
H4476 C4494 0.951 . S
H4477 C4496 0.951 . S
H4478 C4498 0.950 . S
H4479 C4499 0.950 . S
H4480 C4501 0.950 . S
H4481 C4504 0.950 . S
H4482 C4505 0.950 . S
H4483 C4507 0.950 . S
H4484 C4508 0.950 . S
H4485 C4509 0.951 . S
H4486 C4511 0.951 . S
H4487 C4513 0.950 . S
H4488 C4514 0.950 . S
H4489 C4516 0.950 . S
H4490 C4519 0.950 . S
H4491 C4520 0.950 . S
H4492 C4522 0.950 . S
H4493 C4523 0.950 . S
C4494 H4476 0.951 . S
C4494 C4495 1.366 . S
C4494 C4496 1.388 . S
C4495 C4494 1.366 . S
C4495 C4499 1.385 . S
C4496 H4477 0.951 . S
C4496 C4494 1.388 . S
C4496 C4497 1.366 . S
C4497 C4496 1.366 . S
C4497 C4498 1.414 . S
C4497 C4500 1.499 . S
C4498 H4478 0.950 . S
C4498 C4497 1.414 . S
C4498 C4499 1.374 . S
C4499 H4479 0.950 . S
C4499 C4495 1.385 . S
C4499 C4498 1.374 . S
C4500 C4497 1.499 . S
C4500 C4501 1.373 . S
C4500 C4502 1.389 . S
C4501 H4480 0.950 . S
C4501 C4500 1.373 . S
C4501 C4517 1.377 . S
C4502 C4500 1.389 . S
C4502 C4503 1.524 . S
C4502 C4516 1.377 . S
C4503 C4502 1.524 . S
C4503 C4504 1.397 . S
C4503 C4508 1.363 . S
C4504 H4481 0.950 . S
C4504 C4503 1.397 . S
C4504 C4505 1.334 . S
C4505 H4482 0.950 . S
C4505 C4504 1.334 . S
C4505 C4506 1.287 . S
C4506 C4505 1.287 . S
C4506 C4507 1.524 . S
C4506 H4525 0.913 . S
C4507 H4483 0.950 . S
C4507 C4506 1.524 . S
C4507 C4508 1.415 . S
C4508 H4484 0.950 . S
C4508 C4503 1.363 . S
C4508 C4507 1.415 . S
C4509 H4485 0.951 . S
C4509 C4510 1.366 . S
C4509 C4511 1.388 . S
C4510 C4509 1.366 . S
C4510 C4514 1.385 . S
C4511 H4486 0.951 . S
C4511 C4509 1.388 . S
C4511 C4512 1.366 . S
C4512 C4511 1.366 . S
C4512 C4513 1.414 . S
C4512 C4515 1.499 . S
C4513 H4487 0.950 . S
C4513 C4512 1.414 . S
C4513 C4514 1.374 . S
C4514 H4488 0.950 . S
C4514 C4510 1.385 . S
C4514 C4513 1.374 . S
C4515 C4512 1.499 . S
C4515 C4516 1.373 . S
C4515 C4517 1.389 . S
C4516 H4489 0.950 . S
C4516 C4502 1.377 . S
C4516 C4515 1.373 . S
C4517 C4501 1.377 . S
C4517 C4515 1.389 . S
C4517 C4518 1.524 . S
C4518 C4517 1.524 . S
C4518 C4519 1.397 . S
C4518 C4523 1.363 . S
C4519 H4490 0.950 . S
C4519 C4518 1.397 . S
C4519 C4520 1.334 . S
C4520 H4491 0.950 . S
C4520 C4519 1.334 . S
C4520 C4521 1.287 . S
C4521 C4520 1.287 . S
C4521 C4522 1.524 . S
C4521 H4524 0.999 . S
C4522 H4492 0.950 . S
C4522 C4521 1.524 . S
C4522 C4523 1.415 . S
C4523 H4493 0.950 . S
C4523 C4518 1.363 . S
C4523 C4522 1.415 . S
H4524 C4521 0.999 . S
H4525 C4506 0.913 . S
H4526 C4544 0.951 . S
H4527 C4546 0.951 . S
H4528 C4548 0.950 . S
H4529 C4549 0.950 . S
H4530 C4551 0.950 . S
H4531 C4554 0.950 . S
H4532 C4555 0.950 . S
H4533 C4557 0.950 . S
H4534 C4558 0.950 . S
H4535 C4559 0.951 . S
H4536 C4561 0.951 . S
H4537 C4563 0.950 . S
H4538 C4564 0.950 . S
H4539 C4566 0.950 . S
H4540 C4569 0.950 . S
H4541 C4570 0.950 . S
H4542 C4572 0.950 . S
H4543 C4573 0.950 . S
C4544 H4526 0.951 . S
C4544 C4545 1.366 . S
C4544 C4546 1.388 . S
C4545 C4544 1.366 . S
C4545 C4549 1.385 . S
C4546 H4527 0.951 . S
C4546 C4544 1.388 . S
C4546 C4547 1.366 . S
C4547 C4546 1.366 . S
C4547 C4548 1.414 . S
C4547 C4550 1.499 . S
C4548 H4528 0.950 . S
C4548 C4547 1.414 . S
C4548 C4549 1.374 . S
C4549 H4529 0.950 . S
C4549 C4545 1.385 . S
C4549 C4548 1.374 . S
C4550 C4547 1.499 . S
C4550 C4551 1.373 1_545 S
C4550 C4552 1.389 . S
C4551 H4530 0.950 . S
C4551 C4550 1.373 1_565 S
C4551 C4567 1.377 . S
C4552 C4550 1.389 . S
C4552 C4553 1.524 . S
C4552 C4566 1.377 1_545 S
C4553 C4552 1.524 . S
C4553 C4554 1.397 . S
C4553 C4558 1.363 . S
C4554 H4531 0.950 . S
C4554 C4553 1.397 . S
C4554 C4555 1.334 . S
C4555 H4532 0.950 . S
C4555 C4554 1.334 . S
C4555 C4556 1.287 . S
C4556 C4555 1.287 . S
C4556 C4557 1.524 . S
C4556 H4575 0.913 . S
C4557 H4533 0.950 . S
C4557 C4556 1.524 . S
C4557 C4558 1.415 . S
C4558 H4534 0.950 . S
C4558 C4553 1.363 . S
C4558 C4557 1.415 . S
C4559 H4535 0.951 . S
C4559 C4560 1.366 . S
C4559 C4561 1.388 . S
C4560 C4559 1.366 . S
C4560 C4564 1.385 . S
C4561 H4536 0.951 . S
C4561 C4559 1.388 . S
C4561 C4562 1.366 . S
C4562 C4561 1.366 . S
C4562 C4563 1.414 . S
C4562 C4565 1.499 . S
C4563 H4537 0.950 . S
C4563 C4562 1.414 . S
C4563 C4564 1.374 . S
C4564 H4538 0.950 . S
C4564 C4560 1.385 . S
C4564 C4563 1.374 . S
C4565 C4562 1.499 . S
C4565 C4566 1.373 . S
C4565 C4567 1.389 . S
C4566 H4539 0.950 . S
C4566 C4552 1.377 1_565 S
C4566 C4565 1.373 . S
C4567 C4551 1.377 . S
C4567 C4565 1.389 . S
C4567 C4568 1.524 . S
C4568 C4567 1.524 . S
C4568 C4569 1.397 . S
C4568 C4573 1.363 . S
C4569 H4540 0.950 . S
C4569 C4568 1.397 . S
C4569 C4570 1.334 . S
C4570 H4541 0.950 . S
C4570 C4569 1.334 . S
C4570 C4571 1.287 . S
C4571 C4570 1.287 . S
C4571 C4572 1.524 . S
C4571 H4574 0.999 . S
C4572 H4542 0.950 . S
C4572 C4571 1.524 . S
C4572 C4573 1.415 . S
C4573 H4543 0.950 . S
C4573 C4568 1.363 . S
C4573 C4572 1.415 . S
H4574 C4571 0.999 . S
H4575 C4556 0.913 . S
H4576 C4594 0.951 . S
H4577 C4596 0.951 . S
H4578 C4598 0.950 . S
H4579 C4599 0.950 . S
H4580 C4601 0.950 . S
H4581 C4604 0.950 . S
H4582 C4605 0.950 . S
H4583 C4607 0.950 . S
H4584 C4608 0.950 . S
H4585 C4609 0.951 . S
H4586 C4611 0.951 . S
H4587 C4613 0.950 . S
H4588 C4614 0.950 . S
H4589 C4616 0.950 . S
H4590 C4619 0.950 . S
H4591 C4620 0.950 . S
H4592 C4622 0.950 . S
H4593 C4623 0.950 . S
C4594 H4576 0.951 . S
C4594 C4595 1.366 . S
C4594 C4596 1.388 . S
C4595 C4594 1.366 . S
C4595 C4599 1.385 . S
C4596 H4577 0.951 . S
C4596 C4594 1.388 . S
C4596 C4597 1.366 . S
C4597 C4596 1.366 . S
C4597 C4598 1.414 . S
C4597 C4600 1.499 . S
C4598 H4578 0.950 . S
C4598 C4597 1.414 . S
C4598 C4599 1.374 . S
C4599 H4579 0.950 . S
C4599 C4595 1.385 . S
C4599 C4598 1.374 . S
C4600 C4597 1.499 . S
C4600 C4601 1.373 . S
C4600 C4602 1.389 . S
C4601 H4580 0.950 . S
C4601 C4600 1.373 . S
C4601 C4617 1.377 . S
C4602 C4600 1.389 . S
C4602 C4603 1.524 . S
C4602 C4616 1.377 . S
C4603 C4602 1.524 . S
C4603 C4604 1.397 . S
C4603 C4608 1.363 . S
C4604 H4581 0.950 . S
C4604 C4603 1.397 . S
C4604 C4605 1.334 . S
C4605 H4582 0.950 . S
C4605 C4604 1.334 . S
C4605 C4606 1.287 . S
C4606 C4605 1.287 . S
C4606 C4607 1.524 . S
C4606 H4625 0.913 . S
C4607 H4583 0.950 . S
C4607 C4606 1.524 . S
C4607 C4608 1.415 . S
C4608 H4584 0.950 . S
C4608 C4603 1.363 . S
C4608 C4607 1.415 . S
C4609 H4585 0.951 . S
C4609 C4610 1.366 . S
C4609 C4611 1.388 . S
C4610 C4609 1.366 . S
C4610 C4614 1.385 . S
C4611 H4586 0.951 . S
C4611 C4609 1.388 . S
C4611 C4612 1.366 . S
C4612 C4611 1.366 . S
C4612 C4613 1.414 . S
C4612 C4615 1.499 . S
C4613 H4587 0.950 . S
C4613 C4612 1.414 . S
C4613 C4614 1.374 . S
C4614 H4588 0.950 . S
C4614 C4610 1.385 . S
C4614 C4613 1.374 . S
C4615 C4612 1.499 . S
C4615 C4616 1.373 . S
C4615 C4617 1.389 . S
C4616 H4589 0.950 . S
C4616 C4602 1.377 . S
C4616 C4615 1.373 . S
C4617 C4601 1.377 . S
C4617 C4615 1.389 . S
C4617 C4618 1.524 . S
C4618 C4617 1.524 . S
C4618 C4619 1.397 . S
C4618 C4623 1.363 . S
C4619 H4590 0.950 . S
C4619 C4618 1.397 . S
C4619 C4620 1.334 . S
C4620 H4591 0.950 . S
C4620 C4619 1.334 . S
C4620 C4621 1.287 . S
C4621 C4620 1.287 . S
C4621 C4622 1.524 . S
C4621 H4624 0.999 . S
C4622 H4592 0.950 . S
C4622 C4621 1.524 . S
C4622 C4623 1.415 . S
C4623 H4593 0.950 . S
C4623 C4618 1.363 . S
C4623 C4622 1.415 . S
H4624 C4621 0.999 . S
H4625 C4606 0.913 . S
H4626 C4644 0.951 . S
H4627 C4646 0.951 . S
H4628 C4648 0.950 . S
H4629 C4649 0.950 . S
H4630 C4651 0.950 . S
H4631 C4654 0.950 . S
H4632 C4655 0.950 . S
H4633 C4657 0.950 . S
H4634 C4658 0.950 . S
H4635 C4659 0.951 . S
H4636 C4661 0.951 . S
H4637 C4663 0.950 . S
H4638 C4664 0.950 . S
H4639 C4666 0.950 . S
H4640 C4669 0.950 . S
H4641 C4670 0.950 . S
H4642 C4672 0.950 . S
H4643 C4673 0.950 . S
C4644 H4626 0.951 . S
C4644 C4645 1.366 . S
C4644 C4646 1.388 . S
C4645 C4644 1.366 . S
C4645 C4649 1.385 . S
C4646 H4627 0.951 . S
C4646 C4644 1.388 . S
C4646 C4647 1.366 . S
C4647 C4646 1.366 . S
C4647 C4648 1.414 . S
C4647 C4650 1.499 . S
C4648 H4628 0.950 . S
C4648 C4647 1.414 . S
C4648 C4649 1.374 . S
C4649 H4629 0.950 . S
C4649 C4645 1.385 . S
C4649 C4648 1.374 . S
C4650 C4647 1.499 . S
C4650 C4651 1.373 . S
C4650 C4652 1.389 . S
C4651 H4630 0.950 . S
C4651 C4650 1.373 . S
C4651 C4667 1.377 . S
C4652 C4650 1.389 . S
C4652 C4653 1.524 . S
C4652 C4666 1.377 . S
C4653 C4652 1.524 . S
C4653 C4654 1.397 . S
C4653 C4658 1.363 . S
C4654 H4631 0.950 . S
C4654 C4653 1.397 . S
C4654 C4655 1.334 . S
C4655 H4632 0.950 . S
C4655 C4654 1.334 . S
C4655 C4656 1.287 . S
C4656 C4655 1.287 . S
C4656 C4657 1.524 . S
C4656 H4675 0.913 . S
C4657 H4633 0.950 . S
C4657 C4656 1.524 . S
C4657 C4658 1.415 . S
C4658 H4634 0.950 . S
C4658 C4653 1.363 . S
C4658 C4657 1.415 . S
C4659 H4635 0.951 . S
C4659 C4660 1.366 . S
C4659 C4661 1.388 . S
C4660 C4659 1.366 . S
C4660 C4664 1.385 . S
C4661 H4636 0.951 . S
C4661 C4659 1.388 . S
C4661 C4662 1.366 . S
C4662 C4661 1.366 . S
C4662 C4663 1.414 . S
C4662 C4665 1.499 . S
C4663 H4637 0.950 . S
C4663 C4662 1.414 . S
C4663 C4664 1.374 . S
C4664 H4638 0.950 . S
C4664 C4660 1.385 . S
C4664 C4663 1.374 . S
C4665 C4662 1.499 . S
C4665 C4666 1.373 . S
C4665 C4667 1.389 . S
C4666 H4639 0.950 . S
C4666 C4652 1.377 . S
C4666 C4665 1.373 . S
C4667 C4651 1.377 . S
C4667 C4665 1.389 . S
C4667 C4668 1.524 . S
C4668 C4667 1.524 . S
C4668 C4669 1.397 . S
C4668 C4673 1.363 . S
C4669 H4640 0.950 . S
C4669 C4668 1.397 . S
C4669 C4670 1.334 . S
C4670 H4641 0.950 . S
C4670 C4669 1.334 . S
C4670 C4671 1.287 . S
C4671 C4670 1.287 . S
C4671 C4672 1.524 . S
C4671 H4674 0.999 . S
C4672 H4642 0.950 . S
C4672 C4671 1.524 . S
C4672 C4673 1.415 . S
C4673 H4643 0.950 . S
C4673 C4668 1.363 . S
C4673 C4672 1.415 . S
H4674 C4671 0.999 . S
H4675 C4656 0.913 . S
H4676 C4694 0.951 . S
H4677 C4696 0.951 . S
H4678 C4698 0.950 . S
H4679 C4699 0.950 . S
H4680 C4701 0.950 . S
H4681 C4704 0.950 . S
H4682 C4705 0.950 . S
H4683 C4707 0.950 . S
H4684 C4708 0.950 . S
H4685 C4709 0.951 . S
H4686 C4711 0.951 . S
H4687 C4713 0.950 . S
H4688 C4714 0.950 . S
H4689 C4716 0.950 . S
H4690 C4719 0.950 . S
H4691 C4720 0.950 . S
H4692 C4722 0.950 . S
H4693 C4723 0.932 1_455 S
C4694 H4676 0.951 . S
C4694 C4695 1.366 . S
C4694 C4696 1.388 . S
C4695 C4694 1.366 . S
C4695 C4699 1.385 . S
C4696 H4677 0.951 . S
C4696 C4694 1.388 . S
C4696 C4697 1.366 . S
C4697 C4696 1.366 . S
C4697 C4698 1.414 . S
C4697 C4700 1.499 . S
C4698 H4678 0.950 . S
C4698 C4697 1.414 . S
C4698 C4699 1.374 . S
C4699 H4679 0.950 . S
C4699 C4695 1.385 . S
C4699 C4698 1.374 . S
C4700 C4697 1.499 . S
C4700 C4701 1.373 . S
C4700 C4702 1.389 . S
C4701 H4680 0.950 . S
C4701 C4700 1.373 . S
C4701 C4717 1.377 . S
C4702 C4700 1.389 . S
C4702 C4703 1.524 . S
C4702 C4716 1.377 . S
C4703 C4702 1.524 . S
C4703 C4704 1.397 . S
C4703 C4708 1.363 . S
C4704 H4681 0.950 . S
C4704 C4703 1.397 . S
C4704 C4705 1.334 . S
C4705 H4682 0.950 . S
C4705 C4704 1.334 . S
C4705 C4706 1.287 . S
C4706 C4705 1.287 . S
C4706 C4707 1.524 . S
C4706 H4725 0.913 . S
C4707 H4683 0.950 . S
C4707 C4706 1.524 . S
C4707 C4708 1.415 . S
C4708 H4684 0.950 . S
C4708 C4703 1.363 . S
C4708 C4707 1.415 . S
C4709 H4685 0.951 . S
C4709 C4710 1.366 . S
C4709 C4711 1.388 . S
C4710 C4709 1.366 . S
C4710 C4714 1.385 . S
C4711 H4686 0.951 . S
C4711 C4709 1.388 . S
C4711 C4712 1.366 . S
C4712 C4711 1.366 . S
C4712 C4713 1.414 . S
C4712 C4715 1.499 . S
C4713 H4687 0.950 . S
C4713 C4712 1.414 . S
C4713 C4714 1.374 . S
C4714 H4688 0.950 . S
C4714 C4710 1.385 . S
C4714 C4713 1.374 . S
C4715 C4712 1.499 . S
C4715 C4716 1.373 . S
C4715 C4717 1.389 . S
C4716 H4689 0.950 . S
C4716 C4702 1.377 . S
C4716 C4715 1.373 . S
C4717 C4701 1.377 . S
C4717 C4715 1.389 . S
C4717 C4718 1.524 1_455 S
C4718 C4717 1.524 1_655 S
C4718 C4719 1.397 . S
C4718 C4723 1.363 . S
C4719 H4690 0.950 . S
C4719 C4718 1.397 . S
C4719 C4720 1.334 . S
C4720 H4691 0.950 . S
C4720 C4719 1.334 . S
C4720 C4721 1.287 . S
C4721 C4720 1.287 . S
C4721 C4722 1.524 . S
C4721 H4724 0.999 . S
C4722 H4692 0.950 . S
C4722 C4721 1.524 . S
C4722 C4723 1.415 . S
C4723 H4693 0.932 1_655 S
C4723 C4718 1.363 . S
C4723 C4722 1.415 . S
H4724 C4721 0.999 . S
H4725 C4706 0.913 . S
H4726 C4744 0.951 . S
H4727 C4746 0.951 . S
H4728 C4748 0.950 . S
H4729 C4749 0.950 . S
H4730 C4751 0.950 . S
H4731 C4754 0.950 . S
H4732 C4755 0.950 . S
H4733 C4757 0.950 . S
H4734 C4758 0.950 . S
H4735 C4759 0.951 . S
H4736 C4761 0.951 . S
H4737 C4763 0.950 . S
H4738 C4764 0.950 . S
H4739 C4766 0.950 . S
H4740 C4769 0.950 . S
H4741 C4770 0.950 . S
H4742 C4772 0.950 . S
H4743 C4773 0.950 . S
C4744 H4726 0.951 . S
C4744 C4745 1.366 . S
C4744 C4746 1.388 . S
C4745 C4744 1.366 . S
C4745 C4749 1.385 . S
C4746 H4727 0.951 . S
C4746 C4744 1.388 . S
C4746 C4747 1.366 . S
C4747 C4746 1.366 . S
C4747 C4748 1.414 . S
C4747 C4750 1.499 . S
C4748 H4728 0.950 . S
C4748 C4747 1.414 . S
C4748 C4749 1.374 . S
C4749 H4729 0.950 . S
C4749 C4745 1.385 . S
C4749 C4748 1.374 . S
C4750 C4747 1.499 . S
C4750 C4751 1.373 . S
C4750 C4752 1.389 . S
C4751 H4730 0.950 . S
C4751 C4750 1.373 . S
C4751 C4767 1.377 . S
C4752 C4750 1.389 . S
C4752 C4753 1.524 . S
C4752 C4766 1.377 . S
C4753 C4752 1.524 . S
C4753 C4754 1.397 . S
C4753 C4758 1.363 . S
C4754 H4731 0.950 . S
C4754 C4753 1.397 . S
C4754 C4755 1.334 . S
C4755 H4732 0.950 . S
C4755 C4754 1.334 . S
C4755 C4756 1.287 . S
C4756 C4755 1.287 . S
C4756 C4757 1.524 . S
C4756 H4775 0.913 . S
C4757 H4733 0.950 . S
C4757 C4756 1.524 . S
C4757 C4758 1.415 . S
C4758 H4734 0.950 . S
C4758 C4753 1.363 . S
C4758 C4757 1.415 . S
C4759 H4735 0.951 . S
C4759 C4760 1.366 . S
C4759 C4761 1.388 . S
C4760 C4759 1.366 . S
C4760 C4764 1.385 . S
C4761 H4736 0.951 . S
C4761 C4759 1.388 . S
C4761 C4762 1.366 . S
C4762 C4761 1.366 . S
C4762 C4763 1.414 . S
C4762 C4765 1.499 . S
C4763 H4737 0.950 . S
C4763 C4762 1.414 . S
C4763 C4764 1.374 . S
C4764 H4738 0.950 . S
C4764 C4760 1.385 . S
C4764 C4763 1.374 . S
C4765 C4762 1.499 . S
C4765 C4766 1.373 . S
C4765 C4767 1.389 . S
C4766 H4739 0.950 . S
C4766 C4752 1.377 . S
C4766 C4765 1.373 . S
C4767 C4751 1.377 . S
C4767 C4765 1.389 . S
C4767 C4768 1.524 . S
C4768 C4767 1.524 . S
C4768 C4769 1.397 . S
C4768 C4773 1.363 . S
C4769 H4740 0.950 . S
C4769 C4768 1.397 . S
C4769 C4770 1.334 . S
C4770 H4741 0.950 . S
C4770 C4769 1.334 . S
C4770 C4771 1.287 . S
C4771 C4770 1.287 . S
C4771 C4772 1.524 . S
C4771 H4774 0.999 . S
C4772 H4742 0.950 . S
C4772 C4771 1.524 . S
C4772 C4773 1.415 . S
C4773 H4743 0.950 . S
C4773 C4768 1.363 . S
C4773 C4772 1.415 . S
H4774 C4771 0.999 . S
H4775 C4756 0.913 . S
H4776 C4794 0.951 . S
H4777 C4796 0.951 . S
H4778 C4798 0.950 . S
H4779 C4799 0.950 . S
H4780 C4801 0.950 . S
H4781 C4804 0.950 . S
H4782 C4805 0.950 . S
H4783 C4807 0.950 . S
H4784 C4808 0.950 . S
H4785 C4809 0.951 . S
H4786 C4811 0.951 1_556 S
H4787 C4813 0.950 . S
H4788 C4814 0.950 . S
H4789 C4816 0.950 . S
H4790 C4819 0.950 . S
H4791 C4820 0.950 . S
H4792 C4822 0.950 . S
H4793 C4823 0.950 . S
C4794 H4776 0.951 . S
C4794 C4795 1.366 . S
C4794 C4796 1.388 . S
C4795 C4794 1.366 . S
C4795 C4799 1.385 . S
C4796 H4777 0.951 . S
C4796 C4794 1.388 . S
C4796 C4797 1.366 . S
C4797 C4796 1.366 . S
C4797 C4798 1.414 . S
C4797 C4800 1.499 . S
C4798 H4778 0.950 . S
C4798 C4797 1.414 . S
C4798 C4799 1.374 . S
C4799 H4779 0.950 . S
C4799 C4795 1.385 . S
C4799 C4798 1.374 . S
C4800 C4797 1.499 . S
C4800 C4801 1.373 . S
C4800 C4802 1.389 1_556 S
C4801 H4780 0.950 . S
C4801 C4800 1.373 . S
C4801 C4817 1.377 . S
C4802 C4800 1.389 1_554 S
C4802 C4803 1.524 . S
C4802 C4816 1.377 . S
C4803 C4802 1.524 . S
C4803 C4804 1.397 . S
C4803 C4808 1.363 . S
C4804 H4781 0.950 . S
C4804 C4803 1.397 . S
C4804 C4805 1.334 . S
C4805 H4782 0.950 . S
C4805 C4804 1.334 . S
C4805 C4806 1.287 . S
C4806 C4805 1.287 . S
C4806 C4807 1.524 . S
C4806 H4825 0.913 . S
C4807 H4783 0.950 . S
C4807 C4806 1.524 . S
C4807 C4808 1.415 . S
C4808 H4784 0.950 . S
C4808 C4803 1.363 . S
C4808 C4807 1.415 . S
C4809 H4785 0.951 . S
C4809 C4810 1.366 . S
C4809 C4811 1.388 . S
C4810 C4809 1.366 . S
C4810 C4814 1.385 . S
C4811 H4786 0.951 1_554 S
C4811 C4809 1.388 . S
C4811 C4812 1.366 . S
C4812 C4811 1.366 . S
C4812 C4813 1.414 . S
C4812 C4815 1.497 1_554 S
C4813 H4787 0.950 . S
C4813 C4812 1.414 . S
C4813 C4814 1.374 . S
C4814 H4788 0.950 . S
C4814 C4810 1.385 . S
C4814 C4813 1.374 . S
C4815 C4812 1.497 1_556 S
C4815 C4816 1.371 1_556 S
C4815 C4817 1.394 . S
C4816 H4789 0.950 . S
C4816 C4802 1.377 . S
C4816 C4815 1.371 1_554 S
C4817 C4801 1.377 . S
C4817 C4815 1.394 . S
C4817 C4818 1.524 . S
C4818 C4817 1.524 . S
C4818 C4819 1.397 . S
C4818 C4823 1.363 . S
C4819 H4790 0.950 . S
C4819 C4818 1.397 . S
C4819 C4820 1.334 . S
C4820 H4791 0.950 . S
C4820 C4819 1.334 . S
C4820 C4821 1.287 . S
C4821 C4820 1.287 . S
C4821 C4822 1.524 . S
C4821 H4824 0.999 . S
C4822 H4792 0.950 . S
C4822 C4821 1.524 . S
C4822 C4823 1.415 . S
C4823 H4793 0.950 . S
C4823 C4818 1.363 . S
C4823 C4822 1.415 . S
H4824 C4821 0.999 . S
H4825 C4806 0.913 . S
H4826 C4844 0.951 . S
H4827 C4846 0.951 . S
H4828 C4848 0.950 . S
H4829 C4849 0.950 . S
H4830 C4851 0.950 . S
H4831 C4854 0.950 . S
H4832 C4855 0.950 . S
H4833 C4857 0.950 . S
H4834 C4858 0.950 . S
H4835 C4859 0.951 . S
H4836 C4861 0.951 . S
H4837 C4863 0.950 . S
H4838 C4864 0.950 . S
H4839 C4866 0.950 . S
H4840 C4869 0.950 . S
H4841 C4870 0.950 . S
H4842 C4872 0.950 . S
H4843 C4873 0.950 . S
C4844 H4826 0.951 . S
C4844 C4845 1.366 . S
C4844 C4846 1.388 . S
C4845 C4844 1.366 . S
C4845 C4849 1.385 . S
C4846 H4827 0.951 . S
C4846 C4844 1.388 . S
C4846 C4847 1.366 . S
C4847 C4846 1.366 . S
C4847 C4848 1.414 . S
C4847 C4850 1.499 . S
C4848 H4828 0.950 . S
C4848 C4847 1.414 . S
C4848 C4849 1.374 . S
C4849 H4829 0.950 . S
C4849 C4845 1.385 . S
C4849 C4848 1.374 . S
C4850 C4847 1.499 . S
C4850 C4851 1.373 . S
C4850 C4852 1.389 . S
C4851 H4830 0.950 . S
C4851 C4850 1.373 . S
C4851 C4867 1.377 . S
C4852 C4850 1.389 . S
C4852 C4853 1.524 . S
C4852 C4866 1.377 . S
C4853 C4852 1.524 . S
C4853 C4854 1.397 . S
C4853 C4858 1.363 . S
C4854 H4831 0.950 . S
C4854 C4853 1.397 . S
C4854 C4855 1.334 . S
C4855 H4832 0.950 . S
C4855 C4854 1.334 . S
C4855 C4856 1.287 . S
C4856 C4855 1.287 . S
C4856 C4857 1.524 . S
C4856 H4875 0.913 . S
C4857 H4833 0.950 . S
C4857 C4856 1.524 . S
C4857 C4858 1.415 . S
C4858 H4834 0.950 . S
C4858 C4853 1.363 . S
C4858 C4857 1.415 . S
C4859 H4835 0.951 . S
C4859 C4860 1.366 . S
C4859 C4861 1.388 . S
C4860 C4859 1.366 . S
C4860 C4864 1.385 . S
C4861 H4836 0.951 . S
C4861 C4859 1.388 . S
C4861 C4862 1.366 . S
C4862 C4861 1.366 . S
C4862 C4863 1.414 . S
C4862 C4865 1.499 . S
C4863 H4837 0.950 . S
C4863 C4862 1.414 . S
C4863 C4864 1.374 . S
C4864 H4838 0.950 . S
C4864 C4860 1.385 . S
C4864 C4863 1.374 . S
C4865 C4862 1.499 . S
C4865 C4866 1.373 . S
C4865 C4867 1.389 . S
C4866 H4839 0.950 . S
C4866 C4852 1.377 . S
C4866 C4865 1.373 . S
C4867 C4851 1.377 . S
C4867 C4865 1.389 . S
C4867 C4868 1.524 . S
C4868 C4867 1.524 . S
C4868 C4869 1.397 . S
C4868 C4873 1.363 . S
C4869 H4840 0.950 . S
C4869 C4868 1.397 . S
C4869 C4870 1.334 . S
C4870 H4841 0.950 . S
C4870 C4869 1.334 . S
C4870 C4871 1.287 . S
C4871 C4870 1.287 . S
C4871 C4872 1.524 . S
C4871 H4874 0.999 . S
C4872 H4842 0.950 . S
C4872 C4871 1.524 . S
C4872 C4873 1.415 . S
C4873 H4843 0.950 . S
C4873 C4868 1.363 . S
C4873 C4872 1.415 . S
H4874 C4871 0.999 . S
H4875 C4856 0.913 . S
H4876 C4894 0.951 . S
H4877 C4896 0.951 . S
H4878 C4898 0.950 . S
H4879 C4899 0.950 . S
H4880 C4901 0.950 . S
H4881 C4904 0.950 . S
H4882 C4905 0.957 . S
H4883 C4907 0.950 . S
H4884 C4908 0.950 . S
H4885 C4909 0.951 . S
H4886 C4911 0.951 . S
H4887 C4913 0.950 . S
H4888 C4914 0.950 . S
H4889 C4916 0.950 . S
H4890 C4919 0.950 . S
H4891 C4920 0.950 . S
H4892 C4922 0.950 . S
H4893 C4923 0.950 . S
C4894 H4876 0.951 . S
C4894 C4895 1.366 . S
C4894 C4896 1.388 . S
C4895 C4894 1.366 . S
C4895 C4899 1.385 . S
C4896 H4877 0.951 . S
C4896 C4894 1.388 . S
C4896 C4897 1.366 . S
C4897 C4896 1.366 . S
C4897 C4898 1.414 . S
C4897 C4900 1.499 . S
C4898 H4878 0.950 . S
C4898 C4897 1.414 . S
C4898 C4899 1.374 . S
C4899 H4879 0.950 . S
C4899 C4895 1.385 . S
C4899 C4898 1.374 . S
C4900 C4897 1.499 . S
C4900 C4901 1.373 . S
C4900 C4902 1.389 . S
C4901 H4880 0.950 . S
C4901 C4900 1.373 . S
C4901 C4917 1.377 . S
C4902 C4900 1.389 . S
C4902 C4903 1.524 . S
C4902 C4916 1.377 . S
C4903 C4902 1.524 . S
C4903 C4904 1.397 . S
C4903 C4908 1.363 . S
C4904 H4881 0.950 . S
C4904 C4903 1.397 . S
C4904 C4905 1.351 . S
C4905 H4882 0.957 . S
C4905 C4904 1.351 . S
C4905 C4906 1.265 1_455 S
C4906 C4905 1.265 1_655 S
C4906 C4907 1.524 . S
C4906 H4925 0.913 . S
C4907 H4883 0.950 . S
C4907 C4906 1.524 . S
C4907 C4908 1.415 1_655 S
C4908 H4884 0.950 . S
C4908 C4903 1.363 . S
C4908 C4907 1.415 1_455 S
C4909 H4885 0.951 . S
C4909 C4910 1.366 . S
C4909 C4911 1.388 . S
C4910 C4909 1.366 . S
C4910 C4914 1.385 . S
C4911 H4886 0.951 . S
C4911 C4909 1.388 . S
C4911 C4912 1.366 . S
C4912 C4911 1.366 . S
C4912 C4913 1.414 . S
C4912 C4915 1.499 . S
C4913 H4887 0.950 . S
C4913 C4912 1.414 . S
C4913 C4914 1.374 . S
C4914 H4888 0.950 . S
C4914 C4910 1.385 . S
C4914 C4913 1.374 . S
C4915 C4912 1.499 . S
C4915 C4916 1.373 . S
C4915 C4917 1.389 . S
C4916 H4889 0.950 . S
C4916 C4902 1.377 . S
C4916 C4915 1.373 . S
C4917 C4901 1.377 . S
C4917 C4915 1.389 . S
C4917 C4918 1.524 . S
C4918 C4917 1.524 . S
C4918 C4919 1.397 . S
C4918 C4923 1.363 . S
C4919 H4890 0.950 . S
C4919 C4918 1.397 . S
C4919 C4920 1.334 . S
C4920 H4891 0.950 . S
C4920 C4919 1.334 . S
C4920 C4921 1.287 . S
C4921 C4920 1.287 . S
C4921 C4922 1.524 . S
C4921 H4924 0.999 . S
C4922 H4892 0.950 . S
C4922 C4921 1.524 . S
C4922 C4923 1.415 . S
C4923 H4893 0.950 . S
C4923 C4918 1.363 . S
C4923 C4922 1.415 . S
H4924 C4921 0.999 . S
H4925 C4906 0.913 . S
H4926 C4944 0.951 . S
H4927 C4946 0.951 . S
H4928 C4948 0.950 . S
H4929 C4949 0.950 . S
H4930 C4951 0.950 . S
H4931 C4954 0.950 . S
H4932 C4955 0.950 . S
H4933 C4957 0.950 . S
H4934 C4958 0.950 . S
H4935 C4959 0.951 . S
H4936 C4961 0.951 . S
H4937 C4963 0.950 . S
H4938 C4964 0.950 . S
H4939 C4966 0.950 . S
H4940 C4969 0.950 . S
H4941 C4970 0.950 . S
H4942 C4972 0.950 . S
H4943 C4973 0.950 . S
C4944 H4926 0.951 . S
C4944 C4945 1.366 . S
C4944 C4946 1.388 . S
C4945 C4944 1.366 . S
C4945 C4949 1.385 . S
C4946 H4927 0.951 . S
C4946 C4944 1.388 . S
C4946 C4947 1.366 . S
C4947 C4946 1.366 . S
C4947 C4948 1.414 . S
C4947 C4950 1.499 . S
C4948 H4928 0.950 . S
C4948 C4947 1.414 . S
C4948 C4949 1.374 . S
C4949 H4929 0.950 . S
C4949 C4945 1.385 . S
C4949 C4948 1.374 . S
C4950 C4947 1.499 . S
C4950 C4951 1.373 . S
C4950 C4952 1.389 . S
C4951 H4930 0.950 . S
C4951 C4950 1.373 . S
C4951 C4967 1.377 . S
C4952 C4950 1.389 . S
C4952 C4953 1.524 . S
C4952 C4966 1.377 . S
C4953 C4952 1.524 . S
C4953 C4954 1.397 . S
C4953 C4958 1.363 . S
C4954 H4931 0.950 . S
C4954 C4953 1.397 . S
C4954 C4955 1.334 . S
C4955 H4932 0.950 . S
C4955 C4954 1.334 . S
C4955 C4956 1.287 . S
C4956 C4955 1.287 . S
C4956 C4957 1.524 . S
C4956 H4975 0.913 . S
C4957 H4933 0.950 . S
C4957 C4956 1.524 . S
C4957 C4958 1.415 . S
C4958 H4934 0.950 . S
C4958 C4953 1.363 . S
C4958 C4957 1.415 . S
C4959 H4935 0.951 . S
C4959 C4960 1.366 . S
C4959 C4961 1.388 . S
C4960 C4959 1.366 . S
C4960 C4964 1.385 . S
C4961 H4936 0.951 . S
C4961 C4959 1.388 . S
C4961 C4962 1.366 . S
C4962 C4961 1.366 . S
C4962 C4963 1.414 . S
C4962 C4965 1.499 . S
C4963 H4937 0.950 . S
C4963 C4962 1.414 . S
C4963 C4964 1.374 . S
C4964 H4938 0.950 . S
C4964 C4960 1.385 . S
C4964 C4963 1.374 . S
C4965 C4962 1.499 . S
C4965 C4966 1.373 . S
C4965 C4967 1.389 . S
C4966 H4939 0.950 . S
C4966 C4952 1.377 . S
C4966 C4965 1.373 . S
C4967 C4951 1.377 . S
C4967 C4965 1.389 . S
C4967 C4968 1.524 . S
C4968 C4967 1.524 . S
C4968 C4969 1.397 . S
C4968 C4973 1.363 . S
C4969 H4940 0.950 . S
C4969 C4968 1.397 . S
C4969 C4970 1.334 . S
C4970 H4941 0.950 . S
C4970 C4969 1.334 . S
C4970 C4971 1.287 . S
C4971 C4970 1.287 . S
C4971 C4972 1.524 . S
C4971 H4974 0.999 . S
C4972 H4942 0.950 . S
C4972 C4971 1.524 . S
C4972 C4973 1.415 . S
C4973 H4943 0.950 . S
C4973 C4968 1.363 . S
C4973 C4972 1.415 . S
H4974 C4971 0.999 . S
H4975 C4956 0.913 . S
H4976 C4994 0.951 . S
H4977 C4996 0.951 . S
H4978 C4998 0.950 . S
H4979 C4999 0.950 . S
H4980 C5001 0.950 . S
H4981 C5004 0.950 . S
H4982 C5005 0.950 . S
H4983 C5007 0.950 . S
H4984 C5008 0.950 . S
H4985 C5009 0.951 . S
H4986 C5011 0.951 . S
H4987 C5013 0.950 . S
H4988 C5014 0.950 . S
H4989 C5016 0.950 . S
H4990 C5019 0.950 . S
H4991 C5020 0.950 . S
H4992 C5022 0.950 . S
H4993 C5023 0.950 . S
C4994 H4976 0.951 . S
C4994 C4995 1.366 . S
C4994 C4996 1.388 . S
C4995 C4994 1.366 . S
C4995 C4999 1.385 . S
C4996 H4977 0.951 . S
C4996 C4994 1.388 . S
C4996 C4997 1.366 . S
C4997 C4996 1.366 . S
C4997 C4998 1.414 . S
C4997 C5000 1.499 . S
C4998 H4978 0.950 . S
C4998 C4997 1.414 . S
C4998 C4999 1.374 . S
C4999 H4979 0.950 . S
C4999 C4995 1.385 . S
C4999 C4998 1.374 . S
C5000 C4997 1.499 . S
C5000 C5001 1.373 . S
C5000 C5002 1.389 . S
C5001 H4980 0.950 . S
C5001 C5000 1.373 . S
C5001 C5017 1.377 . S
C5002 C5000 1.389 . S
C5002 C5003 1.524 . S
C5002 C5016 1.377 . S
C5003 C5002 1.524 . S
C5003 C5004 1.397 . S
C5003 C5008 1.363 . S
C5004 H4981 0.950 . S
C5004 C5003 1.397 . S
C5004 C5005 1.334 . S
C5005 H4982 0.950 . S
C5005 C5004 1.334 . S
C5005 C5006 1.287 . S
C5006 C5005 1.287 . S
C5006 C5007 1.524 . S
C5006 H5025 0.913 . S
C5007 H4983 0.950 . S
C5007 C5006 1.524 . S
C5007 C5008 1.415 . S
C5008 H4984 0.950 . S
C5008 C5003 1.363 . S
C5008 C5007 1.415 . S
C5009 H4985 0.951 . S
C5009 C5010 1.366 . S
C5009 C5011 1.388 . S
C5010 C5009 1.366 . S
C5010 C5014 1.385 . S
C5011 H4986 0.951 . S
C5011 C5009 1.388 . S
C5011 C5012 1.366 . S
C5012 C5011 1.366 . S
C5012 C5013 1.414 . S
C5012 C5015 1.499 . S
C5013 H4987 0.950 . S
C5013 C5012 1.414 . S
C5013 C5014 1.374 . S
C5014 H4988 0.950 . S
C5014 C5010 1.385 . S
C5014 C5013 1.374 . S
C5015 C5012 1.499 . S
C5015 C5016 1.373 . S
C5015 C5017 1.389 . S
C5016 H4989 0.950 . S
C5016 C5002 1.377 . S
C5016 C5015 1.373 . S
C5017 C5001 1.377 . S
C5017 C5015 1.389 . S
C5017 C5018 1.524 . S
C5018 C5017 1.524 . S
C5018 C5019 1.397 . S
C5018 C5023 1.363 . S
C5019 H4990 0.950 . S
C5019 C5018 1.397 . S
C5019 C5020 1.334 . S
C5020 H4991 0.950 . S
C5020 C5019 1.334 . S
C5020 C5021 1.287 . S
C5021 C5020 1.287 . S
C5021 C5022 1.524 . S
C5021 H5024 0.999 . S
C5022 H4992 0.950 . S
C5022 C5021 1.524 . S
C5022 C5023 1.415 . S
C5023 H4993 0.950 . S
C5023 C5018 1.363 . S
C5023 C5022 1.415 . S
H5024 C5021 0.999 . S
H5025 C5006 0.913 . S
H5026 C5044 0.951 . S
H5027 C5046 0.951 . S
H5028 C5048 0.950 . S
H5029 C5049 0.950 . S
H5030 C5051 0.950 . S
H5031 C5054 0.950 . S
H5032 C5055 0.950 . S
H5033 C5057 0.950 . S
H5034 C5058 0.950 . S
H5035 C5059 0.951 . S
H5036 C5061 0.951 . S
H5037 C5063 0.950 . S
H5038 C5064 0.950 . S
H5039 C5066 0.950 . S
H5040 C5069 0.950 . S
H5041 C5070 0.950 . S
H5042 C5072 0.950 . S
H5043 C5073 0.950 . S
C5044 H5026 0.951 . S
C5044 C5045 1.366 . S
C5044 C5046 1.388 . S
C5045 C5044 1.366 . S
C5045 C5049 1.385 . S
C5046 H5027 0.951 . S
C5046 C5044 1.388 . S
C5046 C5047 1.366 . S
C5047 C5046 1.366 . S
C5047 C5048 1.414 . S
C5047 C5050 1.499 . S
C5048 H5028 0.950 . S
C5048 C5047 1.414 . S
C5048 C5049 1.374 . S
C5049 H5029 0.950 . S
C5049 C5045 1.385 . S
C5049 C5048 1.374 . S
C5050 C5047 1.499 . S
C5050 C5051 1.373 . S
C5050 C5052 1.389 . S
C5051 H5030 0.950 . S
C5051 C5050 1.373 . S
C5051 C5067 1.377 . S
C5052 C5050 1.389 . S
C5052 C5053 1.524 . S
C5052 C5066 1.377 . S
C5053 C5052 1.524 . S
C5053 C5054 1.397 . S
C5053 C5058 1.363 . S
C5054 H5031 0.950 . S
C5054 C5053 1.397 . S
C5054 C5055 1.334 . S
C5055 H5032 0.950 . S
C5055 C5054 1.334 . S
C5055 C5056 1.287 . S
C5056 C5055 1.287 . S
C5056 C5057 1.524 . S
C5056 H5075 0.913 . S
C5057 H5033 0.950 . S
C5057 C5056 1.524 . S
C5057 C5058 1.415 . S
C5058 H5034 0.950 . S
C5058 C5053 1.363 . S
C5058 C5057 1.415 . S
C5059 H5035 0.951 . S
C5059 C5060 1.366 . S
C5059 C5061 1.388 . S
C5060 C5059 1.366 . S
C5060 C5064 1.385 . S
C5061 H5036 0.951 . S
C5061 C5059 1.388 . S
C5061 C5062 1.366 . S
C5062 C5061 1.366 . S
C5062 C5063 1.414 . S
C5062 C5065 1.499 . S
C5063 H5037 0.950 . S
C5063 C5062 1.414 . S
C5063 C5064 1.374 . S
C5064 H5038 0.950 . S
C5064 C5060 1.385 . S
C5064 C5063 1.374 . S
C5065 C5062 1.499 . S
C5065 C5066 1.373 . S
C5065 C5067 1.389 . S
C5066 H5039 0.950 . S
C5066 C5052 1.377 . S
C5066 C5065 1.373 . S
C5067 C5051 1.377 . S
C5067 C5065 1.389 . S
C5067 C5068 1.524 . S
C5068 C5067 1.524 . S
C5068 C5069 1.397 . S
C5068 C5073 1.363 . S
C5069 H5040 0.950 . S
C5069 C5068 1.397 . S
C5069 C5070 1.334 . S
C5070 H5041 0.950 . S
C5070 C5069 1.334 . S
C5070 C5071 1.287 . S
C5071 C5070 1.287 . S
C5071 C5072 1.524 . S
C5071 H5074 0.999 . S
C5072 H5042 0.950 . S
C5072 C5071 1.524 . S
C5072 C5073 1.415 . S
C5073 H5043 0.950 . S
C5073 C5068 1.363 . S
C5073 C5072 1.415 . S
H5074 C5071 0.999 . S
H5075 C5056 0.913 . S
H5076 C5094 0.951 . S
H5077 C5096 0.951 . S
H5078 C5098 0.950 . S
H5079 C5099 0.950 . S
H5080 C5101 0.950 . S
H5081 C5104 0.950 . S
H5082 C5105 0.950 . S
H5083 C5107 0.950 . S
H5084 C5108 0.950 . S
H5085 C5109 0.951 . S
H5086 C5111 0.951 . S
H5087 C5113 0.950 . S
H5088 C5114 0.950 . S
H5089 C5116 0.950 . S
H5090 C5119 0.950 . S
H5091 C5120 0.950 . S
H5092 C5122 0.950 . S
H5093 C5123 0.950 . S
C5094 H5076 0.951 . S
C5094 C5095 1.366 . S
C5094 C5096 1.388 . S
C5095 C5094 1.366 . S
C5095 C5099 1.385 . S
C5096 H5077 0.951 . S
C5096 C5094 1.388 . S
C5096 C5097 1.366 . S
C5097 C5096 1.366 . S
C5097 C5098 1.414 . S
C5097 C5100 1.499 . S
C5098 H5078 0.950 . S
C5098 C5097 1.414 . S
C5098 C5099 1.374 . S
C5099 H5079 0.950 . S
C5099 C5095 1.385 . S
C5099 C5098 1.374 . S
C5100 C5097 1.499 . S
C5100 C5101 1.373 . S
C5100 C5102 1.389 . S
C5101 H5080 0.950 . S
C5101 C5100 1.373 . S
C5101 C5117 1.377 1_655 S
C5102 C5100 1.389 . S
C5102 C5103 1.524 . S
C5102 C5116 1.377 . S
C5103 C5102 1.524 . S
C5103 C5104 1.397 . S
C5103 C5108 1.363 . S
C5104 H5081 0.950 . S
C5104 C5103 1.397 . S
C5104 C5105 1.334 . S
C5105 H5082 0.950 . S
C5105 C5104 1.334 . S
C5105 C5106 1.287 . S
C5106 C5105 1.287 . S
C5106 C5107 1.524 . S
C5106 H5125 0.913 . S
C5107 H5083 0.950 . S
C5107 C5106 1.524 . S
C5107 C5108 1.415 . S
C5108 H5084 0.950 . S
C5108 C5103 1.363 . S
C5108 C5107 1.415 . S
C5109 H5085 0.951 . S
C5109 C5110 1.366 . S
C5109 C5111 1.388 1_554 S
C5110 C5109 1.366 . S
C5110 C5114 1.385 1_554 S
C5111 H5086 0.951 . S
C5111 C5109 1.388 1_556 S
C5111 C5112 1.366 . S
C5112 C5111 1.366 . S
C5112 C5113 1.414 . S
C5112 C5115 1.499 . S
C5113 H5087 0.950 . S
C5113 C5112 1.414 . S
C5113 C5114 1.374 . S
C5114 H5088 0.950 . S
C5114 C5110 1.385 1_556 S
C5114 C5113 1.374 . S
C5115 C5112 1.499 . S
C5115 C5116 1.373 1_455 S
C5115 C5117 1.389 . S
C5116 H5089 0.950 . S
C5116 C5102 1.377 . S
C5116 C5115 1.373 1_655 S
C5117 C5101 1.377 1_455 S
C5117 C5115 1.389 . S
C5117 C5118 1.524 . S
C5118 C5117 1.524 . S
C5118 C5119 1.397 . S
C5118 C5123 1.363 . S
C5119 H5090 0.950 . S
C5119 C5118 1.397 . S
C5119 C5120 1.334 . S
C5120 H5091 0.950 . S
C5120 C5119 1.334 . S
C5120 C5121 1.287 . S
C5121 C5120 1.287 . S
C5121 C5122 1.524 . S
C5121 H5124 0.999 . S
C5122 H5092 0.950 . S
C5122 C5121 1.524 . S
C5122 C5123 1.415 . S
C5123 H5093 0.950 . S
C5123 C5118 1.363 . S
C5123 C5122 1.415 . S
H5124 C5121 0.999 . S
H5125 C5106 0.913 . S
H5126 C5144 0.951 . S
H5127 C5146 0.951 . S
H5128 C5148 0.950 . S
H5129 C5149 0.950 . S
H5130 C5151 0.950 . S
H5131 C5154 0.950 . S
H5132 C5155 0.950 . S
H5133 C5157 0.950 . S
H5134 C5158 0.950 . S
H5135 C5159 0.951 . S
H5136 C5161 0.951 . S
H5137 C5163 0.950 . S
H5138 C5164 0.950 . S
H5139 C5166 0.950 . S
H5140 C5169 0.950 . S
H5141 C5170 0.950 . S
H5142 C5172 0.950 . S
H5143 C5173 0.950 . S
C5144 H5126 0.951 . S
C5144 C5145 1.366 . S
C5144 C5146 1.388 . S
C5145 C5144 1.366 . S
C5145 C5149 1.385 . S
C5146 H5127 0.951 . S
C5146 C5144 1.388 . S
C5146 C5147 1.366 . S
C5147 C5146 1.366 . S
C5147 C5148 1.414 . S
C5147 C5150 1.499 . S
C5148 H5128 0.950 . S
C5148 C5147 1.414 . S
C5148 C5149 1.374 . S
C5149 H5129 0.950 . S
C5149 C5145 1.385 . S
C5149 C5148 1.374 . S
C5150 C5147 1.499 . S
C5150 C5151 1.373 . S
C5150 C5152 1.389 . S
C5151 H5130 0.950 . S
C5151 C5150 1.373 . S
C5151 C5167 1.377 . S
C5152 C5150 1.389 . S
C5152 C5153 1.524 . S
C5152 C5166 1.377 . S
C5153 C5152 1.524 . S
C5153 C5154 1.397 . S
C5153 C5158 1.363 . S
C5154 H5131 0.950 . S
C5154 C5153 1.397 . S
C5154 C5155 1.334 . S
C5155 H5132 0.950 . S
C5155 C5154 1.334 . S
C5155 C5156 1.287 . S
C5156 C5155 1.287 . S
C5156 C5157 1.524 . S
C5156 H5175 0.913 . S
C5157 H5133 0.950 . S
C5157 C5156 1.524 . S
C5157 C5158 1.415 . S
C5158 H5134 0.950 . S
C5158 C5153 1.363 . S
C5158 C5157 1.415 . S
C5159 H5135 0.951 . S
C5159 C5160 1.366 . S
C5159 C5161 1.388 . S
C5160 C5159 1.366 . S
C5160 C5164 1.385 . S
C5161 H5136 0.951 . S
C5161 C5159 1.388 . S
C5161 C5162 1.366 . S
C5162 C5161 1.366 . S
C5162 C5163 1.414 . S
C5162 C5165 1.499 . S
C5163 H5137 0.950 . S
C5163 C5162 1.414 . S
C5163 C5164 1.374 . S
C5164 H5138 0.950 . S
C5164 C5160 1.385 . S
C5164 C5163 1.374 . S
C5165 C5162 1.499 . S
C5165 C5166 1.373 . S
C5165 C5167 1.389 . S
C5166 H5139 0.950 . S
C5166 C5152 1.377 . S
C5166 C5165 1.373 . S
C5167 C5151 1.377 . S
C5167 C5165 1.389 . S
C5167 C5168 1.524 . S
C5168 C5167 1.524 . S
C5168 C5169 1.397 . S
C5168 C5173 1.363 . S
C5169 H5140 0.950 . S
C5169 C5168 1.397 . S
C5169 C5170 1.334 . S
C5170 H5141 0.950 . S
C5170 C5169 1.334 . S
C5170 C5171 1.287 . S
C5171 C5170 1.287 . S
C5171 C5172 1.524 . S
C5171 H5174 0.999 . S
C5172 H5142 0.950 . S
C5172 C5171 1.524 . S
C5172 C5173 1.415 . S
C5173 H5143 0.950 . S
C5173 C5168 1.363 . S
C5173 C5172 1.415 . S
H5174 C5171 0.999 . S
H5175 C5156 0.913 . S
H5176 C5194 0.951 . S
H5177 C5196 0.951 . S
H5178 C5198 0.950 . S
H5179 C5199 0.950 . S
H5180 C5201 0.950 . S
H5181 C5204 0.950 . S
H5182 C5205 0.950 . S
H5183 C5207 0.950 . S
H5184 C5208 0.950 . S
H5185 C5209 0.951 . S
H5186 C5211 0.951 . S
H5187 C5213 0.950 . S
H5188 C5214 0.950 . S
H5189 C5216 0.950 . S
H5190 C5219 0.950 . S
H5191 C5220 0.950 . S
H5192 C5222 0.950 . S
H5193 C5223 0.950 . S
C5194 H5176 0.951 . S
C5194 C5195 1.366 . S
C5194 C5196 1.388 . S
C5195 C5194 1.366 . S
C5195 C5199 1.385 . S
C5196 H5177 0.951 . S
C5196 C5194 1.388 . S
C5196 C5197 1.366 . S
C5197 C5196 1.366 . S
C5197 C5198 1.414 . S
C5197 C5200 1.499 . S
C5198 H5178 0.950 . S
C5198 C5197 1.414 . S
C5198 C5199 1.374 . S
C5199 H5179 0.950 . S
C5199 C5195 1.385 . S
C5199 C5198 1.374 . S
C5200 C5197 1.499 . S
C5200 C5201 1.373 . S
C5200 C5202 1.389 . S
C5201 H5180 0.950 . S
C5201 C5200 1.373 . S
C5201 C5217 1.377 . S
C5202 C5200 1.389 . S
C5202 C5203 1.524 . S
C5202 C5216 1.377 . S
C5203 C5202 1.524 . S
C5203 C5204 1.397 . S
C5203 C5208 1.363 . S
C5204 H5181 0.950 . S
C5204 C5203 1.397 . S
C5204 C5205 1.334 . S
C5205 H5182 0.950 . S
C5205 C5204 1.334 . S
C5205 C5206 1.287 . S
C5206 C5205 1.287 . S
C5206 C5207 1.524 . S
C5206 H5225 0.913 . S
C5207 H5183 0.950 . S
C5207 C5206 1.524 . S
C5207 C5208 1.415 . S
C5208 H5184 0.950 . S
C5208 C5203 1.363 . S
C5208 C5207 1.415 . S
C5209 H5185 0.951 . S
C5209 C5210 1.366 . S
C5209 C5211 1.388 . S
C5210 C5209 1.366 . S
C5210 C5214 1.385 . S
C5211 H5186 0.951 . S
C5211 C5209 1.388 . S
C5211 C5212 1.366 . S
C5212 C5211 1.366 . S
C5212 C5213 1.414 . S
C5212 C5215 1.499 . S
C5213 H5187 0.950 . S
C5213 C5212 1.414 . S
C5213 C5214 1.374 . S
C5214 H5188 0.950 . S
C5214 C5210 1.385 . S
C5214 C5213 1.374 . S
C5215 C5212 1.499 . S
C5215 C5216 1.373 . S
C5215 C5217 1.389 . S
C5216 H5189 0.950 . S
C5216 C5202 1.377 . S
C5216 C5215 1.373 . S
C5217 C5201 1.377 . S
C5217 C5215 1.389 . S
C5217 C5218 1.524 . S
C5218 C5217 1.524 . S
C5218 C5219 1.397 . S
C5218 C5223 1.363 . S
C5219 H5190 0.950 . S
C5219 C5218 1.397 . S
C5219 C5220 1.334 . S
C5220 H5191 0.950 . S
C5220 C5219 1.334 . S
C5220 C5221 1.287 . S
C5221 C5220 1.287 . S
C5221 C5222 1.524 . S
C5221 H5224 0.999 . S
C5222 H5192 0.950 . S
C5222 C5221 1.524 . S
C5222 C5223 1.415 . S
C5223 H5193 0.950 . S
C5223 C5218 1.363 . S
C5223 C5222 1.415 . S
H5224 C5221 0.999 . S
H5225 C5206 0.913 . S
H5226 C5244 0.951 . S
H5227 C5246 0.951 . S
H5228 C5248 0.950 . S
H5229 C5249 0.950 . S
H5230 C5251 0.950 . S
H5231 C5254 0.950 . S
H5232 C5255 0.950 . S
H5233 C5257 0.950 . S
H5234 C5258 0.950 . S
H5235 C5259 0.951 . S
H5236 C5261 0.951 . S
H5237 C5263 0.950 . S
H5238 C5264 0.950 . S
H5239 C5266 0.950 . S
H5240 C5269 0.950 . S
H5241 C5270 0.950 . S
H5242 C5272 0.950 . S
H5243 C5273 0.950 . S
C5244 H5226 0.951 . S
C5244 C5245 1.366 . S
C5244 C5246 1.388 . S
C5245 C5244 1.366 . S
C5245 C5249 1.385 . S
C5246 H5227 0.951 . S
C5246 C5244 1.388 . S
C5246 C5247 1.366 . S
C5247 C5246 1.366 . S
C5247 C5248 1.414 . S
C5247 C5250 1.499 . S
C5248 H5228 0.950 . S
C5248 C5247 1.414 . S
C5248 C5249 1.374 . S
C5249 H5229 0.950 . S
C5249 C5245 1.385 . S
C5249 C5248 1.374 . S
C5250 C5247 1.499 . S
C5250 C5251 1.373 . S
C5250 C5252 1.389 . S
C5251 H5230 0.950 . S
C5251 C5250 1.373 . S
C5251 C5267 1.377 . S
C5252 C5250 1.389 . S
C5252 C5253 1.524 . S
C5252 C5266 1.377 . S
C5253 C5252 1.524 . S
C5253 C5254 1.397 . S
C5253 C5258 1.363 . S
C5254 H5231 0.950 . S
C5254 C5253 1.397 . S
C5254 C5255 1.334 . S
C5255 H5232 0.950 . S
C5255 C5254 1.334 . S
C5255 C5256 1.287 . S
C5256 C5255 1.287 . S
C5256 C5257 1.524 . S
C5256 H5275 0.913 . S
C5257 H5233 0.950 . S
C5257 C5256 1.524 . S
C5257 C5258 1.415 . S
C5258 H5234 0.950 . S
C5258 C5253 1.363 . S
C5258 C5257 1.415 . S
C5259 H5235 0.951 . S
C5259 C5260 1.366 . S
C5259 C5261 1.388 . S
C5260 C5259 1.366 . S
C5260 C5264 1.385 . S
C5261 H5236 0.951 . S
C5261 C5259 1.388 . S
C5261 C5262 1.366 . S
C5262 C5261 1.366 . S
C5262 C5263 1.414 . S
C5262 C5265 1.499 . S
C5263 H5237 0.950 . S
C5263 C5262 1.414 . S
C5263 C5264 1.374 . S
C5264 H5238 0.950 . S
C5264 C5260 1.385 . S
C5264 C5263 1.374 . S
C5265 C5262 1.499 . S
C5265 C5266 1.373 . S
C5265 C5267 1.389 . S
C5266 H5239 0.950 . S
C5266 C5252 1.377 . S
C5266 C5265 1.373 . S
C5267 C5251 1.377 . S
C5267 C5265 1.389 . S
C5267 C5268 1.524 . S
C5268 C5267 1.524 . S
C5268 C5269 1.397 . S
C5268 C5273 1.363 . S
C5269 H5240 0.950 . S
C5269 C5268 1.397 . S
C5269 C5270 1.334 . S
C5270 H5241 0.950 . S
C5270 C5269 1.334 . S
C5270 C5271 1.287 . S
C5271 C5270 1.287 . S
C5271 C5272 1.524 . S
C5271 H5274 0.999 . S
C5272 H5242 0.950 . S
C5272 C5271 1.524 . S
C5272 C5273 1.415 . S
C5273 H5243 0.950 . S
C5273 C5268 1.363 . S
C5273 C5272 1.415 . S
H5274 C5271 0.999 . S
H5275 C5256 0.913 . S
H5276 C5294 0.951 . S
H5277 C5296 0.951 . S
H5278 C5298 0.950 . S
H5279 C5299 0.950 . S
H5280 C5301 0.950 . S
H5281 C5304 0.950 1_655 S
H5282 C5305 0.950 . S
H5283 C5307 0.950 . S
H5284 C5308 0.950 . S
H5285 C5309 0.951 . S
H5286 C5311 0.951 . S
H5287 C5313 0.950 . S
H5288 C5314 0.950 . S
H5289 C5316 0.950 1_455 S
H5290 C5319 0.950 . S
H5291 C5320 0.950 . S
H5292 C5322 0.950 . S
H5293 C5323 0.950 . S
C5294 H5276 0.951 . S
C5294 C5295 1.366 . S
C5294 C5296 1.388 . S
C5295 C5294 1.366 . S
C5295 C5299 1.385 . S
C5296 H5277 0.951 . S
C5296 C5294 1.388 . S
C5296 C5297 1.366 . S
C5297 C5296 1.366 . S
C5297 C5298 1.414 . S
C5297 C5300 1.499 . S
C5298 H5278 0.950 . S
C5298 C5297 1.414 . S
C5298 C5299 1.374 . S
C5299 H5279 0.950 . S
C5299 C5295 1.385 . S
C5299 C5298 1.374 . S
C5300 C5297 1.499 . S
C5300 C5301 1.373 . S
C5300 C5302 1.389 . S
C5301 H5280 0.950 . S
C5301 C5300 1.373 . S
C5301 C5317 1.377 . S
C5302 C5300 1.389 . S
C5302 C5303 1.524 1_655 S
C5302 C5316 1.377 . S
C5303 C5302 1.524 1_455 S
C5303 C5304 1.397 . S
C5303 C5308 1.363 . S
C5304 H5281 0.950 1_455 S
C5304 C5303 1.397 . S
C5304 C5305 1.334 . S
C5305 H5282 0.950 . S
C5305 C5304 1.334 . S
C5305 C5306 1.287 . S
C5306 C5305 1.287 . S
C5306 C5307 1.524 . S
C5306 H5325 0.913 . S
C5307 H5283 0.950 . S
C5307 C5306 1.524 . S
C5307 C5308 1.415 . S
C5308 H5284 0.950 . S
C5308 C5303 1.363 . S
C5308 C5307 1.415 . S
C5309 H5285 0.951 . S
C5309 C5310 1.366 1_655 S
C5309 C5311 1.388 . S
C5310 C5309 1.366 1_455 S
C5310 C5314 1.385 . S
C5311 H5286 0.951 . S
C5311 C5309 1.388 . S
C5311 C5312 1.366 . S
C5312 C5311 1.366 . S
C5312 C5313 1.414 1_655 S
C5312 C5315 1.499 . S
C5313 H5287 0.950 . S
C5313 C5312 1.414 1_455 S
C5313 C5314 1.374 . S
C5314 H5288 0.950 . S
C5314 C5310 1.385 . S
C5314 C5313 1.374 . S
C5315 C5312 1.499 . S
C5315 C5316 1.373 . S
C5315 C5317 1.389 . S
C5316 H5289 0.950 1_655 S
C5316 C5302 1.377 . S
C5316 C5315 1.373 . S
C5317 C5301 1.377 . S
C5317 C5315 1.389 . S
C5317 C5318 1.524 . S
C5318 C5317 1.524 . S
C5318 C5319 1.397 . S
C5318 C5323 1.363 . S
C5319 H5290 0.950 . S
C5319 C5318 1.397 . S
C5319 C5320 1.334 . S
C5320 H5291 0.950 . S
C5320 C5319 1.334 . S
C5320 C5321 1.287 . S
C5321 C5320 1.287 . S
C5321 C5322 1.524 . S
C5321 H5324 0.999 . S
C5322 H5292 0.950 . S
C5322 C5321 1.524 . S
C5322 C5323 1.415 . S
C5323 H5293 0.950 . S
C5323 C5318 1.363 . S
C5323 C5322 1.415 . S
H5324 C5321 0.999 . S
H5325 C5306 0.913 . S
H5326 C5344 0.951 . S
H5327 C5346 0.951 . S
H5328 C5348 0.950 . S
H5329 C5349 0.950 . S
H5330 C5351 0.950 . S
H5331 C5354 0.950 . S
H5332 C5355 0.950 . S
H5333 C5357 0.950 . S
H5334 C5358 0.950 . S
H5335 C5359 0.951 . S
H5336 C5361 0.951 . S
H5337 C5363 0.950 . S
H5338 C5364 0.950 . S
H5339 C5366 0.950 . S
H5340 C5369 0.950 . S
H5341 C5370 0.950 . S
H5342 C5372 0.950 . S
H5343 C5373 0.950 . S
C5344 H5326 0.951 . S
C5344 C5345 1.366 . S
C5344 C5346 1.388 . S
C5345 C5344 1.366 . S
C5345 C5349 1.385 . S
C5346 H5327 0.951 . S
C5346 C5344 1.388 . S
C5346 C5347 1.366 . S
C5347 C5346 1.366 . S
C5347 C5348 1.414 . S
C5347 C5350 1.499 . S
C5348 H5328 0.950 . S
C5348 C5347 1.414 . S
C5348 C5349 1.374 . S
C5349 H5329 0.950 . S
C5349 C5345 1.385 . S
C5349 C5348 1.374 . S
C5350 C5347 1.499 . S
C5350 C5351 1.373 . S
C5350 C5352 1.389 . S
C5351 H5330 0.950 . S
C5351 C5350 1.373 . S
C5351 C5367 1.377 . S
C5352 C5350 1.389 . S
C5352 C5353 1.524 . S
C5352 C5366 1.377 . S
C5353 C5352 1.524 . S
C5353 C5354 1.397 . S
C5353 C5358 1.363 . S
C5354 H5331 0.950 . S
C5354 C5353 1.397 . S
C5354 C5355 1.334 . S
C5355 H5332 0.950 . S
C5355 C5354 1.334 . S
C5355 C5356 1.287 . S
C5356 C5355 1.287 . S
C5356 C5357 1.524 . S
C5356 H5375 0.913 . S
C5357 H5333 0.950 . S
C5357 C5356 1.524 . S
C5357 C5358 1.415 . S
C5358 H5334 0.950 . S
C5358 C5353 1.363 . S
C5358 C5357 1.415 . S
C5359 H5335 0.951 . S
C5359 C5360 1.366 . S
C5359 C5361 1.388 . S
C5360 C5359 1.366 . S
C5360 C5364 1.385 . S
C5361 H5336 0.951 . S
C5361 C5359 1.388 . S
C5361 C5362 1.366 . S
C5362 C5361 1.366 . S
C5362 C5363 1.414 . S
C5362 C5365 1.499 . S
C5363 H5337 0.950 . S
C5363 C5362 1.414 . S
C5363 C5364 1.374 . S
C5364 H5338 0.950 . S
C5364 C5360 1.385 . S
C5364 C5363 1.374 . S
C5365 C5362 1.499 . S
C5365 C5366 1.373 . S
C5365 C5367 1.389 . S
C5366 H5339 0.950 . S
C5366 C5352 1.377 . S
C5366 C5365 1.373 . S
C5367 C5351 1.377 . S
C5367 C5365 1.389 . S
C5367 C5368 1.524 . S
C5368 C5367 1.524 . S
C5368 C5369 1.397 . S
C5368 C5373 1.363 . S
C5369 H5340 0.950 . S
C5369 C5368 1.397 . S
C5369 C5370 1.334 . S
C5370 H5341 0.950 . S
C5370 C5369 1.334 . S
C5370 C5371 1.287 . S
C5371 C5370 1.287 . S
C5371 C5372 1.524 . S
C5371 H5374 0.999 . S
C5372 H5342 0.950 . S
C5372 C5371 1.524 . S
C5372 C5373 1.415 . S
C5373 H5343 0.950 . S
C5373 C5368 1.363 . S
C5373 C5372 1.415 . S
H5374 C5371 0.999 . S
H5375 C5356 0.913 . S
H5376 C5394 0.951 . S
H5377 C5396 0.951 . S
H5378 C5398 0.950 . S
H5379 C5399 0.950 . S
H5380 C5401 0.950 . S
H5381 C5404 0.950 . S
H5382 C5405 0.950 . S
H5383 C5407 0.950 . S
H5384 C5408 0.950 . S
H5385 C5409 0.951 . S
H5386 C5411 0.951 . S
H5387 C5413 0.950 . S
H5388 C5414 0.950 . S
H5389 C5416 0.950 . S
H5390 C5419 0.950 . S
H5391 C5420 0.950 . S
H5392 C5422 0.950 . S
H5393 C5423 0.950 . S
C5394 H5376 0.951 . S
C5394 C5395 1.366 . S
C5394 C5396 1.388 . S
C5395 C5394 1.366 . S
C5395 C5399 1.385 . S
C5396 H5377 0.951 . S
C5396 C5394 1.388 . S
C5396 C5397 1.366 . S
C5397 C5396 1.366 . S
C5397 C5398 1.414 . S
C5397 C5400 1.499 . S
C5398 H5378 0.950 . S
C5398 C5397 1.414 . S
C5398 C5399 1.374 . S
C5399 H5379 0.950 . S
C5399 C5395 1.385 . S
C5399 C5398 1.374 . S
C5400 C5397 1.499 . S
C5400 C5401 1.373 . S
C5400 C5402 1.389 . S
C5401 H5380 0.950 . S
C5401 C5400 1.373 . S
C5401 C5417 1.377 . S
C5402 C5400 1.389 . S
C5402 C5403 1.524 . S
C5402 C5416 1.377 . S
C5403 C5402 1.524 . S
C5403 C5404 1.397 . S
C5403 C5408 1.363 . S
C5404 H5381 0.950 . S
C5404 C5403 1.397 . S
C5404 C5405 1.334 . S
C5405 H5382 0.950 . S
C5405 C5404 1.334 . S
C5405 C5406 1.287 . S
C5406 C5405 1.287 . S
C5406 C5407 1.524 . S
C5406 H5425 0.913 . S
C5407 H5383 0.950 . S
C5407 C5406 1.524 . S
C5407 C5408 1.415 . S
C5408 H5384 0.950 . S
C5408 C5403 1.363 . S
C5408 C5407 1.415 . S
C5409 H5385 0.951 . S
C5409 C5410 1.366 . S
C5409 C5411 1.388 . S
C5410 C5409 1.366 . S
C5410 C5414 1.385 . S
C5411 H5386 0.951 . S
C5411 C5409 1.388 . S
C5411 C5412 1.366 . S
C5412 C5411 1.366 . S
C5412 C5413 1.414 . S
C5412 C5415 1.499 . S
C5413 H5387 0.950 . S
C5413 C5412 1.414 . S
C5413 C5414 1.374 . S
C5414 H5388 0.950 . S
C5414 C5410 1.385 . S
C5414 C5413 1.374 . S
C5415 C5412 1.499 . S
C5415 C5416 1.373 . S
C5415 C5417 1.389 . S
C5416 H5389 0.950 . S
C5416 C5402 1.377 . S
C5416 C5415 1.373 . S
C5417 C5401 1.377 . S
C5417 C5415 1.389 . S
C5417 C5418 1.524 . S
C5418 C5417 1.524 . S
C5418 C5419 1.397 . S
C5418 C5423 1.363 . S
C5419 H5390 0.950 . S
C5419 C5418 1.397 . S
C5419 C5420 1.334 . S
C5420 H5391 0.950 . S
C5420 C5419 1.334 . S
C5420 C5421 1.287 . S
C5421 C5420 1.287 . S
C5421 C5422 1.524 . S
C5421 H5424 0.999 . S
C5422 H5392 0.950 . S
C5422 C5421 1.524 . S
C5422 C5423 1.415 . S
C5423 H5393 0.950 . S
C5423 C5418 1.363 . S
C5423 C5422 1.415 . S
H5424 C5421 0.999 . S
H5425 C5406 0.913 . S
H5426 C5444 0.951 . S
H5427 C5446 0.971 . S
H5428 C5448 0.950 . S
H5429 C5449 0.950 . S
H5430 C5451 0.927 1_565 S
H5431 C5454 0.950 . S
H5432 C5455 0.950 . S
H5433 C5457 0.950 . S
H5434 C5458 0.950 . S
H5435 C5459 0.951 . S
H5436 C5461 0.951 . S
H5437 C5463 0.950 . S
H5438 C5464 0.950 . S
H5439 C5466 0.950 . S
H5440 C5469 0.950 . S
H5441 C5470 0.950 . S
H5442 C5472 0.950 1_565 S
H5443 C5473 0.950 1_565 S
C5444 H5426 0.951 . S
C5444 C5445 1.366 . S
C5444 C5446 1.383 1_565 S
C5445 C5444 1.366 . S
C5445 C5449 1.385 . S
C5446 H5427 0.971 . S
C5446 C5444 1.383 1_545 S
C5446 C5447 1.351 1_545 S
C5447 C5446 1.351 1_565 S
C5447 C5448 1.414 . S
C5447 C5450 1.498 . S
C5448 H5428 0.950 . S
C5448 C5447 1.414 . S
C5448 C5449 1.374 . S
C5449 H5429 0.950 . S
C5449 C5445 1.385 . S
C5449 C5448 1.374 . S
C5450 C5447 1.498 . S
C5450 C5451 1.373 1_565 S
C5450 C5452 1.391 1_565 S
C5451 H5430 0.927 1_545 S
C5451 C5450 1.373 1_545 S
C5451 C5467 1.377 . S
C5452 C5450 1.391 1_545 S
C5452 C5453 1.524 . S
C5452 C5466 1.377 . S
C5453 C5452 1.524 . S
C5453 C5454 1.397 1_545 S
C5453 C5458 1.363 . S
C5454 H5431 0.950 . S
C5454 C5453 1.397 1_565 S
C5454 C5455 1.334 . S
C5455 H5432 0.950 . S
C5455 C5454 1.334 . S
C5455 C5456 1.287 . S
C5456 C5455 1.287 . S
C5456 C5457 1.524 1_565 S
C5456 H5475 0.913 . S
C5457 H5433 0.950 . S
C5457 C5456 1.524 1_545 S
C5457 C5458 1.415 . S
C5458 H5434 0.950 . S
C5458 C5453 1.363 . S
C5458 C5457 1.415 . S
C5459 H5435 0.951 . S
C5459 C5460 1.366 . S
C5459 C5461 1.388 . S
C5460 C5459 1.366 . S
C5460 C5464 1.385 . S
C5461 H5436 0.951 . S
C5461 C5459 1.388 . S
C5461 C5462 1.366 . S
C5462 C5461 1.366 . S
C5462 C5463 1.414 . S
C5462 C5465 1.499 . S
C5463 H5437 0.950 . S
C5463 C5462 1.414 . S
C5463 C5464 1.374 . S
C5464 H5438 0.950 . S
C5464 C5460 1.385 . S
C5464 C5463 1.374 . S
C5465 C5462 1.499 . S
C5465 C5466 1.373 . S
C5465 C5467 1.389 . S
C5466 H5439 0.950 . S
C5466 C5452 1.377 . S
C5466 C5465 1.373 . S
C5467 C5451 1.377 . S
C5467 C5465 1.389 . S
C5467 C5468 1.524 . S
C5468 C5467 1.524 . S
C5468 C5469 1.397 . S
C5468 C5473 1.363 . S
C5469 H5440 0.950 . S
C5469 C5468 1.397 . S
C5469 C5470 1.334 . S
C5470 H5441 0.950 . S
C5470 C5469 1.334 . S
C5470 C5471 1.287 . S
C5471 C5470 1.287 . S
C5471 C5472 1.524 . S
C5471 H5474 0.999 . S
C5472 H5442 0.950 1_545 S
C5472 C5471 1.524 . S
C5472 C5473 1.415 . S
C5473 H5443 0.950 1_545 S
C5473 C5468 1.363 . S
C5473 C5472 1.415 . S
H5474 C5471 0.999 . S
H5475 C5456 0.913 . S
H5476 C5494 0.951 . S
H5477 C5496 0.951 . S
H5478 C5498 0.950 . S
H5479 C5499 0.950 . S
H5480 C5501 0.950 . S
H5481 C5504 0.950 . S
H5482 C5505 0.950 . S
H5483 C5507 0.950 . S
H5484 C5508 0.950 . S
H5485 C5509 0.951 . S
H5486 C5511 0.951 . S
H5487 C5513 0.950 . S
H5488 C5514 0.950 . S
H5489 C5516 0.950 . S
H5490 C5519 0.950 . S
H5491 C5520 0.950 . S
H5492 C5522 0.950 . S
H5493 C5523 0.950 . S
C5494 H5476 0.951 . S
C5494 C5495 1.366 . S
C5494 C5496 1.388 . S
C5495 C5494 1.366 . S
C5495 C5499 1.385 . S
C5496 H5477 0.951 . S
C5496 C5494 1.388 . S
C5496 C5497 1.366 . S
C5497 C5496 1.366 . S
C5497 C5498 1.414 . S
C5497 C5500 1.499 . S
C5498 H5478 0.950 . S
C5498 C5497 1.414 . S
C5498 C5499 1.374 . S
C5499 H5479 0.950 . S
C5499 C5495 1.385 . S
C5499 C5498 1.374 . S
C5500 C5497 1.499 . S
C5500 C5501 1.373 . S
C5500 C5502 1.389 . S
C5501 H5480 0.950 . S
C5501 C5500 1.373 . S
C5501 C5517 1.377 . S
C5502 C5500 1.389 . S
C5502 C5503 1.524 . S
C5502 C5516 1.377 . S
C5503 C5502 1.524 . S
C5503 C5504 1.397 . S
C5503 C5508 1.363 . S
C5504 H5481 0.950 . S
C5504 C5503 1.397 . S
C5504 C5505 1.334 . S
C5505 H5482 0.950 . S
C5505 C5504 1.334 . S
C5505 C5506 1.287 . S
C5506 C5505 1.287 . S
C5506 C5507 1.524 . S
C5506 H5525 0.913 . S
C5507 H5483 0.950 . S
C5507 C5506 1.524 . S
C5507 C5508 1.415 . S
C5508 H5484 0.950 . S
C5508 C5503 1.363 . S
C5508 C5507 1.415 . S
C5509 H5485 0.951 . S
C5509 C5510 1.366 . S
C5509 C5511 1.388 . S
C5510 C5509 1.366 . S
C5510 C5514 1.385 . S
C5511 H5486 0.951 . S
C5511 C5509 1.388 . S
C5511 C5512 1.366 . S
C5512 C5511 1.366 . S
C5512 C5513 1.414 . S
C5512 C5515 1.499 . S
C5513 H5487 0.950 . S
C5513 C5512 1.414 . S
C5513 C5514 1.374 . S
C5514 H5488 0.950 . S
C5514 C5510 1.385 . S
C5514 C5513 1.374 . S
C5515 C5512 1.499 . S
C5515 C5516 1.373 . S
C5515 C5517 1.389 . S
C5516 H5489 0.950 . S
C5516 C5502 1.377 . S
C5516 C5515 1.373 . S
C5517 C5501 1.377 . S
C5517 C5515 1.389 . S
C5517 C5518 1.524 . S
C5518 C5517 1.524 . S
C5518 C5519 1.397 . S
C5518 C5523 1.363 . S
C5519 H5490 0.950 . S
C5519 C5518 1.397 . S
C5519 C5520 1.334 . S
C5520 H5491 0.950 . S
C5520 C5519 1.334 . S
C5520 C5521 1.287 . S
C5521 C5520 1.287 . S
C5521 C5522 1.524 . S
C5521 H5524 0.999 . S
C5522 H5492 0.950 . S
C5522 C5521 1.524 . S
C5522 C5523 1.415 . S
C5523 H5493 0.950 . S
C5523 C5518 1.363 . S
C5523 C5522 1.415 . S
H5524 C5521 0.999 . S
H5525 C5506 0.913 . S
H5526 C5544 0.951 . S
H5527 C5546 0.951 . S
H5528 C5548 0.950 . S
H5529 C5549 0.950 . S
H5530 C5551 0.950 . S
H5531 C5554 0.950 . S
H5532 C5555 0.950 . S
H5533 C5557 0.950 . S
H5534 C5558 0.950 . S
H5535 C5559 0.951 . S
H5536 C5561 0.951 . S
H5537 C5563 0.950 . S
H5538 C5564 0.950 . S
H5539 C5566 0.950 . S
H5540 C5569 0.950 . S
H5541 C5570 0.950 . S
H5542 C5572 0.950 . S
H5543 C5573 0.950 . S
C5544 H5526 0.951 . S
C5544 C5545 1.366 . S
C5544 C5546 1.388 . S
C5545 C5544 1.366 . S
C5545 C5549 1.385 . S
C5546 H5527 0.951 . S
C5546 C5544 1.388 . S
C5546 C5547 1.366 . S
C5547 C5546 1.366 . S
C5547 C5548 1.414 . S
C5547 C5550 1.499 . S
C5548 H5528 0.950 . S
C5548 C5547 1.414 . S
C5548 C5549 1.374 . S
C5549 H5529 0.950 . S
C5549 C5545 1.385 . S
C5549 C5548 1.374 . S
C5550 C5547 1.499 . S
C5550 C5551 1.373 . S
C5550 C5552 1.389 . S
C5551 H5530 0.950 . S
C5551 C5550 1.373 . S
C5551 C5567 1.377 . S
C5552 C5550 1.389 . S
C5552 C5553 1.524 . S
C5552 C5566 1.377 . S
C5553 C5552 1.524 . S
C5553 C5554 1.397 . S
C5553 C5558 1.363 . S
C5554 H5531 0.950 . S
C5554 C5553 1.397 . S
C5554 C5555 1.334 . S
C5555 H5532 0.950 . S
C5555 C5554 1.334 . S
C5555 C5556 1.287 . S
C5556 C5555 1.287 . S
C5556 C5557 1.524 . S
C5556 H5575 0.913 . S
C5557 H5533 0.950 . S
C5557 C5556 1.524 . S
C5557 C5558 1.415 . S
C5558 H5534 0.950 . S
C5558 C5553 1.363 . S
C5558 C5557 1.415 . S
C5559 H5535 0.951 . S
C5559 C5560 1.366 . S
C5559 C5561 1.388 . S
C5560 C5559 1.366 . S
C5560 C5564 1.385 . S
C5561 H5536 0.951 . S
C5561 C5559 1.388 . S
C5561 C5562 1.366 . S
C5562 C5561 1.366 . S
C5562 C5563 1.414 . S
C5562 C5565 1.499 . S
C5563 H5537 0.950 . S
C5563 C5562 1.414 . S
C5563 C5564 1.374 . S
C5564 H5538 0.950 . S
C5564 C5560 1.385 . S
C5564 C5563 1.374 . S
C5565 C5562 1.499 . S
C5565 C5566 1.373 . S
C5565 C5567 1.389 . S
C5566 H5539 0.950 . S
C5566 C5552 1.377 . S
C5566 C5565 1.373 . S
C5567 C5551 1.377 . S
C5567 C5565 1.389 . S
C5567 C5568 1.524 . S
C5568 C5567 1.524 . S
C5568 C5569 1.397 . S
C5568 C5573 1.363 . S
C5569 H5540 0.950 . S
C5569 C5568 1.397 . S
C5569 C5570 1.334 . S
C5570 H5541 0.950 . S
C5570 C5569 1.334 . S
C5570 C5571 1.287 . S
C5571 C5570 1.287 . S
C5571 C5572 1.524 . S
C5571 H5574 0.999 . S
C5572 H5542 0.950 . S
C5572 C5571 1.524 . S
C5572 C5573 1.415 . S
C5573 H5543 0.950 . S
C5573 C5568 1.363 . S
C5573 C5572 1.415 . S
H5574 C5571 0.999 . S
H5575 C5556 0.913 . S
H5576 C5594 0.951 . S
H5577 C5596 0.951 . S
H5578 C5598 0.950 . S
H5579 C5599 0.950 . S
H5580 C5601 0.950 . S
H5581 C5604 0.950 . S
H5582 C5605 0.950 . S
H5583 C5607 0.950 . S
H5584 C5608 0.950 . S
H5585 C5609 0.951 . S
H5586 C5611 0.951 . S
H5587 C5613 0.950 . S
H5588 C5614 0.950 . S
H5589 C5616 0.950 . S
H5590 C5619 0.950 . S
H5591 C5620 0.950 . S
H5592 C5622 0.950 . S
H5593 C5623 0.950 . S
C5594 H5576 0.951 . S
C5594 C5595 1.366 . S
C5594 C5596 1.388 . S
C5595 C5594 1.366 . S
C5595 C5599 1.385 . S
C5596 H5577 0.951 . S
C5596 C5594 1.388 . S
C5596 C5597 1.366 . S
C5597 C5596 1.366 . S
C5597 C5598 1.414 . S
C5597 C5600 1.499 . S
C5598 H5578 0.950 . S
C5598 C5597 1.414 . S
C5598 C5599 1.374 . S
C5599 H5579 0.950 . S
C5599 C5595 1.385 . S
C5599 C5598 1.374 . S
C5600 C5597 1.499 . S
C5600 C5601 1.373 . S
C5600 C5602 1.389 . S
C5601 H5580 0.950 . S
C5601 C5600 1.373 . S
C5601 C5617 1.377 . S
C5602 C5600 1.389 . S
C5602 C5603 1.524 . S
C5602 C5616 1.377 . S
C5603 C5602 1.524 . S
C5603 C5604 1.397 . S
C5603 C5608 1.363 . S
C5604 H5581 0.950 . S
C5604 C5603 1.397 . S
C5604 C5605 1.334 . S
C5605 H5582 0.950 . S
C5605 C5604 1.334 . S
C5605 C5606 1.287 . S
C5606 C5605 1.287 . S
C5606 C5607 1.524 . S
C5606 H5625 0.913 . S
C5607 H5583 0.950 . S
C5607 C5606 1.524 . S
C5607 C5608 1.415 . S
C5608 H5584 0.950 . S
C5608 C5603 1.363 . S
C5608 C5607 1.415 . S
C5609 H5585 0.951 . S
C5609 C5610 1.366 . S
C5609 C5611 1.388 . S
C5610 C5609 1.366 . S
C5610 C5614 1.385 . S
C5611 H5586 0.951 . S
C5611 C5609 1.388 . S
C5611 C5612 1.366 . S
C5612 C5611 1.366 . S
C5612 C5613 1.414 . S
C5612 C5615 1.499 . S
C5613 H5587 0.950 . S
C5613 C5612 1.414 . S
C5613 C5614 1.374 . S
C5614 H5588 0.950 . S
C5614 C5610 1.385 . S
C5614 C5613 1.374 . S
C5615 C5612 1.499 . S
C5615 C5616 1.373 . S
C5615 C5617 1.389 . S
C5616 H5589 0.950 . S
C5616 C5602 1.377 . S
C5616 C5615 1.373 . S
C5617 C5601 1.377 . S
C5617 C5615 1.389 . S
C5617 C5618 1.524 . S
C5618 C5617 1.524 . S
C5618 C5619 1.397 . S
C5618 C5623 1.363 . S
C5619 H5590 0.950 . S
C5619 C5618 1.397 . S
C5619 C5620 1.334 . S
C5620 H5591 0.950 . S
C5620 C5619 1.334 . S
C5620 C5621 1.287 . S
C5621 C5620 1.287 . S
C5621 C5622 1.524 . S
C5621 H5624 0.999 . S
C5622 H5592 0.950 . S
C5622 C5621 1.524 . S
C5622 C5623 1.415 . S
C5623 H5593 0.950 . S
C5623 C5618 1.363 . S
C5623 C5622 1.415 . S
H5624 C5621 0.999 . S
H5625 C5606 0.913 . S
H5626 C5644 0.951 . S
H5627 C5646 0.951 . S
H5628 C5648 0.950 . S
H5629 C5649 0.950 . S
H5630 C5651 0.950 . S
H5631 C5654 0.950 . S
H5632 C5655 0.950 . S
H5633 C5657 0.950 . S
H5634 C5658 0.950 . S
H5635 C5659 0.951 . S
H5636 C5661 0.951 . S
H5637 C5663 0.950 . S
H5638 C5664 0.950 . S
H5639 C5666 0.950 . S
H5640 C5669 0.950 . S
H5641 C5670 0.950 . S
H5642 C5672 0.950 . S
H5643 C5673 0.950 . S
C5644 H5626 0.951 . S
C5644 C5645 1.366 . S
C5644 C5646 1.388 . S
C5645 C5644 1.366 . S
C5645 C5649 1.385 . S
C5646 H5627 0.951 . S
C5646 C5644 1.388 . S
C5646 C5647 1.366 . S
C5647 C5646 1.366 . S
C5647 C5648 1.414 . S
C5647 C5650 1.499 . S
C5648 H5628 0.950 . S
C5648 C5647 1.414 . S
C5648 C5649 1.374 . S
C5649 H5629 0.950 . S
C5649 C5645 1.385 . S
C5649 C5648 1.374 . S
C5650 C5647 1.499 . S
C5650 C5651 1.373 . S
C5650 C5652 1.389 . S
C5651 H5630 0.950 . S
C5651 C5650 1.373 . S
C5651 C5667 1.377 . S
C5652 C5650 1.389 . S
C5652 C5653 1.524 . S
C5652 C5666 1.377 . S
C5653 C5652 1.524 . S
C5653 C5654 1.397 . S
C5653 C5658 1.363 . S
C5654 H5631 0.950 . S
C5654 C5653 1.397 . S
C5654 C5655 1.334 . S
C5655 H5632 0.950 . S
C5655 C5654 1.334 . S
C5655 C5656 1.287 . S
C5656 C5655 1.287 . S
C5656 C5657 1.524 . S
C5656 H5675 0.913 . S
C5657 H5633 0.950 . S
C5657 C5656 1.524 . S
C5657 C5658 1.415 . S
C5658 H5634 0.950 . S
C5658 C5653 1.363 . S
C5658 C5657 1.415 . S
C5659 H5635 0.951 . S
C5659 C5660 1.366 . S
C5659 C5661 1.388 . S
C5660 C5659 1.366 . S
C5660 C5664 1.385 . S
C5661 H5636 0.951 . S
C5661 C5659 1.388 . S
C5661 C5662 1.366 . S
C5662 C5661 1.366 . S
C5662 C5663 1.414 . S
C5662 C5665 1.499 . S
C5663 H5637 0.950 . S
C5663 C5662 1.414 . S
C5663 C5664 1.374 . S
C5664 H5638 0.950 . S
C5664 C5660 1.385 . S
C5664 C5663 1.374 . S
C5665 C5662 1.499 . S
C5665 C5666 1.373 . S
C5665 C5667 1.389 . S
C5666 H5639 0.950 . S
C5666 C5652 1.377 . S
C5666 C5665 1.373 . S
C5667 C5651 1.377 . S
C5667 C5665 1.389 . S
C5667 C5668 1.524 . S
C5668 C5667 1.524 . S
C5668 C5669 1.397 . S
C5668 C5673 1.363 . S
C5669 H5640 0.950 . S
C5669 C5668 1.397 . S
C5669 C5670 1.334 . S
C5670 H5641 0.950 . S
C5670 C5669 1.334 . S
C5670 C5671 1.287 . S
C5671 C5670 1.287 . S
C5671 C5672 1.524 . S
C5671 H5674 0.999 . S
C5672 H5642 0.950 . S
C5672 C5671 1.524 . S
C5672 C5673 1.415 . S
C5673 H5643 0.950 . S
C5673 C5668 1.363 . S
C5673 C5672 1.415 . S
H5674 C5671 0.999 . S
H5675 C5656 0.913 . S
H5676 C5694 0.951 . S
H5677 C5696 0.951 . S
H5678 C5698 0.950 . S
H5679 C5699 0.964 . S
H5680 C5701 0.950 . S
H5681 C5704 0.950 . S
H5682 C5705 0.950 . S
H5683 C5707 0.950 . S
H5684 C5708 0.950 . S
H5685 C5709 0.951 . S
H5686 C5711 0.951 . S
H5687 C5713 0.950 . S
H5688 C5714 0.950 . S
H5689 C5716 0.950 . S
H5690 C5719 0.950 . S
H5691 C5720 0.950 . S
H5692 C5722 0.950 . S
H5693 C5723 0.950 . S
C5694 H5676 0.951 . S
C5694 C5695 1.366 1_565 S
C5694 C5696 1.388 . S
C5695 C5694 1.366 1_545 S
C5695 C5699 1.385 . S
C5696 H5677 0.951 . S
C5696 C5694 1.388 . S
C5696 C5697 1.366 . S
C5697 C5696 1.366 . S
C5697 C5698 1.414 . S
C5697 C5700 1.499 . S
C5698 H5678 0.950 . S
C5698 C5697 1.414 . S
C5698 C5699 1.360 1_565 S
C5699 H5679 0.964 . S
C5699 C5695 1.385 . S
C5699 C5698 1.360 1_545 S
C5700 C5697 1.499 . S
C5700 C5701 1.373 . S
C5700 C5702 1.389 . S
C5701 H5680 0.950 . S
C5701 C5700 1.373 . S
C5701 C5717 1.377 . S
C5702 C5700 1.389 . S
C5702 C5703 1.524 . S
C5702 C5716 1.377 . S
C5703 C5702 1.524 . S
C5703 C5704 1.397 . S
C5703 C5708 1.363 . S
C5704 H5681 0.950 . S
C5704 C5703 1.397 . S
C5704 C5705 1.334 . S
C5705 H5682 0.950 . S
C5705 C5704 1.334 . S
C5705 C5706 1.287 . S
C5706 C5705 1.287 . S
C5706 C5707 1.524 . S
C5706 H5725 0.913 . S
C5707 H5683 0.950 . S
C5707 C5706 1.524 . S
C5707 C5708 1.415 . S
C5708 H5684 0.950 . S
C5708 C5703 1.363 . S
C5708 C5707 1.415 . S
C5709 H5685 0.951 . S
C5709 C5710 1.366 . S
C5709 C5711 1.388 . S
C5710 C5709 1.366 . S
C5710 C5714 1.385 . S
C5711 H5686 0.951 . S
C5711 C5709 1.388 . S
C5711 C5712 1.366 . S
C5712 C5711 1.366 . S
C5712 C5713 1.414 . S
C5712 C5715 1.499 . S
C5713 H5687 0.950 . S
C5713 C5712 1.414 . S
C5713 C5714 1.374 . S
C5714 H5688 0.950 . S
C5714 C5710 1.385 . S
C5714 C5713 1.374 . S
C5715 C5712 1.499 . S
C5715 C5716 1.373 . S
C5715 C5717 1.389 . S
C5716 H5689 0.950 . S
C5716 C5702 1.377 . S
C5716 C5715 1.373 . S
C5717 C5701 1.377 . S
C5717 C5715 1.389 . S
C5717 C5718 1.524 . S
C5718 C5717 1.524 . S
C5718 C5719 1.397 . S
C5718 C5723 1.363 . S
C5719 H5690 0.950 . S
C5719 C5718 1.397 . S
C5719 C5720 1.334 . S
C5720 H5691 0.950 . S
C5720 C5719 1.334 . S
C5720 C5721 1.287 . S
C5721 C5720 1.287 . S
C5721 C5722 1.524 . S
C5721 H5724 0.999 . S
C5722 H5692 0.950 . S
C5722 C5721 1.524 . S
C5722 C5723 1.415 . S
C5723 H5693 0.950 . S
C5723 C5718 1.363 . S
C5723 C5722 1.415 . S
H5724 C5721 0.999 . S
H5725 C5706 0.913 . S
H5726 C5744 0.951 . S
H5727 C5746 0.951 . S
H5728 C5748 0.950 . S
H5729 C5749 0.950 . S
H5730 C5751 0.950 . S
H5731 C5754 0.950 . S
H5732 C5755 0.950 . S
H5733 C5757 0.950 . S
H5734 C5758 0.950 . S
H5735 C5759 0.951 . S
H5736 C5761 0.951 . S
H5737 C5763 0.950 . S
H5738 C5764 0.950 . S
H5739 C5766 0.950 . S
H5740 C5769 0.950 . S
H5741 C5770 0.950 . S
H5742 C5772 0.950 . S
H5743 C5773 0.950 . S
C5744 H5726 0.951 . S
C5744 C5745 1.366 . S
C5744 C5746 1.388 . S
C5745 C5744 1.366 . S
C5745 C5749 1.385 . S
C5746 H5727 0.951 . S
C5746 C5744 1.388 . S
C5746 C5747 1.366 . S
C5747 C5746 1.366 . S
C5747 C5748 1.414 . S
C5747 C5750 1.499 . S
C5748 H5728 0.950 . S
C5748 C5747 1.414 . S
C5748 C5749 1.374 . S
C5749 H5729 0.950 . S
C5749 C5745 1.385 . S
C5749 C5748 1.374 . S
C5750 C5747 1.499 . S
C5750 C5751 1.373 . S
C5750 C5752 1.389 . S
C5751 H5730 0.950 . S
C5751 C5750 1.373 . S
C5751 C5767 1.377 . S
C5752 C5750 1.389 . S
C5752 C5753 1.524 . S
C5752 C5766 1.377 . S
C5753 C5752 1.524 . S
C5753 C5754 1.397 . S
C5753 C5758 1.363 . S
C5754 H5731 0.950 . S
C5754 C5753 1.397 . S
C5754 C5755 1.334 . S
C5755 H5732 0.950 . S
C5755 C5754 1.334 . S
C5755 C5756 1.287 . S
C5756 C5755 1.287 . S
C5756 C5757 1.524 . S
C5756 H5775 0.913 . S
C5757 H5733 0.950 . S
C5757 C5756 1.524 . S
C5757 C5758 1.415 . S
C5758 H5734 0.950 . S
C5758 C5753 1.363 . S
C5758 C5757 1.415 . S
C5759 H5735 0.951 . S
C5759 C5760 1.366 . S
C5759 C5761 1.388 . S
C5760 C5759 1.366 . S
C5760 C5764 1.385 . S
C5761 H5736 0.951 . S
C5761 C5759 1.388 . S
C5761 C5762 1.366 . S
C5762 C5761 1.366 . S
C5762 C5763 1.414 . S
C5762 C5765 1.499 . S
C5763 H5737 0.950 . S
C5763 C5762 1.414 . S
C5763 C5764 1.374 . S
C5764 H5738 0.950 . S
C5764 C5760 1.385 . S
C5764 C5763 1.374 . S
C5765 C5762 1.499 . S
C5765 C5766 1.373 . S
C5765 C5767 1.389 . S
C5766 H5739 0.950 . S
C5766 C5752 1.377 . S
C5766 C5765 1.373 . S
C5767 C5751 1.377 . S
C5767 C5765 1.389 . S
C5767 C5768 1.524 . S
C5768 C5767 1.524 . S
C5768 C5769 1.397 . S
C5768 C5773 1.363 . S
C5769 H5740 0.950 . S
C5769 C5768 1.397 . S
C5769 C5770 1.334 . S
C5770 H5741 0.950 . S
C5770 C5769 1.334 . S
C5770 C5771 1.287 . S
C5771 C5770 1.287 . S
C5771 C5772 1.524 . S
C5771 H5774 0.999 . S
C5772 H5742 0.950 . S
C5772 C5771 1.524 . S
C5772 C5773 1.415 . S
C5773 H5743 0.950 . S
C5773 C5768 1.363 . S
C5773 C5772 1.415 . S
H5774 C5771 0.999 . S
H5775 C5756 0.913 . S
C995 C106 1.520 . S
C1010 C342 1.466 . S
C1045 C65 1.885 . S
C1060 C394 1.793 . S
C1095 C79 1.774 . S
C1110 C426 1.809 1_565 S
C1160 C475 2.297 . S
C1145 C90 2.289 . S
C1195 C21 0.636 . S
C1210 C511 0.647 . S
C1260 C542 0.386 . S
C1245 C35 0.509 . S
C1310 C594 0.455 . S
C1295 C50 0.345 . S
C1345 C6 1.097 . S
C1360 C622 1.135 . S
C1410 C354 2.096 . S
C1395 C232 2.276 . S
C1445 C245 1.474 . S
C1460 C395 1.540 . S
C1510 C425 1.929 . S
C1495 C274 2.072 1_545 S
C1560 C462 0.385 . S
C1545 C175 0.502 . S
C1595 C231 1.515 . S
C1610 C506 1.567 . S
C1660 C554 1.926 . S
C1645 C246 2.000 . S
C1710 C595 1.256 . S
C1695 C273 1.215 . S
C1760 C634 1.764 . S
C1745 C176 1.956 . S
C1810 C355 2.302 . S
C1795 C160 2.215 . S
C1845 C289 1.602 1_554 S
C1860 C665 1.498 . S
C1910 C715 2.472 . S
C1895 C328 2.410 . S
C1960 C742 1.142 . S
C1945 C317 1.150 . S
C1995 C118 2.430 . S
C2010 C635 2.535 . S
C2045 C132 0.975 . S
C2060 C431 0.958 . S
C2095 C331 2.557 . S
C2110 C794 2.447 . S
C2160 C822 1.150 . S
C2145 C303 1.177 . S
C2210 C351 1.104 . S
C2195 C63 1.096 . S
C2260 C825 2.130 . S
C2245 C107 2.241 1_655 S
C2295 C92 1.353 . S
C2310 C435 1.353 . S
C2345 C78 2.972 . S
C2360 C786 3.030 . S
C2410 C502 1.105 . S
C2395 C8 1.109 . S
C2445 C51 0.204 . S
C2460 C711 0.285 . S
C2510 C585 0.705 . S
C2495 C37 0.701 . S
C2560 C871 0.945 . S
C2545 C20 0.935 . S
C2610 C345 1.849 1_556 S
C2595 C147 1.918 . S
C2660 C826 1.730 . S
C2645 C316 1.732 . S
C2695 C119 1.970 . S
C2710 C434 1.882 . S
C2745 C288 0.278 . S
C2760 C791 0.368 . S
C2795 C148 1.969 . S
C2810 C515 1.973 . S
C2860 C705 1.922 . S
C2845 C315 1.934 . S
C2895 C120 1.666 . S
C2910 C586 1.662 . S
C2945 C287 1.465 . S
C2960 C865 1.424 . S
C2995 C188 2.055 . S
C3010 C346 2.128 1_655 S
C3045 C177 2.041 . S
C3060 C674 2.006 . S
C3095 C258 2.617 . S
C3110 C546 2.677 . S
C3145 C247 1.166 . S
C3160 C751 1.161 . S
C3210 C866 2.301 . S
C3195 C272 2.213 . S
C3245 C216 0.749 . S
C3260 C422 0.749 . S
C3310 C465 2.703 . S
C3295 C261 2.773 . S
C3360 C391 1.163 . S
C3345 C205 1.198 . S
C3395 C76 1.180 . S
C3410 C902 1.198 . S
C3460 C834 1.886 . S
C3445 C93 1.984 . S
C3495 C105 1.321 . S
C3510 C946 1.392 . S
C3545 C62 2.312 . S
C3560 C795 2.322 . S
C3595 C49 0.640 . S
C3610 C671 0.651 . S
C3660 C702 0.498 . S
C3645 C9 0.448 . S
C3710 C754 0.417 . S
C3695 C22 0.312 . S
C3760 C862 1.302 . S
C3745 C36 1.351 . S
C3810 C914 2.031 . S
C3795 C260 2.214 . S
C3845 C189 1.303 . S
C3860 C835 1.352 . S
C3910 C945 1.804 . S
C3895 C204 1.964 . S
C3960 C782 0.407 . S
C3945 C217 0.504 . S
C4010 C666 1.906 1_556 S
C3995 C259 1.829 . S
C4045 C190 2.146 . S
C4060 C714 2.070 . S
C4110 C755 1.497 . S
C4095 C203 1.439 . S
C4145 C218 2.060 . S
C4160 C874 1.868 . S
C4210 C915 2.249 . S
C4195 C314 2.152 . S
C4245 C135 1.692 . S
C4260 C505 1.603 . S
C4310 C555 2.341 . S
C4295 C146 2.270 . S
C4360 C582 1.162 . S
C4345 C163 1.166 . S
C4410 C875 2.598 . S
C4395 C300 2.499 . S
C4445 C286 0.917 . S
C4460 C951 0.907 . S
C4510 C474 2.366 . S
C4495 C149 2.481 . S
C4560 C382 1.105 . S
C4545 C121 1.138 . S
C4595 C91 0.997 . S
C4610 C911 1.005 . S
C4660 C385 1.710 . S
C4645 C77 1.824 . S
C4695 C64 1.293 . S
C4710 C955 1.292 . S
C4745 C104 2.566 . S
C4760 C466 2.604 . S
C4795 C34 0.675 . S
C4810 C662 0.678 . S
C4860 C551 0.258 . S
C4845 C23 0.203 . S
C4895 C7 0.421 . S
C4910 C745 0.474 . S
C4945 C48 0.769 . S
C4960 C631 0.770 . S
C5010 C905 1.834 . S
C4995 C329 1.898 . S
C5045 C162 1.738 . S
C5060 C386 1.739 . S
C5110 C954 1.868 . S
C5095 C301 1.954 . S
C5145 C134 0.326 . S
C5160 C471 0.410 . S
C5195 C330 1.926 . S
C5210 C675 1.930 . S
C5260 C545 1.964 . S
C5245 C161 1.977 1_556 S
C5295 C302 1.617 . S
C5310 C746 1.616 . S
C5360 C625 1.412 . S
C5345 C133 1.452 . S
C5410 C906 2.466 . S
C5395 C244 2.389 . S
C5460 C514 1.935 1_655 S
C5445 C219 1.979 . S
C5495 C230 2.238 . S
C5510 C706 2.291 . S
C5560 C591 1.184 . S
C5545 C191 1.199 . S
C5595 C202 2.514 . S
C5610 C626 2.607 . S
C5645 C174 0.896 . S
C5660 C942 0.883 . S
C5710 C785 2.727 . S
C5695 C233 2.791 . S
C5760 C831 1.165 . S
C5745 C275 1.210 . S
