# Generated by pormake.
# Topology nia, (6,6)-cn, num edge types: 1
# Building blocks:
#     Node 0, Type 0, BuildingBlock: CUKXOW_clean_sbu_0, # of connection points: 6
#     Node 1, Type 0, BuildingBlock: CUKXOW_clean_sbu_0, # of connection points: 6
#     Node 2, Type 1, BuildingBlock: MIDCAF_clean_sbu_0, # of connection points: 6
#     Node 3, Type 1, BuildingBlock: MIDCAF_clean_sbu_0, # of connection points: 6
#     Edge 4, Type (0, 1), BuildingBlock: UVAHIK_clean_linker_0, # of connection points: 2
#     Edge 5, Type (0, 1), BuildingBlock: UVAHIK_clean_linker_0, # of connection points: 2
#     Edge 6, Type (0, 1), BuildingBlock: UVAHIK_clean_linker_0, # of connection points: 2
#     Edge 7, Type (0, 1), BuildingBlock: UVAHIK_clean_linker_0, # of connection points: 2
#     Edge 8, Type (0, 1), BuildingBlock: UVAHIK_clean_linker_0, # of connection points: 2
#     Edge 9, Type (0, 1), BuildingBlock: UVAHIK_clean_linker_0, # of connection points: 2
#     Edge 10, Type (0, 1), BuildingBlock: UVAHIK_clean_linker_0, # of connection points: 2
#     Edge 11, Type (0, 1), BuildingBlock: UVAHIK_clean_linker_0, # of connection points: 2
#     Edge 12, Type (0, 1), BuildingBlock: UVAHIK_clean_linker_0, # of connection points: 2
#     Edge 13, Type (0, 1), BuildingBlock: UVAHIK_clean_linker_0, # of connection points: 2
#     Edge 14, Type (0, 1), BuildingBlock: UVAHIK_clean_linker_0, # of connection points: 2
#     Edge 15, Type (0, 1), BuildingBlock: UVAHIK_clean_linker_0, # of connection points: 2
# Relax obj value: 0.191
# Max RMSD: 0.252
# Mean RMSD: 0.207
data_MOF--net-nia--node1-CUKXOW_clean_sbu_0--node2-MIDCAF_clean_sbu_0--edge1-UVAHIK_clean_linker_0
_symmetry_space_group_name_H-M    P1
_symmetry_Int_Tables_number       1
_symmetry_cell_setting            triclinic
loop_
_symmetry_equiv_pos_as_xyz
'x, y, z'
_cell_length_a     31.351385
_cell_length_b     31.37798
_cell_length_c     39.094837
_cell_angle_alpha  88.89959
_cell_angle_beta   88.965907
_cell_angle_gamma 126.39211
loop_
_atom_site_label
_atom_site_type_symbol
_atom_site_fract_x
_atom_site_fract_y
_atom_site_fract_z
_atom_type_partial_charge
Tb0 Tb 0.02429 0.05837 0.03068 0.0
C1 C 0.09704 0.05375 0.97534 0.0
Tb2 Tb 0.97762 0.96294 0.98985 0.0
O3 O 0.01665 0.01454 0.07713 0.0
O4 O 0.03154 0.99524 0.02983 0.0
O5 O 0.08942 0.08442 0.99323 0.0
C6 C 0.93554 0.87017 0.96169 0.0
O7 O 0.06017 0.00196 0.97453 0.0
C8 C 0.9814 0.04074 0.95995 0.0
C9 C 0.90447 0.96656 0.04548 0.0
O10 O 0.93536 0.90845 0.94912 0.0
O11 O 0.95826 0.88331 0.99094 0.0
O12 O 0.98861 0.00964 0.94397 0.0
O13 O 0.97 0.0257 0.99097 0.0
O14 O 0.91124 0.93625 0.02631 0.0
O15 O 0.94226 0.01799 0.04802 0.0
C16 C 0.0696 0.15579 0.05209 0.0
O17 O 0.07375 0.12081 0.06622 0.0
O18 O 0.0398 0.136 0.02589 0.0
C19 C 0.02155 0.98166 0.0612 0.0
Tb20 Tb 0.9456 0.99094 0.49429 0.0
C21 C 0.94839 0.91989 0.549 0.0
Tb22 Tb 0.04999 0.03358 0.52659 0.0
O23 O 0.94608 0.92828 0.47132 0.0
O24 O 0.01696 0.00218 0.47894 0.0
O25 O 0.9182 0.93277 0.53642 0.0
C26 C 0.14438 0.05975 0.54251 0.0
O27 O 0.00047 0.95005 0.54305 0.0
C28 C 0.98316 0.03773 0.56523 0.0
C29 C 0.04618 0.10827 0.4742 0.0
O30 O 0.12957 0.0905 0.54498 0.0
O31 O 0.10641 0.01483 0.53039 0.0
O32 O 0.0199 0.03519 0.5772 0.0
O33 O 0.98965 0.04417 0.53326 0.0
O34 O 0.07739 0.09972 0.49054 0.0
O35 O -0.00625 0.07334 0.47528 0.0
C36 C 0.86514 0.97731 0.46187 0.0
O37 O 0.90945 0.99111 0.44776 0.0
O38 O 0.86513 0.97005 0.49479 0.0
C39 C -0.00274 0.95621 0.46937 0.0
Zn40 Zn 0.27129 0.70312 0.15692 0.0
Zn41 Zn 0.31983 0.71985 0.34327 0.0
Zn42 Zn 0.30282 0.71616 0.25971 0.0
C43 C 0.40391 0.77008 0.28042 0.0
C44 C 0.26679 0.61573 0.31577 0.0
O45 O 0.25755 0.74827 0.25351 0.0
O46 O 0.26134 0.72298 0.20394 0.0
C47 C 0.38314 0.75998 0.18302 0.0
O48 O 0.38654 0.76454 0.25058 0.0
O49 O 0.37078 0.75032 0.30499 0.0
O50 O 0.28266 0.64244 0.34259 0.0
O51 O 0.27125 0.63697 0.2859 0.0
O52 O 0.35168 0.74451 0.15796 0.0
O53 O 0.36697 0.7509 0.21524 0.0
O54 O 0.25388 0.63345 0.25244 0.0
O55 O 0.25783 0.67203 0.20527 0.0
C56 C 0.24241 0.62937 0.22111 0.0
O57 O 0.27358 0.75559 0.28758 0.0
O58 O 0.27684 0.74716 0.34447 0.0
C59 C 0.24627 0.74495 0.22216 0.0
C60 C 0.26485 0.76261 0.31866 0.0
Zn61 Zn 0.70769 0.31919 0.81879 0.0
Zn62 Zn 0.70009 0.30701 0.69394 0.0
Zn63 Zn 0.70044 0.31113 0.75718 0.0
C64 C 0.73273 0.40711 0.70283 0.0
C65 C 0.59697 0.23102 0.71862 0.0
O66 O 0.73938 0.27537 0.77732 0.0
O67 O 0.71307 0.26139 0.83165 0.0
C68 C 0.78004 0.41873 0.79207 0.0
O69 O 0.73719 0.39231 0.73277 0.0
O70 O 0.7107 0.37383 0.67969 0.0
O71 O 0.627 0.24048 0.69308 0.0
O72 O 0.61652 0.25805 0.74568 0.0
O73 O 0.77495 0.39201 0.81839 0.0
O74 O 0.74992 0.39549 0.76667 0.0
O75 O 0.61866 0.27074 0.78035 0.0
O76 O 0.64019 0.30916 0.83014 0.0
C77 C 0.60521 0.28029 0.80896 0.0
O78 O 0.74054 0.2756 0.74122 0.0
O79 O 0.7593 0.30134 0.68662 0.0
C80 C 0.73585 0.25544 0.80731 0.0
C81 C 0.76372 0.27976 0.7125 0.0
C82 C 0.0523 0.92388 0.06005 0.0
C83 C 0.03426 0.94851 0.07871 0.0
C84 C 0.06916 0.89691 0.07709 0.0
C85 C 0.12339 0.8942 0.15919 0.0
H86 H 0.09558 0.76426 0.12662 0.0
C87 C 0.19832 0.78632 0.22857 0.0
C88 C 0.21874 0.76606 0.20753 0.0
C89 C 0.17189 0.80563 0.21436 0.0
C90 C 0.1041 0.8008 0.13588 0.0
H91 H 0.01782 0.96258 0.12964 0.0
H92 H 0.04695 0.91538 0.15935 0.0
H93 H 0.05516 0.80187 0.09885 0.0
H94 H 0.22756 0.7503 0.1551 0.0
H95 H 0.1824 0.78453 0.13035 0.0
H96 H 0.17309 0.89374 0.1958 0.0
C97 C 0.04879 0.91744 0.13163 0.0
C98 C 0.08085 0.82229 0.11998 0.0
C99 C 0.0318 0.94421 0.11461 0.0
C100 C 0.21215 0.76547 0.17206 0.0
C101 C 0.18586 0.78477 0.15787 0.0
C102 C 0.14676 0.87279 0.17504 0.0
C103 C 0.06851 0.89422 0.11311 0.0
C104 C 0.09062 0.86953 0.13122 0.0
C105 C 0.16529 0.80503 0.1788 0.0
C106 C 0.13792 0.82615 0.16332 0.0
H107 H 0.05477 0.92668 0.03232 0.0
H108 H 0.08452 0.87982 0.06205 0.0
H109 H 0.13236 0.93104 0.16819 0.0
H110 H 0.20233 0.78685 0.256 0.0
H111 H 0.15605 0.82043 0.23129 0.0
C112 C 0.18566 0.02497 0.5746 0.0
C113 C 0.18962 0.06841 0.56002 0.0
C114 C 0.2232 0.03289 0.59746 0.0
C115 C 0.32788 0.13793 0.65215 0.0
H116 H 0.36674 0.04203 0.6614 0.0
C117 C 0.50426 0.20043 0.73092 0.0
C118 C 0.53945 0.19275 0.71498 0.0
C119 C 0.45147 0.17111 0.7215 0.0
C120 C 0.35662 0.06946 0.65909 0.0
H121 H 0.23722 0.15388 0.55539 0.0
H122 H 0.30544 0.16817 0.59295 0.0
H123 H 0.30044 0.02359 0.62107 0.0
H124 H 0.54672 0.14621 0.6784 0.0
H125 H 0.45673 0.09833 0.65998 0.0
H126 H 0.38747 0.18665 0.68735 0.0
C127 C 0.27187 0.12786 0.58859 0.0
C128 C 0.31789 0.05845 0.63618 0.0
C129 C 0.23343 0.11986 0.56657 0.0
C130 C 0.52032 0.15302 0.69105 0.0
C131 C 0.46818 0.12494 0.68081 0.0
C132 C 0.36763 0.14976 0.67422 0.0
C133 C 0.26616 0.08451 0.60541 0.0
C134 C 0.30416 0.09344 0.63167 0.0
C135 C 0.43367 0.13541 0.69471 0.0
C136 C 0.38383 0.11659 0.67722 0.0
H137 H 0.15171 0.98483 0.57013 0.0
H138 H 0.21703 -0.00153 0.60996 0.0
H139 H 0.31692 0.16475 0.65053 0.0
H140 H 0.51839 0.23197 0.74855 0.0
H141 H 0.42579 0.17926 0.73358 0.0
C142 C 0.11668 0.22157 0.09697 0.0
C143 C 0.0908 0.20762 0.06586 0.0
C144 C 0.13211 0.26834 0.11207 0.0
C145 C 0.16343 0.39882 0.09649 0.0
H146 H 0.11917 0.38428 0.19198 0.0
C147 C 0.19946 0.57399 0.17049 0.0
C148 C 0.21931 0.57979 0.20331 0.0
C149 C 0.17997 0.52788 0.15289 0.0
C150 C 0.13213 0.38902 0.1654 0.0
H151 H 0.06271 0.232 0.02514 0.0
H152 H 0.09037 0.31461 0.05156 0.0
H153 H 0.09563 0.30624 0.16166 0.0
H154 H 0.23417 0.54222 0.24362 0.0
H155 H 0.20068 0.46199 0.21288 0.0
H156 H 0.20109 0.48185 0.10043 0.0
C157 C 0.09842 0.28919 0.06424 0.0
C158 C 0.11865 0.34445 0.14811 0.0
C159 C 0.08256 0.24208 0.04924 0.0
C160 C 0.2185 0.53848 0.21853 0.0
C161 C 0.19923 0.49251 0.20092 0.0
C162 C 0.17729 0.44359 0.11389 0.0
C163 C 0.12221 0.30199 0.09614 0.0
C164 C 0.13478 0.34911 0.11368 0.0
C165 C 0.18017 0.48692 0.16781 0.0
C166 C 0.1623 0.43916 0.14864 0.0
H167 H 0.12367 0.19565 0.11014 0.0
H168 H 0.15117 0.27791 0.13645 0.0
H169 H 0.1764 0.40326 0.06995 0.0
H170 H 0.19912 0.6051 0.15837 0.0
H171 H 0.1648 0.52429 0.12761 0.0
C172 C 0.96232 0.06111 0.62055 0.0
C173 C 0.9526 0.0505 0.58571 0.0
C174 C 0.93886 0.08061 0.63875 0.0
C175 C 0.88632 0.15649 0.62156 0.0
H176 H 0.84372 0.12825 0.71791 0.0
C177 C 0.76935 0.20424 0.72018 0.0
C178 C 0.79238 0.25639 0.70839 0.0
C179 C 0.79161 0.17853 0.71028 0.0
C180 C 0.85533 0.13637 0.69097 0.0
H181 H 0.90787 0.04777 0.54317 0.0
H182 H 0.86544 0.08003 0.57511 0.0
H183 H 0.87037 0.07802 0.6896 0.0
H184 H 0.85838 0.3242 0.67957 0.0
H185 H 0.89842 0.28024 0.66324 0.0
H186 H 0.87007 0.21344 0.62232 0.0
C187 C 0.89247 0.07506 0.58818 0.0
C188 C 0.87088 0.10788 0.67482 0.0
C189 C 0.91639 0.05621 0.56993 0.0
C190 C 0.83981 0.28376 0.68868 0.0
C191 C 0.86242 0.25844 0.67919 0.0
C192 C 0.8707 0.18465 0.63757 0.0
C193 C 0.90493 0.08935 0.62244 0.0
C194 C 0.88645 0.11762 0.63987 0.0
C195 C 0.83727 0.2048 0.68854 0.0
C196 C 0.8553 0.17525 0.67248 0.0
H197 H 0.99 0.05678 0.63332 0.0
H198 H 0.94948 0.09139 0.66503 0.0
H199 H 0.89902 0.16582 0.59481 0.0
H200 H 0.73249 0.18239 0.73529 0.0
H201 H 0.7712 0.13721 0.71787 0.0
C202 C 0.84595 0.97314 0.08622 0.0
C203 C 0.8523 0.94321 0.06318 0.0
C204 C 0.7964 0.95244 0.10175 0.0
C205 C 0.69177 0.88846 0.14391 0.0
H206 H 0.5706 0.81703 0.08575 0.0
C207 C 0.47243 0.78 0.19393 0.0
C208 C 0.44011 0.7869 0.17376 0.0
C209 C 0.52417 0.80039 0.18253 0.0
C210 C 0.60406 0.83709 0.10233 0.0
H211 H 0.81138 0.86744 0.03897 0.0
H212 H 0.72483 0.83141 0.06601 0.0
H213 H 0.65754 0.84834 0.06217 0.0
H214 H 0.43734 0.82165 0.12615 0.0
H215 H 0.527 0.8568 0.10631 0.0
H216 H 0.63806 0.87756 0.18401 0.0
C217 C 0.75827 0.8711 0.07188 0.0
C218 C 0.65382 0.8545 0.0889 0.0
C219 C 0.80798 0.89166 0.05652 0.0
C220 C 0.4611 0.81552 0.14232 0.0
C221 C 0.51244 0.83546 0.13084 0.0
C222 C 0.64178 0.87059 0.15746 0.0
C223 C 0.75178 0.9014 0.09448 0.0
C224 C 0.69841 0.88077 0.10942 0.0
C225 C 0.54434 0.82737 0.15048 0.0
C226 C 0.59743 0.8452 0.13671 0.0
H227 H 0.87919 0.01295 0.09205 0.0
H228 H 0.79276 0.97705 0.11876 0.0
H229 H 0.72523 0.90818 0.16049 0.0
H230 H 0.45705 0.75682 0.21775 0.0
H231 H 0.54755 0.79308 0.19814 0.0
C232 C 0.95595 0.85981 0.58723 0.0
C233 C 0.92383 0.8696 0.56935 0.0
C234 C 0.93366 0.81166 0.60523 0.0
C235 C 0.8176 0.67247 0.60658 0.0
H236 H 0.86503 0.66439 0.69582 0.0
C237 C 0.71962 0.47144 0.67723 0.0
C238 C 0.75226 0.46224 0.69472 0.0
C239 C 0.73901 0.52245 0.66548 0.0
C240 C 0.8517 0.66586 0.67076 0.0
H241 H 0.84282 0.83657 0.55694 0.0
H242 H 0.80387 0.75219 0.58824 0.0
H243 H 0.90137 0.75088 0.66852 0.0
H244 H 0.83076 0.49894 0.7138 0.0
H245 H 0.86544 0.58852 0.69276 0.0
H246 H 0.76925 0.58797 0.60803 0.0
C247 C 0.84643 0.78189 0.58817 0.0
C248 C 0.87243 0.71548 0.65516 0.0
C249 C 0.86871 0.83034 0.57039 0.0
C250 C 0.80455 0.50527 0.70091 0.0
C251 C 0.8243 0.55652 0.68881 0.0
C252 C 0.79725 0.62301 0.62197 0.0
C253 C 0.87872 0.77184 0.60558 0.0
C254 C 0.85558 0.71933 0.62288 0.0
C255 C 0.79203 0.56559 0.67026 0.0
C256 C 0.81382 0.61887 0.65433 0.0
H257 H -0.00143 0.88919 0.58712 0.0
H258 H 0.95971 0.80507 0.61808 0.0
H259 H 0.80453 0.67399 0.58142 0.0
H260 H 0.67909 0.43884 0.67217 0.0
H261 H 0.71246 0.52784 0.65214 0.0
C262 C 0.00211 0.88544 0.44759 0.0
C263 C 0.02715 0.9393 0.45309 0.0
C264 C 0.02976 0.86914 0.43123 0.0
C265 C 0.13559 0.90953 0.36988 0.0
H266 H 0.13751 0.79917 0.41431 0.0
C267 C 0.25783 0.83746 0.31936 0.0
C268 C 0.23476 0.78359 0.32518 0.0
C269 C 0.23228 0.85866 0.33194 0.0
C270 C 0.13665 0.82941 0.40128 0.0
H271 H 0.1002 0.01857 0.44599 0.0
H272 H 0.1485 0.98988 0.41652 0.0
H273 H 0.09444 0.83283 0.44341 0.0
H274 H 0.16656 0.70865 0.34619 0.0
H275 H 0.12075 0.74482 0.36693 0.0
H276 H 0.17668 0.9051 0.32727 0.0
C277 C 0.10765 0.9605 0.42507 0.0
C278 C 0.11237 0.84888 0.41809 0.0
C279 C 0.08022 0.97675 0.44201 0.0
C280 C 0.18481 0.75044 0.34165 0.0
C281 C 0.15902 0.77129 0.35376 0.0
C282 C 0.15945 0.88952 0.35277 0.0
C283 C 0.08257 0.90655 0.41969 0.0
C284 C 0.11121 0.88867 0.40242 0.0
C285 C 0.18341 0.82596 0.3503 0.0
C286 C 0.15953 0.84871 0.36816 0.0
H287 H 0.9612 0.85592 0.45598 0.0
H288 H 0.00968 0.82733 0.42717 0.0
H289 H 0.13483 0.94015 0.35733 0.0
H290 H 0.29669 0.86349 0.30682 0.0
H291 H 0.25206 0.90092 0.32894 0.0
C292 C 0.15721 0.04554 0.93747 0.0
C293 C 0.14804 0.07763 0.95591 0.0
C294 C 0.20503 0.0678 0.91898 0.0
C295 C 0.34427 0.18688 0.9138 0.0
H296 H 0.34727 0.13501 0.82516 0.0
C297 C 0.53817 0.29006 0.83381 0.0
C298 C 0.54962 0.25776 0.81837 0.0
C299 C 0.48746 0.26844 0.84741 0.0
C300 C 0.34711 0.14962 0.85 0.0
H301 H 0.18201 0.1586 0.9689 0.0
H302 H 0.26521 0.19744 0.93647 0.0
H303 H 0.26233 0.09702 0.85543 0.0
H304 H 0.51725 0.17761 0.8048 0.0
H305 H 0.42796 0.13926 0.82874 0.0
H306 H 0.42878 0.23907 0.90868 0.0
C307 C 0.23564 0.15489 0.9367 0.0
C308 C 0.29845 0.12785 0.86738 0.0
C309 C 0.1878 0.13262 0.95521 0.0
C310 C 0.50903 0.20343 0.81604 0.0
C311 C 0.45803 0.1816 0.82977 0.0
C312 C 0.39276 0.20858 0.89648 0.0
C313 C 0.24494 0.12273 0.91843 0.0
C314 C 0.29645 0.14625 0.89951 0.0
C315 C 0.44704 0.21374 0.84637 0.0
C316 C 0.39488 0.19038 0.86433 0.0
H317 H 0.12755 0.00302 0.93738 0.0
H318 H 0.21106 0.04176 0.90561 0.0
H319 H 0.34438 0.2013 0.93877 0.0
H320 H 0.56892 0.33209 0.83602 0.0
H321 H 0.48018 0.29453 0.85936 0.0
C322 C 0.12498 0.19858 0.45337 0.0
C323 C 0.07003 0.15858 0.45405 0.0
C324 C 0.14693 0.24606 0.43454 0.0
C325 C 0.11989 0.30766 0.36445 0.0
H326 H 0.22771 0.43825 0.40699 0.0
C327 C 0.19326 0.51858 0.31483 0.0
C328 C 0.24663 0.55996 0.31978 0.0
C329 C 0.17213 0.46694 0.32688 0.0
C330 C 0.19827 0.40217 0.39441 0.0
H331 H -0.0048 0.13707 0.43491 0.0
H332 H 0.03346 0.21986 0.4025 0.0
H333 H 0.19063 0.35406 0.43698 0.0
H334 H 0.32067 0.58011 0.33878 0.0
H335 H 0.2847 0.49029 0.35858 0.0
H336 H 0.12741 0.35628 0.32193 0.0
C337 C 0.05967 0.21437 0.41624 0.0
C338 C 0.17694 0.35382 0.41169 0.0
C339 C 0.0377 0.16699 0.43511 0.0
C340 C 0.27933 0.54863 0.33472 0.0
C341 C 0.25854 0.49733 0.3464 0.0
C342 C 0.14137 0.35624 0.34706 0.0
C343 C 0.1145 0.25463 0.41588 0.0
C344 C 0.13757 0.30593 0.39695 0.0
C345 C 0.20423 0.45625 0.34398 0.0
C346 C 0.18105 0.40409 0.36179 0.0
H347 H 0.1511 0.19339 0.4675 0.0
H348 H 0.18944 0.27603 0.43446 0.0
H349 H 0.08988 0.27143 0.35226 0.0
H350 H 0.16731 0.52675 0.30369 0.0
H351 H 0.13012 0.43622 0.32464 0.0
C352 C 0.93937 0.08778 0.95975 0.0
C353 C 0.96817 0.0732 0.94238 0.0
C354 C 0.92088 0.11251 0.94196 0.0
C355 C 0.88882 0.12917 0.85405 0.0
H356 H 0.86715 0.22449 0.89876 0.0
C357 C 0.80908 0.24579 0.79762 0.0
C358 C 0.76172 0.22965 0.81491 0.0
C359 C 0.83772 0.22725 0.80891 0.0
C360 C 0.87333 0.19813 0.88598 0.0
H361 H 0.003 0.07555 0.8934 0.0
H362 H 0.97249 0.1206 0.86244 0.0
H363 H 0.91583 0.19679 0.92753 0.0
H364 H 0.70647 0.1805 0.85689 0.0
H365 H 0.7573 0.14955 0.87712 0.0
H366 H 0.84652 0.13158 0.81226 0.0
C367 C 0.96256 0.11147 0.88954 0.0
C368 C 0.90079 0.18187 0.90249 0.0
C369 C 0.98046 0.08609 0.90729 0.0
C370 C 0.74276 0.19351 0.843 0.0
C371 C 0.77172 0.1758 0.85459 0.0
C372 C 0.86207 0.14625 0.83727 0.0
C373 C 0.93149 0.12394 0.90648 0.0
C374 C 0.90774 0.14608 0.88716 0.0
C375 C 0.81988 0.19339 0.8381 0.0
C376 C 0.85314 0.17982 0.85353 0.0
H377 H 0.92916 0.07806 0.98681 0.0
H378 H 0.89643 0.12067 0.95587 0.0
H379 H 0.89274 0.1011 0.84157 0.0
H380 H 0.82557 0.27501 0.7767 0.0
H381 H 0.87511 0.24155 0.79606 0.0
C382 C 0.83309 0.99145 0.40879 0.0
C383 C 0.82197 0.96988 0.44232 0.0
C384 C 0.79225 0.9802 0.38806 0.0
C385 C 0.64978 0.92312 0.38852 0.0
H386 H 0.65713 0.88066 0.29716 0.0
C387 C 0.46865 0.77499 0.31736 0.0
C388 C 0.45927 0.79466 0.28814 0.0
C389 C 0.51819 0.80371 0.33133 0.0
C390 C 0.65528 0.8936 0.32229 0.0
H391 H 0.76034 0.92161 0.48129 0.0
H392 H 0.68805 0.90035 0.44464 0.0
H393 H 0.73328 0.91896 0.33378 0.0
H394 H 0.4949 0.85707 0.24871 0.0
H395 H 0.58397 0.90744 0.273 0.0
H396 H 0.57038 0.89432 0.3776 0.0
C397 C 0.72848 0.92683 0.43453 0.0
C398 C 0.69861 0.91543 0.34329 0.0
C399 C 0.76963 0.9387 0.45548 0.0
C400 C 0.50155 0.84127 0.27117 0.0
C401 C 0.55196 0.87006 0.28513 0.0
C402 C 0.60644 0.90096 0.36763 0.0
C403 C 0.73941 0.94661 0.40036 0.0
C404 C 0.69581 0.92926 0.37691 0.0
C405 C 0.55954 0.8523 0.31612 0.0
C406 C 0.60861 0.88503 0.33473 0.0
H407 H 0.87342 0.01624 0.39828 0.0
H408 H 0.80199 -0.00311 0.36214 0.0
H409 H 0.64676 0.93414 0.41405 0.0
H410 H 0.43673 0.73867 0.33066 0.0
H411 H 0.52368 0.78908 0.35494 0.0
C412 C 0.9202 0.78286 0.95746 0.0
C413 C 0.92319 0.82526 0.94195 0.0
C414 C 0.91275 0.74266 0.93746 0.0
C415 C 0.93616 0.71399 0.85349 0.0
H416 H 0.80537 0.5727 0.86803 0.0
C417 C 0.86228 0.50182 0.81056 0.0
C418 C 0.8145 0.47646 0.7934 0.0
C419 C 0.88728 0.55349 0.82111 0.0
C420 C 0.84199 0.6121 0.8638 0.0
H421 H 0.92135 0.85972 0.89382 0.0
H422 H 0.90947 0.79001 0.85896 0.0
H423 H 0.82544 0.64274 0.90632 0.0
H424 H 0.75744 0.48562 0.77126 0.0
H425 H 0.80097 0.57596 0.79014 0.0
H426 H 0.95284 0.68254 0.81116 0.0
C427 C 0.91256 0.78776 0.88641 0.0
C428 C 0.8536 0.65172 0.88577 0.0
C429 C 0.91871 0.82711 0.90638 0.0
C430 C 0.79475 0.50485 0.78396 0.0
C431 C 0.81949 0.5563 0.79475 0.0
C432 C 0.92497 0.67388 0.83181 0.0
C433 C 0.90964 0.74544 0.9018 0.0
C434 C 0.9004 0.70295 0.88052 0.0
C435 C 0.86418 0.57964 0.81492 0.0
C436 C 0.87738 0.62306 0.83666 0.0
H437 H 0.92388 0.78099 0.98486 0.0
H438 H 0.91013 0.70985 0.94967 0.0
H439 H 0.97248 0.75356 0.84918 0.0
H440 H 0.87792 0.4803 0.81813 0.0
H441 H 0.92143 0.57087 0.83702 0.0
loop_
_geom_bond_atom_site_label_1
_geom_bond_atom_site_label_2
_geom_bond_distance
_geom_bond_site_symmetry_2
_ccdc_geom_bond_type
Tb0 O3 2.453 1_545 S
Tb0 O4 2.596 1_545 S
Tb0 O5 2.374 1_554 S
Tb0 O13 2.343 1_554 S
Tb0 O15 2.353 1_455 S
Tb0 O17 2.427 . S
Tb0 O18 2.513 . S
C1 O5 1.251 . S
C1 O7 1.263 . S
Tb2 O4 2.343 1_656 S
Tb2 O7 2.353 1_665 S
Tb2 O10 2.427 . S
Tb2 O11 2.513 . S
Tb2 O12 2.453 1_565 S
Tb2 O13 2.596 1_665 S
Tb2 O14 2.374 1_556 S
O3 Tb0 2.453 1_565 S
O3 C19 1.245 . S
O4 Tb0 2.596 1_565 S
O4 Tb2 2.343 1_454 S
O4 C19 1.259 . S
O5 Tb0 2.374 1_556 S
O5 C1 1.251 . S
C6 O10 1.275 . S
C6 O11 1.246 . S
O7 C1 1.263 . S
O7 Tb2 2.353 1_445 S
C8 O12 1.245 . S
C8 O13 1.259 1_655 S
C9 O14 1.250 . S
C9 O15 1.263 1_565 S
O10 Tb2 2.427 . S
O10 C6 1.275 . S
O11 Tb2 2.513 . S
O11 C6 1.246 . S
O12 Tb2 2.453 1_545 S
O12 C8 1.245 . S
O13 Tb0 2.343 1_556 S
O13 Tb2 2.596 1_445 S
O13 C8 1.259 1_455 S
O14 Tb2 2.374 1_554 S
O14 C9 1.250 . S
O15 Tb0 2.353 1_655 S
O15 C9 1.263 1_545 S
C16 O17 1.275 . S
C16 O18 1.246 . S
O17 Tb0 2.427 . S
O17 C16 1.275 . S
O18 Tb0 2.513 . S
O18 C16 1.246 . S
C19 O3 1.245 . S
C19 O4 1.259 . S
Tb20 O23 2.453 1_655 S
Tb20 O24 2.596 1_665 S
Tb20 O25 2.374 . S
Tb20 O33 2.343 1_565 S
Tb20 O35 2.353 1_665 S
Tb20 O37 2.429 . S
Tb20 O38 2.513 . S
C21 O25 1.251 . S
C21 O27 1.263 . S
Tb22 O24 2.343 . S
Tb22 O27 2.353 1_445 S
Tb22 O30 2.427 . S
Tb22 O31 2.513 . S
Tb22 O32 2.453 1_455 S
Tb22 O33 2.596 1_455 S
Tb22 O34 2.374 . S
O23 Tb20 2.453 1_455 S
O23 C39 1.245 . S
O24 Tb20 2.596 1_445 S
O24 Tb22 2.343 . S
O24 C39 1.259 1_545 S
O25 Tb20 2.374 . S
O25 C21 1.251 . S
C26 O30 1.275 . S
C26 O31 1.246 . S
O27 C21 1.263 . S
O27 Tb22 2.353 1_665 S
C28 O32 1.245 . S
C28 O33 1.259 . S
C29 O34 1.250 . S
C29 O35 1.263 . S
O30 Tb22 2.427 . S
O30 C26 1.275 . S
O31 Tb22 2.513 . S
O31 C26 1.246 . S
O32 Tb22 2.453 1_655 S
O32 C28 1.245 . S
O33 Tb20 2.343 1_545 S
O33 Tb22 2.596 1_655 S
O33 C28 1.259 . S
O34 Tb22 2.374 . S
O34 C29 1.250 . S
O35 Tb20 2.353 1_445 S
O35 C29 1.263 . S
C36 O37 1.276 . S
C36 O38 1.246 . S
O37 Tb20 2.429 . S
O37 C36 1.276 . S
O38 Tb20 2.513 . S
O38 C36 1.246 . S
C39 O23 1.245 . S
C39 O24 1.259 1_565 S
Zn40 O46 1.920 . S
Zn40 O52 1.898 . S
Zn40 O55 1.905 . S
Zn41 O49 1.905 . S
Zn41 O50 1.898 . S
Zn41 O58 1.920 . S
Zn42 O45 2.080 . S
Zn42 O48 2.114 . S
Zn42 O51 2.120 . S
Zn42 O53 2.120 . S
Zn42 O54 2.114 . S
Zn42 O57 2.080 . S
C43 O48 1.166 . S
C43 O49 1.182 . S
C44 O50 1.167 . S
C44 O51 1.299 . S
O45 Zn42 2.080 . S
O45 C59 1.305 . S
O46 Zn40 1.920 . S
O46 C59 1.234 . S
C47 O52 1.167 . S
C47 O53 1.299 . S
O48 Zn42 2.114 . S
O48 C43 1.166 . S
O49 Zn41 1.905 . S
O49 C43 1.182 . S
O50 Zn41 1.898 . S
O50 C44 1.167 . S
O51 Zn42 2.120 . S
O51 C44 1.299 . S
O52 Zn40 1.898 . S
O52 C47 1.167 . S
O53 Zn42 2.120 . S
O53 C47 1.299 . S
O54 Zn42 2.114 . S
O54 C56 1.166 . S
O55 Zn40 1.905 . S
O55 C56 1.182 . S
C56 O54 1.166 . S
C56 O55 1.182 . S
O57 Zn42 2.080 . S
O57 C60 1.305 . S
O58 Zn41 1.920 . S
O58 C60 1.234 . S
C59 O45 1.305 . S
C59 O46 1.234 . S
C60 O57 1.305 . S
C60 O58 1.234 . S
Zn61 O67 1.920 . S
Zn61 O73 1.898 . S
Zn61 O76 1.905 . S
Zn62 O70 1.905 . S
Zn62 O71 1.898 . S
Zn62 O79 1.920 . S
Zn63 O66 2.080 . S
Zn63 O69 2.114 . S
Zn63 O72 2.120 . S
Zn63 O74 2.120 . S
Zn63 O75 2.114 . S
Zn63 O78 2.080 . S
C64 O69 1.166 . S
C64 O70 1.182 . S
C65 O71 1.167 . S
C65 O72 1.299 . S
O66 Zn63 2.080 . S
O66 C80 1.305 . S
O67 Zn61 1.920 . S
O67 C80 1.234 . S
C68 O73 1.167 . S
C68 O74 1.299 . S
O69 Zn63 2.114 . S
O69 C64 1.166 . S
O70 Zn62 1.905 . S
O70 C64 1.182 . S
O71 Zn62 1.898 . S
O71 C65 1.167 . S
O72 Zn63 2.120 . S
O72 C65 1.299 . S
O73 Zn61 1.898 . S
O73 C68 1.167 . S
O74 Zn63 2.120 . S
O74 C68 1.299 . S
O75 Zn63 2.114 . S
O75 C77 1.166 . S
O76 Zn61 1.905 . S
O76 C77 1.182 . S
C77 O75 1.166 . S
C77 O76 1.182 . S
O78 Zn63 2.080 . S
O78 C81 1.305 . S
O79 Zn62 1.920 . S
O79 C81 1.234 . S
C80 O66 1.305 . S
C80 O67 1.234 . S
C81 O78 1.305 . S
C81 O79 1.234 . S
C82 C83 1.349 . S
C82 C84 1.327 . S
C82 H107 0.950 . S
C83 C82 1.349 . S
C83 C99 1.349 . S
C84 C82 1.327 . S
C84 C103 1.429 . S
C84 H108 0.950 . S
C85 C102 1.574 . S
C85 C104 1.368 . S
C85 H109 0.949 . S
H86 C90 0.949 . S
C87 C88 1.349 . S
C87 C89 1.327 . S
C87 H110 0.950 . S
C88 C87 1.349 . S
C88 C100 1.349 . S
C89 C87 1.327 . S
C89 C105 1.429 . S
C89 H111 0.950 . S
C90 H86 0.949 . S
C90 C98 1.574 . S
C90 C106 1.368 . S
H91 C99 0.950 . S
H92 C97 0.950 . S
H93 C98 0.949 . S
H94 C100 0.950 . S
H95 C101 0.950 . S
H96 C102 0.949 . S
C97 H92 0.950 . S
C97 C99 1.327 . S
C97 C103 1.429 . S
C98 C90 1.574 . S
C98 H93 0.949 . S
C98 C104 1.368 . S
C99 C83 1.349 . S
C99 H91 0.950 . S
C99 C97 1.327 . S
C100 C88 1.349 . S
C100 H94 0.950 . S
C100 C101 1.327 . S
C101 H95 0.950 . S
C101 C100 1.327 . S
C101 C105 1.429 . S
C102 C85 1.574 . S
C102 H96 0.949 . S
C102 C106 1.368 . S
C103 C84 1.429 . S
C103 C97 1.429 . S
C103 C104 1.523 . S
C104 C85 1.368 . S
C104 C98 1.368 . S
C104 C103 1.523 . S
C105 C89 1.429 . S
C105 C101 1.429 . S
C105 C106 1.523 . S
C106 C90 1.368 . S
C106 C102 1.368 . S
C106 C105 1.523 . S
H107 C82 0.950 . S
H108 C84 0.950 . S
H109 C85 0.949 . S
H110 C87 0.950 . S
H111 C89 0.950 . S
C112 C113 1.349 . S
C112 C114 1.327 . S
C112 H137 0.950 . S
C113 C112 1.349 . S
C113 C129 1.349 . S
C114 C112 1.327 . S
C114 C133 1.429 . S
C114 H138 0.950 . S
C115 C132 1.574 . S
C115 C134 1.368 . S
C115 H139 0.949 . S
H116 C120 0.949 . S
C117 C118 1.349 . S
C117 C119 1.327 . S
C117 H140 0.950 . S
C118 C117 1.349 . S
C118 C130 1.349 . S
C119 C117 1.327 . S
C119 C135 1.429 . S
C119 H141 0.950 . S
C120 H116 0.949 . S
C120 C128 1.574 . S
C120 C136 1.368 . S
H121 C129 0.950 . S
H122 C127 0.950 . S
H123 C128 0.949 . S
H124 C130 0.950 . S
H125 C131 0.950 . S
H126 C132 0.949 . S
C127 H122 0.950 . S
C127 C129 1.327 . S
C127 C133 1.429 . S
C128 C120 1.574 . S
C128 H123 0.949 . S
C128 C134 1.368 . S
C129 C113 1.349 . S
C129 H121 0.950 . S
C129 C127 1.327 . S
C130 C118 1.349 . S
C130 H124 0.950 . S
C130 C131 1.327 . S
C131 H125 0.950 . S
C131 C130 1.327 . S
C131 C135 1.429 . S
C132 C115 1.574 . S
C132 H126 0.949 . S
C132 C136 1.368 . S
C133 C114 1.429 . S
C133 C127 1.429 . S
C133 C134 1.523 . S
C134 C115 1.368 . S
C134 C128 1.368 . S
C134 C133 1.523 . S
C135 C119 1.429 . S
C135 C131 1.429 . S
C135 C136 1.523 . S
C136 C120 1.368 . S
C136 C132 1.368 . S
C136 C135 1.523 . S
H137 C112 0.950 . S
H138 C114 0.950 . S
H139 C115 0.949 . S
H140 C117 0.950 . S
H141 C119 0.950 . S
C142 C143 1.349 . S
C142 C144 1.327 . S
C142 H167 0.950 . S
C143 C142 1.349 . S
C143 C159 1.349 . S
C144 C142 1.327 . S
C144 C163 1.429 . S
C144 H168 0.950 . S
C145 C162 1.574 . S
C145 C164 1.368 . S
C145 H169 0.949 . S
H146 C150 0.949 . S
C147 C148 1.349 . S
C147 C149 1.327 . S
C147 H170 0.950 . S
C148 C147 1.349 . S
C148 C160 1.349 . S
C149 C147 1.327 . S
C149 C165 1.429 . S
C149 H171 0.950 . S
C150 H146 0.949 . S
C150 C158 1.574 . S
C150 C166 1.368 . S
H151 C159 0.950 . S
H152 C157 0.950 . S
H153 C158 0.949 . S
H154 C160 0.950 . S
H155 C161 0.950 . S
H156 C162 0.949 . S
C157 H152 0.950 . S
C157 C159 1.327 . S
C157 C163 1.429 . S
C158 C150 1.574 . S
C158 H153 0.949 . S
C158 C164 1.368 . S
C159 C143 1.349 . S
C159 H151 0.950 . S
C159 C157 1.327 . S
C160 C148 1.349 . S
C160 H154 0.950 . S
C160 C161 1.327 . S
C161 H155 0.950 . S
C161 C160 1.327 . S
C161 C165 1.429 . S
C162 C145 1.574 . S
C162 H156 0.949 . S
C162 C166 1.368 . S
C163 C144 1.429 . S
C163 C157 1.429 . S
C163 C164 1.523 . S
C164 C145 1.368 . S
C164 C158 1.368 . S
C164 C163 1.523 . S
C165 C149 1.429 . S
C165 C161 1.429 . S
C165 C166 1.523 . S
C166 C150 1.368 . S
C166 C162 1.368 . S
C166 C165 1.523 . S
H167 C142 0.950 . S
H168 C144 0.950 . S
H169 C145 0.949 . S
H170 C147 0.950 . S
H171 C149 0.950 . S
C172 C173 1.349 . S
C172 C174 1.327 . S
C172 H197 0.950 . S
C173 C172 1.349 . S
C173 C189 1.349 . S
C174 C172 1.327 . S
C174 C193 1.429 . S
C174 H198 0.950 . S
C175 C192 1.574 . S
C175 C194 1.368 . S
C175 H199 0.949 . S
H176 C180 0.949 . S
C177 C178 1.349 . S
C177 C179 1.327 . S
C177 H200 0.950 . S
C178 C177 1.349 . S
C178 C190 1.349 . S
C179 C177 1.327 . S
C179 C195 1.429 . S
C179 H201 0.950 . S
C180 H176 0.949 . S
C180 C188 1.574 . S
C180 C196 1.368 . S
H181 C189 0.950 . S
H182 C187 0.950 . S
H183 C188 0.949 . S
H184 C190 0.950 . S
H185 C191 0.950 . S
H186 C192 0.949 . S
C187 H182 0.950 . S
C187 C189 1.327 . S
C187 C193 1.429 . S
C188 C180 1.574 . S
C188 H183 0.949 . S
C188 C194 1.368 . S
C189 C173 1.349 . S
C189 H181 0.950 . S
C189 C187 1.327 . S
C190 C178 1.349 . S
C190 H184 0.950 . S
C190 C191 1.327 . S
C191 H185 0.950 . S
C191 C190 1.327 . S
C191 C195 1.429 . S
C192 C175 1.574 . S
C192 H186 0.949 . S
C192 C196 1.368 . S
C193 C174 1.429 . S
C193 C187 1.429 . S
C193 C194 1.523 . S
C194 C175 1.368 . S
C194 C188 1.368 . S
C194 C193 1.523 . S
C195 C179 1.429 . S
C195 C191 1.429 . S
C195 C196 1.523 . S
C196 C180 1.368 . S
C196 C192 1.368 . S
C196 C195 1.523 . S
H197 C172 0.950 . S
H198 C174 0.950 . S
H199 C175 0.949 . S
H200 C177 0.950 . S
H201 C179 0.950 . S
C202 C203 1.349 . S
C202 C204 1.327 . S
C202 H227 0.958 . S
C203 C202 1.349 . S
C203 C219 1.349 . S
C204 C202 1.327 . S
C204 C223 1.429 . S
C204 H228 0.950 . S
C205 C222 1.574 . S
C205 C224 1.368 . S
C205 H229 0.949 . S
H206 C210 0.949 . S
C207 C208 1.349 . S
C207 C209 1.327 . S
C207 H230 0.950 . S
C208 C207 1.349 . S
C208 C220 1.349 . S
C209 C207 1.327 . S
C209 C225 1.429 . S
C209 H231 0.950 . S
C210 H206 0.949 . S
C210 C218 1.574 . S
C210 C226 1.368 . S
H211 C219 0.950 . S
H212 C217 0.950 . S
H213 C218 0.949 . S
H214 C220 0.950 . S
H215 C221 0.950 . S
H216 C222 0.949 . S
C217 H212 0.950 . S
C217 C219 1.327 . S
C217 C223 1.429 . S
C218 C210 1.574 . S
C218 H213 0.949 . S
C218 C224 1.368 . S
C219 C203 1.349 . S
C219 H211 0.950 . S
C219 C217 1.327 . S
C220 C208 1.349 . S
C220 H214 0.950 . S
C220 C221 1.327 . S
C221 H215 0.950 . S
C221 C220 1.327 . S
C221 C225 1.429 . S
C222 C205 1.574 . S
C222 H216 0.949 . S
C222 C226 1.368 . S
C223 C204 1.429 . S
C223 C217 1.429 . S
C223 C224 1.523 . S
C224 C205 1.368 . S
C224 C218 1.368 . S
C224 C223 1.523 . S
C225 C209 1.429 . S
C225 C221 1.429 . S
C225 C226 1.523 . S
C226 C210 1.368 . S
C226 C222 1.368 . S
C226 C225 1.523 . S
H227 C202 0.958 . S
H228 C204 0.950 . S
H229 C205 0.949 . S
H230 C207 0.950 . S
H231 C209 0.950 . S
C232 C233 1.349 . S
C232 C234 1.327 . S
C232 H257 0.950 . S
C233 C232 1.349 . S
C233 C249 1.349 . S
C234 C232 1.327 . S
C234 C253 1.429 . S
C234 H258 0.950 . S
C235 C252 1.574 . S
C235 C254 1.368 . S
C235 H259 0.949 . S
H236 C240 0.949 . S
C237 C238 1.349 . S
C237 C239 1.327 . S
C237 H260 0.950 . S
C238 C237 1.349 . S
C238 C250 1.349 . S
C239 C237 1.327 . S
C239 C255 1.429 . S
C239 H261 0.950 . S
C240 H236 0.949 . S
C240 C248 1.574 . S
C240 C256 1.368 . S
H241 C249 0.950 . S
H242 C247 0.950 . S
H243 C248 0.949 . S
H244 C250 0.950 . S
H245 C251 0.950 . S
H246 C252 0.949 . S
C247 H242 0.950 . S
C247 C249 1.327 . S
C247 C253 1.429 . S
C248 C240 1.574 . S
C248 H243 0.949 . S
C248 C254 1.368 . S
C249 C233 1.349 . S
C249 H241 0.950 . S
C249 C247 1.327 . S
C250 C238 1.349 . S
C250 H244 0.950 . S
C250 C251 1.327 . S
C251 H245 0.950 . S
C251 C250 1.327 . S
C251 C255 1.429 . S
C252 C235 1.574 . S
C252 H246 0.949 . S
C252 C256 1.368 . S
C253 C234 1.429 . S
C253 C247 1.429 . S
C253 C254 1.523 . S
C254 C235 1.368 . S
C254 C248 1.368 . S
C254 C253 1.523 . S
C255 C239 1.429 . S
C255 C251 1.429 . S
C255 C256 1.523 . S
C256 C240 1.368 . S
C256 C252 1.368 . S
C256 C255 1.523 . S
H257 C232 0.950 . S
H258 C234 0.950 . S
H259 C235 0.949 . S
H260 C237 0.950 . S
H261 C239 0.950 . S
C262 C263 1.349 . S
C262 C264 1.327 . S
C262 H287 0.950 . S
C263 C262 1.349 . S
C263 C279 1.349 . S
C264 C262 1.327 . S
C264 C283 1.429 . S
C264 H288 0.950 . S
C265 C282 1.574 . S
C265 C284 1.368 . S
C265 H289 0.949 . S
H266 C270 0.949 . S
C267 C268 1.349 . S
C267 C269 1.327 . S
C267 H290 0.950 . S
C268 C267 1.349 . S
C268 C280 1.349 . S
C269 C267 1.327 . S
C269 C285 1.429 . S
C269 H291 0.950 . S
C270 H266 0.949 . S
C270 C278 1.574 . S
C270 C286 1.368 . S
H271 C279 0.950 1_545 S
H272 C277 0.950 . S
H273 C278 0.949 . S
H274 C280 0.950 . S
H275 C281 0.950 . S
H276 C282 0.949 . S
C277 H272 0.950 . S
C277 C279 1.327 . S
C277 C283 1.429 . S
C278 C270 1.574 . S
C278 H273 0.949 . S
C278 C284 1.368 . S
C279 C263 1.349 . S
C279 H271 0.950 1_565 S
C279 C277 1.327 . S
C280 C268 1.349 . S
C280 H274 0.950 . S
C280 C281 1.327 . S
C281 H275 0.950 . S
C281 C280 1.327 . S
C281 C285 1.429 . S
C282 C265 1.574 . S
C282 H276 0.949 . S
C282 C286 1.368 . S
C283 C264 1.429 . S
C283 C277 1.429 . S
C283 C284 1.523 . S
C284 C265 1.368 . S
C284 C278 1.368 . S
C284 C283 1.523 . S
C285 C269 1.429 . S
C285 C281 1.429 . S
C285 C286 1.523 . S
C286 C270 1.368 . S
C286 C282 1.368 . S
C286 C285 1.523 . S
H287 C262 0.950 . S
H288 C264 0.950 . S
H289 C265 0.949 . S
H290 C267 0.950 . S
H291 C269 0.950 . S
C292 C293 1.349 . S
C292 C294 1.327 . S
C292 H317 0.950 . S
C293 C292 1.349 . S
C293 C309 1.349 . S
C294 C292 1.327 . S
C294 C313 1.429 . S
C294 H318 0.950 . S
C295 C312 1.574 . S
C295 C314 1.368 . S
C295 H319 0.949 . S
H296 C300 0.949 . S
C297 C298 1.349 . S
C297 C299 1.327 . S
C297 H320 0.950 . S
C298 C297 1.349 . S
C298 C310 1.349 . S
C299 C297 1.327 . S
C299 C315 1.429 . S
C299 H321 0.950 . S
C300 H296 0.949 . S
C300 C308 1.574 . S
C300 C316 1.368 . S
H301 C309 0.950 . S
H302 C307 0.950 . S
H303 C308 0.949 . S
H304 C310 0.950 . S
H305 C311 0.950 . S
H306 C312 0.949 . S
C307 H302 0.950 . S
C307 C309 1.327 . S
C307 C313 1.429 . S
C308 C300 1.574 . S
C308 H303 0.949 . S
C308 C314 1.368 . S
C309 C293 1.349 . S
C309 H301 0.950 . S
C309 C307 1.327 . S
C310 C298 1.349 . S
C310 H304 0.950 . S
C310 C311 1.327 . S
C311 H305 0.950 . S
C311 C310 1.327 . S
C311 C315 1.429 . S
C312 C295 1.574 . S
C312 H306 0.949 . S
C312 C316 1.368 . S
C313 C294 1.429 . S
C313 C307 1.429 . S
C313 C314 1.523 . S
C314 C295 1.368 . S
C314 C308 1.368 . S
C314 C313 1.523 . S
C315 C299 1.429 . S
C315 C311 1.429 . S
C315 C316 1.523 . S
C316 C300 1.368 . S
C316 C312 1.368 . S
C316 C315 1.523 . S
H317 C292 0.950 . S
H318 C294 0.950 . S
H319 C295 0.949 . S
H320 C297 0.950 . S
H321 C299 0.950 . S
C322 C323 1.349 . S
C322 C324 1.327 . S
C322 H347 0.950 . S
C323 C322 1.349 . S
C323 C339 1.349 . S
C324 C322 1.327 . S
C324 C343 1.429 . S
C324 H348 0.950 . S
C325 C342 1.574 . S
C325 C344 1.368 . S
C325 H349 0.949 . S
H326 C330 0.949 . S
C327 C328 1.349 . S
C327 C329 1.327 . S
C327 H350 0.950 . S
C328 C327 1.349 . S
C328 C340 1.349 . S
C329 C327 1.327 . S
C329 C345 1.429 . S
C329 H351 0.950 . S
C330 H326 0.949 . S
C330 C338 1.574 . S
C330 C346 1.368 . S
H331 C339 0.950 . S
H332 C337 0.950 . S
H333 C338 0.949 . S
H334 C340 0.950 . S
H335 C341 0.950 . S
H336 C342 0.949 . S
C337 H332 0.950 . S
C337 C339 1.327 . S
C337 C343 1.429 . S
C338 C330 1.574 . S
C338 H333 0.949 . S
C338 C344 1.368 . S
C339 C323 1.349 . S
C339 H331 0.950 . S
C339 C337 1.327 . S
C340 C328 1.349 . S
C340 H334 0.950 . S
C340 C341 1.327 . S
C341 H335 0.950 . S
C341 C340 1.327 . S
C341 C345 1.429 . S
C342 C325 1.574 . S
C342 H336 0.949 . S
C342 C346 1.368 . S
C343 C324 1.429 . S
C343 C337 1.429 . S
C343 C344 1.523 . S
C344 C325 1.368 . S
C344 C338 1.368 . S
C344 C343 1.523 . S
C345 C329 1.429 . S
C345 C341 1.429 . S
C345 C346 1.523 . S
C346 C330 1.368 . S
C346 C342 1.368 . S
C346 C345 1.523 . S
H347 C322 0.950 . S
H348 C324 0.950 . S
H349 C325 0.949 . S
H350 C327 0.950 . S
H351 C329 0.950 . S
C352 C353 1.349 . S
C352 C354 1.327 . S
C352 H377 0.950 1_556 S
C353 C352 1.349 . S
C353 C369 1.349 . S
C354 C352 1.327 . S
C354 C373 1.429 . S
C354 H378 0.950 . S
C355 C372 1.574 . S
C355 C374 1.368 . S
C355 H379 0.949 . S
H356 C360 0.949 . S
C357 C358 1.349 . S
C357 C359 1.327 . S
C357 H380 0.950 . S
C358 C357 1.349 . S
C358 C370 1.349 . S
C359 C357 1.327 . S
C359 C375 1.429 . S
C359 H381 0.950 . S
C360 H356 0.949 . S
C360 C368 1.574 . S
C360 C376 1.368 . S
H361 C369 0.950 . S
H362 C367 0.950 . S
H363 C368 0.949 . S
H364 C370 0.950 . S
H365 C371 0.950 . S
H366 C372 0.949 . S
C367 H362 0.950 . S
C367 C369 1.327 . S
C367 C373 1.429 . S
C368 C360 1.574 . S
C368 H363 0.949 . S
C368 C374 1.368 . S
C369 C353 1.349 . S
C369 H361 0.950 . S
C369 C367 1.327 . S
C370 C358 1.349 . S
C370 H364 0.950 . S
C370 C371 1.327 . S
C371 H365 0.950 . S
C371 C370 1.327 . S
C371 C375 1.429 . S
C372 C355 1.574 . S
C372 H366 0.949 . S
C372 C376 1.368 . S
C373 C354 1.429 . S
C373 C367 1.429 . S
C373 C374 1.523 . S
C374 C355 1.368 . S
C374 C368 1.368 . S
C374 C373 1.523 . S
C375 C359 1.429 . S
C375 C371 1.429 . S
C375 C376 1.523 . S
C376 C360 1.368 . S
C376 C372 1.368 . S
C376 C375 1.523 . S
H377 C352 0.950 1_554 S
H378 C354 0.950 . S
H379 C355 0.949 . S
H380 C357 0.950 . S
H381 C359 0.950 . S
C382 C383 1.349 . S
C382 C384 1.327 . S
C382 H407 0.950 . S
C383 C382 1.349 . S
C383 C399 1.349 . S
C384 C382 1.327 . S
C384 C403 1.429 . S
C384 H408 0.950 . S
C385 C402 1.574 . S
C385 C404 1.368 . S
C385 H409 0.949 . S
H386 C390 0.949 . S
C387 C388 1.349 . S
C387 C389 1.327 . S
C387 H410 0.950 . S
C388 C387 1.349 . S
C388 C400 1.349 . S
C389 C387 1.327 . S
C389 C405 1.429 . S
C389 H411 0.950 . S
C390 H386 0.949 . S
C390 C398 1.574 . S
C390 C406 1.368 . S
H391 C399 0.950 . S
H392 C397 0.950 . S
H393 C398 0.949 . S
H394 C400 0.950 . S
H395 C401 0.950 . S
H396 C402 0.949 . S
C397 H392 0.950 . S
C397 C399 1.327 . S
C397 C403 1.429 . S
C398 C390 1.574 . S
C398 H393 0.949 . S
C398 C404 1.368 . S
C399 C383 1.349 . S
C399 H391 0.950 . S
C399 C397 1.327 . S
C400 C388 1.349 . S
C400 H394 0.950 . S
C400 C401 1.327 . S
C401 H395 0.950 . S
C401 C400 1.327 . S
C401 C405 1.429 . S
C402 C385 1.574 . S
C402 H396 0.949 . S
C402 C406 1.368 . S
C403 C384 1.429 . S
C403 C397 1.429 . S
C403 C404 1.523 . S
C404 C385 1.368 . S
C404 C398 1.368 . S
C404 C403 1.523 . S
C405 C389 1.429 . S
C405 C401 1.429 . S
C405 C406 1.523 . S
C406 C390 1.368 . S
C406 C402 1.368 . S
C406 C405 1.523 . S
H407 C382 0.950 . S
H408 C384 0.950 . S
H409 C385 0.949 . S
H410 C387 0.950 . S
H411 C389 0.950 . S
C412 C413 1.349 . S
C412 C414 1.327 . S
C412 H437 0.950 . S
C413 C412 1.349 . S
C413 C429 1.349 . S
C414 C412 1.327 . S
C414 C433 1.429 . S
C414 H438 0.950 . S
C415 C432 1.574 . S
C415 C434 1.368 . S
C415 H439 0.949 . S
H416 C420 0.949 . S
C417 C418 1.349 . S
C417 C419 1.327 . S
C417 H440 0.950 . S
C418 C417 1.349 . S
C418 C430 1.349 . S
C419 C417 1.327 . S
C419 C435 1.429 . S
C419 H441 0.950 . S
C420 H416 0.949 . S
C420 C428 1.574 . S
C420 C436 1.368 . S
H421 C429 0.950 1_455 S
H422 C427 0.950 . S
H423 C428 0.949 . S
H424 C430 0.950 . S
H425 C431 0.950 . S
H426 C432 0.949 . S
C427 H422 0.950 . S
C427 C429 1.327 . S
C427 C433 1.429 . S
C428 C420 1.574 . S
C428 H423 0.949 . S
C428 C434 1.368 . S
C429 C413 1.349 . S
C429 H421 0.950 1_655 S
C429 C427 1.327 . S
C430 C418 1.349 . S
C430 H424 0.950 . S
C430 C431 1.327 . S
C431 H425 0.950 . S
C431 C430 1.327 . S
C431 C435 1.429 . S
C432 C415 1.574 . S
C432 H426 0.949 . S
C432 C436 1.368 . S
C433 C414 1.429 . S
C433 C427 1.429 . S
C433 C434 1.523 . S
C434 C415 1.368 . S
C434 C428 1.368 . S
C434 C433 1.523 . S
C435 C419 1.429 . S
C435 C431 1.429 . S
C435 C436 1.523 . S
C436 C420 1.368 . S
C436 C432 1.368 . S
C436 C435 1.523 . S
H437 C412 0.950 . S
H438 C414 0.950 . S
H439 C415 0.949 . S
H440 C417 0.950 . S
H441 C419 0.950 . S
C83 C19 1.477 . S
C88 C59 1.445 . S
C113 C26 1.198 . S
C118 C65 1.129 . S
C143 C16 1.135 . S
C148 C56 1.103 . S
C173 C28 1.516 . S
C178 C81 1.493 . S
C203 C9 1.823 . S
C208 C47 1.672 . S
C238 C64 1.591 . S
C233 C21 1.683 . S
C263 C39 1.477 . S
C268 C60 1.446 . S
C298 C77 1.591 . S
C293 C1 1.683 . S
C328 C44 1.672 . S
C323 C29 1.823 . S
C358 C80 1.493 . S
C353 C8 1.515 . S
C388 C43 1.103 . S
C383 C36 1.135 . S
C418 C68 1.130 . S
C413 C6 1.199 . S
