# Generated by pormake.
# Topology rtl, (3,6)-cn, num edge types: 1
# Building blocks:
#     Node 0, Type 0, BuildingBlock: OLANEW_clean_sbu_2, # of connection points: 3
#     Node 1, Type 0, BuildingBlock: OLANEW_clean_sbu_2, # of connection points: 3
#     Node 2, Type 0, BuildingBlock: OLANEW_clean_sbu_2, # of connection points: 3
#     Node 3, Type 0, BuildingBlock: OLANEW_clean_sbu_2, # of connection points: 3
#     Node 4, Type 1, BuildingBlock: KUMJIN_clean_sbu_1, # of connection points: 6
#     Node 5, Type 1, BuildingBlock: KUMJIN_clean_sbu_1, # of connection points: 6
#     Edge 6, Type (0, 1), BuildingBlock: FUNLAD_clean_linker_0, # of connection points: 2
#     Edge 7, Type (0, 1), BuildingBlock: FUNLAD_clean_linker_0, # of connection points: 2
#     Edge 8, Type (0, 1), BuildingBlock: FUNLAD_clean_linker_0, # of connection points: 2
#     Edge 9, Type (0, 1), BuildingBlock: FUNLAD_clean_linker_0, # of connection points: 2
#     Edge 10, Type (0, 1), BuildingBlock: FUNLAD_clean_linker_0, # of connection points: 2
#     Edge 11, Type (0, 1), BuildingBlock: FUNLAD_clean_linker_0, # of connection points: 2
#     Edge 12, Type (0, 1), BuildingBlock: FUNLAD_clean_linker_0, # of connection points: 2
#     Edge 13, Type (0, 1), BuildingBlock: FUNLAD_clean_linker_0, # of connection points: 2
#     Edge 14, Type (0, 1), BuildingBlock: FUNLAD_clean_linker_0, # of connection points: 2
#     Edge 15, Type (0, 1), BuildingBlock: FUNLAD_clean_linker_0, # of connection points: 2
#     Edge 16, Type (0, 1), BuildingBlock: FUNLAD_clean_linker_0, # of connection points: 2
#     Edge 17, Type (0, 1), BuildingBlock: FUNLAD_clean_linker_0, # of connection points: 2
# Relax obj value: 0.041
# Max RMSD: 0.161
# Mean RMSD: 0.128
data_MOF--net-rtl--node1-OLANEW_clean_sbu_2--node2-KUMJIN_clean_sbu_1--edge1-FUNLAD_clean_linker_0
_symmetry_space_group_name_H-M    P1
_symmetry_Int_Tables_number       1
_symmetry_cell_setting            triclinic
loop_
_symmetry_equiv_pos_as_xyz
'x, y, z'
_cell_length_a     43.316171
_cell_length_b     42.979383
_cell_length_c     33.123586
_cell_angle_alpha  77.396626
_cell_angle_beta   102.59609
_cell_angle_gamma 90.900036
loop_
_atom_site_label
_atom_site_type_symbol
_atom_site_fract_x
_atom_site_fract_y
_atom_site_fract_z
_atom_type_partial_charge
O0 O 0.23654 0.86505 0.97529 0.0
Cd1 Cd 0.276 0.84781 0.04145 0.0
O2 O 0.19726 0.86941 0.00642 0.0
Cd3 Cd 0.22397 0.8614 0.07201 0.0
O4 O 0.22001 0.86787 0.13438 0.0
C5 C 0.20889 0.89488 0.13517 0.0
O6 O 0.203 0.91707 0.09996 0.0
C7 C 0.2074 0.87072 0.97287 0.0
C8 C 0.31371 0.79768 0.03509 0.0
O9 O 0.2888 0.79224 0.05013 0.0
O10 O 0.32101 0.8268 0.02359 0.0
O11 O 0.64512 0.75276 0.68714 0.0
Cd12 Cd 0.65319 0.79415 0.62684 0.0
O13 O 0.62898 0.72424 0.64004 0.0
Cd14 Cd 0.60789 0.68634 0.60921 0.0
O15 O 0.59523 0.65994 0.55873 0.0
C16 C 0.58647 0.67607 0.52088 0.0
O17 O 0.58431 0.70732 0.51432 0.0
C18 C 0.63367 0.727 0.67839 0.0
C19 C 0.71462 0.81527 0.62796 0.0
O20 O 0.69563 0.8288 0.64411 0.0
O21 O 0.70491 0.79106 0.61256 0.0
O22 O 0.74014 0.13015 0.14811 0.0
Cd23 Cd 0.69645 0.1416 0.0854 0.0
O24 O 0.76981 0.12041 0.10655 0.0
Cd25 Cd 0.81008 0.10572 0.08413 0.0
O26 O 0.84028 0.10174 0.04039 0.0
C27 C 0.8327 0.08386 0.01409 0.0
O28 O 0.80742 0.06667 0.01512 0.0
C29 C 0.76699 0.12182 0.14358 0.0
C30 C 0.66475 0.20005 0.07351 0.0
O31 O 0.65673 0.17471 0.09688 0.0
O32 O 0.68802 0.19784 0.05601 0.0
O33 O 0.35897 0.25161 0.58308 0.0
Cd34 Cd 0.35258 0.21083 0.54054 0.0
O35 O 0.3665 0.28422 0.52585 0.0
Cd36 Cd 0.3796 0.32675 0.4839 0.0
O37 O 0.39395 0.35467 0.42779 0.0
C38 C 0.40883 0.33931 0.40883 0.0
O39 O 0.41491 0.30865 0.42439 0.0
C40 C 0.36519 0.27942 0.56472 0.0
C41 C 0.29811 0.1753 0.54157 0.0
O42 O 0.3237 0.16683 0.5697 0.0
O43 O 0.29808 0.20096 0.51326 0.0
Eu44 Eu 0.01482 0.96086 0.53125 0.0
C45 C 0.9477 0.09295 0.49045 0.0
N46 N 0.97786 0.08426 0.51211 0.0
C47 C 0.9976 0.13018 0.4714 0.0
C48 C 0.94148 0.12054 0.45746 0.0
C49 C 0.00269 0.1025 0.50361 0.0
C50 C 0.96689 0.13919 0.44812 0.0
C51 C 0.89177 0.0816 0.47744 0.0
C52 C 0.92315 0.07346 0.50026 0.0
C53 C 0.88557 0.10889 0.44429 0.0
C54 C 0.91032 0.12834 0.4344 0.0
Eu55 Eu 0.98411 0.03762 0.56618 0.0
N56 N 0.92985 0.04681 0.53214 0.0
C57 C 0.86742 0.06234 0.48902 0.0
C58 C 0.90584 0.02966 0.54574 0.0
C59 C 0.87444 0.03659 0.52379 0.0
H60 H 0.02639 0.09573 0.52186 0.0
H61 H 0.85561 0.02244 0.53427 0.0
H62 H 0.97254 0.90089 0.57126 0.0
H63 H 0.14363 0.97339 0.5621 0.0
H64 H 0.91041 0.01129 0.57428 0.0
H65 H 0.84303 0.06776 0.47225 0.0
H66 H 0.08878 0.98511 0.52222 0.0
H67 H 0.01734 0.14455 0.46455 0.0
H68 H 0.86163 0.11532 0.42629 0.0
H69 H 0.90512 0.14931 0.40875 0.0
H70 H 0.98102 0.85127 0.62715 0.0
H71 H 0.96306 0.16054 0.42298 0.0
H72 H 0.15584 0.9279 0.624 0.0
N73 N 0.021 0.91255 0.58268 0.0
C74 C 0.05097 0.90363 0.60484 0.0
C75 C 0.00087 0.86584 0.62132 0.0
C76 C 0.05692 0.87554 0.63703 0.0
C77 C 0.99608 0.89401 0.58992 0.0
C78 C 0.03139 0.85664 0.64513 0.0
N79 N 0.06912 0.95013 0.56466 0.0
C80 C 0.09329 0.96682 0.55085 0.0
C81 C 0.10694 0.91462 0.61874 0.0
C82 C 0.07561 0.92321 0.59603 0.0
C83 C 0.13148 0.93368 0.60735 0.0
C84 C 0.12467 0.9595 0.57266 0.0
H85 H 0.03499 0.8349 0.66963 0.0
H86 H 0.09296 0.8461 0.68547 0.0
H87 H 0.13676 0.88019 0.6693 0.0
O88 O 0.03266 0.95652 0.47514 0.0
O89 O 0.01828 0.95863 0.60123 0.0
O90 O 0.02729 0.0098 0.61002 0.0
O91 O 0.00255 0.92016 0.50224 0.0
O92 O 0.03723 0.00914 0.51184 0.0
O93 O 0.03577 0.03541 0.56543 0.0
O94 O 0.96438 0.04646 0.61902 0.0
O95 O 0.98167 0.03826 0.49648 0.0
O96 O 0.97011 0.9872 0.49087 0.0
O97 O 0.99767 0.07921 0.59255 0.0
O98 O 0.96351 0.98952 0.58922 0.0
O99 O 0.96349 0.96177 0.53655 0.0
C100 C 0.03239 0.9788 0.62307 0.0
C101 C 0.01969 0.91156 0.44044 0.0
C102 C 0.04087 0.90255 0.38125 0.0
C103 C 0.01945 0.87803 0.37654 0.0
C104 C 0.9987 0.88672 0.43539 0.0
C105 C 0.99864 0.87009 0.40363 0.0
C106 C 0.04102 0.9192 0.41347 0.0
C107 C 0.04859 0.02985 0.53512 0.0
C108 C 0.01844 0.92978 0.47305 0.0
C109 C 0.08796 0.86745 0.66039 0.0
C110 C 0.11289 0.88695 0.65131 0.0
C111 C 0.96621 0.01801 0.47584 0.0
C112 C 0.97868 0.09313 0.65012 0.0
C113 C 0.9601 0.10476 0.7101 0.0
C114 C 0.97768 0.13268 0.70699 0.0
C115 C 0.99581 0.12127 0.64763 0.0
C116 C 0.96079 0.08497 0.68145 0.0
C117 C 0.99528 0.14083 0.67592 0.0
C118 C 0.95267 0.96702 0.56881 0.0
C119 C 0.98011 0.07248 0.62024 0.0
H120 H 0.01903 0.86478 0.3521 0.0
H121 H 0.98203 0.88034 0.45569 0.0
H122 H 0.98231 0.85108 0.39987 0.0
H123 H 0.05729 0.93835 0.41697 0.0
H124 H 0.97821 0.14807 0.72901 0.0
H125 H 0.0098 0.12816 0.62389 0.0
H126 H 0.94729 0.06346 0.68331 0.0
H127 H 0.00873 0.16235 0.6739 0.0
Eu128 Eu 0.46223 0.50516 0.97115 0.0
C129 C 0.59429 0.56009 0.01318 0.0
N130 N 0.58579 0.52992 0.02829 0.0
C131 C 0.63132 0.50822 0.01277 0.0
C132 C 0.62157 0.56538 0.99623 0.0
C133 C 0.60391 0.50409 0.02889 0.0
C134 C 0.64013 0.53898 0.99622 0.0
C135 C 0.58302 0.61715 0.99701 0.0
C136 C 0.57494 0.58566 0.01327 0.0
C137 C 0.60993 0.62245 0.97955 0.0
C138 C 0.62917 0.59667 0.97923 0.0
Eu139 Eu 0.53931 0.52514 0.05467 0.0
N140 N 0.54867 0.57986 0.02981 0.0
C141 C 0.56418 0.64247 0.99954 0.0
C142 C 0.53207 0.60461 0.0358 0.0
C143 C 0.53897 0.63617 0.01977 0.0
H144 H 0.59712 0.48033 0.04179 0.0
H145 H 0.52523 0.65563 0.02381 0.0
H146 H 0.40541 0.55913 0.96431 0.0
H147 H 0.46314 0.3747 0.02047 0.0
H148 H 0.51414 0.60044 0.0541 0.0
H149 H 0.56959 0.66698 0.98741 0.0
H150 H 0.48264 0.42629 0.98968 0.0
H151 H 0.64558 0.4877 0.01302 0.0
H152 H 0.61628 0.64647 0.96663 0.0
H153 H 0.64989 0.60118 0.96575 0.0
H154 H 0.35311 0.56089 0.98228 0.0
H155 H 0.66124 0.54208 0.98344 0.0
H156 H 0.41225 0.37223 0.04312 0.0
N157 N 0.41168 0.50891 0.98573 0.0
C158 C 0.39887 0.48103 0.00145 0.0
C159 C 0.36579 0.5383 0.98804 0.0
C160 C 0.36896 0.48086 0.01183 0.0
C161 C 0.39554 0.5373 0.97835 0.0
C162 C 0.35248 0.50998 0.00501 0.0
N163 N 0.44531 0.45365 0.99881 0.0
C164 C 0.46144 0.42601 0.00144 0.0
C165 C 0.40361 0.4234 0.02512 0.0
C166 C 0.4162 0.45265 0.00837 0.0
C167 C 0.42113 0.39517 0.03044 0.0
C168 C 0.44995 0.39648 0.01797 0.0
H169 H 0.32945 0.51084 0.0126 0.0
H170 H 0.33373 0.45122 0.0373 0.0
H171 H 0.36394 0.40093 0.04868 0.0
O172 O 0.45931 0.4854 0.91408 0.0
O173 O 0.45859 0.49665 0.04031 0.0
O174 O 0.50978 0.48363 0.07693 0.0
O175 O 0.42595 0.52306 0.91426 0.0
O176 O 0.50853 0.47704 0.97873 0.0
O177 O 0.53546 0.47411 0.04808 0.0
O178 O 0.54789 0.54065 0.11534 0.0
O179 O 0.54085 0.52932 0.98532 0.0
O180 O 0.49093 0.54785 0.9508 0.0
O181 O 0.57999 0.50582 0.10521 0.0
O182 O 0.49219 0.54932 0.0516 0.0
O183 O 0.46638 0.55569 0.98142 0.0
C184 C 0.47925 0.484 0.07524 0.0
C185 C 0.41926 0.5054 0.84845 0.0
C186 C 0.40611 0.48111 0.7868 0.0
C187 C 0.38929 0.50935 0.76325 0.0
C188 C 0.40215 0.53323 0.82421 0.0
C189 C 0.38735 0.53515 0.7819 0.0
C190 C 0.42116 0.4793 0.82962 0.0
C191 C 0.52992 0.46351 0.0129 0.0
C192 C 0.43514 0.50426 0.89301 0.0
C193 C 0.35662 0.45181 0.02903 0.0
C194 C 0.37388 0.42317 0.03562 0.0
C195 C 0.52146 0.54722 0.95295 0.0
C196 C 0.59317 0.52005 0.17377 0.0
C197 C 0.60155 0.53009 0.24519 0.0
C198 C 0.63066 0.51295 0.25604 0.0
C199 C 0.62236 0.50306 0.18545 0.0
C200 C 0.58296 0.53381 0.20371 0.0
C201 C 0.64097 0.49965 0.22629 0.0
C202 C 0.47031 0.56333 0.01855 0.0
C203 C 0.57323 0.52225 0.13088 0.0
H204 H 0.37713 0.51131 0.73051 0.0
H205 H 0.4004 0.55368 0.83788 0.0
H206 H 0.37423 0.5567 0.76349 0.0
H207 H 0.43435 0.45777 0.8481 0.0
H208 H 0.64566 0.51012 0.28748 0.0
H209 H 0.63083 0.49227 0.16306 0.0
H210 H 0.56032 0.54665 0.19516 0.0
H211 H 0.66345 0.48656 0.23497 0.0
C212 C 0.24228 0.16384 0.50902 0.0
C213 C 0.26958 0.15584 0.54166 0.0
C214 C 0.21535 0.14542 0.50937 0.0
C215 C 0.21521 0.11858 0.54244 0.0
C216 C 0.2425 0.1107 0.57498 0.0
C217 C 0.26942 0.12897 0.57452 0.0
C218 C 0.18658 0.09953 0.54591 0.0
C219 C 0.16236 0.0981 0.51302 0.0
C220 C 0.1333 0.08034 0.51881 0.0
C221 C 0.11561 0.06745 0.48577 0.0
C222 C 0.08807 0.05084 0.49074 0.0
C223 C 0.07758 0.04718 0.52873 0.0
H224 H 0.1346 0.08766 0.58205 0.0
C225 C 0.095 0.06067 0.56133 0.0
C226 C 0.12239 0.07709 0.55644 0.0
H227 H 0.08755 0.05852 0.59097 0.0
H228 H 0.24162 0.18446 0.4833 0.0
H229 H 0.19453 0.15283 0.48432 0.0
H230 H 0.24298 0.09035 0.60105 0.0
H231 H 0.29002 0.12214 0.60018 0.0
H232 H 0.18588 0.08546 0.5772 0.0
H233 H 0.16404 0.10941 0.48093 0.0
H234 H 0.12326 0.07001 0.45621 0.0
H235 H 0.07495 0.04101 0.46488 0.0
C236 C 0.32612 0.73927 0.04547 0.0
C237 C 0.33319 0.77117 0.03047 0.0
C238 C 0.34417 0.71426 0.04042 0.0
C239 C 0.36977 0.72063 0.02028 0.0
C240 C 0.37659 0.7525 0.00495 0.0
C241 C 0.35867 0.77751 0.01021 0.0
C242 C 0.38912 0.69476 0.01343 0.0
C243 C 0.39323 0.66532 0.0388 0.0
C244 C 0.41314 0.63966 0.03252 0.0
C245 C 0.42697 0.61572 0.06776 0.0
C246 C 0.44569 0.59108 0.0632 0.0
C247 C 0.45054 0.58954 0.02311 0.0
H248 H 0.40685 0.6555 0.96416 0.0
C249 C 0.43639 0.61321 0.98767 0.0
C250 C 0.41784 0.63802 0.99228 0.0
H251 H 0.43971 0.61261 0.95637 0.0
H252 H 0.30649 0.73357 0.06091 0.0
H253 H 0.33753 0.69005 0.05155 0.0
H254 H 0.39598 0.7581 0.98899 0.0
H255 H 0.36464 0.8018 0.99805 0.0
H256 H 0.40174 0.70083 0.98795 0.0
H257 H 0.38316 0.66018 0.06674 0.0
H258 H 0.42351 0.61622 0.09904 0.0
H259 H 0.4561 0.57303 0.09106 0.0
C260 C 0.75503 0.85697 0.63751 0.0
C261 C 0.7461 0.82836 0.6249 0.0
C262 C 0.78347 0.87092 0.63112 0.0
C263 C 0.80385 0.85636 0.61232 0.0
C264 C 0.79515 0.8274 0.6006 0.0
C265 C 0.76667 0.81352 0.60686 0.0
C266 C 0.83313 0.87153 0.60173 0.0
C267 C 0.84767 0.89505 0.61897 0.0
C268 C 0.8755 0.91182 0.606 0.0
C269 C 0.8941 0.92907 0.6333 0.0
C270 C 0.9194 0.94659 0.62152 0.0
C271 C 0.92659 0.94748 0.58192 0.0
H272 H 0.86859 0.90054 0.54371 0.0
C273 C 0.90816 0.9301 0.55462 0.0
C274 C 0.88281 0.91259 0.56638 0.0
H275 H 0.91286 0.93056 0.52369 0.0
H276 H 0.73961 0.86916 0.65119 0.0
H277 H 0.7886 0.89363 0.63965 0.0
H278 H 0.81022 0.81569 0.58586 0.0
H279 H 0.76049 0.79148 0.59671 0.0
H280 H 0.84315 0.86249 0.57907 0.0
H281 H 0.83939 0.9022 0.64434 0.0
H282 H 0.88894 0.92915 0.66385 0.0
H283 H 0.93319 0.95965 0.64336 0.0
C284 C 0.65427 0.25794 0.03803 0.0
C285 C 0.64757 0.2309 0.06696 0.0
C286 C 0.63809 0.28709 0.03214 0.0
C287 C 0.6149 0.28976 0.05518 0.0
C288 C 0.60836 0.26275 0.08415 0.0
C289 C 0.62433 0.23361 0.08979 0.0
C290 C 0.59839 0.32055 0.05192 0.0
C291 C 0.59424 0.34504 0.01775 0.0
C292 C 0.5783 0.37573 0.01653 0.0
C293 C 0.56134 0.394 0.97772 0.0
C294 C 0.54569 0.42268 0.97617 0.0
C295 C 0.54707 0.43377 0.01342 0.0
H296 H 0.59418 0.37458 0.08377 0.0
C297 C 0.56489 0.41589 0.05198 0.0
C298 C 0.58036 0.38733 0.05352 0.0
H299 H 0.56681 0.42379 0.08131 0.0
H300 H 0.67213 0.25667 0.02005 0.0
H301 H 0.64443 0.30756 0.01038 0.0
H302 H 0.59083 0.26418 0.10259 0.0
H303 H 0.61865 0.21328 0.11241 0.0
H304 H 0.58826 0.32258 0.07853 0.0
H305 H 0.60139 0.34221 0.98927 0.0
H306 H 0.55976 0.38581 0.94866 0.0
H307 H 0.5324 0.43602 0.9459 0.0
C308 C 0.18278 0.92868 0.17165 0.0
C309 C 0.19857 0.89998 0.17312 0.0
C310 C 0.16916 0.93212 0.20503 0.0
C311 C 0.17098 0.90687 0.24063 0.0
C312 C 0.18861 0.87905 0.24342 0.0
C313 C 0.20213 0.87552 0.20989 0.0
C314 C 0.1534 0.90817 0.2741 0.0
C315 C 0.12499 0.92349 0.26521 0.0
C316 C 0.10417 0.92029 0.29592 0.0
C317 C 0.07128 0.92141 0.28031 0.0
C318 C 0.05076 0.91627 0.30808 0.0
C319 C 0.06269 0.9106 0.35206 0.0
H320 H 0.14137 0.91542 0.35293 0.0
C321 C 0.09552 0.91101 0.36778 0.0
C322 C 0.11616 0.91562 0.33995 0.0
H323 H 0.10523 0.90676 0.40161 0.0
H324 H 0.18 0.9482 0.14409 0.0
H325 H 0.15671 0.95435 0.2025 0.0
H326 H 0.19071 0.85939 0.27075 0.0
H327 H 0.21441 0.85322 0.21222 0.0
H328 H 0.16214 0.89306 0.30536 0.0
H329 H 0.11487 0.93585 0.23279 0.0
H330 H 0.06143 0.92526 0.24653 0.0
H331 H 0.02551 0.91639 0.2952 0.0
C332 C 0.61774 0.71045 0.74788 0.0
C333 C 0.62443 0.70209 0.71188 0.0
C334 C 0.60774 0.68763 0.779 0.0
C335 C 0.6042 0.65579 0.77487 0.0
C336 C 0.6121 0.64717 0.73975 0.0
C337 C 0.62199 0.67009 0.70847 0.0
C338 C 0.59278 0.63106 0.80686 0.0
C339 C 0.57307 0.63801 0.83031 0.0
C340 C 0.56017 0.61367 0.86113 0.0
C341 C 0.53161 0.62085 0.87116 0.0
C342 C 0.51875 0.59897 0.90035 0.0
C343 C 0.5345 0.5696 0.92074 0.0
H344 H 0.59843 0.57807 0.87562 0.0
C345 C 0.56314 0.56233 0.911 0.0
C346 C 0.57594 0.58416 0.88154 0.0
H347 H 0.57572 0.53981 0.92633 0.0
H348 H 0.61977 0.73484 0.75177 0.0
H349 H 0.60306 0.69503 0.80635 0.0
H350 H 0.61021 0.6227 0.73617 0.0
H351 H 0.62809 0.66258 0.68202 0.0
H352 H 0.59916 0.60634 0.80898 0.0
H353 H 0.56435 0.66245 0.82502 0.0
H354 H 0.5191 0.64349 0.85626 0.0
H355 H 0.4968 0.60535 0.90761 0.0
C356 C 0.78705 0.10328 0.22179 0.0
C357 C 0.79351 0.11297 0.18119 0.0
C358 C 0.8116 0.09443 0.25766 0.0
C359 C 0.84334 0.09495 0.25381 0.0
C360 C 0.84985 0.10564 0.2134 0.0
C361 C 0.82521 0.1145 0.17745 0.0
C362 C 0.87011 0.08509 0.29125 0.0
C363 C 0.86703 0.06418 0.32687 0.0
C364 C 0.89353 0.05288 0.36414 0.0
C365 C 0.89053 0.0239 0.39216 0.0
C366 C 0.91445 0.0124 0.42795 0.0
C367 C 0.94175 0.02988 0.43694 0.0
H368 H 0.92388 0.09326 0.35306 0.0
C369 C 0.9449 0.05891 0.40917 0.0
C370 C 0.92098 0.07041 0.37313 0.0
H371 H 0.9658 0.07279 0.41544 0.0
H372 H 0.76289 0.10229 0.2259 0.0
H373 H 0.80551 0.0876 0.2883 0.0
H374 H 0.87407 0.10692 0.20955 0.0
H375 H 0.83113 0.1231 0.147 0.0
H376 H 0.8933 0.09389 0.28816 0.0
H377 H 0.84441 0.05322 0.32814 0.0
H378 H 0.86957 0.01002 0.38632 0.0
H379 H 0.91125 0.99009 0.4491 0.0
C380 C 0.38389 0.29689 0.63299 0.0
C381 C 0.37187 0.30487 0.58892 0.0
C382 C 0.39028 0.32064 0.65632 0.0
C383 C 0.38429 0.35308 0.63612 0.0
C384 C 0.3722 0.36091 0.59201 0.0
C385 C 0.36603 0.33714 0.56869 0.0
C386 C 0.39026 0.37958 0.65922 0.0
C387 C 0.3979 0.37566 0.70188 0.0
C388 C 0.40228 0.40275 0.72389 0.0
C389 C 0.39877 0.39754 0.76604 0.0
C390 C 0.40107 0.42269 0.78711 0.0
C391 C 0.40702 0.45364 0.76645 0.0
H392 H 0.41419 0.43836 0.67236 0.0
C393 C 0.41198 0.45859 0.725 0.0
C394 C 0.40984 0.43346 0.70403 0.0
H395 H 0.41734 0.48204 0.70861 0.0
H396 H 0.38876 0.27218 0.64947 0.0
H397 H 0.40009 0.31317 0.68994 0.0
H398 H 0.36722 0.38559 0.57543 0.0
H399 H 0.35599 0.34407 0.53502 0.0
H400 H 0.38684 0.4036 0.63971 0.0
H401 H 0.39931 0.35194 0.72194 0.0
H402 H 0.39336 0.37409 0.7824 0.0
H403 H 0.39706 0.41814 0.819 0.0
C404 C 0.58525 0.62706 0.49096 0.0
C405 C 0.58117 0.66029 0.48448 0.0
C406 C 0.58262 0.61255 0.45648 0.0
C407 C 0.57564 0.63099 0.41462 0.0
C408 C 0.57094 0.6641 0.40827 0.0
C409 C 0.57353 0.67859 0.44271 0.0
C410 C 0.57562 0.61717 0.37708 0.0
C411 C 0.57232 0.58593 0.37703 0.0
C412 C 0.57686 0.57178 0.34144 0.0
C413 C 0.58697 0.53965 0.35059 0.0
C414 C 0.59416 0.52595 0.31908 0.0
C415 C 0.59101 0.54397 0.27745 0.0
H416 H 0.56344 0.61396 0.29057 0.0
C417 C 0.57925 0.57564 0.26762 0.0
C418 C 0.57225 0.58946 0.29929 0.0
H419 H 0.57643 0.59004 0.23576 0.0
H420 H 0.59131 0.61228 0.52274 0.0
H421 H 0.58732 0.5871 0.46312 0.0
H422 H 0.56574 0.67896 0.37649 0.0
H423 H 0.57023 0.70426 0.43652 0.0
H424 H 0.57969 0.63353 0.3489 0.0
H425 H 0.56825 0.56949 0.40512 0.0
H426 H 0.59032 0.52533 0.38259 0.0
H427 H 0.60259 0.50129 0.32743 0.0
C428 C 0.84159 0.06559 0.9504 0.0
C429 C 0.85041 0.08463 0.98034 0.0
C430 C 0.85667 0.06824 0.91652 0.0
C431 C 0.88096 0.09 0.91198 0.0
C432 C 0.89013 0.10852 0.94239 0.0
C433 C 0.87518 0.10577 0.97629 0.0
C434 C 0.89579 0.09582 0.87465 0.0
C435 C 0.89633 0.07488 0.84985 0.0
C436 C 0.91096 0.08241 0.81237 0.0
C437 C 0.92593 0.05799 0.80085 0.0
C438 C 0.94129 0.06497 0.76699 0.0
C439 C 0.94159 0.0965 0.74369 0.0
H440 H 0.89759 0.13286 0.7947 0.0
C441 C 0.92516 0.12059 0.75397 0.0
C442 C 0.91004 0.11366 0.78786 0.0
H443 H 0.9241 0.14496 0.7359 0.0
H444 H 0.82251 0.04914 0.95249 0.0
H445 H 0.84839 0.05405 0.8933 0.0
H446 H 0.90866 0.12556 0.93961 0.0
H447 H 0.88257 0.12083 0.99872 0.0
H448 H 0.90761 0.11827 0.86806 0.0
H449 H 0.88747 0.05111 0.85826 0.0
H450 H 0.92659 0.03364 0.81889 0.0
H451 H 0.95376 0.04585 0.75999 0.0
C452 C 0.41039 0.38745 0.35051 0.0
C453 C 0.41882 0.35529 0.36958 0.0
C454 C 0.41971 0.40217 0.31317 0.0
C455 C 0.43763 0.38495 0.29412 0.0
C456 C 0.4463 0.35297 0.31353 0.0
C457 C 0.43689 0.33825 0.35065 0.0
C458 C 0.44892 0.39964 0.25516 0.0
C459 C 0.43483 0.42539 0.22626 0.0
C460 C 0.44663 0.43968 0.18754 0.0
C461 C 0.42551 0.45755 0.15197 0.0
C462 C 0.43595 0.47176 0.11534 0.0
C463 C 0.46784 0.4685 0.11356 0.0
H464 H 0.49598 0.42425 0.21308 0.0
C465 C 0.48906 0.45095 0.14934 0.0
C466 C 0.47865 0.43681 0.18593 0.0
H467 H 0.51388 0.44826 0.14931 0.0
H468 H 0.39663 0.40129 0.36444 0.0
H469 H 0.41332 0.42712 0.29993 0.0
H470 H 0.46033 0.3392 0.29982 0.0
H471 H 0.44391 0.31347 0.36454 0.0
H472 H 0.46885 0.38766 0.2493 0.0
H473 H 0.4131 0.43561 0.22988 0.0
H474 H 0.40081 0.46052 0.15248 0.0
H475 H 0.41909 0.48567 0.08874 0.0
C476 C 0.1961 0.88661 0.89327 0.0
C477 C 0.18507 0.8794 0.93106 0.0
C478 C 0.17485 0.896 0.85405 0.0
C479 C 0.14212 0.89826 0.85191 0.0
C480 C 0.13112 0.89016 0.88954 0.0
C481 C 0.15232 0.88108 0.92868 0.0
C482 C 0.11867 0.90861 0.81118 0.0
C483 C 0.1253 0.92885 0.77716 0.0
C484 C 0.10097 0.94115 0.73781 0.0
C485 C 0.10469 0.9712 0.71262 0.0
C486 C 0.082 0.98378 0.67578 0.0
C487 C 0.05543 0.96627 0.66307 0.0
H488 H 0.07113 0.89991 0.74263 0.0
C489 C 0.05178 0.93611 0.68793 0.0
C490 C 0.07438 0.92355 0.72483 0.0
H491 H 0.03144 0.92216 0.67877 0.0
H492 H 0.22118 0.88534 0.89399 0.0
H493 H 0.18412 0.90117 0.82558 0.0
H494 H 0.10602 0.89139 0.88875 0.0
H495 H 0.14296 0.87545 0.9571 0.0
H496 H 0.0945 0.90126 0.81055 0.0
H497 H 0.14869 0.93872 0.77921 0.0
H498 H 0.12508 0.98513 0.72168 0.0
H499 H 0.08557 0.00694 0.65681 0.0
loop_
_geom_bond_atom_site_label_1
_geom_bond_atom_site_label_2
_geom_bond_distance
_geom_bond_site_symmetry_2
_ccdc_geom_bond_type
O0 Cd1 2.300 1_556 S
O0 C7 1.275 . S
Cd1 O0 2.300 1_554 S
Cd1 O9 2.381 . S
Cd1 O10 2.378 . S
O2 Cd3 2.385 . S
O2 C7 1.255 1_554 S
Cd3 O2 2.385 . S
Cd3 O4 2.317 . S
O4 Cd3 2.317 . S
O4 C5 1.232 . S
C5 O4 1.232 . S
C5 O6 1.218 . S
O6 C5 1.218 . S
C7 O0 1.275 . S
C7 O2 1.255 1_556 S
C8 O9 1.258 . S
C8 O10 1.256 . S
O9 Cd1 2.381 . S
O9 C8 1.258 . S
O10 Cd1 2.378 . S
O10 C8 1.256 . S
O11 Cd12 2.300 . S
O11 C18 1.275 . S
Cd12 O11 2.300 . S
Cd12 O20 2.381 . S
Cd12 O21 2.378 . S
O13 Cd14 2.385 . S
O13 C18 1.255 . S
Cd14 O13 2.385 . S
Cd14 O15 2.317 . S
O15 Cd14 2.317 . S
O15 C16 1.232 . S
C16 O15 1.232 . S
C16 O17 1.218 . S
O17 C16 1.218 . S
C18 O11 1.275 . S
C18 O13 1.255 . S
C19 O20 1.258 . S
C19 O21 1.256 . S
O20 Cd12 2.381 . S
O20 C19 1.258 . S
O21 Cd12 2.378 . S
O21 C19 1.256 . S
O22 Cd23 2.300 . S
O22 C29 1.275 . S
Cd23 O22 2.300 . S
Cd23 O31 2.381 . S
Cd23 O32 2.378 . S
O24 Cd25 2.385 . S
O24 C29 1.255 . S
Cd25 O24 2.385 . S
Cd25 O26 2.317 1_554 S
O26 Cd25 2.317 1_556 S
O26 C27 1.232 . S
C27 O26 1.232 . S
C27 O28 1.218 1_556 S
O28 C27 1.218 1_554 S
C29 O22 1.275 . S
C29 O24 1.255 . S
C30 O31 1.258 . S
C30 O32 1.256 . S
O31 Cd23 2.381 . S
O31 C30 1.258 . S
O32 Cd23 2.378 . S
O32 C30 1.256 . S
O33 Cd34 2.300 . S
O33 C40 1.275 . S
Cd34 O33 2.300 . S
Cd34 O42 2.381 . S
Cd34 O43 2.378 . S
O35 Cd36 2.385 . S
O35 C40 1.255 . S
Cd36 O35 2.385 . S
Cd36 O37 2.317 . S
O37 Cd36 2.317 . S
O37 C38 1.232 . S
C38 O37 1.232 . S
C38 O39 1.218 . S
O39 C38 1.218 . S
C40 O33 1.275 . S
C40 O35 1.255 . S
C41 O42 1.258 . S
C41 O43 1.256 . S
O42 Cd34 2.381 . S
O42 C41 1.258 . S
O43 Cd34 2.378 . S
O43 C41 1.256 . S
Eu44 N73 2.600 . S
Eu44 N79 2.562 . S
Eu44 O88 2.462 . S
Eu44 O89 2.373 . S
Eu44 O91 2.432 . S
Eu44 O92 2.291 1_565 S
Eu44 O96 2.335 1_465 S
Eu44 O99 2.372 1_455 S
Eu44 C108 2.787 . S
C45 N46 1.365 . S
C45 C48 1.405 . S
C45 C52 1.448 . S
N46 C45 1.365 . S
N46 C49 1.319 1_655 S
N46 Eu55 2.600 . S
C47 C49 1.397 . S
C47 C50 1.367 1_455 S
C47 H67 0.931 . S
C48 C45 1.405 . S
C48 C50 1.403 . S
C48 C54 1.439 . S
C49 N46 1.319 1_455 S
C49 C47 1.397 . S
C49 H60 0.930 . S
C50 C47 1.367 1_655 S
C50 C48 1.403 . S
C50 H71 0.929 . S
C51 C52 1.430 . S
C51 C53 1.387 . S
C51 C57 1.404 . S
C52 C45 1.448 . S
C52 C51 1.430 . S
C52 N56 1.351 . S
C53 C51 1.387 . S
C53 C54 1.374 . S
C53 H68 0.931 . S
C54 C48 1.439 . S
C54 C53 1.374 . S
C54 H69 0.931 . S
Eu55 N46 2.600 . S
Eu55 N56 2.562 . S
Eu55 O90 2.335 1_655 S
Eu55 O93 2.372 1_655 S
Eu55 O94 2.462 . S
Eu55 O95 2.373 . S
Eu55 O97 2.432 . S
Eu55 O98 2.291 1_545 S
Eu55 C119 2.787 . S
N56 C52 1.351 . S
N56 Eu55 2.562 . S
N56 C58 1.325 . S
C57 C51 1.404 . S
C57 C59 1.366 . S
C57 H65 0.930 . S
C58 N56 1.325 . S
C58 C59 1.416 . S
C58 H64 0.929 . S
C59 C57 1.366 . S
C59 C58 1.416 . S
C59 H61 0.930 . S
H60 C49 0.930 . S
H61 C59 0.930 . S
H62 C77 0.930 1_655 S
H63 C84 0.930 . S
H64 C58 0.929 . S
H65 C57 0.930 . S
H66 C80 0.929 . S
H67 C47 0.931 . S
H68 C53 0.931 . S
H69 C54 0.931 . S
H70 C75 0.931 1_655 S
H71 C50 0.929 . S
H72 C83 0.930 . S
N73 Eu44 2.600 . S
N73 C74 1.365 . S
N73 C77 1.319 . S
C74 N73 1.365 . S
C74 C76 1.405 . S
C74 C82 1.448 . S
C75 H70 0.931 1_455 S
C75 C77 1.397 . S
C75 C78 1.367 . S
C76 C74 1.405 . S
C76 C78 1.403 . S
C76 C109 1.439 . S
C77 H62 0.930 1_455 S
C77 N73 1.319 . S
C77 C75 1.397 . S
C78 C75 1.367 . S
C78 C76 1.403 . S
C78 H85 0.929 . S
N79 Eu44 2.562 . S
N79 C80 1.325 . S
N79 C82 1.351 . S
C80 H66 0.929 . S
C80 N79 1.325 . S
C80 C84 1.416 . S
C81 C82 1.430 . S
C81 C83 1.404 . S
C81 C110 1.387 . S
C82 C74 1.448 . S
C82 N79 1.351 . S
C82 C81 1.430 . S
C83 H72 0.930 . S
C83 C81 1.404 . S
C83 C84 1.366 . S
C84 H63 0.930 . S
C84 C80 1.416 . S
C84 C83 1.366 . S
H85 C78 0.929 . S
H86 C109 0.931 . S
H87 C110 0.931 . S
O88 Eu44 2.462 . S
O88 C108 1.252 . S
O89 Eu44 2.373 . S
O89 C100 1.249 . S
O90 Eu55 2.335 1_455 S
O90 C100 1.264 1_545 S
O91 Eu44 2.432 . S
O91 C108 1.268 . S
O92 Eu44 2.291 1_545 S
O92 C107 1.255 . S
O93 Eu55 2.372 1_455 S
O93 C107 1.257 . S
O94 Eu55 2.462 . S
O94 C119 1.252 . S
O95 Eu55 2.373 . S
O95 C111 1.249 . S
O96 Eu44 2.335 1_645 S
O96 C111 1.264 . S
O97 Eu55 2.432 . S
O97 C119 1.268 . S
O98 Eu55 2.291 1_565 S
O98 C118 1.255 . S
O99 Eu44 2.372 1_655 S
O99 C118 1.257 . S
C100 O89 1.249 . S
C100 O90 1.264 1_565 S
C101 C104 1.382 . S
C101 C106 1.390 . S
C101 C108 1.506 . S
C102 C103 1.398 . S
C102 C106 1.392 . S
C103 C102 1.398 . S
C103 C105 1.372 . S
C103 H120 0.931 . S
C104 C101 1.382 . S
C104 C105 1.390 . S
C104 H121 0.931 . S
C105 C103 1.372 . S
C105 C104 1.390 . S
C105 H122 0.929 . S
C106 C101 1.390 . S
C106 C102 1.392 . S
C106 H123 0.930 . S
C107 O92 1.255 . S
C107 O93 1.257 . S
C108 Eu44 2.787 . S
C108 O88 1.252 . S
C108 O91 1.268 . S
C108 C101 1.506 . S
C109 C76 1.439 . S
C109 H86 0.931 . S
C109 C110 1.374 . S
C110 C81 1.387 . S
C110 H87 0.931 . S
C110 C109 1.374 . S
C111 O95 1.249 . S
C111 O96 1.264 . S
C112 C115 1.382 . S
C112 C116 1.390 . S
C112 C119 1.506 . S
C113 C114 1.398 . S
C113 C116 1.392 . S
C114 C113 1.398 . S
C114 C117 1.372 . S
C114 H124 0.931 . S
C115 C112 1.382 . S
C115 C117 1.390 . S
C115 H125 0.931 . S
C116 C112 1.390 . S
C116 C113 1.392 . S
C116 H126 0.930 . S
C117 C114 1.372 . S
C117 C115 1.390 . S
C117 H127 0.929 . S
C118 O98 1.255 . S
C118 O99 1.257 . S
C119 Eu55 2.787 . S
C119 O94 1.252 . S
C119 O97 1.268 . S
C119 C112 1.506 . S
H120 C103 0.931 . S
H121 C104 0.931 . S
H122 C105 0.929 . S
H123 C106 0.930 . S
H124 C114 0.931 . S
H125 C115 0.931 . S
H126 C116 0.930 . S
H127 C117 0.929 . S
Eu128 N157 2.600 . S
Eu128 N163 2.562 1_556 S
Eu128 O172 2.462 . S
Eu128 O173 2.373 1_556 S
Eu128 O175 2.432 . S
Eu128 O176 2.291 1_556 S
Eu128 O180 2.335 . S
Eu128 O183 2.372 . S
Eu128 C192 2.787 . S
C129 N130 1.365 . S
C129 C132 1.405 . S
C129 C136 1.448 . S
N130 C129 1.365 . S
N130 C133 1.319 . S
N130 Eu139 2.600 . S
C131 C133 1.397 . S
C131 C134 1.367 . S
C131 H151 0.931 . S
C132 C129 1.405 . S
C132 C134 1.403 . S
C132 C138 1.439 . S
C133 N130 1.319 . S
C133 C131 1.397 . S
C133 H144 0.930 . S
C134 C131 1.367 . S
C134 C132 1.403 . S
C134 H155 0.929 . S
C135 C136 1.430 . S
C135 C137 1.387 . S
C135 C141 1.404 . S
C136 C129 1.448 . S
C136 C135 1.430 . S
C136 N140 1.351 . S
C137 C135 1.387 . S
C137 C138 1.374 . S
C137 H152 0.931 . S
C138 C132 1.439 . S
C138 C137 1.374 . S
C138 H153 0.931 . S
Eu139 N130 2.600 . S
Eu139 N140 2.562 . S
Eu139 O174 2.335 . S
Eu139 O177 2.372 . S
Eu139 O178 2.462 . S
Eu139 O179 2.373 1_554 S
Eu139 O181 2.432 . S
Eu139 O182 2.291 . S
Eu139 C203 2.787 . S
N140 C136 1.351 . S
N140 Eu139 2.562 . S
N140 C142 1.325 . S
C141 C135 1.404 . S
C141 C143 1.366 . S
C141 H149 0.930 . S
C142 N140 1.325 . S
C142 C143 1.416 . S
C142 H148 0.929 . S
C143 C141 1.366 . S
C143 C142 1.416 . S
C143 H145 0.930 . S
H144 C133 0.930 . S
H145 C143 0.930 . S
H146 C161 0.930 . S
H147 C168 0.930 . S
H148 C142 0.929 . S
H149 C141 0.930 . S
H150 C164 0.929 . S
H151 C131 0.931 . S
H152 C137 0.931 . S
H153 C138 0.931 . S
H154 C159 0.931 . S
H155 C134 0.929 . S
H156 C167 0.930 . S
N157 Eu128 2.600 . S
N157 C158 1.365 1_556 S
N157 C161 1.319 . S
C158 N157 1.365 1_554 S
C158 C160 1.405 . S
C158 C166 1.448 . S
C159 H154 0.931 . S
C159 C161 1.397 . S
C159 C162 1.368 . S
C160 C158 1.405 . S
C160 C162 1.404 1_554 S
C160 C193 1.439 . S
C161 H146 0.930 . S
C161 N157 1.319 . S
C161 C159 1.397 . S
C162 C159 1.368 . S
C162 C160 1.404 1_556 S
C162 H169 0.928 1_556 S
N163 Eu128 2.562 1_554 S
N163 C164 1.325 . S
N163 C166 1.351 . S
C164 H150 0.929 . S
C164 N163 1.325 . S
C164 C168 1.416 . S
C165 C166 1.430 . S
C165 C167 1.404 . S
C165 C194 1.387 . S
C166 C158 1.448 . S
C166 N163 1.351 . S
C166 C165 1.430 . S
C167 H156 0.930 . S
C167 C165 1.404 . S
C167 C168 1.366 . S
C168 H147 0.930 . S
C168 C164 1.416 . S
C168 C167 1.366 . S
H169 C162 0.928 1_554 S
H170 C193 0.931 . S
H171 C194 0.931 . S
O172 Eu128 2.462 . S
O172 C192 1.252 . S
O173 Eu128 2.373 1_554 S
O173 C184 1.249 . S
O174 Eu139 2.335 . S
O174 C184 1.264 . S
O175 Eu128 2.432 . S
O175 C192 1.268 . S
O176 Eu128 2.291 1_554 S
O176 C191 1.255 . S
O177 Eu139 2.372 . S
O177 C191 1.257 . S
O178 Eu139 2.462 . S
O178 C203 1.252 . S
O179 Eu139 2.373 1_556 S
O179 C195 1.249 . S
O180 Eu128 2.335 . S
O180 C195 1.264 . S
O181 Eu139 2.432 . S
O181 C203 1.268 . S
O182 Eu139 2.291 . S
O182 C202 1.255 . S
O183 Eu128 2.372 . S
O183 C202 1.257 1_556 S
C184 O173 1.249 . S
C184 O174 1.264 . S
C185 C188 1.382 . S
C185 C190 1.390 . S
C185 C192 1.506 . S
C186 C187 1.398 . S
C186 C190 1.392 . S
C187 C186 1.398 . S
C187 C189 1.372 . S
C187 H204 0.931 . S
C188 C185 1.382 . S
C188 C189 1.390 . S
C188 H205 0.931 . S
C189 C187 1.372 . S
C189 C188 1.390 . S
C189 H206 0.929 . S
C190 C185 1.390 . S
C190 C186 1.392 . S
C190 H207 0.930 . S
C191 O176 1.255 . S
C191 O177 1.257 . S
C192 Eu128 2.787 . S
C192 O172 1.252 . S
C192 O175 1.268 . S
C192 C185 1.506 . S
C193 C160 1.439 . S
C193 H170 0.931 . S
C193 C194 1.374 . S
C194 C165 1.387 . S
C194 H171 0.931 . S
C194 C193 1.374 . S
C195 O179 1.249 . S
C195 O180 1.264 . S
C196 C199 1.382 . S
C196 C200 1.390 . S
C196 C203 1.506 . S
C197 C198 1.398 . S
C197 C200 1.392 . S
C198 C197 1.398 . S
C198 C201 1.372 . S
C198 H208 0.931 . S
C199 C196 1.382 . S
C199 C201 1.390 . S
C199 H209 0.931 . S
C200 C196 1.390 . S
C200 C197 1.392 . S
C200 H210 0.930 . S
C201 C198 1.372 . S
C201 C199 1.390 . S
C201 H211 0.929 . S
C202 O182 1.255 . S
C202 O183 1.257 1_554 S
C203 Eu139 2.787 . S
C203 O178 1.252 . S
C203 O181 1.268 . S
C203 C196 1.506 . S
H204 C187 0.931 . S
H205 C188 0.931 . S
H206 C189 0.929 . S
H207 C190 0.930 . S
H208 C198 0.931 . S
H209 C199 0.931 . S
H210 C200 0.930 . S
H211 C201 0.929 . S
C212 C213 1.386 . S
C212 C214 1.383 . S
C212 H228 0.951 . S
C213 C212 1.386 . S
C213 C217 1.383 . S
C214 C212 1.383 . S
C214 C215 1.402 . S
C214 H229 0.951 . S
C215 C214 1.402 . S
C215 C216 1.375 . S
C215 C218 1.481 . S
C216 C215 1.375 . S
C216 C217 1.367 . S
C216 H230 0.951 . S
C217 C213 1.383 . S
C217 C216 1.367 . S
C217 H231 0.950 . S
C218 C215 1.481 . S
C218 C219 1.297 . S
C218 H232 0.950 . S
C219 C218 1.297 . S
C219 C220 1.479 . S
C219 H233 0.950 . S
C220 C219 1.479 . S
C220 C221 1.375 . S
C220 C226 1.404 . S
C221 C220 1.375 . S
C221 C222 1.369 . S
C221 H234 0.950 . S
C222 C221 1.369 . S
C222 C223 1.392 . S
C222 H235 0.951 . S
C223 C222 1.392 . S
C223 C225 1.384 . S
H224 C226 0.949 . S
C225 C223 1.384 . S
C225 C226 1.385 . S
C225 H227 0.950 . S
C226 C220 1.404 . S
C226 H224 0.949 . S
C226 C225 1.385 . S
H227 C225 0.950 . S
H228 C212 0.951 . S
H229 C214 0.951 . S
H230 C216 0.951 . S
H231 C217 0.950 . S
H232 C218 0.950 . S
H233 C219 0.950 . S
H234 C221 0.950 . S
H235 C222 0.951 . S
C236 C237 1.386 . S
C236 C238 1.383 . S
C236 H252 0.951 . S
C237 C236 1.386 . S
C237 C241 1.383 . S
C238 C236 1.383 . S
C238 C239 1.402 . S
C238 H253 0.951 . S
C239 C238 1.402 . S
C239 C240 1.375 . S
C239 C242 1.481 . S
C240 C239 1.375 . S
C240 C241 1.367 . S
C240 H254 0.951 1_554 S
C241 C237 1.383 . S
C241 C240 1.367 . S
C241 H255 0.949 1_554 S
C242 C239 1.481 . S
C242 C243 1.297 . S
C242 H256 0.950 1_554 S
C243 C242 1.297 . S
C243 C244 1.479 . S
C243 H257 0.950 . S
C244 C243 1.479 . S
C244 C245 1.375 . S
C244 C250 1.404 1_554 S
C245 C244 1.375 . S
C245 C246 1.369 . S
C245 H258 0.950 . S
C246 C245 1.369 . S
C246 C247 1.392 . S
C246 H259 0.951 . S
C247 C246 1.392 . S
C247 C249 1.384 1_554 S
H248 C250 0.949 . S
C249 C247 1.384 1_556 S
C249 C250 1.385 . S
C249 H251 0.950 . S
C250 C244 1.404 1_556 S
C250 H248 0.949 . S
C250 C249 1.385 . S
H251 C249 0.950 . S
H252 C236 0.951 . S
H253 C238 0.951 . S
H254 C240 0.951 1_556 S
H255 C241 0.949 1_556 S
H256 C242 0.950 1_556 S
H257 C243 0.950 . S
H258 C245 0.950 . S
H259 C246 0.951 . S
C260 C261 1.386 . S
C260 C262 1.383 . S
C260 H276 0.951 . S
C261 C260 1.386 . S
C261 C265 1.383 . S
C262 C260 1.383 . S
C262 C263 1.402 . S
C262 H277 0.951 . S
C263 C262 1.402 . S
C263 C264 1.375 . S
C263 C266 1.481 . S
C264 C263 1.375 . S
C264 C265 1.367 . S
C264 H278 0.951 . S
C265 C261 1.383 . S
C265 C264 1.367 . S
C265 H279 0.950 . S
C266 C263 1.481 . S
C266 C267 1.297 . S
C266 H280 0.950 . S
C267 C266 1.297 . S
C267 C268 1.479 . S
C267 H281 0.950 . S
C268 C267 1.479 . S
C268 C269 1.375 . S
C268 C274 1.404 . S
C269 C268 1.375 . S
C269 C270 1.369 . S
C269 H282 0.950 . S
C270 C269 1.369 . S
C270 C271 1.392 . S
C270 H283 0.951 . S
C271 C270 1.392 . S
C271 C273 1.384 . S
H272 C274 0.949 . S
C273 C271 1.384 . S
C273 C274 1.385 . S
C273 H275 0.950 . S
C274 C268 1.404 . S
C274 H272 0.949 . S
C274 C273 1.385 . S
H275 C273 0.950 . S
H276 C260 0.951 . S
H277 C262 0.951 . S
H278 C264 0.951 . S
H279 C265 0.950 . S
H280 C266 0.950 . S
H281 C267 0.950 . S
H282 C269 0.950 . S
H283 C270 0.951 . S
C284 C285 1.386 . S
C284 C286 1.383 . S
C284 H300 0.951 1_554 S
C285 C284 1.386 . S
C285 C289 1.383 . S
C286 C284 1.383 . S
C286 C287 1.402 . S
C286 H301 0.951 1_554 S
C287 C286 1.402 . S
C287 C288 1.375 . S
C287 C290 1.481 . S
C288 C287 1.375 . S
C288 C289 1.367 . S
C288 H302 0.951 . S
C289 C285 1.383 . S
C289 C288 1.367 . S
C289 H303 0.950 . S
C290 C287 1.481 . S
C290 C291 1.297 . S
C290 H304 0.950 . S
C291 C290 1.297 . S
C291 C292 1.479 . S
C291 H305 0.950 1_554 S
C292 C291 1.479 . S
C292 C293 1.375 1_554 S
C292 C298 1.404 . S
C293 C292 1.375 1_556 S
C293 C294 1.369 . S
C293 H306 0.950 . S
C294 C293 1.369 . S
C294 C295 1.392 1_556 S
C294 H307 0.951 . S
C295 C294 1.392 1_554 S
C295 C297 1.384 . S
H296 C298 0.949 . S
C297 C295 1.384 . S
C297 C298 1.385 . S
C297 H299 0.950 . S
C298 C292 1.404 . S
C298 H296 0.949 . S
C298 C297 1.385 . S
H299 C297 0.950 . S
H300 C284 0.951 1_556 S
H301 C286 0.951 1_556 S
H302 C288 0.951 . S
H303 C289 0.950 . S
H304 C290 0.950 . S
H305 C291 0.950 1_556 S
H306 C293 0.950 . S
H307 C294 0.951 . S
C308 C309 1.386 . S
C308 C310 1.383 . S
C308 H324 0.951 . S
C309 C308 1.386 . S
C309 C313 1.383 . S
C310 C308 1.383 . S
C310 C311 1.402 . S
C310 H325 0.951 . S
C311 C310 1.402 . S
C311 C312 1.375 . S
C311 C314 1.481 . S
C312 C311 1.375 . S
C312 C313 1.367 . S
C312 H326 0.951 . S
C313 C309 1.383 . S
C313 C312 1.367 . S
C313 H327 0.950 . S
C314 C311 1.481 . S
C314 C315 1.297 . S
C314 H328 0.950 . S
C315 C314 1.297 . S
C315 C316 1.479 . S
C315 H329 0.950 . S
C316 C315 1.479 . S
C316 C317 1.375 . S
C316 C322 1.404 . S
C317 C316 1.375 . S
C317 C318 1.369 . S
C317 H330 0.950 . S
C318 C317 1.369 . S
C318 C319 1.392 . S
C318 H331 0.951 . S
C319 C318 1.392 . S
C319 C321 1.384 . S
H320 C322 0.949 . S
C321 C319 1.384 . S
C321 C322 1.385 . S
C321 H323 0.950 . S
C322 C316 1.404 . S
C322 H320 0.949 . S
C322 C321 1.385 . S
H323 C321 0.950 . S
H324 C308 0.951 . S
H325 C310 0.951 . S
H326 C312 0.951 . S
H327 C313 0.950 . S
H328 C314 0.950 . S
H329 C315 0.950 . S
H330 C317 0.950 . S
H331 C318 0.951 . S
C332 C333 1.386 . S
C332 C334 1.383 . S
C332 H348 0.951 . S
C333 C332 1.386 . S
C333 C337 1.383 . S
C334 C332 1.383 . S
C334 C335 1.402 . S
C334 H349 0.951 . S
C335 C334 1.402 . S
C335 C336 1.375 . S
C335 C338 1.481 . S
C336 C335 1.375 . S
C336 C337 1.367 . S
C336 H350 0.951 . S
C337 C333 1.383 . S
C337 C336 1.367 . S
C337 H351 0.950 . S
C338 C335 1.481 . S
C338 C339 1.297 . S
C338 H352 0.950 . S
C339 C338 1.297 . S
C339 C340 1.479 . S
C339 H353 0.950 . S
C340 C339 1.479 . S
C340 C341 1.375 . S
C340 C346 1.404 . S
C341 C340 1.375 . S
C341 C342 1.369 . S
C341 H354 0.950 . S
C342 C341 1.369 . S
C342 C343 1.392 . S
C342 H355 0.951 . S
C343 C342 1.392 . S
C343 C345 1.384 . S
H344 C346 0.949 . S
C345 C343 1.384 . S
C345 C346 1.385 . S
C345 H347 0.950 . S
C346 C340 1.404 . S
C346 H344 0.949 . S
C346 C345 1.385 . S
H347 C345 0.950 . S
H348 C332 0.951 . S
H349 C334 0.951 . S
H350 C336 0.951 . S
H351 C337 0.950 . S
H352 C338 0.950 . S
H353 C339 0.950 . S
H354 C341 0.950 . S
H355 C342 0.951 . S
C356 C357 1.386 . S
C356 C358 1.383 . S
C356 H372 0.951 . S
C357 C356 1.386 . S
C357 C361 1.383 . S
C358 C356 1.383 . S
C358 C359 1.402 . S
C358 H373 0.951 . S
C359 C358 1.402 . S
C359 C360 1.375 . S
C359 C362 1.481 . S
C360 C359 1.375 . S
C360 C361 1.367 . S
C360 H374 0.951 . S
C361 C357 1.383 . S
C361 C360 1.367 . S
C361 H375 0.950 . S
C362 C359 1.481 . S
C362 C363 1.297 . S
C362 H376 0.950 . S
C363 C362 1.297 . S
C363 C364 1.479 . S
C363 H377 0.950 . S
C364 C363 1.479 . S
C364 C365 1.375 . S
C364 C370 1.404 . S
C365 C364 1.375 . S
C365 C366 1.369 . S
C365 H378 0.950 . S
C366 C365 1.369 . S
C366 C367 1.392 . S
C366 H379 0.951 1_545 S
C367 C366 1.392 . S
C367 C369 1.384 . S
H368 C370 0.949 . S
C369 C367 1.384 . S
C369 C370 1.385 . S
C369 H371 0.950 . S
C370 C364 1.404 . S
C370 H368 0.949 . S
C370 C369 1.385 . S
H371 C369 0.950 . S
H372 C356 0.951 . S
H373 C358 0.951 . S
H374 C360 0.951 . S
H375 C361 0.950 . S
H376 C362 0.950 . S
H377 C363 0.950 . S
H378 C365 0.950 . S
H379 C366 0.951 1_565 S
C380 C381 1.386 . S
C380 C382 1.383 . S
C380 H396 0.951 . S
C381 C380 1.386 . S
C381 C385 1.383 . S
C382 C380 1.383 . S
C382 C383 1.402 . S
C382 H397 0.951 . S
C383 C382 1.402 . S
C383 C384 1.375 . S
C383 C386 1.481 . S
C384 C383 1.375 . S
C384 C385 1.367 . S
C384 H398 0.951 . S
C385 C381 1.383 . S
C385 C384 1.367 . S
C385 H399 0.950 . S
C386 C383 1.481 . S
C386 C387 1.297 . S
C386 H400 0.950 . S
C387 C386 1.297 . S
C387 C388 1.479 . S
C387 H401 0.950 . S
C388 C387 1.479 . S
C388 C389 1.375 . S
C388 C394 1.404 . S
C389 C388 1.375 . S
C389 C390 1.369 . S
C389 H402 0.950 . S
C390 C389 1.369 . S
C390 C391 1.392 . S
C390 H403 0.951 . S
C391 C390 1.392 . S
C391 C393 1.384 . S
H392 C394 0.949 . S
C393 C391 1.384 . S
C393 C394 1.385 . S
C393 H395 0.950 . S
C394 C388 1.404 . S
C394 H392 0.949 . S
C394 C393 1.385 . S
H395 C393 0.950 . S
H396 C380 0.951 . S
H397 C382 0.951 . S
H398 C384 0.951 . S
H399 C385 0.950 . S
H400 C386 0.950 . S
H401 C387 0.950 . S
H402 C389 0.950 . S
H403 C390 0.951 . S
C404 C405 1.386 . S
C404 C406 1.383 . S
C404 H420 0.951 . S
C405 C404 1.386 . S
C405 C409 1.383 . S
C406 C404 1.383 . S
C406 C407 1.402 . S
C406 H421 0.951 . S
C407 C406 1.402 . S
C407 C408 1.375 . S
C407 C410 1.481 . S
C408 C407 1.375 . S
C408 C409 1.367 . S
C408 H422 0.951 . S
C409 C405 1.383 . S
C409 C408 1.367 . S
C409 H423 0.950 . S
C410 C407 1.481 . S
C410 C411 1.297 . S
C410 H424 0.950 . S
C411 C410 1.297 . S
C411 C412 1.479 . S
C411 H425 0.950 . S
C412 C411 1.479 . S
C412 C413 1.375 . S
C412 C418 1.404 . S
C413 C412 1.375 . S
C413 C414 1.369 . S
C413 H426 0.950 . S
C414 C413 1.369 . S
C414 C415 1.392 . S
C414 H427 0.951 . S
C415 C414 1.392 . S
C415 C417 1.384 . S
H416 C418 0.949 . S
C417 C415 1.384 . S
C417 C418 1.385 . S
C417 H419 0.950 . S
C418 C412 1.404 . S
C418 H416 0.949 . S
C418 C417 1.385 . S
H419 C417 0.950 . S
H420 C404 0.951 . S
H421 C406 0.951 . S
H422 C408 0.951 . S
H423 C409 0.950 . S
H424 C410 0.950 . S
H425 C411 0.950 . S
H426 C413 0.950 . S
H427 C414 0.951 . S
C428 C429 1.386 . S
C428 C430 1.383 . S
C428 H444 0.951 . S
C429 C428 1.386 . S
C429 C433 1.383 . S
C430 C428 1.383 . S
C430 C431 1.402 . S
C430 H445 0.951 . S
C431 C430 1.402 . S
C431 C432 1.375 . S
C431 C434 1.481 . S
C432 C431 1.375 . S
C432 C433 1.367 . S
C432 H446 0.951 . S
C433 C429 1.383 . S
C433 C432 1.367 . S
C433 H447 0.950 . S
C434 C431 1.481 . S
C434 C435 1.297 . S
C434 H448 0.950 . S
C435 C434 1.297 . S
C435 C436 1.479 . S
C435 H449 0.950 . S
C436 C435 1.479 . S
C436 C437 1.375 . S
C436 C442 1.404 . S
C437 C436 1.375 . S
C437 C438 1.369 . S
C437 H450 0.950 . S
C438 C437 1.369 . S
C438 C439 1.392 . S
C438 H451 0.951 . S
C439 C438 1.392 . S
C439 C441 1.384 . S
H440 C442 0.949 . S
C441 C439 1.384 . S
C441 C442 1.385 . S
C441 H443 0.950 . S
C442 C436 1.404 . S
C442 H440 0.949 . S
C442 C441 1.385 . S
H443 C441 0.950 . S
H444 C428 0.951 . S
H445 C430 0.951 . S
H446 C432 0.951 . S
H447 C433 0.950 . S
H448 C434 0.950 . S
H449 C435 0.950 . S
H450 C437 0.950 . S
H451 C438 0.951 . S
C452 C453 1.386 . S
C452 C454 1.383 . S
C452 H468 0.951 . S
C453 C452 1.386 . S
C453 C457 1.383 . S
C454 C452 1.383 . S
C454 C455 1.402 . S
C454 H469 0.951 . S
C455 C454 1.402 . S
C455 C456 1.375 . S
C455 C458 1.481 . S
C456 C455 1.375 . S
C456 C457 1.367 . S
C456 H470 0.951 . S
C457 C453 1.383 . S
C457 C456 1.367 . S
C457 H471 0.950 . S
C458 C455 1.481 . S
C458 C459 1.297 . S
C458 H472 0.950 . S
C459 C458 1.297 . S
C459 C460 1.479 . S
C459 H473 0.950 . S
C460 C459 1.479 . S
C460 C461 1.375 . S
C460 C466 1.404 . S
C461 C460 1.375 . S
C461 C462 1.369 . S
C461 H474 0.950 . S
C462 C461 1.369 . S
C462 C463 1.392 . S
C462 H475 0.951 . S
C463 C462 1.392 . S
C463 C465 1.384 . S
H464 C466 0.949 . S
C465 C463 1.384 . S
C465 C466 1.385 . S
C465 H467 0.950 . S
C466 C460 1.404 . S
C466 H464 0.949 . S
C466 C465 1.385 . S
H467 C465 0.950 . S
H468 C452 0.951 . S
H469 C454 0.951 . S
H470 C456 0.951 . S
H471 C457 0.950 . S
H472 C458 0.950 . S
H473 C459 0.950 . S
H474 C461 0.950 . S
H475 C462 0.951 . S
C476 C477 1.386 . S
C476 C478 1.383 . S
C476 H492 0.951 . S
C477 C476 1.386 . S
C477 C481 1.383 . S
C478 C476 1.383 . S
C478 C479 1.402 . S
C478 H493 0.951 . S
C479 C478 1.402 . S
C479 C480 1.375 . S
C479 C482 1.481 . S
C480 C479 1.375 . S
C480 C481 1.367 . S
C480 H494 0.951 . S
C481 C477 1.383 . S
C481 C480 1.367 . S
C481 H495 0.950 . S
C482 C479 1.481 . S
C482 C483 1.297 . S
C482 H496 0.950 . S
C483 C482 1.297 . S
C483 C484 1.479 . S
C483 H497 0.950 . S
C484 C483 1.479 . S
C484 C485 1.375 . S
C484 C490 1.404 . S
C485 C484 1.375 . S
C485 C486 1.369 . S
C485 H498 0.950 . S
C486 C485 1.369 . S
C486 C487 1.392 . S
C486 H499 0.951 . S
C487 C486 1.392 . S
C487 C489 1.384 . S
H488 C490 0.949 . S
C489 C487 1.384 . S
C489 C490 1.385 . S
C489 H491 0.950 . S
C490 C484 1.404 . S
C490 H488 0.949 . S
C490 C489 1.385 . S
H491 C489 0.950 . S
H492 C476 0.951 . S
H493 C478 0.951 . S
H494 C480 0.951 . S
H495 C481 0.950 . S
H496 C482 0.950 . S
H497 C483 0.950 . S
H498 C485 0.950 . S
H499 C486 0.951 . S
C223 C107 1.660 . S
C213 C41 1.654 . S
C237 C8 1.643 . S
C247 C202 1.619 . S
C261 C19 1.717 . S
C271 C118 1.741 . S
C285 C30 1.630 . S
C295 C191 1.625 . S
C319 C102 1.402 . S
C309 C5 1.523 . S
C343 C195 1.803 . S
C333 C18 1.745 . S
C357 C29 1.594 . S
C367 C111 1.702 . S
C381 C40 1.623 . S
C391 C186 1.577 . S
C415 C197 1.430 . S
C405 C16 1.366 . S
C439 C113 1.428 . S
C429 C27 1.325 . S
C463 C184 1.534 . S
C453 C38 1.326 . S
C477 C7 1.486 . S
C487 C100 1.490 . S
