# Generated by pormake.
# Topology apo, (3,6)-cn, num edge types: 1
# Building blocks:
#     Node 0, Type 0, BuildingBlock: OLANEW_clean_sbu_2, # of connection points: 3
#     Node 1, Type 0, BuildingBlock: OLANEW_clean_sbu_2, # of connection points: 3
#     Node 2, Type 0, BuildingBlock: OLANEW_clean_sbu_2, # of connection points: 3
#     Node 3, Type 0, BuildingBlock: OLANEW_clean_sbu_2, # of connection points: 3
#     Node 4, Type 0, BuildingBlock: OLANEW_clean_sbu_2, # of connection points: 3
#     Node 5, Type 0, BuildingBlock: OLANEW_clean_sbu_2, # of connection points: 3
#     Node 6, Type 0, BuildingBlock: OLANEW_clean_sbu_2, # of connection points: 3
#     Node 7, Type 0, BuildingBlock: OLANEW_clean_sbu_2, # of connection points: 3
#     Node 8, Type 1, BuildingBlock: KUMBOL_clean_sbu_1, # of connection points: 6
#     Node 9, Type 1, BuildingBlock: KUMBOL_clean_sbu_1, # of connection points: 6
#     Node 10, Type 1, BuildingBlock: KUMBOL_clean_sbu_1, # of connection points: 6
#     Node 11, Type 1, BuildingBlock: KUMBOL_clean_sbu_1, # of connection points: 6
#     Edge 12, Type (0, 1), BuildingBlock: UVAHIK_clean_linker_0, # of connection points: 2
#     Edge 13, Type (0, 1), BuildingBlock: UVAHIK_clean_linker_0, # of connection points: 2
#     Edge 14, Type (0, 1), BuildingBlock: UVAHIK_clean_linker_0, # of connection points: 2
#     Edge 15, Type (0, 1), BuildingBlock: UVAHIK_clean_linker_0, # of connection points: 2
#     Edge 16, Type (0, 1), BuildingBlock: UVAHIK_clean_linker_0, # of connection points: 2
#     Edge 17, Type (0, 1), BuildingBlock: UVAHIK_clean_linker_0, # of connection points: 2
#     Edge 18, Type (0, 1), BuildingBlock: UVAHIK_clean_linker_0, # of connection points: 2
#     Edge 19, Type (0, 1), BuildingBlock: UVAHIK_clean_linker_0, # of connection points: 2
#     Edge 20, Type (0, 1), BuildingBlock: UVAHIK_clean_linker_0, # of connection points: 2
#     Edge 21, Type (0, 1), BuildingBlock: UVAHIK_clean_linker_0, # of connection points: 2
#     Edge 22, Type (0, 1), BuildingBlock: UVAHIK_clean_linker_0, # of connection points: 2
#     Edge 23, Type (0, 1), BuildingBlock: UVAHIK_clean_linker_0, # of connection points: 2
#     Edge 24, Type (0, 1), BuildingBlock: UVAHIK_clean_linker_0, # of connection points: 2
#     Edge 25, Type (0, 1), BuildingBlock: UVAHIK_clean_linker_0, # of connection points: 2
#     Edge 26, Type (0, 1), BuildingBlock: UVAHIK_clean_linker_0, # of connection points: 2
#     Edge 27, Type (0, 1), BuildingBlock: UVAHIK_clean_linker_0, # of connection points: 2
#     Edge 28, Type (0, 1), BuildingBlock: UVAHIK_clean_linker_0, # of connection points: 2
#     Edge 29, Type (0, 1), BuildingBlock: UVAHIK_clean_linker_0, # of connection points: 2
#     Edge 30, Type (0, 1), BuildingBlock: UVAHIK_clean_linker_0, # of connection points: 2
#     Edge 31, Type (0, 1), BuildingBlock: UVAHIK_clean_linker_0, # of connection points: 2
#     Edge 32, Type (0, 1), BuildingBlock: UVAHIK_clean_linker_0, # of connection points: 2
#     Edge 33, Type (0, 1), BuildingBlock: UVAHIK_clean_linker_0, # of connection points: 2
#     Edge 34, Type (0, 1), BuildingBlock: UVAHIK_clean_linker_0, # of connection points: 2
#     Edge 35, Type (0, 1), BuildingBlock: UVAHIK_clean_linker_0, # of connection points: 2
# Relax obj value: 0.029
# Max RMSD: 0.212
# Mean RMSD: 0.128
data_MOF--net-apo--node1-OLANEW_clean_sbu_2--node2-KUMBOL_clean_sbu_1--edge1-UVAHIK_clean_linker_0
_symmetry_space_group_name_H-M    P1
_symmetry_Int_Tables_number       1
_symmetry_cell_setting            triclinic
loop_
_symmetry_equiv_pos_as_xyz
'x, y, z'
_cell_length_a     36.194606
_cell_length_b     57.329938
_cell_length_c     68.915925
_cell_angle_alpha  88.803778
_cell_angle_beta   89.934168
_cell_angle_gamma 90.184723
loop_
_atom_site_label
_atom_site_type_symbol
_atom_site_fract_x
_atom_site_fract_y
_atom_site_fract_z
_atom_type_partial_charge
O0 O 0.27308 0.39023 0.37747 0.0
Cd1 Cd 0.24021 0.36048 0.39668 0.0
O2 O 0.31469 0.39125 0.40038 0.0
Cd3 Cd 0.36011 0.40522 0.41749 0.0
O4 O 0.38011 0.41074 0.44691 0.0
C5 C 0.35626 0.41882 0.45851 0.0
O6 O 0.32354 0.42449 0.45167 0.0
C7 C 0.30256 0.39898 0.38421 0.0
C8 C 0.21723 0.32304 0.3746 0.0
O9 O 0.1981 0.34177 0.37534 0.0
O10 O 0.24742 0.322 0.38428 0.0
O11 O 0.23178 0.14665 0.94025 0.0
Cd12 Cd 0.23676 0.14953 0.90479 0.0
O13 O 0.26292 0.11378 0.94162 0.0
Cd14 Cd 0.26494 0.10972 0.91027 0.0
O15 O 0.24484 0.08899 0.88627 0.0
C16 C 0.24059 0.06744 0.8904 0.0
O17 O 0.25007 0.05975 0.90779 0.0
C18 C 0.24597 0.13001 0.95019 0.0
C19 C 0.28499 0.18405 0.89065 0.0
O20 O 0.25083 0.18849 0.89379 0.0
O21 O 0.29653 0.16336 0.89456 0.0
O22 O 0.80655 0.11947 0.61763 0.0
Cd23 Cd 0.78467 0.15344 0.59884 0.0
O24 O 0.86164 0.12091 0.60403 0.0
Cd25 Cd 0.84603 0.1442 0.57989 0.0
O26 O 0.84294 0.15078 0.5485 0.0
C27 C 0.85444 0.13414 0.5382 0.0
O28 O 0.86665 0.11514 0.54701 0.0
C29 C 0.83968 0.11223 0.61669 0.0
C30 C 0.74448 0.18391 0.62199 0.0
O31 O 0.72796 0.16895 0.61147 0.0
O32 O 0.77987 0.18451 0.62154 0.0
O33 O 0.74238 0.34211 0.0569 0.0
Cd34 Cd 0.74764 0.34431 0.09221 0.0
O35 O 0.73169 0.37893 0.06089 0.0
Cd36 Cd 0.71726 0.41577 0.0579 0.0
O37 O 0.69155 0.44459 0.07278 0.0
C38 C 0.66303 0.43884 0.08254 0.0
O39 O 0.651 0.41722 0.08178 0.0
C40 C 0.73371 0.36181 0.04948 0.0
C41 C 0.79166 0.31106 0.11079 0.0
O42 O 0.75746 0.30699 0.10734 0.0
O43 O 0.8053 0.33063 0.10492 0.0
O44 O 0.73218 0.60945 0.61972 0.0
Cd45 Cd 0.7575 0.64056 0.59883 0.0
O46 O 0.69028 0.59955 0.59827 0.0
Cd47 Cd 0.70632 0.62424 0.57523 0.0
O48 O 0.70521 0.63445 0.54455 0.0
C49 C 0.67386 0.63871 0.537 0.0
O50 O 0.6445 0.63841 0.54824 0.0
C51 C 0.70518 0.59662 0.61484 0.0
C52 C 0.79118 0.67518 0.6206 0.0
O53 O 0.75717 0.67681 0.61559 0.0
O54 O 0.80924 0.65722 0.61524 0.0
O55 O 0.75897 0.90404 0.12274 0.0
Cd56 Cd 0.72205 0.87867 0.10226 0.0
O57 O 0.79486 0.91387 0.09812 0.0
Cd58 Cd 0.76998 0.89197 0.07616 0.0
O59 O 0.77699 0.88228 0.04598 0.0
C60 C 0.80915 0.87533 0.04155 0.0
O61 O 0.83372 0.87268 0.05544 0.0
C62 C 0.78606 0.91572 0.11587 0.0
C63 C 0.68917 0.84214 0.12333 0.0
O64 O 0.72073 0.83958 0.1152 0.0
O65 O 0.67326 0.86201 0.12152 0.0
O66 O 0.20297 0.87354 0.37988 0.0
Cd67 Cd 0.21444 0.84244 0.40397 0.0
O68 O 0.24158 0.89797 0.39349 0.0
Cd69 Cd 0.25099 0.87486 0.41845 0.0
O70 O 0.23902 0.86412 0.44829 0.0
C71 C 0.2051 0.86279 0.45297 0.0
O72 O 0.18001 0.86646 0.43949 0.0
C73 C 0.21905 0.89329 0.37996 0.0
C74 C 0.25987 0.80816 0.38882 0.0
O75 O 0.22461 0.80671 0.38753 0.0
O76 O 0.27364 0.82577 0.39745 0.0
O77 O 0.31381 0.61505 0.88156 0.0
Cd78 Cd 0.27986 0.64367 0.90061 0.0
O79 O 0.28117 0.58615 0.89437 0.0
Cd80 Cd 0.26018 0.60706 0.91806 0.0
O81 O 0.26523 0.61643 0.94852 0.0
C82 C 0.2958 0.6108 0.95637 0.0
O83 O 0.32109 0.60084 0.94567 0.0
C84 C 0.3052 0.5935 0.88221 0.0
C85 C 0.24065 0.67636 0.87811 0.0
O86 O 0.27247 0.68132 0.88507 0.0
O87 O 0.22753 0.6559 0.88157 0.0
C88 C 0.92014 0.07422 0.2528 0.0
C89 C 0.93244 0.03586 0.26661 0.0
C90 C 0.94237 0.05951 0.26381 0.0
C91 C 0.90094 0.02708 0.25732 0.0
C92 C 0.88757 0.06579 0.24417 0.0
C93 C 0.87851 0.04203 0.24614 0.0
N94 N 0.9302 0.09695 0.25072 0.0
C95 C 0.90784 0.11258 0.24128 0.0
C96 C 0.86504 0.08156 0.2339 0.0
C97 C 0.87502 0.10512 0.23265 0.0
Gd98 Gd 0.07077 0.11019 0.22547 0.0
Gd99 Gd 0.98641 0.10795 0.26485 0.0
N100 N 0.97252 0.06861 0.27266 0.0
C101 C 0.95379 0.02196 0.27916 0.0
C102 C 0.99127 0.05567 0.28626 0.0
C103 C 0.98288 0.03205 0.28934 0.0
H104 H 0.01256 0.06352 0.29495 0.0
H105 H 0.99856 0.02173 0.29975 0.0
H106 H 0.0767 0.1659 0.21099 0.0
H107 H 0.91571 0.13075 0.24016 0.0
H108 H 0.1154 0.20067 0.2177 0.0
H109 H 0.94714 0.00371 0.2817 0.0
H110 H 0.89316 0.00889 0.25909 0.0
H111 H 0.12469 0.0637 0.23681 0.0
H112 H 0.83978 0.07577 0.22706 0.0
H113 H 0.85761 0.11748 0.22493 0.0
H114 H 0.20964 0.17119 0.26073 0.0
H115 H 0.8539 0.03512 0.23937 0.0
H116 H 0.21645 0.08817 0.26991 0.0
H117 H 0.18051 0.05555 0.2563 0.0
N118 N 0.12664 0.10034 0.24119 0.0
C119 C 0.14773 0.1185 0.24704 0.0
C120 C 0.13937 0.07802 0.24328 0.0
C121 C 0.1915 0.0918 0.26173 0.0
C122 C 0.17132 0.07335 0.25407 0.0
C123 C 0.18047 0.11478 0.25771 0.0
H124 H 0.22689 0.13153 0.27166 0.0
N125 N 0.10774 0.14345 0.22961 0.0
C126 C 0.13827 0.14077 0.24081 0.0
C127 C 0.15202 0.18186 0.23706 0.0
C128 C 0.16092 0.15999 0.24516 0.0
C129 C 0.1003 0.16433 0.22054 0.0
C130 C 0.12199 0.18395 0.22439 0.0
O131 O 0.97905 0.09811 0.23339 0.0
O132 O 0.0322 0.07924 0.22534 0.0
O133 O 0.05975 0.11445 0.19464 0.0
O134 O 0.11251 0.10132 0.20421 0.0
O135 O 0.04137 0.09134 0.27254 0.0
O136 O 0.06215 0.07709 0.24354 0.0
O137 O 0.05953 0.13937 0.24623 0.0
O138 O 0.04284 0.1201 0.27406 0.0
O139 O 0.96079 0.10539 0.29335 0.0
O140 O 0.96392 0.13878 0.27831 0.0
O141 O 0.02064 0.13177 0.21728 0.0
O142 O 0.98595 0.14012 0.24503 0.0
C143 C 0.99607 0.08091 0.22497 0.0
C144 C 0.05959 0.0758 0.26257 0.0
C145 C 0.09039 0.08847 0.17423 0.0
C146 C 0.10545 0.07763 0.14113 0.0
C147 C 0.07488 0.04985 0.16305 0.0
C148 C 0.07501 0.06629 0.17773 0.0
C149 C 0.0901 0.0554 0.14486 0.0
C150 C 0.1054 0.09409 0.15597 0.0
C151 C 0.09138 0.10595 0.18943 0.0
C152 C 0.19218 0.15659 0.25693 0.0
C153 C 0.20195 0.13401 0.2632 0.0
H154 H 0.1687 0.19709 0.24007 0.0
C155 C 0.06022 0.13725 0.26515 0.0
C156 C 0.99536 0.14386 0.22663 0.0
C157 C 0.91536 0.13305 0.30118 0.0
C158 C 0.87552 0.13917 0.32928 0.0
C159 C 0.85084 0.14297 0.29653 0.0
C160 C 0.88549 0.1378 0.2888 0.0
C161 C 0.84578 0.14363 0.31663 0.0
C162 C 0.91023 0.13376 0.32135 0.0
C163 C 0.95223 0.12737 0.29366 0.0
H164 H 0.06296 0.03275 0.16578 0.0
H165 H 0.06328 0.06172 0.19177 0.0
H166 H 0.0895 0.04243 0.13366 0.0
H167 H 0.11759 0.11119 0.15344 0.0
H168 H 0.82787 0.14663 0.28691 0.0
H169 H 0.88892 0.13765 0.27324 0.0
H170 H 0.81879 0.14802 0.32225 0.0
H171 H 0.93334 0.12988 0.33088 0.0
C172 C 0.63404 0.41775 0.75295 0.0
C173 C 0.62575 0.45675 0.7652 0.0
C174 C 0.61506 0.43305 0.76476 0.0
C175 C 0.65421 0.46499 0.75297 0.0
C176 C 0.66361 0.42579 0.74123 0.0
C177 C 0.67317 0.44954 0.74107 0.0
N178 N 0.6233 0.39501 0.75274 0.0
C179 C 0.64236 0.3791 0.74219 0.0
C180 C 0.68255 0.40972 0.72989 0.0
C181 C 0.67207 0.38624 0.73051 0.0
Gd182 Gd 0.47785 0.38407 0.74216 0.0
Gd183 Gd 0.57361 0.38462 0.77304 0.0
N184 N 0.58749 0.42462 0.77646 0.0
C185 C 0.60841 0.47132 0.77842 0.0
C186 C 0.5738 0.43819 0.79086 0.0
C187 C 0.58297 0.46185 0.79162 0.0
H188 H 0.55644 0.43084 0.80214 0.0
H189 H 0.57104 0.47264 0.80269 0.0
H190 H 0.48404 0.32576 0.73746 0.0
H191 H 0.63414 0.36098 0.74263 0.0
H192 H 0.44706 0.29077 0.74542 0.0
H193 H 0.61581 0.4896 0.7792 0.0
H194 H 0.66239 0.48319 0.75296 0.0
H195 H 0.42585 0.42962 0.75392 0.0
H196 H 0.70538 0.41524 0.72069 0.0
H197 H 0.68675 0.37367 0.72193 0.0
H198 H 0.33589 0.32086 0.77338 0.0
H199 H 0.69542 0.4561 0.73193 0.0
H200 H 0.32445 0.40384 0.77839 0.0
H201 H 0.3652 0.43702 0.76915 0.0
N202 N 0.42005 0.39282 0.75544 0.0
C203 C 0.39785 0.37436 0.76005 0.0
C204 C 0.40861 0.4151 0.75839 0.0
C205 C 0.35117 0.40053 0.77191 0.0
C206 C 0.37413 0.41931 0.76677 0.0
C207 C 0.36282 0.37771 0.76849 0.0
H208 H 0.3137 0.36049 0.77981 0.0
N209 N 0.44477 0.34939 0.74876 0.0
C210 C 0.41038 0.35199 0.75645 0.0
C211 C 0.40178 0.31018 0.75728 0.0
C212 C 0.38817 0.33243 0.76114 0.0
C213 C 0.45762 0.3278 0.74435 0.0
C214 C 0.43653 0.30789 0.74871 0.0
O215 O 0.57065 0.39465 0.74095 0.0
O216 O 0.51663 0.41452 0.73907 0.0
O217 O 0.47824 0.37565 0.71154 0.0
O218 O 0.44008 0.40139 0.72222 0.0
O219 O 0.52242 0.40122 0.78624 0.0
O220 O 0.49332 0.41586 0.75896 0.0
O221 O 0.47511 0.36686 0.77187 0.0
O222 O 0.53366 0.35643 0.78299 0.0
O223 O 0.59781 0.38706 0.80232 0.0
O224 O 0.61939 0.36264 0.78123 0.0
O225 O 0.52428 0.36076 0.73194 0.0
O226 O 0.56173 0.3509 0.7582 0.0
C227 C 0.55113 0.41207 0.73396 0.0
C228 C 0.499 0.41583 0.77779 0.0
C229 C 0.42107 0.37979 0.69535 0.0
C230 C 0.39082 0.37763 0.66384 0.0
C231 C 0.36468 0.35727 0.69198 0.0
C232 C 0.39341 0.36547 0.7035 0.0
C233 C 0.36323 0.36337 0.67228 0.0
C234 C 0.41985 0.38569 0.67551 0.0
C235 C 0.45062 0.38943 0.70739 0.0
C236 C 0.35329 0.33569 0.7696 0.0
C237 C 0.34066 0.35826 0.77327 0.0
H238 H 0.38559 0.29471 0.76071 0.0
C239 C 0.49736 0.35473 0.78323 0.0
C240 C 0.54944 0.34749 0.74053 0.0
C241 C 0.65147 0.36309 0.81184 0.0
C242 C 0.67937 0.36105 0.84408 0.0
C243 C 0.70992 0.34308 0.8168 0.0
C244 C 0.6814 0.35035 0.80456 0.0
C245 C 0.70904 0.34843 0.83641 0.0
C246 C 0.65044 0.36829 0.83171 0.0
C247 C 0.62237 0.37129 0.79839 0.0
H248 H 0.34338 0.34624 0.69837 0.0
H249 H 0.3938 0.3608 0.71874 0.0
H250 H 0.34072 0.35677 0.66359 0.0
H251 H 0.44101 0.39699 0.66927 0.0
H252 H 0.73284 0.33329 0.81104 0.0
H253 H 0.683 0.34617 0.78932 0.0
H254 H 0.73139 0.34243 0.84568 0.0
H255 H 0.62757 0.37816 0.83748 0.0
C256 C 0.89286 0.84843 0.75829 0.0
C257 C 0.9022 0.81136 0.77499 0.0
C258 C 0.91363 0.83443 0.77068 0.0
C259 C 0.87073 0.8023 0.76585 0.0
C260 C 0.86019 0.83988 0.74986 0.0
C261 C 0.84971 0.81656 0.75334 0.0
N262 N 0.90404 0.87075 0.75498 0.0
C263 C 0.88254 0.88609 0.74468 0.0
C264 C 0.83875 0.85519 0.73849 0.0
C265 C 0.84973 0.87849 0.73612 0.0
Gd266 Gd 0.04786 0.88285 0.73286 0.0
Gd267 Gd 0.95966 0.88213 0.76928 0.0
N268 N 0.94352 0.8439 0.7795 0.0
C269 C 0.92192 0.7984 0.78892 0.0
C270 C 0.96071 0.83202 0.79431 0.0
C271 C 0.95086 0.80895 0.79889 0.0
H272 H 0.98183 0.8403 0.80283 0.0
H273 H 0.96524 0.79943 0.81029 0.0
H274 H 0.04528 0.93635 0.71347 0.0
H275 H 0.89122 0.90406 0.74279 0.0
H276 H 0.07931 0.97378 0.71595 0.0
H277 H 0.91407 0.78061 0.79264 0.0
H278 H 0.86178 0.78453 0.76882 0.0
H279 H 0.10399 0.84206 0.75349 0.0
H280 H 0.81342 0.8493 0.73178 0.0
H281 H 0.83304 0.89054 0.72763 0.0
H282 H 0.17541 0.95694 0.76223 0.0
H283 H 0.82497 0.80954 0.74678 0.0
H284 H 0.18921 0.87754 0.78412 0.0
H285 H 0.1576 0.84089 0.77542 0.0
N286 N 0.10178 0.87916 0.75192 0.0
C287 C 0.1206 0.89927 0.7552 0.0
C288 C 0.11607 0.85827 0.75806 0.0
C289 C 0.16493 0.8782 0.77495 0.0
C290 C 0.14711 0.85749 0.77012 0.0
C291 C 0.15242 0.89939 0.76699 0.0
H292 H 0.19565 0.92093 0.77909 0.0
N293 N 0.07879 0.91876 0.73434 0.0
C294 C 0.10927 0.91958 0.74578 0.0
C295 C 0.11803 0.96026 0.73708 0.0
C296 C 0.12932 0.9405 0.74778 0.0
C297 C 0.06859 0.93761 0.72318 0.0
C298 C 0.08783 0.95872 0.72453 0.0
O299 O 0.95385 0.86964 0.73846 0.0
O300 O 0.00913 0.85193 0.73248 0.0
O301 O 0.04656 0.88574 0.7013 0.0
O302 O 0.09182 0.86816 0.71564 0.0
O303 O 0.01293 0.86491 0.77931 0.0
O304 O 0.03853 0.8502 0.75151 0.0
O305 O 0.03505 0.91254 0.75305 0.0
O306 O 0.01517 0.89342 0.7803 0.0
O307 O 0.92918 0.88318 0.79647 0.0
O308 O 0.93668 0.91467 0.77915 0.0
O309 O 0.99696 0.9013 0.72122 0.0
O310 O 0.9636 0.91308 0.7483 0.0
C311 C 0.97307 0.85287 0.73072 0.0
C312 C 0.0322 0.84898 0.77032 0.0
C313 C 0.10518 0.88828 0.68635 0.0
C314 C 0.13093 0.89466 0.65394 0.0
C315 C 0.15533 0.91596 0.68127 0.0
C316 C 0.13051 0.90445 0.69368 0.0
C317 C 0.15557 0.91116 0.66151 0.0
C318 C 0.10556 0.88337 0.6665 0.0
C319 C 0.07874 0.87606 0.69924 0.0
C320 C 0.15999 0.94094 0.76023 0.0
C321 C 0.17143 0.92045 0.76988 0.0
H322 H 0.13274 0.97667 0.7382 0.0
C323 C 0.03381 0.91043 0.77198 0.0
C324 C 0.97344 0.91532 0.72986 0.0
C325 C 0.94025 0.91786 0.81328 0.0
C326 C 0.94058 0.92135 0.84851 0.0
C327 C 0.98293 0.9446 0.82863 0.0
C328 C 0.96864 0.93464 0.81192 0.0
C329 C 0.96916 0.93794 0.84685 0.0
C330 C 0.92608 0.9115 0.83161 0.0
C331 C 0.92678 0.90582 0.79592 0.0
H332 H 0.17475 0.92842 0.68703 0.0
H333 H 0.13149 0.908 0.70897 0.0
H334 H 0.17565 0.91993 0.65223 0.0
H335 H 0.08612 0.87079 0.66085 0.0
H336 H 0.00495 0.95738 0.82746 0.0
H337 H 0.98013 0.93991 0.79799 0.0
H338 H 0.98067 0.94587 0.85964 0.0
H339 H 0.90455 0.89835 0.83276 0.0
C340 C 0.60086 0.64995 0.24384 0.0
C341 C 0.59684 0.68854 0.25742 0.0
C342 C 0.58367 0.66542 0.25622 0.0
C343 C 0.62621 0.69609 0.24548 0.0
C344 C 0.63088 0.65731 0.23215 0.0
C345 C 0.64322 0.68051 0.23292 0.0
N346 N 0.58743 0.62783 0.24279 0.0
C347 C 0.60355 0.61193 0.23103 0.0
C348 C 0.64721 0.6412 0.2198 0.0
C349 C 0.63359 0.61838 0.21932 0.0
Gd350 Gd 0.43811 0.62398 0.23568 0.0
Gd351 Gd 0.53709 0.61854 0.26287 0.0
N352 N 0.55494 0.6577 0.26747 0.0
C353 C 0.5808 0.70324 0.27098 0.0
C354 C 0.5421 0.67127 0.28207 0.0
C355 C 0.55389 0.69439 0.28365 0.0
H356 H 0.52375 0.66426 0.29303 0.0
H357 H 0.54283 0.7052 0.29495 0.0
H358 H 0.44444 0.56843 0.22055 0.0
H359 H 0.59309 0.59429 0.23071 0.0
H360 H 0.40932 0.53181 0.22381 0.0
H361 H 0.59013 0.72111 0.27236 0.0
H362 H 0.63638 0.71385 0.24609 0.0
H363 H 0.38826 0.66434 0.2581 0.0
H364 H 0.6703 0.6462 0.21058 0.0
H365 H 0.64615 0.60579 0.20989 0.0
H366 H 0.303 0.55209 0.26145 0.0
H367 H 0.666 0.68655 0.2239 0.0
H368 H 0.29181 0.63114 0.28199 0.0
H369 H 0.33045 0.66648 0.27711 0.0
N370 N 0.38337 0.62802 0.25337 0.0
C371 C 0.36222 0.6085 0.2555 0.0
C372 C 0.37215 0.64873 0.26071 0.0
C373 C 0.3174 0.63006 0.27389 0.0
C374 C 0.33918 0.65004 0.27122 0.0
C375 C 0.32866 0.60898 0.26589 0.0
H376 H 0.28167 0.58853 0.27593 0.0
N377 N 0.40735 0.58785 0.23783 0.0
C378 C 0.37427 0.5879 0.24728 0.0
C379 C 0.36609 0.54692 0.24094 0.0
C380 C 0.35302 0.56733 0.24931 0.0
C381 C 0.41952 0.56821 0.22904 0.0
C382 C 0.39934 0.54742 0.23064 0.0
O383 O 0.5328 0.63466 0.23262 0.0
O384 O 0.47806 0.65417 0.23382 0.0
O385 O 0.42997 0.62123 0.20453 0.0
O386 O 0.39722 0.64546 0.2209 0.0
O387 O 0.48811 0.63327 0.27928 0.0
O388 O 0.45656 0.65279 0.25502 0.0
O389 O 0.43943 0.6025 0.26372 0.0
O390 O 0.49862 0.5879 0.26715 0.0
O391 O 0.5578 0.61748 0.29268 0.0
O392 O 0.58297 0.59583 0.27054 0.0
O393 O 0.48345 0.60421 0.22052 0.0
O394 O 0.52317 0.58839 0.24374 0.0
C395 C 0.51209 0.65244 0.22754 0.0
C396 C 0.46445 0.64937 0.27344 0.0
C397 C 0.36861 0.62759 0.19412 0.0
C398 C 0.33688 0.61907 0.16378 0.0
C399 C 0.3059 0.61237 0.19473 0.0
C400 C 0.33702 0.62037 0.2045 0.0
C401 C 0.30577 0.61166 0.17451 0.0
C402 C 0.36832 0.62702 0.17374 0.0
C403 C 0.40207 0.63555 0.20427 0.0
C404 C 0.31963 0.56775 0.25969 0.0
C405 C 0.3075 0.5885 0.26796 0.0
H406 H 0.35059 0.53075 0.24219 0.0
C407 C 0.46309 0.58733 0.27104 0.0
C408 C 0.50902 0.58916 0.22613 0.0
C409 C 0.60947 0.59271 0.30286 0.0
C410 C 0.63722 0.59296 0.3352 0.0
C411 C 0.65768 0.565 0.31142 0.0
C412 C 0.63264 0.57414 0.29793 0.0
C413 C 0.66 0.57428 0.32993 0.0
C414 C 0.61188 0.60205 0.32153 0.0
C415 C 0.58305 0.60227 0.28849 0.0
H416 H 0.2817 0.60682 0.20286 0.0
H417 H 0.33619 0.62102 0.22012 0.0
H418 H 0.28106 0.60569 0.16725 0.0
H419 H 0.39269 0.63251 0.16568 0.0
H420 H 0.67528 0.55059 0.30754 0.0
H421 H 0.63134 0.56659 0.28367 0.0
H422 H 0.67929 0.5666 0.3402 0.0
H423 H 0.59445 0.61661 0.32531 0.0
C424 C 0.18843 0.90602 0.34886 0.0
C425 C 0.20924 0.91153 0.36537 0.0
C426 C 0.17588 0.9237 0.33623 0.0
C427 C 0.14698 0.98389 0.33723 0.0
H428 H 0.15649 0.98424 0.28118 0.0
C429 C 0.09544 0.06162 0.29119 0.0
C430 C 0.07927 0.05711 0.27318 0.0
C431 C 0.1137 0.04395 0.30151 0.0
C432 C 0.15311 0.98425 0.29679 0.0
H433 H 0.2343 0.93985 0.3812 0.0
H434 H 0.21179 0.97063 0.35935 0.0
H435 H 0.18453 0.95277 0.30056 0.0
H436 H 0.06925 0.03083 0.25171 0.0
H437 H 0.09979 0.99951 0.27009 0.0
H438 H 0.11444 0.01461 0.33371 0.0
C439 C 0.20532 0.95264 0.35618 0.0
C440 C 0.16937 0.9663 0.30785 0.0
C441 C 0.21832 0.93499 0.36862 0.0
C442 C 0.08176 0.03468 0.26556 0.0
C443 C 0.09946 0.01683 0.27605 0.0
C444 C 0.13025 0.00157 0.32621 0.0
C445 C 0.18347 0.94719 0.34008 0.0
C446 C 0.16662 0.96608 0.32817 0.0
C447 C 0.11551 0.02121 0.29424 0.0
C448 C 0.13327 0.00212 0.30584 0.0
H449 H 0.18109 0.88811 0.34592 0.0
H450 H 0.15896 0.91909 0.32393 0.0
H451 H 0.14393 0.98387 0.35287 0.0
H452 H 0.09431 0.07892 0.2972 0.0
H453 H 0.12651 0.04819 0.31518 0.0
C454 C 0.35974 0.58192 0.86216 0.0
C455 C 0.32479 0.57659 0.86997 0.0
C456 C 0.37985 0.56501 0.85233 0.0
C457 C 0.38445 0.50057 0.84607 0.0
H458 H 0.44918 0.51788 0.80331 0.0
C459 C 0.46943 0.45501 0.77961 0.0
C460 C 0.48204 0.43466 0.78915 0.0
C461 C 0.45197 0.47253 0.7899 0.0
C462 C 0.43097 0.51264 0.8151 0.0
H463 H 0.28278 0.5497 0.87285 0.0
H464 H 0.31692 0.52063 0.85499 0.0
H465 H 0.41342 0.54775 0.81914 0.0
H466 H 0.48768 0.41716 0.81713 0.0
H467 H 0.45845 0.44826 0.83536 0.0
H468 H 0.40051 0.46529 0.84135 0.0
C469 C 0.32961 0.53752 0.85706 0.0
C470 C 0.4108 0.5299 0.82441 0.0
C471 C 0.3098 0.55429 0.86714 0.0
C472 C 0.47797 0.43258 0.80937 0.0
C473 C 0.4609 0.45033 0.81977 0.0
C474 C 0.40422 0.48326 0.83657 0.0
C475 C 0.36522 0.54247 0.84982 0.0
C476 C 0.3871 0.52411 0.83997 0.0
C477 C 0.44732 0.47046 0.81012 0.0
C478 C 0.42761 0.48902 0.82088 0.0
H479 H 0.37218 0.59889 0.86425 0.0
H480 H 0.40732 0.56947 0.84722 0.0
H481 H 0.36713 0.49541 0.85824 0.0
H482 H 0.47278 0.4574 0.76408 0.0
H483 H 0.4415 0.48751 0.78185 0.0
C484 C 0.70757 0.5738 0.6464 0.0
C485 C 0.69147 0.5778 0.62807 0.0
C486 C 0.69501 0.55551 0.6585 0.0
C487 C 0.64434 0.49952 0.65699 0.0
H488 H 0.62825 0.50895 0.71191 0.0
C489 C 0.59717 0.42484 0.70892 0.0
C490 C 0.56909 0.43043 0.72204 0.0
C491 C 0.61501 0.44244 0.69811 0.0
C492 C 0.63253 0.50609 0.69658 0.0
H493 H 0.6492 0.56585 0.60822 0.0
H494 H 0.62725 0.53428 0.62932 0.0
H495 H 0.65352 0.5407 0.69168 0.0
H496 H 0.53732 0.45854 0.73423 0.0
H497 H 0.56806 0.48931 0.71516 0.0
H498 H 0.62239 0.46519 0.66172 0.0
C499 C 0.64993 0.54501 0.63425 0.0
C500 C 0.64735 0.52418 0.68505 0.0
C501 C 0.66237 0.56325 0.6222 0.0
C502 C 0.55882 0.45382 0.72409 0.0
C503 C 0.57675 0.47143 0.71338 0.0
C504 C 0.62961 0.48145 0.66851 0.0
C505 C 0.66622 0.54082 0.65247 0.0
C506 C 0.65288 0.5212 0.66506 0.0
C507 C 0.60502 0.46594 0.70025 0.0
C508 C 0.62305 0.48463 0.68837 0.0
H509 H 0.73006 0.58466 0.65135 0.0
H510 H 0.70826 0.55264 0.67242 0.0
H511 H 0.64878 0.49656 0.6417 0.0
H512 H 0.60541 0.40688 0.70707 0.0
H513 H 0.6369 0.43767 0.68824 0.0
C514 C 0.8358 0.94552 0.11998 0.0
C515 C 0.80724 0.93186 0.12819 0.0
C516 C 0.85536 0.96129 0.1312 0.0
C517 C 0.88049 0.97538 0.18121 0.0
H518 H 0.90072 0.0366 0.15852 0.0
C519 C 0.98538 0.0404 0.21362 0.0
C520 C 0.97437 0.06382 0.21412 0.0
C521 C 0.9638 0.02404 0.20395 0.0
C522 C 0.89507 0.01965 0.16512 0.0
H523 H 0.77728 0.92383 0.1548 0.0
H524 H 0.81169 0.95154 0.17448 0.0
H525 H 0.86458 0.00854 0.14041 0.0
H526 H 0.9331 0.08877 0.2046 0.0
H527 H 0.89528 0.06026 0.18778 0.0
H528 H 0.91099 0.98667 0.20599 0.0
C529 C 0.81887 0.94989 0.15931 0.0
C530 C 0.87468 0.0035 0.15467 0.0
C531 C 0.79909 0.93411 0.14803 0.0
C532 C 0.9419 0.07074 0.20457 0.0
C533 C 0.92045 0.05446 0.19484 0.0
C534 C 0.90112 0.99155 0.19164 0.0
C535 C 0.84698 0.96379 0.15094 0.0
C536 C 0.86738 0.98113 0.16253 0.0
C537 C 0.93113 0.03093 0.19444 0.0
C538 C 0.90873 0.01382 0.18366 0.0
H539 H 0.84299 0.9442 0.10478 0.0
H540 H 0.87727 0.97148 0.1244 0.0
H541 H 0.87546 0.95823 0.18758 0.0
H542 H 0.01034 0.03468 0.22094 0.0
H543 H 0.97295 0.00608 0.20369 0.0
C544 C 0.89057 0.08875 0.63191 0.0
C545 C 0.8526 0.09309 0.62975 0.0
C546 C 0.90294 0.06994 0.64333 0.0
C547 C 0.87255 0.02624 0.68094 0.0
H548 H 0.95953 0.99343 0.66346 0.0
C549 C 0.94174 0.95406 0.72784 0.0
C550 C 0.95799 0.93515 0.71843 0.0
C551 C 0.92828 0.97319 0.71716 0.0
C552 C 0.93492 0.00215 0.66846 0.0
H553 H 0.7978 0.08119 0.63804 0.0
H554 H 0.81925 0.04791 0.65745 0.0
H555 H 0.9368 0.02664 0.64471 0.0
H556 H 0.97213 0.92128 0.69036 0.0
H557 H 0.94753 0.95422 0.67168 0.0
H558 H 0.86975 0.00108 0.70424 0.0
C559 C 0.83962 0.05934 0.65073 0.0
C560 C 0.9222 0.02154 0.65785 0.0
C561 C 0.82725 0.07839 0.63951 0.0
C562 C 0.96 0.93564 0.69807 0.0
C563 C 0.94609 0.95465 0.68736 0.0
C564 C 0.88502 0.00666 0.69144 0.0
C565 C 0.87765 0.05473 0.65265 0.0
C566 C 0.89096 0.03395 0.66399 0.0
C567 C 0.93029 0.97378 0.69676 0.0
C568 C 0.91649 0.9944 0.68539 0.0
H569 H 0.91084 0.09989 0.62474 0.0
H570 H 0.93242 0.06736 0.64482 0.0
H571 H 0.84865 0.03545 0.68627 0.0
H572 H 0.94006 0.95436 0.74353 0.0
H573 H 0.91696 0.98773 0.72497 0.0
C574 C 0.66086 0.4776 0.09874 0.0
C575 C 0.64556 0.45537 0.09591 0.0
C576 C 0.64579 0.4924 0.11252 0.0
C577 C 0.58936 0.49083 0.1571 0.0
H578 H 0.57869 0.55722 0.1469 0.0
C579 C 0.51318 0.57561 0.19192 0.0
C580 C 0.52369 0.57308 0.21149 0.0
C581 C 0.5282 0.56126 0.17786 0.0
C582 C 0.58129 0.53868 0.14992 0.0
H583 H 0.60175 0.43154 0.10487 0.0
H584 H 0.57527 0.45744 0.12866 0.0
H585 H 0.60379 0.53243 0.12176 0.0
H586 H 0.55776 0.55309 0.23165 0.0
H587 H 0.58419 0.52813 0.20703 0.0
H588 H 0.56626 0.49699 0.18511 0.0
C589 C 0.59931 0.46327 0.12051 0.0
C590 C 0.59603 0.52453 0.1356 0.0
C591 C 0.61435 0.4485 0.10677 0.0
C592 C 0.54911 0.55556 0.21671 0.0
C593 C 0.56413 0.54118 0.20262 0.0
C594 C 0.5747 0.50497 0.17142 0.0
C595 C 0.61514 0.48526 0.12373 0.0
C596 C 0.60003 0.50043 0.13899 0.0
C597 C 0.55403 0.544 0.18302 0.0
C598 C 0.57033 0.52903 0.16796 0.0
H599 H 0.68497 0.48339 0.09063 0.0
H600 H 0.65876 0.50918 0.11476 0.0
H601 H 0.59257 0.47236 0.16026 0.0
H602 H 0.49359 0.58886 0.18735 0.0
H603 H 0.51939 0.56361 0.16294 0.0
C604 C 0.35935 0.42113 0.37385 0.0
C605 C 0.32078 0.41855 0.37372 0.0
C606 C 0.37628 0.43912 0.36299 0.0
C607 C 0.35673 0.48148 0.32236 0.0
H608 H 0.44582 0.51176 0.3405 0.0
C609 C 0.41188 0.56843 0.29026 0.0
C610 C 0.44866 0.56815 0.28369 0.0
C611 C 0.39758 0.54982 0.30129 0.0
C612 C 0.42106 0.50331 0.33526 0.0
H613 H 0.26956 0.43299 0.36268 0.0
H614 H 0.29862 0.46492 0.34459 0.0
H615 H 0.41795 0.48024 0.36 0.0
H616 H 0.49988 0.5485 0.28454 0.0
H617 H 0.47505 0.51634 0.30454 0.0
H618 H 0.35922 0.50529 0.29801 0.0
C619 C 0.31618 0.45268 0.35237 0.0
C620 C 0.40514 0.48517 0.34634 0.0
C621 C 0.29941 0.43448 0.36289 0.0
C622 C 0.47133 0.54924 0.28921 0.0
C623 C 0.45721 0.53083 0.30065 0.0
C624 C 0.37224 0.49986 0.31151 0.0
C625 C 0.35489 0.4551 0.35202 0.0
C626 C 0.3726 0.47408 0.34009 0.0
C627 C 0.42007 0.53083 0.30653 0.0
C628 C 0.40444 0.51098 0.31789 0.0
H629 H 0.3765 0.40881 0.3818 0.0
H630 H 0.40614 0.44013 0.36287 0.0
H631 H 0.33233 0.47301 0.31673 0.0
H632 H 0.39401 0.58304 0.28695 0.0
H633 H 0.36898 0.55036 0.30592 0.0
C634 C 0.21811 0.02778 0.88161 0.0
C635 C 0.22279 0.05149 0.87659 0.0
C636 C 0.19923 0.01286 0.86929 0.0
C637 C 0.12984 0.01327 0.83037 0.0
H638 H 0.16219 0.94952 0.82359 0.0
C639 C 0.05908 0.95026 0.77738 0.0
C640 C 0.05404 0.92715 0.78395 0.0
C641 C 0.08002 0.96581 0.78819 0.0
C642 C 0.15262 0.96721 0.82551 0.0
H643 H 0.21205 0.07802 0.85443 0.0
H644 H 0.17925 0.05184 0.83279 0.0
H645 H 0.19964 0.976 0.8427 0.0
H646 H 0.06561 0.90223 0.80718 0.0
H647 H 0.10194 0.92949 0.82627 0.0
H648 H 0.08269 0.0044 0.81326 0.0
C649 C 0.18985 0.0449 0.84641 0.0
C650 C 0.1741 0.98239 0.83642 0.0
C651 C 0.20884 0.05985 0.85874 0.0
C652 C 0.06927 0.91997 0.80179 0.0
C653 C 0.09033 0.9355 0.81259 0.0
C654 C 0.10837 0.99809 0.81945 0.0
C655 C 0.18455 0.02127 0.85164 0.0
C656 C 0.16281 0.00554 0.83911 0.0
C657 C 0.09622 0.95853 0.80581 0.0
C658 C 0.11937 0.97483 0.81704 0.0
H659 H 0.22846 0.02075 0.89526 0.0
H660 H 0.19525 0.99484 0.87388 0.0
H661 H 0.1201 0.0309 0.8324 0.0
H662 H 0.0471 0.95626 0.76378 0.0
H663 H 0.08421 0.98339 0.78253 0.0
C664 C 0.25251 0.10843 0.98194 0.0
C665 C 0.23917 0.12789 0.97138 0.0
C666 C 0.24144 0.10426 0.00111 0.0
C667 C 0.19816 0.13049 0.044 0.0
H668 H 0.16463 0.06718 0.05468 0.0
C669 C 0.11453 0.10539 0.11287 0.0
C670 C 0.1218 0.08368 0.12189 0.0
C671 C 0.13039 0.11127 0.09492 0.0
C672 C 0.17437 0.08485 0.05209 0.0
H673 H 0.20544 0.159 0.97314 0.0
H674 H 0.18621 0.15171 0.00671 0.0
H675 H 0.19144 0.07719 0.02321 0.0
H676 H 0.15178 0.05124 0.11931 0.0
H677 H 0.17986 0.06156 0.0881 0.0
H678 H 0.18116 0.13813 0.07294 0.0
C679 C 0.20523 0.13968 9e-05 0.0
C680 C 0.18973 0.0906 0.03402 0.0
C681 C 0.2162 0.14383 0.98083 0.0
C682 C 0.14526 0.06797 0.11258 0.0
C683 C 0.16131 0.0739 0.09468 0.0
C684 C 0.18298 0.1247 0.06216 0.0
C685 C 0.2169 0.11949 0.01023 0.0
C686 C 0.20174 0.11347 0.02974 0.0
C687 C 0.15406 0.09562 0.0856 0.0
C688 C 0.17078 0.10181 0.06641 0.0
H689 H 0.27045 0.09587 0.97518 0.0
H690 H 0.25146 0.08879 0.00868 0.0
H691 H 0.20744 0.14822 0.04117 0.0
H692 H 0.09617 0.11774 0.11959 0.0
H693 H 0.12362 0.12796 0.08821 0.0
C694 C 0.33509 0.42592 0.49239 0.0
C695 C 0.36329 0.41917 0.47966 0.0
C696 C 0.3398 0.42377 0.51244 0.0
C697 C 0.4083 0.41666 0.55157 0.0
H698 H 0.32739 0.38581 0.57879 0.0
C699 C 0.42043 0.38276 0.63109 0.0
C700 C 0.38901 0.3843 0.64297 0.0
C701 C 0.41832 0.38843 0.61128 0.0
C702 C 0.35003 0.39479 0.57153 0.0
H703 H 0.4193 0.40597 0.47804 0.0
H704 H 0.42753 0.4023 0.51319 0.0
H705 H 0.32232 0.39408 0.54417 0.0
H706 H 0.33116 0.39382 0.64367 0.0
H707 H 0.32755 0.40419 0.60926 0.0
H708 H 0.43594 0.4175 0.57901 0.0
C709 C 0.40178 0.40923 0.50758 0.0
C710 C 0.34712 0.39949 0.55165 0.0
C711 C 0.397 0.41126 0.48746 0.0
C712 C 0.35565 0.39209 0.63477 0.0
C713 C 0.35361 0.39797 0.61504 0.0
C714 C 0.41112 0.41213 0.57155 0.0
C715 C 0.37287 0.41494 0.52024 0.0
C716 C 0.37619 0.41047 0.54145 0.0
C717 C 0.3848 0.39596 0.60298 0.0
C718 C 0.38198 0.40112 0.58177 0.0
H719 H 0.30887 0.43224 0.48689 0.0
H720 H 0.31727 0.42868 0.52186 0.0
H721 H 0.43104 0.42528 0.54408 0.0
H722 H 0.44643 0.37664 0.63702 0.0
H723 H 0.44276 0.38637 0.60241 0.0
C724 C 0.73236 0.34531 0.01614 0.0
C725 C 0.7253 0.36408 0.02844 0.0
C726 C 0.72359 0.34685 0.99642 0.0
C727 C 0.70844 0.38887 0.95647 0.0
H728 H 0.66213 0.33632 0.93145 0.0
C729 C 0.71074 0.37518 0.87391 0.0
C730 C 0.67894 0.36622 0.86504 0.0
C731 C 0.7122 0.37758 0.894 0.0
C732 C 0.67463 0.35125 0.93827 0.0
H733 H 0.70239 0.39895 0.02937 0.0
H734 H 0.68805 0.40182 0.99501 0.0
H735 H 0.67319 0.33468 0.96641 0.0
H736 H 0.62327 0.3535 0.87008 0.0
H737 H 0.62586 0.35758 0.90541 0.0
H738 H 0.71048 0.40526 0.92825 0.0
C739 C 0.70072 0.38601 0.00068 0.0
C740 C 0.68135 0.3502 0.95823 0.0
C741 C 0.70921 0.38439 0.02045 0.0
C742 C 0.64805 0.36054 0.87657 0.0
C743 C 0.64965 0.3627 0.89675 0.0
C744 C 0.70204 0.38983 0.93647 0.0
C745 C 0.7077 0.36722 0.98848 0.0
C746 C 0.69874 0.36887 0.96749 0.0
C747 C 0.68199 0.37088 0.90568 0.0
C748 C 0.68546 0.37091 0.92713 0.0
H749 H 0.74468 0.32935 0.02174 0.0
H750 H 0.72968 0.33216 0.98732 0.0
H751 H 0.72202 0.40349 0.9632 0.0
H752 H 0.73484 0.37983 0.86532 0.0
H753 H 0.73758 0.38376 0.90046 0.0
C754 C 0.86668 0.11696 0.50576 0.0
C755 C 0.85426 0.13583 0.5167 0.0
C756 C 0.86668 0.11825 0.48551 0.0
C757 C 0.86667 0.15991 0.44407 0.0
H758 H 0.83803 0.10541 0.41517 0.0
C759 C 0.89759 0.15065 0.3623 0.0
C760 C 0.87054 0.14019 0.35068 0.0
C761 C 0.89342 0.15117 0.38245 0.0
C762 C 0.84576 0.12087 0.42299 0.0
H763 H 0.83213 0.17091 0.51487 0.0
H764 H 0.83197 0.17312 0.47939 0.0
H765 H 0.83403 0.10442 0.45047 0.0
H766 H 0.81778 0.12217 0.35117 0.0
H767 H 0.81027 0.12333 0.38634 0.0
H768 H 0.87821 0.17639 0.41653 0.0
C769 C 0.84198 0.15738 0.48656 0.0
C770 C 0.84387 0.12021 0.44325 0.0
C771 C 0.8419 0.15608 0.50688 0.0
C772 C 0.839 0.1305 0.35968 0.0
C773 C 0.83488 0.13096 0.37986 0.0
C774 C 0.86866 0.16055 0.42378 0.0
C775 C 0.85429 0.13844 0.47564 0.0
C776 C 0.85462 0.13964 0.45405 0.0
C777 C 0.86213 0.14121 0.39149 0.0
C778 C 0.8585 0.14097 0.41301 0.0
H779 H 0.87655 0.10112 0.51282 0.0
H780 H 0.87693 0.10349 0.47757 0.0
H781 H 0.87541 0.17512 0.45194 0.0
H782 H 0.922 0.15852 0.35581 0.0
H783 H 0.91511 0.15899 0.39098 0.0
C784 C 0.85764 0.86919 0.01635 0.0
C785 C 0.82059 0.87383 0.02099 0.0
C786 C 0.86998 0.87112 0.99719 0.0
C787 C 0.84101 0.87455 0.94596 0.0
H788 H 0.9289 0.91289 0.93982 0.0
C789 C 0.88838 0.91231 0.87145 0.0
C790 C 0.92653 0.91391 0.86787 0.0
C791 C 0.87523 0.90561 0.88982 0.0
C792 C 0.90471 0.90182 0.94122 0.0
H793 H 0.76691 0.88265 0.00897 0.0
H794 H 0.78857 0.88594 0.97542 0.0
H795 H 0.90632 0.90304 0.97218 0.0
H796 H 0.98083 0.90897 0.88045 0.0
H797 H 0.95805 0.89682 0.91238 0.0
H798 H 0.83951 0.87327 0.91494 0.0
C799 C 0.80801 0.88087 0.98667 0.0
C800 C 0.89174 0.8962 0.9598 0.0
C801 C 0.79566 0.87906 0.00589 0.0
C802 C 0.95128 0.90828 0.88291 0.0
C803 C 0.93817 0.90136 0.90121 0.0
C804 C 0.8542 0.88001 0.92731 0.0
C805 C 0.84552 0.87758 0.98223 0.0
C806 C 0.85972 0.88257 0.96238 0.0
C807 C 0.89998 0.90014 0.90496 0.0
C808 C 0.88617 0.89379 0.92472 0.0
H809 H 0.87752 0.86493 0.0276 0.0
H810 H 0.89892 0.8681 0.99413 0.0
H811 H 0.81638 0.8639 0.94754 0.0
H812 H 0.8687 0.91673 0.86013 0.0
H813 H 0.84567 0.90521 0.89225 0.0
C814 C 0.70042 0.63832 0.50336 0.0
C815 C 0.66975 0.64089 0.51566 0.0
C816 C 0.69575 0.63752 0.48325 0.0
C817 C 0.62564 0.62154 0.44749 0.0
H818 H 0.69549 0.6477 0.41024 0.0
C819 C 0.60772 0.60865 0.36529 0.0
C820 C 0.63978 0.60268 0.355 0.0
C821 C 0.61013 0.61662 0.38428 0.0
C822 C 0.67586 0.64017 0.42047 0.0
H823 H 0.61037 0.64596 0.51638 0.0
H824 H 0.60233 0.64474 0.48132 0.0
H825 H 0.70218 0.65627 0.44463 0.0
H826 H 0.69961 0.6013 0.35638 0.0
H827 H 0.70375 0.61456 0.38963 0.0
H828 H 0.59985 0.60495 0.42352 0.0
C829 C 0.6299 0.64294 0.48725 0.0
C830 C 0.67967 0.64511 0.44016 0.0
C831 C 0.63456 0.64376 0.50735 0.0
C832 C 0.67433 0.60542 0.36399 0.0
C833 C 0.67674 0.61334 0.38298 0.0
C834 C 0.62187 0.61656 0.42784 0.0
C835 C 0.66031 0.63926 0.47501 0.0
C836 C 0.65484 0.63563 0.45391 0.0
C837 C 0.64465 0.61878 0.39344 0.0
C838 C 0.64719 0.62558 0.41411 0.0
H839 H 0.72791 0.6361 0.50929 0.0
H840 H 0.71972 0.6345 0.47424 0.0
H841 H 0.60639 0.61363 0.45773 0.0
H842 H 0.58065 0.6066 0.35885 0.0
H843 H 0.5849 0.62092 0.39185 0.0
C844 C 0.33522 0.60595 0.98594 0.0
C845 C 0.30231 0.61402 0.97736 0.0
C846 C 0.34085 0.60768 0.0059 0.0
C847 C 0.30993 0.63818 0.04958 0.0
H848 H 0.34808 0.58343 0.07673 0.0
C849 C 0.3489 0.63791 0.13113 0.0
C850 C 0.33615 0.61868 0.14225 0.0
C851 C 0.34641 0.63794 0.11087 0.0
C852 C 0.33733 0.59884 0.06937 0.0
H853 H 0.24989 0.63083 0.98298 0.0
H854 H 0.25976 0.63384 0.01793 0.0
H855 H 0.33998 0.58287 0.04162 0.0
H856 H 0.3118 0.58417 0.14086 0.0
H857 H 0.30741 0.58421 0.10554 0.0
H858 H 0.30678 0.654 0.07743 0.0
C859 C 0.28125 0.62624 0.00914 0.0
C860 C 0.33301 0.5986 0.04924 0.0
C861 C 0.27552 0.62441 0.98914 0.0
C862 C 0.32155 0.59932 0.13268 0.0
C863 C 0.31933 0.59927 0.11245 0.0
C864 C 0.3145 0.63848 0.06973 0.0
C865 C 0.31379 0.61761 0.01776 0.0
C866 C 0.31909 0.61822 0.03912 0.0
C867 C 0.33146 0.61864 0.10132 0.0
C868 C 0.328 0.61874 0.07985 0.0
H869 H 0.35654 0.59795 0.9773 0.0
H870 H 0.36644 0.60117 0.01207 0.0
H871 H 0.2994 0.65362 0.04216 0.0
H872 H 0.36004 0.65315 0.13811 0.0
H873 H 0.35629 0.65303 0.10267 0.0
C874 C 0.15648 0.86105 0.47881 0.0
C875 C 0.19399 0.86008 0.47357 0.0
C876 C 0.14609 0.86128 0.49832 0.0
C877 C 0.17918 0.85007 0.54847 0.0
H878 H 0.10911 0.89837 0.56153 0.0
C879 C 0.13181 0.86544 0.62735 0.0
C880 C 0.13255 0.88882 0.6331 0.0
C881 C 0.13571 0.85991 0.6078 0.0
C882 C 0.12869 0.8848 0.55811 0.0
H883 H 0.24988 0.85742 0.48472 0.0
H884 H 0.23171 0.85794 0.51878 0.0
H885 H 0.12337 0.89131 0.52758 0.0
H886 H 0.13667 0.92474 0.62285 0.0
H887 H 0.14371 0.9151 0.58875 0.0
H888 H 0.18536 0.84411 0.57907 0.0
C889 C 0.21033 0.8584 0.5078 0.0
C890 C 0.13656 0.88058 0.53866 0.0
C891 C 0.22075 0.85823 0.48827 0.0
C892 C 0.13633 0.90656 0.61886 0.0
C893 C 0.13999 0.90104 0.59932 0.0
C894 C 0.17116 0.85423 0.56794 0.0
C895 C 0.17294 0.86047 0.51302 0.0
C896 C 0.16231 0.86341 0.53363 0.0
C897 C 0.14013 0.87765 0.5936 0.0
C898 C 0.14628 0.8719 0.57296 0.0
H899 H 0.13513 0.86233 0.46784 0.0
H900 H 0.11702 0.86252 0.50191 0.0
H901 H 0.1989 0.8366 0.54504 0.0
H902 H 0.12923 0.85139 0.63802 0.0
H903 H 0.13543 0.84174 0.60379 0.0
C904 C 0.21874 0.28066 0.3665 0.0
C905 C 0.2046 0.30316 0.363 0.0
C906 C 0.2059 0.26178 0.35586 0.0
C907 C 0.16472 0.24648 0.30977 0.0
H908 H 0.12311 0.19274 0.33712 0.0
C909 C 0.07746 0.17864 0.27017 0.0
C910 C 0.07867 0.15528 0.2765 0.0
C911 C 0.0954 0.19587 0.28064 0.0
C912 C 0.13528 0.20735 0.3292 0.0
H913 H 0.16651 0.32365 0.34541 0.0
H914 H 0.1448 0.29073 0.3265 0.0
H915 H 0.1508 0.22425 0.35545 0.0
H916 H 0.09989 0.13127 0.29837 0.0
H917 H 0.13245 0.16126 0.31647 0.0
H918 H 0.15018 0.22961 0.28351 0.0
C919 C 0.16556 0.28772 0.33758 0.0
C920 C 0.15096 0.22544 0.33974 0.0
C921 C 0.17785 0.3065 0.34846 0.0
C922 C 0.09826 0.14929 0.2934 0.0
C923 C 0.1168 0.16649 0.30374 0.0
C924 C 0.14968 0.22824 0.29921 0.0
C925 C 0.17928 0.2652 0.34128 0.0
C926 C 0.16522 0.24531 0.33012 0.0
C927 C 0.11547 0.19005 0.29753 0.0
C928 C 0.13409 0.20862 0.30878 0.0
H929 H 0.2393 0.27756 0.37766 0.0
H930 H 0.21693 0.24455 0.3589 0.0
H931 H 0.17599 0.26154 0.30204 0.0
H932 H 0.06217 0.18365 0.25724 0.0
H933 H 0.09296 0.2138 0.2756 0.0
C934 C 0.34724 0.19691 0.8783 0.0
C935 C 0.31003 0.20206 0.88217 0.0
C936 C 0.37034 0.2136 0.86943 0.0
C937 C 0.37863 0.2771 0.85855 0.0
H938 H 0.44371 0.25742 0.81729 0.0
C939 C 0.4431 0.34165 0.80307 0.0
C940 C 0.47973 0.33806 0.79708 0.0
C941 C 0.42506 0.32523 0.81495 0.0
C942 C 0.42611 0.26314 0.82897 0.0
H943 H 0.26807 0.22892 0.87998 0.0
H944 H 0.30816 0.25788 0.86436 0.0
H945 H 0.40713 0.2284 0.83528 0.0
H946 H 0.52654 0.31469 0.79924 0.0
H947 H 0.49503 0.28594 0.82028 0.0
H948 H 0.39708 0.31189 0.85197 0.0
C949 C 0.31969 0.24106 0.86839 0.0
C950 C 0.40513 0.24652 0.8393 0.0
C951 C 0.29661 0.22439 0.87726 0.0
C952 C 0.49833 0.31795 0.80367 0.0
C953 C 0.48019 0.30141 0.81555 0.0
C954 C 0.39953 0.29371 0.8482 0.0
C955 C 0.35678 0.23583 0.86424 0.0
C956 C 0.38079 0.25333 0.85406 0.0
C957 C 0.44325 0.30482 0.82121 0.0
C958 C 0.42317 0.28696 0.83314 0.0
H959 H 0.35848 0.1799 0.88195 0.0
H960 H 0.39888 0.20909 0.86667 0.0
H961 H 0.3607 0.28291 0.87006 0.0
H962 H 0.42813 0.35711 0.79845 0.0
H963 H 0.39651 0.32829 0.81885 0.0
C964 C 0.7406 0.21093 0.64999 0.0
C965 C 0.7234 0.19999 0.63434 0.0
C966 C 0.72073 0.22602 0.66175 0.0
C967 C 0.62431 0.24423 0.67398 0.0
H968 H 0.67534 0.29663 0.69661 0.0
C969 C 0.55242 0.32264 0.71091 0.0
C970 C 0.56645 0.32854 0.72922 0.0
C971 C 0.57015 0.30594 0.69969 0.0
C972 C 0.66082 0.28198 0.69046 0.0
H973 H 0.67202 0.19654 0.61855 0.0
H974 H 0.63775 0.22367 0.63844 0.0
H975 H 0.70913 0.27027 0.67585 0.0
H976 H 0.60958 0.32081 0.75027 0.0
H977 H 0.64096 0.29228 0.73039 0.0
H978 H 0.57562 0.2568 0.68814 0.0
C979 C 0.66624 0.22005 0.64214 0.0
C980 C 0.68019 0.26672 0.67864 0.0
C981 C 0.68596 0.20459 0.63061 0.0
C982 C 0.5981 0.3169 0.7362 0.0
C983 C 0.61619 0.30059 0.72482 0.0
C984 C 0.60479 0.25979 0.68552 0.0
C985 C 0.6833 0.23097 0.65794 0.0
C986 C 0.66233 0.24749 0.67032 0.0
C987 C 0.60259 0.29511 0.7064 0.0
C988 C 0.62295 0.27869 0.69398 0.0
H989 H 0.76934 0.20755 0.65335 0.0
H990 H 0.73477 0.23357 0.67399 0.0
H991 H 0.60959 0.22946 0.66819 0.0
H992 H 0.52801 0.33112 0.70511 0.0
H993 H 0.55915 0.30203 0.68551 0.0
C994 C 0.8503 0.29982 0.12781 0.0
C995 C 0.81425 0.29407 0.122 0.0
C996 C 0.87077 0.28433 0.13942 0.0
C997 C 0.85947 0.23373 0.17319 0.0
H998 H 0.96442 0.22575 0.16436 0.0
C999 C 0.98318 0.16581 0.19553 0.0
C1000 C 0.97613 0.16255 0.21548 0.0
C1001 C 0.96436 0.18282 0.18473 0.0
C1002 C 0.93508 0.22768 0.16696 0.0
H1003 H 0.77175 0.26732 0.12342 0.0
H1004 H 0.80772 0.24012 0.1433 0.0
H1005 H 0.92958 0.25268 0.14367 0.0
H1006 H 0.94409 0.17507 0.23977 0.0
H1007 H 0.91159 0.20504 0.22091 0.0
H1008 H 0.86473 0.20815 0.19605 0.0
C1009 C 0.8199 0.2568 0.13926 0.0
C1010 C 0.91518 0.24332 0.15523 0.0
C1011 C 0.79939 0.27232 0.12772 0.0
C1012 C 0.95011 0.177 0.22443 0.0
C1013 C 0.93132 0.19411 0.21359 0.0
C1014 C 0.87934 0.21803 0.18488 0.0
C1015 C 0.8557 0.26271 0.14541 0.0
C1016 C 0.87708 0.24642 0.15812 0.0
C1017 C 0.93811 0.19713 0.19359 0.0
C1018 C 0.91734 0.21468 0.18181 0.0
H1019 H 0.86249 0.31648 0.12371 0.0
H1020 H 0.8981 0.28954 0.14405 0.0
H1021 H 0.83027 0.23596 0.17601 0.0
H1022 H 0.00291 0.15499 0.18809 0.0
H1023 H 0.96986 0.18439 0.16931 0.0
C1024 C 0.84503 0.69023 0.63947 0.0
C1025 C 0.80907 0.69345 0.63224 0.0
C1026 C 0.86192 0.70743 0.65052 0.0
C1027 C 0.85961 0.7702 0.66001 0.0
H1028 H 0.91326 0.75287 0.70678 0.0
C1029 C 0.9192 0.83924 0.71122 0.0
C1030 C 0.95389 0.83476 0.71956 0.0
C1031 C 0.90067 0.82195 0.70104 0.0
C1032 C 0.89878 0.75799 0.69364 0.0
H1033 H 0.76264 0.71727 0.63093 0.0
H1034 H 0.79226 0.74734 0.65015 0.0
H1035 H 0.8827 0.72278 0.68805 0.0
H1036 H 0.99685 0.80884 0.72343 0.0
H1037 H 0.96515 0.77886 0.7051 0.0
H1038 H 0.87613 0.80533 0.66534 0.0
C1039 C 0.8074 0.73154 0.64719 0.0
C1040 C 0.88121 0.74074 0.68294 0.0
C1041 C 0.79039 0.71426 0.63627 0.0
C1042 C 0.97006 0.81278 0.71719 0.0
C1043 C 0.95168 0.79552 0.70687 0.0
C1044 C 0.87739 0.78744 0.67063 0.0
C1045 C 0.84333 0.72829 0.65446 0.0
C1046 C 0.8615 0.74665 0.66599 0.0
C1047 C 0.9167 0.79987 0.6987 0.0
C1048 C 0.89728 0.78155 0.68756 0.0
H1049 H 0.86018 0.6744 0.63663 0.0
H1050 H 0.88978 0.70454 0.65574 0.0
H1051 H 0.84503 0.77525 0.64688 0.0
H1052 H 0.90646 0.85618 0.71245 0.0
H1053 H 0.87364 0.82587 0.69512 0.0
C1054 C 0.68666 0.80017 0.13414 0.0
C1055 C 0.67146 0.82269 0.13433 0.0
C1056 C 0.66949 0.78171 0.14423 0.0
C1057 C 0.60533 0.7685 0.18436 0.0
H1058 H 0.59159 0.70962 0.1586 0.0
C1059 C 0.51553 0.69457 0.21763 0.0
C1060 C 0.52859 0.67169 0.21592 0.0
C1061 C 0.53284 0.71299 0.20756 0.0
C1062 C 0.59562 0.72583 0.16611 0.0
H1063 H 0.62655 0.84356 0.14545 0.0
H1064 H 0.59673 0.81133 0.16314 0.0
H1065 H 0.62293 0.74175 0.14162 0.0
H1066 H 0.56889 0.6499 0.20183 0.0
H1067 H 0.5998 0.68202 0.18468 0.0
H1068 H 0.57851 0.75256 0.20896 0.0
C1069 C 0.62197 0.80799 0.15522 0.0
C1070 C 0.61353 0.74424 0.15636 0.0
C1071 C 0.63895 0.82641 0.145 0.0
C1072 C 0.55857 0.66745 0.20358 0.0
C1073 C 0.57602 0.68584 0.19361 0.0
C1074 C 0.58766 0.75003 0.19418 0.0
C1075 C 0.63696 0.78543 0.15485 0.0
C1076 C 0.61846 0.76579 0.16535 0.0
C1077 C 0.56351 0.70887 0.19556 0.0
C1078 C 0.58246 0.72849 0.18515 0.0
H1079 H 0.71169 0.79673 0.12608 0.0
H1080 H 0.68186 0.76454 0.14385 0.0
H1081 H 0.60918 0.78483 0.19175 0.0
H1082 H 0.49242 0.69832 0.22706 0.0
H1083 H 0.52208 0.73045 0.20915 0.0
C1084 C 0.26845 0.77115 0.37071 0.0
C1085 C 0.28394 0.79033 0.38017 0.0
C1086 C 0.29108 0.75492 0.36168 0.0
C1087 C 0.38291 0.74975 0.33962 0.0
H1088 H 0.3593 0.6837 0.33988 0.0
C1089 C 0.43775 0.68784 0.28194 0.0
C1090 C 0.44832 0.66522 0.28773 0.0
C1091 C 0.42109 0.70268 0.29509 0.0
C1092 C 0.36655 0.70205 0.33986 0.0
H1093 H 0.33541 0.80717 0.38801 0.0
H1094 H 0.37492 0.77875 0.37231 0.0
H1095 H 0.32368 0.70993 0.36012 0.0
H1096 H 0.4508 0.64052 0.31191 0.0
H1097 H 0.42155 0.66659 0.33507 0.0
H1098 H 0.42559 0.74192 0.31928 0.0
C1099 C 0.34524 0.77643 0.3717 0.0
C1100 C 0.3459 0.7171 0.35129 0.0
C1101 C 0.3226 0.79265 0.38077 0.0
C1102 C 0.44278 0.65788 0.30708 0.0
C1103 C 0.42587 0.67272 0.32027 0.0
C1104 C 0.40346 0.73473 0.32817 0.0
C1105 C 0.32972 0.75751 0.36189 0.0
C1106 C 0.35349 0.74118 0.35106 0.0
C1107 C 0.41466 0.69524 0.31436 0.0
C1108 C 0.39512 0.71077 0.32791 0.0
H1109 H 0.23878 0.76886 0.36998 0.0
H1110 H 0.27822 0.74072 0.35404 0.0
H1111 H 0.38929 0.76822 0.33899 0.0
H1112 H 0.44206 0.69404 0.26715 0.0
H1113 H 0.41241 0.71981 0.29002 0.0
C1114 C 0.19149 0.68682 0.85392 0.0
C1115 C 0.21935 0.69385 0.86671 0.0
C1116 C 0.17108 0.70338 0.84332 0.0
C1117 C 0.17063 0.76681 0.82877 0.0
H1118 H 0.0685 0.75348 0.81598 0.0
C1119 C 0.06625 0.8359 0.80005 0.0
C1120 C 0.05096 0.83067 0.78193 0.0
C1121 C 0.08634 0.81905 0.81047 0.0
C1122 C 0.09703 0.75734 0.81944 0.0
H1123 H 0.24732 0.72373 0.8787 0.0
H1124 H 0.21066 0.75262 0.86108 0.0
H1125 H 0.10442 0.72465 0.83432 0.0
H1126 H 0.04353 0.80376 0.76069 0.0
H1127 H 0.07755 0.77388 0.77937 0.0
H1128 H 0.16226 0.8 0.81451 0.0
C1129 C 0.2053 0.73436 0.85853 0.0
C1130 C 0.11783 0.74077 0.82982 0.0
C1131 C 0.22625 0.71778 0.86879 0.0
C1132 C 0.05516 0.80815 0.77463 0.0
C1133 C 0.07446 0.79112 0.78529 0.0
C1134 C 0.14954 0.78354 0.81879 0.0
C1135 C 0.17743 0.72744 0.84557 0.0
C1136 C 0.15506 0.74519 0.83457 0.0
C1137 C 0.09064 0.79654 0.80316 0.0
C1138 C 0.11266 0.7789 0.81397 0.0
H1139 H 0.18575 0.66847 0.85191 0.0
H1140 H 0.15056 0.69721 0.83322 0.0
H1141 H 0.19931 0.77079 0.83169 0.0
H1142 H 0.0636 0.85322 0.80589 0.0
H1143 H 0.09852 0.82357 0.82424 0.0
loop_
_geom_bond_atom_site_label_1
_geom_bond_atom_site_label_2
_geom_bond_distance
_geom_bond_site_symmetry_2
_ccdc_geom_bond_type
O0 Cd1 2.300 . S
O0 C7 1.275 . S
Cd1 O0 2.300 . S
Cd1 O9 2.381 . S
Cd1 O10 2.378 . S
O2 Cd3 2.385 . S
O2 C7 1.255 . S
Cd3 O2 2.385 . S
Cd3 O4 2.317 . S
O4 Cd3 2.317 . S
O4 C5 1.232 . S
C5 O4 1.232 . S
C5 O6 1.218 . S
O6 C5 1.218 . S
C7 O0 1.275 . S
C7 O2 1.255 . S
C8 O9 1.258 . S
C8 O10 1.256 . S
O9 Cd1 2.381 . S
O9 C8 1.258 . S
O10 Cd1 2.378 . S
O10 C8 1.256 . S
O11 Cd12 2.300 . S
O11 C18 1.275 . S
Cd12 O11 2.300 . S
Cd12 O20 2.381 . S
Cd12 O21 2.378 . S
O13 Cd14 2.385 . S
O13 C18 1.255 . S
Cd14 O13 2.385 . S
Cd14 O15 2.317 . S
O15 Cd14 2.317 . S
O15 C16 1.232 . S
C16 O15 1.232 . S
C16 O17 1.218 . S
O17 C16 1.218 . S
C18 O11 1.275 . S
C18 O13 1.255 . S
C19 O20 1.258 . S
C19 O21 1.256 . S
O20 Cd12 2.381 . S
O20 C19 1.258 . S
O21 Cd12 2.378 . S
O21 C19 1.256 . S
O22 Cd23 2.300 . S
O22 C29 1.275 . S
Cd23 O22 2.300 . S
Cd23 O31 2.381 . S
Cd23 O32 2.378 . S
O24 Cd25 2.385 . S
O24 C29 1.255 . S
Cd25 O24 2.385 . S
Cd25 O26 2.317 . S
O26 Cd25 2.317 . S
O26 C27 1.232 . S
C27 O26 1.232 . S
C27 O28 1.218 . S
O28 C27 1.218 . S
C29 O22 1.275 . S
C29 O24 1.255 . S
C30 O31 1.258 . S
C30 O32 1.256 . S
O31 Cd23 2.381 . S
O31 C30 1.258 . S
O32 Cd23 2.378 . S
O32 C30 1.256 . S
O33 Cd34 2.300 . S
O33 C40 1.275 . S
Cd34 O33 2.300 . S
Cd34 O42 2.381 . S
Cd34 O43 2.378 . S
O35 Cd36 2.385 . S
O35 C40 1.255 . S
Cd36 O35 2.385 . S
Cd36 O37 2.317 . S
O37 Cd36 2.317 . S
O37 C38 1.232 . S
C38 O37 1.232 . S
C38 O39 1.218 . S
O39 C38 1.218 . S
C40 O33 1.275 . S
C40 O35 1.255 . S
C41 O42 1.258 . S
C41 O43 1.256 . S
O42 Cd34 2.381 . S
O42 C41 1.258 . S
O43 Cd34 2.378 . S
O43 C41 1.256 . S
O44 Cd45 2.300 . S
O44 C51 1.275 . S
Cd45 O44 2.300 . S
Cd45 O53 2.381 . S
Cd45 O54 2.378 . S
O46 Cd47 2.385 . S
O46 C51 1.255 . S
Cd47 O46 2.385 . S
Cd47 O48 2.317 . S
O48 Cd47 2.317 . S
O48 C49 1.232 . S
C49 O48 1.232 . S
C49 O50 1.218 . S
O50 C49 1.218 . S
C51 O44 1.275 . S
C51 O46 1.255 . S
C52 O53 1.258 . S
C52 O54 1.256 . S
O53 Cd45 2.381 . S
O53 C52 1.258 . S
O54 Cd45 2.378 . S
O54 C52 1.256 . S
O55 Cd56 2.300 . S
O55 C62 1.275 . S
Cd56 O55 2.300 . S
Cd56 O64 2.381 . S
Cd56 O65 2.378 . S
O57 Cd58 2.385 . S
O57 C62 1.255 . S
Cd58 O57 2.385 . S
Cd58 O59 2.317 . S
O59 Cd58 2.317 . S
O59 C60 1.232 . S
C60 O59 1.232 . S
C60 O61 1.218 . S
O61 C60 1.218 . S
C62 O55 1.275 . S
C62 O57 1.255 . S
C63 O64 1.258 . S
C63 O65 1.256 . S
O64 Cd56 2.381 . S
O64 C63 1.258 . S
O65 Cd56 2.378 . S
O65 C63 1.256 . S
O66 Cd67 2.300 . S
O66 C73 1.275 . S
Cd67 O66 2.300 . S
Cd67 O75 2.381 . S
Cd67 O76 2.378 . S
O68 Cd69 2.385 . S
O68 C73 1.255 . S
Cd69 O68 2.385 . S
Cd69 O70 2.317 . S
O70 Cd69 2.317 . S
O70 C71 1.232 . S
C71 O70 1.232 . S
C71 O72 1.218 . S
O72 C71 1.218 . S
C73 O66 1.275 . S
C73 O68 1.255 . S
C74 O75 1.258 . S
C74 O76 1.256 . S
O75 Cd67 2.381 . S
O75 C74 1.258 . S
O76 Cd67 2.378 . S
O76 C74 1.256 . S
O77 Cd78 2.300 . S
O77 C84 1.275 . S
Cd78 O77 2.300 . S
Cd78 O86 2.381 . S
Cd78 O87 2.378 . S
O79 Cd80 2.385 . S
O79 C84 1.255 . S
Cd80 O79 2.385 . S
Cd80 O81 2.317 . S
O81 Cd80 2.317 . S
O81 C82 1.232 . S
C82 O81 1.232 . S
C82 O83 1.218 . S
O83 C82 1.218 . S
C84 O77 1.275 . S
C84 O79 1.255 . S
C85 O86 1.258 . S
C85 O87 1.256 . S
O86 Cd78 2.381 . S
O86 C85 1.258 . S
O87 Cd78 2.378 . S
O87 C85 1.256 . S
C88 C90 1.422 . S
C88 C92 1.415 . S
C88 N94 1.369 . S
C89 C90 1.421 . S
C89 C91 1.417 . S
C89 C101 1.422 . S
C90 C88 1.422 . S
C90 C89 1.421 . S
C90 N100 1.359 . S
C91 C89 1.417 . S
C91 C93 1.329 . S
C91 H110 0.930 . S
C92 C88 1.415 . S
C92 C93 1.437 . S
C92 C96 1.413 . S
C93 C91 1.329 . S
C93 C92 1.437 . S
C93 H115 0.929 . S
N94 C88 1.369 . S
N94 C95 1.338 . S
N94 Gd99 2.622 . S
C95 N94 1.338 . S
C95 C97 1.378 . S
C95 H107 0.929 . S
C96 C92 1.413 . S
C96 C97 1.348 . S
C96 H112 0.931 . S
C97 C95 1.378 . S
C97 C96 1.348 . S
C97 H113 0.930 . S
Gd98 N118 2.622 . S
Gd98 N125 2.570 . S
Gd98 O132 2.353 . S
Gd98 O133 2.468 . S
Gd98 O134 2.427 . S
Gd98 O136 2.388 . S
Gd98 O137 2.386 . S
Gd98 O141 2.307 . S
Gd98 C151 2.805 . S
Gd99 N94 2.622 . S
Gd99 N100 2.570 . S
Gd99 O131 2.386 . S
Gd99 O135 2.307 1_655 S
Gd99 O138 2.353 1_655 S
Gd99 O139 2.468 . S
Gd99 O140 2.427 . S
Gd99 O142 2.388 . S
Gd99 C163 2.805 . S
N100 C90 1.359 . S
N100 Gd99 2.570 . S
N100 C102 1.343 . S
C101 C89 1.422 . S
C101 C103 1.321 . S
C101 H109 0.931 . S
C102 N100 1.343 . S
C102 C103 1.390 . S
C102 H104 0.931 . S
C103 C101 1.321 . S
C103 C102 1.390 . S
C103 H105 0.930 . S
H104 C102 0.931 . S
H105 C103 0.930 . S
H106 C129 0.931 . S
H107 C95 0.929 . S
H108 C130 0.930 . S
H109 C101 0.931 . S
H110 C91 0.930 . S
H111 C120 0.929 . S
H112 C96 0.931 . S
H113 C97 0.930 . S
H114 C152 0.930 . S
H115 C93 0.929 . S
H116 C121 0.931 . S
H117 C122 0.930 . S
N118 Gd98 2.622 . S
N118 C119 1.369 . S
N118 C120 1.338 . S
C119 N118 1.369 . S
C119 C123 1.415 . S
C119 C126 1.422 . S
C120 H111 0.929 . S
C120 N118 1.338 . S
C120 C122 1.378 . S
C121 H116 0.931 . S
C121 C122 1.348 . S
C121 C123 1.413 . S
C122 H117 0.930 . S
C122 C120 1.378 . S
C122 C121 1.348 . S
C123 C119 1.415 . S
C123 C121 1.413 . S
C123 C153 1.437 . S
H124 C153 0.929 . S
N125 Gd98 2.570 . S
N125 C126 1.359 . S
N125 C129 1.343 . S
C126 C119 1.422 . S
C126 N125 1.359 . S
C126 C128 1.421 . S
C127 C128 1.422 . S
C127 C130 1.321 . S
C127 H154 0.931 . S
C128 C126 1.421 . S
C128 C127 1.422 . S
C128 C152 1.417 . S
C129 H106 0.931 . S
C129 N125 1.343 . S
C129 C130 1.390 . S
C130 H108 0.930 . S
C130 C127 1.321 . S
C130 C129 1.390 . S
O131 Gd99 2.386 . S
O131 C143 1.265 . S
O132 Gd98 2.353 . S
O132 C143 1.242 1_455 S
O133 Gd98 2.468 . S
O133 C151 1.263 . S
O134 Gd98 2.427 . S
O134 C151 1.252 . S
O135 Gd99 2.307 1_455 S
O135 C144 1.261 . S
O136 Gd98 2.388 . S
O136 C144 1.252 . S
O137 Gd98 2.386 . S
O137 C155 1.265 . S
O138 Gd99 2.353 1_455 S
O138 C155 1.242 . S
O139 Gd99 2.468 . S
O139 C163 1.263 . S
O140 Gd99 2.427 . S
O140 C163 1.252 . S
O141 Gd98 2.307 . S
O141 C156 1.261 1_455 S
O142 Gd99 2.388 . S
O142 C156 1.252 . S
C143 O131 1.265 . S
C143 O132 1.242 1_655 S
C144 O135 1.261 . S
C144 O136 1.252 . S
C145 C148 1.394 . S
C145 C150 1.370 . S
C145 C151 1.500 . S
C146 C149 1.383 . S
C146 C150 1.395 . S
C147 C148 1.396 . S
C147 C149 1.365 . S
C147 H164 0.929 . S
C148 C145 1.394 . S
C148 C147 1.396 . S
C148 H165 0.930 . S
C149 C146 1.383 . S
C149 C147 1.365 . S
C149 H166 0.931 . S
C150 C145 1.370 . S
C150 C146 1.395 . S
C150 H167 0.930 . S
C151 Gd98 2.805 . S
C151 O133 1.263 . S
C151 O134 1.252 . S
C151 C145 1.500 . S
C152 H114 0.930 . S
C152 C128 1.417 . S
C152 C153 1.329 . S
C153 C123 1.437 . S
C153 H124 0.929 . S
C153 C152 1.329 . S
H154 C127 0.931 . S
C155 O137 1.265 . S
C155 O138 1.242 . S
C156 O141 1.261 1_655 S
C156 O142 1.252 . S
C157 C160 1.394 . S
C157 C162 1.370 . S
C157 C163 1.500 . S
C158 C161 1.383 . S
C158 C162 1.395 . S
C159 C160 1.396 . S
C159 C161 1.365 . S
C159 H168 0.929 . S
C160 C157 1.394 . S
C160 C159 1.396 . S
C160 H169 0.930 . S
C161 C158 1.383 . S
C161 C159 1.365 . S
C161 H170 0.931 . S
C162 C157 1.370 . S
C162 C158 1.395 . S
C162 H171 0.930 . S
C163 Gd99 2.805 . S
C163 O139 1.263 . S
C163 O140 1.252 . S
C163 C157 1.500 . S
H164 C147 0.929 . S
H165 C148 0.930 . S
H166 C149 0.931 . S
H167 C150 0.930 . S
H168 C159 0.929 . S
H169 C160 0.930 . S
H170 C161 0.931 . S
H171 C162 0.930 . S
C172 C174 1.422 . S
C172 C176 1.415 . S
C172 N178 1.369 . S
C173 C174 1.421 . S
C173 C175 1.417 . S
C173 C185 1.422 . S
C174 C172 1.422 . S
C174 C173 1.421 . S
C174 N184 1.359 . S
C175 C173 1.417 . S
C175 C177 1.329 . S
C175 H194 0.930 . S
C176 C172 1.415 . S
C176 C177 1.437 . S
C176 C180 1.413 . S
C177 C175 1.329 . S
C177 C176 1.437 . S
C177 H199 0.929 . S
N178 C172 1.369 . S
N178 C179 1.338 . S
N178 Gd183 2.622 . S
C179 N178 1.338 . S
C179 C181 1.378 . S
C179 H191 0.929 . S
C180 C176 1.413 . S
C180 C181 1.348 . S
C180 H196 0.931 . S
C181 C179 1.378 . S
C181 C180 1.348 . S
C181 H197 0.930 . S
Gd182 N202 2.622 . S
Gd182 N209 2.570 . S
Gd182 O216 2.353 . S
Gd182 O217 2.468 . S
Gd182 O218 2.427 . S
Gd182 O220 2.388 . S
Gd182 O221 2.386 . S
Gd182 O225 2.307 . S
Gd182 C235 2.805 . S
Gd183 N178 2.622 . S
Gd183 N184 2.570 . S
Gd183 O215 2.386 . S
Gd183 O219 2.307 . S
Gd183 O222 2.353 . S
Gd183 O223 2.468 . S
Gd183 O224 2.427 . S
Gd183 O226 2.388 . S
Gd183 C247 2.805 . S
N184 C174 1.359 . S
N184 Gd183 2.570 . S
N184 C186 1.343 . S
C185 C173 1.422 . S
C185 C187 1.321 . S
C185 H193 0.931 . S
C186 N184 1.343 . S
C186 C187 1.390 . S
C186 H188 0.931 . S
C187 C185 1.321 . S
C187 C186 1.390 . S
C187 H189 0.930 . S
H188 C186 0.931 . S
H189 C187 0.930 . S
H190 C213 0.931 . S
H191 C179 0.929 . S
H192 C214 0.930 . S
H193 C185 0.931 . S
H194 C175 0.930 . S
H195 C204 0.929 . S
H196 C180 0.931 . S
H197 C181 0.930 . S
H198 C236 0.930 . S
H199 C177 0.929 . S
H200 C205 0.931 . S
H201 C206 0.930 . S
N202 Gd182 2.622 . S
N202 C203 1.369 . S
N202 C204 1.338 . S
C203 N202 1.369 . S
C203 C207 1.415 . S
C203 C210 1.422 . S
C204 H195 0.929 . S
C204 N202 1.338 . S
C204 C206 1.378 . S
C205 H200 0.931 . S
C205 C206 1.348 . S
C205 C207 1.413 . S
C206 H201 0.930 . S
C206 C204 1.378 . S
C206 C205 1.348 . S
C207 C203 1.415 . S
C207 C205 1.413 . S
C207 C237 1.437 . S
H208 C237 0.929 . S
N209 Gd182 2.570 . S
N209 C210 1.359 . S
N209 C213 1.343 . S
C210 C203 1.422 . S
C210 N209 1.359 . S
C210 C212 1.421 . S
C211 C212 1.422 . S
C211 C214 1.321 . S
C211 H238 0.931 . S
C212 C210 1.421 . S
C212 C211 1.422 . S
C212 C236 1.417 . S
C213 H190 0.931 . S
C213 N209 1.343 . S
C213 C214 1.390 . S
C214 H192 0.930 . S
C214 C211 1.321 . S
C214 C213 1.390 . S
O215 Gd183 2.386 . S
O215 C227 1.265 . S
O216 Gd182 2.353 . S
O216 C227 1.242 . S
O217 Gd182 2.468 . S
O217 C235 1.263 . S
O218 Gd182 2.427 . S
O218 C235 1.252 . S
O219 Gd183 2.307 . S
O219 C228 1.261 . S
O220 Gd182 2.388 . S
O220 C228 1.252 . S
O221 Gd182 2.386 . S
O221 C239 1.265 . S
O222 Gd183 2.353 . S
O222 C239 1.242 . S
O223 Gd183 2.468 . S
O223 C247 1.263 . S
O224 Gd183 2.427 . S
O224 C247 1.252 . S
O225 Gd182 2.307 . S
O225 C240 1.261 . S
O226 Gd183 2.388 . S
O226 C240 1.252 . S
C227 O215 1.265 . S
C227 O216 1.242 . S
C228 O219 1.261 . S
C228 O220 1.252 . S
C229 C232 1.394 . S
C229 C234 1.370 . S
C229 C235 1.500 . S
C230 C233 1.383 . S
C230 C234 1.395 . S
C231 C232 1.396 . S
C231 C233 1.365 . S
C231 H248 0.929 . S
C232 C229 1.394 . S
C232 C231 1.396 . S
C232 H249 0.930 . S
C233 C230 1.383 . S
C233 C231 1.365 . S
C233 H250 0.931 . S
C234 C229 1.370 . S
C234 C230 1.395 . S
C234 H251 0.930 . S
C235 Gd182 2.805 . S
C235 O217 1.263 . S
C235 O218 1.252 . S
C235 C229 1.500 . S
C236 H198 0.930 . S
C236 C212 1.417 . S
C236 C237 1.329 . S
C237 C207 1.437 . S
C237 H208 0.929 . S
C237 C236 1.329 . S
H238 C211 0.931 . S
C239 O221 1.265 . S
C239 O222 1.242 . S
C240 O225 1.261 . S
C240 O226 1.252 . S
C241 C244 1.394 . S
C241 C246 1.370 . S
C241 C247 1.500 . S
C242 C245 1.383 . S
C242 C246 1.395 . S
C243 C244 1.396 . S
C243 C245 1.365 . S
C243 H252 0.929 . S
C244 C241 1.394 . S
C244 C243 1.396 . S
C244 H253 0.930 . S
C245 C242 1.383 . S
C245 C243 1.365 . S
C245 H254 0.931 . S
C246 C241 1.370 . S
C246 C242 1.395 . S
C246 H255 0.930 . S
C247 Gd183 2.805 . S
C247 O223 1.263 . S
C247 O224 1.252 . S
C247 C241 1.500 . S
H248 C231 0.929 . S
H249 C232 0.930 . S
H250 C233 0.931 . S
H251 C234 0.930 . S
H252 C243 0.929 . S
H253 C244 0.930 . S
H254 C245 0.931 . S
H255 C246 0.930 . S
C256 C258 1.422 . S
C256 C260 1.415 . S
C256 N262 1.369 . S
C257 C258 1.421 . S
C257 C259 1.417 . S
C257 C269 1.422 . S
C258 C256 1.422 . S
C258 C257 1.421 . S
C258 N268 1.359 . S
C259 C257 1.417 . S
C259 C261 1.329 . S
C259 H278 0.930 . S
C260 C256 1.415 . S
C260 C261 1.437 . S
C260 C264 1.413 . S
C261 C259 1.329 . S
C261 C260 1.437 . S
C261 H283 0.929 . S
N262 C256 1.369 . S
N262 C263 1.338 . S
N262 Gd267 2.622 . S
C263 N262 1.338 . S
C263 C265 1.378 . S
C263 H275 0.929 . S
C264 C260 1.413 . S
C264 C265 1.348 . S
C264 H280 0.931 . S
C265 C263 1.378 . S
C265 C264 1.348 . S
C265 H281 0.930 . S
Gd266 N286 2.622 . S
Gd266 N293 2.570 . S
Gd266 O300 2.329 1_455 S
Gd266 O301 2.468 . S
Gd266 O302 2.427 . S
Gd266 O304 2.388 . S
Gd266 O305 2.386 . S
Gd266 O309 2.316 . S
Gd266 C319 2.805 . S
Gd267 N262 2.622 . S
Gd267 N268 2.570 . S
Gd267 O299 2.386 . S
Gd267 O303 2.303 1_655 S
Gd267 O306 2.353 1_655 S
Gd267 O307 2.468 . S
Gd267 O308 2.427 . S
Gd267 O310 2.388 . S
Gd267 C331 2.805 . S
N268 C258 1.359 . S
N268 Gd267 2.570 . S
N268 C270 1.343 . S
C269 C257 1.422 . S
C269 C271 1.321 . S
C269 H277 0.931 . S
C270 N268 1.343 . S
C270 C271 1.390 . S
C270 H272 0.931 . S
C271 C269 1.321 . S
C271 C270 1.390 . S
C271 H273 0.930 . S
H272 C270 0.931 . S
H273 C271 0.930 . S
H274 C297 0.931 . S
H275 C263 0.929 . S
H276 C298 0.930 . S
H277 C269 0.931 . S
H278 C259 0.930 . S
H279 C288 0.929 . S
H280 C264 0.931 . S
H281 C265 0.930 . S
H282 C320 0.930 . S
H283 C261 0.929 . S
H284 C289 0.931 . S
H285 C290 0.930 . S
N286 Gd266 2.622 . S
N286 C287 1.369 . S
N286 C288 1.338 . S
C287 N286 1.369 . S
C287 C291 1.415 . S
C287 C294 1.422 . S
C288 H279 0.929 . S
C288 N286 1.338 . S
C288 C290 1.378 . S
C289 H284 0.931 . S
C289 C290 1.348 . S
C289 C291 1.413 . S
C290 H285 0.930 . S
C290 C288 1.378 . S
C290 C289 1.348 . S
C291 C287 1.415 . S
C291 C289 1.413 . S
C291 C321 1.437 . S
H292 C321 0.929 . S
N293 Gd266 2.570 . S
N293 C294 1.359 . S
N293 C297 1.343 . S
C294 C287 1.422 . S
C294 N293 1.359 . S
C294 C296 1.421 . S
C295 C296 1.422 . S
C295 C298 1.321 . S
C295 H322 0.931 . S
C296 C294 1.421 . S
C296 C295 1.422 . S
C296 C320 1.417 . S
C297 H274 0.931 . S
C297 N293 1.343 . S
C297 C298 1.390 . S
C298 H276 0.930 . S
C298 C295 1.321 . S
C298 C297 1.390 . S
O299 Gd267 2.386 . S
O299 C311 1.265 . S
O300 Gd266 2.329 1_655 S
O300 C311 1.272 . S
O301 Gd266 2.468 . S
O301 C319 1.263 . S
O302 Gd266 2.427 . S
O302 C319 1.252 . S
O303 Gd267 2.303 1_455 S
O303 C312 1.266 . S
O304 Gd266 2.388 . S
O304 C312 1.252 . S
O305 Gd266 2.386 . S
O305 C323 1.265 . S
O306 Gd267 2.353 1_455 S
O306 C323 1.242 . S
O307 Gd267 2.468 . S
O307 C331 1.263 . S
O308 Gd267 2.427 . S
O308 C331 1.252 . S
O309 Gd266 2.316 . S
O309 C324 1.250 1_455 S
O310 Gd267 2.388 . S
O310 C324 1.252 . S
C311 O299 1.265 . S
C311 O300 1.272 . S
C312 O303 1.266 . S
C312 O304 1.252 . S
C313 C316 1.394 . S
C313 C318 1.370 . S
C313 C319 1.500 . S
C314 C317 1.383 . S
C314 C318 1.395 . S
C315 C316 1.396 . S
C315 C317 1.365 . S
C315 H332 0.929 . S
C316 C313 1.394 . S
C316 C315 1.396 . S
C316 H333 0.930 . S
C317 C314 1.383 . S
C317 C315 1.365 . S
C317 H334 0.931 . S
C318 C313 1.370 . S
C318 C314 1.395 . S
C318 H335 0.930 . S
C319 Gd266 2.805 . S
C319 O301 1.263 . S
C319 O302 1.252 . S
C319 C313 1.500 . S
C320 H282 0.930 . S
C320 C296 1.417 . S
C320 C321 1.329 . S
C321 C291 1.437 . S
C321 H292 0.929 . S
C321 C320 1.329 . S
H322 C295 0.931 . S
C323 O305 1.265 . S
C323 O306 1.242 . S
C324 O309 1.250 1_655 S
C324 O310 1.252 . S
C325 C328 1.394 . S
C325 C330 1.370 . S
C325 C331 1.500 . S
C326 C329 1.383 . S
C326 C330 1.395 . S
C327 C328 1.396 . S
C327 C329 1.365 . S
C327 H336 0.929 . S
C328 C325 1.394 . S
C328 C327 1.396 . S
C328 H337 0.930 . S
C329 C326 1.383 . S
C329 C327 1.365 . S
C329 H338 0.931 . S
C330 C325 1.370 . S
C330 C326 1.395 . S
C330 H339 0.930 . S
C331 Gd267 2.805 . S
C331 O307 1.263 . S
C331 O308 1.252 . S
C331 C325 1.500 . S
H332 C315 0.929 . S
H333 C316 0.930 . S
H334 C317 0.931 . S
H335 C318 0.930 . S
H336 C327 0.929 . S
H337 C328 0.930 . S
H338 C329 0.931 . S
H339 C330 0.930 . S
C340 C342 1.422 . S
C340 C344 1.415 . S
C340 N346 1.369 . S
C341 C342 1.421 . S
C341 C343 1.417 . S
C341 C353 1.422 . S
C342 C340 1.422 . S
C342 C341 1.421 . S
C342 N352 1.359 . S
C343 C341 1.417 . S
C343 C345 1.329 . S
C343 H362 0.930 . S
C344 C340 1.415 . S
C344 C345 1.437 . S
C344 C348 1.413 . S
C345 C343 1.329 . S
C345 C344 1.437 . S
C345 H367 0.929 . S
N346 C340 1.369 . S
N346 C347 1.338 . S
N346 Gd351 2.622 . S
C347 N346 1.338 . S
C347 C349 1.378 . S
C347 H359 0.929 . S
C348 C344 1.413 . S
C348 C349 1.348 . S
C348 H364 0.931 . S
C349 C347 1.378 . S
C349 C348 1.348 . S
C349 H365 0.930 . S
Gd350 N370 2.622 . S
Gd350 N377 2.570 . S
Gd350 O384 2.353 . S
Gd350 O385 2.468 . S
Gd350 O386 2.427 . S
Gd350 O388 2.388 . S
Gd350 O389 2.386 . S
Gd350 O393 2.307 . S
Gd350 C403 2.805 . S
Gd351 N346 2.622 . S
Gd351 N352 2.570 . S
Gd351 O383 2.386 . S
Gd351 O387 2.307 . S
Gd351 O390 2.353 . S
Gd351 O391 2.468 . S
Gd351 O392 2.427 . S
Gd351 O394 2.388 . S
Gd351 C415 2.805 . S
N352 C342 1.359 . S
N352 Gd351 2.570 . S
N352 C354 1.343 . S
C353 C341 1.422 . S
C353 C355 1.321 . S
C353 H361 0.931 . S
C354 N352 1.343 . S
C354 C355 1.390 . S
C354 H356 0.931 . S
C355 C353 1.321 . S
C355 C354 1.390 . S
C355 H357 0.930 . S
H356 C354 0.931 . S
H357 C355 0.930 . S
H358 C381 0.931 . S
H359 C347 0.929 . S
H360 C382 0.930 . S
H361 C353 0.931 . S
H362 C343 0.930 . S
H363 C372 0.929 . S
H364 C348 0.931 . S
H365 C349 0.930 . S
H366 C404 0.930 . S
H367 C345 0.929 . S
H368 C373 0.931 . S
H369 C374 0.930 . S
N370 Gd350 2.622 . S
N370 C371 1.369 . S
N370 C372 1.338 . S
C371 N370 1.369 . S
C371 C375 1.415 . S
C371 C378 1.422 . S
C372 H363 0.929 . S
C372 N370 1.338 . S
C372 C374 1.378 . S
C373 H368 0.931 . S
C373 C374 1.348 . S
C373 C375 1.413 . S
C374 H369 0.930 . S
C374 C372 1.378 . S
C374 C373 1.348 . S
C375 C371 1.415 . S
C375 C373 1.413 . S
C375 C405 1.437 . S
H376 C405 0.929 . S
N377 Gd350 2.570 . S
N377 C378 1.359 . S
N377 C381 1.343 . S
C378 C371 1.422 . S
C378 N377 1.359 . S
C378 C380 1.421 . S
C379 C380 1.422 . S
C379 C382 1.321 . S
C379 H406 0.931 . S
C380 C378 1.421 . S
C380 C379 1.422 . S
C380 C404 1.417 . S
C381 H358 0.931 . S
C381 N377 1.343 . S
C381 C382 1.390 . S
C382 H360 0.930 . S
C382 C379 1.321 . S
C382 C381 1.390 . S
O383 Gd351 2.386 . S
O383 C395 1.265 . S
O384 Gd350 2.353 . S
O384 C395 1.242 . S
O385 Gd350 2.468 . S
O385 C403 1.263 . S
O386 Gd350 2.427 . S
O386 C403 1.252 . S
O387 Gd351 2.307 . S
O387 C396 1.261 . S
O388 Gd350 2.388 . S
O388 C396 1.252 . S
O389 Gd350 2.386 . S
O389 C407 1.265 . S
O390 Gd351 2.353 . S
O390 C407 1.242 . S
O391 Gd351 2.468 . S
O391 C415 1.263 . S
O392 Gd351 2.427 . S
O392 C415 1.252 . S
O393 Gd350 2.307 . S
O393 C408 1.261 . S
O394 Gd351 2.388 . S
O394 C408 1.252 . S
C395 O383 1.265 . S
C395 O384 1.242 . S
C396 O387 1.261 . S
C396 O388 1.252 . S
C397 C400 1.394 . S
C397 C402 1.370 . S
C397 C403 1.500 . S
C398 C401 1.383 . S
C398 C402 1.395 . S
C399 C400 1.396 . S
C399 C401 1.365 . S
C399 H416 0.929 . S
C400 C397 1.394 . S
C400 C399 1.396 . S
C400 H417 0.930 . S
C401 C398 1.383 . S
C401 C399 1.365 . S
C401 H418 0.931 . S
C402 C397 1.370 . S
C402 C398 1.395 . S
C402 H419 0.930 . S
C403 Gd350 2.805 . S
C403 O385 1.263 . S
C403 O386 1.252 . S
C403 C397 1.500 . S
C404 H366 0.930 . S
C404 C380 1.417 . S
C404 C405 1.329 . S
C405 C375 1.437 . S
C405 H376 0.929 . S
C405 C404 1.329 . S
H406 C379 0.931 . S
C407 O389 1.265 . S
C407 O390 1.242 . S
C408 O393 1.261 . S
C408 O394 1.252 . S
C409 C412 1.394 . S
C409 C414 1.370 . S
C409 C415 1.500 . S
C410 C413 1.383 . S
C410 C414 1.395 . S
C411 C412 1.396 . S
C411 C413 1.365 . S
C411 H420 0.929 . S
C412 C409 1.394 . S
C412 C411 1.396 . S
C412 H421 0.930 . S
C413 C410 1.383 . S
C413 C411 1.365 . S
C413 H422 0.931 . S
C414 C409 1.370 . S
C414 C410 1.395 . S
C414 H423 0.930 . S
C415 Gd351 2.805 . S
C415 O391 1.263 . S
C415 O392 1.252 . S
C415 C409 1.500 . S
H416 C399 0.929 . S
H417 C400 0.930 . S
H418 C401 0.931 . S
H419 C402 0.930 . S
H420 C411 0.929 . S
H421 C412 0.930 . S
H422 C413 0.931 . S
H423 C414 0.930 . S
C424 C425 1.349 . S
C424 C426 1.327 . S
C424 H449 0.950 . S
C425 C424 1.349 . S
C425 C441 1.349 . S
C426 C424 1.327 . S
C426 C445 1.429 . S
C426 H450 0.950 . S
C427 C444 1.574 . S
C427 C446 1.368 . S
C427 H451 0.949 . S
H428 C432 0.949 . S
C429 C430 1.349 . S
C429 C431 1.327 . S
C429 H452 0.950 . S
C430 C429 1.349 . S
C430 C442 1.349 . S
C431 C429 1.327 . S
C431 C447 1.429 . S
C431 H453 0.950 . S
C432 H428 0.949 . S
C432 C440 1.574 . S
C432 C448 1.368 . S
H433 C441 0.950 . S
H434 C439 0.950 . S
H435 C440 0.949 . S
H436 C442 0.950 . S
H437 C443 0.950 . S
H438 C444 0.949 1_545 S
C439 H434 0.950 . S
C439 C441 1.327 . S
C439 C445 1.429 . S
C440 C432 1.574 . S
C440 H435 0.949 . S
C440 C446 1.368 . S
C441 C425 1.349 . S
C441 H433 0.950 . S
C441 C439 1.327 . S
C442 C430 1.349 . S
C442 H436 0.950 . S
C442 C443 1.327 . S
C443 H437 0.950 . S
C443 C442 1.327 . S
C443 C447 1.429 . S
C444 C427 1.574 . S
C444 H438 0.949 1_565 S
C444 C448 1.368 . S
C445 C426 1.429 . S
C445 C439 1.429 . S
C445 C446 1.523 . S
C446 C427 1.368 . S
C446 C440 1.368 . S
C446 C445 1.523 . S
C447 C431 1.429 . S
C447 C443 1.429 . S
C447 C448 1.523 1_545 S
C448 C432 1.368 . S
C448 C444 1.368 . S
C448 C447 1.523 1_565 S
H449 C424 0.950 . S
H450 C426 0.950 . S
H451 C427 0.949 . S
H452 C429 0.950 . S
H453 C431 0.950 . S
C454 C455 1.349 . S
C454 C456 1.327 . S
C454 H479 0.950 . S
C455 C454 1.349 . S
C455 C471 1.349 . S
C456 C454 1.327 . S
C456 C475 1.429 . S
C456 H480 0.950 . S
C457 C474 1.574 . S
C457 C476 1.368 . S
C457 H481 0.949 . S
H458 C462 0.949 . S
C459 C460 1.349 . S
C459 C461 1.327 . S
C459 H482 0.950 . S
C460 C459 1.349 . S
C460 C472 1.349 . S
C461 C459 1.327 . S
C461 C477 1.429 . S
C461 H483 0.950 . S
C462 H458 0.949 . S
C462 C470 1.574 . S
C462 C478 1.368 . S
H463 C471 0.950 . S
H464 C469 0.950 . S
H465 C470 0.949 . S
H466 C472 0.950 . S
H467 C473 0.950 . S
H468 C474 0.949 . S
C469 H464 0.950 . S
C469 C471 1.327 . S
C469 C475 1.429 . S
C470 C462 1.574 . S
C470 H465 0.949 . S
C470 C476 1.368 . S
C471 C455 1.349 . S
C471 H463 0.950 . S
C471 C469 1.327 . S
C472 C460 1.349 . S
C472 H466 0.950 . S
C472 C473 1.327 . S
C473 H467 0.950 . S
C473 C472 1.327 . S
C473 C477 1.429 . S
C474 C457 1.574 . S
C474 H468 0.949 . S
C474 C478 1.368 . S
C475 C456 1.429 . S
C475 C469 1.429 . S
C475 C476 1.523 . S
C476 C457 1.368 . S
C476 C470 1.368 . S
C476 C475 1.523 . S
C477 C461 1.429 . S
C477 C473 1.429 . S
C477 C478 1.523 . S
C478 C462 1.368 . S
C478 C474 1.368 . S
C478 C477 1.523 . S
H479 C454 0.950 . S
H480 C456 0.950 . S
H481 C457 0.949 . S
H482 C459 0.950 . S
H483 C461 0.950 . S
C484 C485 1.349 . S
C484 C486 1.327 . S
C484 H509 0.950 . S
C485 C484 1.349 . S
C485 C501 1.349 . S
C486 C484 1.327 . S
C486 C505 1.429 . S
C486 H510 0.950 . S
C487 C504 1.574 . S
C487 C506 1.368 . S
C487 H511 0.949 . S
H488 C492 0.949 . S
C489 C490 1.349 . S
C489 C491 1.327 . S
C489 H512 0.950 . S
C490 C489 1.349 . S
C490 C502 1.349 . S
C491 C489 1.327 . S
C491 C507 1.429 . S
C491 H513 0.950 . S
C492 H488 0.949 . S
C492 C500 1.574 . S
C492 C508 1.368 . S
H493 C501 0.950 . S
H494 C499 0.950 . S
H495 C500 0.949 . S
H496 C502 0.950 . S
H497 C503 0.950 . S
H498 C504 0.949 . S
C499 H494 0.950 . S
C499 C501 1.327 . S
C499 C505 1.429 . S
C500 C492 1.574 . S
C500 H495 0.949 . S
C500 C506 1.368 . S
C501 C485 1.349 . S
C501 H493 0.950 . S
C501 C499 1.327 . S
C502 C490 1.349 . S
C502 H496 0.950 . S
C502 C503 1.327 . S
C503 H497 0.950 . S
C503 C502 1.327 . S
C503 C507 1.429 . S
C504 C487 1.574 . S
C504 H498 0.949 . S
C504 C508 1.368 . S
C505 C486 1.429 . S
C505 C499 1.429 . S
C505 C506 1.523 . S
C506 C487 1.368 . S
C506 C500 1.368 . S
C506 C505 1.523 . S
C507 C491 1.429 . S
C507 C503 1.429 . S
C507 C508 1.523 . S
C508 C492 1.368 . S
C508 C504 1.368 . S
C508 C507 1.523 . S
H509 C484 0.950 . S
H510 C486 0.950 . S
H511 C487 0.949 . S
H512 C489 0.950 . S
H513 C491 0.950 . S
C514 C515 1.349 . S
C514 C516 1.327 . S
C514 H539 0.950 . S
C515 C514 1.349 . S
C515 C531 1.349 . S
C516 C514 1.327 . S
C516 C535 1.429 . S
C516 H540 0.950 . S
C517 C534 1.574 . S
C517 C536 1.368 . S
C517 H541 0.949 . S
H518 C522 0.949 . S
C519 C520 1.349 . S
C519 C521 1.327 . S
C519 H542 0.950 . S
C520 C519 1.349 . S
C520 C532 1.349 . S
C521 C519 1.327 . S
C521 C537 1.429 . S
C521 H543 0.950 1_545 S
C522 H518 0.949 . S
C522 C530 1.574 1_545 S
C522 C538 1.368 . S
H523 C531 0.950 . S
H524 C529 0.950 . S
H525 C530 0.949 . S
H526 C532 0.950 . S
H527 C533 0.950 . S
H528 C534 0.949 . S
C529 H524 0.950 . S
C529 C531 1.327 . S
C529 C535 1.429 . S
C530 C522 1.574 1_565 S
C530 H525 0.949 . S
C530 C536 1.368 . S
C531 C515 1.349 . S
C531 H523 0.950 . S
C531 C529 1.327 . S
C532 C520 1.349 . S
C532 H526 0.950 . S
C532 C533 1.327 . S
C533 H527 0.950 . S
C533 C532 1.327 . S
C533 C537 1.429 . S
C534 C517 1.574 . S
C534 H528 0.949 . S
C534 C538 1.368 1_565 S
C535 C516 1.429 . S
C535 C529 1.429 . S
C535 C536 1.523 . S
C536 C517 1.368 . S
C536 C530 1.368 . S
C536 C535 1.523 . S
C537 C521 1.429 . S
C537 C533 1.429 . S
C537 C538 1.523 . S
C538 C522 1.368 . S
C538 C534 1.368 1_545 S
C538 C537 1.523 . S
H539 C514 0.950 . S
H540 C516 0.950 . S
H541 C517 0.949 . S
H542 C519 0.950 . S
H543 C521 0.950 1_565 S
C544 C545 1.349 . S
C544 C546 1.327 . S
C544 H569 0.950 . S
C545 C544 1.349 . S
C545 C561 1.349 . S
C546 C544 1.327 . S
C546 C565 1.429 . S
C546 H570 0.950 . S
C547 C564 1.574 . S
C547 C566 1.368 . S
C547 H571 0.949 . S
H548 C552 0.949 1_565 S
C549 C550 1.349 . S
C549 C551 1.327 . S
C549 H572 0.950 . S
C550 C549 1.349 . S
C550 C562 1.349 . S
C551 C549 1.327 . S
C551 C567 1.429 . S
C551 H573 0.950 . S
C552 H548 0.949 1_545 S
C552 C560 1.574 . S
C552 C568 1.369 . S
H553 C561 0.950 . S
H554 C559 0.950 . S
H555 C560 0.949 . S
H556 C562 0.950 . S
H557 C563 0.950 . S
H558 C564 0.949 . S
C559 H554 0.950 . S
C559 C561 1.327 . S
C559 C565 1.429 . S
C560 C552 1.574 . S
C560 H555 0.949 . S
C560 C566 1.368 . S
C561 C545 1.349 . S
C561 H553 0.950 . S
C561 C559 1.327 . S
C562 C550 1.349 . S
C562 H556 0.950 . S
C562 C563 1.327 . S
C563 H557 0.950 . S
C563 C562 1.327 . S
C563 C567 1.429 . S
C564 C547 1.574 . S
C564 H558 0.949 . S
C564 C568 1.393 . S
C565 C546 1.429 . S
C565 C559 1.429 . S
C565 C566 1.523 . S
C566 C547 1.368 . S
C566 C560 1.368 . S
C566 C565 1.523 . S
C567 C551 1.429 . S
C567 C563 1.429 . S
C567 C568 1.492 1_565 S
C568 C552 1.369 . S
C568 C564 1.393 . S
C568 C567 1.492 1_545 S
H569 C544 0.950 . S
H570 C546 0.950 . S
H571 C547 0.949 . S
H572 C549 0.950 . S
H573 C551 0.950 . S
C574 C575 1.349 . S
C574 C576 1.327 . S
C574 H599 0.950 . S
C575 C574 1.349 . S
C575 C591 1.349 . S
C576 C574 1.327 . S
C576 C595 1.429 . S
C576 H600 0.950 . S
C577 C594 1.574 . S
C577 C596 1.368 . S
C577 H601 0.949 . S
H578 C582 0.949 . S
C579 C580 1.349 . S
C579 C581 1.327 . S
C579 H602 0.950 . S
C580 C579 1.349 . S
C580 C592 1.349 . S
C581 C579 1.327 . S
C581 C597 1.429 . S
C581 H603 0.950 . S
C582 H578 0.949 . S
C582 C590 1.574 . S
C582 C598 1.368 . S
H583 C591 0.950 . S
H584 C589 0.950 . S
H585 C590 0.949 . S
H586 C592 0.950 . S
H587 C593 0.950 . S
H588 C594 0.949 . S
C589 H584 0.950 . S
C589 C591 1.327 . S
C589 C595 1.429 . S
C590 C582 1.574 . S
C590 H585 0.949 . S
C590 C596 1.368 . S
C591 C575 1.349 . S
C591 H583 0.950 . S
C591 C589 1.327 . S
C592 C580 1.349 . S
C592 H586 0.950 . S
C592 C593 1.327 . S
C593 H587 0.950 . S
C593 C592 1.327 . S
C593 C597 1.429 . S
C594 C577 1.574 . S
C594 H588 0.949 . S
C594 C598 1.368 . S
C595 C576 1.429 . S
C595 C589 1.429 . S
C595 C596 1.523 . S
C596 C577 1.368 . S
C596 C590 1.368 . S
C596 C595 1.523 . S
C597 C581 1.429 . S
C597 C593 1.429 . S
C597 C598 1.523 . S
C598 C582 1.368 . S
C598 C594 1.368 . S
C598 C597 1.523 . S
H599 C574 0.950 . S
H600 C576 0.950 . S
H601 C577 0.949 . S
H602 C579 0.950 . S
H603 C581 0.950 . S
C604 C605 1.349 . S
C604 C606 1.327 . S
C604 H629 0.950 . S
C605 C604 1.349 . S
C605 C621 1.349 . S
C606 C604 1.327 . S
C606 C625 1.429 . S
C606 H630 0.950 . S
C607 C624 1.574 . S
C607 C626 1.368 . S
C607 H631 0.949 . S
H608 C612 0.949 . S
C609 C610 1.349 . S
C609 C611 1.327 . S
C609 H632 0.950 . S
C610 C609 1.349 . S
C610 C622 1.349 . S
C611 C609 1.327 . S
C611 C627 1.429 . S
C611 H633 0.950 . S
C612 H608 0.949 . S
C612 C620 1.574 . S
C612 C628 1.368 . S
H613 C621 0.950 . S
H614 C619 0.950 . S
H615 C620 0.949 . S
H616 C622 0.950 . S
H617 C623 0.950 . S
H618 C624 0.949 . S
C619 H614 0.950 . S
C619 C621 1.327 . S
C619 C625 1.429 . S
C620 C612 1.574 . S
C620 H615 0.949 . S
C620 C626 1.368 . S
C621 C605 1.349 . S
C621 H613 0.950 . S
C621 C619 1.327 . S
C622 C610 1.349 . S
C622 H616 0.950 . S
C622 C623 1.327 . S
C623 H617 0.950 . S
C623 C622 1.327 . S
C623 C627 1.429 . S
C624 C607 1.574 . S
C624 H618 0.949 . S
C624 C628 1.368 . S
C625 C606 1.429 . S
C625 C619 1.429 . S
C625 C626 1.523 . S
C626 C607 1.368 . S
C626 C620 1.368 . S
C626 C625 1.523 . S
C627 C611 1.429 . S
C627 C623 1.429 . S
C627 C628 1.523 . S
C628 C612 1.368 . S
C628 C624 1.368 . S
C628 C627 1.523 . S
H629 C604 0.950 . S
H630 C606 0.950 . S
H631 C607 0.949 . S
H632 C609 0.950 . S
H633 C611 0.950 . S
C634 C635 1.349 . S
C634 C636 1.327 . S
C634 H659 0.950 . S
C635 C634 1.349 . S
C635 C651 1.349 . S
C636 C634 1.327 . S
C636 C655 1.429 . S
C636 H660 0.950 . S
C637 C654 1.574 . S
C637 C656 1.368 . S
C637 H661 0.949 . S
H638 C642 0.949 . S
C639 C640 1.349 . S
C639 C641 1.327 . S
C639 H662 0.950 . S
C640 C639 1.349 . S
C640 C652 1.349 . S
C641 C639 1.327 . S
C641 C657 1.429 . S
C641 H663 0.950 . S
C642 H638 0.949 . S
C642 C650 1.574 . S
C642 C658 1.368 . S
H643 C651 0.950 . S
H644 C649 0.950 . S
H645 C650 0.949 . S
H646 C652 0.950 . S
H647 C653 0.950 . S
H648 C654 0.949 . S
C649 H644 0.950 . S
C649 C651 1.327 . S
C649 C655 1.429 . S
C650 C642 1.574 . S
C650 H645 0.949 . S
C650 C656 1.368 1_565 S
C651 C635 1.349 . S
C651 H643 0.950 . S
C651 C649 1.327 . S
C652 C640 1.349 . S
C652 H646 0.950 . S
C652 C653 1.327 . S
C653 H647 0.950 . S
C653 C652 1.327 . S
C653 C657 1.429 . S
C654 C637 1.574 . S
C654 H648 0.949 . S
C654 C658 1.368 1_545 S
C655 C636 1.429 . S
C655 C649 1.429 . S
C655 C656 1.523 . S
C656 C637 1.368 . S
C656 C650 1.368 1_545 S
C656 C655 1.523 . S
C657 C641 1.429 . S
C657 C653 1.429 . S
C657 C658 1.523 . S
C658 C642 1.368 . S
C658 C654 1.368 1_565 S
C658 C657 1.523 . S
H659 C634 0.950 . S
H660 C636 0.950 . S
H661 C637 0.949 . S
H662 C639 0.950 . S
H663 C641 0.950 . S
C664 C665 1.349 . S
C664 C666 1.327 . S
C664 H689 0.950 . S
C665 C664 1.349 . S
C665 C681 1.349 . S
C666 C664 1.327 . S
C666 C685 1.422 1_556 S
C666 H690 0.950 1_556 S
C667 C684 1.574 . S
C667 C686 1.368 . S
C667 H691 0.949 . S
H668 C672 0.949 . S
C669 C670 1.349 . S
C669 C671 1.327 . S
C669 H692 0.950 . S
C670 C669 1.349 . S
C670 C682 1.349 . S
C671 C669 1.327 . S
C671 C687 1.429 . S
C671 H693 0.950 . S
C672 H668 0.949 . S
C672 C680 1.574 . S
C672 C688 1.368 . S
H673 C681 0.950 . S
H674 C679 0.950 . S
H675 C680 0.949 . S
H676 C682 0.950 . S
H677 C683 0.950 . S
H678 C684 0.949 . S
C679 H674 0.950 . S
C679 C681 1.327 . S
C679 C685 1.415 1_556 S
C680 C672 1.574 . S
C680 H675 0.949 . S
C680 C686 1.368 . S
C681 C665 1.349 . S
C681 H673 0.950 . S
C681 C679 1.327 . S
C682 C670 1.349 . S
C682 H676 0.950 . S
C682 C683 1.327 . S
C683 H677 0.950 . S
C683 C682 1.327 . S
C683 C687 1.429 . S
C684 C667 1.574 . S
C684 H678 0.949 . S
C684 C688 1.368 . S
C685 C666 1.422 1_554 S
C685 C679 1.415 1_554 S
C685 C686 1.542 . S
C686 C667 1.368 . S
C686 C680 1.368 . S
C686 C685 1.542 . S
C687 C671 1.429 . S
C687 C683 1.429 . S
C687 C688 1.523 . S
C688 C672 1.368 . S
C688 C684 1.368 . S
C688 C687 1.523 . S
H689 C664 0.950 . S
H690 C666 0.950 1_554 S
H691 C667 0.949 . S
H692 C669 0.950 . S
H693 C671 0.950 . S
C694 C695 1.349 . S
C694 C696 1.327 . S
C694 H719 0.950 . S
C695 C694 1.349 . S
C695 C711 1.349 . S
C696 C694 1.327 . S
C696 C715 1.429 . S
C696 H720 0.950 . S
C697 C714 1.574 . S
C697 C716 1.368 . S
C697 H721 0.949 . S
H698 C702 0.949 . S
C699 C700 1.349 . S
C699 C701 1.327 . S
C699 H722 0.950 . S
C700 C699 1.349 . S
C700 C712 1.349 . S
C701 C699 1.327 . S
C701 C717 1.429 . S
C701 H723 0.950 . S
C702 H698 0.949 . S
C702 C710 1.574 . S
C702 C718 1.368 . S
H703 C711 0.950 . S
H704 C709 0.950 . S
H705 C710 0.949 . S
H706 C712 0.950 . S
H707 C713 0.950 . S
H708 C714 0.949 . S
C709 H704 0.950 . S
C709 C711 1.327 . S
C709 C715 1.429 . S
C710 C702 1.574 . S
C710 H705 0.949 . S
C710 C716 1.368 . S
C711 C695 1.349 . S
C711 H703 0.950 . S
C711 C709 1.327 . S
C712 C700 1.349 . S
C712 H706 0.950 . S
C712 C713 1.327 . S
C713 H707 0.950 . S
C713 C712 1.327 . S
C713 C717 1.429 . S
C714 C697 1.574 . S
C714 H708 0.949 . S
C714 C718 1.368 . S
C715 C696 1.429 . S
C715 C709 1.429 . S
C715 C716 1.523 . S
C716 C697 1.368 . S
C716 C710 1.368 . S
C716 C715 1.523 . S
C717 C701 1.429 . S
C717 C713 1.429 . S
C717 C718 1.523 . S
C718 C702 1.368 . S
C718 C714 1.368 . S
C718 C717 1.523 . S
H719 C694 0.950 . S
H720 C696 0.950 . S
H721 C697 0.949 . S
H722 C699 0.950 . S
H723 C701 0.950 . S
C724 C725 1.349 . S
C724 C726 1.327 . S
C724 H749 0.950 . S
C725 C724 1.349 . S
C725 C741 1.349 . S
C726 C724 1.327 . S
C726 C745 1.429 . S
C726 H750 0.950 . S
C727 C744 1.574 . S
C727 C746 1.368 . S
C727 H751 0.949 . S
H728 C732 0.949 . S
C729 C730 1.349 . S
C729 C731 1.327 . S
C729 H752 0.950 . S
C730 C729 1.349 . S
C730 C742 1.349 . S
C731 C729 1.327 . S
C731 C747 1.429 . S
C731 H753 0.950 . S
C732 H728 0.949 . S
C732 C740 1.574 . S
C732 C748 1.368 . S
H733 C741 0.950 . S
H734 C739 0.950 . S
H735 C740 0.949 . S
H736 C742 0.950 . S
H737 C743 0.950 . S
H738 C744 0.949 . S
C739 H734 0.950 . S
C739 C741 1.327 . S
C739 C745 1.429 . S
C740 C732 1.574 . S
C740 H735 0.949 . S
C740 C746 1.368 . S
C741 C725 1.349 . S
C741 H733 0.950 . S
C741 C739 1.327 . S
C742 C730 1.349 . S
C742 H736 0.950 . S
C742 C743 1.327 . S
C743 H737 0.950 . S
C743 C742 1.327 . S
C743 C747 1.429 . S
C744 C727 1.574 . S
C744 H738 0.949 . S
C744 C748 1.368 . S
C745 C726 1.429 . S
C745 C739 1.429 . S
C745 C746 1.523 1_554 S
C746 C727 1.368 . S
C746 C740 1.368 . S
C746 C745 1.523 1_556 S
C747 C731 1.429 . S
C747 C743 1.429 . S
C747 C748 1.523 . S
C748 C732 1.368 . S
C748 C744 1.368 . S
C748 C747 1.523 . S
H749 C724 0.950 . S
H750 C726 0.950 . S
H751 C727 0.949 . S
H752 C729 0.950 . S
H753 C731 0.950 . S
C754 C755 1.349 . S
C754 C756 1.327 . S
C754 H779 0.950 . S
C755 C754 1.349 . S
C755 C771 1.349 . S
C756 C754 1.327 . S
C756 C775 1.429 . S
C756 H780 0.950 . S
C757 C774 1.574 . S
C757 C776 1.368 . S
C757 H781 0.949 . S
H758 C762 0.949 . S
C759 C760 1.349 . S
C759 C761 1.327 . S
C759 H782 0.950 . S
C760 C759 1.349 . S
C760 C772 1.349 . S
C761 C759 1.327 . S
C761 C777 1.429 . S
C761 H783 0.950 . S
C762 H758 0.949 . S
C762 C770 1.574 . S
C762 C778 1.368 . S
H763 C771 0.950 . S
H764 C769 0.950 . S
H765 C770 0.949 . S
H766 C772 0.950 . S
H767 C773 0.950 . S
H768 C774 0.949 . S
C769 H764 0.950 . S
C769 C771 1.327 . S
C769 C775 1.429 . S
C770 C762 1.574 . S
C770 H765 0.949 . S
C770 C776 1.368 . S
C771 C755 1.349 . S
C771 H763 0.950 . S
C771 C769 1.327 . S
C772 C760 1.349 . S
C772 H766 0.950 . S
C772 C773 1.327 . S
C773 H767 0.950 . S
C773 C772 1.327 . S
C773 C777 1.429 . S
C774 C757 1.574 . S
C774 H768 0.949 . S
C774 C778 1.368 . S
C775 C756 1.429 . S
C775 C769 1.429 . S
C775 C776 1.523 . S
C776 C757 1.368 . S
C776 C770 1.368 . S
C776 C775 1.523 . S
C777 C761 1.429 . S
C777 C773 1.429 . S
C777 C778 1.523 . S
C778 C762 1.368 . S
C778 C774 1.368 . S
C778 C777 1.523 . S
H779 C754 0.950 . S
H780 C756 0.950 . S
H781 C757 0.949 . S
H782 C759 0.950 . S
H783 C761 0.950 . S
C784 C785 1.349 . S
C784 C786 1.327 . S
C784 H809 0.950 . S
C785 C784 1.349 . S
C785 C801 1.349 . S
C786 C784 1.327 . S
C786 C805 1.429 1_554 S
C786 H810 0.950 . S
C787 C804 1.574 . S
C787 C806 1.368 . S
C787 H811 0.949 . S
H788 C792 0.949 . S
C789 C790 1.349 . S
C789 C791 1.327 . S
C789 H812 0.950 . S
C790 C789 1.349 . S
C790 C802 1.349 . S
C791 C789 1.327 . S
C791 C807 1.429 . S
C791 H813 0.950 . S
C792 H788 0.949 . S
C792 C800 1.574 . S
C792 C808 1.368 . S
H793 C801 0.950 . S
H794 C799 0.950 . S
H795 C800 0.949 . S
H796 C802 0.950 . S
H797 C803 0.950 . S
H798 C804 0.949 . S
C799 H794 0.950 . S
C799 C801 1.327 1_556 S
C799 C805 1.429 . S
C800 C792 1.574 . S
C800 H795 0.949 . S
C800 C806 1.368 . S
C801 C785 1.349 . S
C801 H793 0.950 . S
C801 C799 1.327 1_554 S
C802 C790 1.349 . S
C802 H796 0.950 . S
C802 C803 1.327 . S
C803 H797 0.950 . S
C803 C802 1.327 . S
C803 C807 1.429 . S
C804 C787 1.574 . S
C804 H798 0.949 . S
C804 C808 1.368 . S
C805 C786 1.429 1_556 S
C805 C799 1.429 . S
C805 C806 1.523 . S
C806 C787 1.368 . S
C806 C800 1.368 . S
C806 C805 1.523 . S
C807 C791 1.429 . S
C807 C803 1.429 . S
C807 C808 1.523 . S
C808 C792 1.368 . S
C808 C804 1.368 . S
C808 C807 1.523 . S
H809 C784 0.950 . S
H810 C786 0.950 . S
H811 C787 0.949 . S
H812 C789 0.950 . S
H813 C791 0.950 . S
C814 C815 1.349 . S
C814 C816 1.327 . S
C814 H839 0.950 . S
C815 C814 1.349 . S
C815 C831 1.349 . S
C816 C814 1.327 . S
C816 C835 1.429 . S
C816 H840 0.950 . S
C817 C834 1.574 . S
C817 C836 1.368 . S
C817 H841 0.949 . S
H818 C822 0.949 . S
C819 C820 1.349 . S
C819 C821 1.327 . S
C819 H842 0.950 . S
C820 C819 1.349 . S
C820 C832 1.349 . S
C821 C819 1.327 . S
C821 C837 1.429 . S
C821 H843 0.950 . S
C822 H818 0.949 . S
C822 C830 1.574 . S
C822 C838 1.368 . S
H823 C831 0.950 . S
H824 C829 0.950 . S
H825 C830 0.949 . S
H826 C832 0.950 . S
H827 C833 0.950 . S
H828 C834 0.949 . S
C829 H824 0.950 . S
C829 C831 1.327 . S
C829 C835 1.429 . S
C830 C822 1.574 . S
C830 H825 0.949 . S
C830 C836 1.368 . S
C831 C815 1.349 . S
C831 H823 0.950 . S
C831 C829 1.327 . S
C832 C820 1.349 . S
C832 H826 0.950 . S
C832 C833 1.327 . S
C833 H827 0.950 . S
C833 C832 1.327 . S
C833 C837 1.429 . S
C834 C817 1.574 . S
C834 H828 0.949 . S
C834 C838 1.368 . S
C835 C816 1.429 . S
C835 C829 1.429 . S
C835 C836 1.523 . S
C836 C817 1.368 . S
C836 C830 1.368 . S
C836 C835 1.523 . S
C837 C821 1.429 . S
C837 C833 1.429 . S
C837 C838 1.523 . S
C838 C822 1.368 . S
C838 C834 1.368 . S
C838 C837 1.523 . S
H839 C814 0.950 . S
H840 C816 0.950 . S
H841 C817 0.949 . S
H842 C819 0.950 . S
H843 C821 0.950 . S
C844 C845 1.349 . S
C844 C846 1.327 . S
C844 H869 0.950 . S
C845 C844 1.349 . S
C845 C861 1.349 . S
C846 C844 1.327 . S
C846 C865 1.429 1_556 S
C846 H870 0.950 . S
C847 C864 1.574 . S
C847 C866 1.368 . S
C847 H871 0.949 . S
H848 C852 0.949 . S
C849 C850 1.349 . S
C849 C851 1.327 . S
C849 H872 0.950 . S
C850 C849 1.349 . S
C850 C862 1.349 . S
C851 C849 1.327 . S
C851 C867 1.429 . S
C851 H873 0.950 . S
C852 H848 0.949 . S
C852 C860 1.574 . S
C852 C868 1.368 . S
H853 C861 0.950 . S
H854 C859 0.950 . S
H855 C860 0.949 . S
H856 C862 0.950 . S
H857 C863 0.950 . S
H858 C864 0.949 . S
C859 H854 0.950 . S
C859 C861 1.327 1_554 S
C859 C865 1.429 . S
C860 C852 1.574 . S
C860 H855 0.949 . S
C860 C866 1.368 . S
C861 C845 1.349 . S
C861 H853 0.950 . S
C861 C859 1.327 1_556 S
C862 C850 1.349 . S
C862 H856 0.950 . S
C862 C863 1.327 . S
C863 H857 0.950 . S
C863 C862 1.327 . S
C863 C867 1.429 . S
C864 C847 1.574 . S
C864 H858 0.949 . S
C864 C868 1.368 . S
C865 C846 1.429 1_554 S
C865 C859 1.429 . S
C865 C866 1.523 . S
C866 C847 1.368 . S
C866 C860 1.368 . S
C866 C865 1.523 . S
C867 C851 1.429 . S
C867 C863 1.429 . S
C867 C868 1.523 . S
C868 C852 1.368 . S
C868 C864 1.368 . S
C868 C867 1.523 . S
H869 C844 0.950 . S
H870 C846 0.950 . S
H871 C847 0.949 . S
H872 C849 0.950 . S
H873 C851 0.950 . S
C874 C875 1.349 . S
C874 C876 1.327 . S
C874 H899 0.950 . S
C875 C874 1.349 . S
C875 C891 1.349 . S
C876 C874 1.327 . S
C876 C895 1.429 . S
C876 H900 0.950 . S
C877 C894 1.574 . S
C877 C896 1.368 . S
C877 H901 0.949 . S
H878 C882 0.949 . S
C879 C880 1.349 . S
C879 C881 1.327 . S
C879 H902 0.950 . S
C880 C879 1.349 . S
C880 C892 1.349 . S
C881 C879 1.327 . S
C881 C897 1.429 . S
C881 H903 0.950 . S
C882 H878 0.949 . S
C882 C890 1.574 . S
C882 C898 1.368 . S
H883 C891 0.950 . S
H884 C889 0.950 . S
H885 C890 0.949 . S
H886 C892 0.950 . S
H887 C893 0.950 . S
H888 C894 0.949 . S
C889 H884 0.950 . S
C889 C891 1.327 . S
C889 C895 1.429 . S
C890 C882 1.574 . S
C890 H885 0.949 . S
C890 C896 1.368 . S
C891 C875 1.349 . S
C891 H883 0.950 . S
C891 C889 1.327 . S
C892 C880 1.349 . S
C892 H886 0.950 . S
C892 C893 1.327 . S
C893 H887 0.950 . S
C893 C892 1.327 . S
C893 C897 1.429 . S
C894 C877 1.574 . S
C894 H888 0.949 . S
C894 C898 1.368 . S
C895 C876 1.429 . S
C895 C889 1.429 . S
C895 C896 1.523 . S
C896 C877 1.368 . S
C896 C890 1.368 . S
C896 C895 1.523 . S
C897 C881 1.429 . S
C897 C893 1.429 . S
C897 C898 1.523 . S
C898 C882 1.368 . S
C898 C894 1.368 . S
C898 C897 1.523 . S
H899 C874 0.950 . S
H900 C876 0.950 . S
H901 C877 0.949 . S
H902 C879 0.950 . S
H903 C881 0.950 . S
C904 C905 1.349 . S
C904 C906 1.327 . S
C904 H929 0.950 . S
C905 C904 1.349 . S
C905 C921 1.349 . S
C906 C904 1.327 . S
C906 C925 1.429 . S
C906 H930 0.950 . S
C907 C924 1.574 . S
C907 C926 1.368 . S
C907 H931 0.949 . S
H908 C912 0.949 . S
C909 C910 1.349 . S
C909 C911 1.327 . S
C909 H932 0.950 . S
C910 C909 1.349 . S
C910 C922 1.349 . S
C911 C909 1.327 . S
C911 C927 1.429 . S
C911 H933 0.950 . S
C912 H908 0.949 . S
C912 C920 1.574 . S
C912 C928 1.368 . S
H913 C921 0.950 . S
H914 C919 0.950 . S
H915 C920 0.949 . S
H916 C922 0.950 . S
H917 C923 0.950 . S
H918 C924 0.949 . S
C919 H914 0.950 . S
C919 C921 1.327 . S
C919 C925 1.429 . S
C920 C912 1.574 . S
C920 H915 0.949 . S
C920 C926 1.368 . S
C921 C905 1.349 . S
C921 H913 0.950 . S
C921 C919 1.327 . S
C922 C910 1.349 . S
C922 H916 0.950 . S
C922 C923 1.327 . S
C923 H917 0.950 . S
C923 C922 1.327 . S
C923 C927 1.429 . S
C924 C907 1.574 . S
C924 H918 0.949 . S
C924 C928 1.368 . S
C925 C906 1.429 . S
C925 C919 1.429 . S
C925 C926 1.523 . S
C926 C907 1.368 . S
C926 C920 1.368 . S
C926 C925 1.523 . S
C927 C911 1.429 . S
C927 C923 1.429 . S
C927 C928 1.523 . S
C928 C912 1.368 . S
C928 C924 1.368 . S
C928 C927 1.523 . S
H929 C904 0.950 . S
H930 C906 0.950 . S
H931 C907 0.949 . S
H932 C909 0.950 . S
H933 C911 0.950 . S
C934 C935 1.349 . S
C934 C936 1.327 . S
C934 H959 0.950 . S
C935 C934 1.349 . S
C935 C951 1.349 . S
C936 C934 1.327 . S
C936 C955 1.429 . S
C936 H960 0.950 . S
C937 C954 1.574 . S
C937 C956 1.368 . S
C937 H961 0.949 . S
H938 C942 0.949 . S
C939 C940 1.349 . S
C939 C941 1.327 . S
C939 H962 0.950 . S
C940 C939 1.349 . S
C940 C952 1.349 . S
C941 C939 1.327 . S
C941 C957 1.429 . S
C941 H963 0.950 . S
C942 H938 0.949 . S
C942 C950 1.574 . S
C942 C958 1.368 . S
H943 C951 0.950 . S
H944 C949 0.950 . S
H945 C950 0.949 . S
H946 C952 0.950 . S
H947 C953 0.950 . S
H948 C954 0.949 . S
C949 H944 0.950 . S
C949 C951 1.327 . S
C949 C955 1.429 . S
C950 C942 1.574 . S
C950 H945 0.949 . S
C950 C956 1.368 . S
C951 C935 1.349 . S
C951 H943 0.950 . S
C951 C949 1.327 . S
C952 C940 1.349 . S
C952 H946 0.950 . S
C952 C953 1.327 . S
C953 H947 0.950 . S
C953 C952 1.327 . S
C953 C957 1.429 . S
C954 C937 1.574 . S
C954 H948 0.949 . S
C954 C958 1.368 . S
C955 C936 1.429 . S
C955 C949 1.429 . S
C955 C956 1.523 . S
C956 C937 1.368 . S
C956 C950 1.368 . S
C956 C955 1.523 . S
C957 C941 1.429 . S
C957 C953 1.429 . S
C957 C958 1.523 . S
C958 C942 1.368 . S
C958 C954 1.368 . S
C958 C957 1.523 . S
H959 C934 0.950 . S
H960 C936 0.950 . S
H961 C937 0.949 . S
H962 C939 0.950 . S
H963 C941 0.950 . S
C964 C965 1.349 . S
C964 C966 1.327 . S
C964 H989 0.950 . S
C965 C964 1.349 . S
C965 C981 1.349 . S
C966 C964 1.327 . S
C966 C985 1.429 . S
C966 H990 0.950 . S
C967 C984 1.574 . S
C967 C986 1.368 . S
C967 H991 0.949 . S
H968 C972 0.949 . S
C969 C970 1.349 . S
C969 C971 1.327 . S
C969 H992 0.950 . S
C970 C969 1.349 . S
C970 C982 1.349 . S
C971 C969 1.327 . S
C971 C987 1.429 . S
C971 H993 0.950 . S
C972 H968 0.949 . S
C972 C980 1.574 . S
C972 C988 1.368 . S
H973 C981 0.950 . S
H974 C979 0.950 . S
H975 C980 0.949 . S
H976 C982 0.950 . S
H977 C983 0.950 . S
H978 C984 0.949 . S
C979 H974 0.950 . S
C979 C981 1.327 . S
C979 C985 1.429 . S
C980 C972 1.574 . S
C980 H975 0.949 . S
C980 C986 1.368 . S
C981 C965 1.349 . S
C981 H973 0.950 . S
C981 C979 1.327 . S
C982 C970 1.349 . S
C982 H976 0.950 . S
C982 C983 1.327 . S
C983 H977 0.950 . S
C983 C982 1.327 . S
C983 C987 1.429 . S
C984 C967 1.574 . S
C984 H978 0.949 . S
C984 C988 1.368 . S
C985 C966 1.429 . S
C985 C979 1.429 . S
C985 C986 1.523 . S
C986 C967 1.368 . S
C986 C980 1.368 . S
C986 C985 1.523 . S
C987 C971 1.429 . S
C987 C983 1.429 . S
C987 C988 1.523 . S
C988 C972 1.368 . S
C988 C984 1.368 . S
C988 C987 1.523 . S
H989 C964 0.950 . S
H990 C966 0.950 . S
H991 C967 0.949 . S
H992 C969 0.950 . S
H993 C971 0.950 . S
C994 C995 1.349 . S
C994 C996 1.327 . S
C994 H1019 0.950 . S
C995 C994 1.349 . S
C995 C1011 1.349 . S
C996 C994 1.327 . S
C996 C1015 1.429 . S
C996 H1020 0.950 . S
C997 C1014 1.574 . S
C997 C1016 1.368 . S
C997 H1021 0.949 . S
H998 C1002 0.949 . S
C999 C1000 1.349 . S
C999 C1001 1.327 . S
C999 H1022 0.950 . S
C1000 C999 1.349 . S
C1000 C1012 1.349 . S
C1001 C999 1.327 . S
C1001 C1017 1.429 . S
C1001 H1023 0.950 . S
C1002 H998 0.949 . S
C1002 C1010 1.574 . S
C1002 C1018 1.368 . S
H1003 C1011 0.950 . S
H1004 C1009 0.950 . S
H1005 C1010 0.949 . S
H1006 C1012 0.950 1_455 S
H1007 C1013 0.950 . S
H1008 C1014 0.949 . S
C1009 H1004 0.950 . S
C1009 C1011 1.327 . S
C1009 C1015 1.429 . S
C1010 C1002 1.574 . S
C1010 H1005 0.949 . S
C1010 C1016 1.368 . S
C1011 C995 1.349 . S
C1011 H1003 0.950 . S
C1011 C1009 1.327 . S
C1012 C1000 1.349 . S
C1012 H1006 0.950 1_655 S
C1012 C1013 1.327 . S
C1013 H1007 0.950 . S
C1013 C1012 1.327 . S
C1013 C1017 1.429 . S
C1014 C997 1.574 . S
C1014 H1008 0.949 . S
C1014 C1018 1.368 . S
C1015 C996 1.429 . S
C1015 C1009 1.429 . S
C1015 C1016 1.523 . S
C1016 C997 1.368 . S
C1016 C1010 1.368 . S
C1016 C1015 1.523 . S
C1017 C1001 1.429 . S
C1017 C1013 1.429 . S
C1017 C1018 1.523 . S
C1018 C1002 1.368 . S
C1018 C1014 1.368 . S
C1018 C1017 1.523 . S
H1019 C994 0.950 . S
H1020 C996 0.950 . S
H1021 C997 0.949 . S
H1022 C999 0.950 . S
H1023 C1001 0.950 . S
C1024 C1025 1.349 . S
C1024 C1026 1.327 . S
C1024 H1049 0.950 . S
C1025 C1024 1.349 . S
C1025 C1041 1.349 . S
C1026 C1024 1.327 . S
C1026 C1045 1.429 . S
C1026 H1050 0.950 . S
C1027 C1044 1.574 . S
C1027 C1046 1.368 . S
C1027 H1051 0.949 . S
H1028 C1032 0.949 . S
C1029 C1030 1.349 . S
C1029 C1031 1.327 . S
C1029 H1052 0.950 . S
C1030 C1029 1.349 . S
C1030 C1042 1.349 . S
C1031 C1029 1.327 . S
C1031 C1047 1.429 . S
C1031 H1053 0.950 . S
C1032 H1028 0.949 . S
C1032 C1040 1.574 . S
C1032 C1048 1.368 . S
H1033 C1041 0.950 . S
H1034 C1039 0.950 . S
H1035 C1040 0.949 . S
H1036 C1042 0.950 . S
H1037 C1043 0.950 . S
H1038 C1044 0.949 . S
C1039 H1034 0.950 . S
C1039 C1041 1.327 . S
C1039 C1045 1.429 . S
C1040 C1032 1.574 . S
C1040 H1035 0.949 . S
C1040 C1046 1.368 . S
C1041 C1025 1.349 . S
C1041 H1033 0.950 . S
C1041 C1039 1.327 . S
C1042 C1030 1.349 . S
C1042 H1036 0.950 . S
C1042 C1043 1.327 . S
C1043 H1037 0.950 . S
C1043 C1042 1.327 . S
C1043 C1047 1.429 . S
C1044 C1027 1.574 . S
C1044 H1038 0.949 . S
C1044 C1048 1.368 . S
C1045 C1026 1.429 . S
C1045 C1039 1.429 . S
C1045 C1046 1.523 . S
C1046 C1027 1.368 . S
C1046 C1040 1.368 . S
C1046 C1045 1.523 . S
C1047 C1031 1.429 . S
C1047 C1043 1.429 . S
C1047 C1048 1.523 . S
C1048 C1032 1.368 . S
C1048 C1044 1.368 . S
C1048 C1047 1.523 . S
H1049 C1024 0.950 . S
H1050 C1026 0.950 . S
H1051 C1027 0.949 . S
H1052 C1029 0.950 . S
H1053 C1031 0.950 . S
C1054 C1055 1.349 . S
C1054 C1056 1.327 . S
C1054 H1079 0.950 . S
C1055 C1054 1.349 . S
C1055 C1071 1.349 . S
C1056 C1054 1.327 . S
C1056 C1075 1.429 . S
C1056 H1080 0.950 . S
C1057 C1074 1.574 . S
C1057 C1076 1.368 . S
C1057 H1081 0.949 . S
H1058 C1062 0.949 . S
C1059 C1060 1.349 . S
C1059 C1061 1.327 . S
C1059 H1082 0.950 . S
C1060 C1059 1.349 . S
C1060 C1072 1.349 . S
C1061 C1059 1.327 . S
C1061 C1077 1.429 . S
C1061 H1083 0.950 . S
C1062 H1058 0.949 . S
C1062 C1070 1.574 . S
C1062 C1078 1.368 . S
H1063 C1071 0.950 . S
H1064 C1069 0.950 . S
H1065 C1070 0.949 . S
H1066 C1072 0.950 . S
H1067 C1073 0.950 . S
H1068 C1074 0.949 . S
C1069 H1064 0.950 . S
C1069 C1071 1.327 . S
C1069 C1075 1.429 . S
C1070 C1062 1.574 . S
C1070 H1065 0.949 . S
C1070 C1076 1.368 . S
C1071 C1055 1.349 . S
C1071 H1063 0.950 . S
C1071 C1069 1.327 . S
C1072 C1060 1.349 . S
C1072 H1066 0.950 . S
C1072 C1073 1.327 . S
C1073 H1067 0.950 . S
C1073 C1072 1.327 . S
C1073 C1077 1.429 . S
C1074 C1057 1.574 . S
C1074 H1068 0.949 . S
C1074 C1078 1.368 . S
C1075 C1056 1.429 . S
C1075 C1069 1.429 . S
C1075 C1076 1.523 . S
C1076 C1057 1.368 . S
C1076 C1070 1.368 . S
C1076 C1075 1.523 . S
C1077 C1061 1.429 . S
C1077 C1073 1.429 . S
C1077 C1078 1.523 . S
C1078 C1062 1.368 . S
C1078 C1074 1.368 . S
C1078 C1077 1.523 . S
H1079 C1054 0.950 . S
H1080 C1056 0.950 . S
H1081 C1057 0.949 . S
H1082 C1059 0.950 . S
H1083 C1061 0.950 . S
C1084 C1085 1.349 . S
C1084 C1086 1.327 . S
C1084 H1109 0.950 . S
C1085 C1084 1.349 . S
C1085 C1101 1.349 . S
C1086 C1084 1.327 . S
C1086 C1105 1.429 . S
C1086 H1110 0.950 . S
C1087 C1104 1.574 . S
C1087 C1106 1.368 . S
C1087 H1111 0.949 . S
H1088 C1092 0.949 . S
C1089 C1090 1.349 . S
C1089 C1091 1.327 . S
C1089 H1112 0.950 . S
C1090 C1089 1.349 . S
C1090 C1102 1.349 . S
C1091 C1089 1.327 . S
C1091 C1107 1.429 . S
C1091 H1113 0.950 . S
C1092 H1088 0.949 . S
C1092 C1100 1.574 . S
C1092 C1108 1.368 . S
H1093 C1101 0.950 . S
H1094 C1099 0.950 . S
H1095 C1100 0.949 . S
H1096 C1102 0.950 . S
H1097 C1103 0.950 . S
H1098 C1104 0.949 . S
C1099 H1094 0.950 . S
C1099 C1101 1.327 . S
C1099 C1105 1.429 . S
C1100 C1092 1.574 . S
C1100 H1095 0.949 . S
C1100 C1106 1.368 . S
C1101 C1085 1.349 . S
C1101 H1093 0.950 . S
C1101 C1099 1.327 . S
C1102 C1090 1.349 . S
C1102 H1096 0.950 . S
C1102 C1103 1.327 . S
C1103 H1097 0.950 . S
C1103 C1102 1.327 . S
C1103 C1107 1.429 . S
C1104 C1087 1.574 . S
C1104 H1098 0.949 . S
C1104 C1108 1.368 . S
C1105 C1086 1.429 . S
C1105 C1099 1.429 . S
C1105 C1106 1.523 . S
C1106 C1087 1.368 . S
C1106 C1100 1.368 . S
C1106 C1105 1.523 . S
C1107 C1091 1.429 . S
C1107 C1103 1.429 . S
C1107 C1108 1.523 . S
C1108 C1092 1.368 . S
C1108 C1104 1.368 . S
C1108 C1107 1.523 . S
H1109 C1084 0.950 . S
H1110 C1086 0.950 . S
H1111 C1087 0.949 . S
H1112 C1089 0.950 . S
H1113 C1091 0.950 . S
C1114 C1115 1.349 . S
C1114 C1116 1.327 . S
C1114 H1139 0.950 . S
C1115 C1114 1.349 . S
C1115 C1131 1.349 . S
C1116 C1114 1.327 . S
C1116 C1135 1.429 . S
C1116 H1140 0.950 . S
C1117 C1134 1.574 . S
C1117 C1136 1.368 . S
C1117 H1141 0.949 . S
H1118 C1122 0.949 . S
C1119 C1120 1.349 . S
C1119 C1121 1.327 . S
C1119 H1142 0.950 . S
C1120 C1119 1.349 . S
C1120 C1132 1.349 . S
C1121 C1119 1.327 . S
C1121 C1137 1.429 . S
C1121 H1143 0.950 . S
C1122 H1118 0.949 . S
C1122 C1130 1.574 . S
C1122 C1138 1.368 . S
H1123 C1131 0.950 . S
H1124 C1129 0.950 . S
H1125 C1130 0.949 . S
H1126 C1132 0.950 . S
H1127 C1133 0.950 . S
H1128 C1134 0.949 . S
C1129 H1124 0.950 . S
C1129 C1131 1.327 . S
C1129 C1135 1.429 . S
C1130 C1122 1.574 . S
C1130 H1125 0.949 . S
C1130 C1136 1.368 . S
C1131 C1115 1.349 . S
C1131 H1123 0.950 . S
C1131 C1129 1.327 . S
C1132 C1120 1.349 . S
C1132 H1126 0.950 . S
C1132 C1133 1.327 . S
C1133 H1127 0.950 . S
C1133 C1132 1.327 . S
C1133 C1137 1.429 . S
C1134 C1117 1.574 . S
C1134 H1128 0.949 . S
C1134 C1138 1.368 . S
C1135 C1116 1.429 . S
C1135 C1129 1.429 . S
C1135 C1136 1.523 . S
C1136 C1117 1.368 . S
C1136 C1130 1.368 . S
C1136 C1135 1.523 . S
C1137 C1121 1.429 . S
C1137 C1133 1.429 . S
C1137 C1138 1.523 . S
C1138 C1122 1.368 . S
C1138 C1134 1.368 . S
C1138 C1137 1.523 . S
H1139 C1114 0.950 . S
H1140 C1116 0.950 . S
H1141 C1117 0.949 . S
H1142 C1119 0.950 . S
H1143 C1121 0.950 . S
C425 C73 1.619 . S
C430 C144 1.652 . S
C460 C228 1.772 . S
C455 C84 1.757 . S
C490 C227 1.653 . S
C485 C51 1.606 . S
C515 C62 1.748 . S
C520 C143 1.784 . S
C550 C324 1.656 . S
C545 C29 1.604 . S
C580 C408 1.578 . S
C575 C38 1.457 . S
C605 C7 1.585 . S
C610 C407 1.661 . S
C635 C16 1.463 . S
C640 C323 1.582 . S
C670 C146 1.509 . S
C665 C18 1.663 . S
C700 C230 1.538 . S
C695 C5 1.451 . S
C730 C242 1.486 . S
C725 C40 1.677 . S
C760 C158 1.512 . S
C755 C27 1.472 . S
C790 C326 1.336 . S
C785 C60 1.354 . S
C815 C49 1.366 . S
C820 C410 1.366 . S
C850 C398 1.336 . S
C845 C82 1.364 . S
C875 C71 1.373 . S
C880 C314 1.354 . S
C910 C155 1.699 . S
C905 C8 1.676 . S
C940 C239 1.570 . S
C935 C19 1.566 . S
C965 C30 1.678 . S
C970 C240 1.676 . S
C1000 C156 1.538 . S
C995 C41 1.554 . S
C1030 C311 1.420 . S
C1025 C52 1.418 . S
C1055 C63 1.573 . S
C1060 C395 1.572 . S
C1085 C74 1.409 . S
C1090 C396 1.387 . S
C1115 C85 1.562 . S
C1120 C312 1.533 . S
