# Generated by pormake.
# Topology gar, (4,6)-cn, num edge types: 1
# Building blocks:
#     Node 0, Type 0, BuildingBlock: UXUYUI_clean_sbu_0, # of connection points: 4
#     Node 1, Type 0, BuildingBlock: UXUYUI_clean_sbu_0, # of connection points: 4
#     Node 2, Type 0, BuildingBlock: UXUYUI_clean_sbu_0, # of connection points: 4
#     Node 3, Type 0, BuildingBlock: UXUYUI_clean_sbu_0, # of connection points: 4
#     Node 4, Type 0, BuildingBlock: UXUYUI_clean_sbu_0, # of connection points: 4
#     Node 5, Type 0, BuildingBlock: UXUYUI_clean_sbu_0, # of connection points: 4
#     Node 6, Type 0, BuildingBlock: UXUYUI_clean_sbu_0, # of connection points: 4
#     Node 7, Type 0, BuildingBlock: UXUYUI_clean_sbu_0, # of connection points: 4
#     Node 8, Type 0, BuildingBlock: UXUYUI_clean_sbu_0, # of connection points: 4
#     Node 9, Type 0, BuildingBlock: UXUYUI_clean_sbu_0, # of connection points: 4
#     Node 10, Type 0, BuildingBlock: UXUYUI_clean_sbu_0, # of connection points: 4
#     Node 11, Type 0, BuildingBlock: UXUYUI_clean_sbu_0, # of connection points: 4
#     Node 12, Type 0, BuildingBlock: UXUYUI_clean_sbu_0, # of connection points: 4
#     Node 13, Type 0, BuildingBlock: UXUYUI_clean_sbu_0, # of connection points: 4
#     Node 14, Type 0, BuildingBlock: UXUYUI_clean_sbu_0, # of connection points: 4
#     Node 15, Type 0, BuildingBlock: UXUYUI_clean_sbu_0, # of connection points: 4
#     Node 16, Type 0, BuildingBlock: UXUYUI_clean_sbu_0, # of connection points: 4
#     Node 17, Type 0, BuildingBlock: UXUYUI_clean_sbu_0, # of connection points: 4
#     Node 18, Type 0, BuildingBlock: UXUYUI_clean_sbu_0, # of connection points: 4
#     Node 19, Type 0, BuildingBlock: UXUYUI_clean_sbu_0, # of connection points: 4
#     Node 20, Type 0, BuildingBlock: UXUYUI_clean_sbu_0, # of connection points: 4
#     Node 21, Type 0, BuildingBlock: UXUYUI_clean_sbu_0, # of connection points: 4
#     Node 22, Type 0, BuildingBlock: UXUYUI_clean_sbu_0, # of connection points: 4
#     Node 23, Type 0, BuildingBlock: UXUYUI_clean_sbu_0, # of connection points: 4
#     Node 24, Type 1, BuildingBlock: CUKXOW_clean_sbu_0, # of connection points: 6
#     Node 25, Type 1, BuildingBlock: CUKXOW_clean_sbu_0, # of connection points: 6
#     Node 26, Type 1, BuildingBlock: CUKXOW_clean_sbu_0, # of connection points: 6
#     Node 27, Type 1, BuildingBlock: CUKXOW_clean_sbu_0, # of connection points: 6
#     Node 28, Type 1, BuildingBlock: CUKXOW_clean_sbu_0, # of connection points: 6
#     Node 29, Type 1, BuildingBlock: CUKXOW_clean_sbu_0, # of connection points: 6
#     Node 30, Type 1, BuildingBlock: CUKXOW_clean_sbu_0, # of connection points: 6
#     Node 31, Type 1, BuildingBlock: CUKXOW_clean_sbu_0, # of connection points: 6
#     Node 32, Type 1, BuildingBlock: CUKXOW_clean_sbu_0, # of connection points: 6
#     Node 33, Type 1, BuildingBlock: CUKXOW_clean_sbu_0, # of connection points: 6
#     Node 34, Type 1, BuildingBlock: CUKXOW_clean_sbu_0, # of connection points: 6
#     Node 35, Type 1, BuildingBlock: CUKXOW_clean_sbu_0, # of connection points: 6
#     Node 36, Type 1, BuildingBlock: CUKXOW_clean_sbu_0, # of connection points: 6
#     Node 37, Type 1, BuildingBlock: CUKXOW_clean_sbu_0, # of connection points: 6
#     Node 38, Type 1, BuildingBlock: CUKXOW_clean_sbu_0, # of connection points: 6
#     Node 39, Type 1, BuildingBlock: CUKXOW_clean_sbu_0, # of connection points: 6
#     Edge 40, Type (0, 1), None
#     Edge 41, Type (0, 1), None
#     Edge 42, Type (0, 1), None
#     Edge 43, Type (0, 1), None
#     Edge 44, Type (0, 1), None
#     Edge 45, Type (0, 1), None
#     Edge 46, Type (0, 1), None
#     Edge 47, Type (0, 1), None
#     Edge 48, Type (0, 1), None
#     Edge 49, Type (0, 1), None
#     Edge 50, Type (0, 1), None
#     Edge 51, Type (0, 1), None
#     Edge 52, Type (0, 1), None
#     Edge 53, Type (0, 1), None
#     Edge 54, Type (0, 1), None
#     Edge 55, Type (0, 1), None
#     Edge 56, Type (0, 1), None
#     Edge 57, Type (0, 1), None
#     Edge 58, Type (0, 1), None
#     Edge 59, Type (0, 1), None
#     Edge 60, Type (0, 1), None
#     Edge 61, Type (0, 1), None
#     Edge 62, Type (0, 1), None
#     Edge 63, Type (0, 1), None
#     Edge 64, Type (0, 1), None
#     Edge 65, Type (0, 1), None
#     Edge 66, Type (0, 1), None
#     Edge 67, Type (0, 1), None
#     Edge 68, Type (0, 1), None
#     Edge 69, Type (0, 1), None
#     Edge 70, Type (0, 1), None
#     Edge 71, Type (0, 1), None
#     Edge 72, Type (0, 1), None
#     Edge 73, Type (0, 1), None
#     Edge 74, Type (0, 1), None
#     Edge 75, Type (0, 1), None
#     Edge 76, Type (0, 1), None
#     Edge 77, Type (0, 1), None
#     Edge 78, Type (0, 1), None
#     Edge 79, Type (0, 1), None
#     Edge 80, Type (0, 1), None
#     Edge 81, Type (0, 1), None
#     Edge 82, Type (0, 1), None
#     Edge 83, Type (0, 1), None
#     Edge 84, Type (0, 1), None
#     Edge 85, Type (0, 1), None
#     Edge 86, Type (0, 1), None
#     Edge 87, Type (0, 1), None
#     Edge 88, Type (0, 1), None
#     Edge 89, Type (0, 1), None
#     Edge 90, Type (0, 1), None
#     Edge 91, Type (0, 1), None
#     Edge 92, Type (0, 1), None
#     Edge 93, Type (0, 1), None
#     Edge 94, Type (0, 1), None
#     Edge 95, Type (0, 1), None
#     Edge 96, Type (0, 1), None
#     Edge 97, Type (0, 1), None
#     Edge 98, Type (0, 1), None
#     Edge 99, Type (0, 1), None
#     Edge 100, Type (0, 1), None
#     Edge 101, Type (0, 1), None
#     Edge 102, Type (0, 1), None
#     Edge 103, Type (0, 1), None
#     Edge 104, Type (0, 1), None
#     Edge 105, Type (0, 1), None
#     Edge 106, Type (0, 1), None
#     Edge 107, Type (0, 1), None
#     Edge 108, Type (0, 1), None
#     Edge 109, Type (0, 1), None
#     Edge 110, Type (0, 1), None
#     Edge 111, Type (0, 1), None
#     Edge 112, Type (0, 1), None
#     Edge 113, Type (0, 1), None
#     Edge 114, Type (0, 1), None
#     Edge 115, Type (0, 1), None
#     Edge 116, Type (0, 1), None
#     Edge 117, Type (0, 1), None
#     Edge 118, Type (0, 1), None
#     Edge 119, Type (0, 1), None
#     Edge 120, Type (0, 1), None
#     Edge 121, Type (0, 1), None
#     Edge 122, Type (0, 1), None
#     Edge 123, Type (0, 1), None
#     Edge 124, Type (0, 1), None
#     Edge 125, Type (0, 1), None
#     Edge 126, Type (0, 1), None
#     Edge 127, Type (0, 1), None
#     Edge 128, Type (0, 1), None
#     Edge 129, Type (0, 1), None
#     Edge 130, Type (0, 1), None
#     Edge 131, Type (0, 1), None
#     Edge 132, Type (0, 1), None
#     Edge 133, Type (0, 1), None
#     Edge 134, Type (0, 1), None
#     Edge 135, Type (0, 1), None
# Relax obj value: 0.156
# Max RMSD: 0.239
# Mean RMSD: 0.176
data_MOF--net-gar--node1-UXUYUI_clean_sbu_0--node2-CUKXOW_clean_sbu_0--edge1-none
_symmetry_space_group_name_H-M    P1
_symmetry_Int_Tables_number       1
_symmetry_cell_setting            triclinic
loop_
_symmetry_equiv_pos_as_xyz
'x, y, z'
_cell_length_a     38.281686
_cell_length_b     36.971149
_cell_length_c     37.172149
_cell_angle_alpha  94.077317
_cell_angle_beta   94.541669
_cell_angle_gamma 97.962872
loop_
_atom_site_label
_atom_site_type_symbol
_atom_site_fract_x
_atom_site_fract_y
_atom_site_fract_z
_atom_type_partial_charge
Li0 Li 1.00615 0.27519 0.42146 0.0
Li1 Li 0.04652 0.31016 0.47114 0.0
Li2 Li 0.0689 0.27262 0.42058 0.0
Li3 Li 0.03633 0.24371 0.46777 0.0
C4 C 0.03549 0.33943 0.39374 0.0
N5 N 0.01475 0.38602 0.34392 0.0
C6 C 0.03415 0.37617 0.40461 0.0
C7 C 0.0264 0.32645 0.35748 0.0
C8 C 0.02366 0.39931 0.37899 0.0
C9 C 0.01591 0.35041 0.33274 0.0
C10 C 0.98031 0.26044 0.49678 0.0
C11 C 0.97012 0.24264 0.55658 0.0
N12 N 0.93887 0.22232 0.543 0.0
C13 C 0.94809 0.23953 0.48337 0.0
C14 C 0.99143 0.26219 0.53364 0.0
C15 C 0.92751 0.2204 0.5072 0.0
C16 C 0.94864 0.24628 0.37108 0.0
N17 N 0.96476 0.2766 0.39191 0.0
C18 C 0.92374 0.313 0.36714 0.0
C19 C 0.95238 0.30925 0.39123 0.0
C20 C 0.90687 0.28231 0.34512 0.0
C21 C 0.91904 0.24847 0.34746 0.0
H22 H 0.95864 0.22048 0.37296 0.0
H23 H 0.96509 0.33249 0.40909 0.0
C24 C 0.07782 0.38317 0.50281 0.0
N25 N 0.0494 0.35627 0.50022 0.0
C26 C 0.07502 0.4186 0.51742 0.0
C27 C 0.01428 0.39777 0.52751 0.0
C28 C 0.01831 0.36281 0.513 0.0
C29 C 0.04249 0.42661 0.52891 0.0
H30 H 0.10193 0.37786 0.49148 0.0
H31 H 0.99576 0.34142 0.50994 0.0
C32 C 0.03518 0.20499 0.39033 0.0
N33 N 0.04762 0.15046 0.34022 0.0
C34 C 0.04894 0.17423 0.40185 0.0
C35 C 0.02779 0.20804 0.35333 0.0
C36 C 0.05513 0.147 0.37609 0.0
C37 C 0.0342 0.18015 0.32842 0.0
C38 C 0.11096 0.29742 0.4935 0.0
C39 C 0.13939 0.31362 0.47601 0.0
C40 C 0.11075 0.3041 0.53094 0.0
C41 C 0.16721 0.33645 0.49639 0.0
C42 C 0.13905 0.32712 0.55035 0.0
N43 N 0.16644 0.34269 0.53281 0.0
C44 C 0.10655 0.29144 0.36082 0.0
C45 C 0.11994 0.23704 0.38534 0.0
C46 C 0.12699 0.28569 0.33215 0.0
N47 N 0.10285 0.26696 0.38633 0.0
C48 C 0.14115 0.23043 0.3573 0.0
C49 C 0.14455 0.25485 0.33011 0.0
H50 H 0.09381 0.3156 0.36271 0.0
H51 H 0.11688 0.21817 0.40618 0.0
C52 C 1.00427 0.17358 0.48563 0.0
N53 N 0.03196 0.20104 0.49396 0.0
C54 C 1.0031 0.14098 0.50277 0.0
C55 C 0.05893 0.16559 0.53646 0.0
C56 C 0.05878 0.19782 0.51912 0.0
C57 C 0.03117 0.13647 0.52787 0.0
H58 H 0.98352 0.17667 0.46506 0.0
H59 H 0.08048 0.22001 0.525 0.0
O60 O 0.04557 0.31636 0.41855 0.0
O61 O 1.00111 0.27883 0.47386 0.0
O62 O 0.02838 0.23162 0.4152 0.0
O63 O 0.08348 0.275 0.47413 0.0
H64 H 0.04107 0.38673 0.4325 0.0
H65 H 0.02714 0.29809 0.34864 0.0
H66 H 0.02252 0.42781 0.38698 0.0
H67 H 1.00857 0.34063 0.30468 0.0
H68 H 0.97843 0.24357 0.58517 0.0
H69 H 0.93924 0.23787 0.45483 0.0
H70 H 0.01641 0.27823 0.54429 0.0
H71 H 0.90257 0.20395 0.49724 0.0
H72 H 0.91413 0.3392 0.36669 0.0
H73 H 0.90585 0.22415 0.33126 0.0
H74 H 0.09741 0.43998 0.51737 0.0
H75 H 0.98864 0.40251 0.53565 0.0
H76 H 0.05503 0.17148 0.43034 0.0
H77 H 0.01716 0.23165 0.34391 0.0
H78 H 0.0658 0.12307 0.38463 0.0
H79 H 0.02847 0.1821 0.29971 0.0
H80 H 0.13995 0.30871 0.44704 0.0
H81 H 0.08887 0.29173 0.54482 0.0
H82 H 0.1894 0.34921 0.48325 0.0
H83 H 0.13924 0.33259 0.57934 0.0
H84 H 0.12993 0.30589 0.31244 0.0
H85 H 0.15517 0.20692 0.35725 0.0
H86 H 0.98091 0.11941 0.49601 0.0
H87 H 0.08092 0.16319 0.55589 0.0
Li88 Li 1.00793 0.83023 0.5922 0.0
Li89 Li 0.03952 0.80173 0.64115 0.0
Li90 Li 0.99755 0.76465 0.59351 0.0
Li91 Li 0.97601 0.80329 0.64023 0.0
C92 C 0.0649 0.8132 0.56582 0.0
N93 N 0.10759 0.85093 0.52033 0.0
C94 C 0.0951 0.83704 0.58018 0.0
C95 C 0.05649 0.80832 0.52838 0.0
C96 C 0.11633 0.85593 0.55672 0.0
C97 C 0.07839 0.8277 0.50582 0.0
C98 C 1.00795 0.87004 0.66984 0.0
C99 C 1.00903 0.89354 0.73214 0.0
N100 N 0.99121 0.92084 0.72134 0.0
C101 C 0.98966 0.89829 0.65931 0.0
C102 C 0.01774 0.86757 0.7065 0.0
C103 C 0.9814 0.9237 0.68578 0.0
C104 C 0.98925 0.87283 0.53538 0.0
N105 N 0.01279 0.87173 0.56443 0.0
C106 C 0.03996 0.93297 0.55791 0.0
C107 C 0.03816 0.90075 0.57569 0.0
C108 C 0.01467 0.93554 0.52916 0.0
C109 C 0.98963 0.90472 0.51735 0.0
H110 H 0.9695 0.84932 0.52693 0.0
H111 H 0.05648 0.89918 0.59904 0.0
C112 C 0.08794 0.76709 0.67733 0.0
N113 N 0.08005 0.80096 0.67141 0.0
C114 C 0.11675 0.76324 0.70117 0.0
C115 C 0.12966 0.82945 0.71086 0.0
C116 C 0.09992 0.83198 0.68756 0.0
C117 C 0.13802 0.79471 0.71782 0.0
H118 H 0.07194 0.74315 0.66319 0.0
H119 H 0.09283 0.8585 0.68206 0.0
C120 C 0.93563 0.77845 0.56339 0.0
N121 N 0.88407 0.73873 0.51428 0.0
C122 C 0.90155 0.76798 0.57358 0.0
C123 C 0.94334 0.76923 0.52809 0.0
C124 C 0.87589 0.74777 0.5484 0.0
C125 C 0.91696 0.74897 0.5037 0.0
C126 C 0.98294 0.73176 0.66001 0.0
C127 C 0.9475 0.72035 0.64748 0.0
C128 C 0.99892 0.71332 0.68685 0.0
C129 C 0.92872 0.69029 0.66165 0.0
C130 C 0.9794 0.68328 0.70013 0.0
N131 N 0.94496 0.67252 0.68748 0.0
C132 C 0.0269 0.70993 0.55692 0.0
C133 C 0.96613 0.69056 0.56239 0.0
C134 C 0.0313 0.67487 0.54324 0.0
N135 N 0.99495 0.7171 0.56692 0.0
C136 C 0.9694 0.65485 0.54884 0.0
C137 C 1.00263 0.64638 0.53998 0.0
H138 H 0.04966 0.73104 0.56122 0.0
H139 H 0.94098 0.69653 0.57072 0.0
C140 C 0.91725 0.83254 0.66627 0.0
N141 N 0.94263 0.81131 0.67422 0.0
C142 C 0.89429 0.8408 0.69207 0.0
C143 C 0.9244 0.80568 0.73387 0.0
C144 C 0.94708 0.79856 0.70747 0.0
C145 C 0.89743 0.82676 0.72616 0.0
H146 H 0.91499 0.84316 0.63993 0.0
H147 H 0.96833 0.78293 0.7136 0.0
O148 O 0.04332 0.79514 0.58833 0.0
O149 O 0.0163 0.84495 0.64434 0.0
O150 O 0.96081 0.79907 0.58741 0.0
O151 O 1.00167 0.7616 0.64713 0.0
H152 H 0.10183 0.84122 0.60914 0.0
H153 H 0.03323 0.78987 0.51691 0.0
H154 H 0.13969 0.87465 0.56743 0.0
H155 H 0.07215 0.82431 0.47678 0.0
H156 H 0.01636 0.89194 0.76061 0.0
H157 H 0.98179 0.90045 0.63101 0.0
H158 H 0.03167 0.84566 0.71508 0.0
H159 H 0.96723 0.94571 0.67805 0.0
H160 H 0.06021 0.95585 0.56717 0.0
H161 H 0.97005 0.9055 0.49485 0.0
H162 H 0.12314 0.73611 0.70535 0.0
H163 H 0.14605 0.85422 0.72306 0.0
H164 H 0.89494 0.77556 0.60061 0.0
H165 H 0.96944 0.77756 0.51967 0.0
H166 H 0.84944 0.73939 0.55594 0.0
H167 H 0.92261 0.74145 0.47634 0.0
H168 H 0.93458 0.73472 0.6273 0.0
H169 H 0.02603 0.72218 0.69764 0.0
H170 H 0.90125 0.68113 0.65217 0.0
H171 H 0.99172 0.66863 0.72049 0.0
H172 H 0.05747 0.66986 0.53701 0.0
H173 H 0.94651 0.63379 0.54707 0.0
H174 H 0.87359 0.85693 0.68498 0.0
H175 H 0.92746 0.79413 0.75972 0.0
Li176 Li 0.50615 0.77518 0.92146 0.0
Li177 Li 0.54652 0.81015 0.97114 0.0
Li178 Li 0.56889 0.77261 0.92057 0.0
Li179 Li 0.53632 0.74369 0.96775 0.0
C180 C 0.53547 0.83942 0.89374 0.0
N181 N 0.51473 0.88601 0.84393 0.0
C182 C 0.53414 0.87616 0.90461 0.0
C183 C 0.52638 0.82644 0.85748 0.0
C184 C 0.52365 0.8993 0.87899 0.0
C185 C 0.51588 0.8504 0.83274 0.0
C186 C 0.4803 0.76042 0.99677 0.0
C187 C 0.47011 0.74261 0.05657 0.0
N188 N 0.43887 0.72229 0.04298 0.0
C189 C 0.44809 0.73951 0.98335 0.0
C190 C 0.49142 0.76217 0.03363 0.0
C191 C 0.42751 0.72037 1.00718 0.0
C192 C 0.44864 0.74628 0.87106 0.0
N193 N 0.46476 0.77659 0.89191 0.0
C194 C 0.42373 0.813 0.86715 0.0
C195 C 0.45237 0.80924 0.89124 0.0
C196 C 0.40686 0.78231 0.84513 0.0
C197 C 0.41904 0.74847 0.84745 0.0
H198 H 0.45864 0.72048 0.87294 0.0
H199 H 0.46508 0.83247 0.90911 0.0
C200 C 0.57783 0.88315 1.00281 0.0
N201 N 0.5494 0.85626 1.00021 0.0
C202 C 0.57504 0.91859 0.01742 0.0
C203 C 0.5143 0.89777 0.02751 0.0
C204 C 0.51832 0.86281 0.01301 0.0
C205 C 0.54252 0.92661 0.02891 0.0
H206 H 0.60194 0.87784 0.99148 0.0
H207 H 0.49576 0.84142 0.00995 0.0
C208 C 0.53518 0.70498 0.89032 0.0
N209 N 0.54767 0.65047 0.84022 0.0
C210 C 0.54897 0.67423 0.90184 0.0
C211 C 0.5278 0.70803 0.85331 0.0
C212 C 0.55517 0.64701 0.87609 0.0
C213 C 0.53422 0.68014 0.82841 0.0
C214 C 0.61096 0.79741 0.99349 0.0
C215 C 0.63939 0.8136 0.97599 0.0
C216 C 0.61075 0.80409 0.03093 0.0
C217 C 0.6672 0.83644 0.99637 0.0
C218 C 0.63905 0.82711 0.05033 0.0
N219 N 0.66644 0.84268 0.03279 0.0
C220 C 0.60653 0.79142 0.8608 0.0
C221 C 0.61994 0.73704 0.88534 0.0
C222 C 0.62698 0.78567 0.83213 0.0
N223 N 0.60284 0.76695 0.88631 0.0
C224 C 0.64116 0.73043 0.8573 0.0
C225 C 0.64455 0.75484 0.8301 0.0
H226 H 0.59378 0.81557 0.86267 0.0
H227 H 0.6169 0.71817 0.90619 0.0
C228 C 0.50427 0.67356 0.9856 0.0
N229 N 0.53195 0.70102 0.99395 0.0
C230 C 0.5031 0.64096 1.00275 0.0
C231 C 0.55891 0.66558 0.03647 0.0
C232 C 0.55876 0.69782 0.01913 0.0
C233 C 0.53116 0.63646 0.02787 0.0
H234 H 0.48353 0.67664 0.96502 0.0
H235 H 0.58046 0.72 0.02501 0.0
O236 O 0.54556 0.81635 0.91854 0.0
O237 O 0.5011 0.77881 0.97385 0.0
O238 O 0.52837 0.73161 0.91519 0.0
O239 O 0.58347 0.77498 0.97411 0.0
H240 H 0.54107 0.88672 0.9325 0.0
H241 H 0.52712 0.79808 0.84864 0.0
H242 H 0.52251 0.9278 0.88699 0.0
H243 H 0.50854 0.84062 0.80468 0.0
H244 H 0.47842 0.74354 0.08516 0.0
H245 H 0.43924 0.73785 0.95481 0.0
H246 H 0.5164 0.77822 0.04428 0.0
H247 H 0.40257 0.70392 0.99721 0.0
H248 H 0.41411 0.8392 0.86671 0.0
H249 H 0.40585 0.72416 0.83124 0.0
H250 H 0.59744 0.93996 0.01737 0.0
H251 H 0.48866 0.90252 0.03567 0.0
H252 H 0.55506 0.67148 0.93034 0.0
H253 H 0.51716 0.73163 0.84389 0.0
H254 H 0.56586 0.62308 0.88463 0.0
H255 H 0.5285 0.68208 0.7997 0.0
H256 H 0.63994 0.80869 0.94702 0.0
H257 H 0.58887 0.79172 0.0448 0.0
H258 H 0.6894 0.84919 0.98323 0.0
H259 H 0.63924 0.83258 0.07932 0.0
H260 H 0.62991 0.80586 0.81242 0.0
H261 H 0.6552 0.70693 0.85726 0.0
H262 H 0.48092 0.61938 0.99598 0.0
H263 H 0.58089 0.66319 0.05591 0.0
Li264 Li 0.50794 0.33021 0.09219 0.0
Li265 Li 0.53954 0.30173 0.14115 0.0
Li266 Li 0.49757 0.26464 0.09352 0.0
Li267 Li 0.47602 0.30328 0.14022 0.0
C268 C 0.56493 0.31319 0.06584 0.0
N269 N 0.60764 0.35093 0.02038 0.0
C270 C 0.59512 0.33702 0.08022 0.0
C271 C 0.55653 0.30832 0.0284 0.0
C272 C 0.61637 0.35592 0.05676 0.0
C273 C 0.57844 0.32772 1.00585 0.0
C274 C 0.50788 0.37011 0.16971 0.0
C275 C 0.50891 0.39391 0.23191 0.0
N276 N 0.49099 0.42108 0.22095 0.0
C277 C 0.48949 0.39823 0.15901 0.0
C278 C 0.51769 0.36785 0.2064 0.0
C279 C 0.48116 0.42373 0.18536 0.0
C280 C 0.48925 0.37281 0.03537 0.0
N281 N 0.5128 0.37171 0.06441 0.0
C282 C 0.53996 0.43295 0.05789 0.0
C283 C 0.53817 0.40073 0.07567 0.0
C284 C 0.51466 0.43552 0.02915 0.0
C285 C 0.48962 0.40471 0.01735 0.0
H286 H 0.46949 0.3493 0.02693 0.0
H287 H 0.5565 0.39916 0.09901 0.0
C288 C 0.58797 0.26709 0.1773 0.0
N289 N 0.58006 0.30096 0.17142 0.0
C290 C 0.61678 0.26323 0.20114 0.0
C291 C 0.62964 0.32944 0.21091 0.0
C292 C 0.59991 0.33197 0.18762 0.0
C293 C 0.63803 0.2947 0.21783 0.0
H294 H 0.57199 0.24315 0.16313 0.0
H295 H 0.5928 0.35849 0.18214 0.0
C296 C 0.43566 0.27839 0.06339 0.0
N297 N 0.38414 0.23858 0.01429 0.0
C298 C 0.40159 0.26787 0.07358 0.0
C299 C 0.44338 0.26918 0.02809 0.0
C300 C 0.37595 0.24762 0.04841 0.0
C301 C 0.41702 0.24887 1.00371 0.0
C302 C 0.48299 0.23176 0.16004 0.0
C303 C 0.44754 0.22032 0.14755 0.0
C304 C 0.499 0.21336 0.18689 0.0
C305 C 0.42879 0.19027 0.16175 0.0
C306 C 0.47951 0.18332 0.2002 0.0
N307 N 0.44507 0.17253 0.18758 0.0
C308 C 0.52692 0.20993 0.05691 0.0
C309 C 0.46616 0.19053 0.06243 0.0
C310 C 0.53133 0.17487 0.04323 0.0
N311 N 0.49497 0.21708 0.06693 0.0
C312 C 0.46943 0.15482 0.04887 0.0
C313 C 0.50266 0.14636 0.03998 0.0
H314 H 0.54967 0.23105 0.0612 0.0
H315 H 0.44101 0.19648 0.07077 0.0
C316 C 0.41724 0.33251 0.16624 0.0
N317 N 0.44264 0.3113 0.17421 0.0
C318 C 0.39426 0.34076 0.19204 0.0
C319 C 0.42441 0.3057 0.23387 0.0
C320 C 0.4471 0.29858 0.20748 0.0
C321 C 0.39742 0.32676 0.22614 0.0
H322 H 0.41496 0.3431 0.13989 0.0
H323 H 0.46837 0.28298 0.21362 0.0
O324 O 0.54333 0.29513 0.08833 0.0
O325 O 0.5163 0.34494 0.14434 0.0
O326 O 0.46082 0.29905 0.0874 0.0
O327 O 0.50169 0.2616 0.14713 0.0
H328 H 0.60185 0.3412 0.10917 0.0
H329 H 0.53327 0.28988 0.01691 0.0
H330 H 0.63972 0.37463 0.06748 0.0
H331 H 0.5722 0.32434 0.9768 0.0
H332 H 0.51626 0.39247 0.2604 0.0
H333 H 0.4816 0.40023 0.13069 0.0
H334 H 0.5317 0.34604 0.2151 0.0
H335 H 0.46691 0.44565 0.17751 0.0
H336 H 0.56022 0.45583 0.06715 0.0
H337 H 0.47003 0.40549 0.99485 0.0
H338 H 0.62318 0.2361 0.20529 0.0
H339 H 0.64601 0.35421 0.22314 0.0
H340 H 0.39497 0.27545 0.10061 0.0
H341 H 0.46947 0.27754 0.01966 0.0
H342 H 0.34951 0.2392 0.05596 0.0
H343 H 0.42268 0.24135 0.97635 0.0
H344 H 0.4346 0.23467 0.12737 0.0
H345 H 0.52612 0.22225 0.19766 0.0
H346 H 0.40132 0.18109 0.15229 0.0
H347 H 0.49186 0.16869 0.22057 0.0
H348 H 0.55749 0.16988 0.03697 0.0
H349 H 0.44656 0.13375 0.04712 0.0
H350 H 0.37356 0.35688 0.18493 0.0
H351 H 0.42748 0.29418 0.25973 0.0
Li352 Li 1.0043 0.80197 0.15033 0.0
Li353 Li 0.04062 0.77942 0.2038 0.0
Li354 Li 1.00469 0.73557 0.15523 0.0
Li355 Li 0.9722 0.76915 0.20019 0.0
C356 C 0.06591 0.76761 0.12461 0.0
N357 N 0.10748 0.74958 0.07064 0.0
C358 C 0.10061 0.7614 0.13349 0.0
C359 C 0.05248 0.76516 0.08834 0.0
C360 C 0.12117 0.75215 0.10578 0.0
C361 C 0.0739 0.75593 0.06143 0.0
C362 C 0.01821 0.84565 0.22836 0.0
C363 C 0.0249 0.87363 0.28954 0.0
N364 N 0.04193 0.90485 0.27793 0.0
C365 C 0.0358 0.87796 0.21701 0.0
C366 C 0.01272 0.84336 0.26488 0.0
C367 C 0.04761 0.90761 0.24251 0.0
C368 C 0.97286 0.84722 0.10096 0.0
N369 N 1.00367 0.83947 0.1175 0.0
C370 C 0.03706 0.88715 0.08921 0.0
C371 C 0.03545 0.85834 0.11157 0.0
C372 C 1.0057 0.89632 0.07235 0.0
C373 C 0.97329 0.87559 0.0778 0.0
H374 H 0.9479 0.83188 0.10628 0.0
H375 H 0.05953 0.85157 0.12501 0.0
C376 C 0.09896 0.75857 0.24761 0.0
N377 N 0.08766 0.7878 0.23231 0.0
C378 C 0.134 0.76054 0.26304 0.0
C379 C 0.14555 0.82307 0.24793 0.0
C380 C 0.1102 0.81987 0.2326 0.0
C381 C 0.15827 0.79291 0.2629 0.0
H382 H 0.08116 0.73301 0.24648 0.0
H383 H 0.10131 0.8426 0.21953 0.0
C384 C 0.93787 0.74554 0.12016 0.0
N385 N 0.88675 0.71191 0.06716 0.0
C386 C 0.90864 0.72213 0.12951 0.0
C387 C 0.94103 0.75184 0.08389 0.0
C388 C 0.88302 0.70545 0.10231 0.0
C389 C 0.915 0.73449 0.05752 0.0
C390 C 0.99035 0.70309 0.22322 0.0
C391 C 0.96377 0.67958 0.20184 0.0
C392 C 0.99953 0.69564 0.25877 0.0
C393 C 0.94664 0.64892 0.2165 0.0
C394 C 0.98181 0.66467 0.27244 0.0
N395 N 0.95594 0.64216 0.25121 0.0
C396 C 0.04185 0.68004 0.12767 0.0
C397 C 0.98372 0.67387 0.09894 0.0
C398 C 0.05026 0.65233 0.10356 0.0
N399 N 1.00934 0.69113 0.12447 0.0
C400 C 0.99086 0.64559 0.07461 0.0
C401 C 0.02469 0.6351 0.07636 0.0
H402 H 0.06168 0.69342 0.1485 0.0
H403 H 0.9578 0.68203 0.09686 0.0
C404 C 0.89848 0.77762 0.20793 0.0
N405 N 0.92874 0.77021 0.22623 0.0
C406 C 0.8676 0.78032 0.22568 0.0
C407 C 0.89947 0.76888 0.28118 0.0
C408 C 0.92946 0.76557 0.26228 0.0
C409 C 0.86789 0.77637 0.26298 0.0
H410 H 0.89837 0.7822 0.17953 0.0
H411 H 0.95359 0.76005 0.27665 0.0
O412 O 0.045 0.77545 0.15138 0.0
O413 O 1.00586 0.81662 0.20373 0.0
O414 O 0.96311 0.76247 0.14633 0.0
O415 O 1.00747 0.73323 0.20948 0.0
H416 H 0.11136 0.7632 0.16149 0.0
H417 H 0.02571 0.76997 0.08111 0.0
H418 H 0.14792 0.7468 0.1122 0.0
H419 H 0.06378 0.75367 0.03324 0.0
H420 H 0.02077 0.87231 0.3179 0.0
H421 H 0.04022 0.88014 0.18882 0.0
H422 H 0.99915 0.81849 0.27403 0.0
H423 H 0.06121 0.93283 0.23412 0.0
H424 H 0.06257 0.90276 0.0859 0.0
H425 H 0.94855 0.88231 0.06576 0.0
H426 H 0.14227 0.7363 0.27381 0.0
H427 H 0.16314 0.84842 0.24649 0.0
H428 H 0.90579 0.71676 0.15744 0.0
H429 H 0.96344 0.76976 0.07611 0.0
H430 H 0.86026 0.6873 0.1091 0.0
H431 H 0.91743 0.73897 0.02942 0.0
H432 H 0.95657 0.68486 0.17422 0.0
H433 H 0.02009 0.71364 0.27562 0.0
H434 H 0.92599 0.63047 0.20028 0.0
H435 H 0.98863 0.65854 0.29992 0.0
H436 H 0.07647 0.64435 0.10623 0.0
H437 H 0.97036 0.63263 0.05417 0.0
H438 H 0.84426 0.78684 0.21064 0.0
H439 H 0.90111 0.76587 0.31001 0.0
Li440 Li 0.53817 0.84424 0.4058 0.0
Li441 Li 0.5009 0.80058 0.35694 0.0
Li442 Li 0.53913 0.77761 0.4088 0.0
Li443 Li 0.56934 0.80773 0.36008 0.0
C444 C 0.48368 0.80887 0.44229 0.0
N445 N 0.45505 0.81827 0.50748 0.0
C446 C 0.4473 0.80914 0.44294 0.0
C447 C 0.50555 0.81336 0.47468 0.0
C448 C 0.43332 0.81398 0.47624 0.0
C449 C 0.49053 0.81799 0.50741 0.0
C450 C 0.53021 0.86416 0.32248 0.0
C451 C 0.52443 0.86698 0.25778 0.0
N452 N 0.51557 0.90127 0.26253 0.0
C453 C 0.52121 0.89947 0.32679 0.0
C454 C 0.53195 0.84775 0.28778 0.0
C455 C 0.51383 0.91778 0.29611 0.0
C456 C 0.55992 0.90452 0.46142 0.0
N457 N 0.5342 0.88848 0.43549 0.0
C458 C 0.49478 0.92936 0.45523 0.0
C459 C 0.50216 0.90049 0.43195 0.0
C460 C 0.52068 0.94624 0.48229 0.0
C461 C 0.55371 0.93379 0.48514 0.0
H462 H 0.58488 0.89403 0.46436 0.0
H463 H 0.48193 0.88689 0.41159 0.0
C464 C 0.43167 0.76004 0.32608 0.0
N465 N 0.45298 0.79318 0.32951 0.0
C466 C 0.39606 0.75655 0.31123 0.0
C467 C 0.40498 0.82097 0.30272 0.0
C468 C 0.44009 0.82326 0.31785 0.0
C469 C 0.38191 0.78745 0.2997 0.0
H470 H 0.44185 0.73642 0.3361 0.0
H471 H 0.45658 0.84962 0.32158 0.0
C472 C 0.61172 0.80704 0.42585 0.0
N473 N 0.67688 0.78632 0.44481 0.0
C474 C 0.61897 0.77243 0.41383 0.0
C475 C 0.63755 0.83109 0.44768 0.0
C476 C 0.65201 0.76238 0.42382 0.0
C477 C 0.67041 0.82017 0.45673 0.0
C478 C 0.53476 0.73501 0.32967 0.0
C479 C 0.55217 0.70533 0.33755 0.0
C480 C 0.51819 0.73623 0.29499 0.0
C481 C 0.55347 0.67771 0.31027 0.0
C482 C 0.52016 0.70809 0.26841 0.0
N483 N 0.53764 0.67968 0.27652 0.0
C484 C 0.5149 0.70891 0.4303 0.0
C485 C 0.56114 0.74073 0.47168 0.0
C486 C 0.51292 0.67853 0.45057 0.0
N487 N 0.53899 0.73903 0.44079 0.0
C488 C 0.56029 0.7106 0.49272 0.0
C489 C 0.5361 0.6789 0.48193 0.0
H490 H 0.49749 0.70838 0.40582 0.0
H491 H 0.57977 0.76523 0.47982 0.0
C492 C 0.64542 0.82133 0.34716 0.0
N493 N 0.61232 0.80633 0.33216 0.0
C494 C 0.67591 0.81665 0.32937 0.0
C495 C 0.63815 0.78369 0.27954 0.0
C496 C 0.60853 0.78812 0.29859 0.0
C497 C 0.6726 0.79749 0.29502 0.0
H498 H 0.64851 0.83681 0.37321 0.0
H499 H 0.58249 0.77667 0.28642 0.0
O500 O 0.49795 0.805 0.40998 0.0
O501 O 0.53685 0.84565 0.35217 0.0
O502 O 0.58012 0.81799 0.41503 0.0
O503 O 0.53283 0.76212 0.35608 0.0
H504 H 0.43012 0.80586 0.41798 0.0
H505 H 0.53384 0.81366 0.4745 0.0
H506 H 0.40524 0.81447 0.47726 0.0
H507 H 0.50709 0.82154 0.53274 0.0
H508 H 0.52556 0.85461 0.23071 0.0
H509 H 0.51974 0.91247 0.35355 0.0
H510 H 0.53884 0.82043 0.28408 0.0
H511 H 0.50666 0.94506 0.29898 0.0
H512 H 0.46898 0.93826 0.45227 0.0
H513 H 0.57412 0.94581 0.50608 0.0
H514 H 0.37948 0.7302 0.31009 0.0
H515 H 0.39568 0.84584 0.29475 0.0
H516 H 0.59942 0.75375 0.39662 0.0
H517 H 0.63257 0.85813 0.45698 0.0
H518 H 0.65797 0.73569 0.41463 0.0
H519 H 0.69077 0.83864 0.47319 0.0
H520 H 0.56429 0.70341 0.36449 0.0
H521 H 0.50413 0.75875 0.28863 0.0
H522 H 0.56692 0.65462 0.31601 0.0
H523 H 0.50772 0.70881 0.24135 0.0
H524 H 0.49381 0.65462 0.44123 0.0
H525 H 0.5786 0.71188 0.51668 0.0
H526 H 0.70163 0.82846 0.34218 0.0
H527 H 0.63406 0.76894 0.25296 0.0
Li528 Li 0.50431 0.30197 0.65034 0.0
Li529 Li 0.54063 0.27941 0.7038 0.0
Li530 Li 0.5047 0.23557 0.65523 0.0
Li531 Li 0.47221 0.26914 0.70019 0.0
C532 C 0.56594 0.26766 0.62461 0.0
N533 N 0.60756 0.24977 0.57064 0.0
C534 C 0.60063 0.26142 0.6335 0.0
C535 C 0.55254 0.26531 0.58834 0.0
C536 C 0.62121 0.25223 0.60578 0.0
C537 C 0.57399 0.25616 0.56143 0.0
C538 C 0.51822 0.34563 0.72839 0.0
C539 C 0.5249 0.37356 0.78959 0.0
N540 N 0.54192 0.4048 0.77801 0.0
C541 C 0.5358 0.37795 0.71706 0.0
C542 C 0.51273 0.3433 0.7649 0.0
C543 C 0.5476 0.40758 0.74258 0.0
C544 C 0.47287 0.3472 0.60094 0.0
N545 N 0.50368 0.33947 0.61752 0.0
C546 C 0.53707 0.38719 0.58927 0.0
C547 C 0.53546 0.35838 0.61163 0.0
C548 C 0.50572 0.39633 0.57237 0.0
C549 C 0.47331 0.37556 0.57779 0.0
H550 H 0.44791 0.33183 0.60623 0.0
H551 H 0.55953 0.35163 0.6251 0.0
C552 C 0.59897 0.25857 0.74762 0.0
N553 N 0.58767 0.28779 0.73232 0.0
C554 C 0.63401 0.26054 0.76304 0.0
C555 C 0.64556 0.32307 0.74793 0.0
C556 C 0.61022 0.31986 0.7326 0.0
C557 C 0.65829 0.29291 0.7629 0.0
H558 H 0.58117 0.23301 0.74649 0.0
H559 H 0.60132 0.34259 0.71952 0.0
C560 C 0.43789 0.24553 0.62016 0.0
N561 N 0.38678 0.21189 0.56715 0.0
C562 C 0.40865 0.22214 0.62951 0.0
C563 C 0.44107 0.25181 0.58389 0.0
C564 C 0.38304 0.20545 0.6023 0.0
C565 C 0.41505 0.23445 0.55752 0.0
C566 C 0.49036 0.20308 0.72322 0.0
C567 C 0.46377 0.17958 0.70184 0.0
C568 C 0.49953 0.19563 0.75877 0.0
C569 C 0.44663 0.14892 0.71649 0.0
C570 C 0.4818 0.16466 0.77243 0.0
N571 N 0.45593 0.14215 0.75119 0.0
C572 C 0.54188 0.18007 0.62763 0.0
C573 C 0.48372 0.17384 0.59897 0.0
C574 C 0.55029 0.15235 0.60352 0.0
N575 N 0.50935 0.19113 0.62447 0.0
C576 C 0.49085 0.14556 0.57464 0.0
C577 C 0.5247 0.1351 0.57635 0.0
H578 H 0.56172 0.19346 0.64844 0.0
H579 H 0.45779 0.18198 0.59692 0.0
C580 C 0.3985 0.27763 0.70794 0.0
N581 N 0.42875 0.2702 0.72623 0.0
C582 C 0.36762 0.28034 0.72569 0.0
C583 C 0.39948 0.26887 0.78118 0.0
C584 C 0.42947 0.26555 0.76228 0.0
C585 C 0.36791 0.27638 0.76298 0.0
H586 H 0.39839 0.28222 0.67953 0.0
H587 H 0.45359 0.26002 0.77665 0.0
O588 O 0.54501 0.27545 0.65139 0.0
O589 O 0.50588 0.31661 0.70374 0.0
O590 O 0.46312 0.26246 0.64634 0.0
O591 O 0.50749 0.23322 0.70948 0.0
H592 H 0.61135 0.26314 0.6615 0.0
H593 H 0.52578 0.27016 0.5811 0.0
H594 H 0.64796 0.24686 0.61221 0.0
H595 H 0.5639 0.25398 0.53323 0.0
H596 H 0.52077 0.37221 0.81794 0.0
H597 H 0.54021 0.38016 0.68887 0.0
H598 H 0.49917 0.31843 0.77404 0.0
H599 H 0.5612 0.43282 0.73421 0.0
H600 H 0.56257 0.40282 0.58599 0.0
H601 H 0.44857 0.38226 0.56571 0.0
H602 H 0.64229 0.23631 0.77382 0.0
H603 H 0.66315 0.34842 0.74649 0.0
H604 H 0.40579 0.21678 0.65744 0.0
H605 H 0.46349 0.26972 0.57611 0.0
H606 H 0.36027 0.18731 0.60909 0.0
H607 H 0.41749 0.23892 0.52941 0.0
H608 H 0.45658 0.18486 0.67421 0.0
H609 H 0.52009 0.21363 0.77562 0.0
H610 H 0.42599 0.13047 0.70026 0.0
H611 H 0.48861 0.15853 0.79991 0.0
H612 H 0.5765 0.1444 0.60616 0.0
H613 H 0.47034 0.13258 0.55422 0.0
H614 H 0.34429 0.28687 0.71064 0.0
H615 H 0.40111 0.26585 0.81001 0.0
Li616 Li 0.03818 0.34425 0.90581 0.0
Li617 Li 1.00092 0.30059 0.85695 0.0
Li618 Li 0.03914 0.27762 0.90881 0.0
Li619 Li 0.06936 0.30774 0.86009 0.0
C620 C 0.9837 0.30887 0.9423 0.0
N621 N 0.95509 0.31824 1.0075 0.0
C622 C 0.94731 0.30911 0.94296 0.0
C623 C 1.00558 0.31337 0.97469 0.0
C624 C 0.93335 0.31394 0.97627 0.0
C625 C 0.99057 0.31799 1.00742 0.0
C626 C 0.03022 0.36417 0.82249 0.0
C627 C 0.02443 0.36698 0.75778 0.0
N628 N 0.01558 0.40128 0.76254 0.0
C629 C 0.02123 0.39948 0.8268 0.0
C630 C 0.03196 0.34776 0.78779 0.0
C631 C 0.01384 0.41779 0.79611 0.0
C632 C 0.05993 0.40455 0.96142 0.0
N633 N 0.03421 0.38849 0.93549 0.0
C634 C 0.99478 0.42936 0.95523 0.0
C635 C 1.00217 0.4005 0.93196 0.0
C636 C 0.02068 0.44626 0.98228 0.0
C637 C 0.05372 0.43382 0.98513 0.0
H638 H 0.08489 0.39406 0.96435 0.0
H639 H 0.98194 0.38689 0.91159 0.0
C640 C 0.93169 0.26004 0.82608 0.0
N641 N 0.95299 0.29319 0.82951 0.0
C642 C 0.89608 0.25656 0.81123 0.0
C643 C 0.90499 0.32097 0.80272 0.0
C644 C 0.94011 0.32327 0.81786 0.0
C645 C 0.88193 0.28745 0.7997 0.0
H646 H 0.94186 0.23642 0.8361 0.0
H647 H 0.9566 0.34963 0.82159 0.0
C648 C 0.11174 0.30707 0.92587 0.0
N649 N 0.17691 0.28639 0.94485 0.0
C650 C 0.119 0.27246 0.91387 0.0
C651 C 0.13756 0.33114 0.94769 0.0
C652 C 0.15204 0.26243 0.92387 0.0
C653 C 0.17042 0.32024 0.95675 0.0
C654 C 0.03479 0.23502 0.82968 0.0
C655 C 0.05222 0.20536 0.83756 0.0
C656 C 0.01822 0.23623 0.795 0.0
C657 C 0.05354 0.17773 0.81028 0.0
C658 C 0.02021 0.2081 0.76842 0.0
N659 N 0.03771 0.17969 0.77654 0.0
C660 C 0.01491 0.20892 0.93031 0.0
C661 C 0.06115 0.24074 0.97169 0.0
C662 C 0.01292 0.17854 0.95058 0.0
N663 N 0.039 0.23905 0.9408 0.0
C664 C 0.0603 0.21061 0.99273 0.0
C665 C 0.0361 0.17891 0.98194 0.0
H666 H 0.9975 0.20839 0.90583 0.0
H667 H 0.07978 0.26524 0.97984 0.0
C668 C 0.14544 0.32133 0.84718 0.0
N669 N 0.11234 0.30635 0.83217 0.0
C670 C 0.17593 0.31665 0.82938 0.0
C671 C 0.13817 0.28371 0.77954 0.0
C672 C 0.10855 0.28814 0.7986 0.0
C673 C 0.17262 0.29751 0.79503 0.0
H674 H 0.14853 0.33681 0.87323 0.0
H675 H 0.08251 0.2767 0.78643 0.0
O676 O 0.99797 0.30501 0.90999 0.0
O677 O 0.03687 0.34566 0.85218 0.0
O678 O 0.08013 0.31801 0.91504 0.0
O679 O 0.03284 0.26213 0.85609 0.0
H680 H 0.93013 0.30582 0.91801 0.0
H681 H 0.03387 0.31369 0.97449 0.0
H682 H 0.90527 0.31441 0.9773 0.0
H683 H 1.00713 0.32155 0.03275 0.0
H684 H 0.02557 0.35462 0.73072 0.0
H685 H 0.01976 0.41248 0.85356 0.0
H686 H 0.03884 0.32044 0.78409 0.0
H687 H 1.00667 0.44507 0.79899 0.0
H688 H 0.96898 0.43826 0.95227 0.0
H689 H 0.07413 0.44584 1.00607 0.0
H690 H 0.87949 0.23021 0.81009 0.0
H691 H 0.8957 0.34585 0.79476 0.0
H692 H 0.09946 0.25377 0.89667 0.0
H693 H 0.13257 0.35818 0.95697 0.0
H694 H 0.15802 0.23573 0.9147 0.0
H695 H 0.19078 0.33872 0.97319 0.0
H696 H 0.06434 0.20344 0.86451 0.0
H697 H 1.00415 0.25874 0.78864 0.0
H698 H 0.067 0.15466 0.81603 0.0
H699 H 1.00777 0.20881 0.74136 0.0
H700 H 0.99381 0.15463 0.94124 0.0
H701 H 0.0786 0.21189 0.0167 0.0
H702 H 0.20165 0.32846 0.84219 0.0
H703 H 0.13408 0.26896 0.75296 0.0
Li704 Li 0.44134 0.08744 0.3048 0.0
Li705 Li 0.38972 0.04684 0.26896 0.0
Li706 Li 0.43963 0.0783 0.23677 0.0
Li707 Li 0.39439 0.11534 0.26572 0.0
C708 C 0.45964 0.01707 0.25646 0.0
N709 N 0.49703 0.9703 0.21899 0.0
C710 C 0.44185 0.98548 0.23659 0.0
C711 C 0.4965 0.0248 0.25735 0.0
C712 C 0.4612 0.96216 0.21785 0.0
C713 C 0.51492 1.00085 0.23822 0.0
C714 C 0.35653 0.0857 0.32155 0.0
C715 C 0.29306 0.08095 0.31068 0.0
N716 N 0.2905 0.08348 0.34702 0.0
C717 C 0.35322 0.08793 0.35878 0.0
C718 C 0.3262 0.08183 0.29728 0.0
C719 C 0.31963 0.08687 0.37112 0.0
C720 C 0.45549 0.10406 0.38329 0.0
N721 N 0.46885 0.08903 0.3537 0.0
C722 C 0.51212 0.06554 0.39331 0.0
C723 C 0.49718 0.07052 0.35834 0.0
C724 C 0.4973 0.07869 0.42426 0.0
C725 C 0.46886 0.09869 0.41869 0.0
H726 H 0.43338 0.11906 0.37952 0.0
H727 H 0.5074 0.05812 0.33498 0.0
C728 C 0.34313 0.98221 0.24105 0.0
N729 N 0.35651 1.00366 0.27159 0.0
C730 C 0.32066 0.94952 0.24337 0.0
C731 C 0.32511 0.96204 0.30842 0.0
C732 C 0.34784 0.99433 0.30487 0.0
C733 C 0.31188 0.93892 0.27743 0.0
H734 H 0.35108 0.98969 0.215 0.0
H735 H 0.35946 0.01136 0.32883 0.0
C736 C 0.47539 0.15023 0.28772 0.0
N737 N 0.52992 0.19741 0.32653 0.0
C738 C 0.4703 0.18569 0.29953 0.0
C739 C 0.50838 0.13898 0.29515 0.0
C740 C 0.49814 0.2091 0.31923 0.0
C741 C 0.53556 0.16315 0.31497 0.0
C742 C 0.36802 0.07392 0.19309 0.0
C743 C 0.38331 0.09184 0.1651 0.0
C744 C 0.33328 0.05563 0.1872 0.0
C745 C 0.36388 0.0907 0.1315 0.0
C746 C 0.31469 0.05514 0.15324 0.0
N747 N 0.33025 0.07248 0.1263 0.0
C748 C 0.45218 0.04586 0.16464 0.0
C749 C 0.49967 0.08934 0.19165 0.0
C750 C 0.47072 0.03981 0.13384 0.0
N751 N 0.4666 0.07058 0.19286 0.0
C752 C 0.51914 0.08389 0.1616 0.0
C753 C 0.50479 0.059 0.13188 0.0
H754 H 0.42622 0.03046 0.16602 0.0
H755 H 0.51128 0.10835 0.21426 0.0
C756 C 0.36622 0.18323 0.28653 0.0
N757 N 0.36212 0.15365 0.26168 0.0
C758 C 0.34174 0.20836 0.28612 0.0
C759 C 0.30801 0.17192 0.23563 0.0
C760 C 0.3337 0.14814 0.23624 0.0
C761 C 0.31164 0.20247 0.26093 0.0
H762 H 0.38787 0.18684 0.30754 0.0
H763 H 0.3299 0.12449 0.21704 0.0
O764 O 0.44101 0.04081 0.27404 0.0
O765 O 0.3892 0.08631 0.3089 0.0
O766 O 0.44858 0.127 0.26805 0.0
O767 O 0.38698 0.07417 0.22598 0.0
H768 H 0.41341 0.97907 0.23544 0.0
H769 H 0.51076 0.04928 0.27213 0.0
H770 H 0.44771 0.93765 0.20232 0.0
H771 H 0.54343 1.00663 0.23856 0.0
H772 H 0.26936 0.0781 0.2922 0.0
H773 H 0.37619 0.09002 0.37805 0.0
H774 H 0.32822 0.0792 0.26842 0.0
H775 H 0.31678 0.08858 0.39987 0.0
H776 H 0.53374 0.04959 0.39599 0.0
H777 H 0.45649 0.10951 0.44154 0.0
H778 H 0.31138 0.93202 0.21889 0.0
H779 H 0.31953 0.95435 0.33518 0.0
H780 H 0.44537 0.19528 0.29301 0.0
H781 H 0.51293 0.11187 0.28574 0.0
H782 H 0.49455 0.23662 0.32854 0.0
H783 H 0.56117 0.15468 0.32107 0.0
H784 H 0.41006 0.10613 0.16914 0.0
H785 H 0.32055 0.0424 0.20872 0.0
H786 H 0.37556 0.10424 0.10955 0.0
H787 H 0.28785 0.04106 0.14835 0.0
H788 H 0.45886 0.0196 0.11233 0.0
H789 H 0.54541 0.0992 0.16168 0.0
H790 H 0.34579 0.23155 0.30618 0.0
H791 H 0.28528 0.16615 0.21575 0.0
Li792 Li 0.26736 0.17195 0.52507 0.0
Li793 Li 0.29646 0.12684 0.49488 0.0
Li794 Li 0.27253 0.17441 0.46261 0.0
Li795 Li 0.23433 0.12321 0.4846 0.0
C796 C 0.33813 0.20234 0.48909 0.0
N797 N 0.39071 0.2463 0.45914 0.0
C798 C 0.36469 0.18678 0.4725 0.0
C799 C 0.33857 0.24032 0.49083 0.0
C800 C 0.39098 0.20946 0.45743 0.0
C801 C 0.36534 0.26205 0.47546 0.0
C802 C 0.27702 0.09965 0.55542 0.0
C803 C 0.29442 0.04264 0.57312 0.0
N804 N 0.31092 0.06029 0.60453 0.0
C805 C 0.29433 0.11718 0.5879 0.0
C806 C 0.27721 0.06203 0.54797 0.0
C807 C 0.31124 0.09682 0.61235 0.0
C808 C 0.23866 0.18623 0.58784 0.0
N809 N 0.26541 0.19903 0.56821 0.0
C810 C 0.2864 0.24798 0.61289 0.0
C811 C 0.28923 0.2291 0.57979 0.0
C812 C 0.25907 0.23512 0.63371 0.0
C813 C 0.23487 0.20411 0.62095 0.0
H814 H 0.22063 0.16181 0.57779 0.0
H815 H 0.31053 0.23802 0.56364 0.0
C816 C 0.33553 0.06675 0.48602 0.0
N817 N 0.33366 0.09989 0.50343 0.0
C818 C 0.36201 0.04663 0.49753 0.0
C819 C 0.3832 0.09508 0.54473 0.0
C820 C 0.35677 0.1143 0.5321 0.0
C821 C 0.38615 0.06097 0.52721 0.0
H822 H 0.31629 0.05586 0.46367 0.0
H823 H 0.35404 0.14048 0.54559 0.0
C824 C 0.21099 0.19939 0.50483 0.0
N825 N 0.17573 0.24685 0.54408 0.0
C826 C 0.17865 0.1866 0.51776 0.0
C827 C 0.22532 0.2364 0.51177 0.0
C828 C 0.16133 0.21101 0.53767 0.0
C829 C 0.20705 0.25994 0.53157 0.0
C830 C 0.24623 0.10045 0.42084 0.0
C831 C 0.22961 0.11744 0.39323 0.0
C832 C 0.23885 0.06249 0.42205 0.0
C833 C 0.20577 0.09604 0.36713 0.0
C834 C 0.21482 0.04207 0.39545 0.0
N835 N 0.19894 0.05912 0.36876 0.0
C836 C 0.30649 0.21191 0.4072 0.0
C837 C 0.25371 0.23201 0.42467 0.0
C838 C 0.31146 0.23999 0.38412 0.0
N839 N 0.27825 0.20888 0.42733 0.0
C840 C 0.25734 0.26007 0.4017 0.0
C841 C 0.28626 0.26406 0.38072 0.0
H842 H 0.32497 0.19239 0.40883 0.0
H843 H 0.23068 0.22815 0.4396 0.0
C844 C 0.18624 0.06639 0.50361 0.0
N845 N 0.19019 0.09209 0.47935 0.0
C846 C 0.15286 0.04848 0.50861 0.0
C847 C 0.12801 0.08223 0.46192 0.0
C848 C 0.16217 0.09951 0.45774 0.0
C849 C 0.12308 0.05749 0.48877 0.0
H850 H 0.20858 0.06168 0.5211 0.0
H851 H 0.16597 0.12078 0.43929 0.0
O852 O 0.31155 0.18052 0.50309 0.0
O853 O 0.2607 0.11921 0.53073 0.0
O854 O 0.22895 0.17568 0.48626 0.0
O855 O 0.26968 0.12088 0.44658 0.0
H856 H 0.36464 0.15747 0.4705 0.0
H857 H 0.31806 0.25283 0.5032 0.0
H858 H 0.41149 0.19775 0.44421 0.0
H859 H 0.36583 0.29143 0.47633 0.0
H860 H 0.29492 0.01362 0.56752 0.0
H861 H 0.29545 0.14628 0.59405 0.0
H862 H 0.26506 0.04805 0.52255 0.0
H863 H 0.32484 0.11014 0.63744 0.0
H864 H 0.30577 0.2716 0.62248 0.0
H865 H 0.21369 0.19339 0.63666 0.0
H866 H 0.36404 0.02066 0.483 0.0
H867 H 0.40168 0.10729 0.56735 0.0
H868 H 0.16736 0.15801 0.51314 0.0
H869 H 0.25068 0.24667 0.50265 0.0
H870 H 0.13669 0.20136 0.54844 0.0
H871 H 0.21798 0.28854 0.53733 0.0
H872 H 0.23505 0.1468 0.39197 0.0
H873 H 0.25136 0.04902 0.44343 0.0
H874 H 0.19272 0.10878 0.34556 0.0
H875 H 0.20878 0.01267 0.39605 0.0
H876 H 0.33355 0.24135 0.3676 0.0
H877 H 0.23668 0.27725 0.39895 0.0
H878 H 0.1503 0.02962 0.52958 0.0
H879 H 0.10567 0.09019 0.44625 0.0
Li880 Li 0.19563 0.05242 0.81334 0.0
Li881 Li 0.14809 0.01066 0.84118 0.0
Li882 Li 0.19556 0.9841 0.80928 0.0
Li883 Li 0.14842 0.01032 0.77616 0.0
C884 C 0.22233 0.04212 0.8799 0.0
N885 N 0.26476 0.09108 0.93009 0.0
C886 C 0.20758 0.05885 0.90878 0.0
C887 C 0.25865 0.04996 0.87669 0.0
C888 C 0.2295 0.08354 0.9339 0.0
C889 C 0.27964 0.07496 0.90225 0.0
C890 C 0.11813 0.06768 0.7934 0.0
C891 C 0.05732 0.06584 0.76991 0.0
N892 N 0.06644 0.09767 0.75447 0.0
C893 C 0.12687 0.10052 0.77758 0.0
C894 C 0.08307 0.05026 0.78975 0.0
C895 C 0.10036 0.11519 0.7579 0.0
C896 C 0.23135 0.11144 0.77897 0.0
N897 N 0.22068 0.10253 0.81174 0.0
C898 C 0.23444 0.16594 0.83464 0.0
C899 C 0.22218 0.12904 0.83947 0.0
C900 C 0.24481 0.17601 0.80075 0.0
C901 C 0.24357 0.14789 0.77293 0.0
H902 H 0.22885 0.09047 0.75677 0.0
H903 H 0.21247 0.12193 0.86494 0.0
C904 C 0.1093 0.98103 0.90115 0.0
N905 N 0.11588 0.00899 0.87943 0.0
C906 C 0.08499 0.98277 0.9275 0.0
C907 C 0.07485 0.04182 0.90866 0.0
C908 C 0.09913 0.03897 0.88295 0.0
C909 C 0.06765 0.01376 0.93176 0.0
H910 H 0.1233 0.95769 0.89861 0.0
H911 H 0.10512 0.06131 0.86624 0.0
C912 C 0.22527 0.0112 0.75006 0.0
N913 N 0.27777 0.99482 0.7075 0.0
C914 C 0.21632 0.99235 0.71594 0.0
C915 C 0.26084 0.02192 0.76251 0.0
C916 C 0.24327 0.98425 0.69484 0.0
C917 C 0.28702 0.01334 0.74058 0.0
C918 C 0.12378 0.93934 0.81896 0.0
C919 C 0.14079 0.91454 0.83808 0.0
C920 C 0.0868 0.9355 0.81537 0.0
C921 C 0.12045 0.8863 0.85344 0.0
C922 C 0.06742 0.90696 0.83123 0.0
N923 N 0.0845 0.88316 0.84976 0.0
C924 C 0.24672 0.93784 0.83187 0.0
C925 C 0.21922 0.92239 0.77247 0.0
C926 C 0.26615 0.90848 0.82845 0.0
N927 N 0.22374 0.94428 0.80409 0.0
C928 C 0.23873 0.8932 0.76761 0.0
C929 C 0.26221 0.88554 0.79601 0.0
H930 H 0.24959 0.95528 0.85683 0.0
H931 H 0.20038 0.92755 0.75089 0.0
C932 C 0.13609 0.03657 0.71165 0.0
N933 N 0.12229 0.00937 0.73125 0.0
C934 C 0.11937 0.04184 0.67841 0.0
C935 C 0.07477 0.99018 0.68543 0.0
C936 C 0.09239 0.98602 0.71899 0.0
C937 C 0.08831 0.01863 0.66509 0.0
H938 H 0.1599 0.05461 0.72233 0.0
H939 H 0.08211 0.96463 0.73533 0.0
O940 O 0.20128 0.01832 0.85474 0.0
O941 O 0.14387 0.05223 0.8118 0.0
O942 O 0.19929 0.01933 0.7711 0.0
O943 O 0.14318 0.96713 0.80365 0.0
H944 H 0.17951 0.05298 0.91167 0.0
H945 H 0.27046 0.03694 0.85465 0.0
H946 H 0.21848 0.09676 0.95638 0.0
H947 H 0.30779 0.08141 0.90006 0.0
H948 H 0.03013 0.05254 0.76664 0.0
H949 H 0.15386 0.11435 0.78015 0.0
H950 H 0.07595 0.02471 0.80171 0.0
H951 H 0.10674 0.14051 0.74536 0.0
H952 H 0.23458 0.18649 0.85693 0.0
H953 H 0.25101 0.15401 0.74627 0.0
H954 H 0.08106 0.96093 0.94534 0.0
H955 H 0.06265 0.06652 0.9111 0.0
H956 H 0.18885 0.98381 0.706 0.0
H957 H 0.2681 0.03676 0.78877 0.0
H958 H 0.23677 0.96955 0.66842 0.0
H959 H 0.31469 0.02142 0.74986 0.0
H960 H 0.16935 0.9172 0.84133 0.0
H961 H 0.07322 0.95449 0.80069 0.0
H962 H 0.13327 0.867 0.86843 0.0
H963 H 0.03879 0.90377 0.82887 0.0
H964 H 0.28391 0.90363 0.85119 0.0
H965 H 0.23567 0.8771 0.74182 0.0
H966 H 0.13062 0.064 0.66339 0.0
H967 H 0.05087 0.97173 0.67568 0.0
Li968 Li 0.19684 0.9223 0.04175 0.0
Li969 Li 0.22852 0.87403 0.07539 0.0
Li970 Li 0.26178 0.92232 0.04123 0.0
Li971 Li 0.22343 0.8709 1.00475 0.0
C972 C 0.22171 0.95053 0.10938 0.0
N973 N 0.19239 0.99337 0.15929 0.0
C974 C 0.20259 0.93424 0.13595 0.0
C975 C 0.22604 0.98855 0.10818 0.0
C976 C 0.18799 0.9564 0.16099 0.0
C977 C 0.21092 0.00974 0.13363 0.0
C978 C 0.15744 0.84265 0.02007 0.0
C979 C 0.13284 0.78171 0.99499 0.0
N980 N 0.10498 0.79533 0.97863 0.0
C981 C 0.12869 0.85612 1.0029 0.0
C982 C 0.15958 0.80519 0.01622 0.0
C983 C 0.10235 0.83171 0.98216 0.0
C984 C 0.15766 0.98019 0.01608 0.0
N985 N 0.15877 0.95634 0.04245 0.0
C986 C 0.11155 0.98308 0.06962 0.0
C987 C 0.13581 0.95733 0.0688 0.0
C988 C 0.11034 1.0083 0.04298 0.0
C989 C 0.1341 1.00638 0.01607 0.0
H990 H 0.17535 0.97926 0.99491 0.0
H991 H 0.13657 0.93852 0.08974 0.0
C992 C 0.26537 0.85719 0.14383 0.0
N993 N 0.2357 0.8463 0.12046 0.0
C994 C 0.27262 0.83823 0.17475 0.0
C995 C 0.21833 0.79747 0.15829 0.0
C996 C 0.21229 0.81688 0.12746 0.0
C997 C 0.24891 0.80783 0.18269 0.0
H998 H 0.28393 0.88053 0.1383 0.0
H999 H 0.18885 0.80825 0.10901 0.0
C1000 C 0.24461 0.95066 0.98143 0.0
N1001 N 0.28658 1.00262 0.94795 0.0
C1002 C 0.2598 0.94057 0.94994 0.0
C1003 C 0.25044 0.98723 0.99567 0.0
C1004 C 0.28109 0.96724 0.93352 0.0
C1005 C 0.27173 0.01309 0.97833 0.0
C1006 C 0.28555 0.84592 0.05255 0.0
C1007 C 0.31757 0.85929 0.07288 0.0
C1008 C 0.27493 0.80817 0.04617 0.0
C1009 C 0.33858 0.8345 0.08654 0.0
C1010 C 0.29669 0.78427 0.06026 0.0
N1011 N 0.3278 0.79782 0.07999 0.0
C1012 C 0.32305 0.97884 0.06016 0.0
C1013 C 0.32638 0.93369 0.01245 0.0
C1014 C 0.35776 0.99505 0.05633 0.0
N1015 N 0.3082 0.94865 0.03831 0.0
C1016 C 0.36088 0.94911 1.00752 0.0
C1017 C 0.37705 0.98002 0.02976 0.0
H1018 H 0.30814 0.99007 0.0807 0.0
H1019 H 0.31403 0.90945 0.99572 0.0
C1020 C 0.20105 0.83746 0.92856 0.0
N1021 N 0.22644 0.84193 0.95713 0.0
C1022 C 0.20788 0.82244 0.89412 0.0
C1023 C 0.2665 0.81617 0.91873 0.0
C1024 C 0.25867 0.83134 0.95247 0.0
C1025 C 0.24126 0.81185 0.88851 0.0
H1026 H 0.17588 0.84686 0.93196 0.0
H1027 H 0.27921 0.83611 0.97462 0.0
O1028 O 0.23567 0.9293 0.0843 0.0
O1029 O 0.18346 0.86609 0.04047 0.0
O1030 O 0.22538 0.92465 0.99912 0.0
O1031 O 0.26432 0.86968 0.03947 0.0
H1032 H 0.19882 0.9048 0.13705 0.0
H1033 H 0.2408 1.00152 0.08773 0.0
H1034 H 0.17303 0.94419 0.18167 0.0
H1035 H 0.21395 0.03921 0.13299 0.0
H1036 H 0.13413 0.75263 0.99171 0.0
H1037 H 0.12671 0.8851 1.00566 0.0
H1038 H 0.18169 0.7944 0.02942 0.0
H1039 H 0.07984 0.84168 0.96882 0.0
H1040 H 0.09464 0.98386 0.09156 0.0
H1041 H 0.13444 0.02503 0.99486 0.0
H1042 H 0.29695 0.84699 0.19184 0.0
H1043 H 0.19907 0.77431 0.16292 0.0
H1044 H 0.25573 0.91236 0.93866 0.0
H1045 H 0.23921 0.99539 0.02026 0.0
H1046 H 0.29355 0.95977 0.90951 0.0
H1047 H 0.2767 0.04143 0.98922 0.0
H1048 H 0.32596 0.88848 0.07834 0.0
H1049 H 0.25009 0.79749 0.03058 0.0
H1050 H 0.3634 0.84442 0.10243 0.0
H1051 H 0.28884 0.75496 0.05555 0.0
H1052 H 0.36946 0.01886 0.07411 0.0
H1053 H 0.37489 0.93663 0.98688 0.0
H1054 H 0.18753 0.8203 0.87181 0.0
H1055 H 0.29277 0.80911 0.91618 0.0
Li1056 Li 0.24614 0.45043 0.06248 0.0
Li1057 Li 0.26952 0.40409 0.09356 0.0
Li1058 Li 0.31131 0.45151 0.07515 0.0
Li1059 Li 0.27592 0.40336 0.03269 0.0
C1060 C 0.27027 0.45145 0.14465 0.0
N1061 N 0.25901 0.43305 0.21386 0.0
C1062 C 0.23584 0.44369 0.15461 0.0
C1063 C 0.29907 0.44984 0.16973 0.0
C1064 C 0.23068 0.43443 0.18975 0.0
C1065 C 0.2928 0.44049 0.20466 0.0
C1066 C 0.21151 0.36353 0.051 0.0
C1067 C 0.20783 0.29769 0.04606 0.0
N1068 N 0.1719 0.2946 0.04416 0.0
C1069 C 0.17455 0.35972 0.04901 0.0
C1070 C 0.22834 0.3323 0.04959 0.0
C1071 C 0.15498 0.32463 0.04559 0.0
C1072 C 0.18912 0.46578 0.02139 0.0
N1073 N 0.21074 0.4786 0.05162 0.0
C1074 C 0.18193 0.53142 0.05907 0.0
C1075 C 0.20814 0.51088 0.07032 0.0
C1076 C 0.15858 0.51821 0.02847 0.0
C1077 C 0.16259 0.48524 0.00929 0.0
H1078 H 0.1925 0.44026 1.00686 0.0
H1079 H 0.2265 0.52061 0.09374 0.0
C1080 C 0.29093 0.35382 0.13799 0.0
N1081 N 0.26158 0.36856 0.12778 0.0
C1082 C 0.28892 0.32526 0.1603 0.0
C1083 C 0.22628 0.32762 0.16208 0.0
C1084 C 0.22934 0.35554 0.13851 0.0
C1085 C 0.25658 0.31259 0.17374 0.0
H1086 H 0.31612 0.36467 0.1292 0.0
H1087 H 0.20617 0.36721 0.1293 0.0
C1088 C 0.28488 0.48131 1.00345 0.0
N1089 N 0.28764 0.5323 0.95232 0.0
C1090 C 0.29588 0.47273 0.96924 0.0
C1091 C 0.27587 0.51616 0.01169 0.0
C1092 C 0.29697 0.49879 0.94376 0.0
C1093 C 0.27726 0.54145 0.98549 0.0
C1094 C 0.34403 0.39303 0.05536 0.0
C1095 C 0.35377 0.41216 0.02571 0.0
C1096 C 0.3662 0.36957 0.0697 0.0
C1097 C 0.38538 0.40752 0.01094 0.0
C1098 C 0.39775 0.36595 0.05439 0.0
N1099 N 0.40654 0.38472 0.0255 0.0
C1100 C 0.38445 0.46966 0.09794 0.0
C1101 C 0.36027 0.51168 0.06141 0.0
C1102 C 0.41877 0.48523 0.09237 0.0
N1103 N 0.35612 0.48196 0.08098 0.0
C1104 C 0.39394 0.52767 0.05464 0.0
C1105 C 0.42356 0.51339 0.06897 0.0
H1106 H 0.38044 0.44591 0.11334 0.0
H1107 H 0.33754 0.52161 0.04908 0.0
C1108 C 0.25452 0.38547 0.96169 0.0
N1109 N 0.27422 0.37487 0.98986 0.0
C1110 C 0.25452 0.3682 0.92742 0.0
C1111 C 0.29263 0.32734 0.95269 0.0
C1112 C 0.29209 0.34568 0.98651 0.0
C1113 C 0.27452 0.33951 0.92279 0.0
H1114 H 0.23981 0.40815 0.9658 0.0
H1115 H 0.30651 0.33718 0.00983 0.0
O1116 O 0.27562 0.45918 0.11001 0.0
O1117 O 0.23092 0.39777 0.05502 0.0
O1118 O 0.28332 0.45594 0.02875 0.0
O1119 O 0.3135 0.39761 0.07096 0.0
H1120 H 0.21334 0.44429 0.13519 0.0
H1121 H 0.32591 0.45538 0.16215 0.0
H1122 H 0.20413 0.42825 0.1977 0.0
H1123 H 0.31477 0.43897 0.22439 0.0
H1124 H 0.2205 0.27329 0.045 0.0
H1125 H 0.16115 0.38367 0.05016 0.0
H1126 H 0.25692 0.33475 0.05182 0.0
H1127 H 0.12636 0.32126 0.04391 0.0
H1128 H 0.17914 0.55648 0.07484 0.0
H1129 H 0.14471 0.47402 0.98587 0.0
H1130 H 0.31306 0.31468 0.16851 0.0
H1131 H 0.2009 0.31903 0.17213 0.0
H1132 H 0.30387 0.44638 0.96238 0.0
H1133 H 0.26896 0.52403 0.03843 0.0
H1134 H 0.30535 0.49241 0.91722 0.0
H1135 H 0.27038 0.56848 0.99164 0.0
H1136 H 0.33744 0.43063 0.01431 0.0
H1137 H 0.35939 0.35442 0.09258 0.0
H1138 H 0.39323 0.42223 0.98806 0.0
H1139 H 0.41539 0.34848 0.06566 0.0
H1140 H 0.44105 0.47344 0.10392 0.0
H1141 H 0.39663 0.54975 0.03694 0.0
H1142 H 0.23972 0.37768 0.90477 0.0
H1143 H 0.3079 0.3049 0.94978 0.0
Li1144 Li 0.8196 0.20445 0.05621 0.0
Li1145 Li 0.84823 0.15507 0.01796 0.0
Li1146 Li 0.81409 0.20432 0.98568 0.0
Li1147 Li 0.78155 0.15359 0.01783 0.0
C1148 C 0.88422 0.23529 0.04312 0.0
N1149 N 0.93282 0.28218 0.08959 0.0
C1150 C 0.91134 0.22166 0.06297 0.0
C1151 C 0.88177 0.27269 0.04682 0.0
C1152 C 0.93574 0.24586 0.08626 0.0
C1153 C 0.90654 0.29595 0.07059 0.0
C1154 C 0.80295 0.12127 0.07652 0.0
C1155 C 0.77448 0.05854 0.07314 0.0
N1156 N 0.76533 0.06407 0.10747 0.0
C1157 C 0.79401 0.12615 0.11212 0.0
C1158 C 0.79366 0.08704 0.05714 0.0
C1159 C 0.77464 0.09692 0.12711 0.0
C1160 C 0.78332 0.23929 0.1106 0.0
N1161 N 0.8165 0.23226 0.10452 0.0
C1162 C 0.83672 0.25537 0.16641 0.0
C1163 C 0.84317 0.24033 0.1318 0.0
C1164 C 0.8025 0.26257 0.17337 0.0
C1165 C 0.77587 0.2546 0.1444 0.0
H1166 H 0.76196 0.23186 0.08946 0.0
H1167 H 0.86929 0.23405 0.12727 0.0
C1168 C 0.90878 0.11996 0.98956 0.0
N1169 N 0.88714 0.12215 0.017 0.0
C1170 C 0.93325 0.09439 0.98882 0.0
C1171 C 0.9135 0.07376 0.04455 0.0
C1172 C 0.88975 0.09975 0.04446 0.0
C1173 C 0.93572 0.07039 0.01646 0.0
H1174 H 0.90655 0.13742 0.96758 0.0
H1175 H 0.87289 0.10154 0.06632 0.0
C1176 C 0.75697 0.23105 0.01239 0.0
N1177 N 0.7143 0.28196 0.99257 0.0
C1178 C 0.72337 0.21948 0.99451 0.0
C1179 C 0.76889 0.26842 0.0203 0.0
C1180 C 0.70219 0.24568 0.98466 0.0
C1181 C 0.74691 0.29376 0.01004 0.0
C1182 C 0.81148 0.12446 0.94689 0.0
C1183 C 0.80386 0.13345 0.9115 0.0
C1184 C 0.8225 0.09065 0.95255 0.0
C1185 C 0.80748 0.10859 0.88242 0.0
C1186 C 0.82615 0.06667 0.92278 0.0
N1187 N 0.81865 0.07607 0.88862 0.0
C1188 C 0.83042 0.26034 0.9325 0.0
C1189 C 0.77411 0.22471 0.92055 0.0
C1190 C 0.8239 0.28004 0.902 0.0
N1191 N 0.80569 0.23304 0.9415 0.0
C1192 C 0.76669 0.24347 0.88955 0.0
C1193 C 0.79168 0.2718 0.87974 0.0
H1194 H 0.85534 0.26702 0.94903 0.0
H1195 H 0.75448 0.20307 0.92764 0.0
C1196 C 0.72167 0.1286 0.05231 0.0
N1197 N 0.73492 0.12651 0.01943 0.0
C1198 C 0.68805 0.11064 0.05702 0.0
C1199 C 0.67989 0.09271 0.99284 0.0
C1200 C 0.71461 0.10953 0.98969 0.0
C1201 C 0.66669 0.09259 0.02704 0.0
H1202 H 0.737 0.14484 0.07491 0.0
H1203 H 0.72505 0.10982 0.96349 0.0
O1204 O 0.85968 0.21196 0.0208 0.0
O1205 O 0.81846 0.15041 0.05984 0.0
O1206 O 0.77832 0.20592 0.02174 0.0
O1207 O 0.80997 0.14941 0.9756 0.0
H1208 H 0.9134 0.1927 0.06053 0.0
H1209 H 0.86092 0.2836 0.03157 0.0
H1210 H 0.95687 0.23573 0.10183 0.0
H1211 H 0.90498 0.32498 0.07377 0.0
H1212 H 0.76662 0.0321 0.05817 0.0
H1213 H 0.80075 0.15256 0.12746 0.0
H1214 H 0.79993 0.0829 0.02953 0.0
H1215 H 0.76623 0.10048 0.15399 0.0
H1216 H 0.85821 0.26045 0.18772 0.0
H1217 H 0.74892 0.25893 0.14801 0.0
H1218 H 0.94911 0.09257 0.9661 0.0
H1219 H 0.91448 0.05626 0.06664 0.0
H1220 H 0.71386 0.19062 0.98807 0.0
H1221 H 0.79487 0.2777 0.03416 0.0
H1222 H 0.67616 0.23717 0.97068 0.0
H1223 H 0.75577 0.3228 0.01594 0.0
H1224 H 0.79561 0.15945 0.90638 0.0
H1225 H 0.82904 0.0832 0.97953 0.0
H1226 H 0.80172 0.11529 0.85493 0.0
H1227 H 0.83499 0.04059 0.92683 0.0
H1228 H 0.84418 0.30158 0.89579 0.0
H1229 H 0.74134 0.2362 0.87382 0.0
H1230 H 0.67828 0.11224 0.08358 0.0
H1231 H 0.66366 0.07974 0.96897 0.0
Li1232 Li 0.15157 0.53001 0.29344 0.0
Li1233 Li 0.1025 0.5012 0.32703 0.0
Li1234 Li 0.14756 0.46272 0.29455 0.0
Li1235 Li 0.10163 0.49482 0.25548 0.0
C1236 C 0.1849 0.51134 0.36011 0.0
N1237 N 0.24459 0.52672 0.40862 0.0
C1238 C 0.18234 0.52562 0.39548 0.0
C1239 C 0.21798 0.50565 0.34929 0.0
C1240 C 0.21277 0.53279 0.41968 0.0
C1241 C 0.24782 0.51361 0.37413 0.0
C1242 C 0.10276 0.57484 0.29879 0.0
C1243 C 0.09633 0.6353 0.28132 0.0
N1244 N 0.10824 0.6495 0.31556 0.0
C1245 C 0.11476 0.58999 0.33385 0.0
C1246 C 0.09338 0.59759 0.2723 0.0
C1247 C 0.11745 0.62782 0.34177 0.0
C1248 C 0.18525 0.58865 0.25858 0.0
N1249 N 0.18403 0.57492 0.29156 0.0
C1250 C 0.22497 0.62643 0.31846 0.0
C1251 C 0.20331 0.59322 0.32136 0.0
C1252 C 0.2272 0.64056 0.28454 0.0
C1253 C 0.20735 0.62109 0.25427 0.0
H1254 H 0.16867 0.57459 0.23553 0.0
H1255 H 0.20107 0.5829 0.34761 0.0
C1256 C 0.08623 0.49675 0.40292 0.0
N1257 N 0.07521 0.50839 0.37046 0.0
C1258 C 0.0697 0.50502 0.4345 0.0
C1259 C 0.02952 0.53588 0.39902 0.0
C1260 C 0.04721 0.5276 0.3682 0.0
C1261 C 0.04087 0.52496 0.433 0.0
H1262 H 0.10828 0.48137 0.40456 0.0
H1263 H 0.03875 0.53698 0.34246 0.0
C1264 C 0.17741 0.5012 0.22875 0.0
N1265 N 0.22518 0.52546 0.1806 0.0
C1266 C 0.16702 0.49877 0.1917 0.0
C1267 C 0.2127 0.51419 0.24106 0.0
C1268 C 0.19126 0.51189 0.16793 0.0
C1269 C 0.2364 0.52651 0.21634 0.0
C1270 C 0.0639 0.43131 0.2759 0.0
C1271 C 0.06817 0.39956 0.25501 0.0
C1272 C 0.02993 0.43975 0.28017 0.0
C1273 C 0.0382 0.37665 0.2386 0.0
C1274 C 1.00062 0.41615 0.2633 0.0
N1275 N 1.00533 0.38537 0.24304 0.0
C1276 C 0.19783 0.41825 0.32716 0.0
C1277 C 0.18004 0.40165 0.26522 0.0
C1278 C 0.22407 0.39505 0.32657 0.0
N1279 N 0.17726 0.42238 0.29639 0.0
C1280 C 0.20493 0.377 0.26384 0.0
C1281 C 0.22818 0.37429 0.2945 0.0
H1282 H 0.19477 0.4338 0.35212 0.0
H1283 H 0.16357 0.40498 0.24101 0.0
C1284 C 0.0893 0.52746 0.19033 0.0
N1285 N 0.07511 0.49789 0.20696 0.0
C1286 C 0.07694 0.53341 0.15501 0.0
C1287 C 0.03283 0.48025 0.15449 0.0
C1288 C 0.04696 0.47451 0.18973 0.0
C1289 C 0.04841 0.50968 0.13633 0.0
H1290 H 0.11143 0.54595 0.2041 0.0
H1291 H 0.03561 0.45111 0.20285 0.0
O1292 O 0.15501 0.50135 0.33683 0.0
O1293 O 0.10053 0.53793 0.29054 0.0
O1294 O 0.15271 0.49225 0.2526 0.0
O1295 O 0.09287 0.45424 0.29184 0.0
H1296 H 0.15712 0.53069 0.40435 0.0
H1297 H 0.22044 0.49385 0.32243 0.0
H1298 H 0.21104 0.54254 0.44743 0.0
H1299 H 0.27344 0.50872 0.36616 0.0
H1300 H 0.08913 0.65327 0.26111 0.0
H1301 H 0.12237 0.57273 0.3546 0.0
H1302 H 0.08376 0.5863 0.24512 0.0
H1303 H 0.12692 0.63995 0.36872 0.0
H1304 H 0.23917 0.64132 0.34261 0.0
H1305 H 0.20748 0.63174 0.22786 0.0
H1306 H 0.07925 0.49547 0.45982 0.0
H1307 H 1.00731 0.55102 0.3963 0.0
H1308 H 0.14047 0.48689 0.18131 0.0
H1309 H 0.22146 0.51639 0.26946 0.0
H1310 H 0.18306 0.51089 0.13937 0.0
H1311 H 0.26357 0.53733 0.22564 0.0
H1312 H 0.09436 0.39274 0.25146 0.0
H1313 H 0.02629 0.4643 0.29628 0.0
H1314 H 0.04105 0.35196 0.22234 0.0
H1315 H 0.97414 0.42228 0.26634 0.0
H1316 H 0.24092 0.39329 0.35102 0.0
H1317 H 0.20698 0.36135 0.23852 0.0
H1318 H 0.08969 0.55665 0.14238 0.0
H1319 H 1.01079 0.46121 0.14119 0.0
Li1320 Li 0.74614 0.95041 0.56248 0.0
Li1321 Li 0.76953 0.90409 0.59355 0.0
Li1322 Li 0.8113 0.95152 0.57513 0.0
Li1323 Li 0.77589 0.90336 0.53267 0.0
C1324 C 0.77032 0.95144 0.64465 0.0
N1325 N 0.75913 0.93304 0.71389 0.0
C1326 C 0.7359 0.94368 0.65466 0.0
C1327 C 0.79914 0.94983 0.6697 0.0
C1328 C 0.73078 0.93443 0.6898 0.0
C1329 C 0.7929 0.94048 0.70464 0.0
C1330 C 0.71152 0.86351 0.551 0.0
C1331 C 0.70789 0.79767 0.54607 0.0
N1332 N 0.67195 0.79456 0.54414 0.0
C1333 C 0.67456 0.85967 0.549 0.0
C1334 C 0.72837 0.83229 0.5496 0.0
C1335 C 0.65502 0.82457 0.54556 0.0
C1336 C 0.68911 0.96575 0.52141 0.0
N1337 N 0.71073 0.97858 0.55163 0.0
C1338 C 0.68191 0.0314 0.55908 0.0
C1339 C 0.70811 0.01085 0.57034 0.0
C1340 C 0.65857 0.01819 0.52848 0.0
C1341 C 0.66258 0.98522 0.5093 0.0
H1342 H 0.69249 0.94024 0.50687 0.0
H1343 H 0.72647 0.02059 0.59376 0.0
C1344 C 0.79095 0.85379 0.63796 0.0
N1345 N 0.76161 0.86855 0.62777 0.0
C1346 C 0.78894 0.82524 0.66028 0.0
C1347 C 0.7263 0.82763 0.66209 0.0
C1348 C 0.72937 0.85554 0.63851 0.0
C1349 C 0.7566 0.81259 0.67374 0.0
H1350 H 0.81614 0.86463 0.62916 0.0
H1351 H 0.70619 0.86722 0.62932 0.0
C1352 C 0.78476 0.98137 0.50349 0.0
N1353 N 0.78731 0.03247 0.45247 0.0
C1354 C 0.79562 0.97285 0.46921 0.0
C1355 C 0.77581 0.01621 0.51188 0.0
C1356 C 0.79659 0.99896 0.44379 0.0
C1357 C 0.77708 0.04156 0.48573 0.0
C1358 C 0.84402 0.89305 0.5553 0.0
C1359 C 0.8537 0.91214 0.5256 0.0
C1360 C 0.86624 0.86965 0.56966 0.0
C1361 C 0.8853 0.90752 0.5108 0.0
C1362 C 0.89778 0.86606 0.55432 0.0
N1363 N 0.90651 0.88478 0.52539 0.0
C1364 C 0.88445 0.96965 0.59791 0.0
C1365 C 0.86028 0.01166 0.56136 0.0
C1366 C 0.91877 0.98522 0.59235 0.0
N1367 N 0.85613 0.98195 0.58095 0.0
C1368 C 0.89395 0.02765 0.5546 0.0
C1369 C 0.92357 0.01338 0.56894 0.0
H1370 H 0.88044 0.94591 0.61331 0.0
H1371 H 0.83755 0.0216 0.54902 0.0
C1372 C 0.75447 0.88545 0.46167 0.0
N1373 N 0.77418 0.87485 0.48984 0.0
C1374 C 0.75448 0.86817 0.42741 0.0
C1375 C 0.79259 0.82732 0.45268 0.0
C1376 C 0.79205 0.84567 0.4865 0.0
C1377 C 0.77448 0.83949 0.42278 0.0
H1378 H 0.73975 0.90813 0.46579 0.0
H1379 H 0.80647 0.83717 0.50982 0.0
O1380 O 0.77562 0.95917 0.61001 0.0
O1381 O 0.7309 0.89776 0.55503 0.0
O1382 O 0.7833 0.95594 0.52874 0.0
O1383 O 0.8135 0.89761 0.57092 0.0
H1384 H 0.71339 0.94428 0.63526 0.0
H1385 H 0.82597 0.95537 0.6621 0.0
H1386 H 0.70424 0.92825 0.69778 0.0
H1387 H 0.8149 0.93897 0.72435 0.0
H1388 H 0.72058 0.77328 0.54501 0.0
H1389 H 0.66114 0.8836 0.55014 0.0
H1390 H 0.75695 0.83477 0.55184 0.0
H1391 H 0.62639 0.82118 0.54387 0.0
H1392 H 0.67911 0.05645 0.57485 0.0
H1393 H 0.6447 0.974 0.48587 0.0
H1394 H 0.81308 0.81465 0.66848 0.0
H1395 H 0.70093 0.81905 0.67214 0.0
H1396 H 0.80358 0.94651 0.46225 0.0
H1397 H 0.76903 0.02404 0.53868 0.0
H1398 H 0.80486 0.99263 0.41718 0.0
H1399 H 0.77024 0.06858 0.49199 0.0
H1400 H 0.83731 0.93055 0.51416 0.0
H1401 H 0.85949 0.85455 0.59258 0.0
H1402 H 0.8931 0.92219 0.48789 0.0
H1403 H 0.91546 0.84863 0.56561 0.0
H1404 H 0.94105 0.97343 0.6039 0.0
H1405 H 0.89665 0.04973 0.5369 0.0
H1406 H 0.73967 0.87764 0.40476 0.0
H1407 H 0.80787 0.80489 0.44977 0.0
Li1408 Li 0.89757 0.06538 0.28163 0.0
Li1409 Li 0.84842 0.0234 0.24354 0.0
Li1410 Li 0.89507 0.06867 0.21644 0.0
Li1411 Li 0.85141 0.09216 0.25144 0.0
C1412 C 0.93073 0.01136 0.25003 0.0
N1413 N 0.99266 0.98198 0.26219 0.0
C1414 C 0.92945 0.97394 0.25409 0.0
C1415 C 0.96342 0.03391 0.25229 0.0
C1416 C 0.9611 0.95958 0.26017 0.0
C1417 C 0.99445 0.01852 0.25844 0.0
C1418 C 0.82241 0.06454 0.30983 0.0
C1419 C 0.76161 0.06866 0.31965 0.0
N1420 N 0.77208 0.08327 0.35408 0.0
C1421 C 0.83264 0.0795 0.34529 0.0
C1422 C 0.78668 0.0589 0.29685 0.0
C1423 C 0.80675 0.08882 0.36726 0.0
C1424 C 0.94777 0.09191 0.34255 0.0
N1425 N 0.92567 0.06325 0.32452 0.0
C1426 C 0.93786 0.02391 0.37036 0.0
C1427 C 0.9204 0.02982 0.33765 0.0
C1428 C 0.96048 0.05291 0.38993 0.0
C1429 C 0.96562 0.08729 0.37584 0.0
H1430 H 0.95098 0.11832 0.33146 0.0
H1431 H 0.90213 1.00789 0.32279 0.0
C1432 C 0.82823 0.94485 0.21973 0.0
N1433 N 0.82532 0.9722 0.24551 0.0
C1434 C 0.81523 0.9081 0.22438 0.0
C1435 C 0.79806 0.92766 0.28278 0.0
C1436 C 0.81049 0.96404 0.27663 0.0
C1437 C 0.80036 0.89896 0.25655 0.0
H1438 H 0.84163 0.95129 0.19595 0.0
H1439 H 0.80943 0.98564 0.29748 0.0
C1440 C 0.90942 0.14264 0.24053 0.0
N1441 N 0.92025 0.20946 0.21127 0.0
C1442 C 0.88911 0.14862 0.20917 0.0
C1443 C 0.93505 0.17071 0.25719 0.0
C1444 C 0.8951 0.18253 0.19471 0.0
C1445 C 0.94014 0.20431 0.24197 0.0
C1446 C 0.83391 0.03873 0.17163 0.0
C1447 C 0.85084 0.05002 0.14152 0.0
C1448 C 0.80832 1.00756 0.16763 0.0
C1449 C 0.84429 0.02801 0.10888 0.0
C1450 C 0.80231 0.98637 0.13451 0.0
N1451 N 0.82048 0.99681 0.10611 0.0
C1452 C 0.93184 0.03587 0.1642 0.0
C1453 C 0.9475 0.10023 0.16713 0.0
C1454 C 0.95566 0.03122 0.13833 0.0
N1455 N 0.92801 0.0699 0.17826 0.0
C1456 C 0.9712 0.09683 0.14042 0.0
C1457 C 0.97576 0.06188 0.12582 0.0
H1458 H 0.91618 0.01208 0.17309 0.0
H1459 H 0.94501 0.12716 0.1788 0.0
C1460 C 0.82655 0.15318 0.29096 0.0
N1461 N 0.8234 0.13228 0.25878 0.0
C1462 C 0.8066 0.1821 0.29576 0.0
C1463 C 0.78164 0.16857 0.23388 0.0
C1464 C 0.80162 0.1397 0.23046 0.0
C1465 C 0.78393 0.19032 0.26687 0.0
H1466 H 0.84459 0.14746 0.313 0.0
H1467 H 0.80026 0.12342 0.20503 0.0
O1468 O 0.90008 0.02588 0.2439 0.0
O1469 O 0.8473 0.05507 0.28804 0.0
O1470 O 0.90333 0.11009 0.25585 0.0
O1471 O 0.84022 0.05935 0.20416 0.0
H1472 H 0.9043 0.9562 0.25253 0.0
H1473 H 0.96476 0.063 0.24941 0.0
H1474 H 0.96057 0.93064 0.26328 0.0
H1475 H 0.01996 0.03561 0.26024 0.0
H1476 H 0.73383 0.06458 0.30998 0.0
H1477 H 0.86026 0.08391 0.35566 0.0
H1478 H 0.77848 0.04725 0.26942 0.0
H1479 H 0.81423 0.10045 0.39477 0.0
H1480 H 0.93313 0.99708 0.38054 0.0
H1481 H 0.98273 0.11028 0.39055 0.0
H1482 H 0.81822 0.88691 0.20366 0.0
H1483 H 0.78706 0.92206 0.30811 0.0
H1484 H 0.86913 0.12727 0.19594 0.0
H1485 H 0.95071 0.16663 0.28174 0.0
H1486 H 0.87977 0.18733 0.1703 0.0
H1487 H 0.95985 0.2263 0.2546 0.0
H1488 H 0.86856 0.07563 0.14315 0.0
H1489 H 0.79306 0.9999 0.18988 0.0
H1490 H 0.85749 0.03604 0.0855 0.0
H1491 H 0.78305 0.96177 0.13132 0.0
H1492 H 0.95747 1.00361 0.1276 0.0
H1493 H 0.98577 0.12125 0.13137 0.0
H1494 H 0.80867 0.19757 0.32185 0.0
H1495 H 0.76477 0.17401 0.21068 0.0
Li1496 Li 0.31959 0.70445 0.55621 0.0
Li1497 Li 0.34821 0.65506 0.51796 0.0
Li1498 Li 0.31408 0.70431 0.48568 0.0
Li1499 Li 0.2815 0.65356 0.51783 0.0
C1500 C 0.38422 0.73528 0.54311 0.0
N1501 N 0.43283 0.78217 0.58958 0.0
C1502 C 0.41134 0.72166 0.56297 0.0
C1503 C 0.38178 0.77269 0.54682 0.0
C1504 C 0.43574 0.74585 0.58626 0.0
C1505 C 0.40655 0.79594 0.57058 0.0
C1506 C 0.30294 0.62127 0.57652 0.0
C1507 C 0.27449 0.55853 0.57314 0.0
N1508 N 0.26534 0.56406 0.60747 0.0
C1509 C 0.294 0.62614 0.61212 0.0
C1510 C 0.29365 0.58703 0.55713 0.0
C1511 C 0.27465 0.59691 0.62711 0.0
C1512 C 0.28332 0.7393 0.6106 0.0
N1513 N 0.3165 0.73226 0.60452 0.0
C1514 C 0.33672 0.75538 0.66641 0.0
C1515 C 0.34317 0.74034 0.6318 0.0
C1516 C 0.3025 0.76258 0.67337 0.0
C1517 C 0.27587 0.75461 0.64439 0.0
H1518 H 0.26196 0.73186 0.58946 0.0
H1519 H 0.36929 0.73406 0.62727 0.0
C1520 C 0.40877 0.61995 0.48956 0.0
N1521 N 0.38713 0.62214 0.51701 0.0
C1522 C 0.43325 0.59438 0.48883 0.0
C1523 C 0.41349 0.57375 0.54455 0.0
C1524 C 0.38974 0.59975 0.54447 0.0
C1525 C 0.43572 0.57039 0.51647 0.0
H1526 H 0.40655 0.63741 0.46759 0.0
H1527 H 0.37289 0.60153 0.56632 0.0
C1528 C 0.25697 0.73105 0.51239 0.0
N1529 N 0.21431 0.78198 0.49256 0.0
C1530 C 0.22337 0.71949 0.49451 0.0
C1531 C 0.2689 0.76842 0.52029 0.0
C1532 C 0.20219 0.74569 0.48466 0.0
C1533 C 0.24692 0.79376 0.51004 0.0
C1534 C 0.31147 0.62445 0.44689 0.0
C1535 C 0.30385 0.63345 0.4115 0.0
C1536 C 0.32249 0.59064 0.45255 0.0
C1537 C 0.30746 0.60859 0.38242 0.0
C1538 C 0.32613 0.56666 0.42278 0.0
N1539 N 0.31863 0.57607 0.38861 0.0
C1540 C 0.33041 0.76034 0.4325 0.0
C1541 C 0.27411 0.72471 0.42055 0.0
C1542 C 0.3239 0.78004 0.40199 0.0
N1543 N 0.30568 0.73304 0.4415 0.0
C1544 C 0.26669 0.74347 0.38956 0.0
C1545 C 0.29168 0.7718 0.37974 0.0
H1546 H 0.35534 0.76702 0.44903 0.0
H1547 H 0.25447 0.70306 0.42764 0.0
C1548 C 0.22155 0.62852 0.55228 0.0
N1549 N 0.23482 0.62647 0.5194 0.0
C1550 C 0.18789 0.61063 0.55694 0.0
C1551 C 0.17976 0.59276 0.49275 0.0
C1552 C 0.21451 0.60953 0.48964 0.0
C1553 C 0.16653 0.59264 0.52693 0.0
H1554 H 0.23689 0.6447 0.57491 0.0
H1555 H 0.22497 0.60982 0.46345 0.0
O1556 O 0.35968 0.71195 0.5208 0.0
O1557 O 0.31843 0.6504 0.55983 0.0
O1558 O 0.27831 0.70591 0.52174 0.0
O1559 O 0.30995 0.6494 0.47561 0.0
H1560 H 0.4134 0.69269 0.56053 0.0
H1561 H 0.36093 0.7836 0.53157 0.0
H1562 H 0.45688 0.73572 0.60183 0.0
H1563 H 0.405 0.82497 0.57376 0.0
H1564 H 0.26663 0.5321 0.55817 0.0
H1565 H 0.30074 0.65255 0.62746 0.0
H1566 H 0.29992 0.58291 0.52953 0.0
H1567 H 0.26624 0.60046 0.65399 0.0
H1568 H 0.35821 0.76046 0.68772 0.0
H1569 H 0.24892 0.75893 0.64801 0.0
H1570 H 0.44911 0.59257 0.46611 0.0
H1571 H 0.41447 0.55626 0.56664 0.0
H1572 H 0.21385 0.69063 0.48807 0.0
H1573 H 0.29488 0.77769 0.53416 0.0
H1574 H 0.17616 0.73719 0.47068 0.0
H1575 H 0.2558 0.82281 0.51594 0.0
H1576 H 0.29561 0.65945 0.40638 0.0
H1577 H 0.32903 0.58319 0.47952 0.0
H1578 H 0.3017 0.61529 0.35493 0.0
H1579 H 0.33497 0.54058 0.42683 0.0
H1580 H 0.34418 0.80158 0.39579 0.0
H1581 H 0.24134 0.7362 0.37382 0.0
H1582 H 0.17811 0.61221 0.58349 0.0
H1583 H 0.16353 0.57981 0.46886 0.0
Li1584 Li 0.34843 0.52342 0.74354 0.0
Li1585 Li 0.39757 0.5654 0.78163 0.0
Li1586 Li 0.35141 0.59218 0.75144 0.0
Li1587 Li 0.39508 0.56869 0.71644 0.0
C1588 C 0.32243 0.56457 0.80984 0.0
N1589 N 0.27212 0.5833 0.85412 0.0
C1590 C 0.33267 0.57952 0.84529 0.0
C1591 C 0.28669 0.55893 0.79688 0.0
C1592 C 0.3068 0.58885 0.86728 0.0
C1593 C 0.26163 0.56869 0.81969 0.0
C1594 C 0.43072 0.51137 0.75008 0.0
C1595 C 0.49444 0.5185 0.75854 0.0
N1596 N 0.49263 0.48197 0.76236 0.0
C1597 C 0.42942 0.47396 0.75422 0.0
C1598 C 0.46342 0.5339 0.75232 0.0
C1599 C 0.46105 0.4596 0.76035 0.0
C1600 C 0.32824 0.44487 0.71973 0.0
N1601 N 0.32533 0.47222 0.74551 0.0
C1602 C 0.29808 0.42768 0.78278 0.0
C1603 C 0.31051 0.46406 0.77663 0.0
C1604 C 0.30038 0.39898 0.75656 0.0
C1605 C 0.31524 0.40812 0.72438 0.0
H1606 H 0.34164 0.45131 0.69595 0.0
H1607 H 0.30945 0.48566 0.79748 0.0
C1608 C 0.44782 0.5919 0.84252 0.0
N1609 N 0.42566 0.56326 0.82452 0.0
C1610 C 0.46566 0.58728 0.87582 0.0
C1611 C 0.43777 0.52394 0.87041 0.0
C1612 C 0.42032 0.52986 0.83769 0.0
C1613 C 0.46044 0.55291 0.88994 0.0
H1614 H 0.45108 0.61829 0.83141 0.0
H1615 H 0.40201 0.50794 0.82285 0.0
C1616 C 0.33392 0.53873 0.67163 0.0
N1617 N 0.32047 0.4968 0.60613 0.0
C1618 C 0.35085 0.55001 0.64152 0.0
C1619 C 0.30831 0.50757 0.66765 0.0
C1620 C 0.34429 0.52799 0.60888 0.0
C1621 C 0.3023 0.48638 0.63453 0.0
C1622 C 0.40942 0.64266 0.74052 0.0
C1623 C 0.3891 0.64863 0.70915 0.0
C1624 C 0.43504 0.67074 0.75717 0.0
C1625 C 0.39508 0.68252 0.69469 0.0
C1626 C 0.44012 0.70433 0.74193 0.0
N1627 N 0.42023 0.70947 0.71124 0.0
C1628 C 0.32655 0.65319 0.79096 0.0
C1629 C 0.30162 0.63972 0.73045 0.0
C1630 C 0.3066 0.68212 0.79576 0.0
N1631 N 0.3234 0.6323 0.75878 0.0
C1632 C 0.28164 0.66858 0.73388 0.0
C1633 C 0.28393 0.69033 0.76687 0.0
H1634 H 0.34458 0.64747 0.813 0.0
H1635 H 0.30027 0.62344 0.70503 0.0
C1636 C 0.43187 0.53589 0.66422 0.0
N1637 N 0.42803 0.56992 0.67826 0.0
C1638 C 0.45568 0.53124 0.63835 0.0
C1639 C 0.4712 0.59685 0.6404 0.0
C1640 C 0.4475 0.60025 0.66712 0.0
C1641 C 0.47577 0.56189 0.62582 0.0
H1642 H 0.41621 0.5121 0.67313 0.0
H1643 H 0.445 0.62719 0.67877 0.0
O1644 O 0.3473 0.55509 0.78803 0.0
O1645 O 0.40009 0.5259 0.74389 0.0
O1646 O 0.34024 0.55938 0.70416 0.0
O1647 O 0.40334 0.61012 0.75585 0.0
H1648 H 0.3603 0.58393 0.85565 0.0
H1649 H 0.27847 0.54728 0.76945 0.0
H1650 H 0.31428 0.60048 0.89479 0.0
H1651 H 0.23385 0.56461 0.81004 0.0
H1652 H 0.51996 0.53557 0.76032 0.0
H1653 H 0.40426 0.45624 0.75267 0.0
H1654 H 0.46478 0.56298 0.74938 0.0
H1655 H 0.46051 0.43067 0.76352 0.0
H1656 H 0.28708 0.42208 0.80812 0.0
H1657 H 0.31823 0.38693 0.70367 0.0
H1658 H 0.4828 0.61024 0.89051 0.0
H1659 H 0.43298 0.49713 0.8806 0.0
H1660 H 0.36858 0.57561 0.64314 0.0
H1661 H 0.29306 0.49993 0.6899 0.0
H1662 H 0.35749 0.536 0.5855 0.0
H1663 H 0.28303 0.46179 0.63135 0.0
H1664 H 0.36912 0.62726 0.69593 0.0
H1665 H 0.4507 0.66667 0.78172 0.0
H1666 H 0.37975 0.68731 0.67027 0.0
H1667 H 0.45983 0.72633 0.75456 0.0
H1668 H 0.30866 0.69758 0.82185 0.0
H1669 H 0.26477 0.67403 0.71068 0.0
H1670 H 0.4575 0.50362 0.62763 0.0
H1671 H 0.48576 0.62127 0.63134 0.0
Li1672 Li 0.60257 1.00121 0.82706 0.0
Li1673 Li 0.65162 0.03001 0.79343 0.0
Li1674 Li 0.60166 0.99483 0.7555 0.0
Li1675 Li 0.6476 0.96273 0.79455 0.0
C1676 C 0.60283 0.07486 0.7988 0.0
N1677 N 0.60836 0.14953 0.8155 0.0
C1678 C 0.61482 0.09002 0.83385 0.0
C1679 C 0.59348 0.0976 0.77227 0.0
C1680 C 0.61754 0.12786 0.84174 0.0
C1681 C 0.59646 0.13531 0.78127 0.0
C1682 C 0.68497 0.01134 0.8601 0.0
C1683 C 0.74789 0.01359 0.87415 0.0
N1684 N 0.74466 0.0267 0.90863 0.0
C1685 C 0.68241 0.02563 0.89547 0.0
C1686 C 0.71805 1.00564 0.8493 0.0
C1687 C 0.71283 0.03279 0.91969 0.0
C1688 C 0.58631 0.99675 0.90296 0.0
N1689 N 0.57531 0.00839 0.8705 0.0
C1690 C 0.52962 0.0359 0.89905 0.0
C1691 C 0.54732 0.02761 0.86824 0.0
C1692 C 0.54095 0.02497 0.93303 0.0
C1693 C 0.56978 1.00502 0.93453 0.0
H1694 H 0.60836 0.98135 0.9046 0.0
H1695 H 0.53887 0.037 0.84249 0.0
C1696 C 0.6853 0.08865 0.75857 0.0
N1697 N 0.68407 0.07492 0.79155 0.0
C1698 C 0.70739 0.12109 0.75425 0.0
C1699 C 0.725 0.12643 0.81845 0.0
C1700 C 0.70335 0.09322 0.82135 0.0
C1701 C 0.72723 0.14056 0.78453 0.0
H1702 H 0.66872 0.07459 0.73552 0.0
H1703 H 0.7011 0.0829 0.8476 0.0
C1704 C 0.56393 0.93133 0.77594 0.0
N1705 N 0.50534 0.88543 0.74308 0.0
C1706 C 0.56818 0.89958 0.75503 0.0
C1707 C 0.52997 0.93979 0.78023 0.0
C1708 C 0.53819 0.8767 0.73863 0.0
C1709 C 0.50065 0.9162 0.76336 0.0
C1710 C 0.67743 1.00118 0.72874 0.0
C1711 C 0.66704 0.99873 0.69169 0.0
C1712 C 0.71272 0.01418 0.74105 0.0
C1713 C 0.69127 0.01185 0.66791 0.0
C1714 C 0.73641 0.0265 0.71632 0.0
N1715 N 0.72519 0.02543 0.68057 0.0
C1716 C 0.58935 0.02745 0.69032 0.0
C1717 C 0.54695 0.97455 0.68977 0.0
C1718 C 0.57698 0.03339 0.655 0.0
N1719 N 0.57513 0.9979 0.70698 0.0
C1720 C 0.53282 0.98029 0.65453 0.0
C1721 C 0.54842 0.00969 0.63634 0.0
H1722 H 0.61149 0.04592 0.70408 0.0
H1723 H 0.53557 0.95117 0.70291 0.0
C1724 C 0.69785 0.91825 0.82715 0.0
N1725 N 0.67729 0.92238 0.79639 0.0
C1726 C 0.72409 0.89505 0.82657 0.0
C1727 C 0.70495 0.87699 0.76384 0.0
C1728 C 0.68006 0.90164 0.76521 0.0
C1729 C 0.72819 0.87428 0.79451 0.0
H1730 H 0.69479 0.93381 0.85211 0.0
H1731 H 0.66359 0.90498 0.74101 0.0
O1732 O 0.60058 0.03794 0.79057 0.0
O1733 O 0.65508 1.00136 0.83682 0.0
O1734 O 0.59291 0.95426 0.79187 0.0
O1735 O 0.65273 0.99225 0.7526 0.0
H1736 H 0.6224 0.07278 0.85462 0.0
H1737 H 0.58387 0.08628 0.7451 0.0
H1738 H 0.627 0.14 0.86869 0.0
H1739 H 0.58928 0.15327 0.76104 0.0
H1740 H 0.7735 0.00869 0.86619 0.0
H1741 H 0.65719 0.03071 0.90433 0.0
H1742 H 0.72052 0.99385 0.82244 0.0
H1743 H 0.7111 0.04255 0.94742 0.0
H1744 H 0.50742 0.05104 0.89632 0.0
H1745 H 0.57931 0.99545 0.95986 0.0
H1746 H 0.70752 0.13175 0.72785 0.0
H1747 H 0.73919 0.14133 0.8426 0.0
H1748 H 0.59436 0.89276 0.75146 0.0
H1749 H 0.52635 0.96433 0.79635 0.0
H1750 H 0.54103 0.85201 0.72235 0.0
H1751 H 0.47418 0.92235 0.76642 0.0
H1752 H 0.64049 0.98685 0.68131 0.0
H1753 H 0.72148 0.0164 0.76945 0.0
H1754 H 0.68307 0.01084 0.63936 0.0
H1755 H 0.76359 0.03732 0.72561 0.0
H1756 H 0.58975 0.05661 0.64236 0.0
H1757 H 0.51074 0.96126 0.64125 0.0
H1758 H 0.74093 0.89329 0.85102 0.0
H1759 H 0.70699 0.86134 0.73852 0.0
Li1760 Li 0.76734 0.67194 0.02506 0.0
Li1761 Li 0.79644 0.62682 0.99488 0.0
Li1762 Li 0.77251 0.67439 0.9626 0.0
Li1763 Li 0.73431 0.62319 0.98458 0.0
C1764 C 0.8381 0.70233 0.98909 0.0
N1765 N 0.89068 0.7463 0.95914 0.0
C1766 C 0.86467 0.68678 0.9725 0.0
C1767 C 0.83853 0.74031 0.99082 0.0
C1768 C 0.89095 0.70947 0.95743 0.0
C1769 C 0.8653 0.76205 0.97546 0.0
C1770 C 0.777 0.59963 0.05541 0.0
C1771 C 0.7944 0.54263 0.07312 0.0
N1772 N 0.8109 0.56027 0.10453 0.0
C1773 C 0.79431 0.61717 0.08789 0.0
C1774 C 0.7772 0.56202 0.04796 0.0
C1775 C 0.81122 0.59681 0.11234 0.0
C1776 C 0.73864 0.68621 0.08783 0.0
N1777 N 0.76538 0.69901 0.0682 0.0
C1778 C 0.78638 0.74796 0.11288 0.0
C1779 C 0.7892 0.72909 0.07978 0.0
C1780 C 0.75905 0.7351 0.1337 0.0
C1781 C 0.73484 0.70409 0.12095 0.0
H1782 H 0.7206 0.66179 0.07778 0.0
H1783 H 0.8105 0.738 0.06363 0.0
C1784 C 0.83552 0.56674 0.98603 0.0
N1785 N 0.83365 0.59988 1.00343 0.0
C1786 C 0.86201 0.54663 0.99753 0.0
C1787 C 0.88319 0.59509 0.04473 0.0
C1788 C 0.85676 0.6143 0.03209 0.0
C1789 C 0.88615 0.56098 0.02721 0.0
H1790 H 0.81627 0.55584 0.96367 0.0
H1791 H 0.85402 0.64048 0.04558 0.0
C1792 C 0.71096 0.69937 1.00482 0.0
N1793 N 0.6757 0.74683 0.04407 0.0
C1794 C 0.67862 0.68657 0.01775 0.0
C1795 C 0.72529 0.73637 0.01176 0.0
C1796 C 0.66131 0.71098 0.03767 0.0
C1797 C 0.70702 0.75992 0.03156 0.0
C1798 C 0.74622 0.60042 0.92084 0.0
C1799 C 0.7296 0.61741 0.89322 0.0
C1800 C 0.73884 0.56247 0.92204 0.0
C1801 C 0.70576 0.59601 0.86712 0.0
C1802 C 0.71482 0.54204 0.89544 0.0
N1803 N 0.69893 0.55909 0.86876 0.0
C1804 C 0.80647 0.71189 0.9072 0.0
C1805 C 0.75368 0.73199 0.92466 0.0
C1806 C 0.81144 0.73998 0.88412 0.0
N1807 N 0.77822 0.70886 0.92732 0.0
C1808 C 0.75732 0.76005 0.90169 0.0
C1809 C 0.78625 0.76405 0.88072 0.0
H1810 H 0.82495 0.69237 0.90883 0.0
H1811 H 0.73066 0.72813 0.93959 0.0
C1812 C 0.68622 0.56636 1.00358 0.0
N1813 N 0.69017 0.59207 0.97933 0.0
C1814 C 0.65283 0.54845 1.00858 0.0
C1815 C 0.62799 0.58221 0.96191 0.0
C1816 C 0.66214 0.5995 0.95773 0.0
C1817 C 0.62306 0.55747 0.98875 0.0
H1818 H 0.70856 0.56165 0.02107 0.0
H1819 H 0.66594 0.62077 0.93928 0.0
O1820 O 0.81152 0.68051 1.00308 0.0
O1821 O 0.76068 0.6192 0.03072 0.0
O1822 O 0.72893 0.67566 0.98625 0.0
O1823 O 0.76966 0.62086 0.94657 0.0
H1824 H 0.86463 0.65747 0.97051 0.0
H1825 H 0.81802 0.75281 1.00319 0.0
H1826 H 0.91147 0.69776 0.94422 0.0
H1827 H 0.86577 0.79142 0.97632 0.0
H1828 H 0.79491 0.51361 0.06751 0.0
H1829 H 0.79543 0.64627 0.09403 0.0
H1830 H 0.76504 0.54804 0.02254 0.0
H1831 H 0.82482 0.61013 0.13743 0.0
H1832 H 0.80574 0.77158 0.12247 0.0
H1833 H 0.71367 0.69337 0.13665 0.0
H1834 H 0.86404 0.52066 0.98301 0.0
H1835 H 0.90168 0.60731 0.06733 0.0
H1836 H 0.66734 0.65799 0.01313 0.0
H1837 H 0.75065 0.74665 1.00264 0.0
H1838 H 0.63667 0.70134 0.04844 0.0
H1839 H 0.71795 0.78852 0.03732 0.0
H1840 H 0.73503 0.64678 0.89196 0.0
H1841 H 0.75136 0.549 0.94342 0.0
H1842 H 0.6927 0.60875 0.84554 0.0
H1843 H 0.70878 0.51264 0.89604 0.0
H1844 H 0.83354 0.74134 0.86761 0.0
H1845 H 0.73666 0.77724 0.89894 0.0
H1846 H 0.65028 0.52959 0.02955 0.0
H1847 H 0.60564 0.59018 0.94624 0.0
Li1848 Li 0.88973 0.54685 0.76897 0.0
Li1849 Li 0.94135 0.58745 0.80481 0.0
Li1850 Li 0.89439 0.61535 0.76572 0.0
Li1851 Li 0.93964 0.57831 0.73678 0.0
C1852 C 0.85654 0.58571 0.82156 0.0
N1853 N 0.79052 0.58348 0.84705 0.0
C1854 C 0.85324 0.58792 0.8588 0.0
C1855 C 0.8262 0.58185 0.7973 0.0
C1856 C 0.81965 0.58686 0.87114 0.0
C1857 C 0.79307 0.58097 0.81071 0.0
C1858 C 0.95965 0.51708 0.75646 0.0
C1859 C 0.01494 0.50087 0.73823 0.0
N1860 N 0.99705 0.47032 0.71901 0.0
C1861 C 0.94186 0.48548 0.7366 0.0
C1862 C 0.99651 0.52482 0.75735 0.0
C1863 C 0.96122 0.46217 0.71786 0.0
C1864 C 0.84315 0.48221 0.74106 0.0
N1865 N 0.85652 0.50367 0.77159 0.0
C1866 C 0.82511 0.46205 0.80841 0.0
C1867 C 0.84784 0.49434 0.80487 0.0
C1868 C 0.81189 0.43892 0.77743 0.0
C1869 C 0.82067 0.44953 0.74337 0.0
H1870 H 0.8511 0.4897 0.715 0.0
H1871 H 0.85946 0.51137 0.82883 0.0
C1872 C 0.9555 0.60407 0.88329 0.0
N1873 N 0.96886 0.58904 0.8537 0.0
C1874 C 0.96887 0.59871 0.91869 0.0
C1875 C 0.01213 0.56555 0.89331 0.0
C1876 C 0.99719 0.57054 0.85834 0.0
C1877 C 0.99731 0.5787 0.92426 0.0
H1878 H 0.93339 0.61907 0.87952 0.0
H1879 H 1.00741 0.55813 0.83498 0.0
C1880 C 0.868 0.57391 0.6931 0.0
N1881 N 0.83019 0.57243 0.62633 0.0
C1882 C 0.88327 0.5918 0.66508 0.0
C1883 C 0.83326 0.55563 0.68724 0.0
C1884 C 0.86382 0.59064 0.6315 0.0
C1885 C 0.81464 0.55511 0.6533 0.0
C1886 C 0.97539 0.65025 0.78772 0.0
C1887 C 0.9703 0.68571 0.79951 0.0
C1888 C 1.00839 0.63901 0.79514 0.0
C1889 C 0.99814 0.70913 0.8192 0.0
C1890 C 0.03557 0.66318 0.81495 0.0
N1891 N 0.02992 0.69745 0.82651 0.0
C1892 C 0.86622 0.68323 0.78654 0.0
C1893 C 0.83371 0.64816 0.73623 0.0
C1894 C 0.84175 0.70836 0.78613 0.0
N1895 N 0.86213 0.65366 0.76168 0.0
C1896 C 0.80803 0.67193 0.73562 0.0
C1897 C 0.81165 0.70248 0.76093 0.0
H1898 H 0.88786 0.68684 0.80755 0.0
H1899 H 0.82993 0.62452 0.71702 0.0
C1900 C 0.95217 0.54587 0.66467 0.0
N1901 N 0.96659 0.5706 0.69289 0.0
C1902 C 0.9707 0.53982 0.63387 0.0
C1903 C 0.01913 0.5839 0.66162 0.0
C1904 C 0.99967 0.58935 0.69167 0.0
C1905 C 1.00477 0.559 0.63191 0.0
H1906 H 0.92621 0.53047 0.66606 0.0
H1907 H 1.01128 0.60837 0.71427 0.0
O1908 O 0.8892 0.58632 0.8089 0.0
O1909 O 0.94102 0.54082 0.77404 0.0
O1910 O 0.88699 0.57418 0.72598 0.0
O1911 O 0.94858 0.62701 0.76805 0.0
H1912 H 0.87621 0.58999 0.87805 0.0
H1913 H 0.82822 0.57924 0.76844 0.0
H1914 H 0.81681 0.58855 0.8999 0.0
H1915 H 0.76937 0.57813 0.79223 0.0
H1916 H 0.04345 0.50665 0.73856 0.0
H1917 H 0.91343 0.47907 0.73545 0.0
H1918 H 1.01077 0.54931 0.77213 0.0
H1919 H 0.94774 0.43765 0.70234 0.0
H1920 H 0.81953 0.45435 0.83518 0.0
H1921 H 0.8114 0.43203 0.71888 0.0
H1922 H 0.9565 0.60953 0.94153 0.0
H1923 H 0.03375 0.54961 0.89599 0.0
H1924 H 0.91003 0.60609 0.6691 0.0
H1925 H 0.82055 0.54242 0.70879 0.0
H1926 H 0.87548 0.60416 0.60953 0.0
H1927 H 0.7878 0.54105 0.64844 0.0
H1928 H 0.94536 0.6953 0.793 0.0
H1929 H 0.01294 0.61189 0.78574 0.0
H1930 H 0.99454 0.73665 0.82851 0.0
H1931 H 0.06118 0.65473 0.82106 0.0
H1932 H 0.84579 0.73154 0.80619 0.0
H1933 H 0.7853 0.66617 0.71574 0.0
H1934 H 0.95883 0.51962 0.61236 0.0
H1935 H 0.0454 0.59921 0.66169 0.0
Li1936 Li 0.72852 0.37403 0.57538 0.0
Li1937 Li 0.69683 0.42228 0.54172 0.0
Li1938 Li 0.72345 0.37091 0.50475 0.0
Li1939 Li 0.76177 0.42233 0.54123 0.0
C1940 C 0.65752 0.34264 0.51993 0.0
N1941 N 0.60527 0.29535 0.47817 0.0
C1942 C 0.62898 0.35616 0.50241 0.0
C1943 C 0.65956 0.30515 0.51626 0.0
C1944 C 0.60274 0.33176 0.48151 0.0
C1945 C 0.63293 0.28169 0.49487 0.0
C1946 C 0.72169 0.45053 0.60936 0.0
C1947 C 0.7109 0.50974 0.63359 0.0
N1948 N 0.69236 0.49337 0.65926 0.0
C1949 C 0.70258 0.43425 0.63594 0.0
C1950 C 0.72602 0.48855 0.60815 0.0
C1951 C 0.68797 0.45641 0.66097 0.0
C1952 C 0.76538 0.35719 0.64382 0.0
N1953 N 0.7357 0.3463 0.62046 0.0
C1954 C 0.71835 0.29748 0.65829 0.0
C1955 C 0.7123 0.31689 0.62746 0.0
C1956 C 0.74893 0.30784 0.68269 0.0
C1957 C 0.77264 0.33823 0.67475 0.0
H1958 H 0.78394 0.38053 0.63829 0.0
H1959 H 0.68886 0.30826 0.60902 0.0
C1960 C 0.65765 0.48016 0.51605 0.0
N1961 N 0.65876 0.45632 0.54242 0.0
C1962 C 0.63409 0.50636 0.51604 0.0
C1963 C 0.61155 0.48306 0.56959 0.0
C1964 C 0.63581 0.45731 0.56877 0.0
C1965 C 0.61034 0.50828 0.54296 0.0
H1966 H 0.67534 0.47924 0.49488 0.0
H1967 H 0.63657 0.43851 0.58971 0.0
C1968 C 0.78555 0.34592 0.55255 0.0
N1969 N 0.82776 0.29778 0.57999 0.0
C1970 C 0.81759 0.35927 0.57286 0.0
C1971 C 0.77489 0.30817 0.54619 0.0
C1972 C 0.83858 0.33446 0.58652 0.0
C1973 C 0.79664 0.28425 0.56028 0.0
C1974 C 0.74462 0.45065 0.48142 0.0
C1975 C 0.75981 0.44056 0.44993 0.0
C1976 C 0.75044 0.48722 0.49565 0.0
C1977 C 0.78111 0.46724 0.43351 0.0
C1978 C 0.77172 0.51309 0.47831 0.0
N1979 N 0.78659 0.50262 0.44794 0.0
C1980 C 0.70107 0.33746 0.42857 0.0
C1981 C 0.75869 0.33133 0.45247 0.0
C1982 C 0.7079 0.32243 0.39412 0.0
N1983 N 0.72647 0.34193 0.45713 0.0
C1984 C 0.76652 0.31616 0.41874 0.0
C1985 C 0.74127 0.31184 0.38852 0.0
H1986 H 0.67591 0.34687 0.43196 0.0
H1987 H 0.77923 0.3361 0.47463 0.0
C1988 C 0.82302 0.47885 0.56017 0.0
N1989 N 0.80818 0.44866 0.53832 0.0
C1990 C 0.85774 0.49506 0.55634 0.0
C1991 C 0.86086 0.44912 0.50754 0.0
C1992 C 0.82637 0.43369 0.51246 0.0
C1993 C 0.87702 0.48003 0.52977 0.0
H1994 H 0.80812 0.49008 0.5807 0.0
H1995 H 0.81401 0.40945 0.49574 0.0
O1996 O 0.68346 0.36606 0.54044 0.0
O1997 O 0.73566 0.42929 0.58429 0.0
O1998 O 0.76434 0.36969 0.53947 0.0
O1999 O 0.72538 0.42465 0.49911 0.0
H2000 H 0.62709 0.38516 0.505 0.0
H2001 H 0.68152 0.29433 0.52973 0.0
H2002 H 0.5804 0.34177 0.46789 0.0
H2003 H 0.63414 0.25259 0.49174 0.0
H2004 H 0.71392 0.53921 0.63294 0.0
H2005 H 0.69881 0.40481 0.63704 0.0
H2006 H 0.74077 0.50151 0.5877 0.0
H2007 H 0.67302 0.4442 0.68166 0.0
H2008 H 0.69908 0.27432 0.66293 0.0
H2009 H 0.79696 0.34699 0.69183 0.0
H2010 H 0.63443 0.52501 0.49483 0.0
H2011 H 0.59464 0.48385 0.59154 0.0
H2012 H 0.826 0.38846 0.5783 0.0
H2013 H 0.75004 0.29751 0.53061 0.0
H2014 H 0.86341 0.34436 0.60239 0.0
H2015 H 0.78876 0.25494 0.55559 0.0
H2016 H 0.75575 0.41235 0.43865 0.0
H2017 H 0.7392 0.49539 0.52023 0.0
H2018 H 0.79357 0.45976 0.40951 0.0
H2019 H 0.77669 0.54143 0.4892 0.0
H2020 H 0.68755 0.3203 0.37181 0.0
H2021 H 0.79279 0.30909 0.41618 0.0
H2022 H 0.86944 0.51888 0.57412 0.0
H2023 H 0.87488 0.43664 0.4869 0.0
Li2024 Li 0.64808 0.51064 0.34118 0.0
Li2025 Li 0.69561 0.5524 0.31334 0.0
Li2026 Li 0.64841 0.51029 0.27615 0.0
Li2027 Li 0.69555 0.48408 0.30928 0.0
C2028 C 0.61811 0.56764 0.2934 0.0
N2029 N 0.56641 0.59763 0.25448 0.0
C2030 C 0.62684 0.60049 0.27758 0.0
C2031 C 0.58305 0.55022 0.28975 0.0
C2032 C 0.60033 0.61515 0.2579 0.0
C2033 C 0.5573 0.5658 0.26991 0.0
C2034 C 0.72232 0.5421 0.37989 0.0
C2035 C 0.77963 0.57496 0.40224 0.0
N2036 N 0.76474 0.59108 0.43008 0.0
C2037 C 0.70757 0.55884 0.40877 0.0
C2038 C 0.75863 0.54996 0.37668 0.0
C2039 C 0.72949 0.58353 0.43389 0.0
C2040 C 0.60928 0.48101 0.40114 0.0
N2041 N 0.61587 0.50896 0.37942 0.0
C2042 C 0.57484 0.5418 0.40866 0.0
C2043 C 0.59912 0.53895 0.38295 0.0
C2044 C 0.56763 0.51373 0.43175 0.0
C2045 C 0.58497 0.48275 0.42749 0.0
H2046 H 0.62328 0.45765 0.3986 0.0
H2047 H 0.60512 0.56129 0.36624 0.0
C2048 C 0.73133 0.61142 0.27896 0.0
N2049 N 0.72066 0.60251 0.31173 0.0
C2050 C 0.74355 0.64787 0.27292 0.0
C2051 C 0.73442 0.66592 0.33464 0.0
C2052 C 0.72217 0.62902 0.33947 0.0
C2053 C 0.74479 0.67599 0.30075 0.0
H2054 H 0.72883 0.59045 0.25677 0.0
H2055 H 0.71245 0.62191 0.36494 0.0
C2056 C 0.62378 0.43931 0.31895 0.0
N2057 N 0.58451 0.38309 0.34972 0.0
C2058 C 0.6408 0.41453 0.33809 0.0
C2059 C 0.5868 0.43543 0.31531 0.0
C2060 C 0.62047 0.38627 0.35344 0.0
C2061 C 0.56742 0.40687 0.33116 0.0
C2062 C 0.72526 0.51118 0.25006 0.0
C2063 C 0.71631 0.49232 0.21594 0.0
C2064 C 0.76083 0.5219 0.2625 0.0
C2065 C 0.74326 0.48423 0.19483 0.0
C2066 C 0.78701 0.51332 0.24057 0.0
N2067 N 0.77776 0.4948 0.20749 0.0
C2068 C 0.63607 0.53654 0.21165 0.0
C2069 C 0.59239 0.48599 0.21898 0.0
C2070 C 0.61935 0.54182 0.17841 0.0
N2071 N 0.62228 0.50934 0.23124 0.0
C2072 C 0.57476 0.49014 0.18542 0.0
C2073 C 0.5883 0.5186 0.16509 0.0
H2074 H 0.65988 0.55459 0.22233 0.0
H2075 H 0.58211 0.46459 0.23531 0.0
C2076 C 0.74672 0.43782 0.33187 0.0
N2077 N 0.72374 0.44426 0.30409 0.0
C2078 C 0.76615 0.40846 0.32845 0.0
C2079 C 0.73873 0.39318 0.2676 0.0
C2080 C 0.71922 0.42237 0.27247 0.0
C2081 C 0.76221 0.38553 0.29601 0.0
H2082 H 0.74958 0.45525 0.35683 0.0
H2083 H 0.70038 0.42753 0.25089 0.0
O2084 O 0.64386 0.5522 0.3118 0.0
O2085 O 0.70127 0.5183 0.35473 0.0
O2086 O 0.64318 0.4671 0.30365 0.0
O2087 O 0.69928 0.5193 0.2711 0.0
H2088 H 0.65383 0.61433 0.28016 0.0
H2089 H 0.57594 0.52467 0.3017 0.0
H2090 H 0.6067 0.64048 0.24537 0.0
H2091 H 0.53011 0.55249 0.26664 0.0
H2092 H 0.80777 0.58142 0.40005 0.0
H2093 H 0.67949 0.55295 0.41167 0.0
H2094 H 0.77045 0.53693 0.35464 0.0
H2095 H 0.71846 0.59675 0.45637 0.0
H2096 H 0.56264 0.5665 0.41109 0.0
H2097 H 0.58103 0.4609 0.44533 0.0
H2098 H 0.75099 0.65399 0.24627 0.0
H2099 H 0.73456 0.68647 0.35692 0.0
H2100 H 0.66936 0.41721 0.34138 0.0
H2101 H 0.57321 0.4544 0.30062 0.0
H2102 H 0.63329 0.36698 0.36844 0.0
H2103 H 0.53879 0.40364 0.32877 0.0
H2104 H 0.68884 0.48379 0.206 0.0
H2105 H 0.76809 0.53674 0.28876 0.0
H2106 H 0.73676 0.46953 0.16841 0.0
H2107 H 0.81468 0.5214 0.24984 0.0
H2108 H 0.6306 0.56398 0.1634 0.0
H2109 H 0.55087 0.4717 0.17567 0.0
H2110 H 0.78391 0.40361 0.35119 0.0
H2111 H 0.73567 0.37709 0.24182 0.0
Tb2112 Tb 0.03667 0.07938 0.02609 0.0
C2113 C 0.04703 0.02036 0.96329 0.0
Tb2114 Tb 1.00848 0.99809 0.03267 0.0
O2115 O 0.09189 0.06785 0.02762 0.0
O2116 O 0.05448 0.03476 0.05232 0.0
O2117 O 0.04509 0.05512 0.97318 0.0
C2118 C 1.00727 0.93046 0.05391 0.0
O2119 O 0.03503 0.99294 0.98251 0.0
C2120 C 0.95951 0.04082 0.0161 0.0
C2121 C 0.99819 0.05628 0.09543 0.0
O2122 O 0.98239 0.94087 0.03271 0.0
O2123 O 0.03245 0.9576 0.06172 0.0
O2124 O 0.95359 0.01073 0.03222 0.0
O2125 O 0.99079 0.04275 1.00657 0.0
O2126 O 1.00274 0.02201 0.08645 0.0
O2127 O 1.00865 0.08378 0.07555 0.0
C2128 C 0.03556 0.14503 1.00089 0.0
O2129 O 0.05657 0.13877 0.02856 0.0
O2130 O 0.01546 0.11491 0.98891 0.0
C2131 C 0.08593 0.03732 0.04306 0.0
Tb2132 Tb 0.27781 0.83022 0.28881 0.0
C2133 C 0.34298 0.78656 0.28863 0.0
Tb2134 Tb 0.26205 0.74939 0.27412 0.0
O2135 O 0.30267 0.82526 0.34327 0.0
O2136 O 0.26135 0.7857 0.32085 0.0
O2137 O 0.33163 0.81841 0.2843 0.0
C2138 C 0.24562 0.6778 0.28166 0.0
O2139 O 0.32037 0.75543 0.28679 0.0
C2140 C 0.25529 0.78617 0.21521 0.0
C2141 C 0.19704 0.79329 0.27415 0.0
O2142 O 0.25354 0.69188 0.25176 0.0
O2143 O 0.24847 0.70389 0.30726 0.0
O2144 O 0.23742 0.75454 0.21948 0.0
O2145 O 0.27857 0.79392 0.2421 0.0
O2146 O 0.20821 0.76144 0.27904 0.0
O2147 O 0.21977 0.82422 0.27546 0.0
C2148 C 0.294 0.90156 0.28059 0.0
O2149 O 0.28404 0.88807 0.31015 0.0
O2150 O 0.29343 0.87503 0.2559 0.0
C2151 C 0.2848 0.79365 0.34758 0.0
Tb2152 Tb 0.56118 0.05 0.524 0.0
C2153 C 0.53678 0.0161 0.59806 0.0
Tb2154 Tb 0.48421 0.0318 0.53398 0.0
O2155 O 0.56024 0.10905 0.53206 0.0
O2156 O 0.52585 0.072 0.55709 0.0
O2157 O 0.56212 0.0244 0.57614 0.0
C2158 C 0.41779 0.04416 0.53614 0.0
O2159 O 0.50296 0.01818 0.58816 0.0
C2160 C 0.51281 0.97643 0.50726 0.0
C2161 C 0.50865 0.06838 0.46148 0.0
O2162 O 0.42791 0.01826 0.51587 0.0
O2163 O 0.44475 0.06109 0.55686 0.0
O2164 O 0.48555 0.97282 0.5263 0.0
O2165 O 0.51949 0.00967 0.50094 0.0
O2166 O 0.48399 0.06239 0.48461 0.0
O2167 O 0.5418 0.0627 0.4698 0.0
C2168 C 0.62654 0.03462 0.52026 0.0
O2169 O 0.59818 0.01611 0.50323 0.0
O2170 O 0.61838 0.06341 0.53787 0.0
C2171 C 0.53296 0.1053 0.55117 0.0
Tb2172 Tb 0.28266 0.29784 0.82005 0.0
C2173 C 0.28918 0.35994 0.76378 0.0
Tb2174 Tb 0.25825 0.27684 0.73797 0.0
O2175 O 0.33949 0.2921 0.81861 0.0
O2176 O 0.30496 0.28187 0.77285 0.0
O2177 O 0.29074 0.35171 0.79815 0.0
C2178 C 0.25723 0.25185 0.66988 0.0
O2179 O 0.27883 0.33506 0.73588 0.0
C2180 C 0.20375 0.29215 0.77413 0.0
C2181 C 0.25506 0.21542 0.7938 0.0
O2182 O 0.27769 0.28083 0.68474 0.0
O2183 O 0.23728 0.23733 0.69313 0.0
O2184 O 0.2017 0.28374 0.73943 0.0
O2185 O 0.23583 0.29246 0.78523 0.0
O2186 O 0.26101 0.22362 0.76028 0.0
O2187 O 0.25708 0.24122 0.82099 0.0
C2188 C 0.2776 0.32397 0.88649 0.0
O2189 O 0.29141 0.29461 0.87826 0.0
O2190 O 0.26754 0.33869 0.85762 0.0
C2191 C 0.33711 0.28256 0.784 0.0
Tb2192 Tb 1.00442 0.03493 0.49083 0.0
C2193 C 0.95851 0.02453 0.55612 0.0
Tb2194 Tb 0.04181 0.03682 0.56543 0.0
O2195 O 0.98697 0.97605 0.48997 0.0
O2196 O 0.03441 0.99945 0.519 0.0
O2197 O 0.96006 0.03752 0.52374 0.0
C2198 C 0.07085 0.02478 0.63006 0.0
O2199 O 0.9872 0.01911 0.57617 0.0
C2200 C 0.0329 0.10153 0.54435 0.0
C2201 C 0.08755 0.04572 0.50014 0.0
O2202 O 0.08163 0.05135 0.611 0.0
O2203 O 0.04324 1.00473 0.61295 0.0
O2204 O 0.05809 0.09603 0.56766 0.0
O2205 O 0.0117 0.0722 0.53748 0.0
O2206 O 0.08504 0.03138 0.53174 0.0
O2207 O 0.05924 0.05238 0.4803 0.0
C2208 C 0.97726 0.04691 0.42536 0.0
O2209 O 0.97331 0.01597 0.43978 0.0
O2210 O 0.99668 0.07148 0.44775 0.0
C2211 C 0.01276 0.97035 0.51251 0.0
Tb2212 Tb 0.30991 0.79298 0.79665 0.0
C2213 C 0.25099 0.7996 0.85131 0.0
Tb2214 Tb 0.23493 0.7821 0.76561 0.0
O2215 O 0.30763 0.84928 0.8169 0.0
O2216 O 0.27672 0.82644 0.76982 0.0
O2217 O 0.28395 0.79308 0.84749 0.0
C2218 C 0.17103 0.7914 0.73878 0.0
O2219 O 0.22748 0.79818 0.82267 0.0
C2220 C 0.26255 0.72103 0.77002 0.0
C2221 C 0.29336 0.77523 0.71071 0.0
O2222 O 0.17855 0.76207 0.75306 0.0
O2223 O 0.19917 0.81535 0.74018 0.0
O2224 O 0.23759 0.72558 0.74582 0.0
O2225 O 0.26812 0.74891 0.79275 0.0
O2226 O 0.26034 0.7812 0.71469 0.0
O2227 O 0.31722 0.77737 0.73922 0.0
C2228 C 0.37422 0.78481 0.82325 0.0
O2229 O 0.36565 0.81458 0.81084 0.0
O2230 O 0.3469 0.75963 0.82004 0.0
C2231 C 0.28267 0.85412 0.79288 0.0
Tb2232 Tb 0.48228 0.0225 0.02174 0.0
C2233 C 0.53644 0.96529 0.03635 0.0
Tb2234 Tb 0.56331 0.05085 0.0419 0.0
O2235 O 0.48822 0.03555 0.96507 0.0
O2236 O 0.53047 0.02231 0.9969 0.0
O2237 O 0.50297 0.97207 0.03566 0.0
C2238 C 0.63021 0.07579 0.03147 0.0
O2239 O 0.56406 0.9917 0.03711 0.0
C2240 C 0.52653 0.05303 0.10047 0.0
C2241 C 0.50868 0.10773 0.03214 0.0
O2242 O 0.61992 0.06057 0.06012 0.0
O2243 O 0.60287 0.0769 1.00874 0.0
O2244 O 0.56043 0.06389 0.10093 0.0
O2245 O 0.51671 0.04114 0.06801 0.0
O2246 O 0.54188 0.10119 0.03061 0.0
O2247 O 0.48134 0.08121 0.03111 0.0
C2248 C 0.41412 0.99569 0.02598 0.0
O2249 O 0.4341 0.98442 1.00208 0.0
O2250 O 0.43248 0.02203 0.04715 0.0
C2251 C 0.52181 0.03233 0.96611 0.0
Tb2252 Tb 0.23368 0.26721 0.27745 0.0
C2253 C 0.28455 0.28575 0.34919 0.0
Tb2254 Tb 0.30688 0.3107 0.27696 0.0
O2255 O 0.25036 0.21788 0.25043 0.0
O2256 O 0.28629 0.25558 0.2836 0.0
O2257 O 0.25239 0.2866 0.33365 0.0
C2258 C 0.3694 0.32896 0.25086 0.0
O2259 O 0.31272 0.2926 0.33095 0.0
C2260 C 0.2564 0.35017 0.29264 0.0
C2261 C 0.25705 0.29047 0.20523 0.0
O2262 O 0.34093 0.3431 0.24295 0.0
O2263 O 0.36334 0.30673 0.27587 0.0
O2264 O 0.2896 0.35941 0.3049 0.0
O2265 O 0.25436 0.32224 0.27082 0.0
O2266 O 0.28861 0.28839 0.22153 0.0
O2267 O 0.22838 0.28401 0.22282 0.0
C2268 C 0.17078 0.25211 0.3035 0.0
O2269 O 0.19651 0.23286 0.30709 0.0
O2270 O 0.17951 0.27765 0.28237 0.0
C2271 C 0.28369 0.22702 0.26242 0.0
Tb2272 Tb 0.5044 0.53492 0.99084 0.0
C2273 C 0.4585 0.52453 0.05614 0.0
Tb2274 Tb 0.5418 0.5368 0.06543 0.0
O2275 O 0.48696 0.47603 0.98996 0.0
O2276 O 0.53439 0.49944 0.019 0.0
O2277 O 0.46004 0.53753 0.02376 0.0
C2278 C 0.57084 0.52476 0.13005 0.0
O2279 O 0.48719 0.51911 0.07618 0.0
C2280 C 0.53289 0.60152 0.04435 0.0
C2281 C 0.58753 0.5457 1.00013 0.0
O2282 O 0.58161 0.55134 0.11101 0.0
O2283 O 0.54324 0.5047 0.11294 0.0
O2284 O 0.55808 0.59601 0.06765 0.0
O2285 O 0.51169 0.57219 0.03748 0.0
O2286 O 0.58502 0.53136 0.03174 0.0
O2287 O 0.55922 0.55236 0.98029 0.0
C2288 C 0.47722 0.54691 0.92537 0.0
O2289 O 0.4732 0.51599 0.93983 0.0
O2290 O 0.49672 0.57145 0.94773 0.0
C2291 C 0.51275 0.47034 0.01251 0.0
Tb2292 Tb 0.80992 0.29297 0.29665 0.0
C2293 C 0.75101 0.29958 0.35131 0.0
Tb2294 Tb 0.73494 0.28209 0.26562 0.0
O2295 O 0.80763 0.34927 0.3169 0.0
O2296 O 0.77673 0.32643 0.26982 0.0
O2297 O 0.78396 0.29307 0.3475 0.0
C2298 C 0.67103 0.29139 0.2388 0.0
O2299 O 0.72749 0.29816 0.32268 0.0
C2300 C 0.76255 0.22102 0.27002 0.0
C2301 C 0.79336 0.27522 0.21071 0.0
O2302 O 0.67856 0.26205 0.25305 0.0
O2303 O 0.69916 0.31535 0.24021 0.0
O2304 O 0.7376 0.22557 0.24583 0.0
O2305 O 0.76812 0.24889 0.29276 0.0
O2306 O 0.76034 0.28119 0.21469 0.0
O2307 O 0.81722 0.27736 0.23922 0.0
C2308 C 0.87422 0.2848 0.32324 0.0
O2309 O 0.86565 0.31457 0.31083 0.0
O2310 O 0.84691 0.25962 0.32005 0.0
C2311 C 0.78267 0.35411 0.29288 0.0
Tb2312 Tb 0.98223 0.5225 0.52174 0.0
C2313 C 0.03639 0.46528 0.53635 0.0
Tb2314 Tb 0.06321 0.55083 0.54189 0.0
O2315 O 0.98816 0.53559 0.46508 0.0
O2316 O 0.0304 0.52228 0.49688 0.0
O2317 O 1.00293 0.47207 0.53565 0.0
C2318 C 0.13006 0.57583 0.53137 0.0
O2319 O 0.06402 0.4917 0.53713 0.0
C2320 C 0.02649 0.55302 0.60048 0.0
C2321 C 1.00862 0.60774 0.53214 0.0
O2322 O 0.11982 0.56058 0.56003 0.0
O2323 O 0.1027 0.57693 0.50867 0.0
O2324 O 0.06039 0.56385 0.60092 0.0
O2325 O 0.01663 0.54116 0.56802 0.0
O2326 O 0.04182 0.60119 0.53063 0.0
O2327 O 0.98129 0.58122 0.5311 0.0
C2328 C 0.91408 0.49569 0.52599 0.0
O2329 O 0.93406 0.48442 0.50209 0.0
O2330 O 0.93244 0.52204 0.54715 0.0
C2331 C 0.02174 0.53233 0.46609 0.0
Tb2332 Tb 0.78263 0.79783 0.32004 0.0
C2333 C 0.78916 0.85992 0.26378 0.0
Tb2334 Tb 0.75824 0.77682 0.23796 0.0
O2335 O 0.83947 0.79209 0.31861 0.0
O2336 O 0.80494 0.78185 0.27285 0.0
O2337 O 0.79072 0.85169 0.29815 0.0
C2338 C 0.75721 0.75183 0.16987 0.0
O2339 O 0.77881 0.83504 0.23587 0.0
C2340 C 0.70373 0.79213 0.27413 0.0
C2341 C 0.75504 0.7154 0.2938 0.0
O2342 O 0.77767 0.78082 0.18473 0.0
O2343 O 0.73726 0.73731 0.19312 0.0
O2344 O 0.70168 0.78372 0.23942 0.0
O2345 O 0.73581 0.79244 0.28523 0.0
O2346 O 0.76099 0.7236 0.26027 0.0
O2347 O 0.75706 0.7412 0.32098 0.0
C2348 C 0.77756 0.82395 0.38649 0.0
O2349 O 0.79138 0.79459 0.37825 0.0
O2350 O 0.76751 0.83866 0.35761 0.0
C2351 C 0.83709 0.78254 0.284 0.0
Tb2352 Tb 0.77782 0.33023 0.78881 0.0
C2353 C 0.843 0.28657 0.78863 0.0
Tb2354 Tb 0.76207 0.2494 0.77411 0.0
O2355 O 0.80269 0.32526 0.84327 0.0
O2356 O 0.76136 0.28571 0.82085 0.0
O2357 O 0.83165 0.31841 0.78431 0.0
C2358 C 0.74565 0.17781 0.78165 0.0
O2359 O 0.82039 0.25544 0.78679 0.0
C2360 C 0.75531 0.28618 0.71521 0.0
C2361 C 0.69705 0.29329 0.77415 0.0
O2362 O 0.75357 0.19189 0.75175 0.0
O2363 O 0.7485 0.2039 0.80726 0.0
O2364 O 0.73744 0.25455 0.71948 0.0
O2365 O 0.77859 0.29393 0.7421 0.0
O2366 O 0.70823 0.26144 0.77904 0.0
O2367 O 0.71978 0.32422 0.77546 0.0
C2368 C 0.79401 0.40156 0.78059 0.0
O2369 O 0.78405 0.38807 0.81015 0.0
O2370 O 0.79344 0.37503 0.7559 0.0
C2371 C 0.78481 0.29365 0.84758 0.0
Tb2372 Tb 0.73369 0.76721 0.77745 0.0
C2373 C 0.78454 0.78575 0.8492 0.0
Tb2374 Tb 0.80689 0.8107 0.77697 0.0
O2375 O 0.75037 0.71788 0.75043 0.0
O2376 O 0.78629 0.75558 0.78361 0.0
O2377 O 0.75239 0.78661 0.83366 0.0
C2378 C 0.86942 0.82896 0.75088 0.0
O2379 O 0.81272 0.7926 0.83097 0.0
C2380 C 0.75641 0.85016 0.79265 0.0
C2381 C 0.75707 0.79048 0.70523 0.0
O2382 O 0.84095 0.84312 0.74298 0.0
O2383 O 0.86335 0.80672 0.77589 0.0
O2384 O 0.78961 0.8594 0.80491 0.0
O2385 O 0.75438 0.82224 0.77082 0.0
O2386 O 0.78863 0.7884 0.72154 0.0
O2387 O 0.7284 0.78401 0.72282 0.0
C2388 C 0.67079 0.75211 0.8035 0.0
O2389 O 0.69652 0.73286 0.80709 0.0
O2390 O 0.67951 0.77764 0.78236 0.0
C2391 C 0.7837 0.72702 0.76242 0.0
Tb2392 Tb 0.53667 0.57937 0.52608 0.0
C2393 C 0.54702 0.52034 0.46328 0.0
Tb2394 Tb 0.50847 0.49809 0.53268 0.0
O2395 O 0.59189 0.56784 0.5276 0.0
O2396 O 0.55448 0.53475 0.55231 0.0
O2397 O 0.54508 0.55511 0.47317 0.0
C2398 C 0.50728 0.43046 0.55393 0.0
O2399 O 0.53502 0.49292 0.48251 0.0
C2400 C 0.45951 0.54081 0.5161 0.0
C2401 C 0.49819 0.55629 0.59543 0.0
O2402 O 0.4824 0.44086 0.53271 0.0
O2403 O 0.53244 0.45762 0.56176 0.0
O2404 O 0.45358 0.51073 0.53223 0.0
O2405 O 0.49079 0.54274 0.50658 0.0
O2406 O 0.50274 0.52202 0.58645 0.0
O2407 O 0.50866 0.58378 0.57554 0.0
C2408 C 0.53556 0.64502 0.50087 0.0
O2409 O 0.55657 0.63876 0.52854 0.0
O2410 O 0.51546 0.61489 0.4889 0.0
C2411 C 0.58593 0.53731 0.54304 0.0
Tb2412 Tb 0.06118 0.55001 0.024 0.0
C2413 C 0.03677 0.5161 0.09805 0.0
Tb2414 Tb 0.98421 0.53182 0.03397 0.0
O2415 O 0.06024 0.60907 0.03207 0.0
O2416 O 0.02586 0.57201 0.05709 0.0
O2417 O 0.06212 0.5244 0.07614 0.0
C2418 C 0.9178 0.54418 0.03613 0.0
O2419 O 1.00295 0.51819 0.08815 0.0
C2420 C 0.01281 0.47645 1.00726 0.0
C2421 C 1.00865 0.5684 0.96147 0.0
O2422 O 0.92791 0.51827 0.01588 0.0
O2423 O 0.94476 0.56112 0.05684 0.0
O2424 O 0.98555 0.47283 0.02629 0.0
O2425 O 0.01949 0.50968 1.00094 0.0
O2426 O 0.98399 0.5624 0.9846 0.0
O2427 O 0.04181 0.56272 0.9698 0.0
C2428 C 0.12655 0.53464 0.02026 0.0
O2429 O 0.09819 0.51613 1.00322 0.0
O2430 O 0.11839 0.56343 0.03787 0.0
C2431 C 0.03297 0.60531 0.05118 0.0
loop_
_geom_bond_atom_site_label_1
_geom_bond_atom_site_label_2
_geom_bond_distance
_geom_bond_site_symmetry_2
_ccdc_geom_bond_type
Li0 N17 1.990 . S
Li0 O60 1.956 1_655 S
Li0 O61 1.970 . S
Li0 O62 1.961 1_655 S
Li1 N25 1.990 . S
Li1 O60 1.970 . S
Li1 O61 1.956 1_455 S
Li1 O63 1.961 . S
Li2 N47 1.990 . S
Li2 O60 1.961 . S
Li2 O62 1.956 . S
Li2 O63 1.970 . S
Li3 N53 1.990 . S
Li3 O61 1.961 1_455 S
Li3 O62 1.970 . S
Li3 O63 1.956 . S
C4 C6 1.348 . S
C4 C7 1.356 . S
C4 O60 1.325 . S
N5 C8 1.314 . S
N5 C9 1.279 . S
C6 C4 1.348 . S
C6 C8 1.353 . S
C6 H64 0.929 . S
C7 C4 1.356 . S
C7 C9 1.358 . S
C7 H65 0.930 . S
C8 N5 1.314 . S
C8 C6 1.353 . S
C8 H66 0.930 . S
C9 N5 1.279 . S
C9 C7 1.358 . S
C9 H67 0.930 . S
C10 C13 1.348 . S
C10 C14 1.356 . S
C10 O61 1.325 . S
C11 N12 1.279 . S
C11 C14 1.358 . S
C11 H68 0.930 . S
N12 C11 1.279 . S
N12 C15 1.314 . S
C13 C10 1.348 . S
C13 C15 1.353 . S
C13 H69 0.929 . S
C14 C10 1.356 . S
C14 C11 1.358 . S
C14 H70 0.930 . S
C15 N12 1.314 . S
C15 C13 1.353 . S
C15 H71 0.930 . S
C16 N17 1.314 . S
C16 C21 1.353 . S
C16 H22 0.930 . S
N17 Li0 1.990 . S
N17 C16 1.314 . S
N17 C19 1.279 . S
C18 C19 1.358 . S
C18 C20 1.356 . S
C18 H72 0.930 . S
C19 N17 1.279 . S
C19 C18 1.358 . S
C19 H23 0.930 . S
C20 C18 1.356 . S
C20 C21 1.348 . S
C21 C16 1.353 . S
C21 C20 1.348 . S
C21 H73 0.929 . S
H22 C16 0.930 . S
H23 C19 0.930 . S
C24 N25 1.314 . S
C24 C26 1.353 . S
C24 H30 0.930 . S
N25 Li1 1.990 . S
N25 C24 1.314 . S
N25 C28 1.279 . S
C26 C24 1.353 . S
C26 C29 1.348 . S
C26 H74 0.929 . S
C27 C28 1.358 . S
C27 C29 1.356 . S
C27 H75 0.930 1_455 S
C28 N25 1.279 . S
C28 C27 1.358 . S
C28 H31 0.930 1_455 S
C29 C26 1.348 . S
C29 C27 1.356 . S
H30 C24 0.930 . S
H31 C28 0.930 1_655 S
C32 C34 1.348 . S
C32 C35 1.356 . S
C32 O62 1.325 . S
N33 C36 1.314 . S
N33 C37 1.288 . S
C34 C32 1.348 . S
C34 C36 1.353 . S
C34 H76 0.929 . S
C35 C32 1.356 . S
C35 C37 1.356 . S
C35 H77 0.929 1_455 S
C36 N33 1.314 . S
C36 C34 1.353 . S
C36 H78 0.930 . S
C37 N33 1.288 . S
C37 C35 1.356 . S
C37 H79 0.925 1_455 S
C38 C39 1.348 . S
C38 C40 1.356 . S
C38 O63 1.325 . S
C39 C38 1.348 . S
C39 C41 1.353 . S
C39 H80 0.929 . S
C40 C38 1.356 . S
C40 C42 1.358 . S
C40 H81 0.930 . S
C41 C39 1.353 . S
C41 N43 1.314 . S
C41 H82 0.930 . S
C42 C40 1.358 . S
C42 N43 1.279 . S
C42 H83 0.930 . S
N43 C41 1.314 . S
N43 C42 1.279 . S
C44 C46 1.353 . S
C44 N47 1.314 . S
C44 H50 0.930 . S
C45 N47 1.279 . S
C45 C48 1.358 . S
C45 H51 0.930 . S
C46 C44 1.353 . S
C46 C49 1.348 . S
C46 H84 0.929 . S
N47 Li2 1.990 . S
N47 C44 1.314 . S
N47 C45 1.279 . S
C48 C45 1.358 . S
C48 C49 1.356 . S
C48 H85 0.930 . S
C49 C46 1.348 . S
C49 C48 1.356 . S
H50 C44 0.930 . S
H51 C45 0.930 . S
C52 N53 1.314 1_655 S
C52 C54 1.353 . S
C52 H58 0.930 . S
N53 Li3 1.990 . S
N53 C52 1.314 1_455 S
N53 C56 1.279 . S
C54 C52 1.353 . S
C54 C57 1.348 1_655 S
C54 H86 0.929 . S
C55 C56 1.358 . S
C55 C57 1.356 . S
C55 H87 0.930 . S
C56 N53 1.279 . S
C56 C55 1.358 . S
C56 H59 0.930 . S
C57 C54 1.348 1_455 S
C57 C55 1.356 . S
H58 C52 0.930 . S
H59 C56 0.930 . S
O60 Li0 1.956 1_455 S
O60 Li1 1.970 . S
O60 Li2 1.961 . S
O60 C4 1.325 . S
O61 Li0 1.970 . S
O61 Li1 1.956 1_655 S
O61 Li3 1.961 1_655 S
O61 C10 1.325 . S
O62 Li0 1.961 1_455 S
O62 Li2 1.956 . S
O62 Li3 1.970 . S
O62 C32 1.325 . S
O63 Li1 1.961 . S
O63 Li2 1.970 . S
O63 Li3 1.956 . S
O63 C38 1.325 . S
H64 C6 0.929 . S
H65 C7 0.930 . S
H66 C8 0.930 . S
H67 C9 0.930 . S
H68 C11 0.930 . S
H69 C13 0.929 . S
H70 C14 0.930 . S
H71 C15 0.930 . S
H72 C18 0.930 . S
H73 C21 0.929 . S
H74 C26 0.929 . S
H75 C27 0.930 1_655 S
H76 C34 0.929 . S
H77 C35 0.929 1_655 S
H78 C36 0.930 . S
H79 C37 0.925 1_655 S
H80 C39 0.929 . S
H81 C40 0.930 . S
H82 C41 0.930 . S
H83 C42 0.930 . S
H84 C46 0.929 . S
H85 C48 0.930 . S
H86 C54 0.929 . S
H87 C55 0.930 . S
Li88 N105 1.990 . S
Li88 O148 1.956 . S
Li88 O149 1.970 . S
Li88 O150 1.961 1_455 S
Li89 N113 1.990 . S
Li89 O148 1.970 . S
Li89 O149 1.956 . S
Li89 O151 1.953 1_455 S
Li90 N135 1.990 . S
Li90 O148 1.961 1_655 S
Li90 O150 1.956 . S
Li90 O151 1.971 . S
Li91 N141 1.990 . S
Li91 O149 1.961 1_655 S
Li91 O150 1.970 . S
Li91 O151 1.967 . S
C92 C94 1.348 . S
C92 C95 1.356 . S
C92 O148 1.325 . S
N93 C96 1.314 . S
N93 C97 1.279 . S
C94 C92 1.348 . S
C94 C96 1.353 . S
C94 H152 0.929 . S
C95 C92 1.356 . S
C95 C97 1.358 . S
C95 H153 0.930 . S
C96 N93 1.314 . S
C96 C94 1.353 . S
C96 H154 0.930 . S
C97 N93 1.279 . S
C97 C95 1.358 . S
C97 H155 0.930 . S
C98 C101 1.348 . S
C98 C102 1.356 . S
C98 O149 1.325 . S
C99 N100 1.279 . S
C99 C102 1.358 . S
C99 H156 0.930 . S
N100 C99 1.279 . S
N100 C103 1.314 . S
C101 C98 1.348 . S
C101 C103 1.353 . S
C101 H157 0.929 . S
C102 C98 1.356 . S
C102 C99 1.358 . S
C102 H158 0.930 1_455 S
C103 N100 1.314 . S
C103 C101 1.353 . S
C103 H159 0.930 . S
C104 N105 1.314 1_655 S
C104 C109 1.353 . S
C104 H110 0.930 . S
N105 Li88 1.990 . S
N105 C104 1.314 1_455 S
N105 C107 1.279 . S
C106 C107 1.358 . S
C106 C108 1.356 . S
C106 H160 0.930 . S
C107 N105 1.279 . S
C107 C106 1.358 . S
C107 H111 0.930 . S
C108 C106 1.356 . S
C108 C109 1.348 1_455 S
C109 C104 1.353 . S
C109 C108 1.348 1_655 S
C109 H161 0.929 . S
H110 C104 0.930 . S
H111 C107 0.930 . S
C112 N113 1.314 . S
C112 C114 1.353 . S
C112 H118 0.930 . S
N113 Li89 1.990 . S
N113 C112 1.314 . S
N113 C116 1.279 . S
C114 C112 1.353 . S
C114 C117 1.348 . S
C114 H162 0.929 . S
C115 C116 1.358 . S
C115 C117 1.356 . S
C115 H163 0.930 . S
C116 N113 1.279 . S
C116 C115 1.358 . S
C116 H119 0.930 . S
C117 C114 1.348 . S
C117 C115 1.356 . S
H118 C112 0.930 . S
H119 C116 0.930 . S
C120 C122 1.348 . S
C120 C123 1.356 . S
C120 O150 1.325 . S
N121 C124 1.314 . S
N121 C125 1.279 . S
C122 C120 1.348 . S
C122 C124 1.353 . S
C122 H164 0.929 . S
C123 C120 1.356 . S
C123 C125 1.358 . S
C123 H165 0.930 . S
C124 N121 1.314 . S
C124 C122 1.353 . S
C124 H166 0.930 . S
C125 N121 1.279 . S
C125 C123 1.358 . S
C125 H167 0.930 . S
C126 C127 1.348 . S
C126 C128 1.356 1_655 S
C126 O151 1.325 . S
C127 C126 1.348 . S
C127 C129 1.353 . S
C127 H168 0.929 . S
C128 C126 1.356 1_455 S
C128 C130 1.358 . S
C128 H169 0.930 . S
C129 C127 1.353 . S
C129 N131 1.314 . S
C129 H170 0.930 . S
C130 C128 1.358 . S
C130 N131 1.279 1_455 S
C130 H171 0.930 . S
N131 C129 1.314 . S
N131 C130 1.279 1_655 S
C132 C134 1.353 . S
C132 N135 1.314 1_455 S
C132 H138 0.930 . S
C133 N135 1.279 . S
C133 C136 1.358 . S
C133 H139 0.930 . S
C134 C132 1.353 . S
C134 C137 1.348 1_455 S
C134 H172 0.929 . S
N135 Li90 1.990 . S
N135 C132 1.314 1_655 S
N135 C133 1.279 . S
C136 C133 1.358 . S
C136 C137 1.356 . S
C136 H173 0.930 . S
C137 C134 1.348 1_655 S
C137 C136 1.356 . S
H138 C132 0.930 . S
H139 C133 0.930 . S
C140 N141 1.314 . S
C140 C142 1.353 . S
C140 H146 0.930 . S
N141 Li91 1.990 . S
N141 C140 1.314 . S
N141 C144 1.279 . S
C142 C140 1.353 . S
C142 C145 1.348 . S
C142 H174 0.929 . S
C143 C144 1.358 . S
C143 C145 1.356 . S
C143 H175 0.930 . S
C144 N141 1.279 . S
C144 C143 1.358 . S
C144 H147 0.930 . S
C145 C142 1.348 . S
C145 C143 1.356 . S
H146 C140 0.930 . S
H147 C144 0.930 . S
O148 Li88 1.956 . S
O148 Li89 1.970 . S
O148 Li90 1.961 1_455 S
O148 C92 1.325 . S
O149 Li88 1.970 . S
O149 Li89 1.956 . S
O149 Li91 1.961 1_455 S
O149 C98 1.325 . S
O150 Li88 1.961 1_655 S
O150 Li90 1.956 . S
O150 Li91 1.970 . S
O150 C120 1.325 . S
O151 Li89 1.953 1_655 S
O151 Li90 1.971 . S
O151 Li91 1.967 . S
O151 C126 1.325 . S
H152 C94 0.929 . S
H153 C95 0.930 . S
H154 C96 0.930 . S
H155 C97 0.930 . S
H156 C99 0.930 . S
H157 C101 0.929 . S
H158 C102 0.930 1_655 S
H159 C103 0.930 . S
H160 C106 0.930 . S
H161 C109 0.929 . S
H162 C114 0.929 . S
H163 C115 0.930 . S
H164 C122 0.929 . S
H165 C123 0.930 . S
H166 C124 0.930 . S
H167 C125 0.930 . S
H168 C127 0.929 . S
H169 C128 0.930 . S
H170 C129 0.930 . S
H171 C130 0.930 . S
H172 C134 0.929 . S
H173 C136 0.930 . S
H174 C142 0.929 . S
H175 C143 0.930 . S
Li176 N193 1.990 . S
Li176 O236 1.956 . S
Li176 O237 1.970 . S
Li176 O238 1.961 . S
Li177 N201 1.990 . S
Li177 O236 1.970 . S
Li177 O237 1.956 . S
Li177 O239 1.961 . S
Li178 N223 1.990 . S
Li178 O236 1.961 . S
Li178 O238 1.956 . S
Li178 O239 1.970 . S
Li179 N229 1.990 . S
Li179 O237 1.961 . S
Li179 O238 1.970 . S
Li179 O239 1.956 . S
C180 C182 1.348 . S
C180 C183 1.356 . S
C180 O236 1.325 . S
N181 C184 1.314 . S
N181 C185 1.279 . S
C182 C180 1.348 . S
C182 C184 1.353 . S
C182 H240 0.929 . S
C183 C180 1.356 . S
C183 C185 1.358 . S
C183 H241 0.930 . S
C184 N181 1.314 . S
C184 C182 1.353 . S
C184 H242 0.930 . S
C185 N181 1.279 . S
C185 C183 1.358 . S
C185 H243 0.930 . S
C186 C189 1.348 . S
C186 C190 1.356 . S
C186 O237 1.325 . S
C187 N188 1.279 . S
C187 C190 1.358 . S
C187 H244 0.930 1_556 S
N188 C187 1.279 . S
N188 C191 1.314 . S
C189 C186 1.348 . S
C189 C191 1.353 . S
C189 H245 0.929 . S
C190 C186 1.356 . S
C190 C187 1.358 . S
C190 H246 0.930 . S
C191 N188 1.314 . S
C191 C189 1.353 . S
C191 H247 0.930 . S
C192 N193 1.314 . S
C192 C197 1.353 . S
C192 H198 0.930 . S
N193 Li176 1.990 . S
N193 C192 1.314 . S
N193 C195 1.279 . S
C194 C195 1.358 . S
C194 C196 1.356 . S
C194 H248 0.930 . S
C195 N193 1.279 . S
C195 C194 1.358 . S
C195 H199 0.930 . S
C196 C194 1.356 . S
C196 C197 1.348 . S
C197 C192 1.353 . S
C197 C196 1.348 . S
C197 H249 0.929 . S
H198 C192 0.930 . S
H199 C195 0.930 . S
C200 N201 1.314 . S
C200 C202 1.353 . S
C200 H206 0.930 . S
N201 Li177 1.990 . S
N201 C200 1.314 . S
N201 C204 1.279 . S
C202 C200 1.353 . S
C202 C205 1.348 1_556 S
C202 H250 0.929 . S
C203 C204 1.358 . S
C203 C205 1.356 1_556 S
C203 H251 0.930 1_556 S
C204 N201 1.279 . S
C204 C203 1.358 . S
C204 H207 0.930 . S
C205 C202 1.348 1_554 S
C205 C203 1.356 1_554 S
H206 C200 0.930 . S
H207 C204 0.930 . S
C208 C210 1.348 . S
C208 C211 1.356 . S
C208 O238 1.325 . S
N209 C212 1.314 . S
N209 C213 1.279 . S
C210 C208 1.348 . S
C210 C212 1.353 . S
C210 H252 0.929 . S
C211 C208 1.356 . S
C211 C213 1.358 . S
C211 H253 0.930 . S
C212 N209 1.314 . S
C212 C210 1.353 . S
C212 H254 0.930 . S
C213 N209 1.279 . S
C213 C211 1.358 . S
C213 H255 0.930 . S
C214 C215 1.348 . S
C214 C216 1.356 . S
C214 O239 1.325 . S
C215 C214 1.348 . S
C215 C217 1.353 . S
C215 H256 0.929 . S
C216 C214 1.356 . S
C216 C218 1.358 1_556 S
C216 H257 0.930 . S
C217 C215 1.353 . S
C217 N219 1.314 . S
C217 H258 0.930 . S
C218 C216 1.358 1_554 S
C218 N219 1.279 1_554 S
C218 H259 0.930 . S
N219 C217 1.314 . S
N219 C218 1.279 1_556 S
C220 C222 1.353 . S
C220 N223 1.314 . S
C220 H226 0.930 . S
C221 N223 1.279 . S
C221 C224 1.358 . S
C221 H227 0.930 . S
C222 C220 1.353 . S
C222 C225 1.348 . S
C222 H260 0.929 . S
N223 Li178 1.990 . S
N223 C220 1.314 . S
N223 C221 1.279 . S
C224 C221 1.358 . S
C224 C225 1.356 . S
C224 H261 0.930 . S
C225 C222 1.348 . S
C225 C224 1.356 . S
H226 C220 0.930 . S
H227 C221 0.930 . S
C228 N229 1.314 . S
C228 C230 1.353 . S
C228 H234 0.930 . S
N229 Li179 1.990 . S
N229 C228 1.314 . S
N229 C232 1.279 . S
C230 C228 1.353 . S
C230 C233 1.348 . S
C230 H262 0.929 . S
C231 C232 1.358 . S
C231 C233 1.356 . S
C231 H263 0.930 1_556 S
C232 N229 1.279 . S
C232 C231 1.358 . S
C232 H235 0.930 . S
C233 C230 1.348 . S
C233 C231 1.356 . S
H234 C228 0.930 . S
H235 C232 0.930 . S
O236 Li176 1.956 . S
O236 Li177 1.970 . S
O236 Li178 1.961 . S
O236 C180 1.325 . S
O237 Li176 1.970 . S
O237 Li177 1.956 . S
O237 Li179 1.961 . S
O237 C186 1.325 . S
O238 Li176 1.961 . S
O238 Li178 1.956 . S
O238 Li179 1.970 . S
O238 C208 1.325 . S
O239 Li177 1.961 . S
O239 Li178 1.970 . S
O239 Li179 1.956 . S
O239 C214 1.325 . S
H240 C182 0.929 . S
H241 C183 0.930 . S
H242 C184 0.930 . S
H243 C185 0.930 . S
H244 C187 0.930 1_554 S
H245 C189 0.929 . S
H246 C190 0.930 . S
H247 C191 0.930 . S
H248 C194 0.930 . S
H249 C197 0.929 . S
H250 C202 0.929 . S
H251 C203 0.930 1_554 S
H252 C210 0.929 . S
H253 C211 0.930 . S
H254 C212 0.930 . S
H255 C213 0.930 . S
H256 C215 0.929 . S
H257 C216 0.930 . S
H258 C217 0.930 . S
H259 C218 0.930 . S
H260 C222 0.929 . S
H261 C224 0.930 . S
H262 C230 0.929 . S
H263 C231 0.930 1_554 S
Li264 N281 1.990 . S
Li264 O324 1.956 . S
Li264 O325 1.970 . S
Li264 O326 1.961 . S
Li265 N289 1.990 . S
Li265 O324 1.970 . S
Li265 O325 1.956 . S
Li265 O327 1.961 . S
Li266 N311 1.990 . S
Li266 O324 1.961 . S
Li266 O326 1.956 . S
Li266 O327 1.970 . S
Li267 N317 1.990 . S
Li267 O325 1.961 . S
Li267 O326 1.970 . S
Li267 O327 1.956 . S
C268 C270 1.348 . S
C268 C271 1.356 . S
C268 O324 1.325 . S
N269 C272 1.314 . S
N269 C273 1.279 . S
C270 C268 1.348 . S
C270 C272 1.353 . S
C270 H328 0.929 . S
C271 C268 1.356 . S
C271 C273 1.358 . S
C271 H329 0.930 . S
C272 N269 1.314 . S
C272 C270 1.353 . S
C272 H330 0.930 . S
C273 N269 1.279 . S
C273 C271 1.358 . S
C273 H331 0.930 . S
C274 C277 1.348 . S
C274 C278 1.356 . S
C274 O325 1.325 . S
C275 N276 1.279 . S
C275 C278 1.358 . S
C275 H332 0.930 . S
N276 C275 1.279 . S
N276 C279 1.314 . S
C277 C274 1.348 . S
C277 C279 1.353 . S
C277 H333 0.929 . S
C278 C274 1.356 . S
C278 C275 1.358 . S
C278 H334 0.930 . S
C279 N276 1.314 . S
C279 C277 1.353 . S
C279 H335 0.930 . S
C280 N281 1.314 . S
C280 C285 1.353 . S
C280 H286 0.930 . S
N281 Li264 1.990 . S
N281 C280 1.314 . S
N281 C283 1.279 . S
C282 C283 1.358 . S
C282 C284 1.356 . S
C282 H336 0.930 . S
C283 N281 1.279 . S
C283 C282 1.358 . S
C283 H287 0.930 . S
C284 C282 1.356 . S
C284 C285 1.348 . S
C285 C280 1.353 . S
C285 C284 1.348 . S
C285 H337 0.929 . S
H286 C280 0.930 . S
H287 C283 0.930 . S
C288 N289 1.314 . S
C288 C290 1.353 . S
C288 H294 0.930 . S
N289 Li265 1.990 . S
N289 C288 1.314 . S
N289 C292 1.279 . S
C290 C288 1.353 . S
C290 C293 1.348 . S
C290 H338 0.929 . S
C291 C292 1.358 . S
C291 C293 1.356 . S
C291 H339 0.930 . S
C292 N289 1.279 . S
C292 C291 1.358 . S
C292 H295 0.930 . S
C293 C290 1.348 . S
C293 C291 1.356 . S
H294 C288 0.930 . S
H295 C292 0.930 . S
C296 C298 1.348 . S
C296 C299 1.356 . S
C296 O326 1.325 . S
N297 C300 1.314 . S
N297 C301 1.279 . S
C298 C296 1.348 . S
C298 C300 1.353 . S
C298 H340 0.929 . S
C299 C296 1.356 . S
C299 C301 1.358 . S
C299 H341 0.930 . S
C300 N297 1.314 . S
C300 C298 1.353 . S
C300 H342 0.930 . S
C301 N297 1.279 . S
C301 C299 1.358 . S
C301 H343 0.930 . S
C302 C303 1.348 . S
C302 C304 1.356 . S
C302 O327 1.325 . S
C303 C302 1.348 . S
C303 C305 1.353 . S
C303 H344 0.929 . S
C304 C302 1.356 . S
C304 C306 1.358 . S
C304 H345 0.930 . S
C305 C303 1.353 . S
C305 N307 1.314 . S
C305 H346 0.930 . S
C306 C304 1.358 . S
C306 N307 1.279 . S
C306 H347 0.930 . S
N307 C305 1.314 . S
N307 C306 1.279 . S
C308 C310 1.353 . S
C308 N311 1.314 . S
C308 H314 0.930 . S
C309 N311 1.279 . S
C309 C312 1.358 . S
C309 H315 0.930 . S
C310 C308 1.353 . S
C310 C313 1.348 . S
C310 H348 0.929 . S
N311 Li266 1.990 . S
N311 C308 1.314 . S
N311 C309 1.279 . S
C312 C309 1.358 . S
C312 C313 1.356 . S
C312 H349 0.930 . S
C313 C310 1.348 . S
C313 C312 1.356 . S
H314 C308 0.930 . S
H315 C309 0.930 . S
C316 N317 1.314 . S
C316 C318 1.353 . S
C316 H322 0.930 . S
N317 Li267 1.990 . S
N317 C316 1.314 . S
N317 C320 1.279 . S
C318 C316 1.353 . S
C318 C321 1.348 . S
C318 H350 0.929 . S
C319 C320 1.358 . S
C319 C321 1.356 . S
C319 H351 0.930 . S
C320 N317 1.279 . S
C320 C319 1.358 . S
C320 H323 0.930 . S
C321 C318 1.348 . S
C321 C319 1.356 . S
H322 C316 0.930 . S
H323 C320 0.930 . S
O324 Li264 1.956 . S
O324 Li265 1.970 . S
O324 Li266 1.961 . S
O324 C268 1.325 . S
O325 Li264 1.970 . S
O325 Li265 1.956 . S
O325 Li267 1.961 . S
O325 C274 1.325 . S
O326 Li264 1.961 . S
O326 Li266 1.956 . S
O326 Li267 1.970 . S
O326 C296 1.325 . S
O327 Li265 1.961 . S
O327 Li266 1.970 . S
O327 Li267 1.956 . S
O327 C302 1.325 . S
H328 C270 0.929 . S
H329 C271 0.930 . S
H330 C272 0.930 . S
H331 C273 0.930 . S
H332 C275 0.930 . S
H333 C277 0.929 . S
H334 C278 0.930 . S
H335 C279 0.930 . S
H336 C282 0.930 . S
H337 C285 0.929 . S
H338 C290 0.929 . S
H339 C291 0.930 . S
H340 C298 0.929 . S
H341 C299 0.930 . S
H342 C300 0.930 . S
H343 C301 0.930 . S
H344 C303 0.929 . S
H345 C304 0.930 . S
H346 C305 0.930 . S
H347 C306 0.930 . S
H348 C310 0.929 . S
H349 C312 0.930 . S
H350 C318 0.929 . S
H351 C319 0.930 . S
Li352 N369 1.990 . S
Li352 O412 1.956 . S
Li352 O413 1.970 . S
Li352 O414 1.961 1_455 S
Li353 N377 1.990 . S
Li353 O412 1.970 . S
Li353 O413 1.956 . S
Li353 O415 1.961 . S
Li354 N399 1.990 1_455 S
Li354 O412 1.961 . S
Li354 O414 1.956 1_455 S
Li354 O415 1.970 . S
Li355 N405 1.990 . S
Li355 O413 1.961 1_655 S
Li355 O414 1.970 . S
Li355 O415 1.956 1_655 S
C356 C358 1.348 . S
C356 C359 1.356 . S
C356 O412 1.325 . S
N357 C360 1.314 . S
N357 C361 1.279 . S
C358 C356 1.348 . S
C358 C360 1.353 . S
C358 H416 0.929 . S
C359 C356 1.356 . S
C359 C361 1.358 . S
C359 H417 0.930 . S
C360 N357 1.314 . S
C360 C358 1.353 . S
C360 H418 0.930 . S
C361 N357 1.279 . S
C361 C359 1.358 . S
C361 H419 0.930 . S
C362 C365 1.348 . S
C362 C366 1.356 . S
C362 O413 1.325 . S
C363 N364 1.279 . S
C363 C366 1.358 . S
C363 H420 0.930 . S
N364 C363 1.279 . S
N364 C367 1.314 . S
C365 C362 1.348 . S
C365 C367 1.353 . S
C365 H421 0.929 . S
C366 C362 1.356 . S
C366 C363 1.358 . S
C366 H422 0.930 . S
C367 N364 1.314 . S
C367 C365 1.353 . S
C367 H423 0.930 . S
C368 N369 1.314 1_655 S
C368 C373 1.353 . S
C368 H374 0.930 . S
N369 Li352 1.990 . S
N369 C368 1.314 1_455 S
N369 C371 1.279 . S
C370 C371 1.358 . S
C370 C372 1.356 . S
C370 H424 0.930 . S
C371 N369 1.279 . S
C371 C370 1.358 . S
C371 H375 0.930 . S
C372 C370 1.356 . S
C372 C373 1.348 1_455 S
C373 C368 1.353 . S
C373 C372 1.348 1_655 S
C373 H425 0.929 . S
H374 C368 0.930 . S
H375 C371 0.930 . S
C376 N377 1.314 . S
C376 C378 1.353 . S
C376 H382 0.930 . S
N377 Li353 1.990 . S
N377 C376 1.314 . S
N377 C380 1.279 . S
C378 C376 1.353 . S
C378 C381 1.348 . S
C378 H426 0.929 . S
C379 C380 1.358 . S
C379 C381 1.356 . S
C379 H427 0.930 . S
C380 N377 1.279 . S
C380 C379 1.358 . S
C380 H383 0.930 . S
C381 C378 1.348 . S
C381 C379 1.356 . S
H382 C376 0.930 . S
H383 C380 0.930 . S
C384 C386 1.348 . S
C384 C387 1.356 . S
C384 O414 1.325 . S
N385 C388 1.314 . S
N385 C389 1.279 . S
C386 C384 1.348 . S
C386 C388 1.353 . S
C386 H428 0.929 . S
C387 C384 1.356 . S
C387 C389 1.358 . S
C387 H429 0.930 . S
C388 N385 1.314 . S
C388 C386 1.353 . S
C388 H430 0.930 . S
C389 N385 1.279 . S
C389 C387 1.358 . S
C389 H431 0.930 . S
C390 C391 1.348 1_455 S
C390 C392 1.356 . S
C390 O415 1.325 . S
C391 C390 1.348 1_655 S
C391 C393 1.353 . S
C391 H432 0.929 . S
C392 C390 1.356 . S
C392 C394 1.358 . S
C392 H433 0.930 . S
C393 C391 1.353 . S
C393 N395 1.314 1_655 S
C393 H434 0.930 . S
C394 C392 1.358 . S
C394 N395 1.279 . S
C394 H435 0.930 . S
N395 C393 1.314 1_455 S
N395 C394 1.279 . S
C396 C398 1.353 . S
C396 N399 1.314 1_455 S
C396 H402 0.930 . S
C397 N399 1.279 . S
C397 C400 1.358 . S
C397 H403 0.930 . S
C398 C396 1.353 . S
C398 C401 1.348 1_455 S
C398 H436 0.929 . S
N399 Li354 1.990 1_655 S
N399 C396 1.314 1_655 S
N399 C397 1.279 . S
C400 C397 1.358 . S
C400 C401 1.356 . S
C400 H437 0.930 . S
C401 C398 1.348 1_655 S
C401 C400 1.356 . S
H402 C396 0.930 . S
H403 C397 0.930 . S
C404 N405 1.314 . S
C404 C406 1.353 . S
C404 H410 0.930 . S
N405 Li355 1.990 . S
N405 C404 1.314 . S
N405 C408 1.279 . S
C406 C404 1.353 . S
C406 C409 1.348 . S
C406 H438 0.929 . S
C407 C408 1.358 . S
C407 C409 1.356 . S
C407 H439 0.930 . S
C408 N405 1.279 . S
C408 C407 1.358 . S
C408 H411 0.930 . S
C409 C406 1.348 . S
C409 C407 1.356 . S
H410 C404 0.930 . S
H411 C408 0.930 . S
O412 Li352 1.956 . S
O412 Li353 1.970 . S
O412 Li354 1.961 . S
O412 C356 1.325 . S
O413 Li352 1.970 . S
O413 Li353 1.956 . S
O413 Li355 1.961 1_455 S
O413 C362 1.325 . S
O414 Li352 1.961 1_655 S
O414 Li354 1.956 1_655 S
O414 Li355 1.970 . S
O414 C384 1.325 . S
O415 Li353 1.961 . S
O415 Li354 1.970 . S
O415 Li355 1.956 1_455 S
O415 C390 1.325 . S
H416 C358 0.929 . S
H417 C359 0.930 . S
H418 C360 0.930 . S
H419 C361 0.930 . S
H420 C363 0.930 . S
H421 C365 0.929 . S
H422 C366 0.930 . S
H423 C367 0.930 . S
H424 C370 0.930 . S
H425 C373 0.929 . S
H426 C378 0.929 . S
H427 C379 0.930 . S
H428 C386 0.929 . S
H429 C387 0.930 . S
H430 C388 0.930 . S
H431 C389 0.930 . S
H432 C391 0.929 . S
H433 C392 0.930 . S
H434 C393 0.930 . S
H435 C394 0.930 . S
H436 C398 0.929 . S
H437 C400 0.930 . S
H438 C406 0.929 . S
H439 C407 0.930 . S
Li440 N457 1.990 . S
Li440 O500 1.956 . S
Li440 O501 1.970 . S
Li440 O502 1.961 . S
Li441 N465 1.990 . S
Li441 O500 1.970 . S
Li441 O501 1.956 . S
Li441 O503 1.961 . S
Li442 N487 1.990 . S
Li442 O500 1.961 . S
Li442 O502 1.956 . S
Li442 O503 1.970 . S
Li443 N493 1.990 . S
Li443 O501 1.961 . S
Li443 O502 1.970 . S
Li443 O503 1.956 . S
C444 C446 1.348 . S
C444 C447 1.356 . S
C444 O500 1.325 . S
N445 C448 1.314 . S
N445 C449 1.279 . S
C446 C444 1.348 . S
C446 C448 1.353 . S
C446 H504 0.929 . S
C447 C444 1.356 . S
C447 C449 1.358 . S
C447 H505 0.930 . S
C448 N445 1.314 . S
C448 C446 1.353 . S
C448 H506 0.930 . S
C449 N445 1.279 . S
C449 C447 1.358 . S
C449 H507 0.930 . S
C450 C453 1.348 . S
C450 C454 1.356 . S
C450 O501 1.325 . S
C451 N452 1.279 . S
C451 C454 1.358 . S
C451 H508 0.930 . S
N452 C451 1.279 . S
N452 C455 1.314 . S
C453 C450 1.348 . S
C453 C455 1.353 . S
C453 H509 0.929 . S
C454 C450 1.356 . S
C454 C451 1.358 . S
C454 H510 0.930 . S
C455 N452 1.314 . S
C455 C453 1.353 . S
C455 H511 0.930 . S
C456 N457 1.314 . S
C456 C461 1.353 . S
C456 H462 0.930 . S
N457 Li440 1.990 . S
N457 C456 1.314 . S
N457 C459 1.279 . S
C458 C459 1.358 . S
C458 C460 1.356 . S
C458 H512 0.930 . S
C459 N457 1.279 . S
C459 C458 1.358 . S
C459 H463 0.930 . S
C460 C458 1.356 . S
C460 C461 1.348 . S
C461 C456 1.353 . S
C461 C460 1.348 . S
C461 H513 0.929 . S
H462 C456 0.930 . S
H463 C459 0.930 . S
C464 N465 1.314 . S
C464 C466 1.353 . S
C464 H470 0.930 . S
N465 Li441 1.990 . S
N465 C464 1.314 . S
N465 C468 1.279 . S
C466 C464 1.353 . S
C466 C469 1.348 . S
C466 H514 0.929 . S
C467 C468 1.358 . S
C467 C469 1.356 . S
C467 H515 0.930 . S
C468 N465 1.279 . S
C468 C467 1.358 . S
C468 H471 0.930 . S
C469 C466 1.348 . S
C469 C467 1.356 . S
H470 C464 0.930 . S
H471 C468 0.930 . S
C472 C474 1.348 . S
C472 C475 1.356 . S
C472 O502 1.325 . S
N473 C476 1.314 . S
N473 C477 1.279 . S
C474 C472 1.348 . S
C474 C476 1.353 . S
C474 H516 0.929 . S
C475 C472 1.356 . S
C475 C477 1.358 . S
C475 H517 0.930 . S
C476 N473 1.314 . S
C476 C474 1.353 . S
C476 H518 0.930 . S
C477 N473 1.279 . S
C477 C475 1.358 . S
C477 H519 0.930 . S
C478 C479 1.348 . S
C478 C480 1.356 . S
C478 O503 1.325 . S
C479 C478 1.348 . S
C479 C481 1.353 . S
C479 H520 0.929 . S
C480 C478 1.356 . S
C480 C482 1.358 . S
C480 H521 0.930 . S
C481 C479 1.353 . S
C481 N483 1.314 . S
C481 H522 0.930 . S
C482 C480 1.358 . S
C482 N483 1.279 . S
C482 H523 0.930 . S
N483 C481 1.314 . S
N483 C482 1.279 . S
C484 C486 1.353 . S
C484 N487 1.314 . S
C484 H490 0.930 . S
C485 N487 1.279 . S
C485 C488 1.358 . S
C485 H491 0.930 . S
C486 C484 1.353 . S
C486 C489 1.348 . S
C486 H524 0.929 . S
N487 Li442 1.990 . S
N487 C484 1.314 . S
N487 C485 1.279 . S
C488 C485 1.358 . S
C488 C489 1.356 . S
C488 H525 0.930 . S
C489 C486 1.348 . S
C489 C488 1.356 . S
H490 C484 0.930 . S
H491 C485 0.930 . S
C492 N493 1.314 . S
C492 C494 1.353 . S
C492 H498 0.930 . S
N493 Li443 1.990 . S
N493 C492 1.314 . S
N493 C496 1.279 . S
C494 C492 1.353 . S
C494 C497 1.348 . S
C494 H526 0.929 . S
C495 C496 1.358 . S
C495 C497 1.356 . S
C495 H527 0.930 . S
C496 N493 1.279 . S
C496 C495 1.358 . S
C496 H499 0.930 . S
C497 C494 1.348 . S
C497 C495 1.356 . S
H498 C492 0.930 . S
H499 C496 0.930 . S
O500 Li440 1.956 . S
O500 Li441 1.970 . S
O500 Li442 1.961 . S
O500 C444 1.325 . S
O501 Li440 1.970 . S
O501 Li441 1.956 . S
O501 Li443 1.961 . S
O501 C450 1.325 . S
O502 Li440 1.961 . S
O502 Li442 1.956 . S
O502 Li443 1.970 . S
O502 C472 1.325 . S
O503 Li441 1.961 . S
O503 Li442 1.970 . S
O503 Li443 1.956 . S
O503 C478 1.325 . S
H504 C446 0.929 . S
H505 C447 0.930 . S
H506 C448 0.930 . S
H507 C449 0.930 . S
H508 C451 0.930 . S
H509 C453 0.929 . S
H510 C454 0.930 . S
H511 C455 0.930 . S
H512 C458 0.930 . S
H513 C461 0.929 . S
H514 C466 0.929 . S
H515 C467 0.930 . S
H516 C474 0.929 . S
H517 C475 0.930 . S
H518 C476 0.930 . S
H519 C477 0.930 . S
H520 C479 0.929 . S
H521 C480 0.930 . S
H522 C481 0.930 . S
H523 C482 0.930 . S
H524 C486 0.929 . S
H525 C488 0.930 . S
H526 C494 0.929 . S
H527 C495 0.930 . S
Li528 N545 1.990 . S
Li528 O588 1.956 . S
Li528 O589 1.970 . S
Li528 O590 1.961 . S
Li529 N553 1.990 . S
Li529 O588 1.970 . S
Li529 O589 1.956 . S
Li529 O591 1.961 . S
Li530 N575 1.990 . S
Li530 O588 1.961 . S
Li530 O590 1.956 . S
Li530 O591 1.970 . S
Li531 N581 1.990 . S
Li531 O589 1.961 . S
Li531 O590 1.970 . S
Li531 O591 1.956 . S
C532 C534 1.348 . S
C532 C535 1.356 . S
C532 O588 1.325 . S
N533 C536 1.314 . S
N533 C537 1.279 . S
C534 C532 1.348 . S
C534 C536 1.353 . S
C534 H592 0.929 . S
C535 C532 1.356 . S
C535 C537 1.358 . S
C535 H593 0.930 . S
C536 N533 1.314 . S
C536 C534 1.353 . S
C536 H594 0.930 . S
C537 N533 1.279 . S
C537 C535 1.358 . S
C537 H595 0.930 . S
C538 C541 1.348 . S
C538 C542 1.356 . S
C538 O589 1.325 . S
C539 N540 1.279 . S
C539 C542 1.358 . S
C539 H596 0.930 . S
N540 C539 1.279 . S
N540 C543 1.314 . S
C541 C538 1.348 . S
C541 C543 1.353 . S
C541 H597 0.929 . S
C542 C538 1.356 . S
C542 C539 1.358 . S
C542 H598 0.930 . S
C543 N540 1.314 . S
C543 C541 1.353 . S
C543 H599 0.930 . S
C544 N545 1.314 . S
C544 C549 1.353 . S
C544 H550 0.930 . S
N545 Li528 1.990 . S
N545 C544 1.314 . S
N545 C547 1.279 . S
C546 C547 1.358 . S
C546 C548 1.356 . S
C546 H600 0.930 . S
C547 N545 1.279 . S
C547 C546 1.358 . S
C547 H551 0.930 . S
C548 C546 1.356 . S
C548 C549 1.348 . S
C549 C544 1.353 . S
C549 C548 1.348 . S
C549 H601 0.929 . S
H550 C544 0.930 . S
H551 C547 0.930 . S
C552 N553 1.314 . S
C552 C554 1.353 . S
C552 H558 0.930 . S
N553 Li529 1.990 . S
N553 C552 1.314 . S
N553 C556 1.279 . S
C554 C552 1.353 . S
C554 C557 1.348 . S
C554 H602 0.929 . S
C555 C556 1.358 . S
C555 C557 1.356 . S
C555 H603 0.930 . S
C556 N553 1.279 . S
C556 C555 1.358 . S
C556 H559 0.930 . S
C557 C554 1.348 . S
C557 C555 1.356 . S
H558 C552 0.930 . S
H559 C556 0.930 . S
C560 C562 1.348 . S
C560 C563 1.356 . S
C560 O590 1.325 . S
N561 C564 1.314 . S
N561 C565 1.279 . S
C562 C560 1.348 . S
C562 C564 1.353 . S
C562 H604 0.929 . S
C563 C560 1.356 . S
C563 C565 1.358 . S
C563 H605 0.930 . S
C564 N561 1.314 . S
C564 C562 1.353 . S
C564 H606 0.930 . S
C565 N561 1.279 . S
C565 C563 1.358 . S
C565 H607 0.930 . S
C566 C567 1.348 . S
C566 C568 1.356 . S
C566 O591 1.325 . S
C567 C566 1.348 . S
C567 C569 1.353 . S
C567 H608 0.929 . S
C568 C566 1.356 . S
C568 C570 1.358 . S
C568 H609 0.930 . S
C569 C567 1.353 . S
C569 N571 1.314 . S
C569 H610 0.930 . S
C570 C568 1.358 . S
C570 N571 1.279 . S
C570 H611 0.930 . S
N571 C569 1.314 . S
N571 C570 1.279 . S
C572 C574 1.353 . S
C572 N575 1.314 . S
C572 H578 0.930 . S
C573 N575 1.279 . S
C573 C576 1.358 . S
C573 H579 0.930 . S
C574 C572 1.353 . S
C574 C577 1.348 . S
C574 H612 0.929 . S
N575 Li530 1.990 . S
N575 C572 1.314 . S
N575 C573 1.279 . S
C576 C573 1.358 . S
C576 C577 1.356 . S
C576 H613 0.930 . S
C577 C574 1.348 . S
C577 C576 1.356 . S
H578 C572 0.930 . S
H579 C573 0.930 . S
C580 N581 1.314 . S
C580 C582 1.353 . S
C580 H586 0.930 . S
N581 Li531 1.990 . S
N581 C580 1.314 . S
N581 C584 1.279 . S
C582 C580 1.353 . S
C582 C585 1.348 . S
C582 H614 0.929 . S
C583 C584 1.358 . S
C583 C585 1.356 . S
C583 H615 0.930 . S
C584 N581 1.279 . S
C584 C583 1.358 . S
C584 H587 0.930 . S
C585 C582 1.348 . S
C585 C583 1.356 . S
H586 C580 0.930 . S
H587 C584 0.930 . S
O588 Li528 1.956 . S
O588 Li529 1.970 . S
O588 Li530 1.961 . S
O588 C532 1.325 . S
O589 Li528 1.970 . S
O589 Li529 1.956 . S
O589 Li531 1.961 . S
O589 C538 1.325 . S
O590 Li528 1.961 . S
O590 Li530 1.956 . S
O590 Li531 1.970 . S
O590 C560 1.325 . S
O591 Li529 1.961 . S
O591 Li530 1.970 . S
O591 Li531 1.956 . S
O591 C566 1.325 . S
H592 C534 0.929 . S
H593 C535 0.930 . S
H594 C536 0.930 . S
H595 C537 0.930 . S
H596 C539 0.930 . S
H597 C541 0.929 . S
H598 C542 0.930 . S
H599 C543 0.930 . S
H600 C546 0.930 . S
H601 C549 0.929 . S
H602 C554 0.929 . S
H603 C555 0.930 . S
H604 C562 0.929 . S
H605 C563 0.930 . S
H606 C564 0.930 . S
H607 C565 0.930 . S
H608 C567 0.929 . S
H609 C568 0.930 . S
H610 C569 0.930 . S
H611 C570 0.930 . S
H612 C574 0.929 . S
H613 C576 0.930 . S
H614 C582 0.929 . S
H615 C583 0.930 . S
Li616 N633 1.990 . S
Li616 O676 1.956 1_455 S
Li616 O677 1.970 . S
Li616 O678 1.961 . S
Li617 N641 1.990 . S
Li617 O676 1.970 . S
Li617 O677 1.956 1_655 S
Li617 O679 1.961 1_655 S
Li618 N663 1.990 . S
Li618 O676 1.961 1_455 S
Li618 O678 1.956 . S
Li618 O679 1.970 . S
Li619 N669 1.990 . S
Li619 O677 1.961 . S
Li619 O678 1.970 . S
Li619 O679 1.956 . S
C620 C622 1.348 . S
C620 C623 1.356 . S
C620 O676 1.325 . S
N621 C624 1.314 . S
N621 C625 1.279 . S
C622 C620 1.348 . S
C622 C624 1.353 . S
C622 H680 0.929 . S
C623 C620 1.356 . S
C623 C625 1.358 . S
C623 H681 0.930 . S
C624 N621 1.314 . S
C624 C622 1.353 . S
C624 H682 0.930 . S
C625 N621 1.279 . S
C625 C623 1.358 . S
C625 H683 0.930 1_556 S
C626 C629 1.348 . S
C626 C630 1.356 . S
C626 O677 1.325 . S
C627 N628 1.279 . S
C627 C630 1.358 . S
C627 H684 0.930 . S
N628 C627 1.279 . S
N628 C631 1.314 . S
C629 C626 1.348 . S
C629 C631 1.353 . S
C629 H685 0.929 . S
C630 C626 1.356 . S
C630 C627 1.358 . S
C630 H686 0.930 . S
C631 N628 1.314 . S
C631 C629 1.353 . S
C631 H687 0.930 . S
C632 N633 1.314 . S
C632 C637 1.353 . S
C632 H638 0.930 . S
N633 Li616 1.990 . S
N633 C632 1.314 . S
N633 C635 1.279 1_455 S
C634 C635 1.357 . S
C634 C636 1.347 1_655 S
C634 H688 0.940 . S
C635 N633 1.279 1_655 S
C635 C634 1.357 . S
C635 H639 0.930 . S
C636 C634 1.347 1_455 S
C636 C637 1.348 . S
C637 C632 1.353 . S
C637 C636 1.348 . S
C637 H689 0.929 . S
H638 C632 0.930 . S
H639 C635 0.930 . S
C640 N641 1.314 . S
C640 C642 1.353 . S
C640 H646 0.930 . S
N641 Li617 1.990 . S
N641 C640 1.314 . S
N641 C644 1.279 . S
C642 C640 1.353 . S
C642 C645 1.348 . S
C642 H690 0.929 . S
C643 C644 1.358 . S
C643 C645 1.356 . S
C643 H691 0.930 . S
C644 N641 1.279 . S
C644 C643 1.358 . S
C644 H647 0.930 . S
C645 C642 1.348 . S
C645 C643 1.356 . S
H646 C640 0.930 . S
H647 C644 0.930 . S
C648 C650 1.348 . S
C648 C651 1.356 . S
C648 O678 1.325 . S
N649 C652 1.314 . S
N649 C653 1.279 . S
C650 C648 1.348 . S
C650 C652 1.353 . S
C650 H692 0.929 . S
C651 C648 1.356 . S
C651 C653 1.358 . S
C651 H693 0.930 . S
C652 N649 1.314 . S
C652 C650 1.353 . S
C652 H694 0.930 . S
C653 N649 1.279 . S
C653 C651 1.358 . S
C653 H695 0.930 1_556 S
C654 C655 1.348 . S
C654 C656 1.356 1_455 S
C654 O679 1.325 . S
C655 C654 1.348 . S
C655 C657 1.353 . S
C655 H696 0.929 . S
C656 C654 1.356 1_655 S
C656 C658 1.358 . S
C656 H697 0.930 . S
C657 C655 1.353 . S
C657 N659 1.314 1_455 S
C657 H698 0.930 . S
C658 C656 1.358 . S
C658 N659 1.279 . S
C658 H699 0.930 . S
N659 C657 1.314 1_655 S
N659 C658 1.279 . S
C660 C662 1.353 . S
C660 N663 1.314 1_655 S
C660 H666 0.930 . S
C661 N663 1.279 . S
C661 C664 1.358 . S
C661 H667 0.930 . S
C662 C660 1.353 . S
C662 C665 1.348 1_655 S
C662 H700 0.929 . S
N663 Li618 1.990 . S
N663 C660 1.314 1_455 S
N663 C661 1.279 . S
C664 C661 1.358 . S
C664 C665 1.356 . S
C664 H701 0.930 . S
C665 C662 1.348 1_455 S
C665 C664 1.356 . S
H666 C660 0.930 . S
H667 C661 0.930 . S
C668 N669 1.314 . S
C668 C670 1.353 . S
C668 H674 0.930 . S
N669 Li619 1.990 . S
N669 C668 1.314 . S
N669 C672 1.279 . S
C670 C668 1.353 . S
C670 C673 1.348 . S
C670 H702 0.929 . S
C671 C672 1.358 . S
C671 C673 1.356 . S
C671 H703 0.930 . S
C672 N669 1.279 . S
C672 C671 1.358 . S
C672 H675 0.930 . S
C673 C670 1.348 . S
C673 C671 1.356 . S
H674 C668 0.930 . S
H675 C672 0.930 . S
O676 Li616 1.956 1_655 S
O676 Li617 1.970 . S
O676 Li618 1.961 1_655 S
O676 C620 1.325 . S
O677 Li616 1.970 . S
O677 Li617 1.956 1_455 S
O677 Li619 1.961 . S
O677 C626 1.325 . S
O678 Li616 1.961 . S
O678 Li618 1.956 . S
O678 Li619 1.970 . S
O678 C648 1.325 . S
O679 Li617 1.961 1_455 S
O679 Li618 1.970 . S
O679 Li619 1.956 . S
O679 C654 1.325 . S
H680 C622 0.929 . S
H681 C623 0.930 . S
H682 C624 0.930 . S
H683 C625 0.930 1_554 S
H684 C627 0.930 . S
H685 C629 0.929 . S
H686 C630 0.930 . S
H687 C631 0.930 . S
H688 C634 0.940 . S
H689 C637 0.929 . S
H690 C642 0.929 . S
H691 C643 0.930 . S
H692 C650 0.929 . S
H693 C651 0.930 . S
H694 C652 0.930 . S
H695 C653 0.930 1_554 S
H696 C655 0.929 . S
H697 C656 0.930 . S
H698 C657 0.930 . S
H699 C658 0.930 . S
H700 C662 0.929 . S
H701 C664 0.930 . S
H702 C670 0.929 . S
H703 C671 0.930 . S
Li704 N721 1.990 . S
Li704 O764 1.956 . S
Li704 O765 1.970 . S
Li704 O766 1.961 . S
Li705 N729 1.990 1_545 S
Li705 O764 1.970 . S
Li705 O765 1.956 . S
Li705 O767 1.961 . S
Li706 N751 1.990 . S
Li706 O764 1.961 . S
Li706 O766 1.956 . S
Li706 O767 1.970 . S
Li707 N757 1.990 . S
Li707 O765 1.961 . S
Li707 O766 1.970 . S
Li707 O767 1.956 . S
C708 C710 1.348 . S
C708 C711 1.356 . S
C708 O764 1.325 1_565 S
N709 C712 1.314 . S
N709 C713 1.279 . S
C710 C708 1.348 . S
C710 C712 1.353 . S
C710 H768 0.929 . S
C711 C708 1.356 . S
C711 C713 1.358 . S
C711 H769 0.930 1_565 S
C712 N709 1.314 . S
C712 C710 1.353 . S
C712 H770 0.930 . S
C713 N709 1.279 . S
C713 C711 1.358 . S
C713 H771 0.930 . S
C714 C717 1.348 . S
C714 C718 1.356 . S
C714 O765 1.325 . S
C715 N716 1.279 . S
C715 C718 1.358 . S
C715 H772 0.930 . S
N716 C715 1.279 . S
N716 C719 1.314 . S
C717 C714 1.348 . S
C717 C719 1.353 . S
C717 H773 0.929 . S
C718 C714 1.356 . S
C718 C715 1.358 . S
C718 H774 0.930 . S
C719 N716 1.314 . S
C719 C717 1.353 . S
C719 H775 0.930 . S
C720 N721 1.314 . S
C720 C725 1.353 . S
C720 H726 0.930 . S
N721 Li704 1.990 . S
N721 C720 1.314 . S
N721 C723 1.279 . S
C722 C723 1.358 . S
C722 C724 1.356 . S
C722 H776 0.930 . S
C723 N721 1.279 . S
C723 C722 1.358 . S
C723 H727 0.930 . S
C724 C722 1.356 . S
C724 C725 1.348 . S
C725 C720 1.353 . S
C725 C724 1.348 . S
C725 H777 0.929 . S
H726 C720 0.930 . S
H727 C723 0.930 . S
C728 N729 1.314 . S
C728 C730 1.353 . S
C728 H734 0.930 . S
N729 Li705 1.990 1_565 S
N729 C728 1.314 . S
N729 C732 1.279 . S
C730 C728 1.353 . S
C730 C733 1.348 . S
C730 H778 0.929 . S
C731 C732 1.358 . S
C731 C733 1.356 . S
C731 H779 0.930 . S
C732 N729 1.279 . S
C732 C731 1.358 . S
C732 H735 0.930 . S
C733 C730 1.348 . S
C733 C731 1.356 . S
H734 C728 0.930 . S
H735 C732 0.930 . S
C736 C738 1.348 . S
C736 C739 1.356 . S
C736 O766 1.325 . S
N737 C740 1.314 . S
N737 C741 1.279 . S
C738 C736 1.348 . S
C738 C740 1.353 . S
C738 H780 0.929 . S
C739 C736 1.356 . S
C739 C741 1.358 . S
C739 H781 0.930 . S
C740 N737 1.314 . S
C740 C738 1.353 . S
C740 H782 0.930 . S
C741 N737 1.279 . S
C741 C739 1.358 . S
C741 H783 0.930 . S
C742 C743 1.348 . S
C742 C744 1.356 . S
C742 O767 1.325 . S
C743 C742 1.348 . S
C743 C745 1.353 . S
C743 H784 0.929 . S
C744 C742 1.356 . S
C744 C746 1.358 . S
C744 H785 0.930 . S
C745 C743 1.353 . S
C745 N747 1.314 . S
C745 H786 0.930 . S
C746 C744 1.358 . S
C746 N747 1.279 . S
C746 H787 0.930 . S
N747 C745 1.314 . S
N747 C746 1.279 . S
C748 C750 1.353 . S
C748 N751 1.314 . S
C748 H754 0.930 . S
C749 N751 1.279 . S
C749 C752 1.358 . S
C749 H755 0.930 . S
C750 C748 1.353 . S
C750 C753 1.348 . S
C750 H788 0.929 . S
N751 Li706 1.990 . S
N751 C748 1.314 . S
N751 C749 1.279 . S
C752 C749 1.358 . S
C752 C753 1.356 . S
C752 H789 0.930 . S
C753 C750 1.348 . S
C753 C752 1.356 . S
H754 C748 0.930 . S
H755 C749 0.930 . S
C756 N757 1.314 . S
C756 C758 1.353 . S
C756 H762 0.930 . S
N757 Li707 1.990 . S
N757 C756 1.314 . S
N757 C760 1.279 . S
C758 C756 1.353 . S
C758 C761 1.348 . S
C758 H790 0.929 . S
C759 C760 1.358 . S
C759 C761 1.356 . S
C759 H791 0.930 . S
C760 N757 1.279 . S
C760 C759 1.358 . S
C760 H763 0.930 . S
C761 C758 1.348 . S
C761 C759 1.356 . S
H762 C756 0.930 . S
H763 C760 0.930 . S
O764 Li704 1.956 . S
O764 Li705 1.970 . S
O764 Li706 1.961 . S
O764 C708 1.325 1_545 S
O765 Li704 1.970 . S
O765 Li705 1.956 . S
O765 Li707 1.961 . S
O765 C714 1.325 . S
O766 Li704 1.961 . S
O766 Li706 1.956 . S
O766 Li707 1.970 . S
O766 C736 1.325 . S
O767 Li705 1.961 . S
O767 Li706 1.970 . S
O767 Li707 1.956 . S
O767 C742 1.325 . S
H768 C710 0.929 . S
H769 C711 0.930 1_545 S
H770 C712 0.930 . S
H771 C713 0.930 . S
H772 C715 0.930 . S
H773 C717 0.929 . S
H774 C718 0.930 . S
H775 C719 0.930 . S
H776 C722 0.930 . S
H777 C725 0.929 . S
H778 C730 0.929 . S
H779 C731 0.930 . S
H780 C738 0.929 . S
H781 C739 0.930 . S
H782 C740 0.930 . S
H783 C741 0.930 . S
H784 C743 0.929 . S
H785 C744 0.930 . S
H786 C745 0.930 . S
H787 C746 0.930 . S
H788 C750 0.929 . S
H789 C752 0.930 . S
H790 C758 0.929 . S
H791 C759 0.930 . S
Li792 N809 1.990 . S
Li792 O852 1.956 . S
Li792 O853 1.970 . S
Li792 O854 1.961 . S
Li793 N817 1.990 . S
Li793 O852 1.970 . S
Li793 O853 1.956 . S
Li793 O855 1.961 . S
Li794 N839 1.990 . S
Li794 O852 1.961 . S
Li794 O854 1.956 . S
Li794 O855 1.970 . S
Li795 N845 1.990 . S
Li795 O853 1.961 . S
Li795 O854 1.970 . S
Li795 O855 1.956 . S
C796 C798 1.348 . S
C796 C799 1.356 . S
C796 O852 1.325 . S
N797 C800 1.314 . S
N797 C801 1.279 . S
C798 C796 1.348 . S
C798 C800 1.353 . S
C798 H856 0.929 . S
C799 C796 1.356 . S
C799 C801 1.358 . S
C799 H857 0.930 . S
C800 N797 1.314 . S
C800 C798 1.353 . S
C800 H858 0.930 . S
C801 N797 1.279 . S
C801 C799 1.358 . S
C801 H859 0.930 . S
C802 C805 1.348 . S
C802 C806 1.356 . S
C802 O853 1.325 . S
C803 N804 1.279 . S
C803 C806 1.358 . S
C803 H860 0.930 . S
N804 C803 1.279 . S
N804 C807 1.314 . S
C805 C802 1.348 . S
C805 C807 1.353 . S
C805 H861 0.929 . S
C806 C802 1.356 . S
C806 C803 1.358 . S
C806 H862 0.930 . S
C807 N804 1.314 . S
C807 C805 1.353 . S
C807 H863 0.930 . S
C808 N809 1.314 . S
C808 C813 1.353 . S
C808 H814 0.930 . S
N809 Li792 1.990 . S
N809 C808 1.314 . S
N809 C811 1.279 . S
C810 C811 1.358 . S
C810 C812 1.356 . S
C810 H864 0.930 . S
C811 N809 1.279 . S
C811 C810 1.358 . S
C811 H815 0.930 . S
C812 C810 1.356 . S
C812 C813 1.348 . S
C813 C808 1.353 . S
C813 C812 1.348 . S
C813 H865 0.929 . S
H814 C808 0.930 . S
H815 C811 0.930 . S
C816 N817 1.314 . S
C816 C818 1.353 . S
C816 H822 0.930 . S
N817 Li793 1.990 . S
N817 C816 1.314 . S
N817 C820 1.279 . S
C818 C816 1.353 . S
C818 C821 1.348 . S
C818 H866 0.929 . S
C819 C820 1.358 . S
C819 C821 1.356 . S
C819 H867 0.930 . S
C820 N817 1.279 . S
C820 C819 1.358 . S
C820 H823 0.930 . S
C821 C818 1.348 . S
C821 C819 1.356 . S
H822 C816 0.930 . S
H823 C820 0.930 . S
C824 C826 1.348 . S
C824 C827 1.356 . S
C824 O854 1.325 . S
N825 C828 1.314 . S
N825 C829 1.279 . S
C826 C824 1.348 . S
C826 C828 1.353 . S
C826 H868 0.929 . S
C827 C824 1.356 . S
C827 C829 1.358 . S
C827 H869 0.930 . S
C828 N825 1.314 . S
C828 C826 1.353 . S
C828 H870 0.930 . S
C829 N825 1.279 . S
C829 C827 1.358 . S
C829 H871 0.930 . S
C830 C831 1.348 . S
C830 C832 1.356 . S
C830 O855 1.325 . S
C831 C830 1.348 . S
C831 C833 1.353 . S
C831 H872 0.929 . S
C832 C830 1.356 . S
C832 C834 1.358 . S
C832 H873 0.930 . S
C833 C831 1.353 . S
C833 N835 1.314 . S
C833 H874 0.930 . S
C834 C832 1.358 . S
C834 N835 1.279 . S
C834 H875 0.930 . S
N835 C833 1.314 . S
N835 C834 1.279 . S
C836 C838 1.353 . S
C836 N839 1.314 . S
C836 H842 0.930 . S
C837 N839 1.279 . S
C837 C840 1.358 . S
C837 H843 0.930 . S
C838 C836 1.353 . S
C838 C841 1.348 . S
C838 H876 0.929 . S
N839 Li794 1.990 . S
N839 C836 1.314 . S
N839 C837 1.279 . S
C840 C837 1.358 . S
C840 C841 1.356 . S
C840 H877 0.930 . S
C841 C838 1.348 . S
C841 C840 1.356 . S
H842 C836 0.930 . S
H843 C837 0.930 . S
C844 N845 1.314 . S
C844 C846 1.353 . S
C844 H850 0.930 . S
N845 Li795 1.990 . S
N845 C844 1.314 . S
N845 C848 1.279 . S
C846 C844 1.353 . S
C846 C849 1.348 . S
C846 H878 0.929 . S
C847 C848 1.358 . S
C847 C849 1.356 . S
C847 H879 0.930 . S
C848 N845 1.279 . S
C848 C847 1.358 . S
C848 H851 0.930 . S
C849 C846 1.348 . S
C849 C847 1.356 . S
H850 C844 0.930 . S
H851 C848 0.930 . S
O852 Li792 1.956 . S
O852 Li793 1.970 . S
O852 Li794 1.961 . S
O852 C796 1.325 . S
O853 Li792 1.970 . S
O853 Li793 1.956 . S
O853 Li795 1.961 . S
O853 C802 1.325 . S
O854 Li792 1.961 . S
O854 Li794 1.956 . S
O854 Li795 1.970 . S
O854 C824 1.325 . S
O855 Li793 1.961 . S
O855 Li794 1.970 . S
O855 Li795 1.956 . S
O855 C830 1.325 . S
H856 C798 0.929 . S
H857 C799 0.930 . S
H858 C800 0.930 . S
H859 C801 0.930 . S
H860 C803 0.930 . S
H861 C805 0.929 . S
H862 C806 0.930 . S
H863 C807 0.930 . S
H864 C810 0.930 . S
H865 C813 0.929 . S
H866 C818 0.929 . S
H867 C819 0.930 . S
H868 C826 0.929 . S
H869 C827 0.930 . S
H870 C828 0.930 . S
H871 C829 0.930 . S
H872 C831 0.929 . S
H873 C832 0.930 . S
H874 C833 0.930 . S
H875 C834 0.930 . S
H876 C838 0.929 . S
H877 C840 0.930 . S
H878 C846 0.929 . S
H879 C847 0.930 . S
Li880 N897 1.990 . S
Li880 O940 1.956 . S
Li880 O941 1.970 . S
Li880 O942 1.961 . S
Li881 N905 1.990 . S
Li881 O940 1.971 1_565 S
Li881 O941 1.951 1_565 S
Li881 O943 1.966 . S
Li882 N927 1.990 . S
Li882 O940 1.961 1_565 S
Li882 O942 1.956 1_565 S
Li882 O943 1.970 . S
Li883 N933 1.990 . S
Li883 O941 1.961 1_565 S
Li883 O942 1.970 1_565 S
Li883 O943 1.956 . S
C884 C886 1.348 . S
C884 C887 1.356 . S
C884 O940 1.325 . S
N885 C888 1.314 . S
N885 C889 1.279 . S
C886 C884 1.348 . S
C886 C888 1.353 . S
C886 H944 0.929 . S
C887 C884 1.356 . S
C887 C889 1.358 . S
C887 H945 0.932 . S
C888 N885 1.314 . S
C888 C886 1.353 . S
C888 H946 0.930 . S
C889 N885 1.279 . S
C889 C887 1.358 . S
C889 H947 0.930 . S
C890 C893 1.348 . S
C890 C894 1.356 . S
C890 O941 1.325 . S
C891 N892 1.279 . S
C891 C894 1.358 . S
C891 H948 0.930 . S
N892 C891 1.279 . S
N892 C895 1.314 . S
C893 C890 1.348 . S
C893 C895 1.353 . S
C893 H949 0.929 . S
C894 C890 1.356 . S
C894 C891 1.358 . S
C894 H950 0.930 . S
C895 N892 1.314 . S
C895 C893 1.353 . S
C895 H951 0.930 . S
C896 N897 1.314 . S
C896 C901 1.353 . S
C896 H902 0.930 . S
N897 Li880 1.990 . S
N897 C896 1.314 . S
N897 C899 1.279 . S
C898 C899 1.358 . S
C898 C900 1.356 . S
C898 H952 0.930 . S
C899 N897 1.279 . S
C899 C898 1.358 . S
C899 H903 0.930 . S
C900 C898 1.356 . S
C900 C901 1.348 . S
C901 C896 1.353 . S
C901 C900 1.348 . S
C901 H953 0.929 . S
H902 C896 0.930 . S
H903 C899 0.930 . S
C904 N905 1.314 . S
C904 C906 1.353 . S
C904 H910 0.930 . S
N905 Li881 1.990 . S
N905 C904 1.314 . S
N905 C908 1.279 1_565 S
C906 C904 1.353 . S
C906 C909 1.348 . S
C906 H954 0.929 . S
C907 C908 1.358 . S
C907 C909 1.356 1_545 S
C907 H955 0.930 . S
C908 N905 1.279 1_545 S
C908 C907 1.358 . S
C908 H911 0.930 . S
C909 C906 1.348 . S
C909 C907 1.356 1_565 S
H910 C904 0.930 . S
H911 C908 0.930 . S
C912 C914 1.348 1_545 S
C912 C915 1.356 . S
C912 O942 1.325 . S
N913 C916 1.314 1_545 S
N913 C917 1.279 . S
C914 C912 1.348 1_565 S
C914 C916 1.353 . S
C914 H956 0.929 . S
C915 C912 1.356 . S
C915 C917 1.358 . S
C915 H957 0.930 . S
C916 N913 1.314 1_565 S
C916 C914 1.353 . S
C916 H958 0.930 . S
C917 N913 1.279 . S
C917 C915 1.358 . S
C917 H959 0.930 . S
C918 C919 1.348 . S
C918 C920 1.356 . S
C918 O943 1.325 . S
C919 C918 1.348 . S
C919 C921 1.353 . S
C919 H960 0.929 . S
C920 C918 1.356 . S
C920 C922 1.358 . S
C920 H961 0.930 . S
C921 C919 1.353 . S
C921 N923 1.314 . S
C921 H962 0.930 . S
C922 C920 1.358 . S
C922 N923 1.279 . S
C922 H963 0.945 . S
N923 C921 1.314 . S
N923 C922 1.279 . S
C924 C926 1.353 . S
C924 N927 1.314 . S
C924 H930 0.930 . S
C925 N927 1.279 . S
C925 C928 1.358 . S
C925 H931 0.930 . S
C926 C924 1.353 . S
C926 C929 1.348 . S
C926 H964 0.929 . S
N927 Li882 1.990 . S
N927 C924 1.314 . S
N927 C925 1.279 . S
C928 C925 1.358 . S
C928 C929 1.356 . S
C928 H965 0.930 . S
C929 C926 1.348 . S
C929 C928 1.356 . S
H930 C924 0.930 . S
H931 C925 0.930 . S
C932 N933 1.314 1_545 S
C932 C934 1.353 . S
C932 H938 0.930 . S
N933 Li883 1.990 . S
N933 C932 1.314 1_565 S
N933 C936 1.279 . S
C934 C932 1.353 . S
C934 C937 1.348 1_545 S
C934 H966 0.929 . S
C935 C936 1.358 . S
C935 C937 1.356 . S
C935 H967 0.930 . S
C936 N933 1.279 . S
C936 C935 1.358 . S
C936 H939 0.930 . S
C937 C934 1.348 1_565 S
C937 C935 1.356 . S
H938 C932 0.930 . S
H939 C936 0.930 . S
O940 Li880 1.956 . S
O940 Li881 1.971 1_545 S
O940 Li882 1.961 1_545 S
O940 C884 1.325 . S
O941 Li880 1.970 . S
O941 Li881 1.951 1_545 S
O941 Li883 1.961 1_545 S
O941 C890 1.325 . S
O942 Li880 1.961 . S
O942 Li882 1.956 1_545 S
O942 Li883 1.970 1_545 S
O942 C912 1.325 . S
O943 Li881 1.966 . S
O943 Li882 1.970 . S
O943 Li883 1.956 . S
O943 C918 1.325 . S
H944 C886 0.929 . S
H945 C887 0.932 . S
H946 C888 0.930 . S
H947 C889 0.930 . S
H948 C891 0.930 . S
H949 C893 0.929 . S
H950 C894 0.930 . S
H951 C895 0.930 . S
H952 C898 0.930 . S
H953 C901 0.929 . S
H954 C906 0.929 . S
H955 C907 0.930 . S
H956 C914 0.929 . S
H957 C915 0.930 . S
H958 C916 0.930 . S
H959 C917 0.930 . S
H960 C919 0.929 . S
H961 C920 0.930 . S
H962 C921 0.930 . S
H963 C922 0.945 . S
H964 C926 0.929 . S
H965 C928 0.930 . S
H966 C934 0.929 . S
H967 C935 0.930 . S
Li968 N985 1.990 . S
Li968 O1028 1.956 . S
Li968 O1029 1.970 . S
Li968 O1030 1.961 1_554 S
Li969 N993 1.990 . S
Li969 O1028 1.970 . S
Li969 O1029 1.956 . S
Li969 O1031 1.961 . S
Li970 N1015 1.990 . S
Li970 O1028 1.961 . S
Li970 O1030 1.956 1_554 S
Li970 O1031 1.970 . S
Li971 N1021 1.990 . S
Li971 O1029 1.961 1_556 S
Li971 O1030 1.970 . S
Li971 O1031 1.956 1_556 S
C972 C974 1.348 . S
C972 C975 1.356 . S
C972 O1028 1.325 . S
N973 C976 1.314 . S
N973 C977 1.279 1_565 S
C974 C972 1.348 . S
C974 C976 1.353 . S
C974 H1032 0.929 . S
C975 C972 1.356 . S
C975 C977 1.358 1_565 S
C975 H1033 0.930 . S
C976 N973 1.314 . S
C976 C974 1.353 . S
C976 H1034 0.930 . S
C977 N973 1.279 1_545 S
C977 C975 1.358 1_545 S
C977 H1035 0.930 . S
C978 C981 1.348 . S
C978 C982 1.356 . S
C978 O1029 1.325 . S
C979 N980 1.279 . S
C979 C982 1.358 . S
C979 H1036 0.930 . S
N980 C979 1.279 . S
N980 C983 1.314 . S
C981 C978 1.348 . S
C981 C983 1.353 . S
C981 H1037 0.929 . S
C982 C978 1.356 . S
C982 C979 1.358 . S
C982 H1038 0.930 . S
C983 N980 1.314 . S
C983 C981 1.353 . S
C983 H1039 0.930 . S
C984 N985 1.314 . S
C984 C989 1.353 . S
C984 H990 0.930 1_554 S
N985 Li968 1.990 . S
N985 C984 1.314 . S
N985 C987 1.279 . S
C986 C987 1.358 . S
C986 C988 1.356 . S
C986 H1040 0.935 . S
C987 N985 1.279 . S
C987 C986 1.358 . S
C987 H991 0.930 . S
C988 C986 1.356 . S
C988 C989 1.348 . S
C989 C984 1.353 . S
C989 C988 1.348 . S
C989 H1041 0.929 1_554 S
H990 C984 0.930 1_556 S
H991 C987 0.930 . S
C992 N993 1.314 . S
C992 C994 1.353 . S
C992 H998 0.930 . S
N993 Li969 1.990 . S
N993 C992 1.314 . S
N993 C996 1.279 . S
C994 C992 1.353 . S
C994 C997 1.348 . S
C994 H1042 0.929 . S
C995 C996 1.358 . S
C995 C997 1.356 . S
C995 H1043 0.930 . S
C996 N993 1.279 . S
C996 C995 1.358 . S
C996 H999 0.930 . S
C997 C994 1.348 . S
C997 C995 1.356 . S
H998 C992 0.930 . S
H999 C996 0.930 . S
C1000 C1002 1.348 . S
C1000 C1003 1.356 . S
C1000 O1030 1.325 . S
N1001 C1004 1.314 . S
N1001 C1005 1.279 . S
C1002 C1000 1.348 . S
C1002 C1004 1.353 . S
C1002 H1044 0.929 . S
C1003 C1000 1.356 . S
C1003 C1005 1.358 . S
C1003 H1045 0.930 . S
C1004 N1001 1.314 . S
C1004 C1002 1.353 . S
C1004 H1046 0.930 . S
C1005 N1001 1.279 . S
C1005 C1003 1.358 . S
C1005 H1047 0.930 1_565 S
C1006 C1007 1.348 . S
C1006 C1008 1.356 . S
C1006 O1031 1.325 . S
C1007 C1006 1.348 . S
C1007 C1009 1.353 . S
C1007 H1048 0.929 . S
C1008 C1006 1.356 . S
C1008 C1010 1.358 . S
C1008 H1049 0.930 . S
C1009 C1007 1.353 . S
C1009 N1011 1.314 . S
C1009 H1050 0.930 . S
C1010 C1008 1.358 . S
C1010 N1011 1.279 . S
C1010 H1051 0.930 . S
N1011 C1009 1.314 . S
N1011 C1010 1.279 . S
C1012 C1014 1.353 . S
C1012 N1015 1.314 . S
C1012 H1018 0.930 . S
C1013 N1015 1.279 . S
C1013 C1016 1.355 1_565 S
C1013 H1019 0.930 1_554 S
C1014 C1012 1.353 . S
C1014 C1017 1.348 1_565 S
C1014 H1052 0.929 . S
N1015 Li970 1.990 . S
N1015 C1012 1.314 . S
N1015 C1013 1.279 . S
C1016 C1013 1.355 1_545 S
C1016 C1017 1.356 . S
C1016 H1053 0.933 1_554 S
C1017 C1014 1.348 1_545 S
C1017 C1016 1.356 . S
H1018 C1012 0.930 . S
H1019 C1013 0.930 1_556 S
C1020 N1021 1.314 . S
C1020 C1022 1.353 . S
C1020 H1026 0.930 . S
N1021 Li971 1.990 . S
N1021 C1020 1.314 . S
N1021 C1024 1.279 . S
C1022 C1020 1.353 . S
C1022 C1025 1.348 . S
C1022 H1054 0.929 . S
C1023 C1024 1.358 . S
C1023 C1025 1.356 . S
C1023 H1055 0.930 . S
C1024 N1021 1.279 . S
C1024 C1023 1.358 . S
C1024 H1027 0.930 . S
C1025 C1022 1.348 . S
C1025 C1023 1.356 . S
H1026 C1020 0.930 . S
H1027 C1024 0.930 . S
O1028 Li968 1.956 . S
O1028 Li969 1.970 . S
O1028 Li970 1.961 . S
O1028 C972 1.325 . S
O1029 Li968 1.970 . S
O1029 Li969 1.956 . S
O1029 Li971 1.961 1_554 S
O1029 C978 1.325 . S
O1030 Li968 1.961 1_556 S
O1030 Li970 1.956 1_556 S
O1030 Li971 1.970 . S
O1030 C1000 1.325 . S
O1031 Li969 1.961 . S
O1031 Li970 1.970 . S
O1031 Li971 1.956 1_554 S
O1031 C1006 1.325 . S
H1032 C974 0.929 . S
H1033 C975 0.930 . S
H1034 C976 0.930 . S
H1035 C977 0.930 . S
H1036 C979 0.930 . S
H1037 C981 0.929 . S
H1038 C982 0.930 . S
H1039 C983 0.930 . S
H1040 C986 0.935 . S
H1041 C989 0.929 1_556 S
H1042 C994 0.929 . S
H1043 C995 0.930 . S
H1044 C1002 0.929 . S
H1045 C1003 0.930 . S
H1046 C1004 0.930 . S
H1047 C1005 0.930 1_545 S
H1048 C1007 0.929 . S
H1049 C1008 0.930 . S
H1050 C1009 0.930 . S
H1051 C1010 0.930 . S
H1052 C1014 0.929 . S
H1053 C1016 0.933 1_556 S
H1054 C1022 0.929 . S
H1055 C1023 0.930 . S
Li1056 N1073 1.990 . S
Li1056 O1116 1.956 . S
Li1056 O1117 1.970 . S
Li1056 O1118 1.961 . S
Li1057 N1081 1.990 . S
Li1057 O1116 1.970 . S
Li1057 O1117 1.956 . S
Li1057 O1119 1.961 . S
Li1058 N1103 1.990 . S
Li1058 O1116 1.961 . S
Li1058 O1118 1.956 . S
Li1058 O1119 1.970 . S
Li1059 N1109 1.990 1_554 S
Li1059 O1117 1.961 . S
Li1059 O1118 1.970 . S
Li1059 O1119 1.956 . S
C1060 C1062 1.348 . S
C1060 C1063 1.356 . S
C1060 O1116 1.325 . S
N1061 C1064 1.314 . S
N1061 C1065 1.279 . S
C1062 C1060 1.348 . S
C1062 C1064 1.353 . S
C1062 H1120 0.929 . S
C1063 C1060 1.356 . S
C1063 C1065 1.358 . S
C1063 H1121 0.930 . S
C1064 N1061 1.314 . S
C1064 C1062 1.353 . S
C1064 H1122 0.930 . S
C1065 N1061 1.279 . S
C1065 C1063 1.358 . S
C1065 H1123 0.930 . S
C1066 C1069 1.348 . S
C1066 C1070 1.356 . S
C1066 O1117 1.325 . S
C1067 N1068 1.279 . S
C1067 C1070 1.358 . S
C1067 H1124 0.930 . S
N1068 C1067 1.279 . S
N1068 C1071 1.314 . S
C1069 C1066 1.348 . S
C1069 C1071 1.353 . S
C1069 H1125 0.929 . S
C1070 C1066 1.356 . S
C1070 C1067 1.358 . S
C1070 H1126 0.930 . S
C1071 N1068 1.314 . S
C1071 C1069 1.353 . S
C1071 H1127 0.930 . S
C1072 N1073 1.314 . S
C1072 C1077 1.353 . S
C1072 H1078 0.930 1_554 S
N1073 Li1056 1.990 . S
N1073 C1072 1.314 . S
N1073 C1075 1.279 . S
C1074 C1075 1.358 . S
C1074 C1076 1.356 . S
C1074 H1128 0.930 . S
C1075 N1073 1.279 . S
C1075 C1074 1.358 . S
C1075 H1079 0.930 . S
C1076 C1074 1.356 . S
C1076 C1077 1.348 . S
C1077 C1072 1.353 . S
C1077 C1076 1.348 . S
C1077 H1129 0.929 1_554 S
H1078 C1072 0.930 1_556 S
H1079 C1075 0.930 . S
C1080 N1081 1.314 . S
C1080 C1082 1.353 . S
C1080 H1086 0.930 . S
N1081 Li1057 1.990 . S
N1081 C1080 1.314 . S
N1081 C1084 1.279 . S
C1082 C1080 1.353 . S
C1082 C1085 1.348 . S
C1082 H1130 0.929 . S
C1083 C1084 1.358 . S
C1083 C1085 1.356 . S
C1083 H1131 0.930 . S
C1084 N1081 1.279 . S
C1084 C1083 1.358 . S
C1084 H1087 0.930 . S
C1085 C1082 1.348 . S
C1085 C1083 1.356 . S
H1086 C1080 0.930 . S
H1087 C1084 0.930 . S
C1088 C1090 1.348 . S
C1088 C1091 1.356 . S
C1088 O1118 1.325 1_556 S
N1089 C1092 1.314 . S
N1089 C1093 1.279 . S
C1090 C1088 1.348 . S
C1090 C1092 1.353 . S
C1090 H1132 0.929 . S
C1091 C1088 1.356 . S
C1091 C1093 1.358 . S
C1091 H1133 0.919 1_556 S
C1092 N1089 1.314 . S
C1092 C1090 1.353 . S
C1092 H1134 0.930 . S
C1093 N1089 1.279 . S
C1093 C1091 1.358 . S
C1093 H1135 0.930 . S
C1094 C1095 1.348 . S
C1094 C1096 1.356 . S
C1094 O1119 1.325 . S
C1095 C1094 1.348 . S
C1095 C1097 1.353 . S
C1095 H1136 0.929 . S
C1096 C1094 1.356 . S
C1096 C1098 1.358 . S
C1096 H1137 0.930 . S
C1097 C1095 1.353 . S
C1097 N1099 1.314 . S
C1097 H1138 0.930 . S
C1098 C1096 1.358 . S
C1098 N1099 1.279 . S
C1098 H1139 0.930 . S
N1099 C1097 1.314 . S
N1099 C1098 1.279 . S
C1100 C1102 1.353 . S
C1100 N1103 1.314 . S
C1100 H1106 0.930 . S
C1101 N1103 1.279 . S
C1101 C1104 1.358 . S
C1101 H1107 0.930 1_554 S
C1102 C1100 1.353 . S
C1102 C1105 1.348 . S
C1102 H1140 0.929 . S
N1103 Li1058 1.990 . S
N1103 C1100 1.314 . S
N1103 C1101 1.279 . S
C1104 C1101 1.358 . S
C1104 C1105 1.356 . S
C1104 H1141 0.930 . S
C1105 C1102 1.348 . S
C1105 C1104 1.356 . S
H1106 C1100 0.930 . S
H1107 C1101 0.930 1_556 S
C1108 N1109 1.314 . S
C1108 C1110 1.353 . S
C1108 H1114 0.930 . S
N1109 Li1059 1.990 1_556 S
N1109 C1108 1.314 . S
N1109 C1112 1.279 . S
C1110 C1108 1.353 . S
C1110 C1113 1.348 . S
C1110 H1142 0.929 . S
C1111 C1112 1.358 . S
C1111 C1113 1.356 . S
C1111 H1143 0.930 . S
C1112 N1109 1.279 . S
C1112 C1111 1.358 . S
C1112 H1115 0.930 . S
C1113 C1110 1.348 . S
C1113 C1111 1.356 . S
H1114 C1108 0.930 . S
H1115 C1112 0.930 . S
O1116 Li1056 1.956 . S
O1116 Li1057 1.970 . S
O1116 Li1058 1.961 . S
O1116 C1060 1.325 . S
O1117 Li1056 1.970 . S
O1117 Li1057 1.956 . S
O1117 Li1059 1.961 . S
O1117 C1066 1.325 . S
O1118 Li1056 1.961 . S
O1118 Li1058 1.956 . S
O1118 Li1059 1.970 . S
O1118 C1088 1.325 1_554 S
O1119 Li1057 1.961 . S
O1119 Li1058 1.970 . S
O1119 Li1059 1.956 . S
O1119 C1094 1.325 . S
H1120 C1062 0.929 . S
H1121 C1063 0.930 . S
H1122 C1064 0.930 . S
H1123 C1065 0.930 . S
H1124 C1067 0.930 . S
H1125 C1069 0.929 . S
H1126 C1070 0.930 . S
H1127 C1071 0.930 . S
H1128 C1074 0.930 . S
H1129 C1077 0.929 1_556 S
H1130 C1082 0.929 . S
H1131 C1083 0.930 . S
H1132 C1090 0.929 . S
H1133 C1091 0.919 1_554 S
H1134 C1092 0.930 . S
H1135 C1093 0.930 . S
H1136 C1095 0.929 . S
H1137 C1096 0.930 . S
H1138 C1097 0.930 . S
H1139 C1098 0.930 . S
H1140 C1102 0.929 . S
H1141 C1104 0.930 . S
H1142 C1110 0.929 . S
H1143 C1111 0.930 . S
Li1144 N1161 1.990 . S
Li1144 O1204 1.956 . S
Li1144 O1205 1.970 . S
Li1144 O1206 1.961 . S
Li1145 N1169 1.990 . S
Li1145 O1204 1.970 . S
Li1145 O1205 1.956 . S
Li1145 O1207 1.961 1_554 S
Li1146 N1191 1.990 . S
Li1146 O1204 1.961 1_556 S
Li1146 O1206 1.956 1_556 S
Li1146 O1207 1.970 . S
Li1147 N1197 1.992 1_554 S
Li1147 O1205 1.984 . S
Li1147 O1206 1.971 . S
Li1147 O1207 1.932 1_554 S
C1148 C1150 1.348 . S
C1148 C1151 1.356 . S
C1148 O1204 1.325 . S
N1149 C1152 1.314 . S
N1149 C1153 1.279 . S
C1150 C1148 1.348 . S
C1150 C1152 1.353 . S
C1150 H1208 0.929 . S
C1151 C1148 1.356 . S
C1151 C1153 1.358 . S
C1151 H1209 0.935 . S
C1152 N1149 1.314 . S
C1152 C1150 1.353 . S
C1152 H1210 0.930 . S
C1153 N1149 1.279 . S
C1153 C1151 1.358 . S
C1153 H1211 0.930 . S
C1154 C1157 1.348 . S
C1154 C1158 1.356 . S
C1154 O1205 1.325 . S
C1155 N1156 1.279 . S
C1155 C1158 1.358 . S
C1155 H1212 0.930 . S
N1156 C1155 1.279 . S
N1156 C1159 1.314 . S
C1157 C1154 1.348 . S
C1157 C1159 1.353 . S
C1157 H1213 0.929 . S
C1158 C1154 1.356 . S
C1158 C1155 1.358 . S
C1158 H1214 0.930 . S
C1159 N1156 1.314 . S
C1159 C1157 1.353 . S
C1159 H1215 0.930 . S
C1160 N1161 1.314 . S
C1160 C1165 1.353 . S
C1160 H1166 0.930 . S
N1161 Li1144 1.990 . S
N1161 C1160 1.314 . S
N1161 C1163 1.279 . S
C1162 C1163 1.358 . S
C1162 C1164 1.356 . S
C1162 H1216 0.930 . S
C1163 N1161 1.279 . S
C1163 C1162 1.358 . S
C1163 H1167 0.930 . S
C1164 C1162 1.356 . S
C1164 C1165 1.348 . S
C1165 C1160 1.353 . S
C1165 C1164 1.348 . S
C1165 H1217 0.929 . S
H1166 C1160 0.930 . S
H1167 C1163 0.930 . S
C1168 N1169 1.314 1_556 S
C1168 C1170 1.353 . S
C1168 H1174 0.930 . S
N1169 Li1145 1.990 . S
N1169 C1168 1.314 1_554 S
N1169 C1172 1.279 . S
C1170 C1168 1.353 . S
C1170 C1173 1.348 1_556 S
C1170 H1218 0.929 . S
C1171 C1172 1.358 . S
C1171 C1173 1.356 . S
C1171 H1219 0.930 . S
C1172 N1169 1.279 . S
C1172 C1171 1.358 . S
C1172 H1175 0.930 . S
C1173 C1170 1.348 1_554 S
C1173 C1171 1.356 . S
H1174 C1168 0.930 . S
H1175 C1172 0.930 . S
C1176 C1178 1.348 1_554 S
C1176 C1179 1.356 . S
C1176 O1206 1.325 . S
N1177 C1180 1.314 1_554 S
N1177 C1181 1.279 . S
C1178 C1176 1.348 1_556 S
C1178 C1180 1.353 . S
C1178 H1220 0.929 . S
C1179 C1176 1.356 . S
C1179 C1181 1.358 . S
C1179 H1221 0.930 . S
C1180 N1177 1.314 1_556 S
C1180 C1178 1.353 . S
C1180 H1222 0.930 . S
C1181 N1177 1.279 . S
C1181 C1179 1.358 . S
C1181 H1223 0.930 . S
C1182 C1183 1.348 . S
C1182 C1184 1.356 . S
C1182 O1207 1.325 . S
C1183 C1182 1.348 . S
C1183 C1185 1.353 . S
C1183 H1224 0.929 . S
C1184 C1182 1.356 . S
C1184 C1186 1.358 . S
C1184 H1225 0.930 . S
C1185 C1183 1.353 . S
C1185 N1187 1.314 . S
C1185 H1226 0.930 . S
C1186 C1184 1.358 . S
C1186 N1187 1.279 . S
C1186 H1227 0.930 . S
N1187 C1185 1.314 . S
N1187 C1186 1.279 . S
C1188 C1190 1.353 . S
C1188 N1191 1.314 . S
C1188 H1194 0.930 . S
C1189 N1191 1.279 . S
C1189 C1192 1.358 . S
C1189 H1195 0.930 . S
C1190 C1188 1.353 . S
C1190 C1193 1.348 . S
C1190 H1228 0.929 . S
N1191 Li1146 1.990 . S
N1191 C1188 1.314 . S
N1191 C1189 1.279 . S
C1192 C1189 1.358 . S
C1192 C1193 1.356 . S
C1192 H1229 0.930 . S
C1193 C1190 1.348 . S
C1193 C1192 1.356 . S
H1194 C1188 0.930 . S
H1195 C1189 0.930 . S
C1196 N1197 1.314 1_554 S
C1196 C1198 1.353 . S
C1196 H1202 0.930 . S
N1197 Li1147 1.992 1_556 S
N1197 C1196 1.314 1_556 S
N1197 C1200 1.279 . S
C1198 C1196 1.353 . S
C1198 C1201 1.348 1_554 S
C1198 H1230 0.929 . S
C1199 C1200 1.358 . S
C1199 C1201 1.356 . S
C1199 H1231 0.930 . S
C1200 N1197 1.279 . S
C1200 C1199 1.358 . S
C1200 H1203 0.930 . S
C1201 C1198 1.348 1_556 S
C1201 C1199 1.356 . S
H1202 C1196 0.930 . S
H1203 C1200 0.930 . S
O1204 Li1144 1.956 . S
O1204 Li1145 1.970 . S
O1204 Li1146 1.961 1_554 S
O1204 C1148 1.325 . S
O1205 Li1144 1.970 . S
O1205 Li1145 1.956 . S
O1205 Li1147 1.984 . S
O1205 C1154 1.325 . S
O1206 Li1144 1.961 . S
O1206 Li1146 1.956 1_554 S
O1206 Li1147 1.971 . S
O1206 C1176 1.325 . S
O1207 Li1145 1.961 1_556 S
O1207 Li1146 1.970 . S
O1207 Li1147 1.932 1_556 S
O1207 C1182 1.325 . S
H1208 C1150 0.929 . S
H1209 C1151 0.935 . S
H1210 C1152 0.930 . S
H1211 C1153 0.930 . S
H1212 C1155 0.930 . S
H1213 C1157 0.929 . S
H1214 C1158 0.930 . S
H1215 C1159 0.930 . S
H1216 C1162 0.930 . S
H1217 C1165 0.929 . S
H1218 C1170 0.929 . S
H1219 C1171 0.930 . S
H1220 C1178 0.929 . S
H1221 C1179 0.930 . S
H1222 C1180 0.930 . S
H1223 C1181 0.930 . S
H1224 C1183 0.929 . S
H1225 C1184 0.930 . S
H1226 C1185 0.930 . S
H1227 C1186 0.930 . S
H1228 C1190 0.929 . S
H1229 C1192 0.930 . S
H1230 C1198 0.929 . S
H1231 C1199 0.930 . S
Li1232 N1249 1.990 . S
Li1232 O1292 1.956 . S
Li1232 O1293 1.970 . S
Li1232 O1294 1.961 . S
Li1233 N1257 1.990 . S
Li1233 O1292 1.970 . S
Li1233 O1293 1.956 . S
Li1233 O1295 1.961 . S
Li1234 N1279 1.990 . S
Li1234 O1292 1.961 . S
Li1234 O1294 1.956 . S
Li1234 O1295 1.970 . S
Li1235 N1285 1.990 . S
Li1235 O1293 1.961 . S
Li1235 O1294 1.970 . S
Li1235 O1295 1.956 . S
C1236 C1238 1.348 . S
C1236 C1239 1.356 . S
C1236 O1292 1.325 . S
N1237 C1240 1.314 . S
N1237 C1241 1.279 . S
C1238 C1236 1.348 . S
C1238 C1240 1.353 . S
C1238 H1296 0.929 . S
C1239 C1236 1.356 . S
C1239 C1241 1.358 . S
C1239 H1297 0.930 . S
C1240 N1237 1.314 . S
C1240 C1238 1.353 . S
C1240 H1298 0.930 . S
C1241 N1237 1.279 . S
C1241 C1239 1.358 . S
C1241 H1299 0.930 . S
C1242 C1245 1.348 . S
C1242 C1246 1.356 . S
C1242 O1293 1.325 . S
C1243 N1244 1.279 . S
C1243 C1246 1.358 . S
C1243 H1300 0.930 1_455 S
N1244 C1243 1.279 . S
N1244 C1247 1.314 . S
C1245 C1242 1.348 . S
C1245 C1247 1.353 . S
C1245 H1301 0.929 . S
C1246 C1242 1.356 . S
C1246 C1243 1.358 . S
C1246 H1302 0.930 . S
C1247 N1244 1.314 . S
C1247 C1245 1.353 . S
C1247 H1303 0.930 . S
C1248 N1249 1.314 . S
C1248 C1253 1.353 . S
C1248 H1254 0.930 . S
N1249 Li1232 1.990 . S
N1249 C1248 1.314 . S
N1249 C1251 1.279 . S
C1250 C1251 1.358 . S
C1250 C1252 1.356 . S
C1250 H1304 0.930 . S
C1251 N1249 1.279 . S
C1251 C1250 1.358 . S
C1251 H1255 0.930 . S
C1252 C1250 1.356 . S
C1252 C1253 1.348 . S
C1253 C1248 1.353 . S
C1253 C1252 1.348 . S
C1253 H1305 0.929 . S
H1254 C1248 0.930 . S
H1255 C1251 0.930 . S
C1256 N1257 1.314 . S
C1256 C1258 1.353 . S
C1256 H1262 0.930 . S
N1257 Li1233 1.990 . S
N1257 C1256 1.314 . S
N1257 C1260 1.279 . S
C1258 C1256 1.353 . S
C1258 C1261 1.348 . S
C1258 H1306 0.929 . S
C1259 C1260 1.358 . S
C1259 C1261 1.356 . S
C1259 H1307 0.930 . S
C1260 N1257 1.279 . S
C1260 C1259 1.358 . S
C1260 H1263 0.930 . S
C1261 C1258 1.348 . S
C1261 C1259 1.356 . S
H1262 C1256 0.930 . S
H1263 C1260 0.930 . S
C1264 C1266 1.348 . S
C1264 C1267 1.356 . S
C1264 O1294 1.325 . S
N1265 C1268 1.314 . S
N1265 C1269 1.279 . S
C1266 C1264 1.348 . S
C1266 C1268 1.353 . S
C1266 H1308 0.929 . S
C1267 C1264 1.356 . S
C1267 C1269 1.358 . S
C1267 H1309 0.930 . S
C1268 N1265 1.314 . S
C1268 C1266 1.353 . S
C1268 H1310 0.930 . S
C1269 N1265 1.279 . S
C1269 C1267 1.358 . S
C1269 H1311 0.930 . S
C1270 C1271 1.348 . S
C1270 C1272 1.356 . S
C1270 O1295 1.325 . S
C1271 C1270 1.348 . S
C1271 C1273 1.353 . S
C1271 H1312 0.929 . S
C1272 C1270 1.356 . S
C1272 C1274 1.358 . S
C1272 H1313 0.930 . S
C1273 C1271 1.353 . S
C1273 N1275 1.314 . S
C1273 H1314 0.930 . S
C1274 C1272 1.358 . S
C1274 N1275 1.279 . S
C1274 H1315 0.930 1_455 S
N1275 C1273 1.314 . S
N1275 C1274 1.279 . S
C1276 C1278 1.353 . S
C1276 N1279 1.314 . S
C1276 H1282 0.930 . S
C1277 N1279 1.279 . S
C1277 C1280 1.358 . S
C1277 H1283 0.930 . S
C1278 C1276 1.353 . S
C1278 C1281 1.348 . S
C1278 H1316 0.929 . S
N1279 Li1234 1.990 . S
N1279 C1276 1.314 . S
N1279 C1277 1.279 . S
C1280 C1277 1.358 . S
C1280 C1281 1.356 . S
C1280 H1317 0.930 . S
C1281 C1278 1.348 . S
C1281 C1280 1.356 . S
H1282 C1276 0.930 . S
H1283 C1277 0.930 . S
C1284 N1285 1.314 . S
C1284 C1286 1.353 . S
C1284 H1290 0.930 . S
N1285 Li1235 1.990 . S
N1285 C1284 1.314 . S
N1285 C1288 1.279 . S
C1286 C1284 1.353 . S
C1286 C1289 1.348 . S
C1286 H1318 0.929 . S
C1287 C1288 1.358 . S
C1287 C1289 1.356 . S
C1287 H1319 0.930 . S
C1288 N1285 1.279 . S
C1288 C1287 1.358 . S
C1288 H1291 0.930 . S
C1289 C1286 1.348 . S
C1289 C1287 1.356 . S
H1290 C1284 0.930 . S
H1291 C1288 0.930 . S
O1292 Li1232 1.956 . S
O1292 Li1233 1.970 . S
O1292 Li1234 1.961 . S
O1292 C1236 1.325 . S
O1293 Li1232 1.970 . S
O1293 Li1233 1.956 . S
O1293 Li1235 1.961 . S
O1293 C1242 1.325 . S
O1294 Li1232 1.961 . S
O1294 Li1234 1.956 . S
O1294 Li1235 1.970 . S
O1294 C1264 1.325 . S
O1295 Li1233 1.961 . S
O1295 Li1234 1.970 . S
O1295 Li1235 1.956 . S
O1295 C1270 1.325 . S
H1296 C1238 0.929 . S
H1297 C1239 0.930 . S
H1298 C1240 0.930 . S
H1299 C1241 0.930 . S
H1300 C1243 0.930 1_655 S
H1301 C1245 0.929 . S
H1302 C1246 0.930 . S
H1303 C1247 0.930 . S
H1304 C1250 0.930 . S
H1305 C1253 0.929 . S
H1306 C1258 0.929 . S
H1307 C1259 0.930 . S
H1308 C1266 0.929 . S
H1309 C1267 0.930 . S
H1310 C1268 0.930 . S
H1311 C1269 0.930 . S
H1312 C1271 0.929 . S
H1313 C1272 0.930 . S
H1314 C1273 0.930 . S
H1315 C1274 0.930 1_655 S
H1316 C1278 0.929 . S
H1317 C1280 0.930 . S
H1318 C1286 0.929 . S
H1319 C1287 0.930 . S
Li1320 N1337 1.990 . S
Li1320 O1380 1.956 . S
Li1320 O1381 1.970 . S
Li1320 O1382 1.961 . S
Li1321 N1345 1.990 . S
Li1321 O1380 1.970 . S
Li1321 O1381 1.956 . S
Li1321 O1383 1.961 . S
Li1322 N1367 1.990 . S
Li1322 O1380 1.961 . S
Li1322 O1382 1.956 . S
Li1322 O1383 1.970 . S
Li1323 N1373 1.990 . S
Li1323 O1381 1.961 . S
Li1323 O1382 1.970 . S
Li1323 O1383 1.956 . S
C1324 C1326 1.348 . S
C1324 C1327 1.356 . S
C1324 O1380 1.325 . S
N1325 C1328 1.314 . S
N1325 C1329 1.283 . S
C1326 C1324 1.348 . S
C1326 C1328 1.353 . S
C1326 H1384 0.929 . S
C1327 C1324 1.356 . S
C1327 C1329 1.365 . S
C1327 H1385 0.930 . S
C1328 N1325 1.314 . S
C1328 C1326 1.353 . S
C1328 H1386 0.930 . S
C1329 N1325 1.283 . S
C1329 C1327 1.365 . S
C1329 H1387 0.919 1_565 S
C1330 C1333 1.348 . S
C1330 C1334 1.356 . S
C1330 O1381 1.325 . S
C1331 N1332 1.279 . S
C1331 C1334 1.358 . S
C1331 H1388 0.930 . S
N1332 C1331 1.279 . S
N1332 C1335 1.314 . S
C1333 C1330 1.348 . S
C1333 C1335 1.353 . S
C1333 H1389 0.929 . S
C1334 C1330 1.356 . S
C1334 C1331 1.358 . S
C1334 H1390 0.930 . S
C1335 N1332 1.314 . S
C1335 C1333 1.353 . S
C1335 H1391 0.930 . S
C1336 N1337 1.314 . S
C1336 C1341 1.353 . S
C1336 H1342 0.930 . S
N1337 Li1320 1.990 . S
N1337 C1336 1.314 . S
N1337 C1339 1.279 . S
C1338 C1339 1.358 . S
C1338 C1340 1.356 . S
C1338 H1392 0.930 . S
C1339 N1337 1.279 . S
C1339 C1338 1.358 . S
C1339 H1343 0.930 . S
C1340 C1338 1.356 . S
C1340 C1341 1.348 . S
C1341 C1336 1.353 . S
C1341 C1340 1.348 . S
C1341 H1393 0.929 . S
H1342 C1336 0.930 . S
H1343 C1339 0.930 . S
C1344 N1345 1.314 . S
C1344 C1346 1.353 . S
C1344 H1350 0.930 . S
N1345 Li1321 1.990 . S
N1345 C1344 1.314 . S
N1345 C1348 1.279 . S
C1346 C1344 1.353 . S
C1346 C1349 1.348 . S
C1346 H1394 0.929 . S
C1347 C1348 1.358 . S
C1347 C1349 1.356 . S
C1347 H1395 0.930 . S
C1348 N1345 1.279 . S
C1348 C1347 1.358 . S
C1348 H1351 0.930 . S
C1349 C1346 1.348 . S
C1349 C1347 1.356 . S
H1350 C1344 0.930 . S
H1351 C1348 0.930 . S
C1352 C1354 1.348 . S
C1352 C1355 1.356 . S
C1352 O1382 1.325 . S
N1353 C1356 1.314 . S
N1353 C1357 1.279 . S
C1354 C1352 1.348 . S
C1354 C1356 1.353 . S
C1354 H1396 0.929 . S
C1355 C1352 1.356 . S
C1355 C1357 1.358 . S
C1355 H1397 0.930 . S
C1356 N1353 1.314 . S
C1356 C1354 1.353 . S
C1356 H1398 0.930 . S
C1357 N1353 1.279 . S
C1357 C1355 1.358 . S
C1357 H1399 0.930 1_565 S
C1358 C1359 1.348 . S
C1358 C1360 1.356 . S
C1358 O1383 1.325 . S
C1359 C1358 1.348 . S
C1359 C1361 1.353 . S
C1359 H1400 0.929 . S
C1360 C1358 1.356 . S
C1360 C1362 1.358 . S
C1360 H1401 0.930 . S
C1361 C1359 1.353 . S
C1361 N1363 1.314 . S
C1361 H1402 0.930 . S
C1362 C1360 1.358 . S
C1362 N1363 1.279 . S
C1362 H1403 0.930 . S
N1363 C1361 1.314 . S
N1363 C1362 1.279 . S
C1364 C1366 1.353 . S
C1364 N1367 1.314 . S
C1364 H1370 0.930 . S
C1365 N1367 1.279 . S
C1365 C1368 1.358 . S
C1365 H1371 0.930 . S
C1366 C1364 1.353 . S
C1366 C1369 1.347 1_565 S
C1366 H1404 0.929 . S
N1367 Li1322 1.990 . S
N1367 C1364 1.314 . S
N1367 C1365 1.279 . S
C1368 C1365 1.358 . S
C1368 C1369 1.356 1_565 S
C1368 H1405 0.930 1_565 S
C1369 C1366 1.347 1_545 S
C1369 C1368 1.356 1_545 S
H1370 C1364 0.930 . S
H1371 C1365 0.930 . S
C1372 N1373 1.314 . S
C1372 C1374 1.353 . S
C1372 H1378 0.930 . S
N1373 Li1323 1.990 . S
N1373 C1372 1.314 . S
N1373 C1376 1.279 . S
C1374 C1372 1.353 . S
C1374 C1377 1.348 . S
C1374 H1406 0.929 . S
C1375 C1376 1.358 . S
C1375 C1377 1.356 . S
C1375 H1407 0.930 . S
C1376 N1373 1.279 . S
C1376 C1375 1.358 . S
C1376 H1379 0.930 . S
C1377 C1374 1.348 . S
C1377 C1375 1.356 . S
H1378 C1372 0.930 . S
H1379 C1376 0.930 . S
O1380 Li1320 1.956 . S
O1380 Li1321 1.970 . S
O1380 Li1322 1.961 . S
O1380 C1324 1.325 . S
O1381 Li1320 1.970 . S
O1381 Li1321 1.956 . S
O1381 Li1323 1.961 . S
O1381 C1330 1.325 . S
O1382 Li1320 1.961 . S
O1382 Li1322 1.956 . S
O1382 Li1323 1.970 . S
O1382 C1352 1.325 . S
O1383 Li1321 1.961 . S
O1383 Li1322 1.970 . S
O1383 Li1323 1.956 . S
O1383 C1358 1.325 . S
H1384 C1326 0.929 . S
H1385 C1327 0.930 . S
H1386 C1328 0.930 . S
H1387 C1329 0.919 1_545 S
H1388 C1331 0.930 . S
H1389 C1333 0.929 . S
H1390 C1334 0.930 . S
H1391 C1335 0.930 . S
H1392 C1338 0.930 . S
H1393 C1341 0.929 . S
H1394 C1346 0.929 . S
H1395 C1347 0.930 . S
H1396 C1354 0.929 . S
H1397 C1355 0.930 . S
H1398 C1356 0.930 . S
H1399 C1357 0.930 1_545 S
H1400 C1359 0.929 . S
H1401 C1360 0.930 . S
H1402 C1361 0.930 . S
H1403 C1362 0.930 . S
H1404 C1366 0.929 . S
H1405 C1368 0.930 1_545 S
H1406 C1374 0.929 . S
H1407 C1375 0.930 . S
Li1408 N1425 1.990 . S
Li1408 O1468 1.956 . S
Li1408 O1469 1.970 . S
Li1408 O1470 1.961 . S
Li1409 N1433 1.990 1_545 S
Li1409 O1468 1.970 . S
Li1409 O1469 1.956 . S
Li1409 O1471 1.961 . S
Li1410 N1455 1.990 . S
Li1410 O1468 1.961 . S
Li1410 O1470 1.956 . S
Li1410 O1471 1.970 . S
Li1411 N1461 1.990 . S
Li1411 O1469 1.961 . S
Li1411 O1470 1.970 . S
Li1411 O1471 1.956 . S
C1412 C1414 1.348 . S
C1412 C1415 1.356 1_565 S
C1412 O1468 1.325 1_565 S
N1413 C1416 1.314 . S
N1413 C1417 1.279 . S
C1414 C1412 1.348 . S
C1414 C1416 1.353 . S
C1414 H1472 0.929 . S
C1415 C1412 1.356 1_545 S
C1415 C1417 1.358 1_545 S
C1415 H1473 0.930 . S
C1416 N1413 1.314 . S
C1416 C1414 1.353 . S
C1416 H1474 0.930 . S
C1417 N1413 1.279 . S
C1417 C1415 1.358 1_565 S
C1417 H1475 0.930 1_655 S
C1418 C1421 1.348 . S
C1418 C1422 1.356 . S
C1418 O1469 1.325 . S
C1419 N1420 1.279 . S
C1419 C1422 1.358 . S
C1419 H1476 0.930 . S
N1420 C1419 1.279 . S
N1420 C1423 1.314 . S
C1421 C1418 1.348 . S
C1421 C1423 1.353 . S
C1421 H1477 0.929 . S
C1422 C1418 1.356 . S
C1422 C1419 1.358 . S
C1422 H1478 0.930 . S
C1423 N1420 1.314 . S
C1423 C1421 1.353 . S
C1423 H1479 0.930 . S
C1424 N1425 1.314 . S
C1424 C1429 1.353 . S
C1424 H1430 0.930 . S
N1425 Li1408 1.990 . S
N1425 C1424 1.314 . S
N1425 C1427 1.279 . S
C1426 C1427 1.358 . S
C1426 C1428 1.356 . S
C1426 H1480 0.930 . S
C1427 N1425 1.279 . S
C1427 C1426 1.358 . S
C1427 H1431 0.930 . S
C1428 C1426 1.356 . S
C1428 C1429 1.348 . S
C1429 C1424 1.353 . S
C1429 C1428 1.348 . S
C1429 H1481 0.929 . S
H1430 C1424 0.930 . S
H1431 C1427 0.930 . S
C1432 N1433 1.314 . S
C1432 C1434 1.353 . S
C1432 H1438 0.930 . S
N1433 Li1409 1.990 1_565 S
N1433 C1432 1.314 . S
N1433 C1436 1.279 . S
C1434 C1432 1.353 . S
C1434 C1437 1.348 . S
C1434 H1482 0.929 . S
C1435 C1436 1.358 . S
C1435 C1437 1.356 . S
C1435 H1483 0.930 . S
C1436 N1433 1.279 . S
C1436 C1435 1.358 . S
C1436 H1439 0.930 . S
C1437 C1434 1.348 . S
C1437 C1435 1.356 . S
H1438 C1432 0.930 . S
H1439 C1436 0.930 . S
C1440 C1442 1.348 . S
C1440 C1443 1.356 . S
C1440 O1470 1.325 . S
N1441 C1444 1.314 . S
N1441 C1445 1.279 . S
C1442 C1440 1.348 . S
C1442 C1444 1.353 . S
C1442 H1484 0.929 . S
C1443 C1440 1.356 . S
C1443 C1445 1.358 . S
C1443 H1485 0.930 . S
C1444 N1441 1.314 . S
C1444 C1442 1.353 . S
C1444 H1486 0.930 . S
C1445 N1441 1.279 . S
C1445 C1443 1.358 . S
C1445 H1487 0.930 1_655 S
C1446 C1447 1.348 . S
C1446 C1448 1.356 . S
C1446 O1471 1.325 . S
C1447 C1446 1.348 . S
C1447 C1449 1.353 . S
C1447 H1488 0.929 . S
C1448 C1446 1.356 . S
C1448 C1450 1.358 . S
C1448 H1489 0.930 . S
C1449 C1447 1.353 . S
C1449 N1451 1.314 . S
C1449 H1490 0.930 . S
C1450 C1448 1.358 . S
C1450 N1451 1.279 . S
C1450 H1491 0.930 . S
N1451 C1449 1.314 . S
N1451 C1450 1.279 . S
C1452 C1454 1.353 . S
C1452 N1455 1.314 . S
C1452 H1458 0.930 . S
C1453 N1455 1.279 . S
C1453 C1456 1.358 . S
C1453 H1459 0.930 . S
C1454 C1452 1.353 . S
C1454 C1457 1.348 . S
C1454 H1492 0.929 . S
N1455 Li1410 1.990 . S
N1455 C1452 1.314 . S
N1455 C1453 1.279 . S
C1456 C1453 1.358 . S
C1456 C1457 1.356 . S
C1456 H1493 0.930 . S
C1457 C1454 1.348 . S
C1457 C1456 1.356 . S
H1458 C1452 0.930 . S
H1459 C1453 0.930 . S
C1460 N1461 1.314 . S
C1460 C1462 1.353 . S
C1460 H1466 0.930 . S
N1461 Li1411 1.990 . S
N1461 C1460 1.314 . S
N1461 C1464 1.279 . S
C1462 C1460 1.353 . S
C1462 C1465 1.348 . S
C1462 H1494 0.929 . S
C1463 C1464 1.358 . S
C1463 C1465 1.356 . S
C1463 H1495 0.930 . S
C1464 N1461 1.279 . S
C1464 C1463 1.358 . S
C1464 H1467 0.930 . S
C1465 C1462 1.348 . S
C1465 C1463 1.356 . S
H1466 C1460 0.930 . S
H1467 C1464 0.930 . S
O1468 Li1408 1.956 . S
O1468 Li1409 1.970 . S
O1468 Li1410 1.961 . S
O1468 C1412 1.325 1_545 S
O1469 Li1408 1.970 . S
O1469 Li1409 1.956 . S
O1469 Li1411 1.961 . S
O1469 C1418 1.325 . S
O1470 Li1408 1.961 . S
O1470 Li1410 1.956 . S
O1470 Li1411 1.970 . S
O1470 C1440 1.325 . S
O1471 Li1409 1.961 . S
O1471 Li1410 1.970 . S
O1471 Li1411 1.956 . S
O1471 C1446 1.325 . S
H1472 C1414 0.929 . S
H1473 C1415 0.930 . S
H1474 C1416 0.930 . S
H1475 C1417 0.930 1_455 S
H1476 C1419 0.930 . S
H1477 C1421 0.929 . S
H1478 C1422 0.930 . S
H1479 C1423 0.930 . S
H1480 C1426 0.930 . S
H1481 C1429 0.929 . S
H1482 C1434 0.929 . S
H1483 C1435 0.930 . S
H1484 C1442 0.929 . S
H1485 C1443 0.930 . S
H1486 C1444 0.930 . S
H1487 C1445 0.930 1_455 S
H1488 C1447 0.929 . S
H1489 C1448 0.930 . S
H1490 C1449 0.930 . S
H1491 C1450 0.930 . S
H1492 C1454 0.929 . S
H1493 C1456 0.930 . S
H1494 C1462 0.929 . S
H1495 C1463 0.930 . S
Li1496 N1513 1.990 . S
Li1496 O1556 1.956 . S
Li1496 O1557 1.970 . S
Li1496 O1558 1.961 . S
Li1497 N1521 1.990 . S
Li1497 O1556 1.970 . S
Li1497 O1557 1.956 . S
Li1497 O1559 1.961 . S
Li1498 N1543 1.990 . S
Li1498 O1556 1.961 . S
Li1498 O1558 1.956 . S
Li1498 O1559 1.970 . S
Li1499 N1549 1.990 . S
Li1499 O1557 1.961 . S
Li1499 O1558 1.970 . S
Li1499 O1559 1.956 . S
C1500 C1502 1.348 . S
C1500 C1503 1.356 . S
C1500 O1556 1.325 . S
N1501 C1504 1.314 . S
N1501 C1505 1.279 . S
C1502 C1500 1.348 . S
C1502 C1504 1.353 . S
C1502 H1560 0.929 . S
C1503 C1500 1.356 . S
C1503 C1505 1.358 . S
C1503 H1561 0.930 . S
C1504 N1501 1.314 . S
C1504 C1502 1.353 . S
C1504 H1562 0.930 . S
C1505 N1501 1.279 . S
C1505 C1503 1.358 . S
C1505 H1563 0.930 . S
C1506 C1509 1.348 . S
C1506 C1510 1.356 . S
C1506 O1557 1.325 . S
C1507 N1508 1.279 . S
C1507 C1510 1.358 . S
C1507 H1564 0.930 . S
N1508 C1507 1.279 . S
N1508 C1511 1.314 . S
C1509 C1506 1.348 . S
C1509 C1511 1.353 . S
C1509 H1565 0.929 . S
C1510 C1506 1.356 . S
C1510 C1507 1.358 . S
C1510 H1566 0.930 . S
C1511 N1508 1.314 . S
C1511 C1509 1.353 . S
C1511 H1567 0.930 . S
C1512 N1513 1.314 . S
C1512 C1517 1.353 . S
C1512 H1518 0.930 . S
N1513 Li1496 1.990 . S
N1513 C1512 1.314 . S
N1513 C1515 1.279 . S
C1514 C1515 1.358 . S
C1514 C1516 1.356 . S
C1514 H1568 0.930 . S
C1515 N1513 1.279 . S
C1515 C1514 1.358 . S
C1515 H1519 0.930 . S
C1516 C1514 1.356 . S
C1516 C1517 1.348 . S
C1517 C1512 1.353 . S
C1517 C1516 1.348 . S
C1517 H1569 0.929 . S
H1518 C1512 0.930 . S
H1519 C1515 0.930 . S
C1520 N1521 1.314 . S
C1520 C1522 1.353 . S
C1520 H1526 0.930 . S
N1521 Li1497 1.990 . S
N1521 C1520 1.314 . S
N1521 C1524 1.279 . S
C1522 C1520 1.353 . S
C1522 C1525 1.348 . S
C1522 H1570 0.929 . S
C1523 C1524 1.358 . S
C1523 C1525 1.356 . S
C1523 H1571 0.930 . S
C1524 N1521 1.279 . S
C1524 C1523 1.358 . S
C1524 H1527 0.930 . S
C1525 C1522 1.348 . S
C1525 C1523 1.356 . S
H1526 C1520 0.930 . S
H1527 C1524 0.930 . S
C1528 C1530 1.348 . S
C1528 C1531 1.356 . S
C1528 O1558 1.325 . S
N1529 C1532 1.314 . S
N1529 C1533 1.279 . S
C1530 C1528 1.348 . S
C1530 C1532 1.353 . S
C1530 H1572 0.929 . S
C1531 C1528 1.356 . S
C1531 C1533 1.358 . S
C1531 H1573 0.930 . S
C1532 N1529 1.314 . S
C1532 C1530 1.353 . S
C1532 H1574 0.930 . S
C1533 N1529 1.279 . S
C1533 C1531 1.358 . S
C1533 H1575 0.930 . S
C1534 C1535 1.348 . S
C1534 C1536 1.356 . S
C1534 O1559 1.325 . S
C1535 C1534 1.348 . S
C1535 C1537 1.353 . S
C1535 H1576 0.929 . S
C1536 C1534 1.356 . S
C1536 C1538 1.358 . S
C1536 H1577 0.930 . S
C1537 C1535 1.353 . S
C1537 N1539 1.314 . S
C1537 H1578 0.930 . S
C1538 C1536 1.358 . S
C1538 N1539 1.279 . S
C1538 H1579 0.930 . S
N1539 C1537 1.314 . S
N1539 C1538 1.279 . S
C1540 C1542 1.353 . S
C1540 N1543 1.314 . S
C1540 H1546 0.930 . S
C1541 N1543 1.279 . S
C1541 C1544 1.358 . S
C1541 H1547 0.930 . S
C1542 C1540 1.353 . S
C1542 C1545 1.348 . S
C1542 H1580 0.929 . S
N1543 Li1498 1.990 . S
N1543 C1540 1.314 . S
N1543 C1541 1.279 . S
C1544 C1541 1.358 . S
C1544 C1545 1.356 . S
C1544 H1581 0.930 . S
C1545 C1542 1.348 . S
C1545 C1544 1.356 . S
H1546 C1540 0.930 . S
H1547 C1541 0.930 . S
C1548 N1549 1.314 . S
C1548 C1550 1.353 . S
C1548 H1554 0.930 . S
N1549 Li1499 1.990 . S
N1549 C1548 1.314 . S
N1549 C1552 1.279 . S
C1550 C1548 1.353 . S
C1550 C1553 1.348 . S
C1550 H1582 0.929 . S
C1551 C1552 1.358 . S
C1551 C1553 1.356 . S
C1551 H1583 0.930 . S
C1552 N1549 1.279 . S
C1552 C1551 1.358 . S
C1552 H1555 0.930 . S
C1553 C1550 1.348 . S
C1553 C1551 1.356 . S
H1554 C1548 0.930 . S
H1555 C1552 0.930 . S
O1556 Li1496 1.956 . S
O1556 Li1497 1.970 . S
O1556 Li1498 1.961 . S
O1556 C1500 1.325 . S
O1557 Li1496 1.970 . S
O1557 Li1497 1.956 . S
O1557 Li1499 1.961 . S
O1557 C1506 1.325 . S
O1558 Li1496 1.961 . S
O1558 Li1498 1.956 . S
O1558 Li1499 1.970 . S
O1558 C1528 1.325 . S
O1559 Li1497 1.961 . S
O1559 Li1498 1.970 . S
O1559 Li1499 1.956 . S
O1559 C1534 1.325 . S
H1560 C1502 0.929 . S
H1561 C1503 0.930 . S
H1562 C1504 0.930 . S
H1563 C1505 0.930 . S
H1564 C1507 0.930 . S
H1565 C1509 0.929 . S
H1566 C1510 0.930 . S
H1567 C1511 0.930 . S
H1568 C1514 0.930 . S
H1569 C1517 0.929 . S
H1570 C1522 0.929 . S
H1571 C1523 0.930 . S
H1572 C1530 0.929 . S
H1573 C1531 0.930 . S
H1574 C1532 0.930 . S
H1575 C1533 0.930 . S
H1576 C1535 0.929 . S
H1577 C1536 0.930 . S
H1578 C1537 0.930 . S
H1579 C1538 0.930 . S
H1580 C1542 0.929 . S
H1581 C1544 0.930 . S
H1582 C1550 0.929 . S
H1583 C1551 0.930 . S
Li1584 N1601 1.990 . S
Li1584 O1644 1.956 . S
Li1584 O1645 1.970 . S
Li1584 O1646 1.961 . S
Li1585 N1609 1.990 . S
Li1585 O1644 1.970 . S
Li1585 O1645 1.956 . S
Li1585 O1647 1.961 . S
Li1586 N1631 1.990 . S
Li1586 O1644 1.961 . S
Li1586 O1646 1.956 . S
Li1586 O1647 1.970 . S
Li1587 N1637 1.990 . S
Li1587 O1645 1.961 . S
Li1587 O1646 1.970 . S
Li1587 O1647 1.956 . S
C1588 C1590 1.348 . S
C1588 C1591 1.356 . S
C1588 O1644 1.325 . S
N1589 C1592 1.314 . S
N1589 C1593 1.279 . S
C1590 C1588 1.348 . S
C1590 C1592 1.353 . S
C1590 H1648 0.929 . S
C1591 C1588 1.356 . S
C1591 C1593 1.358 . S
C1591 H1649 0.930 . S
C1592 N1589 1.314 . S
C1592 C1590 1.353 . S
C1592 H1650 0.930 . S
C1593 N1589 1.279 . S
C1593 C1591 1.358 . S
C1593 H1651 0.930 . S
C1594 C1597 1.348 . S
C1594 C1598 1.356 . S
C1594 O1645 1.325 . S
C1595 N1596 1.279 . S
C1595 C1598 1.358 . S
C1595 H1652 0.930 . S
N1596 C1595 1.279 . S
N1596 C1599 1.314 . S
C1597 C1594 1.348 . S
C1597 C1599 1.353 . S
C1597 H1653 0.929 . S
C1598 C1594 1.356 . S
C1598 C1595 1.358 . S
C1598 H1654 0.930 . S
C1599 N1596 1.314 . S
C1599 C1597 1.353 . S
C1599 H1655 0.930 . S
C1600 N1601 1.314 . S
C1600 C1605 1.353 . S
C1600 H1606 0.930 . S
N1601 Li1584 1.990 . S
N1601 C1600 1.314 . S
N1601 C1603 1.279 . S
C1602 C1603 1.358 . S
C1602 C1604 1.356 . S
C1602 H1656 0.930 . S
C1603 N1601 1.279 . S
C1603 C1602 1.358 . S
C1603 H1607 0.930 . S
C1604 C1602 1.356 . S
C1604 C1605 1.348 . S
C1605 C1600 1.353 . S
C1605 C1604 1.348 . S
C1605 H1657 0.929 . S
H1606 C1600 0.930 . S
H1607 C1603 0.930 . S
C1608 N1609 1.314 . S
C1608 C1610 1.353 . S
C1608 H1614 0.930 . S
N1609 Li1585 1.990 . S
N1609 C1608 1.314 . S
N1609 C1612 1.279 . S
C1610 C1608 1.353 . S
C1610 C1613 1.348 . S
C1610 H1658 0.929 . S
C1611 C1612 1.358 . S
C1611 C1613 1.356 . S
C1611 H1659 0.930 . S
C1612 N1609 1.279 . S
C1612 C1611 1.358 . S
C1612 H1615 0.930 . S
C1613 C1610 1.348 . S
C1613 C1611 1.356 . S
H1614 C1608 0.930 . S
H1615 C1612 0.930 . S
C1616 C1618 1.348 . S
C1616 C1619 1.356 . S
C1616 O1646 1.325 . S
N1617 C1620 1.314 . S
N1617 C1621 1.279 . S
C1618 C1616 1.348 . S
C1618 C1620 1.353 . S
C1618 H1660 0.929 . S
C1619 C1616 1.356 . S
C1619 C1621 1.358 . S
C1619 H1661 0.930 . S
C1620 N1617 1.314 . S
C1620 C1618 1.353 . S
C1620 H1662 0.930 . S
C1621 N1617 1.279 . S
C1621 C1619 1.358 . S
C1621 H1663 0.930 . S
C1622 C1623 1.348 . S
C1622 C1624 1.356 . S
C1622 O1647 1.325 . S
C1623 C1622 1.348 . S
C1623 C1625 1.353 . S
C1623 H1664 0.929 . S
C1624 C1622 1.356 . S
C1624 C1626 1.358 . S
C1624 H1665 0.930 . S
C1625 C1623 1.353 . S
C1625 N1627 1.314 . S
C1625 H1666 0.930 . S
C1626 C1624 1.358 . S
C1626 N1627 1.279 . S
C1626 H1667 0.930 . S
N1627 C1625 1.314 . S
N1627 C1626 1.279 . S
C1628 C1630 1.353 . S
C1628 N1631 1.314 . S
C1628 H1634 0.930 . S
C1629 N1631 1.279 . S
C1629 C1632 1.358 . S
C1629 H1635 0.930 . S
C1630 C1628 1.353 . S
C1630 C1633 1.348 . S
C1630 H1668 0.929 . S
N1631 Li1586 1.990 . S
N1631 C1628 1.314 . S
N1631 C1629 1.279 . S
C1632 C1629 1.358 . S
C1632 C1633 1.356 . S
C1632 H1669 0.930 . S
C1633 C1630 1.348 . S
C1633 C1632 1.356 . S
H1634 C1628 0.930 . S
H1635 C1629 0.930 . S
C1636 N1637 1.314 . S
C1636 C1638 1.353 . S
C1636 H1642 0.930 . S
N1637 Li1587 1.990 . S
N1637 C1636 1.314 . S
N1637 C1640 1.279 . S
C1638 C1636 1.353 . S
C1638 C1641 1.348 . S
C1638 H1670 0.929 . S
C1639 C1640 1.358 . S
C1639 C1641 1.356 . S
C1639 H1671 0.930 . S
C1640 N1637 1.279 . S
C1640 C1639 1.358 . S
C1640 H1643 0.930 . S
C1641 C1638 1.348 . S
C1641 C1639 1.356 . S
H1642 C1636 0.930 . S
H1643 C1640 0.930 . S
O1644 Li1584 1.956 . S
O1644 Li1585 1.970 . S
O1644 Li1586 1.961 . S
O1644 C1588 1.325 . S
O1645 Li1584 1.970 . S
O1645 Li1585 1.956 . S
O1645 Li1587 1.961 . S
O1645 C1594 1.325 . S
O1646 Li1584 1.961 . S
O1646 Li1586 1.956 . S
O1646 Li1587 1.970 . S
O1646 C1616 1.325 . S
O1647 Li1585 1.961 . S
O1647 Li1586 1.970 . S
O1647 Li1587 1.956 . S
O1647 C1622 1.325 . S
H1648 C1590 0.929 . S
H1649 C1591 0.930 . S
H1650 C1592 0.930 . S
H1651 C1593 0.930 . S
H1652 C1595 0.930 . S
H1653 C1597 0.929 . S
H1654 C1598 0.930 . S
H1655 C1599 0.930 . S
H1656 C1602 0.930 . S
H1657 C1605 0.929 . S
H1658 C1610 0.929 . S
H1659 C1611 0.930 . S
H1660 C1618 0.929 . S
H1661 C1619 0.930 . S
H1662 C1620 0.930 . S
H1663 C1621 0.930 . S
H1664 C1623 0.929 . S
H1665 C1624 0.930 . S
H1666 C1625 0.930 . S
H1667 C1626 0.930 . S
H1668 C1630 0.929 . S
H1669 C1632 0.930 . S
H1670 C1638 0.929 . S
H1671 C1639 0.930 . S
Li1672 N1689 1.990 . S
Li1672 O1732 1.956 . S
Li1672 O1733 1.970 . S
Li1672 O1734 1.961 1_545 S
Li1673 N1697 1.990 . S
Li1673 O1732 1.970 . S
Li1673 O1733 1.956 . S
Li1673 O1735 1.961 . S
Li1674 N1719 1.991 1_545 S
Li1674 O1732 1.974 . S
Li1674 O1734 1.942 1_545 S
Li1674 O1735 1.970 . S
Li1675 N1725 1.990 . S
Li1675 O1733 1.961 1_565 S
Li1675 O1734 1.970 . S
Li1675 O1735 1.956 1_565 S
C1676 C1678 1.348 . S
C1676 C1679 1.356 . S
C1676 O1732 1.325 . S
N1677 C1680 1.314 . S
N1677 C1681 1.279 . S
C1678 C1676 1.348 . S
C1678 C1680 1.353 . S
C1678 H1736 0.929 . S
C1679 C1676 1.356 . S
C1679 C1681 1.358 . S
C1679 H1737 0.930 . S
C1680 N1677 1.314 . S
C1680 C1678 1.353 . S
C1680 H1738 0.930 . S
C1681 N1677 1.279 . S
C1681 C1679 1.358 . S
C1681 H1739 0.930 . S
C1682 C1685 1.348 . S
C1682 C1686 1.356 . S
C1682 O1733 1.325 . S
C1683 N1684 1.279 . S
C1683 C1686 1.358 . S
C1683 H1740 0.930 . S
N1684 C1683 1.279 . S
N1684 C1687 1.314 . S
C1685 C1682 1.348 . S
C1685 C1687 1.353 . S
C1685 H1741 0.929 . S
C1686 C1682 1.356 . S
C1686 C1683 1.358 . S
C1686 H1742 0.930 . S
C1687 N1684 1.314 . S
C1687 C1685 1.353 . S
C1687 H1743 0.930 . S
C1688 N1689 1.314 1_565 S
C1688 C1693 1.353 . S
C1688 H1694 0.930 . S
N1689 Li1672 1.990 . S
N1689 C1688 1.314 1_545 S
N1689 C1691 1.279 . S
C1690 C1691 1.358 . S
C1690 C1692 1.356 . S
C1690 H1744 0.930 . S
C1691 N1689 1.279 . S
C1691 C1690 1.358 . S
C1691 H1695 0.930 . S
C1692 C1690 1.356 . S
C1692 C1693 1.348 1_545 S
C1693 C1688 1.353 . S
C1693 C1692 1.348 1_565 S
C1693 H1745 0.929 . S
H1694 C1688 0.930 . S
H1695 C1691 0.930 . S
C1696 N1697 1.314 . S
C1696 C1698 1.353 . S
C1696 H1702 0.930 . S
N1697 Li1673 1.990 . S
N1697 C1696 1.314 . S
N1697 C1700 1.279 . S
C1698 C1696 1.353 . S
C1698 C1701 1.348 . S
C1698 H1746 0.929 . S
C1699 C1700 1.358 . S
C1699 C1701 1.356 . S
C1699 H1747 0.930 . S
C1700 N1697 1.279 . S
C1700 C1699 1.358 . S
C1700 H1703 0.930 . S
C1701 C1698 1.348 . S
C1701 C1699 1.356 . S
H1702 C1696 0.930 . S
H1703 C1700 0.930 . S
C1704 C1706 1.348 . S
C1704 C1707 1.356 . S
C1704 O1734 1.325 . S
N1705 C1708 1.314 . S
N1705 C1709 1.279 . S
C1706 C1704 1.348 . S
C1706 C1708 1.353 . S
C1706 H1748 0.929 . S
C1707 C1704 1.356 . S
C1707 C1709 1.358 . S
C1707 H1749 0.930 . S
C1708 N1705 1.314 . S
C1708 C1706 1.353 . S
C1708 H1750 0.930 . S
C1709 N1705 1.279 . S
C1709 C1707 1.358 . S
C1709 H1751 0.930 . S
C1710 C1711 1.348 1_545 S
C1710 C1712 1.356 . S
C1710 O1735 1.325 . S
C1711 C1710 1.348 1_565 S
C1711 C1713 1.353 . S
C1711 H1752 0.929 . S
C1712 C1710 1.356 . S
C1712 C1714 1.358 . S
C1712 H1753 0.930 . S
C1713 C1711 1.353 . S
C1713 N1715 1.314 1_565 S
C1713 H1754 0.930 . S
C1714 C1712 1.358 . S
C1714 N1715 1.279 . S
C1714 H1755 0.930 . S
N1715 C1713 1.314 1_545 S
N1715 C1714 1.279 . S
C1716 C1718 1.353 . S
C1716 N1719 1.314 1_545 S
C1716 H1722 0.930 . S
C1717 N1719 1.279 . S
C1717 C1720 1.358 . S
C1717 H1723 0.930 . S
C1718 C1716 1.353 . S
C1718 C1721 1.348 1_545 S
C1718 H1756 0.929 . S
N1719 Li1674 1.991 1_565 S
N1719 C1716 1.314 1_565 S
N1719 C1717 1.279 . S
C1720 C1717 1.358 . S
C1720 C1721 1.356 . S
C1720 H1757 0.930 . S
C1721 C1718 1.348 1_565 S
C1721 C1720 1.356 . S
H1722 C1716 0.930 . S
H1723 C1717 0.930 . S
C1724 N1725 1.314 . S
C1724 C1726 1.353 . S
C1724 H1730 0.930 . S
N1725 Li1675 1.990 . S
N1725 C1724 1.314 . S
N1725 C1728 1.279 . S
C1726 C1724 1.353 . S
C1726 C1729 1.348 . S
C1726 H1758 0.929 . S
C1727 C1728 1.358 . S
C1727 C1729 1.356 . S
C1727 H1759 0.930 . S
C1728 N1725 1.279 . S
C1728 C1727 1.358 . S
C1728 H1731 0.930 . S
C1729 C1726 1.348 . S
C1729 C1727 1.356 . S
H1730 C1724 0.930 . S
H1731 C1728 0.930 . S
O1732 Li1672 1.956 . S
O1732 Li1673 1.970 . S
O1732 Li1674 1.974 . S
O1732 C1676 1.325 . S
O1733 Li1672 1.970 . S
O1733 Li1673 1.956 . S
O1733 Li1675 1.961 1_545 S
O1733 C1682 1.325 . S
O1734 Li1672 1.961 1_565 S
O1734 Li1674 1.942 1_565 S
O1734 Li1675 1.970 . S
O1734 C1704 1.325 . S
O1735 Li1673 1.961 . S
O1735 Li1674 1.970 . S
O1735 Li1675 1.956 1_545 S
O1735 C1710 1.325 . S
H1736 C1678 0.929 . S
H1737 C1679 0.930 . S
H1738 C1680 0.930 . S
H1739 C1681 0.930 . S
H1740 C1683 0.930 . S
H1741 C1685 0.929 . S
H1742 C1686 0.930 . S
H1743 C1687 0.930 . S
H1744 C1690 0.930 . S
H1745 C1693 0.929 . S
H1746 C1698 0.929 . S
H1747 C1699 0.930 . S
H1748 C1706 0.929 . S
H1749 C1707 0.930 . S
H1750 C1708 0.930 . S
H1751 C1709 0.930 . S
H1752 C1711 0.929 . S
H1753 C1712 0.930 . S
H1754 C1713 0.930 . S
H1755 C1714 0.930 . S
H1756 C1718 0.929 . S
H1757 C1720 0.930 . S
H1758 C1726 0.929 . S
H1759 C1727 0.930 . S
Li1760 N1777 1.990 . S
Li1760 O1820 1.956 . S
Li1760 O1821 1.970 . S
Li1760 O1822 1.971 . S
Li1761 N1785 1.990 . S
Li1761 O1820 1.970 . S
Li1761 O1821 1.956 . S
Li1761 O1823 1.961 1_554 S
Li1762 N1807 1.990 . S
Li1762 O1820 1.961 1_556 S
Li1762 O1822 1.945 1_556 S
Li1762 O1823 1.970 . S
Li1763 N1813 1.990 . S
Li1763 O1821 1.961 1_556 S
Li1763 O1822 1.970 1_556 S
Li1763 O1823 1.956 . S
C1764 C1766 1.348 . S
C1764 C1767 1.356 . S
C1764 O1820 1.325 . S
N1765 C1768 1.314 . S
N1765 C1769 1.279 . S
C1766 C1764 1.348 . S
C1766 C1768 1.353 . S
C1766 H1824 0.929 . S
C1767 C1764 1.356 . S
C1767 C1769 1.358 . S
C1767 H1825 0.930 1_554 S
C1768 N1765 1.314 . S
C1768 C1766 1.353 . S
C1768 H1826 0.930 . S
C1769 N1765 1.279 . S
C1769 C1767 1.358 . S
C1769 H1827 0.934 . S
C1770 C1773 1.348 . S
C1770 C1774 1.356 . S
C1770 O1821 1.325 . S
C1771 N1772 1.279 . S
C1771 C1774 1.358 . S
C1771 H1828 0.930 . S
N1772 C1771 1.279 . S
N1772 C1775 1.314 . S
C1773 C1770 1.348 . S
C1773 C1775 1.353 . S
C1773 H1829 0.929 . S
C1774 C1770 1.356 . S
C1774 C1771 1.358 . S
C1774 H1830 0.930 . S
C1775 N1772 1.314 . S
C1775 C1773 1.353 . S
C1775 H1831 0.930 . S
C1776 N1777 1.314 . S
C1776 C1781 1.353 . S
C1776 H1782 0.930 . S
N1777 Li1760 1.990 . S
N1777 C1776 1.314 . S
N1777 C1779 1.279 . S
C1778 C1779 1.358 . S
C1778 C1780 1.356 . S
C1778 H1832 0.930 . S
C1779 N1777 1.279 . S
C1779 C1778 1.358 . S
C1779 H1783 0.930 . S
C1780 C1778 1.356 . S
C1780 C1781 1.348 . S
C1781 C1776 1.353 . S
C1781 C1780 1.348 . S
C1781 H1833 0.929 . S
H1782 C1776 0.930 . S
H1783 C1779 0.930 . S
C1784 N1785 1.314 1_556 S
C1784 C1786 1.353 . S
C1784 H1790 0.930 . S
N1785 Li1761 1.990 . S
N1785 C1784 1.314 1_554 S
N1785 C1788 1.279 . S
C1786 C1784 1.353 . S
C1786 C1789 1.348 1_556 S
C1786 H1834 0.929 . S
C1787 C1788 1.358 . S
C1787 C1789 1.356 . S
C1787 H1835 0.930 . S
C1788 N1785 1.279 . S
C1788 C1787 1.358 . S
C1788 H1791 0.930 . S
C1789 C1786 1.348 1_554 S
C1789 C1787 1.356 . S
H1790 C1784 0.930 . S
H1791 C1788 0.930 . S
C1792 C1794 1.353 . S
C1792 C1795 1.353 1_556 S
C1792 O1822 1.325 1_556 S
N1793 C1796 1.314 . S
N1793 C1797 1.279 1_556 S
C1794 C1792 1.353 . S
C1794 C1796 1.353 . S
C1794 H1836 0.929 . S
C1795 C1792 1.353 1_554 S
C1795 C1797 1.358 . S
C1795 H1837 0.930 . S
C1796 N1793 1.314 . S
C1796 C1794 1.353 . S
C1796 H1838 0.930 . S
C1797 N1793 1.279 1_554 S
C1797 C1795 1.358 . S
C1797 H1839 0.930 . S
C1798 C1799 1.348 . S
C1798 C1800 1.356 . S
C1798 O1823 1.325 . S
C1799 C1798 1.348 . S
C1799 C1801 1.353 . S
C1799 H1840 0.929 . S
C1800 C1798 1.356 . S
C1800 C1802 1.358 . S
C1800 H1841 0.930 . S
C1801 C1799 1.353 . S
C1801 N1803 1.314 . S
C1801 H1842 0.930 . S
C1802 C1800 1.358 . S
C1802 N1803 1.279 . S
C1802 H1843 0.930 . S
N1803 C1801 1.314 . S
N1803 C1802 1.279 . S
C1804 C1806 1.353 . S
C1804 N1807 1.314 . S
C1804 H1810 0.930 . S
C1805 N1807 1.279 . S
C1805 C1808 1.358 . S
C1805 H1811 0.930 . S
C1806 C1804 1.353 . S
C1806 C1809 1.348 . S
C1806 H1844 0.929 . S
N1807 Li1762 1.990 . S
N1807 C1804 1.314 . S
N1807 C1805 1.279 . S
C1808 C1805 1.358 . S
C1808 C1809 1.356 . S
C1808 H1845 0.930 . S
C1809 C1806 1.348 . S
C1809 C1808 1.356 . S
H1810 C1804 0.930 . S
H1811 C1805 0.930 . S
C1812 N1813 1.314 1_554 S
C1812 C1814 1.353 . S
C1812 H1818 0.930 . S
N1813 Li1763 1.990 . S
N1813 C1812 1.314 1_556 S
N1813 C1816 1.279 . S
C1814 C1812 1.353 . S
C1814 C1817 1.348 1_554 S
C1814 H1846 0.929 . S
C1815 C1816 1.358 . S
C1815 C1817 1.356 . S
C1815 H1847 0.930 . S
C1816 N1813 1.279 . S
C1816 C1815 1.358 . S
C1816 H1819 0.930 . S
C1817 C1814 1.348 1_556 S
C1817 C1815 1.356 . S
H1818 C1812 0.930 . S
H1819 C1816 0.930 . S
O1820 Li1760 1.956 . S
O1820 Li1761 1.970 . S
O1820 Li1762 1.961 1_554 S
O1820 C1764 1.325 . S
O1821 Li1760 1.970 . S
O1821 Li1761 1.956 . S
O1821 Li1763 1.961 1_554 S
O1821 C1770 1.325 . S
O1822 Li1760 1.971 . S
O1822 Li1762 1.945 1_554 S
O1822 Li1763 1.970 1_554 S
O1822 C1792 1.325 1_554 S
O1823 Li1761 1.961 1_556 S
O1823 Li1762 1.970 . S
O1823 Li1763 1.956 . S
O1823 C1798 1.325 . S
H1824 C1766 0.929 . S
H1825 C1767 0.930 1_556 S
H1826 C1768 0.930 . S
H1827 C1769 0.934 . S
H1828 C1771 0.930 . S
H1829 C1773 0.929 . S
H1830 C1774 0.930 . S
H1831 C1775 0.930 . S
H1832 C1778 0.930 . S
H1833 C1781 0.929 . S
H1834 C1786 0.929 . S
H1835 C1787 0.930 . S
H1836 C1794 0.929 . S
H1837 C1795 0.930 . S
H1838 C1796 0.930 . S
H1839 C1797 0.930 . S
H1840 C1799 0.929 . S
H1841 C1800 0.930 . S
H1842 C1801 0.930 . S
H1843 C1802 0.930 . S
H1844 C1806 0.929 . S
H1845 C1808 0.930 . S
H1846 C1814 0.929 . S
H1847 C1815 0.930 . S
Li1848 N1865 1.990 . S
Li1848 O1908 1.956 . S
Li1848 O1909 1.970 . S
Li1848 O1910 1.961 . S
Li1849 N1873 1.990 . S
Li1849 O1908 1.970 . S
Li1849 O1909 1.956 . S
Li1849 O1911 1.961 . S
Li1850 N1895 1.990 . S
Li1850 O1908 1.961 . S
Li1850 O1910 1.956 . S
Li1850 O1911 1.970 . S
Li1851 N1901 1.990 . S
Li1851 O1909 1.961 . S
Li1851 O1910 1.970 . S
Li1851 O1911 1.956 . S
C1852 C1854 1.348 . S
C1852 C1855 1.356 . S
C1852 O1908 1.325 . S
N1853 C1856 1.314 . S
N1853 C1857 1.279 . S
C1854 C1852 1.348 . S
C1854 C1856 1.353 . S
C1854 H1912 0.929 . S
C1855 C1852 1.356 . S
C1855 C1857 1.358 . S
C1855 H1913 0.930 . S
C1856 N1853 1.314 . S
C1856 C1854 1.353 . S
C1856 H1914 0.930 . S
C1857 N1853 1.279 . S
C1857 C1855 1.358 . S
C1857 H1915 0.930 . S
C1858 C1861 1.348 . S
C1858 C1862 1.356 . S
C1858 O1909 1.325 . S
C1859 N1860 1.286 . S
C1859 C1862 1.377 . S
C1859 H1916 0.903 1_655 S
N1860 C1859 1.286 . S
N1860 C1863 1.314 . S
C1861 C1858 1.348 . S
C1861 C1863 1.353 . S
C1861 H1917 0.929 . S
C1862 C1858 1.356 . S
C1862 C1859 1.377 . S
C1862 H1918 0.930 . S
C1863 N1860 1.314 . S
C1863 C1861 1.353 . S
C1863 H1919 0.930 . S
C1864 N1865 1.314 . S
C1864 C1869 1.353 . S
C1864 H1870 0.930 . S
N1865 Li1848 1.990 . S
N1865 C1864 1.314 . S
N1865 C1867 1.279 . S
C1866 C1867 1.358 . S
C1866 C1868 1.356 . S
C1866 H1920 0.930 . S
C1867 N1865 1.279 . S
C1867 C1866 1.358 . S
C1867 H1871 0.930 . S
C1868 C1866 1.356 . S
C1868 C1869 1.348 . S
C1869 C1864 1.353 . S
C1869 C1868 1.348 . S
C1869 H1921 0.929 . S
H1870 C1864 0.930 . S
H1871 C1867 0.930 . S
C1872 N1873 1.314 . S
C1872 C1874 1.353 . S
C1872 H1878 0.930 . S
N1873 Li1849 1.990 . S
N1873 C1872 1.314 . S
N1873 C1876 1.279 . S
C1874 C1872 1.353 . S
C1874 C1877 1.348 1_655 S
C1874 H1922 0.929 . S
C1875 C1876 1.347 1_455 S
C1875 C1877 1.355 . S
C1875 H1923 0.942 . S
C1876 N1873 1.279 . S
C1876 C1875 1.347 1_655 S
C1876 H1879 0.930 . S
C1877 C1874 1.348 1_455 S
C1877 C1875 1.355 . S
H1878 C1872 0.930 . S
H1879 C1876 0.930 . S
C1880 C1882 1.348 . S
C1880 C1883 1.356 . S
C1880 O1910 1.325 . S
N1881 C1884 1.314 . S
N1881 C1885 1.279 . S
C1882 C1880 1.348 . S
C1882 C1884 1.353 . S
C1882 H1924 0.929 . S
C1883 C1880 1.356 . S
C1883 C1885 1.358 . S
C1883 H1925 0.930 . S
C1884 N1881 1.314 . S
C1884 C1882 1.353 . S
C1884 H1926 0.930 . S
C1885 N1881 1.279 . S
C1885 C1883 1.358 . S
C1885 H1927 0.930 . S
C1886 C1887 1.348 . S
C1886 C1888 1.356 . S
C1886 O1911 1.325 . S
C1887 C1886 1.348 . S
C1887 C1889 1.353 . S
C1887 H1928 0.929 . S
C1888 C1886 1.356 . S
C1888 C1890 1.358 1_655 S
C1888 H1929 0.930 . S
C1889 C1887 1.353 . S
C1889 N1891 1.314 1_655 S
C1889 H1930 0.930 . S
C1890 C1888 1.358 1_455 S
C1890 N1891 1.279 . S
C1890 H1931 0.930 . S
N1891 C1889 1.314 1_455 S
N1891 C1890 1.279 . S
C1892 C1894 1.353 . S
C1892 N1895 1.314 . S
C1892 H1898 0.930 . S
C1893 N1895 1.279 . S
C1893 C1896 1.358 . S
C1893 H1899 0.930 . S
C1894 C1892 1.353 . S
C1894 C1897 1.348 . S
C1894 H1932 0.929 . S
N1895 Li1850 1.990 . S
N1895 C1892 1.314 . S
N1895 C1893 1.279 . S
C1896 C1893 1.358 . S
C1896 C1897 1.356 . S
C1896 H1933 0.930 . S
C1897 C1894 1.348 . S
C1897 C1896 1.356 . S
H1898 C1892 0.930 . S
H1899 C1893 0.930 . S
C1900 N1901 1.314 . S
C1900 C1902 1.353 . S
C1900 H1906 0.930 . S
N1901 Li1851 1.990 . S
N1901 C1900 1.314 . S
N1901 C1904 1.279 . S
C1902 C1900 1.353 . S
C1902 C1905 1.348 . S
C1902 H1934 0.929 . S
C1903 C1904 1.358 . S
C1903 C1905 1.356 . S
C1903 H1935 0.930 1_655 S
C1904 N1901 1.279 . S
C1904 C1903 1.358 . S
C1904 H1907 0.930 . S
C1905 C1902 1.348 . S
C1905 C1903 1.356 . S
H1906 C1900 0.930 . S
H1907 C1904 0.930 . S
O1908 Li1848 1.956 . S
O1908 Li1849 1.970 . S
O1908 Li1850 1.961 . S
O1908 C1852 1.325 . S
O1909 Li1848 1.970 . S
O1909 Li1849 1.956 . S
O1909 Li1851 1.961 . S
O1909 C1858 1.325 . S
O1910 Li1848 1.961 . S
O1910 Li1850 1.956 . S
O1910 Li1851 1.970 . S
O1910 C1880 1.325 . S
O1911 Li1849 1.961 . S
O1911 Li1850 1.970 . S
O1911 Li1851 1.956 . S
O1911 C1886 1.325 . S
H1912 C1854 0.929 . S
H1913 C1855 0.930 . S
H1914 C1856 0.930 . S
H1915 C1857 0.930 . S
H1916 C1859 0.903 1_455 S
H1917 C1861 0.929 . S
H1918 C1862 0.930 . S
H1919 C1863 0.930 . S
H1920 C1866 0.930 . S
H1921 C1869 0.929 . S
H1922 C1874 0.929 . S
H1923 C1875 0.942 . S
H1924 C1882 0.929 . S
H1925 C1883 0.930 . S
H1926 C1884 0.930 . S
H1927 C1885 0.930 . S
H1928 C1887 0.929 . S
H1929 C1888 0.930 . S
H1930 C1889 0.930 . S
H1931 C1890 0.930 . S
H1932 C1894 0.929 . S
H1933 C1896 0.930 . S
H1934 C1902 0.929 . S
H1935 C1903 0.930 1_455 S
Li1936 N1953 1.990 . S
Li1936 O1996 1.956 . S
Li1936 O1997 1.970 . S
Li1936 O1998 1.961 . S
Li1937 N1961 1.990 . S
Li1937 O1996 1.970 . S
Li1937 O1997 1.956 . S
Li1937 O1999 1.961 . S
Li1938 N1983 1.990 . S
Li1938 O1996 1.961 . S
Li1938 O1998 1.956 . S
Li1938 O1999 1.970 . S
Li1939 N1989 1.990 . S
Li1939 O1997 1.961 . S
Li1939 O1998 1.970 . S
Li1939 O1999 1.956 . S
C1940 C1942 1.348 . S
C1940 C1943 1.356 . S
C1940 O1996 1.325 . S
N1941 C1944 1.314 . S
N1941 C1945 1.279 . S
C1942 C1940 1.348 . S
C1942 C1944 1.353 . S
C1942 H2000 0.929 . S
C1943 C1940 1.356 . S
C1943 C1945 1.358 . S
C1943 H2001 0.930 . S
C1944 N1941 1.314 . S
C1944 C1942 1.353 . S
C1944 H2002 0.930 . S
C1945 N1941 1.279 . S
C1945 C1943 1.358 . S
C1945 H2003 0.930 . S
C1946 C1949 1.348 . S
C1946 C1950 1.356 . S
C1946 O1997 1.325 . S
C1947 N1948 1.279 . S
C1947 C1950 1.358 . S
C1947 H2004 0.930 . S
N1948 C1947 1.279 . S
N1948 C1951 1.314 . S
C1949 C1946 1.348 . S
C1949 C1951 1.353 . S
C1949 H2005 0.929 . S
C1950 C1946 1.356 . S
C1950 C1947 1.358 . S
C1950 H2006 0.930 . S
C1951 N1948 1.314 . S
C1951 C1949 1.353 . S
C1951 H2007 0.930 . S
C1952 N1953 1.314 . S
C1952 C1957 1.353 . S
C1952 H1958 0.930 . S
N1953 Li1936 1.990 . S
N1953 C1952 1.314 . S
N1953 C1955 1.279 . S
C1954 C1955 1.358 . S
C1954 C1956 1.356 . S
C1954 H2008 0.930 . S
C1955 N1953 1.279 . S
C1955 C1954 1.358 . S
C1955 H1959 0.930 . S
C1956 C1954 1.356 . S
C1956 C1957 1.348 . S
C1957 C1952 1.353 . S
C1957 C1956 1.348 . S
C1957 H2009 0.929 . S
H1958 C1952 0.930 . S
H1959 C1955 0.930 . S
C1960 N1961 1.314 . S
C1960 C1962 1.353 . S
C1960 H1966 0.930 . S
N1961 Li1937 1.990 . S
N1961 C1960 1.314 . S
N1961 C1964 1.279 . S
C1962 C1960 1.353 . S
C1962 C1965 1.348 . S
C1962 H2010 0.929 . S
C1963 C1964 1.358 . S
C1963 C1965 1.356 . S
C1963 H2011 0.930 . S
C1964 N1961 1.279 . S
C1964 C1963 1.358 . S
C1964 H1967 0.930 . S
C1965 C1962 1.348 . S
C1965 C1963 1.356 . S
H1966 C1960 0.930 . S
H1967 C1964 0.930 . S
C1968 C1970 1.348 . S
C1968 C1971 1.356 . S
C1968 O1998 1.325 . S
N1969 C1972 1.314 . S
N1969 C1973 1.279 . S
C1970 C1968 1.348 . S
C1970 C1972 1.353 . S
C1970 H2012 0.929 . S
C1971 C1968 1.356 . S
C1971 C1973 1.358 . S
C1971 H2013 0.930 . S
C1972 N1969 1.314 . S
C1972 C1970 1.353 . S
C1972 H2014 0.930 . S
C1973 N1969 1.279 . S
C1973 C1971 1.358 . S
C1973 H2015 0.930 . S
C1974 C1975 1.348 . S
C1974 C1976 1.356 . S
C1974 O1999 1.325 . S
C1975 C1974 1.348 . S
C1975 C1977 1.353 . S
C1975 H2016 0.929 . S
C1976 C1974 1.356 . S
C1976 C1978 1.358 . S
C1976 H2017 0.930 . S
C1977 C1975 1.353 . S
C1977 N1979 1.314 . S
C1977 H2018 0.930 . S
C1978 C1976 1.358 . S
C1978 N1979 1.279 . S
C1978 H2019 0.930 . S
N1979 C1977 1.314 . S
N1979 C1978 1.279 . S
C1980 C1982 1.353 . S
C1980 N1983 1.314 . S
C1980 H1986 0.930 . S
C1981 N1983 1.279 . S
C1981 C1984 1.358 . S
C1981 H1987 0.930 . S
C1982 C1980 1.353 . S
C1982 C1985 1.348 . S
C1982 H2020 0.929 . S
N1983 Li1938 1.990 . S
N1983 C1980 1.314 . S
N1983 C1981 1.279 . S
C1984 C1981 1.358 . S
C1984 C1985 1.356 . S
C1984 H2021 0.930 . S
C1985 C1982 1.348 . S
C1985 C1984 1.356 . S
H1986 C1980 0.930 . S
H1987 C1981 0.930 . S
C1988 N1989 1.314 . S
C1988 C1990 1.353 . S
C1988 H1994 0.930 . S
N1989 Li1939 1.990 . S
N1989 C1988 1.314 . S
N1989 C1992 1.279 . S
C1990 C1988 1.353 . S
C1990 C1993 1.348 . S
C1990 H2022 0.929 . S
C1991 C1992 1.358 . S
C1991 C1993 1.356 . S
C1991 H2023 0.930 . S
C1992 N1989 1.279 . S
C1992 C1991 1.358 . S
C1992 H1995 0.930 . S
C1993 C1990 1.348 . S
C1993 C1991 1.356 . S
H1994 C1988 0.930 . S
H1995 C1992 0.930 . S
O1996 Li1936 1.956 . S
O1996 Li1937 1.970 . S
O1996 Li1938 1.961 . S
O1996 C1940 1.325 . S
O1997 Li1936 1.970 . S
O1997 Li1937 1.956 . S
O1997 Li1939 1.961 . S
O1997 C1946 1.325 . S
O1998 Li1936 1.961 . S
O1998 Li1938 1.956 . S
O1998 Li1939 1.970 . S
O1998 C1968 1.325 . S
O1999 Li1937 1.961 . S
O1999 Li1938 1.970 . S
O1999 Li1939 1.956 . S
O1999 C1974 1.325 . S
H2000 C1942 0.929 . S
H2001 C1943 0.930 . S
H2002 C1944 0.930 . S
H2003 C1945 0.930 . S
H2004 C1947 0.930 . S
H2005 C1949 0.929 . S
H2006 C1950 0.930 . S
H2007 C1951 0.930 . S
H2008 C1954 0.930 . S
H2009 C1957 0.929 . S
H2010 C1962 0.929 . S
H2011 C1963 0.930 . S
H2012 C1970 0.929 . S
H2013 C1971 0.930 . S
H2014 C1972 0.930 . S
H2015 C1973 0.930 . S
H2016 C1975 0.929 . S
H2017 C1976 0.930 . S
H2018 C1977 0.930 . S
H2019 C1978 0.930 . S
H2020 C1982 0.929 . S
H2021 C1984 0.930 . S
H2022 C1990 0.929 . S
H2023 C1991 0.930 . S
Li2024 N2041 1.990 . S
Li2024 O2084 1.956 . S
Li2024 O2085 1.970 . S
Li2024 O2086 1.961 . S
Li2025 N2049 1.990 . S
Li2025 O2084 1.970 . S
Li2025 O2085 1.956 . S
Li2025 O2087 1.961 . S
Li2026 N2071 1.990 . S
Li2026 O2084 1.961 . S
Li2026 O2086 1.956 . S
Li2026 O2087 1.970 . S
Li2027 N2077 1.990 . S
Li2027 O2085 1.961 . S
Li2027 O2086 1.970 . S
Li2027 O2087 1.956 . S
C2028 C2030 1.348 . S
C2028 C2031 1.356 . S
C2028 O2084 1.325 . S
N2029 C2032 1.314 . S
N2029 C2033 1.279 . S
C2030 C2028 1.348 . S
C2030 C2032 1.353 . S
C2030 H2088 0.929 . S
C2031 C2028 1.356 . S
C2031 C2033 1.358 . S
C2031 H2089 0.930 . S
C2032 N2029 1.314 . S
C2032 C2030 1.353 . S
C2032 H2090 0.930 . S
C2033 N2029 1.279 . S
C2033 C2031 1.358 . S
C2033 H2091 0.930 . S
C2034 C2037 1.348 . S
C2034 C2038 1.356 . S
C2034 O2085 1.325 . S
C2035 N2036 1.279 . S
C2035 C2038 1.358 . S
C2035 H2092 0.930 . S
N2036 C2035 1.279 . S
N2036 C2039 1.314 . S
C2037 C2034 1.348 . S
C2037 C2039 1.353 . S
C2037 H2093 0.929 . S
C2038 C2034 1.356 . S
C2038 C2035 1.358 . S
C2038 H2094 0.930 . S
C2039 N2036 1.314 . S
C2039 C2037 1.353 . S
C2039 H2095 0.930 . S
C2040 N2041 1.314 . S
C2040 C2045 1.353 . S
C2040 H2046 0.930 . S
N2041 Li2024 1.990 . S
N2041 C2040 1.314 . S
N2041 C2043 1.279 . S
C2042 C2043 1.358 . S
C2042 C2044 1.356 . S
C2042 H2096 0.930 . S
C2043 N2041 1.279 . S
C2043 C2042 1.358 . S
C2043 H2047 0.930 . S
C2044 C2042 1.356 . S
C2044 C2045 1.348 . S
C2045 C2040 1.353 . S
C2045 C2044 1.348 . S
C2045 H2097 0.929 . S
H2046 C2040 0.930 . S
H2047 C2043 0.930 . S
C2048 N2049 1.314 . S
C2048 C2050 1.353 . S
C2048 H2054 0.930 . S
N2049 Li2025 1.990 . S
N2049 C2048 1.314 . S
N2049 C2052 1.279 . S
C2050 C2048 1.353 . S
C2050 C2053 1.348 . S
C2050 H2098 0.929 . S
C2051 C2052 1.358 . S
C2051 C2053 1.356 . S
C2051 H2099 0.930 . S
C2052 N2049 1.279 . S
C2052 C2051 1.358 . S
C2052 H2055 0.930 . S
C2053 C2050 1.348 . S
C2053 C2051 1.356 . S
H2054 C2048 0.930 . S
H2055 C2052 0.930 . S
C2056 C2058 1.348 . S
C2056 C2059 1.356 . S
C2056 O2086 1.325 . S
N2057 C2060 1.314 . S
N2057 C2061 1.279 . S
C2058 C2056 1.348 . S
C2058 C2060 1.353 . S
C2058 H2100 0.929 . S
C2059 C2056 1.356 . S
C2059 C2061 1.358 . S
C2059 H2101 0.930 . S
C2060 N2057 1.314 . S
C2060 C2058 1.353 . S
C2060 H2102 0.930 . S
C2061 N2057 1.279 . S
C2061 C2059 1.358 . S
C2061 H2103 0.930 . S
C2062 C2063 1.348 . S
C2062 C2064 1.356 . S
C2062 O2087 1.325 . S
C2063 C2062 1.348 . S
C2063 C2065 1.353 . S
C2063 H2104 0.929 . S
C2064 C2062 1.356 . S
C2064 C2066 1.358 . S
C2064 H2105 0.930 . S
C2065 C2063 1.353 . S
C2065 N2067 1.314 . S
C2065 H2106 0.930 . S
C2066 C2064 1.358 . S
C2066 N2067 1.279 . S
C2066 H2107 0.930 . S
N2067 C2065 1.314 . S
N2067 C2066 1.279 . S
C2068 C2070 1.353 . S
C2068 N2071 1.314 . S
C2068 H2074 0.930 . S
C2069 N2071 1.279 . S
C2069 C2072 1.358 . S
C2069 H2075 0.930 . S
C2070 C2068 1.353 . S
C2070 C2073 1.348 . S
C2070 H2108 0.929 . S
N2071 Li2026 1.990 . S
N2071 C2068 1.314 . S
N2071 C2069 1.279 . S
C2072 C2069 1.358 . S
C2072 C2073 1.356 . S
C2072 H2109 0.930 . S
C2073 C2070 1.348 . S
C2073 C2072 1.356 . S
H2074 C2068 0.930 . S
H2075 C2069 0.930 . S
C2076 N2077 1.314 . S
C2076 C2078 1.353 . S
C2076 H2082 0.930 . S
N2077 Li2027 1.990 . S
N2077 C2076 1.314 . S
N2077 C2080 1.279 . S
C2078 C2076 1.353 . S
C2078 C2081 1.348 . S
C2078 H2110 0.929 . S
C2079 C2080 1.358 . S
C2079 C2081 1.356 . S
C2079 H2111 0.930 . S
C2080 N2077 1.279 . S
C2080 C2079 1.358 . S
C2080 H2083 0.930 . S
C2081 C2078 1.348 . S
C2081 C2079 1.356 . S
H2082 C2076 0.930 . S
H2083 C2080 0.930 . S
O2084 Li2024 1.956 . S
O2084 Li2025 1.970 . S
O2084 Li2026 1.961 . S
O2084 C2028 1.325 . S
O2085 Li2024 1.970 . S
O2085 Li2025 1.956 . S
O2085 Li2027 1.961 . S
O2085 C2034 1.325 . S
O2086 Li2024 1.961 . S
O2086 Li2026 1.956 . S
O2086 Li2027 1.970 . S
O2086 C2056 1.325 . S
O2087 Li2025 1.961 . S
O2087 Li2026 1.970 . S
O2087 Li2027 1.956 . S
O2087 C2062 1.325 . S
H2088 C2030 0.929 . S
H2089 C2031 0.930 . S
H2090 C2032 0.930 . S
H2091 C2033 0.930 . S
H2092 C2035 0.930 . S
H2093 C2037 0.929 . S
H2094 C2038 0.930 . S
H2095 C2039 0.930 . S
H2096 C2042 0.930 . S
H2097 C2045 0.929 . S
H2098 C2050 0.929 . S
H2099 C2051 0.930 . S
H2100 C2058 0.929 . S
H2101 C2059 0.930 . S
H2102 C2060 0.930 . S
H2103 C2061 0.930 . S
H2104 C2063 0.929 . S
H2105 C2064 0.930 . S
H2106 C2065 0.930 . S
H2107 C2066 0.930 . S
H2108 C2070 0.929 . S
H2109 C2072 0.930 . S
H2110 C2078 0.929 . S
H2111 C2079 0.930 . S
Tb2112 O2115 2.453 . S
Tb2112 O2116 2.596 . S
Tb2112 O2117 2.374 1_554 S
Tb2112 O2125 2.343 1_455 S
Tb2112 O2127 2.353 . S
Tb2112 O2129 2.427 . S
Tb2112 O2130 2.513 1_554 S
C2113 O2117 1.251 . S
C2113 O2119 1.263 1_545 S
Tb2114 O2116 2.343 1_665 S
Tb2114 O2119 2.353 1_654 S
Tb2114 O2122 2.409 1_655 S
Tb2114 O2123 2.513 . S
Tb2114 O2124 2.453 1_564 S
Tb2114 O2125 2.596 1_565 S
Tb2114 O2126 2.374 1_565 S
O2115 Tb2112 2.453 . S
O2115 C2131 1.245 . S
O2116 Tb2112 2.596 . S
O2116 Tb2114 2.343 1_445 S
O2116 C2131 1.259 . S
O2117 Tb2112 2.374 1_556 S
O2117 C2113 1.251 . S
C2118 O2122 1.277 . S
C2118 O2123 1.246 1_455 S
O2119 C2113 1.263 1_565 S
O2119 Tb2114 2.353 1_456 S
C2120 O2124 1.246 . S
C2120 O2125 1.257 1_556 S
C2121 O2126 1.250 . S
C2121 O2127 1.263 1_655 S
O2122 Tb2114 2.409 1_455 S
O2122 C2118 1.277 . S
O2123 Tb2114 2.513 . S
O2123 C2118 1.246 1_655 S
O2124 Tb2114 2.453 1_546 S
O2124 C2120 1.246 . S
O2125 Tb2112 2.343 1_655 S
O2125 Tb2114 2.596 1_545 S
O2125 C2120 1.257 1_554 S
O2126 Tb2114 2.374 1_545 S
O2126 C2121 1.250 . S
O2127 Tb2112 2.353 . S
O2127 C2121 1.263 1_455 S
C2128 O2129 1.275 1_556 S
C2128 O2130 1.246 . S
O2129 Tb2112 2.427 . S
O2129 C2128 1.275 1_554 S
O2130 Tb2112 2.513 1_556 S
O2130 C2128 1.246 . S
C2131 O2115 1.245 . S
C2131 O2116 1.259 . S
Tb2132 O2135 2.453 . S
Tb2132 O2136 2.596 . S
Tb2132 O2137 2.374 . S
Tb2132 O2145 2.343 . S
Tb2132 O2147 2.353 . S
Tb2132 O2149 2.427 . S
Tb2132 O2150 2.513 . S
C2133 O2137 1.251 . S
C2133 O2139 1.263 . S
Tb2134 O2136 2.343 . S
Tb2134 O2139 2.353 . S
Tb2134 O2142 2.427 . S
Tb2134 O2143 2.513 . S
Tb2134 O2144 2.453 . S
Tb2134 O2145 2.596 . S
Tb2134 O2146 2.374 . S
O2135 Tb2132 2.453 . S
O2135 C2151 1.245 . S
O2136 Tb2132 2.596 . S
O2136 Tb2134 2.343 . S
O2136 C2151 1.259 . S
O2137 Tb2132 2.374 . S
O2137 C2133 1.251 . S
C2138 O2142 1.275 . S
C2138 O2143 1.246 . S
O2139 C2133 1.263 . S
O2139 Tb2134 2.353 . S
C2140 O2144 1.245 . S
C2140 O2145 1.259 . S
C2141 O2146 1.250 . S
C2141 O2147 1.263 . S
O2142 Tb2134 2.427 . S
O2142 C2138 1.275 . S
O2143 Tb2134 2.513 . S
O2143 C2138 1.246 . S
O2144 Tb2134 2.453 . S
O2144 C2140 1.245 . S
O2145 Tb2132 2.343 . S
O2145 Tb2134 2.596 . S
O2145 C2140 1.259 . S
O2146 Tb2134 2.374 . S
O2146 C2141 1.250 . S
O2147 Tb2132 2.353 . S
O2147 C2141 1.263 . S
C2148 O2149 1.275 . S
C2148 O2150 1.246 . S
O2149 Tb2132 2.427 . S
O2149 C2148 1.275 . S
O2150 Tb2132 2.513 . S
O2150 C2148 1.246 . S
C2151 O2135 1.245 . S
C2151 O2136 1.259 . S
Tb2152 O2155 2.453 . S
Tb2152 O2156 2.596 . S
Tb2152 O2157 2.374 . S
Tb2152 O2165 2.343 1_545 S
Tb2152 O2167 2.353 . S
Tb2152 O2169 2.427 . S
Tb2152 O2170 2.513 1_545 S
C2153 O2157 1.251 . S
C2153 O2159 1.263 . S
Tb2154 O2156 2.343 . S
Tb2154 O2159 2.353 . S
Tb2154 O2162 2.427 . S
Tb2154 O2163 2.513 . S
Tb2154 O2164 2.453 1_545 S
Tb2154 O2165 2.596 1_545 S
Tb2154 O2166 2.374 . S
O2155 Tb2152 2.453 . S
O2155 C2171 1.245 . S
O2156 Tb2152 2.596 . S
O2156 Tb2154 2.343 . S
O2156 C2171 1.259 . S
O2157 Tb2152 2.374 . S
O2157 C2153 1.251 . S
C2158 O2162 1.275 . S
C2158 O2163 1.246 . S
O2159 C2153 1.263 . S
O2159 Tb2154 2.353 . S
C2160 O2164 1.245 . S
C2160 O2165 1.259 . S
C2161 O2166 1.250 . S
C2161 O2167 1.263 . S
O2162 Tb2154 2.427 . S
O2162 C2158 1.275 . S
O2163 Tb2154 2.513 . S
O2163 C2158 1.246 . S
O2164 Tb2154 2.453 1_565 S
O2164 C2160 1.245 . S
O2165 Tb2152 2.343 1_565 S
O2165 Tb2154 2.596 1_565 S
O2165 C2160 1.259 . S
O2166 Tb2154 2.374 . S
O2166 C2161 1.250 . S
O2167 Tb2152 2.353 . S
O2167 C2161 1.263 . S
C2168 O2169 1.275 1_565 S
C2168 O2170 1.246 . S
O2169 Tb2152 2.427 . S
O2169 C2168 1.275 1_545 S
O2170 Tb2152 2.513 1_565 S
O2170 C2168 1.246 . S
C2171 O2155 1.245 . S
C2171 O2156 1.259 . S
Tb2172 O2175 2.453 . S
Tb2172 O2176 2.596 . S
Tb2172 O2177 2.374 . S
Tb2172 O2185 2.343 . S
Tb2172 O2187 2.353 . S
Tb2172 O2189 2.427 . S
Tb2172 O2190 2.513 . S
C2173 O2177 1.251 . S
C2173 O2179 1.263 . S
Tb2174 O2176 2.343 . S
Tb2174 O2179 2.353 . S
Tb2174 O2182 2.427 . S
Tb2174 O2183 2.513 . S
Tb2174 O2184 2.453 . S
Tb2174 O2185 2.596 . S
Tb2174 O2186 2.374 . S
O2175 Tb2172 2.453 . S
O2175 C2191 1.245 . S
O2176 Tb2172 2.596 . S
O2176 Tb2174 2.343 . S
O2176 C2191 1.259 . S
O2177 Tb2172 2.374 . S
O2177 C2173 1.251 . S
C2178 O2182 1.275 . S
C2178 O2183 1.246 . S
O2179 C2173 1.263 . S
O2179 Tb2174 2.353 . S
C2180 O2184 1.245 . S
C2180 O2185 1.259 . S
C2181 O2186 1.250 . S
C2181 O2187 1.263 . S
O2182 Tb2174 2.427 . S
O2182 C2178 1.275 . S
O2183 Tb2174 2.513 . S
O2183 C2178 1.246 . S
O2184 Tb2174 2.453 . S
O2184 C2180 1.245 . S
O2185 Tb2172 2.343 . S
O2185 Tb2174 2.596 . S
O2185 C2180 1.259 . S
O2186 Tb2174 2.374 . S
O2186 C2181 1.250 . S
O2187 Tb2172 2.353 . S
O2187 C2181 1.263 . S
C2188 O2189 1.275 . S
C2188 O2190 1.246 . S
O2189 Tb2172 2.427 . S
O2189 C2188 1.275 . S
O2190 Tb2172 2.513 . S
O2190 C2188 1.246 . S
C2191 O2175 1.245 . S
C2191 O2176 1.259 . S
Tb2192 O2195 2.453 1_545 S
Tb2192 O2196 2.593 1_545 S
Tb2192 O2197 2.374 1_445 S
Tb2192 O2205 2.343 . S
Tb2192 O2207 2.353 . S
Tb2192 O2209 2.427 . S
Tb2192 O2210 2.513 1_455 S
C2193 O2197 1.251 1_545 S
C2193 O2199 1.263 . S
Tb2194 O2196 2.323 1_545 S
Tb2194 O2199 2.353 1_455 S
Tb2194 O2202 2.427 . S
Tb2194 O2203 2.513 . S
Tb2194 O2204 2.453 . S
Tb2194 O2205 2.596 . S
Tb2194 O2206 2.374 . S
O2195 Tb2192 2.453 1_565 S
O2195 C2211 1.245 . S
O2196 Tb2192 2.593 1_565 S
O2196 Tb2194 2.323 1_565 S
O2196 C2211 1.281 . S
O2197 Tb2192 2.374 1_665 S
O2197 C2193 1.251 1_565 S
C2198 O2202 1.275 . S
C2198 O2203 1.246 . S
O2199 C2193 1.263 . S
O2199 Tb2194 2.353 1_655 S
C2200 O2204 1.245 . S
C2200 O2205 1.259 . S
C2201 O2206 1.250 . S
C2201 O2207 1.263 . S
O2202 Tb2194 2.427 . S
O2202 C2198 1.275 . S
O2203 Tb2194 2.513 . S
O2203 C2198 1.246 . S
O2204 Tb2194 2.453 . S
O2204 C2200 1.245 . S
O2205 Tb2192 2.343 . S
O2205 Tb2194 2.596 . S
O2205 C2200 1.259 . S
O2206 Tb2194 2.374 . S
O2206 C2201 1.250 . S
O2207 Tb2192 2.353 . S
O2207 C2201 1.263 . S
C2208 O2209 1.275 1_655 S
C2208 O2210 1.246 . S
O2209 Tb2192 2.427 . S
O2209 C2208 1.275 1_455 S
O2210 Tb2192 2.513 1_655 S
O2210 C2208 1.246 . S
C2211 O2195 1.245 . S
C2211 O2196 1.281 . S
Tb2212 O2215 2.453 . S
Tb2212 O2216 2.596 . S
Tb2212 O2217 2.374 . S
Tb2212 O2225 2.343 . S
Tb2212 O2227 2.353 . S
Tb2212 O2229 2.427 . S
Tb2212 O2230 2.513 . S
C2213 O2217 1.251 . S
C2213 O2219 1.263 . S
Tb2214 O2216 2.343 . S
Tb2214 O2219 2.353 . S
Tb2214 O2222 2.427 . S
Tb2214 O2223 2.513 . S
Tb2214 O2224 2.453 . S
Tb2214 O2225 2.596 . S
Tb2214 O2226 2.374 . S
O2215 Tb2212 2.453 . S
O2215 C2231 1.245 . S
O2216 Tb2212 2.596 . S
O2216 Tb2214 2.343 . S
O2216 C2231 1.259 . S
O2217 Tb2212 2.374 . S
O2217 C2213 1.251 . S
C2218 O2222 1.275 . S
C2218 O2223 1.246 . S
O2219 C2213 1.263 . S
O2219 Tb2214 2.353 . S
C2220 O2224 1.245 . S
C2220 O2225 1.259 . S
C2221 O2226 1.250 . S
C2221 O2227 1.263 . S
O2222 Tb2214 2.427 . S
O2222 C2218 1.275 . S
O2223 Tb2214 2.513 . S
O2223 C2218 1.246 . S
O2224 Tb2214 2.453 . S
O2224 C2220 1.245 . S
O2225 Tb2212 2.343 . S
O2225 Tb2214 2.596 . S
O2225 C2220 1.259 . S
O2226 Tb2214 2.374 . S
O2226 C2221 1.250 . S
O2227 Tb2212 2.353 . S
O2227 C2221 1.263 . S
C2228 O2229 1.275 . S
C2228 O2230 1.246 . S
O2229 Tb2212 2.427 . S
O2229 C2228 1.275 . S
O2230 Tb2212 2.513 . S
O2230 C2228 1.246 . S
C2231 O2215 1.245 . S
C2231 O2216 1.259 . S
Tb2232 O2235 2.453 . S
Tb2232 O2236 2.596 . S
Tb2232 O2237 2.374 1_545 S
Tb2232 O2245 2.343 1_556 S
Tb2232 O2247 2.353 1_556 S
Tb2232 O2249 2.427 1_556 S
Tb2232 O2250 2.513 1_546 S
C2233 O2237 1.251 1_554 S
C2233 O2239 1.263 . S
Tb2234 O2236 2.343 1_554 S
Tb2234 O2239 2.353 1_545 S
Tb2234 O2242 2.427 . S
Tb2234 O2243 2.513 . S
Tb2234 O2244 2.453 . S
Tb2234 O2245 2.596 . S
Tb2234 O2246 2.374 . S
O2235 Tb2232 2.453 . S
O2235 C2251 1.245 . S
O2236 Tb2232 2.596 . S
O2236 Tb2234 2.343 1_556 S
O2236 C2251 1.259 . S
O2237 Tb2232 2.374 1_565 S
O2237 C2233 1.251 1_556 S
C2238 O2242 1.275 . S
C2238 O2243 1.246 . S
O2239 C2233 1.263 . S
O2239 Tb2234 2.353 1_565 S
C2240 O2244 1.245 . S
C2240 O2245 1.259 . S
C2241 O2246 1.250 . S
C2241 O2247 1.263 . S
O2242 Tb2234 2.427 . S
O2242 C2238 1.275 . S
O2243 Tb2234 2.513 . S
O2243 C2238 1.246 . S
O2244 Tb2234 2.453 . S
O2244 C2240 1.245 . S
O2245 Tb2232 2.343 1_554 S
O2245 Tb2234 2.596 . S
O2245 C2240 1.259 . S
O2246 Tb2234 2.374 . S
O2246 C2241 1.250 . S
O2247 Tb2232 2.353 1_554 S
O2247 C2241 1.263 . S
C2248 O2249 1.249 1_565 S
C2248 O2250 1.267 . S
O2249 Tb2232 2.427 1_554 S
O2249 C2248 1.249 1_545 S
O2250 Tb2232 2.513 1_564 S
O2250 C2248 1.267 . S
C2251 O2235 1.245 . S
C2251 O2236 1.259 . S
Tb2252 O2255 2.453 . S
Tb2252 O2256 2.596 . S
Tb2252 O2257 2.374 . S
Tb2252 O2265 2.343 . S
Tb2252 O2267 2.353 . S
Tb2252 O2269 2.427 . S
Tb2252 O2270 2.513 . S
C2253 O2257 1.251 . S
C2253 O2259 1.263 . S
Tb2254 O2256 2.343 . S
Tb2254 O2259 2.353 . S
Tb2254 O2262 2.427 . S
Tb2254 O2263 2.513 . S
Tb2254 O2264 2.453 . S
Tb2254 O2265 2.596 . S
Tb2254 O2266 2.374 . S
O2255 Tb2252 2.453 . S
O2255 C2271 1.245 . S
O2256 Tb2252 2.596 . S
O2256 Tb2254 2.343 . S
O2256 C2271 1.259 . S
O2257 Tb2252 2.374 . S
O2257 C2253 1.251 . S
C2258 O2262 1.275 . S
C2258 O2263 1.246 . S
O2259 C2253 1.263 . S
O2259 Tb2254 2.353 . S
C2260 O2264 1.245 . S
C2260 O2265 1.259 . S
C2261 O2266 1.250 . S
C2261 O2267 1.263 . S
O2262 Tb2254 2.427 . S
O2262 C2258 1.275 . S
O2263 Tb2254 2.513 . S
O2263 C2258 1.246 . S
O2264 Tb2254 2.453 . S
O2264 C2260 1.245 . S
O2265 Tb2252 2.343 . S
O2265 Tb2254 2.596 . S
O2265 C2260 1.259 . S
O2266 Tb2254 2.374 . S
O2266 C2261 1.250 . S
O2267 Tb2252 2.353 . S
O2267 C2261 1.263 . S
C2268 O2269 1.275 . S
C2268 O2270 1.246 . S
O2269 Tb2252 2.427 . S
O2269 C2268 1.275 . S
O2270 Tb2252 2.513 . S
O2270 C2268 1.246 . S
C2271 O2255 1.245 . S
C2271 O2256 1.259 . S
Tb2272 O2275 2.453 1_556 S
Tb2272 O2276 2.596 1_556 S
Tb2272 O2277 2.362 1_556 S
Tb2272 O2285 2.343 . S
Tb2272 O2287 2.353 . S
Tb2272 O2289 2.427 . S
Tb2272 O2290 2.513 . S
C2273 O2277 1.271 . S
C2273 O2279 1.263 . S
Tb2274 O2276 2.343 . S
Tb2274 O2279 2.353 . S
Tb2274 O2282 2.427 . S
Tb2274 O2283 2.513 . S
Tb2274 O2284 2.453 . S
Tb2274 O2285 2.596 1_554 S
Tb2274 O2286 2.374 . S
O2275 Tb2272 2.453 1_554 S
O2275 C2291 1.245 . S
O2276 Tb2272 2.596 1_554 S
O2276 Tb2274 2.343 . S
O2276 C2291 1.259 . S
O2277 Tb2272 2.362 1_554 S
O2277 C2273 1.271 . S
C2278 O2282 1.275 . S
C2278 O2283 1.246 . S
O2279 C2273 1.263 . S
O2279 Tb2274 2.353 . S
C2280 O2284 1.245 . S
C2280 O2285 1.259 1_554 S
C2281 O2286 1.250 . S
C2281 O2287 1.263 1_554 S
O2282 Tb2274 2.427 . S
O2282 C2278 1.275 . S
O2283 Tb2274 2.513 . S
O2283 C2278 1.246 . S
O2284 Tb2274 2.453 . S
O2284 C2280 1.245 . S
O2285 Tb2272 2.343 . S
O2285 Tb2274 2.596 1_556 S
O2285 C2280 1.259 1_556 S
O2286 Tb2274 2.374 . S
O2286 C2281 1.250 . S
O2287 Tb2272 2.353 . S
O2287 C2281 1.263 1_556 S
C2288 O2289 1.275 . S
C2288 O2290 1.246 . S
O2289 Tb2272 2.427 . S
O2289 C2288 1.275 . S
O2290 Tb2272 2.513 . S
O2290 C2288 1.246 . S
C2291 O2275 1.245 . S
C2291 O2276 1.259 . S
Tb2292 O2295 2.453 . S
Tb2292 O2296 2.596 . S
Tb2292 O2297 2.374 . S
Tb2292 O2305 2.343 . S
Tb2292 O2307 2.353 . S
Tb2292 O2309 2.427 . S
Tb2292 O2310 2.513 . S
C2293 O2297 1.251 . S
C2293 O2299 1.263 . S
Tb2294 O2296 2.343 . S
Tb2294 O2299 2.353 . S
Tb2294 O2302 2.427 . S
Tb2294 O2303 2.513 . S
Tb2294 O2304 2.453 . S
Tb2294 O2305 2.596 . S
Tb2294 O2306 2.374 . S
O2295 Tb2292 2.453 . S
O2295 C2311 1.245 . S
O2296 Tb2292 2.596 . S
O2296 Tb2294 2.343 . S
O2296 C2311 1.259 . S
O2297 Tb2292 2.374 . S
O2297 C2293 1.251 . S
C2298 O2302 1.275 . S
C2298 O2303 1.246 . S
O2299 C2293 1.263 . S
O2299 Tb2294 2.353 . S
C2300 O2304 1.245 . S
C2300 O2305 1.259 . S
C2301 O2306 1.250 . S
C2301 O2307 1.263 . S
O2302 Tb2294 2.427 . S
O2302 C2298 1.275 . S
O2303 Tb2294 2.513 . S
O2303 C2298 1.246 . S
O2304 Tb2294 2.453 . S
O2304 C2300 1.245 . S
O2305 Tb2292 2.343 . S
O2305 Tb2294 2.596 . S
O2305 C2300 1.259 . S
O2306 Tb2294 2.374 . S
O2306 C2301 1.250 . S
O2307 Tb2292 2.353 . S
O2307 C2301 1.263 . S
C2308 O2309 1.275 . S
C2308 O2310 1.246 . S
O2309 Tb2292 2.427 . S
O2309 C2308 1.275 . S
O2310 Tb2292 2.513 . S
O2310 C2308 1.246 . S
C2311 O2295 1.245 . S
C2311 O2296 1.259 . S
Tb2312 O2315 2.453 . S
Tb2312 O2316 2.596 1_655 S
Tb2312 O2317 2.374 . S
Tb2312 O2325 2.343 . S
Tb2312 O2327 2.353 . S
Tb2312 O2329 2.427 . S
Tb2312 O2330 2.513 . S
C2313 O2317 1.251 1_455 S
C2313 O2319 1.263 . S
Tb2314 O2316 2.343 . S
Tb2314 O2319 2.353 . S
Tb2314 O2322 2.427 . S
Tb2314 O2323 2.513 . S
Tb2314 O2324 2.453 . S
Tb2314 O2325 2.596 1_455 S
Tb2314 O2326 2.374 . S
O2315 Tb2312 2.453 . S
O2315 C2331 1.245 1_655 S
O2316 Tb2312 2.596 1_455 S
O2316 Tb2314 2.343 . S
O2316 C2331 1.259 . S
O2317 Tb2312 2.374 . S
O2317 C2313 1.251 1_655 S
C2318 O2322 1.275 . S
C2318 O2323 1.246 . S
O2319 C2313 1.263 . S
O2319 Tb2314 2.353 . S
C2320 O2324 1.245 1_655 S
C2320 O2325 1.259 . S
C2321 O2326 1.250 . S
C2321 O2327 1.263 1_455 S
O2322 Tb2314 2.427 . S
O2322 C2318 1.275 . S
O2323 Tb2314 2.513 . S
O2323 C2318 1.246 . S
O2324 Tb2314 2.453 . S
O2324 C2320 1.245 1_455 S
O2325 Tb2312 2.343 . S
O2325 Tb2314 2.596 1_655 S
O2325 C2320 1.259 . S
O2326 Tb2314 2.374 . S
O2326 C2321 1.250 . S
O2327 Tb2312 2.353 . S
O2327 C2321 1.263 1_655 S
C2328 O2329 1.275 . S
C2328 O2330 1.246 . S
O2329 Tb2312 2.427 . S
O2329 C2328 1.275 . S
O2330 Tb2312 2.513 . S
O2330 C2328 1.246 . S
C2331 O2315 1.245 1_455 S
C2331 O2316 1.259 . S
Tb2332 O2335 2.453 . S
Tb2332 O2336 2.596 . S
Tb2332 O2337 2.374 . S
Tb2332 O2345 2.343 . S
Tb2332 O2347 2.353 . S
Tb2332 O2349 2.427 . S
Tb2332 O2350 2.513 . S
C2333 O2337 1.251 . S
C2333 O2339 1.263 . S
Tb2334 O2336 2.343 . S
Tb2334 O2339 2.353 . S
Tb2334 O2342 2.427 . S
Tb2334 O2343 2.513 . S
Tb2334 O2344 2.453 . S
Tb2334 O2345 2.596 . S
Tb2334 O2346 2.374 . S
O2335 Tb2332 2.453 . S
O2335 C2351 1.245 . S
O2336 Tb2332 2.596 . S
O2336 Tb2334 2.343 . S
O2336 C2351 1.259 . S
O2337 Tb2332 2.374 . S
O2337 C2333 1.251 . S
C2338 O2342 1.275 . S
C2338 O2343 1.246 . S
O2339 C2333 1.263 . S
O2339 Tb2334 2.353 . S
C2340 O2344 1.245 . S
C2340 O2345 1.259 . S
C2341 O2346 1.250 . S
C2341 O2347 1.263 . S
O2342 Tb2334 2.427 . S
O2342 C2338 1.275 . S
O2343 Tb2334 2.513 . S
O2343 C2338 1.246 . S
O2344 Tb2334 2.453 . S
O2344 C2340 1.245 . S
O2345 Tb2332 2.343 . S
O2345 Tb2334 2.596 . S
O2345 C2340 1.259 . S
O2346 Tb2334 2.374 . S
O2346 C2341 1.250 . S
O2347 Tb2332 2.353 . S
O2347 C2341 1.263 . S
C2348 O2349 1.275 . S
C2348 O2350 1.246 . S
O2349 Tb2332 2.427 . S
O2349 C2348 1.275 . S
O2350 Tb2332 2.513 . S
O2350 C2348 1.246 . S
C2351 O2335 1.245 . S
C2351 O2336 1.259 . S
Tb2352 O2355 2.453 . S
Tb2352 O2356 2.596 . S
Tb2352 O2357 2.374 . S
Tb2352 O2365 2.343 . S
Tb2352 O2367 2.353 . S
Tb2352 O2369 2.427 . S
Tb2352 O2370 2.513 . S
C2353 O2357 1.251 . S
C2353 O2359 1.263 . S
Tb2354 O2356 2.343 . S
Tb2354 O2359 2.353 . S
Tb2354 O2362 2.427 . S
Tb2354 O2363 2.513 . S
Tb2354 O2364 2.453 . S
Tb2354 O2365 2.596 . S
Tb2354 O2366 2.374 . S
O2355 Tb2352 2.453 . S
O2355 C2371 1.245 . S
O2356 Tb2352 2.596 . S
O2356 Tb2354 2.343 . S
O2356 C2371 1.259 . S
O2357 Tb2352 2.374 . S
O2357 C2353 1.251 . S
C2358 O2362 1.275 . S
C2358 O2363 1.246 . S
O2359 C2353 1.263 . S
O2359 Tb2354 2.353 . S
C2360 O2364 1.245 . S
C2360 O2365 1.259 . S
C2361 O2366 1.250 . S
C2361 O2367 1.263 . S
O2362 Tb2354 2.427 . S
O2362 C2358 1.275 . S
O2363 Tb2354 2.513 . S
O2363 C2358 1.246 . S
O2364 Tb2354 2.453 . S
O2364 C2360 1.245 . S
O2365 Tb2352 2.343 . S
O2365 Tb2354 2.596 . S
O2365 C2360 1.259 . S
O2366 Tb2354 2.374 . S
O2366 C2361 1.250 . S
O2367 Tb2352 2.353 . S
O2367 C2361 1.263 . S
C2368 O2369 1.275 . S
C2368 O2370 1.246 . S
O2369 Tb2352 2.427 . S
O2369 C2368 1.275 . S
O2370 Tb2352 2.513 . S
O2370 C2368 1.246 . S
C2371 O2355 1.245 . S
C2371 O2356 1.259 . S
Tb2372 O2375 2.453 . S
Tb2372 O2376 2.596 . S
Tb2372 O2377 2.374 . S
Tb2372 O2385 2.343 . S
Tb2372 O2387 2.353 . S
Tb2372 O2389 2.427 . S
Tb2372 O2390 2.513 . S
C2373 O2377 1.251 . S
C2373 O2379 1.263 . S
Tb2374 O2376 2.343 . S
Tb2374 O2379 2.353 . S
Tb2374 O2382 2.427 . S
Tb2374 O2383 2.513 . S
Tb2374 O2384 2.453 . S
Tb2374 O2385 2.596 . S
Tb2374 O2386 2.374 . S
O2375 Tb2372 2.453 . S
O2375 C2391 1.245 . S
O2376 Tb2372 2.596 . S
O2376 Tb2374 2.343 . S
O2376 C2391 1.259 . S
O2377 Tb2372 2.374 . S
O2377 C2373 1.251 . S
C2378 O2382 1.275 . S
C2378 O2383 1.246 . S
O2379 C2373 1.263 . S
O2379 Tb2374 2.353 . S
C2380 O2384 1.245 . S
C2380 O2385 1.259 . S
C2381 O2386 1.250 . S
C2381 O2387 1.263 . S
O2382 Tb2374 2.427 . S
O2382 C2378 1.275 . S
O2383 Tb2374 2.513 . S
O2383 C2378 1.246 . S
O2384 Tb2374 2.453 . S
O2384 C2380 1.245 . S
O2385 Tb2372 2.343 . S
O2385 Tb2374 2.596 . S
O2385 C2380 1.259 . S
O2386 Tb2374 2.374 . S
O2386 C2381 1.250 . S
O2387 Tb2372 2.353 . S
O2387 C2381 1.263 . S
C2388 O2389 1.275 . S
C2388 O2390 1.246 . S
O2389 Tb2372 2.427 . S
O2389 C2388 1.275 . S
O2390 Tb2372 2.513 . S
O2390 C2388 1.246 . S
C2391 O2375 1.245 . S
C2391 O2376 1.259 . S
Tb2392 O2395 2.453 . S
Tb2392 O2396 2.596 . S
Tb2392 O2397 2.374 . S
Tb2392 O2405 2.343 . S
Tb2392 O2407 2.353 . S
Tb2392 O2409 2.427 . S
Tb2392 O2410 2.513 . S
C2393 O2397 1.251 . S
C2393 O2399 1.263 . S
Tb2394 O2396 2.343 . S
Tb2394 O2399 2.353 . S
Tb2394 O2402 2.427 . S
Tb2394 O2403 2.513 . S
Tb2394 O2404 2.453 . S
Tb2394 O2405 2.596 . S
Tb2394 O2406 2.374 . S
O2395 Tb2392 2.453 . S
O2395 C2411 1.245 . S
O2396 Tb2392 2.596 . S
O2396 Tb2394 2.343 . S
O2396 C2411 1.259 . S
O2397 Tb2392 2.374 . S
O2397 C2393 1.251 . S
C2398 O2402 1.275 . S
C2398 O2403 1.246 . S
O2399 C2393 1.263 . S
O2399 Tb2394 2.353 . S
C2400 O2404 1.245 . S
C2400 O2405 1.259 . S
C2401 O2406 1.250 . S
C2401 O2407 1.263 . S
O2402 Tb2394 2.427 . S
O2402 C2398 1.275 . S
O2403 Tb2394 2.513 . S
O2403 C2398 1.246 . S
O2404 Tb2394 2.453 . S
O2404 C2400 1.245 . S
O2405 Tb2392 2.343 . S
O2405 Tb2394 2.596 . S
O2405 C2400 1.259 . S
O2406 Tb2394 2.374 . S
O2406 C2401 1.250 . S
O2407 Tb2392 2.353 . S
O2407 C2401 1.263 . S
C2408 O2409 1.275 . S
C2408 O2410 1.246 . S
O2409 Tb2392 2.427 . S
O2409 C2408 1.275 . S
O2410 Tb2392 2.513 . S
O2410 C2408 1.246 . S
C2411 O2395 1.245 . S
C2411 O2396 1.259 . S
Tb2412 O2415 2.453 . S
Tb2412 O2416 2.596 . S
Tb2412 O2417 2.374 . S
Tb2412 O2425 2.343 . S
Tb2412 O2427 2.353 1_554 S
Tb2412 O2429 2.427 1_554 S
Tb2412 O2430 2.513 . S
C2413 O2417 1.251 . S
C2413 O2419 1.263 1_455 S
Tb2414 O2416 2.343 1_655 S
Tb2414 O2419 2.353 . S
Tb2414 O2422 2.427 . S
Tb2414 O2423 2.513 . S
Tb2414 O2424 2.453 . S
Tb2414 O2425 2.596 1_655 S
Tb2414 O2426 2.374 1_554 S
O2415 Tb2412 2.453 . S
O2415 C2431 1.245 . S
O2416 Tb2412 2.596 . S
O2416 Tb2414 2.343 1_455 S
O2416 C2431 1.259 . S
O2417 Tb2412 2.374 . S
O2417 C2413 1.251 . S
C2418 O2422 1.275 . S
C2418 O2423 1.246 . S
O2419 C2413 1.263 1_655 S
O2419 Tb2414 2.353 . S
C2420 O2424 1.259 1_556 S
C2420 O2425 1.254 1_656 S
C2421 O2426 1.258 . S
C2421 O2427 1.255 1_655 S
O2422 Tb2414 2.427 . S
O2422 C2418 1.275 . S
O2423 Tb2414 2.513 . S
O2423 C2418 1.246 . S
O2424 Tb2414 2.453 . S
O2424 C2420 1.259 1_554 S
O2425 Tb2412 2.343 . S
O2425 Tb2414 2.596 1_455 S
O2425 C2420 1.254 1_454 S
O2426 Tb2414 2.374 1_556 S
O2426 C2421 1.258 . S
O2427 Tb2412 2.353 1_556 S
O2427 C2421 1.255 1_455 S
C2428 O2429 1.275 . S
C2428 O2430 1.246 1_556 S
O2429 Tb2412 2.427 1_556 S
O2429 C2428 1.275 . S
O2430 Tb2412 2.513 . S
O2430 C2428 1.246 1_554 S
C2431 O2415 1.245 . S
C2431 O2416 1.259 . S
C665 C2128 1.015 . S
C381 C2141 1.638 . S
C460 C2160 1.730 . S
C2191 C585 2.332 . S
C108 C2211 1.815 . S
C2228 C196 1.198 . S
C2241 C313 1.762 . S
C49 C2268 0.814 . S
C2121 C1457 1.179 . S
C1545 C2151 2.104 . S
C2153 C1721 2.431 1_545 S
C2188 C1113 1.528 . S
C1428 C2208 1.827 . S
C2221 C1516 2.542 . S
C2251 C1692 1.800 . S
C2261 C1085 1.127 . S
C2131 C988 1.682 1_545 S
C1817 C2281 2.180 1_556 S
C2311 C2081 2.012 . S
C2328 C1993 1.543 . S
C761 C2271 2.141 . S
C821 C2158 1.627 . S
C2053 C2341 2.521 . S
C2368 C1868 1.161 . S
C2118 C372 1.020 . S
C2353 C645 1.629 . S
C577 C2171 1.735 . S
C497 C2340 2.324 . S
C2200 C57 1.813 . S
C293 C2298 1.206 . S
C2233 C205 1.749 . S
C2378 C145 0.827 . S
C2113 C909 1.167 1_545 S
C2360 C1956 2.109 . S
C724 C2161 2.418 . S
C1780 C2338 1.529 . S
C937 C2198 1.829 1_565 S
C2293 C1985 2.528 . S
C753 C2240 1.805 . S
C1809 C2373 1.121 . S
C1173 C2120 1.678 1_554 S
C1105 C2273 2.170 . S
C1633 C2220 2.018 . S
C1553 C2318 1.545 . S
C2380 C1729 2.139 . S
C1340 C2168 1.636 . S
C2173 C1604 2.509 . S
C2138 C1252 1.172 . S
C489 C2408 1.014 . S
C2361 C557 1.638 . S
C636 C2420 1.718 1_455 S
C409 C2351 2.332 . S
C284 C2291 1.816 . S
C2308 C20 1.198 . S
C2321 C137 1.760 1_455 S
C2388 C225 0.814 . S
C2401 C1641 1.179 . S
C1193 C2371 2.104 . S
C2413 C1289 2.432 . S
C2348 C1377 1.528 . S
C2288 C1613 1.827 . S
C1164 C2301 2.542 . S
C2331 C1261 1.800 . S
C1349 C2381 1.127 . S
C2411 C1965 1.682 . S
C849 C2201 2.181 . S
C2231 C929 2.014 . S
C2248 C1017 1.537 1_565 S
C2391 C1897 2.141 . S
C1789 C2418 1.624 . S
C2181 C900 2.517 . S
C2148 C733 1.160 . S
C548 C2398 1.020 . S
C2133 C469 1.629 . S
C401 C2431 1.735 1_655 S
C673 C2180 2.324 . S
C233 C2280 1.813 1_556 S
C2218 C117 1.204 . S
C29 C2313 1.749 . S
C321 C2258 0.826 . S
C2393 C2044 1.169 . S
C997 C2140 2.109 . S
C2421 C1877 2.417 1_655 S
C812 C2178 1.530 . S
C2073 C2278 1.832 . S
C2213 C1025 2.528 . S
C1905 C2320 1.804 . S
C2253 C841 1.119 . S
C2400 C1525 1.681 . S
C2193 C1369 2.170 . S
C1465 C2300 2.018 . S
C2238 C1201 1.545 1_554 S
C1281 C2260 2.140 . S
C1076 C2428 1.637 1_554 S
C2333 C1437 2.509 . S
C2358 C1701 1.172 . S
