# Generated by pormake.
# Topology pth, (4,4)-cn, num edge types: 1
# Building blocks:
#     Node 0, Type 0, BuildingBlock: UXUYUI_clean_sbu_0, # of connection points: 4
#     Node 1, Type 0, BuildingBlock: UXUYUI_clean_sbu_0, # of connection points: 4
#     Node 2, Type 0, BuildingBlock: UXUYUI_clean_sbu_0, # of connection points: 4
#     Node 3, Type 1, BuildingBlock: KOZSID_clean_sbu_0, # of connection points: 4
#     Node 4, Type 1, BuildingBlock: KOZSID_clean_sbu_0, # of connection points: 4
#     Node 5, Type 1, BuildingBlock: KOZSID_clean_sbu_0, # of connection points: 4
#     Edge 6, Type (0, 1), BuildingBlock: EZIPEK_clean_linker_0, # of connection points: 2
#     Edge 7, Type (0, 1), BuildingBlock: EZIPEK_clean_linker_0, # of connection points: 2
#     Edge 8, Type (0, 1), BuildingBlock: EZIPEK_clean_linker_0, # of connection points: 2
#     Edge 9, Type (0, 1), BuildingBlock: EZIPEK_clean_linker_0, # of connection points: 2
#     Edge 10, Type (0, 1), BuildingBlock: EZIPEK_clean_linker_0, # of connection points: 2
#     Edge 11, Type (0, 1), BuildingBlock: EZIPEK_clean_linker_0, # of connection points: 2
#     Edge 12, Type (0, 1), BuildingBlock: EZIPEK_clean_linker_0, # of connection points: 2
#     Edge 13, Type (0, 1), BuildingBlock: EZIPEK_clean_linker_0, # of connection points: 2
#     Edge 14, Type (0, 1), BuildingBlock: EZIPEK_clean_linker_0, # of connection points: 2
#     Edge 15, Type (0, 1), BuildingBlock: EZIPEK_clean_linker_0, # of connection points: 2
#     Edge 16, Type (0, 1), BuildingBlock: EZIPEK_clean_linker_0, # of connection points: 2
#     Edge 17, Type (0, 1), BuildingBlock: EZIPEK_clean_linker_0, # of connection points: 2
# Relax obj value: 0.074
# Max RMSD: 0.214
# Mean RMSD: 0.112
data_MOF--net-pth--node1-UXUYUI_clean_sbu_0--node2-KOZSID_clean_sbu_0--edge1-EZIPEK_clean_linker_0
_symmetry_space_group_name_H-M    P1
_symmetry_Int_Tables_number       1
_symmetry_cell_setting            triclinic
loop_
_symmetry_equiv_pos_as_xyz
'x, y, z'
_cell_length_a     25.730947
_cell_length_b     25.712484
_cell_length_c     58.449843
_cell_angle_alpha  87.289086
_cell_angle_beta   87.277531
_cell_angle_gamma 119.96552
loop_
_atom_site_label
_atom_site_type_symbol
_atom_site_fract_x
_atom_site_fract_y
_atom_site_fract_z
_atom_type_partial_charge
Li0 Li 0.11797 0.10346 0.02216 0.0
Li1 Li 0.0418 0.10046 0.05049 0.0
Li2 Li 0.07224 0.01994 0.05386 0.0
Li3 Li 0.01197 0.02049 0.02341 0.0
C4 C 0.17633 0.14343 0.06404 0.0
N5 N 0.28782 0.21336 0.08036 0.0
C6 C 0.19416 0.20177 0.06995 0.0
C7 C 0.21506 0.12057 0.06661 0.0
C8 C 0.25074 0.23644 0.07811 0.0
C9 C 0.27127 0.15663 0.07484 0.0
C10 C 0.05872 0.16649 0.0091 0.0
C11 C 0.04235 0.23593 0.98565 0.0
N12 N 0.08949 0.28288 0.99448 0.0
C13 C 0.10693 0.21547 0.01795 0.0
C14 C 0.02611 0.17676 0.99281 0.0
C15 C 0.12184 0.27394 0.01033 0.0
C16 C 0.17316 0.17165 0.98002 0.0
N17 N 0.18662 0.1607 1.00133 0.0
C18 C 0.28932 0.23906 0.99285 0.0
C19 C 0.24377 0.19288 0.00778 0.0
C20 C 0.27569 0.2533 0.97129 0.0
C21 C 0.21685 0.21856 0.96484 0.0
H22 H 0.12765 0.1454 0.97513 0.0
H23 H 0.25415 0.18375 0.0246 0.0
C24 C 0.04377 0.15921 0.08989 0.0
N25 N 0.02468 0.15209 0.06835 0.0
C26 C 0.04256 0.2029 0.1029 0.0
C27 C 0.99985 0.22983 0.07171 0.0
C28 C 1.00122 0.18507 0.0594 0.0
C29 C 0.02172 0.23968 0.09356 0.0
H30 H 0.06237 0.1326 0.09659 0.0
H31 H 0.9856 0.17831 0.04237 0.0
C32 C 0.11916 0.98732 0.01775 0.0
N33 N 0.18525 0.92996 0.01299 0.0
C34 C 0.08996 0.92452 0.01819 0.0
C35 C 0.18199 0.02091 0.01478 0.0
C36 C 0.12417 0.89637 0.01581 0.0
C37 C 0.2146 0.99111 0.01241 0.0
C38 C 0.92909 0.98042 0.05801 0.0
C39 C 0.89668 0.91866 0.06458 0.0
C40 C 0.89852 0.01015 0.05141 0.0
C41 C 0.83404 0.88758 0.06439 0.0
C42 C 0.83586 0.97748 0.05147 0.0
N43 N 0.80519 0.91738 0.05789 0.0
C44 C 0.03465 0.93936 0.09337 0.0
C45 C 0.12302 0.9502 0.07416 0.0
C46 C 0.03096 0.89445 0.10898 0.0
N47 N 0.07938 0.96543 0.07604 0.0
C48 C 0.12139 0.90588 0.08955 0.0
C49 C 0.07429 0.87674 0.10696 0.0
H50 H 1.00086 0.95252 0.09482 0.0
H51 H 0.15855 0.9713 0.06051 0.0
C52 C 0.92965 0.98316 0.98764 0.0
N53 N 0.95046 0.96462 0.00539 0.0
C54 C 0.888 0.94101 0.97396 0.0
C55 C 0.88963 0.86167 0.99721 0.0
C56 C 0.93094 0.90518 0.01044 0.0
C57 C 0.86815 0.87952 0.9786 0.0
H58 H 0.94612 0.03064 0.98386 0.0
H59 H 0.94797 0.89156 0.02466 0.0
O60 O 0.12089 0.1085 0.0562 0.0
O61 O 0.04357 0.10876 0.01619 0.0
O62 O 0.08641 0.01572 0.01997 0.0
O63 O 0.99056 0.01146 0.05733 0.0
H64 H 0.16472 0.22022 0.06831 0.0
H65 H 0.20225 0.07586 0.06198 0.0
H66 H 0.26514 0.28168 0.08269 0.0
H67 H 0.3018 0.13958 0.07677 0.0
H68 H 0.01748 0.24453 0.97306 0.0
H69 H 0.13273 0.20837 0.03046 0.0
H70 H 0.98861 0.13944 0.9858 0.0
H71 H 0.15916 0.31218 0.01701 0.0
H72 H 0.33437 0.2647 0.99834 0.0
H73 H 0.2047 0.22816 0.94833 0.0
H74 H 0.05977 0.2095 0.11972 0.0
H75 H 0.98331 0.25742 0.06409 0.0
H76 H 0.04148 0.89768 0.02049 0.0
H77 H 0.20543 0.06938 0.01454 0.0
H78 H 0.10214 0.84779 0.01624 0.0
H79 H 0.26324 0.01659 0.01019 0.0
H80 H 0.91966 0.89475 0.06945 0.0
H81 H 0.92301 0.05778 0.04601 0.0
H82 H 0.80839 0.83971 0.06931 0.0
H83 H 0.81163 0.99985 0.04631 0.0
H84 H 0.99408 0.87297 0.12225 0.0
H85 H 0.15565 0.89331 0.08754 0.0
H86 H 0.87221 0.95618 0.95968 0.0
H87 H 0.87515 0.81461 1.00126 0.0
Li88 Li 0.04962 0.03366 0.35635 0.0
Li89 Li 0.11131 0.09851 0.38481 0.0
Li90 Li 0.00488 0.06644 0.38671 0.0
Li91 Li 0.0713 0.14126 0.35636 0.0
C92 C 0.99732 0.95645 0.39615 0.0
N93 N 0.90795 0.83845 0.40778 0.0
C94 C 1.00233 0.92331 0.41471 0.0
C95 C 0.94695 0.9294 0.38345 0.0
C96 C 0.95665 0.86376 0.42033 0.0
C97 C 0.90224 0.86977 0.38961 0.0
C98 C 0.17326 0.10086 0.34227 0.0
C99 C 0.25431 0.12257 0.31399 0.0
N100 N 0.26329 0.08075 0.32541 0.0
C101 C 0.18336 0.0582 0.35374 0.0
C102 C 0.20904 0.13343 0.32226 0.0
C103 C 0.22906 0.04864 0.34495 0.0
C104 C 0.02565 0.96652 0.31588 0.0
N105 N 0.0428 0.97019 0.3377 0.0
C106 C 0.06198 0.88877 0.33348 0.0
C107 C 0.05984 0.93168 0.34671 0.0
C108 C 0.04515 0.88427 0.31086 0.0
C109 C 0.02592 0.92326 0.30217 0.0
H110 H 0.01276 0.99784 0.30898 0.0
H111 H 0.07325 0.93514 0.36407 0.0
C112 C 0.1567 0.07644 0.42408 0.0
N113 N 0.17523 0.10999 0.40354 0.0
C114 C 0.19834 0.07351 0.43778 0.0
C115 C 0.27809 0.14205 0.40948 0.0
C116 C 0.23476 0.14355 0.39625 0.0
C117 C 0.25968 0.10572 0.4303 0.0
H118 H 0.10919 0.05041 0.4295 0.0
H119 H 0.24851 0.16966 0.37981 0.0
C120 C 0.94111 0.0622 0.34837 0.0
N121 N 0.83246 0.0531 0.33952 0.0
C122 C 0.92528 0.10248 0.35713 0.0
C123 C 0.90159 0.01712 0.33519 0.0
C124 C 0.87016 0.09717 0.35246 0.0
C125 C 0.84691 0.01334 0.33086 0.0
C126 C 0.11764 0.20599 0.39386 0.0
C127 C 0.10789 0.23716 0.41095 0.0
C128 C 0.17239 0.23401 0.38031 0.0
C129 C 0.15323 0.29547 0.41436 0.0
C130 C 0.21661 0.29235 0.38426 0.0
N131 N 0.20622 0.32162 0.40107 0.0
C132 C 0.95047 0.08313 0.42566 0.0
C133 C 0.87807 0.01022 0.40361 0.0
C134 C 0.90524 0.08243 0.44006 0.0
N135 N 0.93647 0.04871 0.40748 0.0
C136 C 0.83117 0.00762 0.41779 0.0
C137 C 0.84481 0.04521 0.43593 0.0
H138 H 0.99706 0.11255 0.42859 0.0
H139 H 0.86778 0.98323 0.38906 0.0
C140 C 0.10373 0.22383 0.31594 0.0
N141 N 0.08044 0.2107 0.33822 0.0
C142 C 0.10324 0.27011 0.30242 0.0
C143 C 0.05528 0.28874 0.33499 0.0
C144 C 0.05795 0.24318 0.348 0.0
C145 C 0.07741 0.30222 0.31181 0.0
H146 H 0.121 0.19723 0.30847 0.0
H147 H 0.04007 0.23237 0.36577 0.0
O148 O 0.04202 0.01472 0.3904 0.0
O149 O 0.12901 0.11131 0.35061 0.0
O150 O 0.99433 0.06579 0.35308 0.0
O151 O 0.07319 0.14898 0.39022 0.0
H152 H 0.0412 0.94328 0.42463 0.0
H153 H 0.9424 0.95389 0.36892 0.0
H154 H 0.95995 0.83763 0.43465 0.0
H155 H 0.86304 0.84836 0.37992 0.0
H156 H 0.28237 0.14747 0.29852 0.0
H157 H 0.15649 0.03305 0.36938 0.0
H158 H 0.20196 0.16683 0.31323 0.0
H159 H 0.23739 0.0158 0.35369 0.0
H160 H 0.07704 0.85954 0.34079 0.0
H161 H 0.01253 0.92104 0.28479 0.0
H162 H 0.18276 0.0453 0.4538 0.0
H163 H 0.32521 0.16758 0.40329 0.0
H164 H 0.95439 0.1363 0.36797 0.0
H165 H 0.91296 0.98525 0.32844 0.0
H166 H 0.85715 0.12776 0.35929 0.0
H167 H 0.81589 0.97868 0.32068 0.0
H168 H 0.06563 0.21678 0.42142 0.0
H169 H 0.18086 0.21139 0.3668 0.0
H170 H 0.14622 0.32 0.42754 0.0
H171 H 0.25917 0.31441 0.37392 0.0
H172 H 0.91729 0.11157 0.45403 0.0
H173 H 0.78488 0.97808 0.41424 0.0
H174 H 0.12059 0.27917 0.28455 0.0
H175 H 0.03483 0.31229 0.3428 0.0
Li176 Li 0.11914 0.05289 0.68779 0.0
Li177 Li 0.11397 0.11331 0.71792 0.0
Li178 Li 0.03454 0.00227 0.71769 0.0
Li179 Li 0.03377 0.07509 0.68981 0.0
C180 C 0.16983 0.03089 0.72326 0.0
N181 N 0.26676 0.01289 0.7258 0.0
C182 C 0.2281 0.0801 0.7233 0.0
C183 C 0.16078 0.9725 0.72486 0.0
C184 C 0.27653 0.07008 0.7245 0.0
C185 C 0.21039 0.96434 0.72604 0.0
C186 C 0.14296 0.19203 0.67733 0.0
C187 C 0.12647 0.27658 0.67471 0.0
N188 N 0.183 0.31178 0.66439 0.0
C189 C 0.20069 0.22895 0.66645 0.0
C190 C 0.10539 0.21596 0.68129 0.0
C191 C 0.22018 0.28939 0.66014 0.0
C192 C 0.16697 0.00344 0.65453 0.0
N193 N 0.17919 0.04964 0.66786 0.0
C194 C 0.28263 0.10188 0.653 0.0
C195 C 0.23568 0.09821 0.6673 0.0
C196 C 0.2714 0.05503 0.63912 0.0
C197 C 0.21285 0.00515 0.63999 0.0
H198 H 0.12169 0.96559 0.65501 0.0
H199 H 0.24431 0.13429 0.67802 0.0
C200 C 0.17149 0.15061 0.7584 0.0
N201 N 0.16557 0.1732 0.73777 0.0
C202 C 0.2141 0.18824 0.77286 0.0
C203 C 0.2422 0.27249 0.74514 0.0
C204 C 0.19938 0.23315 0.73111 0.0
C205 C 0.25058 0.24983 0.76609 0.0
H206 H 0.14461 0.10277 0.76323 0.0
H207 H 0.19447 0.25057 0.71474 0.0
C208 C 0.99641 0.939 0.68112 0.0
N209 N 0.92224 0.81715 0.6774 0.0
C210 C 0.93967 0.91759 0.67291 0.0
C211 C 0.01575 0.89855 0.68711 0.0
C212 C 0.90274 0.8558 0.67123 0.0
C213 C 0.97752 0.8371 0.68521 0.0
C214 C 0.99313 0.09809 0.73267 0.0
C215 C 0.93206 0.0624 0.74006 0.0
C216 C 0.02243 0.15999 0.73509 0.0
C217 C 0.90091 0.0895 0.74897 0.0
C218 C 0.98977 0.18544 0.74409 0.0
N219 N 0.93015 0.14998 0.75075 0.0
C220 C 0.99144 0.90518 0.75388 0.0
C221 C 0.91821 0.91115 0.73259 0.0
C222 C 0.94606 0.85746 0.76844 0.0
N223 N 0.97669 0.9312 0.73647 0.0
C224 C 0.87164 0.86418 0.74677 0.0
C225 C 0.88533 0.83727 0.76512 0.0
H226 H 0.03822 0.92248 0.75686 0.0
H227 H 0.90766 0.93302 0.71882 0.0
C228 C 0.99174 0.11681 0.65194 0.0
N229 N 0.97597 0.08357 0.67254 0.0
C230 C 0.94736 0.11553 0.63859 0.0
C231 C 0.8714 0.04513 0.66762 0.0
C232 C 0.91714 0.04835 0.68051 0.0
C233 C 0.88632 0.07864 0.6463 0.0
H234 H 0.03859 0.14289 0.64554 0.0
H235 H 0.90555 0.02041 0.69641 0.0
O236 O 0.12191 0.03985 0.72171 0.0
O237 O 0.12314 0.13266 0.68362 0.0
O238 O 0.03264 0.99917 0.68346 0.0
O239 O 0.02466 0.07221 0.72418 0.0
H240 H 0.23607 0.12565 0.72203 0.0
H241 H 0.11597 0.93384 0.72528 0.0
H242 H 0.3219 0.10779 0.72432 0.0
H243 H 0.20405 0.91939 0.72719 0.0
H244 H 0.0978 0.29558 0.67775 0.0
H245 H 0.23027 0.21133 0.66288 0.0
H246 H 0.06017 0.18796 0.68914 0.0
H247 H 0.26484 0.31848 0.65182 0.0
H248 H 0.32729 0.14095 0.65274 0.0
H249 H 0.20277 0.96829 0.62941 0.0
H250 H 0.21948 0.16933 0.78892 0.0
H251 H 0.2696 0.31987 0.73946 0.0
H252 H 0.92418 0.94824 0.66794 0.0
H253 H 0.05971 0.91447 0.69326 0.0
H254 H 0.85858 0.83857 0.66503 0.0
H255 H 0.99181 0.80527 0.68994 0.0
H256 H 0.90876 0.01427 0.73893 0.0
H257 H 0.06995 0.18824 0.73013 0.0
H258 H 0.85353 0.06241 0.75454 0.0
H259 H 0.0119 0.23337 0.74587 0.0
H260 H 0.95806 0.83762 0.7825 0.0
H261 H 0.82533 0.84979 0.74376 0.0
H262 H 0.96034 0.14156 0.6221 0.0
H263 H 0.82478 0.01568 0.67395 0.0
C264 C 0.11451 0.68027 0.16959 0.0
C265 C 0.1695 0.72194 0.15814 0.0
C266 C 0.21022 0.70568 0.16457 0.0
C267 C 0.17789 0.65525 0.17953 0.0
N268 N 0.1194 0.63866 0.18299 0.0
Co269 Co 0.05717 0.56844 0.2033 0.0
N270 N 0.11939 0.5594 0.21948 0.0
C271 C 0.1781 0.58549 0.21203 0.0
C272 C 0.2101 0.56831 0.2254 0.0
C273 C 0.169 0.52784 0.24215 0.0
C274 C 0.11384 0.5227 0.23814 0.0
N275 N 0.99461 0.49792 0.2236 0.0
C276 C 0.99965 0.46872 0.24263 0.0
C277 C 0.94354 0.42318 0.25195 0.0
C278 C 0.90232 0.42195 0.23772 0.0
C279 C 0.93521 0.46722 0.22076 0.0
N280 N 0.99531 0.57752 0.18705 0.0
C281 C 0.93643 0.53615 0.18749 0.0
C282 C 0.90468 0.55522 0.17476 0.0
C283 C 0.94618 0.61214 0.16564 0.0
C284 C 1.00105 0.62453 0.17337 0.0
N285 N 0.05599 0.51365 0.18054 0.0
C286 C 0.046 0.43065 0.14904 0.0
C287 C 0.04289 0.48173 0.14197 0.0
C288 C 0.04881 0.52305 0.15792 0.0
C289 C 0.05593 0.42281 0.17187 0.0
C290 C 0.06074 0.46463 0.18724 0.0
N291 N 0.05785 0.62344 0.22577 0.0
C292 C 0.00421 0.66196 0.24756 0.0
C293 C 0.05809 0.70827 0.25457 0.0
C294 C 0.11187 0.71016 0.24739 0.0
C295 C 0.11086 0.66798 0.23274 0.0
C296 C 0.00496 0.61962 0.2336 0.0
H297 H 0.15312 0.67212 0.22677 0.0
H298 H 0.96252 0.58449 0.2288 0.0
H299 H 0.04697 0.56224 0.15195 0.0
H300 H 0.06816 0.45687 0.20453 0.0
C301 C 0.20222 0.62813 0.19314 0.0
C302 C 0.05817 0.67958 0.16617 0.0
C303 C 0.05647 0.47609 0.25029 0.0
C304 C 0.91127 0.48552 0.20323 0.0
H305 H 0.17909 0.75993 0.14632 0.0
H306 H 0.25806 0.72911 0.15958 0.0
H307 H 0.25755 0.5829 0.22309 0.0
H308 H 0.1784 0.50307 0.25517 0.0
H309 H 0.93375 0.39224 0.26688 0.0
H310 H 0.85407 0.39184 0.2396 0.0
H311 H 0.85667 0.53168 0.1731 0.0
H312 H 0.93717 0.64117 0.15457 0.0
H313 H 0.0359 0.48952 0.1243 0.0
H314 H 0.05912 0.38406 0.17788 0.0
H315 H 0.96161 0.65852 0.25287 0.0
H316 H 0.15449 0.74497 0.25259 0.0
C317 C 0.45843 0.01063 0.57313 0.0
C318 C 0.41293 0.95554 0.58329 0.0
C319 C 0.41814 0.9122 0.57259 0.0
C320 C 0.46635 0.94315 0.55663 0.0
N321 N 0.49267 0.00372 0.55656 0.0
Co322 Co 0.56412 0.06553 0.53605 0.0
N323 N 0.56836 1.00154 0.51908 0.0
C324 C 0.52972 0.9415 0.52215 0.0
C325 C 0.54349 0.90876 0.50777 0.0
C326 C 0.59436 0.9503 0.49483 0.0
C327 C 0.60885 0.00615 0.50222 0.0
N328 N 0.63702 0.12709 0.51605 0.0
C329 C 0.67289 0.11961 0.50033 0.0
C330 C 0.72156 0.17439 0.49153 0.0
C331 C 0.71654 0.21806 0.50211 0.0
C332 C 0.66549 0.18762 0.51682 0.0
N333 N 0.55839 0.12947 0.55253 0.0
C334 C 0.59418 0.18978 0.54826 0.0
C335 C 0.5772 0.22239 0.56142 0.0
C336 C 0.52702 0.18045 0.57467 0.0
C337 C 0.51633 0.12448 0.56882 0.0
N338 N 0.61872 0.06281 0.55855 0.0
C339 C 0.70098 0.06139 0.58851 0.0
C340 C 0.70522 0.11541 0.58056 0.0
C341 C 0.66377 0.11507 0.56592 0.0
C342 C 0.65418 0.00773 0.58161 0.0
C343 C 0.61395 0.00946 0.56661 0.0
N344 N 0.50972 0.06903 0.51357 0.0
C345 C 0.48372 0.12808 0.48805 0.0
C346 C 0.42841 0.07769 0.48506 0.0
C347 C 0.41498 0.02231 0.49589 0.0
C348 C 0.45624 0.0189 0.50985 0.0
C349 C 0.52329 0.12283 0.50223 0.0
H350 H 0.44352 0.97546 0.51771 0.0
H351 H 0.56415 0.16334 0.50398 0.0
H352 H 0.66957 0.15788 0.56067 0.0
H353 H 0.57972 0.96726 0.56158 0.0
C354 C 0.48426 0.91683 0.54003 0.0
C355 C 0.4649 0.06797 0.57889 0.0
C356 C 0.66339 0.06166 0.49358 0.0
C357 C 0.64334 0.21434 0.53175 0.0
H358 H 0.3785 0.94749 0.59663 0.0
H359 H 0.38897 0.8639 0.57555 0.0
H360 H 0.5204 0.86031 0.50725 0.0
H361 H 0.61894 0.94051 0.48184 0.0
H362 H 0.75735 0.18195 0.47893 0.0
H363 H 0.74697 0.26623 0.49963 0.0
H364 H 0.5984 0.27089 0.56122 0.0
H365 H 0.50081 0.18986 0.58706 0.0
H366 H 0.74066 0.15793 0.58561 0.0
H367 H 0.64926 0.96481 0.58752 0.0
H368 H 0.49588 0.17172 0.47977 0.0
H369 H 0.37258 0.98205 0.4938 0.0
C370 C 0.68726 0.60196 0.83605 0.0
C371 C 0.73183 0.58923 0.82918 0.0
C372 C 0.72085 0.53903 0.84234 0.0
C373 C 0.67046 0.52401 0.85643 0.0
N374 N 0.64824 0.56133 0.853 0.0
Co375 Co 0.57592 0.55607 0.87003 0.0
N376 N 0.56399 0.48623 0.89099 0.0
C377 C 0.59981 0.46172 0.89148 0.0
C378 C 0.5809 0.41495 0.90801 0.0
C379 C 0.52943 0.40863 0.91856 0.0
C380 C 0.51969 0.45182 0.90767 0.0
N381 N 0.50211 0.54908 0.8865 0.0
C382 C 0.4612 0.50588 0.9024 0.0
C383 C 0.41312 0.51464 0.90768 0.0
C384 C 0.42381 0.56494 0.89462 0.0
C385 C 0.47735 0.58375 0.88202 0.0
N386 N 0.58948 0.62755 0.84961 0.0
C387 C 0.55637 0.6551 0.85031 0.0
C388 C 0.57811 0.70475 0.83495 0.0
C389 C 0.62874 0.7099 0.82402 0.0
C390 C 0.63492 0.66286 0.83338 0.0
N391 N 0.52313 0.4997 0.84801 0.0
C392 C 0.43865 0.415 0.82063 0.0
C393 C 0.44223 0.4703 0.82298 0.0
C394 C 0.48438 0.51161 0.83659 0.0
C395 C 0.47938 0.40331 0.8315 0.0
C396 C 0.52141 0.44629 0.84487 0.0
N397 N 0.62824 0.61258 0.89211 0.0
C398 C 0.65585 0.69916 0.91402 0.0
C399 C 0.70576 0.69736 0.92128 0.0
C400 C 0.71582 0.65185 0.91414 0.0
C401 C 0.67684 0.61026 0.89962 0.0
C402 C 0.61781 0.65652 0.89969 0.0
H403 H 0.68725 0.57702 0.89452 0.0
H404 H 0.58059 0.66049 0.89481 0.0
H405 H 0.4838 0.55239 0.83789 0.0
H406 H 0.55131 0.43493 0.85283 0.0
C407 C 0.64726 0.47963 0.87472 0.0
C408 C 0.68565 0.6547 0.82668 0.0
C409 C 0.46538 0.45517 0.91258 0.0
C410 C 0.50457 0.63255 0.86536 0.0
H411 H 0.76934 0.6145 0.8164 0.0
H412 H 0.74777 0.51745 0.84227 0.0
H413 H 0.60089 0.38729 0.9114 0.0
H414 H 0.50111 0.37473 0.93221 0.0
H415 H 0.37395 0.48705 0.91952 0.0
H416 H 0.39525 0.58466 0.894 0.0
H417 H 0.5596 0.73397 0.83216 0.0
H418 H 0.65819 0.74469 0.81082 0.0
H419 H 0.4117 0.48115 0.81465 0.0
H420 H 0.47824 0.36096 0.8299 0.0
H421 H 0.64643 0.73366 0.91929 0.0
H422 H 0.75405 0.6489 0.91951 0.0
C423 C 0.08255 0.34518 0.10544 0.0
C424 C 0.0263 0.29069 0.10619 0.0
C425 C 0.98177 0.32985 0.1337 0.0
C426 C 0.03796 0.38439 0.13292 0.0
N427 N 0.13947 0.44818 0.11612 0.0
N428 N 0.92039 0.23329 0.11816 0.0
C429 C 0.08762 0.39334 0.11812 0.0
C430 C 0.97523 0.28379 0.11943 0.0
N431 N 0.13147 0.35012 0.09301 0.0
N432 N 0.93514 0.3217 0.14858 0.0
H433 H 0.91445 0.1977 0.10863 0.0
H434 H 0.87998 0.22775 0.12532 0.0
H435 H 0.93711 0.35559 0.15828 0.0
H436 H 0.89535 0.28082 0.15223 0.0
H437 H 0.17536 0.38516 0.09378 0.0
H438 H 0.12884 0.31734 0.0825 0.0
H439 H 0.17528 0.46036 0.10395 0.0
H440 H 0.1456 0.48359 0.12579 0.0
C441 C 0.76367 0.07281 0.44078 0.0
C442 C 0.79652 0.04731 0.45036 0.0
C443 C 0.74711 0.038 0.48855 0.0
C444 C 0.71049 0.05831 0.47861 0.0
N445 N 0.67616 0.08503 0.44478 0.0
N446 N 0.8113 0.99504 0.48248 0.0
C447 C 0.71645 0.07271 0.45455 0.0
C448 C 0.7859 0.02689 0.47403 0.0
N449 N 0.77925 0.09952 0.41884 0.0
N450 N 0.74582 0.03063 0.51192 0.0
H451 H 0.83914 0.98517 0.47227 0.0
H452 H 0.80037 0.97357 0.49899 0.0
H453 H 0.7179 0.0382 0.52311 0.0
H454 H 0.77605 0.0221 0.52021 0.0
H455 H 0.76132 0.12453 0.41181 0.0
H456 H 0.81399 0.10131 0.40825 0.0
H457 H 0.67407 0.08931 0.42709 0.0
H458 H 0.64155 0.08618 0.45437 0.0
C459 C 0.82663 0.80239 0.80397 0.0
C460 C 0.83568 0.78966 0.78121 0.0
C461 C 0.74303 0.69104 0.78752 0.0
C462 C 0.73729 0.70158 0.81086 0.0
N463 N 0.77864 0.76281 0.84245 0.0
N464 N 0.80855 0.71804 0.75249 0.0
C465 C 0.78066 0.75597 0.81943 0.0
C466 C 0.7955 0.73283 0.7733 0.0
N467 N 0.86011 0.85954 0.81055 0.0
N468 N 0.69765 0.64171 0.77882 0.0
H469 H 0.84695 0.74717 0.74176 0.0
H470 H 0.78439 0.67513 0.74679 0.0
H471 H 0.65888 0.60993 0.7888 0.0
H472 H 0.69613 0.63484 0.7614 0.0
H473 H 0.85107 0.8731 0.82602 0.0
H474 H 0.89369 0.89507 0.79971 0.0
H475 H 0.81275 0.7986 0.85006 0.0
H476 H 0.74523 0.73017 0.85427 0.0
C477 C 0.07743 0.83233 0.14606 0.0
C478 C 0.06867 0.82575 0.12231 0.0
C479 C 0.05515 0.72418 0.12706 0.0
C480 C 0.05936 0.72907 0.15108 0.0
N481 N 0.06375 0.78303 0.18414 0.0
N482 N 0.03668 0.76092 0.09119 0.0
C483 C 0.06722 0.78177 0.16079 0.0
C484 C 0.054 0.77035 0.11308 0.0
N485 N 0.09785 0.88748 0.15437 0.0
N486 N 0.05372 0.67606 0.11748 0.0
H487 H 0.03435 0.79319 0.08048 0.0
H488 H 0.01922 0.71927 0.08437 0.0
H489 H 0.05312 0.64067 0.12716 0.0
H490 H 0.05787 0.67349 0.09982 0.0
H491 H 0.11121 0.89665 0.17094 0.0
H492 H 0.10642 0.92564 0.14409 0.0
H493 H 0.06241 0.81746 0.19235 0.0
H494 H 0.05693 0.747 0.19537 0.0
C495 C 0.31863 0.12626 0.46521 0.0
C496 C 0.30402 0.09956 0.44402 0.0
C497 C 0.37406 0.0618 0.44894 0.0
C498 C 0.38446 0.08384 0.47106 0.0
N499 N 0.35936 0.12848 0.50195 0.0
N500 N 0.30982 0.03342 0.41737 0.0
C501 C 0.35467 0.11372 0.47968 0.0
C502 C 0.32958 0.06498 0.43632 0.0
N503 N 0.29958 0.16517 0.47118 0.0
N504 N 0.40811 0.03965 0.43966 0.0
H505 H 0.27744 0.0346 0.40762 0.0
H506 H 0.32173 0.00217 0.41239 0.0
H507 H 0.44093 0.03639 0.44839 0.0
H508 H 0.40742 0.02919 0.42264 0.0
H509 H 0.31407 0.19112 0.48516 0.0
H510 H 0.27329 0.17559 0.46099 0.0
H511 H 0.33347 0.14411 0.51004 0.0
H512 H 0.38545 0.12025 0.51305 0.0
C513 C 0.36032 0.31311 0.77293 0.0
C514 C 0.29891 0.29018 0.78054 0.0
C515 C 0.32985 0.34063 0.81616 0.0
C516 C 0.39104 0.36938 0.80728 0.0
N517 N 0.46439 0.38961 0.7758 0.0
N518 N 0.22499 0.28871 0.80794 0.0
C519 C 0.40631 0.35728 0.78529 0.0
C520 C 0.28357 0.30558 0.80182 0.0
N521 N 0.37473 0.2913 0.75426 0.0
N522 N 0.31605 0.34562 0.83853 0.0
H523 H 0.18987 0.26334 0.79785 0.0
H524 H 0.21185 0.30416 0.82198 0.0
H525 H 0.34873 0.37061 0.84959 0.0
H526 H 0.27287 0.32066 0.84673 0.0
H527 H 0.41845 0.3015 0.74934 0.0
H528 H 0.34239 0.25858 0.74488 0.0
H529 H 0.47705 0.38772 0.75881 0.0
H530 H 0.49939 0.42215 0.78432 0.0
C531 C 0.82993 0.04473 0.61079 0.0
C532 C 0.83787 0.07285 0.6317 0.0
C533 C 0.74923 0.08297 0.62607 0.0
C534 C 0.74612 0.06201 0.60385 0.0
N535 N 0.7904 0.03259 0.57342 0.0
N536 N 0.8109 0.12758 0.65754 0.0
C537 C 0.78829 0.04536 0.59576 0.0
C538 C 0.79901 0.09433 0.63891 0.0
N539 N 0.86065 0.0156 0.6056 0.0
N540 N 0.70368 0.09038 0.6352 0.0
H541 H 0.84738 0.13763 0.66719 0.0
H542 H 0.78795 0.14982 0.66215 0.0
H543 H 0.66597 0.0814 0.62649 0.0
H544 H 0.70039 0.09969 0.65219 0.0
H545 H 0.85194 0.98896 0.59181 0.0
H546 H 0.89079 0.01316 0.61631 0.0
H547 H 0.82447 0.02676 0.5659 0.0
H548 H 0.76122 0.03316 0.56178 0.0
C549 C 0.76591 0.79242 0.97232 0.0
C550 C 0.82619 0.83367 0.96371 0.0
C551 C 0.80615 0.7885 0.92672 0.0
C552 C 0.7477 0.74373 0.93605 0.0
N553 N 0.67531 0.69677 0.96893 0.0
N554 N 0.90711 0.86449 0.93419 0.0
C555 C 0.72847 0.74396 0.95921 0.0
C556 C 0.84728 0.82996 0.94129 0.0
N557 N 0.74388 0.80062 0.99274 0.0
N558 N 0.82176 0.79276 0.90374 0.0
H559 H 0.93876 0.89529 0.94433 0.0
H560 H 0.92628 0.85893 0.91908 0.0
H561 H 0.79303 0.76324 0.89251 0.0
H562 H 0.86104 0.82851 0.89545 0.0
H563 H 0.69863 0.77601 0.99877 0.0
H564 H 0.76986 0.83569 0.00277 0.0
H565 H 0.66184 0.6911 0.98638 0.0
H566 H 0.64696 0.66025 0.95995 0.0
C567 C 0.08914 0.85934 0.27621 0.0
C568 C 0.04882 0.83945 0.29634 0.0
C569 C 0.02358 0.73531 0.29109 0.0
C570 C 0.05741 0.75421 0.26936 0.0
N571 N 0.11371 0.8343 0.23939 0.0
N572 N 0.96862 0.75655 0.3204 0.0
C573 C 0.08789 0.81631 0.2614 0.0
C574 C 0.01347 0.77681 0.30308 0.0
N575 N 0.13039 0.91916 0.27161 0.0
N576 N 0.00288 0.67824 0.30075 0.0
H577 H 0.95855 0.78523 0.32918 0.0
H578 H 0.93759 0.71103 0.32446 0.0
H579 H 0.01131 0.64722 0.29296 0.0
H580 H 0.98306 0.66393 0.3175 0.0
H581 H 0.16489 0.93538 0.25849 0.0
H582 H 0.13404 0.952 0.28229 0.0
H583 H 0.13048 0.87791 0.23194 0.0
H584 H 0.11342 0.80457 0.22783 0.0
C585 C 0.3229 0.07066 0.59953 0.0
C586 C 0.32118 0.05881 0.62363 0.0
C587 C 0.41819 0.06212 0.61854 0.0
C588 C 0.41683 0.06809 0.59437 0.0
N589 N 0.36466 0.07012 0.56148 0.0
N590 N 0.36231 0.03459 0.65596 0.0
C591 C 0.36826 0.0702 0.58475 0.0
C592 C 0.36766 0.05235 0.63313 0.0
N593 N 0.28247 0.08448 0.59083 0.0
N594 N 0.4682 0.06651 0.62753 0.0
H595 H 0.32578 0.02658 0.66714 0.0
H596 H 0.3913 0.02288 0.66347 0.0
H597 H 0.5055 0.07262 0.61731 0.0
H598 H 0.47484 0.06896 0.64496 0.0
H599 H 0.28543 0.09998 0.57377 0.0
H600 H 0.24864 0.08535 0.60108 0.0
H601 H 0.32689 0.06436 0.5536 0.0
H602 H 0.39782 0.07144 0.55007 0.0
C603 C 0.34023 0.29655 0.93366 0.0
C604 C 0.32245 0.30561 0.95583 0.0
C605 C 0.39962 0.41282 0.95001 0.0
C606 C 0.41337 0.40467 0.92714 0.0
N607 N 0.38778 0.34153 0.89555 0.0
N608 N 0.3253 0.37556 0.98262 0.0
C609 C 0.38065 0.34734 0.91844 0.0
C610 C 0.34929 0.36474 0.96331 0.0
N611 N 0.32101 0.2395 0.92752 0.0
N612 N 0.43558 0.46584 0.9593 0.0
H613 H 0.28706 0.34209 0.99237 0.0
H614 H 0.33951 0.41874 0.98758 0.0
H615 H 0.47273 0.50218 0.95008 0.0
H616 H 0.43145 0.47187 0.97665 0.0
H617 H 0.33743 0.23045 0.9125 0.0
H618 H 0.29319 0.20106 0.93845 0.0
H619 H 0.36078 0.3021 0.88781 0.0
H620 H 0.41683 0.37786 0.8839 0.0
C621 C 0.03308 0.326 0.27812 0.0
C622 C 0.06914 0.34625 0.29694 0.0
C623 C 0.08371 0.44747 0.28816 0.0
C624 C 0.05641 0.42952 0.26719 0.0
N625 N 0.0127 0.35144 0.24073 0.0
N626 N 0.13629 0.42922 0.31802 0.0
C627 C 0.03316 0.36871 0.26175 0.0
C628 C 0.09628 0.40782 0.30156 0.0
N629 N 0.99654 0.26566 0.27631 0.0
N630 N 0.09735 0.50237 0.29532 0.0
H631 H 0.14798 0.4021 0.32774 0.0
H632 H 0.16206 0.47483 0.32052 0.0
H633 H 0.08854 0.53231 0.28597 0.0
H634 H 0.11205 0.51567 0.31146 0.0
H635 H 0.96462 0.24855 0.26427 0.0
H636 H 0.99323 0.23271 0.28837 0.0
H637 H 0.00305 0.31002 0.23498 0.0
H638 H 0.0091 0.37948 0.22837 0.0
loop_
_geom_bond_atom_site_label_1
_geom_bond_atom_site_label_2
_geom_bond_distance
_geom_bond_site_symmetry_2
_ccdc_geom_bond_type
Li0 N17 1.988 . S
Li0 O60 1.956 . S
Li0 O61 1.970 . S
Li0 O62 1.961 . S
Li1 N25 1.990 . S
Li1 O60 1.970 . S
Li1 O61 1.956 . S
Li1 O63 1.961 . S
Li2 N47 1.990 1_545 S
Li2 O60 1.961 . S
Li2 O62 1.956 . S
Li2 O63 1.970 . S
Li3 N53 1.990 1_445 S
Li3 O61 1.961 . S
Li3 O62 1.970 . S
Li3 O63 1.956 . S
C4 C6 1.348 . S
C4 C7 1.356 . S
C4 O60 1.325 . S
N5 C8 1.314 . S
N5 C9 1.279 . S
C6 C4 1.348 . S
C6 C8 1.353 . S
C6 H64 0.929 . S
C7 C4 1.356 . S
C7 C9 1.358 . S
C7 H65 0.930 . S
C8 N5 1.314 . S
C8 C6 1.353 . S
C8 H66 0.930 . S
C9 N5 1.279 . S
C9 C7 1.358 . S
C9 H67 0.930 . S
C10 C13 1.348 1_554 S
C10 C14 1.356 . S
C10 O61 1.325 . S
C11 N12 1.279 1_655 S
C11 C14 1.358 1_656 S
C11 H68 0.930 . S
N12 C11 1.279 1_455 S
N12 C15 1.314 . S
C13 C10 1.348 1_556 S
C13 C15 1.353 . S
C13 H69 0.929 . S
C14 C10 1.356 . S
C14 C11 1.358 1_454 S
C14 H70 0.930 1_455 S
C15 N12 1.314 . S
C15 C13 1.353 . S
C15 H71 0.930 . S
C16 N17 1.319 1_556 S
C16 C21 1.353 . S
C16 H22 0.930 . S
N17 Li0 1.988 . S
N17 C16 1.319 1_554 S
N17 C19 1.277 . S
C18 C19 1.358 1_556 S
C18 C20 1.356 . S
C18 H72 0.930 . S
C19 N17 1.277 . S
C19 C18 1.358 1_554 S
C19 H23 0.930 . S
C20 C18 1.356 . S
C20 C21 1.348 . S
C21 C16 1.353 . S
C21 C20 1.348 . S
C21 H73 0.929 . S
H22 C16 0.930 . S
H23 C19 0.930 . S
C24 N25 1.314 . S
C24 C26 1.353 . S
C24 H30 0.930 . S
N25 Li1 1.990 . S
N25 C24 1.314 . S
N25 C28 1.279 . S
C26 C24 1.353 . S
C26 C29 1.348 . S
C26 H74 0.929 1_455 S
C27 C28 1.358 . S
C27 C29 1.356 . S
C27 H75 0.930 . S
C28 N25 1.279 . S
C28 C27 1.358 . S
C28 H31 0.930 . S
C29 C26 1.348 . S
C29 C27 1.356 . S
H30 C24 0.930 . S
H31 C28 0.930 . S
C32 C34 1.348 1_554 S
C32 C35 1.356 . S
C32 O62 1.325 1_565 S
N33 C36 1.314 . S
N33 C37 1.279 . S
C34 C32 1.348 1_556 S
C34 C36 1.353 . S
C34 H76 0.929 . S
C35 C32 1.356 . S
C35 C37 1.358 1_554 S
C35 H77 0.930 1_565 S
C36 N33 1.314 . S
C36 C34 1.353 . S
C36 H78 0.930 . S
C37 N33 1.279 . S
C37 C35 1.358 1_556 S
C37 H79 0.930 . S
C38 C39 1.348 . S
C38 C40 1.356 . S
C38 O63 1.325 1_665 S
C39 C38 1.348 . S
C39 C41 1.353 . S
C39 H80 0.929 . S
C40 C38 1.356 . S
C40 C42 1.358 . S
C40 H81 0.930 1_565 S
C41 C39 1.353 . S
C41 N43 1.314 . S
C41 H82 0.930 . S
C42 C40 1.358 . S
C42 N43 1.279 . S
C42 H83 0.930 . S
N43 C41 1.314 . S
N43 C42 1.279 . S
C44 C46 1.353 . S
C44 N47 1.314 . S
C44 H50 0.926 1_565 S
C45 N47 1.279 . S
C45 C48 1.358 . S
C45 H51 0.930 . S
C46 C44 1.353 . S
C46 C49 1.348 . S
C46 H84 0.929 . S
N47 Li2 1.990 1_565 S
N47 C44 1.314 . S
N47 C45 1.279 . S
C48 C45 1.358 . S
C48 C49 1.356 . S
C48 H85 0.930 . S
C49 C46 1.348 . S
C49 C48 1.356 . S
H50 C44 0.926 1_545 S
H51 C45 0.930 . S
C52 N53 1.314 1_556 S
C52 C54 1.353 . S
C52 H58 0.930 1_565 S
N53 Li3 1.990 1_665 S
N53 C52 1.314 1_554 S
N53 C56 1.279 . S
C54 C52 1.353 . S
C54 C57 1.348 . S
C54 H86 0.929 . S
C55 C56 1.358 1_556 S
C55 C57 1.356 . S
C55 H87 0.930 1_556 S
C56 N53 1.279 . S
C56 C55 1.358 1_554 S
C56 H59 0.930 . S
C57 C54 1.348 . S
C57 C55 1.356 . S
H58 C52 0.930 1_545 S
H59 C56 0.930 . S
O60 Li0 1.956 . S
O60 Li1 1.970 . S
O60 Li2 1.961 . S
O60 C4 1.325 . S
O61 Li0 1.970 . S
O61 Li1 1.956 . S
O61 Li3 1.961 . S
O61 C10 1.325 . S
O62 Li0 1.961 . S
O62 Li2 1.956 . S
O62 Li3 1.970 . S
O62 C32 1.325 1_545 S
O63 Li1 1.961 . S
O63 Li2 1.970 . S
O63 Li3 1.956 . S
O63 C38 1.325 1_445 S
H64 C6 0.929 . S
H65 C7 0.930 . S
H66 C8 0.930 . S
H67 C9 0.930 . S
H68 C11 0.930 . S
H69 C13 0.929 . S
H70 C14 0.930 1_655 S
H71 C15 0.930 . S
H72 C18 0.930 . S
H73 C21 0.929 . S
H74 C26 0.929 1_655 S
H75 C27 0.930 . S
H76 C34 0.929 . S
H77 C35 0.930 1_545 S
H78 C36 0.930 . S
H79 C37 0.930 . S
H80 C39 0.929 . S
H81 C40 0.930 1_545 S
H82 C41 0.930 . S
H83 C42 0.930 . S
H84 C46 0.929 . S
H85 C48 0.930 . S
H86 C54 0.929 . S
H87 C55 0.930 1_554 S
Li88 N105 1.990 1_545 S
Li88 O148 1.956 . S
Li88 O149 1.970 . S
Li88 O150 1.961 1_455 S
Li89 N113 1.990 . S
Li89 O148 1.970 . S
Li89 O149 1.956 . S
Li89 O151 1.961 . S
Li90 N135 1.990 . S
Li90 O148 1.961 1_655 S
Li90 O150 1.956 . S
Li90 O151 1.970 1_655 S
Li91 N141 1.990 . S
Li91 O149 1.961 . S
Li91 O150 1.970 1_455 S
Li91 O151 1.956 . S
C92 C94 1.348 . S
C92 C95 1.356 1_455 S
C92 O148 1.325 1_565 S
N93 C96 1.314 1_655 S
N93 C97 1.279 . S
C94 C92 1.348 . S
C94 C96 1.353 . S
C94 H152 0.929 . S
C95 C92 1.356 1_655 S
C95 C97 1.358 . S
C95 H153 0.930 . S
C96 N93 1.314 1_455 S
C96 C94 1.353 . S
C96 H154 0.930 . S
C97 N93 1.279 . S
C97 C95 1.358 . S
C97 H155 0.930 . S
C98 C101 1.348 . S
C98 C102 1.356 . S
C98 O149 1.325 . S
C99 N100 1.279 . S
C99 C102 1.358 . S
C99 H156 0.930 . S
N100 C99 1.279 . S
N100 C103 1.314 . S
C101 C98 1.348 . S
C101 C103 1.353 . S
C101 H157 0.929 . S
C102 C98 1.356 . S
C102 C99 1.358 . S
C102 H158 0.930 . S
C103 N100 1.314 . S
C103 C101 1.353 . S
C103 H159 0.930 . S
C104 N105 1.314 1_655 S
C104 C109 1.353 . S
C104 H110 0.930 . S
N105 Li88 1.990 1_565 S
N105 C104 1.314 1_455 S
N105 C107 1.279 . S
C106 C107 1.358 1_655 S
C106 C108 1.356 . S
C106 H160 0.930 . S
C107 N105 1.279 . S
C107 C106 1.358 1_455 S
C107 H111 0.930 . S
C108 C106 1.356 . S
C108 C109 1.348 . S
C109 C104 1.353 . S
C109 C108 1.348 . S
C109 H161 0.929 . S
H110 C104 0.930 . S
H111 C107 0.930 . S
C112 N113 1.314 . S
C112 C114 1.353 . S
C112 H118 0.930 . S
N113 Li89 1.990 . S
N113 C112 1.314 . S
N113 C116 1.279 . S
C114 C112 1.353 . S
C114 C117 1.348 . S
C114 H162 0.929 . S
C115 C116 1.358 . S
C115 C117 1.356 . S
C115 H163 0.930 . S
C116 N113 1.279 . S
C116 C115 1.358 . S
C116 H119 0.930 . S
C117 C114 1.348 . S
C117 C115 1.356 . S
H118 C112 0.930 . S
H119 C116 0.930 . S
C120 C122 1.348 . S
C120 C123 1.356 1_545 S
C120 O150 1.325 . S
N121 C124 1.314 . S
N121 C125 1.279 1_545 S
C122 C120 1.348 . S
C122 C124 1.353 . S
C122 H164 0.929 . S
C123 C120 1.356 1_565 S
C123 C125 1.358 . S
C123 H165 0.930 . S
C124 N121 1.314 . S
C124 C122 1.353 . S
C124 H166 0.930 . S
C125 N121 1.279 1_565 S
C125 C123 1.358 . S
C125 H167 0.930 . S
C126 C127 1.348 . S
C126 C128 1.356 . S
C126 O151 1.325 . S
C127 C126 1.348 . S
C127 C129 1.353 . S
C127 H168 0.929 1_455 S
C128 C126 1.356 . S
C128 C130 1.358 . S
C128 H169 0.930 . S
C129 C127 1.353 . S
C129 N131 1.314 . S
C129 H170 0.930 . S
C130 C128 1.358 . S
C130 N131 1.279 . S
C130 H171 0.930 . S
N131 C129 1.314 . S
N131 C130 1.279 . S
C132 C134 1.353 . S
C132 N135 1.314 . S
C132 H138 0.930 . S
C133 N135 1.279 . S
C133 C136 1.358 . S
C133 H139 0.930 . S
C134 C132 1.353 . S
C134 C137 1.348 . S
C134 H172 0.929 . S
N135 Li90 1.990 . S
N135 C132 1.314 . S
N135 C133 1.279 . S
C136 C133 1.358 . S
C136 C137 1.356 . S
C136 H173 0.930 . S
C137 C134 1.348 . S
C137 C136 1.356 . S
H138 C132 0.930 . S
H139 C133 0.930 . S
C140 N141 1.314 . S
C140 C142 1.353 . S
C140 H146 0.930 . S
N141 Li91 1.990 . S
N141 C140 1.314 . S
N141 C144 1.279 . S
C142 C140 1.353 . S
C142 C145 1.348 . S
C142 H174 0.929 . S
C143 C144 1.358 . S
C143 C145 1.356 . S
C143 H175 0.930 . S
C144 N141 1.279 . S
C144 C143 1.358 . S
C144 H147 0.930 . S
C145 C142 1.348 . S
C145 C143 1.356 . S
H146 C140 0.930 . S
H147 C144 0.930 . S
O148 Li88 1.956 . S
O148 Li89 1.970 . S
O148 Li90 1.961 1_455 S
O148 C92 1.325 1_545 S
O149 Li88 1.970 . S
O149 Li89 1.956 . S
O149 Li91 1.961 . S
O149 C98 1.325 . S
O150 Li88 1.961 1_655 S
O150 Li90 1.956 . S
O150 Li91 1.970 1_655 S
O150 C120 1.325 . S
O151 Li89 1.961 . S
O151 Li90 1.970 1_455 S
O151 Li91 1.956 . S
O151 C126 1.325 . S
H152 C94 0.929 . S
H153 C95 0.930 . S
H154 C96 0.930 . S
H155 C97 0.930 . S
H156 C99 0.930 . S
H157 C101 0.929 . S
H158 C102 0.930 . S
H159 C103 0.930 . S
H160 C106 0.930 . S
H161 C109 0.929 . S
H162 C114 0.929 . S
H163 C115 0.930 . S
H164 C122 0.929 . S
H165 C123 0.930 . S
H166 C124 0.930 . S
H167 C125 0.930 . S
H168 C127 0.929 1_655 S
H169 C128 0.930 . S
H170 C129 0.930 . S
H171 C130 0.930 . S
H172 C134 0.929 . S
H173 C136 0.930 . S
H174 C142 0.929 . S
H175 C143 0.930 . S
Li176 N193 1.990 . S
Li176 O236 1.956 . S
Li176 O237 1.970 . S
Li176 O238 1.961 1_545 S
Li177 N201 1.990 . S
Li177 O236 1.970 . S
Li177 O237 1.956 . S
Li177 O239 1.961 . S
Li178 N223 1.990 1_455 S
Li178 O236 1.961 1_565 S
Li178 O238 1.956 . S
Li178 O239 1.970 1_565 S
Li179 N229 1.990 1_455 S
Li179 O237 1.961 . S
Li179 O238 1.970 1_545 S
Li179 O239 1.956 . S
C180 C182 1.348 . S
C180 C183 1.356 1_545 S
C180 O236 1.325 . S
N181 C184 1.314 1_565 S
N181 C185 1.279 . S
C182 C180 1.348 . S
C182 C184 1.353 . S
C182 H240 0.929 . S
C183 C180 1.356 1_565 S
C183 C185 1.358 . S
C183 H241 0.930 . S
C184 N181 1.314 1_545 S
C184 C182 1.353 . S
C184 H242 0.930 . S
C185 N181 1.279 . S
C185 C183 1.358 . S
C185 H243 0.930 . S
C186 C189 1.348 . S
C186 C190 1.356 . S
C186 O237 1.325 . S
C187 N188 1.279 . S
C187 C190 1.358 . S
C187 H244 0.930 . S
N188 C187 1.279 . S
N188 C191 1.314 . S
C189 C186 1.348 . S
C189 C191 1.353 . S
C189 H245 0.929 . S
C190 C186 1.356 . S
C190 C187 1.358 . S
C190 H246 0.930 . S
C191 N188 1.314 . S
C191 C189 1.353 . S
C191 H247 0.930 . S
C192 N193 1.314 . S
C192 C197 1.353 1_545 S
C192 H198 0.930 . S
N193 Li176 1.990 . S
N193 C192 1.314 . S
N193 C195 1.279 . S
C194 C195 1.358 . S
C194 C196 1.356 1_545 S
C194 H248 0.936 . S
C195 N193 1.279 . S
C195 C194 1.358 . S
C195 H199 0.930 . S
C196 C194 1.356 1_565 S
C196 C197 1.348 . S
C197 C192 1.353 1_565 S
C197 C196 1.348 . S
C197 H249 0.929 . S
H198 C192 0.930 . S
H199 C195 0.930 . S
C200 N201 1.314 . S
C200 C202 1.353 . S
C200 H206 0.930 . S
N201 Li177 1.990 . S
N201 C200 1.314 . S
N201 C204 1.279 . S
C202 C200 1.353 . S
C202 C205 1.348 . S
C202 H250 0.929 . S
C203 C204 1.358 . S
C203 C205 1.356 . S
C203 H251 0.930 . S
C204 N201 1.279 . S
C204 C203 1.358 . S
C204 H207 0.930 . S
C205 C202 1.348 . S
C205 C203 1.356 . S
H206 C200 0.930 . S
H207 C204 0.930 . S
C208 C210 1.348 . S
C208 C211 1.356 1_655 S
C208 O238 1.325 1_655 S
N209 C212 1.314 . S
N209 C213 1.279 . S
C210 C208 1.348 . S
C210 C212 1.353 . S
C210 H252 0.929 . S
C211 C208 1.356 1_455 S
C211 C213 1.358 1_455 S
C211 H253 0.930 . S
C212 N209 1.314 . S
C212 C210 1.353 . S
C212 H254 0.930 . S
C213 N209 1.279 . S
C213 C211 1.358 1_655 S
C213 H255 0.930 . S
C214 C215 1.348 . S
C214 C216 1.356 . S
C214 O239 1.325 1_655 S
C215 C214 1.348 . S
C215 C217 1.353 . S
C215 H256 0.929 1_545 S
C216 C214 1.356 . S
C216 C218 1.358 . S
C216 H257 0.930 1_655 S
C217 C215 1.353 . S
C217 N219 1.314 . S
C217 H258 0.930 . S
C218 C216 1.358 . S
C218 N219 1.279 . S
C218 H259 0.930 . S
N219 C217 1.314 . S
N219 C218 1.279 . S
C220 C222 1.353 . S
C220 N223 1.314 . S
C220 H226 0.930 1_655 S
C221 N223 1.279 . S
C221 C224 1.358 . S
C221 H227 0.930 . S
C222 C220 1.353 . S
C222 C225 1.348 . S
C222 H260 0.929 . S
N223 Li178 1.990 1_655 S
N223 C220 1.314 . S
N223 C221 1.279 . S
C224 C221 1.358 . S
C224 C225 1.356 . S
C224 H261 0.930 . S
C225 C222 1.348 . S
C225 C224 1.356 . S
H226 C220 0.930 1_455 S
H227 C221 0.930 . S
C228 N229 1.314 . S
C228 C230 1.353 . S
C228 H234 0.930 1_655 S
N229 Li179 1.990 1_655 S
N229 C228 1.314 . S
N229 C232 1.279 . S
C230 C228 1.353 . S
C230 C233 1.348 . S
C230 H262 0.929 . S
C231 C232 1.358 . S
C231 C233 1.356 . S
C231 H263 0.930 . S
C232 N229 1.279 . S
C232 C231 1.358 . S
C232 H235 0.930 . S
C233 C230 1.348 . S
C233 C231 1.356 . S
H234 C228 0.930 1_455 S
H235 C232 0.930 . S
O236 Li176 1.956 . S
O236 Li177 1.970 . S
O236 Li178 1.961 1_545 S
O236 C180 1.325 . S
O237 Li176 1.970 . S
O237 Li177 1.956 . S
O237 Li179 1.961 . S
O237 C186 1.325 . S
O238 Li176 1.961 1_565 S
O238 Li178 1.956 . S
O238 Li179 1.970 1_565 S
O238 C208 1.325 1_455 S
O239 Li177 1.961 . S
O239 Li178 1.970 1_545 S
O239 Li179 1.956 . S
O239 C214 1.325 1_455 S
H240 C182 0.929 . S
H241 C183 0.930 . S
H242 C184 0.930 . S
H243 C185 0.930 . S
H244 C187 0.930 . S
H245 C189 0.929 . S
H246 C190 0.930 . S
H247 C191 0.930 . S
H248 C194 0.936 . S
H249 C197 0.929 . S
H250 C202 0.929 . S
H251 C203 0.930 . S
H252 C210 0.929 . S
H253 C211 0.930 . S
H254 C212 0.930 . S
H255 C213 0.930 . S
H256 C215 0.929 1_565 S
H257 C216 0.930 1_455 S
H258 C217 0.930 . S
H259 C218 0.930 . S
H260 C222 0.929 . S
H261 C224 0.930 . S
H262 C230 0.929 . S
H263 C231 0.930 . S
C264 C265 1.443 . S
C264 N268 1.376 . S
C264 C302 1.389 . S
C265 C264 1.443 . S
C265 C266 1.340 . S
C265 H305 0.951 . S
C266 C265 1.340 . S
C266 C267 1.439 . S
C266 H306 0.950 . S
C267 C266 1.439 . S
C267 N268 1.374 . S
C267 C301 1.395 . S
N268 C264 1.376 . S
N268 C267 1.374 . S
N268 Co269 2.008 . S
Co269 N268 2.008 . S
Co269 N270 1.995 . S
Co269 N275 2.008 1_455 S
Co269 N280 1.995 1_455 S
Co269 N285 2.282 . S
Co269 N291 2.282 . S
N270 Co269 1.995 . S
N270 C271 1.376 . S
N270 C274 1.383 . S
C271 N270 1.376 . S
C271 C272 1.446 . S
C271 C301 1.391 . S
C272 C271 1.446 . S
C272 C273 1.339 . S
C272 H307 0.949 . S
C273 C272 1.339 . S
C273 C274 1.439 . S
C273 H308 0.950 . S
C274 N270 1.383 . S
C274 C273 1.439 . S
C274 C303 1.392 . S
N275 Co269 2.008 1_655 S
N275 C276 1.376 . S
N275 C279 1.374 . S
C276 N275 1.376 . S
C276 C277 1.443 . S
C276 C303 1.389 1_655 S
C277 C276 1.443 . S
C277 C278 1.340 . S
C277 H309 0.951 . S
C278 C277 1.340 . S
C278 C279 1.439 . S
C278 H310 0.950 . S
C279 N275 1.374 . S
C279 C278 1.439 . S
C279 C304 1.395 . S
N280 Co269 1.995 1_655 S
N280 C281 1.376 . S
N280 C284 1.383 . S
C281 N280 1.376 . S
C281 C282 1.446 . S
C281 C304 1.391 . S
C282 C281 1.446 . S
C282 C283 1.339 . S
C282 H311 0.949 . S
C283 C282 1.339 . S
C283 C284 1.439 . S
C283 H312 0.950 . S
C284 N280 1.383 . S
C284 C283 1.439 . S
C284 C302 1.392 1_655 S
N285 Co269 2.282 . S
N285 C288 1.332 1_455 S
N285 C290 1.332 . S
C286 C287 1.386 1_455 S
C286 C289 1.388 . S
C287 C286 1.386 1_655 S
C287 C288 1.382 . S
C287 H313 0.950 . S
C288 N285 1.332 1_655 S
C288 C287 1.382 . S
C288 H299 0.952 . S
C289 C286 1.388 . S
C289 C290 1.382 . S
C289 H314 0.950 . S
C290 N285 1.332 . S
C290 C289 1.382 . S
C290 H300 0.948 . S
N291 Co269 2.282 . S
N291 C295 1.332 . S
N291 C296 1.332 1_455 S
C292 C293 1.388 1_655 S
C292 C296 1.382 . S
C292 H315 0.950 . S
C293 C292 1.388 1_455 S
C293 C294 1.386 . S
C294 C293 1.386 . S
C294 C295 1.382 . S
C294 H316 0.950 . S
C295 N291 1.332 . S
C295 C294 1.382 . S
C295 H297 0.952 . S
C296 N291 1.332 1_655 S
C296 C292 1.382 . S
C296 H298 0.948 . S
H297 C295 0.952 . S
H298 C296 0.948 . S
H299 C288 0.952 . S
H300 C290 0.948 . S
C301 C267 1.395 . S
C301 C271 1.391 . S
C302 C264 1.389 . S
C302 C284 1.392 1_455 S
C303 C274 1.392 . S
C303 C276 1.389 1_455 S
C304 C279 1.395 . S
C304 C281 1.391 . S
H305 C265 0.951 . S
H306 C266 0.950 . S
H307 C272 0.949 . S
H308 C273 0.950 . S
H309 C277 0.951 . S
H310 C278 0.950 . S
H311 C282 0.949 . S
H312 C283 0.950 . S
H313 C287 0.950 . S
H314 C289 0.950 . S
H315 C292 0.950 . S
H316 C294 0.950 . S
C317 C318 1.443 1_545 S
C317 N321 1.376 . S
C317 C355 1.389 . S
C318 C317 1.443 1_565 S
C318 C319 1.340 . S
C318 H358 0.951 . S
C319 C318 1.340 . S
C319 C320 1.439 . S
C319 H359 0.950 . S
C320 C319 1.439 . S
C320 N321 1.374 1_565 S
C320 C354 1.395 . S
N321 C317 1.376 . S
N321 C320 1.374 1_545 S
N321 Co322 2.008 . S
Co322 N321 2.008 . S
Co322 N323 1.995 . S
Co322 N328 2.008 . S
Co322 N333 1.995 . S
Co322 N338 2.282 . S
Co322 N344 2.282 . S
N323 Co322 1.995 . S
N323 C324 1.376 1_545 S
N323 C327 1.383 . S
C324 N323 1.376 1_565 S
C324 C325 1.446 . S
C324 C354 1.391 . S
C325 C324 1.446 . S
C325 C326 1.339 . S
C325 H360 0.949 . S
C326 C325 1.339 . S
C326 C327 1.439 1_565 S
C326 H361 0.950 . S
C327 N323 1.383 . S
C327 C326 1.439 1_545 S
C327 C356 1.392 . S
N328 Co322 2.008 . S
N328 C329 1.376 . S
N328 C332 1.374 . S
C329 N328 1.376 . S
C329 C330 1.443 . S
C329 C356 1.389 . S
C330 C329 1.443 . S
C330 C331 1.340 . S
C330 H362 0.951 . S
C331 C330 1.340 . S
C331 C332 1.439 . S
C331 H363 0.950 . S
C332 N328 1.374 . S
C332 C331 1.439 . S
C332 C357 1.395 . S
N333 Co322 1.995 . S
N333 C334 1.376 . S
N333 C337 1.383 . S
C334 N333 1.376 . S
C334 C335 1.446 . S
C334 C357 1.391 . S
C335 C334 1.446 . S
C335 C336 1.339 . S
C335 H364 0.949 . S
C336 C335 1.339 . S
C336 C337 1.439 . S
C336 H365 0.950 . S
C337 N333 1.383 . S
C337 C336 1.439 . S
C337 C355 1.392 . S
N338 Co322 2.282 . S
N338 C341 1.332 . S
N338 C343 1.332 . S
C339 C340 1.386 . S
C339 C342 1.388 . S
C340 C339 1.386 . S
C340 C341 1.382 . S
C340 H366 0.950 . S
C341 N338 1.332 . S
C341 C340 1.382 . S
C341 H352 0.952 . S
C342 C339 1.388 . S
C342 C343 1.382 . S
C342 H367 0.964 . S
C343 N338 1.332 . S
C343 C342 1.382 . S
C343 H353 0.948 . S
N344 Co322 2.282 . S
N344 C348 1.332 . S
N344 C349 1.332 . S
C345 C346 1.388 . S
C345 C349 1.382 . S
C345 H368 0.950 . S
C346 C345 1.388 . S
C346 C347 1.386 . S
C347 C346 1.386 . S
C347 C348 1.382 . S
C347 H369 0.950 . S
C348 N344 1.332 . S
C348 C347 1.382 . S
C348 H350 0.952 . S
C349 N344 1.332 . S
C349 C345 1.382 . S
C349 H351 0.948 . S
H350 C348 0.952 . S
H351 C349 0.948 . S
H352 C341 0.952 . S
H353 C343 0.948 . S
C354 C320 1.395 . S
C354 C324 1.391 . S
C355 C317 1.389 . S
C355 C337 1.392 . S
C356 C327 1.392 . S
C356 C329 1.389 . S
C357 C332 1.395 . S
C357 C334 1.391 . S
H358 C318 0.951 . S
H359 C319 0.950 . S
H360 C325 0.949 . S
H361 C326 0.950 . S
H362 C330 0.951 . S
H363 C331 0.950 . S
H364 C335 0.949 . S
H365 C336 0.950 . S
H366 C340 0.950 . S
H367 C342 0.964 . S
H368 C345 0.950 . S
H369 C347 0.950 . S
C370 C371 1.443 . S
C370 N374 1.376 . S
C370 C408 1.389 . S
C371 C370 1.443 . S
C371 C372 1.340 . S
C371 H411 0.951 . S
C372 C371 1.340 . S
C372 C373 1.439 . S
C372 H412 0.950 . S
C373 C372 1.439 . S
C373 N374 1.374 . S
C373 C407 1.395 . S
N374 C370 1.376 . S
N374 C373 1.374 . S
N374 Co375 2.008 . S
Co375 N374 2.008 . S
Co375 N376 1.995 . S
Co375 N381 2.008 . S
Co375 N386 1.995 . S
Co375 N391 2.282 . S
Co375 N397 2.282 . S
N376 Co375 1.995 . S
N376 C377 1.376 . S
N376 C380 1.383 . S
C377 N376 1.376 . S
C377 C378 1.446 . S
C377 C407 1.391 . S
C378 C377 1.446 . S
C378 C379 1.339 . S
C378 H413 0.949 . S
C379 C378 1.339 . S
C379 C380 1.439 . S
C379 H414 0.950 . S
C380 N376 1.383 . S
C380 C379 1.439 . S
C380 C409 1.392 . S
N381 Co375 2.008 . S
N381 C382 1.376 . S
N381 C385 1.374 . S
C382 N381 1.376 . S
C382 C383 1.443 . S
C382 C409 1.389 . S
C383 C382 1.443 . S
C383 C384 1.340 . S
C383 H415 0.951 . S
C384 C383 1.340 . S
C384 C385 1.439 . S
C384 H416 0.950 . S
C385 N381 1.374 . S
C385 C384 1.439 . S
C385 C410 1.395 . S
N386 Co375 1.995 . S
N386 C387 1.376 . S
N386 C390 1.383 . S
C387 N386 1.376 . S
C387 C388 1.446 . S
C387 C410 1.391 . S
C388 C387 1.446 . S
C388 C389 1.339 . S
C388 H417 0.949 . S
C389 C388 1.339 . S
C389 C390 1.439 . S
C389 H418 0.950 . S
C390 N386 1.383 . S
C390 C389 1.439 . S
C390 C408 1.392 . S
N391 Co375 2.282 . S
N391 C394 1.332 . S
N391 C396 1.332 . S
C392 C393 1.386 . S
C392 C395 1.388 . S
C393 C392 1.386 . S
C393 C394 1.382 . S
C393 H419 0.950 . S
C394 N391 1.332 . S
C394 C393 1.382 . S
C394 H405 0.952 . S
C395 C392 1.388 . S
C395 C396 1.382 . S
C395 H420 0.950 . S
C396 N391 1.332 . S
C396 C395 1.382 . S
C396 H406 0.948 . S
N397 Co375 2.282 . S
N397 C401 1.332 . S
N397 C402 1.332 . S
C398 C399 1.388 . S
C398 C402 1.382 . S
C398 H421 0.950 . S
C399 C398 1.388 . S
C399 C400 1.386 . S
C400 C399 1.386 . S
C400 C401 1.382 . S
C400 H422 0.950 . S
C401 N397 1.332 . S
C401 C400 1.382 . S
C401 H403 0.952 . S
C402 N397 1.332 . S
C402 C398 1.382 . S
C402 H404 0.948 . S
H403 C401 0.952 . S
H404 C402 0.948 . S
H405 C394 0.952 . S
H406 C396 0.948 . S
C407 C373 1.395 . S
C407 C377 1.391 . S
C408 C370 1.389 . S
C408 C390 1.392 . S
C409 C380 1.392 . S
C409 C382 1.389 . S
C410 C385 1.395 . S
C410 C387 1.391 . S
H411 C371 0.951 . S
H412 C372 0.950 . S
H413 C378 0.949 . S
H414 C379 0.950 . S
H415 C383 0.951 . S
H416 C384 0.950 . S
H417 C388 0.949 . S
H418 C389 0.950 . S
H419 C393 0.950 . S
H420 C395 0.950 . S
H421 C398 0.950 . S
H422 C400 0.950 . S
C423 C424 1.363 . S
C423 C429 1.379 . S
C423 N431 1.356 . S
C424 C423 1.363 . S
C424 C430 1.363 1_455 S
C425 C426 1.363 1_655 S
C425 C430 1.379 . S
C425 N432 1.356 . S
C426 C425 1.363 1_455 S
C426 C429 1.363 . S
N427 C429 1.356 . S
N427 H439 0.984 . S
N427 H440 0.985 . S
N428 C430 1.356 . S
N428 H433 0.984 . S
N428 H434 0.985 . S
C429 C423 1.379 . S
C429 C426 1.363 . S
C429 N427 1.356 . S
C430 C424 1.363 1_655 S
C430 C425 1.379 . S
C430 N428 1.356 . S
N431 C423 1.356 . S
N431 H437 0.984 . S
N431 H438 0.984 . S
N432 C425 1.356 . S
N432 H435 0.984 . S
N432 H436 0.985 . S
H433 N428 0.984 . S
H434 N428 0.985 . S
H435 N432 0.984 . S
H436 N432 0.985 . S
H437 N431 0.984 . S
H438 N431 0.984 . S
H439 N427 0.984 . S
H440 N427 0.985 . S
C441 C442 1.363 . S
C441 C447 1.379 . S
C441 N449 1.356 . S
C442 C441 1.363 . S
C442 C448 1.363 . S
C443 C444 1.363 . S
C443 C448 1.379 . S
C443 N450 1.356 . S
C444 C443 1.363 . S
C444 C447 1.363 . S
N445 C447 1.356 . S
N445 H457 0.984 . S
N445 H458 0.985 . S
N446 C448 1.356 1_565 S
N446 H451 0.984 . S
N446 H452 0.985 . S
C447 C441 1.379 . S
C447 C444 1.363 . S
C447 N445 1.356 . S
C448 C442 1.363 . S
C448 C443 1.379 . S
C448 N446 1.356 1_545 S
N449 C441 1.356 . S
N449 H455 0.984 . S
N449 H456 0.984 . S
N450 C443 1.356 . S
N450 H453 0.984 . S
N450 H454 0.985 1_545 S
H451 N446 0.984 . S
H452 N446 0.985 . S
H453 N450 0.984 . S
H454 N450 0.985 1_565 S
H455 N449 0.984 . S
H456 N449 0.984 . S
H457 N445 0.984 . S
H458 N445 0.985 . S
C459 C460 1.363 . S
C459 C465 1.379 . S
C459 N467 1.356 . S
C460 C459 1.363 . S
C460 C466 1.363 . S
C461 C462 1.363 . S
C461 C466 1.379 . S
C461 N468 1.356 . S
C462 C461 1.363 . S
C462 C465 1.363 . S
N463 C465 1.356 . S
N463 H475 0.984 . S
N463 H476 0.985 . S
N464 C466 1.356 . S
N464 H469 0.984 . S
N464 H470 0.985 . S
C465 C459 1.379 . S
C465 C462 1.363 . S
C465 N463 1.356 . S
C466 C460 1.363 . S
C466 C461 1.379 . S
C466 N464 1.356 . S
N467 C459 1.356 . S
N467 H473 0.984 . S
N467 H474 0.984 . S
N468 C461 1.356 . S
N468 H471 0.984 . S
N468 H472 0.985 . S
H469 N464 0.984 . S
H470 N464 0.985 . S
H471 N468 0.984 . S
H472 N468 0.985 . S
H473 N467 0.984 . S
H474 N467 0.984 . S
H475 N463 0.984 . S
H476 N463 0.985 . S
C477 C478 1.363 . S
C477 C483 1.379 . S
C477 N485 1.356 . S
C478 C477 1.363 . S
C478 C484 1.363 . S
C479 C480 1.363 . S
C479 C484 1.379 . S
C479 N486 1.356 1_455 S
C480 C479 1.363 . S
C480 C483 1.363 . S
N481 C483 1.356 . S
N481 H493 0.984 . S
N481 H494 0.985 . S
N482 C484 1.356 . S
N482 H487 0.984 . S
N482 H488 0.985 . S
C483 C477 1.379 . S
C483 C480 1.363 . S
C483 N481 1.356 . S
C484 C478 1.363 . S
C484 C479 1.379 . S
C484 N482 1.356 . S
N485 C477 1.356 . S
N485 H491 0.984 . S
N485 H492 0.984 . S
N486 C479 1.356 1_655 S
N486 H489 0.984 . S
N486 H490 0.985 . S
H487 N482 0.984 . S
H488 N482 0.985 . S
H489 N486 0.984 . S
H490 N486 0.985 . S
H491 N485 0.984 . S
H492 N485 0.984 . S
H493 N481 0.984 . S
H494 N481 0.985 . S
C495 C496 1.363 . S
C495 C501 1.379 . S
C495 N503 1.356 . S
C496 C495 1.363 . S
C496 C502 1.363 . S
C497 C498 1.363 . S
C497 C502 1.379 . S
C497 N504 1.356 . S
C498 C497 1.363 . S
C498 C501 1.363 . S
N499 C501 1.356 . S
N499 H511 0.984 . S
N499 H512 0.985 . S
N500 C502 1.356 . S
N500 H505 0.984 . S
N500 H506 0.985 . S
C501 C495 1.379 . S
C501 C498 1.363 . S
C501 N499 1.356 . S
C502 C496 1.363 . S
C502 C497 1.379 . S
C502 N500 1.356 . S
N503 C495 1.356 . S
N503 H509 0.984 . S
N503 H510 0.984 . S
N504 C497 1.356 . S
N504 H507 0.984 . S
N504 H508 0.985 . S
H505 N500 0.984 . S
H506 N500 0.985 . S
H507 N504 0.984 . S
H508 N504 0.985 . S
H509 N503 0.984 . S
H510 N503 0.984 . S
H511 N499 0.984 . S
H512 N499 0.985 . S
C513 C514 1.363 . S
C513 C519 1.379 . S
C513 N521 1.356 . S
C514 C513 1.363 . S
C514 C520 1.363 . S
C515 C516 1.363 . S
C515 C520 1.379 . S
C515 N522 1.356 . S
C516 C515 1.363 . S
C516 C519 1.363 . S
N517 C519 1.356 . S
N517 H529 0.984 . S
N517 H530 0.985 . S
N518 C520 1.356 . S
N518 H523 0.984 . S
N518 H524 0.985 . S
C519 C513 1.379 . S
C519 C516 1.363 . S
C519 N517 1.356 . S
C520 C514 1.363 . S
C520 C515 1.379 . S
C520 N518 1.356 . S
N521 C513 1.356 . S
N521 H527 0.984 . S
N521 H528 0.984 . S
N522 C515 1.356 . S
N522 H525 0.984 . S
N522 H526 0.985 . S
H523 N518 0.984 . S
H524 N518 0.985 . S
H525 N522 0.984 . S
H526 N522 0.985 . S
H527 N521 0.984 . S
H528 N521 0.984 . S
H529 N517 0.984 . S
H530 N517 0.985 . S
C531 C532 1.363 . S
C531 C537 1.379 . S
C531 N539 1.356 . S
C532 C531 1.363 . S
C532 C538 1.363 . S
C533 C534 1.363 . S
C533 C538 1.379 . S
C533 N540 1.356 . S
C534 C533 1.363 . S
C534 C537 1.363 . S
N535 C537 1.356 . S
N535 H547 0.984 1_545 S
N535 H548 0.985 . S
N536 C538 1.356 . S
N536 H541 0.984 . S
N536 H542 0.985 . S
C537 C531 1.379 . S
C537 C534 1.363 . S
C537 N535 1.356 . S
C538 C532 1.363 . S
C538 C533 1.379 . S
C538 N536 1.356 . S
N539 C531 1.356 . S
N539 H545 0.984 1_545 S
N539 H546 0.984 . S
N540 C533 1.356 . S
N540 H543 0.984 . S
N540 H544 0.985 . S
H541 N536 0.984 . S
H542 N536 0.985 . S
H543 N540 0.984 . S
H544 N540 0.985 . S
H545 N539 0.984 1_565 S
H546 N539 0.984 . S
H547 N535 0.984 1_565 S
H548 N535 0.985 . S
C549 C550 1.363 . S
C549 C555 1.379 . S
C549 N557 1.356 . S
C550 C549 1.363 . S
C550 C556 1.363 . S
C551 C552 1.363 . S
C551 C556 1.379 . S
C551 N558 1.356 . S
C552 C551 1.363 . S
C552 C555 1.363 . S
N553 C555 1.356 . S
N553 H565 0.984 . S
N553 H566 0.985 . S
N554 C556 1.356 . S
N554 H559 0.984 . S
N554 H560 0.985 . S
C555 C549 1.379 . S
C555 C552 1.363 . S
C555 N553 1.356 . S
C556 C550 1.363 . S
C556 C551 1.379 . S
C556 N554 1.356 . S
N557 C549 1.356 . S
N557 H563 0.984 . S
N557 H564 0.984 . S
N558 C551 1.356 . S
N558 H561 0.984 . S
N558 H562 0.985 . S
H559 N554 0.984 . S
H560 N554 0.985 . S
H561 N558 0.984 . S
H562 N558 0.985 . S
H563 N557 0.984 . S
H564 N557 0.984 . S
H565 N553 0.984 . S
H566 N553 0.985 . S
C567 C568 1.363 1_455 S
C567 C573 1.379 . S
C567 N575 1.356 . S
C568 C567 1.363 1_655 S
C568 C574 1.363 . S
C569 C570 1.363 1_655 S
C569 C574 1.379 . S
C569 N576 1.356 . S
C570 C569 1.363 1_455 S
C570 C573 1.363 . S
N571 C573 1.356 . S
N571 H583 0.984 . S
N571 H584 0.985 . S
N572 C574 1.356 . S
N572 H577 0.984 . S
N572 H578 0.985 . S
C573 C567 1.379 . S
C573 C570 1.363 . S
C573 N571 1.356 . S
C574 C568 1.363 . S
C574 C569 1.379 . S
C574 N572 1.356 . S
N575 C567 1.356 . S
N575 H581 0.984 . S
N575 H582 0.984 . S
N576 C569 1.356 . S
N576 H579 0.984 . S
N576 H580 0.985 . S
H577 N572 0.984 . S
H578 N572 0.985 . S
H579 N576 0.984 . S
H580 N576 0.985 . S
H581 N575 0.984 . S
H582 N575 0.984 . S
H583 N571 0.984 . S
H584 N571 0.985 . S
C585 C586 1.363 . S
C585 C591 1.379 . S
C585 N593 1.356 . S
C586 C585 1.363 . S
C586 C592 1.360 1_545 S
C587 C588 1.363 . S
C587 C592 1.379 1_545 S
C587 N594 1.356 . S
C588 C587 1.363 . S
C588 C591 1.363 . S
N589 C591 1.356 . S
N589 H601 0.984 . S
N589 H602 0.985 . S
N590 C592 1.359 . S
N590 H595 0.984 . S
N590 H596 0.985 . S
C591 C585 1.379 . S
C591 C588 1.363 . S
C591 N589 1.356 . S
C592 C586 1.360 1_565 S
C592 C587 1.379 1_565 S
C592 N590 1.359 . S
N593 C585 1.356 . S
N593 H599 0.984 . S
N593 H600 0.984 . S
N594 C587 1.356 . S
N594 H597 0.984 . S
N594 H598 0.985 . S
H595 N590 0.984 . S
H596 N590 0.985 . S
H597 N594 0.984 . S
H598 N594 0.985 . S
H599 N593 0.984 . S
H600 N593 0.984 . S
H601 N589 0.984 . S
H602 N589 0.985 . S
C603 C604 1.363 . S
C603 C609 1.379 . S
C603 N611 1.356 . S
C604 C603 1.363 . S
C604 C610 1.363 . S
C605 C606 1.363 . S
C605 C610 1.379 . S
C605 N612 1.356 . S
C606 C605 1.363 . S
C606 C609 1.363 . S
N607 C609 1.356 . S
N607 H619 0.984 . S
N607 H620 0.985 . S
N608 C610 1.356 . S
N608 H613 0.984 . S
N608 H614 0.985 . S
C609 C603 1.379 . S
C609 C606 1.363 . S
C609 N607 1.356 . S
C610 C604 1.363 . S
C610 C605 1.379 . S
C610 N608 1.356 . S
N611 C603 1.356 . S
N611 H617 0.984 . S
N611 H618 0.984 . S
N612 C605 1.356 . S
N612 H615 0.984 . S
N612 H616 0.985 . S
H613 N608 0.984 . S
H614 N608 0.985 . S
H615 N612 0.984 . S
H616 N612 0.985 . S
H617 N611 0.984 . S
H618 N611 0.984 . S
H619 N607 0.984 . S
H620 N607 0.985 . S
C621 C622 1.363 . S
C621 C627 1.379 . S
C621 N629 1.356 . S
C622 C621 1.363 . S
C622 C628 1.363 . S
C623 C624 1.363 . S
C623 C628 1.379 . S
C623 N630 1.356 . S
C624 C623 1.363 . S
C624 C627 1.363 . S
N625 C627 1.356 . S
N625 H637 0.984 . S
N625 H638 0.985 . S
N626 C628 1.356 . S
N626 H631 0.984 . S
N626 H632 0.985 . S
C627 C621 1.379 . S
C627 C624 1.363 . S
C627 N625 1.356 . S
C628 C622 1.363 . S
C628 C623 1.379 . S
C628 N626 1.356 . S
N629 C621 1.356 . S
N629 H635 0.984 . S
N629 H636 0.984 . S
N630 C623 1.356 . S
N630 H633 0.984 . S
N630 H634 0.985 . S
H631 N626 0.984 . S
H632 N626 0.985 . S
H633 N630 0.984 . S
H634 N630 0.985 . S
H635 N629 0.984 . S
H636 N629 0.984 . S
H637 N625 0.984 . S
H638 N625 0.985 . S
C426 C286 1.502 . S
C424 C29 1.478 . S
C442 C137 1.552 . S
C444 C356 1.587 . S
C460 C225 1.557 . S
C462 C408 1.590 . S
C478 C49 1.574 . S
C480 C302 1.604 . S
C498 C346 1.515 . S
C496 C117 1.491 . S
C514 C205 1.487 . S
C516 C392 1.511 . S
C534 C339 1.502 . S
C532 C233 1.478 . S
C550 C57 1.487 . S
C552 C399 1.508 . S
C570 C293 1.515 . S
C568 C108 1.491 . S
C588 C355 1.604 . S
C586 C196 1.574 1_545 S
C606 C409 1.597 . S
C604 C20 1.557 . S
C622 C145 1.552 . S
C624 C303 1.587 . S
