# Generated by pormake.
# Topology alb, (6,12)-cn, num edge types: 1
# Building blocks:
#     Node 0, Type 0, BuildingBlock: IZENUY_clean_sbu_0, # of connection points: 6
#     Node 1, Type 0, BuildingBlock: IZENUY_clean_sbu_0, # of connection points: 6
#     Node 2, Type 1, BuildingBlock: QEWDON_clean_sbu_0, # of connection points: 12
#     Edge 3, Type (0, 1), BuildingBlock: XUDNAN_clean_linker_2, # of connection points: 2
#     Edge 4, Type (0, 1), BuildingBlock: XUDNAN_clean_linker_2, # of connection points: 2
#     Edge 5, Type (0, 1), BuildingBlock: XUDNAN_clean_linker_2, # of connection points: 2
#     Edge 6, Type (0, 1), BuildingBlock: XUDNAN_clean_linker_2, # of connection points: 2
#     Edge 7, Type (0, 1), BuildingBlock: XUDNAN_clean_linker_2, # of connection points: 2
#     Edge 8, Type (0, 1), BuildingBlock: XUDNAN_clean_linker_2, # of connection points: 2
#     Edge 9, Type (0, 1), BuildingBlock: XUDNAN_clean_linker_2, # of connection points: 2
#     Edge 10, Type (0, 1), BuildingBlock: XUDNAN_clean_linker_2, # of connection points: 2
#     Edge 11, Type (0, 1), BuildingBlock: XUDNAN_clean_linker_2, # of connection points: 2
#     Edge 12, Type (0, 1), BuildingBlock: XUDNAN_clean_linker_2, # of connection points: 2
#     Edge 13, Type (0, 1), BuildingBlock: XUDNAN_clean_linker_2, # of connection points: 2
#     Edge 14, Type (0, 1), BuildingBlock: XUDNAN_clean_linker_2, # of connection points: 2
# Relax obj value: 0.107
# Max RMSD: 0.215
# Mean RMSD: 0.115
data_MOF--net-alb--node1-IZENUY_clean_sbu_0--node2-QEWDON_clean_sbu_0--edge1-XUDNAN_clean_linker_2
_symmetry_space_group_name_H-M    P1
_symmetry_Int_Tables_number       1
_symmetry_cell_setting            triclinic
loop_
_symmetry_equiv_pos_as_xyz
'x, y, z'
_cell_length_a     24.763071
_cell_length_b     25.299734
_cell_length_c     19.759698
_cell_angle_alpha  90.22792
_cell_angle_beta   90.417139
_cell_angle_gamma 120.39145
loop_
_atom_site_label
_atom_site_type_symbol
_atom_site_fract_x
_atom_site_fract_y
_atom_site_fract_z
_atom_type_partial_charge
Fe0 Fe 0.34644 0.757 0.12179 0.0
Fe1 Fe 0.33813 0.63217 0.12887 0.0
O2 O 0.30077 0.67607 0.12501 0.0
Fe3 Fe 0.21778 0.63913 0.12483 0.0
O4 O 0.21417 0.69792 0.07234 0.0
O5 O 0.31145 0.75879 0.04144 0.0
O6 O 0.41051 0.75869 0.07459 0.0
C7 C 0.41414 0.71864 0.03965 0.0
C8 C 0.25066 0.73545 0.21164 0.0
O9 O 0.37698 0.66236 0.04919 0.0
C10 C 0.24421 0.56968 0.21828 0.0
O11 O 0.38433 0.76112 0.2021 0.0
O12 O 0.40657 0.68936 0.17793 0.0
O13 O 0.21887 0.67814 0.20291 0.0
O14 O 0.29118 0.76966 0.16935 0.0
C15 C 0.23398 0.56238 0.0412 0.0
O16 O 0.30229 0.59942 0.20878 0.0
O17 O 0.20653 0.57412 0.17801 0.0
C18 C 0.4135 0.73347 0.2147 0.0
O19 O 0.27625 0.5667 0.08122 0.0
O20 O 0.21193 0.5976 0.04702 0.0
C21 C 0.25366 0.73862 0.03312 0.0
Fe22 Fe 0.6632 0.37041 0.04019 0.0
Fe23 Fe 0.67607 0.25683 0.0568 0.0
O24 O 0.71052 0.33747 0.05515 0.0
Fe25 Fe 0.79241 0.38446 0.06768 0.0
O26 O 0.78196 0.42232 0.14111 0.0
O27 O 0.7104 0.43777 0.09373 0.0
O28 O 0.6139 0.33248 0.11373 0.0
C29 C 0.5853 0.27507 0.12237 0.0
C30 C 0.76588 0.4477 0.96589 0.0
O31 O 0.60096 0.24188 0.08986 0.0
C32 C 0.78821 0.29388 0.98691 0.0
O33 O 0.60922 0.30917 0.98369 0.0
O34 O 0.64883 0.24927 0.97038 0.0
O35 O 0.80056 0.44559 0.0119 0.0
O36 O 0.70765 0.41044 0.96538 0.0
C37 C 0.75748 0.28861 0.16225 0.0
O38 O 0.74446 0.25577 0.02386 0.0
O39 O 0.80868 0.35057 0.99424 0.0
C40 C 0.61454 0.26952 0.94995 0.0
O41 O 0.70102 0.25957 0.14342 0.0
O42 O 0.79845 0.3315 0.12645 0.0
C43 C 0.7521 0.45068 0.13866 0.0
Zn44 Zn 0.06713 0.08316 0.39652 0.0
Zn45 Zn 0.06641 0.95993 0.42769 0.0
O46 O 0.01339 0.99699 0.43185 0.0
H47 H 0.96826 0.97381 0.43453 0.0
C48 C 0.15435 0.22061 0.50691 0.0
O49 O 0.16347 0.18134 0.47248 0.0
Zn50 Zn 0.9353 0.90936 0.76349 0.0
Zn51 Zn 0.95359 0.02736 0.82743 0.0
O52 O 0.97185 0.99763 0.73886 0.0
H53 H 0.00397 0.02112 0.70625 0.0
Zn54 Zn 0.14166 0.14103 0.62505 0.0
O55 O 0.09044 0.05003 0.59876 0.0
Zn56 Zn 0.12052 0.00483 0.65903 0.0
H57 H 0.06349 0.03533 0.55928 0.0
Zn58 Zn 0.90774 0.9879 0.56128 0.0
O59 O 0.94706 0.93427 0.57726 0.0
H60 H 0.98324 0.9441 0.60502 0.0
Zn61 Zn 0.88959 0.85141 0.53505 0.0
C62 C 0.87856 0.04629 0.6722 0.0
O63 O 0.83246 0.98937 0.67731 0.0
O64 O 0.15118 0.10261 0.35159 0.0
O65 O 0.14674 0.01431 0.37422 0.0
O66 O 0.86696 0.9666 0.86846 0.0
O67 O 0.86028 0.88391 0.82076 0.0
O68 O 0.21041 0.16223 0.69691 0.0
O69 O 0.19011 0.06694 0.71491 0.0
C70 C 0.95949 0.83474 0.40108 0.0
O71 O 0.82246 0.94146 0.51136 0.0
O72 O 0.80916 0.84743 0.5032 0.0
O73 O 0.00499 0.11952 0.85671 0.0
C74 C 0.17487 0.06806 0.3486 0.0
O75 O 0.01979 0.12873 0.37302 0.0
C76 C 0.05189 0.92117 0.77893 0.0
O77 O 0.14293 0.21214 0.56986 0.0
C78 C 0.83756 0.90884 0.85793 0.0
O79 O 0.92012 0.0588 0.62762 0.0
C80 C 0.13159 0.94254 0.54554 0.0
O81 O 0.01326 0.87773 0.38341 0.0
O82 O 0.93253 0.84106 0.45257 0.0
C83 C 0.2209 0.12415 0.72763 0.0
O84 O 0.00161 0.89937 0.81159 0.0
O85 O 0.05555 0.95002 0.72482 0.0
C86 C 0.87672 0.79787 0.66546 0.0
O87 O 0.15102 0.95733 0.60601 0.0
O88 O 0.09174 0.95577 0.52314 0.0
C89 C 0.78972 0.88508 0.49476 0.0
O90 O 0.86561 0.78237 0.60338 0.0
O91 O 0.90418 0.85506 0.67941 0.0
C92 C 0.03463 0.1611 0.81323 0.0
O93 O 0.0333 0.14547 0.74951 0.0
C94 C 0.96729 0.10937 0.4017 0.0
O95 O 0.94802 0.06458 0.44536 0.0
H96 H 0.14091 0.72148 0.26154 0.0
H97 H 0.34204 0.81785 0.2931 0.0
H98 H 0.33271 0.87875 0.38513 0.0
H99 H 0.12821 0.85404 0.28253 0.0
H100 H 0.05291 0.81378 0.32233 0.0
H101 H 0.07555 0.77382 0.26457 0.0
H102 H 0.05486 0.69384 0.35794 0.0
H103 H 0.03281 0.73482 0.41556 0.0
H104 H 0.09412 0.71954 0.43882 0.0
H105 H 0.30335 0.93301 0.46821 0.0
H106 H 0.25456 0.97742 0.53984 0.0
H107 H 0.07263 0.84706 0.45608 0.0
C108 C 0.18248 0.75423 0.28934 0.0
C109 C 0.24207 0.76482 0.27131 0.0
C110 C 0.29601 0.80923 0.30683 0.0
C111 C 0.29119 0.84392 0.35905 0.0
C112 C 0.2321 0.83395 0.37454 0.0
C113 C 0.17858 0.79011 0.34115 0.0
C114 C 0.12162 0.79247 0.36416 0.0
C115 C 0.09297 0.80961 0.30488 0.0
C116 C 0.07301 0.73154 0.39606 0.0
C117 C 0.15151 0.84371 0.41641 0.0
C118 C 0.21532 0.86706 0.42122 0.0
C119 C 0.2534 0.91514 0.46512 0.0
C120 C 0.2254 0.93999 0.50552 0.0
C121 C 0.16019 0.91685 0.50133 0.0
C122 C 0.12283 0.86767 0.45699 0.0
H123 H 0.49033 0.30128 0.14896 0.0
H124 H 0.55443 0.17424 0.19512 0.0
H125 H 0.45772 0.10938 0.25758 0.0
H126 H 0.4099 0.285 0.31169 0.0
H127 H 0.34552 0.28825 0.27295 0.0
H128 H 0.42185 0.32786 0.23506 0.0
H129 H 0.37395 0.26985 0.12226 0.0
H130 H 0.29767 0.22973 0.16012 0.0
H131 H 0.32998 0.18725 0.12152 0.0
H132 H 0.35278 0.05397 0.30814 0.0
H133 H 0.24667 0.01429 0.35222 0.0
H134 H 0.24666 0.17554 0.27697 0.0
C135 C 0.48446 0.26062 0.1737 0.0
C136 C 0.53029 0.24305 0.16742 0.0
C137 C 0.52015 0.18867 0.19917 0.0
C138 C 0.46526 0.15137 0.23478 0.0
C139 C 0.42031 0.16871 0.23855 0.0
C140 C 0.42916 0.22221 0.20962 0.0
C141 C 0.37164 0.22832 0.22014 0.0
C142 C 0.38823 0.28577 0.26249 0.0
C143 C 0.34155 0.22881 0.15194 0.0
C144 C 0.32964 0.16998 0.25917 0.0
C145 C 0.35885 0.13636 0.26873 0.0
C146 C 0.32951 0.0801 0.30152 0.0
C147 C 0.26892 0.05777 0.32618 0.0
C148 C 0.23794 0.09163 0.31843 0.0
C149 C 0.26895 0.14853 0.28408 0.0
H150 H 0.217 0.45196 0.202 0.0
H151 H 0.22454 0.5816 0.35092 0.0
H152 H 0.19875 0.50473 0.4412 0.0
H153 H 0.0897 0.3135 0.27846 0.0
H154 H 0.1234 0.26711 0.25742 0.0
H155 H 0.13773 0.3308 0.20469 0.0
H156 H 0.25699 0.37623 0.21973 0.0
H157 H 0.24323 0.31324 0.27319 0.0
H158 H 0.29045 0.39089 0.30388 0.0
H159 H 0.17539 0.41491 0.51504 0.0
H160 H 0.15802 0.3196 0.56832 0.0
H161 H 0.16869 0.24889 0.37132 0.0
C162 C 0.21163 0.46331 0.25349 0.0
C163 C 0.22082 0.52167 0.26988 0.0
C164 C 0.21584 0.53632 0.33771 0.0
C165 C 0.20161 0.49314 0.38908 0.0
C166 C 0.19308 0.43588 0.37154 0.0
C167 C 0.19795 0.42088 0.30538 0.0
C168 C 0.18958 0.35726 0.3006 0.0
C169 C 0.13164 0.31456 0.25764 0.0
C170 C 0.2486 0.3596 0.27274 0.0
C171 C 0.17959 0.33896 0.37439 0.0
C172 C 0.18139 0.3848 0.41436 0.0
C173 C 0.17353 0.37858 0.48418 0.0
C174 C 0.16353 0.32413 0.51396 0.0
C175 C 0.16186 0.27659 0.4741 0.0
C176 C 0.16976 0.28429 0.40328 0.0
H177 H 0.87722 0.32257 0.19849 0.0
H178 H 0.68329 0.19564 0.24883 0.0
H179 H 0.71751 0.14206 0.32688 0.0
H180 H 0.91837 0.21656 0.18434 0.0
H181 H 0.99597 0.25813 0.21971 0.0
H182 H 0.96244 0.29906 0.18058 0.0
H183 H 0.97662 0.36297 0.28662 0.0
H184 H 0.01351 0.32731 0.33104 0.0
H185 H 0.94627 0.32603 0.36651 0.0
H186 H 0.77197 0.0946 0.38737 0.0
H187 H 0.84218 0.05797 0.42653 0.0
H188 H -0.00049 0.21441 0.33269 0.0
C189 C 0.84194 0.28481 0.22755 0.0
C190 C 0.77765 0.26341 0.21769 0.0
C191 C 0.73292 0.21298 0.25574 0.0
C192 C 0.75189 0.18233 0.30032 0.0
C193 C 0.81565 0.20309 0.30657 0.0
C194 C 0.85997 0.25358 0.27171 0.0
C195 C 0.92472 0.26264 0.28098 0.0
C196 C 0.952 0.25895 0.21244 0.0
C197 C 0.96786 0.32332 0.31842 0.0
C198 C 0.90982 0.20827 0.32482 0.0
C199 C 0.84684 0.17498 0.34002 0.0
C200 C 0.82155 0.12095 0.37691 0.0
C201 C 0.8618 0.10051 0.39883 0.0
C202 C 0.92632 0.13362 0.38281 0.0
C203 C 0.95047 0.18839 0.34588 0.0
H204 H 0.53804 0.81588 0.20366 0.0
H205 H 0.39496 0.70085 0.34642 0.0
H206 H 0.47576 0.73275 0.43691 0.0
H207 H 0.65464 0.78535 0.26268 0.0
H208 H 0.71875 0.86207 0.2492 0.0
H209 H 0.64848 0.83248 0.19859 0.0
H210 H 0.63899 0.92631 0.23487 0.0
H211 H 0.70833 0.95465 0.28704 0.0
H212 H 0.63611 0.94135 0.32368 0.0
H213 H 0.57288 0.76823 0.5076 0.0
H214 H 0.67966 0.81046 0.55613 0.0
H215 H 0.75934 0.90714 0.3696 0.0
C216 C 0.52398 0.79847 0.25441 0.0
C217 C 0.4608 0.75637 0.26896 0.0
C218 C 0.44342 0.73349 0.33513 0.0
C219 C 0.48886 0.75136 0.38655 0.0
C220 C 0.55116 0.79246 0.37069 0.0
C221 C 0.56875 0.81631 0.30643 0.0
C222 C 0.63913 0.85776 0.3021 0.0
C223 C 0.6669 0.83293 0.25007 0.0
C224 C 0.65664 0.92394 0.28598 0.0
C225 C 0.65846 0.85264 0.37352 0.0
C226 C 0.60702 0.81456 0.41223 0.0
C227 C 0.61339 0.79896 0.47822 0.0
C228 C 0.67392 0.82281 0.50524 0.0
C229 C 0.72682 0.8622 0.46653 0.0
C230 C 0.71913 0.87782 0.40026 0.0
H231 H 0.78897 0.4842 0.27308 0.0
H232 H 0.77537 0.55425 0.07745 0.0
H233 H 0.82782 0.65886 0.1238 0.0
H234 H 0.75206 0.58861 0.36658 0.0
H235 H 0.8025 0.59811 0.43747 0.0
H236 H 0.76634 0.52772 0.38903 0.0
H237 H 0.87541 0.54074 0.36741 0.0
H238 H 0.91211 0.61138 0.4153 0.0
H239 H 0.93557 0.61027 0.32942 0.0
H240 H 0.88821 0.75538 0.18627 0.0
H241 H 0.94115 0.84072 0.26817 0.0
H242 H 0.90437 0.71138 0.42951 0.0
C243 C 0.7971 0.52177 0.24047 0.0
C244 C 0.77934 0.51149 0.17132 0.0
C245 C 0.78944 0.56133 0.13023 0.0
C246 C 0.81914 0.62094 0.15607 0.0
C247 C 0.8365 0.62992 0.22397 0.0
C248 C 0.8246 0.58194 0.26638 0.0
C249 C 0.84484 0.6051 0.33855 0.0
C250 C 0.78806 0.57828 0.3857 0.0
C251 C 0.89497 0.59102 0.36415 0.0
C252 C 0.87181 0.67352 0.32902 0.0
C253 C 0.86686 0.6864 0.26215 0.0
C254 C 0.8913 0.74602 0.23911 0.0
C255 C 0.92127 0.79407 0.28581 0.0
C256 C 0.92548 0.78221 0.35487 0.0
C257 C 0.90025 0.72121 0.37706 0.0
H258 H 0.18943 0.71643 0.91057 0.0
H259 H 0.27636 0.84943 0.07332 0.0
H260 H 0.24531 0.9173 0.0175 0.0
H261 H 0.23383 0.83187 0.7742 0.0
H262 H 0.16162 0.78709 0.72757 0.0
H263 H 0.19304 0.74939 0.77793 0.0
H264 H 0.08906 0.69169 0.84375 0.0
H265 H 0.0571 0.72839 0.79288 0.0
H266 H 0.05807 0.73478 0.88381 0.0
H267 H 0.19395 0.96425 0.95312 0.0
H268 H 0.1274 0.98872 0.88161 0.0
H269 H 0.08217 0.83333 0.75216 0.0
C270 C 0.20229 0.76017 0.93373 0.0
C271 C 0.23547 0.77807 0.99611 0.0
C272 C 0.25135 0.83531 0.02536 0.0
C273 C 0.23402 0.87416 0.99395 0.0
C274 C 0.20162 0.85571 0.93246 0.0
C275 C 0.18621 0.80034 0.90217 0.0
C276 C 0.14964 0.79138 0.83671 0.0
C277 C 0.18675 0.78984 0.77547 0.0
C278 C 0.08462 0.73312 0.83951 0.0
C279 C 0.14481 0.84904 0.83663 0.0
C280 C 0.17556 0.88557 0.89229 0.0
C281 C 0.17186 0.93744 0.90789 0.0
C282 C 0.13478 0.95166 0.86646 0.0
C283 C 0.10378 0.91588 0.8086 0.0
C284 C 0.10912 0.86398 0.79337 0.0
H285 H 0.57745 0.30682 0.83982 0.0
H286 H 0.5327 0.15 0.96544 0.0
H287 H 0.42319 0.09937 0.92577 0.0
H288 H 0.44823 0.31474 0.8644 0.0
H289 H 0.43465 0.33106 0.77929 0.0
H290 H 0.51266 0.35261 0.80668 0.0
H291 H 0.52397 0.29015 0.70912 0.0
H292 H 0.44754 0.2717 0.67878 0.0
H293 H 0.46388 0.21124 0.69605 0.0
H294 H 0.3184 0.07784 0.89503 0.0
H295 H 0.22396 0.06458 0.83785 0.0
H296 H 0.33554 0.22963 0.72273 0.0
C297 C 0.54519 0.26031 0.85549 0.0
C298 C 0.56273 0.2316 0.90475 0.0
C299 C 0.51981 0.17164 0.92635 0.0
C300 C 0.45748 0.14316 0.90514 0.0
C301 C 0.44031 0.17482 0.86089 0.0
C302 C 0.48315 0.23039 0.83316 0.0
C303 C 0.45153 0.25426 0.78669 0.0
C304 C 0.46245 0.31687 0.81077 0.0
C305 C 0.47299 0.25697 0.7133 0.0
C306 C 0.38405 0.20459 0.79524 0.0
C307 C 0.379 0.16013 0.83949 0.0
C308 C 0.32178 0.11106 0.85841 0.0
C309 C 0.26847 0.10412 0.8263 0.0
C310 C 0.2731 0.14498 0.77514 0.0
C311 C 0.33103 0.19772 0.76174 0.0
H312 H 0.20374 0.44551 0.06837 0.0
H313 H 0.19524 0.55931 0.91016 0.0
H314 H 0.14786 0.46956 0.83189 0.0
H315 H 0.23759 0.34899 0.9662 0.0
H316 H 0.18724 0.2803 0.0125 0.0
H317 H 0.22291 0.35377 0.05463 0.0
H318 H 0.11337 0.33508 0.09057 0.0
H319 H 0.07911 0.26024 0.05187 0.0
H320 H 0.05276 0.31214 0.02735 0.0
H321 H 0.10634 0.36746 0.77 0.0
H322 H 0.05945 0.2591 0.73417 0.0
H323 H 0.08449 0.21081 0.93763 0.0
C324 C 0.19221 0.45154 0.01706 0.0
C325 C 0.2038 0.50925 0.99464 0.0
C326 C 0.18684 0.51534 0.92788 0.0
C327 C 0.16029 0.46479 0.88319 0.0
C328 C 0.14989 0.40844 0.9068 0.0
C329 C 0.16416 0.40139 0.97265 0.0
C330 C 0.1445 0.33536 0.98717 0.0
C331 C 0.20146 0.32928 0.00623 0.0
C332 C 0.09444 0.30911 0.0425 0.0
C333 C 0.11733 0.30619 0.919 0.0
C334 C 0.12187 0.34923 0.87291 0.0
C335 C 0.10175 0.33332 0.80597 0.0
C336 C 0.0752 0.27169 0.78609 0.0
C337 C 0.06718 0.22648 0.83348 0.0
C338 C 0.08909 0.24426 0.9006 0.0
H339 H 0.75133 0.17427 0.96032 0.0
H340 H 0.88702 0.35935 0.89955 0.0
H341 H 0.92813 0.31706 0.8138 0.0
H342 H 0.85213 0.11138 0.94214 0.0
H343 H 0.79079 0.03856 0.91052 0.0
H344 H 0.77237 0.08259 0.96795 0.0
H345 H 0.69189 0.08074 0.88244 0.0
H346 H 0.70826 0.03521 0.82525 0.0
H347 H 0.71582 0.10632 0.79707 0.0
H348 H 0.94984 0.25183 0.72974 0.0
H349 H 0.95337 0.17172 0.6605 0.0
H350 H 0.80387 0.03123 0.78028 0.0
C351 C 0.79 0.20631 0.92946 0.0
C352 C 0.81595 0.27034 0.93696 0.0
C353 C 0.86634 0.31017 0.89496 0.0
C354 C 0.88992 0.28651 0.84604 0.0
C355 C 0.86255 0.22296 0.83973 0.0
C356 C 0.81383 0.18363 0.88072 0.0
C357 C 0.79187 0.11728 0.86425 0.0
C358 C 0.80242 0.08562 0.9249 0.0
C359 C 0.72289 0.0829 0.84085 0.0
C360 C 0.83516 0.12495 0.80684 0.0
C361 C 0.87575 0.18612 0.7932 0.0
C362 C 0.91876 0.20388 0.74072 0.0
C363 C 0.92042 0.15802 0.70165 0.0
C364 C 0.87926 0.09506 0.71518 0.0
C365 C 0.83633 0.07881 0.7687 0.0
H366 H 0.52038 0.83123 0.03995 0.0
H367 H 0.43741 0.6487 0.95147 0.0
H368 H 0.53811 0.67781 0.897 0.0
H369 H 0.61924 0.91507 0.89867 0.0
H370 H 0.68206 0.96825 0.95335 0.0
H371 H 0.60241 0.93331 0.98133 0.0
H372 H 0.63235 0.8932 0.08855 0.0
H373 H 0.71178 0.92848 0.05925 0.0
H374 H 0.66909 0.84778 0.07752 0.0
H375 H 0.64817 0.72428 0.85849 0.0
H376 H 0.75883 0.78791 0.82838 0.0
H377 H 0.77047 0.94039 0.94303 0.0
C378 C 0.52281 0.7976 0.00805 0.0
C379 C 0.47092 0.73771 -0.00043 0.0
C380 C 0.47653 0.69486 0.95839 0.0
C381 C 0.53351 0.71088 0.92756 0.0
C382 C 0.58411 0.76974 0.93868 0.0
C383 C 0.57924 0.81261 0.97742 0.0
C384 C 0.64108 0.87226 0.9827 0.0
C385 C 0.63585 0.92533 0.95214 0.0
C386 C 0.66493 0.88625 0.05641 0.0
C387 C 0.68149 0.85641 0.94016 0.0
C388 C 0.64776 0.79686 0.9159 0.0
C389 C 0.67499 0.77113 0.87665 0.0
C390 C 0.73808 0.80774 0.86018 0.0
C391 C 0.77325 0.86963 0.88269 0.0
C392 C 0.74467 0.89374 0.92425 0.0
H393 H 0.73243 0.46277 0.83534 0.0
H394 H 0.85826 0.56018 0.00392 0.0
H395 H 0.89321 0.65781 0.94684 0.0
H396 H 0.84647 0.56116 0.70671 0.0
H397 H 0.78775 0.55877 0.65023 0.0
H398 H 0.76862 0.49504 0.70509 0.0
H399 H 0.67672 0.5038 0.75397 0.0
H400 H 0.696 0.56804 0.69983 0.0
H401 H 0.69186 0.57564 0.79009 0.0
H402 H 0.89823 0.74352 0.88446 0.0
H403 H 0.90454 0.81591 0.80027 0.0
H404 H 0.80328 0.67014 0.655 0.0
C405 C 0.76768 0.50474 0.85966 0.0
C406 C 0.79144 0.50397 0.92495 0.0
C407 C 0.83856 0.55955 0.9546 0.0
C408 C 0.85858 0.6154 0.92278 0.0
C409 C 0.83309 0.61494 0.85981 0.0
C410 C 0.79089 0.56137 0.82681 0.0
C411 C 0.77585 0.57524 0.75641 0.0
C412 C 0.7959 0.54581 0.70134 0.0
C413 C 0.70595 0.55442 0.7497 0.0
C414 C 0.81612 0.64489 0.75594 0.0
C415 C 0.84624 0.66607 0.81754 0.0
C416 C 0.87861 0.72777 0.83428 0.0
C417 C 0.8835 0.76934 0.78536 0.0
C418 C 0.86083 0.75066 0.71878 0.0
C419 C 0.82452 0.68677 0.70441 0.0
loop_
_geom_bond_atom_site_label_1
_geom_bond_atom_site_label_2
_geom_bond_distance
_geom_bond_site_symmetry_2
_ccdc_geom_bond_type
Fe0 O2 1.918 . S
Fe0 O5 1.997 . S
Fe0 O6 2.002 . S
Fe0 O11 1.976 . S
Fe0 O14 1.996 . S
Fe1 O2 1.918 . S
Fe1 O9 1.997 . S
Fe1 O12 1.996 . S
Fe1 O16 1.976 . S
Fe1 O19 2.002 . S
O2 Fe0 1.918 . S
O2 Fe1 1.918 . S
O2 Fe3 1.918 . S
Fe3 O2 1.918 . S
Fe3 O4 2.002 . S
Fe3 O13 1.976 . S
Fe3 O17 1.996 . S
Fe3 O20 1.997 . S
O4 Fe3 2.002 . S
O4 C21 1.295 . S
O5 Fe0 1.997 . S
O5 C21 1.235 . S
O6 Fe0 2.002 . S
O6 C7 1.295 . S
C7 O6 1.295 . S
C7 O9 1.235 . S
C8 O13 1.287 . S
C8 O14 1.255 . S
O9 Fe1 1.997 . S
O9 C7 1.235 . S
C10 O16 1.287 . S
C10 O17 1.255 . S
O11 Fe0 1.976 . S
O11 C18 1.287 . S
O12 Fe1 1.996 . S
O12 C18 1.255 . S
O13 Fe3 1.976 . S
O13 C8 1.287 . S
O14 Fe0 1.996 . S
O14 C8 1.255 . S
C15 O19 1.295 . S
C15 O20 1.235 . S
O16 Fe1 1.976 . S
O16 C10 1.287 . S
O17 Fe3 1.996 . S
O17 C10 1.255 . S
C18 O11 1.287 . S
C18 O12 1.255 . S
O19 Fe1 2.002 . S
O19 C15 1.295 . S
O20 Fe3 1.997 . S
O20 C15 1.235 . S
C21 O4 1.295 . S
C21 O5 1.235 . S
Fe22 O24 1.918 . S
Fe22 O27 1.997 . S
Fe22 O28 2.002 . S
Fe22 O33 1.976 1_554 S
Fe22 O36 1.996 1_554 S
Fe23 O24 1.918 . S
Fe23 O31 1.997 . S
Fe23 O34 1.996 1_554 S
Fe23 O38 1.976 1_554 S
Fe23 O41 2.002 . S
O24 Fe22 1.918 . S
O24 Fe23 1.918 . S
O24 Fe25 1.918 . S
Fe25 O24 1.918 . S
Fe25 O26 2.002 . S
Fe25 O35 1.976 1_554 S
Fe25 O39 1.996 1_554 S
Fe25 O42 1.997 . S
O26 Fe25 2.002 . S
O26 C43 1.295 . S
O27 Fe22 1.997 . S
O27 C43 1.235 . S
O28 Fe22 2.002 . S
O28 C29 1.295 . S
C29 O28 1.295 . S
C29 O31 1.235 . S
C30 O35 1.287 . S
C30 O36 1.255 . S
O31 Fe23 1.997 . S
O31 C29 1.235 . S
C32 O38 1.287 . S
C32 O39 1.255 . S
O33 Fe22 1.976 1_556 S
O33 C40 1.287 . S
O34 Fe23 1.996 1_556 S
O34 C40 1.255 . S
O35 Fe25 1.976 1_556 S
O35 C30 1.287 . S
O36 Fe22 1.996 1_556 S
O36 C30 1.255 . S
C37 O41 1.295 . S
C37 O42 1.235 . S
O38 Fe23 1.976 1_556 S
O38 C32 1.287 . S
O39 Fe25 1.996 1_556 S
O39 C32 1.255 . S
C40 O33 1.287 . S
C40 O34 1.255 . S
O41 Fe23 2.002 . S
O41 C37 1.295 . S
O42 Fe25 1.997 . S
O42 C37 1.235 . S
C43 O26 1.295 . S
C43 O27 1.235 . S
Zn44 O46 1.933 . S
Zn44 O64 1.985 . S
Zn44 O75 1.955 . S
Zn45 O46 1.911 1_565 S
Zn45 O65 1.970 1_565 S
Zn45 O81 1.945 . S
Zn45 O88 1.981 . S
O46 Zn44 1.933 . S
O46 Zn45 1.911 1_545 S
O46 H47 0.841 1_445 S
H47 O46 0.841 1_665 S
C48 O49 1.246 . S
C48 O77 1.276 . S
O49 C48 1.246 . S
Zn50 O52 1.911 . S
Zn50 O67 1.970 . S
Zn50 O84 1.945 1_655 S
Zn50 O91 1.981 . S
Zn51 O52 1.933 1_545 S
Zn51 O66 1.985 1_545 S
Zn51 O73 1.955 1_655 S
O52 Zn50 1.911 . S
O52 Zn51 1.933 1_565 S
O52 H53 0.841 1_665 S
H53 O52 0.841 1_445 S
Zn54 O55 1.933 . S
Zn54 O68 1.985 . S
Zn54 O77 1.955 . S
O55 Zn54 1.933 . S
O55 Zn56 1.911 . S
O55 H57 0.841 . S
Zn56 O55 1.911 . S
Zn56 O69 1.970 . S
Zn56 O85 1.981 1_545 S
Zn56 O87 1.945 1_545 S
H57 O55 0.841 . S
Zn58 O59 1.933 . S
Zn58 O71 1.985 . S
Zn58 O79 1.955 1_565 S
O59 Zn58 1.933 . S
O59 H60 0.841 . S
O59 Zn61 1.911 . S
H60 O59 0.841 . S
Zn61 O59 1.911 . S
Zn61 O72 1.970 . S
Zn61 O82 1.981 . S
Zn61 O90 1.945 . S
C62 O63 1.246 . S
C62 O79 1.276 . S
O63 C62 1.246 . S
O64 Zn44 1.985 . S
O64 C74 1.245 . S
O65 Zn45 1.970 1_545 S
O65 C74 1.263 . S
O66 Zn51 1.985 1_565 S
O66 C78 1.245 . S
O67 Zn50 1.970 . S
O67 C78 1.263 . S
O68 Zn54 1.985 . S
O68 C83 1.245 . S
O69 Zn56 1.970 . S
O69 C83 1.263 . S
C70 O81 1.262 1_655 S
C70 O82 1.245 . S
O71 Zn58 1.985 . S
O71 C89 1.245 . S
O72 Zn61 1.970 . S
O72 C89 1.263 . S
O73 Zn51 1.955 1_455 S
O73 C92 1.276 . S
C74 O64 1.245 . S
C74 O65 1.263 . S
O75 Zn44 1.955 . S
O75 C94 1.276 1_455 S
C76 O84 1.262 . S
C76 O85 1.245 . S
O77 C48 1.276 . S
O77 Zn54 1.955 . S
C78 O66 1.245 . S
C78 O67 1.263 . S
O79 Zn58 1.955 1_545 S
O79 C62 1.276 . S
C80 O87 1.262 . S
C80 O88 1.245 . S
O81 Zn45 1.945 . S
O81 C70 1.262 1_455 S
O82 Zn61 1.981 . S
O82 C70 1.245 . S
C83 O68 1.245 . S
C83 O69 1.263 . S
O84 Zn50 1.945 1_455 S
O84 C76 1.262 . S
O85 Zn56 1.981 1_565 S
O85 C76 1.245 . S
C86 O90 1.262 . S
C86 O91 1.245 . S
O87 Zn56 1.945 1_565 S
O87 C80 1.262 . S
O88 Zn45 1.981 . S
O88 C80 1.245 . S
C89 O71 1.245 . S
C89 O72 1.263 . S
O90 Zn61 1.945 . S
O90 C86 1.262 . S
O91 Zn50 1.981 . S
O91 C86 1.245 . S
C92 O73 1.276 . S
C92 O93 1.246 . S
O93 C92 1.246 . S
C94 O75 1.276 1_655 S
C94 O95 1.246 . S
O95 C94 1.246 . S
H96 C108 0.930 . S
H97 C110 0.930 . S
H98 C111 0.930 . S
H99 C115 0.959 . S
H100 C115 0.959 . S
H101 C115 0.961 . S
H102 C116 0.960 . S
H103 C116 0.961 . S
H104 C116 0.959 . S
H105 C119 0.929 . S
H106 C120 0.931 . S
H107 C122 0.930 . S
C108 H96 0.930 . S
C108 C109 1.399 . S
C108 C113 1.399 . S
C109 C108 1.399 . S
C109 C110 1.376 . S
C110 H97 0.930 . S
C110 C109 1.376 . S
C110 C111 1.388 . S
C111 H98 0.930 . S
C111 C110 1.388 . S
C111 C112 1.390 . S
C112 C111 1.390 . S
C112 C113 1.394 . S
C112 C118 1.465 . S
C113 C108 1.399 . S
C113 C112 1.394 . S
C113 C114 1.516 . S
C114 C113 1.516 . S
C114 C115 1.502 . S
C114 C116 1.561 . S
C114 C117 1.526 . S
C115 H99 0.959 . S
C115 H100 0.959 . S
C115 H101 0.961 . S
C115 C114 1.502 . S
C116 H102 0.960 . S
C116 H103 0.961 . S
C116 H104 0.959 . S
C116 C114 1.561 . S
C117 C114 1.526 . S
C117 C118 1.396 . S
C117 C122 1.390 . S
C118 C112 1.465 . S
C118 C117 1.396 . S
C118 C119 1.399 . S
C119 H105 0.929 . S
C119 C118 1.399 . S
C119 C120 1.385 . S
C120 H106 0.931 . S
C120 C119 1.385 . S
C120 C121 1.389 . S
C121 C120 1.389 . S
C121 C122 1.387 . S
C122 H107 0.930 . S
C122 C117 1.390 . S
C122 C121 1.387 . S
H123 C135 0.930 . S
H124 C137 0.930 . S
H125 C138 0.930 . S
H126 C142 0.959 . S
H127 C142 0.959 . S
H128 C142 0.961 . S
H129 C143 0.960 . S
H130 C143 0.961 . S
H131 C143 0.959 . S
H132 C146 0.929 . S
H133 C147 0.931 . S
H134 C149 0.930 . S
C135 H123 0.930 . S
C135 C136 1.399 . S
C135 C140 1.399 . S
C136 C135 1.399 . S
C136 C137 1.376 . S
C137 H124 0.930 . S
C137 C136 1.376 . S
C137 C138 1.388 . S
C138 H125 0.930 . S
C138 C137 1.388 . S
C138 C139 1.390 . S
C139 C138 1.390 . S
C139 C140 1.394 . S
C139 C145 1.465 . S
C140 C135 1.399 . S
C140 C139 1.394 . S
C140 C141 1.516 . S
C141 C140 1.516 . S
C141 C142 1.502 . S
C141 C143 1.561 . S
C141 C144 1.526 . S
C142 H126 0.959 . S
C142 H127 0.959 . S
C142 H128 0.961 . S
C142 C141 1.502 . S
C143 H129 0.960 . S
C143 H130 0.961 . S
C143 H131 0.959 . S
C143 C141 1.561 . S
C144 C141 1.526 . S
C144 C145 1.396 . S
C144 C149 1.390 . S
C145 C139 1.465 . S
C145 C144 1.396 . S
C145 C146 1.399 . S
C146 H132 0.929 . S
C146 C145 1.399 . S
C146 C147 1.385 . S
C147 H133 0.931 . S
C147 C146 1.385 . S
C147 C148 1.389 . S
C148 C147 1.389 . S
C148 C149 1.387 . S
C149 H134 0.930 . S
C149 C144 1.390 . S
C149 C148 1.387 . S
H150 C162 0.930 . S
H151 C164 0.930 . S
H152 C165 0.930 . S
H153 C169 0.959 . S
H154 C169 0.959 . S
H155 C169 0.961 . S
H156 C170 0.960 . S
H157 C170 0.961 . S
H158 C170 0.959 . S
H159 C173 0.929 . S
H160 C174 0.931 . S
H161 C176 0.930 . S
C162 H150 0.930 . S
C162 C163 1.399 . S
C162 C167 1.399 . S
C163 C162 1.399 . S
C163 C164 1.376 . S
C164 H151 0.930 . S
C164 C163 1.376 . S
C164 C165 1.388 . S
C165 H152 0.930 . S
C165 C164 1.388 . S
C165 C166 1.390 . S
C166 C165 1.390 . S
C166 C167 1.394 . S
C166 C172 1.465 . S
C167 C162 1.399 . S
C167 C166 1.394 . S
C167 C168 1.516 . S
C168 C167 1.516 . S
C168 C169 1.502 . S
C168 C170 1.561 . S
C168 C171 1.526 . S
C169 H153 0.959 . S
C169 H154 0.959 . S
C169 H155 0.961 . S
C169 C168 1.502 . S
C170 H156 0.960 . S
C170 H157 0.961 . S
C170 H158 0.959 . S
C170 C168 1.561 . S
C171 C168 1.526 . S
C171 C172 1.396 . S
C171 C176 1.390 . S
C172 C166 1.465 . S
C172 C171 1.396 . S
C172 C173 1.399 . S
C173 H159 0.929 . S
C173 C172 1.399 . S
C173 C174 1.385 . S
C174 H160 0.931 . S
C174 C173 1.385 . S
C174 C175 1.389 . S
C175 C174 1.389 . S
C175 C176 1.387 . S
C176 H161 0.930 . S
C176 C171 1.390 . S
C176 C175 1.387 . S
H177 C189 0.930 . S
H178 C191 0.930 . S
H179 C192 0.930 . S
H180 C196 0.959 . S
H181 C196 0.959 . S
H182 C196 0.961 . S
H183 C197 0.960 . S
H184 C197 0.961 . S
H185 C197 0.959 . S
H186 C200 0.929 . S
H187 C201 0.931 . S
H188 C203 0.930 . S
C189 H177 0.930 . S
C189 C190 1.399 . S
C189 C194 1.399 . S
C190 C189 1.399 . S
C190 C191 1.376 . S
C191 H178 0.930 . S
C191 C190 1.376 . S
C191 C192 1.388 . S
C192 H179 0.930 . S
C192 C191 1.388 . S
C192 C193 1.390 . S
C193 C192 1.390 . S
C193 C194 1.394 . S
C193 C199 1.465 . S
C194 C189 1.399 . S
C194 C193 1.394 . S
C194 C195 1.516 . S
C195 C194 1.516 . S
C195 C196 1.502 . S
C195 C197 1.561 . S
C195 C198 1.526 . S
C196 H180 0.959 . S
C196 H181 0.959 . S
C196 H182 0.961 . S
C196 C195 1.502 . S
C197 H183 0.960 . S
C197 H184 0.961 . S
C197 H185 0.959 . S
C197 C195 1.561 . S
C198 C195 1.526 . S
C198 C199 1.396 . S
C198 C203 1.390 . S
C199 C193 1.465 . S
C199 C198 1.396 . S
C199 C200 1.399 . S
C200 H186 0.929 . S
C200 C199 1.399 . S
C200 C201 1.385 . S
C201 H187 0.931 . S
C201 C200 1.385 . S
C201 C202 1.389 . S
C202 C201 1.389 . S
C202 C203 1.387 . S
C203 H188 0.930 . S
C203 C198 1.390 . S
C203 C202 1.387 . S
H204 C216 0.930 . S
H205 C218 0.930 . S
H206 C219 0.930 . S
H207 C223 0.959 . S
H208 C223 0.959 . S
H209 C223 0.961 . S
H210 C224 0.960 . S
H211 C224 0.961 . S
H212 C224 0.959 . S
H213 C227 0.929 . S
H214 C228 0.931 . S
H215 C230 0.930 . S
C216 H204 0.930 . S
C216 C217 1.399 . S
C216 C221 1.399 . S
C217 C216 1.399 . S
C217 C218 1.376 . S
C218 H205 0.930 . S
C218 C217 1.376 . S
C218 C219 1.388 . S
C219 H206 0.930 . S
C219 C218 1.388 . S
C219 C220 1.390 . S
C220 C219 1.390 . S
C220 C221 1.394 . S
C220 C226 1.465 . S
C221 C216 1.399 . S
C221 C220 1.394 . S
C221 C222 1.516 . S
C222 C221 1.516 . S
C222 C223 1.502 . S
C222 C224 1.561 . S
C222 C225 1.526 . S
C223 H207 0.959 . S
C223 H208 0.959 . S
C223 H209 0.961 . S
C223 C222 1.502 . S
C224 H210 0.960 . S
C224 H211 0.961 . S
C224 H212 0.959 . S
C224 C222 1.561 . S
C225 C222 1.526 . S
C225 C226 1.396 . S
C225 C230 1.390 . S
C226 C220 1.465 . S
C226 C225 1.396 . S
C226 C227 1.399 . S
C227 H213 0.929 . S
C227 C226 1.399 . S
C227 C228 1.385 . S
C228 H214 0.931 . S
C228 C227 1.385 . S
C228 C229 1.389 . S
C229 C228 1.389 . S
C229 C230 1.387 . S
C230 H215 0.930 . S
C230 C225 1.390 . S
C230 C229 1.387 . S
H231 C243 0.930 . S
H232 C245 0.930 . S
H233 C246 0.930 . S
H234 C250 0.959 . S
H235 C250 0.959 . S
H236 C250 0.961 . S
H237 C251 0.960 . S
H238 C251 0.961 . S
H239 C251 0.959 . S
H240 C254 0.929 . S
H241 C255 0.931 . S
H242 C257 0.930 . S
C243 H231 0.930 . S
C243 C244 1.399 . S
C243 C248 1.399 . S
C244 C243 1.399 . S
C244 C245 1.376 . S
C245 H232 0.930 . S
C245 C244 1.376 . S
C245 C246 1.388 . S
C246 H233 0.930 . S
C246 C245 1.388 . S
C246 C247 1.390 . S
C247 C246 1.390 . S
C247 C248 1.394 . S
C247 C253 1.465 . S
C248 C243 1.399 . S
C248 C247 1.394 . S
C248 C249 1.516 . S
C249 C248 1.516 . S
C249 C250 1.502 . S
C249 C251 1.561 . S
C249 C252 1.526 . S
C250 H234 0.959 . S
C250 H235 0.959 . S
C250 H236 0.961 . S
C250 C249 1.502 . S
C251 H237 0.960 . S
C251 H238 0.961 . S
C251 H239 0.959 . S
C251 C249 1.561 . S
C252 C249 1.526 . S
C252 C253 1.396 . S
C252 C257 1.390 . S
C253 C247 1.465 . S
C253 C252 1.396 . S
C253 C254 1.399 . S
C254 H240 0.929 . S
C254 C253 1.399 . S
C254 C255 1.385 . S
C255 H241 0.931 . S
C255 C254 1.385 . S
C255 C256 1.389 . S
C256 C255 1.389 . S
C256 C257 1.387 . S
C257 H242 0.930 . S
C257 C252 1.390 . S
C257 C256 1.387 . S
H258 C270 0.930 . S
H259 C272 0.930 . S
H260 C273 0.930 . S
H261 C277 0.959 . S
H262 C277 0.959 . S
H263 C277 0.961 . S
H264 C278 0.960 . S
H265 C278 0.961 . S
H266 C278 0.959 . S
H267 C281 0.929 . S
H268 C282 0.931 . S
H269 C284 0.930 . S
C270 H258 0.930 . S
C270 C271 1.399 1_556 S
C270 C275 1.399 . S
C271 C270 1.399 1_554 S
C271 C272 1.376 . S
C272 H259 0.930 . S
C272 C271 1.376 . S
C272 C273 1.388 . S
C273 H260 0.930 . S
C273 C272 1.388 . S
C273 C274 1.390 1_554 S
C274 C273 1.390 1_556 S
C274 C275 1.394 . S
C274 C280 1.465 . S
C275 C270 1.399 . S
C275 C274 1.394 . S
C275 C276 1.516 . S
C276 C275 1.516 . S
C276 C277 1.502 . S
C276 C278 1.561 . S
C276 C279 1.526 . S
C277 H261 0.959 . S
C277 H262 0.959 . S
C277 H263 0.961 . S
C277 C276 1.502 . S
C278 H264 0.960 . S
C278 H265 0.961 . S
C278 H266 0.959 . S
C278 C276 1.561 . S
C279 C276 1.526 . S
C279 C280 1.396 . S
C279 C284 1.390 . S
C280 C274 1.465 . S
C280 C279 1.396 . S
C280 C281 1.399 . S
C281 H267 0.929 . S
C281 C280 1.399 . S
C281 C282 1.385 . S
C282 H268 0.931 . S
C282 C281 1.385 . S
C282 C283 1.389 . S
C283 C282 1.389 . S
C283 C284 1.387 . S
C284 H269 0.930 . S
C284 C279 1.390 . S
C284 C283 1.387 . S
H285 C297 0.930 . S
H286 C299 0.930 1_554 S
H287 C300 0.930 . S
H288 C304 0.959 . S
H289 C304 0.959 . S
H290 C304 0.961 . S
H291 C305 0.960 . S
H292 C305 0.961 . S
H293 C305 0.959 . S
H294 C308 0.929 . S
H295 C309 0.931 . S
H296 C311 0.930 . S
C297 H285 0.930 . S
C297 C298 1.399 . S
C297 C302 1.399 . S
C298 C297 1.399 . S
C298 C299 1.376 . S
C299 H286 0.930 1_556 S
C299 C298 1.376 . S
C299 C300 1.388 . S
C300 H287 0.930 . S
C300 C299 1.388 . S
C300 C301 1.390 . S
C301 C300 1.390 . S
C301 C302 1.394 . S
C301 C307 1.465 . S
C302 C297 1.399 . S
C302 C301 1.394 . S
C302 C303 1.516 . S
C303 C302 1.516 . S
C303 C304 1.502 . S
C303 C305 1.561 . S
C303 C306 1.526 . S
C304 H288 0.959 . S
C304 H289 0.959 . S
C304 H290 0.961 . S
C304 C303 1.502 . S
C305 H291 0.960 . S
C305 H292 0.961 . S
C305 H293 0.959 . S
C305 C303 1.561 . S
C306 C303 1.526 . S
C306 C307 1.396 . S
C306 C311 1.390 . S
C307 C301 1.465 . S
C307 C306 1.396 . S
C307 C308 1.399 . S
C308 H294 0.929 . S
C308 C307 1.399 . S
C308 C309 1.385 . S
C309 H295 0.931 . S
C309 C308 1.385 . S
C309 C310 1.389 . S
C310 C309 1.389 . S
C310 C311 1.387 . S
C311 H296 0.930 . S
C311 C306 1.390 . S
C311 C310 1.387 . S
H312 C324 0.930 . S
H313 C326 0.930 . S
H314 C327 0.930 . S
H315 C331 0.959 . S
H316 C331 0.959 . S
H317 C331 0.961 1_554 S
H318 C332 0.960 1_554 S
H319 C332 0.961 . S
H320 C332 0.959 . S
H321 C335 0.929 . S
H322 C336 0.931 . S
H323 C338 0.930 . S
C324 H312 0.930 . S
C324 C325 1.399 . S
C324 C329 1.399 1_554 S
C325 C324 1.399 . S
C325 C326 1.376 1_554 S
C326 H313 0.930 . S
C326 C325 1.376 1_556 S
C326 C327 1.388 . S
C327 H314 0.930 . S
C327 C326 1.388 . S
C327 C328 1.390 . S
C328 C327 1.390 . S
C328 C329 1.394 . S
C328 C334 1.465 . S
C329 C324 1.399 1_556 S
C329 C328 1.394 . S
C329 C330 1.516 . S
C330 C329 1.516 . S
C330 C331 1.502 . S
C330 C332 1.561 . S
C330 C333 1.526 . S
C331 H315 0.959 . S
C331 H316 0.959 . S
C331 H317 0.961 1_556 S
C331 C330 1.502 . S
C332 H318 0.960 1_556 S
C332 H319 0.961 . S
C332 H320 0.959 . S
C332 C330 1.561 . S
C333 C330 1.526 . S
C333 C334 1.396 . S
C333 C338 1.390 . S
C334 C328 1.465 . S
C334 C333 1.396 . S
C334 C335 1.399 . S
C335 H321 0.929 . S
C335 C334 1.399 . S
C335 C336 1.385 . S
C336 H322 0.931 . S
C336 C335 1.385 . S
C336 C337 1.389 . S
C337 C336 1.389 . S
C337 C338 1.387 . S
C338 H323 0.930 . S
C338 C333 1.390 . S
C338 C337 1.387 . S
H339 C351 0.930 . S
H340 C353 0.930 . S
H341 C354 0.930 . S
H342 C358 0.959 . S
H343 C358 0.959 . S
H344 C358 0.961 . S
H345 C359 0.960 . S
H346 C359 0.961 . S
H347 C359 0.959 . S
H348 C362 0.929 . S
H349 C363 0.931 . S
H350 C365 0.930 . S
C351 H339 0.930 . S
C351 C352 1.399 . S
C351 C356 1.399 . S
C352 C351 1.399 . S
C352 C353 1.376 . S
C353 H340 0.930 . S
C353 C352 1.376 . S
C353 C354 1.388 . S
C354 H341 0.930 . S
C354 C353 1.388 . S
C354 C355 1.390 . S
C355 C354 1.390 . S
C355 C356 1.394 . S
C355 C361 1.465 . S
C356 C351 1.399 . S
C356 C355 1.394 . S
C356 C357 1.516 . S
C357 C356 1.516 . S
C357 C358 1.502 . S
C357 C359 1.561 . S
C357 C360 1.526 . S
C358 H342 0.959 . S
C358 H343 0.959 . S
C358 H344 0.961 . S
C358 C357 1.502 . S
C359 H345 0.960 . S
C359 H346 0.961 . S
C359 H347 0.959 . S
C359 C357 1.561 . S
C360 C357 1.526 . S
C360 C361 1.396 . S
C360 C365 1.390 . S
C361 C355 1.465 . S
C361 C360 1.396 . S
C361 C362 1.399 . S
C362 H348 0.929 . S
C362 C361 1.399 . S
C362 C363 1.385 . S
C363 H349 0.931 . S
C363 C362 1.385 . S
C363 C364 1.389 . S
C364 C363 1.389 . S
C364 C365 1.387 . S
C365 H350 0.930 . S
C365 C360 1.390 . S
C365 C364 1.387 . S
H366 C378 0.930 . S
H367 C380 0.930 . S
H368 C381 0.930 . S
H369 C385 0.959 . S
H370 C385 0.959 1_554 S
H371 C385 0.961 1_554 S
H372 C386 0.960 . S
H373 C386 0.961 . S
H374 C386 0.959 . S
H375 C389 0.929 . S
H376 C390 0.931 . S
H377 C392 0.930 . S
C378 H366 0.930 . S
C378 C379 1.399 . S
C378 C383 1.399 . S
C379 C378 1.399 . S
C379 C380 1.376 1_554 S
C380 H367 0.930 . S
C380 C379 1.376 1_556 S
C380 C381 1.388 . S
C381 H368 0.930 . S
C381 C380 1.388 . S
C381 C382 1.390 . S
C382 C381 1.390 . S
C382 C383 1.394 1_556 S
C382 C388 1.465 . S
C383 C378 1.399 . S
C383 C382 1.394 1_554 S
C383 C384 1.516 . S
C384 C383 1.516 . S
C384 C385 1.502 1_554 S
C384 C386 1.561 . S
C384 C387 1.526 1_554 S
C385 H369 0.959 . S
C385 H370 0.959 1_556 S
C385 H371 0.961 1_556 S
C385 C384 1.502 1_556 S
C386 H372 0.960 . S
C386 H373 0.961 . S
C386 H374 0.959 . S
C386 C384 1.561 . S
C387 C384 1.526 1_556 S
C387 C388 1.396 . S
C387 C392 1.390 . S
C388 C382 1.465 . S
C388 C387 1.396 . S
C388 C389 1.399 . S
C389 H375 0.929 . S
C389 C388 1.399 . S
C389 C390 1.385 . S
C390 H376 0.931 . S
C390 C389 1.385 . S
C390 C391 1.389 . S
C391 C390 1.389 . S
C391 C392 1.387 . S
C392 H377 0.930 . S
C392 C387 1.390 . S
C392 C391 1.387 . S
H393 C405 0.930 . S
H394 C407 0.930 . S
H395 C408 0.930 . S
H396 C412 0.959 . S
H397 C412 0.959 . S
H398 C412 0.961 . S
H399 C413 0.960 . S
H400 C413 0.961 . S
H401 C413 0.959 . S
H402 C416 0.929 . S
H403 C417 0.931 . S
H404 C419 0.930 . S
C405 H393 0.930 . S
C405 C406 1.399 . S
C405 C410 1.399 . S
C406 C405 1.399 . S
C406 C407 1.376 . S
C407 H394 0.930 . S
C407 C406 1.376 . S
C407 C408 1.388 . S
C408 H395 0.930 . S
C408 C407 1.388 . S
C408 C409 1.390 . S
C409 C408 1.390 . S
C409 C410 1.394 . S
C409 C415 1.465 . S
C410 C405 1.399 . S
C410 C409 1.394 . S
C410 C411 1.516 . S
C411 C410 1.516 . S
C411 C412 1.502 . S
C411 C413 1.561 . S
C411 C414 1.526 . S
C412 H396 0.959 . S
C412 H397 0.959 . S
C412 H398 0.961 . S
C412 C411 1.502 . S
C413 H399 0.960 . S
C413 H400 0.961 . S
C413 H401 0.959 . S
C413 C411 1.561 . S
C414 C411 1.526 . S
C414 C415 1.396 . S
C414 C419 1.390 . S
C415 C409 1.465 . S
C415 C414 1.396 . S
C415 C416 1.399 . S
C416 H402 0.929 . S
C416 C415 1.399 . S
C416 C417 1.385 . S
C417 H403 0.931 . S
C417 C416 1.385 . S
C417 C418 1.389 . S
C418 C417 1.389 . S
C418 C419 1.387 . S
C419 H404 0.930 . S
C419 C414 1.390 . S
C419 C418 1.387 . S
C109 C8 1.398 . S
C121 C80 1.376 . S
C148 C74 1.743 . S
C136 C29 1.715 . S
C175 C48 1.408 . S
C163 C10 1.439 . S
C202 C94 1.945 . S
C190 C37 2.011 . S
C229 C89 0.179 . S
C217 C18 0.386 . S
C244 C43 1.906 . S
C256 C70 1.838 . S
C271 C21 1.904 . S
C283 C76 1.835 . S
C298 C40 0.203 . S
C310 C83 0.400 . S
C325 C15 2.011 . S
C337 C92 1.955 . S
C352 C32 1.445 . S
C364 C62 1.443 . S
C391 C78 1.734 . S
C379 C7 1.727 . S
C406 C30 1.381 . S
C418 C86 1.387 . S
