# Generated by pormake.
# Topology ocu, (6,8)-cn, num edge types: 1
# Building blocks:
#     Node 0, Type 0, BuildingBlock: KUMJIN_clean_sbu_0, # of connection points: 6
#     Node 1, Type 0, BuildingBlock: KUMJIN_clean_sbu_0, # of connection points: 6
#     Node 2, Type 0, BuildingBlock: KUMJIN_clean_sbu_0, # of connection points: 6
#     Node 3, Type 0, BuildingBlock: KUMJIN_clean_sbu_0, # of connection points: 6
#     Node 4, Type 0, BuildingBlock: KUMJIN_clean_sbu_0, # of connection points: 6
#     Node 5, Type 0, BuildingBlock: KUMJIN_clean_sbu_0, # of connection points: 6
#     Node 6, Type 0, BuildingBlock: KUMJIN_clean_sbu_0, # of connection points: 6
#     Node 7, Type 0, BuildingBlock: KUMJIN_clean_sbu_0, # of connection points: 6
#     Node 8, Type 1, BuildingBlock: TAGTUT_clean_sbu_1, # of connection points: 8
#     Node 9, Type 1, BuildingBlock: TAGTUT_clean_sbu_1, # of connection points: 8
#     Node 10, Type 1, BuildingBlock: TAGTUT_clean_sbu_1, # of connection points: 8
#     Node 11, Type 1, BuildingBlock: TAGTUT_clean_sbu_1, # of connection points: 8
#     Node 12, Type 1, BuildingBlock: TAGTUT_clean_sbu_1, # of connection points: 8
#     Node 13, Type 1, BuildingBlock: TAGTUT_clean_sbu_1, # of connection points: 8
#     Edge 14, Type (0, 1), BuildingBlock: CIFDUS_clean_linker_0, # of connection points: 2
#     Edge 15, Type (0, 1), BuildingBlock: CIFDUS_clean_linker_0, # of connection points: 2
#     Edge 16, Type (0, 1), BuildingBlock: CIFDUS_clean_linker_0, # of connection points: 2
#     Edge 17, Type (0, 1), BuildingBlock: CIFDUS_clean_linker_0, # of connection points: 2
#     Edge 18, Type (0, 1), BuildingBlock: CIFDUS_clean_linker_0, # of connection points: 2
#     Edge 19, Type (0, 1), BuildingBlock: CIFDUS_clean_linker_0, # of connection points: 2
#     Edge 20, Type (0, 1), BuildingBlock: CIFDUS_clean_linker_0, # of connection points: 2
#     Edge 21, Type (0, 1), BuildingBlock: CIFDUS_clean_linker_0, # of connection points: 2
#     Edge 22, Type (0, 1), BuildingBlock: CIFDUS_clean_linker_0, # of connection points: 2
#     Edge 23, Type (0, 1), BuildingBlock: CIFDUS_clean_linker_0, # of connection points: 2
#     Edge 24, Type (0, 1), BuildingBlock: CIFDUS_clean_linker_0, # of connection points: 2
#     Edge 25, Type (0, 1), BuildingBlock: CIFDUS_clean_linker_0, # of connection points: 2
#     Edge 26, Type (0, 1), BuildingBlock: CIFDUS_clean_linker_0, # of connection points: 2
#     Edge 27, Type (0, 1), BuildingBlock: CIFDUS_clean_linker_0, # of connection points: 2
#     Edge 28, Type (0, 1), BuildingBlock: CIFDUS_clean_linker_0, # of connection points: 2
#     Edge 29, Type (0, 1), BuildingBlock: CIFDUS_clean_linker_0, # of connection points: 2
#     Edge 30, Type (0, 1), BuildingBlock: CIFDUS_clean_linker_0, # of connection points: 2
#     Edge 31, Type (0, 1), BuildingBlock: CIFDUS_clean_linker_0, # of connection points: 2
#     Edge 32, Type (0, 1), BuildingBlock: CIFDUS_clean_linker_0, # of connection points: 2
#     Edge 33, Type (0, 1), BuildingBlock: CIFDUS_clean_linker_0, # of connection points: 2
#     Edge 34, Type (0, 1), BuildingBlock: CIFDUS_clean_linker_0, # of connection points: 2
#     Edge 35, Type (0, 1), BuildingBlock: CIFDUS_clean_linker_0, # of connection points: 2
#     Edge 36, Type (0, 1), BuildingBlock: CIFDUS_clean_linker_0, # of connection points: 2
#     Edge 37, Type (0, 1), BuildingBlock: CIFDUS_clean_linker_0, # of connection points: 2
#     Edge 38, Type (0, 1), BuildingBlock: CIFDUS_clean_linker_0, # of connection points: 2
#     Edge 39, Type (0, 1), BuildingBlock: CIFDUS_clean_linker_0, # of connection points: 2
#     Edge 40, Type (0, 1), BuildingBlock: CIFDUS_clean_linker_0, # of connection points: 2
#     Edge 41, Type (0, 1), BuildingBlock: CIFDUS_clean_linker_0, # of connection points: 2
#     Edge 42, Type (0, 1), BuildingBlock: CIFDUS_clean_linker_0, # of connection points: 2
#     Edge 43, Type (0, 1), BuildingBlock: CIFDUS_clean_linker_0, # of connection points: 2
#     Edge 44, Type (0, 1), BuildingBlock: CIFDUS_clean_linker_0, # of connection points: 2
#     Edge 45, Type (0, 1), BuildingBlock: CIFDUS_clean_linker_0, # of connection points: 2
#     Edge 46, Type (0, 1), BuildingBlock: CIFDUS_clean_linker_0, # of connection points: 2
#     Edge 47, Type (0, 1), BuildingBlock: CIFDUS_clean_linker_0, # of connection points: 2
#     Edge 48, Type (0, 1), BuildingBlock: CIFDUS_clean_linker_0, # of connection points: 2
#     Edge 49, Type (0, 1), BuildingBlock: CIFDUS_clean_linker_0, # of connection points: 2
#     Edge 50, Type (0, 1), BuildingBlock: CIFDUS_clean_linker_0, # of connection points: 2
#     Edge 51, Type (0, 1), BuildingBlock: CIFDUS_clean_linker_0, # of connection points: 2
#     Edge 52, Type (0, 1), BuildingBlock: CIFDUS_clean_linker_0, # of connection points: 2
#     Edge 53, Type (0, 1), BuildingBlock: CIFDUS_clean_linker_0, # of connection points: 2
#     Edge 54, Type (0, 1), BuildingBlock: CIFDUS_clean_linker_0, # of connection points: 2
#     Edge 55, Type (0, 1), BuildingBlock: CIFDUS_clean_linker_0, # of connection points: 2
#     Edge 56, Type (0, 1), BuildingBlock: CIFDUS_clean_linker_0, # of connection points: 2
#     Edge 57, Type (0, 1), BuildingBlock: CIFDUS_clean_linker_0, # of connection points: 2
#     Edge 58, Type (0, 1), BuildingBlock: CIFDUS_clean_linker_0, # of connection points: 2
#     Edge 59, Type (0, 1), BuildingBlock: CIFDUS_clean_linker_0, # of connection points: 2
#     Edge 60, Type (0, 1), BuildingBlock: CIFDUS_clean_linker_0, # of connection points: 2
#     Edge 61, Type (0, 1), BuildingBlock: CIFDUS_clean_linker_0, # of connection points: 2
# Relax obj value: 0.106
# Max RMSD: 0.263
# Mean RMSD: 0.150
data_MOF--net-ocu--node1-KUMJIN_clean_sbu_0--node2-TAGTUT_clean_sbu_1--edge1-CIFDUS_clean_linker_0
_symmetry_space_group_name_H-M    P1
_symmetry_Int_Tables_number       1
_symmetry_cell_setting            triclinic
loop_
_symmetry_equiv_pos_as_xyz
'x, y, z'
_cell_length_a     36.319675
_cell_length_b     34.556878
_cell_length_c     38.87032
_cell_angle_alpha  78.830653
_cell_angle_beta   102.31037
_cell_angle_gamma 118.11519
loop_
_atom_site_label
_atom_site_type_symbol
_atom_site_fract_x
_atom_site_fract_y
_atom_site_fract_z
_atom_type_partial_charge
Eu0 Eu 0.24832 0.2092 0.22142 0.0
C1 C 0.39592 0.3375 0.31403 0.0
C2 C 0.39996 0.29202 0.36925 0.0
C3 C 0.46334 0.35535 0.35194 0.0
C4 C 0.3763 0.30124 0.33771 0.0
C5 C 0.43952 0.36564 0.32147 0.0
C6 C 0.4436 0.31865 0.3758 0.0
C7 C 0.43204 0.41583 0.27116 0.0
N8 N 0.37196 0.34734 0.28524 0.0
C9 C 0.38896 0.38748 0.26534 0.0
C10 C 0.45763 0.40447 0.29899 0.0
Eu11 Eu 0.29842 0.29765 0.27751 0.0
N12 N 0.33395 0.27607 0.33085 0.0
C13 C 0.31321 0.24333 0.35591 0.0
C14 C 0.37899 0.25695 0.39381 0.0
C15 C 0.33536 0.23286 0.38727 0.0
H16 H 0.36906 0.39746 0.24456 0.0
H17 H 0.31865 0.20632 0.4065 0.0
H18 H 0.46218 0.3118 0.39972 0.0
H19 H 0.4453 0.44674 0.25451 0.0
H20 H 0.27951 0.22437 0.3523 0.0
H21 H 0.25145 0.3062 0.09321 0.0
H22 H 0.39604 0.24889 0.41827 0.0
H23 H 0.17371 0.11245 0.25173 0.0
H24 H 0.27771 0.29149 0.15575 0.0
H25 H 0.10222 0.05718 0.23012 0.0
H26 H 0.49684 0.37641 0.3579 0.0
H27 H 0.18028 0.25474 0.0671 0.0
H28 H 0.11331 0.18524 0.07463 0.0
H29 H 0.49094 0.42684 0.30384 0.0
H30 H 0.07231 0.11849 0.11211 0.0
N31 N 0.22189 0.23276 0.16524 0.0
C32 C 0.24655 0.26906 0.14485 0.0
C33 C 0.19159 0.24826 0.09467 0.0
C34 C 0.16657 0.21094 0.11572 0.0
C35 C 0.23178 0.2774 0.1093 0.0
C36 C 0.18287 0.2038 0.15141 0.0
H37 H 0.06774 0.07065 0.17005 0.0
N38 N 0.17748 0.15848 0.20599 0.0
C39 C 0.11777 0.08787 0.21384 0.0
C40 C 0.15978 0.16598 0.17254 0.0
C41 C 0.15789 0.11944 0.22624 0.0
C42 C 0.09847 0.09559 0.1799 0.0
C43 C 0.11974 0.13461 0.15855 0.0
O44 O 0.24701 0.14562 0.22006 0.0
O45 O 0.30117 0.23672 0.26696 0.0
O46 O 0.33497 0.31988 0.23078 0.0
O47 O 0.31194 0.25458 0.2072 0.0
O48 O 0.26258 0.1698 0.27182 0.0
O49 O 0.27563 0.2005 0.18055 0.0
O50 O 0.31355 0.36053 0.29222 0.0
O51 O 0.251 0.27548 0.22709 0.0
O52 O 0.19886 0.19914 0.25263 0.0
O53 O 0.24329 0.23764 0.29942 0.0
O54 O 0.26904 0.33663 0.24 0.0
O55 O 0.26293 0.30226 0.31598 0.0
C56 C 0.29625 0.20058 0.28655 0.0
C57 C 0.25226 0.12913 0.1651 0.0
C58 C 0.27146 0.10109 0.12225 0.0
C59 C 0.28294 0.1294 0.14829 0.0
C60 C 0.2284 0.07251 0.11325 0.0
C61 C 0.20968 0.10014 0.1561 0.0
C62 C 0.19789 0.07197 0.13022 0.0
C63 C 0.33811 0.29607 0.20987 0.0
C64 C 0.2662 0.15936 0.19206 0.0
C65 C 0.10296 0.14226 0.12333 0.0
C66 C 0.12635 0.18024 0.10196 0.0
C67 C 0.24242 0.30915 0.21823 0.0
C68 C 0.28635 0.37553 0.33595 0.0
C69 C 0.25043 0.36674 0.35047 0.0
C70 C 0.25142 0.39791 0.36978 0.0
C71 C 0.28891 0.43726 0.37485 0.0
C72 C 0.32321 0.41525 0.34136 0.0
C73 C 0.32436 0.44581 0.36065 0.0
C74 C 0.20676 0.20771 0.28555 0.0
C75 C 0.28549 0.34512 0.31353 0.0
H76 H 0.31588 0.15125 0.15609 0.0
H77 H 0.21809 0.0508 0.09285 0.0
H78 H 0.18565 0.09914 0.16902 0.0
H79 H 0.16497 0.04969 0.12321 0.0
H80 H 0.22173 0.33652 0.34601 0.0
H81 H 0.29103 0.46148 0.39018 0.0
H82 H 0.35129 0.42292 0.33049 0.0
H83 H 0.35285 0.4763 0.36463 0.0
Eu84 Eu 0.79705 0.21841 0.25079 0.0
C85 C 0.69555 0.29222 0.30093 0.0
C86 C 0.62387 0.23801 0.28381 0.0
C87 C 0.63907 0.28138 0.33173 0.0
C88 C 0.66673 0.26092 0.27855 0.0
C89 C 0.68191 0.30269 0.32772 0.0
C90 C 0.61018 0.24899 0.30996 0.0
C91 C 0.75418 0.35392 0.3456 0.0
N92 N 0.7372 0.31059 0.29793 0.0
C93 C 0.76628 0.34238 0.3189 0.0
C94 C 0.71182 0.33382 0.35017 0.0
Eu95 Eu 0.75483 0.2942 0.24919 0.0
N96 N 0.68103 0.25015 0.25391 0.0
C97 C 0.65423 0.21385 0.23632 0.0
C98 C 0.59622 0.20322 0.26383 0.0
C99 C 0.61168 0.1906 0.2405 0.0
H100 H 0.79903 0.35926 0.31487 0.0
H101 H 0.59101 0.16221 0.22624 0.0
H102 H 0.5774 0.23186 0.31411 0.0
H103 H 0.77749 0.37859 0.36243 0.0
H104 H 0.66504 0.20055 0.2202 0.0
H105 H 0.95605 0.3572 0.27685 0.0
H106 H 0.56327 0.18466 0.26735 0.0
H107 H 0.75755 0.15688 0.18232 0.0
H108 H 0.88171 0.31331 0.28196 0.0
H109 H 0.78157 0.14588 0.13231 0.0
H110 H 0.62809 0.28904 0.35214 0.0
H111 H 0.98692 0.34303 0.23285 0.0
H112 H 0.97611 0.30235 0.18239 0.0
H113 H 0.70252 0.3427 0.37099 0.0
H114 H 0.92836 0.24696 0.1419 0.0
N115 N 0.86987 0.26815 0.24574 0.0
C116 C 0.89457 0.30333 0.265 0.0
C117 C 0.95418 0.32192 0.23618 0.0
C118 C 0.9283 0.28861 0.21432 0.0
C119 C 0.93698 0.32983 0.26116 0.0
C120 C 0.88564 0.26214 0.21951 0.0
H121 H 0.85599 0.18969 0.12249 0.0
N122 N 0.81687 0.20937 0.1996 0.0
C123 C 0.80343 0.17063 0.14965 0.0
C124 C 0.85839 0.23198 0.19585 0.0
C125 C 0.7898 0.17761 0.17782 0.0
C126 C 0.84546 0.19518 0.14436 0.0
C127 C 0.8736 0.22605 0.16765 0.0
O128 O 0.75641 0.14777 0.24848 0.0
O129 O 0.7409 0.22391 0.26152 0.0
O130 O 0.79607 0.29034 0.30185 0.0
O131 O 0.82844 0.24497 0.30353 0.0
O132 O 0.76449 0.18841 0.30003 0.0
O133 O 0.82354 0.17173 0.26651 0.0
O134 O 0.80128 0.36411 0.24569 0.0
O135 O 0.80937 0.2883 0.23645 0.0
O136 O 0.7504 0.21599 0.20171 0.0
O137 O 0.72106 0.26476 0.19753 0.0
O138 O 0.78051 0.31945 0.19683 0.0
O139 O 0.73385 0.34485 0.23722 0.0
C140 C 0.73535 0.20067 0.29136 0.0
C141 C 0.77697 0.10873 0.29823 0.0
C142 C 0.79182 0.10387 0.36259 0.0
C143 C 0.79508 0.12836 0.32956 0.0
C144 C 0.76439 0.05817 0.36402 0.0
C145 C 0.74987 0.06352 0.29965 0.0
C146 C 0.74292 0.03845 0.33268 0.0
C147 C 0.82107 0.27204 0.31779 0.0
C148 C 0.78631 0.13739 0.2649 0.0
C149 C 0.91625 0.25111 0.16339 0.0
C150 C 0.94348 0.28244 0.18657 0.0
C151 C 0.81095 0.30858 0.20521 0.0
C152 C 0.77451 0.4022 0.19822 0.0
C153 C 0.74232 0.38377 0.17057 0.0
C154 C 0.73331 0.41119 0.14277 0.0
C155 C 0.76295 0.45559 0.13753 0.0
C156 C 0.80454 0.44636 0.19334 0.0
C157 C 0.79962 0.47255 0.16205 0.0
C158 C 0.7255 0.23402 0.18537 0.0
C159 C 0.77164 0.3764 0.23307 0.0
H160 H 0.81396 0.16349 0.32786 0.0
H161 H 0.76106 0.03706 0.3888 0.0
H162 H 0.7344 0.04784 0.27555 0.0
H163 H 0.72228 0.00335 0.33398 0.0
H164 H 0.71893 0.34952 0.17408 0.0
H165 H 0.75608 0.4777 0.11633 0.0
H166 H 0.83031 0.4609 0.21412 0.0
H167 H 0.8221 0.50698 0.15843 0.0
Eu168 Eu 0.72902 0.72608 0.27427 0.0
C169 C 0.84686 0.87979 0.18001 0.0
C170 C 0.7988 0.87205 0.12506 0.0
C171 C 0.856 0.94404 0.13716 0.0
C172 C 0.8119 0.85354 0.15814 0.0
C173 C 0.8699 0.92518 0.16937 0.0
C174 C 0.8205 0.91752 0.11506 0.0
C175 C 0.92093 0.92921 0.22159 0.0
N176 N 0.85968 0.8606 0.21083 0.0
C177 C 0.89717 0.88407 0.23084 0.0
C178 C 0.90693 0.95002 0.19094 0.0
Eu179 Eu 0.81721 0.78445 0.22579 0.0
N180 N 0.79157 0.80971 0.1686 0.0
C181 C 0.75956 0.78218 0.14589 0.0
C182 C 0.76476 0.84423 0.10269 0.0
C183 C 0.74542 0.79902 0.113 0.0
H184 H 0.90817 0.86797 0.25452 0.0
H185 H 0.71942 0.77704 0.0957 0.0
H186 H 0.81061 0.93233 0.08994 0.0
H187 H 0.95004 0.94788 0.23803 0.0
H188 H 0.74337 0.74718 0.15305 0.0
H189 H 0.8233 0.72807 0.40518 0.0
H190 H 0.7537 0.85719 0.07716 0.0
H191 H 0.63835 0.64525 0.24166 0.0
H192 H 0.80314 0.75987 0.34696 0.0
H193 H 0.59206 0.5664 0.25791 0.0
H194 H 0.87306 0.97892 0.12871 0.0
H195 H 0.78378 0.64844 0.42374 0.0
H196 H 0.72339 0.57531 0.41049 0.0
H197 H 0.92549 0.98496 0.18369 0.0
H198 H 0.66079 0.53133 0.37052 0.0
N199 N 0.75263 0.69881 0.33109 0.0
C200 C 0.78511 0.72511 0.35417 0.0
C201 C 0.77463 0.66222 0.3978 0.0
C202 C 0.74018 0.63579 0.37489 0.0
C203 C 0.79695 0.70716 0.38748 0.0
C204 C 0.72963 0.65528 0.3413 0.0
H205 H 0.61153 0.52773 0.31383 0.0
N206 N 0.6844 0.65023 0.28701 0.0
C207 C 0.62096 0.58384 0.27509 0.0
C208 C 0.69461 0.6303 0.31861 0.0
C209 C 0.64721 0.62834 0.26596 0.0
C210 C 0.63209 0.56215 0.30664 0.0
C211 C 0.66891 0.5855 0.32912 0.0
O212 O 0.66573 0.72011 0.26995 0.0
O213 O 0.75555 0.78301 0.23188 0.0
O214 O 0.82871 0.83299 0.26369 0.0
O215 O 0.77335 0.79041 0.29636 0.0
O216 O 0.69336 0.73728 0.22083 0.0
O217 O 0.71324 0.75039 0.31466 0.0
O218 O 0.88003 0.78933 0.2291 0.0
O219 O 0.79078 0.72827 0.2684 0.0
O220 O 0.72156 0.67487 0.24112 0.0
O221 O 0.77229 0.7195 0.20457 0.0
O222 O 0.85321 0.77308 0.2791 0.0
O223 O 0.83058 0.75459 0.18808 0.0
C224 C 0.72181 0.77513 0.2096 0.0
C225 C 0.64308 0.74502 0.31209 0.0
C226 C 0.62399 0.78212 0.34761 0.0
C227 C 0.65503 0.77753 0.33481 0.0
C228 C 0.58121 0.75418 0.33745 0.0
C229 C 0.6001 0.7178 0.30207 0.0
C230 C 0.56942 0.72239 0.31473 0.0
C231 C 0.8076 0.82681 0.28971 0.0
C232 C 0.67472 0.73875 0.29872 0.0
C233 C 0.68001 0.56576 0.36209 0.0
C234 C 0.71561 0.59082 0.38487 0.0
C235 C 0.82447 0.73553 0.29056 0.0
C236 C 0.90135 0.77389 0.18117 0.0
C237 C 0.89788 0.73842 0.16562 0.0
C238 C 0.93102 0.74322 0.14928 0.0
C239 C 0.96726 0.78395 0.14804 0.0
C240 C 0.93759 0.81452 0.1792 0.0
C241 C 0.9703 0.81944 0.16261 0.0
C242 C 0.74085 0.68155 0.21381 0.0
C243 C 0.86933 0.76581 0.20294 0.0
H244 H 0.68807 0.79878 0.34275 0.0
H245 H 0.55683 0.75715 0.34703 0.0
H246 H 0.59018 0.69257 0.28469 0.0
H247 H 0.53637 0.70111 0.307 0.0
H248 H 0.87037 0.70664 0.16765 0.0
H249 H 0.99336 0.78817 0.13595 0.0
H250 H 0.94108 0.84206 0.19124 0.0
H251 H 0.99848 0.85062 0.16163 0.0
Eu252 Eu 0.28975 0.71323 0.26043 0.0
C253 C 0.21651 0.83834 0.16705 0.0
C254 C 0.27565 0.91068 0.1596 0.0
C255 C 0.20997 0.89277 0.11943 0.0
C256 C 0.25777 0.86802 0.17779 0.0
C257 C 0.19224 0.85035 0.1376 0.0
C258 C 0.25131 0.92294 0.13077 0.0
C259 C 0.1329 0.77963 0.14884 0.0
N260 N 0.19922 0.79875 0.18664 0.0
C261 C 0.15767 0.7698 0.17851 0.0
C262 C 0.15023 0.82012 0.12827 0.0
Eu263 Eu 0.24197 0.78717 0.23853 0.0
N264 N 0.2796 0.85618 0.20716 0.0
C265 C 0.31933 0.8855 0.21992 0.0
C266 C 0.31692 0.94038 0.17176 0.0
C267 C 0.3389 0.92764 0.20203 0.0
H268 H 0.14359 0.73874 0.19458 0.0
H269 H 0.37059 0.95054 0.21201 0.0
H270 H 0.26373 0.95615 0.11786 0.0
H271 H 0.10026 0.75627 0.14221 0.0
H272 H 0.33611 0.87667 0.24401 0.0
H273 H 0.15722 0.55168 0.28507 0.0
H274 H 0.33176 0.97342 0.15836 0.0
H275 H 0.38892 0.75313 0.30163 0.0
H276 H 0.194 0.62436 0.25356 0.0
H277 H 0.42971 0.73585 0.35638 0.0
H278 H 0.19157 0.90301 0.09725 0.0
H279 H 0.19222 0.52848 0.34022 0.0
H280 H 0.25716 0.54633 0.38698 0.0
H281 H 0.13067 0.82812 0.10576 0.0
H282 H 0.33019 0.59711 0.40716 0.0
N283 N 0.25003 0.64395 0.29111 0.0
C284 C 0.2102 0.61538 0.27776 0.0
C285 C 0.20872 0.56116 0.32731 0.0
C286 C 0.24973 0.59011 0.34083 0.0
C287 C 0.18887 0.57392 0.29575 0.0
C288 C 0.26989 0.63182 0.32171 0.0
H289 H 0.39485 0.66801 0.39615 0.0
N290 N 0.33077 0.69818 0.31204 0.0
C291 C 0.39638 0.71441 0.35023 0.0
C292 C 0.3114 0.66007 0.33276 0.0
C293 C 0.37307 0.72439 0.31944 0.0
C294 C 0.37657 0.67615 0.37262 0.0
C295 C 0.33383 0.64788 0.36357 0.0
O296 O 0.33945 0.71634 0.23538 0.0
O297 O 0.29145 0.77364 0.22498 0.0
O298 O 0.22547 0.7521 0.18992 0.0
O299 O 0.23202 0.69031 0.2195 0.0
O300 O 0.34844 0.77695 0.25057 0.0
O301 O 0.2774 0.66104 0.22923 0.0
O302 O 0.19194 0.78302 0.26362 0.0
O303 O 0.24067 0.7273 0.27402 0.0
O304 O 0.30626 0.74717 0.30909 0.0
O305 O 0.29828 0.80975 0.28232 0.0
O306 O 0.18332 0.72429 0.24947 0.0
O307 O 0.25252 0.84088 0.26725 0.0
C308 C 0.33112 0.79788 0.22751 0.0
C309 C 0.33557 0.64959 0.22609 0.0
C310 C 0.3677 0.61785 0.19876 0.0
C311 C 0.34513 0.64214 0.19571 0.0
C312 C 0.38017 0.6005 0.23237 0.0
C313 C 0.34751 0.63159 0.25954 0.0
C314 C 0.36968 0.60702 0.2626 0.0
C315 C 0.21765 0.71043 0.19176 0.0
C316 C 0.31596 0.67885 0.22236 0.0
C317 C 0.31347 0.60714 0.38346 0.0
C318 C 0.27166 0.57818 0.37196 0.0
C319 C 0.20098 0.70337 0.27205 0.0
C320 C 0.19234 0.84897 0.27034 0.0
C321 C 0.18749 0.86176 0.30043 0.0
C322 C 0.16456 0.88578 0.29712 0.0
C323 C 0.1466 0.89701 0.26334 0.0
C324 C 0.174 0.85999 0.2368 0.0
C325 C 0.15127 0.88401 0.23335 0.0
C326 C 0.31186 0.7877 0.30934 0.0
C327 C 0.21417 0.82168 0.27494 0.0
H328 H 0.33631 0.65647 0.16985 0.0
H329 H 0.3979 0.5819 0.23514 0.0
H330 H 0.34033 0.63707 0.28319 0.0
H331 H 0.37922 0.5935 0.28847 0.0
H332 H 0.20129 0.85276 0.32642 0.0
H333 H 0.12823 0.91499 0.26025 0.0
H334 H 0.17665 0.84955 0.21344 0.0
H335 H 0.13685 0.89213 0.20744 0.0
Eu336 Eu 0.29486 0.72117 0.74122 0.0
C337 C 0.18912 0.76882 0.80965 0.0
C338 C 0.12029 0.70815 0.79584 0.0
C339 C 0.13712 0.74143 0.85015 0.0
C340 C 0.16089 0.73814 0.78697 0.0
C341 C 0.17719 0.77136 0.84119 0.0
C342 C 0.10877 0.70981 0.82756 0.0
C343 C 0.24392 0.83526 0.85151 0.0
N344 N 0.22789 0.79688 0.80064 0.0
C345 C 0.25404 0.83163 0.81996 0.0
C346 C 0.20559 0.80446 0.86255 0.0
Eu347 Eu 0.24415 0.78833 0.74691 0.0
N348 N 0.17326 0.7368 0.75675 0.0
C349 C 0.14579 0.70592 0.73433 0.0
C350 C 0.09255 0.67684 0.77287 0.0
C351 C 0.10537 0.67581 0.74196 0.0
H352 H 0.28294 0.85689 0.81107 0.0
H353 H 0.0843 0.65137 0.72412 0.0
H354 H 0.07797 0.68676 0.83486 0.0
H355 H 0.26549 0.86218 0.86702 0.0
H356 H 0.15436 0.70288 0.71073 0.0
H357 H 0.45568 0.85432 0.78206 0.0
H358 H 0.06136 0.65309 0.77889 0.0
H359 H 0.261 0.67317 0.66579 0.0
H360 H 0.38447 0.80378 0.78881 0.0
H361 H 0.28491 0.67919 0.61007 0.0
H362 H 0.12769 0.7426 0.87441 0.0
H363 H 0.48496 0.85928 0.729 0.0
H364 H 0.47435 0.83536 0.67024 0.0
H365 H 0.19764 0.80739 0.88695 0.0
H366 H 0.4279 0.78977 0.62297 0.0
N367 N 0.36894 0.77447 0.74023 0.0
C368 C 0.39464 0.80236 0.76557 0.0
C369 C 0.45271 0.83538 0.73188 0.0
C370 C 0.42699 0.80842 0.70545 0.0
C371 C 0.43631 0.8326 0.76182 0.0
C372 C 0.38472 0.77819 0.71011 0.0
H373 H 0.35757 0.73268 0.60005 0.0
N374 N 0.31732 0.72652 0.6865 0.0
C375 C 0.30573 0.701 0.62987 0.0
C376 C 0.35825 0.75366 0.6827 0.0
C377 C 0.29189 0.69858 0.66138 0.0
C378 C 0.34675 0.7309 0.62449 0.0
C379 C 0.37377 0.75716 0.65115 0.0
O380 O 0.25484 0.65248 0.73124 0.0
O381 O 0.23777 0.71952 0.75684 0.0
O382 O 0.28769 0.78759 0.79679 0.0
O383 O 0.32219 0.74471 0.79589 0.0
O384 O 0.26682 0.68501 0.79203 0.0
O385 O 0.32253 0.67689 0.74429 0.0
O386 O 0.26454 0.85825 0.74718 0.0
O387 O 0.28785 0.781 0.71864 0.0
O388 O 0.24397 0.71614 0.69593 0.0
O389 O 0.21532 0.76449 0.69264 0.0
O390 O 0.31107 0.84079 0.73644 0.0
O391 O 0.21012 0.82082 0.71057 0.0
C392 C 0.23571 0.69506 0.78631 0.0
C393 C 0.28021 0.60305 0.76171 0.0
C394 C 0.30165 0.57389 0.81931 0.0
C395 C 0.29578 0.60775 0.79725 0.0
C396 C 0.28581 0.53244 0.80723 0.0
C397 C 0.26461 0.56212 0.749 0.0
C398 C 0.26641 0.5264 0.77215 0.0
C399 C 0.31457 0.7713 0.81086 0.0
C400 C 0.28618 0.6426 0.73778 0.0
C401 C 0.4157 0.78651 0.64706 0.0
C402 C 0.44217 0.81221 0.67405 0.0
C403 C 0.31799 0.81908 0.71731 0.0
C404 C 0.25983 0.89119 0.68891 0.0
C405 C 0.23468 0.89103 0.65684 0.0
C406 C 0.25033 0.92269 0.62839 0.0
C407 C 0.29335 0.95239 0.63117 0.0
C408 C 0.30305 0.92117 0.69196 0.0
C409 C 0.31986 0.9508 0.66279 0.0
C410 C 0.2186 0.73354 0.68014 0.0
C411 C 0.23941 0.85994 0.7184 0.0
H412 H 0.30867 0.63979 0.80677 0.0
H413 H 0.29081 0.50593 0.82403 0.0
H414 H 0.25253 0.5583 0.72122 0.0
H415 H 0.25515 0.49489 0.76238 0.0
H416 H 0.2012 0.86889 0.6555 0.0
H417 H 0.30571 0.9781 0.60989 0.0
H418 H 0.3237 0.92227 0.71675 0.0
H419 H 0.35298 0.97403 0.6653 0.0
Eu420 Eu 0.23383 0.22813 0.78078 0.0
C421 C 0.36005 0.37351 0.68245 0.0
C422 C 0.31617 0.38103 0.62767 0.0
C423 C 0.38542 0.44126 0.6424 0.0
C424 C 0.32261 0.35629 0.65976 0.0
C425 C 0.39213 0.41601 0.6738 0.0
C426 C 0.34749 0.42382 0.6194 0.0
C427 C 0.43621 0.40451 0.7267 0.0
N428 N 0.36582 0.34803 0.71229 0.0
C429 C 0.40363 0.36251 0.73403 0.0
C430 C 0.43038 0.43152 0.69656 0.0
Eu431 Eu 0.30964 0.27664 0.72215 0.0
N432 N 0.29336 0.31453 0.66812 0.0
C433 C 0.25819 0.29457 0.64447 0.0
C434 C 0.27898 0.36154 0.60433 0.0
C435 C 0.25006 0.31791 0.61263 0.0
H436 H 0.40892 0.34204 0.75728 0.0
H437 H 0.22166 0.30208 0.59442 0.0
H438 H 0.34305 0.44334 0.59494 0.0
H439 H 0.46588 0.41593 0.74423 0.0
H440 H 0.23594 0.26061 0.64999 0.0
H441 H 0.32336 0.21225 0.91027 0.0
H442 H 0.27283 0.37946 0.57947 0.0
H443 H 0.137 0.15769 0.74587 0.0
H444 H 0.30782 0.25011 0.85302 0.0
H445 H 0.08212 0.08272 0.76054 0.0
H446 H 0.40964 0.47402 0.63537 0.0
H447 H 0.27479 0.13441 0.92705 0.0
H448 H 0.20662 0.0677 0.91266 0.0
H449 H 0.45581 0.46394 0.6908 0.0
H450 H 0.14084 0.03273 0.87225 0.0
N451 N 0.25221 0.19366 0.8359 0.0
C452 C 0.28663 0.21591 0.8594 0.0
C453 C 0.26809 0.15071 0.90147 0.0
C454 C 0.23157 0.12882 0.8782 0.0
C455 C 0.29552 0.19462 0.89215 0.0
C456 C 0.22434 0.15151 0.84517 0.0
H457 H 0.09406 0.03817 0.81575 0.0
N458 N 0.18051 0.15538 0.79172 0.0
C459 C 0.11163 0.09603 0.77811 0.0
C460 C 0.18732 0.13183 0.82246 0.0
C461 C 0.1429 0.13856 0.76989 0.0
C462 C 0.11852 0.07098 0.80926 0.0
C463 C 0.15652 0.08892 0.83206 0.0
O464 O 0.17992 0.23889 0.78251 0.0
O465 O 0.25143 0.27914 0.73237 0.0
O466 O 0.32135 0.33383 0.75061 0.0
O467 O 0.29086 0.28964 0.79949 0.0
O468 O 0.18934 0.23282 0.73138 0.0
O469 O 0.23398 0.2604 0.82371 0.0
O470 O 0.3596 0.25944 0.72035 0.0
O471 O 0.2913 0.22574 0.77015 0.0
O472 O 0.22333 0.17195 0.75229 0.0
O473 O 0.25021 0.21752 0.70281 0.0
O474 O 0.35343 0.27148 0.7724 0.0
O475 O 0.30747 0.24495 0.67762 0.0
C476 C 0.21452 0.26785 0.71413 0.0
C477 C 0.16846 0.24467 0.83812 0.0
C478 C 0.1418 0.2689 0.87723 0.0
C479 C 0.1707 0.27833 0.85458 0.0
C480 C 0.11102 0.22528 0.884 0.0
C481 C 0.13823 0.20098 0.8453 0.0
C482 C 0.10962 0.19138 0.86835 0.0
C483 C 0.3128 0.32877 0.78301 0.0
C484 C 0.19638 0.25709 0.81194 0.0
C485 C 0.1641 0.06574 0.86445 0.0
C486 C 0.20156 0.08564 0.88744 0.0
C487 C 0.32751 0.23656 0.78915 0.0
C488 C 0.37222 0.25508 0.66465 0.0
C489 C 0.36803 0.22168 0.6464 0.0
C490 C 0.39816 0.23011 0.62512 0.0
C491 C 0.43212 0.27246 0.62165 0.0
C492 C 0.40581 0.2975 0.66054 0.0
C493 C 0.43561 0.30608 0.63901 0.0
C494 C 0.22731 0.17822 0.71856 0.0
C495 C 0.34317 0.24372 0.68992 0.0
H496 H 0.19377 0.31219 0.84859 0.0
H497 H 0.0881 0.2176 0.90125 0.0
H498 H 0.1362 0.17464 0.83266 0.0
H499 H 0.08592 0.15779 0.87362 0.0
H500 H 0.34236 0.18873 0.64989 0.0
H501 H 0.4559 0.27943 0.60551 0.0
H502 H 0.40948 0.3236 0.67448 0.0
H503 H 0.46182 0.33864 0.63622 0.0
Eu504 Eu 0.79269 0.20697 0.75929 0.0
C505 C 0.73324 0.3374 0.67125 0.0
C506 C 0.79757 0.40062 0.65593 0.0
C507 C 0.73237 0.38289 0.6152 0.0
C508 C 0.77604 0.36362 0.67935 0.0
C509 C 0.71062 0.34771 0.63968 0.0
C510 C 0.77585 0.40923 0.62327 0.0
C511 C 0.64623 0.29202 0.66124 0.0
N512 N 0.71313 0.30404 0.6957 0.0
C513 C 0.6701 0.28317 0.6922 0.0
C514 C 0.66662 0.32373 0.63449 0.0
Eu515 Eu 0.75606 0.29043 0.74671 0.0
N516 N 0.79582 0.35522 0.71149 0.0
C517 C 0.83575 0.38497 0.72342 0.0
C518 C 0.83974 0.42902 0.66679 0.0
C519 C 0.85842 0.42213 0.70117 0.0
H520 H 0.65423 0.25869 0.71284 0.0
H521 H 0.89053 0.44487 0.7103 0.0
H522 H 0.79199 0.43731 0.60479 0.0
H523 H 0.61216 0.27434 0.65801 0.0
H524 H 0.85069 0.3797 0.74981 0.0
H525 H 0.65151 0.05013 0.78037 0.0
H526 H 0.85772 0.45695 0.64926 0.0
H527 H 0.89037 0.24516 0.80647 0.0
H528 H 0.69241 0.12094 0.74833 0.0
H529 H 0.92662 0.22186 0.86166 0.0
H530 H 0.71562 0.39102 0.59058 0.0
H531 H 0.68335 0.02465 0.837 0.0
H532 H 0.74593 0.03725 0.88313 0.0
H533 H 0.64805 0.33066 0.6106 0.0
H534 H 0.81992 0.08369 0.90531 0.0
N535 N 0.74827 0.13726 0.78639 0.0
C536 C 0.70759 0.11101 0.77282 0.0
C537 C 0.70193 0.05614 0.823 0.0
C538 C 0.7438 0.08244 0.83645 0.0
C539 C 0.68385 0.07041 0.79103 0.0
C540 C 0.76673 0.12349 0.81739 0.0
H541 H 0.88711 0.15219 0.89765 0.0
N542 N 0.83072 0.18967 0.81195 0.0
C543 C 0.89351 0.20156 0.85326 0.0
C544 C 0.80874 0.15021 0.83039 0.0
C545 C 0.87298 0.21455 0.82207 0.0
C546 C 0.87104 0.16223 0.87349 0.0
C547 C 0.8284 0.13577 0.86201 0.0
O548 O 0.85144 0.21495 0.74651 0.0
O549 O 0.81073 0.27975 0.74034 0.0
O550 O 0.72814 0.25214 0.69851 0.0
O551 O 0.73421 0.18677 0.71878 0.0
O552 O 0.81119 0.24177 0.70574 0.0
O553 O 0.79183 0.15564 0.73416 0.0
O554 O 0.72379 0.29121 0.78794 0.0
O555 O 0.75052 0.2267 0.77665 0.0
O556 O 0.81476 0.24225 0.80905 0.0
O557 O 0.81709 0.30901 0.78412 0.0
O558 O 0.69519 0.23102 0.7628 0.0
O559 O 0.76773 0.35236 0.76367 0.0
C560 C 0.81955 0.28085 0.71011 0.0
C561 C 0.85566 0.15229 0.73497 0.0
C562 C 0.88663 0.12282 0.70423 0.0
C563 C 0.86216 0.14434 0.7034 0.0
C564 C 0.90435 0.10877 0.73689 0.0
C565 C 0.87265 0.13756 0.76762 0.0
C566 C 0.89699 0.11579 0.76849 0.0
C567 C 0.71981 0.21126 0.69516 0.0
C568 C 0.8324 0.1776 0.73226 0.0
C569 C 0.80532 0.09515 0.88093 0.0
C570 C 0.76319 0.06866 0.86826 0.0
C571 C 0.7118 0.20575 0.78001 0.0
C572 C 0.70724 0.35019 0.77807 0.0
C573 C 0.68752 0.34676 0.80642 0.0
C574 C 0.65507 0.35915 0.80083 0.0
C575 C 0.64218 0.37501 0.76681 0.0
C576 C 0.69474 0.36675 0.74406 0.0
C577 C 0.66216 0.3789 0.73849 0.0
C578 C 0.82383 0.28336 0.8118 0.0
C579 C 0.73872 0.33374 0.78411 0.0
H580 H 0.84913 0.15595 0.6781 0.0
H581 H 0.92376 0.09242 0.73786 0.0
H582 H 0.86748 0.1431 0.7922 0.0
H583 H 0.91048 0.10472 0.79367 0.0
H584 H 0.6973 0.33436 0.83279 0.0
H585 H 0.61738 0.38518 0.7624 0.0
H586 H 0.70995 0.37017 0.72183 0.0
H587 H 0.65254 0.39152 0.71226 0.0
Eu588 Eu 0.74466 0.70881 0.71869 0.0
C589 C 0.87936 0.8409 0.82444 0.0
C590 C 0.87547 0.79129 0.87852 0.0
C591 C 0.93844 0.86089 0.87213 0.0
C592 C 0.85724 0.80159 0.84436 0.0
C593 C 0.91996 0.87131 0.83836 0.0
C594 C 0.91628 0.82094 0.89212 0.0
C595 C 0.91984 0.92153 0.7856 0.0
N596 N 0.86059 0.85021 0.79204 0.0
C597 C 0.87946 0.89047 0.77309 0.0
C598 C 0.94035 0.91178 0.81828 0.0
Eu599 Eu 0.79058 0.79838 0.77463 0.0
N600 N 0.81778 0.77361 0.83055 0.0
C601 C 0.79422 0.73566 0.85015 0.0
C602 C 0.85194 0.75168 0.89818 0.0
C603 C 0.81107 0.72385 0.88395 0.0
H604 H 0.86298 0.89859 0.74835 0.0
H605 H 0.79244 0.6933 0.89903 0.0
H606 H 0.93078 0.81352 0.91827 0.0
H607 H 0.93483 0.95318 0.77029 0.0
H608 H 0.76269 0.71375 0.83968 0.0
H609 H 0.75775 0.81574 0.59313 0.0
H610 H 0.86487 0.74252 0.92445 0.0
H611 H 0.65829 0.61609 0.74392 0.0
H612 H 0.78357 0.7887 0.65117 0.0
H613 H 0.58242 0.57795 0.72405 0.0
H614 H 0.96963 0.88378 0.88322 0.0
H615 H 0.68169 0.78171 0.57038 0.0
H616 H 0.60878 0.72425 0.57876 0.0
H617 H 0.97146 0.93607 0.82812 0.0
H618 H 0.56116 0.66072 0.61469 0.0
N619 N 0.72267 0.73962 0.66283 0.0
C620 C 0.75025 0.77311 0.64222 0.0
C621 C 0.69282 0.76951 0.59624 0.0
C622 C 0.66482 0.73429 0.61673 0.0
C623 C 0.73573 0.7888 0.60897 0.0
C624 C 0.68083 0.71963 0.65034 0.0
H625 H 0.55094 0.60641 0.6687 0.0
N626 N 0.67004 0.66979 0.7027 0.0
C627 C 0.6019 0.60823 0.70917 0.0
C628 C 0.65381 0.68408 0.67089 0.0
C629 C 0.64502 0.63076 0.72074 0.0
C630 C 0.58433 0.62428 0.67787 0.0
C631 C 0.61037 0.66198 0.65791 0.0
O632 O 0.72516 0.6411 0.71105 0.0
O633 O 0.79294 0.73658 0.76585 0.0
O634 O 0.84177 0.81419 0.74224 0.0
O635 O 0.80882 0.75859 0.70427 0.0
O636 O 0.77065 0.67064 0.76273 0.0
O637 O 0.77225 0.69452 0.68007 0.0
O638 O 0.7841 0.85869 0.77118 0.0
O639 O 0.73925 0.76896 0.72866 0.0
O640 O 0.70734 0.6849 0.76422 0.0
O641 O 0.72763 0.74826 0.79026 0.0
O642 O 0.77989 0.836 0.72208 0.0
O643 O 0.76444 0.80909 0.8159 0.0
C644 C 0.79714 0.70205 0.78153 0.0
C645 C 0.7499 0.61804 0.66966 0.0
C646 C 0.78268 0.59469 0.6347 0.0
C647 C 0.78173 0.62832 0.64935 0.0
C648 C 0.75108 0.5511 0.63981 0.0
C649 C 0.7185 0.57424 0.67424 0.0
C650 C 0.71912 0.54107 0.65931 0.0
C651 C 0.84098 0.79492 0.71562 0.0
C652 C 0.74933 0.65207 0.68694 0.0
C653 C 0.59439 0.67719 0.6249 0.0
C654 C 0.62152 0.71326 0.6044 0.0
C655 C 0.74548 0.80497 0.7083 0.0
C656 C 0.78331 0.88311 0.82409 0.0
C657 C 0.75635 0.88024 0.84669 0.0
C658 C 0.76832 0.91476 0.86715 0.0
C659 C 0.80724 0.95218 0.8649 0.0
C660 C 0.82218 0.92094 0.82215 0.0
C661 C 0.834 0.95519 0.84248 0.0
C662 C 0.70262 0.70662 0.78586 0.0
C663 C 0.76885 0.84795 0.80098 0.0
H664 H 0.80624 0.66191 0.64576 0.0
H665 H 0.75098 0.52477 0.62846 0.0
H666 H 0.69342 0.56549 0.68949 0.0
H667 H 0.69487 0.50743 0.66302 0.0
H668 H 0.72601 0.85152 0.8481 0.0
H669 H 0.8167 0.9792 0.8803 0.0
H670 H 0.84313 0.92451 0.80453 0.0
H671 H 0.86384 0.98436 0.84061 0.0
C672 C 0.9811 0.10074 0.54826 0.0
C673 C 0.98925 0.10783 0.44398 0.0
C674 C 0.94236 0.93451 0.45745 0.0
Mg675 Mg 0.04803 0.10408 0.51 0.0
O676 O 1.01417 0.04273 0.52065 0.0
Mg677 Mg 0.95442 0.01728 0.49921 0.0
Mg678 Mg 0.02895 1.00148 0.50519 0.0
O679 O 0.04359 0.96198 0.48743 0.0
Mg680 Mg 1.00963 0.90006 0.49317 0.0
Mg681 Mg 0.10282 0.9881 0.50992 0.0
C682 C 0.11278 0.07445 0.54092 0.0
C683 C 0.09139 0.0583 0.44725 0.0
O684 O 0.95375 0.06727 0.5318 0.0
O685 O 0.02071 0.11874 0.54606 0.0
O686 O 0.96804 0.06622 0.45018 0.0
O687 O 0.0251 0.12909 0.4612 0.0
O688 O 0.10581 0.0986 0.51375 0.0
O689 O 0.09302 0.03236 0.54094 0.0
C690 C 0.96718 0.94939 0.56464 0.0
O691 O 0.99945 0.95354 0.55303 0.0
O692 O 0.94525 0.96909 0.54833 0.0
O693 O 0.10953 0.94336 0.47792 0.0
O694 O 0.04696 0.88429 0.46661 0.0
O695 O 0.08166 0.93421 0.55424 0.0
C696 C 0.08632 0.90721 0.46397 0.0
O697 O 1.01655 0.87899 0.54857 0.0
O698 O 0.95185 0.90211 0.4651 0.0
C699 C 0.05193 0.89942 0.56717 0.0
O700 O 0.96578 0.97121 0.47077 0.0
O701 O 0.05725 0.04995 0.45794 0.0
O702 O 0.11491 0.04031 0.46353 0.0
C703 C 0.41297 0.05791 0.01782 0.0
C704 C 0.43684 0.08601 0.91619 0.0
C705 C 0.44603 0.90865 0.966 0.0
Mg706 Mg 0.49669 0.09014 0.99113 0.0
O707 O 0.48019 0.02995 0.9938 0.0
Mg708 Mg 0.42228 0.99036 0.97247 0.0
Mg709 Mg 0.51468 0.99631 -7e-05 0.0
O710 O 0.55016 0.96397 0.00564 0.0
Mg711 Mg 0.53543 0.90584 0.00314 0.0
Mg712 Mg 0.61037 0.00451 0.02219 0.0
C713 C 0.58377 0.08328 0.03584 0.0
C714 C 0.58806 0.05646 0.94568 0.0
O715 O 0.39734 0.02707 0.99742 0.0
O716 O 0.45236 0.08444 0.02273 0.0
O717 O 0.42294 0.04342 0.92056 0.0
O718 O 0.46715 0.11011 0.93845 0.0
O719 O 0.56114 0.10351 0.0206 0.0
O720 O 0.57131 0.04164 0.0353 0.0
C721 C 0.43691 0.93668 0.05022 0.0
O722 O 0.47704 0.95204 0.05019 0.0
O723 O 0.41442 0.94614 0.02344 0.0
O724 O 0.63444 0.96895 0.99298 0.0
O725 O 0.57596 0.91571 0.96657 0.0
O726 O 0.61371 0.94983 0.07325 0.0
C727 C 0.61572 0.94027 0.97048 0.0
O728 O 0.56555 0.88504 0.05397 0.0
O729 O 0.46939 0.88912 0.98004 0.0
C730 C 0.59699 0.9069 0.07654 0.0
O731 O 0.45969 0.95083 0.96392 0.0
O732 O 0.54899 0.03927 0.94976 0.0
O733 O 0.61459 0.04982 0.97023 0.0
C734 C 0.94749 0.59402 0.02886 0.0
C735 C 0.93887 0.59374 0.91988 0.0
C736 C 0.93645 0.41901 0.97232 0.0
Mg737 Mg 1.01439 0.60745 0.98421 0.0
O738 O 0.99274 0.5461 0.99902 0.0
Mg739 Mg 0.93069 0.50836 0.98694 0.0
Mg740 Mg 0.02025 0.50634 0.99687 0.0
O741 O 0.04629 0.46717 0.99508 0.0
Mg742 Mg 0.02143 0.40695 0.009 0.0
Mg743 Mg 0.10816 0.50096 0.00848 0.0
C744 C 0.09413 0.59089 0.01924 0.0
C745 C 0.08627 0.55827 0.9355 0.0
O746 O 0.92183 0.55812 0.01465 0.0
O747 O 0.98647 0.61584 0.02431 0.0
O748 O 0.92285 0.55266 0.93257 0.0
O749 O 0.97525 0.62088 0.93412 0.0
O750 O 0.07614 0.60449 0.9906 0.0
O751 O 0.08472 0.54936 0.02715 0.0
C752 C 0.95779 0.45515 0.05993 0.0
O753 O 0.99376 0.46628 0.0507 0.0
O754 O 0.93131 0.46706 0.04015 0.0
O755 O 0.11402 0.45225 0.97771 0.0
O756 O 0.04778 0.397 0.97045 0.0
O757 O 0.11379 0.45054 0.0624 0.0
C758 C 0.08561 0.41747 0.96339 0.0
O759 O 0.05654 0.38588 0.05691 0.0
O760 O 0.95574 0.39605 0.98928 0.0
C761 C 0.09389 0.40862 0.07242 0.0
O762 O 0.95485 0.46172 0.96824 0.0
O763 O 0.04922 0.54764 0.9426 0.0
O764 O 0.11086 0.54506 0.95684 0.0
C765 C 0.47341 0.59229 0.05099 0.0
C766 C 0.50076 0.61721 0.95007 0.0
C767 C 0.44218 0.44723 0.94303 0.0
Mg768 Mg 0.5478 0.60341 0.01398 0.0
O769 O 0.51048 0.5405 0.01929 0.0
Mg770 Mg 0.45163 0.51875 0.99508 0.0
Mg771 Mg 0.5254 0.50239 0.00017 0.0
O772 O 0.54082 0.4639 0.98202 0.0
Mg773 Mg 0.50284 0.40413 0.97845 0.0
Mg774 Mg 0.59569 0.47964 0.01284 0.0
C775 C 0.60891 0.56085 0.05224 0.0
C776 C 0.60018 0.55986 0.95331 0.0
O777 O 0.44674 0.55846 0.03463 0.0
O778 O 0.51252 0.61347 0.04673 0.0
O779 O 0.4825 0.58048 0.9669 0.0
O780 O 0.53935 0.64042 0.96112 0.0
O781 O 0.6042 0.59598 0.04021 0.0
O782 O 0.58242 0.52278 0.04227 0.0
C783 C 0.45308 0.43955 0.0494 0.0
O784 O 0.48875 0.44925 0.04113 0.0
O785 O 0.43069 0.45853 0.0331 0.0
O786 O 0.60511 0.4391 0.97852 0.0
O787 O 0.54212 0.39293 0.95133 0.0
O788 O 0.56545 0.41687 0.05026 0.0
C789 C 0.58254 0.41045 0.95656 0.0
O790 O 0.50117 0.36758 0.02903 0.0
O791 O 0.44856 0.41284 0.95044 0.0
C792 C 0.53254 0.37973 0.05337 0.0
O793 O 0.46644 0.48264 0.95813 0.0
O794 O 0.56498 0.55534 0.95948 0.0
O795 O 0.61877 0.53777 0.97213 0.0
C796 C 0.92959 0.57239 0.52488 0.0
C797 C 0.94617 0.59792 0.41927 0.0
C798 C 0.95217 0.41684 0.47173 0.0
Mg799 Mg 1.0078 0.59836 0.49131 0.0
O800 O 0.9886 0.53798 0.4951 0.0
Mg801 Mg 0.92881 0.5006 0.47656 0.0
Mg802 Mg 0.02089 0.50257 0.49913 0.0
O803 O 0.05318 0.46572 0.50399 0.0
Mg804 Mg 0.03263 0.40406 0.51473 0.0
Mg805 Mg 0.11234 0.50415 0.52356 0.0
C806 C 0.09466 0.58983 0.52939 0.0
C807 C 0.09662 0.55873 0.44715 0.0
O808 O 0.90968 0.53954 0.50628 0.0
O809 O 0.96912 0.59768 0.52595 0.0
O810 O 0.92661 0.55517 0.42503 0.0
O811 O 0.98009 0.61957 0.43971 0.0
O812 O 0.07279 0.61068 0.51413 0.0
O813 O 0.07899 0.54728 0.53379 0.0
C814 C 0.94573 0.44367 0.55151 0.0
O815 O 0.98532 0.4587 0.54988 0.0
O816 O 0.92234 0.45446 0.5265 0.0
O817 O 0.12866 0.46036 0.49713 0.0
O818 O 0.06832 0.40202 0.47824 0.0
O819 O 0.11595 0.45669 0.57762 0.0
C820 C 0.10805 0.42702 0.47894 0.0
O821 O 0.0682 0.38866 0.56607 0.0
O822 O 0.96837 0.40218 0.50099 0.0
C823 C 0.10145 0.4144 0.58506 0.0
O824 O 0.96292 0.4585 0.46306 0.0
O825 O 0.05737 0.54629 0.4487 0.0
O826 O 0.11869 0.54647 0.47236 0.0
C827 C 0.44883 0.08796 0.52522 0.0
C828 C 0.4388 0.0863 0.41677 0.0
C829 C 0.44261 0.91298 0.47716 0.0
Mg830 Mg 0.51478 0.10049 0.47962 0.0
O831 O 0.49375 0.04088 0.49669 0.0
Mg832 Mg 0.43189 1.00209 0.48568 0.0
Mg833 Mg 0.52287 0.00345 0.49801 0.0
O834 O 0.55158 0.96546 0.49865 0.0
Mg835 Mg 0.53021 0.90658 0.51826 0.0
Mg836 Mg 0.61328 0.00405 0.50976 0.0
C837 C 0.6026 0.09431 0.52009 0.0
C838 C 0.5845 0.05074 0.43387 0.0
O839 O 0.42218 0.05106 0.51303 0.0
O840 O 0.48618 0.11041 0.51707 0.0
O841 O 0.42306 0.04562 0.43068 0.0
O842 O 0.47596 0.11384 0.42944 0.0
O843 O 0.58195 0.11495 0.50081 0.0
O844 O 0.58709 0.05174 0.52504 0.0
C845 C 0.45987 0.95478 0.5613 0.0
O846 O 0.49715 0.96727 0.55394 0.0
O847 O 0.43294 0.96354 0.53908 0.0
O848 O 0.62359 0.9519 0.48599 0.0
O849 O 0.56112 0.89062 0.48652 0.0
O850 O 0.62172 0.96228 0.56564 0.0
C851 C 0.59875 0.9119 0.47877 0.0
O852 O 0.56712 0.89536 0.56996 0.0
O853 O 0.4634 0.89214 0.49569 0.0
C854 C 0.60504 0.92252 0.58127 0.0
O855 O 0.45885 0.95544 0.47098 0.0
O856 O 0.54829 0.03989 0.44262 0.0
O857 O 0.61158 0.04092 0.45495 0.0
H858 H 0.14602 0.20564 0.31817 0.0
H859 H 0.21203 0.13233 0.31026 0.0
H860 H 0.18035 0.07899 0.35799 0.0
H861 H 0.13879 0.05578 0.40507 0.0
H862 H 0.06966 0.1247 0.4154 0.0
H863 H 0.09638 0.17628 0.3632 0.0
C864 C 0.15256 0.17743 0.32663 0.0
C865 C 0.18125 0.17289 0.3106 0.0
C866 C 0.13386 0.14622 0.35466 0.0
C867 C 0.18999 0.13661 0.32176 0.0
C868 C 0.17192 0.10593 0.34934 0.0
C869 C 0.12957 0.08216 0.39604 0.0
C870 C 0.10358 0.08754 0.41456 0.0
C871 C 0.14472 0.11103 0.36645 0.0
C872 C 0.09048 0.12066 0.4018 0.0
C873 C 0.10575 0.15007 0.37205 0.0
H874 H 0.8697 0.17842 0.3604 0.0
H875 H 0.79086 0.0794 0.43517 0.0
H876 H 0.85435 0.08379 0.47459 0.0
H877 H 0.92435 0.09188 0.47408 0.0
H878 H 0.9976 0.17568 0.39141 0.0
H879 H 0.94286 0.20012 0.36717 0.0
C880 C 0.86493 0.15769 0.38525 0.0
C881 C 0.82467 0.1243 0.39275 0.0
C882 C 0.90083 0.15661 0.4054 0.0
C883 C 0.82129 0.10238 0.42719 0.0
C884 C 0.85758 0.10479 0.44965 0.0
C885 C 0.92888 0.11652 0.4514 0.0
C886 C 0.96346 0.13084 0.43331 0.0
C887 C 0.89655 0.12771 0.43683 0.0
C888 C 0.9702 0.16351 0.40468 0.0
C889 C 0.93909 0.17736 0.39115 0.0
H890 H 0.88708 0.89571 0.30222 0.0
H891 H 0.76461 0.83108 0.33702 0.0
H892 H 0.79435 0.86521 0.39169 0.0
H893 H 0.85767 0.89994 0.43499 0.0
H894 H 0.97918 0.96987 0.39916 0.0
H895 H 0.94744 0.94794 0.33972 0.0
C896 C 0.86667 0.89021 0.32118 0.0
C897 C 0.82405 0.8591 0.31611 0.0
C898 C 0.88394 0.91052 0.35283 0.0
C899 C 0.79795 0.85338 0.34074 0.0
C900 C 0.81487 0.87297 0.37219 0.0
C901 C 0.8767 0.91212 0.41367 0.0
C902 C 0.92046 0.93636 0.42123 0.0
C903 C 0.85822 0.89955 0.37942 0.0
C904 C 0.94516 0.95155 0.39361 0.0
C905 C 0.92714 0.93854 0.35973 0.0
H906 H 0.13507 0.83153 0.35569 0.0
H907 H 0.17896 0.96682 0.3091 0.0
H908 H 0.16277 0.98611 0.35941 0.0
H909 H 0.13104 0.96325 0.41386 0.0
H910 H 0.08023 0.82684 0.45781 0.0
H911 H 0.105 0.80899 0.4117 0.0
C912 C 0.14157 0.8653 0.35694 0.0
C913 C 0.15798 0.8978 0.32889 0.0
C914 C 0.13096 0.87575 0.38536 0.0
C915 C 0.16599 0.94135 0.33039 0.0
C916 C 0.15683 0.95234 0.35909 0.0
C917 C 0.12603 0.92974 0.41359 0.0
C918 C 0.10417 0.89628 0.439 0.0
C919 C 0.13858 0.91964 0.38631 0.0
C920 C 0.09698 0.85288 0.43826 0.0
C921 C 0.11105 0.84279 0.41197 0.0
H922 H 0.18635 0.86822 0.58345 0.0
H923 H 0.24052 0.99652 0.61974 0.0
H924 H 0.17121 0.98466 0.62807 0.0
H925 H 0.0961 0.93513 0.62907 0.0
H926 H 0.03995 0.81286 0.58468 0.0
H927 H 0.10979 0.81934 0.58294 0.0
C928 C 0.18248 0.89452 0.59113 0.0
C929 C 0.21839 0.93187 0.60334 0.0
C930 C 0.14311 0.88587 0.59856 0.0
C931 C 0.21324 0.96664 0.61167 0.0
C932 C 0.17401 0.959 0.61826 0.0
C933 C 0.09953 0.90912 0.62036 0.0
C934 C 0.06463 0.87806 0.60064 0.0
C935 C 0.1393 0.91778 0.61369 0.0
C936 C 0.06769 0.84079 0.59518 0.0
C937 C 0.10743 0.84548 0.59242 0.0
H938 H 0.17413 0.19034 0.66546 0.0
H939 H 0.21541 0.09331 0.71802 0.0
H940 H 0.17805 0.04832 0.66804 0.0
H941 H 0.14263 0.04354 0.60533 0.0
H942 H 0.10873 0.14722 0.55348 0.0
H943 H 0.13333 0.18224 0.60738 0.0
C944 C 0.1738 0.15871 0.66641 0.0
C945 C 0.19723 0.14503 0.69494 0.0
C946 C 0.15396 0.13457 0.63741 0.0
C947 C 0.19717 0.10418 0.69615 0.0
C948 C 0.17626 0.07887 0.66746 0.0
C949 C 0.14014 0.0734 0.60614 0.0
C950 C 0.12405 0.09264 0.57522 0.0
C951 C 0.15598 0.09474 0.63725 0.0
C952 C 0.12104 0.13149 0.57659 0.0
C953 C 0.13517 0.15178 0.60749 0.0
H954 H 0.95903 0.16904 0.67694 0.0
H955 H 0.83297 0.06506 0.65709 0.0
H956 H 0.8495 0.05226 0.60353 0.0
H957 H 0.90226 0.06611 0.56637 0.0
H958 H 0.02866 0.17072 0.58685 0.0
H959 H 1.00927 0.18869 0.63564 0.0
C960 C 0.93533 0.14376 0.66065 0.0
C961 C 0.89539 0.11716 0.67093 0.0
C962 C 0.94507 0.13687 0.63013 0.0
C963 C 0.8642 0.08522 0.6496 0.0
C964 C 0.87363 0.07805 0.6191 0.0
C965 C 0.92545 0.09321 0.58117 0.0
C966 C 0.96712 0.11631 0.57345 0.0
C967 C 0.91433 0.10296 0.60965 0.0
C968 C 0.99653 0.15185 0.59256 0.0
C969 C 0.98556 0.16212 0.62058 0.0
H970 H 0.89315 0.88236 0.70626 0.0
H971 H 0.8657 0.75709 0.67556 0.0
H972 H 0.90978 0.79475 0.62854 0.0
H973 H 0.94548 0.8632 0.58964 0.0
H974 H 0.96709 0.98731 0.61833 0.0
H975 H 0.93691 0.9506 0.67292 0.0
C976 C 0.89794 0.86329 0.69015 0.0
C977 C 0.87587 0.81712 0.69416 0.0
C978 C 0.92195 0.88511 0.66235 0.0
C979 C 0.88205 0.79283 0.6727 0.0
C980 C 0.90712 0.81431 0.64569 0.0
C981 C 0.94457 0.88205 0.60847 0.0
C982 C 0.95799 0.92754 0.6002 0.0
C983 C 0.92561 0.86043 0.6392 0.0
C984 C 0.95654 0.95203 0.62438 0.0
C985 C 0.9392 0.9311 0.65546 0.0
H986 H 0.27178 0.03054 0.10187 0.0
H987 H 0.3451 0.17147 0.10339 0.0
H988 H 0.39733 0.17046 0.07352 0.0
H989 H 0.4202 0.12962 0.04392 0.0
H990 H 0.34197 0.9899 0.03824 0.0
H991 H 0.29242 0.99119 0.07006 0.0
C992 C 0.29878 0.06122 0.09528 0.0
C993 C 0.30411 0.10093 0.10478 0.0
C994 C 0.32775 0.06074 0.07695 0.0
C995 C 0.34023 0.14017 0.09688 0.0
C996 C 0.37003 0.13974 0.07951 0.0
C997 C 0.39251 0.09944 0.05023 0.0
C998 C 0.38449 0.05982 0.03846 0.0
C999 C 0.3639 0.10021 0.0691 0.0
C1000 C 0.34855 0.02096 0.04659 0.0
C1001 C 0.32046 0.02144 0.06551 0.0
H1002 H 0.88875 0.37977 0.20687 0.0
H1003 H 0.80103 0.2726 0.146 0.0
H1004 H 0.84317 0.30539 0.09742 0.0
H1005 H 0.89874 0.37017 0.06842 0.0
H1006 H 0.98412 0.4804 0.12686 0.0
H1007 H 0.94958 0.44159 0.17972 0.0
C1008 C 0.87992 0.36281 0.1835 0.0
C1009 C 0.84269 0.3225 0.18086 0.0
C1010 C 0.90358 0.38316 0.15476 0.0
C1011 C 0.8303 0.30248 0.14944 0.0
C1012 C 0.85419 0.32163 0.12138 0.0
C1013 C 0.91074 0.38495 0.09315 0.0
C1014 C 0.94473 0.42769 0.09391 0.0
C1015 C 0.89009 0.36267 0.12321 0.0
C1016 C 0.95895 0.44707 0.12582 0.0
C1017 C 0.9388 0.42499 0.15597 0.0
H1018 H 0.64622 0.75761 0.16766 0.0
H1019 H 0.7635 0.86845 0.19888 0.0
H1020 H 0.73682 0.91911 0.16205 0.0
H1021 H 0.67807 0.93233 0.12005 0.0
H1022 H 0.56002 0.81816 0.09479 0.0
H1023 H 0.58856 0.77006 0.13002 0.0
C1024 C 0.66636 0.79289 0.16655 0.0
C1025 C 0.70771 0.80838 0.18586 0.0
C1026 C 0.65002 0.822 0.14631 0.0
C1027 C 0.73222 0.85467 0.18391 0.0
C1028 C 0.71654 0.88392 0.16295 0.0
C1029 C 0.65819 0.89703 0.12272 0.0
C1030 C 0.61598 0.87992 0.1041 0.0
C1031 C 0.67513 0.86816 0.14396 0.0
C1032 C 0.59204 0.83348 0.10819 0.0
C1033 C 0.60856 0.80537 0.1285 0.0
H1034 H 0.1861 0.73614 0.12549 0.0
H1035 H 0.18627 0.62176 0.19453 0.0
H1036 H 0.14472 0.57503 0.14858 0.0
H1037 H 0.11398 0.56642 0.08789 0.0
H1038 H 0.11444 0.67863 0.01578 0.0
H1039 H 0.14964 0.72597 0.06383 0.0
C1040 C 0.17663 0.70097 0.13047 0.0
C1041 C 0.18964 0.68286 0.16349 0.0
C1042 C 0.15313 0.67369 0.1033 0.0
C1043 C 0.17701 0.63709 0.16955 0.0
C1044 C 0.15318 0.60998 0.14316 0.0
C1045 C 0.12151 0.60117 0.08252 0.0
C1046 C 0.11225 0.61906 0.0483 0.0
C1047 C 0.14204 0.62805 0.1098 0.0
C1048 C 0.12169 0.66409 0.04202 0.0
C1049 C 0.14185 0.69121 0.06941 0.0
H1050 H 0.34166 0.85172 0.82704 0.0
H1051 H 0.34222 0.72744 0.86993 0.0
H1052 H 0.37571 0.75654 0.92778 0.0
H1053 H 0.40756 0.81978 0.96323 0.0
H1054 H 0.39517 0.93882 0.9195 0.0
H1055 H 0.35496 0.90534 0.86567 0.0
C1056 C 0.34636 0.82977 0.84952 0.0
C1057 C 0.33812 0.78714 0.84483 0.0
C1058 C 0.36116 0.84483 0.88253 0.0
C1059 C 0.34851 0.76053 0.87318 0.0
C1060 C 0.36666 0.77679 0.90618 0.0
C1061 C 0.39497 0.83795 0.94234 0.0
C1062 C 0.40645 0.88267 0.94425 0.0
C1063 C 0.3732 0.81909 0.91096 0.0
C1064 C 0.38811 0.90498 0.91805 0.0
C1065 C 0.36585 0.88623 0.88703 0.0
H1066 H 0.07907 0.29156 0.86566 0.0
H1067 H 0.20556 0.32792 0.9194 0.0
H1068 H 0.20246 0.38406 0.94738 0.0
H1069 H 0.15939 0.41507 0.96232 0.0
H1070 H 0.03279 0.37728 0.90743 0.0
H1071 H 0.04049 0.33009 0.87348 0.0
C1072 C 0.10591 0.31201 0.88342 0.0
C1073 C 0.14185 0.3051 0.89164 0.0
C1074 C 0.10387 0.3439 0.89905 0.0
C1075 C 0.17722 0.33243 0.91356 0.0
C1076 C 0.17546 0.36443 0.9294 0.0
C1077 C 0.13409 0.39739 0.94225 0.0
C1078 C 0.09535 0.39867 0.93787 0.0
C1079 C 0.13838 0.36947 0.9232 0.0
C1080 C 0.06266 0.37593 0.91169 0.0
C1081 C 0.06692 0.34886 0.89233 0.0
H1082 H 0.62893 0.15777 0.79144 0.0
H1083 H 0.75543 0.18844 0.84307 0.0
H1084 H 0.72853 0.14447 0.89707 0.0
H1085 H 0.66955 0.09985 0.93124 0.0
H1086 H 0.54255 0.07188 0.88212 0.0
H1087 H 0.56898 0.11249 0.82636 0.0
C1088 C 0.65057 0.15439 0.81441 0.0
C1089 C 0.69441 0.17548 0.81231 0.0
C1090 C 0.63469 0.13002 0.84634 0.0
C1091 C 0.72173 0.17152 0.84291 0.0
C1092 C 0.70625 0.1467 0.87423 0.0
C1093 C 0.64737 0.10256 0.90848 0.0
C1094 C 0.6038 0.08273 0.91146 0.0
C1095 C 0.66286 0.12617 0.87645 0.0
C1096 C 0.57611 0.08688 0.88116 0.0
C1097 C 0.5913 0.11005 0.84907 0.0
H1098 H 0.7891 0.62352 0.81634 0.0
H1099 H 0.8818 0.75953 0.8083 0.0
H1100 H 0.9329 0.7395 0.85068 0.0
H1101 H 0.9525 0.68089 0.88898 0.0
H1102 H 0.85939 0.54438 0.88753 0.0
H1103 H 0.80902 0.5668 0.84938 0.0
C1104 C 0.82034 0.64931 0.82396 0.0
C1105 C 0.82997 0.69381 0.81012 0.0
C1106 C 0.85052 0.63688 0.84626 0.0
C1107 C 0.87169 0.72565 0.81984 0.0
C1108 C 0.90149 0.71375 0.8436 0.0
C1109 C 0.92142 0.65585 0.88 0.0
C1110 C 0.91078 0.61027 0.89186 0.0
C1111 C 0.89155 0.66916 0.85689 0.0
C1112 C 0.86965 0.57931 0.8795 0.0
C1113 C 0.84025 0.59222 0.85755 0.0
H1114 H 0.18106 0.28148 0.15137 0.0
H1115 H 0.2254 0.3724 0.22981 0.0
H1116 H 0.18808 0.41099 0.19453 0.0
H1117 H 0.14508 0.425 0.13935 0.0
H1118 H 0.09626 0.334 0.06088 0.0
H1119 H 0.13362 0.29288 0.09627 0.0
C1120 C 0.18401 0.3101 0.16065 0.0
C1121 C 0.21002 0.32409 0.19354 0.0
C1122 C 0.16124 0.33382 0.13938 0.0
C1123 C 0.20851 0.36031 0.20459 0.0
C1124 C 0.18655 0.38325 0.18417 0.0
C1125 C 0.14233 0.39614 0.12983 0.0
C1126 C 0.11709 0.38336 0.09682 0.0
C1127 C 0.16344 0.37132 0.15104 0.0
C1128 C 0.11461 0.34516 0.08601 0.0
C1129 C 0.13634 0.32129 0.10646 0.0
H1130 H 0.22608 0.70972 0.84999 0.0
H1131 H 0.16452 0.62057 0.76967 0.0
H1132 H 0.10945 0.57122 0.80659 0.0
H1133 H 0.08183 0.55017 0.86475 0.0
H1134 H 0.14096 0.64304 0.94249 0.0
H1135 H 0.1925 0.69425 0.90364 0.0
C1136 C 0.1999 0.68013 0.84014 0.0
C1137 C 0.19881 0.66972 0.80645 0.0
C1138 C 0.16752 0.65239 0.86125 0.0
C1139 C 0.16549 0.63022 0.79488 0.0
C1140 C 0.13402 0.6018 0.81617 0.0
C1141 C 0.10478 0.58242 0.87249 0.0
C1142 C 0.10646 0.593 0.9064 0.0
C1143 C 0.13478 0.61221 0.84967 0.0
C1144 C 0.13789 0.63437 0.91633 0.0
C1145 C 0.16798 0.66349 0.89428 0.0
H1146 H 0.31081 0.14537 0.79767 0.0
H1147 H 0.38843 0.26793 0.84341 0.0
H1148 H 0.42915 0.23472 0.88435 0.0
H1149 H 0.44578 0.17198 0.9072 0.0
H1150 H 0.37037 0.04852 0.86251 0.0
H1151 H 0.32739 0.08048 0.82208 0.0
C1152 C 0.33596 0.16455 0.81711 0.0
C1153 C 0.34531 0.20957 0.81745 0.0
C1154 C 0.36087 0.14511 0.84078 0.0
C1155 C 0.37944 0.23343 0.84244 0.0
C1156 C 0.40327 0.2144 0.86594 0.0
C1157 C 0.42035 0.15185 0.8884 0.0
C1158 C 0.4127 0.10746 0.88818 0.0
C1159 C 0.39495 0.17048 0.8652 0.0
C1160 C 0.37836 0.0827 0.86358 0.0
C1161 C 0.35321 0.10109 0.84035 0.0
H1162 H 0.83432 0.36134 0.82796 0.0
H1163 H 0.84231 0.24111 0.87514 0.0
H1164 H 0.86669 0.26889 0.93296 0.0
H1165 H 0.89464 0.33067 0.96784 0.0
H1166 H 0.89272 0.45347 0.91967 0.0
H1167 H 0.85358 0.41977 0.86525 0.0
C1168 C 0.84143 0.34116 0.85084 0.0
C1169 C 0.83807 0.29987 0.84694 0.0
C1170 C 0.85545 0.35735 0.88402 0.0
C1171 C 0.84601 0.2736 0.87713 0.0
C1172 C 0.85945 0.28924 0.9103 0.0
C1173 C 0.88498 0.35002 0.94575 0.0
C1174 C 0.89837 0.39522 0.94734 0.0
C1175 C 0.8655 0.33158 0.91379 0.0
C1176 C 0.88383 0.41895 0.91897 0.0
C1177 C 0.86207 0.39991 0.88759 0.0
H1178 H 0.70091 0.9318 0.84871 0.0
H1179 H 0.77484 0.89434 0.93821 0.0
H1180 H 0.73429 0.8993 0.97875 0.0
H1181 H 0.68 0.9181 0.98872 0.0
H1182 H 0.60446 0.95314 0.8991 0.0
H1183 H 0.64332 0.94569 0.85847 0.0
C1184 C 0.70755 0.92418 0.87707 0.0
C1185 C 0.74047 0.91263 0.89074 0.0
C1186 C 0.68438 0.92753 0.90009 0.0
C1187 C 0.74942 0.90319 0.92741 0.0
C1188 C 0.72646 0.90627 0.95049 0.0
C1189 C 0.67247 0.92436 0.96028 0.0
C1190 C 0.64014 0.93674 0.94669 0.0
C1191 C 0.69442 0.91923 0.93718 0.0
C1192 C 0.62963 0.94387 0.90991 0.0
C1193 C 0.65178 0.93963 0.88675 0.0
H1194 H 0.8846 0.70541 0.08917 0.0
H1195 H 0.97596 0.69806 0.17793 0.0
H1196 H 0.98584 0.64651 0.15006 0.0
H1197 H 0.97602 0.61224 0.0967 0.0
H1198 H 0.88462 0.61869 0.00773 0.0
H1199 H 0.86726 0.66197 0.03897 0.0
C1200 C 0.90589 0.69162 0.10261 0.0
C1201 C 0.92988 0.70564 0.13531 0.0
C1202 C 0.91195 0.66257 0.08604 0.0
C1203 C 0.95748 0.68782 0.1526 0.0
C1204 C 0.96326 0.65857 0.13661 0.0
C1205 C 0.95168 0.6224 0.08458 0.0
C1206 C 0.93166 0.61262 0.05005 0.0
C1207 C 0.94189 0.64706 0.10276 0.0
C1208 C 0.90013 0.6257 0.03445 0.0
C1209 C 0.89043 0.65063 0.05223 0.0
H1210 H 0.30303 0.81858 0.15721 0.0
H1211 H 0.41588 0.84706 0.23258 0.0
H1212 H 0.45943 0.89038 0.18597 0.0
H1213 H 0.46638 0.91975 0.12231 0.0
H1214 H 0.352 0.8908 0.04807 0.0
H1215 H 0.30971 0.85002 0.09492 0.0
C1216 C 0.33709 0.83489 0.1636 0.0
C1217 C 0.35578 0.82943 0.19872 0.0
C1218 C 0.3624 0.86 0.13639 0.0
C1219 C 0.40025 0.85062 0.20597 0.0
C1220 C 0.42543 0.8754 0.17915 0.0
C1221 C 0.4323 0.90411 0.11626 0.0
C1222 C 0.41323 0.90862 0.08094 0.0
C1223 C 0.40704 0.88002 0.14395 0.0
C1224 C 0.36853 0.88832 0.07448 0.0
C1225 C 0.34375 0.8647 0.10149 0.0
H1226 H 0.68458 0.14886 0.17922 0.0
H1227 H 0.71127 0.27601 0.12001 0.0
H1228 H 0.67516 0.24021 0.06525 0.0
H1229 H 0.63302 0.17164 0.03593 0.0
H1230 H 0.61118 0.04591 0.09688 0.0
H1231 H 0.65073 0.08274 0.14945 0.0
C1232 C 0.68244 0.16874 0.15424 0.0
C1233 C 0.69956 0.21462 0.15328 0.0
C1234 C 0.66363 0.14832 0.12339 0.0
C1235 C 0.69694 0.24038 0.12115 0.0
C1236 C 0.67709 0.22001 0.08999 0.0
C1237 C 0.63806 0.15256 0.06052 0.0
C1238 C 0.61901 0.1062 0.06265 0.0
C1239 C 0.66017 0.17391 0.09093 0.0
C1240 C 0.62587 0.08166 0.09446 0.0
C1241 C 0.6478 0.10258 0.12471 0.0
H1242 H 0.67581 0.62132 0.81131 0.0
H1243 H 0.66358 0.73769 0.8181 0.0
H1244 H 0.62635 0.70101 0.86958 0.0
H1245 H 0.60519 0.6385 0.91718 0.0
H1246 H 0.62462 0.526 0.91157 0.0
H1247 H 0.65076 0.55822 0.85526 0.0
C1248 C 0.66393 0.63821 0.82341 0.0
C1249 C 0.67233 0.68194 0.81112 0.0
C1250 C 0.64461 0.61787 0.8538 0.0
C1251 C 0.65745 0.70383 0.82736 0.0
C1252 C 0.63646 0.68303 0.85689 0.0
C1253 C 0.6151 0.6213 0.90342 0.0
C1254 C 0.61429 0.58079 0.91884 0.0
C1255 C 0.63126 0.64058 0.87119 0.0
C1256 C 0.62639 0.55809 0.90066 0.0
C1257 C 0.64097 0.5762 0.8683 0.0
H1258 H 0.38016 0.63891 0.82044 0.0
H1259 H 0.29348 0.53613 0.88727 0.0
H1260 H 0.34937 0.55465 0.93825 0.0
H1261 H 0.42277 0.59283 0.96049 0.0
H1262 H 0.51347 0.67785 0.88967 0.0
H1263 H 0.45514 0.67898 0.844 0.0
C1264 C 0.37346 0.62122 0.84642 0.0
C1265 C 0.33319 0.58623 0.85068 0.0
C1266 C 0.40606 0.63042 0.87463 0.0
C1267 C 0.32445 0.56293 0.88389 0.0
C1268 C 0.35616 0.57379 0.91278 0.0
C1269 C 0.43017 0.61179 0.93497 0.0
C1270 C 0.47214 0.63356 0.92751 0.0
C1271 C 0.39714 0.60647 0.90797 0.0
C1272 C 0.48136 0.6601 0.8955 0.0
C1273 C 0.44804 0.65985 0.86941 0.0
H1274 H 0.39335 0.39618 0.79296 0.0
H1275 H 0.2689 0.3455 0.82073 0.0
H1276 H 0.29751 0.38703 0.87189 0.0
H1277 H 0.35945 0.42212 0.91624 0.0
H1278 H 0.48371 0.47753 0.88709 0.0
H1279 H 0.45397 0.45097 0.82888 0.0
C1280 C 0.37244 0.39577 0.80933 0.0
C1281 C 0.3293 0.3664 0.80401 0.0
C1282 C 0.38922 0.42016 0.83889 0.0
C1283 C 0.30248 0.36653 0.82524 0.0
C1284 C 0.31879 0.39039 0.85451 0.0
C1285 C 0.37972 0.4306 0.89636 0.0
C1286 C 0.42353 0.45157 0.90585 0.0
C1287 C 0.36237 0.41504 0.86288 0.0
C1288 C 0.4497 0.46185 0.88007 0.0
C1289 C 0.43276 0.44599 0.84695 0.0
H1290 H 0.69077 0.41855 0.84723 0.0
H1291 H 0.57992 0.29872 0.82154 0.0
H1292 H 0.54874 0.30127 0.8708 0.0
H1293 H 0.55135 0.34138 0.91777 0.0
H1294 H 0.66234 0.46267 0.94176 0.0
H1295 H 0.69537 0.45587 0.89655 0.0
C1296 C 0.65991 0.393 0.85276 0.0
C1297 C 0.6371 0.35888 0.8311 0.0
C1298 C 0.64234 0.39509 0.88056 0.0
C1299 C 0.59737 0.32553 0.83803 0.0
C1300 C 0.57976 0.32699 0.86606 0.0
C1301 C 0.58298 0.36591 0.9134 0.0
C1302 C 0.60433 0.40234 0.93304 0.0
C1303 C 0.60165 0.36215 0.88703 0.0
C1304 C 0.64537 0.43396 0.92726 0.0
C1305 C 0.66423 0.43035 0.90122 0.0
H1306 H 0.67783 0.35571 0.09388 0.0
H1307 H 0.68835 0.43226 0.17398 0.0
H1308 H 0.61226 0.40594 0.16478 0.0
H1309 H 0.54691 0.37644 0.12463 0.0
H1310 H 0.53686 0.3084 0.03929 0.0
H1311 H 0.60668 0.31259 0.06085 0.0
C1312 C 0.6632 0.36708 0.10859 0.0
C1313 C 0.6883 0.39829 0.13259 0.0
C1314 C 0.61938 0.35231 0.10277 0.0
C1315 C 0.66934 0.41066 0.15353 0.0
C1316 C 0.62595 0.39481 0.14897 0.0
C1317 C 0.55911 0.36009 0.11226 0.0
C1318 C 0.53939 0.34608 0.07896 0.0
C1319 C 0.60095 0.36742 0.12253 0.0
C1320 C 0.55311 0.32179 0.06425 0.0
C1321 C 0.59382 0.32574 0.07571 0.0
H1322 H 0.66309 0.6103 0.20424 0.0
H1323 H 0.78525 0.67494 0.169 0.0
H1324 H 0.75625 0.63595 0.11664 0.0
H1325 H 0.69314 0.59727 0.0746 0.0
H1326 H 0.57169 0.5293 0.11065 0.0
H1327 H 0.60334 0.55509 0.16898 0.0
C1328 C 0.68362 0.61477 0.18578 0.0
C1329 C 0.72574 0.64717 0.18969 0.0
C1330 C 0.66672 0.59203 0.15547 0.0
C1331 C 0.75217 0.65167 0.16586 0.0
C1332 C 0.73569 0.62928 0.13581 0.0
C1333 C 0.67415 0.58645 0.09584 0.0
C1334 C 0.63046 0.56165 0.08866 0.0
C1335 C 0.69252 0.6015 0.12928 0.0
C1336 C 0.60568 0.54806 0.11601 0.0
C1337 C 0.62364 0.56325 0.14921 0.0
H1338 H 0.44637 0.65049 0.18362 0.0
H1339 H 0.31604 0.57361 0.14307 0.0
H1340 H 0.33696 0.56049 0.09207 0.0
H1341 H 0.39288 0.56742 0.06135 0.0
H1342 H 0.52329 0.64718 0.10152 0.0
H1343 H 0.5018 0.66323 0.15002 0.0
C1344 C 0.42272 0.63099 0.16346 0.0
C1345 C 0.37995 0.61227 0.16705 0.0
C1346 C 0.43498 0.62419 0.13424 0.0
C1347 C 0.34922 0.58785 0.14069 0.0
C1348 C 0.36117 0.58039 0.11168 0.0
C1349 C 0.41656 0.58853 0.08057 0.0
C1350 C 0.45961 0.60553 0.07798 0.0
C1351 C 0.40404 0.59782 0.10851 0.0
C1352 C 0.4899 0.63343 0.10285 0.0
C1353 C 0.47771 0.64254 0.13076 0.0
H1354 H 0.39286 0.38307 0.19636 0.0
H1355 H 0.35123 0.25395 0.16469 0.0
H1356 H 0.3864 0.28678 0.11293 0.0
H1357 H 0.42132 0.35251 0.07222 0.0
H1358 H 0.46556 0.48126 0.10467 0.0
H1359 H 0.43894 0.4483 0.16129 0.0
C1360 C 0.39253 0.36205 0.17889 0.0
C1361 C 0.36828 0.31633 0.18409 0.0
C1362 C 0.41348 0.38105 0.14914 0.0
C1363 C 0.36857 0.28954 0.16101 0.0
C1364 C 0.38886 0.30816 0.13125 0.0
C1365 C 0.4258 0.37296 0.09218 0.0
C1366 C 0.44432 0.41865 0.08474 0.0
C1367 C 0.41009 0.35389 0.12436 0.0
C1368 C 0.45058 0.44561 0.11032 0.0
C1369 C 0.43537 0.42693 0.14248 0.0
H1370 H 0.83153 0.55335 0.64597 0.0
H1371 H 0.80894 0.65644 0.57782 0.0
H1372 H 0.85564 0.66137 0.53806 0.0
H1373 H 0.89652 0.6297 0.51963 0.0
H1374 H 0.91586 0.52469 0.58786 0.0
H1375 H 0.87813 0.52844 0.63137 0.0
C1376 C 0.83727 0.57723 0.62259 0.0
C1377 C 0.81644 0.6039 0.61432 0.0
C1378 C 0.86315 0.57911 0.59974 0.0
C1379 C 0.82463 0.63543 0.58448 0.0
C1380 C 0.85097 0.63795 0.56166 0.0
C1381 C 0.89211 0.60759 0.54402 0.0
C1382 C 0.90777 0.57631 0.55053 0.0
C1383 C 0.86922 0.60883 0.56842 0.0
C1384 C 0.903 0.54826 0.58227 0.0
C1385 C 0.88138 0.55015 0.60695 0.0
H1386 H 0.39692 0.89084 0.7125 0.0
H1387 H 0.29115 0.79575 0.65044 0.0
H1388 H 0.32745 0.82602 0.59869 0.0
H1389 H 0.38819 0.88037 0.56978 0.0
H1390 H 0.49565 0.97587 0.62969 0.0
H1391 H 0.46078 0.9442 0.68329 0.0
C1392 C 0.38196 0.87681 0.68763 0.0
C1393 C 0.34136 0.84028 0.68585 0.0
C1394 C 0.40374 0.89412 0.65752 0.0
C1395 C 0.32237 0.82314 0.65311 0.0
C1396 C 0.34324 0.8405 0.62329 0.0
C1397 C 0.40454 0.8936 0.5948 0.0
C1398 C 0.44504 0.92987 0.59574 0.0
C1399 C 0.38394 0.87575 0.62516 0.0
C1400 C 0.46519 0.94714 0.62829 0.0
C1401 C 0.4448 0.92945 0.65884 0.0
H1402 H 0.2373 0.36137 0.69621 0.0
H1403 H 0.14312 0.23204 0.66968 0.0
H1404 H 0.10106 0.26352 0.62985 0.0
H1405 H 0.08711 0.32673 0.60281 0.0
H1406 H 0.17781 0.45734 0.62834 0.0
H1407 H 0.22303 0.427 0.66728 0.0
C1408 C 0.20805 0.34012 0.68123 0.0
C1409 C 0.19484 0.29355 0.68599 0.0
C1410 C 0.18201 0.35883 0.65818 0.0
C1411 C 0.15574 0.26758 0.66646 0.0
C1412 C 0.13082 0.28568 0.64366 0.0
C1413 C 0.11646 0.34889 0.61712 0.0
C1414 C 0.12767 0.39479 0.61248 0.0
C1415 C 0.143 0.33112 0.63951 0.0
C1416 C 0.16694 0.42199 0.63129 0.0
C1417 C 0.19337 0.40448 0.65363 0.0
H1418 H 0.73778 0.17037 0.65285 0.0
H1419 H 0.64417 0.20791 0.66511 0.0
H1420 H 0.60305 0.18011 0.60935 0.0
H1421 H 0.59226 0.14278 0.55883 0.0
H1422 H 0.68043 0.09703 0.54762 0.0
H1423 H 0.72589 0.13088 0.60117 0.0
C1424 C 0.70834 0.17234 0.64312 0.0
C1425 C 0.69439 0.19234 0.66237 0.0
C1426 C 0.68437 0.1552 0.61127 0.0
C1427 C 0.65628 0.19456 0.64992 0.0
C1428 C 0.63258 0.17815 0.61827 0.0
C1429 C 0.62195 0.14103 0.56758 0.0
C1430 C 0.63372 0.11853 0.54895 0.0
C1431 C 0.64642 0.15861 0.59877 0.0
C1432 C 0.67128 0.1149 0.56135 0.0
C1433 C 0.69693 0.13392 0.592 0.0
H1434 H 0.90514 0.31282 0.34135 0.0
H1435 H 0.78302 0.25827 0.37462 0.0
H1436 H 0.81337 0.29816 0.42637 0.0
H1437 H 0.87335 0.35592 0.45812 0.0
H1438 H 0.99572 0.41348 0.42477 0.0
H1439 H 0.96715 0.36503 0.37718 0.0
C1440 C 0.8854 0.30898 0.36029 0.0
C1441 C 0.84158 0.28385 0.35355 0.0
C1442 C 0.9032 0.33323 0.38963 0.0
C1443 C 0.81648 0.27854 0.37862 0.0
C1444 C 0.8339 0.30135 0.40831 0.0
C1445 C 0.89347 0.35769 0.44022 0.0
C1446 C 0.93574 0.38865 0.44349 0.0
C1447 C 0.87685 0.33028 0.41316 0.0
C1448 C 0.96249 0.39044 0.42138 0.0
C1449 C 0.94631 0.36263 0.39459 0.0
H1450 H 0.60698 0.76503 0.41415 0.0
H1451 H 0.66401 0.87239 0.3353 0.0
H1452 H 0.66711 0.92508 0.37161 0.0
H1453 H 0.64336 0.93821 0.42227 0.0
H1454 H 0.58506 0.82834 0.49947 0.0
H1455 H 0.59312 0.77929 0.46783 0.0
C1456 C 0.62098 0.80014 0.40539 0.0
C1457 C 0.63493 0.81496 0.3722 0.0
C1458 C 0.62197 0.82974 0.42603 0.0
C1459 C 0.65315 0.86041 0.36093 0.0
C1460 C 0.65459 0.8904 0.38156 0.0
C1461 C 0.63362 0.90384 0.43254 0.0
C1462 C 0.61323 0.88677 0.46293 0.0
C1463 C 0.63766 0.87523 0.41367 0.0
C1464 C 0.60041 0.84208 0.4759 0.0
C1465 C 0.60491 0.81393 0.45781 0.0
H1466 H 0.22966 0.68271 0.34179 0.0
H1467 H 0.11664 0.65296 0.26643 0.0
H1468 H 0.0733 0.60786 0.31275 0.0
H1469 H 0.06671 0.577 0.37599 0.0
H1470 H 0.1812 0.60635 0.4501 0.0
H1471 H 0.22344 0.64951 0.40358 0.0
C1472 C 0.19564 0.66567 0.33537 0.0
C1473 C 0.17671 0.67117 0.30045 0.0
C1474 C 0.17053 0.63938 0.36229 0.0
C1475 C 0.13232 0.64925 0.293 0.0
C1476 C 0.10729 0.62346 0.31959 0.0
C1477 C 0.10079 0.59328 0.38204 0.0
C1478 C 0.12007 0.5882 0.41705 0.0
C1479 C 0.12588 0.61855 0.35463 0.0
C1480 C 0.16472 0.60926 0.42374 0.0
C1481 C 0.18939 0.63423 0.39699 0.0
H1482 H 0.28512 0.12171 0.32576 0.0
H1483 H 0.38468 0.24951 0.29824 0.0
H1484 H 0.43691 0.22766 0.33608 0.0
H1485 H 0.45506 0.17034 0.37734 0.0
H1486 H 0.35393 0.03969 0.3963 0.0
H1487 H 0.30316 0.0639 0.36128 0.0
C1488 C 0.31824 0.14517 0.32802 0.0
C1489 C 0.33001 0.18852 0.31018 0.0
C1490 C 0.34858 0.13119 0.34815 0.0
C1491 C 0.37367 0.21707 0.31292 0.0
C1492 C 0.40388 0.20405 0.33423 0.0
C1493 C 0.42204 0.14681 0.37349 0.0
C1494 C 0.40941 0.10248 0.39011 0.0
C1495 C 0.39192 0.16096 0.35211 0.0
C1496 C 0.36581 0.07355 0.38426 0.0
C1497 C 0.3362 0.08757 0.36417 0.0
H1498 H 0.75746 0.88464 0.67054 0.0
H1499 H 0.65721 0.75635 0.69586 0.0
H1500 H 0.60541 0.77949 0.65902 0.0
H1501 H 0.58796 0.83808 0.61944 0.0
H1502 H 0.68979 0.96882 0.60254 0.0
H1503 H 0.74013 0.94346 0.63667 0.0
C1504 C 0.72428 0.86136 0.66802 0.0
C1505 C 0.71212 0.8176 0.68498 0.0
C1506 C 0.69425 0.87601 0.64858 0.0
C1507 C 0.66844 0.7892 0.6819 0.0
C1508 C 0.6385 0.80293 0.66118 0.0
C1509 C 0.62102 0.86138 0.62364 0.0
C1510 C 0.63406 0.90605 0.60787 0.0
C1511 C 0.65085 0.84652 0.64434 0.0
C1512 C 0.67768 0.9347 0.61398 0.0
C1513 C 0.70702 0.92003 0.63352 0.0
H1514 H 0.66949 0.11784 0.29446 0.0
H1515 H 0.7249 0.23981 0.34005 0.0
H1516 H 0.67781 0.20642 0.38481 0.0
H1517 H 0.62725 0.13924 0.41647 0.0
H1518 H 0.57559 0.01476 0.37451 0.0
H1519 H 0.614 0.05127 0.3235 0.0
C1520 C 0.66998 0.13747 0.31336 0.0
C1521 C 0.69946 0.18263 0.31241 0.0
C1522 C 0.64351 0.11681 0.34029 0.0
C1523 C 0.7014 0.20626 0.33877 0.0
C1524 C 0.67465 0.18669 0.36483 0.0
C1525 C 0.62294 0.12048 0.39532 0.0
C1526 C 0.59709 0.07449 0.39869 0.0
C1527 C 0.64623 0.14165 0.3665 0.0
C1528 C 0.5938 0.05035 0.37194 0.0
C1529 C 0.61632 0.07123 0.34295 0.0
H1530 H 0.9019 0.75046 0.32818 0.0
H1531 H 0.77962 0.64264 0.3034 0.0
H1532 H 0.8046 0.59051 0.33988 0.0
H1533 H 0.86322 0.57507 0.3798 0.0
H1534 H 0.98645 0.68559 0.39725 0.0
H1535 H 0.95955 0.73538 0.36264 0.0
C1536 C 0.8803 0.71555 0.33062 0.0
C1537 C 0.83801 0.70147 0.31353 0.0
C1538 C 0.89566 0.68539 0.35031 0.0
C1539 C 0.81164 0.6555 0.31696 0.0
C1540 C 0.82634 0.62534 0.33763 0.0
C1541 C 0.88454 0.60987 0.37553 0.0
C1542 C 0.92769 0.62547 0.39184 0.0
C1543 C 0.86862 0.63969 0.35454 0.0
C1544 C 0.95358 0.67138 0.38568 0.0
C1545 C 0.93805 0.70049 0.36573 0.0
H1546 H 0.29207 0.81559 0.36029 0.0
H1547 H 0.39505 0.81466 0.3228 0.0
H1548 H 0.44363 0.85087 0.37332 0.0
H1549 H 0.45692 0.88299 0.42732 0.0
H1550 H 0.35736 0.8904 0.46485 0.0
H1551 H 0.30661 0.85123 0.41512 0.0
C1552 C 0.3252 0.82353 0.36347 0.0
C1553 C 0.34024 0.81162 0.33882 0.0
C1554 C 0.35309 0.84518 0.39239 0.0
C1555 C 0.38296 0.82222 0.34239 0.0
C1556 C 0.41067 0.84323 0.37099 0.0
C1557 C 0.42393 0.87561 0.42471 0.0
C1558 C 0.41026 0.88852 0.44953 0.0
C1559 C 0.396 0.85451 0.39613 0.0
C1560 C 0.36801 0.88008 0.4459 0.0
C1561 C 0.33931 0.85794 0.41755 0.0
H1562 H 0.22259 0.4572 0.36799 0.0
H1563 H 0.19685 0.32241 0.40612 0.0
H1564 H 0.14516 0.3169 0.44096 0.0
H1565 H 0.11469 0.35478 0.46678 0.0
H1566 H 0.14982 0.49258 0.43253 0.0
H1567 H 0.1917 0.49285 0.39197 0.0
C1568 C 0.20565 0.42649 0.38387 0.0
C1569 C 0.21425 0.39066 0.38513 0.0
C1570 C 0.17816 0.42441 0.40517 0.0
C1571 C 0.1909 0.35061 0.40481 0.0
C1572 C 0.1617 0.34761 0.42503 0.0
C1573 C 0.13113 0.38452 0.44979 0.0
C1574 C 0.12981 0.42378 0.45277 0.0
C1575 C 0.15621 0.38491 0.4264 0.0
C1576 C 0.15099 0.4622 0.43091 0.0
C1577 C 0.17459 0.46234 0.40725 0.0
H1578 H 0.45515 0.19899 0.63658 0.0
H1579 H 0.3355 0.18147 0.57582 0.0
H1580 H 0.33699 0.12931 0.54183 0.0
H1581 H 0.37767 0.09673 0.52459 0.0
H1582 H 0.49828 0.11721 0.58555 0.0
H1583 H 0.49081 0.15923 0.62485 0.0
C1584 C 0.42926 0.18326 0.61613 0.0
C1585 C 0.39578 0.19439 0.60798 0.0
C1586 C 0.43058 0.15389 0.59681 0.0
C1587 C 0.3618 0.17343 0.58208 0.0
C1588 C 0.36272 0.14379 0.56269 0.0
C1589 C 0.40163 0.10957 0.54701 0.0
C1590 C 0.43868 0.10467 0.55201 0.0
C1591 C 0.39765 0.13484 0.56907 0.0
C1592 C 0.46975 0.12131 0.58104 0.0
C1593 C 0.4656 0.14539 0.60345 0.0
H1594 H 0.80683 0.29347 0.63949 0.0
H1595 H 0.89811 0.34959 0.72887 0.0
H1596 H 0.94724 0.40471 0.68867 0.0
H1597 H 0.9643 0.43685 0.62633 0.0
H1598 H 0.87291 0.37217 0.53913 0.0
H1599 H 0.82479 0.32083 0.57975 0.0
C1600 C 0.83722 0.31832 0.6502 0.0
C1601 C 0.84771 0.31889 0.68712 0.0
C1602 C 0.86593 0.34816 0.627 0.0
C1603 C 0.88825 0.34977 0.70053 0.0
C1604 C 0.91664 0.38089 0.67745 0.0
C1605 C 0.93433 0.41087 0.61639 0.0
C1606 C 0.92265 0.40863 0.57934 0.0
C1607 C 0.90603 0.38035 0.64039 0.0
C1608 C 0.88307 0.37498 0.56725 0.0
C1609 C 0.85517 0.34555 0.59051 0.0
H1610 H 0.18909 0.6508 0.66895 0.0
H1611 H 0.19462 0.77561 0.61796 0.0
H1612 H 0.1659 0.7441 0.56073 0.0
H1613 H 0.13734 0.67933 0.52756 0.0
H1614 H 0.14184 0.55901 0.58022 0.0
H1615 H 0.17671 0.59405 0.6343 0.0
C1616 C 0.1849 0.67163 0.64519 0.0
C1617 C 0.194 0.71535 0.64727 0.0
C1618 C 0.1732 0.65521 0.61283 0.0
C1619 C 0.18705 0.74155 0.61678 0.0
C1620 C 0.17189 0.72396 0.58418 0.0
C1621 C 0.1471 0.66118 0.55059 0.0
C1622 C 0.13437 0.61571 0.55096 0.0
C1623 C 0.1651 0.68079 0.58206 0.0
C1624 C 0.14962 0.59344 0.57987 0.0
C1625 C 0.16859 0.61305 0.61102 0.0
loop_
_geom_bond_atom_site_label_1
_geom_bond_atom_site_label_2
_geom_bond_distance
_geom_bond_site_symmetry_2
_ccdc_geom_bond_type
Eu0 N31 2.657 . S
Eu0 N38 2.609 . S
Eu0 O44 2.558 . S
Eu0 O45 2.612 . S
Eu0 O47 2.339 . S
Eu0 O48 2.563 . S
Eu0 O49 2.419 . S
Eu0 O51 2.380 . S
Eu0 O52 2.432 . S
Eu0 C64 2.848 . S
C1 C4 1.429 . S
C1 C5 1.411 . S
C1 N8 1.377 . S
C2 C4 1.420 . S
C2 C6 1.423 . S
C2 C14 1.392 . S
C3 C5 1.420 . S
C3 C6 1.351 . S
C3 H26 0.931 . S
C4 C1 1.429 . S
C4 C2 1.420 . S
C4 N12 1.362 . S
C5 C1 1.411 . S
C5 C3 1.420 . S
C5 C10 1.395 . S
C6 C2 1.423 . S
C6 C3 1.351 . S
C6 H18 0.930 . S
C7 C9 1.400 . S
C7 C10 1.386 . S
C7 H19 0.930 . S
N8 C1 1.377 . S
N8 C9 1.321 . S
N8 Eu11 2.609 . S
C9 C7 1.400 . S
C9 N8 1.321 . S
C9 H16 0.930 . S
C10 C5 1.395 . S
C10 C7 1.386 . S
C10 H29 0.930 . S
Eu11 N8 2.609 . S
Eu11 N12 2.657 . S
Eu11 O45 2.380 . S
Eu11 O46 2.432 . S
Eu11 O50 2.558 . S
Eu11 O51 2.612 . S
Eu11 O53 2.339 . S
Eu11 O54 2.563 . S
Eu11 O55 2.419 . S
Eu11 C75 2.848 . S
N12 C4 1.362 . S
N12 Eu11 2.657 . S
N12 C13 1.334 . S
C13 N12 1.334 . S
C13 C15 1.413 . S
C13 H20 0.929 . S
C14 C2 1.392 . S
C14 C15 1.367 . S
C14 H22 0.930 . S
C15 C13 1.413 . S
C15 C14 1.367 . S
C15 H17 0.930 . S
H16 C9 0.930 . S
H17 C15 0.930 . S
H18 C6 0.930 . S
H19 C7 0.930 . S
H20 C13 0.929 . S
H21 C35 0.930 . S
H22 C14 0.930 . S
H23 C41 0.930 . S
H24 C32 0.929 . S
H25 C39 0.930 . S
H26 C3 0.931 . S
H27 C33 0.930 . S
H28 C66 0.930 . S
H29 C10 0.930 . S
H30 C65 0.931 . S
N31 Eu0 2.657 . S
N31 C32 1.334 . S
N31 C36 1.362 . S
C32 H24 0.929 . S
C32 N31 1.334 . S
C32 C35 1.413 . S
C33 H27 0.930 . S
C33 C34 1.392 . S
C33 C35 1.367 . S
C34 C33 1.392 . S
C34 C36 1.420 . S
C34 C66 1.423 . S
C35 H21 0.930 . S
C35 C32 1.413 . S
C35 C33 1.367 . S
C36 N31 1.362 . S
C36 C34 1.420 . S
C36 C40 1.429 . S
H37 C42 0.930 . S
N38 Eu0 2.609 . S
N38 C40 1.377 . S
N38 C41 1.321 . S
C39 H25 0.930 . S
C39 C41 1.400 . S
C39 C42 1.386 . S
C40 C36 1.429 . S
C40 N38 1.377 . S
C40 C43 1.411 . S
C41 H23 0.930 . S
C41 N38 1.321 . S
C41 C39 1.400 . S
C42 H37 0.930 . S
C42 C39 1.386 . S
C42 C43 1.395 . S
C43 C40 1.411 . S
C43 C42 1.395 . S
C43 C65 1.420 . S
O44 Eu0 2.558 . S
O44 C64 1.257 . S
O45 Eu0 2.612 . S
O45 Eu11 2.380 . S
O45 C56 1.276 . S
O46 Eu11 2.432 . S
O46 C63 1.264 . S
O47 Eu0 2.339 . S
O47 C63 1.254 . S
O48 Eu0 2.563 . S
O48 C56 1.235 . S
O49 Eu0 2.419 . S
O49 C64 1.249 . S
O50 Eu11 2.558 . S
O50 C75 1.257 . S
O51 Eu0 2.380 . S
O51 Eu11 2.612 . S
O51 C67 1.276 . S
O52 Eu0 2.432 . S
O52 C74 1.264 . S
O53 Eu11 2.339 . S
O53 C74 1.254 . S
O54 Eu11 2.563 . S
O54 C67 1.235 . S
O55 Eu11 2.419 . S
O55 C75 1.249 . S
C56 O45 1.276 . S
C56 O48 1.235 . S
C57 C59 1.393 . S
C57 C61 1.395 . S
C57 C64 1.492 . S
C58 C59 1.392 . S
C58 C60 1.386 . S
C59 C57 1.393 . S
C59 C58 1.392 . S
C59 H76 0.930 . S
C60 C58 1.386 . S
C60 C62 1.395 . S
C60 H77 0.930 . S
C61 C57 1.395 . S
C61 C62 1.379 . S
C61 H78 0.930 . S
C62 C60 1.395 . S
C62 C61 1.379 . S
C62 H79 0.930 . S
C63 O46 1.264 . S
C63 O47 1.254 . S
C64 Eu0 2.848 . S
C64 O44 1.257 . S
C64 O49 1.249 . S
C64 C57 1.492 . S
C65 H30 0.931 . S
C65 C43 1.420 . S
C65 C66 1.351 . S
C66 H28 0.930 . S
C66 C34 1.423 . S
C66 C65 1.351 . S
C67 O51 1.276 . S
C67 O54 1.235 . S
C68 C69 1.393 . S
C68 C72 1.395 . S
C68 C75 1.492 . S
C69 C68 1.393 . S
C69 C70 1.392 . S
C69 H80 0.930 . S
C70 C69 1.392 . S
C70 C71 1.386 . S
C71 C70 1.386 . S
C71 C73 1.395 . S
C71 H81 0.930 . S
C72 C68 1.395 . S
C72 C73 1.379 . S
C72 H82 0.930 . S
C73 C71 1.395 . S
C73 C72 1.379 . S
C73 H83 0.930 . S
C74 O52 1.264 . S
C74 O53 1.254 . S
C75 Eu11 2.848 . S
C75 O50 1.257 . S
C75 O55 1.249 . S
C75 C68 1.492 . S
H76 C59 0.930 . S
H77 C60 0.930 . S
H78 C61 0.930 . S
H79 C62 0.930 . S
H80 C69 0.930 . S
H81 C71 0.930 . S
H82 C72 0.930 . S
H83 C73 0.930 . S
Eu84 N115 2.657 . S
Eu84 N122 2.609 . S
Eu84 O128 2.558 . S
Eu84 O129 2.612 . S
Eu84 O131 2.339 . S
Eu84 O132 2.563 . S
Eu84 O133 2.419 . S
Eu84 O135 2.380 . S
Eu84 O136 2.432 . S
Eu84 C148 2.848 . S
C85 C88 1.429 . S
C85 C89 1.411 . S
C85 N92 1.377 . S
C86 C88 1.420 . S
C86 C90 1.423 . S
C86 C98 1.392 . S
C87 C89 1.420 . S
C87 C90 1.351 . S
C87 H110 0.931 . S
C88 C85 1.429 . S
C88 C86 1.420 . S
C88 N96 1.362 . S
C89 C85 1.411 . S
C89 C87 1.420 . S
C89 C94 1.395 . S
C90 C86 1.423 . S
C90 C87 1.351 . S
C90 H102 0.930 . S
C91 C93 1.400 . S
C91 C94 1.386 . S
C91 H103 0.930 . S
N92 C85 1.377 . S
N92 C93 1.321 . S
N92 Eu95 2.609 . S
C93 C91 1.400 . S
C93 N92 1.321 . S
C93 H100 0.930 . S
C94 C89 1.395 . S
C94 C91 1.386 . S
C94 H113 0.930 . S
Eu95 N92 2.609 . S
Eu95 N96 2.657 . S
Eu95 O129 2.380 . S
Eu95 O130 2.432 . S
Eu95 O134 2.558 . S
Eu95 O135 2.612 . S
Eu95 O137 2.339 . S
Eu95 O138 2.563 . S
Eu95 O139 2.419 . S
Eu95 C159 2.848 . S
N96 C88 1.362 . S
N96 Eu95 2.657 . S
N96 C97 1.334 . S
C97 N96 1.334 . S
C97 C99 1.413 . S
C97 H104 0.929 . S
C98 C86 1.392 . S
C98 C99 1.367 . S
C98 H106 0.930 . S
C99 C97 1.413 . S
C99 C98 1.367 . S
C99 H101 0.930 . S
H100 C93 0.930 . S
H101 C99 0.930 . S
H102 C90 0.930 . S
H103 C91 0.930 . S
H104 C97 0.929 . S
H105 C119 0.930 . S
H106 C98 0.930 . S
H107 C125 0.930 . S
H108 C116 0.929 . S
H109 C123 0.930 . S
H110 C87 0.931 . S
H111 C117 0.930 . S
H112 C150 0.930 . S
H113 C94 0.930 . S
H114 C149 0.931 . S
N115 Eu84 2.657 . S
N115 C116 1.334 . S
N115 C120 1.362 . S
C116 H108 0.929 . S
C116 N115 1.334 . S
C116 C119 1.413 . S
C117 H111 0.930 . S
C117 C118 1.392 . S
C117 C119 1.367 . S
C118 C117 1.392 . S
C118 C120 1.420 . S
C118 C150 1.423 . S
C119 H105 0.930 . S
C119 C116 1.413 . S
C119 C117 1.367 . S
C120 N115 1.362 . S
C120 C118 1.420 . S
C120 C124 1.429 . S
H121 C126 0.930 . S
N122 Eu84 2.609 . S
N122 C124 1.377 . S
N122 C125 1.321 . S
C123 H109 0.930 . S
C123 C125 1.400 . S
C123 C126 1.386 . S
C124 C120 1.429 . S
C124 N122 1.377 . S
C124 C127 1.411 . S
C125 H107 0.930 . S
C125 N122 1.321 . S
C125 C123 1.400 . S
C126 H121 0.930 . S
C126 C123 1.386 . S
C126 C127 1.395 . S
C127 C124 1.411 . S
C127 C126 1.395 . S
C127 C149 1.420 . S
O128 Eu84 2.558 . S
O128 C148 1.257 . S
O129 Eu84 2.612 . S
O129 Eu95 2.380 . S
O129 C140 1.276 . S
O130 Eu95 2.432 . S
O130 C147 1.264 . S
O131 Eu84 2.339 . S
O131 C147 1.254 . S
O132 Eu84 2.563 . S
O132 C140 1.235 . S
O133 Eu84 2.419 . S
O133 C148 1.249 . S
O134 Eu95 2.558 . S
O134 C159 1.257 . S
O135 Eu84 2.380 . S
O135 Eu95 2.612 . S
O135 C151 1.276 . S
O136 Eu84 2.432 . S
O136 C158 1.264 . S
O137 Eu95 2.339 . S
O137 C158 1.254 . S
O138 Eu95 2.563 . S
O138 C151 1.235 . S
O139 Eu95 2.419 . S
O139 C159 1.249 . S
C140 O129 1.276 . S
C140 O132 1.235 . S
C141 C143 1.393 . S
C141 C145 1.395 . S
C141 C148 1.492 . S
C142 C143 1.392 . S
C142 C144 1.386 . S
C143 C141 1.393 . S
C143 C142 1.392 . S
C143 H160 0.930 . S
C144 C142 1.386 . S
C144 C146 1.395 . S
C144 H161 0.930 . S
C145 C141 1.395 . S
C145 C146 1.379 . S
C145 H162 0.930 . S
C146 C144 1.395 . S
C146 C145 1.379 . S
C146 H163 0.930 . S
C147 O130 1.264 . S
C147 O131 1.254 . S
C148 Eu84 2.848 . S
C148 O128 1.257 . S
C148 O133 1.249 . S
C148 C141 1.492 . S
C149 H114 0.931 . S
C149 C127 1.420 . S
C149 C150 1.351 . S
C150 H112 0.930 . S
C150 C118 1.423 . S
C150 C149 1.351 . S
C151 O135 1.276 . S
C151 O138 1.235 . S
C152 C153 1.393 . S
C152 C156 1.395 . S
C152 C159 1.492 . S
C153 C152 1.393 . S
C153 C154 1.392 . S
C153 H164 0.930 . S
C154 C153 1.392 . S
C154 C155 1.386 . S
C155 C154 1.386 . S
C155 C157 1.395 . S
C155 H165 0.930 . S
C156 C152 1.395 . S
C156 C157 1.379 . S
C156 H166 0.930 . S
C157 C155 1.395 . S
C157 C156 1.379 . S
C157 H167 0.930 . S
C158 O136 1.264 . S
C158 O137 1.254 . S
C159 Eu95 2.848 . S
C159 O134 1.257 . S
C159 O139 1.249 . S
C159 C152 1.492 . S
H160 C143 0.930 . S
H161 C144 0.930 . S
H162 C145 0.930 . S
H163 C146 0.930 . S
H164 C153 0.930 . S
H165 C155 0.930 . S
H166 C156 0.930 . S
H167 C157 0.930 . S
Eu168 N199 2.657 . S
Eu168 N206 2.609 . S
Eu168 O212 2.558 . S
Eu168 O213 2.612 . S
Eu168 O215 2.339 . S
Eu168 O216 2.563 . S
Eu168 O217 2.419 . S
Eu168 O219 2.380 . S
Eu168 O220 2.432 . S
Eu168 C232 2.848 . S
C169 C172 1.429 . S
C169 C173 1.411 . S
C169 N176 1.377 . S
C170 C172 1.420 . S
C170 C174 1.423 . S
C170 C182 1.392 . S
C171 C173 1.420 . S
C171 C174 1.351 . S
C171 H194 0.931 . S
C172 C169 1.429 . S
C172 C170 1.420 . S
C172 N180 1.362 . S
C173 C169 1.411 . S
C173 C171 1.420 . S
C173 C178 1.395 . S
C174 C170 1.423 . S
C174 C171 1.351 . S
C174 H186 0.930 . S
C175 C177 1.400 . S
C175 C178 1.386 . S
C175 H187 0.930 . S
N176 C169 1.377 . S
N176 C177 1.321 . S
N176 Eu179 2.609 . S
C177 C175 1.400 . S
C177 N176 1.321 . S
C177 H184 0.930 . S
C178 C173 1.395 . S
C178 C175 1.386 . S
C178 H197 0.930 . S
Eu179 N176 2.609 . S
Eu179 N180 2.657 . S
Eu179 O213 2.380 . S
Eu179 O214 2.432 . S
Eu179 O218 2.558 . S
Eu179 O219 2.612 . S
Eu179 O221 2.339 . S
Eu179 O222 2.563 . S
Eu179 O223 2.419 . S
Eu179 C243 2.848 . S
N180 C172 1.362 . S
N180 Eu179 2.657 . S
N180 C181 1.334 . S
C181 N180 1.334 . S
C181 C183 1.413 . S
C181 H188 0.929 . S
C182 C170 1.392 . S
C182 C183 1.367 . S
C182 H190 0.930 . S
C183 C181 1.413 . S
C183 C182 1.367 . S
C183 H185 0.930 . S
H184 C177 0.930 . S
H185 C183 0.930 . S
H186 C174 0.930 . S
H187 C175 0.930 . S
H188 C181 0.929 . S
H189 C203 0.930 . S
H190 C182 0.930 . S
H191 C209 0.930 . S
H192 C200 0.929 . S
H193 C207 0.930 . S
H194 C171 0.931 . S
H195 C201 0.930 . S
H196 C234 0.930 . S
H197 C178 0.930 . S
H198 C233 0.931 . S
N199 Eu168 2.657 . S
N199 C200 1.334 . S
N199 C204 1.362 . S
C200 H192 0.929 . S
C200 N199 1.334 . S
C200 C203 1.413 . S
C201 H195 0.930 . S
C201 C202 1.392 . S
C201 C203 1.367 . S
C202 C201 1.392 . S
C202 C204 1.420 . S
C202 C234 1.423 . S
C203 H189 0.930 . S
C203 C200 1.413 . S
C203 C201 1.367 . S
C204 N199 1.362 . S
C204 C202 1.420 . S
C204 C208 1.429 . S
H205 C210 0.930 . S
N206 Eu168 2.609 . S
N206 C208 1.377 . S
N206 C209 1.321 . S
C207 H193 0.930 . S
C207 C209 1.400 . S
C207 C210 1.386 . S
C208 C204 1.429 . S
C208 N206 1.377 . S
C208 C211 1.411 . S
C209 H191 0.930 . S
C209 N206 1.321 . S
C209 C207 1.400 . S
C210 H205 0.930 . S
C210 C207 1.386 . S
C210 C211 1.395 . S
C211 C208 1.411 . S
C211 C210 1.395 . S
C211 C233 1.420 . S
O212 Eu168 2.558 . S
O212 C232 1.257 . S
O213 Eu168 2.612 . S
O213 Eu179 2.380 . S
O213 C224 1.276 . S
O214 Eu179 2.432 . S
O214 C231 1.264 . S
O215 Eu168 2.339 . S
O215 C231 1.254 . S
O216 Eu168 2.563 . S
O216 C224 1.235 . S
O217 Eu168 2.419 . S
O217 C232 1.249 . S
O218 Eu179 2.558 . S
O218 C243 1.257 . S
O219 Eu168 2.380 . S
O219 Eu179 2.612 . S
O219 C235 1.276 . S
O220 Eu168 2.432 . S
O220 C242 1.264 . S
O221 Eu179 2.339 . S
O221 C242 1.254 . S
O222 Eu179 2.563 . S
O222 C235 1.235 . S
O223 Eu179 2.419 . S
O223 C243 1.249 . S
C224 O213 1.276 . S
C224 O216 1.235 . S
C225 C227 1.393 . S
C225 C229 1.395 . S
C225 C232 1.492 . S
C226 C227 1.392 . S
C226 C228 1.386 . S
C227 C225 1.393 . S
C227 C226 1.392 . S
C227 H244 0.930 . S
C228 C226 1.386 . S
C228 C230 1.395 . S
C228 H245 0.930 . S
C229 C225 1.395 . S
C229 C230 1.379 . S
C229 H246 0.930 . S
C230 C228 1.395 . S
C230 C229 1.379 . S
C230 H247 0.930 . S
C231 O214 1.264 . S
C231 O215 1.254 . S
C232 Eu168 2.848 . S
C232 O212 1.257 . S
C232 O217 1.249 . S
C232 C225 1.492 . S
C233 H198 0.931 . S
C233 C211 1.420 . S
C233 C234 1.351 . S
C234 H196 0.930 . S
C234 C202 1.423 . S
C234 C233 1.351 . S
C235 O219 1.276 . S
C235 O222 1.235 . S
C236 C237 1.393 . S
C236 C240 1.395 . S
C236 C243 1.492 . S
C237 C236 1.393 . S
C237 C238 1.392 . S
C237 H248 0.930 . S
C238 C237 1.392 . S
C238 C239 1.386 . S
C239 C238 1.386 . S
C239 C241 1.395 . S
C239 H249 0.930 . S
C240 C236 1.395 . S
C240 C241 1.379 . S
C240 H250 0.930 . S
C241 C239 1.395 . S
C241 C240 1.379 . S
C241 H251 0.930 . S
C242 O220 1.264 . S
C242 O221 1.254 . S
C243 Eu179 2.848 . S
C243 O218 1.257 . S
C243 O223 1.249 . S
C243 C236 1.492 . S
H244 C227 0.930 . S
H245 C228 0.930 . S
H246 C229 0.930 . S
H247 C230 0.930 . S
H248 C237 0.930 . S
H249 C239 0.930 . S
H250 C240 0.930 . S
H251 C241 0.930 . S
Eu252 N283 2.657 . S
Eu252 N290 2.609 . S
Eu252 O296 2.558 . S
Eu252 O297 2.612 . S
Eu252 O299 2.339 . S
Eu252 O300 2.563 . S
Eu252 O301 2.419 . S
Eu252 O303 2.380 . S
Eu252 O304 2.432 . S
Eu252 C316 2.848 . S
C253 C256 1.429 . S
C253 C257 1.411 . S
C253 N260 1.377 . S
C254 C256 1.420 . S
C254 C258 1.423 . S
C254 C266 1.392 . S
C255 C257 1.420 . S
C255 C258 1.351 . S
C255 H278 0.931 . S
C256 C253 1.429 . S
C256 C254 1.420 . S
C256 N264 1.362 . S
C257 C253 1.411 . S
C257 C255 1.420 . S
C257 C262 1.395 . S
C258 C254 1.423 . S
C258 C255 1.351 . S
C258 H270 0.930 . S
C259 C261 1.400 . S
C259 C262 1.386 . S
C259 H271 0.930 . S
N260 C253 1.377 . S
N260 C261 1.321 . S
N260 Eu263 2.609 . S
C261 C259 1.400 . S
C261 N260 1.321 . S
C261 H268 0.930 . S
C262 C257 1.395 . S
C262 C259 1.386 . S
C262 H281 0.930 . S
Eu263 N260 2.609 . S
Eu263 N264 2.657 . S
Eu263 O297 2.380 . S
Eu263 O298 2.432 . S
Eu263 O302 2.558 . S
Eu263 O303 2.612 . S
Eu263 O305 2.339 . S
Eu263 O306 2.563 . S
Eu263 O307 2.419 . S
Eu263 C327 2.848 . S
N264 C256 1.362 . S
N264 Eu263 2.657 . S
N264 C265 1.334 . S
C265 N264 1.334 . S
C265 C267 1.413 . S
C265 H272 0.929 . S
C266 C254 1.392 . S
C266 C267 1.367 . S
C266 H274 0.930 . S
C267 C265 1.413 . S
C267 C266 1.367 . S
C267 H269 0.930 . S
H268 C261 0.930 . S
H269 C267 0.930 . S
H270 C258 0.930 . S
H271 C259 0.930 . S
H272 C265 0.929 . S
H273 C287 0.930 . S
H274 C266 0.930 . S
H275 C293 0.930 . S
H276 C284 0.929 . S
H277 C291 0.930 . S
H278 C255 0.931 . S
H279 C285 0.930 . S
H280 C318 0.930 . S
H281 C262 0.930 . S
H282 C317 0.931 . S
N283 Eu252 2.657 . S
N283 C284 1.334 . S
N283 C288 1.362 . S
C284 H276 0.929 . S
C284 N283 1.334 . S
C284 C287 1.413 . S
C285 H279 0.930 . S
C285 C286 1.392 . S
C285 C287 1.367 . S
C286 C285 1.392 . S
C286 C288 1.420 . S
C286 C318 1.423 . S
C287 H273 0.930 . S
C287 C284 1.413 . S
C287 C285 1.367 . S
C288 N283 1.362 . S
C288 C286 1.420 . S
C288 C292 1.429 . S
H289 C294 0.930 . S
N290 Eu252 2.609 . S
N290 C292 1.377 . S
N290 C293 1.321 . S
C291 H277 0.930 . S
C291 C293 1.400 . S
C291 C294 1.386 . S
C292 C288 1.429 . S
C292 N290 1.377 . S
C292 C295 1.411 . S
C293 H275 0.930 . S
C293 N290 1.321 . S
C293 C291 1.400 . S
C294 H289 0.930 . S
C294 C291 1.386 . S
C294 C295 1.395 . S
C295 C292 1.411 . S
C295 C294 1.395 . S
C295 C317 1.420 . S
O296 Eu252 2.558 . S
O296 C316 1.257 . S
O297 Eu252 2.612 . S
O297 Eu263 2.380 . S
O297 C308 1.276 . S
O298 Eu263 2.432 . S
O298 C315 1.264 . S
O299 Eu252 2.339 . S
O299 C315 1.254 . S
O300 Eu252 2.563 . S
O300 C308 1.235 . S
O301 Eu252 2.419 . S
O301 C316 1.249 . S
O302 Eu263 2.558 . S
O302 C327 1.257 . S
O303 Eu252 2.380 . S
O303 Eu263 2.612 . S
O303 C319 1.276 . S
O304 Eu252 2.432 . S
O304 C326 1.264 . S
O305 Eu263 2.339 . S
O305 C326 1.254 . S
O306 Eu263 2.563 . S
O306 C319 1.235 . S
O307 Eu263 2.419 . S
O307 C327 1.249 . S
C308 O297 1.276 . S
C308 O300 1.235 . S
C309 C311 1.393 . S
C309 C313 1.395 . S
C309 C316 1.492 . S
C310 C311 1.392 . S
C310 C312 1.386 . S
C311 C309 1.393 . S
C311 C310 1.392 . S
C311 H328 0.930 . S
C312 C310 1.386 . S
C312 C314 1.395 . S
C312 H329 0.930 . S
C313 C309 1.395 . S
C313 C314 1.379 . S
C313 H330 0.930 . S
C314 C312 1.395 . S
C314 C313 1.379 . S
C314 H331 0.930 . S
C315 O298 1.264 . S
C315 O299 1.254 . S
C316 Eu252 2.848 . S
C316 O296 1.257 . S
C316 O301 1.249 . S
C316 C309 1.492 . S
C317 H282 0.931 . S
C317 C295 1.420 . S
C317 C318 1.351 . S
C318 H280 0.930 . S
C318 C286 1.423 . S
C318 C317 1.351 . S
C319 O303 1.276 . S
C319 O306 1.235 . S
C320 C321 1.393 . S
C320 C324 1.395 . S
C320 C327 1.492 . S
C321 C320 1.393 . S
C321 C322 1.392 . S
C321 H332 0.930 . S
C322 C321 1.392 . S
C322 C323 1.386 . S
C323 C322 1.386 . S
C323 C325 1.395 . S
C323 H333 0.930 . S
C324 C320 1.395 . S
C324 C325 1.379 . S
C324 H334 0.930 . S
C325 C323 1.395 . S
C325 C324 1.379 . S
C325 H335 0.930 . S
C326 O304 1.264 . S
C326 O305 1.254 . S
C327 Eu263 2.848 . S
C327 O302 1.257 . S
C327 O307 1.249 . S
C327 C320 1.492 . S
H328 C311 0.930 . S
H329 C312 0.930 . S
H330 C313 0.930 . S
H331 C314 0.930 . S
H332 C321 0.930 . S
H333 C323 0.930 . S
H334 C324 0.930 . S
H335 C325 0.930 . S
Eu336 N367 2.657 . S
Eu336 N374 2.609 . S
Eu336 O380 2.558 . S
Eu336 O381 2.612 . S
Eu336 O383 2.339 . S
Eu336 O384 2.563 . S
Eu336 O385 2.419 . S
Eu336 O387 2.380 . S
Eu336 O388 2.432 . S
Eu336 C400 2.848 . S
C337 C340 1.429 . S
C337 C341 1.411 . S
C337 N344 1.377 . S
C338 C340 1.420 . S
C338 C342 1.423 . S
C338 C350 1.392 . S
C339 C341 1.420 . S
C339 C342 1.351 . S
C339 H362 0.931 . S
C340 C337 1.429 . S
C340 C338 1.420 . S
C340 N348 1.362 . S
C341 C337 1.411 . S
C341 C339 1.420 . S
C341 C346 1.395 . S
C342 C338 1.423 . S
C342 C339 1.351 . S
C342 H354 0.930 . S
C343 C345 1.400 . S
C343 C346 1.386 . S
C343 H355 0.930 . S
N344 C337 1.377 . S
N344 C345 1.321 . S
N344 Eu347 2.609 . S
C345 C343 1.400 . S
C345 N344 1.321 . S
C345 H352 0.930 . S
C346 C341 1.395 . S
C346 C343 1.386 . S
C346 H365 0.930 . S
Eu347 N344 2.609 . S
Eu347 N348 2.657 . S
Eu347 O381 2.380 . S
Eu347 O382 2.432 . S
Eu347 O386 2.558 . S
Eu347 O387 2.612 . S
Eu347 O389 2.339 . S
Eu347 O390 2.563 . S
Eu347 O391 2.419 . S
Eu347 C411 2.848 . S
N348 C340 1.362 . S
N348 Eu347 2.657 . S
N348 C349 1.334 . S
C349 N348 1.334 . S
C349 C351 1.413 . S
C349 H356 0.929 . S
C350 C338 1.392 . S
C350 C351 1.367 . S
C350 H358 0.930 . S
C351 C349 1.413 . S
C351 C350 1.367 . S
C351 H353 0.930 . S
H352 C345 0.930 . S
H353 C351 0.930 . S
H354 C342 0.930 . S
H355 C343 0.930 . S
H356 C349 0.929 . S
H357 C371 0.930 . S
H358 C350 0.930 . S
H359 C377 0.930 . S
H360 C368 0.929 . S
H361 C375 0.930 . S
H362 C339 0.931 . S
H363 C369 0.930 . S
H364 C402 0.930 . S
H365 C346 0.930 . S
H366 C401 0.931 . S
N367 Eu336 2.657 . S
N367 C368 1.334 . S
N367 C372 1.362 . S
C368 H360 0.929 . S
C368 N367 1.334 . S
C368 C371 1.413 . S
C369 H363 0.930 . S
C369 C370 1.392 . S
C369 C371 1.367 . S
C370 C369 1.392 . S
C370 C372 1.420 . S
C370 C402 1.423 . S
C371 H357 0.930 . S
C371 C368 1.413 . S
C371 C369 1.367 . S
C372 N367 1.362 . S
C372 C370 1.420 . S
C372 C376 1.429 . S
H373 C378 0.930 . S
N374 Eu336 2.609 . S
N374 C376 1.377 . S
N374 C377 1.321 . S
C375 H361 0.930 . S
C375 C377 1.400 . S
C375 C378 1.386 . S
C376 C372 1.429 . S
C376 N374 1.377 . S
C376 C379 1.411 . S
C377 H359 0.930 . S
C377 N374 1.321 . S
C377 C375 1.400 . S
C378 H373 0.930 . S
C378 C375 1.386 . S
C378 C379 1.395 . S
C379 C376 1.411 . S
C379 C378 1.395 . S
C379 C401 1.420 . S
O380 Eu336 2.558 . S
O380 C400 1.257 . S
O381 Eu336 2.612 . S
O381 Eu347 2.380 . S
O381 C392 1.276 . S
O382 Eu347 2.432 . S
O382 C399 1.264 . S
O383 Eu336 2.339 . S
O383 C399 1.254 . S
O384 Eu336 2.563 . S
O384 C392 1.235 . S
O385 Eu336 2.419 . S
O385 C400 1.249 . S
O386 Eu347 2.558 . S
O386 C411 1.257 . S
O387 Eu336 2.380 . S
O387 Eu347 2.612 . S
O387 C403 1.276 . S
O388 Eu336 2.432 . S
O388 C410 1.264 . S
O389 Eu347 2.339 . S
O389 C410 1.254 . S
O390 Eu347 2.563 . S
O390 C403 1.235 . S
O391 Eu347 2.419 . S
O391 C411 1.249 . S
C392 O381 1.276 . S
C392 O384 1.235 . S
C393 C395 1.393 . S
C393 C397 1.395 . S
C393 C400 1.492 . S
C394 C395 1.392 . S
C394 C396 1.386 . S
C395 C393 1.393 . S
C395 C394 1.392 . S
C395 H412 0.930 . S
C396 C394 1.386 . S
C396 C398 1.395 . S
C396 H413 0.930 . S
C397 C393 1.395 . S
C397 C398 1.379 . S
C397 H414 0.930 . S
C398 C396 1.395 . S
C398 C397 1.379 . S
C398 H415 0.930 . S
C399 O382 1.264 . S
C399 O383 1.254 . S
C400 Eu336 2.848 . S
C400 O380 1.257 . S
C400 O385 1.249 . S
C400 C393 1.492 . S
C401 H366 0.931 . S
C401 C379 1.420 . S
C401 C402 1.351 . S
C402 H364 0.930 . S
C402 C370 1.423 . S
C402 C401 1.351 . S
C403 O387 1.276 . S
C403 O390 1.235 . S
C404 C405 1.393 . S
C404 C408 1.395 . S
C404 C411 1.492 . S
C405 C404 1.393 . S
C405 C406 1.392 . S
C405 H416 0.930 . S
C406 C405 1.392 . S
C406 C407 1.386 . S
C407 C406 1.386 . S
C407 C409 1.395 . S
C407 H417 0.930 . S
C408 C404 1.395 . S
C408 C409 1.379 . S
C408 H418 0.930 . S
C409 C407 1.395 . S
C409 C408 1.379 . S
C409 H419 0.930 . S
C410 O388 1.264 . S
C410 O389 1.254 . S
C411 Eu347 2.848 . S
C411 O386 1.257 . S
C411 O391 1.249 . S
C411 C404 1.492 . S
H412 C395 0.930 . S
H413 C396 0.930 . S
H414 C397 0.930 . S
H415 C398 0.930 . S
H416 C405 0.930 . S
H417 C407 0.930 . S
H418 C408 0.930 . S
H419 C409 0.930 . S
Eu420 N451 2.657 . S
Eu420 N458 2.609 . S
Eu420 O464 2.558 . S
Eu420 O465 2.612 . S
Eu420 O467 2.339 . S
Eu420 O468 2.563 . S
Eu420 O469 2.419 . S
Eu420 O471 2.380 . S
Eu420 O472 2.432 . S
Eu420 C484 2.848 . S
C421 C424 1.429 . S
C421 C425 1.411 . S
C421 N428 1.377 . S
C422 C424 1.420 . S
C422 C426 1.423 . S
C422 C434 1.392 . S
C423 C425 1.420 . S
C423 C426 1.351 . S
C423 H446 0.931 . S
C424 C421 1.429 . S
C424 C422 1.420 . S
C424 N432 1.362 . S
C425 C421 1.411 . S
C425 C423 1.420 . S
C425 C430 1.395 . S
C426 C422 1.423 . S
C426 C423 1.351 . S
C426 H438 0.930 . S
C427 C429 1.400 . S
C427 C430 1.386 . S
C427 H439 0.930 . S
N428 C421 1.377 . S
N428 C429 1.321 . S
N428 Eu431 2.609 . S
C429 C427 1.400 . S
C429 N428 1.321 . S
C429 H436 0.930 . S
C430 C425 1.395 . S
C430 C427 1.386 . S
C430 H449 0.930 . S
Eu431 N428 2.609 . S
Eu431 N432 2.657 . S
Eu431 O465 2.380 . S
Eu431 O466 2.432 . S
Eu431 O470 2.558 . S
Eu431 O471 2.612 . S
Eu431 O473 2.339 . S
Eu431 O474 2.563 . S
Eu431 O475 2.419 . S
Eu431 C495 2.848 . S
N432 C424 1.362 . S
N432 Eu431 2.657 . S
N432 C433 1.334 . S
C433 N432 1.334 . S
C433 C435 1.413 . S
C433 H440 0.929 . S
C434 C422 1.392 . S
C434 C435 1.367 . S
C434 H442 0.930 . S
C435 C433 1.413 . S
C435 C434 1.367 . S
C435 H437 0.930 . S
H436 C429 0.930 . S
H437 C435 0.930 . S
H438 C426 0.930 . S
H439 C427 0.930 . S
H440 C433 0.929 . S
H441 C455 0.930 . S
H442 C434 0.930 . S
H443 C461 0.930 . S
H444 C452 0.929 . S
H445 C459 0.930 . S
H446 C423 0.931 . S
H447 C453 0.930 . S
H448 C486 0.930 . S
H449 C430 0.930 . S
H450 C485 0.931 . S
N451 Eu420 2.657 . S
N451 C452 1.334 . S
N451 C456 1.362 . S
C452 H444 0.929 . S
C452 N451 1.334 . S
C452 C455 1.413 . S
C453 H447 0.930 . S
C453 C454 1.392 . S
C453 C455 1.367 . S
C454 C453 1.392 . S
C454 C456 1.420 . S
C454 C486 1.423 . S
C455 H441 0.930 . S
C455 C452 1.413 . S
C455 C453 1.367 . S
C456 N451 1.362 . S
C456 C454 1.420 . S
C456 C460 1.429 . S
H457 C462 0.930 . S
N458 Eu420 2.609 . S
N458 C460 1.377 . S
N458 C461 1.321 . S
C459 H445 0.930 . S
C459 C461 1.400 . S
C459 C462 1.386 . S
C460 C456 1.429 . S
C460 N458 1.377 . S
C460 C463 1.411 . S
C461 H443 0.930 . S
C461 N458 1.321 . S
C461 C459 1.400 . S
C462 H457 0.930 . S
C462 C459 1.386 . S
C462 C463 1.395 . S
C463 C460 1.411 . S
C463 C462 1.395 . S
C463 C485 1.420 . S
O464 Eu420 2.558 . S
O464 C484 1.257 . S
O465 Eu420 2.612 . S
O465 Eu431 2.380 . S
O465 C476 1.276 . S
O466 Eu431 2.432 . S
O466 C483 1.264 . S
O467 Eu420 2.339 . S
O467 C483 1.254 . S
O468 Eu420 2.563 . S
O468 C476 1.235 . S
O469 Eu420 2.419 . S
O469 C484 1.249 . S
O470 Eu431 2.558 . S
O470 C495 1.257 . S
O471 Eu420 2.380 . S
O471 Eu431 2.612 . S
O471 C487 1.276 . S
O472 Eu420 2.432 . S
O472 C494 1.264 . S
O473 Eu431 2.339 . S
O473 C494 1.254 . S
O474 Eu431 2.563 . S
O474 C487 1.235 . S
O475 Eu431 2.419 . S
O475 C495 1.249 . S
C476 O465 1.276 . S
C476 O468 1.235 . S
C477 C479 1.393 . S
C477 C481 1.395 . S
C477 C484 1.492 . S
C478 C479 1.392 . S
C478 C480 1.386 . S
C479 C477 1.393 . S
C479 C478 1.392 . S
C479 H496 0.930 . S
C480 C478 1.386 . S
C480 C482 1.395 . S
C480 H497 0.930 . S
C481 C477 1.395 . S
C481 C482 1.379 . S
C481 H498 0.930 . S
C482 C480 1.395 . S
C482 C481 1.379 . S
C482 H499 0.930 . S
C483 O466 1.264 . S
C483 O467 1.254 . S
C484 Eu420 2.848 . S
C484 O464 1.257 . S
C484 O469 1.249 . S
C484 C477 1.492 . S
C485 H450 0.931 . S
C485 C463 1.420 . S
C485 C486 1.351 . S
C486 H448 0.930 . S
C486 C454 1.423 . S
C486 C485 1.351 . S
C487 O471 1.276 . S
C487 O474 1.235 . S
C488 C489 1.393 . S
C488 C492 1.395 . S
C488 C495 1.492 . S
C489 C488 1.393 . S
C489 C490 1.392 . S
C489 H500 0.930 . S
C490 C489 1.392 . S
C490 C491 1.386 . S
C491 C490 1.386 . S
C491 C493 1.395 . S
C491 H501 0.930 . S
C492 C488 1.395 . S
C492 C493 1.379 . S
C492 H502 0.930 . S
C493 C491 1.395 . S
C493 C492 1.379 . S
C493 H503 0.930 . S
C494 O472 1.264 . S
C494 O473 1.254 . S
C495 Eu431 2.848 . S
C495 O470 1.257 . S
C495 O475 1.249 . S
C495 C488 1.492 . S
H496 C479 0.930 . S
H497 C480 0.930 . S
H498 C481 0.930 . S
H499 C482 0.930 . S
H500 C489 0.930 . S
H501 C491 0.930 . S
H502 C492 0.930 . S
H503 C493 0.930 . S
Eu504 N535 2.657 . S
Eu504 N542 2.609 . S
Eu504 O548 2.558 . S
Eu504 O549 2.612 . S
Eu504 O551 2.339 . S
Eu504 O552 2.563 . S
Eu504 O553 2.419 . S
Eu504 O555 2.380 . S
Eu504 O556 2.432 . S
Eu504 C568 2.848 . S
C505 C508 1.429 . S
C505 C509 1.411 . S
C505 N512 1.377 . S
C506 C508 1.420 . S
C506 C510 1.423 . S
C506 C518 1.392 . S
C507 C509 1.420 . S
C507 C510 1.351 . S
C507 H530 0.931 . S
C508 C505 1.429 . S
C508 C506 1.420 . S
C508 N516 1.362 . S
C509 C505 1.411 . S
C509 C507 1.420 . S
C509 C514 1.395 . S
C510 C506 1.423 . S
C510 C507 1.351 . S
C510 H522 0.930 . S
C511 C513 1.400 . S
C511 C514 1.386 . S
C511 H523 0.930 . S
N512 C505 1.377 . S
N512 C513 1.321 . S
N512 Eu515 2.609 . S
C513 C511 1.400 . S
C513 N512 1.321 . S
C513 H520 0.930 . S
C514 C509 1.395 . S
C514 C511 1.386 . S
C514 H533 0.930 . S
Eu515 N512 2.609 . S
Eu515 N516 2.657 . S
Eu515 O549 2.380 . S
Eu515 O550 2.432 . S
Eu515 O554 2.558 . S
Eu515 O555 2.612 . S
Eu515 O557 2.339 . S
Eu515 O558 2.563 . S
Eu515 O559 2.419 . S
Eu515 C579 2.848 . S
N516 C508 1.362 . S
N516 Eu515 2.657 . S
N516 C517 1.334 . S
C517 N516 1.334 . S
C517 C519 1.413 . S
C517 H524 0.929 . S
C518 C506 1.392 . S
C518 C519 1.367 . S
C518 H526 0.930 . S
C519 C517 1.413 . S
C519 C518 1.367 . S
C519 H521 0.930 . S
H520 C513 0.930 . S
H521 C519 0.930 . S
H522 C510 0.930 . S
H523 C511 0.930 . S
H524 C517 0.929 . S
H525 C539 0.930 . S
H526 C518 0.930 . S
H527 C545 0.930 . S
H528 C536 0.929 . S
H529 C543 0.930 . S
H530 C507 0.931 . S
H531 C537 0.930 . S
H532 C570 0.930 . S
H533 C514 0.930 . S
H534 C569 0.931 . S
N535 Eu504 2.657 . S
N535 C536 1.334 . S
N535 C540 1.362 . S
C536 H528 0.929 . S
C536 N535 1.334 . S
C536 C539 1.413 . S
C537 H531 0.930 . S
C537 C538 1.392 . S
C537 C539 1.367 . S
C538 C537 1.392 . S
C538 C540 1.420 . S
C538 C570 1.423 . S
C539 H525 0.930 . S
C539 C536 1.413 . S
C539 C537 1.367 . S
C540 N535 1.362 . S
C540 C538 1.420 . S
C540 C544 1.429 . S
H541 C546 0.930 . S
N542 Eu504 2.609 . S
N542 C544 1.377 . S
N542 C545 1.321 . S
C543 H529 0.930 . S
C543 C545 1.400 . S
C543 C546 1.386 . S
C544 C540 1.429 . S
C544 N542 1.377 . S
C544 C547 1.411 . S
C545 H527 0.930 . S
C545 N542 1.321 . S
C545 C543 1.400 . S
C546 H541 0.930 . S
C546 C543 1.386 . S
C546 C547 1.395 . S
C547 C544 1.411 . S
C547 C546 1.395 . S
C547 C569 1.420 . S
O548 Eu504 2.558 . S
O548 C568 1.257 . S
O549 Eu504 2.612 . S
O549 Eu515 2.380 . S
O549 C560 1.276 . S
O550 Eu515 2.432 . S
O550 C567 1.264 . S
O551 Eu504 2.339 . S
O551 C567 1.254 . S
O552 Eu504 2.563 . S
O552 C560 1.235 . S
O553 Eu504 2.419 . S
O553 C568 1.249 . S
O554 Eu515 2.558 . S
O554 C579 1.257 . S
O555 Eu504 2.380 . S
O555 Eu515 2.612 . S
O555 C571 1.276 . S
O556 Eu504 2.432 . S
O556 C578 1.264 . S
O557 Eu515 2.339 . S
O557 C578 1.254 . S
O558 Eu515 2.563 . S
O558 C571 1.235 . S
O559 Eu515 2.419 . S
O559 C579 1.249 . S
C560 O549 1.276 . S
C560 O552 1.235 . S
C561 C563 1.393 . S
C561 C565 1.395 . S
C561 C568 1.492 . S
C562 C563 1.392 . S
C562 C564 1.386 . S
C563 C561 1.393 . S
C563 C562 1.392 . S
C563 H580 0.930 . S
C564 C562 1.386 . S
C564 C566 1.395 . S
C564 H581 0.930 . S
C565 C561 1.395 . S
C565 C566 1.379 . S
C565 H582 0.930 . S
C566 C564 1.395 . S
C566 C565 1.379 . S
C566 H583 0.930 . S
C567 O550 1.264 . S
C567 O551 1.254 . S
C568 Eu504 2.848 . S
C568 O548 1.257 . S
C568 O553 1.249 . S
C568 C561 1.492 . S
C569 H534 0.931 . S
C569 C547 1.420 . S
C569 C570 1.351 . S
C570 H532 0.930 . S
C570 C538 1.423 . S
C570 C569 1.351 . S
C571 O555 1.276 . S
C571 O558 1.235 . S
C572 C573 1.393 . S
C572 C576 1.395 . S
C572 C579 1.492 . S
C573 C572 1.393 . S
C573 C574 1.392 . S
C573 H584 0.930 . S
C574 C573 1.392 . S
C574 C575 1.386 . S
C575 C574 1.386 . S
C575 C577 1.395 . S
C575 H585 0.930 . S
C576 C572 1.395 . S
C576 C577 1.379 . S
C576 H586 0.930 . S
C577 C575 1.395 . S
C577 C576 1.379 . S
C577 H587 0.930 . S
C578 O556 1.264 . S
C578 O557 1.254 . S
C579 Eu515 2.848 . S
C579 O554 1.257 . S
C579 O559 1.249 . S
C579 C572 1.492 . S
H580 C563 0.930 . S
H581 C564 0.930 . S
H582 C565 0.930 . S
H583 C566 0.930 . S
H584 C573 0.930 . S
H585 C575 0.930 . S
H586 C576 0.930 . S
H587 C577 0.930 . S
Eu588 N619 2.657 . S
Eu588 N626 2.609 . S
Eu588 O632 2.558 . S
Eu588 O633 2.612 . S
Eu588 O635 2.339 . S
Eu588 O636 2.563 . S
Eu588 O637 2.419 . S
Eu588 O639 2.380 . S
Eu588 O640 2.432 . S
Eu588 C652 2.848 . S
C589 C592 1.429 . S
C589 C593 1.411 . S
C589 N596 1.377 . S
C590 C592 1.420 . S
C590 C594 1.423 . S
C590 C602 1.392 . S
C591 C593 1.420 . S
C591 C594 1.351 . S
C591 H614 0.931 . S
C592 C589 1.429 . S
C592 C590 1.420 . S
C592 N600 1.362 . S
C593 C589 1.411 . S
C593 C591 1.420 . S
C593 C598 1.395 . S
C594 C590 1.423 . S
C594 C591 1.351 . S
C594 H606 0.930 . S
C595 C597 1.400 . S
C595 C598 1.386 . S
C595 H607 0.930 . S
N596 C589 1.377 . S
N596 C597 1.321 . S
N596 Eu599 2.609 . S
C597 C595 1.400 . S
C597 N596 1.321 . S
C597 H604 0.930 . S
C598 C593 1.395 . S
C598 C595 1.386 . S
C598 H617 0.930 . S
Eu599 N596 2.609 . S
Eu599 N600 2.657 . S
Eu599 O633 2.380 . S
Eu599 O634 2.432 . S
Eu599 O638 2.558 . S
Eu599 O639 2.612 . S
Eu599 O641 2.339 . S
Eu599 O642 2.563 . S
Eu599 O643 2.419 . S
Eu599 C663 2.848 . S
N600 C592 1.362 . S
N600 Eu599 2.657 . S
N600 C601 1.334 . S
C601 N600 1.334 . S
C601 C603 1.413 . S
C601 H608 0.929 . S
C602 C590 1.392 . S
C602 C603 1.367 . S
C602 H610 0.930 . S
C603 C601 1.413 . S
C603 C602 1.367 . S
C603 H605 0.930 . S
H604 C597 0.930 . S
H605 C603 0.930 . S
H606 C594 0.930 . S
H607 C595 0.930 . S
H608 C601 0.929 . S
H609 C623 0.930 . S
H610 C602 0.930 . S
H611 C629 0.930 . S
H612 C620 0.929 . S
H613 C627 0.930 . S
H614 C591 0.931 . S
H615 C621 0.930 . S
H616 C654 0.930 . S
H617 C598 0.930 . S
H618 C653 0.931 . S
N619 Eu588 2.657 . S
N619 C620 1.334 . S
N619 C624 1.362 . S
C620 H612 0.929 . S
C620 N619 1.334 . S
C620 C623 1.413 . S
C621 H615 0.930 . S
C621 C622 1.392 . S
C621 C623 1.367 . S
C622 C621 1.392 . S
C622 C624 1.420 . S
C622 C654 1.423 . S
C623 H609 0.930 . S
C623 C620 1.413 . S
C623 C621 1.367 . S
C624 N619 1.362 . S
C624 C622 1.420 . S
C624 C628 1.429 . S
H625 C630 0.930 . S
N626 Eu588 2.609 . S
N626 C628 1.377 . S
N626 C629 1.321 . S
C627 H613 0.930 . S
C627 C629 1.400 . S
C627 C630 1.386 . S
C628 C624 1.429 . S
C628 N626 1.377 . S
C628 C631 1.411 . S
C629 H611 0.930 . S
C629 N626 1.321 . S
C629 C627 1.400 . S
C630 H625 0.930 . S
C630 C627 1.386 . S
C630 C631 1.395 . S
C631 C628 1.411 . S
C631 C630 1.395 . S
C631 C653 1.420 . S
O632 Eu588 2.558 . S
O632 C652 1.257 . S
O633 Eu588 2.612 . S
O633 Eu599 2.380 . S
O633 C644 1.276 . S
O634 Eu599 2.432 . S
O634 C651 1.264 . S
O635 Eu588 2.339 . S
O635 C651 1.254 . S
O636 Eu588 2.563 . S
O636 C644 1.235 . S
O637 Eu588 2.419 . S
O637 C652 1.249 . S
O638 Eu599 2.558 . S
O638 C663 1.257 . S
O639 Eu588 2.380 . S
O639 Eu599 2.612 . S
O639 C655 1.276 . S
O640 Eu588 2.432 . S
O640 C662 1.264 . S
O641 Eu599 2.339 . S
O641 C662 1.254 . S
O642 Eu599 2.563 . S
O642 C655 1.235 . S
O643 Eu599 2.419 . S
O643 C663 1.249 . S
C644 O633 1.276 . S
C644 O636 1.235 . S
C645 C647 1.393 . S
C645 C649 1.395 . S
C645 C652 1.492 . S
C646 C647 1.392 . S
C646 C648 1.386 . S
C647 C645 1.393 . S
C647 C646 1.392 . S
C647 H664 0.930 . S
C648 C646 1.386 . S
C648 C650 1.395 . S
C648 H665 0.930 . S
C649 C645 1.395 . S
C649 C650 1.379 . S
C649 H666 0.930 . S
C650 C648 1.395 . S
C650 C649 1.379 . S
C650 H667 0.930 . S
C651 O634 1.264 . S
C651 O635 1.254 . S
C652 Eu588 2.848 . S
C652 O632 1.257 . S
C652 O637 1.249 . S
C652 C645 1.492 . S
C653 H618 0.931 . S
C653 C631 1.420 . S
C653 C654 1.351 . S
C654 H616 0.930 . S
C654 C622 1.423 . S
C654 C653 1.351 . S
C655 O639 1.276 . S
C655 O642 1.235 . S
C656 C657 1.393 . S
C656 C660 1.395 . S
C656 C663 1.492 . S
C657 C656 1.393 . S
C657 C658 1.392 . S
C657 H668 0.930 . S
C658 C657 1.392 . S
C658 C659 1.386 . S
C659 C658 1.386 . S
C659 C661 1.395 . S
C659 H669 0.930 . S
C660 C656 1.395 . S
C660 C661 1.379 . S
C660 H670 0.930 . S
C661 C659 1.395 . S
C661 C660 1.379 . S
C661 H671 0.930 . S
C662 O640 1.264 . S
C662 O641 1.254 . S
C663 Eu599 2.848 . S
C663 O638 1.257 . S
C663 O643 1.249 . S
C663 C656 1.492 . S
H664 C647 0.930 . S
H665 C648 0.930 . S
H666 C649 0.930 . S
H667 C650 0.930 . S
H668 C657 0.930 . S
H669 C659 0.930 . S
H670 C660 0.930 . S
H671 C661 0.930 . S
C672 O684 1.241 . S
C672 O685 1.280 . S
C673 O686 1.277 . S
C673 O687 1.245 . S
C674 O698 1.247 . S
C674 O700 1.289 . S
Mg675 O676 1.926 1_455 S
Mg675 O685 1.984 1_455 S
Mg675 O687 1.988 1_455 S
Mg675 O688 2.061 . S
O676 Mg675 1.926 1_655 S
O676 Mg677 1.986 1_545 S
O676 Mg678 1.927 1_655 S
Mg677 O676 1.986 1_565 S
Mg677 O684 2.042 1_565 S
Mg677 O686 2.041 1_565 S
Mg677 O692 2.038 . S
Mg677 O700 2.238 . S
Mg678 O676 1.927 1_455 S
Mg678 O679 1.907 1_545 S
Mg678 O689 2.108 . S
Mg678 O691 2.074 1_445 S
Mg678 O700 2.105 1_445 S
Mg678 O701 2.083 . S
O679 Mg678 1.907 1_565 S
O679 Mg680 1.926 . S
O679 Mg681 1.986 1_565 S
Mg680 O679 1.926 . S
Mg680 O694 1.984 . S
Mg680 O697 1.988 . S
Mg680 O698 2.061 1_455 S
Mg681 O679 1.986 1_545 S
Mg681 O689 2.238 . S
Mg681 O693 2.042 1_545 S
Mg681 O695 2.041 1_545 S
Mg681 O702 2.038 . S
C682 O688 1.247 . S
C682 O689 1.289 . S
C683 O701 1.245 . S
C683 O702 1.274 . S
O684 C672 1.241 . S
O684 Mg677 2.042 1_545 S
O685 C672 1.280 . S
O685 Mg675 1.984 1_655 S
O686 C673 1.277 . S
O686 Mg677 2.041 1_545 S
O687 C673 1.245 . S
O687 Mg675 1.988 1_655 S
O688 Mg675 2.061 . S
O688 C682 1.247 . S
O689 Mg678 2.108 . S
O689 Mg681 2.238 . S
O689 C682 1.289 . S
C690 O691 1.245 . S
C690 O692 1.274 . S
O691 Mg678 2.074 1_665 S
O691 C690 1.245 . S
O692 Mg677 2.038 . S
O692 C690 1.274 . S
O693 Mg681 2.042 1_565 S
O693 C696 1.241 . S
O694 Mg680 1.984 . S
O694 C696 1.280 . S
O695 Mg681 2.041 1_565 S
O695 C699 1.277 . S
C696 O693 1.241 . S
C696 O694 1.280 . S
O697 Mg680 1.988 . S
O697 C699 1.245 . S
O698 C674 1.247 . S
O698 Mg680 2.061 1_655 S
C699 O695 1.277 . S
C699 O697 1.245 . S
O700 C674 1.289 . S
O700 Mg677 2.238 . S
O700 Mg678 2.105 1_665 S
O701 Mg678 2.083 . S
O701 C683 1.245 . S
O702 Mg681 2.038 . S
O702 C683 1.274 . S
C703 O715 1.241 . S
C703 O716 1.280 . S
C704 O717 1.277 . S
C704 O718 1.245 . S
C705 O729 1.247 . S
C705 O731 1.289 . S
Mg706 O707 1.926 . S
Mg706 O716 1.984 . S
Mg706 O718 1.988 1_554 S
Mg706 O719 2.061 . S
O707 Mg706 1.926 . S
O707 Mg708 1.986 1_544 S
O707 Mg709 1.928 . S
Mg708 O707 1.986 1_566 S
Mg708 O715 2.042 1_566 S
Mg708 O717 2.041 1_565 S
Mg708 O723 2.038 1_556 S
Mg708 O731 2.238 . S
Mg709 O707 1.928 . S
Mg709 O710 1.906 1_544 S
Mg709 O720 2.111 . S
Mg709 O722 2.080 1_545 S
Mg709 O731 2.102 1_544 S
Mg709 O732 2.078 1_554 S
O710 Mg709 1.906 1_566 S
O710 Mg711 1.926 . S
O710 Mg712 1.986 1_566 S
Mg711 O710 1.926 . S
Mg711 O725 1.984 . S
Mg711 O728 1.988 1_556 S
Mg711 O729 2.061 . S
Mg712 O710 1.986 1_544 S
Mg712 O720 2.238 . S
Mg712 O724 2.042 1_544 S
Mg712 O726 2.041 1_545 S
Mg712 O733 2.038 1_554 S
C713 O719 1.247 . S
C713 O720 1.289 . S
C714 O732 1.245 . S
C714 O733 1.274 . S
O715 C703 1.241 . S
O715 Mg708 2.042 1_544 S
O716 C703 1.280 . S
O716 Mg706 1.984 . S
O717 C704 1.277 . S
O717 Mg708 2.041 1_545 S
O718 C704 1.245 . S
O718 Mg706 1.988 1_556 S
O719 Mg706 2.061 . S
O719 C713 1.247 . S
O720 Mg709 2.111 . S
O720 Mg712 2.238 . S
O720 C713 1.289 . S
C721 O722 1.245 . S
C721 O723 1.274 . S
O722 Mg709 2.080 1_565 S
O722 C721 1.245 . S
O723 Mg708 2.038 1_554 S
O723 C721 1.274 . S
O724 Mg712 2.042 1_566 S
O724 C727 1.241 . S
O725 Mg711 1.984 . S
O725 C727 1.280 . S
O726 Mg712 2.041 1_565 S
O726 C730 1.277 . S
C727 O724 1.241 . S
C727 O725 1.280 . S
O728 Mg711 1.988 1_554 S
O728 C730 1.245 . S
O729 C705 1.247 . S
O729 Mg711 2.061 . S
C730 O726 1.277 . S
C730 O728 1.245 . S
O731 C705 1.289 . S
O731 Mg708 2.238 . S
O731 Mg709 2.102 1_566 S
O732 Mg709 2.078 1_556 S
O732 C714 1.245 . S
O733 Mg712 2.038 1_556 S
O733 C714 1.274 . S
C734 O746 1.241 . S
C734 O747 1.280 . S
C735 O748 1.277 . S
C735 O749 1.245 . S
C736 O760 1.247 . S
C736 O762 1.289 . S
Mg737 O738 1.926 1_455 S
Mg737 O747 1.984 1_455 S
Mg737 O749 1.988 1_454 S
Mg737 O750 2.061 . S
O738 Mg737 1.926 1_655 S
O738 Mg739 1.986 1_554 S
O738 Mg740 1.919 1_655 S
Mg739 O738 1.986 1_556 S
Mg739 O746 2.042 1_556 S
Mg739 O748 2.041 . S
Mg739 O754 2.038 1_556 S
Mg739 O762 2.238 . S
Mg740 O738 1.919 1_455 S
Mg740 O741 1.915 1_554 S
Mg740 O751 2.110 . S
Mg740 O753 2.084 1_455 S
Mg740 O762 2.103 1_454 S
Mg740 O763 2.074 1_554 S
O741 Mg740 1.915 1_556 S
O741 Mg742 1.926 . S
O741 Mg743 1.986 1_556 S
Mg742 O741 1.926 . S
Mg742 O756 1.984 . S
Mg742 O759 1.988 1_556 S
Mg742 O760 2.061 1_455 S
Mg743 O741 1.986 1_554 S
Mg743 O751 2.238 . S
Mg743 O755 2.042 1_554 S
Mg743 O757 2.041 . S
Mg743 O764 2.038 1_554 S
C744 O750 1.247 . S
C744 O751 1.289 . S
C745 O763 1.245 . S
C745 O764 1.274 . S
O746 C734 1.241 . S
O746 Mg739 2.042 1_554 S
O747 C734 1.280 . S
O747 Mg737 1.984 1_655 S
O748 C735 1.277 . S
O748 Mg739 2.041 . S
O749 C735 1.245 . S
O749 Mg737 1.988 1_656 S
O750 Mg737 2.061 . S
O750 C744 1.247 . S
O751 Mg740 2.110 . S
O751 Mg743 2.238 . S
O751 C744 1.289 . S
C752 O753 1.245 . S
C752 O754 1.274 . S
O753 Mg740 2.084 1_655 S
O753 C752 1.245 . S
O754 Mg739 2.038 1_554 S
O754 C752 1.274 . S
O755 Mg743 2.042 1_556 S
O755 C758 1.241 . S
O756 Mg742 1.984 . S
O756 C758 1.280 . S
O757 Mg743 2.041 . S
O757 C761 1.277 . S
C758 O755 1.241 . S
C758 O756 1.280 . S
O759 Mg742 1.988 1_554 S
O759 C761 1.245 . S
O760 C736 1.247 . S
O760 Mg742 2.061 1_655 S
C761 O757 1.277 . S
C761 O759 1.245 . S
O762 C736 1.289 . S
O762 Mg739 2.238 . S
O762 Mg740 2.103 1_656 S
O763 Mg740 2.074 1_556 S
O763 C745 1.245 . S
O764 Mg743 2.038 1_556 S
O764 C745 1.274 . S
C765 O777 1.241 . S
C765 O778 1.280 . S
C766 O779 1.277 . S
C766 O780 1.245 . S
C767 O791 1.247 . S
C767 O793 1.289 . S
Mg768 O769 1.926 . S
Mg768 O778 1.984 . S
Mg768 O780 1.988 1_554 S
Mg768 O781 2.061 . S
O769 Mg768 1.926 . S
O769 Mg770 1.986 1_554 S
O769 Mg771 1.919 . S
Mg770 O769 1.986 1_556 S
Mg770 O777 2.042 1_556 S
Mg770 O779 2.041 . S
Mg770 O785 2.038 1_556 S
Mg770 O793 2.238 . S
Mg771 O769 1.919 . S
Mg771 O772 1.915 1_554 S
Mg771 O782 2.110 . S
Mg771 O784 2.084 . S
Mg771 O793 2.103 1_554 S
Mg771 O794 2.074 1_554 S
O772 Mg771 1.915 1_556 S
O772 Mg773 1.926 . S
O772 Mg774 1.986 1_556 S
Mg773 O772 1.926 . S
Mg773 O787 1.984 . S
Mg773 O790 1.988 1_556 S
Mg773 O791 2.061 . S
Mg774 O772 1.986 1_554 S
Mg774 O782 2.238 . S
Mg774 O786 2.042 1_554 S
Mg774 O788 2.041 . S
Mg774 O795 2.038 1_554 S
C775 O781 1.247 . S
C775 O782 1.289 . S
C776 O794 1.245 . S
C776 O795 1.274 . S
O777 C765 1.241 . S
O777 Mg770 2.042 1_554 S
O778 C765 1.280 . S
O778 Mg768 1.984 . S
O779 C766 1.277 . S
O779 Mg770 2.041 . S
O780 C766 1.245 . S
O780 Mg768 1.988 1_556 S
O781 Mg768 2.061 . S
O781 C775 1.247 . S
O782 Mg771 2.110 . S
O782 Mg774 2.238 . S
O782 C775 1.289 . S
C783 O784 1.245 . S
C783 O785 1.274 . S
O784 Mg771 2.084 . S
O784 C783 1.245 . S
O785 Mg770 2.038 1_554 S
O785 C783 1.274 . S
O786 Mg774 2.042 1_556 S
O786 C789 1.241 . S
O787 Mg773 1.984 . S
O787 C789 1.280 . S
O788 Mg774 2.041 . S
O788 C792 1.277 . S
C789 O786 1.241 . S
C789 O787 1.280 . S
O790 Mg773 1.988 1_554 S
O790 C792 1.245 . S
O791 C767 1.247 . S
O791 Mg773 2.061 . S
C792 O788 1.277 . S
C792 O790 1.245 . S
O793 C767 1.289 . S
O793 Mg770 2.238 . S
O793 Mg771 2.103 1_556 S
O794 Mg771 2.074 1_556 S
O794 C776 1.245 . S
O795 Mg774 2.038 1_556 S
O795 C776 1.274 . S
C796 O808 1.241 . S
C796 O809 1.280 . S
C797 O810 1.277 . S
C797 O811 1.245 . S
C798 O822 1.247 . S
C798 O824 1.289 . S
Mg799 O800 1.926 1_455 S
Mg799 O809 1.984 1_455 S
Mg799 O811 1.988 1_455 S
Mg799 O812 2.061 . S
O800 Mg799 1.926 1_655 S
O800 Mg801 1.986 . S
O800 Mg802 1.917 1_655 S
Mg801 O800 1.986 . S
Mg801 O808 2.042 . S
Mg801 O810 2.041 . S
Mg801 O816 2.038 . S
Mg801 O824 2.238 . S
Mg802 O800 1.917 1_455 S
Mg802 O803 1.917 . S
Mg802 O813 2.106 . S
Mg802 O815 2.079 1_455 S
Mg802 O824 2.106 1_455 S
Mg802 O825 2.079 . S
O803 Mg802 1.917 . S
O803 Mg804 1.926 . S
O803 Mg805 1.986 . S
Mg804 O803 1.926 . S
Mg804 O818 1.984 . S
Mg804 O821 1.988 . S
Mg804 O822 2.061 1_455 S
Mg805 O803 1.986 . S
Mg805 O813 2.238 . S
Mg805 O817 2.042 . S
Mg805 O819 2.041 . S
Mg805 O826 2.038 . S
C806 O812 1.247 . S
C806 O813 1.289 . S
C807 O825 1.245 . S
C807 O826 1.274 . S
O808 C796 1.241 . S
O808 Mg801 2.042 . S
O809 C796 1.280 . S
O809 Mg799 1.984 1_655 S
O810 C797 1.277 . S
O810 Mg801 2.041 . S
O811 C797 1.245 . S
O811 Mg799 1.988 1_655 S
O812 Mg799 2.061 . S
O812 C806 1.247 . S
O813 Mg802 2.106 . S
O813 Mg805 2.238 . S
O813 C806 1.289 . S
C814 O815 1.245 . S
C814 O816 1.274 . S
O815 Mg802 2.079 1_655 S
O815 C814 1.245 . S
O816 Mg801 2.038 . S
O816 C814 1.274 . S
O817 Mg805 2.042 . S
O817 C820 1.241 . S
O818 Mg804 1.984 . S
O818 C820 1.280 . S
O819 Mg805 2.041 . S
O819 C823 1.277 . S
C820 O817 1.241 . S
C820 O818 1.280 . S
O821 Mg804 1.988 . S
O821 C823 1.245 . S
O822 C798 1.247 . S
O822 Mg804 2.061 1_655 S
C823 O819 1.277 . S
C823 O821 1.245 . S
O824 C798 1.289 . S
O824 Mg801 2.238 . S
O824 Mg802 2.106 1_655 S
O825 Mg802 2.079 . S
O825 C807 1.245 . S
O826 Mg805 2.038 . S
O826 C807 1.274 . S
C827 O839 1.241 . S
C827 O840 1.280 . S
C828 O841 1.277 . S
C828 O842 1.245 . S
C829 O853 1.247 . S
C829 O855 1.289 . S
Mg830 O831 1.926 . S
Mg830 O840 1.984 . S
Mg830 O842 1.988 . S
Mg830 O843 2.061 . S
O831 Mg830 1.926 . S
O831 Mg832 1.986 1_545 S
O831 Mg833 1.926 . S
Mg832 O831 1.986 1_565 S
Mg832 O839 2.042 1_565 S
Mg832 O841 2.041 1_565 S
Mg832 O847 2.038 . S
Mg832 O855 2.238 . S
Mg833 O831 1.926 . S
Mg833 O834 1.908 1_545 S
Mg833 O844 2.108 . S
Mg833 O846 2.075 1_545 S
Mg833 O855 2.105 1_545 S
Mg833 O856 2.083 . S
O834 Mg833 1.908 1_565 S
O834 Mg835 1.926 . S
O834 Mg836 1.986 1_565 S
Mg835 O834 1.926 . S
Mg835 O849 1.984 . S
Mg835 O852 1.988 . S
Mg835 O853 2.061 . S
Mg836 O834 1.986 1_545 S
Mg836 O844 2.238 . S
Mg836 O848 2.042 1_545 S
Mg836 O850 2.041 1_545 S
Mg836 O857 2.038 . S
C837 O843 1.247 . S
C837 O844 1.289 . S
C838 O856 1.245 . S
C838 O857 1.274 . S
O839 C827 1.241 . S
O839 Mg832 2.042 1_545 S
O840 C827 1.280 . S
O840 Mg830 1.984 . S
O841 C828 1.277 . S
O841 Mg832 2.041 1_545 S
O842 C828 1.245 . S
O842 Mg830 1.988 . S
O843 Mg830 2.061 . S
O843 C837 1.247 . S
O844 Mg833 2.108 . S
O844 Mg836 2.238 . S
O844 C837 1.289 . S
C845 O846 1.245 . S
C845 O847 1.274 . S
O846 Mg833 2.075 1_565 S
O846 C845 1.245 . S
O847 Mg832 2.038 . S
O847 C845 1.274 . S
O848 Mg836 2.042 1_565 S
O848 C851 1.241 . S
O849 Mg835 1.984 . S
O849 C851 1.280 . S
O850 Mg836 2.041 1_565 S
O850 C854 1.277 . S
C851 O848 1.241 . S
C851 O849 1.280 . S
O852 Mg835 1.988 . S
O852 C854 1.245 . S
O853 C829 1.247 . S
O853 Mg835 2.061 . S
C854 O850 1.277 . S
C854 O852 1.245 . S
O855 C829 1.289 . S
O855 Mg832 2.238 . S
O855 Mg833 2.105 1_565 S
O856 Mg833 2.083 . S
O856 C838 1.245 . S
O857 Mg836 2.038 . S
O857 C838 1.274 . S
H858 C864 0.930 . S
H859 C867 0.930 . S
H860 C868 0.930 . S
H861 C869 0.930 . S
H862 C872 0.930 . S
H863 C873 0.930 . S
C864 H858 0.930 . S
C864 C865 1.355 . S
C864 C866 1.415 . S
C865 C864 1.355 . S
C865 C867 1.419 . S
C866 C864 1.415 . S
C866 C871 1.425 . S
C866 C873 1.409 . S
C867 H859 0.930 . S
C867 C865 1.419 . S
C867 C868 1.362 . S
C868 H860 0.930 . S
C868 C867 1.362 . S
C868 C871 1.409 . S
C869 H861 0.930 . S
C869 C870 1.355 . S
C869 C871 1.415 . S
C870 C869 1.355 . S
C870 C872 1.419 . S
C871 C866 1.425 . S
C871 C868 1.409 . S
C871 C869 1.415 . S
C872 H862 0.930 . S
C872 C870 1.419 . S
C872 C873 1.362 . S
C873 H863 0.930 . S
C873 C866 1.409 . S
C873 C872 1.362 . S
H874 C880 0.930 . S
H875 C883 0.930 . S
H876 C884 0.930 . S
H877 C885 0.930 . S
H878 C888 0.930 . S
H879 C889 0.930 . S
C880 H874 0.930 . S
C880 C881 1.355 . S
C880 C882 1.415 . S
C881 C880 1.355 . S
C881 C883 1.419 . S
C882 C880 1.415 . S
C882 C887 1.425 . S
C882 C889 1.409 . S
C883 H875 0.930 . S
C883 C881 1.419 . S
C883 C884 1.362 . S
C884 H876 0.930 . S
C884 C883 1.362 . S
C884 C887 1.409 . S
C885 H877 0.930 . S
C885 C886 1.355 . S
C885 C887 1.415 . S
C886 C885 1.355 . S
C886 C888 1.419 . S
C887 C882 1.425 . S
C887 C884 1.409 . S
C887 C885 1.415 . S
C888 H878 0.930 . S
C888 C886 1.419 . S
C888 C889 1.362 . S
C889 H879 0.930 . S
C889 C882 1.409 . S
C889 C888 1.362 . S
H890 C896 0.930 . S
H891 C899 0.930 . S
H892 C900 0.930 . S
H893 C901 0.930 . S
H894 C904 0.930 . S
H895 C905 0.930 . S
C896 H890 0.930 . S
C896 C897 1.355 . S
C896 C898 1.415 . S
C897 C896 1.355 . S
C897 C899 1.419 . S
C898 C896 1.415 . S
C898 C903 1.425 . S
C898 C905 1.409 . S
C899 H891 0.930 . S
C899 C897 1.419 . S
C899 C900 1.362 . S
C900 H892 0.930 . S
C900 C899 1.362 . S
C900 C903 1.409 . S
C901 H893 0.930 . S
C901 C902 1.355 . S
C901 C903 1.415 . S
C902 C901 1.355 . S
C902 C904 1.419 . S
C903 C898 1.425 . S
C903 C900 1.409 . S
C903 C901 1.415 . S
C904 H894 0.930 . S
C904 C902 1.419 . S
C904 C905 1.362 . S
C905 H895 0.930 . S
C905 C898 1.409 . S
C905 C904 1.362 . S
H906 C912 0.930 . S
H907 C915 0.930 . S
H908 C916 0.930 . S
H909 C917 0.930 . S
H910 C920 0.930 . S
H911 C921 0.930 . S
C912 H906 0.930 . S
C912 C913 1.355 . S
C912 C914 1.415 . S
C913 C912 1.355 . S
C913 C915 1.419 . S
C914 C912 1.415 . S
C914 C919 1.425 . S
C914 C921 1.409 . S
C915 H907 0.930 . S
C915 C913 1.419 . S
C915 C916 1.362 . S
C916 H908 0.930 . S
C916 C915 1.362 . S
C916 C919 1.409 . S
C917 H909 0.930 . S
C917 C918 1.355 . S
C917 C919 1.415 . S
C918 C917 1.355 . S
C918 C920 1.419 . S
C919 C914 1.425 . S
C919 C916 1.409 . S
C919 C917 1.415 . S
C920 H910 0.930 . S
C920 C918 1.419 . S
C920 C921 1.362 . S
C921 H911 0.930 . S
C921 C914 1.409 . S
C921 C920 1.362 . S
H922 C928 0.930 . S
H923 C931 0.930 . S
H924 C932 0.930 . S
H925 C933 0.930 . S
H926 C936 0.911 1_655 S
H927 C937 0.930 . S
C928 H922 0.930 . S
C928 C929 1.355 . S
C928 C930 1.415 . S
C929 C928 1.355 . S
C929 C931 1.419 . S
C930 C928 1.415 . S
C930 C935 1.425 . S
C930 C937 1.409 . S
C931 H923 0.930 . S
C931 C929 1.419 . S
C931 C932 1.362 . S
C932 H924 0.930 . S
C932 C931 1.362 . S
C932 C935 1.409 . S
C933 H925 0.930 . S
C933 C934 1.355 . S
C933 C935 1.415 . S
C934 C933 1.355 . S
C934 C936 1.419 . S
C935 C930 1.425 . S
C935 C932 1.409 . S
C935 C933 1.415 . S
C936 H926 0.911 1_455 S
C936 C934 1.419 . S
C936 C937 1.362 . S
C937 H927 0.930 . S
C937 C930 1.409 . S
C937 C936 1.362 . S
H938 C944 0.930 . S
H939 C947 0.930 . S
H940 C948 0.930 . S
H941 C949 0.930 . S
H942 C952 0.930 . S
H943 C953 0.930 . S
C944 H938 0.930 . S
C944 C945 1.355 . S
C944 C946 1.415 . S
C945 C944 1.355 . S
C945 C947 1.419 . S
C946 C944 1.415 . S
C946 C951 1.425 . S
C946 C953 1.409 . S
C947 H939 0.930 . S
C947 C945 1.419 . S
C947 C948 1.362 . S
C948 H940 0.930 . S
C948 C947 1.362 . S
C948 C951 1.409 . S
C949 H941 0.930 . S
C949 C950 1.355 . S
C949 C951 1.415 . S
C950 C949 1.355 . S
C950 C952 1.419 . S
C951 C946 1.425 . S
C951 C948 1.409 . S
C951 C949 1.415 . S
C952 H942 0.930 . S
C952 C950 1.419 . S
C952 C953 1.362 . S
C953 H943 0.930 . S
C953 C946 1.409 . S
C953 C952 1.362 . S
H954 C960 0.930 . S
H955 C963 0.930 . S
H956 C964 0.930 . S
H957 C965 0.930 . S
H958 C968 0.930 . S
H959 C969 0.930 . S
C960 H954 0.930 . S
C960 C961 1.355 . S
C960 C962 1.415 . S
C961 C960 1.355 . S
C961 C963 1.419 . S
C962 C960 1.415 . S
C962 C967 1.425 . S
C962 C969 1.409 . S
C963 H955 0.930 . S
C963 C961 1.419 . S
C963 C964 1.362 . S
C964 H956 0.930 . S
C964 C963 1.362 . S
C964 C967 1.409 . S
C965 H957 0.930 . S
C965 C966 1.355 . S
C965 C967 1.415 . S
C966 C965 1.355 . S
C966 C968 1.419 . S
C967 C962 1.425 . S
C967 C964 1.409 . S
C967 C965 1.415 . S
C968 H958 0.930 . S
C968 C966 1.419 . S
C968 C969 1.362 . S
C969 H959 0.930 . S
C969 C962 1.409 . S
C969 C968 1.362 . S
H970 C976 0.930 . S
H971 C979 0.930 . S
H972 C980 0.930 . S
H973 C981 0.930 . S
H974 C984 0.930 . S
H975 C985 0.930 . S
C976 H970 0.930 . S
C976 C977 1.355 . S
C976 C978 1.415 . S
C977 C976 1.355 . S
C977 C979 1.419 . S
C978 C976 1.415 . S
C978 C983 1.425 . S
C978 C985 1.409 . S
C979 H971 0.930 . S
C979 C977 1.419 . S
C979 C980 1.362 . S
C980 H972 0.930 . S
C980 C979 1.362 . S
C980 C983 1.409 . S
C981 H973 0.930 . S
C981 C982 1.355 . S
C981 C983 1.415 . S
C982 C981 1.355 . S
C982 C984 1.419 . S
C983 C978 1.425 . S
C983 C980 1.409 . S
C983 C981 1.415 . S
C984 H974 0.930 . S
C984 C982 1.419 . S
C984 C985 1.362 . S
C985 H975 0.930 . S
C985 C978 1.409 . S
C985 C984 1.362 . S
H986 C992 0.930 . S
H987 C995 0.930 . S
H988 C996 0.930 . S
H989 C997 0.930 . S
H990 C1000 0.930 1_565 S
H991 C1001 0.930 1_565 S
C992 H986 0.930 . S
C992 C993 1.355 . S
C992 C994 1.415 . S
C993 C992 1.355 . S
C993 C995 1.419 . S
C994 C992 1.415 . S
C994 C999 1.425 . S
C994 C1001 1.409 . S
C995 H987 0.930 . S
C995 C993 1.419 . S
C995 C996 1.362 . S
C996 H988 0.930 . S
C996 C995 1.362 . S
C996 C999 1.409 . S
C997 H989 0.930 . S
C997 C998 1.355 . S
C997 C999 1.415 . S
C998 C997 1.355 . S
C998 C1000 1.419 . S
C999 C994 1.425 . S
C999 C996 1.409 . S
C999 C997 1.415 . S
C1000 H990 0.930 1_545 S
C1000 C998 1.419 . S
C1000 C1001 1.362 . S
C1001 H991 0.930 1_545 S
C1001 C994 1.409 . S
C1001 C1000 1.362 . S
H1002 C1008 0.930 . S
H1003 C1011 0.930 . S
H1004 C1012 0.930 . S
H1005 C1013 0.930 . S
H1006 C1016 0.930 . S
H1007 C1017 0.930 . S
C1008 H1002 0.930 . S
C1008 C1009 1.355 . S
C1008 C1010 1.415 . S
C1009 C1008 1.355 . S
C1009 C1011 1.419 . S
C1010 C1008 1.415 . S
C1010 C1015 1.425 . S
C1010 C1017 1.409 . S
C1011 H1003 0.930 . S
C1011 C1009 1.419 . S
C1011 C1012 1.362 . S
C1012 H1004 0.930 . S
C1012 C1011 1.362 . S
C1012 C1015 1.409 . S
C1013 H1005 0.930 . S
C1013 C1014 1.355 . S
C1013 C1015 1.415 . S
C1014 C1013 1.355 . S
C1014 C1016 1.419 . S
C1015 C1010 1.425 . S
C1015 C1012 1.409 . S
C1015 C1013 1.415 . S
C1016 H1006 0.930 . S
C1016 C1014 1.419 . S
C1016 C1017 1.362 . S
C1017 H1007 0.930 . S
C1017 C1010 1.409 . S
C1017 C1016 1.362 . S
H1018 C1024 0.930 . S
H1019 C1027 0.930 . S
H1020 C1028 0.930 . S
H1021 C1029 0.930 . S
H1022 C1032 0.930 . S
H1023 C1033 0.930 . S
C1024 H1018 0.930 . S
C1024 C1025 1.355 . S
C1024 C1026 1.415 . S
C1025 C1024 1.355 . S
C1025 C1027 1.419 . S
C1026 C1024 1.415 . S
C1026 C1031 1.425 . S
C1026 C1033 1.409 . S
C1027 H1019 0.930 . S
C1027 C1025 1.419 . S
C1027 C1028 1.362 . S
C1028 H1020 0.930 . S
C1028 C1027 1.362 . S
C1028 C1031 1.409 . S
C1029 H1021 0.930 . S
C1029 C1030 1.355 . S
C1029 C1031 1.415 . S
C1030 C1029 1.355 . S
C1030 C1032 1.419 . S
C1031 C1026 1.425 . S
C1031 C1028 1.409 . S
C1031 C1029 1.415 . S
C1032 H1022 0.930 . S
C1032 C1030 1.419 . S
C1032 C1033 1.362 . S
C1033 H1023 0.930 . S
C1033 C1026 1.409 . S
C1033 C1032 1.362 . S
H1034 C1040 0.930 . S
H1035 C1043 0.930 . S
H1036 C1044 0.930 . S
H1037 C1045 0.930 . S
H1038 C1048 0.930 . S
H1039 C1049 0.930 . S
C1040 H1034 0.930 . S
C1040 C1041 1.355 . S
C1040 C1042 1.415 . S
C1041 C1040 1.355 . S
C1041 C1043 1.419 . S
C1042 C1040 1.415 . S
C1042 C1047 1.425 . S
C1042 C1049 1.409 . S
C1043 H1035 0.930 . S
C1043 C1041 1.419 . S
C1043 C1044 1.362 . S
C1044 H1036 0.930 . S
C1044 C1043 1.362 . S
C1044 C1047 1.409 . S
C1045 H1037 0.930 . S
C1045 C1046 1.355 . S
C1045 C1047 1.415 . S
C1046 C1045 1.355 . S
C1046 C1048 1.419 . S
C1047 C1042 1.425 . S
C1047 C1044 1.409 . S
C1047 C1045 1.415 . S
C1048 H1038 0.930 . S
C1048 C1046 1.419 . S
C1048 C1049 1.362 . S
C1049 H1039 0.930 . S
C1049 C1042 1.409 . S
C1049 C1048 1.362 . S
H1050 C1056 0.930 . S
H1051 C1059 0.930 . S
H1052 C1060 0.930 . S
H1053 C1061 0.930 . S
H1054 C1064 0.930 . S
H1055 C1065 0.930 . S
C1056 H1050 0.930 . S
C1056 C1057 1.355 . S
C1056 C1058 1.415 . S
C1057 C1056 1.355 . S
C1057 C1059 1.419 . S
C1058 C1056 1.415 . S
C1058 C1063 1.425 . S
C1058 C1065 1.409 . S
C1059 H1051 0.930 . S
C1059 C1057 1.419 . S
C1059 C1060 1.362 . S
C1060 H1052 0.930 . S
C1060 C1059 1.362 . S
C1060 C1063 1.409 . S
C1061 H1053 0.930 . S
C1061 C1062 1.355 . S
C1061 C1063 1.415 . S
C1062 C1061 1.355 . S
C1062 C1064 1.419 . S
C1063 C1058 1.425 . S
C1063 C1060 1.409 . S
C1063 C1061 1.415 . S
C1064 H1054 0.930 . S
C1064 C1062 1.419 . S
C1064 C1065 1.362 . S
C1065 H1055 0.930 . S
C1065 C1058 1.409 . S
C1065 C1064 1.362 . S
H1066 C1072 0.930 . S
H1067 C1075 0.930 . S
H1068 C1076 0.930 . S
H1069 C1077 0.930 . S
H1070 C1080 0.930 . S
H1071 C1081 0.930 . S
C1072 H1066 0.930 . S
C1072 C1073 1.355 . S
C1072 C1074 1.415 . S
C1073 C1072 1.355 . S
C1073 C1075 1.419 . S
C1074 C1072 1.415 . S
C1074 C1079 1.425 . S
C1074 C1081 1.409 . S
C1075 H1067 0.930 . S
C1075 C1073 1.419 . S
C1075 C1076 1.362 . S
C1076 H1068 0.930 . S
C1076 C1075 1.362 . S
C1076 C1079 1.409 . S
C1077 H1069 0.930 . S
C1077 C1078 1.355 . S
C1077 C1079 1.415 . S
C1078 C1077 1.355 . S
C1078 C1080 1.419 . S
C1079 C1074 1.425 . S
C1079 C1076 1.409 . S
C1079 C1077 1.415 . S
C1080 H1070 0.930 . S
C1080 C1078 1.419 . S
C1080 C1081 1.362 . S
C1081 H1071 0.930 . S
C1081 C1074 1.409 . S
C1081 C1080 1.362 . S
H1082 C1088 0.930 . S
H1083 C1091 0.930 . S
H1084 C1092 0.930 . S
H1085 C1093 0.930 . S
H1086 C1096 0.930 . S
H1087 C1097 0.930 . S
C1088 H1082 0.930 . S
C1088 C1089 1.355 . S
C1088 C1090 1.415 . S
C1089 C1088 1.355 . S
C1089 C1091 1.419 . S
C1090 C1088 1.415 . S
C1090 C1095 1.425 . S
C1090 C1097 1.409 . S
C1091 H1083 0.930 . S
C1091 C1089 1.419 . S
C1091 C1092 1.362 . S
C1092 H1084 0.930 . S
C1092 C1091 1.362 . S
C1092 C1095 1.409 . S
C1093 H1085 0.930 . S
C1093 C1094 1.355 . S
C1093 C1095 1.415 . S
C1094 C1093 1.355 . S
C1094 C1096 1.419 . S
C1095 C1090 1.425 . S
C1095 C1092 1.409 . S
C1095 C1093 1.415 . S
C1096 H1086 0.930 . S
C1096 C1094 1.419 . S
C1096 C1097 1.362 . S
C1097 H1087 0.930 . S
C1097 C1090 1.409 . S
C1097 C1096 1.362 . S
H1098 C1104 0.930 . S
H1099 C1107 0.930 . S
H1100 C1108 0.930 . S
H1101 C1109 0.930 . S
H1102 C1112 0.930 . S
H1103 C1113 0.930 . S
C1104 H1098 0.930 . S
C1104 C1105 1.355 . S
C1104 C1106 1.415 . S
C1105 C1104 1.355 . S
C1105 C1107 1.419 . S
C1106 C1104 1.415 . S
C1106 C1111 1.425 . S
C1106 C1113 1.409 . S
C1107 H1099 0.930 . S
C1107 C1105 1.419 . S
C1107 C1108 1.362 . S
C1108 H1100 0.930 . S
C1108 C1107 1.362 . S
C1108 C1111 1.409 . S
C1109 H1101 0.930 . S
C1109 C1110 1.355 . S
C1109 C1111 1.415 . S
C1110 C1109 1.355 . S
C1110 C1112 1.419 . S
C1111 C1106 1.425 . S
C1111 C1108 1.409 . S
C1111 C1109 1.415 . S
C1112 H1102 0.930 . S
C1112 C1110 1.419 . S
C1112 C1113 1.362 . S
C1113 H1103 0.930 . S
C1113 C1106 1.409 . S
C1113 C1112 1.362 . S
H1114 C1120 0.930 . S
H1115 C1123 0.930 . S
H1116 C1124 0.930 . S
H1117 C1125 0.930 . S
H1118 C1128 0.930 . S
H1119 C1129 0.930 . S
C1120 H1114 0.930 . S
C1120 C1121 1.355 . S
C1120 C1122 1.415 . S
C1121 C1120 1.355 . S
C1121 C1123 1.419 . S
C1122 C1120 1.415 . S
C1122 C1127 1.425 . S
C1122 C1129 1.409 . S
C1123 H1115 0.930 . S
C1123 C1121 1.419 . S
C1123 C1124 1.362 . S
C1124 H1116 0.930 . S
C1124 C1123 1.362 . S
C1124 C1127 1.409 . S
C1125 H1117 0.930 . S
C1125 C1126 1.355 . S
C1125 C1127 1.415 . S
C1126 C1125 1.355 . S
C1126 C1128 1.419 . S
C1127 C1122 1.425 . S
C1127 C1124 1.409 . S
C1127 C1125 1.415 . S
C1128 H1118 0.930 . S
C1128 C1126 1.419 . S
C1128 C1129 1.362 . S
C1129 H1119 0.930 . S
C1129 C1122 1.409 . S
C1129 C1128 1.362 . S
H1130 C1136 0.930 . S
H1131 C1139 0.930 . S
H1132 C1140 0.930 . S
H1133 C1141 0.930 . S
H1134 C1144 0.930 . S
H1135 C1145 0.930 . S
C1136 H1130 0.930 . S
C1136 C1137 1.355 . S
C1136 C1138 1.415 . S
C1137 C1136 1.355 . S
C1137 C1139 1.419 . S
C1138 C1136 1.415 . S
C1138 C1143 1.425 . S
C1138 C1145 1.409 . S
C1139 H1131 0.930 . S
C1139 C1137 1.419 . S
C1139 C1140 1.362 . S
C1140 H1132 0.930 . S
C1140 C1139 1.362 . S
C1140 C1143 1.409 . S
C1141 H1133 0.930 . S
C1141 C1142 1.355 . S
C1141 C1143 1.415 . S
C1142 C1141 1.355 . S
C1142 C1144 1.419 . S
C1143 C1138 1.425 . S
C1143 C1140 1.409 . S
C1143 C1141 1.415 . S
C1144 H1134 0.930 . S
C1144 C1142 1.419 . S
C1144 C1145 1.362 . S
C1145 H1135 0.930 . S
C1145 C1138 1.409 . S
C1145 C1144 1.362 . S
H1146 C1152 0.930 . S
H1147 C1155 0.930 . S
H1148 C1156 0.930 . S
H1149 C1157 0.930 . S
H1150 C1160 0.930 . S
H1151 C1161 0.930 . S
C1152 H1146 0.930 . S
C1152 C1153 1.355 . S
C1152 C1154 1.415 . S
C1153 C1152 1.355 . S
C1153 C1155 1.419 . S
C1154 C1152 1.415 . S
C1154 C1159 1.425 . S
C1154 C1161 1.409 . S
C1155 H1147 0.930 . S
C1155 C1153 1.419 . S
C1155 C1156 1.362 . S
C1156 H1148 0.930 . S
C1156 C1155 1.362 . S
C1156 C1159 1.409 . S
C1157 H1149 0.930 . S
C1157 C1158 1.355 . S
C1157 C1159 1.415 . S
C1158 C1157 1.355 . S
C1158 C1160 1.419 . S
C1159 C1154 1.425 . S
C1159 C1156 1.409 . S
C1159 C1157 1.415 . S
C1160 H1150 0.930 . S
C1160 C1158 1.419 . S
C1160 C1161 1.362 . S
C1161 H1151 0.930 . S
C1161 C1154 1.409 . S
C1161 C1160 1.362 . S
H1162 C1168 0.930 . S
H1163 C1171 0.930 . S
H1164 C1172 0.930 . S
H1165 C1173 0.930 . S
H1166 C1176 0.930 . S
H1167 C1177 0.930 . S
C1168 H1162 0.930 . S
C1168 C1169 1.355 . S
C1168 C1170 1.415 . S
C1169 C1168 1.355 . S
C1169 C1171 1.419 . S
C1170 C1168 1.415 . S
C1170 C1175 1.425 . S
C1170 C1177 1.409 . S
C1171 H1163 0.930 . S
C1171 C1169 1.419 . S
C1171 C1172 1.362 . S
C1172 H1164 0.930 . S
C1172 C1171 1.362 . S
C1172 C1175 1.409 . S
C1173 H1165 0.930 . S
C1173 C1174 1.355 . S
C1173 C1175 1.415 . S
C1174 C1173 1.355 . S
C1174 C1176 1.419 . S
C1175 C1170 1.425 . S
C1175 C1172 1.409 . S
C1175 C1173 1.415 . S
C1176 H1166 0.930 . S
C1176 C1174 1.419 . S
C1176 C1177 1.362 . S
C1177 H1167 0.930 . S
C1177 C1170 1.409 . S
C1177 C1176 1.362 . S
H1178 C1184 0.930 . S
H1179 C1187 0.930 . S
H1180 C1188 0.930 . S
H1181 C1189 0.930 . S
H1182 C1192 0.930 . S
H1183 C1193 0.930 . S
C1184 H1178 0.930 . S
C1184 C1185 1.355 . S
C1184 C1186 1.415 . S
C1185 C1184 1.355 . S
C1185 C1187 1.419 . S
C1186 C1184 1.415 . S
C1186 C1191 1.425 . S
C1186 C1193 1.409 . S
C1187 H1179 0.930 . S
C1187 C1185 1.419 . S
C1187 C1188 1.362 . S
C1188 H1180 0.930 . S
C1188 C1187 1.362 . S
C1188 C1191 1.409 . S
C1189 H1181 0.930 . S
C1189 C1190 1.355 . S
C1189 C1191 1.415 . S
C1190 C1189 1.355 . S
C1190 C1192 1.419 . S
C1191 C1186 1.425 . S
C1191 C1188 1.409 . S
C1191 C1189 1.415 . S
C1192 H1182 0.930 . S
C1192 C1190 1.419 . S
C1192 C1193 1.362 . S
C1193 H1183 0.930 . S
C1193 C1186 1.409 . S
C1193 C1192 1.362 . S
H1194 C1200 0.930 . S
H1195 C1203 0.930 . S
H1196 C1204 0.930 . S
H1197 C1205 0.930 . S
H1198 C1208 0.930 . S
H1199 C1209 0.930 . S
C1200 H1194 0.930 . S
C1200 C1201 1.355 . S
C1200 C1202 1.415 . S
C1201 C1200 1.355 . S
C1201 C1203 1.419 . S
C1202 C1200 1.415 . S
C1202 C1207 1.425 . S
C1202 C1209 1.409 . S
C1203 H1195 0.930 . S
C1203 C1201 1.419 . S
C1203 C1204 1.362 . S
C1204 H1196 0.930 . S
C1204 C1203 1.362 . S
C1204 C1207 1.409 . S
C1205 H1197 0.930 . S
C1205 C1206 1.355 . S
C1205 C1207 1.415 . S
C1206 C1205 1.355 . S
C1206 C1208 1.419 . S
C1207 C1202 1.425 . S
C1207 C1204 1.409 . S
C1207 C1205 1.415 . S
C1208 H1198 0.930 . S
C1208 C1206 1.419 . S
C1208 C1209 1.362 . S
C1209 H1199 0.930 . S
C1209 C1202 1.409 . S
C1209 C1208 1.362 . S
H1210 C1216 0.930 . S
H1211 C1219 0.930 . S
H1212 C1220 0.930 . S
H1213 C1221 0.930 . S
H1214 C1224 0.930 . S
H1215 C1225 0.930 . S
C1216 H1210 0.930 . S
C1216 C1217 1.355 . S
C1216 C1218 1.415 . S
C1217 C1216 1.355 . S
C1217 C1219 1.419 . S
C1218 C1216 1.415 . S
C1218 C1223 1.425 . S
C1218 C1225 1.409 . S
C1219 H1211 0.930 . S
C1219 C1217 1.419 . S
C1219 C1220 1.362 . S
C1220 H1212 0.930 . S
C1220 C1219 1.362 . S
C1220 C1223 1.409 . S
C1221 H1213 0.930 . S
C1221 C1222 1.355 . S
C1221 C1223 1.415 . S
C1222 C1221 1.355 . S
C1222 C1224 1.419 . S
C1223 C1218 1.425 . S
C1223 C1220 1.409 . S
C1223 C1221 1.415 . S
C1224 H1214 0.930 . S
C1224 C1222 1.419 . S
C1224 C1225 1.362 . S
C1225 H1215 0.930 . S
C1225 C1218 1.409 . S
C1225 C1224 1.362 . S
H1226 C1232 0.930 . S
H1227 C1235 0.930 . S
H1228 C1236 0.930 . S
H1229 C1237 0.930 . S
H1230 C1240 0.930 . S
H1231 C1241 0.930 . S
C1232 H1226 0.930 . S
C1232 C1233 1.355 . S
C1232 C1234 1.415 . S
C1233 C1232 1.355 . S
C1233 C1235 1.419 . S
C1234 C1232 1.415 . S
C1234 C1239 1.425 . S
C1234 C1241 1.409 . S
C1235 H1227 0.930 . S
C1235 C1233 1.419 . S
C1235 C1236 1.362 . S
C1236 H1228 0.930 . S
C1236 C1235 1.362 . S
C1236 C1239 1.409 . S
C1237 H1229 0.930 . S
C1237 C1238 1.355 . S
C1237 C1239 1.415 . S
C1238 C1237 1.355 . S
C1238 C1240 1.419 . S
C1239 C1234 1.425 . S
C1239 C1236 1.409 . S
C1239 C1237 1.415 . S
C1240 H1230 0.930 . S
C1240 C1238 1.419 . S
C1240 C1241 1.362 . S
C1241 H1231 0.930 . S
C1241 C1234 1.409 . S
C1241 C1240 1.362 . S
H1242 C1248 0.930 . S
H1243 C1251 0.930 . S
H1244 C1252 0.930 . S
H1245 C1253 0.930 . S
H1246 C1256 0.930 . S
H1247 C1257 0.930 . S
C1248 H1242 0.930 . S
C1248 C1249 1.355 . S
C1248 C1250 1.415 . S
C1249 C1248 1.355 . S
C1249 C1251 1.419 . S
C1250 C1248 1.415 . S
C1250 C1255 1.425 . S
C1250 C1257 1.409 . S
C1251 H1243 0.930 . S
C1251 C1249 1.419 . S
C1251 C1252 1.362 . S
C1252 H1244 0.930 . S
C1252 C1251 1.362 . S
C1252 C1255 1.409 . S
C1253 H1245 0.930 . S
C1253 C1254 1.355 . S
C1253 C1255 1.415 . S
C1254 C1253 1.355 . S
C1254 C1256 1.419 . S
C1255 C1250 1.425 . S
C1255 C1252 1.409 . S
C1255 C1253 1.415 . S
C1256 H1246 0.930 . S
C1256 C1254 1.419 . S
C1256 C1257 1.362 . S
C1257 H1247 0.930 . S
C1257 C1250 1.409 . S
C1257 C1256 1.362 . S
H1258 C1264 0.930 . S
H1259 C1267 0.930 . S
H1260 C1268 0.930 . S
H1261 C1269 0.930 . S
H1262 C1272 0.930 . S
H1263 C1273 0.930 . S
C1264 H1258 0.930 . S
C1264 C1265 1.355 . S
C1264 C1266 1.415 . S
C1265 C1264 1.355 . S
C1265 C1267 1.419 . S
C1266 C1264 1.415 . S
C1266 C1271 1.425 . S
C1266 C1273 1.409 . S
C1267 H1259 0.930 . S
C1267 C1265 1.419 . S
C1267 C1268 1.362 . S
C1268 H1260 0.930 . S
C1268 C1267 1.362 . S
C1268 C1271 1.409 . S
C1269 H1261 0.930 . S
C1269 C1270 1.355 . S
C1269 C1271 1.415 . S
C1270 C1269 1.355 . S
C1270 C1272 1.419 . S
C1271 C1266 1.425 . S
C1271 C1268 1.409 . S
C1271 C1269 1.415 . S
C1272 H1262 0.930 . S
C1272 C1270 1.419 . S
C1272 C1273 1.362 . S
C1273 H1263 0.930 . S
C1273 C1266 1.409 . S
C1273 C1272 1.362 . S
H1274 C1280 0.930 . S
H1275 C1283 0.930 . S
H1276 C1284 0.930 . S
H1277 C1285 0.930 . S
H1278 C1288 0.930 . S
H1279 C1289 0.930 . S
C1280 H1274 0.930 . S
C1280 C1281 1.355 . S
C1280 C1282 1.415 . S
C1281 C1280 1.355 . S
C1281 C1283 1.419 . S
C1282 C1280 1.415 . S
C1282 C1287 1.425 . S
C1282 C1289 1.409 . S
C1283 H1275 0.930 . S
C1283 C1281 1.419 . S
C1283 C1284 1.362 . S
C1284 H1276 0.930 . S
C1284 C1283 1.362 . S
C1284 C1287 1.409 . S
C1285 H1277 0.930 . S
C1285 C1286 1.355 . S
C1285 C1287 1.415 . S
C1286 C1285 1.355 . S
C1286 C1288 1.419 . S
C1287 C1282 1.425 . S
C1287 C1284 1.409 . S
C1287 C1285 1.415 . S
C1288 H1278 0.930 . S
C1288 C1286 1.419 . S
C1288 C1289 1.362 . S
C1289 H1279 0.930 . S
C1289 C1282 1.409 . S
C1289 C1288 1.362 . S
H1290 C1296 0.930 . S
H1291 C1299 0.930 . S
H1292 C1300 0.930 . S
H1293 C1301 0.930 . S
H1294 C1304 0.930 . S
H1295 C1305 0.930 . S
C1296 H1290 0.930 . S
C1296 C1297 1.355 . S
C1296 C1298 1.415 . S
C1297 C1296 1.355 . S
C1297 C1299 1.419 . S
C1298 C1296 1.415 . S
C1298 C1303 1.425 . S
C1298 C1305 1.409 . S
C1299 H1291 0.930 . S
C1299 C1297 1.419 . S
C1299 C1300 1.362 . S
C1300 H1292 0.930 . S
C1300 C1299 1.362 . S
C1300 C1303 1.409 . S
C1301 H1293 0.930 . S
C1301 C1302 1.355 . S
C1301 C1303 1.415 . S
C1302 C1301 1.355 . S
C1302 C1304 1.419 . S
C1303 C1298 1.425 . S
C1303 C1300 1.409 . S
C1303 C1301 1.415 . S
C1304 H1294 0.930 . S
C1304 C1302 1.419 . S
C1304 C1305 1.362 . S
C1305 H1295 0.930 . S
C1305 C1298 1.409 . S
C1305 C1304 1.362 . S
H1306 C1312 0.930 . S
H1307 C1315 0.930 . S
H1308 C1316 0.930 . S
H1309 C1317 0.930 . S
H1310 C1320 0.930 . S
H1311 C1321 0.930 . S
C1312 H1306 0.930 . S
C1312 C1313 1.355 . S
C1312 C1314 1.415 . S
C1313 C1312 1.355 . S
C1313 C1315 1.419 . S
C1314 C1312 1.415 . S
C1314 C1319 1.425 . S
C1314 C1321 1.409 . S
C1315 H1307 0.930 . S
C1315 C1313 1.419 . S
C1315 C1316 1.362 . S
C1316 H1308 0.930 . S
C1316 C1315 1.362 . S
C1316 C1319 1.409 . S
C1317 H1309 0.930 . S
C1317 C1318 1.355 . S
C1317 C1319 1.415 . S
C1318 C1317 1.355 . S
C1318 C1320 1.419 . S
C1319 C1314 1.425 . S
C1319 C1316 1.409 . S
C1319 C1317 1.415 . S
C1320 H1310 0.930 . S
C1320 C1318 1.419 . S
C1320 C1321 1.362 . S
C1321 H1311 0.930 . S
C1321 C1314 1.409 . S
C1321 C1320 1.362 . S
H1322 C1328 0.930 . S
H1323 C1331 0.930 . S
H1324 C1332 0.930 . S
H1325 C1333 0.930 . S
H1326 C1336 0.930 . S
H1327 C1337 0.930 . S
C1328 H1322 0.930 . S
C1328 C1329 1.355 . S
C1328 C1330 1.415 . S
C1329 C1328 1.355 . S
C1329 C1331 1.419 . S
C1330 C1328 1.415 . S
C1330 C1335 1.425 . S
C1330 C1337 1.409 . S
C1331 H1323 0.930 . S
C1331 C1329 1.419 . S
C1331 C1332 1.362 . S
C1332 H1324 0.930 . S
C1332 C1331 1.362 . S
C1332 C1335 1.409 . S
C1333 H1325 0.930 . S
C1333 C1334 1.355 . S
C1333 C1335 1.415 . S
C1334 C1333 1.355 . S
C1334 C1336 1.419 . S
C1335 C1330 1.425 . S
C1335 C1332 1.409 . S
C1335 C1333 1.415 . S
C1336 H1326 0.930 . S
C1336 C1334 1.419 . S
C1336 C1337 1.362 . S
C1337 H1327 0.930 . S
C1337 C1330 1.409 . S
C1337 C1336 1.362 . S
H1338 C1344 0.930 . S
H1339 C1347 0.930 . S
H1340 C1348 0.930 . S
H1341 C1349 0.930 . S
H1342 C1352 0.930 . S
H1343 C1353 0.930 . S
C1344 H1338 0.930 . S
C1344 C1345 1.355 . S
C1344 C1346 1.415 . S
C1345 C1344 1.355 . S
C1345 C1347 1.419 . S
C1346 C1344 1.415 . S
C1346 C1351 1.425 . S
C1346 C1353 1.409 . S
C1347 H1339 0.930 . S
C1347 C1345 1.419 . S
C1347 C1348 1.362 . S
C1348 H1340 0.930 . S
C1348 C1347 1.362 . S
C1348 C1351 1.409 . S
C1349 H1341 0.930 . S
C1349 C1350 1.355 . S
C1349 C1351 1.415 . S
C1350 C1349 1.355 . S
C1350 C1352 1.419 . S
C1351 C1346 1.425 . S
C1351 C1348 1.409 . S
C1351 C1349 1.415 . S
C1352 H1342 0.930 . S
C1352 C1350 1.419 . S
C1352 C1353 1.362 . S
C1353 H1343 0.930 . S
C1353 C1346 1.409 . S
C1353 C1352 1.362 . S
H1354 C1360 0.930 . S
H1355 C1363 0.930 . S
H1356 C1364 0.930 . S
H1357 C1365 0.930 . S
H1358 C1368 0.930 . S
H1359 C1369 0.930 . S
C1360 H1354 0.930 . S
C1360 C1361 1.355 . S
C1360 C1362 1.415 . S
C1361 C1360 1.355 . S
C1361 C1363 1.419 . S
C1362 C1360 1.415 . S
C1362 C1367 1.425 . S
C1362 C1369 1.409 . S
C1363 H1355 0.930 . S
C1363 C1361 1.419 . S
C1363 C1364 1.362 . S
C1364 H1356 0.930 . S
C1364 C1363 1.362 . S
C1364 C1367 1.409 . S
C1365 H1357 0.930 . S
C1365 C1366 1.355 . S
C1365 C1367 1.415 . S
C1366 C1365 1.355 . S
C1366 C1368 1.419 . S
C1367 C1362 1.425 . S
C1367 C1364 1.409 . S
C1367 C1365 1.415 . S
C1368 H1358 0.930 . S
C1368 C1366 1.419 . S
C1368 C1369 1.362 . S
C1369 H1359 0.930 . S
C1369 C1362 1.409 . S
C1369 C1368 1.362 . S
H1370 C1376 0.930 . S
H1371 C1379 0.930 . S
H1372 C1380 0.930 . S
H1373 C1381 0.930 . S
H1374 C1384 0.930 . S
H1375 C1385 0.930 . S
C1376 H1370 0.930 . S
C1376 C1377 1.355 . S
C1376 C1378 1.415 . S
C1377 C1376 1.355 . S
C1377 C1379 1.419 . S
C1378 C1376 1.415 . S
C1378 C1383 1.425 . S
C1378 C1385 1.409 . S
C1379 H1371 0.930 . S
C1379 C1377 1.419 . S
C1379 C1380 1.362 . S
C1380 H1372 0.930 . S
C1380 C1379 1.362 . S
C1380 C1383 1.409 . S
C1381 H1373 0.930 . S
C1381 C1382 1.355 . S
C1381 C1383 1.415 . S
C1382 C1381 1.355 . S
C1382 C1384 1.419 . S
C1383 C1378 1.425 . S
C1383 C1380 1.409 . S
C1383 C1381 1.415 . S
C1384 H1374 0.930 . S
C1384 C1382 1.419 . S
C1384 C1385 1.362 . S
C1385 H1375 0.930 . S
C1385 C1378 1.409 . S
C1385 C1384 1.362 . S
H1386 C1392 0.930 . S
H1387 C1395 0.930 . S
H1388 C1396 0.930 . S
H1389 C1397 0.930 . S
H1390 C1400 0.930 . S
H1391 C1401 0.930 . S
C1392 H1386 0.930 . S
C1392 C1393 1.355 . S
C1392 C1394 1.415 . S
C1393 C1392 1.355 . S
C1393 C1395 1.419 . S
C1394 C1392 1.415 . S
C1394 C1399 1.425 . S
C1394 C1401 1.409 . S
C1395 H1387 0.930 . S
C1395 C1393 1.419 . S
C1395 C1396 1.362 . S
C1396 H1388 0.930 . S
C1396 C1395 1.362 . S
C1396 C1399 1.409 . S
C1397 H1389 0.930 . S
C1397 C1398 1.355 . S
C1397 C1399 1.415 . S
C1398 C1397 1.355 . S
C1398 C1400 1.419 . S
C1399 C1394 1.425 . S
C1399 C1396 1.409 . S
C1399 C1397 1.415 . S
C1400 H1390 0.930 . S
C1400 C1398 1.419 . S
C1400 C1401 1.362 . S
C1401 H1391 0.930 . S
C1401 C1394 1.409 . S
C1401 C1400 1.362 . S
H1402 C1408 0.930 . S
H1403 C1411 0.930 . S
H1404 C1412 0.930 . S
H1405 C1413 0.930 . S
H1406 C1416 0.930 . S
H1407 C1417 0.930 . S
C1408 H1402 0.930 . S
C1408 C1409 1.355 . S
C1408 C1410 1.415 . S
C1409 C1408 1.355 . S
C1409 C1411 1.419 . S
C1410 C1408 1.415 . S
C1410 C1415 1.425 . S
C1410 C1417 1.409 . S
C1411 H1403 0.930 . S
C1411 C1409 1.419 . S
C1411 C1412 1.362 . S
C1412 H1404 0.930 . S
C1412 C1411 1.362 . S
C1412 C1415 1.409 . S
C1413 H1405 0.930 . S
C1413 C1414 1.355 . S
C1413 C1415 1.415 . S
C1414 C1413 1.355 . S
C1414 C1416 1.419 . S
C1415 C1410 1.425 . S
C1415 C1412 1.409 . S
C1415 C1413 1.415 . S
C1416 H1406 0.930 . S
C1416 C1414 1.419 . S
C1416 C1417 1.362 . S
C1417 H1407 0.930 . S
C1417 C1410 1.409 . S
C1417 C1416 1.362 . S
H1418 C1424 0.930 . S
H1419 C1427 0.930 . S
H1420 C1428 0.930 . S
H1421 C1429 0.930 . S
H1422 C1432 0.930 . S
H1423 C1433 0.930 . S
C1424 H1418 0.930 . S
C1424 C1425 1.355 . S
C1424 C1426 1.415 . S
C1425 C1424 1.355 . S
C1425 C1427 1.419 . S
C1426 C1424 1.415 . S
C1426 C1431 1.425 . S
C1426 C1433 1.409 . S
C1427 H1419 0.930 . S
C1427 C1425 1.419 . S
C1427 C1428 1.362 . S
C1428 H1420 0.930 . S
C1428 C1427 1.362 . S
C1428 C1431 1.409 . S
C1429 H1421 0.930 . S
C1429 C1430 1.355 . S
C1429 C1431 1.415 . S
C1430 C1429 1.355 . S
C1430 C1432 1.419 . S
C1431 C1426 1.425 . S
C1431 C1428 1.409 . S
C1431 C1429 1.415 . S
C1432 H1422 0.930 . S
C1432 C1430 1.419 . S
C1432 C1433 1.362 . S
C1433 H1423 0.930 . S
C1433 C1426 1.409 . S
C1433 C1432 1.362 . S
H1434 C1440 0.930 . S
H1435 C1443 0.930 . S
H1436 C1444 0.930 . S
H1437 C1445 0.930 . S
H1438 C1448 0.930 . S
H1439 C1449 0.930 . S
C1440 H1434 0.930 . S
C1440 C1441 1.355 . S
C1440 C1442 1.415 . S
C1441 C1440 1.355 . S
C1441 C1443 1.419 . S
C1442 C1440 1.415 . S
C1442 C1447 1.425 . S
C1442 C1449 1.409 . S
C1443 H1435 0.930 . S
C1443 C1441 1.419 . S
C1443 C1444 1.362 . S
C1444 H1436 0.930 . S
C1444 C1443 1.362 . S
C1444 C1447 1.409 . S
C1445 H1437 0.930 . S
C1445 C1446 1.355 . S
C1445 C1447 1.415 . S
C1446 C1445 1.355 . S
C1446 C1448 1.419 . S
C1447 C1442 1.425 . S
C1447 C1444 1.409 . S
C1447 C1445 1.415 . S
C1448 H1438 0.930 . S
C1448 C1446 1.419 . S
C1448 C1449 1.362 . S
C1449 H1439 0.930 . S
C1449 C1442 1.409 . S
C1449 C1448 1.362 . S
H1450 C1456 0.930 . S
H1451 C1459 0.930 . S
H1452 C1460 0.930 . S
H1453 C1461 0.930 . S
H1454 C1464 0.930 . S
H1455 C1465 0.930 . S
C1456 H1450 0.930 . S
C1456 C1457 1.355 . S
C1456 C1458 1.415 . S
C1457 C1456 1.355 . S
C1457 C1459 1.419 . S
C1458 C1456 1.415 . S
C1458 C1463 1.425 . S
C1458 C1465 1.409 . S
C1459 H1451 0.930 . S
C1459 C1457 1.419 . S
C1459 C1460 1.362 . S
C1460 H1452 0.930 . S
C1460 C1459 1.362 . S
C1460 C1463 1.409 . S
C1461 H1453 0.930 . S
C1461 C1462 1.355 . S
C1461 C1463 1.415 . S
C1462 C1461 1.355 . S
C1462 C1464 1.419 . S
C1463 C1458 1.425 . S
C1463 C1460 1.409 . S
C1463 C1461 1.415 . S
C1464 H1454 0.930 . S
C1464 C1462 1.419 . S
C1464 C1465 1.362 . S
C1465 H1455 0.930 . S
C1465 C1458 1.409 . S
C1465 C1464 1.362 . S
H1466 C1472 0.930 . S
H1467 C1475 0.930 . S
H1468 C1476 0.930 . S
H1469 C1477 0.930 . S
H1470 C1480 0.930 . S
H1471 C1481 0.930 . S
C1472 H1466 0.930 . S
C1472 C1473 1.355 . S
C1472 C1474 1.415 . S
C1473 C1472 1.355 . S
C1473 C1475 1.419 . S
C1474 C1472 1.415 . S
C1474 C1479 1.425 . S
C1474 C1481 1.409 . S
C1475 H1467 0.930 . S
C1475 C1473 1.419 . S
C1475 C1476 1.362 . S
C1476 H1468 0.930 . S
C1476 C1475 1.362 . S
C1476 C1479 1.409 . S
C1477 H1469 0.930 . S
C1477 C1478 1.355 . S
C1477 C1479 1.415 . S
C1478 C1477 1.355 . S
C1478 C1480 1.419 . S
C1479 C1474 1.425 . S
C1479 C1476 1.409 . S
C1479 C1477 1.415 . S
C1480 H1470 0.930 . S
C1480 C1478 1.419 . S
C1480 C1481 1.362 . S
C1481 H1471 0.930 . S
C1481 C1474 1.409 . S
C1481 C1480 1.362 . S
H1482 C1488 0.930 . S
H1483 C1491 0.930 . S
H1484 C1492 0.930 . S
H1485 C1493 0.930 . S
H1486 C1496 0.930 . S
H1487 C1497 0.930 . S
C1488 H1482 0.930 . S
C1488 C1489 1.355 . S
C1488 C1490 1.415 . S
C1489 C1488 1.355 . S
C1489 C1491 1.419 . S
C1490 C1488 1.415 . S
C1490 C1495 1.425 . S
C1490 C1497 1.409 . S
C1491 H1483 0.930 . S
C1491 C1489 1.419 . S
C1491 C1492 1.362 . S
C1492 H1484 0.930 . S
C1492 C1491 1.362 . S
C1492 C1495 1.409 . S
C1493 H1485 0.930 . S
C1493 C1494 1.355 . S
C1493 C1495 1.415 . S
C1494 C1493 1.355 . S
C1494 C1496 1.419 . S
C1495 C1490 1.425 . S
C1495 C1492 1.409 . S
C1495 C1493 1.415 . S
C1496 H1486 0.930 . S
C1496 C1494 1.419 . S
C1496 C1497 1.362 . S
C1497 H1487 0.930 . S
C1497 C1490 1.409 . S
C1497 C1496 1.362 . S
H1498 C1504 0.930 . S
H1499 C1507 0.930 . S
H1500 C1508 0.930 . S
H1501 C1509 0.930 . S
H1502 C1512 0.930 . S
H1503 C1513 0.930 . S
C1504 H1498 0.930 . S
C1504 C1505 1.355 . S
C1504 C1506 1.415 . S
C1505 C1504 1.355 . S
C1505 C1507 1.419 . S
C1506 C1504 1.415 . S
C1506 C1511 1.425 . S
C1506 C1513 1.409 . S
C1507 H1499 0.930 . S
C1507 C1505 1.419 . S
C1507 C1508 1.362 . S
C1508 H1500 0.930 . S
C1508 C1507 1.362 . S
C1508 C1511 1.409 . S
C1509 H1501 0.930 . S
C1509 C1510 1.355 . S
C1509 C1511 1.415 . S
C1510 C1509 1.355 . S
C1510 C1512 1.419 . S
C1511 C1506 1.425 . S
C1511 C1508 1.409 . S
C1511 C1509 1.415 . S
C1512 H1502 0.930 . S
C1512 C1510 1.419 . S
C1512 C1513 1.362 . S
C1513 H1503 0.930 . S
C1513 C1506 1.409 . S
C1513 C1512 1.362 . S
H1514 C1520 0.930 . S
H1515 C1523 0.930 . S
H1516 C1524 0.930 . S
H1517 C1525 0.930 . S
H1518 C1528 0.930 . S
H1519 C1529 0.930 . S
C1520 H1514 0.930 . S
C1520 C1521 1.355 . S
C1520 C1522 1.415 . S
C1521 C1520 1.355 . S
C1521 C1523 1.419 . S
C1522 C1520 1.415 . S
C1522 C1527 1.425 . S
C1522 C1529 1.409 . S
C1523 H1515 0.930 . S
C1523 C1521 1.419 . S
C1523 C1524 1.362 . S
C1524 H1516 0.930 . S
C1524 C1523 1.362 . S
C1524 C1527 1.409 . S
C1525 H1517 0.930 . S
C1525 C1526 1.355 . S
C1525 C1527 1.415 . S
C1526 C1525 1.355 . S
C1526 C1528 1.419 . S
C1527 C1522 1.425 . S
C1527 C1524 1.409 . S
C1527 C1525 1.415 . S
C1528 H1518 0.930 . S
C1528 C1526 1.419 . S
C1528 C1529 1.362 . S
C1529 H1519 0.930 . S
C1529 C1522 1.409 . S
C1529 C1528 1.362 . S
H1530 C1536 0.930 . S
H1531 C1539 0.930 . S
H1532 C1540 0.930 . S
H1533 C1541 0.930 . S
H1534 C1544 0.930 . S
H1535 C1545 0.930 . S
C1536 H1530 0.930 . S
C1536 C1537 1.355 . S
C1536 C1538 1.415 . S
C1537 C1536 1.355 . S
C1537 C1539 1.419 . S
C1538 C1536 1.415 . S
C1538 C1543 1.425 . S
C1538 C1545 1.409 . S
C1539 H1531 0.930 . S
C1539 C1537 1.419 . S
C1539 C1540 1.362 . S
C1540 H1532 0.930 . S
C1540 C1539 1.362 . S
C1540 C1543 1.409 . S
C1541 H1533 0.930 . S
C1541 C1542 1.355 . S
C1541 C1543 1.415 . S
C1542 C1541 1.355 . S
C1542 C1544 1.419 . S
C1543 C1538 1.425 . S
C1543 C1540 1.409 . S
C1543 C1541 1.415 . S
C1544 H1534 0.930 . S
C1544 C1542 1.419 . S
C1544 C1545 1.362 . S
C1545 H1535 0.930 . S
C1545 C1538 1.409 . S
C1545 C1544 1.362 . S
H1546 C1552 0.930 . S
H1547 C1555 0.930 . S
H1548 C1556 0.930 . S
H1549 C1557 0.930 . S
H1550 C1560 0.930 . S
H1551 C1561 0.930 . S
C1552 H1546 0.930 . S
C1552 C1553 1.355 . S
C1552 C1554 1.415 . S
C1553 C1552 1.355 . S
C1553 C1555 1.419 . S
C1554 C1552 1.415 . S
C1554 C1559 1.425 . S
C1554 C1561 1.409 . S
C1555 H1547 0.930 . S
C1555 C1553 1.419 . S
C1555 C1556 1.362 . S
C1556 H1548 0.930 . S
C1556 C1555 1.362 . S
C1556 C1559 1.409 . S
C1557 H1549 0.930 . S
C1557 C1558 1.355 . S
C1557 C1559 1.415 . S
C1558 C1557 1.355 . S
C1558 C1560 1.419 . S
C1559 C1554 1.425 . S
C1559 C1556 1.409 . S
C1559 C1557 1.415 . S
C1560 H1550 0.930 . S
C1560 C1558 1.419 . S
C1560 C1561 1.362 . S
C1561 H1551 0.930 . S
C1561 C1554 1.409 . S
C1561 C1560 1.362 . S
H1562 C1568 0.930 . S
H1563 C1571 0.930 . S
H1564 C1572 0.930 . S
H1565 C1573 0.930 . S
H1566 C1576 0.930 . S
H1567 C1577 0.930 . S
C1568 H1562 0.930 . S
C1568 C1569 1.355 . S
C1568 C1570 1.415 . S
C1569 C1568 1.355 . S
C1569 C1571 1.419 . S
C1570 C1568 1.415 . S
C1570 C1575 1.425 . S
C1570 C1577 1.409 . S
C1571 H1563 0.930 . S
C1571 C1569 1.419 . S
C1571 C1572 1.362 . S
C1572 H1564 0.930 . S
C1572 C1571 1.362 . S
C1572 C1575 1.409 . S
C1573 H1565 0.930 . S
C1573 C1574 1.355 . S
C1573 C1575 1.415 . S
C1574 C1573 1.355 . S
C1574 C1576 1.419 . S
C1575 C1570 1.425 . S
C1575 C1572 1.409 . S
C1575 C1573 1.415 . S
C1576 H1566 0.930 . S
C1576 C1574 1.419 . S
C1576 C1577 1.362 . S
C1577 H1567 0.930 . S
C1577 C1570 1.409 . S
C1577 C1576 1.362 . S
H1578 C1584 0.930 . S
H1579 C1587 0.930 . S
H1580 C1588 0.930 . S
H1581 C1589 0.930 . S
H1582 C1592 0.930 . S
H1583 C1593 0.930 . S
C1584 H1578 0.930 . S
C1584 C1585 1.355 . S
C1584 C1586 1.415 . S
C1585 C1584 1.355 . S
C1585 C1587 1.419 . S
C1586 C1584 1.415 . S
C1586 C1591 1.425 . S
C1586 C1593 1.409 . S
C1587 H1579 0.930 . S
C1587 C1585 1.419 . S
C1587 C1588 1.362 . S
C1588 H1580 0.930 . S
C1588 C1587 1.362 . S
C1588 C1591 1.409 . S
C1589 H1581 0.930 . S
C1589 C1590 1.355 . S
C1589 C1591 1.415 . S
C1590 C1589 1.355 . S
C1590 C1592 1.419 . S
C1591 C1586 1.425 . S
C1591 C1588 1.409 . S
C1591 C1589 1.415 . S
C1592 H1582 0.930 . S
C1592 C1590 1.419 . S
C1592 C1593 1.362 . S
C1593 H1583 0.930 . S
C1593 C1586 1.409 . S
C1593 C1592 1.362 . S
H1594 C1600 0.930 . S
H1595 C1603 0.930 . S
H1596 C1604 0.930 . S
H1597 C1605 0.930 . S
H1598 C1608 0.930 . S
H1599 C1609 0.930 . S
C1600 H1594 0.930 . S
C1600 C1601 1.355 . S
C1600 C1602 1.415 . S
C1601 C1600 1.355 . S
C1601 C1603 1.419 . S
C1602 C1600 1.415 . S
C1602 C1607 1.425 . S
C1602 C1609 1.409 . S
C1603 H1595 0.930 . S
C1603 C1601 1.419 . S
C1603 C1604 1.362 . S
C1604 H1596 0.930 . S
C1604 C1603 1.362 . S
C1604 C1607 1.409 . S
C1605 H1597 0.930 . S
C1605 C1606 1.355 . S
C1605 C1607 1.415 . S
C1606 C1605 1.355 . S
C1606 C1608 1.419 . S
C1607 C1602 1.425 . S
C1607 C1604 1.409 . S
C1607 C1605 1.415 . S
C1608 H1598 0.930 . S
C1608 C1606 1.419 . S
C1608 C1609 1.362 . S
C1609 H1599 0.930 . S
C1609 C1602 1.409 . S
C1609 C1608 1.362 . S
H1610 C1616 0.930 . S
H1611 C1619 0.930 . S
H1612 C1620 0.930 . S
H1613 C1621 0.930 . S
H1614 C1624 0.930 . S
H1615 C1625 0.930 . S
C1616 H1610 0.930 . S
C1616 C1617 1.355 . S
C1616 C1618 1.415 . S
C1617 C1616 1.355 . S
C1617 C1619 1.419 . S
C1618 C1616 1.415 . S
C1618 C1623 1.425 . S
C1618 C1625 1.409 . S
C1619 H1611 0.930 . S
C1619 C1617 1.419 . S
C1619 C1620 1.362 . S
C1620 H1612 0.930 . S
C1620 C1619 1.362 . S
C1620 C1623 1.409 . S
C1621 H1613 0.930 . S
C1621 C1622 1.355 . S
C1621 C1623 1.415 . S
C1622 C1621 1.355 . S
C1622 C1624 1.419 . S
C1623 C1618 1.425 . S
C1623 C1620 1.409 . S
C1623 C1621 1.415 . S
C1624 H1614 0.930 . S
C1624 C1622 1.419 . S
C1624 C1625 1.362 . S
C1625 H1615 0.930 . S
C1625 C1618 1.409 . S
C1625 C1624 1.362 . S
C870 C683 1.595 . S
C865 C74 1.453 . S
C886 C673 0.730 . S
C881 C142 0.906 . S
C902 C674 1.283 . S
C897 C231 1.128 . S
C913 C322 1.237 . S
C918 C696 1.347 . S
C929 C406 0.941 . S
C934 C699 0.759 . S
C950 C682 1.239 . S
C945 C494 1.235 . S
C961 C562 1.343 . S
C966 C672 1.372 . S
C977 C651 1.507 . S
C982 C690 1.565 . S
C998 C703 1.412 . S
C993 C58 1.406 . S
C1009 C151 1.636 . S
C1014 C752 1.556 . S
C1030 C730 2.616 . S
C1025 C224 2.528 . S
C1046 C744 1.086 . S
C1041 C315 1.115 . S
C1057 C399 1.164 . S
C1062 C705 1.181 . S
C1078 C758 1.382 . S
C1073 C478 1.464 . S
C1089 C571 1.573 . S
C1094 C714 1.599 . S
C1105 C644 2.526 . S
C1110 C735 2.599 . S
C1121 C67 2.480 . S
C1126 C761 2.566 . S
C1137 C392 1.579 . S
C1142 C745 1.580 . S
C1158 C704 2.635 . S
C1153 C487 2.501 . S
C1174 C736 1.183 . S
C1169 C578 1.162 . S
C1185 C658 1.330 . S
C1190 C727 1.432 . S
C1201 C238 1.438 . S
C1206 C734 1.378 . S
C1222 C721 1.539 . S
C1217 C308 1.499 . S
C1233 C158 1.161 . S
C1238 C713 1.123 . S
C1249 C662 1.541 . S
C1254 C776 1.544 . S
C1265 C394 0.782 . S
C1270 C766 0.564 . S
C1286 C767 1.250 . S
C1281 C483 1.199 . S
C1302 C789 1.398 . S
C1297 C574 1.303 . S
C1313 C154 0.780 . S
C1318 C792 0.542 . S
C1334 C775 1.259 . S
C1329 C242 1.178 . S
C1345 C310 1.348 . S
C1350 C765 1.381 . S
C1361 C63 1.450 . S
C1366 C783 1.596 . S
C1377 C646 1.379 . S
C1382 C796 1.438 . S
C1398 C845 1.574 . S
C1393 C403 1.637 . S
C1409 C476 2.479 . S
C1414 C823 2.603 . S
C1425 C567 1.122 . S
C1430 C837 1.161 . S
C1446 C798 1.111 . S
C1441 C147 1.150 . S
C1457 C226 1.458 . S
C1462 C851 1.375 . S
C1478 C807 1.528 . S
C1473 C319 1.491 . S
C1494 C828 2.594 . S
C1489 C56 2.529 . S
C1510 C854 2.571 . S
C1505 C655 2.516 . S
C1521 C140 1.620 . S
C1526 C838 1.538 . S
C1537 C235 2.531 . S
C1542 C797 2.619 . S
C1558 C829 1.130 . S
C1553 C326 1.102 . S
C1569 C70 1.382 . S
C1574 C820 1.437 . S
C1585 C490 1.425 . S
C1590 C827 1.447 . S
C1606 C814 1.526 . S
C1601 C560 1.493 . S
C1622 C806 1.172 . S
C1617 C410 1.187 . S
