# Generated by pormake.
# Topology gar, (4,6)-cn, num edge types: 1
# Building blocks:
#     Node 0, Type 0, BuildingBlock: CEKHIL_clean_sbu_0, # of connection points: 4
#     Node 1, Type 0, BuildingBlock: CEKHIL_clean_sbu_0, # of connection points: 4
#     Node 2, Type 0, BuildingBlock: CEKHIL_clean_sbu_0, # of connection points: 4
#     Node 3, Type 0, BuildingBlock: CEKHIL_clean_sbu_0, # of connection points: 4
#     Node 4, Type 0, BuildingBlock: CEKHIL_clean_sbu_0, # of connection points: 4
#     Node 5, Type 0, BuildingBlock: CEKHIL_clean_sbu_0, # of connection points: 4
#     Node 6, Type 0, BuildingBlock: CEKHIL_clean_sbu_0, # of connection points: 4
#     Node 7, Type 0, BuildingBlock: CEKHIL_clean_sbu_0, # of connection points: 4
#     Node 8, Type 0, BuildingBlock: CEKHIL_clean_sbu_0, # of connection points: 4
#     Node 9, Type 0, BuildingBlock: CEKHIL_clean_sbu_0, # of connection points: 4
#     Node 10, Type 0, BuildingBlock: CEKHIL_clean_sbu_0, # of connection points: 4
#     Node 11, Type 0, BuildingBlock: CEKHIL_clean_sbu_0, # of connection points: 4
#     Node 12, Type 0, BuildingBlock: CEKHIL_clean_sbu_0, # of connection points: 4
#     Node 13, Type 0, BuildingBlock: CEKHIL_clean_sbu_0, # of connection points: 4
#     Node 14, Type 0, BuildingBlock: CEKHIL_clean_sbu_0, # of connection points: 4
#     Node 15, Type 0, BuildingBlock: CEKHIL_clean_sbu_0, # of connection points: 4
#     Node 16, Type 0, BuildingBlock: CEKHIL_clean_sbu_0, # of connection points: 4
#     Node 17, Type 0, BuildingBlock: CEKHIL_clean_sbu_0, # of connection points: 4
#     Node 18, Type 0, BuildingBlock: CEKHIL_clean_sbu_0, # of connection points: 4
#     Node 19, Type 0, BuildingBlock: CEKHIL_clean_sbu_0, # of connection points: 4
#     Node 20, Type 0, BuildingBlock: CEKHIL_clean_sbu_0, # of connection points: 4
#     Node 21, Type 0, BuildingBlock: CEKHIL_clean_sbu_0, # of connection points: 4
#     Node 22, Type 0, BuildingBlock: CEKHIL_clean_sbu_0, # of connection points: 4
#     Node 23, Type 0, BuildingBlock: CEKHIL_clean_sbu_0, # of connection points: 4
#     Node 24, Type 1, BuildingBlock: KUMJIN_clean_sbu_0, # of connection points: 6
#     Node 25, Type 1, BuildingBlock: KUMJIN_clean_sbu_0, # of connection points: 6
#     Node 26, Type 1, BuildingBlock: KUMJIN_clean_sbu_0, # of connection points: 6
#     Node 27, Type 1, BuildingBlock: KUMJIN_clean_sbu_0, # of connection points: 6
#     Node 28, Type 1, BuildingBlock: KUMJIN_clean_sbu_0, # of connection points: 6
#     Node 29, Type 1, BuildingBlock: KUMJIN_clean_sbu_0, # of connection points: 6
#     Node 30, Type 1, BuildingBlock: KUMJIN_clean_sbu_0, # of connection points: 6
#     Node 31, Type 1, BuildingBlock: KUMJIN_clean_sbu_0, # of connection points: 6
#     Node 32, Type 1, BuildingBlock: KUMJIN_clean_sbu_0, # of connection points: 6
#     Node 33, Type 1, BuildingBlock: KUMJIN_clean_sbu_0, # of connection points: 6
#     Node 34, Type 1, BuildingBlock: KUMJIN_clean_sbu_0, # of connection points: 6
#     Node 35, Type 1, BuildingBlock: KUMJIN_clean_sbu_0, # of connection points: 6
#     Node 36, Type 1, BuildingBlock: KUMJIN_clean_sbu_0, # of connection points: 6
#     Node 37, Type 1, BuildingBlock: KUMJIN_clean_sbu_0, # of connection points: 6
#     Node 38, Type 1, BuildingBlock: KUMJIN_clean_sbu_0, # of connection points: 6
#     Node 39, Type 1, BuildingBlock: KUMJIN_clean_sbu_0, # of connection points: 6
#     Edge 40, Type (0, 1), BuildingBlock: MIFKUJ_clean_linker_0, # of connection points: 2
#     Edge 41, Type (0, 1), BuildingBlock: MIFKUJ_clean_linker_0, # of connection points: 2
#     Edge 42, Type (0, 1), BuildingBlock: MIFKUJ_clean_linker_0, # of connection points: 2
#     Edge 43, Type (0, 1), BuildingBlock: MIFKUJ_clean_linker_0, # of connection points: 2
#     Edge 44, Type (0, 1), BuildingBlock: MIFKUJ_clean_linker_0, # of connection points: 2
#     Edge 45, Type (0, 1), BuildingBlock: MIFKUJ_clean_linker_0, # of connection points: 2
#     Edge 46, Type (0, 1), BuildingBlock: MIFKUJ_clean_linker_0, # of connection points: 2
#     Edge 47, Type (0, 1), BuildingBlock: MIFKUJ_clean_linker_0, # of connection points: 2
#     Edge 48, Type (0, 1), BuildingBlock: MIFKUJ_clean_linker_0, # of connection points: 2
#     Edge 49, Type (0, 1), BuildingBlock: MIFKUJ_clean_linker_0, # of connection points: 2
#     Edge 50, Type (0, 1), BuildingBlock: MIFKUJ_clean_linker_0, # of connection points: 2
#     Edge 51, Type (0, 1), BuildingBlock: MIFKUJ_clean_linker_0, # of connection points: 2
#     Edge 52, Type (0, 1), BuildingBlock: MIFKUJ_clean_linker_0, # of connection points: 2
#     Edge 53, Type (0, 1), BuildingBlock: MIFKUJ_clean_linker_0, # of connection points: 2
#     Edge 54, Type (0, 1), BuildingBlock: MIFKUJ_clean_linker_0, # of connection points: 2
#     Edge 55, Type (0, 1), BuildingBlock: MIFKUJ_clean_linker_0, # of connection points: 2
#     Edge 56, Type (0, 1), BuildingBlock: MIFKUJ_clean_linker_0, # of connection points: 2
#     Edge 57, Type (0, 1), BuildingBlock: MIFKUJ_clean_linker_0, # of connection points: 2
#     Edge 58, Type (0, 1), BuildingBlock: MIFKUJ_clean_linker_0, # of connection points: 2
#     Edge 59, Type (0, 1), BuildingBlock: MIFKUJ_clean_linker_0, # of connection points: 2
#     Edge 60, Type (0, 1), BuildingBlock: MIFKUJ_clean_linker_0, # of connection points: 2
#     Edge 61, Type (0, 1), BuildingBlock: MIFKUJ_clean_linker_0, # of connection points: 2
#     Edge 62, Type (0, 1), BuildingBlock: MIFKUJ_clean_linker_0, # of connection points: 2
#     Edge 63, Type (0, 1), BuildingBlock: MIFKUJ_clean_linker_0, # of connection points: 2
#     Edge 64, Type (0, 1), BuildingBlock: MIFKUJ_clean_linker_0, # of connection points: 2
#     Edge 65, Type (0, 1), BuildingBlock: MIFKUJ_clean_linker_0, # of connection points: 2
#     Edge 66, Type (0, 1), BuildingBlock: MIFKUJ_clean_linker_0, # of connection points: 2
#     Edge 67, Type (0, 1), BuildingBlock: MIFKUJ_clean_linker_0, # of connection points: 2
#     Edge 68, Type (0, 1), BuildingBlock: MIFKUJ_clean_linker_0, # of connection points: 2
#     Edge 69, Type (0, 1), BuildingBlock: MIFKUJ_clean_linker_0, # of connection points: 2
#     Edge 70, Type (0, 1), BuildingBlock: MIFKUJ_clean_linker_0, # of connection points: 2
#     Edge 71, Type (0, 1), BuildingBlock: MIFKUJ_clean_linker_0, # of connection points: 2
#     Edge 72, Type (0, 1), BuildingBlock: MIFKUJ_clean_linker_0, # of connection points: 2
#     Edge 73, Type (0, 1), BuildingBlock: MIFKUJ_clean_linker_0, # of connection points: 2
#     Edge 74, Type (0, 1), BuildingBlock: MIFKUJ_clean_linker_0, # of connection points: 2
#     Edge 75, Type (0, 1), BuildingBlock: MIFKUJ_clean_linker_0, # of connection points: 2
#     Edge 76, Type (0, 1), BuildingBlock: MIFKUJ_clean_linker_0, # of connection points: 2
#     Edge 77, Type (0, 1), BuildingBlock: MIFKUJ_clean_linker_0, # of connection points: 2
#     Edge 78, Type (0, 1), BuildingBlock: MIFKUJ_clean_linker_0, # of connection points: 2
#     Edge 79, Type (0, 1), BuildingBlock: MIFKUJ_clean_linker_0, # of connection points: 2
#     Edge 80, Type (0, 1), BuildingBlock: MIFKUJ_clean_linker_0, # of connection points: 2
#     Edge 81, Type (0, 1), BuildingBlock: MIFKUJ_clean_linker_0, # of connection points: 2
#     Edge 82, Type (0, 1), BuildingBlock: MIFKUJ_clean_linker_0, # of connection points: 2
#     Edge 83, Type (0, 1), BuildingBlock: MIFKUJ_clean_linker_0, # of connection points: 2
#     Edge 84, Type (0, 1), BuildingBlock: MIFKUJ_clean_linker_0, # of connection points: 2
#     Edge 85, Type (0, 1), BuildingBlock: MIFKUJ_clean_linker_0, # of connection points: 2
#     Edge 86, Type (0, 1), BuildingBlock: MIFKUJ_clean_linker_0, # of connection points: 2
#     Edge 87, Type (0, 1), BuildingBlock: MIFKUJ_clean_linker_0, # of connection points: 2
#     Edge 88, Type (0, 1), BuildingBlock: MIFKUJ_clean_linker_0, # of connection points: 2
#     Edge 89, Type (0, 1), BuildingBlock: MIFKUJ_clean_linker_0, # of connection points: 2
#     Edge 90, Type (0, 1), BuildingBlock: MIFKUJ_clean_linker_0, # of connection points: 2
#     Edge 91, Type (0, 1), BuildingBlock: MIFKUJ_clean_linker_0, # of connection points: 2
#     Edge 92, Type (0, 1), BuildingBlock: MIFKUJ_clean_linker_0, # of connection points: 2
#     Edge 93, Type (0, 1), BuildingBlock: MIFKUJ_clean_linker_0, # of connection points: 2
#     Edge 94, Type (0, 1), BuildingBlock: MIFKUJ_clean_linker_0, # of connection points: 2
#     Edge 95, Type (0, 1), BuildingBlock: MIFKUJ_clean_linker_0, # of connection points: 2
#     Edge 96, Type (0, 1), BuildingBlock: MIFKUJ_clean_linker_0, # of connection points: 2
#     Edge 97, Type (0, 1), BuildingBlock: MIFKUJ_clean_linker_0, # of connection points: 2
#     Edge 98, Type (0, 1), BuildingBlock: MIFKUJ_clean_linker_0, # of connection points: 2
#     Edge 99, Type (0, 1), BuildingBlock: MIFKUJ_clean_linker_0, # of connection points: 2
#     Edge 100, Type (0, 1), BuildingBlock: MIFKUJ_clean_linker_0, # of connection points: 2
#     Edge 101, Type (0, 1), BuildingBlock: MIFKUJ_clean_linker_0, # of connection points: 2
#     Edge 102, Type (0, 1), BuildingBlock: MIFKUJ_clean_linker_0, # of connection points: 2
#     Edge 103, Type (0, 1), BuildingBlock: MIFKUJ_clean_linker_0, # of connection points: 2
#     Edge 104, Type (0, 1), BuildingBlock: MIFKUJ_clean_linker_0, # of connection points: 2
#     Edge 105, Type (0, 1), BuildingBlock: MIFKUJ_clean_linker_0, # of connection points: 2
#     Edge 106, Type (0, 1), BuildingBlock: MIFKUJ_clean_linker_0, # of connection points: 2
#     Edge 107, Type (0, 1), BuildingBlock: MIFKUJ_clean_linker_0, # of connection points: 2
#     Edge 108, Type (0, 1), BuildingBlock: MIFKUJ_clean_linker_0, # of connection points: 2
#     Edge 109, Type (0, 1), BuildingBlock: MIFKUJ_clean_linker_0, # of connection points: 2
#     Edge 110, Type (0, 1), BuildingBlock: MIFKUJ_clean_linker_0, # of connection points: 2
#     Edge 111, Type (0, 1), BuildingBlock: MIFKUJ_clean_linker_0, # of connection points: 2
#     Edge 112, Type (0, 1), BuildingBlock: MIFKUJ_clean_linker_0, # of connection points: 2
#     Edge 113, Type (0, 1), BuildingBlock: MIFKUJ_clean_linker_0, # of connection points: 2
#     Edge 114, Type (0, 1), BuildingBlock: MIFKUJ_clean_linker_0, # of connection points: 2
#     Edge 115, Type (0, 1), BuildingBlock: MIFKUJ_clean_linker_0, # of connection points: 2
#     Edge 116, Type (0, 1), BuildingBlock: MIFKUJ_clean_linker_0, # of connection points: 2
#     Edge 117, Type (0, 1), BuildingBlock: MIFKUJ_clean_linker_0, # of connection points: 2
#     Edge 118, Type (0, 1), BuildingBlock: MIFKUJ_clean_linker_0, # of connection points: 2
#     Edge 119, Type (0, 1), BuildingBlock: MIFKUJ_clean_linker_0, # of connection points: 2
#     Edge 120, Type (0, 1), BuildingBlock: MIFKUJ_clean_linker_0, # of connection points: 2
#     Edge 121, Type (0, 1), BuildingBlock: MIFKUJ_clean_linker_0, # of connection points: 2
#     Edge 122, Type (0, 1), BuildingBlock: MIFKUJ_clean_linker_0, # of connection points: 2
#     Edge 123, Type (0, 1), BuildingBlock: MIFKUJ_clean_linker_0, # of connection points: 2
#     Edge 124, Type (0, 1), BuildingBlock: MIFKUJ_clean_linker_0, # of connection points: 2
#     Edge 125, Type (0, 1), BuildingBlock: MIFKUJ_clean_linker_0, # of connection points: 2
#     Edge 126, Type (0, 1), BuildingBlock: MIFKUJ_clean_linker_0, # of connection points: 2
#     Edge 127, Type (0, 1), BuildingBlock: MIFKUJ_clean_linker_0, # of connection points: 2
#     Edge 128, Type (0, 1), BuildingBlock: MIFKUJ_clean_linker_0, # of connection points: 2
#     Edge 129, Type (0, 1), BuildingBlock: MIFKUJ_clean_linker_0, # of connection points: 2
#     Edge 130, Type (0, 1), BuildingBlock: MIFKUJ_clean_linker_0, # of connection points: 2
#     Edge 131, Type (0, 1), BuildingBlock: MIFKUJ_clean_linker_0, # of connection points: 2
#     Edge 132, Type (0, 1), BuildingBlock: MIFKUJ_clean_linker_0, # of connection points: 2
#     Edge 133, Type (0, 1), BuildingBlock: MIFKUJ_clean_linker_0, # of connection points: 2
#     Edge 134, Type (0, 1), BuildingBlock: MIFKUJ_clean_linker_0, # of connection points: 2
#     Edge 135, Type (0, 1), BuildingBlock: MIFKUJ_clean_linker_0, # of connection points: 2
# Relax obj value: 0.113
# Max RMSD: 0.306
# Mean RMSD: 0.147
data_MOF--net-gar--node1-CEKHIL_clean_sbu_0--node2-KUMJIN_clean_sbu_0--edge1-MIFKUJ_clean_linker_0
_symmetry_space_group_name_H-M    P1
_symmetry_Int_Tables_number       1
_symmetry_cell_setting            triclinic
loop_
_symmetry_equiv_pos_as_xyz
'x, y, z'
_cell_length_a     77.856546
_cell_length_b     72.40015
_cell_length_c     71.716378
_cell_angle_alpha  99.875111
_cell_angle_beta   93.126766
_cell_angle_gamma 101.99785
loop_
_atom_site_label
_atom_site_type_symbol
_atom_site_fract_x
_atom_site_fract_y
_atom_site_fract_z
_atom_type_partial_charge
Co0 Co 0.10339 0.32293 0.38593 0.0
O1 O 0.12751 0.32175 0.38795 0.0
O2 O 0.10825 0.309 0.36247 0.0
C3 C 0.10879 0.35406 0.39766 0.0
O4 O 0.07785 0.32216 0.37873 0.0
Co5 Co 0.08524 0.33636 0.42213 0.0
O6 O 0.06588 0.33692 0.40339 0.0
C7 C 0.09295 0.29749 0.41385 0.0
C8 C 0.12441 0.3132 0.3703 0.0
C9 C 0.06529 0.3289 0.38606 0.0
O10 O 0.09684 0.2992 0.39698 0.0
O11 O 0.08971 0.31109 0.42614 0.0
O12 O 0.1098 0.34837 0.37967 0.0
O13 O 0.10548 0.341 0.4079 0.0
Co14 Co 1.0021 0.76507 0.65694 0.0
O15 O 0.97716 0.76254 0.65571 0.0
O16 O 0.9942 0.76032 0.68089 0.0
C17 C 0.00711 0.7911 0.64379 0.0
O18 O 0.02809 0.76695 0.6634 0.0
Co19 Co 0.02217 0.76389 0.62035 0.0
O20 O 0.04367 0.77092 0.63834 0.0
C21 C 0.9989 0.72905 0.6294 0.0
C22 C 0.97861 0.75993 0.67312 0.0
C23 C 0.04273 0.76977 0.65579 0.0
O24 O 0.99855 0.73707 0.64669 0.0
O25 O 0.00585 0.738 0.61676 0.0
O26 O 0.00585 0.79304 0.66198 0.0
O27 O 0.00466 0.77392 0.63426 0.0
Co28 Co 0.60284 0.82096 0.88391 0.0
O29 O 0.62744 0.82196 0.88567 0.0
O30 O 0.60872 0.81012 0.85964 0.0
C31 C 0.60579 0.85094 0.89853 0.0
O32 O 0.57693 0.81865 0.87671 0.0
Co33 Co 0.58285 0.82896 0.92019 0.0
O34 O 0.56488 0.83287 0.9016 0.0
C35 C 0.59177 0.79118 0.90752 0.0
C36 C 0.62487 0.81528 0.86752 0.0
C37 C 0.56445 0.82557 0.8841 0.0
O38 O 0.59779 0.79563 0.8922 0.0
O39 O 0.58641 0.80257 0.92043 0.0
O40 O 0.60767 0.84742 0.88048 0.0
O41 O 0.6034 0.83654 0.90714 0.0
Co42 Co 0.50268 0.26581 0.15813 0.0
O43 O 0.478 0.26453 0.15728 0.0
O44 O 0.49477 0.2619 0.18244 0.0
C45 C 0.50902 0.29123 0.14399 0.0
O46 O 0.52857 0.26638 0.16374 0.0
Co47 Co 0.5201 0.26041 0.11982 0.0
O48 O 0.54211 0.26463 0.13672 0.0
C49 C 0.4958 0.22854 0.13153 0.0
C50 C 0.47921 0.26169 0.17463 0.0
C51 C 0.54233 0.26587 0.1547 0.0
O52 O 0.49785 0.2376 0.14875 0.0
O53 O 0.50155 0.23616 0.11759 0.0
O54 O 0.50766 0.29392 0.16222 0.0
O55 O 0.50531 0.2737 0.13518 0.0
Co56 Co 0.07842 0.81513 0.11748 0.0
O57 O 0.0529 0.81247 0.11254 0.0
O58 O 0.06576 0.80914 0.13938 0.0
C59 C 0.08458 0.84338 0.10492 0.0
O60 O 0.10413 0.81719 0.12981 0.0
Co61 Co 0.10375 0.81436 0.08793 0.0
O62 O 0.12344 0.81785 0.10793 0.0
C63 C 0.08061 0.77773 0.09117 0.0
C64 C 0.05124 0.80926 0.12965 0.0
C65 C 0.1201 0.8178 0.12509 0.0
O66 O 0.07604 0.78642 0.1068 0.0
O67 O 0.09035 0.7868 0.08039 0.0
O68 O 0.08138 0.84334 0.12251 0.0
O69 O 0.08426 0.82642 0.09522 0.0
Co70 Co 0.5242 0.77251 0.42443 0.0
O71 O 0.54982 0.77694 0.42962 0.0
O72 O 0.53547 0.76333 0.40186 0.0
C73 C 0.52306 0.80298 0.43923 0.0
O74 O 0.498 0.76731 0.41187 0.0
Co75 Co 0.4986 0.77362 0.45449 0.0
O76 O 0.48087 0.77564 0.43447 0.0
C77 C 0.51583 0.74073 0.44857 0.0
C78 C 0.5506 0.76974 0.41192 0.0
C79 C 0.48307 0.77102 0.41697 0.0
O80 O 0.5214 0.74628 0.43324 0.0
O81 O 0.50722 0.75046 0.45964 0.0
O82 O 0.52708 0.79947 0.42184 0.0
O83 O 0.52051 0.78825 0.44757 0.0
Co84 Co 0.57914 0.31465 0.61647 0.0
O85 O 0.55348 0.31179 0.61175 0.0
O86 O 0.56671 0.30884 0.63848 0.0
C87 C 0.58483 0.34296 0.60401 0.0
O88 O 0.60485 0.31671 0.62903 0.0
Co89 Co 0.60541 0.31554 0.58812 0.0
O90 O 0.62504 0.31991 0.60829 0.0
C91 C 0.58306 0.27776 0.59034 0.0
C92 C 0.55204 0.30895 0.62904 0.0
C93 C 0.62116 0.31859 0.62506 0.0
O94 O 0.57677 0.28596 0.60516 0.0
O95 O 0.59386 0.28746 0.58091 0.0
O96 O 0.58199 0.34292 0.62169 0.0
O97 O 0.58486 0.32613 0.5943 0.0
Co98 Co 0.02465 0.27359 0.92385 0.0
O99 O 0.05037 0.27811 0.92936 0.0
O100 O 0.03614 0.26544 0.90131 0.0
C101 C 0.02254 0.30371 0.93872 0.0
O102 O 0.99886 0.26829 0.9106 0.0
Co103 Co 0.99807 0.27271 0.9524 0.0
O104 O 0.97961 0.27258 0.93213 0.0
C105 C 0.01581 0.24047 0.94649 0.0
C106 C 0.05122 0.27156 0.91147 0.0
C107 C 0.98311 0.2697 0.91491 0.0
O108 O 0.02218 0.24706 0.93197 0.0
O109 O 0.00631 0.24921 0.95726 0.0
O110 O 0.02697 0.30035 0.92149 0.0
O111 O 0.02016 0.28894 0.94713 0.0
Co112 Co 0.4177 0.04329 0.3035 0.0
O113 O 0.42137 0.06948 0.30129 0.0
O114 O 0.39585 0.04734 0.29453 0.0
C115 C 0.43182 0.04859 0.33161 0.0
O116 O 0.40902 0.01579 0.30448 0.0
Co117 Co 0.44852 0.02257 0.30887 0.0
O118 O 0.42988 1.0005 0.31214 0.0
C119 C 0.43839 0.03203 0.27177 0.0
C120 C 0.40455 0.06499 0.29605 0.0
C121 C 0.41384 1.001 0.30837 0.0
O122 O 0.42421 0.03646 0.2774 0.0
O123 O 0.45017 0.02801 0.28259 0.0
O124 O 0.41545 0.05 0.33034 0.0
O125 O 0.43919 0.04529 0.31613 0.0
Co126 Co 0.29946 0.18459 0.50252 0.0
O127 O 0.32513 0.19032 0.50452 0.0
O128 O 0.30832 0.16303 0.50858 0.0
C129 C 0.29738 0.1959 0.47481 0.0
O130 O 0.27281 0.17209 0.50104 0.0
Co131 Co 0.27686 0.21426 0.50193 0.0
O132 O 0.25606 0.19243 0.49488 0.0
C133 C 0.29634 0.21264 0.53814 0.0
C134 C 0.32408 0.17301 0.50767 0.0
C135 C 0.25761 0.1758 0.49719 0.0
O136 O 0.29976 0.19645 0.5305 0.0
O137 O 0.28882 0.22266 0.52858 0.0
O138 O 0.29922 0.17846 0.47475 0.0
O139 O 0.29704 0.206 0.49143 0.0
Co140 Co 0.17023 0.00563 0.77155 0.0
O141 O 0.16743 0.97655 0.76946 0.0
O142 O 0.19146 0.99441 0.76418 0.0
C143 C 0.15707 0.01016 0.80176 0.0
O144 O 0.18199 0.03569 0.77353 0.0
Co145 Co 0.14289 0.03002 0.77471 0.0
O146 O 0.16214 0.05363 0.78004 0.0
C147 C 0.14587 0.01002 0.73574 0.0
C148 C 0.1837 0.97712 0.76572 0.0
C149 C 0.17795 0.05258 0.77727 0.0
O150 O 0.1595 1.004 0.74261 0.0
O151 O 0.13692 0.01923 0.74684 0.0
O152 O 0.17326 0.00826 0.80045 0.0
O153 O 0.14924 0.00895 0.7851 0.0
Co154 Co 0.31311 0.93285 0.00811 0.0
O155 O 0.28825 0.92826 0.00818 0.0
O156 O 0.30714 0.9564 0.01872 0.0
C157 C 0.31258 0.91699 0.97887 0.0
O158 O 0.33911 0.94277 0.01011 0.0
Co159 Co 0.33268 0.89863 1.00084 0.0
O160 O 0.35413 0.91934 0.00388 0.0
C161 C 0.31802 0.90988 0.03728 0.0
C162 C 0.29097 0.94642 0.01551 0.0
C163 C 0.35344 0.93693 0.00863 0.0
O164 O 0.31537 0.92573 0.03343 0.0
O165 O 0.32269 0.89682 0.02555 0.0
O166 O 0.3113 0.93487 0.9813 0.0
O167 O 0.31329 0.90945 0.99372 0.0
Co168 Co 0.30224 0.39394 0.0311 0.0
O169 O 0.27658 0.38821 0.02952 0.0
O170 O 0.29373 0.41675 0.04075 0.0
C171 C 0.3034 0.37849 1.00089 0.0
O172 O 0.32907 0.40664 0.0342 0.0
Co173 Co 0.32445 0.36319 0.0266 0.0
O174 O 0.34528 0.38442 0.02788 0.0
C175 C 0.30746 0.37124 0.06221 0.0
C176 C 0.27785 0.40634 0.03614 0.0
C177 C 0.34412 0.40188 0.03222 0.0
O178 O 0.30314 0.38611 0.05716 0.0
O179 O 0.31468 0.35975 0.05132 0.0
O180 O 0.30102 0.39593 0.00415 0.0
O181 O 0.30423 0.37059 0.01564 0.0
Co182 Co 0.78957 0.14604 0.02014 0.0
O183 O 0.81432 0.15092 0.02517 0.0
O184 O 0.79565 0.12352 0.02687 0.0
C185 C 0.79027 0.15756 0.99363 0.0
O186 O 0.76327 0.13656 0.0156 0.0
Co187 Co 0.77101 0.18018 0.01596 0.0
O188 O 0.7501 0.15917 0.00714 0.0
C189 C 0.7799 0.17069 0.05374 0.0
C190 C 0.81183 0.13334 0.0278 0.0
C191 C 0.74957 0.14228 0.01027 0.0
O192 O 0.78678 0.15663 0.04698 0.0
O193 O 0.77429 0.18175 0.0439 0.0
O194 O 0.7917 0.13991 0.99299 0.0
O195 O 0.78997 0.1677 0.01008 0.0
Co196 Co 0.18812 0.53779 0.24812 0.0
O197 O 0.18338 0.51083 0.24165 0.0
O198 O 0.20878 0.53105 0.23913 0.0
C199 C 0.17679 0.53839 0.27532 0.0
O200 O 0.19731 0.56582 0.25365 0.0
Co201 Co 0.15773 0.55984 0.25527 0.0
O202 O 0.17733 0.58228 0.26476 0.0
C203 C 0.1649 0.5424 0.21675 0.0
C204 C 0.19971 0.51353 0.23779 0.0
C205 C 0.19284 0.58132 0.26062 0.0
O206 O 0.17957 0.53929 0.22246 0.0
O207 O 0.15383 0.54838 0.2275 0.0
O208 O 0.19303 0.53674 0.27452 0.0
O209 O 0.16781 0.5386 0.25978 0.0
Co210 Co 0.8025 0.89436 0.53075 0.0
O211 O 0.77695 0.88855 0.52833 0.0
O212 O 0.7936 0.91672 0.54171 0.0
C213 C 0.80421 0.88067 0.49997 0.0
O214 O 0.82942 0.90661 0.5348 0.0
Co215 Co 0.82375 0.86269 0.52452 0.0
O216 O 0.84436 0.88395 0.52479 0.0
C217 C 0.80603 0.86898 0.5599 0.0
C218 C 0.77783 0.90629 0.53615 0.0
C219 C 0.844 0.90143 0.53093 0.0
O220 O 0.80266 0.88473 0.55596 0.0
O221 O 0.81296 0.85773 0.54837 0.0
O222 O 0.80213 0.89819 0.50428 0.0
O223 O 0.80442 0.8718 0.51408 0.0
Co224 Co 0.93185 0.07461 0.27832 0.0
O225 O 0.93495 0.104 0.28224 0.0
O226 O 0.91018 0.08485 0.27213 0.0
C227 C 0.94703 0.07228 0.30813 0.0
O228 O 0.91972 0.0444 0.27377 0.0
Co229 Co 0.95938 0.05005 0.27577 0.0
O230 O 0.94019 0.02691 0.27532 0.0
C231 C 0.95455 0.0683 0.24265 0.0
C232 C 0.91836 0.10274 0.27702 0.0
C233 C 0.92401 0.02777 0.27371 0.0
O234 O 0.94051 0.07325 0.25001 0.0
O235 O 0.96458 0.06043 0.25193 0.0
O236 O 0.93114 0.0754 0.30686 0.0
O237 O 0.95365 0.07207 0.29196 0.0
Co238 Co 0.28986 0.64443 0.52092 0.0
O239 O 0.31456 0.64946 0.52629 0.0
O240 O 0.2958 0.62225 0.52851 0.0
C241 C 0.29146 0.65506 0.49401 0.0
O242 O 0.26361 0.6347 0.51617 0.0
Co243 Co 0.2713 0.67797 0.51493 0.0
O244 O 0.2504 0.65675 0.50651 0.0
C245 C 0.28073 0.67063 0.55355 0.0
C246 C 0.31199 0.63203 0.52938 0.0
C247 C 0.24994 0.64005 0.5102 0.0
O248 O 0.28691 0.65588 0.54743 0.0
O249 O 0.27553 0.68144 0.54308 0.0
O250 O 0.29224 0.63733 0.49395 0.0
O251 O 0.29057 0.66571 0.51001 0.0
Co252 Co 0.43228 0.57497 0.77825 0.0
O253 O 0.43535 0.60432 0.78164 0.0
O254 O 0.41045 0.58513 0.77228 0.0
C255 C 0.44787 0.57307 0.80802 0.0
O256 O 0.42044 0.54461 0.77402 0.0
Co257 Co 0.46041 0.55088 0.77563 0.0
O258 O 0.44145 0.52794 0.77647 0.0
C259 C 0.45409 0.5677 0.74186 0.0
C260 C 0.41869 0.60304 0.77671 0.0
C261 C 0.42515 0.52825 0.77451 0.0
O262 O 0.44055 0.57324 0.74981 0.0
O263 O 0.46423 0.55961 0.75072 0.0
O264 O 0.43202 0.57633 0.80694 0.0
O265 O 0.45423 0.57264 0.79171 0.0
Co266 Co 0.68609 0.03409 0.74607 0.0
O267 O 0.68224 0.00704 0.73766 0.0
O268 O 0.70669 0.02883 0.7356 0.0
C269 C 0.67605 0.03344 0.77427 0.0
O270 O 0.69515 0.06243 0.75358 0.0
Co271 Co 0.65583 0.05523 0.7561 0.0
O272 O 0.67519 0.07752 0.76682 0.0
C273 C 0.66375 0.04461 0.71638 0.0
C274 C 0.69849 0.01095 0.73348 0.0
C275 C 0.69073 0.07742 0.76226 0.0
O276 O 0.67656 0.03736 0.72111 0.0
O277 O 0.65357 0.05121 0.7279 0.0
O278 O 0.69196 0.03123 0.77187 0.0
O279 O 0.66627 0.03385 0.7593 0.0
Co280 Co 0.79907 0.68473 0.00173 0.0
O281 O 0.82469 0.69015 0.00398 0.0
O282 O 0.80757 0.66285 0.00775 0.0
C283 C 0.79712 0.6961 0.974 0.0
O284 O 0.77225 0.6726 0.99995 0.0
Co285 Co 0.77759 0.71542 1.0015 0.0
O286 O 0.75622 0.69434 0.99656 0.0
C287 C 0.79615 0.71273 0.03772 0.0
C288 C 0.82339 0.67285 0.00719 0.0
C289 C 0.75719 0.67724 0.99772 0.0
O290 O 0.7994 0.6965 0.02985 0.0
O291 O 0.78906 0.7231 0.02823 0.0
O292 O 0.79887 0.67865 0.97393 0.0
O293 O 0.79723 0.70638 0.99061 0.0
Co294 Co 0.91751 0.5427 0.80345 0.0
O295 O 0.92131 0.56928 0.80281 0.0
O296 O 0.89613 0.54707 0.79386 0.0
C297 C 0.93037 0.54603 0.83199 0.0
O298 O 0.90859 0.51492 0.80234 0.0
Co299 Co 0.94756 0.52103 0.80852 0.0
O300 O 0.92861 0.49797 0.808 0.0
C301 C 0.93815 0.53103 0.77152 0.0
C302 C 0.90471 0.56485 0.7965 0.0
C303 C 0.91281 0.49919 0.80403 0.0
O304 O 0.92484 0.53721 0.77753 0.0
O305 O 0.94927 0.52567 0.78203 0.0
O306 O 0.91415 0.54788 0.83015 0.0
O307 O 0.93845 0.54377 0.81684 0.0
Co308 Co 0.81206 0.4318 0.50895 0.0
O309 O 0.78721 0.42808 0.50882 0.0
O310 O 0.80666 0.45577 0.51952 0.0
C311 C 0.81245 0.41641 0.4797 0.0
O312 O 0.83829 0.44055 0.51087 0.0
Co313 Co 0.83002 0.39631 0.50229 0.0
O314 O 0.85069 0.41608 0.49897 0.0
C315 C 0.81697 0.40937 0.53907 0.0
C316 C 0.79033 0.44626 0.51615 0.0
C317 C 0.85151 0.43377 0.50549 0.0
O318 O 0.81383 0.42471 0.53439 0.0
O319 O 0.82172 0.39596 0.52793 0.0
O320 O 0.8108 0.43415 0.48231 0.0
O321 O 0.81178 0.40832 0.49432 0.0
Co322 Co 0.67072 0.50562 0.27235 0.0
O323 O 0.66789 0.47643 0.26965 0.0
O324 O 0.69227 0.49475 0.26598 0.0
C325 C 0.6571 0.50972 0.30227 0.0
O326 O 0.68251 0.53568 0.27464 0.0
Co327 Co 0.64338 0.53006 0.27563 0.0
O328 O 0.66256 0.55367 0.28008 0.0
C329 C 0.64653 0.51018 0.2366 0.0
C330 C 0.68442 0.4773 0.26687 0.0
C331 C 0.67842 0.55257 0.27771 0.0
O332 O 0.66029 0.50425 0.24333 0.0
O333 O 0.63755 0.5192 0.24783 0.0
O334 O 0.67333 0.50794 0.30121 0.0
O335 O 0.64949 0.50867 0.28554 0.0
Eu336 Eu 0.03132 0.03046 0.00977 0.0
C337 C 0.09436 0.09371 0.05296 0.0
C338 C 0.10396 0.11155 0.02835 0.0
C339 C 0.11207 0.12641 0.0615 0.0
C340 C 0.0949 0.0946 0.03391 0.0
C341 C 0.10312 0.10955 0.06698 0.0
C342 C 0.11247 0.12741 0.04222 0.0
C343 C 0.09454 0.09061 0.09089 0.0
N344 N 0.08571 0.07721 0.05784 0.0
C345 C 0.08623 0.07526 0.07651 0.0
C346 C 0.10294 0.10789 0.08611 0.0
Eu347 Eu 0.07355 0.05088 0.03281 0.0
N348 N 0.08638 0.07908 0.02081 0.0
C349 C 0.08685 0.07969 0.00182 0.0
C350 C 0.10424 0.11212 0.009 0.0
C351 C 0.09567 0.09608 0.9957 0.0
H352 H 0.08041 0.06165 0.08033 0.0
H353 H 0.09584 0.09625 0.98067 0.0
H354 H 0.11946 0.14049 0.03819 0.0
H355 H 0.09472 0.08897 0.10561 0.0
H356 H 0.08008 0.06793 0.99096 0.0
H357 H 0.00759 0.98661 0.06278 0.0
H358 H 0.11103 0.12484 0.00418 0.0
H359 H 0.02366 0.01885 0.96242 0.0
H360 H 0.02359 0.01457 0.05216 0.0
H361 H 0.01042 0.99078 0.93752 0.0
H362 H 0.11884 0.1387 0.07206 0.0
H363 H 0.99321 0.95763 0.03953 0.0
H364 H 0.98766 0.94015 0.00597 0.0
H365 H 0.10955 0.11972 0.09726 0.0
H366 H 0.989 0.94096 0.97197 0.0
N367 N 0.01896 1.00238 0.02235 0.0
C368 C 0.01751 1.00245 0.04137 0.0
C369 C 1.0008 0.96982 0.03463 0.0
C370 C 1.0024 0.96949 0.01531 0.0
C371 C 0.00857 0.98628 0.04773 0.0
C372 C 0.01151 0.98625 0.00948 0.0
H373 H 0.9974 0.9597 0.94639 0.0
N374 N 0.01977 1.00347 0.9852 0.0
C375 C 0.01098 0.98935 0.9523 0.0
C376 C 0.01209 0.98676 0.99037 0.0
C377 C 0.01868 0.00515 0.96647 0.0
C378 C 1.00365 0.97186 0.95736 0.0
C379 C 1.00382 0.97048 0.97658 0.0
O380 O 0.01317 0.03989 0.99141 0.0
O381 O 0.04956 0.05935 0.02093 0.0
O382 O 0.05522 0.05897 0.05625 0.0
O383 O 0.02779 0.04272 0.0414 0.0
O384 O 0.04108 0.05269 0.9923 0.0
O385 O 0.00659 0.03672 0.01971 0.0
O386 O 0.09081 0.03966 0.05061 0.0
O387 O 0.05512 0.02205 0.02192 0.0
O388 O 0.04977 0.02391 0.98585 0.0
O389 O 0.07734 0.0391 1.00106 0.0
O390 O 0.06406 0.0288 0.05062 0.0
O391 O 0.09875 0.04576 0.02344 0.0
C392 C 0.04852 0.06656 0.00593 0.0
C393 C 0.98318 0.03568 0.99664 0.0
C394 C 0.95403 0.04258 0.99733 0.0
C395 C 0.97162 0.04645 0.00489 0.0
C396 C 0.94807 0.02801 0.98131 0.0
C397 C 0.97709 0.02104 0.9807 0.0
C398 C 0.95958 0.01731 0.97304 0.0
C399 C 0.03789 0.05292 0.05692 0.0
C400 C 1.00179 0.04139 0.00381 0.0
C401 C 0.99538 0.95358 0.98235 0.0
C402 C 0.9946 0.95312 0.00169 0.0
C403 C 0.05583 0.01519 0.03716 0.0
C404 C 0.12115 0.04565 0.0471 0.0
C405 C 0.13327 0.03576 0.0389 0.0
C406 C 0.15051 0.03947 0.0474 0.0
C407 C 0.15561 0.05318 0.06424 0.0
C408 C 0.12636 0.05946 0.06383 0.0
C409 C 0.14355 0.06317 0.07237 0.0
C410 C 0.06718 0.02954 0.98532 0.0
C411 C 0.10288 0.03977 0.03884 0.0
H412 H 0.97633 0.05792 0.01709 0.0
H413 H 0.93456 0.02508 0.97509 0.0
H414 H 0.98587 0.01275 0.97398 0.0
H415 H 0.95497 0.00622 0.96058 0.0
H416 H 0.12921 0.025 0.02603 0.0
H417 H 0.16882 0.05592 0.07125 0.0
H418 H 0.11717 0.06709 0.07052 0.0
H419 H 0.14746 0.07359 0.08544 0.0
Eu420 Eu 0.31034 0.78265 0.24715 0.0
C421 C 0.28245 0.83963 0.30992 0.0
C422 C 0.3089 0.86142 0.32633 0.0
C423 C 0.28065 0.87045 0.32863 0.0
C424 C 0.30045 0.84379 0.31456 0.0
C425 C 0.27228 0.85275 0.31722 0.0
C426 C 0.29894 0.8748 0.33313 0.0
C427 C 0.2461 0.82899 0.30345 0.0
N428 N 0.27471 0.8222 0.29936 0.0
C429 C 0.25676 0.81639 0.29688 0.0
C430 C 0.25391 0.84735 0.31353 0.0
Eu431 Eu 0.29275 0.79998 0.2918 0.0
N432 N 0.30958 0.83028 0.30827 0.0
C433 C 0.32726 0.83348 0.31359 0.0
C434 C 0.32703 0.86485 0.33142 0.0
C435 C 0.33623 0.85077 0.32507 0.0
H436 H 0.25066 0.80176 0.29018 0.0
H437 H 0.35027 0.85323 0.32892 0.0
H438 H 0.30521 0.88836 0.34222 0.0
H439 H 0.23189 0.82435 0.30118 0.0
H440 H 0.33488 0.82314 0.30862 0.0
H441 H 0.24637 0.73353 0.21673 0.0
H442 H 0.334 0.8782 0.3404 0.0
H443 H 0.35025 0.77189 0.25014 0.0
H444 H 0.2647 0.76171 0.23693 0.0
H445 H 0.36463 0.74614 0.23733 0.0
H446 H 0.27306 0.88069 0.3344 0.0
H447 H 0.25968 0.70819 0.1998 0.0
H448 H 0.28645 0.69528 0.1935 0.0
H449 H 0.24563 0.85697 0.31897 0.0
H450 H 0.3183 0.69825 0.19973 0.0
N451 N 0.28935 0.7541 0.23099 0.0
C452 C 0.27131 0.75159 0.22929 0.0
C453 C 0.26809 0.7209 0.20853 0.0
C454 C 0.28631 0.72279 0.21102 0.0
C455 C 0.26055 0.73519 0.218 0.0
C456 C 0.29673 0.7396 0.22264 0.0
H457 H 0.34729 0.71672 0.21643 0.0
N458 N 0.32429 0.75661 0.23871 0.0
C459 C 0.35052 0.74428 0.23446 0.0
C460 C 0.31467 0.74094 0.22657 0.0
C461 C 0.34214 0.75867 0.24219 0.0
C462 C 0.34072 0.72781 0.22255 0.0
C463 C 0.32262 0.72599 0.21839 0.0
O464 O 0.33638 0.79758 0.24106 0.0
O465 O 0.31168 0.80663 0.27113 0.0
O466 O 0.27453 0.80486 0.26689 0.0
O467 O 0.28421 0.79074 0.23829 0.0
O468 O 0.30921 0.81282 0.24374 0.0
O469 O 0.31673 0.78077 0.21808 0.0
O470 O 0.27347 0.78242 0.30571 0.0
O471 O 0.29848 0.77508 0.27259 0.0
O472 O 0.32948 0.77965 0.27227 0.0
O473 O 0.31859 0.79179 0.30038 0.0
O474 O 0.27235 0.77406 0.27828 0.0
O475 O 0.29868 0.79699 0.32125 0.0
C476 C 0.31063 0.81946 0.26174 0.0
C477 C 0.34126 0.80134 0.20922 0.0
C478 C 0.33999 0.82001 0.18466 0.0
C479 C 0.33196 0.81138 0.19886 0.0
C480 C 0.3571 0.81844 0.18061 0.0
C481 C 0.35839 0.79981 0.20525 0.0
C482 C 0.36627 0.8083 0.1909 0.0
C483 C 0.27272 0.79921 0.2479 0.0
C484 C 0.33288 0.79067 0.22286 0.0
C485 C 0.31237 0.70975 0.20623 0.0
C486 C 0.29426 0.70812 0.20262 0.0
C487 C 0.2835 0.7644 0.2714 0.0
C488 C 0.27466 0.78653 0.33868 0.0
C489 C 0.27745 0.77369 0.3502 0.0
C490 C 0.26648 0.77024 0.36441 0.0
C491 C 0.25302 0.78024 0.36777 0.0
C492 C 0.26139 0.79687 0.342 0.0
C493 C 0.25069 0.79382 0.35672 0.0
C494 C 0.33071 0.78439 0.29125 0.0
C495 C 0.28348 0.78549 0.32143 0.0
H496 H 0.31871 0.81263 0.20193 0.0
H497 H 0.36338 0.82523 0.16964 0.0
H498 H 0.36553 0.79173 0.21302 0.0
H499 H 0.37946 0.80703 0.18776 0.0
H500 H 0.28739 0.76531 0.34723 0.0
H501 H 0.24436 0.77745 0.37877 0.0
H502 H 0.25893 0.80667 0.33291 0.0
H503 H 0.24026 0.80152 0.35919 0.0
Eu504 Eu 0.57195 0.0406 0.51444 0.0
C505 C 0.50388 1.0039 0.5499 0.0
C506 C 0.48804 0.97759 0.52529 0.0
C507 C 0.48414 0.97654 0.55849 0.0
C508 C 0.50011 0.99545 0.53079 0.0
C509 C 0.49578 0.99457 0.56392 0.0
C510 C 0.48024 0.9681 0.53924 0.0
C511 C 0.5104 0.02209 0.58765 0.0
N512 N 0.51513 0.0214 0.55479 0.0
C513 C 0.51796 0.0309 0.57327 0.0
C514 C 0.49939 1.00378 0.58298 0.0
Eu515 Eu 0.52736 0.03475 0.52935 0.0
N516 N 0.50796 1.0048 0.51754 0.0
C517 C 0.50371 0.9975 0.49858 0.0
C518 C 0.48391 0.9699 0.5059 0.0
C519 C 0.49166 0.98002 0.49251 0.0
H520 H 0.52632 0.04513 0.57698 0.0
H521 H 0.48825 0.97451 0.47749 0.0
H522 H 0.47103 0.95432 0.53526 0.0
H523 H 0.51301 0.02946 0.60231 0.0
H524 H 0.50936 0.00511 0.48794 0.0
H525 H 0.60784 0.10045 0.56926 0.0
H526 H 0.47452 0.95636 0.50115 0.0
H527 H 0.57415 0.03263 0.46741 0.0
H528 H 0.58815 0.06905 0.55709 0.0
H529 H 0.58849 0.04943 0.44315 0.0
H530 H 0.47787 0.96913 0.56908 0.0
H531 H 0.62244 0.11979 0.54697 0.0
H532 H 0.62774 0.12295 0.51336 0.0
H533 H 0.49348 0.99703 0.59415 0.0
H534 H 0.62238 0.10924 0.47918 0.0
N535 N 0.59109 0.0704 0.5279 0.0
C536 C 0.59433 0.07716 0.54706 0.0
C537 C 0.61377 0.10591 0.54147 0.0
C538 C 0.61082 0.09868 0.5219 0.0
C539 C 0.60556 0.09504 0.55409 0.0
C540 C 0.59933 0.08058 0.51545 0.0
H541 H 0.60781 0.08188 0.4529 0.0
N542 N 0.58494 0.05559 0.4904 0.0
C543 C 0.59067 0.05626 0.458 0.0
C544 C 0.59611 0.07299 0.49616 0.0
C545 C 0.58257 0.04681 0.47172 0.0
C546 C 0.60157 0.07457 0.46356 0.0
C547 C 0.60456 0.08309 0.48285 0.0
O548 O 0.5837 0.01686 0.50276 0.0
O549 O 0.54763 0.0187 0.51763 0.0
O550 O 0.54185 0.02165 0.54921 0.0
O551 O 0.57013 0.0382 0.54522 0.0
O552 O 0.55858 0.01481 0.49216 0.0
O553 O 0.59673 0.03656 0.52797 0.0
O554 O 0.51688 0.06077 0.53576 0.0
O555 O 0.55175 0.0566 0.52631 0.0
O556 O 0.55672 0.0538 0.49466 0.0
O557 O 0.53047 0.03393 0.49844 0.0
O558 O 0.54128 0.05996 0.55198 0.0
O559 O 0.50087 0.03575 0.5179 0.0
C560 C 0.54694 0.00675 0.50219 0.0
C561 C 0.61412 0.01919 0.50812 0.0
C562 C 0.63868 1.00291 0.50677 0.0
C563 C 0.62392 0.00733 0.51558 0.0
C564 C 0.64358 0.01047 0.49061 0.0
C565 C 0.61945 0.02684 0.49211 0.0
C566 C 0.63408 0.02246 0.48342 0.0
C567 C 0.55886 0.0274 0.55414 0.0
C568 C 0.59717 0.02133 0.51546 0.0
C569 C 0.61586 0.1012 0.4892 0.0
C570 C 0.61894 0.10899 0.50867 0.0
C571 C 0.55281 0.0683 0.54197 0.0
C572 C 0.48626 0.05782 0.53527 0.0
C573 C 0.47612 0.06929 0.52764 0.0
C574 C 0.46141 0.07366 0.53658 0.0
C575 C 0.45724 0.06686 0.55335 0.0
C576 C 0.48181 0.05117 0.552 0.0
C577 C 0.46743 0.05577 0.56103 0.0
C578 C 0.53966 0.0471 0.49024 0.0
C579 C 0.50177 0.05343 0.52609 0.0
H580 H 0.61979 1.00112 0.52777 0.0
H581 H 0.65483 0.00711 0.48359 0.0
H582 H 0.61205 0.03579 0.48603 0.0
H583 H 0.63795 0.02819 0.47092 0.0
H584 H 0.47948 0.0745 0.51471 0.0
H585 H 0.44606 0.07016 0.56054 0.0
H586 H 0.48946 0.04249 0.55811 0.0
H587 H 0.46411 0.05065 0.57398 0.0
Eu588 Eu 0.28073 0.29541 0.77087 0.0
C589 C 0.34602 0.26992 0.80461 0.0
C590 C 0.36017 0.29837 0.8276 0.0
C591 C 0.36486 0.26717 0.83176 0.0
C592 C 0.3491 0.28956 0.81076 0.0
C593 C 0.354 0.25851 0.81496 0.0
C594 C 0.36799 0.28707 0.83804 0.0
C595 C 0.34101 0.23095 0.79061 0.0
N596 N 0.3355 0.26196 0.78833 0.0
C597 C 0.33369 0.24292 0.78072 0.0
C598 C 0.35105 0.23875 0.80794 0.0
Eu599 Eu 0.32359 0.28288 0.77192 0.0
N600 N 0.34066 0.29996 0.80083 0.0
C601 C 0.34325 0.31945 0.80688 0.0
C602 C 0.36274 0.31823 0.83372 0.0
C603 C 0.35425 0.32879 0.82328 0.0
H604 H 0.32652 0.23693 0.76693 0.0
H605 H 0.35605 0.34415 0.8279 0.0
H606 H 0.37641 0.29357 0.85103 0.0
H607 H 0.33908 0.21579 0.78474 0.0
H608 H 0.33662 0.32812 0.79962 0.0
H609 H 0.24788 0.23398 0.71503 0.0
H610 H 0.37109 0.3255 0.84657 0.0
H611 H 0.27585 0.34074 0.77507 0.0
H612 H 0.26234 0.24959 0.74628 0.0
H613 H 0.26665 0.36214 0.75501 0.0
H614 H 0.37102 0.25862 0.83994 0.0
H615 H 0.24159 0.25338 0.69139 0.0
H616 H 0.24137 0.28581 0.68386 0.0
H617 H 0.35684 0.22948 0.81554 0.0
H618 H 0.24641 0.32077 0.69474 0.0
N619 N 0.2651 0.2783 0.74111 0.0
C620 C 0.25983 0.25865 0.73656 0.0
C621 C 0.24807 0.2605 0.70529 0.0
C622 C 0.25237 0.28053 0.71034 0.0
C623 C 0.25151 0.24952 0.71861 0.0
C624 C 0.26088 0.28912 0.72862 0.0
H625 H 0.25552 0.3493 0.72131 0.0
N626 N 0.27097 0.31634 0.75267 0.0
C627 C 0.26596 0.34721 0.74901 0.0
C628 C 0.26389 0.30877 0.73462 0.0
C629 C 0.2712 0.33507 0.76029 0.0
C630 C 0.25974 0.33991 0.73 0.0
C631 C 0.25826 0.32039 0.72269 0.0
O632 O 0.26618 0.30989 0.79161 0.0
O633 O 0.30211 0.28993 0.79048 0.0
O634 O 0.30385 0.25525 0.7768 0.0
O635 O 0.27665 0.2639 0.77567 0.0
O636 O 0.29515 0.31622 0.79634 0.0
O637 O 0.25459 0.28092 0.77852 0.0
O638 O 0.33718 0.26907 0.7493 0.0
O639 O 0.30173 0.28741 0.75268 0.0
O640 O 0.30055 0.32331 0.76687 0.0
O641 O 0.32769 0.31465 0.76799 0.0
O642 O 0.30952 0.26122 0.74703 0.0
O643 O 0.34877 0.2979 0.76306 0.0
C644 C 0.30343 0.3049 0.80332 0.0
C645 C 0.23521 0.30055 0.79274 0.0
C646 C 0.20714 0.29949 0.80792 0.0
C647 C 0.22292 0.29264 0.80499 0.0
C648 C 0.20458 0.31476 0.79906 0.0
C649 C 0.23145 0.31513 0.78369 0.0
C650 C 0.21646 0.32231 0.78704 0.0
C651 C 0.28628 0.25087 0.77699 0.0
C652 C 0.25286 0.29558 0.79102 0.0
C653 C 0.25065 0.31205 0.70416 0.0
C654 C 0.24776 0.29215 0.69798 0.0
C655 C 0.29995 0.27176 0.74073 0.0
C656 C 0.36821 0.27909 0.7482 0.0
C657 C 0.37987 0.28679 0.73535 0.0
C658 C 0.3962 0.28112 0.73295 0.0
C659 C 0.40044 0.26769 0.7434 0.0
C660 C 0.37321 0.26591 0.75845 0.0
C661 C 0.38909 0.2602 0.75597 0.0
C662 C 0.3181 0.32771 0.76668 0.0
C663 C 0.35039 0.28358 0.75007 0.0
H664 H 0.2256 0.28135 0.81209 0.0
H665 H 0.19323 0.32104 0.80144 0.0
H666 H 0.24043 0.32146 0.77439 0.0
H667 H 0.21407 0.33397 0.78034 0.0
H668 H 0.37632 0.2971 0.7274 0.0
H669 H 0.41268 0.26293 0.74181 0.0
H670 H 0.36472 0.25978 0.76825 0.0
H671 H 0.39261 0.24984 0.76385 0.0
Eu672 Eu 0.04733 0.06072 0.52791 0.0
C673 C 0.06549 0.99711 0.469 0.0
C674 C 0.0386 0.98695 0.44774 0.0
C675 C 0.06622 0.98145 0.43629 0.0
C676 C 0.04754 0.99574 0.46577 0.0
C677 C 0.07497 0.98971 0.45436 0.0
C678 C 0.04808 0.97998 0.43303 0.0
C679 C 0.10073 0.99731 0.47698 0.0
N680 N 0.07354 1.00467 0.48672 0.0
C681 C 0.09075 1.00426 0.49107 0.0
C682 C 0.09285 0.99017 0.45848 0.0
Eu683 Eu 0.05593 0.01582 0.51005 0.0
N684 N 0.03864 1.00196 0.48049 0.0
C685 C 0.02061 0.99889 0.47819 0.0
C686 C 0.02032 0.98477 0.44517 0.0
C687 C 0.01128 0.99063 0.46052 0.0
H688 H 0.09683 0.00963 0.50544 0.0
H689 H 0.99708 0.98875 0.45881 0.0
H690 H 0.04142 0.97285 0.41924 0.0
H691 H 0.11444 0.99733 0.48041 0.0
H692 H 0.0131 1.00325 0.48964 0.0
H693 H 0.10504 0.08857 0.58066 0.0
H694 H 0.01301 0.97819 0.43153 0.0
H695 H 0.00655 0.0677 0.53142 0.0
H696 H 0.08967 0.07432 0.54957 0.0
H697 H 0.98822 0.07945 0.55593 0.0
H698 H 0.07328 0.97567 0.42488 0.0
H699 H 0.08837 0.09797 0.60769 0.0
H700 H 0.05949 0.10176 0.61958 0.0
H701 H 0.10055 0.9846 0.44761 0.0
H702 H 0.02771 0.09934 0.6129 0.0
N703 N 0.06383 0.07458 0.55805 0.0
C704 C 0.08186 0.07814 0.56081 0.0
C705 C 0.08137 0.09149 0.59387 0.0
C706 C 0.06308 0.0889 0.59089 0.0
C707 C 0.09082 0.0863 0.57867 0.0
C708 C 0.05457 0.08037 0.57259 0.0
H709 H 1.0011 0.09122 0.58923 0.0
N710 N 0.02922 0.07183 0.55086 0.0
C711 C 1.00181 0.07928 0.5598 0.0
C712 C 0.03672 0.07898 0.56886 0.0
C713 C 0.01219 0.07262 0.54599 0.0
C714 C 0.00911 0.08587 0.57857 0.0
C715 C 0.02685 0.08611 0.58325 0.0
O716 O 0.0356 0.07929 0.51285 0.0
O717 O 0.04737 0.04082 0.49957 0.0
O718 O 0.07837 0.03651 0.50007 0.0
O719 O 0.0757 0.06453 0.51961 0.0
O720 O 0.02447 0.05005 0.5049 0.0
O721 O 0.06243 0.08933 0.52569 0.0
O722 O 0.06819 0.99732 0.52472 0.0
O723 O 0.0558 0.03569 0.53821 0.0
O724 O 0.02408 0.04016 0.5367 0.0
O725 O 0.02813 0.01151 0.51954 0.0
O726 O 0.07882 0.02663 0.53319 0.0
O727 O 0.04125 0.98695 0.51215 0.0
C728 C 0.03214 0.04128 0.49174 0.0
C729 C 0.04664 0.11253 0.51904 0.0
C730 C 0.04994 0.14302 0.50845 0.0
C731 C 0.05393 0.1249 0.50717 0.0
C732 C 0.03851 0.14865 0.52174 0.0
C733 C 0.03533 0.11826 0.53234 0.0
C734 C 0.03126 0.13629 0.53362 0.0
C735 C 0.08457 0.05477 0.50789 0.0
C736 C 0.0496 0.09308 0.51565 0.0
C737 C 0.0351 0.09388 0.60165 0.0
C738 C 0.05318 0.09526 0.60546 0.0
C739 C 0.07101 0.03546 0.54619 0.0
C740 C 0.05721 0.96397 0.51954 0.0
C741 C 0.05046 0.95221 0.53225 0.0
C742 C 0.05541 0.93469 0.53221 0.0
C743 C 0.0669 0.92883 0.51917 0.0
C744 C 0.06846 0.95789 0.50634 0.0
C745 C 0.07325 0.94032 0.50616 0.0
C746 C 0.01857 0.02151 0.53006 0.0
C747 C 0.05423 0.98346 0.52222 0.0
H748 H 0.06259 0.12034 0.49681 0.0
H749 H 0.03501 0.16248 0.52274 0.0
H750 H 0.02946 0.10876 0.54146 0.0
H751 H 0.02234 0.14062 0.5437 0.0
H752 H 0.04202 0.95704 0.54273 0.0
H753 H 0.07092 0.91535 0.51905 0.0
H754 H 0.07388 0.9669 0.49657 0.0
H755 H 0.08212 0.93574 0.49615 0.0
Eu756 Eu 0.32182 0.80513 0.76462 0.0
C757 C 0.27297 0.74539 0.79925 0.0
C758 C 0.27607 0.71502 0.78088 0.0
C759 C 0.2664 0.71627 0.8126 0.0
C760 C 0.2773 0.73499 0.78271 0.0
C761 C 0.2672 0.73604 0.81423 0.0
C762 C 0.27083 0.70579 0.79598 0.0
C763 C 0.26225 0.76619 0.83091 0.0
N764 N 0.2738 0.76448 0.80051 0.0
C765 C 0.26802 0.77484 0.81572 0.0
C766 C 0.26201 0.74675 0.83025 0.0
Eu767 Eu 0.2826 0.77756 0.77379 0.0
N768 N 0.2823 0.74421 0.76825 0.0
C769 C 0.28582 0.73411 0.75144 0.0
C770 C 0.27989 0.70478 0.76384 0.0
C771 C 0.28481 0.71437 0.74907 0.0
H772 H 0.26807 0.78985 0.81616 0.0
H773 H 0.28774 0.70656 0.73578 0.0
H774 H 0.26993 0.6905 0.79483 0.0
H775 H 0.25795 0.77449 0.84308 0.0
H776 H 0.28965 0.74098 0.73969 0.0
H777 H 0.31624 0.87643 0.8014 0.0
H778 H 0.27881 0.68944 0.76187 0.0
H779 H 0.33703 0.7927 0.72255 0.0
H780 H 0.31549 0.84228 0.7985 0.0
H781 H 0.34594 0.80737 0.69486 0.0
H782 H 0.2621 0.70887 0.82401 0.0
H783 H 0.32342 0.89284 0.77456 0.0
H784 H 0.33237 0.89129 0.74151 0.0
H785 H 0.25748 0.74005 0.84202 0.0
H786 H 0.34037 0.87265 0.7126 0.0
N787 N 0.32196 0.83847 0.76961 0.0
C788 C 0.31868 0.84884 0.78639 0.0
C789 C 0.32308 0.87762 0.773 0.0
C790 C 0.32698 0.86718 0.7561 0.0
C791 C 0.31903 0.86841 0.78822 0.0
C792 C 0.32632 0.84735 0.75477 0.0
H793 H 0.3454 0.84145 0.69509 0.0
N794 N 0.33049 0.81788 0.7376 0.0
C795 C 0.34159 0.81576 0.70694 0.0
C796 C 0.33076 0.8368 0.73838 0.0
C797 C 0.33645 0.80747 0.72254 0.0
C798 C 0.34127 0.835 0.70714 0.0
C799 C 0.33606 0.84585 0.72306 0.0
O800 O 0.34744 0.79807 0.76254 0.0
O801 O 0.31181 0.77597 0.77348 0.0
O802 O 0.29967 0.78325 0.80144 0.0
O803 O 0.31753 0.81057 0.79535 0.0
O804 O 0.32654 0.77582 0.75089 0.0
O805 O 0.34488 0.82265 0.78329 0.0
O806 O 0.25711 0.78509 0.77552 0.0
O807 O 0.2926 0.80661 0.76497 0.0
O808 O 0.30518 0.79966 0.73718 0.0
O809 O 0.28687 0.77236 0.74279 0.0
O810 O 0.27868 0.80697 0.78831 0.0
O811 O 0.25925 0.75989 0.7555 0.0
C812 C 0.3198 0.765 0.76242 0.0
C813 C 0.37325 0.82151 0.77286 0.0
C814 C 0.40447 0.82855 0.78333 0.0
C815 C 0.38684 0.82254 0.7868 0.0
C816 C 0.40838 0.83371 0.76576 0.0
C817 C 0.37727 0.82681 0.75541 0.0
C818 C 0.39481 0.83288 0.7519 0.0
C819 C 0.31192 0.79904 0.807 0.0
C820 C 0.35542 0.81215 0.77594 0.0
C821 C 0.33637 0.86547 0.72424 0.0
C822 C 0.33183 0.8761 0.74071 0.0
C823 C 0.28502 0.81763 0.77646 0.0
C824 C 0.23106 0.76154 0.76648 0.0
C825 C 0.21708 0.75915 0.75251 0.0
C826 C 0.19953 0.75393 0.7568 0.0
C827 C 0.1962 0.75089 0.77526 0.0
C828 C 0.22746 0.75801 0.78465 0.0
C829 C 0.21011 0.75274 0.789 0.0
C830 C 0.29356 0.78361 0.7313 0.0
C831 C 0.24884 0.77066 0.76264 0.0
H832 H 0.38371 0.81814 0.80017 0.0
H833 H 0.42193 0.83795 0.7626 0.0
H834 H 0.36697 0.8258 0.74436 0.0
H835 H 0.39791 0.83659 0.7383 0.0
H836 H 0.21991 0.76197 0.73849 0.0
H837 H 0.18286 0.74757 0.77927 0.0
H838 H 0.23793 0.75992 0.79566 0.0
H839 H 0.20743 0.75056 0.80321 0.0
Eu840 Eu 0.55642 0.04032 0.04238 0.0
C841 C 0.50806 0.0521 0.97384 0.0
C842 C 0.49344 0.02029 0.95685 0.0
C843 C 0.48111 0.04772 0.95308 0.0
C844 C 0.50735 0.03247 0.96953 0.0
C845 C 0.49493 0.05987 0.96555 0.0
C846 C 0.48051 0.02805 0.94856 0.0
C847 C 0.51132 0.09158 0.98011 0.0
N848 N 0.52194 0.06376 0.9853 0.0
C849 C 0.52419 0.08334 0.98752 0.0
C850 C 0.4965 0.07977 0.96923 0.0
Eu851 Eu 0.54499 0.04906 0.99375 0.0
N852 N 0.52033 0.02531 0.97728 0.0
C853 C 0.51904 0.00581 0.97424 0.0
C854 C 0.49307 1.00067 0.95255 0.0
C855 C 0.50556 0.99332 0.96175 0.0
H856 H 0.53606 0.09279 0.99504 0.0
H857 H 0.50494 0.97801 0.95906 0.0
H858 H 0.47008 0.01898 0.93843 0.0
H859 H 0.51308 0.10705 0.9824 0.0
H860 H 0.52809 0.99937 0.98136 0.0
H861 H 0.60033 0.10535 0.08526 0.0
H862 H 0.48316 0.99105 0.94221 0.0
H863 H 0.55984 0.9945 0.04249 0.0
H864 H 0.57245 0.08602 0.06943 0.0
H865 H 0.58241 0.97685 0.04976 0.0
H866 H 0.47107 0.05347 0.94645 0.0
H867 H 0.62602 0.09076 0.08853 0.0
H868 H 0.6382 0.06124 0.0846 0.0
H869 H 0.4867 0.08622 0.96311 0.0
H870 H 0.63332 0.02619 0.07511 0.0
N871 N 0.58209 0.06038 0.06123 0.0
C872 C 0.58344 0.07921 0.06965 0.0
C873 C 0.61377 0.0821 0.08099 0.0
C874 C 0.61196 0.06251 0.07396 0.0
C875 C 0.59933 0.09038 0.07914 0.0
C876 C 0.59576 0.05184 0.06405 0.0
H877 H 0.61256 0.99465 0.06248 0.0
N878 N 0.57734 0.02208 0.0494 0.0
C879 C 0.58578 0.99238 0.05185 0.0
C880 C 0.59324 0.03213 0.05816 0.0
C881 C 0.57308 1.00246 0.04759 0.0
C882 C 0.60275 1.00248 0.05902 0.0
C883 C 0.60655 0.02258 0.06274 0.0
O884 O 0.53913 0.01778 0.05288 0.0
O885 O 0.5374 0.03263 0.01625 0.0
O886 O 0.53566 0.06951 0.01652 0.0
O887 O 0.55619 0.0712 0.04146 0.0
O888 O 0.52741 0.03994 0.04229 0.0
O889 O 0.54883 0.04604 0.07131 0.0
O890 O 0.55902 0.07488 0.98496 0.0
O891 O 0.56403 0.05599 0.01945 0.0
O892 O 0.5625 0.01724 0.0198 0.0
O893 O 0.55396 0.02171 0.98906 0.0
O894 O 0.57429 0.05066 0.99328 0.0
O895 O 0.54936 0.0476 0.96397 0.0
C896 C 0.52381 0.0342 0.02427 0.0
C897 C 0.5375 0.01929 0.08568 0.0
C898 C 0.52201 0.01482 0.11329 0.0
C899 C 0.52618 0.02493 0.09872 0.0
C900 C 0.52954 0.99916 0.11516 0.0
C901 C 0.54494 1.00348 0.08728 0.0
C902 C 0.541 0.99351 0.10211 0.0
C903 C 0.54302 0.07708 0.03385 0.0
C904 C 0.53899 0.02867 0.06934 0.0
C905 C 0.62291 0.03328 0.07173 0.0
C906 C 0.62566 0.05322 0.0772 0.0
C907 C 0.57769 0.05494 0.01142 0.0
C908 C 0.56411 0.07542 0.95229 0.0
C909 C 0.57235 0.06554 0.93841 0.0
C910 C 0.579 0.07433 0.92373 0.0
C911 C 0.57713 0.09304 0.92275 0.0
C912 C 0.56243 0.0942 0.95162 0.0
C913 C 0.56887 0.10294 0.93674 0.0
C914 C 0.56053 0.01246 1.00105 0.0
C915 C 0.5572 0.06588 0.96727 0.0
H916 H 0.52021 0.03697 0.09725 0.0
H917 H 0.5263 0.99116 0.12642 0.0
H918 H 0.55338 0.9986 0.07698 0.0
H919 H 0.54659 0.98122 0.10329 0.0
H920 H 0.57379 0.05107 0.93913 0.0
H921 H 0.58243 0.10008 0.91148 0.0
H922 H 0.556 0.10193 0.96242 0.0
H923 H 0.56755 0.11742 0.93613 0.0
Eu924 Eu 0.31008 0.31092 0.27898 0.0
C925 C 0.24682 0.24928 0.24334 0.0
C926 C 0.23031 0.24208 0.26995 0.0
C927 C 0.21526 0.23489 0.23824 0.0
C928 C 0.24649 0.24888 0.26264 0.0
C929 C 0.23119 0.24177 0.23094 0.0
C930 C 0.21479 0.23523 0.2577 0.0
C931 C 0.24825 0.24615 0.20443 0.0
N932 N 0.26246 0.25569 0.23645 0.0
C933 C 0.26334 0.25333 0.21709 0.0
C934 C 0.23207 0.2405 0.21138 0.0
Eu935 Eu 0.28808 0.26174 0.25844 0.0
N936 N 0.26188 0.25447 0.27417 0.0
C937 C 0.26162 0.25391 0.29316 0.0
C938 C 0.23015 0.24193 0.28936 0.0
C939 C 0.24586 0.248 0.30098 0.0
H940 H 0.27582 0.25624 0.21106 0.0
H941 H 0.24591 0.24812 0.31604 0.0
H942 H 0.20238 0.22976 0.2631 0.0
H943 H 0.24923 0.24444 0.18926 0.0
H944 H 0.27323 0.25848 0.30284 0.0
H945 H 0.34997 0.32426 0.21992 0.0
H946 H 0.21799 0.23703 0.29549 0.0
H947 H 0.32334 0.31692 0.32589 0.0
H948 H 0.3241 0.31048 0.23383 0.0
H949 H 0.35016 0.32973 0.34724 0.0
H950 H 0.20325 0.22899 0.22888 0.0
H951 H 0.37789 0.33914 0.24018 0.0
H952 H 0.39433 0.3474 0.27222 0.0
H953 H 0.22042 0.23454 0.20147 0.0
H954 H 0.39452 0.34809 0.30654 0.0
N955 N 0.33575 0.31802 0.26249 0.0
C956 C 0.33557 0.31714 0.24327 0.0
C957 C 0.36626 0.33295 0.24651 0.0
C958 C 0.36676 0.3331 0.26601 0.0
C959 C 0.35062 0.32468 0.23508 0.0
C960 C 0.35116 0.32526 0.27373 0.0
H961 H 0.37835 0.34126 0.33442 0.0
N962 N 0.33616 0.31786 0.30029 0.0
C963 C 0.35083 0.32807 0.33202 0.0
C964 C 0.35138 0.32514 0.29308 0.0
C965 C 0.33564 0.32015 0.31965 0.0
C966 C 0.36666 0.33467 0.32474 0.0
C967 C 0.36705 0.33357 0.30514 0.0
O968 O 0.30348 0.32915 0.30391 0.0
O969 O 0.28553 0.28822 0.27755 0.0
O970 O 0.28878 0.28124 0.23648 0.0
O971 O 0.29905 0.31374 0.2501 0.0
O972 O 0.28266 0.31485 0.27231 0.0
O973 O 0.31773 0.3419 0.28216 0.0
O974 O 0.29443 0.24367 0.23335 0.0
O975 O 0.31265 0.28444 0.25984 0.0
O976 O 0.30916 0.29148 0.30131 0.0
O977 O 0.29874 0.25904 0.28742 0.0
O978 O 0.31573 0.25795 0.26469 0.0
O979 O 0.28027 0.23067 0.2551 0.0
C980 C 0.2745 0.29777 0.27366 0.0
C981 C 0.30472 0.36206 0.30374 0.0
C982 C 0.29001 0.38596 0.29518 0.0
C983 C 0.29485 0.36839 0.29028 0.0
C984 C 0.29488 0.39714 0.31343 0.0
C985 C 0.30949 0.37315 0.32204 0.0
C986 C 0.30458 0.39068 0.32686 0.0
C987 C 0.29175 0.29973 0.23573 0.0
C988 C 0.31156 0.34488 0.29873 0.0
C989 C 0.38247 0.34146 0.29745 0.0
C990 C 0.38234 0.34115 0.27793 0.0
C991 C 0.32393 0.27505 0.2634 0.0
C992 C 0.29084 0.2101 0.23121 0.0
C993 C 0.30164 0.20264 0.24262 0.0
C994 C 0.30583 0.18512 0.23557 0.0
C995 C 0.29922 0.17499 0.21727 0.0
C996 C 0.28414 0.20004 0.21289 0.0
C997 C 0.28832 0.18247 0.20595 0.0
C998 C 0.30568 0.27288 0.30209 0.0
C999 C 0.28581 0.22799 0.23816 0.0
H1000 H 0.29118 0.35991 0.27607 0.0
H1001 H 0.29111 0.4108 0.31724 0.0
H1002 H 0.31729 0.36839 0.33248 0.0
H1003 H 0.30836 0.39929 0.34095 0.0
H1004 H 0.30681 0.21042 0.2568 0.0
H1005 H 0.30242 0.16131 0.21186 0.0
H1006 H 0.27559 0.20574 0.20403 0.0
H1007 H 0.28309 0.17465 0.19186 0.0
Eu1008 Eu 0.54711 0.56051 0.0281 0.0
C1009 C 0.56449 0.49746 0.96937 0.0
C1010 C 0.53707 0.48714 0.94908 0.0
C1011 C 0.56435 0.48235 0.93629 0.0
C1012 C 0.5465 0.49602 0.96683 0.0
C1013 C 0.57356 0.49029 0.95421 0.0
C1014 C 0.54612 0.48072 0.93375 0.0
C1015 C 0.59979 0.49726 0.97605 0.0
N1016 N 0.57296 0.50472 0.98694 0.0
C1017 C 0.59018 0.5039 0.99067 0.0
C1018 C 0.5915 0.49064 0.95767 0.0
Eu1019 Eu 0.55598 0.51584 0.01113 0.0
N1020 N 0.53806 0.50221 0.98195 0.0
C1021 C 0.52001 0.49906 0.98035 0.0
C1022 C 0.51872 0.48435 0.9474 0.0
C1023 C 0.51016 0.49037 0.96307 0.0
H1024 H 0.59657 0.50873 0.00496 0.0
H1025 H 0.49594 0.48822 0.96192 0.0
H1026 H 0.53908 0.47406 0.91999 0.0
H1027 H 0.61353 0.49709 0.97901 0.0
H1028 H 0.51291 0.50352 0.99212 0.0
H1029 H 0.60711 0.58779 0.07764 0.0
H1030 H 0.51106 0.47701 0.93424 0.0
H1031 H 0.50664 0.56789 0.03428 0.0
H1032 H 0.59029 0.57367 0.04715 0.0
H1033 H 0.48973 0.5797 0.06017 0.0
H1034 H 0.57111 0.47689 0.92445 0.0
H1035 H 0.59188 0.59712 0.1059 0.0
H1036 H 0.56377 0.60105 0.11971 0.0
H1037 H 0.59891 0.48528 0.94639 0.0
H1038 H 0.53186 0.59891 0.11499 0.0
N1039 N 0.56502 0.57416 0.05739 0.0
C1040 C 0.5831 0.57762 0.05901 0.0
C1041 C 0.58424 0.59078 0.09239 0.0
C1042 C 0.5659 0.58832 0.09053 0.0
C1043 C 0.59288 0.58562 0.07648 0.0
C1044 C 0.55653 0.57993 0.07262 0.0
H1045 H 0.50423 0.59118 0.09287 0.0
N1046 N 0.53019 0.57165 0.05236 0.0
C1047 C 0.50342 0.57935 0.06318 0.0
C1048 C 0.53858 0.57866 0.07 0.0
C1049 C 0.51301 0.57263 0.04859 0.0
C1050 C 0.51164 0.58578 0.08161 0.0
C1051 C 0.5295 0.58583 0.08516 0.0
O1052 O 0.53424 0.57955 0.01495 0.0
O1053 O 0.54725 0.54058 0.99965 0.0
O1054 O 0.5799 0.5363 0.00332 0.0
O1055 O 0.57444 0.56537 0.01755 0.0
O1056 O 0.52427 0.54955 0.00544 0.0
O1057 O 0.5619 0.58896 0.02512 0.0
O1058 O 0.56886 0.49693 0.02456 0.0
O1059 O 0.55556 0.53578 0.03922 0.0
O1060 O 0.52312 0.54014 0.0355 0.0
O1061 O 0.52866 0.51082 0.02194 0.0
O1062 O 0.5787 0.52679 0.03423 0.0
O1063 O 0.54139 0.48713 0.01381 0.0
C1064 C 0.53194 0.54125 0.99197 0.0
C1065 C 0.54607 0.61272 0.02049 0.0
C1066 C 0.54846 0.64269 0.00917 0.0
C1067 C 0.55277 0.62478 0.0081 0.0
C1068 C 0.5377 0.64869 0.02302 0.0
C1069 C 0.53558 0.61885 0.03453 0.0
C1070 C 0.53146 0.63687 0.03579 0.0
C1071 C 0.58467 0.55519 0.00846 0.0
C1072 C 0.54839 0.59305 0.01659 0.0
C1073 C 0.53863 0.59344 0.10317 0.0
C1074 C 0.5568 0.59466 0.10586 0.0
C1075 C 0.57077 0.53546 0.0472 0.0
C1076 C 0.55744 0.46352 0.01883 0.0
C1077 C 0.54915 0.45052 0.0297 0.0
C1078 C 0.55286 0.43218 0.02811 0.0
C1079 C 0.565 0.42705 0.01545 0.0
C1080 C 0.56935 0.45813 0.00613 0.0
C1081 C 0.57312 0.43995 0.0045 0.0
C1082 C 0.51843 0.52124 0.03072 0.0
C1083 C 0.55484 0.48319 0.02265 0.0
H1084 H 0.56062 0.61984 0.99702 0.0
H1085 H 0.53418 0.66251 0.02395 0.0
H1086 H 0.53026 0.6096 0.04413 0.0
H1087 H 0.52317 0.64153 0.04644 0.0
H1088 H 0.54003 0.45483 0.03962 0.0
H1089 H 0.56851 0.41321 0.01431 0.0
H1090 H 0.576 0.46804 0.9978 0.0
H1091 H 0.58258 0.43594 0.99495 0.0
Eu1092 Eu 0.82254 0.30434 0.26504 0.0
C1093 C 0.7726 0.2459 0.30054 0.0
C1094 C 0.77404 0.21469 0.28265 0.0
C1095 C 0.76495 0.21739 0.31467 0.0
C1096 C 0.77623 0.23477 0.28407 0.0
C1097 C 0.76662 0.23724 0.31587 0.0
C1098 C 0.76862 0.20614 0.2981 0.0
C1099 C 0.76253 0.2681 0.3317 0.0
N1100 N 0.77371 0.26495 0.30109 0.0
C1101 C 0.76816 0.27596 0.31602 0.0
C1102 C 0.76189 0.24869 0.33169 0.0
Eu1103 Eu 0.78272 0.27698 0.27383 0.0
N1104 N 0.78129 0.24337 0.26924 0.0
C1105 C 0.78414 0.23256 0.25251 0.0
C1106 C 0.77717 0.20371 0.26566 0.0
C1107 C 0.78226 0.21271 0.25055 0.0
H1108 H 0.76846 0.29094 0.31595 0.0
H1109 H 0.78481 0.20438 0.23738 0.0
H1110 H 0.76697 0.19078 0.29727 0.0
H1111 H 0.75854 0.27698 0.34369 0.0
H1112 H 0.78801 0.23887 0.24045 0.0
H1113 H 0.83012 0.37808 0.30483 0.0
H1114 H 0.77565 0.18828 0.26404 0.0
H1115 H 0.83561 0.29157 0.2218 0.0
H1116 H 0.82844 0.34363 0.30118 0.0
H1117 H 0.84146 0.3055 0.19296 0.0
H1118 H 0.76045 0.2105 0.32634 0.0
H1119 H 0.83022 0.39333 0.27652 0.0
H1120 H 0.83212 0.39033 0.24147 0.0
H1121 H 0.75729 0.24256 0.34376 0.0
H1122 H 0.8354 0.37064 0.21094 0.0
N1123 N 0.82607 0.33839 0.2708 0.0
C1124 C 0.82769 0.3496 0.28852 0.0
C1125 C 0.82917 0.37796 0.27476 0.0
C1126 C 0.82898 0.36674 0.25679 0.0
C1127 C 0.82911 0.36942 0.29075 0.0
C1128 C 0.82765 0.34676 0.25526 0.0
H1129 H 0.83946 0.33916 0.19287 0.0
N1130 N 0.82975 0.31688 0.23741 0.0
C1131 C 0.83801 0.3141 0.20549 0.0
C1132 C 0.82968 0.33571 0.23807 0.0
C1133 C 0.83474 0.30627 0.22179 0.0
C1134 C 0.83682 0.33308 0.20548 0.0
C1135 C 0.83298 0.34427 0.22202 0.0
O1136 O 0.84755 0.29671 0.26051 0.0
O1137 O 0.81203 0.27549 0.27435 0.0
O1138 O 0.79961 0.28278 0.30122 0.0
O1139 O 0.81629 0.31076 0.29516 0.0
O1140 O 0.82685 0.2747 0.2519 0.0
O1141 O 0.846 0.31863 0.28474 0.0
O1142 O 0.75651 0.28267 0.27595 0.0
O1143 O 0.79339 0.30597 0.26534 0.0
O1144 O 0.80475 0.29944 0.23829 0.0
O1145 O 0.78867 0.271 0.24355 0.0
O1146 O 0.77757 0.30656 0.2868 0.0
O1147 O 0.76087 0.26092 0.25296 0.0
C1148 C 0.81998 0.26419 0.26362 0.0
C1149 C 0.87367 0.31904 0.27213 0.0
C1150 C 0.90491 0.32645 0.28235 0.0
C1151 C 0.88737 0.32032 0.28599 0.0
C1152 C 0.90859 0.33162 0.2647 0.0
C1153 C 0.87743 0.32452 0.25468 0.0
C1154 C 0.89488 0.3308 0.25102 0.0
C1155 C 0.80979 0.29981 0.30702 0.0
C1156 C 0.85607 0.30901 0.2751 0.0
C1157 C 0.8331 0.36385 0.22319 0.0
C1158 C 0.83113 0.37506 0.24056 0.0
C1159 C 0.78565 0.31748 0.27606 0.0
C1160 C 0.73221 0.25793 0.2633 0.0
C1161 C 0.71743 0.2617 0.25411 0.0
C1162 C 0.70045 0.25199 0.2567 0.0
C1163 C 0.69843 0.23846 0.26879 0.0
C1164 C 0.7301 0.24435 0.27522 0.0
C1165 C 0.71323 0.23468 0.27799 0.0
C1166 C 0.79424 0.2827 0.23209 0.0
C1167 C 0.74944 0.26959 0.26124 0.0
H1168 H 0.88435 0.31595 0.2994 0.0
H1169 H 0.92206 0.33588 0.26131 0.0
H1170 H 0.86699 0.32334 0.24369 0.0
H1171 H 0.8978 0.33458 0.2374 0.0
H1172 H 0.71919 0.27259 0.24527 0.0
H1173 H 0.68546 0.23063 0.27093 0.0
H1174 H 0.74133 0.24133 0.28251 0.0
H1175 H 0.71163 0.22427 0.28729 0.0
Eu1176 Eu 0.05719 0.5379 0.54498 0.0
C1177 C 1.00431 0.54949 0.4793 0.0
C1178 C 0.98706 0.51891 0.46207 0.0
C1179 C 0.97479 0.54722 0.4645 0.0
C1180 C 1.00277 0.53006 0.47274 0.0
C1181 C 0.9906 0.55839 0.47438 0.0
C1182 C 0.97294 0.52748 0.45858 0.0
C1183 C 0.01009 0.58915 0.48615 0.0
N1184 N 0.01986 0.56008 0.48853 0.0
C1185 C 0.02323 0.57975 0.49067 0.0
C1186 C 0.99357 0.5784 0.47828 0.0
Eu1187 Eu 0.04208 0.54305 0.49508 0.0
N1188 N 0.01693 0.52228 0.47565 0.0
C1189 C 0.01639 0.50373 0.46691 0.0
C1190 C 0.98621 0.49964 0.45446 0.0
C1191 C 1.00105 0.49211 0.45665 0.0
H1192 H 0.03625 0.58843 0.49558 0.0
H1193 H 1.00079 0.47737 0.45024 0.0
H1194 H 0.96082 0.51911 0.45053 0.0
H1195 H 0.01288 0.60468 0.48832 0.0
H1196 H 0.02757 0.49741 0.46774 0.0
H1197 H 0.09726 0.60304 0.59184 0.0
H1198 H 0.9744 0.49066 0.44627 0.0
H1199 H 0.0616 0.49262 0.54611 0.0
H1200 H 0.07078 0.58306 0.57347 0.0
H1201 H 0.08431 0.47581 0.55465 0.0
H1202 H 0.96416 0.55383 0.4607 0.0
H1203 H 0.12369 0.58985 0.59604 0.0
H1204 H 0.13717 0.56122 0.59221 0.0
H1205 H 0.98353 0.58565 0.47421 0.0
H1206 H 0.13354 0.52632 0.58243 0.0
N1207 N 0.08183 0.55858 0.56528 0.0
C1208 C 0.0821 0.57694 0.57435 0.0
C1209 C 0.11204 0.58094 0.58752 0.0
C1210 C 0.11124 0.56166 0.57995 0.0
C1211 C 0.0972 0.58845 0.58513 0.0
C1212 C 0.0957 0.55062 0.56895 0.0
H1213 H 0.1138 0.49436 0.56888 0.0
N1214 N 0.07834 0.52061 0.55372 0.0
C1215 C 0.08733 0.49135 0.55683 0.0
C1216 C 0.09378 0.53102 0.56327 0.0
C1217 C 0.07454 0.501 0.55181 0.0
C1218 C 0.10391 0.50186 0.56485 0.0
C1219 C 0.10718 0.52193 0.56864 0.0
O1220 O 0.03978 0.51358 0.553 0.0
O1221 O 0.0357 0.53309 0.52175 0.0
O1222 O 0.04055 0.56875 0.51766 0.0
O1223 O 0.06229 0.56891 0.54118 0.0
O1224 O 0.03064 0.54521 0.54889 0.0
O1225 O 0.04688 0.5416 0.5725 0.0
O1226 O 0.05781 0.56695 0.48506 0.0
O1227 O 0.06353 0.54749 0.51806 0.0
O1228 O 0.06137 0.51342 0.52275 0.0
O1229 O 0.03989 0.5122 0.49844 0.0
O1230 O 0.06975 0.53882 0.49082 0.0
O1231 O 0.05061 0.53819 0.4667 0.0
C1232 C 0.02427 0.53868 0.53153 0.0
C1233 C 0.03613 0.51417 0.5857 0.0
C1234 C 0.022 0.51216 0.61462 0.0
C1235 C 0.0265 0.52165 0.59969 0.0
C1236 C 0.02796 0.49539 0.61606 0.0
C1237 C 0.04186 0.49723 0.58683 0.0
C1238 C 0.03794 0.488 0.60217 0.0
C1239 C 0.05077 0.57711 0.53343 0.0
C1240 C 0.03804 0.52369 0.56946 0.0
C1241 C 0.12305 0.53304 0.57843 0.0
C1242 C 0.12511 0.5529 0.584 0.0
C1243 C 0.07575 0.54381 0.50845 0.0
C1244 C 0.05997 0.56505 0.45216 0.0
C1245 C 0.07069 0.55856 0.43891 0.0
C1246 C 0.07532 0.56852 0.42446 0.0
C1247 C 0.06867 0.58474 0.42261 0.0
C1248 C 0.05302 0.58116 0.45049 0.0
C1249 C 0.05726 0.59088 0.43552 0.0
C1250 C 0.05239 0.50527 0.5062 0.0
C1251 C 0.05896 0.55622 0.46875 0.0
H1252 H 0.02202 0.53471 0.59861 0.0
H1253 H 0.0245 0.48777 0.62753 0.0
H1254 H 0.049 0.49096 0.57586 0.0
H1255 H 0.04227 0.47489 0.60307 0.0
H1256 H 0.0764 0.54636 0.44052 0.0
H1257 H 0.07244 0.59265 0.41141 0.0
H1258 H 0.04485 0.58652 0.46092 0.0
H1259 H 0.05215 0.60345 0.43426 0.0
Eu1260 Eu 0.77935 0.7933 0.27223 0.0
C1261 C 0.83981 0.77013 0.30556 0.0
C1262 C 0.85095 0.79758 0.33097 0.0
C1263 C 0.85329 0.76574 0.33551 0.0
C1264 C 0.84272 0.78975 0.31239 0.0
C1265 C 0.84558 0.75805 0.31691 0.0
C1266 C 0.85591 0.78544 0.34254 0.0
C1267 C 0.83766 0.73189 0.29004 0.0
N1268 N 0.83235 0.76295 0.2875 0.0
C1269 C 0.83231 0.7444 0.2793 0.0
C1270 C 0.84403 0.73865 0.30904 0.0
Eu1271 Eu 0.8234 0.78515 0.27025 0.0
N1272 N 0.83788 0.80125 0.30086 0.0
C1273 C 0.84158 0.8208 0.30707 0.0
C1274 C 0.85405 0.81741 0.33745 0.0
C1275 C 0.84946 0.82906 0.32539 0.0
H1276 H 0.82795 0.73912 0.2644 0.0
H1277 H 0.85196 0.84448 0.33018 0.0
H1278 H 0.8621 0.79122 0.35684 0.0
H1279 H 0.83707 0.71709 0.28357 0.0
H1280 H 0.83838 0.83046 0.2984 0.0
H1281 H 0.74954 0.73389 0.21295 0.0
H1282 H 0.86017 0.82389 0.35165 0.0
H1283 H 0.77487 0.83935 0.27791 0.0
H1284 H 0.76309 0.74793 0.24464 0.0
H1285 H 0.76635 0.86149 0.25849 0.0
H1286 H 0.85763 0.75663 0.34444 0.0
H1287 H 0.74246 0.75456 0.19092 0.0
H1288 H 0.74174 0.78736 0.18518 0.0
H1289 H 0.84833 0.72897 0.31731 0.0
H1290 H 0.74666 0.82204 0.19737 0.0
N1291 N 0.76477 0.77722 0.24167 0.0
C1292 C 0.76048 0.75764 0.23573 0.0
C1293 C 0.74865 0.76104 0.20508 0.0
C1294 C 0.75231 0.78094 0.2113 0.0
C1295 C 0.7526 0.74936 0.21744 0.0
C1296 C 0.76044 0.78877 0.22992 0.0
H1297 H 0.75573 0.84971 0.22456 0.0
N1298 N 0.77075 0.81555 0.25481 0.0
C1299 C 0.76577 0.84668 0.25206 0.0
C1300 C 0.76358 0.80842 0.23665 0.0
C1301 C 0.77077 0.83411 0.26295 0.0
C1302 C 0.75977 0.83997 0.23294 0.0
C1303 C 0.75818 0.82056 0.22512 0.0
O1304 O 0.76608 0.80881 0.29418 0.0
O1305 O 0.80573 0.79881 0.28941 0.0
O1306 O 0.80335 0.75502 0.26981 0.0
O1307 O 0.77587 0.7619 0.27472 0.0
O1308 O 0.78399 0.78404 0.29999 0.0
O1309 O 0.7518 0.78204 0.27711 0.0
O1310 O 0.83685 0.76958 0.2485 0.0
O1311 O 0.79695 0.77937 0.25311 0.0
O1312 O 0.79949 0.8234 0.27313 0.0
O1313 O 0.8269 0.81659 0.26755 0.0
O1314 O 0.81855 0.79408 0.24232 0.0
O1315 O 0.85082 0.79664 0.26527 0.0
C1316 C 0.8004 0.7919 0.30376 0.0
C1317 C 0.73438 0.80181 0.29413 0.0
C1318 C 0.70692 0.80104 0.3102 0.0
C1319 C 0.72266 0.79435 0.30703 0.0
C1320 C 0.70316 0.81496 0.30014 0.0
C1321 C 0.72988 0.81542 0.28419 0.0
C1322 C 0.71443 0.82194 0.28721 0.0
C1323 C 0.78626 0.7495 0.27292 0.0
C1324 C 0.75138 0.79571 0.29138 0.0
C1325 C 0.7507 0.81288 0.20643 0.0
C1326 C 0.74783 0.79313 0.19952 0.0
C1327 C 0.80217 0.78605 0.23861 0.0
C1328 C 0.86858 0.77676 0.24928 0.0
C1329 C 0.88022 0.78311 0.2358 0.0
C1330 C 0.89621 0.77667 0.23363 0.0
C1331 C 0.90028 0.76416 0.24535 0.0
C1332 C 0.87342 0.76458 0.26081 0.0
C1333 C 0.88908 0.75829 0.25879 0.0
C1334 C 0.81647 0.82896 0.26966 0.0
C1335 C 0.85148 0.78279 0.25127 0.0
H1336 H 0.72594 0.78377 0.31479 0.0
H1337 H 0.69132 0.82042 0.30222 0.0
H1338 H 0.73832 0.82109 0.2741 0.0
H1339 H 0.71119 0.83258 0.27952 0.0
H1340 H 0.87669 0.79264 0.22686 0.0
H1341 H 0.91236 0.75901 0.24426 0.0
H1342 H 0.86512 0.75992 0.27144 0.0
H1343 H 0.89259 0.74878 0.26773 0.0
Eu1344 Eu 0.81026 0.28406 0.75022 0.0
C1345 C 0.78495 0.33908 0.81357 0.0
C1346 C 0.81096 0.35483 0.83509 0.0
C1347 C 0.78435 0.36716 0.83756 0.0
C1348 C 0.80222 0.3399 0.82017 0.0
C1349 C 0.77595 0.35295 0.82212 0.0
C1350 C 0.80167 0.36781 0.84426 0.0
C1351 C 0.74983 0.33595 0.80188 0.0
N1352 N 0.77661 0.32418 0.79967 0.0
C1353 C 0.75897 0.32211 0.79452 0.0
C1354 C 0.75836 0.35149 0.81574 0.0
Eu1355 Eu 0.79084 0.29784 0.79402 0.0
N1356 N 0.81038 0.326 0.81227 0.0
C1357 C 0.82807 0.32803 0.8169 0.0
C1358 C 0.82872 0.35617 0.84059 0.0
C1359 C 0.83745 0.34304 0.83101 0.0
H1360 H 0.75131 0.3091 0.78583 0.0
H1361 H 0.85139 0.34435 0.83459 0.0
H1362 H 0.80774 0.37834 0.85668 0.0
H1363 H 0.73593 0.33403 0.79759 0.0
H1364 H 0.83545 0.31873 0.80943 0.0
H1365 H 0.74953 0.23577 0.71276 0.0
H1366 H 0.8359 0.36755 0.85184 0.0
H1367 H 0.8505 0.27393 0.75857 0.0
H1368 H 0.7658 0.26252 0.7365 0.0
H1369 H 0.86587 0.24866 0.74756 0.0
H1370 H 0.77744 0.37747 0.8447 0.0
H1371 H 0.76478 0.21148 0.69676 0.0
H1372 H 0.79173 0.19821 0.69484 0.0
H1373 H 0.75104 0.3618 0.82202 0.0
H1374 H 0.82287 0.20105 0.70529 0.0
N1375 N 0.7909 0.25531 0.73328 0.0
C1376 C 0.77306 0.25285 0.72936 0.0
C1377 C 0.77207 0.22346 0.70731 0.0
C1378 C 0.78987 0.22498 0.71263 0.0
C1379 C 0.7635 0.23717 0.71614 0.0
C1380 C 0.79908 0.24122 0.7259 0.0
H1381 H 0.85029 0.21937 0.72525 0.0
N1382 N 0.82512 0.25826 0.74513 0.0
C1383 C 0.85191 0.24655 0.74343 0.0
C1384 C 0.81659 0.24265 0.7321 0.0
C1385 C 0.84284 0.26066 0.75015 0.0
C1386 C 0.84312 0.23014 0.73072 0.0
C1387 C 0.82535 0.22811 0.72471 0.0
O1388 O 0.83637 0.29758 0.74337 0.0
O1389 O 0.81072 0.30698 0.77517 0.0
O1390 O 0.77281 0.29994 0.76744 0.0
O1391 O 0.7856 0.29284 0.73901 0.0
O1392 O 0.80973 0.31473 0.74844 0.0
O1393 O 0.81569 0.28244 0.72076 0.0
O1394 O 0.76434 0.28385 0.79958 0.0
O1395 O 0.79043 0.27469 0.76926 0.0
O1396 O 0.82854 0.28263 0.77667 0.0
O1397 O 0.8153 0.28851 0.80506 0.0
O1398 O 0.79144 0.26729 0.796 0.0
O1399 O 0.78421 0.29913 0.82296 0.0
C1400 C 0.80986 0.32036 0.7665 0.0
C1401 C 0.84088 0.30211 0.71185 0.0
C1402 C 0.84084 0.32336 0.68948 0.0
C1403 C 0.83254 0.3142 0.70322 0.0
C1404 C 0.85729 0.32036 0.68423 0.0
C1405 C 0.85734 0.29913 0.70667 0.0
C1406 C 0.86551 0.30823 0.69283 0.0
C1407 C 0.77263 0.29813 0.74852 0.0
C1408 C 0.83223 0.29119 0.72518 0.0
C1409 C 0.81629 0.21222 0.7112 0.0
C1410 C 0.7986 0.21066 0.70517 0.0
C1411 C 0.79122 0.26122 0.77798 0.0
C1412 C 0.75899 0.27896 0.8309 0.0
C1413 C 0.76817 0.26904 0.84147 0.0
C1414 C 0.76036 0.26139 0.85627 0.0
C1415 C 0.74328 0.26315 0.86025 0.0
C1416 C 0.74182 0.28057 0.83466 0.0
C1417 C 0.73396 0.2726 0.84931 0.0
C1418 C 0.8284 0.2837 0.79545 0.0
C1419 C 0.76784 0.29008 0.81787 0.0
H1420 H 0.81973 0.31639 0.70707 0.0
H1421 H 0.86367 0.32732 0.67341 0.0
H1422 H 0.86371 0.28951 0.71312 0.0
H1423 H 0.87813 0.30578 0.6887 0.0
H1424 H 0.78151 0.26786 0.83869 0.0
H1425 H 0.73718 0.25713 0.87173 0.0
H1426 H 0.73475 0.28852 0.82666 0.0
H1427 H 0.72079 0.27401 0.85238 0.0
Eu1428 Eu 0.80906 0.81001 0.77792 0.0
C1429 C 0.74641 0.74536 0.74172 0.0
C1430 C 0.73079 0.73468 0.76762 0.0
C1431 C 0.7159 0.72708 0.73582 0.0
C1432 C 0.74618 0.74441 0.76087 0.0
C1433 C 0.73122 0.73648 0.729 0.0
C1434 C 0.71572 0.72608 0.75506 0.0
C1435 C 0.74797 0.74397 0.70304 0.0
N1436 N 0.76171 0.75367 0.73527 0.0
C1437 C 0.76275 0.75202 0.71597 0.0
C1438 C 0.73207 0.73631 0.70958 0.0
Eu1439 Eu 0.78729 0.76082 0.75763 0.0
N1440 N 0.76106 0.7523 0.77281 0.0
C1441 C 0.76062 0.75259 0.79189 0.0
C1442 C 0.7311 0.73334 0.78677 0.0
C1443 C 0.74578 0.74301 0.79913 0.0
H1444 H 0.77519 0.756 0.71015 0.0
H1445 H 0.74586 0.74274 0.81417 0.0
H1446 H 0.70388 0.71849 0.76008 0.0
H1447 H 0.74906 0.74297 0.68793 0.0
H1448 H 0.77153 0.76006 0.80183 0.0
H1449 H 0.85084 0.81718 0.71875 0.0
H1450 H 0.72011 0.72471 0.79205 0.0
H1451 H 0.82176 0.8183 0.82529 0.0
H1452 H 0.8243 0.8049 0.73313 0.0
H1453 H 0.84792 0.83449 0.84688 0.0
H1454 H 0.70425 0.72009 0.72623 0.0
H1455 H 0.87765 0.83567 0.73895 0.0
H1456 H 0.89288 0.84908 0.77144 0.0
H1457 H 0.72075 0.72951 0.69944 0.0
H1458 H 0.89226 0.85317 0.80607 0.0
N1459 N 0.83503 0.81692 0.76177 0.0
C1460 C 0.83544 0.81339 0.74242 0.0
C1461 C 0.86584 0.83042 0.74549 0.0
C1462 C 0.86568 0.83342 0.76524 0.0
C1463 C 0.85073 0.82007 0.73406 0.0
C1464 C 0.84997 0.82616 0.77311 0.0
H1465 H 0.8758 0.84748 0.83416 0.0
N1466 N 0.83477 0.82008 0.79988 0.0
C1467 C 0.84877 0.8324 0.83167 0.0
C1468 C 0.84982 0.82782 0.79266 0.0
C1469 C 0.83399 0.82278 0.81921 0.0
C1470 C 0.86442 0.83983 0.82444 0.0
C1471 C 0.8651 0.83768 0.80478 0.0
O1472 O 0.80163 0.82842 0.80225 0.0
O1473 O 0.78484 0.78689 0.77678 0.0
O1474 O 0.78696 0.78069 0.73591 0.0
O1475 O 0.79951 0.81281 0.74886 0.0
O1476 O 0.78111 0.81283 0.77145 0.0
O1477 O 0.81311 0.84063 0.77821 0.0
O1478 O 0.79455 0.74363 0.73249 0.0
O1479 O 0.81202 0.78327 0.75929 0.0
O1480 O 0.80965 0.79138 0.80071 0.0
O1481 O 0.7973 0.75895 0.78754 0.0
O1482 O 0.8145 0.75685 0.76517 0.0
O1483 O 0.78022 0.72979 0.75366 0.0
C1484 C 0.77331 0.79579 0.7731 0.0
C1485 C 0.80589 0.86263 0.80394 0.0
C1486 C 0.79366 0.89045 0.80255 0.0
C1487 C 0.7945 0.87155 0.79505 0.0
C1488 C 0.80412 0.90017 0.81939 0.0
C1489 C 0.81622 0.87219 0.82074 0.0
C1490 C 0.81529 0.89097 0.82847 0.0
C1491 C 0.79122 0.79913 0.73482 0.0
C1492 C 0.8075 0.84366 0.79507 0.0
C1493 C 0.88049 0.84546 0.79697 0.0
C1494 C 0.88082 0.84322 0.77726 0.0
C1495 C 0.82301 0.77375 0.76363 0.0
C1496 C 0.79235 0.7103 0.73056 0.0
C1497 C 0.80234 0.70314 0.74308 0.0
C1498 C 0.80585 0.68506 0.73747 0.0
C1499 C 0.79986 0.6743 0.71923 0.0
C1500 C 0.78647 0.69979 0.71221 0.0
C1501 C 0.79031 0.6818 0.70653 0.0
C1502 C 0.80522 0.77292 0.80183 0.0
C1503 C 0.78627 0.72762 0.73694 0.0
H1504 H 0.78632 0.86369 0.78226 0.0
H1505 H 0.80391 0.91491 0.82531 0.0
H1506 H 0.82517 0.86527 0.82763 0.0
H1507 H 0.82341 0.8985 0.84136 0.0
H1508 H 0.80675 0.71123 0.75734 0.0
H1509 H 0.80262 0.6602 0.71488 0.0
H1510 H 0.77855 0.70529 0.70251 0.0
H1511 H 0.78564 0.67357 0.69245 0.0
Eu1512 Eu 0.53195 0.53087 0.51098 0.0
C1513 C 0.58847 0.59585 0.55178 0.0
C1514 C 0.59763 0.61393 0.52712 0.0
C1515 C 0.6001 0.63054 0.5598 0.0
C1516 C 0.59048 0.59624 0.53267 0.0
C1517 C 0.59393 0.61298 0.56553 0.0
C1518 C 0.60187 0.63102 0.54064 0.0
C1519 C 0.58954 0.59411 0.59012 0.0
N1520 N 0.58282 0.57868 0.5572 0.0
C1521 C 0.58438 0.57759 0.57614 0.0
C1522 C 0.594 0.61195 0.58481 0.0
Eu1523 Eu 0.57526 0.55102 0.53242 0.0
N1524 N 0.58687 0.57939 0.51979 0.0
C1525 C 0.59134 0.57954 0.50151 0.0
C1526 C 0.6012 0.61397 0.50829 0.0
C1527 C 0.59836 0.59668 0.49556 0.0
H1528 H 0.58144 0.5639 0.58073 0.0
H1529 H 0.60146 0.5965 0.481 0.0
H1530 H 0.60724 0.64462 0.53652 0.0
H1531 H 0.59026 0.59303 0.605 0.0
H1532 H 0.5895 0.56687 0.49083 0.0
H1533 H 0.51661 0.48212 0.56132 0.0
H1534 H 0.6067 0.62723 0.50357 0.0
H1535 H 0.52297 0.52222 0.4638 0.0
H1536 H 0.52859 0.51247 0.55147 0.0
H1537 H 0.50957 0.49502 0.43781 0.0
H1538 H 0.60417 0.64376 0.57017 0.0
H1539 H 0.50352 0.45314 0.53721 0.0
H1540 H 0.49492 0.43817 0.50294 0.0
H1541 H 0.59823 0.62475 0.5957 0.0
H1542 H 0.49323 0.44159 0.4694 0.0
N1543 N 0.52266 0.50136 0.52176 0.0
C1544 C 0.52281 0.50023 0.54063 0.0
C1545 C 0.50882 0.46657 0.53272 0.0
C1546 C 0.50826 0.46783 0.51346 0.0
C1547 C 0.51613 0.48287 0.54636 0.0
C1548 C 0.51541 0.48566 0.50835 0.0
H1549 H 0.4987 0.46264 0.44501 0.0
N1550 N 0.5211 0.50504 0.48517 0.0
C1551 C 0.51112 0.49265 0.45224 0.0
C1552 C 0.51465 0.48754 0.48949 0.0
C1553 C 0.5189 0.50794 0.46693 0.0
C1554 C 0.50497 0.47441 0.45637 0.0
C1555 C 0.50647 0.47171 0.4752 0.0
O1556 O 0.51425 0.54671 0.49942 0.0
O1557 O 0.55125 0.55925 0.52103 0.0
O1558 O 0.55646 0.55332 0.55714 0.0
O1559 O 0.52818 0.54294 0.54216 0.0
O1560 O 0.54097 0.55285 0.49274 0.0
O1561 O 0.50494 0.52849 0.51908 0.0
O1562 O 0.58978 0.54176 0.55466 0.0
O1563 O 0.55327 0.52491 0.52979 0.0
O1564 O 0.55012 0.5237 0.48668 0.0
O1565 O 0.57812 0.53989 0.50052 0.0
O1566 O 0.57702 0.52014 0.52176 0.0
O1567 O 0.60381 0.55456 0.53235 0.0
C1568 C 0.55034 0.56611 0.50586 0.0
C1569 C 0.48367 0.53594 0.49859 0.0
C1570 C 0.45461 0.54286 0.49649 0.0
C1571 C 0.47132 0.54587 0.50616 0.0
C1572 C 0.45036 0.52997 0.47904 0.0
C1573 C 0.47933 0.52298 0.48124 0.0
C1574 C 0.46273 0.5201 0.47145 0.0
C1575 C 0.53898 0.55026 0.55786 0.0
C1576 C 0.5012 0.54037 0.50869 0.0
C1577 C 0.49957 0.45389 0.48018 0.0
C1578 C 0.5005 0.45194 0.49927 0.0
C1579 C 0.56143 0.51162 0.52453 0.0
C1580 C 0.62132 0.54514 0.55641 0.0
C1581 C 0.63251 0.536 0.54539 0.0
C1582 C 0.64878 0.53475 0.5537 0.0
C1583 C 0.65387 0.54272 0.57295 0.0
C1584 C 0.6263 0.55285 0.5757 0.0
C1585 C 0.64261 0.55169 0.58392 0.0
C1586 C 0.56742 0.52986 0.48533 0.0
C1587 C 0.60472 0.54722 0.54768 0.0
H1588 H 0.47469 0.5559 0.5196 0.0
H1589 H 0.43755 0.5277 0.47123 0.0
H1590 H 0.48869 0.51523 0.47521 0.0
H1591 H 0.45946 0.51025 0.45796 0.0
H1592 H 0.62865 0.52998 0.53045 0.0
H1593 H 0.6665 0.54186 0.57948 0.0
H1594 H 0.61772 0.56003 0.58427 0.0
H1595 H 0.64654 0.55781 0.59877 0.0
Eu1596 Eu 0.07248 0.53992 0.01524 0.0
C1597 C 0.0067 0.50435 0.04941 0.0
C1598 C 0.99385 0.47811 0.02338 0.0
C1599 C 0.98921 0.47459 0.05594 0.0
C1600 C 1.00406 0.49684 0.0301 0.0
C1601 C 0.99894 0.49347 0.06251 0.0
C1602 C 0.98671 0.46691 0.03642 0.0
C1603 C 0.00972 0.52128 0.08744 0.0
N1604 N 0.01623 0.52259 0.05535 0.0
C1605 C 0.01716 0.5315 0.07391 0.0
C1606 C 1.0008 0.50208 0.08176 0.0
Eu1607 Eu 0.02842 0.53859 0.03148 0.0
N1608 N 0.01112 0.50799 0.01784 0.0
C1609 C 0.00788 0.50172 0.99866 0.0
C1610 C 0.99101 0.47128 0.00375 0.0
C1611 C 0.99791 0.48321 0.99135 0.0
H1612 H 0.02408 0.54636 0.07823 0.0
H1613 H 0.99557 0.4781 0.9762 0.0
H1614 H 0.97898 0.45242 0.03153 0.0
H1615 H 0.01087 0.52819 0.10222 0.0
H1616 H 0.01326 0.51082 0.98898 0.0
H1617 H 0.11261 0.6012 0.06687 0.0
H1618 H 0.98333 0.45693 0.99802 0.0
H1619 H 0.0752 0.52964 0.9676 0.0
H1620 H 0.09171 0.57108 0.0573 0.0
H1621 H 0.08796 0.54566 0.9424 0.0
H1622 H 0.98329 0.46592 0.0658 0.0
H1623 H 0.12614 0.61858 0.04297 0.0
H1624 H 0.12928 0.62047 0.00904 0.0
H1625 H 0.99503 0.49419 0.09227 0.0
H1626 H 0.12157 0.60629 0.97537 0.0
N1627 N 0.09164 0.57066 0.02718 0.0
C1628 C 0.09676 0.57806 0.0461 0.0
C1629 C 0.11626 0.60545 0.03836 0.0
C1630 C 0.11138 0.59796 0.0191 0.0
C1631 C 0.10884 0.59553 0.05189 0.0
C1632 C 0.09884 0.58032 0.01376 0.0
H1633 H 0.10614 0.5787 0.95048 0.0
N1634 N 0.08394 0.55428 0.98969 0.0
C1635 C 0.08976 0.55337 0.95694 0.0
C1636 C 0.09479 0.57201 0.99461 0.0
C1637 C 0.0823 0.54449 0.97128 0.0
C1638 C 0.1 0.57199 0.96157 0.0
C1639 C 0.1031 0.58131 0.98058 0.0
O1640 O 0.08283 0.51684 0.99942 0.0
O1641 O 0.04491 0.52112 0.014 0.0
O1642 O 0.04437 0.52855 0.05325 0.0
O1643 O 0.0718 0.54378 0.04634 0.0
O1644 O 0.06595 0.51042 0.02266 0.0
O1645 O 0.09826 0.53493 0.02463 0.0
O1646 O 0.01603 0.56187 0.0433 0.0
O1647 O 0.05329 0.55826 0.02579 0.0
O1648 O 0.05452 0.53905 0.98949 0.0
O1649 O 0.02951 0.54585 0.00281 0.0
O1650 O 0.04344 0.56515 0.05185 0.0
O1651 O 1.00262 0.54099 0.01915 0.0
C1652 C 0.04921 0.50635 0.01867 0.0
C1653 C 0.11342 0.51691 0.00234 0.0
C1654 C 0.13938 0.50259 0.00203 0.0
C1655 C 0.12465 0.50711 0.011 0.0
C1656 C 0.1423 0.50752 0.98414 0.0
C1657 C 0.11702 0.52197 0.98473 0.0
C1658 C 0.13128 0.51719 0.97566 0.0
C1659 C 0.06156 0.53429 0.057 0.0
C1660 C 0.0972 0.52016 0.01092 0.0
C1661 C 0.11503 0.59909 0.98594 0.0
C1662 C 0.11932 0.60725 0.00513 0.0
C1663 C 0.05508 0.57115 0.04077 0.0
C1664 C 0.98519 0.55816 0.03887 0.0
C1665 C 0.97519 0.57028 0.03215 0.0
C1666 C 0.9601 0.57376 0.04096 0.0
C1667 C 0.95507 0.56472 0.05629 0.0
C1668 C 0.97971 0.54915 0.054 0.0
C1669 C 0.96475 0.55245 0.06265 0.0
C1670 C 0.03954 0.54454 0.98875 0.0
C1671 C 1.0021 0.55648 0.03118 0.0
H1672 H 0.12194 0.50308 0.0246 0.0
H1673 H 0.15312 0.50376 0.97657 0.0
H1674 H 0.10867 0.52927 0.97772 0.0
H1675 H 0.13372 0.52088 0.9619 0.0
H1676 H 0.97946 0.57746 0.02058 0.0
H1677 H 0.9435 0.56703 0.06329 0.0
H1678 H 0.98713 0.53979 0.05932 0.0
H1679 H 0.96071 0.54558 0.07446 0.0
H1680 H 0.99257 0.20718 0.94924 0.0
H1681 H 0.99844 0.17931 0.96138 0.0
H1682 H 0.05388 0.20631 0.97092 0.0
H1683 H 0.04802 0.23339 0.95711 0.0
H1684 H 0.0541 0.17277 0.96286 0.0
H1685 H 0.0198 0.20078 0.00825 0.0
H1686 H 0.99489 0.21325 0.02129 0.0
H1687 H 0.95993 0.15838 1.00051 0.0
H1688 H 0.98458 0.14566 0.98715 0.0
H1689 H 0.06535 0.10403 0.0256 0.0
H1690 H 0.06167 0.13477 0.0175 0.0
H1691 H 0.01723 0.10465 0.97776 0.0
H1692 H 0.02209 0.07422 0.98396 0.0
H1693 H 0.01343 0.1411 0.0045 0.0
H1694 H 0.0498 0.1149 0.95839 0.0
H1695 H 0.07625 0.10308 0.94955 0.0
H1696 H 0.10927 0.15724 0.97675 0.0
H1697 H 0.08298 0.16924 0.98622 0.0
C1698 C 0.00607 0.20697 0.95356 0.0
C1699 C 0.01983 0.22244 0.95179 0.0
C1700 C 0.00944 0.1911 0.96098 0.0
C1701 C 0.02664 0.1905 0.96788 0.0
C1702 C 0.04045 0.20597 0.96585 0.0
C1703 C 0.03711 0.22157 0.95782 0.0
C1704 C 0.03027 0.17374 0.9767 0.0
C1705 C 0.04525 0.16629 0.97227 0.0
C1706 C 0.01895 0.16459 0.98902 0.0
C1707 C 1.004 0.17236 0.9965 0.0
C1708 C 0.00676 0.19145 0.00629 0.0
C1709 C 0.9927 0.19854 0.01377 0.0
C1710 C 0.97583 0.18663 0.01167 0.0
C1711 C 0.97299 0.1676 0.00209 0.0
C1712 C 0.987 0.16044 0.99456 0.0
C1713 C 0.05517 0.10381 0.01478 0.0
C1714 C 0.04476 0.08616 0.00485 0.0
C1715 C 0.05283 0.12154 0.01035 0.0
C1716 C 0.03927 0.12216 0.99671 0.0
C1717 C 0.02793 0.10474 0.98811 0.0
C1718 C 0.0308 0.08716 0.99181 0.0
C1719 C 0.03703 0.14054 0.99057 0.0
C1720 C 0.02229 0.14805 0.99537 0.0
C1721 C 0.04873 0.15002 0.97901 0.0
C1722 C 0.06446 0.14286 0.97323 0.0
C1723 C 0.06271 0.12421 0.96268 0.0
C1724 C 0.07766 0.11751 0.95747 0.0
C1725 C 0.09443 0.12941 0.96253 0.0
C1726 C 0.09627 0.14804 0.97284 0.0
C1727 C 0.08135 0.15479 0.97815 0.0
H1728 H 0.106 0.12417 0.95851 0.0
H1729 H 0.96497 0.19214 0.01752 0.0
H1730 H 0.1551 0.82019 0.1193 0.0
H1731 H 0.17943 0.81745 0.14061 0.0
H1732 H 0.14467 0.81064 0.18485 0.0
H1733 H 0.12 0.8138 0.16342 0.0
H1734 H 0.17543 0.83169 0.20083 0.0
H1735 H 0.16059 0.77166 0.1567 0.0
H1736 H 0.15503 0.75026 0.12527 0.0
H1737 H 0.20746 0.77348 0.11239 0.0
H1738 H 0.21326 0.79522 0.14362 0.0
H1739 H 0.24 0.80374 0.25951 0.0
H1740 H 0.21404 0.80666 0.24061 0.0
H1741 H 0.24292 0.80495 0.19095 0.0
H1742 H 0.26854 0.80083 0.20971 0.0
H1743 H 0.21364 0.78721 0.1784 0.0
H1744 H 0.22868 0.84814 0.22155 0.0
H1745 H 0.23433 0.87071 0.25229 0.0
H1746 H 0.18234 0.84756 0.26645 0.0
H1747 H 0.17649 0.82461 0.23595 0.0
C1748 C 0.15243 0.81819 0.13357 0.0
C1749 C 0.13522 0.81723 0.13935 0.0
C1750 C 0.16655 0.81641 0.14585 0.0
C1751 C 0.16421 0.81332 0.16451 0.0
C1752 C 0.14714 0.81285 0.17059 0.0
C1753 C 0.1329 0.81469 0.15824 0.0
C1754 C 0.17954 0.81072 0.17742 0.0
C1755 C 0.18361 0.82173 0.19595 0.0
C1756 C 0.19083 0.79815 0.17128 0.0
C1757 C 0.1873 0.78518 0.15245 0.0
C1758 C 0.17089 0.77231 0.14711 0.0
C1759 C 0.1677 0.7601 0.12933 0.0
C1760 C 0.18087 0.76053 0.11683 0.0
C1761 C 0.19727 0.77317 0.12208 0.0
C1762 C 0.20051 0.78543 0.13982 0.0
C1763 C 0.24101 0.80422 0.24465 0.0
C1764 C 0.25679 0.80229 0.23646 0.0
C1765 C 0.22595 0.80604 0.23366 0.0
C1766 C 0.22612 0.8066 0.21404 0.0
C1767 C 0.24195 0.80465 0.2059 0.0
C1768 C 0.25685 0.80239 0.21679 0.0
C1769 C 0.20992 0.80852 0.20184 0.0
C1770 C 0.2056 0.79728 0.18339 0.0
C1771 C 0.19854 0.82104 0.20801 0.0
C1772 C 0.20223 0.8345 0.22655 0.0
C1773 C 0.21852 0.84773 0.2313 0.0
C1774 C 0.22175 0.86061 0.24868 0.0
C1775 C 0.20873 0.86053 0.26134 0.0
C1776 C 0.19244 0.84756 0.25666 0.0
C1777 C 0.18917 0.83461 0.23934 0.0
H1778 H 0.21123 0.87056 0.27475 0.0
H1779 H 0.17838 0.75105 0.10309 0.0
H1780 H 0.54837 0.83435 0.43638 0.0
H1781 H 0.55242 0.86752 0.4536 0.0
H1782 H 0.50682 0.8506 0.48334 0.0
H1783 H 0.50319 0.81707 0.46665 0.0
H1784 H 0.50615 0.88291 0.4658 0.0
H1785 H 0.54354 0.86389 0.5091 0.0
H1786 H 0.56728 0.85036 0.52171 0.0
H1787 H 0.60589 0.89095 0.5002 0.0
H1788 H 0.58234 0.90455 0.48718 0.0
H1789 H 0.52983 0.98237 0.52535 0.0
H1790 H 0.52411 0.94692 0.51967 0.0
H1791 H 0.55392 0.94742 0.47087 0.0
H1792 H 0.55757 0.98201 0.47485 0.0
H1793 H 0.5605 0.92256 0.5039 0.0
H1794 H 0.52085 0.93621 0.45517 0.0
H1795 H 0.49654 0.9498 0.44406 0.0
H1796 H 0.4616 0.91814 0.47759 0.0
H1797 H 0.48595 0.9049 0.48943 0.0
C1798 C 0.53923 0.83766 0.44665 0.0
C1799 C 0.52532 0.82309 0.44997 0.0
C1800 C 0.54167 0.85664 0.45664 0.0
C1801 C 0.53 0.8617 0.4699 0.0
C1802 C 0.51609 0.84713 0.47329 0.0
C1803 C 0.51398 0.82797 0.46371 0.0
C1804 C 0.53156 0.88241 0.47885 0.0
C1805 C 0.51792 0.89141 0.47448 0.0
C1806 C 0.54694 0.89379 0.49006 0.0
C1807 C 0.56112 0.88504 0.49691 0.0
C1808 C 0.55706 0.86971 0.50675 0.0
C1809 C 0.5705 0.86209 0.51406 0.0
C1810 C 0.58808 0.86973 0.51169 0.0
C1811 C 0.59226 0.885 0.50197 0.0
C1812 C 0.57886 0.89267 0.49463 0.0
C1813 C 0.53439 0.97488 0.51293 0.0
C1814 C 0.54323 0.98521 0.49999 0.0
C1815 C 0.53152 0.9546 0.50994 0.0
C1816 C 0.53844 0.94441 0.49466 0.0
C1817 C 0.54822 0.95483 0.48257 0.0
C1818 C 0.55021 0.97475 0.4849 0.0
C1819 C 0.53524 0.92291 0.4905 0.0
C1820 C 0.54863 0.91386 0.49558 0.0
C1821 C 0.51965 0.91141 0.47997 0.0
C1822 C 0.50529 0.91997 0.47353 0.0
C1823 C 0.5081 0.93252 0.46053 0.0
C1824 C 0.49428 0.94003 0.45398 0.0
C1825 C 0.47753 0.93483 0.46011 0.0
C1826 C 0.47459 0.92217 0.47287 0.0
C1827 C 0.48841 0.91474 0.47958 0.0
H1828 H 0.46683 0.94065 0.455 0.0
H1829 H 0.59847 0.86386 0.51743 0.0
H1830 H 0.51794 0.29803 0.61153 0.0
H1831 H 0.49015 0.29423 0.62654 0.0
H1832 H 0.51948 0.31317 0.68177 0.0
H1833 H 0.54705 0.31557 0.66683 0.0
H1834 H 0.49577 0.28693 0.68584 0.0
H1835 H 0.49252 0.34025 0.65427 0.0
H1836 H 0.49141 0.35682 0.62704 0.0
H1837 H 0.44525 0.31458 0.6013 0.0
H1838 H 0.44627 0.29759 0.62821 0.0
H1839 H 0.42898 0.30356 0.74362 0.0
H1840 H 0.45355 0.30975 0.72406 0.0
H1841 H 0.41916 0.28056 0.67387 0.0
H1842 H 0.39432 0.2747 0.69361 0.0
H1843 H 0.44351 0.31 0.66518 0.0
H1844 H 0.44652 0.25755 0.69683 0.0
H1845 H 0.44721 0.24102 0.72411 0.0
H1846 H 0.49409 0.28224 0.74961 0.0
H1847 H 0.4935 0.29921 0.72263 0.0
C1848 C 0.51843 0.30132 0.62689 0.0
C1849 C 0.53484 0.30695 0.63793 0.0
C1850 C 0.50242 0.29937 0.63554 0.0
C1851 C 0.50231 0.30365 0.65552 0.0
C1852 C 0.51882 0.30957 0.66642 0.0
C1853 C 0.53473 0.311 0.65782 0.0
C1854 C 0.48536 0.30127 0.66535 0.0
C1855 C 0.48457 0.2924 0.68138 0.0
C1856 C 0.47006 0.30746 0.6594 0.0
C1857 C 0.46961 0.31754 0.64314 0.0
C1858 C 0.48224 0.33441 0.64272 0.0
C1859 C 0.48161 0.34388 0.62735 0.0
C1860 C 0.4683 0.33672 0.61242 0.0
C1861 C 0.45558 0.32008 0.61284 0.0
C1862 C 0.45619 0.31052 0.62814 0.0
C1863 C 0.4265 0.29898 0.72835 0.0
C1864 C 0.40957 0.28885 0.72023 0.0
C1865 C 0.44067 0.3023 0.71712 0.0
C1866 C 0.43853 0.29526 0.69738 0.0
C1867 C 0.42135 0.28612 0.68902 0.0
C1868 C 0.40706 0.28289 0.70032 0.0
C1869 C 0.45442 0.29642 0.68595 0.0
C1870 C 0.45488 0.30479 0.66961 0.0
C1871 C 0.46952 0.28987 0.69159 0.0
C1872 C 0.46987 0.27973 0.70782 0.0
C1873 C 0.45689 0.26317 0.70833 0.0
C1874 C 0.45727 0.25371 0.72373 0.0
C1875 C 0.47067 0.26059 0.7386 0.0
C1876 C 0.48371 0.27694 0.7381 0.0
C1877 C 0.48336 0.28648 0.72276 0.0
H1878 H 0.47095 0.25324 0.7505 0.0
H1879 H 0.46781 0.3441 0.60056 0.0
H1880 H 0.98692 0.79794 0.61555 0.0
H1881 H 0.99459 0.82286 0.59649 0.0
H1882 H 0.04534 0.84316 0.62934 0.0
H1883 H 0.03698 0.81899 0.64928 0.0
H1884 H 0.03274 0.87144 0.62543 0.0
H1885 H 0.03823 0.81577 0.581 0.0
H1886 H 0.02842 0.78294 0.56221 0.0
H1887 H 0.98576 0.79977 0.53389 0.0
H1888 H 0.9952 0.83266 0.55266 0.0
H1889 H 0.07487 0.92691 0.56111 0.0
H1890 H 0.06514 0.90404 0.58195 0.0
H1891 H 0.01214 0.89217 0.55479 0.0
H1892 H 0.02187 0.91542 0.53413 0.0
H1893 H 0.02511 0.85944 0.55499 0.0
H1894 H 0.01506 0.91045 0.6065 0.0
H1895 H 0.02138 0.94014 0.63081 0.0
H1896 H 0.07248 0.9305 0.64607 0.0
H1897 H 0.06603 0.90024 0.6224 0.0
C1898 C 0.99956 0.80804 0.61881 0.0
C1899 C 0.01126 0.80715 0.634 0.0
C1900 C 1.00408 0.82196 0.60772 0.0
C1901 C 0.02069 0.8346 0.61121 0.0
C1902 C 0.03244 0.83353 0.62641 0.0
C1903 C 0.02767 0.81996 0.63789 0.0
C1904 C 0.02535 0.84987 0.59997 0.0
C1905 C 0.03144 0.86867 0.61 0.0
C1906 C 0.02296 0.84638 0.57984 0.0
C1907 C 0.01737 0.82666 0.56834 0.0
C1908 C 0.02671 0.81245 0.57083 0.0
C1909 C 0.02122 0.79383 0.56017 0.0
C1910 C 0.00646 0.78927 0.54688 0.0
C1911 C 0.99719 0.80333 0.54419 0.0
C1912 C 1.00263 0.82197 0.55481 0.0
C1913 C 0.0611 0.91963 0.55989 0.0
C1914 C 0.04908 0.92269 0.54608 0.0
C1915 C 0.05553 0.90672 0.57183 0.0
C1916 C 0.03792 0.89652 0.56993 0.0
C1917 C 0.02577 0.90001 0.5565 0.0
C1918 C 0.03129 0.91322 0.54477 0.0
C1919 C 0.03275 0.88086 0.5806 0.0
C1920 C 0.02655 0.86202 0.57041 0.0
C1921 C 0.0352 0.88413 0.60059 0.0
C1922 C 0.04027 0.90349 0.61242 0.0
C1923 C 0.02777 0.91492 0.61478 0.0
C1924 C 0.03126 0.93166 0.62864 0.0
C1925 C 0.0474 0.93733 0.63984 0.0
C1926 C 0.06004 0.92619 0.63729 0.0
C1927 C 0.05643 0.90918 0.62376 0.0
H1928 H 0.05008 0.95033 0.65054 0.0
H1929 H 1.00222 0.77484 0.53866 0.0
H1930 H 0.53726 0.79493 0.8748 0.0
H1931 H 0.50877 0.79388 0.85782 0.0
H1932 H 0.52787 0.85206 0.84943 0.0
H1933 H 0.55611 0.85324 0.86702 0.0
H1934 H 0.49792 0.84858 0.8646 0.0
H1935 H 0.51953 0.81262 0.81157 0.0
H1936 H 0.53194 0.78664 0.79435 0.0
H1937 H 0.48852 0.74447 0.80647 0.0
H1938 H 0.47594 0.7702 0.82391 0.0
H1939 H 0.43354 0.85691 0.79579 0.0
H1940 H 0.45914 0.85527 0.81613 0.0
H1941 H 0.43325 0.7985 0.82343 0.0
H1942 H 0.40768 0.79992 0.80268 0.0
H1943 H 0.46501 0.79916 0.8109 0.0
H1944 H 0.44296 0.83561 0.86286 0.0
H1945 H 0.43085 0.86185 0.88007 0.0
H1946 H 0.4754 0.90343 0.86925 0.0
H1947 H 0.48774 0.87743 0.85196 0.0
C1948 C 0.53532 0.8073 0.86899 0.0
C1949 C 0.54852 0.82416 0.87203 0.0
C1950 C 0.5192 0.80666 0.85923 0.0
C1951 C 0.51632 0.82283 0.85226 0.0
C1952 C 0.5299 0.83944 0.8547 0.0
C1953 C 0.54593 0.84013 0.86465 0.0
C1954 C 0.49863 0.82319 0.84423 0.0
C1955 C 0.49082 0.83794 0.85266 0.0
C1956 C 0.48913 0.8088 0.82925 0.0
C1957 C 0.49692 0.79331 0.81923 0.0
C1958 C 0.51275 0.79779 0.81075 0.0
C1959 C 0.51977 0.78312 0.80089 0.0
C1960 C 0.51106 0.76391 0.79937 0.0
C1961 C 0.49528 0.75934 0.80769 0.0
C1962 C 0.48819 0.77396 0.81754 0.0
C1963 C 0.43326 0.8442 0.80195 0.0
C1964 C 0.41881 0.82849 0.79757 0.0
C1965 C 0.44775 0.84337 0.81374 0.0
C1966 C 0.44797 0.82683 0.82139 0.0
C1967 C 0.43322 0.81142 0.81773 0.0
C1968 C 0.41866 0.81227 0.80595 0.0
C1969 C 0.46448 0.82481 0.83099 0.0
C1970 C 0.47207 0.80971 0.82293 0.0
C1971 C 0.47385 0.83893 0.84624 0.0
C1972 C 0.46617 0.85461 0.856 0.0
C1973 C 0.45007 0.85037 0.864 0.0
C1974 C 0.44321 0.86519 0.87383 0.0
C1975 C 0.45233 0.8843 0.87571 0.0
C1976 C 0.46834 0.88863 0.86778 0.0
C1977 C 0.47529 0.87386 0.858 0.0
H1978 H 0.44701 0.89575 0.88335 0.0
H1979 H 0.51651 0.75258 0.79171 0.0
H1980 H 0.50232 0.20395 0.1541 0.0
H1981 H 0.50258 0.17031 0.1424 0.0
H1982 H 0.4765 0.17316 0.08859 0.0
H1983 H 0.47612 0.20666 0.10026 0.0
H1984 H 0.4701 0.13718 0.09386 0.0
H1985 H 0.5193 0.19055 0.09776 0.0
H1986 H 0.5444 0.21778 0.10991 0.0
H1987 H 0.56732 0.18226 0.14155 0.0
H1988 H 0.5423 0.15528 0.13026 0.0
H1989 H 0.52246 0.10061 0.02393 0.0
H1990 H 0.50646 0.11954 0.04517 0.0
H1991 H 0.52667 0.09859 0.0928 0.0
H1992 H 0.54245 0.07956 0.07177 0.0
H1993 H 0.53422 0.13923 0.09394 0.0
H1994 H 0.48529 0.08383 0.08113 0.0
H1995 H 0.46543 0.05802 0.05802 0.0
H1996 H 0.44596 0.10013 0.03262 0.0
H1997 H 0.46588 0.1262 0.05542 0.0
C1998 C 0.49575 0.19704 0.14019 0.0
C1999 C 0.48957 0.20777 0.12781 0.0
C2000 C 0.49596 0.1779 0.13352 0.0
C2001 C 0.48998 0.16961 0.11454 0.0
C2002 C 0.48127 0.17945 0.10326 0.0
C2003 C 0.48114 0.19857 0.10987 0.0
C2004 C 0.49632 0.1531 0.10509 0.0
C2005 C 0.48409 0.13745 0.09411 0.0
C2006 C 0.51465 0.15388 0.10498 0.0
C2007 C 0.5286 0.17102 0.11362 0.0
C2008 C 0.52945 0.18877 0.1078 0.0
C2009 C 0.54378 0.20418 0.11446 0.0
C2010 C 0.55749 0.2019 0.12667 0.0
C2011 C 0.55676 0.18426 0.13234 0.0
C2012 C 0.54243 0.16893 0.12592 0.0
C2013 C 0.52341 0.09998 0.03886 0.0
C2014 C 0.53405 0.0891 0.04631 0.0
C2015 C 0.51413 0.11054 0.05088 0.0
C2016 C 0.51534 0.11002 0.07031 0.0
C2017 C 0.5256 0.09887 0.07773 0.0
C2018 C 0.53488 0.08838 0.06576 0.0
C2019 C 0.50807 0.12335 0.0833 0.0
C2020 C 0.52019 0.13857 0.09456 0.0
C2021 C 0.48986 0.12258 0.08288 0.0
C2022 C 0.47699 0.10696 0.07006 0.0
C2023 C 0.47671 0.08758 0.07067 0.0
C2024 C 0.46549 0.07291 0.05759 0.0
C2025 C 0.45441 0.07743 0.04389 0.0
C2026 C 0.45449 0.09665 0.04329 0.0
C2027 C 0.4657 0.11138 0.05633 0.0
H2028 H 0.44579 0.06605 0.03372 0.0
H2029 H 0.5687 0.21373 0.13163 0.0
H2030 H 0.12529 0.31491 0.33305 0.0
H2031 H 0.15104 0.31622 0.31491 0.0
H2032 H 0.18243 0.31058 0.36432 0.0
H2033 H 0.15693 0.31027 0.38278 0.0
H2034 H 0.20101 0.33481 0.34438 0.0
H2035 H 0.16201 0.27148 0.33191 0.0
H2036 H 0.13233 0.25069 0.32293 0.0
H2037 H 0.13151 0.26727 0.26824 0.0
H2038 H 0.16107 0.28849 0.27709 0.0
H2039 H 0.26814 0.29476 0.30931 0.0
H2040 H 0.24088 0.29723 0.32374 0.0
H2041 H 0.21635 0.3012 0.26948 0.0
H2042 H 0.24351 0.29748 0.25473 0.0
H2043 H 0.19371 0.28088 0.28932 0.0
H2044 H 0.23573 0.34163 0.30156 0.0
H2045 H 0.26493 0.36269 0.31232 0.0
H2046 H 0.26051 0.35084 0.3686 0.0
H2047 H 0.23139 0.32925 0.35817 0.0
C2048 C 0.13765 0.31372 0.33992 0.0
C2049 C 0.13914 0.31176 0.359 0.0
C2050 C 0.15234 0.31478 0.32969 0.0
C2051 C 0.16842 0.31317 0.33829 0.0
C2052 C 0.17005 0.3118 0.35752 0.0
C2053 C 0.15548 0.31124 0.36789 0.0
C2054 C 0.18299 0.31068 0.32681 0.0
C2055 C 0.1995 0.32305 0.33235 0.0
C2056 C 0.18076 0.29546 0.31103 0.0
C2057 C 0.16366 0.28161 0.30518 0.0
C2058 C 0.1555 0.27063 0.31795 0.0
C2059 C 0.13868 0.25884 0.31292 0.0
C2060 C 0.13002 0.25768 0.29503 0.0
C2061 C 0.13823 0.2682 0.28209 0.0
C2062 C 0.15501 0.2801 0.2871 0.0
C2063 C 0.25665 0.29539 0.30038 0.0
C2064 C 0.25745 0.29548 0.28096 0.0
C2065 C 0.24127 0.29709 0.30864 0.0
C2066 C 0.22693 0.29992 0.29769 0.0
C2067 C 0.22744 0.29916 0.27806 0.0
C2068 C 0.24279 0.29704 0.2697 0.0
C2069 C 0.21185 0.30481 0.30706 0.0
C2070 C 0.19522 0.29287 0.30112 0.0
C2071 C 0.21406 0.32034 0.3226 0.0
C2072 C 0.23138 0.33375 0.32905 0.0
C2073 C 0.24099 0.34344 0.31622 0.0
C2074 C 0.25754 0.35549 0.32226 0.0
C2075 C 0.26457 0.35817 0.34111 0.0
C2076 C 0.25504 0.34878 0.354 0.0
C2077 C 0.2385 0.33663 0.34805 0.0
H2078 H 0.27739 0.36752 0.34573 0.0
H2079 H 0.11696 0.24862 0.29119 0.0
H2080 H 0.93714 0.05502 0.20531 0.0
H2081 H 0.95034 0.05367 0.1747 0.0
H2082 H 1.00042 0.08466 0.20401 0.0
H2083 H 0.98726 0.08604 0.2343 0.0
H2084 H 1.00044 0.09616 0.17225 0.0
H2085 H 0.98827 0.03259 0.18418 0.0
H2086 H 0.97108 1.00202 0.19052 0.0
H2087 H 0.93845 0.99407 0.13827 0.0
H2088 H 0.9553 0.02478 0.13176 0.0
H2089 H 0.05292 0.07262 0.09369 0.0
H2090 H 0.03926 0.0766 0.12376 0.0
H2091 H 0.98918 0.04537 0.09462 0.0
H2092 H 1.00287 0.04108 0.06468 0.0
H2093 H 0.98944 0.03453 0.12647 0.0
H2094 H 1.00341 0.09903 0.11473 0.0
H2095 H 0.02251 0.12879 0.10885 0.0
H2096 H 0.05376 0.13434 0.16157 0.0
H2097 H 0.03499 0.10443 0.16762 0.0
C2098 C 0.95081 0.06214 0.20529 0.0
C2099 C 0.96071 0.07123 0.22287 0.0
C2100 C 0.95865 0.06101 0.18752 0.0
C2101 C 0.97687 0.0688 0.18623 0.0
C2102 C 0.98649 0.07842 0.20376 0.0
C2103 C 0.97875 0.07937 0.22141 0.0
C2104 C 0.986 0.06673 0.16718 0.0
C2105 C 0.99801 0.08251 0.16247 0.0
C2106 C 0.98333 0.04923 0.15356 0.0
C2107 C 0.97286 0.0311 0.15764 0.0
C2108 C 0.97729 0.02443 0.17416 0.0
C2109 C 0.96764 0.00706 0.17776 0.0
C2110 C 0.95363 0.99615 0.16484 0.0
C2111 C 0.94926 1.00258 0.14829 0.0
C2112 C 0.95884 0.01997 0.14465 0.0
C2113 C 0.03895 0.06666 0.09346 0.0
C2114 C 0.02929 0.05658 0.07601 0.0
C2115 C 0.03094 0.06908 0.11101 0.0
C2116 C 0.01269 0.06165 0.11228 0.0
C2117 C 1.00313 0.05148 0.09484 0.0
C2118 C 0.01111 0.04909 0.07733 0.0
C2119 C 1.00364 0.064 0.13135 0.0
C2120 C 0.99174 0.04823 0.13615 0.0
C2121 C 0.00658 0.08147 0.14513 0.0
C2122 C 0.01792 0.09937 0.14151 0.0
C2123 C 0.01445 0.10651 0.12499 0.0
C2124 C 0.0252 0.12342 0.12164 0.0
C2125 C 0.03937 0.13342 0.1348 0.0
C2126 C 0.0428 0.12655 0.15136 0.0
C2127 C 0.03211 0.10962 0.15476 0.0
H2128 H 0.04767 0.14652 0.13218 0.0
H2129 H 0.9462 0.98267 0.16763 0.0
H2130 H 0.31013 0.68646 0.48478 0.0
H2131 H 0.3004 0.70414 0.46181 0.0
H2132 H 0.25359 0.65889 0.44461 0.0
H2133 H 0.26371 0.64085 0.46756 0.0
H2134 H 0.27105 0.66908 0.41554 0.0
H2135 H 0.24769 0.70357 0.46784 0.0
H2136 H 0.24672 0.72135 0.50024 0.0
H2137 H 0.29302 0.76299 0.49378 0.0
H2138 H 0.29423 0.7455 0.46136 0.0
H2139 H 0.24371 0.73624 0.36259 0.0
H2140 H 0.24698 0.71119 0.38079 0.0
H2141 H 0.29785 0.74514 0.40609 0.0
H2142 H 0.29463 0.77009 0.38782 0.0
H2143 H 0.27178 0.73868 0.43106 0.0
H2144 H 0.29842 0.70304 0.38221 0.0
H2145 H 0.30249 0.68436 0.35123 0.0
H2146 H 0.25324 0.64483 0.35233 0.0
H2147 H 0.24887 0.66334 0.38327 0.0
C2148 C 0.29805 0.68011 0.47563 0.0
C2149 C 0.2879 0.66221 0.47713 0.0
C2150 C 0.29224 0.6904 0.46305 0.0
C2151 C 0.27604 0.68298 0.45214 0.0
C2152 C 0.26601 0.66481 0.45327 0.0
C2153 C 0.27196 0.65437 0.46584 0.0
C2154 C 0.27115 0.69329 0.43775 0.0
C2155 C 0.27056 0.68417 0.41882 0.0
C2156 C 0.27125 0.71305 0.44236 0.0
C2157 C 0.27105 0.72318 0.46218 0.0
C2158 C 0.25774 0.71642 0.4734 0.0
C2159 C 0.25711 0.7265 0.49174 0.0
C2160 C 0.2698 0.74329 0.49906 0.0
C2161 C 0.28317 0.75001 0.48808 0.0
C2162 C 0.28379 0.74007 0.4697 0.0
C2163 C 0.25556 0.73816 0.37203 0.0
C2164 C 0.26863 0.75513 0.37466 0.0
C2165 C 0.25758 0.72381 0.38199 0.0
C2166 C 0.27261 0.72654 0.39462 0.0
C2167 C 0.28622 0.74294 0.39625 0.0
C2168 C 0.28427 0.75719 0.38616 0.0
C2169 C 0.27239 0.71458 0.40894 0.0
C2170 C 0.2718 0.72348 0.42777 0.0
C2171 C 0.27146 0.69469 0.40426 0.0
C2172 C 0.27315 0.68478 0.38484 0.0
C2173 C 0.28828 0.69061 0.37563 0.0
C2174 C 0.29071 0.67996 0.35816 0.0
C2175 C 0.27809 0.66348 0.34977 0.0
C2176 C 0.26297 0.65765 0.3588 0.0
C2177 C 0.26051 0.66821 0.37629 0.0
H2178 H 0.28006 0.65518 0.33632 0.0
H2179 H 0.26926 0.75108 0.51324 0.0
H2180 H 0.66803 0.01864 0.68581 0.0
H2181 H 0.65453 0.01599 0.65351 0.0
H2182 H 0.63852 0.06953 0.67068 0.0
H2183 H 0.65191 0.07232 0.70278 0.0
H2184 H 0.61186 0.03176 0.6632 0.0
H2185 H 0.66003 0.07152 0.63968 0.0
H2186 H 0.69128 0.08014 0.63375 0.0
H2187 H 0.68546 0.02649 0.595 0.0
H2188 H 0.65424 0.01729 0.60114 0.0
H2189 H 0.55888 0.04754 0.58874 0.0
H2190 H 0.5809 0.04933 0.61491 0.0
H2191 H 0.59851 1.0016 0.58285 0.0
H2192 H 0.57676 1.00032 0.55636 0.0
H2193 H 0.62546 0.03316 0.59658 0.0
H2194 H 0.57556 0.99493 0.61933 0.0
H2195 H 0.54437 0.98801 0.62598 0.0
H2196 H 0.55363 0.04052 0.66705 0.0
H2197 H 0.58478 0.04801 0.66031 0.0
C2198 C 0.66225 0.03017 0.68239 0.0
C2199 C 0.6603 0.04533 0.69658 0.0
C2200 C 0.65473 0.02872 0.66406 0.0
C2201 C 0.64556 0.04251 0.66019 0.0
C2202 C 0.64566 0.05887 0.67374 0.0
C2203 C 0.65305 0.06029 0.69198 0.0
C2204 C 0.63218 0.03755 0.64434 0.0
C2205 C 0.61473 0.03211 0.6486 0.0
C2206 C 0.63637 0.03768 0.62557 0.0
C2207 C 0.65485 0.0436 0.62105 0.0
C2208 C 0.66544 0.06147 0.63001 0.0
C2209 C 0.68315 0.06647 0.62662 0.0
C2210 C 0.69038 0.05384 0.61406 0.0
C2211 C 0.67986 0.03623 0.60477 0.0
C2212 C 0.66214 0.03111 0.6082 0.0
C2213 C 0.56685 0.03685 0.58784 0.0
C2214 C 0.566 0.02333 0.57125 0.0
C2215 C 0.57955 0.03807 0.60249 0.0
C2216 C 0.59108 0.02548 0.60059 0.0
C2217 C 0.58956 0.01128 0.58436 0.0
C2218 C 0.57699 0.01024 0.56959 0.0
C2219 C 0.60506 0.02768 0.6155 0.0
C2220 C 0.6226 0.0325 0.61112 0.0
C2221 C 0.60099 0.02712 0.63431 0.0
C2222 C 0.58253 0.02202 0.63931 0.0
C2223 C 0.57095 0.005 0.6298 0.0
C2224 C 0.55326 1.00101 0.63353 0.0
C2225 C 0.54703 0.01381 0.64693 0.0
C2226 C 0.55849 0.0306 0.65669 0.0
C2227 C 0.57617 0.03472 0.65293 0.0
H2228 H 0.53331 0.01072 0.64977 0.0
H2229 H 0.70412 0.05771 0.61149 0.0
H2230 H 0.27766 0.37269 0.97196 0.0
H2231 H 0.2763 0.3539 0.93968 0.0
H2232 H 0.32646 0.34083 0.9537 0.0
H2233 H 0.32743 0.35891 0.98625 0.0
H2234 H 0.32392 0.35735 0.91997 0.0
H2235 H 0.29336 0.3056 0.94758 0.0
H2236 H 0.27064 0.28777 0.96443 0.0
H2237 H 0.23018 0.29274 0.92363 0.0
H2238 H 0.25265 0.31082 0.90665 0.0
H2239 H 0.32446 0.29389 0.83086 0.0
H2240 H 0.32486 0.30287 0.86534 0.0
H2241 H 0.27605 0.32094 0.85798 0.0
H2242 H 0.27706 0.31477 0.82412 0.0
H2243 H 0.27866 0.29973 0.88902 0.0
H2244 H 0.30707 0.35365 0.86362 0.0
H2245 H 0.32843 0.37206 0.84582 0.0
H2246 H 0.37121 0.36505 0.8824 0.0
H2247 H 0.35007 0.34607 0.90009 0.0
C2248 C 0.28835 0.36574 0.9681 0.0
C2249 C 0.30277 0.36741 0.98143 0.0
C2250 C 0.28749 0.35487 0.94975 0.0
C2251 C 0.30125 0.34587 0.94427 0.0
C2252 C 0.31564 0.34753 0.95764 0.0
C2253 C 0.31624 0.35791 0.97617 0.0
C2254 C 0.30135 0.33617 0.92418 0.0
C2255 C 0.31426 0.34448 0.91336 0.0
C2256 C 0.28832 0.3198 0.91529 0.0
C2257 C 0.27469 0.30982 0.926 0.0
C2258 C 0.2796 0.30318 0.94237 0.0
C2259 C 0.26677 0.29293 0.95189 0.0
C2260 C 0.24897 0.28918 0.94514 0.0
C2261 C 0.24396 0.29569 0.92887 0.0
C2262 C 0.25675 0.30594 0.91929 0.0
C2263 C 0.31421 0.30029 0.83637 0.0
C2264 C 0.30153 0.30462 0.82411 0.0
C2265 C 0.31415 0.30502 0.85625 0.0
C2266 C 0.30061 0.31295 0.86428 0.0
C2267 C 0.28678 0.31507 0.85219 0.0
C2268 C 0.28742 0.31138 0.83252 0.0
C2269 C 0.30144 0.32073 0.88503 0.0
C2270 C 0.28855 0.31232 0.89583 0.0
C2271 C 0.31426 0.33723 0.89388 0.0
C2272 C 0.32701 0.34806 0.8829 0.0
C2273 C 0.32104 0.35568 0.86763 0.0
C2274 C 0.3331 0.36631 0.85762 0.0
C2275 C 0.35117 0.36968 0.86295 0.0
C2276 C 0.35721 0.36236 0.87825 0.0
C2277 C 0.3452 0.35162 0.88823 0.0
H2278 H 0.36049 0.378 0.85524 0.0
H2279 H 0.23907 0.28117 0.95249 0.0
H2280 H 0.93522 0.06861 0.34405 0.0
H2281 H 0.95075 0.06325 0.37263 0.0
H2282 H 0.99778 0.06383 0.34363 0.0
H2283 H 0.98193 0.06843 0.31479 0.0
H2284 H 1.00151 0.04186 0.36518 0.0
H2285 H 0.98976 0.10232 0.38495 0.0
H2286 H 0.97417 0.12877 0.39136 0.0
H2287 H 0.94095 0.0978 0.42682 0.0
H2288 H 0.95624 0.07105 0.42044 0.0
H2289 H 0.05106 0.0459 0.45863 0.0
H2290 H 0.03954 0.05114 0.4275 0.0
H2291 H 0.98726 0.04344 0.44594 0.0
H2292 H 0.99866 0.03856 0.47657 0.0
H2293 H 0.9895 0.07145 0.4292 0.0
H2294 H 0.00646 0.01024 0.40655 0.0
H2295 H 0.02743 0.98924 0.40022 0.0
H2296 H 0.0584 0.03 0.37151 0.0
H2297 H 0.03735 0.0511 0.37733 0.0
C2298 C 0.94888 0.06765 0.3436 0.0
C2299 C 0.95696 0.06911 0.32649 0.0
C2300 C 0.95806 0.06473 0.36037 0.0
C2301 C 0.97609 0.06338 0.36137 0.0
C2302 C 0.9841 0.06469 0.34413 0.0
C2303 C 0.97486 0.06746 0.3273 0.0
C2304 C 0.98623 0.06038 0.3799 0.0
C2305 C 0.99878 0.0486 0.37907 0.0
C2306 C 0.98371 0.06905 0.39877 0.0
C2307 C 0.97393 0.08458 0.40196 0.0
C2308 C 0.97896 0.10105 0.3939 0.0
C2309 C 0.97023 0.11612 0.39758 0.0
C2310 C 0.95652 0.11493 0.40942 0.0
C2311 C 0.95153 0.09867 0.4176 0.0
C2312 C 0.96021 0.08355 0.41395 0.0
C2313 C 0.03704 0.04493 0.45598 0.0
C2314 C 0.02598 0.04158 0.47073 0.0
C2315 C 0.03029 0.04799 0.43785 0.0
C2316 C 0.0121 0.04782 0.43346 0.0
C2317 C 1.00124 0.044 0.44816 0.0
C2318 C 0.0079 0.041 0.46603 0.0
C2319 C 1.00406 0.05224 0.41451 0.0
C2320 C 0.99198 0.0645 0.41529 0.0
C2321 C 0.0077 0.04474 0.39568 0.0
C2322 C 0.02048 0.03232 0.39259 0.0
C2323 C 0.01783 0.01478 0.39904 0.0
C2324 C 0.02973 1.00286 0.39553 0.0
C2325 C 0.04441 0.00838 0.38573 0.0
C2326 C 0.0471 0.02578 0.37921 0.0
C2327 C 0.03514 0.03769 0.38253 0.0
H2328 H 0.05362 0.99912 0.38307 0.0
H2329 H 0.94981 0.12664 0.4123 0.0
H2330 H 0.30208 0.6682 0.58426 0.0
H2331 H 0.30011 0.6835 0.61727 0.0
H2332 H 0.25141 0.69808 0.59999 0.0
H2333 H 0.25312 0.68281 0.56745 0.0
H2334 H 0.28399 0.72935 0.61266 0.0
H2335 H 0.24579 0.67392 0.62866 0.0
H2336 H 0.23766 0.63981 0.63147 0.0
H2337 H 0.28367 0.64747 0.67028 0.0
H2338 H 0.29224 0.68158 0.66744 0.0
H2339 H 0.26873 0.78307 0.70321 0.0
H2340 H 0.26348 0.76061 0.6724 0.0
H2341 H 0.30984 0.73998 0.68653 0.0
H2342 H 0.31521 0.76236 0.71669 0.0
H2343 H 0.27607 0.71117 0.67581 0.0
H2344 H 0.31619 0.76416 0.65768 0.0
H2345 H 0.32585 0.79836 0.6557 0.0
H2346 H 0.27819 0.79508 0.62099 0.0
H2347 H 0.26806 0.76091 0.62316 0.0
C2348 C 0.29071 0.6741 0.58777 0.0
C2349 C 0.27807 0.67508 0.57352 0.0
C2350 C 0.28955 0.68268 0.60647 0.0
C2351 C 0.27572 0.69194 0.61064 0.0
C2352 C 0.26214 0.69096 0.59678 0.0
C2353 C 0.26326 0.68246 0.57828 0.0
C2354 C 0.27725 0.70603 0.628 0.0
C2355 C 0.28199 0.72544 0.62646 0.0
C2356 C 0.27497 0.70062 0.64576 0.0
C2357 C 0.26974 0.68022 0.64768 0.0
C2358 C 0.25426 0.66828 0.63765 0.0
C2359 C 0.24955 0.64896 0.63927 0.0
C2360 C 0.26017 0.64146 0.651 0.0
C2361 C 0.27548 0.65329 0.66118 0.0
C2362 C 0.28026 0.67262 0.65958 0.0
C2363 C 0.27804 0.77419 0.69924 0.0
C2364 C 0.29258 0.77459 0.71172 0.0
C2365 C 0.27494 0.76131 0.68199 0.0
C2366 C 0.28624 0.74874 0.67767 0.0
C2367 C 0.30104 0.74963 0.68993 0.0
C2368 C 0.30425 0.7626 0.70689 0.0
C2369 C 0.28272 0.73438 0.66038 0.0
C2370 C 0.27776 0.71501 0.66194 0.0
C2371 C 0.28501 0.73976 0.64261 0.0
C2372 C 0.29128 0.76009 0.64077 0.0
C2373 C 0.3077 0.77078 0.64976 0.0
C2374 C 0.31327 0.79015 0.6486 0.0
C2375 C 0.30262 0.79891 0.63826 0.0
C2376 C 0.28641 0.78828 0.62902 0.0
C2377 C 0.28074 0.76892 0.63022 0.0
H2378 H 0.30694 0.81391 0.63738 0.0
H2379 H 0.25651 0.62649 0.65224 0.0
H2380 H 0.69099 0.02958 0.80828 0.0
H2381 H 0.67968 0.03694 0.83943 0.0
H2382 H 0.6386 0.05863 0.8134 0.0
H2383 H 0.64879 0.05033 0.78272 0.0
H2384 H 0.65283 0.0796 0.85015 0.0
H2385 H 0.62734 0.01622 0.81311 0.0
H2386 H 0.63085 0.9856 0.79427 0.0
H2387 H 0.65741 0.97324 0.84321 0.0
H2388 H 0.65441 1.00409 0.86221 0.0
H2389 H 0.57297 0.06677 0.88537 0.0
H2390 H 0.5924 0.05457 0.86287 0.0
H2391 H 0.6263 0.04731 0.90945 0.0
H2392 H 0.60688 0.05935 0.93196 0.0
H2393 H 0.62063 0.01891 0.86741 0.0
H2394 H 0.63998 0.08698 0.90423 0.0
H2395 H 0.63108 0.11716 0.9169 0.0
H2396 H 0.60943 0.11919 0.86109 0.0
H2397 H 0.61808 0.08892 0.84818 0.0
C2398 C 0.67969 0.03615 0.80937 0.0
C2399 C 0.67066 0.03922 0.79311 0.0
C2400 C 0.67346 0.04053 0.82707 0.0
C2401 C 0.6585 0.04841 0.82846 0.0
C2402 C 0.65035 0.05281 0.81248 0.0
C2403 C 0.65616 0.04788 0.79488 0.0
C2404 C 0.64901 0.04876 0.84537 0.0
C2405 C 0.64622 0.06643 0.85438 0.0
C2406 C 0.63983 0.03141 0.85002 0.0
C2407 C 0.64084 0.01248 0.839 0.0
C2408 C 0.634 0.007 0.81982 0.0
C2409 C 0.63591 0.98963 0.8091 0.0
C2410 C 0.6444 0.9775 0.81752 0.0
C2411 C 0.65089 0.98268 0.8367 0.0
C2412 C 0.64911 1.00011 0.84744 0.0
C2413 C 0.58433 0.06209 0.89066 0.0
C2414 C 0.58881 0.06429 0.91019 0.0
C2415 C 0.59518 0.05487 0.8779 0.0
C2416 C 0.61063 0.05019 0.88472 0.0
C2417 C 0.61425 0.05068 0.90411 0.0
C2418 C 0.60332 0.05775 0.91687 0.0
C2419 C 0.62482 0.04979 0.87241 0.0
C2420 C 0.62812 0.03213 0.86404 0.0
C2421 C 0.63397 0.06711 0.86771 0.0
C2422 C 0.62971 0.08581 0.87528 0.0
C2423 C 0.63337 0.09393 0.89469 0.0
C2424 C 0.62834 0.11101 0.90191 0.0
C2425 C 0.61971 0.1201 0.8898 0.0
C2426 C 0.61615 0.11217 0.87044 0.0
C2427 C 0.62116 0.09509 0.86316 0.0
H2428 H 0.61577 0.13328 0.89543 0.0
H2429 H 0.64591 0.96407 0.80921 0.0
H2430 H 0.32641 0.35254 0.08211 0.0
H2431 H 0.32 0.3406 0.11117 0.0
H2432 H 0.27498 0.36661 0.11512 0.0
H2433 H 0.28149 0.37897 0.08563 0.0
H2434 H 0.29593 0.37049 0.15102 0.0
H2435 H 0.26812 0.31817 0.0979 0.0
H2436 H 0.26823 0.29573 0.06782 0.0
H2437 H 0.31066 0.27549 0.09243 0.0
H2438 H 0.31085 0.29784 0.12258 0.0
H2439 H 0.27057 0.32241 0.2254 0.0
H2440 H 0.26803 0.33265 0.1947 0.0
H2441 H 0.30608 0.30014 0.1742 0.0
H2442 H 0.30693 0.28817 0.20407 0.0
H2443 H 0.28504 0.29968 0.14608 0.0
H2444 H 0.32086 0.35289 0.19136 0.0
H2445 H 0.32572 0.37141 0.2242 0.0
H2446 H 0.27602 0.38717 0.21737 0.0
H2447 H 0.27096 0.36887 0.18416 0.0
C2448 C 0.31517 0.35591 0.08914 0.0
C2449 C 0.30436 0.36658 0.08137 0.0
C2450 C 0.3115 0.34898 0.10578 0.0
C2451 C 0.29678 0.35229 0.11512 0.0
C2452 C 0.28635 0.36374 0.10804 0.0
C2453 C 0.29011 0.37086 0.09126 0.0
C2454 C 0.29235 0.34322 0.13191 0.0
C2455 C 0.29311 0.355 0.14984 0.0
C2456 C 0.28959 0.32302 0.13067 0.0
C2457 C 0.28952 0.30972 0.11245 0.0
C2458 C 0.27752 0.30901 0.09684 0.0
C2459 C 0.27752 0.29627 0.0798 0.0
C2460 C 0.28945 0.28421 0.07821 0.0
C2461 C 0.30141 0.28482 0.09367 0.0
C2462 C 0.30144 0.29748 0.11075 0.0
C2463 C 0.27812 0.31729 0.21415 0.0
C2464 C 0.28914 0.30483 0.21702 0.0
C2465 C 0.27687 0.3233 0.19672 0.0
C2466 C 0.28745 0.31789 0.18234 0.0
C2467 C 0.29787 0.30469 0.18502 0.0
C2468 C 0.29845 0.29795 0.20212 0.0
C2469 C 0.28858 0.32688 0.1651 0.0
C2470 C 0.28741 0.31515 0.14718 0.0
C2471 C 0.29186 0.34708 0.16644 0.0
C2472 C 0.29574 0.36004 0.18523 0.0
C2473 C 0.31118 0.36075 0.1967 0.0
C2474 C 0.31392 0.3711 0.21535 0.0
C2475 C 0.30127 0.38072 0.22269 0.0
C2476 C 0.28591 0.38009 0.21137 0.0
C2477 C 0.28319 0.36992 0.19261 0.0
H2478 H 0.30328 0.38851 0.2372 0.0
H2479 H 0.28942 0.27437 0.06501 0.0
H2480 H 0.25681 0.92836 0.01506 0.0
H2481 H 0.23154 0.9433 0.01795 0.0
H2482 H 0.26631 0.99945 0.0257 0.0
H2483 H 0.29177 0.98464 0.02325 0.0
H2484 H 0.24169 0.99691 0.05095 0.0
H2485 H 0.24355 0.9804 0.9831 0.0
H2486 H 0.2457 0.95741 0.95413 0.0
H2487 H 0.19722 0.9206 0.96313 0.0
H2488 H 0.19487 0.94332 0.99229 0.0
H2489 H 0.18364 0.05415 0.03987 0.0
H2490 H 0.20613 0.03628 0.03051 0.0
H2491 H 0.1682 0.98275 0.02697 0.0
H2492 H 0.14549 1.00063 0.03618 0.0
H2493 H 0.1932 0.98205 0.999 0.0
H2494 H 0.1915 0.99827 0.06674 0.0
H2495 H 0.19102 0.01914 0.09766 0.0
H2496 H 0.24045 0.05504 0.08991 0.0
H2497 H 0.24109 0.0345 0.05883 0.0
C2498 C 0.25906 0.94389 0.0175 0.0
C2499 C 0.27612 0.95543 0.01888 0.0
C2500 C 0.24466 0.95234 0.01901 0.0
C2501 C 0.24721 0.97234 0.02162 0.0
C2502 C 0.26425 0.98394 0.02353 0.0
C2503 C 0.2787 0.9755 0.02221 0.0
C2504 C 0.23204 0.98123 0.02277 0.0
C2505 C 0.23121 0.99393 0.03951 0.0
C2506 C 0.21825 0.97665 0.00798 0.0
C2507 C 0.21905 0.96353 0.98988 0.0
C2508 C 0.23333 0.96741 0.97887 0.0
C2509 C 0.2346 0.95442 0.96244 0.0
C2510 C 0.22161 0.93754 0.9568 0.0
C2511 C 0.20725 0.9337 0.96751 0.0
C2512 C 0.20592 0.94665 0.98396 0.0
C2513 C 0.18008 0.03858 0.0368 0.0
C2514 C 0.16309 0.02869 0.03909 0.0
C2515 C 0.19282 0.02844 0.03136 0.0
C2516 C 0.18874 0.00833 0.02844 0.0
C2517 C 0.17145 0.99832 0.02925 0.0
C2518 C 0.1586 0.0085 0.03456 0.0
C2519 C 0.20311 0.99815 0.02705 0.0
C2520 C 0.20373 0.98509 0.01038 0.0
C2521 C 0.2168 1.00233 0.04194 0.0
C2522 C 0.21623 0.01499 0.06039 0.0
C2523 C 0.20215 0.01075 0.07154 0.0
C2524 C 0.20188 0.02248 0.08911 0.0
C2525 C 0.21567 0.03844 0.09572 0.0
C2526 C 0.22976 0.0427 0.08476 0.0
C2527 C 0.23009 0.03101 0.06717 0.0
H2528 H 0.21547 0.04747 0.10936 0.0
H2529 H 0.22266 0.92745 0.94413 0.0
H2530 H 0.72377 0.6837 0.99753 0.0
H2531 H 0.69604 0.66141 0.99892 0.0
H2532 H 0.7234 0.6155 0.99941 0.0
H2533 H 0.75159 0.63796 0.99795 0.0
H2534 H 0.69194 0.60347 0.97592 0.0
H2535 H 0.70922 0.63646 0.04028 0.0
H2536 H 0.71928 0.66495 0.06574 0.0
H2537 H 0.6729 0.68531 0.05246 0.0
H2538 H 0.66267 0.65705 0.02675 0.0
H2539 H 0.61471 0.5413 1.00045 0.0
H2540 H 0.64449 0.55986 0.99839 0.0
H2541 H 0.62535 0.61219 0.00708 0.0
H2542 H 0.59589 0.59386 0.00971 0.0
H2543 H 0.65431 0.61943 0.02723 0.0
H2544 H 0.6375 0.58867 0.96218 0.0
H2545 H 0.62748 0.56173 0.93513 0.0
H2546 H 0.67238 0.53869 0.9479 0.0
H2547 H 0.68253 0.56535 0.97522 0.0
C2548 C 0.72406 0.66886 0.99783 0.0
C2549 C 0.74016 0.6628 0.99764 0.0
C2550 C 0.70805 0.65607 0.99875 0.0
C2551 C 0.70745 0.6367 0.99956 0.0
C2552 C 0.7234 0.63036 0.99889 0.0
C2553 C 0.73957 0.64326 0.99808 0.0
C2554 C 0.69016 0.62339 1.00129 0.0
C2555 C 0.68385 0.60677 0.98734 0.0
C2556 C 0.67924 0.62782 0.01586 0.0
C2557 C 0.68523 0.64468 0.03151 0.0
C2558 C 0.70121 0.64706 0.04273 0.0
C2559 C 0.70694 0.66316 0.05721 0.0
C2560 C 0.69675 0.67694 0.0607 0.0
C2561 C 0.68078 0.67462 0.04974 0.0
C2562 C 0.67499 0.65855 0.03523 0.0
C2563 C 0.61676 0.55671 0.00165 0.0
C2564 C 0.60267 0.56592 0.00514 0.0
C2565 C 0.63391 0.56741 1.00046 0.0
C2566 C 0.63745 0.58763 0.0024 0.0
C2567 C 0.62328 0.59672 0.0056 0.0
C2568 C 0.60626 0.58611 0.007 0.0
C2569 C 0.6558 0.5995 0.00164 0.0
C2570 C 0.66236 0.61594 0.01583 0.0
C2571 C 0.66684 0.595 0.98714 0.0
C2572 C 0.66064 0.57886 0.97089 0.0
C2573 C 0.64514 0.57775 0.95933 0.0
C2574 C 0.63945 0.56255 0.94393 0.0
C2575 C 0.64925 0.54847 0.93983 0.0
C2576 C 0.66478 0.54958 0.95112 0.0
C2577 C 0.6705 0.56472 0.96657 0.0
H2578 H 0.64485 0.53674 0.92788 0.0
H2579 H 0.70122 0.6894 0.0719 0.0
H2580 H 0.67123 0.43673 0.2579 0.0
H2581 H 0.68656 0.41043 0.25634 0.0
H2582 H 0.73577 0.45126 0.27459 0.0
H2583 H 0.72048 0.47754 0.27416 0.0
H2584 H 0.74779 0.42671 0.25884 0.0
H2585 H 0.70165 0.40567 0.30145 0.0
H2586 H 0.67047 0.39715 0.30811 0.0
H2587 H 0.65806 0.35798 0.25459 0.0
H2588 H 0.68927 0.36578 0.24794 0.0
H2589 H 0.79421 0.35747 0.28965 0.0
H2590 H 0.778 0.38242 0.28589 0.0
H2591 H 0.73679 0.33982 0.25095 0.0
H2592 H 0.75385 0.31506 0.25373 0.0
H2593 H 0.72016 0.3633 0.27299 0.0
H2594 H 0.76476 0.37778 0.23323 0.0
H2595 H 0.7942 0.3856 0.22179 0.0
H2596 H 0.80811 0.43684 0.26465 0.0
H2597 H 0.77884 0.42913 0.2766 0.0
C2598 C 0.68535 0.44031 0.2616 0.0
C2599 C 0.69415 0.46004 0.26618 0.0
C2600 C 0.69444 0.42476 0.26113 0.0
C2601 C 0.71302 0.42756 0.26609 0.0
C2602 C 0.72171 0.44743 0.27061 0.0
C2603 C 0.71271 0.46296 0.27046 0.0
C2604 C 0.72344 0.4106 0.26627 0.0
C2605 C 0.74152 0.41318 0.26253 0.0
C2606 C 0.71615 0.39165 0.26984 0.0
C2607 C 0.69768 0.38637 0.2742 0.0
C2608 C 0.69227 0.39513 0.29122 0.0
C2609 C 0.67462 0.39036 0.295 0.0
C2610 C 0.66231 0.37696 0.28182 0.0
C2611 C 0.66764 0.3682 0.26487 0.0
C2612 C 0.68532 0.37266 0.26115 0.0
C2613 C 0.78234 0.35339 0.28009 0.0
C2614 C 0.77663 0.33383 0.27085 0.0
C2615 C 0.77254 0.36794 0.27827 0.0
C2616 C 0.75567 0.36396 0.26781 0.0
C2617 C 0.7496 0.34424 0.25901 0.0
C2618 C 0.75971 0.32979 0.26041 0.0
C2619 C 0.74459 0.37998 0.26655 0.0
C2620 C 0.72645 0.3771 0.26985 0.0
C2621 C 0.75176 0.39856 0.26235 0.0
C2622 C 0.76968 0.40276 0.25596 0.0
C2623 C 0.77419 0.39056 0.24041 0.0
C2624 C 0.79082 0.39501 0.23379 0.0
C2625 C 0.803 0.41172 0.24248 0.0
C2626 C 0.79865 0.4239 0.25794 0.0
C2627 C 0.78205 0.41949 0.26466 0.0
H2628 H 0.81579 0.41529 0.23719 0.0
H2629 H 0.64864 0.37338 0.28471 0.0
H2630 H 0.87903 0.43286 0.48412 0.0
H2631 H 0.90816 0.45457 0.49062 0.0
H2632 H 0.89157 0.48502 0.54125 0.0
H2633 H 0.86229 0.46375 0.53454 0.0
H2634 H 0.90861 0.50885 0.51878 0.0
H2635 H 0.91873 0.45492 0.54696 0.0
H2636 H 0.91772 0.42062 0.54702 0.0
H2637 H 0.94752 0.41749 0.49836 0.0
H2638 H 0.94867 0.45173 0.49801 0.0
H2639 H 0.99982 0.5569 0.54663 0.0
H2640 H 0.96812 0.54294 0.54307 0.0
H2641 H 0.97586 0.49788 0.4984 0.0
H2642 H 0.00725 0.50937 0.50497 0.0
H2643 H 0.96255 0.48319 0.52463 0.0
H2644 H 0.94898 0.53299 0.49137 0.0
H2645 H 0.95128 0.56708 0.48897 0.0
H2646 H 0.92938 0.57728 0.54242 0.0
H2647 H 0.92688 0.54328 0.54509 0.0
C2648 C 0.88168 0.44421 0.49658 0.0
C2649 C 0.86865 0.44684 0.50882 0.0
C2650 C 0.8982 0.45646 0.50032 0.0
C2651 C 0.90183 0.47104 0.51653 0.0
C2652 C 0.88881 0.47375 0.52871 0.0
C2653 C 0.87221 0.46171 0.52482 0.0
C2654 C 0.91918 0.4838 0.5204 0.0
C2655 C 0.92048 0.50337 0.52025 0.0
C2656 C 0.93442 0.47642 0.52217 0.0
C2657 C 0.93372 0.45584 0.52244 0.0
C2658 C 0.92499 0.44688 0.53624 0.0
C2659 C 0.92443 0.42746 0.53634 0.0
C2660 C 0.93253 0.41688 0.52269 0.0
C2661 C 0.94127 0.4257 0.50894 0.0
C2662 C 0.94193 0.44512 0.50882 0.0
C2663 C 0.99452 0.54431 0.53575 0.0
C2664 C 0.00573 0.53453 0.52542 0.0
C2665 C 0.97648 0.53651 0.53354 0.0
C2666 C 0.96974 0.51942 0.52042 0.0
C2667 C 0.98087 0.51107 0.50863 0.0
C2668 C 0.99882 0.51799 0.51188 0.0
C2669 C 0.9521 0.50801 0.52131 0.0
C2670 C 0.95075 0.48877 0.52303 0.0
C2671 C 0.9369 0.51557 0.52035 0.0
C2672 C 0.93776 0.53571 0.51841 0.0
C2673 C 0.94462 0.54254 0.50255 0.0
C2674 C 0.94593 0.56178 0.50113 0.0
C2675 C 0.94044 0.57428 0.51549 0.0
C2676 C 0.93355 0.56755 0.53127 0.0
C2677 C 0.9321 0.54829 0.5327 0.0
H2678 H 0.94158 0.58921 0.51442 0.0
H2679 H 0.93205 0.40185 0.52278 0.0
H2680 H 0.41417 0.09341 0.27656 0.0
H2681 H 0.39773 0.11795 0.27223 0.0
H2682 H 0.35899 0.09468 0.30799 0.0
H2683 H 0.37468 0.06928 0.31097 0.0
H2684 H 0.34421 0.09904 0.27669 0.0
H2685 H 0.38982 0.13906 0.32343 0.0
H2686 H 0.42104 0.15125 0.33588 0.0
H2687 H 0.43187 0.17513 0.28582 0.0
H2688 H 0.40075 0.16292 0.273 0.0
H2689 H 0.2978 0.1708 0.26712 0.0
H2690 H 0.31585 0.15407 0.28453 0.0
H2691 H 0.35708 0.16576 0.24742 0.0
H2692 H 0.33905 0.18237 0.23006 0.0
H2693 H 0.36987 0.16896 0.28456 0.0
H2694 H 0.32733 0.12635 0.23615 0.0
H2695 H 0.29826 0.10967 0.21954 0.0
H2696 H 0.28329 0.08727 0.26941 0.0
H2697 H 0.31214 0.10419 0.28646 0.0
C2698 C 0.40214 0.09372 0.28341 0.0
C2699 C 0.39533 0.07971 0.29381 0.0
C2700 C 0.39296 0.10776 0.28121 0.0
C2701 C 0.37747 0.10824 0.29022 0.0
C2702 C 0.37101 0.09446 0.30109 0.0
C2703 C 0.37982 0.08002 0.30267 0.0
C2704 C 0.36701 0.12195 0.28674 0.0
C2705 C 0.34958 0.11443 0.27899 0.0
C2706 C 0.37448 0.14178 0.28912 0.0
C2707 C 0.39295 0.15014 0.2973 0.0
C2708 C 0.39885 0.14698 0.31512 0.0
C2709 C 0.41654 0.15385 0.32222 0.0
C2710 C 0.42842 0.16397 0.31166 0.0
C2711 C 0.42263 0.16734 0.29401 0.0
C2712 C 0.40496 0.16051 0.28686 0.0
C2713 C 0.31087 0.17002 0.26305 0.0
C2714 C 0.3172 0.17739 0.24731 0.0
C2715 C 0.32108 0.16061 0.27292 0.0
C2716 C 0.33757 0.15872 0.26701 0.0
C2717 C 0.34433 0.16724 0.25206 0.0
C2718 C 0.33408 0.17648 0.24213 0.0
C2719 C 0.34699 0.14604 0.2748 0.0
C2720 C 0.36428 0.15369 0.28308 0.0
C2721 C 0.33947 0.1262 0.2727 0.0
C2722 C 0.32175 0.11695 0.26274 0.0
C2723 C 0.31772 0.11822 0.24371 0.0
C2724 C 0.3013 0.10863 0.23418 0.0
C2725 C 0.28889 0.09751 0.24345 0.0
C2726 C 0.29286 0.09598 0.26228 0.0
C2727 C 0.30922 0.10562 0.2719 0.0
H2728 H 0.27624 0.09001 0.23601 0.0
H2729 H 0.44213 0.1692 0.31714 0.0
H2730 H 0.32477 0.13528 0.50548 0.0
H2731 H 0.35038 0.12102 0.50748 0.0
H2732 H 0.38493 0.1772 0.51507 0.0
H2733 H 0.35915 0.19156 0.5122 0.0
H2734 H 0.39941 0.15098 0.49362 0.0
H2735 H 0.37572 0.15586 0.55381 0.0
H2736 H 0.35171 0.1525 0.57488 0.0
H2737 H 0.33931 0.09131 0.55559 0.0
H2738 H 0.36315 0.09435 0.53425 0.0
H2739 H 0.46969 0.11112 0.53146 0.0
H2740 H 0.44871 0.13076 0.52456 0.0
H2741 H 0.40602 0.08061 0.51705 0.0
H2742 H 0.42681 0.06134 0.52457 0.0
H2743 H 0.39827 0.10815 0.54084 0.0
H2744 H 0.42105 0.1046 0.47824 0.0
H2745 H 0.44478 0.10919 0.4569 0.0
H2746 H 0.46046 0.16891 0.48273 0.0
H2747 H 0.43653 0.16477 0.5039 0.0
C2748 C 0.33779 0.14465 0.50759 0.0
C2749 C 0.33988 0.16461 0.50906 0.0
C2750 C 0.35247 0.13647 0.50872 0.0
C2751 C 0.36965 0.14804 0.51188 0.0
C2752 C 0.37184 0.16795 0.51274 0.0
C2753 C 0.35709 0.17615 0.51127 0.0
C2754 C 0.385 0.13926 0.51532 0.0
C2755 C 0.39928 0.14181 0.50411 0.0
C2756 C 0.385 0.12734 0.52904 0.0
C2757 C 0.37117 0.12534 0.54242 0.0
C2758 C 0.36787 0.14169 0.55408 0.0
C2759 C 0.35428 0.13985 0.56604 0.0
C2760 C 0.34398 0.1217 0.56656 0.0
C2761 C 0.34732 0.10535 0.55519 0.0
C2762 C 0.36089 0.10712 0.54319 0.0
C2763 C 0.45587 0.1043 0.52788 0.0
C2764 C 0.44979 0.08477 0.52859 0.0
C2765 C 0.44387 0.1155 0.52392 0.0
C2766 C 0.42568 0.10721 0.52031 0.0
C2767 C 0.4199 0.08742 0.51993 0.0
C2768 C 0.43179 0.07637 0.52411 0.0
C2769 C 0.41233 0.11908 0.51854 0.0
C2770 C 0.39848 0.11731 0.53033 0.0
C2771 C 0.41291 0.13183 0.50553 0.0
C2772 C 0.42711 0.13435 0.49269 0.0
C2773 C 0.42958 0.11869 0.47936 0.0
C2774 C 0.44304 0.12122 0.46729 0.0
C2775 C 0.45424 0.13927 0.46859 0.0
C2776 C 0.45182 0.15492 0.48178 0.0
C2777 C 0.43824 0.15253 0.49371 0.0
H2778 H 0.46473 0.14115 0.45933 0.0
H2779 H 0.33343 0.12031 0.57579 0.0
H2780 H 0.71454 0.5609 0.26972 0.0
H2781 H 0.73373 0.59245 0.26865 0.0
H2782 H 0.69154 0.62022 0.28474 0.0
H2783 H 0.6726 0.58927 0.28559 0.0
H2784 H 0.70529 0.63826 0.26087 0.0
H2785 H 0.73231 0.62232 0.31494 0.0
H2786 H 0.74641 0.60276 0.33332 0.0
H2787 H 0.78879 0.60588 0.29725 0.0
H2788 H 0.77476 0.62522 0.27845 0.0
H2789 H 0.75284 0.73603 0.28284 0.0
H2790 H 0.73685 0.70376 0.28384 0.0
H2791 H 0.7815 0.68136 0.26568 0.0
H2792 H 0.79805 0.71433 0.26518 0.0
H2793 H 0.76722 0.65996 0.28917 0.0
H2794 H 0.73832 0.67847 0.23604 0.0
H2795 H 0.72264 0.69858 0.22004 0.0
H2796 H 0.68191 0.69161 0.25795 0.0
H2797 H 0.6975 0.67175 0.27437 0.0
C2798 C 0.70933 0.57369 0.2732 0.0
C2799 C 0.69165 0.57188 0.27784 0.0
C2800 C 0.72047 0.59204 0.27264 0.0
C2801 C 0.71454 0.60952 0.27672 0.0
C2802 C 0.69694 0.60754 0.28136 0.0
C2803 C 0.68593 0.58942 0.28195 0.0
C2804 C 0.72606 0.6297 0.27594 0.0
C2805 C 0.71878 0.64286 0.2673 0.0
C2806 C 0.74393 0.63652 0.28395 0.0
C2807 C 0.75238 0.62495 0.29514 0.0
C2808 C 0.74456 0.61868 0.31083 0.0
C2809 C 0.75254 0.60766 0.32133 0.0
C2810 C 0.76845 0.60301 0.31641 0.0
C2811 C 0.77643 0.60944 0.30101 0.0
C2812 C 0.76847 0.62042 0.29042 0.0
C2813 C 0.75953 0.72443 0.27896 0.0
C2814 C 0.77709 0.7285 0.27376 0.0
C2815 C 0.75006 0.70552 0.27937 0.0
C2816 C 0.75732 0.68922 0.27428 0.0
C2817 C 0.77507 0.69318 0.26954 0.0
C2818 C 0.7847 0.71231 0.26924 0.0
C2819 C 0.74644 0.66848 0.27406 0.0
C2820 C 0.75379 0.65527 0.2826 0.0
C2821 C 0.72844 0.66173 0.26631 0.0
C2822 C 0.71917 0.67379 0.25653 0.0
C2823 C 0.72609 0.68136 0.24104 0.0
C2824 C 0.71721 0.6927 0.2319 0.0
C2825 C 0.7013 0.6964 0.238 0.0
C2826 C 0.69424 0.68876 0.25326 0.0
C2827 C 0.7031 0.67747 0.26249 0.0
H2828 H 0.69443 0.70516 0.23088 0.0
H2829 H 0.77462 0.59448 0.32456 0.0
H2830 H 0.91557 0.4616 0.79854 0.0
H2831 H 0.89171 0.43349 0.78646 0.0
H2832 H 0.85507 0.47035 0.78307 0.0
H2833 H 0.87825 0.4982 0.79573 0.0
H2834 H 0.8463 0.44436 0.80544 0.0
H2835 H 0.86175 0.44392 0.74152 0.0
H2836 H 0.88171 0.4454 0.71598 0.0
H2837 H 0.8987 0.39576 0.72857 0.0
H2838 H 0.87892 0.39403 0.75423 0.0
H2839 H 0.78922 0.34613 0.76759 0.0
H2840 H 0.80028 0.38125 0.77467 0.0
H2841 H 0.85211 0.37341 0.79102 0.0
H2842 H 0.84137 0.3387 0.78318 0.0
H2843 H 0.84506 0.38797 0.75487 0.0
H2844 H 0.84666 0.40375 0.82638 0.0
H2845 H 0.83392 0.40591 0.85723 0.0
H2846 H 0.7901 0.42453 0.83332 0.0
H2847 H 0.80309 0.42325 0.80254 0.0
C2848 C 0.90242 0.46364 0.7953 0.0
C2849 C 0.89875 0.482 0.79833 0.0
C2850 C 0.88897 0.44772 0.78797 0.0
C2851 C 0.87192 0.45016 0.78347 0.0
C2852 C 0.86831 0.46843 0.78615 0.0
C2853 C 0.88156 0.48422 0.79368 0.0
C2854 C 0.85725 0.43357 0.77983 0.0
C2855 C 0.84553 0.43224 0.79393 0.0
C2856 C 0.85679 0.41783 0.76512 0.0
C2857 C 0.86883 0.41887 0.74979 0.0
C2858 C 0.86981 0.43338 0.7389 0.0
C2859 C 0.88107 0.43424 0.72438 0.0
C2860 C 0.89146 0.42068 0.72065 0.0
C2861 C 0.89061 0.40623 0.73144 0.0
C2862 C 0.87933 0.40526 0.74593 0.0
C2863 C 0.80277 0.35214 0.77337 0.0
C2864 C 0.81456 0.34026 0.7752 0.0
C2865 C 0.80897 0.37196 0.77753 0.0
C2866 C 0.82688 0.3795 0.78326 0.0
C2867 C 0.83819 0.36756 0.78677 0.0
C2868 C 0.8321 0.3479 0.78234 0.0
C2869 C 0.8349 0.39875 0.78099 0.0
C2870 C 0.84522 0.40051 0.76569 0.0
C2871 C 0.83463 0.41474 0.79492 0.0
C2872 C 0.82563 0.41314 0.81226 0.0
C2873 C 0.83422 0.40812 0.82772 0.0
C2874 C 0.82712 0.40949 0.84523 0.0
C2875 C 0.81121 0.41537 0.84724 0.0
C2876 C 0.8024 0.41995 0.83173 0.0
C2877 C 0.80967 0.41902 0.81429 0.0
H2878 H 0.80565 0.41627 0.86079 0.0
H2879 H 0.90017 0.42138 0.70941 0.0
H2880 H 0.08692 0.84716 0.067 0.0
H2881 H 0.08219 0.874 0.0519 0.0
H2882 H 0.0741 0.90517 0.10632 0.0
H2883 H 0.07868 0.8785 0.12132 0.0
H2884 H 0.04926 0.90721 0.08163 0.0
H2885 H 0.11267 0.916 0.07968 0.0
H2886 H 0.14027 0.90712 0.07017 0.0
H2887 H 0.12156 0.89954 0.01132 0.0
H2888 H 0.09372 0.90806 0.02048 0.0
H2889 H 0.05214 1.00124 0.06944 0.0
H2890 H 0.05688 0.97114 0.07682 0.0
H2891 H 0.06482 0.95197 0.0183 0.0
H2892 H 0.06039 0.98298 0.01086 0.0
H2893 H 0.08855 0.94125 0.04031 0.0
H2894 H 0.02569 0.92413 0.0388 0.0
H2895 H 0.99538 0.92724 0.0443 0.0
H2896 H 0.011 0.94726 0.10395 0.0
H2897 H 0.04118 0.94293 0.09891 0.0
C2898 C 0.08438 0.85984 0.07583 0.0
C2899 C 0.08334 0.86047 0.09556 0.0
C2900 C 0.08171 0.87534 0.06712 0.0
C2901 C 0.07788 0.89207 0.07781 0.0
C2902 C 0.07704 0.89269 0.09751 0.0
C2903 C 0.07977 0.87731 0.10619 0.0
C2904 C 0.07369 0.90845 0.06875 0.0
C2905 C 0.05813 0.91471 0.07285 0.0
C2906 C 0.08444 0.91794 0.05621 0.0
C2907 C 0.10101 0.91242 0.05078 0.0
C2908 C 0.11435 0.91221 0.06472 0.0
C2909 C 0.13006 0.90729 0.05939 0.0
C2910 C 0.13265 0.9027 0.04016 0.0
C2911 C 0.11952 0.90304 0.02621 0.0
C2912 C 0.10378 0.9079 0.03147 0.0
C2913 C 0.05453 0.99054 0.05792 0.0
C2914 C 0.05556 0.99469 0.03945 0.0
C2915 C 0.0572 0.97308 0.0622 0.0
C2916 C 0.06096 0.95867 0.04821 0.0
C2917 C 0.06184 0.96257 0.02952 0.0
C2918 C 0.05908 0.98029 0.02516 0.0
C2919 C 0.06443 0.94022 0.05377 0.0
C2920 C 0.07976 0.93363 0.04907 0.0
C2921 C 0.0533 0.92991 0.06531 0.0
C2922 C 0.03564 0.93351 0.06845 0.0
C2923 C 0.02265 0.92932 0.05306 0.0
C2924 C 0.00548 0.93113 0.05612 0.0
C2925 C 1.00133 0.93784 0.07441 0.0
C2926 C 0.01427 0.94223 0.08977 0.0
C2927 C 0.03134 0.93983 0.08687 0.0
H2928 H 0.98806 0.93947 0.07669 0.0
H2929 H 0.14484 0.89895 0.03607 0.0
H2930 H 0.95073 0.24458 0.90756 0.0
H2931 H 0.92522 0.24574 0.88633 0.0
H2932 H 0.95575 0.29531 0.86842 0.0
H2933 H 0.98148 0.29371 0.88919 0.0
H2934 H 0.9221 0.30048 0.87788 0.0
H2935 H 0.94543 0.25258 0.83881 0.0
H2936 H 0.95562 0.22238 0.83097 0.0
H2937 H 0.90453 0.19008 0.83884 0.0
H2938 H 0.89413 0.22013 0.84713 0.0
H2939 H 0.86224 0.3057 0.79971 0.0
H2940 H 0.88814 0.30261 0.81919 0.0
H2941 H 0.85734 0.25215 0.83535 0.0
H2942 H 0.8312 0.25579 0.81652 0.0
H2943 H 0.89083 0.24688 0.8269 0.0
H2944 H 0.86692 0.29237 0.86609 0.0
H2945 H 0.8554 0.32141 0.87586 0.0
H2946 H 0.90575 0.35696 0.87055 0.0
H2947 H 0.91745 0.32808 0.86021 0.0
C2948 C 0.95217 0.25545 0.89874 0.0
C2949 C 0.96843 0.26874 0.89982 0.0
C2950 C 0.93746 0.25618 0.8866 0.0
C2951 C 0.93829 0.27059 0.87548 0.0
C2952 C 0.95455 0.28394 0.87662 0.0
C2953 C 0.96941 0.2829 0.8884 0.0
C2954 C 0.92217 0.27202 0.86317 0.0
C2955 C 0.91552 0.28884 0.86652 0.0
C2956 C 0.91283 0.25668 0.84871 0.0
C2957 C 0.91908 0.23862 0.84384 0.0
C2958 C 0.93643 0.23905 0.83909 0.0
C2959 C 0.94223 0.22196 0.83453 0.0
C2960 C 0.93075 0.20433 0.83447 0.0
C2961 C 0.91343 0.20375 0.83894 0.0
C2962 C 0.90757 0.22081 0.84358 0.0
C2963 C 0.86097 0.29393 0.80741 0.0
C2964 C 0.84451 0.28105 0.80655 0.0
C2965 C 0.87585 0.29218 0.81865 0.0
C2966 C 0.87497 0.27715 0.82903 0.0
C2967 C 0.85862 0.26392 0.82766 0.0
C2968 C 0.84358 0.26603 0.81688 0.0
C2969 C 0.89094 0.27548 0.84141 0.0
C2970 C 0.8975 0.25858 0.83816 0.0
C2971 C 0.90002 0.29063 0.85619 0.0
C2972 C 0.89298 0.30804 0.86204 0.0
C2973 C 0.87547 0.30637 0.8667 0.0
C2974 C 0.86891 0.3228 0.87239 0.0
C2975 C 0.87981 0.34102 0.87373 0.0
C2976 C 0.8973 0.34283 0.86941 0.0
C2977 C 0.90389 0.32643 0.8636 0.0
H2978 H 0.87472 0.35374 0.87819 0.0
H2979 H 0.93526 0.1911 0.83091 0.0
H2980 H 0.59903 0.2561 0.56449 0.0
H2981 H 0.59254 0.22151 0.55366 0.0
H2982 H 0.54965 0.21526 0.58931 0.0
H2983 H 0.55655 0.25022 0.60083 0.0
H2984 H 0.56694 0.18969 0.59314 0.0
H2985 H 0.54504 0.20808 0.5364 0.0
H2986 H 0.5468 0.22575 0.5098 0.0
H2987 H 0.59003 0.20142 0.49073 0.0
H2988 H 0.58863 0.18376 0.51732 0.0
H2989 H 0.53731 0.09178 0.56597 0.0
H2990 H 0.53896 0.12568 0.56918 0.0
H2991 H 0.5762 0.12926 0.52692 0.0
H2992 H 0.57089 0.09398 0.52028 0.0
H2993 H 0.56257 0.15679 0.52589 0.0
H2994 H 0.58635 0.14039 0.58305 0.0
H2995 H 0.58459 0.1216 0.6088 0.0
H2996 H 0.53955 0.14286 0.62716 0.0
H2997 H 0.54096 0.16161 0.60141 0.0
C2998 C 0.58809 0.24751 0.57004 0.0
C2999 C 0.57834 0.25624 0.58367 0.0
C3000 C 0.58426 0.22753 0.56358 0.0
C3001 C 0.57031 0.21543 0.57021 0.0
C3002 C 0.56045 0.22409 0.58377 0.0
C3003 C 0.56442 0.24417 0.59043 0.0
C3004 C 0.56695 0.1938 0.56418 0.0
C3005 C 0.56572 0.18259 0.57837 0.0
C3006 C 0.56603 0.18418 0.54495 0.0
C3007 C 0.56683 0.19475 0.52895 0.0
C3008 C 0.55499 0.20661 0.5266 0.0
C3009 C 0.55591 0.2166 0.51151 0.0
C3010 C 0.56855 0.21476 0.49862 0.0
C3011 C 0.58026 0.20286 0.50074 0.0
C3012 C 0.57939 0.19283 0.5158 0.0
C3013 C 0.54595 0.09954 0.55722 0.0
C3014 C 0.55519 0.08984 0.5438 0.0
C3015 C 0.54715 0.11934 0.5594 0.0
C3016 C 0.55901 0.13084 0.54972 0.0
C3017 C 0.56753 0.12118 0.53542 0.0
C3018 C 0.56506 0.10089 0.53203 0.0
C3019 C 0.56243 0.15265 0.55492 0.0
C3020 C 0.56379 0.1639 0.54064 0.0
C3021 C 0.5638 0.16249 0.57413 0.0
C3022 C 0.56374 0.15232 0.59034 0.0
C3023 C 0.57616 0.14113 0.59268 0.0
C3024 C 0.57518 0.13044 0.60721 0.0
C3025 C 0.56196 0.13103 0.6196 0.0
C3026 C 0.54979 0.14244 0.61758 0.0
C3027 C 0.5507 0.15314 0.60306 0.0
H3028 H 0.56115 0.12264 0.63076 0.0
H3029 H 0.56925 0.22252 0.48696 0.0
H3030 H 0.5589 0.74495 0.38172 0.0
H3031 H 0.58693 0.74764 0.3669 0.0
H3032 H 0.60911 0.79972 0.40716 0.0
H3033 H 0.58147 0.79663 0.42249 0.0
H3034 H 0.61261 0.80224 0.36714 0.0
H3035 H 0.62549 0.76536 0.41288 0.0
H3036 H 0.62063 0.73841 0.43021 0.0
H3037 H 0.62023 0.69863 0.37826 0.0
H3038 H 0.62486 0.72538 0.36056 0.0
H3039 H 0.6993 0.8225 0.34242 0.0
H3040 H 0.67462 0.81475 0.3615 0.0
H3041 H 0.65971 0.75766 0.32766 0.0
H3042 H 0.68496 0.76533 0.30883 0.0
H3043 H 0.65223 0.75647 0.36435 0.0
H3044 H 0.63886 0.7939 0.31861 0.0
H3045 H 0.6446 0.82136 0.30196 0.0
H3046 H 0.64591 0.86039 0.35465 0.0
H3047 H 0.64038 0.83314 0.37164 0.0
C3048 C 0.56983 0.75684 0.38755 0.0
C3049 C 0.56788 0.77053 0.40336 0.0
C3050 C 0.58589 0.75836 0.37908 0.0
C3051 C 0.60028 0.77391 0.38583 0.0
C3052 C 0.59833 0.78756 0.40164 0.0
C3053 C 0.58249 0.78573 0.41046 0.0
C3054 C 0.61698 0.77653 0.37589 0.0
C3055 C 0.62133 0.79231 0.36675 0.0
C3056 C 0.62834 0.76347 0.3749 0.0
C3057 C 0.62527 0.74732 0.38536 0.0
C3058 C 0.62414 0.75084 0.40511 0.0
C3059 C 0.62149 0.73561 0.41502 0.0
C3060 C 0.62006 0.71681 0.40534 0.0
C3061 C 0.6213 0.7132 0.38573 0.0
C3062 C 0.62395 0.72839 0.37575 0.0
C3063 C 0.69104 0.80812 0.33933 0.0
C3064 C 0.69423 0.79454 0.32412 0.0
C3065 C 0.67674 0.80372 0.35017 0.0
C3066 C 0.66479 0.78572 0.34587 0.0
C3067 C 0.66854 0.77169 0.33136 0.0
C3068 C 0.68307 0.77605 0.3206 0.0
C3069 C 0.64791 0.78228 0.35562 0.0
C3070 C 0.64347 0.76635 0.36467 0.0
C3071 C 0.63638 0.7952 0.35657 0.0
C3072 C 0.63934 0.81154 0.34638 0.0
C3073 C 0.64044 0.80836 0.32663 0.0
C3074 C 0.64365 0.82387 0.31714 0.0
C3075 C 0.64565 0.84261 0.32724 0.0
C3076 C 0.64437 0.84587 0.34685 0.0
C3077 C 0.64117 0.8304 0.35641 0.0
H3078 H 0.64816 0.85462 0.31987 0.0
H3079 H 0.61804 0.70504 0.41304 0.0
H3080 H 0.08423 0.26162 0.39144 0.0
H3081 H 0.07925 0.23081 0.40261 0.0
H3082 H 0.09345 0.26139 0.46044 0.0
H3083 H 0.09871 0.29176 0.4495 0.0
H3084 H 0.10846 0.23199 0.45336 0.0
H3085 H 0.05136 0.24586 0.44321 0.0
H3086 H 0.02681 0.25258 0.42422 0.0
H3087 H 0.0201 0.19743 0.38782 0.0
H3088 H 0.04488 0.19053 0.4064 0.0
H3089 H 0.06603 0.18067 0.51858 0.0
H3090 H 0.0766 0.20295 0.49762 0.0
H3091 H 0.06176 0.15685 0.44893 0.0
H3092 H 0.05082 0.13445 0.46992 0.0
H3093 H 0.04889 0.18905 0.44513 0.0
H3094 H 0.10702 0.17675 0.46193 0.0
H3095 H 0.13235 0.1749 0.48337 0.0
H3096 H 0.13496 0.23248 0.51255 0.0
H3097 H 0.10984 0.23475 0.49125 0.0
C3098 C 0.08656 0.26161 0.40647 0.0
C3099 C 0.09173 0.27894 0.41968 0.0
C3100 C 0.08358 0.24412 0.4128 0.0
C3101 C 0.08588 0.24398 0.4323 0.0
C3102 C 0.09163 0.26127 0.44532 0.0
C3103 C 0.09455 0.27859 0.43907 0.0
C3104 C 0.0821 0.22604 0.4397 0.0
C3105 C 0.09546 0.2225 0.45149 0.0
C3106 C 0.06515 0.21376 0.43707 0.0
C3107 C 0.05017 0.21781 0.42598 0.0
C3108 C 0.04478 0.23524 0.43103 0.0
C3109 C 0.0308 0.23908 0.42036 0.0
C3110 C 0.02195 0.22548 0.40476 0.0
C3111 C 0.02702 0.20798 0.39986 0.0
C3112 C 0.04104 0.20411 0.41044 0.0
C3113 C 0.0651 0.1753 0.50342 0.0
C3114 C 0.0575 0.15597 0.49581 0.0
C3115 C 0.07132 0.18794 0.4915 0.0
C3116 C 0.07014 0.18143 0.4718 0.0
C3117 C 0.06288 0.16203 0.46414 0.0
C3118 C 0.05671 0.14931 0.47611 0.0
C3119 C 0.07519 0.19535 0.45927 0.0
C3120 C 0.06204 0.19814 0.44652 0.0
C3121 C 0.09212 0.20761 0.46167 0.0
C3122 C 0.1065 0.20581 0.47513 0.0
C3123 C 0.11287 0.18888 0.47309 0.0
C3124 C 0.12722 0.1878 0.48515 0.0
C3125 C 0.13515 0.20348 0.49937 0.0
C3126 C 0.12879 0.22032 0.50157 0.0
C3127 C 0.11455 0.22154 0.48948 0.0
H3128 H 0.14628 0.2026 0.50863 0.0
H3129 H 0.01113 0.22847 0.39652 0.0
H3130 H 0.57471 0.26713 0.14145 0.0
H3131 H 0.60192 0.26562 0.15892 0.0
H3132 H 0.57484 0.26153 0.20946 0.0
H3133 H 0.54753 0.26345 0.19222 0.0
H3134 H 0.60547 0.28745 0.21713 0.0
H3135 H 0.59463 0.21591 0.19096 0.0
H3136 H 0.58925 0.1861 0.16694 0.0
H3137 H 0.62093 0.21584 0.12944 0.0
H3138 H 0.62733 0.24556 0.15384 0.0
H3139 H 0.66924 0.25594 0.27076 0.0
H3140 H 0.64311 0.2607 0.25347 0.0
H3141 H 0.67102 0.26308 0.20323 0.0
H3142 H 0.69678 0.2571 0.22003 0.0
H3143 H 0.64055 0.23933 0.19528 0.0
H3144 H 0.66083 0.30354 0.22961 0.0
H3145 H 0.67199 0.3274 0.25881 0.0
H3146 H 0.62311 0.31055 0.28282 0.0
H3147 H 0.61185 0.28609 0.25395 0.0
C3148 C 0.5745 0.26593 0.15628 0.0
C3149 C 0.55896 0.26555 0.16546 0.0
C3150 C 0.59003 0.26482 0.16618 0.0
C3151 C 0.59029 0.26311 0.18536 0.0
C3152 C 0.57485 0.26277 0.19461 0.0
C3153 C 0.55929 0.26396 0.18475 0.0
C3154 C 0.60695 0.26285 0.196 0.0
C3155 C 0.61309 0.27684 0.21246 0.0
C3156 C 0.61713 0.24939 0.18969 0.0
C3157 C 0.61093 0.233 0.17387 0.0
C3158 C 0.60008 0.21615 0.1774 0.0
C3159 C 0.59711 0.19922 0.16386 0.0
C3160 C 0.6045 0.19913 0.14652 0.0
C3161 C 0.61505 0.21597 0.14278 0.0
C3162 C 0.61847 0.23282 0.15651 0.0
C3163 C 0.66975 0.25736 0.256 0.0
C3164 C 0.68497 0.25599 0.24669 0.0
C3165 C 0.65494 0.26041 0.24625 0.0
C3166 C 0.65527 0.2625 0.22718 0.0
C3167 C 0.67059 0.26161 0.218 0.0
C3168 C 0.6853 0.2583 0.22764 0.0
C3169 C 0.63917 0.26393 0.2163 0.0
C3170 C 0.63311 0.25017 0.19983 0.0
C3171 C 0.6292 0.27763 0.22266 0.0
C3172 C 0.63552 0.29295 0.23963 0.0
C3173 C 0.65247 0.30489 0.24113 0.0
C3174 C 0.65883 0.31848 0.25765 0.0
C3175 C 0.64825 0.32055 0.27265 0.0
C3176 C 0.63128 0.30898 0.27116 0.0
C3177 C 0.6249 0.29522 0.25473 0.0
H3178 H 0.6532 0.33112 0.28542 0.0
H3179 H 0.60216 0.18598 0.13604 0.0
H3180 H 0.59695 0.85899 0.93428 0.0
H3181 H 0.58819 0.88769 0.94917 0.0
H3182 H 0.59906 0.91303 0.89963 0.0
H3183 H 0.60709 0.88349 0.8838 0.0
H3184 H 0.61599 0.93216 0.9421 0.0
H3185 H 0.56216 0.9054 0.90098 0.0
H3186 H 0.53708 0.87937 0.8859 0.0
H3187 H 0.52007 0.87261 0.94075 0.0
H3188 H 0.54525 0.89834 0.95621 0.0
H3189 H 0.58095 0.01212 0.97257 0.0
H3190 H 0.59025 0.98434 0.95552 0.0
H3191 H 0.56445 0.94932 0.99344 0.0
H3192 H 0.55472 0.97723 0.01037 0.0
H3193 H 0.55458 0.93506 0.95526 0.0
H3194 H 0.60555 0.96136 0.99713 0.0
H3195 H 0.63109 0.98502 0.01465 0.0
H3196 H 0.65542 0.98842 0.96269 0.0
H3197 H 0.62928 0.96641 0.94456 0.0
C3198 C 0.59731 0.87049 0.92635 0.0
C3199 C 0.60242 0.86904 0.9078 0.0
C3200 C 0.59226 0.88677 0.93488 0.0
C3201 C 0.59271 0.90189 0.92513 0.0
C3202 C 0.59843 0.90102 0.90694 0.0
C3203 C 0.6031 0.88439 0.89811 0.0
C3204 C 0.58844 0.91909 0.93513 0.0
C3205 C 0.6026 0.93335 0.94463 0.0
C3206 C 0.57094 0.91925 0.93906 0.0
C3207 C 0.55573 0.90373 0.92977 0.0
C3208 C 0.55321 0.89822 0.90985 0.0
C3209 C 0.53894 0.88353 0.90123 0.0
C3210 C 0.52702 0.87429 0.91235 0.0
C3211 C 0.52933 0.87976 0.93214 0.0
C3212 C 0.54359 0.89441 0.94084 0.0
C3213 C 0.57747 0.99849 0.97731 0.0
C3214 C 0.56728 0.99642 0.99258 0.0
C3215 C 0.58284 0.98282 0.96775 0.0
C3216 C 0.57806 0.96513 0.97351 0.0
C3217 C 0.56824 0.96312 0.98911 0.0
C3218 C 0.56288 0.9789 0.99876 0.0
C3219 C 0.58219 0.94852 0.96204 0.0
C3220 C 0.568 0.93423 0.95251 0.0
C3221 C 0.59974 0.94808 0.95846 0.0
C3222 C 0.61519 0.96231 0.96935 0.0
C3223 C 0.61604 0.96761 0.98929 0.0
C3224 C 0.63064 0.98087 0.99937 0.0
C3225 C 0.64477 0.98849 0.98978 0.0
C3226 C 0.64429 0.98291 0.97009 0.0
C3227 C 0.6295 0.97018 0.95987 0.0
H3228 H 0.65617 0.99858 0.99761 0.0
H3229 H 0.51598 0.86294 0.90564 0.0
H3230 H 0.94587 0.73858 0.66092 0.0
H3231 H 0.91921 0.73884 0.67746 0.0
H3232 H 0.95017 0.77927 0.72486 0.0
H3233 H 0.97693 0.77756 0.70903 0.0
H3234 H 0.9263 0.75683 0.73766 0.0
H3235 H 0.92558 0.79063 0.6831 0.0
H3236 H 0.92424 0.79172 0.64883 0.0
H3237 H 0.87643 0.74794 0.63884 0.0
H3238 H 0.87763 0.74639 0.67296 0.0
H3239 H 0.85629 0.79033 0.78031 0.0
H3240 H 0.88377 0.79018 0.76513 0.0
H3241 H 0.85356 0.75533 0.71403 0.0
H3242 H 0.82654 0.75866 0.72799 0.0
H3243 H 0.87754 0.77533 0.70316 0.0
H3244 H 0.87652 0.73871 0.75422 0.0
H3245 H 0.87586 0.73449 0.78763 0.0
H3246 H 0.92381 0.7777 0.80299 0.0
H3247 H 0.92461 0.78233 0.76974 0.0
C3248 C 0.9469 0.74711 0.67508 0.0
C3249 C 0.96323 0.75807 0.68385 0.0
C3250 C 0.93172 0.74745 0.68439 0.0
C3251 C 0.93263 0.7596 0.7021 0.0
C3252 C 0.94914 0.76987 0.71116 0.0
C3253 C 0.9644 0.76891 0.70217 0.0
C3254 C 0.91651 0.76243 0.71098 0.0
C3255 C 0.91563 0.76093 0.73015 0.0
C3256 C 0.90237 0.76724 0.70101 0.0
C3257 C 0.9018 0.76829 0.68053 0.0
C3258 C 0.91485 0.78118 0.67356 0.0
C3259 C 0.91411 0.78187 0.65417 0.0
C3260 C 0.90028 0.76988 0.64166 0.0
C3261 C 0.88715 0.75719 0.64852 0.0
C3262 C 0.88786 0.7564 0.66787 0.0
C3263 C 0.85573 0.78339 0.7656 0.0
C3264 C 0.83955 0.77487 0.75507 0.0
C3265 C 0.87135 0.78284 0.75708 0.0
C3266 C 0.87083 0.77224 0.73858 0.0
C3267 C 0.85446 0.76373 0.72823 0.0
C3268 C 0.83898 0.76541 0.73627 0.0
C3269 C 0.88706 0.76936 0.72984 0.0
C3270 C 0.88806 0.77102 0.7107 0.0
C3271 C 0.90097 0.764 0.73965 0.0
C3272 C 0.90054 0.76097 0.75955 0.0
C3273 C 0.88688 0.74734 0.76475 0.0
C3274 C 0.88647 0.74489 0.78366 0.0
C3275 C 0.89976 0.75585 0.79743 0.0
C3276 C 0.91351 0.76924 0.79232 0.0
C3277 C 0.91395 0.77178 0.77346 0.0
H3278 H 0.89943 0.75393 0.81205 0.0
H3279 H 0.89973 0.77046 0.62667 0.0
H3280 H 0.17085 0.01567 0.84006 0.0
H3281 H 0.15602 0.01867 0.86939 0.0
H3282 H 0.10636 0.01135 0.83649 0.0
H3283 H 0.12142 0.0092 0.80722 0.0
H3284 H 0.10166 0.03239 0.86584 0.0
H3285 H 0.12231 0.97538 0.8645 0.0
H3286 H 0.14307 0.95377 0.8625 0.0
H3287 H 0.174 0.98894 0.91234 0.0
H3288 H 0.15353 0.0109 0.91448 0.0
H3289 H 0.05158 0.01665 0.94742 0.0
H3290 H 0.0654 0.01294 0.91741 0.0
H3291 H 0.11671 0.03133 0.94846 0.0
H3292 H 0.1029 0.03513 0.97847 0.0
H3293 H 0.11932 1.00366 0.91973 0.0
H3294 H 0.09543 0.06018 0.91983 0.0
H3295 H 0.07137 0.07765 0.92159 0.0
H3296 H 0.04275 0.03812 0.87289 0.0
H3297 H 0.06657 0.02026 0.87095 0.0
C3298 C 0.15676 0.01468 0.83889 0.0
C3299 C 0.1477 0.01213 0.82059 0.0
C3300 C 0.148 0.0162 0.85603 0.0
C3301 C 0.12946 0.01487 0.85613 0.0
C3302 C 0.12047 0.0125 0.83777 0.0
C3303 C 0.12927 0.01118 0.82063 0.0
C3304 C 0.11969 0.01608 0.87495 0.0
C3305 C 0.10563 0.0258 0.87736 0.0
C3306 C 0.12405 0.00779 0.89088 0.0
C3307 C 0.13654 0.99489 0.8895 0.0
C3308 C 0.13364 0.97859 0.87492 0.0
C3309 C 0.14533 0.96627 0.87379 0.0
C3310 C 0.15988 0.97002 0.88725 0.0
C3311 C 0.16275 0.98608 0.9019 0.0
C3312 C 0.15111 0.99847 0.90308 0.0
C3313 C 0.06583 0.01989 0.94809 0.0
C3314 C 0.07579 0.0262 0.96612 0.0
C3315 C 0.07392 0.01788 0.93053 0.0
C3316 C 0.09254 0.022 0.92978 0.0
C3317 C 0.10245 0.02794 0.94783 0.0
C3318 C 0.09438 0.03016 0.96535 0.0
C3319 C 0.10164 0.0202 0.91065 0.0
C3320 C 0.11551 0.01031 0.90818 0.0
C3321 C 0.09677 0.02787 0.89451 0.0
C3322 C 0.0827 0.03884 0.89533 0.0
C3323 C 0.08398 0.05519 0.90953 0.0
C3324 C 0.07039 0.06515 0.91057 0.0
C3325 C 0.05553 0.05898 0.8974 0.0
C3326 C 0.05426 0.04287 0.88309 0.0
C3327 C 0.06781 0.03284 0.882 0.0
H3328 H 0.045 0.0667 0.89826 0.0
H3329 H 0.16891 0.96044 0.88636 0.0
H3330 H 0.79643 0.37972 0.54973 0.0
H3331 H 0.79892 0.37041 0.5806 0.0
H3332 H 0.83752 0.42309 0.60215 0.0
H3333 H 0.8354 0.43221 0.57067 0.0
H3334 H 0.84696 0.38822 0.60811 0.0
H3335 H 0.79856 0.42009 0.61976 0.0
H3336 H 0.77163 0.42693 0.60536 0.0
H3337 H 0.74702 0.36678 0.59471 0.0
H3338 H 0.77389 0.35961 0.609 0.0
H3339 H 0.85079 0.36177 0.69522 0.0
H3340 H 0.84234 0.38226 0.67413 0.0
H3341 H 0.80453 0.33358 0.64162 0.0
H3342 H 0.8129 0.31305 0.6629 0.0
H3343 H 0.79489 0.37088 0.64393 0.0
H3344 H 0.84051 0.33743 0.62702 0.0
H3345 H 0.86778 0.32606 0.63227 0.0
H3346 H 0.89758 0.3844 0.64574 0.0
H3347 H 0.87037 0.39613 0.64092 0.0
C3348 C 0.80502 0.38951 0.56127 0.0
C3349 C 0.81544 0.40673 0.55834 0.0
C3350 C 0.80649 0.38422 0.57875 0.0
C3351 C 0.81814 0.39631 0.59353 0.0
C3352 C 0.8283 0.41385 0.59081 0.0
C3353 C 0.82689 0.41914 0.57312 0.0
C3354 C 0.81997 0.38981 0.61147 0.0
C3355 C 0.83586 0.38508 0.61646 0.0
C3356 C 0.80509 0.38492 0.62147 0.0
C3357 C 0.78808 0.38937 0.6157 0.0
C3358 C 0.78726 0.40839 0.61468 0.0
C3359 C 0.77207 0.4123 0.60641 0.0
C3360 C 0.7576 0.39731 0.59919 0.0
C3361 C 0.7582 0.37839 0.60045 0.0
C3362 C 0.77336 0.3744 0.60876 0.0
C3363 C 0.84021 0.35573 0.684 0.0
C3364 C 0.83251 0.33607 0.68033 0.0
C3365 C 0.83539 0.36734 0.67209 0.0
C3366 C 0.82302 0.35922 0.65641 0.0
C3367 C 0.81402 0.33995 0.65384 0.0
C3368 C 0.81882 0.3283 0.66584 0.0
C3369 C 0.8221 0.36978 0.64098 0.0
C3370 C 0.80628 0.37487 0.63623 0.0
C3371 C 0.837 0.37463 0.63088 0.0
C3372 C 0.85336 0.36766 0.634 0.0
C3373 C 0.85283 0.34784 0.63139 0.0
C3374 C 0.86829 0.34133 0.63421 0.0
C3375 C 0.88439 0.3545 0.63944 0.0
C3376 C 0.88508 0.37422 0.64178 0.0
C3377 C 0.86965 0.38081 0.63902 0.0
H3378 H 0.89635 0.34943 0.6416 0.0
H3379 H 0.74593 0.40034 0.59255 0.0
H3380 H 0.46654 0.05592 0.33896 0.0
H3381 H 0.48278 0.05004 0.36613 0.0
H3382 H 0.43398 0.03058 0.39013 0.0
H3383 H 0.41733 0.03646 0.36236 0.0
H3384 H 0.45765 0.06024 0.41263 0.0
H3385 H 0.45814 0.99878 0.37884 0.0
H3386 H 0.46001 0.97427 0.35105 0.0
H3387 H 0.51413 1.00146 0.34845 0.0
H3388 H 0.51254 0.02637 0.37601 0.0
H3389 H 0.50552 0.04605 0.48782 0.0
H3390 H 0.48698 0.04397 0.45999 0.0
H3391 H 0.53259 0.05929 0.4294 0.0
H3392 H 0.55191 0.05871 0.45771 0.0
H3393 H 0.50813 0.02801 0.41083 0.0
H3394 H 0.50542 0.09181 0.44346 0.0
H3395 H 0.50299 0.11431 0.4727 0.0
H3396 H 0.45182 0.08057 0.47806 0.0
H3397 H 0.45392 0.05787 0.44885 0.0
C3398 C 0.45925 0.0503 0.34998 0.0
C3399 C 0.44085 0.04679 0.34895 0.0
C3400 C 0.46848 0.04659 0.36523 0.0
C3401 C 0.4594 0.03931 0.37958 0.0
C3402 C 0.44096 0.03581 0.37874 0.0
C3403 C 0.4316 0.03953 0.36328 0.0
C3404 C 0.46978 0.03908 0.39678 0.0
C3405 C 0.46846 0.05287 0.4125 0.0
C3406 C 0.48398 0.02972 0.39599 0.0
C3407 C 0.4852 0.0145 0.37958 0.0
C3408 C 0.47043 0.99961 0.37232 0.0
C3409 C 0.47144 0.98563 0.35658 0.0
C3410 C 0.48718 0.9863 0.348 0.0
C3411 C 0.50195 1.00093 0.35515 0.0
C3412 C 0.50101 0.01497 0.37087 0.0
C3413 C 0.51183 0.04921 0.47541 0.0
C3414 C 0.53011 0.05216 0.47478 0.0
C3415 C 0.50112 0.04828 0.45949 0.0
C3416 C 0.50848 0.05212 0.44296 0.0
C3417 C 0.52686 0.05655 0.44236 0.0
C3418 C 0.5378 0.05648 0.45842 0.0
C3419 C 0.49636 0.04976 0.42626 0.0
C3420 C 0.49732 0.03537 0.41085 0.0
C3421 C 0.48174 0.05855 0.42728 0.0
C3422 C 0.47982 0.07319 0.44389 0.0
C3423 C 0.49359 0.08928 0.45078 0.0
C3424 C 0.49228 0.10203 0.46738 0.0
C3425 C 0.47726 0.09886 0.47723 0.0
C3426 C 0.46344 0.08301 0.4704 0.0
C3427 C 0.46462 0.07029 0.45373 0.0
H3428 H 0.47631 0.1087 0.49012 0.0
H3429 H 0.48793 0.97547 0.33581 0.0
H3430 H 0.79364 0.74762 0.05757 0.0
H3431 H 0.79634 0.75872 0.09164 0.0
H3432 H 0.81 0.70589 0.10041 0.0
H3433 H 0.8068 0.69426 0.06582 0.0
H3434 H 0.78607 0.71365 0.12288 0.0
H3435 H 0.84066 0.75129 0.11032 0.0
H3436 H 0.86061 0.77346 0.09438 0.0
H3437 H 0.83241 0.81763 0.11158 0.0
H3438 H 0.81214 0.79566 0.12741 0.0
H3439 H 0.80112 0.74862 0.22358 0.0
H3440 H 0.80178 0.73508 0.19003 0.0
H3441 H 0.79346 0.78793 0.17479 0.0
H3442 H 0.79426 0.80187 0.20852 0.0
H3443 H 0.81736 0.77879 0.15599 0.0
H3444 H 0.76043 0.73958 0.16447 0.0
H3445 H 0.73979 0.7168 0.17921 0.0
H3446 H 0.77267 0.67591 0.16949 0.0
H3447 H 0.79335 0.69834 0.1545 0.0
C3448 C 0.79738 0.73828 0.0666 0.0
C3449 C 0.79984 0.71987 0.05874 0.0
C3450 C 0.7991 0.74482 0.08626 0.0
C3451 C 0.80359 0.73334 0.09882 0.0
C3452 C 0.80655 0.71511 0.09109 0.0
C3453 C 0.80477 0.70847 0.07127 0.0
C3454 C 0.80372 0.73986 0.11987 0.0
C3455 C 0.7932 0.72779 0.13017 0.0
C3456 C 0.81262 0.7585 0.12948 0.0
C3457 C 0.82479 0.77175 0.11993 0.0
C3458 C 0.83863 0.76568 0.11058 0.0
C3459 C 0.85001 0.77823 0.10159 0.0
C3460 C 0.84775 0.79693 0.10193 0.0
C3461 C 0.83413 0.80314 0.11131 0.0
C3462 C 0.82271 0.79065 0.12032 0.0
C3463 C 0.79878 0.75705 0.21298 0.0
C3464 C 0.79699 0.77608 0.21862 0.0
C3465 C 0.79919 0.74931 0.19369 0.0
C3466 C 0.79739 0.76025 0.1795 0.0
C3467 C 0.79491 0.77905 0.18523 0.0
C3468 C 0.79504 0.78696 0.20453 0.0
C3469 C 0.79927 0.75275 0.15893 0.0
C3470 C 0.81025 0.76464 0.14874 0.0
C3471 C 0.79076 0.73397 0.14937 0.0
C3472 C 0.77848 0.72067 0.15859 0.0
C3473 C 0.76328 0.72577 0.16561 0.0
C3474 C 0.75157 0.71291 0.17395 0.0
C3475 C 0.755 0.695 0.17544 0.0
C3476 C 0.77006 0.68981 0.16841 0.0
C3477 C 0.78173 0.70254 0.15991 0.0
H3478 H 0.74594 0.6851 0.18197 0.0
H3479 H 0.85658 0.80661 0.09496 0.0
H3480 H 0.16345 0.02137 0.70449 0.0
H3481 H 0.1502 0.02495 0.67365 0.0
H3482 H 0.09885 0.99925 0.68791 0.0
H3483 H 0.11208 0.99558 0.71848 0.0
H3484 H 0.09643 0.98921 0.6512 0.0
H3485 H 0.11475 0.05014 0.68992 0.0
H3486 H 0.13463 0.07751 0.71118 0.0
H3487 H 0.16841 0.08547 0.66651 0.0
H3488 H 0.14886 0.05791 0.64505 0.0
H3489 H 0.0511 0.02409 0.57629 0.0
H3490 H 0.06224 0.01906 0.60757 0.0
H3491 H 0.11551 0.03973 0.59515 0.0
H3492 H 0.10443 0.04458 0.56416 0.0
H3493 H 0.11502 0.05229 0.63178 0.0
H3494 H 0.09459 0.98655 0.59449 0.0
H3495 H 0.07091 0.96207 0.57441 0.0
H3496 H 0.03608 0.96801 0.61835 0.0
H3497 H 0.05981 0.99179 0.63902 0.0
C3498 C 0.14944 0.01576 0.70089 0.0
C3499 C 0.13922 0.00749 0.71438 0.0
C3500 C 0.14161 0.01822 0.68309 0.0
C3501 C 0.12307 0.01273 0.67772 0.0
C3502 C 0.11304 1.00375 0.6909 0.0
C3503 C 0.12081 1.00146 0.70866 0.0
C3504 C 0.11418 0.01705 0.65919 0.0
C3505 C 0.10063 1.00313 0.64723 0.0
C3506 C 0.11872 0.03519 0.65324 0.0
C3507 C 0.13047 0.05183 0.66595 0.0
C3508 C 0.12649 0.05764 0.68467 0.0
C3509 C 0.13769 0.07319 0.69675 0.0
C3510 C 0.15281 0.08318 0.69021 0.0
C3511 C 0.15672 0.07768 0.67156 0.0
C3512 C 0.14558 0.0621 0.65942 0.0
C3513 C 0.06518 0.02794 0.58029 0.0
C3514 C 0.07668 0.03511 0.56724 0.0
C3515 C 0.07172 0.02472 0.59835 0.0
C3516 C 0.09011 0.02854 0.60439 0.0
C3517 C 0.10138 0.03638 0.59155 0.0
C3518 C 0.09491 0.03927 0.57352 0.0
C3519 C 0.09783 0.0243 0.62351 0.0
C3520 C 0.11105 0.0383 0.63566 0.0
C3521 C 0.09262 0.00647 0.62989 0.0
C3522 C 0.07898 0.9908 0.61831 0.0
C3523 C 0.08198 0.98228 0.6 0.0
C3524 C 0.06858 0.96844 0.58856 0.0
C3525 C 0.05209 0.96312 0.59524 0.0
C3526 C 0.04899 0.97168 0.61338 0.0
C3527 C 0.06245 0.98521 0.62504 0.0
H3528 H 0.04167 0.95253 0.58631 0.0
H3529 H 0.16147 0.09522 0.69958 0.0
H3530 H 0.81919 0.38099 0.47376 0.0
H3531 H 0.82805 0.36411 0.44545 0.0
H3532 H 0.82878 0.41309 0.41839 0.0
H3533 H 0.82063 0.43095 0.44766 0.0
H3534 H 0.8014 0.38071 0.40606 0.0
H3535 H 0.8644 0.39428 0.41851 0.0
H3536 H 0.89252 0.39721 0.43751 0.0
H3537 H 0.87891 0.33706 0.4396 0.0
H3538 H 0.85058 0.3338 0.42092 0.0
H3539 H 0.80406 0.33485 0.31684 0.0
H3540 H 0.80964 0.35471 0.34789 0.0
H3541 H 0.81742 0.30612 0.3724 0.0
H3542 H 0.81422 0.28646 0.34008 0.0
H3543 H 0.84196 0.33778 0.38683 0.0
H3544 H 0.77935 0.3233 0.37674 0.0
H3545 H 0.75094 0.31861 0.35767 0.0
H3546 H 0.76216 0.37839 0.35381 0.0
H3547 H 0.79079 0.38338 0.37249 0.0
C3548 C 0.82192 0.38863 0.46217 0.0
C3549 C 0.81896 0.4072 0.46273 0.0
C3550 C 0.82729 0.37898 0.44606 0.0
C3551 C 0.8292 0.38749 0.43006 0.0
C3552 C 0.82758 0.40656 0.4309 0.0
C3553 C 0.82254 0.4165 0.44734 0.0
C3554 C 0.82689 0.3745 0.41183 0.0
C3555 C 0.81047 0.37165 0.40152 0.0
C3556 C 0.83821 0.36186 0.40708 0.0
C3557 C 0.8553 0.36382 0.41833 0.0
C3558 C 0.86733 0.3817 0.42314 0.0
C3559 C 0.88333 0.38341 0.43384 0.0
C3560 C 0.8875 0.36734 0.43976 0.0
C3561 C 0.87568 0.3495 0.43499 0.0
C3562 C 0.85966 0.34771 0.42432 0.0
C3563 C 0.80738 0.32846 0.32876 0.0
C3564 C 0.80959 0.30955 0.32627 0.0
C3565 C 0.81011 0.33969 0.34655 0.0
C3566 C 0.81359 0.33172 0.36237 0.0
C3567 C 0.8147 0.31236 0.36017 0.0
C3568 C 0.81272 0.30119 0.34196 0.0
C3569 C 0.81668 0.34438 0.3809 0.0
C3570 C 0.83299 0.34694 0.39138 0.0
C3571 C 0.80501 0.35645 0.38633 0.0
C3572 C 0.78725 0.35371 0.37608 0.0
C3573 C 0.77575 0.33546 0.37186 0.0
C3574 C 0.75963 0.33274 0.36106 0.0
C3575 C 0.75474 0.3482 0.35455 0.0
C3576 C 0.76594 0.36643 0.3589 0.0
C3577 C 0.7821 0.36923 0.36964 0.0
H3578 H 0.74228 0.34604 0.34612 0.0
H3579 H 0.8999 0.36869 0.44803 0.0
H3580 H 0.46824 0.02743 0.25573 0.0
H3581 H 0.47499 0.03061 0.22375 0.0
H3582 H 0.42337 0.04094 0.21107 0.0
H3583 H 0.41619 0.03762 0.24336 0.0
H3584 H 0.43825 0.01194 0.18395 0.0
H3585 H 0.45217 0.07841 0.21685 0.0
H3586 H 0.46433 0.10179 0.24619 0.0
H3587 H 0.51505 0.08797 0.24066 0.0
H3588 H 0.50316 0.06431 0.21148 0.0
H3589 H 0.48858 0.01785 0.10412 0.0
H3590 H 0.46775 0.02781 0.1262 0.0
H3591 H 0.50734 0.03572 0.17324 0.0
H3592 H 0.52802 0.02575 0.15127 0.0
H3593 H 0.48938 0.0636 0.17767 0.0
H3594 H 0.48032 0.99589 0.15814 0.0
H3595 H 0.47264 0.96363 0.13825 0.0
H3596 H 0.41913 0.96891 0.12889 0.0
H3597 H 0.42679 1.00193 0.14755 0.0
C3598 C 0.45821 0.03024 0.2462 0.0
C3599 C 0.44176 0.03249 0.25207 0.0
C3600 C 0.46213 0.03214 0.22802 0.0
C3601 C 0.44975 0.03646 0.21554 0.0
C3602 C 0.43304 0.03791 0.22087 0.0
C3603 C 0.42905 0.03601 0.23921 0.0
C3604 C 0.4548 0.03921 0.19685 0.0
C3605 C 0.44887 0.0236 0.18197 0.0
C3606 C 0.46917 0.05415 0.19525 0.0
C3607 C 0.47679 0.06974 0.21178 0.0
C3608 C 0.46596 0.08049 0.22179 0.0
C3609 C 0.47278 0.09372 0.23845 0.0
C3610 C 0.49046 0.09642 0.24524 0.0
C3611 C 0.50138 0.08596 0.23532 0.0
C3612 C 0.49462 0.07269 0.21866 0.0
C3613 C 0.49273 0.02185 0.1192 0.0
C3614 C 0.5096 0.02076 0.1263 0.0
C3615 C 0.48096 0.02765 0.13166 0.0
C3616 C 0.48613 0.03248 0.15119 0.0
C3617 C 0.50325 0.03215 0.15813 0.0
C3618 C 0.51491 0.02618 0.14573 0.0
C3619 C 0.47336 0.03576 0.16488 0.0
C3620 C 0.4779 0.05256 0.1788 0.0
C3621 C 0.45855 0.02109 0.16629 0.0
C3622 C 0.45434 1.00184 0.15364 0.0
C3623 C 0.46709 0.99059 0.15122 0.0
C3624 C 0.46271 0.97208 0.1402 0.0
C3625 C 0.44545 0.96432 0.13208 0.0
C3626 C 0.43256 0.97507 0.13494 0.0
C3627 C 0.43697 0.99379 0.14552 0.0
H3628 H 0.44203 0.94991 0.12373 0.0
H3629 H 0.49569 0.10658 0.25822 0.0
H3630 H 0.82765 0.71446 0.96248 0.0
H3631 H 0.83157 0.7296 0.93441 0.0
H3632 H 0.77531 0.7137 0.91949 0.0
H3633 H 0.77153 0.69822 0.94739 0.0
H3634 H 0.79076 0.70588 0.88917 0.0
H3635 H 0.79941 0.76172 0.93892 0.0
H3636 H 0.81261 0.78511 0.96793 0.0
H3637 H 0.86289 0.79372 0.94507 0.0
H3638 H 0.85005 0.77021 0.91604 0.0
H3639 H 0.78449 0.77738 0.8308 0.0
H3640 H 0.78593 0.76532 0.86064 0.0
H3641 H 0.83381 0.74734 0.84662 0.0
H3642 H 0.83154 0.75795 0.81585 0.0
H3643 H 0.82458 0.77232 0.89065 0.0
H3644 H 0.81557 0.71396 0.84158 0.0
H3645 H 0.80093 0.69433 0.81115 0.0
H3646 H 0.75042 0.69224 0.83299 0.0
H3647 H 0.7648 0.71244 0.86337 0.0
C3648 C 0.81616 0.71422 0.95314 0.0
C3649 C 0.7993 0.70507 0.95695 0.0
C3650 C 0.81838 0.72303 0.93718 0.0
C3651 C 0.80374 0.72305 0.92478 0.0
C3652 C 0.78686 0.71392 0.92873 0.0
C3653 C 0.78466 0.70505 0.94465 0.0
C3654 C 0.80597 0.7317 0.90725 0.0
C3655 C 0.79814 0.72044 0.88967 0.0
C3656 C 0.81588 0.75064 0.90752 0.0
C3657 C 0.82381 0.76397 0.92542 0.0
C3658 C 0.81334 0.76837 0.94021 0.0
C3659 C 0.82074 0.78172 0.95662 0.0
C3660 C 0.83859 0.79084 0.95837 0.0
C3661 C 0.84908 0.7866 0.94373 0.0
C3662 C 0.84175 0.77326 0.9273 0.0
C3663 C 0.79519 0.77062 0.83396 0.0
C3664 C 0.80756 0.7679 0.82078 0.0
C3665 C 0.79611 0.76395 0.8511 0.0
C3666 C 0.8098 0.75516 0.8557 0.0
C3667 C 0.82296 0.75379 0.84318 0.0
C3668 C 0.82168 0.75982 0.82566 0.0
C3669 C 0.80955 0.74639 0.873 0.0
C3670 C 0.81753 0.75766 0.89038 0.0
C3671 C 0.79989 0.7275 0.87263 0.0
C3672 C 0.79124 0.71501 0.85459 0.0
C3673 C 0.80133 0.70958 0.83978 0.0
C3674 C 0.79309 0.69832 0.82256 0.0
C3675 C 0.77474 0.69213 0.8201 0.0
C3676 C 0.76462 0.69713 0.83489 0.0
C3677 C 0.77282 0.70852 0.85209 0.0
H3678 H 0.76837 0.68338 0.80676 0.0
H3679 H 0.84427 0.80123 0.97105 0.0
H3680 H 0.8461 0.15104 0.02879 0.0
H3681 H 0.87111 0.13591 0.02553 0.0
H3682 H 0.83708 0.08065 0.02558 0.0
H3683 H 0.81165 0.09572 0.02868 0.0
H3684 H 0.86901 0.08953 0.0494 0.0
H3685 H 0.84886 0.08884 0.98484 0.0
H3686 H 0.8392 0.10313 0.95837 0.0
H3687 H 0.88939 0.14289 0.96481 0.0
H3688 H 0.89927 0.12898 0.99148 0.0
H3689 H 0.92309 0.0288 0.01055 0.0
H3690 H 0.90059 0.04648 0.02038 0.0
H3691 H 0.93489 0.09926 0.01285 0.0
H3692 H 0.9575 0.08144 0.00289 0.0
H3693 H 0.9032 0.09295 0.9932 0.0
H3694 H 0.92312 0.09468 0.05803 0.0
H3695 H 0.93167 0.08357 0.08711 0.0
H3696 H 0.88161 0.04363 0.08134 0.0
H3697 H 0.87283 0.05446 0.05219 0.0
C3698 C 0.8439 0.13569 0.02835 0.0
C3699 C 0.82696 0.12448 0.02898 0.0
C3700 C 0.85818 0.1271 0.02631 0.0
C3701 C 0.85571 0.10724 0.02494 0.0
C3702 C 0.83901 0.09604 0.02644 0.0
C3703 C 0.82462 0.10464 0.02835 0.0
C3704 C 0.87082 0.09834 0.02233 0.0
C3705 C 0.87636 0.08991 0.03699 0.0
C3706 C 0.88059 0.09969 0.00642 0.0
C3707 C 0.87475 0.10796 0.99025 0.0
C3708 C 0.85779 0.10072 0.9807 0.0
C3709 C 0.85228 0.10873 0.96564 0.0
C3710 C 0.86366 0.12394 0.95994 0.0
C3711 C 0.88059 0.13112 0.96924 0.0
C3712 C 0.88616 0.12315 0.98431 0.0
C3713 C 0.92588 0.04422 0.01134 0.0
C3714 C 0.9418 0.05381 0.00585 0.0
C3715 C 0.91315 0.05433 0.01711 0.0
C3716 C 0.91617 0.07416 0.01744 0.0
C3717 C 0.93242 0.08395 0.01276 0.0
C3718 C 0.94527 0.07383 0.00713 0.0
C3719 C 0.9015 0.08395 0.02036 0.0
C3720 C 0.89594 0.09254 0.00567 0.0
C3721 C 0.89168 0.0828 0.03628 0.0
C3722 C 0.89744 0.0752 0.05285 0.0
C3723 C 0.91408 0.08331 0.0628 0.0
C3724 C 0.91891 0.07714 0.07936 0.0
C3725 C 0.90721 0.06286 0.08604 0.0
C3726 C 0.89067 0.05466 0.07614 0.0
C3727 C 0.88576 0.06081 0.05962 0.0
H3728 H 0.91094 0.05819 0.09892 0.0
H3729 H 0.85936 0.13014 0.94829 0.0
H3730 H 0.3763 0.39818 0.04584 0.0
H3731 H 0.40481 0.42055 0.04819 0.0
H3732 H 0.3795 0.46175 0.02765 0.0
H3733 H 0.35063 0.43924 0.02545 0.0
H3734 H 0.40842 0.4567 0.00855 0.0
H3735 H 0.39724 0.46955 0.07411 0.0
H3736 H 0.39012 0.46225 0.10551 0.0
H3737 H 0.43517 0.43696 0.10894 0.0
H3738 H 0.44241 0.44386 0.07744 0.0
H3739 H 0.48712 0.53246 0.02605 0.0
H3740 H 0.45714 0.51382 0.02762 0.0
H3741 H 0.47876 0.46806 0.04374 0.0
H3742 H 0.50868 0.48634 0.04148 0.0
H3743 H 0.45131 0.47685 0.06587 0.0
H3744 H 0.46184 0.46101 1.00127 0.0
H3745 H 0.46931 0.4653 0.96913 0.0
H3746 H 0.42626 0.49317 0.96312 0.0
H3747 H 0.41864 0.48921 0.99537 0.0
C3748 C 0.3767 0.41208 0.04199 0.0
C3749 C 0.36107 0.41681 0.03537 0.0
C3750 C 0.3931 0.42497 0.04345 0.0
C3751 C 0.39451 0.44301 0.0382 0.0
C3752 C 0.37888 0.44797 0.03186 0.0
C3753 C 0.36232 0.43513 0.03069 0.0
C3754 C 0.41237 0.45602 0.03832 0.0
C3755 C 0.41761 0.46148 0.02123 0.0
C3756 C 0.42484 0.46165 0.05459 0.0
C3757 C 0.42026 0.45705 0.07332 0.0
C3758 C 0.40551 0.46223 0.08146 0.0
C3759 C 0.40148 0.45822 0.0993 0.0
C3760 C 0.41215 0.44911 0.10919 0.0
C3761 C 0.42689 0.44399 0.10125 0.0
C3762 C 0.43097 0.44796 0.08341 0.0
C3763 C 0.48549 0.51855 0.03019 0.0
C3764 C 0.50035 0.511 0.03384 0.0
C3765 C 0.46831 0.50781 0.03093 0.0
C3766 C 0.46555 0.48942 0.03575 0.0
C3767 C 0.48043 0.48215 0.03998 0.0
C3768 C 0.49756 0.49264 0.03872 0.0
C3769 C 0.44722 0.4777 0.03617 0.0
C3770 C 0.44199 0.47234 0.05328 0.0
C3771 C 0.43485 0.4719 0.01987 0.0
C3772 C 0.43988 0.47515 1.00088 0.0
C3773 C 0.45416 0.46837 0.99324 0.0
C3774 C 0.45838 0.47067 0.97497 0.0
C3775 C 0.44836 0.47965 0.96414 0.0
C3776 C 0.43408 0.48632 0.97156 0.0
C3777 C 0.4298 0.48405 0.98984 0.0
H3778 H 0.45162 0.48136 0.94996 0.0
H3779 H 0.40903 0.44605 0.12303 0.0
H3780 H 0.43158 0.64107 0.77006 0.0
H3781 H 0.41637 0.66717 0.76818 0.0
H3782 H 0.36887 0.6325 0.78284 0.0
H3783 H 0.38372 0.60586 0.78265 0.0
H3784 H 0.35476 0.65151 0.76839 0.0
H3785 H 0.40587 0.68443 0.81017 0.0
H3786 H 0.4371 0.69774 0.82209 0.0
H3787 H 0.44443 0.72771 0.77539 0.0
H3788 H 0.41332 0.7143 0.763 0.0
H3789 H 0.3134 0.7362 0.7869 0.0
H3790 H 0.32893 0.71017 0.79005 0.0
H3791 H 0.3658 0.73071 0.75185 0.0
H3792 H 0.34982 0.75558 0.74774 0.0
H3793 H 0.38497 0.7201 0.77939 0.0
H3794 H 0.33142 0.68622 0.74012 0.0
H3795 H 0.29948 0.6734 0.73195 0.0
H3796 H 0.29665 0.64706 0.78132 0.0
H3797 H 0.32857 0.6598 0.78982 0.0
C3798 C 0.41786 0.63883 0.77293 0.0
C3799 C 0.40934 0.62055 0.77654 0.0
C3800 C 0.40889 0.65437 0.77217 0.0
C3801 C 0.39083 0.65332 0.77589 0.0
C3802 C 0.38249 0.63496 0.77968 0.0
C3803 C 0.39126 0.61923 0.77973 0.0
C3804 C 0.38052 0.67039 0.77532 0.0
C3805 C 0.3618 0.6664 0.7713 0.0
C3806 C 0.38844 0.69072 0.77861 0.0
C3807 C 0.40733 0.69809 0.78549 0.0
C3808 C 0.41419 0.69367 0.80232 0.0
C3809 C 0.43187 0.70126 0.80917 0.0
C3810 C 0.44276 0.7135 0.79946 0.0
C3811 C 0.436 0.71815 0.78285 0.0
C3812 C 0.41836 0.71052 0.77588 0.0
C3813 C 0.32456 0.73517 0.77881 0.0
C3814 C 0.32955 0.74861 0.7666 0.0
C3815 C 0.33377 0.71995 0.78071 0.0
C3816 C 0.34906 0.71746 0.77113 0.0
C3817 C 0.35432 0.73136 0.7596 0.0
C3818 C 0.34485 0.746 0.75721 0.0
C3819 C 0.35953 0.70094 0.77279 0.0
C3820 C 0.37819 0.70509 0.7768 0.0
C3821 C 0.35156 0.68087 0.77027 0.0
C3822 C 0.33231 0.67408 0.76567 0.0
C3823 C 0.32394 0.67786 0.74933 0.0
C3824 C 0.30587 0.67051 0.74458 0.0
C3825 C 0.29607 0.65935 0.75606 0.0
C3826 C 0.30427 0.65565 0.7724 0.0
C3827 C 0.32234 0.66291 0.77718 0.0
H3828 H 0.28208 0.65364 0.75234 0.0
H3829 H 0.45641 0.71944 0.80484 0.0
H3830 H 0.24249 0.61058 0.52947 0.0
H3831 H 0.21337 0.59371 0.53521 0.0
H3832 H 0.18932 0.62441 0.49836 0.0
H3833 H 0.21846 0.64175 0.49282 0.0
H3834 H 0.17567 0.62622 0.53209 0.0
H3835 H 0.19037 0.57774 0.48437 0.0
H3836 H 0.20664 0.55417 0.46949 0.0
H3837 H 0.20046 0.52526 0.51704 0.0
H3838 H 0.18441 0.54887 0.53234 0.0
H3839 H 0.09121 0.57715 0.49984 0.0
H3840 H 0.12176 0.5938 0.50762 0.0
H3841 H 0.13067 0.55005 0.53892 0.0
H3842 H 0.10061 0.53162 0.52775 0.0
H3843 H 0.15382 0.55548 0.51775 0.0
H3844 H 0.13193 0.60188 0.56086 0.0
H3845 H 0.11135 0.623 0.56975 0.0
H3846 H 0.12759 0.6545 0.52587 0.0
H3847 H 0.14817 0.63363 0.51665 0.0
C3848 C 0.23103 0.61344 0.52221 0.0
C3849 C 0.23269 0.62747 0.51066 0.0
C3850 C 0.21444 0.60386 0.52561 0.0
C3851 C 0.19936 0.60796 0.51726 0.0
C3852 C 0.20094 0.62128 0.50505 0.0
C3853 C 0.21752 0.63103 0.50178 0.0
C3854 C 0.18185 0.59884 0.52169 0.0
C3855 C 0.17079 0.61074 0.52904 0.0
C3856 C 0.17591 0.5787 0.51833 0.0
C3857 C 0.18654 0.5653 0.50968 0.0
C3858 C 0.19279 0.56659 0.49182 0.0
C3859 C 0.20189 0.55316 0.48327 0.0
C3860 C 0.20468 0.53829 0.49237 0.0
C3861 C 0.19839 0.53684 0.51006 0.0
C3862 C 0.18933 0.55026 0.51869 0.0
C3863 C 0.09976 0.57122 0.50845 0.0
C3864 C 0.09377 0.55363 0.51401 0.0
C3865 C 0.11706 0.581 0.51338 0.0
C3866 C 0.12828 0.57378 0.52482 0.0
C3867 C 0.12206 0.55618 0.53059 0.0
C3868 C 0.10496 0.54582 0.52459 0.0
C3869 C 0.14716 0.58278 0.5275 0.0
C3870 C 0.15871 0.57092 0.52164 0.0
C3871 C 0.15337 0.60298 0.53189 0.0
C3872 C 0.14168 0.61623 0.53816 0.0
C3873 C 0.13115 0.61336 0.55317 0.0
C3874 C 0.11945 0.62525 0.55823 0.0
C3875 C 0.11816 0.64004 0.54839 0.0
C3876 C 0.12865 0.64308 0.53354 0.0
C3877 C 0.14041 0.6313 0.52846 0.0
H3878 H 0.10902 0.64914 0.55227 0.0
H3879 H 0.21164 0.52784 0.48566 0.0
H3880 H 0.69631 0.9767 0.70941 0.0
H3881 H 0.7123 0.95188 0.71536 0.0
H3882 H 0.7372 0.98876 0.76799 0.0
H3883 H 0.72265 0.01362 0.76127 0.0
H3884 H 0.76001 0.97395 0.75113 0.0
H3885 H 0.70028 0.95099 0.76733 0.0
H3886 H 0.668 0.94151 0.75962 0.0
H3887 H 0.67435 0.89755 0.71372 0.0
H3888 H 0.70669 0.90683 0.7212 0.0
H3889 H 0.77311 0.91439 0.81779 0.0
H3890 H 0.75485 0.93083 0.80047 0.0
H3891 H 0.76931 0.9034 0.74722 0.0
H3892 H 0.78837 0.88784 0.76422 0.0
H3893 H 0.72712 0.90936 0.75823 0.0
H3894 H 0.79119 0.93774 0.7482 0.0
H3895 H 0.82195 0.95168 0.76171 0.0
H3896 H 0.80406 0.99038 0.80477 0.0
H3897 H 0.7732 0.9765 0.79157 0.0
C3898 C 0.70567 0.97945 0.72184 0.0
C3899 C 0.70889 0.99693 0.73463 0.0
C3900 C 0.71454 0.96536 0.72535 0.0
C3901 C 0.72588 0.96864 0.74205 0.0
C3902 C 0.72881 0.98617 0.75481 0.0
C3903 C 0.72058 1.00033 0.75096 0.0
C3904 C 0.7347 0.954 0.74696 0.0
C3905 C 0.75282 0.95974 0.75244 0.0
C3906 C 0.72522 0.93564 0.74885 0.0
C3907 C 0.70583 0.92965 0.74473 0.0
C3908 C 0.69476 0.9393 0.7556 0.0
C3909 C 0.67647 0.93398 0.75128 0.0
C3910 C 0.66913 0.91896 0.73616 0.0
C3911 C 0.68006 0.90917 0.72543 0.0
C3912 C 0.69835 0.91442 0.72973 0.0
C3913 C 0.77243 0.91192 0.80242 0.0
C3914 C 0.78216 0.8999 0.79236 0.0
C3915 C 0.76181 0.92098 0.79261 0.0
C3916 C 0.76072 0.91787 0.77275 0.0
C3917 C 0.7699 0.9055 0.7626 0.0
C3918 C 0.78075 0.89671 0.77235 0.0
C3919 C 0.75214 0.92974 0.76276 0.0
C3920 C 0.73424 0.92338 0.75633 0.0
C3921 C 0.76153 0.94804 0.7609 0.0
C3922 C 0.77998 0.95596 0.76906 0.0
C3923 C 0.79385 0.94906 0.76067 0.0
C3924 C 0.81128 0.95699 0.76823 0.0
C3925 C 0.81495 0.97187 0.78412 0.0
C3926 C 0.8012 0.97883 0.7925 0.0
C3927 C 0.78375 0.97095 0.78499 0.0
H3928 H 0.82846 0.97802 0.78991 0.0
H3929 H 0.65497 0.9149 0.73279 0.0
H3930 H 0.74484 0.8893 0.51889 0.0
H3931 H 0.71924 0.90367 0.51666 0.0
H3932 H 0.74864 0.95627 0.55195 0.0
H3933 H 0.77446 0.94193 0.55422 0.0
H3934 H 0.71371 0.94669 0.56079 0.0
H3935 H 0.74474 0.9519 0.50474 0.0
H3936 H 0.75796 0.93968 0.47599 0.0
H3937 H 0.70758 0.90431 0.45226 0.0
H3938 H 0.69413 0.91604 0.48106 0.0
H3939 H 0.66403 0.01266 0.53644 0.0
H3940 H 0.68573 0.99427 0.5439 0.0
H3941 H 0.65898 0.94658 0.50023 0.0
H3942 H 0.63784 0.96549 0.49222 0.0
H3943 H 0.69156 0.95204 0.49619 0.0
H3944 H 0.65963 0.94617 0.55033 0.0
H3945 H 0.6451 0.95792 0.57825 0.0
H3946 H 0.69477 0.99261 0.60495 0.0
H3947 H 0.70959 0.98126 0.57705 0.0
C3948 C 0.74584 0.90384 0.52643 0.0
C3949 C 0.76178 0.91448 0.5367 0.0
C3950 C 0.73117 0.91208 0.52505 0.0
C3951 C 0.73203 0.93115 0.53394 0.0
C3952 C 0.74765 0.94154 0.54492 0.0
C3953 C 0.76242 0.93335 0.54618 0.0
C3954 C 0.717 0.94053 0.53091 0.0
C3955 C 0.70895 0.94802 0.54668 0.0
C3956 C 0.71039 0.94177 0.51247 0.0
C3957 C 0.71848 0.93467 0.49517 0.0
C3958 C 0.73652 0.94136 0.49349 0.0
C3959 C 0.74405 0.93454 0.47717 0.0
C3960 C 0.73363 0.92117 0.46234 0.0
C3961 C 0.71564 0.91462 0.46378 0.0
C3962 C 0.70807 0.92134 0.48011 0.0
C3963 C 0.66259 0.99807 0.52881 0.0
C3964 C 0.64922 0.99035 0.51395 0.0
C3965 C 0.67497 0.98751 0.53307 0.0
C3966 C 0.674 0.96885 0.52279 0.0
C3967 C 0.66011 0.9609 0.5084 0.0
C3968 C 0.64792 0.9716 0.50394 0.0
C3969 C 0.68812 0.95823 0.52606 0.0
C3970 C 0.6961 0.95056 0.51031 0.0
C3971 C 0.69443 0.95654 0.54448 0.0
C3972 C 0.6857 0.96294 0.56155 0.0
C3973 C 0.66745 0.95634 0.56213 0.0
C3974 C 0.65916 0.96294 0.57795 0.0
C3975 C 0.669 0.97603 0.59335 0.0
C3976 C 0.68717 0.98246 0.59301 0.0
C3977 C 0.69553 0.97593 0.57721 0.0
H3978 H 0.66255 0.98117 0.60557 0.0
H3979 H 0.73948 0.91593 0.4497 0.0
H3980 H 0.38769 0.51779 0.77625 0.0
H3981 H 0.36879 0.48533 0.77396 0.0
H3982 H 0.41411 0.4605 0.76593 0.0
H3983 H 0.43265 0.49227 0.76788 0.0
H3984 H 0.38997 0.43655 0.74476 0.0
H3985 H 0.39057 0.46562 0.80982 0.0
H3986 H 0.38628 0.49002 0.83664 0.0
H3987 H 0.33108 0.4787 0.81811 0.0
H3988 H 0.33511 0.45441 0.79101 0.0
H3989 H 0.35376 0.34179 0.76327 0.0
H3990 H 0.3701 0.37462 0.76371 0.0
H3991 H 0.32216 0.39494 0.76956 0.0
H3992 H 0.30575 0.36198 0.76936 0.0
H3993 H 0.34649 0.42137 0.79084 0.0
H3994 H 0.34657 0.39039 0.72617 0.0
H3995 H 0.352 0.36644 0.69957 0.0
H3996 H 0.40735 0.38133 0.71795 0.0
H3997 H 0.40223 0.40515 0.74485 0.0
C3998 C 0.39369 0.50547 0.77391 0.0
C3999 C 0.41211 0.50838 0.77238 0.0
C4000 C 0.38276 0.4866 0.77274 0.0
C4001 C 0.38964 0.46963 0.76997 0.0
C4002 C 0.40792 0.47268 0.76806 0.0
C4003 C 0.41873 0.49133 0.7693 0.0
C4004 C 0.37835 0.44889 0.76905 0.0
C4005 C 0.38064 0.43341 0.75508 0.0
C4006 C 0.36565 0.44389 0.78203 0.0
C4007 C 0.36317 0.45839 0.79828 0.0
C4008 C 0.37754 0.46844 0.8114 0.0
C4009 C 0.37516 0.48224 0.82665 0.0
C4010 C 0.35843 0.48596 0.82904 0.0
C4011 C 0.34404 0.47584 0.81621 0.0
C4012 C 0.34636 0.46206 0.8009 0.0
C4013 C 0.34648 0.35309 0.76448 0.0
C4014 C 0.32803 0.34851 0.76603 0.0
C4015 C 0.35601 0.37222 0.76464 0.0
C4016 C 0.34773 0.38806 0.76634 0.0
C4017 C 0.32932 0.38354 0.76811 0.0
C4018 C 0.31974 0.36433 0.76786 0.0
C4019 C 0.35815 0.40901 0.76658 0.0
C4020 C 0.35575 0.42452 0.78046 0.0
C4021 C 0.37091 0.41399 0.75361 0.0
C4022 C 0.37397 0.39941 0.73766 0.0
C4023 C 0.35988 0.38842 0.72466 0.0
C4024 C 0.3629 0.37489 0.7095 0.0
C4025 C 0.38 0.37232 0.7071 0.0
C4026 C 0.39411 0.3833 0.71985 0.0
C4027 C 0.39115 0.39681 0.73506 0.0
H4028 H 0.38232 0.36187 0.69533 0.0
H4029 H 0.35661 0.49664 0.84086 0.0
H4030 H 0.19892 0.61411 0.28708 0.0
H4031 H 0.22106 0.64351 0.28646 0.0
H4032 H 0.23759 0.61641 0.23408 0.0
H4033 H 0.21601 0.58702 0.23486 0.0
H4034 H 0.26561 0.6391 0.26041 0.0
H4035 H 0.21007 0.64337 0.22878 0.0
H4036 H 0.17785 0.64059 0.22635 0.0
H4037 H 0.18295 0.68174 0.27828 0.0
H4038 H 0.21515 0.68467 0.28106 0.0
H4039 H 0.30478 0.74017 0.2603 0.0
H4040 H 0.29507 0.70523 0.25391 0.0
H4041 H 0.25414 0.71107 0.29163 0.0
H4042 H 0.26026 0.74522 0.29203 0.0
H4043 H 0.23982 0.69594 0.25869 0.0
H4044 H 0.29395 0.6863 0.29509 0.0
H4045 H 0.32639 0.69081 0.29781 0.0
H4046 H 0.32415 0.6621 0.23982 0.0
H4047 H 0.29175 0.65757 0.23677 0.0
C4048 C 0.20741 0.61453 0.27561 0.0
C4049 C 0.20593 0.59867 0.26105 0.0
C4050 C 0.21998 0.63106 0.27529 0.0
C4051 C 0.23061 0.63176 0.26012 0.0
C4052 C 0.22946 0.61579 0.24586 0.0
C4053 C 0.21714 0.59922 0.24633 0.0
C4054 C 0.24181 0.64981 0.2584 0.0
C4055 C 0.26012 0.65166 0.26012 0.0
C4056 C 0.23435 0.66567 0.25707 0.0
C4057 C 0.21501 0.66425 0.25508 0.0
C4058 C 0.2043 0.65181 0.23966 0.0
C4059 C 0.18605 0.65021 0.23824 0.0
C4060 C 0.17836 0.66099 0.25214 0.0
C4061 C 0.18892 0.67344 0.26749 0.0
C4062 C 0.20717 0.67512 0.26895 0.0
C4063 C 0.29298 0.73363 0.26576 0.0
C4064 C 0.28158 0.74467 0.27371 0.0
C4065 C 0.2881 0.71381 0.2633 0.0
C4066 C 0.27327 0.70557 0.27161 0.0
C4067 C 0.26501 0.71726 0.28418 0.0
C4068 C 0.26842 0.73671 0.28432 0.0
C4069 C 0.26362 0.68595 0.26433 0.0
C4070 C 0.2455 0.68355 0.25939 0.0
C4071 C 0.27126 0.66985 0.26333 0.0
C4072 C 0.29052 0.67158 0.26573 0.0
C4073 C 0.30041 0.68087 0.28299 0.0
C4074 C 0.31877 0.68347 0.28456 0.0
C4075 C 0.32732 0.67673 0.269 0.0
C4076 C 0.31752 0.66727 0.25187 0.0
C4077 C 0.29917 0.66464 0.25023 0.0
H4078 H 0.34154 0.67884 0.27022 0.0
H4079 H 0.16422 0.6597 0.25103 0.0
H4080 H 0.54028 0.71924 0.43603 0.0
H4081 H 0.54736 0.6916 0.44795 0.0
H4082 H 0.50704 0.69363 0.48665 0.0
H4083 H 0.50039 0.72145 0.47533 0.0
H4084 H 0.53258 0.68553 0.50484 0.0
H4085 H 0.50312 0.65819 0.44223 0.0
H4086 H 0.49828 0.65432 0.40735 0.0
H4087 H 0.55012 0.64346 0.40182 0.0
H4088 H 0.5553 0.64746 0.43667 0.0
H4089 H 0.53479 0.59196 0.52834 0.0
H4090 H 0.5283 0.62162 0.52061 0.0
H4091 H 0.55967 0.6164 0.47286 0.0
H4092 H 0.56299 0.58529 0.47861 0.0
H4093 H 0.53667 0.62676 0.4602 0.0
H4094 H 0.56659 0.65442 0.5243 0.0
H4095 H 0.57022 0.65796 0.55924 0.0
H4096 H 0.51799 0.66819 0.5627 0.0
H4097 H 0.51397 0.66446 0.5278 0.0
C4098 C 0.53278 0.71371 0.44693 0.0
C4099 C 0.5196 0.72271 0.45445 0.0
C4100 C 0.53684 0.69776 0.45381 0.0
C4101 C 0.52762 0.69001 0.46818 0.0
C4102 C 0.51449 0.69906 0.47566 0.0
C4103 C 0.51059 0.71505 0.46898 0.0
C4104 C 0.53139 0.6725 0.47533 0.0
C4105 C 0.53352 0.67266 0.49504 0.0
C4106 C 0.53271 0.6555 0.4629 0.0
C4107 C 0.52964 0.65331 0.44201 0.0
C4108 C 0.51351 0.65512 0.43356 0.0
C4109 C 0.51071 0.65287 0.41381 0.0
C4110 C 0.5239 0.64869 0.40238 0.0
C4111 C 0.53992 0.64672 0.41068 0.0
C4112 C 0.54279 0.64897 0.43042 0.0
C4113 C 0.54062 0.59747 0.51646 0.0
C4114 C 0.55023 0.58659 0.50464 0.0
C4115 C 0.537 0.61471 0.51203 0.0
C4116 C 0.54371 0.62218 0.49619 0.0
C4117 C 0.55398 0.61147 0.48504 0.0
C4118 C 0.55646 0.59373 0.48869 0.0
C4119 C 0.5392 0.63992 0.48991 0.0
C4120 C 0.53643 0.63971 0.47023 0.0
C4121 C 0.53747 0.65687 0.50247 0.0
C4122 C 0.53994 0.65899 0.52343 0.0
C4123 C 0.55586 0.65733 0.53252 0.0
C4124 C 0.55798 0.65937 0.55231 0.0
C4125 C 0.54433 0.66326 0.56318 0.0
C4126 C 0.52854 0.66514 0.55428 0.0
C4127 C 0.52634 0.66306 0.53449 0.0
H4128 H 0.546 0.66486 0.57849 0.0
H4129 H 0.52169 0.64694 0.38709 0.0
H4130 H 0.65693 0.32704 0.62212 0.0
H4131 H 0.68112 0.32415 0.64354 0.0
H4132 H 0.64428 0.30494 0.6826 0.0
H4133 H 0.61977 0.30846 0.6612 0.0
H4134 H 0.6723 0.3258 0.70307 0.0
H4135 H 0.66684 0.2738 0.64992 0.0
H4136 H 0.66555 0.25843 0.61624 0.0
H4137 H 0.71695 0.29236 0.61201 0.0
H4138 H 0.71845 0.3081 0.64559 0.0
H4139 H 0.73765 0.2935 0.75702 0.0
H4140 H 0.71203 0.29743 0.73815 0.0
H4141 H 0.74515 0.31279 0.69447 0.0
H4142 H 0.77071 0.30846 0.71326 0.0
H4143 H 0.7179 0.29287 0.67686 0.0
H4144 H 0.72372 0.34537 0.72949 0.0
H4145 H 0.72509 0.36185 0.76281 0.0
H4146 H 0.67369 0.32849 0.76798 0.0
H4147 H 0.67215 0.31156 0.73481 0.0
C4148 C 0.65378 0.32227 0.63529 0.0
C4149 C 0.63604 0.31798 0.63962 0.0
C4150 C 0.66784 0.32039 0.64761 0.0
C4151 C 0.66493 0.31372 0.66478 0.0
C4152 C 0.64725 0.30995 0.6695 0.0
C4153 C 0.63308 0.31201 0.65716 0.0
C4154 C 0.68027 0.31086 0.67759 0.0
C4155 C 0.68209 0.31832 0.69729 0.0
C4156 C 0.69366 0.30157 0.67044 0.0
C4157 C 0.69268 0.29224 0.65021 0.0
C4158 C 0.67781 0.27808 0.64176 0.0
C4159 C 0.67705 0.26928 0.6227 0.0
C4160 C 0.69114 0.27444 0.61199 0.0
C4161 C 0.70603 0.28839 0.62032 0.0
C4162 C 0.70685 0.29724 0.63936 0.0
C4163 C 0.73967 0.29824 0.74366 0.0
C4164 C 0.75666 0.30117 0.73714 0.0
C4165 C 0.72478 0.30047 0.73267 0.0
C4166 C 0.72622 0.30595 0.7147 0.0
C4167 C 0.74322 0.30866 0.70814 0.0
C4168 C 0.75804 0.30623 0.71904 0.0
C4169 C 0.71019 0.30808 0.7024 0.0
C4170 C 0.70819 0.3004 0.68274 0.0
C4171 C 0.69674 0.3173 0.7096 0.0
C4172 C 0.69792 0.32704 0.72973 0.0
C4173 C 0.7128 0.34139 0.7378 0.0
C4174 C 0.71359 0.35084 0.75665 0.0
C4175 C 0.69951 0.34619 0.76752 0.0
C4176 C 0.68462 0.33205 0.75957 0.0
C4177 C 0.68378 0.32251 0.74075 0.0
H4178 H 0.70012 0.35358 0.78208 0.0
H4179 H 0.69053 0.2676 0.59724 0.0
H4180 H 0.01239 0.31675 0.97436 0.0
H4181 H 0.01532 0.35036 0.99046 0.0
H4182 H 0.03853 0.36998 0.94216 0.0
H4183 H 0.03563 0.33683 0.92621 0.0
H4184 H 0.05676 0.3906 0.97353 0.0
H4185 H 0.99495 0.36957 0.95182 0.0
H4186 H 0.9649 0.34957 0.94979 0.0
H4187 H 0.9634 0.36686 0.00992 0.0
H4188 H 0.99363 0.38665 0.01238 0.0
H4189 H 0.04764 0.48751 0.9822 0.0
H4190 H 0.04248 0.45257 0.9712 0.0
H4191 H 0.02871 0.44354 0.02683 0.0
H4192 H 0.03477 0.47854 0.03806 0.0
H4193 H 0.00616 0.4171 0.99599 0.0
H4194 H 0.06702 0.44083 0.01696 0.0
H4195 H 0.0973 0.46029 0.01903 0.0
H4196 H 0.10109 0.43746 0.96045 0.0
H4197 H 0.07063 0.41836 0.9578 0.0
C4198 C 0.01804 0.32825 0.96717 0.0
C4199 C 0.02363 0.32394 0.94886 0.0
C4200 C 0.01969 0.34753 0.97638 0.0
C4201 C 0.02708 0.36297 0.96757 0.0
C4202 C 0.03279 0.35855 0.9494 0.0
C4203 C 0.031 0.33944 0.94019 0.0
C4204 C 0.02902 0.38375 0.97689 0.0
C4205 C 0.04562 0.39638 0.97822 0.0
C4206 C 0.0147 0.39142 0.98376 0.0
C4207 C 0.99665 0.37935 0.98233 0.0
C4208 C 0.9883 0.36892 0.96465 0.0
C4209 C 0.97122 0.35765 0.96341 0.0
C4210 C 0.96227 0.35688 0.97972 0.0
C4211 C 0.97038 0.3674 0.99731 0.0
C4212 C 0.98749 0.37863 0.99864 0.0
C4213 C 0.04291 0.47804 0.99188 0.0
C4214 C 0.0409 0.48581 0.01081 0.0
C4215 C 0.04021 0.45805 0.98567 0.0
C4216 C 0.03527 0.44526 0.99816 0.0
C4217 C 0.03246 0.45298 0.01685 0.0
C4218 C 0.03569 0.47301 0.02321 0.0
C4219 C 0.03375 0.42399 0.99191 0.0
C4220 C 0.0173 0.4113 0.99131 0.0
C4221 C 0.04823 0.41625 0.98568 0.0
C4222 C 0.06635 0.42837 0.98709 0.0
C4223 C 0.07415 0.44022 0.0044 0.0
C4224 C 0.0914 0.45115 0.0057 0.0
C4225 C 0.10107 0.45018 0.98984 0.0
C4226 C 0.09354 0.43828 0.97268 0.0
C4227 C 0.07627 0.42744 0.97126 0.0
H4228 H 0.1144 0.4586 0.99078 0.0
H4229 H 0.94902 0.34819 0.97873 0.0
H4230 H 0.02947 0.77602 0.13519 0.0
H4231 H 1.00125 0.77239 0.14959 0.0
H4232 H 0.00573 0.83365 0.15753 0.0
H4233 H 0.03377 0.83717 0.14283 0.0
H4234 H 0.99691 0.82095 0.18949 0.0
H4235 H 0.97506 0.80271 0.12429 0.0
H4236 H 0.97083 0.78499 0.09121 0.0
H4237 H 0.95193 0.73205 0.11039 0.0
H4238 H 0.9563 0.7494 0.14363 0.0
H4239 H 0.91248 0.81297 0.2277 0.0
H4240 H 0.93688 0.82097 0.20793 0.0
H4241 H 0.93396 0.76051 0.18848 0.0
H4242 H 0.90943 0.75268 0.2075 0.0
H4243 H 0.94127 0.77587 0.1606 0.0
H4244 H 0.96599 0.79416 0.22637 0.0
H4245 H 0.97098 0.81227 0.25934 0.0
H4246 H 0.98508 0.86532 0.23896 0.0
H4247 H 0.97991 0.84754 0.20586 0.0
C4248 C 0.02434 0.78867 0.13992 0.0
C4249 C 0.03387 0.80688 0.13793 0.0
C4250 C 0.00813 0.7866 0.14807 0.0
C4251 C 1.0011 0.80272 0.15468 0.0
C4252 C 0.01069 0.82093 0.15261 0.0
C4253 C 0.02674 0.82295 0.14418 0.0
C4254 C 0.98431 0.80073 0.16456 0.0
C4255 C 0.98467 0.81127 0.18302 0.0
C4256 C 0.96826 0.78794 0.15642 0.0
C4257 C 0.96623 0.77735 0.1365 0.0
C4258 C 0.97024 0.78726 0.12149 0.0
C4259 C 0.96775 0.77728 0.10269 0.0
C4260 C 0.96117 0.7574 0.0987 0.0
C4261 C 0.95707 0.74745 0.1135 0.0
C4262 C 0.95955 0.75734 0.13232 0.0
C4263 C 0.9168 0.80142 0.21885 0.0
C4264 C 0.90893 0.78214 0.21931 0.0
C4265 C 0.93103 0.80599 0.20773 0.0
C4266 C 0.93786 0.7914 0.19686 0.0
C4267 C 0.9293 0.77221 0.19666 0.0
C4268 C 0.91517 0.76769 0.20764 0.0
C4269 C 0.95394 0.79565 0.18589 0.0
C4270 C 0.95347 0.78557 0.16713 0.0
C4271 C 0.96993 0.80884 0.1938 0.0
C4272 C 0.97228 0.81954 0.21364 0.0
C4273 C 0.96992 0.8097 0.22892 0.0
C4274 C 0.97283 0.81991 0.24763 0.0
C4275 C 0.97828 0.83994 0.25124 0.0
C4276 C 0.9808 0.84981 0.23615 0.0
C4277 C 0.97785 0.83968 0.21742 0.0
H4278 H 0.9806 0.8478 0.26574 0.0
H4279 H 0.9592 0.74972 0.08414 0.0
H4280 H 0.50946 0.28752 0.10597 0.0
H4281 H 0.51623 0.31284 0.08764 0.0
H4282 H 0.52685 0.35544 0.13938 0.0
H4283 H 0.51936 0.3299 0.15803 0.0
H4284 H 0.50706 0.36543 0.11322 0.0
H4285 H 0.56034 0.3421 0.11395 0.0
H4286 H 0.57786 0.31722 0.10976 0.0
H4287 H 0.55959 0.30178 0.0504 0.0
H4288 H 0.54168 0.32631 0.05431 0.0
H4289 H 0.54844 0.44015 0.06592 0.0
H4290 H 0.53888 0.41743 0.08672 0.0
H4291 H 0.52962 0.37082 0.03836 0.0
H4292 H 0.53934 0.39363 0.01762 0.0
H4293 H 0.54993 0.36392 0.06464 0.0
H4294 H 0.49567 0.38573 0.0638 0.0
H4295 H 0.47519 0.40759 0.06831 0.0
H4296 H 0.49368 0.4244 0.12757 0.0
H4297 H 0.51448 0.40291 0.12334 0.0
C4298 C 0.51334 0.30226 0.11353 0.0
C4299 C 0.51402 0.30682 0.13345 0.0
C4300 C 0.5173 0.3167 0.103 0.0
C4301 C 0.52241 0.33593 0.1122 0.0
C4302 C 0.52307 0.3406 0.1321 0.0
C4303 C 0.51887 0.32608 0.14271 0.0
C4304 C 0.52643 0.3511 0.10082 0.0
C4305 C 0.5167 0.36542 0.10284 0.0
C4306 C 0.53857 0.35052 0.0869 0.0
C4307 C 0.54959 0.33599 0.08446 0.0
C4308 C 0.55998 0.33333 0.10003 0.0
C4309 C 0.56998 0.31928 0.0977 0.0
C4310 C 0.56982 0.30791 0.07983 0.0
C4311 C 0.5597 0.31059 0.06424 0.0
C4312 C 0.54963 0.32457 0.0665 0.0
C4313 C 0.54397 0.42517 0.0597 0.0
C4314 C 0.54484 0.41869 0.04022 0.0
C4315 C 0.53845 0.41216 0.07158 0.0
C4316 C 0.53351 0.39242 0.06408 0.0
C4317 C 0.53347 0.38601 0.04445 0.0
C4318 C 0.5391 0.39902 0.03264 0.0
C4319 C 0.53036 0.37828 0.0768 0.0
C4320 C 0.54037 0.36413 0.07509 0.0
C4321 C 0.51842 0.37902 0.09096 0.0
C4322 C 0.50683 0.39294 0.09317 0.0
C4323 C 0.49561 0.39436 0.07771 0.0
C4324 C 0.48388 0.40662 0.08024 0.0
C4325 C 0.48318 0.41743 0.09819 0.0
C4326 C 0.49427 0.41608 0.11365 0.0
C4327 C 0.50605 0.40389 0.11118 0.0
H4328 H 0.47399 0.4268 0.10015 0.0
H4329 H 0.57757 0.29704 0.07807 0.0
H4330 H 0.05837 0.35076 0.36093 0.0
H4331 H 0.02972 0.34821 0.34334 0.0
H4332 H 0.00752 0.29866 0.36728 0.0
H4333 H 0.03617 0.30117 0.38468 0.0
H4334 H 0.99563 0.29537 0.32948 0.0
H4335 H 0.00455 0.34206 0.3884 0.0
H4336 H 0.02156 0.37097 0.41022 0.0
H4337 H 0.01584 0.40528 0.36799 0.0
H4338 H 0.99914 0.3765 0.34575 0.0
H4339 H 0.90751 0.29938 0.30425 0.0
H4340 H 0.9331 0.29848 0.32517 0.0
H4341 H 0.96073 0.35238 0.31233 0.0
H4342 H 0.93494 0.35396 0.29251 0.0
H4343 H 0.96872 0.35159 0.34719 0.0
H4344 H 0.96145 0.30669 0.28766 0.0
H4345 H 0.94732 0.27835 0.26345 0.0
H4346 H 0.95271 0.24138 0.30322 0.0
H4347 H 0.9661 0.26958 0.32799 0.0
C4348 C 0.04736 0.33922 0.3621 0.0
C4349 C 0.04904 0.32629 0.37415 0.0
C4350 C 0.03113 0.33775 0.35214 0.0
C4351 C 0.01658 0.32344 0.35437 0.0
C4352 C 0.01864 0.30983 0.36554 0.0
C4353 C 0.03484 0.31132 0.37551 0.0
C4354 C 0.99887 0.32361 0.34644 0.0
C4355 C 0.98955 0.3075 0.33344 0.0
C4356 C 0.99129 0.33965 0.35163 0.0
C4357 C 1.00069 0.35708 0.36536 0.0
C4358 C 0.00697 0.35575 0.38374 0.0
C4359 C 0.01658 0.37212 0.39618 0.0
C4360 C 0.0198 0.38994 0.39049 0.0
C4361 C 0.01335 0.39146 0.37238 0.0
C4362 C 1.00381 0.37513 0.35985 0.0
C4363 C 0.91888 0.31128 0.30632 0.0
C4364 C 0.91942 0.32662 0.2965 0.0
C4365 C 0.93351 0.31065 0.31813 0.0
C4366 C 0.9489 0.32514 0.31989 0.0
C4367 C 0.94901 0.34097 0.31103 0.0
C4368 C 0.93437 0.34176 0.29951 0.0
C4369 C 0.96544 0.32347 0.32972 0.0
C4370 C 0.97459 0.33929 0.34328 0.0
C4371 C 0.97297 0.30727 0.32471 0.0
C4372 C 0.96449 0.29034 0.30984 0.0
C4373 C 0.95935 0.29257 0.29139 0.0
C4374 C 0.95147 0.27651 0.27754 0.0
C4375 C 0.94909 0.25808 0.2818 0.0
C4376 C 0.95455 0.25567 0.29994 0.0
C4377 C 0.96214 0.2717 0.31394 0.0
H4378 H 0.94303 0.24566 0.27105 0.0
H4379 H 0.02728 0.40259 0.40012 0.0
H4380 H 0.99639 0.70141 0.65179 0.0
H4381 H 0.99579 0.66743 0.63988 0.0
H4382 H 0.98956 0.67745 0.58227 0.0
H4383 H 0.98773 0.70975 0.59407 0.0
H4384 H 0.97954 0.64473 0.57869 0.0
H4385 H 0.03383 0.68608 0.621 0.0
H4386 H 0.05162 0.70024 0.65168 0.0
H4387 H 0.03857 0.64588 0.66981 0.0
H4388 H 0.02042 0.6316 0.63947 0.0
H4389 H 0.045 0.61091 0.52542 0.0
H4390 H 0.03023 0.63301 0.54517 0.0
H4391 H 0.02658 0.59715 0.58776 0.0
H4392 H 0.04167 0.57605 0.56891 0.0
H4393 H 0.03643 0.63355 0.60329 0.0
H4394 H 0.99141 0.59409 0.55229 0.0
H4395 H 0.98094 0.58375 0.51826 0.0
H4396 H 0.98438 0.64254 0.51279 0.0
H4397 H 0.99523 0.65324 0.54667 0.0
C4398 C 0.99397 0.69588 0.63664 0.0
C4399 C 0.99285 0.70823 0.62372 0.0
C4400 C 0.99398 0.67659 0.62982 0.0
C4401 C 0.99369 0.66999 0.61016 0.0
C4402 C 0.99005 0.68187 0.59754 0.0
C4403 C 0.98924 0.70063 0.60429 0.0
C4404 C 0.99991 0.65257 0.60218 0.0
C4405 C 0.99202 0.64241 0.58419 0.0
C4406 C 0.01588 0.64871 0.60945 0.0
C4407 C 0.02537 0.65796 0.62825 0.0
C4408 C 0.0345 0.6773 0.6317 0.0
C4409 C 0.04471 0.68531 0.64898 0.0
C4410 C 0.04616 0.674 0.66271 0.0
C4411 C 0.03732 0.65468 0.65925 0.0
C4412 C 0.02698 0.64667 0.64209 0.0
C4413 C 0.0413 0.60811 0.53917 0.0
C4414 C 0.04469 0.59202 0.5458 0.0
C4415 C 0.03277 0.62052 0.55029 0.0
C4416 C 0.02715 0.61637 0.5677 0.0
C4417 C 0.03088 0.60053 0.57437 0.0
C4418 C 0.03961 0.58851 0.56355 0.0
C4419 C 0.01717 0.62822 0.57924 0.0
C4420 C 0.024 0.63619 0.59797 0.0
C4421 C 1.00093 0.63116 0.57222 0.0
C4422 C 0.9939 0.62443 0.55204 0.0
C4423 C 0.98986 0.60478 0.54384 0.0
C4424 C 0.9839 0.59888 0.52456 0.0
C4425 C 0.98173 0.61248 0.51346 0.0
C4426 C 0.98586 0.63202 0.52147 0.0
C4427 C 0.9919 0.63801 0.54069 0.0
H4428 H 0.97681 0.60795 0.49865 0.0
H4429 H 0.0542 0.68017 0.67599 0.0
H4430 H 0.65949 0.82943 0.87988 0.0
H4431 H 0.68442 0.83099 0.8606 0.0
H4432 H 0.6487 0.80675 0.81009 0.0
H4433 H 0.62368 0.80486 0.82923 0.0
H4434 H 0.67094 0.78451 0.81973 0.0
H4435 H 0.67416 0.84946 0.81314 0.0
H4436 H 0.67649 0.88428 0.82285 0.0
H4437 H 0.72693 0.89015 0.85333 0.0
H4438 H 0.72475 0.85528 0.84419 0.0
H4439 H 0.74009 0.78567 0.75576 0.0
H4440 H 0.71318 0.78839 0.77149 0.0
H4441 H 0.74395 0.80551 0.826 0.0
H4442 H 0.77061 0.80198 0.81043 0.0
H4443 H 0.7241 0.83298 0.81239 0.0
H4444 H 0.71616 0.77078 0.83026 0.0
H4445 H 0.71092 0.73584 0.82941 0.0
H4446 H 0.67057 0.72595 0.78326 0.0
H4447 H 0.67522 0.76092 0.78431 0.0
C4448 C 0.65695 0.82452 0.86464 0.0
C4449 C 0.63977 0.81638 0.85602 0.0
C4450 C 0.67115 0.82589 0.85365 0.0
C4451 C 0.66823 0.81918 0.83401 0.0
C4452 C 0.65103 0.81219 0.82526 0.0
C4453 C 0.63685 0.81075 0.83622 0.0
C4454 C 0.68288 0.81474 0.82361 0.0
C4455 C 0.68234 0.79519 0.81757 0.0
C4456 C 0.69807 0.82872 0.82205 0.0
C4457 C 0.69918 0.84965 0.82811 0.0
C4458 C 0.68563 0.8581 0.82216 0.0
C4459 C 0.68696 0.87787 0.82751 0.0
C4460 C 0.70183 0.88941 0.83873 0.0
C4461 C 0.7154 0.88119 0.84466 0.0
C4462 C 0.71412 0.86141 0.8394 0.0
C4463 C 0.74085 0.78935 0.77112 0.0
C4464 C 0.75705 0.79355 0.78206 0.0
C4465 C 0.72565 0.79089 0.78003 0.0
C4466 C 0.72686 0.7972 0.79976 0.0
C4467 C 0.74295 0.80053 0.81075 0.0
C4468 C 0.75803 0.79853 0.80192 0.0
C4469 C 0.71185 0.80284 0.80847 0.0
C4470 C 0.71244 0.8225 0.81422 0.0
C4471 C 0.69677 0.78908 0.8103 0.0
C4472 C 0.69623 0.76831 0.80714 0.0
C4473 C 0.7064 0.76109 0.81972 0.0
C4474 C 0.70326 0.74135 0.81949 0.0
C4475 C 0.69027 0.7287 0.80643 0.0
C4476 C 0.68055 0.73576 0.79342 0.0
C4477 C 0.68338 0.75553 0.79387 0.0
H4478 H 0.68793 0.71339 0.80621 0.0
H4479 H 0.70285 0.90473 0.84279 0.0
H4480 H 0.44596 0.53993 0.70899 0.0
H4481 H 0.4598 0.53857 0.67902 0.0
H4482 H 0.49004 0.59629 0.69845 0.0
H4483 H 0.47589 0.59764 0.72844 0.0
H4484 H 0.48512 0.59335 0.6617 0.0
H4485 H 0.50734 0.55217 0.69633 0.0
H4486 H 0.50778 0.52596 0.71411 0.0
H4487 H 0.48054 0.48465 0.66581 0.0
H4488 H 0.47972 0.51067 0.64784 0.0
H4489 H 0.55079 0.57791 0.59176 0.0
H4490 H 0.53643 0.58304 0.62154 0.0
H4491 H 0.49358 0.53534 0.59826 0.0
H4492 H 0.50738 0.53077 0.56836 0.0
H4493 H 0.50637 0.53463 0.63742 0.0
H4494 H 0.48586 0.57791 0.60275 0.0
H4495 H 0.48814 0.60506 0.5858 0.0
H4496 H 0.51562 0.64378 0.63563 0.0
H4497 H 0.51379 0.61676 0.65279 0.0
C4498 C 0.45504 0.5527 0.70673 0.0
C4499 C 0.45884 0.56925 0.72136 0.0
C4500 C 0.46344 0.55176 0.68944 0.0
C4501 C 0.4766 0.56717 0.68574 0.0
C4502 C 0.48009 0.58397 0.70016 0.0
C4503 C 0.47167 0.58487 0.71753 0.0
C4504 C 0.48677 0.5655 0.66739 0.0
C4505 C 0.48988 0.5805 0.65674 0.0
C4506 C 0.49337 0.54895 0.65995 0.0
C4507 C 0.49325 0.53337 0.67086 0.0
C4508 C 0.50125 0.53751 0.6896 0.0
C4509 C 0.50161 0.5227 0.69969 0.0
C4510 C 0.49413 0.50366 0.69112 0.0
C4511 C 0.48627 0.49941 0.67245 0.0
C4512 C 0.48585 0.51418 0.66231 0.0
C4513 C 0.53834 0.56841 0.59285 0.0
C4514 C 0.53061 0.55372 0.57708 0.0
C4515 C 0.52994 0.57145 0.61013 0.0
C4516 C 0.51358 0.55964 0.61284 0.0
C4517 C 0.50605 0.54486 0.59718 0.0
C4518 C 0.51412 0.54222 0.57978 0.0
C4519 C 0.50441 0.56226 0.63169 0.0
C4520 C 0.50155 0.54745 0.64244 0.0
C4521 C 0.49838 0.5791 0.63934 0.0
C4522 C 0.49993 0.59527 0.62896 0.0
C4523 C 0.49263 0.59217 0.61001 0.0
C4524 C 0.49378 0.60754 0.60039 0.0
C4525 C 0.50208 0.62613 0.60961 0.0
C4526 C 0.50924 0.62937 0.62849 0.0
C4527 C 0.50816 0.61402 0.63817 0.0
H4528 H 0.50292 0.63803 0.60215 0.0
H4529 H 0.49448 0.4922 0.69894 0.0
H4530 H 0.77895 0.13739 0.95759 0.0
H4531 H 0.76997 0.15112 0.93048 0.0
H4532 H 0.78027 0.20729 0.9665 0.0
H4533 H 0.78934 0.19409 0.99302 0.0
H4534 H 0.75181 0.2014 0.94072 0.0
H4535 H 0.81327 0.19621 0.94611 0.0
H4536 H 0.83405 0.1754 0.95022 0.0
H4537 H 0.812 0.1383 0.89727 0.0
H4538 H 0.79086 0.15876 0.89309 0.0
H4539 H 0.77589 0.27425 0.892 0.0
H4540 H 0.78357 0.2538 0.91362 0.0
H4541 H 0.77215 0.20502 0.86727 0.0
H4542 H 0.7652 0.22563 0.84555 0.0
H4543 H 0.79772 0.20272 0.89512 0.0
H4544 H 0.73825 0.21799 0.89121 0.0
H4545 H 0.71845 0.24071 0.89443 0.0
H4546 H 0.74075 0.26378 0.95189 0.0
H4547 H 0.76062 0.24117 0.94902 0.0
C4548 C 0.77921 0.15262 0.95955 0.0
C4549 C 0.78511 0.1648 0.97711 0.0
C4550 C 0.77379 0.16029 0.94431 0.0
C4551 C 0.77443 0.18006 0.94677 0.0
C4552 C 0.77946 0.19193 0.96454 0.0
C4553 C 0.78492 0.18439 0.97955 0.0
C4554 C 0.77345 0.18951 0.93061 0.0
C4555 C 0.76159 0.2015 0.93048 0.0
C4556 C 0.78669 0.18995 0.91793 0.0
C4557 C 0.80055 0.17893 0.91929 0.0
C4558 C 0.813 0.1837 0.93528 0.0
C4559 C 0.82475 0.17192 0.93768 0.0
C4560 C 0.82434 0.15552 0.92402 0.0
C4561 C 0.8123 0.151 0.90784 0.0
C4562 C 0.80044 0.16268 0.90543 0.0
C4563 C 0.77582 0.25934 0.88641 0.0
C4564 C 0.76975 0.25114 0.86748 0.0
C4565 C 0.78015 0.24776 0.89864 0.0
C4566 C 0.77781 0.22796 0.89195 0.0
C4567 C 0.77384 0.2203 0.87254 0.0
C4568 C 0.76983 0.23196 0.86024 0.0
C4569 C 0.77614 0.21484 0.90532 0.0
C4570 C 0.78755 0.20222 0.90491 0.0
C4571 C 0.76297 0.21451 0.9182 0.0
C4572 C 0.75098 0.22802 0.91983 0.0
C4573 C 0.73896 0.22797 0.90449 0.0
C4574 C 0.72772 0.24081 0.90626 0.0
C4575 C 0.72842 0.25376 0.92331 0.0
C4576 C 0.74025 0.25379 0.93868 0.0
C4577 C 0.75146 0.24094 0.937 0.0
H4578 H 0.71974 0.26371 0.92462 0.0
H4579 H 0.83335 0.14632 0.92597 0.0
H4580 H 0.14041 0.51152 0.20203 0.0
H4581 H 0.12547 0.50479 0.17032 0.0
H4582 H 0.16236 0.55255 0.15575 0.0
H4583 H 0.17731 0.55942 0.18807 0.0
H4584 H 0.12989 0.55817 0.15666 0.0
H4585 H 0.15551 0.50894 0.12727 0.0
H4586 H 0.16809 0.48021 0.12527 0.0
H4587 H 0.11742 0.44609 0.13186 0.0
H4588 H 0.10458 0.47469 0.13426 0.0
H4589 H 0.09661 0.54254 0.06561 0.0
H4590 H 0.11231 0.54069 0.09435 0.0
H4591 H 0.06375 0.5159 0.1158 0.0
H4592 H 0.04706 0.51853 0.08648 0.0
H4593 H 0.09977 0.49825 0.11244 0.0
H4594 H 0.07541 0.55242 0.13839 0.0
H4595 H 0.06641 0.5828 0.13657 0.0
H4596 H 0.11981 0.6099 0.13047 0.0
H4597 H 0.12908 0.57958 0.13171 0.0
C4598 C 0.14562 0.52005 0.19174 0.0
C4599 C 0.15941 0.53614 0.19703 0.0
C4600 C 0.13737 0.51605 0.17361 0.0
C4601 C 0.14294 0.52823 0.16088 0.0
C4602 C 0.15811 0.54305 0.16555 0.0
C4603 C 0.16645 0.54703 0.18383 0.0
C4604 C 0.13013 0.52852 0.14561 0.0
C4605 C 0.12352 0.5452 0.14668 0.0
C4606 C 0.12164 0.5114 0.13324 0.0
C4607 C 0.1291 0.49397 0.13102 0.0
C4608 C 0.14705 0.49532 0.12836 0.0
C4609 C 0.15424 0.47906 0.12716 0.0
C4610 C 0.14357 0.46134 0.12846 0.0
C4611 C 0.12567 0.45982 0.13085 0.0
C4612 C 0.11842 0.47605 0.13208 0.0
C4613 C 0.08892 0.53711 0.07641 0.0
C4614 C 0.07042 0.53147 0.07418 0.0
C4615 C 0.09804 0.53596 0.09278 0.0
C4616 C 0.08894 0.5287 0.107 0.0
C4617 C 0.07063 0.52197 0.10477 0.0
C4618 C 0.06124 0.52348 0.08823 0.0
C4619 C 0.09962 0.5278 0.12359 0.0
C4620 C 0.10604 0.51106 0.12272 0.0
C4621 C 0.10843 0.54517 0.13547 0.0
C4622 C 0.10293 0.56363 0.13514 0.0
C4623 C 0.08522 0.5648 0.13652 0.0
C4624 C 0.08007 0.58203 0.13558 0.0
C4625 C 0.09252 0.59827 0.13341 0.0
C4626 C 0.11017 0.59731 0.13217 0.0
C4627 C 0.11538 0.5801 0.133 0.0
H4628 H 0.0885 0.61159 0.1327 0.0
H4629 H 0.14917 0.44877 0.12761 0.0
H4630 H 0.81298 0.84617 0.48781 0.0
H4631 H 0.81262 0.82938 0.45501 0.0
H4632 H 0.79515 0.87553 0.4343 0.0
H4633 H 0.79556 0.89242 0.46708 0.0
H4634 H 0.77678 0.83883 0.41514 0.0
H4635 H 0.83769 0.87258 0.43505 0.0
H4636 H 0.86508 0.87989 0.45645 0.0
H4637 H 0.86825 0.82059 0.444 0.0
H4638 H 0.84066 0.81286 0.42282 0.0
H4639 H 0.79977 0.8286 0.31949 0.0
H4640 H 0.80014 0.84168 0.35351 0.0
H4641 H 0.81167 0.78962 0.36729 0.0
H4642 H 0.81017 0.77606 0.33321 0.0
H4643 H 0.8324 0.82609 0.3906 0.0
H4644 H 0.77479 0.79094 0.37074 0.0
H4645 H 0.74577 0.77915 0.35237 0.0
H4646 H 0.73435 0.83508 0.36679 0.0
H4647 H 0.7636 0.84744 0.38481 0.0
C4648 C 0.80913 0.85278 0.47627 0.0
C4649 C 0.80453 0.87077 0.48006 0.0
C4650 C 0.8089 0.84314 0.45751 0.0
C4651 C 0.80398 0.85123 0.44211 0.0
C4652 C 0.79903 0.869 0.4459 0.0
C4653 C 0.79943 0.87874 0.46465 0.0
C4654 C 0.80454 0.84156 0.42205 0.0
C4655 C 0.78899 0.83632 0.40968 0.0
C4656 C 0.82027 0.83735 0.41514 0.0
C4657 C 0.83705 0.84212 0.42749 0.0
C4658 C 0.84418 0.86109 0.43697 0.0
C4659 C 0.85973 0.8653 0.44906 0.0
C4660 C 0.86838 0.85071 0.45162 0.0
C4661 C 0.86152 0.83187 0.44203 0.0
C4662 C 0.84593 0.82757 0.42998 0.0
C4663 C 0.80292 0.82021 0.32982 0.0
C4664 C 0.80561 0.80159 0.32377 0.0
C4665 C 0.8029 0.82758 0.34922 0.0
C4666 C 0.80586 0.81661 0.36296 0.0
C4667 C 0.80937 0.79836 0.35696 0.0
C4668 C 0.80874 0.79072 0.33753 0.0
C4669 C 0.80478 0.82402 0.38349 0.0
C4670 C 0.8202 0.82871 0.39598 0.0
C4671 C 0.78881 0.82724 0.39061 0.0
C4672 C 0.7716 0.82024 0.37885 0.0
C4673 C 0.76631 0.80088 0.36965 0.0
C4674 C 0.74977 0.79406 0.35937 0.0
C4675 C 0.73827 0.80638 0.35839 0.0
C4676 C 0.74333 0.82559 0.36753 0.0
C4677 C 0.75991 0.83252 0.37774 0.0
H4678 H 0.72539 0.80098 0.35068 0.0
H4679 H 0.88042 0.854 0.46099 0.0
H4680 H 0.44193 0.58224 0.84666 0.0
H4681 H 0.45819 0.57771 0.87537 0.0
H4682 H 0.49335 0.55188 0.84058 0.0
H4683 H 0.47739 0.55689 0.81193 0.0
H4684 H 0.48823 0.53176 0.8677 0.0
H4685 H 0.50689 0.59748 0.87118 0.0
H4686 H 0.508 0.63194 0.87256 0.0
H4687 H 0.48078 0.63385 0.9231 0.0
H4688 H 0.47922 0.59928 0.92184 0.0
H4689 H 0.54584 0.53247 0.95522 0.0
H4690 H 0.53414 0.53684 0.92372 0.0
H4691 H 0.49274 0.55979 0.94983 0.0
H4692 H 0.50357 0.55474 0.98043 0.0
H4693 H 0.50458 0.58218 0.92561 0.0
H4694 H 0.4839 0.51212 0.91633 0.0
H4695 H 0.48672 0.47844 0.91291 0.0
H4696 H 0.52492 0.48791 0.87257 0.0
H4697 H 0.52171 0.52147 0.87519 0.0
C4698 C 0.45314 0.57561 0.84494 0.0
C4699 C 0.45796 0.56999 0.82634 0.0
C4700 C 0.46269 0.57307 0.86169 0.0
C4701 C 0.4775 0.56438 0.86096 0.0
C4702 C 0.48219 0.55857 0.84232 0.0
C4703 C 0.47289 0.56152 0.82561 0.0
C4704 C 0.48763 0.56105 0.87926 0.0
C4705 C 0.49187 0.54306 0.88017 0.0
C4706 C 0.49306 0.57532 0.89618 0.0
C4707 C 0.49262 0.59567 0.89619 0.0
C4708 C 0.50079 0.60513 0.88236 0.0
C4709 C 0.5016 0.62472 0.88318 0.0
C4710 C 0.49438 0.63505 0.89785 0.0
C4711 C 0.48628 0.6258 0.91169 0.0
C4712 C 0.4854 0.6062 0.91091 0.0
C4713 C 0.5341 0.53819 0.95434 0.0
C4714 C 0.52589 0.54301 0.9712 0.0
C4715 C 0.52727 0.54077 0.936 0.0
C4716 C 0.51216 0.5488 0.93358 0.0
C4717 C 0.50428 0.55368 0.95047 0.0
C4718 C 0.5107 0.55067 0.96841 0.0
C4719 C 0.50448 0.55273 0.91426 0.0
C4720 C 0.50077 0.5709 0.91314 0.0
C4721 C 0.50008 0.53888 0.89699 0.0
C4722 C 0.50278 0.51926 0.89618 0.0
C4723 C 0.493 0.50702 0.90686 0.0
C4724 C 0.49456 0.48794 0.90494 0.0
C4725 C 0.50618 0.48109 0.89273 0.0
C4726 C 0.51603 0.49325 0.88213 0.0
C4727 C 0.51423 0.51225 0.8837 0.0
H4728 H 0.50748 0.46634 0.89141 0.0
H4729 H 0.49512 0.65025 0.89853 0.0
H4730 H 0.75444 0.18574 0.06996 0.0
H4731 H 0.75581 0.20149 0.10287 0.0
H4732 H 0.80183 0.18008 0.11636 0.0
H4733 H 0.80097 0.16462 0.08288 0.0
H4734 H 0.76857 0.18599 0.14472 0.0
H4735 H 0.81729 0.21388 0.11063 0.0
H4736 H 0.83132 0.22591 0.08379 0.0
H4737 H 0.79721 0.26554 0.08409 0.0
H4738 H 0.78245 0.25312 0.11041 0.0
H4739 H 0.81294 0.2572 0.21961 0.0
H4740 H 0.80724 0.23512 0.18934 0.0
H4741 H 0.76866 0.26483 0.1708 0.0
H4742 H 0.77419 0.28711 0.20177 0.0
H4743 H 0.79708 0.25424 0.14532 0.0
H4744 H 0.75107 0.22969 0.18154 0.0
H4745 H 0.73758 0.21925 0.20935 0.0
H4746 H 0.76694 0.17492 0.2063 0.0
H4747 H 0.78108 0.18552 0.17886 0.0
C4748 C 0.76466 0.18403 0.08 0.0
C4749 C 0.7781 0.1748 0.07397 0.0
C4750 C 0.76528 0.19284 0.09873 0.0
C4751 C 0.77917 0.1922 0.11153 0.0
C4752 C 0.79119 0.18074 0.10628 0.0
C4753 C 0.7907 0.17201 0.08731 0.0
C4754 C 0.78253 0.20621 0.12904 0.0
C4755 C 0.77512 0.20085 0.14512 0.0
C4756 C 0.79035 0.22563 0.12884 0.0
C4757 C 0.7984 0.23212 0.11212 0.0
C4758 C 0.81238 0.2247 0.10458 0.0
C4759 C 0.82056 0.23169 0.08954 0.0
C4760 C 0.81507 0.24638 0.08214 0.0
C4761 C 0.80134 0.25404 0.08971 0.0
C4762 C 0.79301 0.24695 0.10462 0.0
C4763 C 0.80364 0.2594 0.20889 0.0
C4764 C 0.79409 0.27379 0.21259 0.0
C4765 C 0.80023 0.24665 0.19183 0.0
C4766 C 0.78728 0.24829 0.1784 0.0
C4767 C 0.77854 0.26347 0.18142 0.0
C4768 C 0.78184 0.27622 0.19876 0.0
C4769 C 0.78337 0.23401 0.16111 0.0
C4770 C 0.79058 0.23936 0.14499 0.0
C4771 C 0.77545 0.21466 0.16137 0.0
C4772 C 0.76733 0.20859 0.17825 0.0
C4773 C 0.75491 0.21795 0.18699 0.0
C4774 C 0.74709 0.21195 0.20266 0.0
C4775 C 0.7514 0.19644 0.20959 0.0
C4776 C 0.7636 0.18694 0.20091 0.0
C4777 C 0.77157 0.19297 0.18533 0.0
H4778 H 0.7453 0.19178 0.22169 0.0
H4779 H 0.82154 0.25192 0.07062 0.0
H4780 H 0.14395 0.52269 0.28071 0.0
H4781 H 0.12928 0.52878 0.30944 0.0
H4782 H 0.17697 0.56797 0.33739 0.0
H4783 H 0.19206 0.56101 0.30859 0.0
H4784 H 0.16278 0.54356 0.35879 0.0
H4785 H 0.14117 0.58564 0.32323 0.0
H4786 H 0.12814 0.5952 0.29523 0.0
H4787 H 0.08118 0.55155 0.29412 0.0
H4788 H 0.09398 0.54161 0.32198 0.0
H4789 H 0.10991 0.58483 0.42738 0.0
H4790 H 0.13161 0.5753 0.40631 0.0
H4791 H 0.09134 0.52811 0.37516 0.0
H4792 H 0.06969 0.53763 0.3963 0.0
H4793 H 0.10386 0.55952 0.35685 0.0
H4794 H 0.12605 0.51541 0.38978 0.0
H4795 H 0.1398 0.50326 0.41561 0.0
H4796 H 0.1854 0.54954 0.42078 0.0
H4797 H 0.17187 0.562 0.39504 0.0
C4798 C 0.15127 0.53249 0.29309 0.0
C4799 C 0.16898 0.54131 0.29291 0.0
C4800 C 0.14288 0.53616 0.30929 0.0
C4801 C 0.15201 0.54921 0.32516 0.0
C4802 C 0.16982 0.558 0.32505 0.0
C4803 C 0.1784 0.55393 0.30887 0.0
C4804 C 0.14303 0.55235 0.34223 0.0
C4805 C 0.15008 0.54754 0.35864 0.0
C4806 C 0.1263 0.55694 0.3415 0.0
C4807 C 0.11857 0.56287 0.32468 0.0
C4808 C 0.1281 0.57802 0.31695 0.0
C4809 C 0.12074 0.58352 0.30112 0.0
C4810 C 0.10384 0.57399 0.2929 0.0
C4811 C 0.09426 0.55894 0.30051 0.0
C4812 C 0.10154 0.55341 0.31635 0.0
C4813 C 0.10588 0.57237 0.41606 0.0
C4814 C 0.08824 0.56245 0.41248 0.0
C4815 C 0.11827 0.56665 0.40449 0.0
C4816 C 0.1129 0.55108 0.38936 0.0
C4817 C 0.09558 0.54008 0.38696 0.0
C4818 C 0.08324 0.54575 0.3986 0.0
C4819 C 0.12338 0.55017 0.37325 0.0
C4820 C 0.11664 0.55573 0.35711 0.0
C4821 C 0.14035 0.54631 0.37427 0.0
C4822 C 0.14782 0.53981 0.39075 0.0
C4823 C 0.13886 0.52319 0.39669 0.0
C4824 C 0.14667 0.51617 0.41121 0.0
C4825 C 0.16343 0.52567 0.41989 0.0
C4826 C 0.1724 0.54223 0.4141 0.0
C4827 C 0.16467 0.54927 0.39955 0.0
H4828 H 0.1695 0.52015 0.43106 0.0
H4829 H 0.09817 0.57827 0.28065 0.0
H4830 H 0.81336 0.83777 0.57239 0.0
H4831 H 0.80719 0.82698 0.60186 0.0
H4832 H 0.78343 0.87505 0.61968 0.0
H4833 H 0.78985 0.88641 0.58973 0.0
H4834 H 0.80548 0.86872 0.64858 0.0
H4835 H 0.75706 0.82961 0.60498 0.0
H4836 H 0.74277 0.80776 0.57546 0.0
H4837 H 0.77228 0.76615 0.58627 0.0
H4838 H 0.78684 0.78781 0.61577 0.0
H4839 H 0.77889 0.83005 0.7286 0.0
H4840 H 0.77702 0.84188 0.69876 0.0
H4841 H 0.79616 0.79367 0.67015 0.0
H4842 H 0.79707 0.78131 0.69984 0.0
H4843 H 0.77341 0.80153 0.64703 0.0
H4844 H 0.82377 0.83988 0.68792 0.0
H4845 H 0.838 0.8596 0.71852 0.0
H4846 H 0.80674 0.90111 0.7131 0.0
H4847 H 0.79215 0.88148 0.68256 0.0
C4848 C 0.80677 0.84621 0.5824 0.0
C4849 C 0.80205 0.86302 0.57845 0.0
C4850 C 0.80316 0.83986 0.59933 0.0
C4851 C 0.79452 0.84993 0.61288 0.0
C4852 C 0.78999 0.86694 0.60933 0.0
C4853 C 0.79365 0.87341 0.59221 0.0
C4854 C 0.79073 0.84257 0.63076 0.0
C4855 C 0.79814 0.85417 0.64827 0.0
C4856 C 0.78166 0.82335 0.63039 0.0
C4857 C 0.77311 0.8104 0.61252 0.0
C4858 C 0.76059 0.81587 0.60098 0.0
C4859 C 0.75242 0.80349 0.58427 0.0
C4860 C 0.75663 0.78559 0.57898 0.0
C4861 C 0.76902 0.78001 0.59039 0.0
C4862 C 0.77721 0.79232 0.60712 0.0
C4863 C 0.78236 0.82184 0.71581 0.0
C4864 C 0.78806 0.80479 0.71642 0.0
C4865 C 0.78145 0.82866 0.69881 0.0
C4866 C 0.78693 0.81899 0.68226 0.0
C4867 C 0.79191 0.80146 0.6827 0.0
C4868 C 0.79238 0.79435 0.69964 0.0
C4869 C 0.7883 0.82757 0.66479 0.0
C4870 C 0.78054 0.81617 0.64737 0.0
C4871 C 0.79734 0.84682 0.66522 0.0
C4872 C 0.80682 0.85919 0.683 0.0
C4873 C 0.81996 0.85324 0.69323 0.0
C4874 C 0.82806 0.86437 0.71059 0.0
C4875 C 0.82327 0.88159 0.71775 0.0
C4876 C 0.81044 0.88777 0.70752 0.0
C4877 C 0.80228 0.87667 0.69017 0.0
H4878 H 0.82949 0.89016 0.73122 0.0
H4879 H 0.75027 0.77602 0.56605 0.0
H4880 H 0.75653 0.4292 0.5191 0.0
H4881 H 0.73144 0.44446 0.52153 0.0
H4882 H 0.76594 0.49957 0.52173 0.0
H4883 H 0.79129 0.48444 0.51996 0.0
H4884 H 0.74326 0.50136 0.54802 0.0
H4885 H 0.73973 0.47496 0.4812 0.0
H4886 H 0.74007 0.44837 0.45474 0.0
H4887 H 0.69357 0.41469 0.47199 0.0
H4888 H 0.69305 0.44104 0.49869 0.0
H4889 H 0.67869 0.5517 0.54061 0.0
H4890 H 0.7017 0.53589 0.52816 0.0
H4891 H 0.66878 0.48056 0.5304 0.0
H4892 H 0.64546 0.49642 0.54226 0.0
H4893 H 0.6906 0.4787 0.50096 0.0
H4894 H 0.69488 0.50368 0.56815 0.0
H4895 H 0.69632 0.52798 0.59719 0.0
H4896 H 0.74294 0.56249 0.58103 0.0
H4897 H 0.74156 0.53857 0.55169 0.0
C4898 C 0.75876 0.44459 0.5198 0.0
C4899 C 0.77572 0.45573 0.5193 0.0
C4900 C 0.74444 0.45322 0.521 0.0
C4901 C 0.74689 0.47298 0.52128 0.0
C4902 C 0.76389 0.48423 0.52132 0.0
C4903 C 0.77829 0.47564 0.52042 0.0
C4904 C 0.73171 0.48199 0.52212 0.0
C4905 C 0.7319 0.49674 0.53752 0.0
C4906 C 0.71677 0.47534 0.50868 0.0
C4907 C 0.71635 0.45997 0.49194 0.0
C4908 C 0.72954 0.4619 0.47931 0.0
C4909 C 0.72979 0.44686 0.4643 0.0
C4910 C 0.71685 0.42985 0.46169 0.0
C4911 C 0.70356 0.4279 0.47401 0.0
C4912 C 0.70324 0.44291 0.48905 0.0
C4913 C 0.67623 0.53615 0.5378 0.0
C4914 C 0.66062 0.52515 0.54249 0.0
C4915 C 0.68928 0.52716 0.53072 0.0
C4916 C 0.68698 0.50717 0.52881 0.0
C4917 C 0.67073 0.49602 0.53186 0.0
C4918 C 0.65753 0.50503 0.53869 0.0
C4919 C 0.70236 0.49844 0.5267 0.0
C4920 C 0.70211 0.48359 0.51123 0.0
C4921 C 0.71734 0.50491 0.54015 0.0
C4922 C 0.71795 0.51949 0.55759 0.0
C4923 C 0.7053 0.51657 0.57067 0.0
C4924 C 0.70613 0.53025 0.5872 0.0
C4925 C 0.71967 0.5468 0.59092 0.0
C4926 C 0.73242 0.5497 0.5781 0.0
C4927 C 0.7316 0.5361 0.56151 0.0
H4928 H 0.72033 0.55734 0.60376 0.0
H4929 H 0.71712 0.41818 0.45012 0.0
H4930 H 0.24567 0.15885 0.52662 0.0
H4931 H 0.21677 0.13821 0.52809 0.0
H4932 H 0.20321 0.13832 0.46894 0.0
H4933 H 0.23164 0.16034 0.46809 0.0
H4934 H 0.17588 0.14047 0.48493 0.0
H4935 H 0.21514 0.09714 0.48998 0.0
H4936 H 0.24081 0.08779 0.50435 0.0
H4937 H 0.21899 0.0924 0.55825 0.0
H4938 H 0.1933 0.10196 0.54422 0.0
H4939 H 0.09781 0.06518 0.47535 0.0
H4940 H 0.12726 0.08435 0.4723 0.0
H4941 H 0.14185 0.08676 0.53172 0.0
H4942 H 0.11294 0.06695 0.53439 0.0
H4943 H 0.16867 0.08292 0.51497 0.0
H4944 H 0.12999 0.12621 0.51114 0.0
H4945 H 0.10464 0.13727 0.49832 0.0
H4946 H 0.12538 0.13444 0.44389 0.0
H4947 H 0.15071 0.12311 0.45631 0.0
C4948 C 0.23661 0.1542 0.51386 0.0
C4949 C 0.24108 0.16097 0.49714 0.0
C4950 C 0.21999 0.14224 0.51464 0.0
C4951 C 0.20759 0.13602 0.49848 0.0
C4952 C 0.21229 0.14268 0.48168 0.0
C4953 C 0.22868 0.15515 0.4811 0.0
C4954 C 0.18964 0.12313 0.49913 0.0
C4955 C 0.17444 0.1277 0.49122 0.0
C4956 C 0.18725 0.10667 0.50784 0.0
C4957 C 0.20238 0.10033 0.51608 0.0
C4958 C 0.21585 0.09616 0.50489 0.0
C4959 C 0.2304 0.09085 0.51298 0.0
C4960 C 0.23154 0.08953 0.53221 0.0
C4961 C 0.21809 0.09342 0.54337 0.0
C4962 C 0.20352 0.09875 0.53535 0.0
C4963 C 0.10743 0.06961 0.48765 0.0
C4964 C 0.10291 0.06468 0.50516 0.0
C4965 C 0.12425 0.08085 0.48601 0.0
C4966 C 0.13697 0.08759 0.50188 0.0
C4967 C 0.13249 0.08206 0.5192 0.0
C4968 C 0.11578 0.07081 0.5208 0.0
C4969 C 0.15492 0.10018 0.50065 0.0
C4970 C 0.17012 0.09559 0.50852 0.0
C4971 C 0.15727 0.11671 0.49203 0.0
C4972 C 0.14208 0.12353 0.48457 0.0
C4973 C 0.12904 0.12777 0.49639 0.0
C4974 C 0.11468 0.13408 0.4892 0.0
C4975 C 0.1133 0.13633 0.47025 0.0
C4976 C 0.12638 0.13252 0.45851 0.0
C4977 C 0.14075 0.12617 0.46562 0.0
H4978 H 0.10216 0.14121 0.46471 0.0
H4979 H 0.24284 0.08546 0.53846 0.0
H4980 H 0.2119 0.96843 0.74483 0.0
H4981 H 0.22739 0.94184 0.74409 0.0
H4982 H 0.19421 0.91933 0.78456 0.0
H4983 H 0.17811 0.94529 0.78452 0.0
H4984 H 0.22938 0.91846 0.79505 0.0
H4985 H 0.19093 0.89374 0.73926 0.0
H4986 H 0.17598 0.89208 0.70764 0.0
H4987 H 0.22578 0.89868 0.68372 0.0
H4988 H 0.24107 0.90059 0.71529 0.0
H4989 H 0.26104 0.83265 0.79779 0.0
H4990 H 0.24467 0.85705 0.79443 0.0
H4991 H 0.26932 0.86662 0.74372 0.0
H4992 H 0.28574 0.84117 0.74689 0.0
H4993 H 0.23826 0.87422 0.73739 0.0
H4994 H 0.27618 0.9085 0.79552 0.0
H4995 H 0.29021 0.914 0.82827 0.0
H4996 H 0.24073 0.88935 0.84735 0.0
H4997 H 0.22625 0.88472 0.81484 0.0
C4998 C 0.2076 0.95777 0.75348 0.0
C4999 C 0.19323 0.95967 0.76465 0.0
C5000 C 0.21665 0.9422 0.75303 0.0
C5001 C 0.21247 0.92769 0.76425 0.0
C5002 C 0.19823 0.92971 0.77556 0.0
C5003 C 0.18877 0.94489 0.77549 0.0
C5004 C 0.22315 0.91127 0.76485 0.0
C5005 C 0.23099 0.90878 0.78227 0.0
C5006 C 0.22616 0.8981 0.74857 0.0
C5007 C 0.21718 0.89763 0.72971 0.0
C5008 C 0.19873 0.89512 0.72732 0.0
C5009 C 0.19018 0.89404 0.70938 0.0
C5010 C 0.19993 0.89536 0.69369 0.0
C5011 C 0.21825 0.89772 0.6959 0.0
C5012 C 0.22687 0.89879 0.71382 0.0
C5013 C 0.26346 0.83994 0.78592 0.0
C5014 C 0.27556 0.83438 0.773 0.0
C5015 C 0.25388 0.85454 0.78406 0.0
C5016 C 0.25554 0.86523 0.76914 0.0
C5017 C 0.26736 0.85946 0.75575 0.0
C5018 C 0.27707 0.84461 0.75762 0.0
C5019 C 0.24478 0.8816 0.7677 0.0
C5020 C 0.23679 0.884 0.75014 0.0
C5021 C 0.24153 0.8948 0.78383 0.0
C5022 C 0.25029 0.89592 0.80282 0.0
C5023 C 0.26838 0.90409 0.8067 0.0
C5024 C 0.27635 0.90726 0.82524 0.0
C5025 C 0.26643 0.90181 0.83985 0.0
C5026 C 0.24843 0.89347 0.83601 0.0
C5027 C 0.2403 0.89076 0.81759 0.0
H5028 H 0.27268 0.90411 0.85416 0.0
H5029 H 0.19329 0.89448 0.67981 0.0
H5030 H 0.38453 0.93161 0.02311 0.0
H5031 H 0.41218 0.95566 0.03081 0.0
H5032 H 0.38632 0.99876 0.01512 0.0
H5033 H 0.35855 0.97487 0.0075 0.0
H5034 H 0.41153 0.98523 0.99112 0.0
H5035 H 0.40651 0.01085 0.05633 0.0
H5036 H 0.40067 0.0092 0.0895 0.0
H5037 H 0.44256 0.97961 0.09501 0.0
H5038 H 0.44852 0.98085 0.06178 0.0
H5039 H 0.49921 0.05395 0.01754 0.0
H5040 H 0.46742 0.04009 0.01204 0.0
H5041 H 0.47747 0.98331 0.00943 0.0
H5042 H 0.50919 0.99705 0.01409 0.0
H5043 H 0.45914 0.00908 0.0438 0.0
H5044 H 0.45555 0.97027 0.98116 0.0
H5045 H 0.45794 0.96141 0.94682 0.0
H5046 H 0.43216 0.0061 0.93625 0.0
H5047 H 0.42953 0.01512 0.97063 0.0
C5048 C 0.38473 0.94627 0.02153 0.0
C5049 C 0.36973 0.95137 0.01412 0.0
C5050 C 0.40033 0.96004 0.02642 0.0
C5051 C 0.401 0.97885 0.02369 0.0
C5052 C 0.38576 0.9843 0.01759 0.0
C5053 C 0.37011 0.9706 0.01291 0.0
C5054 C 0.41804 0.99051 0.02148 0.0
C5055 C 0.42183 0.99115 0.00271 0.0
C5056 C 0.43146 0.99685 0.03658 0.0
C5057 C 0.4279 0.9959 0.05653 0.0
C5058 C 0.41438 1.00385 0.06456 0.0
C5059 C 0.41107 1.00302 0.08337 0.0
C5060 C 0.42121 0.99431 0.09432 0.0
C5061 C 0.43471 0.98637 0.08651 0.0
C5062 C 0.43809 0.98717 0.06768 0.0
C5063 C 0.49452 0.03847 0.01473 0.0
C5064 C 0.50618 0.02633 0.01578 0.0
C5065 C 0.47656 0.03063 0.01157 0.0
C5066 C 0.47046 0.0108 0.0101 0.0
C5067 C 0.4822 0.99859 0.00999 0.0
C5068 C 0.50014 0.00639 0.01273 0.0
C5069 C 0.45238 1.00367 0.01348 0.0
C5070 C 0.4486 1.00384 0.03238 0.0
C5071 C 0.43904 0.99706 0.9985 0.0
C5072 C 0.44276 0.99367 0.97841 0.0
C5073 C 0.45078 0.9785 0.97155 0.0
C5074 C 0.45189 0.97323 0.95207 0.0
C5075 C 0.44521 0.98319 0.93936 0.0
C5076 C 0.43735 0.99842 0.94612 0.0
C5077 C 0.43606 1.00363 0.96559 0.0
H5078 H 0.44618 0.97916 0.92427 0.0
H5079 H 0.41855 0.9938 0.10886 0.0
H5080 H 0.86972 0.56178 0.79527 0.0
H5081 H 0.85386 0.58607 0.78939 0.0
H5082 H 0.90306 0.62482 0.7845 0.0
H5083 H 0.91922 0.60065 0.79104 0.0
H5084 H 0.88012 0.64182 0.80552 0.0
H5085 H 0.87946 0.60047 0.74547 0.0
H5086 H 0.87508 0.56903 0.72404 0.0
H5087 H 0.82017 0.55676 0.7332 0.0
H5088 H 0.82426 0.58797 0.75498 0.0
H5089 H 0.83986 0.6983 0.75124 0.0
H5090 H 0.85763 0.68116 0.76823 0.0
H5091 H 0.81083 0.63788 0.77109 0.0
H5092 H 0.79326 0.6546 0.75336 0.0
H5093 H 0.83435 0.62409 0.75074 0.0
H5094 H 0.83518 0.66518 0.81142 0.0
H5095 H 0.84013 0.69557 0.83459 0.0
H5096 H 0.89486 0.70806 0.82457 0.0
H5097 H 0.89019 0.67784 0.80116 0.0
C5098 C 0.87714 0.57548 0.79293 0.0
C5099 C 0.89555 0.57947 0.79325 0.0
C5100 C 0.86812 0.58924 0.78964 0.0
C5101 C 0.87745 0.60682 0.7862 0.0
C5102 C 0.89586 0.61112 0.78706 0.0
C5103 C 0.90496 0.59741 0.79068 0.0
C5104 C 0.86771 0.62045 0.7812 0.0
C5105 C 0.87026 0.63823 0.7934 0.0
C5106 C 0.85481 0.61516 0.76556 0.0
C5107 C 0.85219 0.59658 0.75195 0.0
C5108 C 0.86646 0.59105 0.74299 0.0
C5109 C 0.86403 0.57325 0.73078 0.0
C5110 C 0.84736 0.5609 0.72728 0.0
C5111 C 0.83307 0.56634 0.73593 0.0
C5112 C 0.83543 0.5841 0.74819 0.0
C5113 C 0.83344 0.68539 0.75601 0.0
C5114 C 0.81553 0.67725 0.75081 0.0
C5115 C 0.84346 0.6758 0.76585 0.0
C5116 C 0.8354 0.65835 0.77075 0.0
C5117 C 0.81712 0.65138 0.7673 0.0
C5118 C 0.80719 0.66074 0.75714 0.0
C5119 C 0.84627 0.64545 0.77547 0.0
C5120 C 0.84414 0.62781 0.76293 0.0
C5121 C 0.85958 0.65093 0.79073 0.0
C5122 C 0.86228 0.66935 0.80439 0.0
C5123 C 0.84822 0.67452 0.81398 0.0
C5124 C 0.85099 0.69169 0.8272 0.0
C5125 C 0.86779 0.70377 0.83101 0.0
C5126 C 0.88185 0.69871 0.82159 0.0
C5127 C 0.87915 0.68156 0.80836 0.0
H5128 H 0.86991 0.71703 0.84129 0.0
H5129 H 0.84552 0.54712 0.71784 0.0
H5130 H 0.83416 0.64794 0.98008 0.0
H5131 H 0.86002 0.6338 0.98229 0.0
H5132 H 0.8733 0.66432 0.04023 0.0
H5133 H 0.84806 0.67946 0.03742 0.0
H5134 H 0.902 0.66364 0.02565 0.0
H5135 H 0.85009 0.61392 0.02556 0.0
H5136 H 0.82099 0.59352 0.01263 0.0
H5137 H 0.84323 0.57111 0.96241 0.0
H5138 H 0.87241 0.59164 0.97492 0.0
H5139 H 0.94977 0.60316 0.06311 0.0
H5140 H 0.92874 0.62158 0.05427 0.0
H5141 H 0.92517 0.59262 0.9959 0.0
H5142 H 0.94605 0.57367 0.00491 0.0
H5143 H 0.89299 0.5928 0.00737 0.0
H5144 H 0.94638 0.64091 0.01082 0.0
H5145 H 0.97519 0.65956 0.02673 0.0
H5146 H 0.94959 0.68396 0.07334 0.0
H5147 H 0.92066 0.66524 0.0579 0.0
C5148 C 0.84269 0.65162 0.99324 0.0
C5149 C 0.83904 0.66448 0.00871 0.0
C5150 C 0.85742 0.64346 0.99456 0.0
C5151 C 0.86845 0.64744 0.01165 0.0
C5152 C 0.86501 0.66081 0.02693 0.0
C5153 C 0.85052 0.66937 0.02541 0.0
C5154 C 0.88319 0.63731 0.01384 0.0
C5155 C 0.89993 0.64813 0.02175 0.0
C5156 C 0.88081 0.61707 0.00843 0.0
C5157 C 0.86337 0.60445 1.00108 0.0
C5158 C 0.84875 0.6047 0.01173 0.0
C5159 C 0.83224 0.59313 0.00447 0.0
C5160 C 0.83025 0.58107 0.98669 0.0
C5161 C 0.84478 0.5805 0.97616 0.0
C5162 C 0.8613 0.59209 0.98333 0.0
C5163 C 0.94465 0.60085 0.04835 0.0
C5164 C 0.94949 0.5869 0.03473 0.0
C5165 C 0.93269 0.6115 0.04326 0.0
C5166 C 0.9254 0.60867 0.02436 0.0
C5167 C 0.93063 0.59513 0.01057 0.0
C5168 C 0.94267 0.58443 0.01568 0.0
C5169 C 0.91164 0.6191 0.01941 0.0
C5170 C 0.89509 0.60833 0.01099 0.0
C5171 C 0.91413 0.63934 0.0246 0.0
C5172 C 0.93137 0.65156 0.03327 0.0
C5173 C 0.9469 0.65026 0.02446 0.0
C5174 C 0.96324 0.66081 0.0334 0.0
C5175 C 0.96418 0.67279 0.05108 0.0
C5176 C 0.9488 0.67459 0.05968 0.0
C5177 C 0.93243 0.66405 0.05082 0.0
H5178 H 0.9768 0.68056 0.05822 0.0
H5179 H 0.81746 0.57213 0.98109 0.0
H5180 H 0.17488 0.08881 0.79387 0.0
H5181 H 0.19333 0.12026 0.79383 0.0
H5182 H 0.22979 0.09378 0.76163 0.0
H5183 H 0.2113 0.06166 0.76222 0.0
H5184 H 0.249 0.12432 0.78402 0.0
H5185 H 0.19676 0.11971 0.74289 0.0
H5186 H 0.16467 0.11385 0.73457 0.0
H5187 H 0.16099 0.15915 0.7804 0.0
H5188 H 0.19302 0.16512 0.78914 0.0
H5189 H 0.29607 0.21572 0.76578 0.0
H5190 H 0.27919 0.18295 0.76448 0.0
H5191 H 0.23667 0.20532 0.78901 0.0
H5192 H 0.25307 0.23804 0.78885 0.0
H5193 H 0.22057 0.17592 0.76917 0.0
H5194 H 0.27174 0.17988 0.81175 0.0
H5195 H 0.30357 0.18558 0.82152 0.0
H5196 H 0.309 0.14181 0.77497 0.0
H5197 H 0.27725 0.13604 0.7648 0.0
C5198 C 0.18683 0.08937 0.78674 0.0
C5199 C 0.19118 0.07201 0.77801 0.0
C5200 C 0.19749 0.10779 0.78654 0.0
C5201 C 0.21311 0.11027 0.77719 0.0
C5202 C 0.21789 0.09294 0.76889 0.0
C5203 C 0.20721 0.07428 0.76926 0.0
C5204 C 0.22412 0.1307 0.7763 0.0
C5205 C 0.24265 0.13542 0.78047 0.0
C5206 C 0.21643 0.14606 0.77223 0.0
C5207 C 0.19726 0.14278 0.76672 0.0
C5208 C 0.18909 0.12839 0.75121 0.0
C5209 C 0.17092 0.12504 0.74643 0.0
C5210 C 0.1608 0.13611 0.75696 0.0
C5211 C 0.16884 0.15059 0.77226 0.0
C5212 C 0.18701 0.15398 0.77712 0.0
C5213 C 0.28323 0.2138 0.77116 0.0
C5214 C 0.2764 0.23015 0.77777 0.0
C5215 C 0.27339 0.19466 0.77058 0.0
C5216 C 0.25636 0.19065 0.77724 0.0
C5217 C 0.24957 0.20712 0.78376 0.0
C5218 C 0.2592 0.22622 0.78385 0.0
C5219 C 0.24558 0.16978 0.77714 0.0
C5220 C 0.22702 0.16493 0.77275 0.0
C5221 C 0.25321 0.15436 0.78123 0.0
C5222 C 0.27219 0.15765 0.78745 0.0
C5223 C 0.27975 0.17152 0.80358 0.0
C5224 C 0.29777 0.17477 0.80918 0.0
C5225 C 0.30831 0.16409 0.79885 0.0
C5226 C 0.30084 0.15009 0.78294 0.0
C5227 C 0.28283 0.14682 0.77726 0.0
H5228 H 0.32226 0.16663 0.8032 0.0
H5229 H 0.14673 0.13348 0.75325 0.0
H5230 H 0.37889 0.99929 0.30916 0.0
H5231 H 0.35518 0.97087 0.29995 0.0
H5232 H 0.3934 0.9353 0.29284 0.0
H5233 H 0.41743 0.96387 0.30145 0.0
H5234 H 0.3676 0.92605 0.26358 0.0
H5235 H 0.37433 0.94018 0.33159 0.0
H5236 H 0.37599 0.96129 0.36277 0.0
H5237 H 0.32214 0.96495 0.35179 0.0
H5238 H 0.32034 0.94432 0.32022 0.0
H5239 H 0.34253 0.83765 0.27685 0.0
H5240 H 0.35268 0.87198 0.28888 0.0
H5241 H 0.3006 0.88059 0.27483 0.0
H5242 H 0.29 0.84556 0.26397 0.0
H5243 H 0.32567 0.90692 0.31032 0.0
H5244 H 0.3227 0.87983 0.24197 0.0
H5245 H 0.32741 0.85141 0.22027 0.0
H5246 H 0.3828 0.86719 0.23843 0.0
H5247 H 0.37828 0.89487 0.26122 0.0
C5248 C 0.38229 0.9854 0.30578 0.0
C5249 C 0.39997 0.98365 0.30611 0.0
C5250 C 0.36874 0.96929 0.30042 0.0
C5251 C 0.37271 0.95126 0.2957 0.0
C5252 C 0.39028 0.94932 0.29635 0.0
C5253 C 0.40391 0.9655 0.30159 0.0
C5254 C 0.35851 0.93416 0.29098 0.0
C5255 C 0.35816 0.92198 0.27355 0.0
C5256 C 0.34641 0.92912 0.30423 0.0
C5257 C 0.34729 0.94102 0.32341 0.0
C5258 C 0.36289 0.94566 0.33573 0.0
C5259 C 0.36387 0.95754 0.35347 0.0
C5260 C 0.3492 0.96454 0.35922 0.0
C5261 C 0.33351 0.9596 0.34727 0.0
C5262 C 0.33252 0.94785 0.32943 0.0
C5263 C 0.3332 0.84688 0.27688 0.0
C5264 C 0.31567 0.83952 0.26966 0.0
C5265 C 0.33887 0.86627 0.28393 0.0
C5266 C 0.32733 0.87849 0.28241 0.0
C5267 C 0.3095 0.8711 0.27607 0.0
C5268 C 0.30362 0.8514 0.26956 0.0
C5269 C 0.33519 0.89863 0.28323 0.0
C5270 C 0.33435 0.9115 0.29984 0.0
C5271 C 0.34697 0.90387 0.26967 0.0
C5272 C 0.35008 0.88943 0.25346 0.0
C5273 C 0.33589 0.8773 0.2413 0.0
C5274 C 0.33851 0.86114 0.229 0.0
C5275 C 0.35539 0.85742 0.22816 0.0
C5276 C 0.36972 0.87002 0.23926 0.0
C5277 C 0.36712 0.8859 0.25194 0.0
H5278 H 0.35747 0.84487 0.21881 0.0
H5279 H 0.34998 0.97374 0.37297 0.0
H5280 H 0.59325 0.38165 0.61963 0.0
H5281 H 0.58919 0.40885 0.60517 0.0
H5282 H 0.56698 0.36998 0.55294 0.0
H5283 H 0.57246 0.3429 0.56702 0.0
H5284 H 0.58212 0.39978 0.54241 0.0
H5285 H 0.54144 0.3944 0.59024 0.0
H5286 H 0.53289 0.39199 0.62252 0.0
H5287 H 0.56777 0.44657 0.64486 0.0
H5288 H 0.57661 0.44922 0.61273 0.0
H5289 H 0.54985 0.47393 0.5059 0.0
H5290 H 0.55152 0.44454 0.51795 0.0
H5291 H 0.57413 0.47895 0.57236 0.0
H5292 H 0.57074 0.50794 0.56077 0.0
H5293 H 0.55687 0.44978 0.58038 0.0
H5294 H 0.59753 0.45461 0.53122 0.0
H5295 H 0.60517 0.45617 0.4985 0.0
H5296 H 0.56913 0.40197 0.47783 0.0
H5297 H 0.56112 0.40021 0.5104 0.0
C5298 C 0.58766 0.37886 0.605 0.0
C5299 C 0.58321 0.35988 0.59465 0.0
C5300 C 0.58504 0.39454 0.5967 0.0
C5301 C 0.57706 0.39188 0.57794 0.0
C5302 C 0.57302 0.37288 0.56741 0.0
C5303 C 0.57616 0.35723 0.57555 0.0
C5304 C 0.57282 0.4087 0.56952 0.0
C5305 C 0.57642 0.41054 0.55075 0.0
C5306 C 0.56543 0.42322 0.57999 0.0
C5307 C 0.55975 0.42194 0.59916 0.0
C5308 C 0.54728 0.40587 0.60206 0.0
C5309 C 0.5424 0.40446 0.62032 0.0
C5310 C 0.54981 0.4191 0.63574 0.0
C5311 C 0.56204 0.43524 0.63291 0.0
C5312 C 0.56696 0.43673 0.61468 0.0
C5313 C 0.55469 0.47514 0.5206 0.0
C5314 C 0.55981 0.49339 0.53242 0.0
C5315 C 0.55607 0.45824 0.52746 0.0
C5316 C 0.56358 0.45907 0.5461 0.0
C5317 C 0.56833 0.47741 0.55796 0.0
C5318 C 0.56638 0.49418 0.55129 0.0
C5319 C 0.56663 0.44124 0.55345 0.0
C5320 C 0.56267 0.43911 0.57202 0.0
C5321 C 0.57357 0.42644 0.5427 0.0
C5322 C 0.57863 0.42736 0.52321 0.0
C5323 C 0.59121 0.44306 0.51968 0.0
C5324 C 0.59559 0.44398 0.50116 0.0
C5325 C 0.58761 0.4292 0.48609 0.0
C5326 C 0.57528 0.41342 0.48951 0.0
C5327 C 0.57082 0.41245 0.50799 0.0
H5328 H 0.59101 0.42995 0.47176 0.0
H5329 H 0.54606 0.41795 0.64987 0.0
H5330 H 0.45119 0.7798 0.42443 0.0
H5331 H 0.42633 0.78037 0.40292 0.0
H5332 H 0.45341 0.76093 0.35509 0.0
H5333 H 0.47907 0.76105 0.37691 0.0
H5334 H 0.4375 0.78544 0.34495 0.0
H5335 H 0.41457 0.73174 0.37378 0.0
H5336 H 0.40674 0.71372 0.39946 0.0
H5337 H 0.37437 0.75258 0.42043 0.0
H5338 H 0.38219 0.77098 0.39502 0.0
H5339 H 0.36002 0.77002 0.28002 0.0
H5340 H 0.38507 0.76601 0.29974 0.0
H5341 H 0.36243 0.78791 0.35009 0.0
H5342 H 0.33724 0.79169 0.33042 0.0
H5343 H 0.37596 0.76027 0.35785 0.0
H5344 H 0.39991 0.81464 0.33001 0.0
H5345 H 0.40746 0.83254 0.30417 0.0
H5346 H 0.43754 0.79192 0.28131 0.0
H5347 H 0.42996 0.77365 0.30688 0.0
C5348 C 0.45205 0.77547 0.40935 0.0
C5349 C 0.4675 0.77025 0.40271 0.0
C5350 C 0.43747 0.77564 0.39689 0.0
C5351 C 0.43733 0.77022 0.37705 0.0
C5352 C 0.45278 0.76507 0.37023 0.0
C5353 C 0.46758 0.76506 0.38281 0.0
C5354 C 0.42143 0.77073 0.36369 0.0
C5355 C 0.4241 0.77954 0.3477 0.0
C5356 C 0.40358 0.76365 0.36711 0.0
C5357 C 0.39913 0.75285 0.38262 0.0
C5358 C 0.40592 0.73655 0.38398 0.0
C5359 C 0.40145 0.72624 0.39846 0.0
C5360 C 0.39011 0.73203 0.4116 0.0
C5361 C 0.38319 0.74813 0.41027 0.0
C5362 C 0.38762 0.7585 0.39583 0.0
C5363 C 0.36025 0.77406 0.29522 0.0
C5364 C 0.34631 0.78136 0.30329 0.0
C5365 C 0.37484 0.77185 0.30667 0.0
C5366 C 0.3762 0.77694 0.32671 0.0
C5367 C 0.36209 0.78386 0.3348 0.0
C5368 C 0.34754 0.78609 0.32337 0.0
C5369 C 0.39208 0.77505 0.33922 0.0
C5370 C 0.38939 0.76604 0.35507 0.0
C5371 C 0.40988 0.78191 0.33569 0.0
C5372 C 0.41422 0.79269 0.3202 0.0
C5373 C 0.408 0.80945 0.31936 0.0
C5374 C 0.41231 0.81967 0.30479 0.0
C5375 C 0.42293 0.81335 0.29108 0.0
C5376 C 0.42928 0.79679 0.29191 0.0
C5377 C 0.42499 0.78649 0.30644 0.0
H5378 H 0.42629 0.8213 0.27983 0.0
H5379 H 0.38665 0.72401 0.42279 0.0
H5380 H 0.06542 0.75637 0.05684 0.0
H5381 H 0.06033 0.72138 0.04618 0.0
H5382 H 0.08067 0.71575 0.10152 0.0
H5383 H 0.08518 0.75073 0.11242 0.0
H5384 H 0.09618 0.697 0.06805 0.0
H5385 H 0.03859 0.69907 0.09155 0.0
H5386 H 0.01355 0.7151 0.09205 0.0
H5387 H 1.00306 0.69746 0.03147 0.0
H5388 H 0.02816 0.68143 0.03064 0.0
H5389 H 0.07122 0.59739 0.07143 0.0
H5390 H 0.07533 0.6324 0.07655 0.0
H5391 H 0.05351 0.62828 0.0191 0.0
H5392 H 0.05016 0.593 0.01363 0.0
H5393 H 0.0378 0.65222 0.04999 0.0
H5394 H 0.09179 0.65494 0.02257 0.0
H5395 H 0.12118 0.65058 0.01448 0.0
H5396 H 0.13973 0.66301 0.07379 0.0
H5397 H 0.11053 0.66833 0.08213 0.0
C5398 C 0.06847 0.74761 0.06685 0.0
C5399 C 0.07546 0.75632 0.08558 0.0
C5400 C 0.0656 0.7276 0.06072 0.0
C5401 C 0.07009 0.71579 0.07301 0.0
C5402 C 0.07701 0.72446 0.09176 0.0
C5403 C 0.07945 0.74445 0.09805 0.0
C5404 C 0.06816 0.69457 0.06615 0.0
C5405 C 0.08339 0.68719 0.06452 0.0
C5406 C 0.05157 0.6818 0.06029 0.0
C5407 C 0.03523 0.68915 0.06103 0.0
C5408 C 0.03083 0.69849 0.07837 0.0
C5409 C 0.01672 0.70768 0.0787 0.0
C5410 C 0.0069 0.70755 0.06177 0.0
C5411 C 0.01082 0.69772 0.04454 0.0
C5412 C 0.02492 0.68849 0.04415 0.0
C5413 C 0.06788 0.60397 0.05965 0.0
C5414 C 0.0609 0.59239 0.04195 0.0
C5415 C 0.07006 0.62403 0.06265 0.0
C5416 C 0.06468 0.63316 0.04829 0.0
C5417 C 0.05781 0.62169 0.03045 0.0
C5418 C 0.05613 0.60153 0.02724 0.0
C5419 C 0.06595 0.65453 0.05255 0.0
C5420 C 0.05059 0.66196 0.05373 0.0
C5421 C 0.08246 0.66758 0.0574 0.0
C5422 C 0.09902 0.66174 0.05296 0.0
C5423 C 0.10207 0.6564 0.03388 0.0
C5424 C 0.11875 0.65402 0.02924 0.0
C5425 C 0.13235 0.6565 0.04361 0.0
C5426 C 0.12922 0.66119 0.06267 0.0
C5427 C 0.11265 0.66401 0.06736 0.0
H5428 H 0.14526 0.65461 0.03998 0.0
H5429 H 0.9961 0.71485 0.06202 0.0
H5430 H 0.05753 0.2761 0.87538 0.0
H5431 H 0.08522 0.2791 0.86073 0.0
H5432 H 0.11171 0.27155 0.91239 0.0
H5433 H 0.08401 0.27018 0.92767 0.0
H5434 H 0.13409 0.29483 0.89832 0.0
H5435 H 0.09808 0.23371 0.86849 0.0
H5436 H 0.07059 0.21204 0.8524 0.0
H5437 H 0.07371 0.24287 0.80616 0.0
H5438 H 0.10113 0.26482 0.82206 0.0
H5439 H 0.20959 0.28911 0.84384 0.0
H5440 H 0.18531 0.28079 0.86373 0.0
H5441 H 0.14799 0.28505 0.81878 0.0
H5442 H 0.17164 0.29157 0.79874 0.0
H5443 H 0.1327 0.25892 0.83271 0.0
H5444 H 0.16799 0.3221 0.86503 0.0
H5445 H 0.19494 0.34377 0.88242 0.0
H5446 H 0.19345 0.30819 0.92471 0.0
H5447 H 0.1666 0.28622 0.90745 0.0
C5448 C 0.06921 0.27497 0.88365 0.0
C5449 C 0.06837 0.27255 0.90264 0.0
C5450 C 0.08516 0.27655 0.87516 0.0
C5451 C 0.10077 0.27482 0.88501 0.0
C5452 C 0.10002 0.27274 0.9042 0.0
C5453 C 0.08409 0.27183 0.91294 0.0
C5454 C 0.1176 0.27513 0.87514 0.0
C5455 C 0.13377 0.28677 0.88404 0.0
C5456 C 0.11762 0.26465 0.85648 0.0
C5457 C 0.10162 0.25091 0.84648 0.0
C5458 C 0.09291 0.23582 0.85487 0.0
C5459 C 0.07733 0.22352 0.8458 0.0
C5460 C 0.0704 0.22609 0.82828 0.0
C5461 C 0.0791 0.24089 0.81972 0.0
C5462 C 0.09469 0.25323 0.82872 0.0
C5463 C 0.19616 0.28781 0.83809 0.0
C5464 C 0.19278 0.2914 0.81965 0.0
C5465 C 0.18219 0.28341 0.84966 0.0
C5466 C 0.1645 0.2828 0.84323 0.0
C5467 C 0.16126 0.28546 0.82449 0.0
C5468 C 0.17499 0.2894 0.81294 0.0
C5469 C 0.1491 0.2795 0.85538 0.0
C5470 C 0.13313 0.26704 0.84698 0.0
C5471 C 0.14937 0.28914 0.8745 0.0
C5472 C 0.16544 0.30241 0.88483 0.0
C5473 C 0.17348 0.31886 0.87797 0.0
C5474 C 0.18873 0.33119 0.88782 0.0
C5475 C 0.19594 0.32732 0.90463 0.0
C5476 C 0.18788 0.31115 0.91167 0.0
C5477 C 0.17266 0.29876 0.90187 0.0
H5478 H 0.20774 0.33688 0.91222 0.0
H5479 H 0.05829 0.2166 0.82132 0.0
H5480 H 0.61737 0.77452 0.91901 0.0
H5481 H 0.61227 0.74593 0.93385 0.0
H5482 H 0.55625 0.73687 0.91882 0.0
H5483 H 0.56137 0.76553 0.9044 0.0
H5484 H 0.56536 0.74048 0.95706 0.0
H5485 H 0.57779 0.7055 0.89728 0.0
H5486 H 0.59712 0.70384 0.87121 0.0
H5487 H 0.64005 0.70164 0.91039 0.0
H5488 H 0.62099 0.70355 0.93676 0.0
H5489 H 0.52823 0.65607 0.98514 0.0
H5490 H 0.53827 0.67828 0.96385 0.0
H5491 H 0.59241 0.6786 0.98085 0.0
H5492 H 0.5823 0.6557 0.0017 0.0
H5493 H 0.5876 0.68053 0.94312 0.0
H5494 H 0.57419 0.71351 0.00275 0.0
H5495 H 0.55645 0.72054 0.02946 0.0
H5496 H 0.51632 0.73012 0.99108 0.0
H5497 H 0.5337 0.72288 0.9641 0.0
C5498 C 0.60413 0.76583 0.91822 0.0
C5499 C 0.58974 0.77167 0.91044 0.0
C5500 C 0.6012 0.74972 0.92678 0.0
C5501 C 0.58389 0.73949 0.92738 0.0
C5502 C 0.56967 0.74469 0.91843 0.0
C5503 C 0.57258 0.76079 0.91003 0.0
C5504 C 0.58031 0.72442 0.93878 0.0
C5505 C 0.56999 0.72723 0.95391 0.0
C5506 C 0.58704 0.70769 0.93496 0.0
C5507 C 0.59797 0.70456 0.91894 0.0
C5508 C 0.59132 0.70449 0.90029 0.0
C5509 C 0.60224 0.70361 0.88548 0.0
C5510 C 0.6198 0.70261 0.88913 0.0
C5511 C 0.62643 0.70235 0.90758 0.0
C5512 C 0.61556 0.70327 0.92246 0.0
C5513 C 0.54225 0.66081 0.98418 0.0
C5514 C 0.55456 0.65473 0.9953 0.0
C5515 C 0.54797 0.67337 0.97203 0.0
C5516 C 0.56607 0.68038 0.97122 0.0
C5517 C 0.5784 0.67341 0.98144 0.0
C5518 C 0.57264 0.66051 0.99337 0.0
C5519 C 0.57192 0.69619 0.96101 0.0
C5520 C 0.58289 0.6937 0.94628 0.0
C5521 C 0.56579 0.71339 0.9652 0.0
C5522 C 0.55519 0.71749 0.98139 0.0
C5523 C 0.56151 0.71694 0.99999 0.0
C5524 C 0.55153 0.721 0.01518 0.0
C5525 C 0.53525 0.72574 0.01197 0.0
C5526 C 0.52892 0.72643 0.99355 0.0
C5527 C 0.53883 0.72236 0.97831 0.0
H5528 H 0.52757 0.72891 0.02376 0.0
H5529 H 0.62828 0.70206 0.87768 0.0
H5530 H 0.07657 0.78466 0.64964 0.0
H5531 H 0.10344 0.78063 0.66613 0.0
H5532 H 0.0724 0.74967 0.70361 0.0
H5533 H 0.04541 0.75391 0.68741 0.0
H5534 H 0.10222 0.77533 0.72235 0.0
H5535 H 0.08845 0.72252 0.66902 0.0
H5536 H 0.07952 0.7079 0.63526 0.0
H5537 H 0.12454 0.74477 0.61887 0.0
H5538 H 0.13381 0.75952 0.65255 0.0
H5539 H 0.16788 0.72808 0.75054 0.0
H5540 H 0.14162 0.7298 0.73127 0.0
H5541 H 0.17118 0.77852 0.71112 0.0
H5542 H 0.19736 0.77767 0.73112 0.0
H5543 H 0.14183 0.74227 0.68352 0.0
H5544 H 0.15351 0.79677 0.73795 0.0
H5545 H 0.16202 0.80991 0.77205 0.0
H5546 H 0.11965 0.76804 0.78654 0.0
H5547 H 0.11105 0.75452 0.75246 0.0
C5548 C 0.07548 0.77719 0.66153 0.0
C5549 C 0.05894 0.76955 0.6672 0.0
C5550 C 0.09079 0.77482 0.67085 0.0
C5551 C 0.08978 0.76455 0.68579 0.0
C5552 C 0.07337 0.75758 0.69205 0.0
C5553 C 0.05801 0.76009 0.68282 0.0
C5554 C 0.10595 0.7608 0.6945 0.0
C5555 C 0.11077 0.76794 0.7139 0.0
C5556 C 0.11708 0.7512 0.68343 0.0
C5557 C 0.11179 0.74212 0.66324 0.0
C5558 C 0.09643 0.7275 0.6582 0.0
C5559 C 0.09132 0.71918 0.6391 0.0
C5560 C 0.10143 0.72543 0.62494 0.0
C5561 C 0.11674 0.73993 0.62986 0.0
C5562 C 0.12198 0.7482 0.64894 0.0
C5563 C 0.16886 0.73911 0.74195 0.0
C5564 C 0.18463 0.75293 0.74264 0.0
C5565 C 0.15392 0.73991 0.73082 0.0
C5566 C 0.15462 0.75429 0.71994 0.0
C5567 C 0.17057 0.76726 0.71942 0.0
C5568 C 0.1855 0.76669 0.73082 0.0
C5569 C 0.13818 0.75718 0.71117 0.0
C5570 C 0.13325 0.7497 0.69187 0.0
C5571 C 0.12686 0.76632 0.72234 0.0
C5572 C 0.13177 0.77456 0.74275 0.0
C5573 C 0.14611 0.7903 0.74844 0.0
C5574 C 0.15093 0.79783 0.76774 0.0
C5575 C 0.14141 0.78978 0.78146 0.0
C5576 C 0.12702 0.77424 0.77589 0.0
C5577 C 0.12216 0.76665 0.75659 0.0
H5578 H 0.14516 0.79563 0.7964 0.0
H5579 H 0.09742 0.71902 0.61016 0.0
H5580 H 0.09603 0.3797 0.38044 0.0
H5581 H 0.08909 0.40948 0.39705 0.0
H5582 H 0.11359 0.40137 0.44966 0.0
H5583 H 0.12023 0.37168 0.43331 0.0
H5584 H 0.07786 0.40225 0.44973 0.0
H5585 H 0.1324 0.43672 0.43009 0.0
H5586 H 0.15241 0.4466 0.40636 0.0
H5587 H 0.11301 0.47059 0.38095 0.0
H5588 H 0.09262 0.46051 0.40432 0.0
H5589 H 0.06842 0.47832 0.51685 0.0
H5590 H 0.08285 0.45691 0.49672 0.0
H5591 H 0.0668 0.4788 0.44774 0.0
H5592 H 0.05582 0.50292 0.46851 0.0
H5593 H 0.09626 0.47054 0.44322 0.0
H5594 H 0.04143 0.43638 0.46163 0.0
H5595 H 0.02159 0.42904 0.48633 0.0
H5596 H 0.06007 0.40484 0.51311 0.0
H5597 H 0.0802 0.41221 0.48866 0.0
C5598 C 0.10045 0.38476 0.39538 0.0
C5599 C 0.10854 0.37367 0.40578 0.0
C5600 C 0.09646 0.40159 0.40479 0.0
C5601 C 0.10081 0.40728 0.42445 0.0
C5602 C 0.11015 0.39697 0.43445 0.0
C5603 C 0.11395 0.38016 0.42515 0.0
C5604 C 0.09377 0.42245 0.43524 0.0
C5605 C 0.0819 0.41722 0.44841 0.0
C5606 C 0.09868 0.44167 0.43284 0.0
C5607 C 0.11093 0.44768 0.41881 0.0
C5608 C 0.12794 0.44392 0.41931 0.0
C5609 C 0.13936 0.44958 0.40595 0.0
C5610 C 0.13396 0.45916 0.39212 0.0
C5611 C 0.11715 0.46312 0.39163 0.0
C5612 C 0.10566 0.45744 0.40494 0.0
C5613 C 0.06813 0.47872 0.5019 0.0
C5614 C 0.05973 0.49126 0.49401 0.0
C5615 C 0.07623 0.46638 0.49036 0.0
C5616 C 0.07497 0.46562 0.47066 0.0
C5617 C 0.0674 0.47879 0.46287 0.0
C5618 C 0.06036 0.49197 0.47462 0.0
C5619 C 0.0807 0.45044 0.45809 0.0
C5620 C 0.09207 0.45556 0.44442 0.0
C5621 C 0.07508 0.43099 0.45975 0.0
C5622 C 0.0623 0.42482 0.47331 0.0
C5623 C 0.04558 0.42933 0.47269 0.0
C5624 C 0.03432 0.42525 0.48669 0.0
C5625 C 0.03956 0.41648 0.50128 0.0
C5626 C 0.056 0.41159 0.50178 0.0
C5627 C 0.06732 0.41564 0.48781 0.0
H5628 H 0.03089 0.41348 0.5122 0.0
H5629 H 0.14284 0.46357 0.38181 0.0
H5630 H 0.47668 0.269 0.21288 0.0
H5631 H 0.44937 0.26811 0.22849 0.0
H5632 H 0.4189 0.24504 0.17427 0.0
H5633 H 0.44602 0.24658 0.15865 0.0
H5634 H 0.41033 0.27613 0.1898 0.0
H5635 H 0.4159 0.21857 0.21052 0.0
H5636 H 0.43013 0.19639 0.22507 0.0
H5637 H 0.43926 0.23584 0.2785 0.0
H5638 H 0.42518 0.25831 0.2642 0.0
H5639 H 0.32696 0.26785 0.22618 0.0
H5640 H 0.35355 0.2647 0.21084 0.0
H5641 H 0.38448 0.28424 0.26526 0.0
H5642 H 0.3573 0.2854 0.28084 0.0
H5643 H 0.39224 0.25366 0.24875 0.0
H5644 H 0.39282 0.31419 0.22231 0.0
H5645 H 0.37947 0.33516 0.20482 0.0
H5646 H 0.35717 0.28683 0.16047 0.0
H5647 H 0.37109 0.26586 0.17728 0.0
C5648 C 0.46412 0.26337 0.20444 0.0
C5649 C 0.46332 0.25822 0.18462 0.0
C5650 C 0.44856 0.26272 0.21334 0.0
C5651 C 0.43215 0.25654 0.20249 0.0
C5652 C 0.43145 0.24996 0.18285 0.0
C5653 C 0.44692 0.25094 0.17396 0.0
C5654 C 0.41597 0.25978 0.21095 0.0
C5655 C 0.40624 0.27095 0.20256 0.0
C5656 C 0.41084 0.25338 0.22772 0.0
C5657 C 0.41967 0.24017 0.23625 0.0
C5658 C 0.42112 0.22259 0.22532 0.0
C5659 C 0.42909 0.20994 0.23353 0.0
C5660 C 0.43563 0.21472 0.25269 0.0
C5661 C 0.4342 0.23216 0.26366 0.0
C5662 C 0.4262 0.24484 0.25552 0.0
C5663 C 0.33954 0.2718 0.23473 0.0
C5664 C 0.34037 0.27703 0.25453 0.0
C5665 C 0.35477 0.27032 0.22595 0.0
C5666 C 0.37114 0.2747 0.23679 0.0
C5667 C 0.37199 0.28086 0.2566 0.0
C5668 C 0.3566 0.28163 0.26548 0.0
C5669 C 0.38686 0.27043 0.22787 0.0
C5670 C 0.39643 0.25894 0.23608 0.0
C5671 C 0.39174 0.27625 0.21072 0.0
C5672 C 0.3826 0.28849 0.20121 0.0
C5673 C 0.38493 0.30808 0.2089 0.0
C5674 C 0.37747 0.31998 0.199 0.0
C5675 C 0.36729 0.31228 0.18169 0.0
C5676 C 0.36492 0.29275 0.17397 0.0
C5677 C 0.37275 0.28091 0.18356 0.0
H5678 H 0.36134 0.32148 0.17419 0.0
H5679 H 0.44178 0.2049 0.25903 0.0
H5680 H 0.67067 0.51616 0.34066 0.0
H5681 H 0.65556 0.51925 0.36977 0.0
H5682 H 0.60591 0.51006 0.33625 0.0
H5683 H 0.62126 0.50791 0.30716 0.0
H5684 H 0.60071 0.53137 0.36531 0.0
H5685 H 0.62279 0.47513 0.36502 0.0
H5686 H 0.64434 0.45444 0.36359 0.0
H5687 H 0.67443 0.49102 0.41322 0.0
H5688 H 0.65316 0.51206 0.41479 0.0
H5689 H 0.55114 0.51637 0.44763 0.0
H5690 H 0.56464 0.51234 0.41737 0.0
H5691 H 0.61622 0.53124 0.44781 0.0
H5692 H 0.6028 0.53522 0.47793 0.0
H5693 H 0.61888 0.50373 0.41978 0.0
H5694 H 0.59412 0.55945 0.41911 0.0
H5695 H 0.56976 0.5765 0.42072 0.0
H5696 H 0.54152 0.53638 0.37213 0.0
H5697 H 0.56564 0.51894 0.37042 0.0
C5698 C 0.65652 0.51478 0.33931 0.0
C5699 C 0.64754 0.5117 0.32091 0.0
C5700 C 0.64761 0.51634 0.35632 0.0
C5701 C 0.629 0.51448 0.35616 0.0
C5702 C 0.62008 0.51161 0.33769 0.0
C5703 C 0.62903 0.51029 0.32069 0.0
C5704 C 0.61909 0.51564 0.37483 0.0
C5705 C 0.60478 0.52502 0.37697 0.0
C5706 C 0.62361 0.50766 0.39091 0.0
C5707 C 0.63653 0.49527 0.38988 0.0
C5708 C 0.63409 0.47884 0.37553 0.0
C5709 C 0.64624 0.46704 0.37471 0.0
C5710 C 0.66078 0.47145 0.38827 0.0
C5711 C 0.66319 0.48765 0.4027 0.0
C5712 C 0.65109 0.49951 0.40357 0.0
C5713 C 0.56537 0.51962 0.44808 0.0
C5714 C 0.57556 0.52617 0.46594 0.0
C5715 C 0.57327 0.51745 0.4304 0.0
C5716 C 0.59187 0.52164 0.42945 0.0
C5717 C 0.60198 0.52779 0.44735 0.0
C5718 C 0.59412 0.53013 0.46493 0.0
C5719 C 0.60087 0.51971 0.41031 0.0
C5720 C 0.61495 0.51013 0.40809 0.0
C5721 C 0.59584 0.5271 0.39406 0.0
C5722 C 0.5816 0.53783 0.39472 0.0
C5723 C 0.58269 0.55425 0.40881 0.0
C5724 C 0.56892 0.56397 0.40975 0.0
C5725 C 0.55409 0.55751 0.39655 0.0
C5726 C 0.55302 0.54136 0.38235 0.0
C5727 C 0.56673 0.53156 0.38137 0.0
H5728 H 0.54343 0.56503 0.39732 0.0
H5729 H 0.67016 0.46228 0.38762 0.0
H5730 H 0.30102 0.87704 0.04561 0.0
H5731 H 0.30262 0.86733 0.07627 0.0
H5732 H 0.33264 0.92407 0.10194 0.0
H5733 H 0.33163 0.93374 0.07062 0.0
H5734 H 0.34655 0.89168 0.10946 0.0
H5735 H 0.29237 0.91384 0.11415 0.0
H5736 H 0.26536 0.91709 0.09662 0.0
H5737 H 0.24777 0.85565 0.08311 0.0
H5738 H 0.27479 0.85206 0.10045 0.0
H5739 H 0.34728 0.85841 0.19141 0.0
H5740 H 0.33719 0.87899 0.17194 0.0
H5741 H 0.30521 0.82904 0.13465 0.0
H5742 H 0.31421 0.80832 0.15545 0.0
H5743 H 0.29183 0.86343 0.13656 0.0
H5744 H 0.34452 0.83987 0.12596 0.0
H5745 H 0.37327 0.83322 0.13523 0.0
H5746 H 0.3949 0.89368 0.15348 0.0
H5747 H 0.36615 0.90066 0.14463 0.0
C5748 C 0.30762 0.88753 0.0579 0.0
C5749 C 0.31598 0.90609 0.05616 0.0
C5750 C 0.30855 0.88202 0.07528 0.0
C5751 C 0.31743 0.89519 0.09118 0.0
C5752 C 0.32554 0.91397 0.08967 0.0
C5753 C 0.32472 0.9195 0.07204 0.0
C5754 C 0.31843 0.88856 0.10911 0.0
C5755 C 0.33476 0.88617 0.11599 0.0
C5756 C 0.3028 0.88068 0.11668 0.0
C5757 C 0.28544 0.8827 0.10883 0.0
C5758 C 0.28256 0.90104 0.10773 0.0
C5759 C 0.26733 0.90294 0.09771 0.0
C5760 C 0.25482 0.88658 0.08881 0.0
C5761 C 0.25742 0.8683 0.09013 0.0
C5762 C 0.27264 0.86632 0.10016 0.0
C5763 C 0.33724 0.85195 0.17984 0.0
C5764 C 0.33125 0.83201 0.17497 0.0
C5765 C 0.33159 0.86366 0.16865 0.0
C5766 C 0.32072 0.85537 0.15192 0.0
C5767 C 0.31354 0.83553 0.14771 0.0
C5768 C 0.31877 0.82379 0.15938 0.0
C5769 C 0.32006 0.86685 0.13724 0.0
C5770 C 0.30376 0.86978 0.13076 0.0
C5771 C 0.33575 0.87494 0.12974 0.0
C5772 C 0.3531 0.87077 0.13495 0.0
C5773 C 0.35535 0.85174 0.13216 0.0
C5774 C 0.37165 0.84791 0.13729 0.0
C5775 C 0.38587 0.86301 0.14504 0.0
C5776 C 0.38384 0.88199 0.14756 0.0
C5777 C 0.36755 0.88589 0.14249 0.0
H5778 H 0.39848 0.86002 0.14902 0.0
H5779 H 0.24314 0.88808 0.08085 0.0
H5780 H 0.91718 0.54817 0.86672 0.0
H5781 H 0.93272 0.54442 0.89623 0.0
H5782 H 0.97634 0.53258 0.86498 0.0
H5783 H 0.96177 0.53698 0.83638 0.0
H5784 H 0.96777 0.5099 0.89315 0.0
H5785 H 0.9785 0.57781 0.88041 0.0
H5786 H 0.9679 0.60712 0.87733 0.0
H5787 H 0.94584 0.60691 0.93094 0.0
H5788 H 0.95625 0.57753 0.9342 0.0
H5789 H 0.04654 0.53195 0.95218 0.0
H5790 H 0.02811 0.53286 0.92369 0.0
H5791 H 0.99665 0.5647 0.95907 0.0
H5792 H 0.01634 0.56657 0.9863 0.0
H5793 H 0.9958 0.57495 0.92933 0.0
H5794 H 0.98769 0.50689 0.94357 0.0
H5795 H 0.99841 0.47718 0.94463 0.0
H5796 H 0.0154 0.47723 0.88876 0.0
H5797 H 0.00455 0.50668 0.8872 0.0
C5798 C 0.92998 0.54452 0.86629 0.0
C5799 C 0.93836 0.54292 0.84946 0.0
C5800 C 0.9386 0.54213 0.88292 0.0
C5801 C 0.95532 0.5379 0.88235 0.0
C5802 C 0.96318 0.53537 0.86537 0.0
C5803 C 0.95487 0.53811 0.84909 0.0
C5804 C 0.96666 0.53976 0.8994 0.0
C5805 C 0.97359 0.52393 0.90174 0.0
C5806 C 0.97448 0.55821 0.90966 0.0
C5807 C 0.96786 0.57544 0.90738 0.0
C5808 C 0.97123 0.58396 0.89141 0.0
C5809 C 0.96531 0.60058 0.88966 0.0
C5810 C 0.95613 0.60882 0.90389 0.0
C5811 C 0.95288 0.60047 0.9199 0.0
C5812 C 0.95876 0.58384 0.92169 0.0
C5813 C 0.03622 0.53992 0.95352 0.0
C5814 C 0.03238 0.54862 0.97131 0.0
C5815 C 0.02548 0.54004 0.93741 0.0
C5816 C 0.01059 0.54806 0.93947 0.0
C5817 C 0.00799 0.5583 0.95708 0.0
C5818 C 0.01916 0.55914 0.97274 0.0
C5819 C 0.99663 0.54483 0.92417 0.0
C5820 C 0.98955 0.56061 0.92171 0.0
C5821 C 0.98858 0.52623 0.91405 0.0
C5822 C 0.99554 0.509 0.91538 0.0
C5823 C 0.99382 0.50059 0.9316 0.0
C5824 C 0.99986 0.4838 0.93227 0.0
C5825 C 0.00768 0.47543 0.91688 0.0
C5826 C 0.0094 0.48375 0.9007 0.0
C5827 C 1.00325 0.50042 0.89988 0.0
H5828 H 0.01234 0.46244 0.91748 0.0
H5829 H 0.95159 0.62172 0.90253 0.0
H5830 H 0.29739 0.19223 0.56719 0.0
H5831 H 0.29939 0.20487 0.60151 0.0
H5832 H 0.30618 0.26252 0.59053 0.0
H5833 H 0.30403 0.25004 0.55639 0.0
H5834 H 0.32716 0.26081 0.62323 0.0
H5835 H 0.2666 0.24013 0.59681 0.0
H5836 H 0.24096 0.21688 0.57866 0.0
H5837 H 0.2441 0.17809 0.61717 0.0
H5838 H 0.26996 0.201 0.63537 0.0
H5839 H 0.30456 0.29894 0.71713 0.0
H5840 H 0.30534 0.29204 0.68224 0.0
H5841 H 0.29059 0.23127 0.68261 0.0
H5842 H 0.28961 0.2381 0.71683 0.0
H5843 H 0.27343 0.23769 0.65413 0.0
H5844 H 0.33417 0.25698 0.68026 0.0
H5845 H 0.36157 0.27802 0.69695 0.0
H5846 H 0.35972 0.318 0.65944 0.0
H5847 H 0.33216 0.29718 0.64254 0.0
C5848 C 0.29966 0.20762 0.57211 0.0
C5849 C 0.30034 0.22008 0.559 0.0
C5850 C 0.30073 0.21484 0.59174 0.0
C5851 C 0.30273 0.23469 0.59867 0.0
C5852 C 0.30459 0.24721 0.58563 0.0
C5853 C 0.30326 0.23999 0.56606 0.0
C5854 C 0.30129 0.24222 0.61918 0.0
C5855 C 0.31535 0.25594 0.63 0.0
C5856 C 0.28596 0.23585 0.62809 0.0
C5857 C 0.27029 0.22219 0.61734 0.0
C5858 C 0.26189 0.22658 0.60133 0.0
C5859 C 0.24732 0.21348 0.59104 0.0
C5860 C 0.24093 0.196 0.59673 0.0
C5861 C 0.24908 0.19162 0.61276 0.0
C5862 C 0.26369 0.20467 0.62307 0.0
C5863 C 0.30098 0.28418 0.70959 0.0
C5864 C 0.2967 0.26905 0.71969 0.0
C5865 C 0.30172 0.2802 0.68969 0.0
C5866 C 0.29823 0.26105 0.67964 0.0
C5867 C 0.29333 0.24615 0.6898 0.0
C5868 C 0.29267 0.25008 0.70944 0.0
C5869 C 0.29954 0.25593 0.65863 0.0
C5870 C 0.28529 0.24272 0.64753 0.0
C5871 C 0.31481 0.26269 0.64962 0.0
C5872 C 0.33089 0.27568 0.66036 0.0
C5873 C 0.33943 0.27041 0.67575 0.0
C5874 C 0.35505 0.28227 0.68522 0.0
C5875 C 0.36234 0.29944 0.67939 0.0
C5876 C 0.35402 0.30475 0.66403 0.0
C5877 C 0.33839 0.29292 0.65449 0.0
H5878 H 0.37449 0.30855 0.6867 0.0
H5879 H 0.22964 0.18587 0.58875 0.0
H5880 H 0.66419 0.5172 0.20367 0.0
H5881 H 0.651 0.52073 0.17274 0.0
H5882 H 0.59909 0.50398 0.19062 0.0
H5883 H 0.61215 0.49989 0.22092 0.0
H5884 H 0.59364 0.4925 0.15539 0.0
H5885 H 0.62313 0.55418 0.18853 0.0
H5886 H 0.64798 0.57911 0.20599 0.0
H5887 H 0.67729 0.5743 0.15703 0.0
H5888 H 0.65268 0.5491 0.13936 0.0
H5889 H 0.55136 0.53012 0.07965 0.0
H5890 H 0.56267 0.5257 0.1112 0.0
H5891 H 0.61544 0.53528 0.09414 0.0
H5892 H 0.60431 0.53989 0.06321 0.0
H5893 H 0.61901 0.55047 0.12972 0.0
H5894 H 0.58408 0.49056 0.09561 0.0
H5895 H 0.55609 0.47055 0.0799 0.0
H5896 H 0.53404 0.47226 0.1336 0.0
H5897 H 0.56131 0.49456 0.1494 0.0
C5898 C 0.64997 0.51358 0.20088 0.0
C5899 C 0.63954 0.50774 0.21533 0.0
C5900 C 0.64222 0.51607 0.18303 0.0
C5901 C 0.62361 0.51319 0.17865 0.0
C5902 C 0.61332 0.50652 0.1928 0.0
C5903 C 0.62099 0.50402 0.21047 0.0
C5904 C 0.61487 0.51765 0.16008 0.0
C5905 C 0.59925 0.50534 0.15004 0.0
C5906 C 0.62146 0.53436 0.15231 0.0
C5907 C 0.63617 0.54963 0.16271 0.0
C5908 C 0.63492 0.55838 0.18153 0.0
C5909 C 0.64895 0.57255 0.19146 0.0
C5910 C 0.66423 0.57825 0.18264 0.0
C5911 C 0.66547 0.56984 0.16385 0.0
C5912 C 0.65148 0.55561 0.15386 0.0
C5913 C 0.56542 0.53165 0.08268 0.0
C5914 C 0.57674 0.53551 0.06829 0.0
C5915 C 0.57201 0.52887 0.10093 0.0
C5916 C 0.59025 0.52964 0.10574 0.0
C5917 C 0.60143 0.53433 0.09156 0.0
C5918 C 0.5949 0.537 0.0735 0.0
C5919 C 0.59796 0.52521 0.12479 0.0
C5920 C 0.6134 0.53757 0.13499 0.0
C5921 C 0.59084 0.50878 0.13292 0.0
C5922 C 0.57473 0.4946 0.12366 0.0
C5923 C 0.57322 0.48695 0.1041 0.0
C5924 C 0.55741 0.47516 0.09514 0.0
C5925 C 0.54333 0.46972 0.10575 0.0
C5926 C 0.54495 0.47646 0.12536 0.0
C5927 C 0.56051 0.48899 0.13429 0.0
H5928 H 0.53115 0.46037 0.09877 0.0
H5929 H 0.67509 0.58922 0.19036 0.0
H5930 H 0.30177 0.87921 0.96858 0.0
H5931 H 0.30961 0.85875 0.94152 0.0
H5932 H 0.33842 0.90877 0.92243 0.0
H5933 H 0.33047 0.92966 0.95004 0.0
H5934 H 0.31422 0.88479 0.89595 0.0
H5935 H 0.3621 0.87679 0.93672 0.0
H5936 H 0.37784 0.87009 0.96475 0.0
H5937 H 0.34231 0.81496 0.95851 0.0
H5938 H 0.32633 0.82138 0.93055 0.0
H5939 H 0.33985 0.82793 0.82104 0.0
H5940 H 0.34463 0.84662 0.85292 0.0
H5941 H 0.30333 0.80547 0.87067 0.0
H5942 H 0.29841 0.78626 0.8384 0.0
H5943 H 0.33761 0.82624 0.89778 0.0
H5944 H 0.28767 0.83509 0.86011 0.0
H5945 H 0.27218 0.83999 0.83113 0.0
H5946 H 0.30996 0.89284 0.83256 0.0
H5947 H 0.3258 0.88805 0.86136 0.0
C5948 C 0.30976 0.88586 0.95858 0.0
C5949 C 0.31542 0.90587 0.96104 0.0
C5950 C 0.31453 0.87417 0.94341 0.0
C5951 C 0.32508 0.88231 0.93051 0.0
C5952 C 0.33055 0.90238 0.93265 0.0
C5953 C 0.32574 0.91422 0.94802 0.0
C5954 C 0.32767 0.86965 0.91329 0.0
C5955 C 0.3198 0.87228 0.89626 0.0
C5956 C 0.33418 0.85292 0.91404 0.0
C5957 C 0.343 0.84962 0.93161 0.0
C5958 C 0.35752 0.86336 0.94149 0.0
C5959 C 0.36653 0.85956 0.95731 0.0
C5960 C 0.36108 0.84211 0.96341 0.0
C5961 C 0.34654 0.82846 0.95377 0.0
C5962 C 0.33753 0.83216 0.93793 0.0
C5963 C 0.33196 0.8225 0.83172 0.0
C5964 C 0.31798 0.80622 0.82705 0.0
C5965 C 0.33483 0.83319 0.84992 0.0
C5966 C 0.32395 0.82754 0.86364 0.0
C5967 C 0.31158 0.80999 0.85987 0.0
C5968 C 0.30866 0.7992 0.84148 0.0
C5969 C 0.32405 0.84144 0.88082 0.0
C5970 C 0.33233 0.83896 0.89762 0.0
C5971 C 0.31764 0.85816 0.88001 0.0
C5972 C 0.30815 0.86098 0.86261 0.0
C5973 C 0.29284 0.84758 0.85404 0.0
C5974 C 0.28394 0.85038 0.83766 0.0
C5975 C 0.29017 0.86661 0.82984 0.0
C5976 C 0.30517 0.8802 0.83853 0.0
C5977 C 0.31413 0.87744 0.85486 0.0
H5978 H 0.28332 0.86874 0.81713 0.0
H5979 H 0.36814 0.83916 0.97558 0.0
H5980 H 0.91635 0.53774 0.74334 0.0
H5981 H 0.92349 0.54032 0.71084 0.0
H5982 H 0.97348 0.52577 0.7227 0.0
H5983 H 0.96671 0.52317 0.75476 0.0
H5984 H 0.97356 0.56277 0.71069 0.0
H5985 H 0.94736 0.49376 0.69898 0.0
H5986 H 0.92243 0.46609 0.69736 0.0
H5987 H 0.89333 0.48716 0.65616 0.0
H5988 H 0.918 0.51525 0.6579 0.0
H5989 H 0.02608 0.51762 0.65313 0.0
H5990 H 0.00624 0.52939 0.67518 0.0
H5991 H 0.97243 0.53593 0.62812 0.0
H5992 H 0.99187 0.52349 0.60594 0.0
H5993 H 0.95561 0.51361 0.65182 0.0
H5994 H 0.99346 0.57843 0.66058 0.0
H5995 H 0.02209 0.60188 0.6663 0.0
H5996 H 0.03436 0.58162 0.71724 0.0
H5997 H 0.00585 0.55817 0.71185 0.0
C5998 C 0.9288 0.53497 0.73891 0.0
C5999 C 0.94119 0.53067 0.75162 0.0
C6000 C 0.93275 0.53638 0.72044 0.0
C6001 C 0.94903 0.53352 0.71484 0.0
C6002 C 0.96091 0.52821 0.72712 0.0
C6003 C 0.95701 0.52673 0.74539 0.0
C6004 C 0.95483 0.53726 0.69672 0.0
C6005 C 0.96945 0.5524 0.69754 0.0
C6006 C 0.94915 0.52365 0.67988 0.0
C6007 C 0.93434 0.50682 0.67888 0.0
C6008 C 0.93554 0.49267 0.6898 0.0
C6009 C 0.92148 0.47687 0.68882 0.0
C6010 C 0.90626 0.47493 0.67675 0.0
C6011 C 0.90509 0.48875 0.66559 0.0
C6012 C 0.91909 0.50463 0.6666 0.0
C6013 C 0.01444 0.52161 0.64756 0.0
C6014 C 0.01039 0.51959 0.62798 0.0
C6015 C 1.00335 0.52869 0.66009 0.0
C6016 C 0.98822 0.53398 0.65315 0.0
C6017 C 0.98428 0.53227 0.63361 0.0
C6018 C 0.99532 0.52511 0.62107 0.0
C6019 C 0.97528 0.53832 0.66626 0.0
C6020 C 0.95917 0.52482 0.66441 0.0
C6021 C 0.98024 0.55269 0.68274 0.0
C6022 C 0.9975 0.56664 0.68582 0.0
C6023 C 1.0023 0.57897 0.67295 0.0
C6024 C 0.01849 0.59228 0.67617 0.0
C6025 C 0.03002 0.59325 0.69213 0.0
C6026 C 0.0254 0.58092 0.70492 0.0
C6027 C 0.0092 0.5677 0.70184 0.0
H6028 H 0.04254 0.60355 0.69458 0.0
H6029 H 0.89539 0.46267 0.67598 0.0
H6030 H 0.30486 0.1804 0.43924 0.0
H6031 H 0.30875 0.19601 0.41154 0.0
H6032 H 0.29755 0.24746 0.44378 0.0
H6033 H 0.29353 0.2319 0.47143 0.0
H6034 H 0.28012 0.23956 0.41 0.0
H6035 H 0.33999 0.24558 0.43247 0.0
H6036 H 0.36733 0.23653 0.44279 0.0
H6037 H 0.36494 0.19912 0.38887 0.0
H6038 H 0.33746 0.20775 0.37833 0.0
H6039 H 0.30305 0.29368 0.33718 0.0
H6040 H 0.30365 0.28311 0.36778 0.0
H6041 H 0.31169 0.22822 0.34002 0.0
H6042 H 0.31163 0.23894 0.30946 0.0
H6043 H 0.33234 0.24111 0.37318 0.0
H6044 H 0.2683 0.22975 0.35523 0.0
H6045 H 0.24119 0.23945 0.34516 0.0
H6046 H 0.25364 0.28909 0.38998 0.0
H6047 H 0.28035 0.27908 0.40091 0.0
C6048 C 0.30312 0.195 0.4404 0.0
C6049 C 0.29875 0.20483 0.45755 0.0
C6050 C 0.30556 0.20401 0.4246 0.0
C6051 C 0.30369 0.22305 0.42557 0.0
C6052 C 0.29913 0.2328 0.44263 0.0
C6053 C 0.29678 0.22384 0.45844 0.0
C6054 C 0.30564 0.23248 0.40858 0.0
C6055 C 0.29171 0.24013 0.4022 0.0
C6056 C 0.3206 0.23314 0.39806 0.0
C6057 C 0.33654 0.2271 0.40473 0.0
C6058 C 0.34515 0.23519 0.42294 0.0
C6059 C 0.36071 0.2302 0.42879 0.0
C6060 C 0.36783 0.2172 0.41652 0.0
C6061 C 0.35939 0.20914 0.39839 0.0
C6062 C 0.34382 0.21407 0.39247 0.0
C6063 C 0.30544 0.27956 0.33765 0.0
C6064 C 0.30759 0.26725 0.3209 0.0
C6065 C 0.30544 0.27339 0.35513 0.0
C6066 C 0.30747 0.25475 0.35621 0.0
C6067 C 0.31006 0.24265 0.33957 0.0
C6068 C 0.31001 0.24878 0.3221 0.0
C6069 C 0.30671 0.24766 0.37454 0.0
C6070 C 0.32085 0.24055 0.38115 0.0
C6071 C 0.29205 0.24757 0.38535 0.0
C6072 C 0.27631 0.25382 0.3787 0.0
C6073 C 0.26525 0.24278 0.36285 0.0
C6074 C 0.24996 0.2483 0.35702 0.0
C6075 C 0.24587 0.26508 0.36667 0.0
C6076 C 0.25688 0.27617 0.38244 0.0
C6077 C 0.27199 0.27047 0.38858 0.0
H6078 H 0.23408 0.26939 0.36204 0.0
H6079 H 0.37992 0.21342 0.42105 0.0
H6080 H 0.34622 0.65045 0.53569 0.0
H6081 H 0.37165 0.63599 0.53175 0.0
H6082 H 0.33734 0.57944 0.52085 0.0
H6083 H 0.31163 0.59384 0.52477 0.0
H6084 H 0.36619 0.58372 0.54639 0.0
H6085 H 0.3539 0.59641 0.48399 0.0
H6086 H 0.34799 0.61638 0.46081 0.0
H6087 H 0.39811 0.65514 0.47898 0.0
H6088 H 0.40425 0.63547 0.50239 0.0
H6089 H 0.42108 0.52742 0.50218 0.0
H6090 H 0.39841 0.54461 0.51258 0.0
H6091 H 0.4363 0.59868 0.51948 0.0
H6092 H 0.45907 0.58144 0.50883 0.0
H6093 H 0.40685 0.59784 0.49719 0.0
H6094 H 0.41899 0.5852 0.55962 0.0
H6095 H 0.42342 0.56723 0.58512 0.0
H6096 H 0.37278 0.52923 0.56759 0.0
H6097 H 0.36812 0.54694 0.54198 0.0
C6098 C 0.3441 0.63492 0.53275 0.0
C6099 C 0.32705 0.62318 0.53063 0.0
C6100 C 0.35858 0.62675 0.53028 0.0
C6101 C 0.35616 0.60679 0.52563 0.0
C6102 C 0.33926 0.59494 0.52429 0.0
C6103 C 0.32469 0.60313 0.52675 0.0
C6104 C 0.37147 0.5983 0.52294 0.0
C6105 C 0.37498 0.58651 0.53546 0.0
C6106 C 0.3831 0.60273 0.50912 0.0
C6107 C 0.37946 0.61457 0.49504 0.0
C6108 C 0.3636 0.60927 0.48313 0.0
C6109 C 0.36023 0.62051 0.46993 0.0
C6110 C 0.37265 0.63705 0.46846 0.0
C6111 C 0.3885 0.64234 0.48015 0.0
C6112 C 0.39195 0.63113 0.49336 0.0
C6113 C 0.42456 0.54296 0.5061 0.0
C6114 C 0.44161 0.5532 0.50453 0.0
C6115 C 0.41172 0.55272 0.51224 0.0
C6116 C 0.41581 0.57284 0.51692 0.0
C6117 C 0.43302 0.58312 0.51601 0.0
C6118 C 0.44594 0.57331 0.50997 0.0
C6119 C 0.40154 0.58298 0.52061 0.0
C6120 C 0.39817 0.5951 0.50822 0.0
C6121 C 0.38994 0.57883 0.53453 0.0
C6122 C 0.39333 0.56722 0.5488 0.0
C6123 C 0.40895 0.57281 0.56104 0.0
C6124 C 0.41145 0.56275 0.57557 0.0
C6125 C 0.39841 0.54706 0.57794 0.0
C6126 C 0.38289 0.54135 0.56573 0.0
C6127 C 0.38031 0.5514 0.55122 0.0
H6128 H 0.40033 0.53936 0.58928 0.0
H6129 H 0.37001 0.64574 0.45823 0.0
H6130 H 0.87677 0.89398 0.52745 0.0
H6131 H 0.90512 0.91621 0.53044 0.0
H6132 H 0.88011 0.96402 0.54402 0.0
H6133 H 0.85113 0.94151 0.54065 0.0
H6134 H 0.90405 0.97147 0.51937 0.0
H6135 H 0.90661 0.94983 0.57874 0.0
H6136 H 0.9044 0.92627 0.60009 0.0
H6137 H 0.94372 0.90143 0.57178 0.0
H6138 H 0.94603 0.92472 0.55014 0.0
H6139 H 0.98948 0.0361 0.54054 0.0
H6140 H 0.95961 0.01812 0.54331 0.0
H6141 H 0.97665 0.96486 0.52931 0.0
H6142 H 0.00637 0.98267 0.52662 0.0
H6143 H 0.956 0.96262 0.55716 0.0
H6144 H 0.95209 0.98168 0.4966 0.0
H6145 H 0.954 1.00379 0.47381 0.0
H6146 H 0.91714 0.0321 0.503 0.0
H6147 H 0.91524 0.01033 0.52615 0.0
C6148 C 0.8771 0.9092 0.53116 0.0
C6149 C 0.8614 0.91579 0.53376 0.0
C6150 C 0.89354 0.922 0.53304 0.0
C6151 C 0.89505 0.94194 0.5378 0.0
C6152 C 0.87944 0.94872 0.54044 0.0
C6153 C 0.86282 0.93581 0.53856 0.0
C6154 C 0.91287 0.95542 0.53915 0.0
C6155 C 0.9153 0.96979 0.52802 0.0
C6156 C 0.92787 0.95305 0.5499 0.0
C6157 C 0.9264 0.93893 0.56276 0.0
C6158 C 0.91468 0.93925 0.57699 0.0
C6159 C 0.91344 0.92597 0.58916 0.0
C6160 C 0.92389 0.91234 0.58727 0.0
C6161 C 0.93563 0.91199 0.57322 0.0
C6162 C 0.93693 0.92524 0.56103 0.0
C6163 C 0.98696 0.0206 0.53827 0.0
C6164 C 1.00054 0.01098 0.53339 0.0
C6165 C 0.96975 0.01025 0.53967 0.0
C6166 C 0.96562 0.98998 0.53633 0.0
C6167 C 0.97929 0.98043 0.53195 0.0
C6168 C 0.99639 0.99071 0.53038 0.0
C6169 C 0.9472 0.97859 0.53728 0.0
C6170 C 0.9447 0.96453 0.54877 0.0
C6171 C 0.93217 0.98116 0.52676 0.0
C6172 C 0.93372 0.99459 0.51324 0.0
C6173 C 0.94458 0.99279 0.4983 0.0
C6174 C 0.94562 0.00521 0.48528 0.0
C6175 C 0.93575 0.01938 0.487 0.0
C6176 C 0.92482 0.02116 0.50173 0.0
C6177 C 0.92377 0.0088 0.5148 0.0
H6178 H 0.93652 0.02895 0.47687 0.0
H6179 H 0.92291 0.90208 0.59671 0.0
H6180 H 0.8823 0.1031 0.27482 0.0
H6181 H 0.86696 0.12928 0.27537 0.0
H6182 H 0.91663 0.16962 0.27892 0.0
H6183 H 0.93213 0.14324 0.27979 0.0
H6184 H 0.89847 0.19145 0.29457 0.0
H6185 H 0.87795 0.1491 0.23466 0.0
H6186 H 0.86519 0.11797 0.21356 0.0
H6187 H 0.81829 0.11264 0.24293 0.0
H6188 H 0.83085 0.14368 0.26427 0.0
H6189 H 0.85464 0.26125 0.25812 0.0
H6190 H 0.87082 0.2365 0.26245 0.0
H6191 H 0.82568 0.2048 0.28387 0.0
H6192 H 0.81007 0.23073 0.28141 0.0
H6193 H 0.84146 0.17948 0.25543 0.0
H6194 H 0.86161 0.22155 0.3148 0.0
H6195 H 0.8738 0.25274 0.33598 0.0
H6196 H 0.92048 0.25968 0.30652 0.0
H6197 H 0.90875 0.22826 0.28525 0.0
C6198 C 0.8902 0.11746 0.27564 0.0
C6199 C 0.9089 0.12018 0.27701 0.0
C6200 C 0.88115 0.13291 0.27565 0.0
C6201 C 0.88993 0.15245 0.27632 0.0
C6202 C 0.90874 0.15527 0.2781 0.0
C6203 C 0.91786 0.13977 0.27852 0.0
C6204 C 0.87969 0.16936 0.27526 0.0
C6205 C 0.88616 0.1885 0.28567 0.0
C6206 C 0.86311 0.16692 0.26416 0.0
C6207 C 0.85538 0.14858 0.25111 0.0
C6208 C 0.86492 0.14126 0.2366 0.0
C6209 C 0.85773 0.12364 0.22462 0.0
C6210 C 0.84095 0.11331 0.22694 0.0
C6211 C 0.83128 0.12064 0.24116 0.0
C6212 C 0.83841 0.13826 0.25318 0.0
C6213 C 0.84792 0.24928 0.26408 0.0
C6214 C 0.83025 0.24867 0.26891 0.0
C6215 C 0.85746 0.2347 0.26651 0.0
C6216 C 0.84994 0.2178 0.2733 0.0
C6217 C 0.83236 0.21711 0.27836 0.0
C6218 C 0.82307 0.23224 0.27673 0.0
C6219 C 0.86022 0.20121 0.27471 0.0
C6220 C 0.8538 0.18228 0.26429 0.0
C6221 C 0.87684 0.20393 0.28564 0.0
C6222 C 0.88424 0.22263 0.29837 0.0
C6223 C 0.87449 0.22973 0.31281 0.0
C6224 C 0.88136 0.24738 0.32487 0.0
C6225 C 0.89796 0.25812 0.3226 0.0
C6226 C 0.90773 0.25119 0.3083 0.0
C6227 C 0.90101 0.23343 0.29629 0.0
H6228 H 0.90324 0.27183 0.33189 0.0
H6229 H 0.83543 0.09964 0.21769 0.0
H6230 H 0.71726 0.15094 0.00577 0.0
H6231 H 0.68937 0.13281 0.01363 0.0
H6232 H 0.71496 0.08831 0.02601 0.0
H6233 H 0.74292 0.10612 0.01818 0.0
H6234 H 0.68246 0.07835 0.99902 0.0
H6235 H 0.70529 0.11704 0.06494 0.0
H6236 H 0.71501 0.14849 0.08663 0.0
H6237 H 0.66899 0.16611 0.06683 0.0
H6238 H 0.65903 0.13482 0.04515 0.0
H6239 H 0.59966 0.03067 0.01335 0.0
H6240 H 0.63146 0.04074 0.02293 0.0
H6241 H 0.62607 0.09977 0.03697 0.0
H6242 H 0.59449 0.08934 0.02949 0.0
H6243 H 0.65209 0.09831 0.05556 0.0
H6244 H 0.62781 0.07254 0.99167 0.0
H6245 H 0.61378 0.04949 0.96288 0.0
H6246 H 0.65668 0.02079 0.9638 0.0
H6247 H 0.66983 0.04203 0.99391 0.0
C6248 C 0.71695 0.13719 0.00992 0.0
C6249 C 0.7323 0.12997 0.01138 0.0
C6250 C 0.70111 0.12708 0.0147 0.0
C6251 C 0.70051 0.10969 0.0209 0.0
C6252 C 0.7155 0.10199 0.02159 0.0
C6253 C 0.73134 0.11207 0.01688 0.0
C6254 C 0.6838 0.09857 0.02498 0.0
C6255 C 0.67579 0.08231 0.01151 0.0
C6256 C 0.67506 0.10477 0.04073 0.0
C6257 C 0.68147 0.12365 0.05347 0.0
C6258 C 0.69733 0.12768 0.06518 0.0
C6259 C 0.70284 0.14545 0.0775 0.0
C6260 C 0.69262 0.15928 0.07811 0.0
C6261 C 0.67688 0.1554 0.06639 0.0
C6262 C 0.67128 0.13764 0.05415 0.0
C6263 C 0.6054 0.04561 0.01935 0.0
C6264 C 0.59514 0.05943 0.02082 0.0
C6265 C 0.62341 0.05134 0.02477 0.0
C6266 C 0.63115 0.07102 0.03008 0.0
C6267 C 0.62045 0.08449 0.03296 0.0
C6268 C 0.60246 0.07864 0.0285 0.0
C6269 C 0.65003 0.07826 0.02909 0.0
C6270 C 0.65874 0.09375 0.04324 0.0
C6271 C 0.65853 0.07264 0.01269 0.0
C6272 C 0.64954 0.05856 0.99555 0.0
C6273 C 0.6339 0.06081 0.98623 0.0
C6274 C 0.62601 0.04794 0.9697 0.0
C6275 C 0.63411 0.03334 0.96173 0.0
C6276 C 0.65003 0.03154 0.97037 0.0
C6277 C 0.65756 0.04381 0.98735 0.0
H6278 H 0.6282 0.02362 0.94871 0.0
H6279 H 0.6969 0.173 0.08767 0.0
H6280 H 0.18518 0.47724 0.24139 0.0
H6281 H 0.2015 0.45417 0.24965 0.0
H6282 H 0.2503 0.49126 0.24089 0.0
H6283 H 0.23414 0.51475 0.23279 0.0
H6284 H 0.24395 0.45225 0.22327 0.0
H6285 H 0.24309 0.4917 0.28344 0.0
H6286 H 0.22953 0.50894 0.30927 0.0
H6287 H 0.19834 0.4554 0.31813 0.0
H6288 H 0.21146 0.43781 0.29209 0.0
H6289 H 0.30269 0.41027 0.2723 0.0
H6290 H 0.28559 0.42831 0.25571 0.0
H6291 H 0.23746 0.39566 0.27172 0.0
H6292 H 0.25461 0.37761 0.28825 0.0
H6293 H 0.24376 0.43369 0.28671 0.0
H6294 H 0.23497 0.39841 0.21961 0.0
H6295 H 0.24126 0.38421 0.18756 0.0
H6296 H 0.28685 0.43011 0.19048 0.0
H6297 H 0.28051 0.44474 0.22235 0.0
C6298 C 0.19934 0.48032 0.24078 0.0
C6299 C 0.20853 0.49777 0.23667 0.0
C6300 C 0.20858 0.46734 0.24584 0.0
C6301 C 0.22694 0.47167 0.24649 0.0
C6302 C 0.23607 0.48824 0.24084 0.0
C6303 C 0.22685 0.50136 0.23594 0.0
C6304 C 0.23647 0.458 0.25172 0.0
C6305 C 0.24429 0.44838 0.23725 0.0
C6306 C 0.23604 0.45287 0.2698 0.0
C6307 C 0.22819 0.46341 0.28564 0.0
C6308 C 0.23322 0.48358 0.29075 0.0
C6309 C 0.22563 0.49343 0.30547 0.0
C6310 C 0.21306 0.48327 0.31531 0.0
C6311 C 0.20808 0.46325 0.31048 0.0
C6312 C 0.21561 0.45333 0.29575 0.0
C6313 C 0.28842 0.40651 0.27152 0.0
C6314 C 0.27979 0.39283 0.28143 0.0
C6315 C 0.27869 0.41663 0.26198 0.0
C6316 C 0.26035 0.41313 0.26252 0.0
C6317 C 0.25163 0.39831 0.2711 0.0
C6318 C 0.26136 0.38812 0.28054 0.0
C6319 C 0.25107 0.42753 0.25797 0.0
C6320 C 0.24346 0.43753 0.27273 0.0
C6321 C 0.25148 0.43305 0.24012 0.0
C6322 C 0.25758 0.4223 0.22343 0.0
C6323 C 0.24658 0.40515 0.21356 0.0
C6324 C 0.24994 0.39726 0.1953 0.0
C6325 C 0.26439 0.40633 0.18695 0.0
C6326 C 0.27567 0.42311 0.19696 0.0
C6327 C 0.27221 0.43119 0.2151 0.0
H6328 H 0.26692 0.40026 0.17277 0.0
H6329 H 0.20721 0.49092 0.32671 0.0
H6330 H 0.27735 0.44351 0.03488 0.0
H6331 H 0.2519 0.45773 0.03188 0.0
H6332 H 0.21726 0.40365 0.03498 0.0
H6333 H 0.2429 0.38891 0.0365 0.0
H6334 H 0.20204 0.41796 0.01103 0.0
H6335 H 0.22734 0.44592 0.07427 0.0
H6336 H 0.25109 0.46219 0.09954 0.0
H6337 H 0.26177 0.51143 0.07259 0.0
H6338 H 0.23815 0.4954 0.0471 0.0
H6339 H 0.13226 0.4713 0.02016 0.0
H6340 H 0.15333 0.45267 0.02945 0.0
H6341 H 0.19593 0.49344 0.01324 0.0
H6342 H 0.17515 0.51183 0.00387 0.0
H6343 H 0.20373 0.48306 0.04774 0.0
H6344 H 0.17805 0.45268 0.98352 0.0
H6345 H 0.15331 0.43578 0.95965 0.0
H6346 H 0.14167 0.38987 0.99095 0.0
H6347 H 0.16616 0.40669 0.01521 0.0
C6348 C 0.26434 0.43467 0.03516 0.0
C6349 C 0.2622 0.41515 0.03625 0.0
C6350 C 0.24971 0.44287 0.03355 0.0
C6351 C 0.2325 0.43204 0.03382 0.0
C6352 C 0.23032 0.41246 0.0349 0.0
C6353 C 0.245 0.40406 0.03592 0.0
C6354 C 0.21696 0.4412 0.03254 0.0
C6355 C 0.2023 0.43202 0.01939 0.0
C6356 C 0.21705 0.45959 0.04333 0.0
C6357 C 0.23105 0.46942 0.05876 0.0
C6358 C 0.2348 0.4602 0.07372 0.0
C6359 C 0.24822 0.46938 0.08808 0.0
C6360 C 0.25795 0.48782 0.08765 0.0
C6361 C 0.25422 0.49715 0.07291 0.0
C6362 C 0.24078 0.48805 0.05854 0.0
C6363 C 0.14612 0.47632 0.01868 0.0
C6364 C 0.15195 0.49277 0.01075 0.0
C6365 C 0.15813 0.46563 0.02393 0.0
C6366 C 0.17618 0.47149 0.02171 0.0
C6367 C 0.18207 0.48853 0.01493 0.0
C6368 C 0.17014 0.499 0.0095 0.0
C6369 C 0.1892 0.46002 0.02603 0.0
C6370 C 0.20338 0.46881 0.03972 0.0
C6371 C 0.18844 0.44119 0.01599 0.0
C6372 C 0.17379 0.43107 1.00132 0.0
C6373 C 0.17011 0.43908 0.98542 0.0
C6374 C 0.15615 0.4295 0.9718 0.0
C6375 C 0.14588 0.4118 0.97382 0.0
C6376 C 0.1496 0.40361 0.98943 0.0
C6377 C 0.16351 0.41316 0.00313 0.0
H6378 H 0.13509 0.40439 0.96325 0.0
H6379 H 0.26837 0.49488 0.09876 0.0
H6380 H 0.92777 0.99193 0.25675 0.0
H6381 H 0.90896 0.96016 0.2553 0.0
H6382 H 0.87054 0.98598 0.28456 0.0
H6383 H 0.88958 0.01825 0.28595 0.0
H6384 H 0.87356 0.95403 0.299 0.0
H6385 H 0.86479 0.96332 0.23442 0.0
H6386 H 0.87397 0.97031 0.20353 0.0
H6387 H 0.8998 0.92295 0.19688 0.0
H6388 H 0.89096 0.91583 0.22786 0.0
H6389 H 0.80718 0.86426 0.28434 0.0
H6390 H 0.82359 0.8974 0.28442 0.0
H6391 H 0.863 0.87519 0.25345 0.0
H6392 H 0.84695 0.84242 0.25357 0.0
H6393 H 0.85886 0.90551 0.23943 0.0
H6394 H 0.87092 0.89614 0.30136 0.0
H6395 H 0.86538 0.88781 0.33272 0.0
H6396 H 0.83798 0.93356 0.34512 0.0
H6397 H 0.8431 0.94195 0.31363 0.0
C6398 C 0.91522 0.99111 0.26273 0.0
C6399 C 0.91048 0.0083 0.27131 0.0
C6400 C 0.90425 0.97257 0.26182 0.0
C6401 C 0.88781 0.96989 0.2696 0.0
C6402 C 0.88294 0.98704 0.27825 0.0
C6403 C 0.89389 0.00578 0.27891 0.0
C6404 C 0.8762 0.94943 0.26898 0.0
C6405 C 0.87006 0.94371 0.28579 0.0
C6406 C 0.87199 0.9349 0.25215 0.0
C6407 C 0.87735 0.93916 0.23355 0.0
C6408 C 0.87254 0.95449 0.22644 0.0
C6409 C 0.87766 0.95845 0.2089 0.0
C6410 C 0.8875 0.94711 0.19827 0.0
C6411 C 0.8922 0.93174 0.20514 0.0
C6412 C 0.88713 0.92772 0.22268 0.0
C6413 C 0.81925 0.86633 0.2774 0.0
C6414 C 0.82539 0.85005 0.26893 0.0
C6415 C 0.82886 0.88555 0.27756 0.0
C6416 C 0.84498 0.88953 0.26902 0.0
C6417 C 0.8508 0.87322 0.26018 0.0
C6418 C 0.84143 0.85415 0.26032 0.0
C6419 C 0.85584 0.91029 0.26939 0.0
C6420 C 0.86205 0.91595 0.25259 0.0
C6421 C 0.86054 0.92459 0.28628 0.0
C6422 C 0.85714 0.91948 0.30505 0.0
C6423 C 0.86352 0.90428 0.31069 0.0
C6424 C 0.8605 0.89957 0.32849 0.0
C6425 C 0.85127 0.9101 0.34088 0.0
C6426 C 0.84507 0.92538 0.33548 0.0
C6427 C 0.84802 0.93011 0.31765 0.0
H6428 H 0.84897 0.90647 0.35469 0.0
H6429 H 0.89145 0.95021 0.1847 0.0
H6430 H 0.72443 0.08233 0.75252 0.0
H6431 H 0.74431 0.11258 0.75105 0.0
H6432 H 0.70684 0.14363 0.77574 0.0
H6433 H 0.68651 0.11336 0.77699 0.0
H6434 H 0.71711 0.15243 0.74141 0.0
H6435 H 0.74313 0.14348 0.80081 0.0
H6436 H 0.75744 0.12677 0.82222 0.0
H6437 H 0.8008 0.12754 0.78759 0.0
H6438 H 0.78652 0.14384 0.76571 0.0
H6439 H 0.75682 0.24709 0.77352 0.0
H6440 H 0.74194 0.21374 0.76387 0.0
H6441 H 0.79185 0.19861 0.75271 0.0
H6442 H 0.80699 0.23186 0.76608 0.0
H6443 H 0.77766 0.17815 0.77296 0.0
H6444 H 0.74891 0.18446 0.71123 0.0
H6445 H 0.73293 0.20029 0.69011 0.0
H6446 H 0.6949 0.20594 0.73064 0.0
H6447 H 0.71019 0.18943 0.75149 0.0
C6448 C 0.72048 0.09557 0.758 0.0
C6449 C 0.70382 0.09553 0.76473 0.0
C6450 C 0.7319 0.11277 0.75715 0.0
C6451 C 0.72687 0.13005 0.76325 0.0
C6452 C 0.71073 0.1302 0.77094 0.0
C6453 C 0.69923 0.11298 0.77172 0.0
C6454 C 0.73778 0.14796 0.76017 0.0
C6455 C 0.73039 0.15817 0.74825 0.0
C6456 C 0.75525 0.15474 0.76848 0.0
C6457 C 0.7636 0.14455 0.78143 0.0
C6458 C 0.75557 0.1398 0.79758 0.0
C6459 C 0.76371 0.13046 0.80984 0.0
C6460 C 0.77998 0.12601 0.80622 0.0
C6461 C 0.78815 0.13091 0.79034 0.0
C6462 C 0.78003 0.14016 0.77798 0.0
C6463 C 0.76448 0.23654 0.76878 0.0
C6464 C 0.78283 0.24167 0.76995 0.0
C6465 C 0.75593 0.21757 0.76259 0.0
C6466 C 0.76561 0.20366 0.75656 0.0
C6467 C 0.78407 0.20914 0.75698 0.0
C6468 C 0.79271 0.22799 0.76448 0.0
C6469 C 0.75695 0.18329 0.75444 0.0
C6470 C 0.7647 0.17231 0.76538 0.0
C6471 C 0.73976 0.1758 0.74525 0.0
C6472 C 0.73087 0.18612 0.73299 0.0
C6473 C 0.73721 0.18923 0.71562 0.0
C6474 C 0.72818 0.19811 0.70364 0.0
C6475 C 0.71307 0.20433 0.70915 0.0
C6476 C 0.70667 0.20124 0.72643 0.0
C6477 C 0.71537 0.19192 0.7382 0.0
H6478 H 0.70626 0.21144 0.69997 0.0
H6479 H 0.78628 0.11883 0.81576 0.0
loop_
_geom_bond_atom_site_label_1
_geom_bond_atom_site_label_2
_geom_bond_distance
_geom_bond_site_symmetry_2
_ccdc_geom_bond_type
Co0 O1 2.216 . S
Co0 O2 2.091 . S
Co0 O4 2.004 . S
Co0 O10 2.021 . S
Co0 O12 2.137 . S
Co0 O13 2.244 . S
O1 Co0 2.216 . S
O1 C8 1.247 . S
O2 Co0 2.091 . S
O2 C8 1.261 . S
C3 O12 1.247 . S
C3 O13 1.272 . S
O4 Co0 2.004 . S
O4 C9 1.259 . S
Co5 O6 2.061 . S
Co5 O11 2.052 . S
Co5 O13 2.135 . S
O6 Co5 2.061 . S
O6 C9 1.235 . S
C7 O10 1.238 . S
C7 O11 1.241 . S
C8 O1 1.247 . S
C8 O2 1.261 . S
C9 O4 1.259 . S
C9 O6 1.235 . S
O10 Co0 2.021 . S
O10 C7 1.238 . S
O11 Co5 2.052 . S
O11 C7 1.241 . S
O12 Co0 2.137 . S
O12 C3 1.247 . S
O13 Co0 2.244 . S
O13 C3 1.272 . S
O13 Co5 2.135 . S
Co14 O15 2.216 . S
Co14 O16 2.091 . S
Co14 O18 2.004 1_655 S
Co14 O24 2.021 . S
Co14 O26 2.137 . S
Co14 O27 2.244 1_655 S
O15 Co14 2.216 . S
O15 C22 1.247 . S
O16 Co14 2.091 . S
O16 C22 1.261 . S
C17 O26 1.247 1_455 S
C17 O27 1.272 . S
O18 Co14 2.004 1_455 S
O18 C23 1.259 . S
Co19 O20 2.061 . S
Co19 O25 2.052 . S
Co19 O27 2.135 . S
O20 Co19 2.061 . S
O20 C23 1.235 . S
C21 O24 1.238 . S
C21 O25 1.241 1_655 S
C22 O15 1.247 . S
C22 O16 1.261 . S
C23 O18 1.259 . S
C23 O20 1.235 . S
O24 Co14 2.021 . S
O24 C21 1.238 . S
O25 Co19 2.052 . S
O25 C21 1.241 1_455 S
O26 Co14 2.137 . S
O26 C17 1.247 1_655 S
O27 Co14 2.244 1_455 S
O27 C17 1.272 . S
O27 Co19 2.135 . S
Co28 O29 2.216 . S
Co28 O30 2.091 . S
Co28 O32 2.004 . S
Co28 O38 2.021 . S
Co28 O40 2.137 . S
Co28 O41 2.244 . S
O29 Co28 2.216 . S
O29 C36 1.247 . S
O30 Co28 2.091 . S
O30 C36 1.261 . S
C31 O40 1.247 . S
C31 O41 1.272 . S
O32 Co28 2.004 . S
O32 C37 1.259 . S
Co33 O34 2.061 . S
Co33 O39 2.052 . S
Co33 O41 2.135 . S
O34 Co33 2.061 . S
O34 C37 1.235 . S
C35 O38 1.238 . S
C35 O39 1.241 . S
C36 O29 1.247 . S
C36 O30 1.261 . S
C37 O32 1.259 . S
C37 O34 1.235 . S
O38 Co28 2.021 . S
O38 C35 1.238 . S
O39 Co33 2.052 . S
O39 C35 1.241 . S
O40 Co28 2.137 . S
O40 C31 1.247 . S
O41 Co28 2.244 . S
O41 C31 1.272 . S
O41 Co33 2.135 . S
Co42 O43 2.216 . S
Co42 O44 2.091 . S
Co42 O46 2.004 . S
Co42 O52 2.021 . S
Co42 O54 2.137 . S
Co42 O55 2.244 . S
O43 Co42 2.216 . S
O43 C50 1.247 . S
O44 Co42 2.091 . S
O44 C50 1.261 . S
C45 O54 1.247 . S
C45 O55 1.272 . S
O46 Co42 2.004 . S
O46 C51 1.259 . S
Co47 O48 2.061 . S
Co47 O53 2.052 . S
Co47 O55 2.135 . S
O48 Co47 2.061 . S
O48 C51 1.235 . S
C49 O52 1.238 . S
C49 O53 1.241 . S
C50 O43 1.247 . S
C50 O44 1.261 . S
C51 O46 1.259 . S
C51 O48 1.235 . S
O52 Co42 2.021 . S
O52 C49 1.238 . S
O53 Co47 2.052 . S
O53 C49 1.241 . S
O54 Co42 2.137 . S
O54 C45 1.247 . S
O55 Co42 2.244 . S
O55 C45 1.272 . S
O55 Co47 2.135 . S
Co56 O57 2.216 . S
Co56 O58 2.091 . S
Co56 O60 2.004 . S
Co56 O66 2.021 . S
Co56 O68 2.137 . S
Co56 O69 2.244 . S
O57 Co56 2.216 . S
O57 C64 1.247 . S
O58 Co56 2.091 . S
O58 C64 1.261 . S
C59 O68 1.247 . S
C59 O69 1.272 . S
O60 Co56 2.004 . S
O60 C65 1.259 . S
Co61 O62 2.061 . S
Co61 O67 2.052 . S
Co61 O69 2.135 . S
O62 Co61 2.061 . S
O62 C65 1.235 . S
C63 O66 1.238 . S
C63 O67 1.241 . S
C64 O57 1.247 . S
C64 O58 1.261 . S
C65 O60 1.259 . S
C65 O62 1.235 . S
O66 Co56 2.021 . S
O66 C63 1.238 . S
O67 Co61 2.052 . S
O67 C63 1.241 . S
O68 Co56 2.137 . S
O68 C59 1.247 . S
O69 Co56 2.244 . S
O69 C59 1.272 . S
O69 Co61 2.135 . S
Co70 O71 2.216 . S
Co70 O72 2.091 . S
Co70 O74 2.004 . S
Co70 O80 2.021 . S
Co70 O82 2.137 . S
Co70 O83 2.244 . S
O71 Co70 2.216 . S
O71 C78 1.247 . S
O72 Co70 2.091 . S
O72 C78 1.261 . S
C73 O82 1.247 . S
C73 O83 1.272 . S
O74 Co70 2.004 . S
O74 C79 1.259 . S
Co75 O76 2.061 . S
Co75 O81 2.052 . S
Co75 O83 2.135 . S
O76 Co75 2.061 . S
O76 C79 1.235 . S
C77 O80 1.238 . S
C77 O81 1.241 . S
C78 O71 1.247 . S
C78 O72 1.261 . S
C79 O74 1.259 . S
C79 O76 1.235 . S
O80 Co70 2.021 . S
O80 C77 1.238 . S
O81 Co75 2.052 . S
O81 C77 1.241 . S
O82 Co70 2.137 . S
O82 C73 1.247 . S
O83 Co70 2.244 . S
O83 C73 1.272 . S
O83 Co75 2.135 . S
Co84 O85 2.216 . S
Co84 O86 2.091 . S
Co84 O88 2.004 . S
Co84 O94 2.021 . S
Co84 O96 2.137 . S
Co84 O97 2.244 . S
O85 Co84 2.216 . S
O85 C92 1.247 . S
O86 Co84 2.091 . S
O86 C92 1.261 . S
C87 O96 1.247 . S
C87 O97 1.272 . S
O88 Co84 2.004 . S
O88 C93 1.259 . S
Co89 O90 2.061 . S
Co89 O95 2.052 . S
Co89 O97 2.135 . S
O90 Co89 2.061 . S
O90 C93 1.235 . S
C91 O94 1.238 . S
C91 O95 1.241 . S
C92 O85 1.247 . S
C92 O86 1.261 . S
C93 O88 1.259 . S
C93 O90 1.235 . S
O94 Co84 2.021 . S
O94 C91 1.238 . S
O95 Co89 2.052 . S
O95 C91 1.241 . S
O96 Co84 2.137 . S
O96 C87 1.247 . S
O97 Co84 2.244 . S
O97 C87 1.272 . S
O97 Co89 2.135 . S
Co98 O99 2.216 . S
Co98 O100 2.091 . S
Co98 O102 2.004 1_455 S
Co98 O108 2.021 . S
Co98 O110 2.137 . S
Co98 O111 2.244 . S
O99 Co98 2.216 . S
O99 C106 1.247 . S
O100 Co98 2.091 . S
O100 C106 1.261 . S
C101 O110 1.247 . S
C101 O111 1.272 . S
O102 Co98 2.004 1_655 S
O102 C107 1.259 . S
Co103 O104 2.061 . S
Co103 O109 2.052 1_655 S
Co103 O111 2.135 1_655 S
O104 Co103 2.061 . S
O104 C107 1.235 . S
C105 O108 1.238 . S
C105 O109 1.241 . S
C106 O99 1.247 . S
C106 O100 1.261 . S
C107 O102 1.259 . S
C107 O104 1.235 . S
O108 Co98 2.021 . S
O108 C105 1.238 . S
O109 Co103 2.052 1_455 S
O109 C105 1.241 . S
O110 Co98 2.137 . S
O110 C101 1.247 . S
O111 Co98 2.244 . S
O111 C101 1.272 . S
O111 Co103 2.135 1_455 S
Co112 O113 2.216 . S
Co112 O114 2.091 . S
Co112 O116 2.004 . S
Co112 O122 2.021 . S
Co112 O124 2.137 . S
Co112 O125 2.244 . S
O113 Co112 2.216 . S
O113 C120 1.247 . S
O114 Co112 2.091 . S
O114 C120 1.261 . S
C115 O124 1.247 . S
C115 O125 1.272 . S
O116 Co112 2.004 . S
O116 C121 1.259 1_545 S
Co117 O118 2.061 1_545 S
Co117 O123 2.052 . S
Co117 O125 2.135 . S
O118 Co117 2.061 1_565 S
O118 C121 1.235 . S
C119 O122 1.238 . S
C119 O123 1.241 . S
C120 O113 1.247 . S
C120 O114 1.261 . S
C121 O116 1.259 1_565 S
C121 O118 1.235 . S
O122 Co112 2.021 . S
O122 C119 1.238 . S
O123 Co117 2.052 . S
O123 C119 1.241 . S
O124 Co112 2.137 . S
O124 C115 1.247 . S
O125 Co112 2.244 . S
O125 C115 1.272 . S
O125 Co117 2.135 . S
Co126 O127 2.216 . S
Co126 O128 2.091 . S
Co126 O130 2.004 . S
Co126 O136 2.021 . S
Co126 O138 2.137 . S
Co126 O139 2.244 . S
O127 Co126 2.216 . S
O127 C134 1.247 . S
O128 Co126 2.091 . S
O128 C134 1.261 . S
C129 O138 1.247 . S
C129 O139 1.272 . S
O130 Co126 2.004 . S
O130 C135 1.259 . S
Co131 O132 2.061 . S
Co131 O137 2.052 . S
Co131 O139 2.135 . S
O132 Co131 2.061 . S
O132 C135 1.235 . S
C133 O136 1.238 . S
C133 O137 1.241 . S
C134 O127 1.247 . S
C134 O128 1.261 . S
C135 O130 1.259 . S
C135 O132 1.235 . S
O136 Co126 2.021 . S
O136 C133 1.238 . S
O137 Co131 2.052 . S
O137 C133 1.241 . S
O138 Co126 2.137 . S
O138 C129 1.247 . S
O139 Co126 2.244 . S
O139 C129 1.272 . S
O139 Co131 2.135 . S
Co140 O141 2.216 . S
Co140 O142 2.091 . S
Co140 O144 2.004 1_565 S
Co140 O150 2.021 . S
Co140 O152 2.137 . S
Co140 O153 2.244 1_565 S
O141 Co140 2.216 . S
O141 C148 1.247 . S
O142 Co140 2.091 . S
O142 C148 1.261 . S
C143 O152 1.247 1_545 S
C143 O153 1.272 . S
O144 Co140 2.004 1_545 S
O144 C149 1.259 . S
Co145 O146 2.061 . S
Co145 O151 2.052 . S
Co145 O153 2.135 . S
O146 Co145 2.061 . S
O146 C149 1.235 . S
C147 O150 1.238 . S
C147 O151 1.241 1_565 S
C148 O141 1.247 . S
C148 O142 1.261 . S
C149 O144 1.259 . S
C149 O146 1.235 . S
O150 Co140 2.021 . S
O150 C147 1.238 . S
O151 Co145 2.052 . S
O151 C147 1.241 1_545 S
O152 Co140 2.137 . S
O152 C143 1.247 1_565 S
O153 Co140 2.244 1_545 S
O153 C143 1.272 . S
O153 Co145 2.135 . S
Co154 O155 2.216 . S
Co154 O156 2.091 . S
Co154 O158 2.004 . S
Co154 O164 2.021 . S
Co154 O166 2.137 1_554 S
Co154 O167 2.244 1_554 S
O155 Co154 2.216 . S
O155 C162 1.247 . S
O156 Co154 2.091 . S
O156 C162 1.261 . S
C157 O166 1.247 . S
C157 O167 1.272 . S
O158 Co154 2.004 . S
O158 C163 1.259 . S
Co159 O160 2.061 . S
Co159 O165 2.052 . S
Co159 O167 2.135 1_554 S
O160 Co159 2.061 . S
O160 C163 1.235 . S
C161 O164 1.238 . S
C161 O165 1.241 . S
C162 O155 1.247 . S
C162 O156 1.261 . S
C163 O158 1.259 . S
C163 O160 1.235 . S
O164 Co154 2.021 . S
O164 C161 1.238 . S
O165 Co159 2.052 . S
O165 C161 1.241 . S
O166 Co154 2.137 1_556 S
O166 C157 1.247 . S
O167 Co154 2.244 1_556 S
O167 C157 1.272 . S
O167 Co159 2.135 1_556 S
Co168 O169 2.216 . S
Co168 O170 2.091 . S
Co168 O172 2.004 . S
Co168 O178 2.021 . S
Co168 O180 2.137 . S
Co168 O181 2.244 . S
O169 Co168 2.216 . S
O169 C176 1.247 . S
O170 Co168 2.091 . S
O170 C176 1.261 . S
C171 O180 1.247 . S
C171 O181 1.272 . S
O172 Co168 2.004 . S
O172 C177 1.259 . S
Co173 O174 2.061 . S
Co173 O179 2.052 . S
Co173 O181 2.135 . S
O174 Co173 2.061 . S
O174 C177 1.235 . S
C175 O178 1.238 . S
C175 O179 1.241 . S
C176 O169 1.247 . S
C176 O170 1.261 . S
C177 O172 1.259 . S
C177 O174 1.235 . S
O178 Co168 2.021 . S
O178 C175 1.238 . S
O179 Co173 2.052 . S
O179 C175 1.241 . S
O180 Co168 2.137 . S
O180 C171 1.247 . S
O181 Co168 2.244 . S
O181 C171 1.272 . S
O181 Co173 2.135 . S
Co182 O183 2.216 . S
Co182 O184 2.091 . S
Co182 O186 2.004 . S
Co182 O192 2.021 . S
Co182 O194 2.137 1_554 S
Co182 O195 2.244 . S
O183 Co182 2.216 . S
O183 C190 1.247 . S
O184 Co182 2.091 . S
O184 C190 1.261 . S
C185 O194 1.247 . S
C185 O195 1.272 1_556 S
O186 Co182 2.004 . S
O186 C191 1.259 . S
Co187 O188 2.061 . S
Co187 O193 2.052 . S
Co187 O195 2.135 . S
O188 Co187 2.061 . S
O188 C191 1.235 . S
C189 O192 1.238 . S
C189 O193 1.241 . S
C190 O183 1.247 . S
C190 O184 1.261 . S
C191 O186 1.259 . S
C191 O188 1.235 . S
O192 Co182 2.021 . S
O192 C189 1.238 . S
O193 Co187 2.052 . S
O193 C189 1.241 . S
O194 Co182 2.137 1_556 S
O194 C185 1.247 . S
O195 Co182 2.244 . S
O195 C185 1.272 1_554 S
O195 Co187 2.135 . S
Co196 O197 2.216 . S
Co196 O198 2.091 . S
Co196 O200 2.004 . S
Co196 O206 2.021 . S
Co196 O208 2.137 . S
Co196 O209 2.244 . S
O197 Co196 2.216 . S
O197 C204 1.247 . S
O198 Co196 2.091 . S
O198 C204 1.261 . S
C199 O208 1.247 . S
C199 O209 1.272 . S
O200 Co196 2.004 . S
O200 C205 1.259 . S
Co201 O202 2.061 . S
Co201 O207 2.052 . S
Co201 O209 2.135 . S
O202 Co201 2.061 . S
O202 C205 1.235 . S
C203 O206 1.238 . S
C203 O207 1.241 . S
C204 O197 1.247 . S
C204 O198 1.261 . S
C205 O200 1.259 . S
C205 O202 1.235 . S
O206 Co196 2.021 . S
O206 C203 1.238 . S
O207 Co201 2.052 . S
O207 C203 1.241 . S
O208 Co196 2.137 . S
O208 C199 1.247 . S
O209 Co196 2.244 . S
O209 C199 1.272 . S
O209 Co201 2.135 . S
Co210 O211 2.216 . S
Co210 O212 2.091 . S
Co210 O214 2.004 . S
Co210 O220 2.021 . S
Co210 O222 2.137 . S
Co210 O223 2.244 . S
O211 Co210 2.216 . S
O211 C218 1.247 . S
O212 Co210 2.091 . S
O212 C218 1.261 . S
C213 O222 1.247 . S
C213 O223 1.272 . S
O214 Co210 2.004 . S
O214 C219 1.259 . S
Co215 O216 2.061 . S
Co215 O221 2.052 . S
Co215 O223 2.135 . S
O216 Co215 2.061 . S
O216 C219 1.235 . S
C217 O220 1.238 . S
C217 O221 1.241 . S
C218 O211 1.247 . S
C218 O212 1.261 . S
C219 O214 1.259 . S
C219 O216 1.235 . S
O220 Co210 2.021 . S
O220 C217 1.238 . S
O221 Co215 2.052 . S
O221 C217 1.241 . S
O222 Co210 2.137 . S
O222 C213 1.247 . S
O223 Co210 2.244 . S
O223 C213 1.272 . S
O223 Co215 2.135 . S
Co224 O225 2.216 . S
Co224 O226 2.091 . S
Co224 O228 2.004 . S
Co224 O234 2.021 . S
Co224 O236 2.137 . S
Co224 O237 2.244 . S
O225 Co224 2.216 . S
O225 C232 1.247 . S
O226 Co224 2.091 . S
O226 C232 1.261 . S
C227 O236 1.247 . S
C227 O237 1.272 . S
O228 Co224 2.004 . S
O228 C233 1.259 . S
Co229 O230 2.061 . S
Co229 O235 2.052 . S
Co229 O237 2.135 . S
O230 Co229 2.061 . S
O230 C233 1.235 . S
C231 O234 1.238 . S
C231 O235 1.241 . S
C232 O225 1.247 . S
C232 O226 1.261 . S
C233 O228 1.259 . S
C233 O230 1.235 . S
O234 Co224 2.021 . S
O234 C231 1.238 . S
O235 Co229 2.052 . S
O235 C231 1.241 . S
O236 Co224 2.137 . S
O236 C227 1.247 . S
O237 Co224 2.244 . S
O237 C227 1.272 . S
O237 Co229 2.135 . S
Co238 O239 2.216 . S
Co238 O240 2.091 . S
Co238 O242 2.004 . S
Co238 O248 2.021 . S
Co238 O250 2.137 . S
Co238 O251 2.244 . S
O239 Co238 2.216 . S
O239 C246 1.247 . S
O240 Co238 2.091 . S
O240 C246 1.261 . S
C241 O250 1.247 . S
C241 O251 1.272 . S
O242 Co238 2.004 . S
O242 C247 1.259 . S
Co243 O244 2.061 . S
Co243 O249 2.052 . S
Co243 O251 2.135 . S
O244 Co243 2.061 . S
O244 C247 1.235 . S
C245 O248 1.238 . S
C245 O249 1.241 . S
C246 O239 1.247 . S
C246 O240 1.261 . S
C247 O242 1.259 . S
C247 O244 1.235 . S
O248 Co238 2.021 . S
O248 C245 1.238 . S
O249 Co243 2.052 . S
O249 C245 1.241 . S
O250 Co238 2.137 . S
O250 C241 1.247 . S
O251 Co238 2.244 . S
O251 C241 1.272 . S
O251 Co243 2.135 . S
Co252 O253 2.216 . S
Co252 O254 2.091 . S
Co252 O256 2.004 . S
Co252 O262 2.021 . S
Co252 O264 2.137 . S
Co252 O265 2.244 . S
O253 Co252 2.216 . S
O253 C260 1.247 . S
O254 Co252 2.091 . S
O254 C260 1.261 . S
C255 O264 1.247 . S
C255 O265 1.272 . S
O256 Co252 2.004 . S
O256 C261 1.259 . S
Co257 O258 2.061 . S
Co257 O263 2.052 . S
Co257 O265 2.135 . S
O258 Co257 2.061 . S
O258 C261 1.235 . S
C259 O262 1.238 . S
C259 O263 1.241 . S
C260 O253 1.247 . S
C260 O254 1.261 . S
C261 O256 1.259 . S
C261 O258 1.235 . S
O262 Co252 2.021 . S
O262 C259 1.238 . S
O263 Co257 2.052 . S
O263 C259 1.241 . S
O264 Co252 2.137 . S
O264 C255 1.247 . S
O265 Co252 2.244 . S
O265 C255 1.272 . S
O265 Co257 2.135 . S
Co266 O267 2.216 . S
Co266 O268 2.091 . S
Co266 O270 2.004 . S
Co266 O276 2.021 . S
Co266 O278 2.137 . S
Co266 O279 2.244 . S
O267 Co266 2.216 . S
O267 C274 1.247 . S
O268 Co266 2.091 . S
O268 C274 1.261 . S
C269 O278 1.247 . S
C269 O279 1.272 . S
O270 Co266 2.004 . S
O270 C275 1.259 . S
Co271 O272 2.061 . S
Co271 O277 2.052 . S
Co271 O279 2.135 . S
O272 Co271 2.061 . S
O272 C275 1.235 . S
C273 O276 1.238 . S
C273 O277 1.241 . S
C274 O267 1.247 . S
C274 O268 1.261 . S
C275 O270 1.259 . S
C275 O272 1.235 . S
O276 Co266 2.021 . S
O276 C273 1.238 . S
O277 Co271 2.052 . S
O277 C273 1.241 . S
O278 Co266 2.137 . S
O278 C269 1.247 . S
O279 Co266 2.244 . S
O279 C269 1.272 . S
O279 Co271 2.135 . S
Co280 O281 2.216 . S
Co280 O282 2.091 . S
Co280 O284 2.004 . S
Co280 O290 2.021 1_556 S
Co280 O292 2.137 . S
Co280 O293 2.244 . S
O281 Co280 2.216 . S
O281 C288 1.253 . S
O282 Co280 2.091 . S
O282 C288 1.258 . S
C283 O292 1.247 . S
C283 O293 1.272 . S
O284 Co280 2.004 . S
O284 C289 1.259 . S
Co285 O286 2.060 . S
Co285 O291 2.052 . S
Co285 O293 2.135 1_554 S
O286 Co285 2.060 . S
O286 C289 1.234 1_554 S
C287 O290 1.238 . S
C287 O291 1.241 . S
C288 O281 1.253 . S
C288 O282 1.258 . S
C289 O284 1.259 . S
C289 O286 1.234 1_556 S
O290 Co280 2.021 1_554 S
O290 C287 1.238 . S
O291 Co285 2.052 . S
O291 C287 1.241 . S
O292 Co280 2.137 . S
O292 C283 1.247 . S
O293 Co280 2.244 . S
O293 C283 1.272 . S
O293 Co285 2.135 1_556 S
Co294 O295 2.216 . S
Co294 O296 2.091 . S
Co294 O298 2.004 . S
Co294 O304 2.021 . S
Co294 O306 2.137 . S
Co294 O307 2.244 . S
O295 Co294 2.216 . S
O295 C302 1.247 . S
O296 Co294 2.091 . S
O296 C302 1.261 . S
C297 O306 1.247 . S
C297 O307 1.272 . S
O298 Co294 2.004 . S
O298 C303 1.259 . S
Co299 O300 2.061 . S
Co299 O305 2.052 . S
Co299 O307 2.135 . S
O300 Co299 2.061 . S
O300 C303 1.235 . S
C301 O304 1.238 . S
C301 O305 1.241 . S
C302 O295 1.247 . S
C302 O296 1.261 . S
C303 O298 1.259 . S
C303 O300 1.235 . S
O304 Co294 2.021 . S
O304 C301 1.238 . S
O305 Co299 2.052 . S
O305 C301 1.241 . S
O306 Co294 2.137 . S
O306 C297 1.247 . S
O307 Co294 2.244 . S
O307 C297 1.272 . S
O307 Co299 2.135 . S
Co308 O309 2.216 . S
Co308 O310 2.091 . S
Co308 O312 2.004 . S
Co308 O318 2.021 . S
Co308 O320 2.137 . S
Co308 O321 2.244 . S
O309 Co308 2.216 . S
O309 C316 1.247 . S
O310 Co308 2.091 . S
O310 C316 1.261 . S
C311 O320 1.247 . S
C311 O321 1.272 . S
O312 Co308 2.004 . S
O312 C317 1.259 . S
Co313 O314 2.061 . S
Co313 O319 2.052 . S
Co313 O321 2.135 . S
O314 Co313 2.061 . S
O314 C317 1.235 . S
C315 O318 1.238 . S
C315 O319 1.241 . S
C316 O309 1.247 . S
C316 O310 1.261 . S
C317 O312 1.259 . S
C317 O314 1.235 . S
O318 Co308 2.021 . S
O318 C315 1.238 . S
O319 Co313 2.052 . S
O319 C315 1.241 . S
O320 Co308 2.137 . S
O320 C311 1.247 . S
O321 Co308 2.244 . S
O321 C311 1.272 . S
O321 Co313 2.135 . S
Co322 O323 2.216 . S
Co322 O324 2.091 . S
Co322 O326 2.004 . S
Co322 O332 2.021 . S
Co322 O334 2.137 . S
Co322 O335 2.244 . S
O323 Co322 2.216 . S
O323 C330 1.247 . S
O324 Co322 2.091 . S
O324 C330 1.261 . S
C325 O334 1.247 . S
C325 O335 1.272 . S
O326 Co322 2.004 . S
O326 C331 1.259 . S
Co327 O328 2.061 . S
Co327 O333 2.052 . S
Co327 O335 2.135 . S
O328 Co327 2.061 . S
O328 C331 1.235 . S
C329 O332 1.238 . S
C329 O333 1.241 . S
C330 O323 1.247 . S
C330 O324 1.261 . S
C331 O326 1.259 . S
C331 O328 1.235 . S
O332 Co322 2.021 . S
O332 C329 1.238 . S
O333 Co327 2.052 . S
O333 C329 1.241 . S
O334 Co322 2.137 . S
O334 C325 1.247 . S
O335 Co322 2.244 . S
O335 C325 1.272 . S
O335 Co327 2.135 . S
Eu336 N367 2.657 1_545 S
Eu336 N374 2.609 1_544 S
Eu336 O380 2.558 1_454 S
Eu336 O381 2.612 . S
Eu336 O383 2.339 . S
Eu336 O384 2.563 . S
Eu336 O385 2.419 1_455 S
Eu336 O387 2.380 . S
Eu336 O388 2.432 1_554 S
Eu336 C400 2.848 1_454 S
C337 C340 1.429 . S
C337 C341 1.411 . S
C337 N344 1.377 . S
C338 C340 1.420 . S
C338 C342 1.423 . S
C338 C350 1.392 . S
C339 C341 1.420 . S
C339 C342 1.351 . S
C339 H362 0.931 . S
C340 C337 1.429 . S
C340 C338 1.420 . S
C340 N348 1.362 . S
C341 C337 1.411 . S
C341 C339 1.420 . S
C341 C346 1.395 . S
C342 C338 1.423 . S
C342 C339 1.351 . S
C342 H354 0.930 . S
C343 C345 1.400 . S
C343 C346 1.386 . S
C343 H355 0.930 . S
N344 C337 1.377 . S
N344 C345 1.321 . S
N344 Eu347 2.609 . S
C345 C343 1.400 . S
C345 N344 1.321 . S
C345 H352 0.930 . S
C346 C341 1.395 . S
C346 C343 1.386 . S
C346 H365 0.930 . S
Eu347 N344 2.609 . S
Eu347 N348 2.657 . S
Eu347 O381 2.380 . S
Eu347 O382 2.432 . S
Eu347 O386 2.558 . S
Eu347 O387 2.612 . S
Eu347 O389 2.343 1_554 S
Eu347 O390 2.563 . S
Eu347 O391 2.419 . S
Eu347 C411 2.848 . S
N348 C340 1.362 . S
N348 Eu347 2.657 . S
N348 C349 1.332 . S
C349 N348 1.332 . S
C349 C351 1.414 1_554 S
C349 H356 0.930 1_554 S
C350 C338 1.392 . S
C350 C351 1.367 1_554 S
C350 H358 0.915 1_554 S
C351 C349 1.414 1_556 S
C351 C350 1.367 1_556 S
C351 H353 0.930 . S
H352 C345 0.930 . S
H353 C351 0.930 . S
H354 C342 0.930 . S
H355 C343 0.930 . S
H356 C349 0.930 1_556 S
H357 C371 0.930 . S
H358 C350 0.915 1_556 S
H359 C377 0.930 1_545 S
H360 C368 0.929 1_545 S
H361 C375 0.930 . S
H362 C339 0.931 . S
H363 C369 0.930 . S
H364 C402 0.930 . S
H365 C346 0.930 . S
H366 C401 0.931 . S
N367 Eu336 2.657 1_565 S
N367 C368 1.334 . S
N367 C372 1.362 . S
C368 H360 0.929 1_565 S
C368 N367 1.334 . S
C368 C371 1.413 . S
C369 H363 0.930 . S
C369 C370 1.392 . S
C369 C371 1.367 1_655 S
C370 C369 1.392 . S
C370 C372 1.420 1_655 S
C370 C402 1.423 . S
C371 H357 0.930 . S
C371 C368 1.413 . S
C371 C369 1.367 1_455 S
C372 N367 1.362 . S
C372 C370 1.420 1_455 S
C372 C376 1.429 1_554 S
H373 C378 0.930 . S
N374 Eu336 2.609 1_566 S
N374 C376 1.377 . S
N374 C377 1.321 . S
C375 H361 0.930 . S
C375 C377 1.400 . S
C375 C378 1.386 1_455 S
C376 C372 1.429 1_556 S
C376 N374 1.377 . S
C376 C379 1.411 1_455 S
C377 H359 0.930 1_565 S
C377 N374 1.321 . S
C377 C375 1.400 . S
C378 H373 0.930 . S
C378 C375 1.386 1_655 S
C378 C379 1.395 . S
C379 C376 1.411 1_655 S
C379 C378 1.395 . S
C379 C401 1.420 . S
O380 Eu336 2.558 1_656 S
O380 C400 1.257 . S
O381 Eu336 2.612 . S
O381 Eu347 2.380 . S
O381 C392 1.276 . S
O382 Eu347 2.432 . S
O382 C399 1.264 . S
O383 Eu336 2.339 . S
O383 C399 1.254 . S
O384 Eu336 2.563 . S
O384 C392 1.235 . S
O385 Eu336 2.419 1_655 S
O385 C400 1.249 1_554 S
O386 Eu347 2.558 . S
O386 C411 1.257 . S
O387 Eu336 2.380 . S
O387 Eu347 2.612 . S
O387 C403 1.276 . S
O388 Eu336 2.432 1_556 S
O388 C410 1.264 . S
O389 Eu347 2.343 1_556 S
O389 C410 1.250 . S
O390 Eu347 2.563 . S
O390 C403 1.235 . S
O391 Eu347 2.419 . S
O391 C411 1.249 . S
C392 O381 1.276 . S
C392 O384 1.235 . S
C393 C395 1.393 1_556 S
C393 C397 1.395 . S
C393 C400 1.492 . S
C394 C395 1.392 . S
C394 C396 1.386 1_554 S
C395 C393 1.393 1_554 S
C395 C394 1.392 . S
C395 H412 0.930 . S
C396 C394 1.386 1_556 S
C396 C398 1.395 . S
C396 H413 0.930 . S
C397 C393 1.395 . S
C397 C398 1.379 . S
C397 H414 0.930 . S
C398 C396 1.395 . S
C398 C397 1.379 . S
C398 H415 0.930 . S
C399 O382 1.264 . S
C399 O383 1.254 . S
C400 Eu336 2.848 1_656 S
C400 O380 1.257 . S
C400 O385 1.249 1_556 S
C400 C393 1.492 . S
C401 H366 0.931 . S
C401 C379 1.420 . S
C401 C402 1.351 1_556 S
C402 H364 0.930 . S
C402 C370 1.423 . S
C402 C401 1.351 1_554 S
C403 O387 1.276 . S
C403 O390 1.235 . S
C404 C405 1.393 . S
C404 C408 1.395 . S
C404 C411 1.492 . S
C405 C404 1.393 . S
C405 C406 1.392 . S
C405 H416 0.930 . S
C406 C405 1.392 . S
C406 C407 1.386 . S
C407 C406 1.386 . S
C407 C409 1.395 . S
C407 H417 0.930 . S
C408 C404 1.395 . S
C408 C409 1.379 . S
C408 H418 0.930 . S
C409 C407 1.395 . S
C409 C408 1.379 . S
C409 H419 0.930 . S
C410 O388 1.264 . S
C410 O389 1.250 . S
C411 Eu347 2.848 . S
C411 O386 1.257 . S
C411 O391 1.249 . S
C411 C404 1.492 . S
H412 C395 0.930 . S
H413 C396 0.930 . S
H414 C397 0.930 . S
H415 C398 0.930 . S
H416 C405 0.930 . S
H417 C407 0.930 . S
H418 C408 0.930 . S
H419 C409 0.930 . S
Eu420 N451 2.657 . S
Eu420 N458 2.609 . S
Eu420 O464 2.558 . S
Eu420 O465 2.612 . S
Eu420 O467 2.339 . S
Eu420 O468 2.563 . S
Eu420 O469 2.419 . S
Eu420 O471 2.380 . S
Eu420 O472 2.432 . S
Eu420 C484 2.848 . S
C421 C424 1.429 . S
C421 C425 1.411 . S
C421 N428 1.377 . S
C422 C424 1.420 . S
C422 C426 1.423 . S
C422 C434 1.392 . S
C423 C425 1.420 . S
C423 C426 1.351 . S
C423 H446 0.931 . S
C424 C421 1.429 . S
C424 C422 1.420 . S
C424 N432 1.362 . S
C425 C421 1.411 . S
C425 C423 1.420 . S
C425 C430 1.395 . S
C426 C422 1.423 . S
C426 C423 1.351 . S
C426 H438 0.930 . S
C427 C429 1.400 . S
C427 C430 1.386 . S
C427 H439 0.930 . S
N428 C421 1.377 . S
N428 C429 1.321 . S
N428 Eu431 2.609 . S
C429 C427 1.400 . S
C429 N428 1.321 . S
C429 H436 0.930 . S
C430 C425 1.395 . S
C430 C427 1.386 . S
C430 H449 0.930 . S
Eu431 N428 2.609 . S
Eu431 N432 2.657 . S
Eu431 O465 2.380 . S
Eu431 O466 2.432 . S
Eu431 O470 2.558 . S
Eu431 O471 2.612 . S
Eu431 O473 2.339 . S
Eu431 O474 2.563 . S
Eu431 O475 2.419 . S
Eu431 C495 2.848 . S
N432 C424 1.362 . S
N432 Eu431 2.657 . S
N432 C433 1.334 . S
C433 N432 1.334 . S
C433 C435 1.413 . S
C433 H440 0.929 . S
C434 C422 1.392 . S
C434 C435 1.367 . S
C434 H442 0.930 . S
C435 C433 1.413 . S
C435 C434 1.367 . S
C435 H437 0.930 . S
H436 C429 0.930 . S
H437 C435 0.930 . S
H438 C426 0.930 . S
H439 C427 0.930 . S
H440 C433 0.929 . S
H441 C455 0.930 . S
H442 C434 0.930 . S
H443 C461 0.930 . S
H444 C452 0.929 . S
H445 C459 0.930 . S
H446 C423 0.931 . S
H447 C453 0.930 . S
H448 C486 0.930 . S
H449 C430 0.930 . S
H450 C485 0.931 . S
N451 Eu420 2.657 . S
N451 C452 1.334 . S
N451 C456 1.362 . S
C452 H444 0.929 . S
C452 N451 1.334 . S
C452 C455 1.413 . S
C453 H447 0.930 . S
C453 C454 1.392 . S
C453 C455 1.367 . S
C454 C453 1.392 . S
C454 C456 1.420 . S
C454 C486 1.423 . S
C455 H441 0.930 . S
C455 C452 1.413 . S
C455 C453 1.367 . S
C456 N451 1.362 . S
C456 C454 1.420 . S
C456 C460 1.429 . S
H457 C462 0.930 . S
N458 Eu420 2.609 . S
N458 C460 1.377 . S
N458 C461 1.321 . S
C459 H445 0.930 . S
C459 C461 1.400 . S
C459 C462 1.386 . S
C460 C456 1.429 . S
C460 N458 1.377 . S
C460 C463 1.411 . S
C461 H443 0.930 . S
C461 N458 1.321 . S
C461 C459 1.400 . S
C462 H457 0.930 . S
C462 C459 1.386 . S
C462 C463 1.395 . S
C463 C460 1.411 . S
C463 C462 1.395 . S
C463 C485 1.420 . S
O464 Eu420 2.558 . S
O464 C484 1.257 . S
O465 Eu420 2.612 . S
O465 Eu431 2.380 . S
O465 C476 1.276 . S
O466 Eu431 2.432 . S
O466 C483 1.264 . S
O467 Eu420 2.339 . S
O467 C483 1.254 . S
O468 Eu420 2.563 . S
O468 C476 1.235 . S
O469 Eu420 2.419 . S
O469 C484 1.249 . S
O470 Eu431 2.558 . S
O470 C495 1.257 . S
O471 Eu420 2.380 . S
O471 Eu431 2.612 . S
O471 C487 1.276 . S
O472 Eu420 2.432 . S
O472 C494 1.264 . S
O473 Eu431 2.339 . S
O473 C494 1.254 . S
O474 Eu431 2.563 . S
O474 C487 1.235 . S
O475 Eu431 2.419 . S
O475 C495 1.249 . S
C476 O465 1.276 . S
C476 O468 1.235 . S
C477 C479 1.393 . S
C477 C481 1.395 . S
C477 C484 1.492 . S
C478 C479 1.392 . S
C478 C480 1.386 . S
C479 C477 1.393 . S
C479 C478 1.392 . S
C479 H496 0.930 . S
C480 C478 1.386 . S
C480 C482 1.395 . S
C480 H497 0.930 . S
C481 C477 1.395 . S
C481 C482 1.379 . S
C481 H498 0.930 . S
C482 C480 1.395 . S
C482 C481 1.379 . S
C482 H499 0.930 . S
C483 O466 1.264 . S
C483 O467 1.254 . S
C484 Eu420 2.848 . S
C484 O464 1.257 . S
C484 O469 1.249 . S
C484 C477 1.492 . S
C485 H450 0.931 . S
C485 C463 1.420 . S
C485 C486 1.351 . S
C486 H448 0.930 . S
C486 C454 1.423 . S
C486 C485 1.351 . S
C487 O471 1.276 . S
C487 O474 1.235 . S
C488 C489 1.393 . S
C488 C492 1.395 . S
C488 C495 1.492 . S
C489 C488 1.393 . S
C489 C490 1.392 . S
C489 H500 0.930 . S
C490 C489 1.392 . S
C490 C491 1.386 . S
C491 C490 1.386 . S
C491 C493 1.395 . S
C491 H501 0.930 . S
C492 C488 1.395 . S
C492 C493 1.379 . S
C492 H502 0.930 . S
C493 C491 1.395 . S
C493 C492 1.379 . S
C493 H503 0.930 . S
C494 O472 1.264 . S
C494 O473 1.254 . S
C495 Eu431 2.848 . S
C495 O470 1.257 . S
C495 O475 1.249 . S
C495 C488 1.492 . S
H496 C479 0.930 . S
H497 C480 0.930 . S
H498 C481 0.930 . S
H499 C482 0.930 . S
H500 C489 0.930 . S
H501 C491 0.930 . S
H502 C492 0.930 . S
H503 C493 0.930 . S
Eu504 N535 2.657 . S
Eu504 N542 2.609 . S
Eu504 O548 2.558 . S
Eu504 O549 2.612 . S
Eu504 O551 2.339 . S
Eu504 O552 2.563 1_545 S
Eu504 O553 2.419 . S
Eu504 O555 2.380 . S
Eu504 O556 2.432 . S
Eu504 C568 2.848 . S
C505 C508 1.429 . S
C505 C509 1.411 . S
C505 N512 1.377 1_565 S
C506 C508 1.420 . S
C506 C510 1.423 . S
C506 C518 1.392 . S
C507 C509 1.420 . S
C507 C510 1.351 . S
C507 H530 0.931 . S
C508 C505 1.429 . S
C508 C506 1.420 . S
C508 N516 1.362 . S
C509 C505 1.411 . S
C509 C507 1.420 . S
C509 C514 1.395 . S
C510 C506 1.423 . S
C510 C507 1.351 . S
C510 H522 0.930 . S
C511 C513 1.400 . S
C511 C514 1.386 1_545 S
C511 H523 0.930 . S
N512 C505 1.377 1_545 S
N512 C513 1.321 . S
N512 Eu515 2.609 . S
C513 C511 1.400 . S
C513 N512 1.321 . S
C513 H520 0.930 . S
C514 C509 1.395 . S
C514 C511 1.386 1_565 S
C514 H533 0.930 . S
Eu515 N512 2.609 . S
Eu515 N516 2.657 1_545 S
Eu515 O549 2.380 . S
Eu515 O550 2.432 . S
Eu515 O554 2.558 . S
Eu515 O555 2.612 . S
Eu515 O557 2.339 . S
Eu515 O558 2.563 . S
Eu515 O559 2.419 . S
Eu515 C579 2.848 . S
N516 C508 1.362 . S
N516 Eu515 2.657 1_565 S
N516 C517 1.334 . S
C517 N516 1.334 . S
C517 C519 1.413 . S
C517 H524 0.929 1_565 S
C518 C506 1.392 . S
C518 C519 1.367 . S
C518 H526 0.930 . S
C519 C517 1.413 . S
C519 C518 1.367 . S
C519 H521 0.930 . S
H520 C513 0.930 . S
H521 C519 0.930 . S
H522 C510 0.930 . S
H523 C511 0.930 . S
H524 C517 0.929 1_545 S
H525 C539 0.930 . S
H526 C518 0.930 . S
H527 C545 0.930 . S
H528 C536 0.929 . S
H529 C543 0.930 . S
H530 C507 0.931 . S
H531 C537 0.930 . S
H532 C570 0.930 . S
H533 C514 0.930 . S
H534 C569 0.931 . S
N535 Eu504 2.657 . S
N535 C536 1.334 . S
N535 C540 1.362 . S
C536 H528 0.929 . S
C536 N535 1.334 . S
C536 C539 1.413 . S
C537 H531 0.930 . S
C537 C538 1.392 . S
C537 C539 1.367 . S
C538 C537 1.392 . S
C538 C540 1.420 . S
C538 C570 1.423 . S
C539 H525 0.930 . S
C539 C536 1.413 . S
C539 C537 1.367 . S
C540 N535 1.362 . S
C540 C538 1.420 . S
C540 C544 1.429 . S
H541 C546 0.930 . S
N542 Eu504 2.609 . S
N542 C544 1.377 . S
N542 C545 1.321 . S
C543 H529 0.930 . S
C543 C545 1.400 . S
C543 C546 1.386 . S
C544 C540 1.429 . S
C544 N542 1.377 . S
C544 C547 1.411 . S
C545 H527 0.930 . S
C545 N542 1.321 . S
C545 C543 1.400 . S
C546 H541 0.930 . S
C546 C543 1.386 . S
C546 C547 1.395 . S
C547 C544 1.411 . S
C547 C546 1.395 . S
C547 C569 1.420 . S
O548 Eu504 2.558 . S
O548 C568 1.257 . S
O549 Eu504 2.612 . S
O549 Eu515 2.380 . S
O549 C560 1.276 1_545 S
O550 Eu515 2.432 . S
O550 C567 1.264 . S
O551 Eu504 2.339 . S
O551 C567 1.254 . S
O552 Eu504 2.563 1_565 S
O552 C560 1.235 . S
O553 Eu504 2.419 . S
O553 C568 1.249 . S
O554 Eu515 2.558 . S
O554 C579 1.257 . S
O555 Eu504 2.380 . S
O555 Eu515 2.612 . S
O555 C571 1.276 . S
O556 Eu504 2.432 . S
O556 C578 1.264 . S
O557 Eu515 2.339 . S
O557 C578 1.254 . S
O558 Eu515 2.563 . S
O558 C571 1.235 . S
O559 Eu515 2.419 . S
O559 C579 1.249 . S
C560 O549 1.276 1_565 S
C560 O552 1.235 . S
C561 C563 1.393 . S
C561 C565 1.395 . S
C561 C568 1.492 . S
C562 C563 1.392 1_565 S
C562 C564 1.386 . S
C563 C561 1.393 . S
C563 C562 1.392 1_545 S
C563 H580 0.930 . S
C564 C562 1.386 . S
C564 C566 1.395 1_565 S
C564 H581 0.930 . S
C565 C561 1.395 . S
C565 C566 1.379 . S
C565 H582 0.930 . S
C566 C564 1.395 1_545 S
C566 C565 1.379 . S
C566 H583 0.930 . S
C567 O550 1.264 . S
C567 O551 1.254 . S
C568 Eu504 2.848 . S
C568 O548 1.257 . S
C568 O553 1.249 . S
C568 C561 1.492 . S
C569 H534 0.931 . S
C569 C547 1.420 . S
C569 C570 1.351 . S
C570 H532 0.930 . S
C570 C538 1.423 . S
C570 C569 1.351 . S
C571 O555 1.276 . S
C571 O558 1.235 . S
C572 C573 1.393 . S
C572 C576 1.395 . S
C572 C579 1.492 . S
C573 C572 1.393 . S
C573 C574 1.392 . S
C573 H584 0.930 . S
C574 C573 1.392 . S
C574 C575 1.386 . S
C575 C574 1.386 . S
C575 C577 1.395 . S
C575 H585 0.930 . S
C576 C572 1.395 . S
C576 C577 1.379 . S
C576 H586 0.930 . S
C577 C575 1.395 . S
C577 C576 1.379 . S
C577 H587 0.930 . S
C578 O556 1.264 . S
C578 O557 1.254 . S
C579 Eu515 2.848 . S
C579 O554 1.257 . S
C579 O559 1.249 . S
C579 C572 1.492 . S
H580 C563 0.930 . S
H581 C564 0.930 . S
H582 C565 0.930 . S
H583 C566 0.930 . S
H584 C573 0.930 . S
H585 C575 0.930 . S
H586 C576 0.930 . S
H587 C577 0.930 . S
Eu588 N619 2.657 . S
Eu588 N626 2.609 . S
Eu588 O632 2.558 . S
Eu588 O633 2.612 . S
Eu588 O635 2.339 . S
Eu588 O636 2.563 . S
Eu588 O637 2.419 . S
Eu588 O639 2.380 . S
Eu588 O640 2.432 . S
Eu588 C652 2.848 . S
C589 C592 1.429 . S
C589 C593 1.411 . S
C589 N596 1.377 . S
C590 C592 1.420 . S
C590 C594 1.423 . S
C590 C602 1.392 . S
C591 C593 1.420 . S
C591 C594 1.351 . S
C591 H614 0.931 . S
C592 C589 1.429 . S
C592 C590 1.420 . S
C592 N600 1.362 . S
C593 C589 1.411 . S
C593 C591 1.420 . S
C593 C598 1.395 . S
C594 C590 1.423 . S
C594 C591 1.351 . S
C594 H606 0.930 . S
C595 C597 1.400 . S
C595 C598 1.386 . S
C595 H607 0.930 . S
N596 C589 1.377 . S
N596 C597 1.321 . S
N596 Eu599 2.609 . S
C597 C595 1.400 . S
C597 N596 1.321 . S
C597 H604 0.930 . S
C598 C593 1.395 . S
C598 C595 1.386 . S
C598 H617 0.930 . S
Eu599 N596 2.609 . S
Eu599 N600 2.657 . S
Eu599 O633 2.380 . S
Eu599 O634 2.432 . S
Eu599 O638 2.558 . S
Eu599 O639 2.612 . S
Eu599 O641 2.339 . S
Eu599 O642 2.563 . S
Eu599 O643 2.419 . S
Eu599 C663 2.848 . S
N600 C592 1.362 . S
N600 Eu599 2.657 . S
N600 C601 1.334 . S
C601 N600 1.334 . S
C601 C603 1.413 . S
C601 H608 0.929 . S
C602 C590 1.392 . S
C602 C603 1.367 . S
C602 H610 0.930 . S
C603 C601 1.413 . S
C603 C602 1.367 . S
C603 H605 0.930 . S
H604 C597 0.930 . S
H605 C603 0.930 . S
H606 C594 0.930 . S
H607 C595 0.930 . S
H608 C601 0.929 . S
H609 C623 0.930 . S
H610 C602 0.930 . S
H611 C629 0.930 . S
H612 C620 0.929 . S
H613 C627 0.930 . S
H614 C591 0.931 . S
H615 C621 0.930 . S
H616 C654 0.930 . S
H617 C598 0.930 . S
H618 C653 0.931 . S
N619 Eu588 2.657 . S
N619 C620 1.334 . S
N619 C624 1.362 . S
C620 H612 0.929 . S
C620 N619 1.334 . S
C620 C623 1.413 . S
C621 H615 0.930 . S
C621 C622 1.392 . S
C621 C623 1.367 . S
C622 C621 1.392 . S
C622 C624 1.420 . S
C622 C654 1.423 . S
C623 H609 0.930 . S
C623 C620 1.413 . S
C623 C621 1.367 . S
C624 N619 1.362 . S
C624 C622 1.420 . S
C624 C628 1.429 . S
H625 C630 0.930 . S
N626 Eu588 2.609 . S
N626 C628 1.377 . S
N626 C629 1.321 . S
C627 H613 0.930 . S
C627 C629 1.400 . S
C627 C630 1.386 . S
C628 C624 1.429 . S
C628 N626 1.377 . S
C628 C631 1.411 . S
C629 H611 0.930 . S
C629 N626 1.321 . S
C629 C627 1.400 . S
C630 H625 0.930 . S
C630 C627 1.386 . S
C630 C631 1.395 . S
C631 C628 1.411 . S
C631 C630 1.395 . S
C631 C653 1.420 . S
O632 Eu588 2.558 . S
O632 C652 1.257 . S
O633 Eu588 2.612 . S
O633 Eu599 2.380 . S
O633 C644 1.276 . S
O634 Eu599 2.432 . S
O634 C651 1.264 . S
O635 Eu588 2.339 . S
O635 C651 1.254 . S
O636 Eu588 2.563 . S
O636 C644 1.235 . S
O637 Eu588 2.419 . S
O637 C652 1.249 . S
O638 Eu599 2.558 . S
O638 C663 1.257 . S
O639 Eu588 2.380 . S
O639 Eu599 2.612 . S
O639 C655 1.276 . S
O640 Eu588 2.432 . S
O640 C662 1.264 . S
O641 Eu599 2.339 . S
O641 C662 1.254 . S
O642 Eu599 2.563 . S
O642 C655 1.235 . S
O643 Eu599 2.419 . S
O643 C663 1.249 . S
C644 O633 1.276 . S
C644 O636 1.235 . S
C645 C647 1.393 . S
C645 C649 1.395 . S
C645 C652 1.492 . S
C646 C647 1.392 . S
C646 C648 1.386 . S
C647 C645 1.393 . S
C647 C646 1.392 . S
C647 H664 0.930 . S
C648 C646 1.386 . S
C648 C650 1.395 . S
C648 H665 0.930 . S
C649 C645 1.395 . S
C649 C650 1.379 . S
C649 H666 0.930 . S
C650 C648 1.395 . S
C650 C649 1.379 . S
C650 H667 0.930 . S
C651 O634 1.264 . S
C651 O635 1.254 . S
C652 Eu588 2.848 . S
C652 O632 1.257 . S
C652 O637 1.249 . S
C652 C645 1.492 . S
C653 H618 0.931 . S
C653 C631 1.420 . S
C653 C654 1.351 . S
C654 H616 0.930 . S
C654 C622 1.423 . S
C654 C653 1.351 . S
C655 O639 1.276 . S
C655 O642 1.235 . S
C656 C657 1.393 . S
C656 C660 1.395 . S
C656 C663 1.492 . S
C657 C656 1.393 . S
C657 C658 1.392 . S
C657 H668 0.930 . S
C658 C657 1.392 . S
C658 C659 1.386 . S
C659 C658 1.386 . S
C659 C661 1.395 . S
C659 H669 0.930 . S
C660 C656 1.395 . S
C660 C661 1.379 . S
C660 H670 0.930 . S
C661 C659 1.395 . S
C661 C660 1.379 . S
C661 H671 0.930 . S
C662 O640 1.264 . S
C662 O641 1.254 . S
C663 Eu599 2.848 . S
C663 O638 1.257 . S
C663 O643 1.249 . S
C663 C656 1.492 . S
H664 C647 0.930 . S
H665 C648 0.930 . S
H666 C649 0.930 . S
H667 C650 0.930 . S
H668 C657 0.930 . S
H669 C659 0.930 . S
H670 C660 0.930 . S
H671 C661 0.930 . S
Eu672 N703 2.657 . S
Eu672 N710 2.609 . S
Eu672 O716 2.558 . S
Eu672 O717 2.612 . S
Eu672 O719 2.339 . S
Eu672 O720 2.563 . S
Eu672 O721 2.419 . S
Eu672 O723 2.380 . S
Eu672 O724 2.432 . S
Eu672 C736 2.848 . S
C673 C676 1.429 . S
C673 C677 1.411 . S
C673 N680 1.377 . S
C674 C676 1.420 . S
C674 C678 1.423 . S
C674 C686 1.392 . S
C675 C677 1.420 . S
C675 C678 1.351 . S
C675 H698 0.931 . S
C676 C673 1.429 . S
C676 C674 1.420 . S
C676 N684 1.362 . S
C677 C673 1.411 . S
C677 C675 1.420 . S
C677 C682 1.395 . S
C678 C674 1.423 . S
C678 C675 1.351 . S
C678 H690 0.930 . S
C679 C681 1.400 . S
C679 C682 1.386 . S
C679 H691 0.930 . S
N680 C673 1.377 . S
N680 C681 1.321 . S
N680 Eu683 2.609 1_565 S
C681 C679 1.400 . S
C681 N680 1.321 . S
C681 H688 0.930 1_565 S
C682 C677 1.395 . S
C682 C679 1.386 . S
C682 H701 0.930 . S
Eu683 N680 2.609 1_545 S
Eu683 N684 2.657 1_545 S
Eu683 O717 2.380 . S
Eu683 O718 2.432 . S
Eu683 O722 2.558 1_545 S
Eu683 O723 2.612 . S
Eu683 O725 2.339 . S
Eu683 O726 2.563 . S
Eu683 O727 2.419 1_545 S
Eu683 C747 2.848 1_545 S
N684 C676 1.362 . S
N684 Eu683 2.657 1_565 S
N684 C685 1.334 . S
C685 N684 1.334 . S
C685 C687 1.413 . S
C685 H692 0.929 . S
C686 C674 1.392 . S
C686 C687 1.367 . S
C686 H694 0.930 . S
C687 C685 1.413 . S
C687 C686 1.367 . S
C687 H689 0.930 1_455 S
H688 C681 0.930 1_545 S
H689 C687 0.930 1_655 S
H690 C678 0.930 . S
H691 C679 0.930 . S
H692 C685 0.929 . S
H693 C707 0.930 . S
H694 C686 0.930 . S
H695 C713 0.930 . S
H696 C704 0.929 . S
H697 C711 0.930 1_655 S
H698 C675 0.931 . S
H699 C705 0.930 . S
H700 C738 0.930 . S
H701 C682 0.930 . S
H702 C737 0.931 . S
N703 Eu672 2.657 . S
N703 C704 1.334 . S
N703 C708 1.362 . S
C704 H696 0.929 . S
C704 N703 1.334 . S
C704 C707 1.413 . S
C705 H699 0.930 . S
C705 C706 1.392 . S
C705 C707 1.367 . S
C706 C705 1.392 . S
C706 C708 1.420 . S
C706 C738 1.423 . S
C707 H693 0.930 . S
C707 C704 1.413 . S
C707 C705 1.367 . S
C708 N703 1.362 . S
C708 C706 1.420 . S
C708 C712 1.429 . S
H709 C714 0.930 . S
N710 Eu672 2.609 . S
N710 C712 1.377 . S
N710 C713 1.321 . S
C711 H697 0.930 1_455 S
C711 C713 1.400 . S
C711 C714 1.386 . S
C712 C708 1.429 . S
C712 N710 1.377 . S
C712 C715 1.411 . S
C713 H695 0.930 . S
C713 N710 1.321 . S
C713 C711 1.400 . S
C714 H709 0.930 . S
C714 C711 1.386 . S
C714 C715 1.395 . S
C715 C712 1.411 . S
C715 C714 1.395 . S
C715 C737 1.420 . S
O716 Eu672 2.558 . S
O716 C736 1.257 . S
O717 Eu672 2.612 . S
O717 Eu683 2.380 . S
O717 C728 1.276 . S
O718 Eu683 2.432 . S
O718 C735 1.264 . S
O719 Eu672 2.339 . S
O719 C735 1.254 . S
O720 Eu672 2.563 . S
O720 C728 1.235 . S
O721 Eu672 2.419 . S
O721 C736 1.249 . S
O722 Eu683 2.558 1_565 S
O722 C747 1.257 . S
O723 Eu672 2.380 . S
O723 Eu683 2.612 . S
O723 C739 1.276 . S
O724 Eu672 2.432 . S
O724 C746 1.264 . S
O725 Eu683 2.339 . S
O725 C746 1.254 . S
O726 Eu683 2.563 . S
O726 C739 1.235 . S
O727 Eu683 2.419 1_565 S
O727 C747 1.249 . S
C728 O717 1.276 . S
C728 O720 1.235 . S
C729 C731 1.393 . S
C729 C733 1.395 . S
C729 C736 1.492 . S
C730 C731 1.392 . S
C730 C732 1.386 . S
C731 C729 1.393 . S
C731 C730 1.392 . S
C731 H748 0.930 . S
C732 C730 1.386 . S
C732 C734 1.395 . S
C732 H749 0.930 . S
C733 C729 1.395 . S
C733 C734 1.379 . S
C733 H750 0.930 . S
C734 C732 1.395 . S
C734 C733 1.379 . S
C734 H751 0.930 . S
C735 O718 1.264 . S
C735 O719 1.254 . S
C736 Eu672 2.848 . S
C736 O716 1.257 . S
C736 O721 1.249 . S
C736 C729 1.492 . S
C737 H702 0.931 . S
C737 C715 1.420 . S
C737 C738 1.351 . S
C738 H700 0.930 . S
C738 C706 1.423 . S
C738 C737 1.351 . S
C739 O723 1.276 . S
C739 O726 1.235 . S
C740 C741 1.393 . S
C740 C744 1.395 . S
C740 C747 1.492 . S
C741 C740 1.393 . S
C741 C742 1.392 . S
C741 H752 0.930 . S
C742 C741 1.392 . S
C742 C743 1.386 . S
C743 C742 1.386 . S
C743 C745 1.395 . S
C743 H753 0.930 . S
C744 C740 1.395 . S
C744 C745 1.379 . S
C744 H754 0.930 . S
C745 C743 1.395 . S
C745 C744 1.379 . S
C745 H755 0.930 . S
C746 O724 1.264 . S
C746 O725 1.254 . S
C747 Eu683 2.848 1_565 S
C747 O722 1.257 . S
C747 O727 1.249 . S
C747 C740 1.492 . S
H748 C731 0.930 . S
H749 C732 0.930 . S
H750 C733 0.930 . S
H751 C734 0.930 . S
H752 C741 0.930 . S
H753 C743 0.930 . S
H754 C744 0.930 . S
H755 C745 0.930 . S
Eu756 N787 2.657 . S
Eu756 N794 2.609 . S
Eu756 O800 2.558 . S
Eu756 O801 2.612 . S
Eu756 O803 2.339 . S
Eu756 O804 2.563 . S
Eu756 O805 2.419 . S
Eu756 O807 2.380 . S
Eu756 O808 2.432 . S
Eu756 C820 2.848 . S
C757 C760 1.429 . S
C757 C761 1.411 . S
C757 N764 1.377 . S
C758 C760 1.420 . S
C758 C762 1.423 . S
C758 C770 1.392 . S
C759 C761 1.420 . S
C759 C762 1.351 . S
C759 H782 0.931 . S
C760 C757 1.429 . S
C760 C758 1.420 . S
C760 N768 1.362 . S
C761 C757 1.411 . S
C761 C759 1.420 . S
C761 C766 1.395 . S
C762 C758 1.423 . S
C762 C759 1.351 . S
C762 H774 0.930 . S
C763 C765 1.400 . S
C763 C766 1.386 . S
C763 H775 0.930 . S
N764 C757 1.377 . S
N764 C765 1.321 . S
N764 Eu767 2.609 . S
C765 C763 1.400 . S
C765 N764 1.321 . S
C765 H772 0.930 . S
C766 C761 1.395 . S
C766 C763 1.386 . S
C766 H785 0.930 . S
Eu767 N764 2.609 . S
Eu767 N768 2.657 . S
Eu767 O801 2.380 . S
Eu767 O802 2.432 . S
Eu767 O806 2.558 . S
Eu767 O807 2.612 . S
Eu767 O809 2.339 . S
Eu767 O810 2.563 . S
Eu767 O811 2.419 . S
Eu767 C831 2.848 . S
N768 C760 1.362 . S
N768 Eu767 2.657 . S
N768 C769 1.334 . S
C769 N768 1.334 . S
C769 C771 1.413 . S
C769 H776 0.929 . S
C770 C758 1.392 . S
C770 C771 1.367 . S
C770 H778 0.930 . S
C771 C769 1.413 . S
C771 C770 1.367 . S
C771 H773 0.930 . S
H772 C765 0.930 . S
H773 C771 0.930 . S
H774 C762 0.930 . S
H775 C763 0.930 . S
H776 C769 0.929 . S
H777 C791 0.930 . S
H778 C770 0.930 . S
H779 C797 0.930 . S
H780 C788 0.929 . S
H781 C795 0.930 . S
H782 C759 0.931 . S
H783 C789 0.930 . S
H784 C822 0.930 . S
H785 C766 0.930 . S
H786 C821 0.931 . S
N787 Eu756 2.657 . S
N787 C788 1.334 . S
N787 C792 1.362 . S
C788 H780 0.929 . S
C788 N787 1.334 . S
C788 C791 1.413 . S
C789 H783 0.930 . S
C789 C790 1.392 . S
C789 C791 1.367 . S
C790 C789 1.392 . S
C790 C792 1.420 . S
C790 C822 1.423 . S
C791 H777 0.930 . S
C791 C788 1.413 . S
C791 C789 1.367 . S
C792 N787 1.362 . S
C792 C790 1.420 . S
C792 C796 1.429 . S
H793 C798 0.930 . S
N794 Eu756 2.609 . S
N794 C796 1.377 . S
N794 C797 1.321 . S
C795 H781 0.930 . S
C795 C797 1.400 . S
C795 C798 1.386 . S
C796 C792 1.429 . S
C796 N794 1.377 . S
C796 C799 1.411 . S
C797 H779 0.930 . S
C797 N794 1.321 . S
C797 C795 1.400 . S
C798 H793 0.930 . S
C798 C795 1.386 . S
C798 C799 1.395 . S
C799 C796 1.411 . S
C799 C798 1.395 . S
C799 C821 1.420 . S
O800 Eu756 2.558 . S
O800 C820 1.257 . S
O801 Eu756 2.612 . S
O801 Eu767 2.380 . S
O801 C812 1.276 . S
O802 Eu767 2.432 . S
O802 C819 1.264 . S
O803 Eu756 2.339 . S
O803 C819 1.254 . S
O804 Eu756 2.563 . S
O804 C812 1.235 . S
O805 Eu756 2.419 . S
O805 C820 1.249 . S
O806 Eu767 2.558 . S
O806 C831 1.257 . S
O807 Eu756 2.380 . S
O807 Eu767 2.612 . S
O807 C823 1.276 . S
O808 Eu756 2.432 . S
O808 C830 1.264 . S
O809 Eu767 2.339 . S
O809 C830 1.254 . S
O810 Eu767 2.563 . S
O810 C823 1.235 . S
O811 Eu767 2.419 . S
O811 C831 1.249 . S
C812 O801 1.276 . S
C812 O804 1.235 . S
C813 C815 1.393 . S
C813 C817 1.395 . S
C813 C820 1.492 . S
C814 C815 1.392 . S
C814 C816 1.386 . S
C815 C813 1.393 . S
C815 C814 1.392 . S
C815 H832 0.930 . S
C816 C814 1.386 . S
C816 C818 1.395 . S
C816 H833 0.930 . S
C817 C813 1.395 . S
C817 C818 1.379 . S
C817 H834 0.930 . S
C818 C816 1.395 . S
C818 C817 1.379 . S
C818 H835 0.930 . S
C819 O802 1.264 . S
C819 O803 1.254 . S
C820 Eu756 2.848 . S
C820 O800 1.257 . S
C820 O805 1.249 . S
C820 C813 1.492 . S
C821 H786 0.931 . S
C821 C799 1.420 . S
C821 C822 1.351 . S
C822 H784 0.930 . S
C822 C790 1.423 . S
C822 C821 1.351 . S
C823 O807 1.276 . S
C823 O810 1.235 . S
C824 C825 1.393 . S
C824 C828 1.395 . S
C824 C831 1.492 . S
C825 C824 1.393 . S
C825 C826 1.392 . S
C825 H836 0.930 . S
C826 C825 1.392 . S
C826 C827 1.386 . S
C827 C826 1.386 . S
C827 C829 1.395 . S
C827 H837 0.930 . S
C828 C824 1.395 . S
C828 C829 1.379 . S
C828 H838 0.930 . S
C829 C827 1.395 . S
C829 C828 1.379 . S
C829 H839 0.930 . S
C830 O808 1.264 . S
C830 O809 1.254 . S
C831 Eu767 2.848 . S
C831 O806 1.257 . S
C831 O811 1.249 . S
C831 C824 1.492 . S
H832 C815 0.930 . S
H833 C816 0.930 . S
H834 C817 0.930 . S
H835 C818 0.930 . S
H836 C825 0.930 . S
H837 C827 0.930 . S
H838 C828 0.930 . S
H839 C829 0.930 . S
Eu840 N871 2.657 . S
Eu840 N878 2.609 . S
Eu840 O884 2.558 . S
Eu840 O885 2.612 . S
Eu840 O887 2.339 . S
Eu840 O888 2.563 . S
Eu840 O889 2.419 . S
Eu840 O891 2.380 . S
Eu840 O892 2.432 . S
Eu840 C904 2.848 . S
C841 C844 1.429 . S
C841 C845 1.411 . S
C841 N848 1.377 . S
C842 C844 1.420 . S
C842 C846 1.423 . S
C842 C854 1.392 1_545 S
C843 C845 1.420 . S
C843 C846 1.351 . S
C843 H866 0.931 . S
C844 C841 1.429 . S
C844 C842 1.420 . S
C844 N852 1.362 . S
C845 C841 1.411 . S
C845 C843 1.420 . S
C845 C850 1.395 . S
C846 C842 1.423 . S
C846 C843 1.351 . S
C846 H858 0.930 . S
C847 C849 1.400 . S
C847 C850 1.386 . S
C847 H859 0.930 . S
N848 C841 1.377 . S
N848 C849 1.321 . S
N848 Eu851 2.609 . S
C849 C847 1.400 . S
C849 N848 1.321 . S
C849 H856 0.930 . S
C850 C845 1.395 . S
C850 C847 1.386 . S
C850 H869 0.930 . S
Eu851 N848 2.609 . S
Eu851 N852 2.657 . S
Eu851 O885 2.380 1_556 S
Eu851 O886 2.432 1_556 S
Eu851 O890 2.558 . S
Eu851 O891 2.612 1_556 S
Eu851 O893 2.339 . S
Eu851 O894 2.567 . S
Eu851 O895 2.419 . S
Eu851 C915 2.848 . S
N852 C844 1.362 . S
N852 Eu851 2.657 . S
N852 C853 1.334 . S
C853 N852 1.334 . S
C853 C855 1.413 1_545 S
C853 H860 0.929 1_545 S
C854 C842 1.392 1_565 S
C854 C855 1.367 . S
C854 H862 0.930 . S
C855 C853 1.413 1_565 S
C855 C854 1.367 . S
C855 H857 0.930 . S
H856 C849 0.930 . S
H857 C855 0.930 . S
H858 C846 0.930 . S
H859 C847 0.930 . S
H860 C853 0.929 1_565 S
H861 C875 0.930 . S
H862 C854 0.930 . S
H863 C881 0.930 . S
H864 C872 0.929 . S
H865 C879 0.930 . S
H866 C843 0.931 . S
H867 C873 0.930 . S
H868 C906 0.930 . S
H869 C850 0.930 . S
H870 C905 0.931 . S
N871 Eu840 2.657 . S
N871 C872 1.334 . S
N871 C876 1.362 . S
C872 H864 0.929 . S
C872 N871 1.334 . S
C872 C875 1.413 . S
C873 H867 0.930 . S
C873 C874 1.392 . S
C873 C875 1.367 . S
C874 C873 1.392 . S
C874 C876 1.420 . S
C874 C906 1.423 . S
C875 H861 0.930 . S
C875 C872 1.413 . S
C875 C873 1.367 . S
C876 N871 1.362 . S
C876 C874 1.420 . S
C876 C880 1.429 . S
H877 C882 0.930 . S
N878 Eu840 2.609 . S
N878 C880 1.377 . S
N878 C881 1.321 1_545 S
C879 H865 0.930 . S
C879 C881 1.400 . S
C879 C882 1.386 . S
C880 C876 1.429 . S
C880 N878 1.377 . S
C880 C883 1.411 . S
C881 H863 0.930 . S
C881 N878 1.321 1_565 S
C881 C879 1.400 . S
C882 H877 0.930 . S
C882 C879 1.386 . S
C882 C883 1.395 1_565 S
C883 C880 1.411 . S
C883 C882 1.395 1_545 S
C883 C905 1.420 . S
O884 Eu840 2.558 . S
O884 C904 1.257 . S
O885 Eu840 2.612 . S
O885 Eu851 2.380 1_554 S
O885 C896 1.276 . S
O886 Eu851 2.432 1_554 S
O886 C903 1.264 . S
O887 Eu840 2.339 . S
O887 C903 1.254 . S
O888 Eu840 2.563 . S
O888 C896 1.235 . S
O889 Eu840 2.419 . S
O889 C904 1.249 . S
O890 Eu851 2.558 . S
O890 C915 1.257 . S
O891 Eu840 2.380 . S
O891 Eu851 2.612 1_554 S
O891 C907 1.276 . S
O892 Eu840 2.432 . S
O892 C914 1.284 . S
O893 Eu851 2.339 . S
O893 C914 1.240 1_556 S
O894 Eu851 2.567 . S
O894 C907 1.187 1_556 S
O895 Eu851 2.419 . S
O895 C915 1.249 . S
C896 O885 1.276 . S
C896 O888 1.235 . S
C897 C899 1.393 . S
C897 C901 1.395 1_545 S
C897 C904 1.492 . S
C898 C899 1.392 . S
C898 C900 1.386 . S
C899 C897 1.393 . S
C899 C898 1.392 . S
C899 H916 0.930 . S
C900 C898 1.386 . S
C900 C902 1.395 1_545 S
C900 H917 0.930 . S
C901 C897 1.395 1_565 S
C901 C902 1.379 . S
C901 H918 0.930 . S
C902 C900 1.395 1_565 S
C902 C901 1.379 . S
C902 H919 0.930 . S
C903 O886 1.264 . S
C903 O887 1.254 . S
C904 Eu840 2.848 . S
C904 O884 1.257 . S
C904 O889 1.249 . S
C904 C897 1.492 . S
C905 H870 0.931 . S
C905 C883 1.420 . S
C905 C906 1.351 . S
C906 H868 0.930 . S
C906 C874 1.423 . S
C906 C905 1.351 . S
C907 O891 1.276 . S
C907 O894 1.187 1_554 S
C908 C909 1.393 . S
C908 C912 1.395 . S
C908 C915 1.492 . S
C909 C908 1.393 . S
C909 C910 1.392 . S
C909 H920 0.930 . S
C910 C909 1.392 . S
C910 C911 1.386 . S
C911 C910 1.386 . S
C911 C913 1.395 . S
C911 H921 0.930 . S
C912 C908 1.395 . S
C912 C913 1.379 . S
C912 H922 0.930 . S
C913 C911 1.395 . S
C913 C912 1.379 . S
C913 H923 0.930 . S
C914 O892 1.284 . S
C914 O893 1.240 1_554 S
C915 Eu851 2.848 . S
C915 O890 1.257 . S
C915 O895 1.249 . S
C915 C908 1.492 . S
H916 C899 0.930 . S
H917 C900 0.930 . S
H918 C901 0.930 . S
H919 C902 0.930 . S
H920 C909 0.930 . S
H921 C911 0.930 . S
H922 C912 0.930 . S
H923 C913 0.930 . S
Eu924 N955 2.657 . S
Eu924 N962 2.609 . S
Eu924 O968 2.558 . S
Eu924 O969 2.612 . S
Eu924 O971 2.339 . S
Eu924 O972 2.563 . S
Eu924 O973 2.419 . S
Eu924 O975 2.380 . S
Eu924 O976 2.432 . S
Eu924 C988 2.848 . S
C925 C928 1.429 . S
C925 C929 1.411 . S
C925 N932 1.377 . S
C926 C928 1.420 . S
C926 C930 1.423 . S
C926 C938 1.392 . S
C927 C929 1.420 . S
C927 C930 1.351 . S
C927 H950 0.931 . S
C928 C925 1.429 . S
C928 C926 1.420 . S
C928 N936 1.362 . S
C929 C925 1.411 . S
C929 C927 1.420 . S
C929 C934 1.395 . S
C930 C926 1.423 . S
C930 C927 1.351 . S
C930 H942 0.930 . S
C931 C933 1.400 . S
C931 C934 1.386 . S
C931 H943 0.930 . S
N932 C925 1.377 . S
N932 C933 1.321 . S
N932 Eu935 2.609 . S
C933 C931 1.400 . S
C933 N932 1.321 . S
C933 H940 0.930 . S
C934 C929 1.395 . S
C934 C931 1.386 . S
C934 H953 0.930 . S
Eu935 N932 2.609 . S
Eu935 N936 2.657 . S
Eu935 O969 2.380 . S
Eu935 O970 2.432 . S
Eu935 O974 2.558 . S
Eu935 O975 2.612 . S
Eu935 O977 2.339 . S
Eu935 O978 2.563 . S
Eu935 O979 2.419 . S
Eu935 C999 2.848 . S
N936 C928 1.362 . S
N936 Eu935 2.657 . S
N936 C937 1.334 . S
C937 N936 1.334 . S
C937 C939 1.413 . S
C937 H944 0.929 . S
C938 C926 1.392 . S
C938 C939 1.367 . S
C938 H946 0.930 . S
C939 C937 1.413 . S
C939 C938 1.367 . S
C939 H941 0.930 . S
H940 C933 0.930 . S
H941 C939 0.930 . S
H942 C930 0.930 . S
H943 C931 0.930 . S
H944 C937 0.929 . S
H945 C959 0.930 . S
H946 C938 0.930 . S
H947 C965 0.930 . S
H948 C956 0.929 . S
H949 C963 0.930 . S
H950 C927 0.931 . S
H951 C957 0.930 . S
H952 C990 0.930 . S
H953 C934 0.930 . S
H954 C989 0.931 . S
N955 Eu924 2.657 . S
N955 C956 1.334 . S
N955 C960 1.362 . S
C956 H948 0.929 . S
C956 N955 1.334 . S
C956 C959 1.413 . S
C957 H951 0.930 . S
C957 C958 1.392 . S
C957 C959 1.367 . S
C958 C957 1.392 . S
C958 C960 1.420 . S
C958 C990 1.423 . S
C959 H945 0.930 . S
C959 C956 1.413 . S
C959 C957 1.367 . S
C960 N955 1.362 . S
C960 C958 1.420 . S
C960 C964 1.429 . S
H961 C966 0.930 . S
N962 Eu924 2.609 . S
N962 C964 1.377 . S
N962 C965 1.321 . S
C963 H949 0.930 . S
C963 C965 1.400 . S
C963 C966 1.386 . S
C964 C960 1.429 . S
C964 N962 1.377 . S
C964 C967 1.411 . S
C965 H947 0.930 . S
C965 N962 1.321 . S
C965 C963 1.400 . S
C966 H961 0.930 . S
C966 C963 1.386 . S
C966 C967 1.395 . S
C967 C964 1.411 . S
C967 C966 1.395 . S
C967 C989 1.420 . S
O968 Eu924 2.558 . S
O968 C988 1.257 . S
O969 Eu924 2.612 . S
O969 Eu935 2.380 . S
O969 C980 1.276 . S
O970 Eu935 2.432 . S
O970 C987 1.264 . S
O971 Eu924 2.339 . S
O971 C987 1.254 . S
O972 Eu924 2.563 . S
O972 C980 1.235 . S
O973 Eu924 2.419 . S
O973 C988 1.249 . S
O974 Eu935 2.558 . S
O974 C999 1.257 . S
O975 Eu924 2.380 . S
O975 Eu935 2.612 . S
O975 C991 1.276 . S
O976 Eu924 2.432 . S
O976 C998 1.264 . S
O977 Eu935 2.339 . S
O977 C998 1.254 . S
O978 Eu935 2.563 . S
O978 C991 1.235 . S
O979 Eu935 2.419 . S
O979 C999 1.249 . S
C980 O969 1.276 . S
C980 O972 1.235 . S
C981 C983 1.393 . S
C981 C985 1.395 . S
C981 C988 1.492 . S
C982 C983 1.392 . S
C982 C984 1.386 . S
C983 C981 1.393 . S
C983 C982 1.392 . S
C983 H1000 0.930 . S
C984 C982 1.386 . S
C984 C986 1.395 . S
C984 H1001 0.930 . S
C985 C981 1.395 . S
C985 C986 1.379 . S
C985 H1002 0.930 . S
C986 C984 1.395 . S
C986 C985 1.379 . S
C986 H1003 0.930 . S
C987 O970 1.264 . S
C987 O971 1.254 . S
C988 Eu924 2.848 . S
C988 O968 1.257 . S
C988 O973 1.249 . S
C988 C981 1.492 . S
C989 H954 0.931 . S
C989 C967 1.420 . S
C989 C990 1.351 . S
C990 H952 0.930 . S
C990 C958 1.423 . S
C990 C989 1.351 . S
C991 O975 1.276 . S
C991 O978 1.235 . S
C992 C993 1.393 . S
C992 C996 1.395 . S
C992 C999 1.492 . S
C993 C992 1.393 . S
C993 C994 1.392 . S
C993 H1004 0.930 . S
C994 C993 1.392 . S
C994 C995 1.386 . S
C995 C994 1.386 . S
C995 C997 1.395 . S
C995 H1005 0.930 . S
C996 C992 1.395 . S
C996 C997 1.379 . S
C996 H1006 0.930 . S
C997 C995 1.395 . S
C997 C996 1.379 . S
C997 H1007 0.930 . S
C998 O976 1.264 . S
C998 O977 1.254 . S
C999 Eu935 2.848 . S
C999 O974 1.257 . S
C999 O979 1.249 . S
C999 C992 1.492 . S
H1000 C983 0.930 . S
H1001 C984 0.930 . S
H1002 C985 0.930 . S
H1003 C986 0.930 . S
H1004 C993 0.930 . S
H1005 C995 0.930 . S
H1006 C996 0.930 . S
H1007 C997 0.930 . S
Eu1008 N1039 2.657 . S
Eu1008 N1046 2.609 . S
Eu1008 O1052 2.558 . S
Eu1008 O1053 2.612 1_554 S
Eu1008 O1055 2.339 . S
Eu1008 O1056 2.563 1_554 S
Eu1008 O1057 2.419 . S
Eu1008 O1059 2.380 . S
Eu1008 O1060 2.432 . S
Eu1008 C1072 2.848 . S
C1009 C1012 1.429 . S
C1009 C1013 1.411 . S
C1009 N1016 1.377 . S
C1010 C1012 1.420 . S
C1010 C1014 1.423 . S
C1010 C1022 1.392 . S
C1011 C1013 1.420 . S
C1011 C1014 1.351 . S
C1011 H1034 0.931 . S
C1012 C1009 1.429 . S
C1012 C1010 1.420 . S
C1012 N1020 1.362 . S
C1013 C1009 1.411 . S
C1013 C1011 1.420 . S
C1013 C1018 1.395 . S
C1014 C1010 1.423 . S
C1014 C1011 1.351 . S
C1014 H1026 0.930 . S
C1015 C1017 1.400 . S
C1015 C1018 1.386 . S
C1015 H1027 0.930 . S
N1016 C1009 1.377 . S
N1016 C1017 1.321 . S
N1016 Eu1019 2.609 1_556 S
C1017 C1015 1.400 . S
C1017 N1016 1.321 . S
C1017 H1024 0.930 . S
C1018 C1013 1.395 . S
C1018 C1015 1.386 . S
C1018 H1037 0.930 . S
Eu1019 N1016 2.609 1_554 S
Eu1019 N1020 2.657 1_554 S
Eu1019 O1053 2.380 1_554 S
Eu1019 O1054 2.432 . S
Eu1019 O1058 2.558 . S
Eu1019 O1059 2.612 . S
Eu1019 O1061 2.339 . S
Eu1019 O1062 2.563 . S
Eu1019 O1063 2.419 . S
Eu1019 C1083 2.848 . S
N1020 C1012 1.362 . S
N1020 Eu1019 2.657 1_556 S
N1020 C1021 1.334 . S
C1021 N1020 1.334 . S
C1021 C1023 1.413 . S
C1021 H1028 0.929 . S
C1022 C1010 1.392 . S
C1022 C1023 1.367 . S
C1022 H1030 0.930 . S
C1023 C1021 1.413 . S
C1023 C1022 1.367 . S
C1023 H1025 0.930 . S
H1024 C1017 0.930 . S
H1025 C1023 0.930 . S
H1026 C1014 0.930 . S
H1027 C1015 0.930 . S
H1028 C1021 0.929 . S
H1029 C1043 0.930 . S
H1030 C1022 0.930 . S
H1031 C1049 0.930 . S
H1032 C1040 0.929 . S
H1033 C1047 0.930 . S
H1034 C1011 0.931 . S
H1035 C1041 0.930 . S
H1036 C1074 0.930 . S
H1037 C1018 0.930 . S
H1038 C1073 0.931 . S
N1039 Eu1008 2.657 . S
N1039 C1040 1.334 . S
N1039 C1044 1.362 . S
C1040 H1032 0.929 . S
C1040 N1039 1.334 . S
C1040 C1043 1.413 . S
C1041 H1035 0.930 . S
C1041 C1042 1.392 . S
C1041 C1043 1.367 . S
C1042 C1041 1.392 . S
C1042 C1044 1.420 . S
C1042 C1074 1.423 . S
C1043 H1029 0.930 . S
C1043 C1040 1.413 . S
C1043 C1041 1.367 . S
C1044 N1039 1.362 . S
C1044 C1042 1.420 . S
C1044 C1048 1.429 . S
H1045 C1050 0.930 . S
N1046 Eu1008 2.609 . S
N1046 C1048 1.377 . S
N1046 C1049 1.321 . S
C1047 H1033 0.930 . S
C1047 C1049 1.400 . S
C1047 C1050 1.386 . S
C1048 C1044 1.429 . S
C1048 N1046 1.377 . S
C1048 C1051 1.411 . S
C1049 H1031 0.930 . S
C1049 N1046 1.321 . S
C1049 C1047 1.400 . S
C1050 H1045 0.930 . S
C1050 C1047 1.386 . S
C1050 C1051 1.395 . S
C1051 C1048 1.411 . S
C1051 C1050 1.395 . S
C1051 C1073 1.420 . S
O1052 Eu1008 2.558 . S
O1052 C1072 1.257 . S
O1053 Eu1008 2.612 1_556 S
O1053 Eu1019 2.380 1_556 S
O1053 C1064 1.276 . S
O1054 Eu1019 2.432 . S
O1054 C1071 1.264 . S
O1055 Eu1008 2.339 . S
O1055 C1071 1.254 . S
O1056 Eu1008 2.563 1_556 S
O1056 C1064 1.235 . S
O1057 Eu1008 2.419 . S
O1057 C1072 1.249 . S
O1058 Eu1019 2.558 . S
O1058 C1083 1.257 . S
O1059 Eu1008 2.380 . S
O1059 Eu1019 2.612 . S
O1059 C1075 1.276 . S
O1060 Eu1008 2.432 . S
O1060 C1082 1.264 . S
O1061 Eu1019 2.339 . S
O1061 C1082 1.254 . S
O1062 Eu1019 2.563 . S
O1062 C1075 1.235 . S
O1063 Eu1019 2.419 . S
O1063 C1083 1.249 . S
C1064 O1053 1.276 . S
C1064 O1056 1.235 . S
C1065 C1067 1.393 . S
C1065 C1069 1.395 . S
C1065 C1072 1.492 . S
C1066 C1067 1.392 1_556 S
C1066 C1068 1.386 1_556 S
C1067 C1065 1.393 . S
C1067 C1066 1.392 1_554 S
C1067 H1084 0.934 . S
C1068 C1066 1.386 1_554 S
C1068 C1070 1.395 . S
C1068 H1085 0.957 . S
C1069 C1065 1.395 . S
C1069 C1070 1.379 . S
C1069 H1086 0.930 . S
C1070 C1068 1.395 . S
C1070 C1069 1.379 . S
C1070 H1087 0.930 . S
C1071 O1054 1.264 . S
C1071 O1055 1.254 . S
C1072 Eu1008 2.848 . S
C1072 O1052 1.257 . S
C1072 O1057 1.249 . S
C1072 C1065 1.492 . S
C1073 H1038 0.931 . S
C1073 C1051 1.420 . S
C1073 C1074 1.351 . S
C1074 H1036 0.930 . S
C1074 C1042 1.423 . S
C1074 C1073 1.351 . S
C1075 O1059 1.276 . S
C1075 O1062 1.235 . S
C1076 C1077 1.393 . S
C1076 C1080 1.395 . S
C1076 C1083 1.492 . S
C1077 C1076 1.393 . S
C1077 C1078 1.392 . S
C1077 H1088 0.930 . S
C1078 C1077 1.392 . S
C1078 C1079 1.386 . S
C1079 C1078 1.386 . S
C1079 C1081 1.395 . S
C1079 H1089 0.930 . S
C1080 C1076 1.395 . S
C1080 C1081 1.379 . S
C1080 H1090 0.930 . S
C1081 C1079 1.395 . S
C1081 C1080 1.379 . S
C1081 H1091 0.930 . S
C1082 O1060 1.264 . S
C1082 O1061 1.254 . S
C1083 Eu1019 2.848 . S
C1083 O1058 1.257 . S
C1083 O1063 1.249 . S
C1083 C1076 1.492 . S
H1084 C1067 0.934 . S
H1085 C1068 0.957 . S
H1086 C1069 0.930 . S
H1087 C1070 0.930 . S
H1088 C1077 0.930 . S
H1089 C1079 0.930 . S
H1090 C1080 0.930 . S
H1091 C1081 0.930 . S
Eu1092 N1123 2.657 . S
Eu1092 N1130 2.609 . S
Eu1092 O1136 2.558 . S
Eu1092 O1137 2.612 . S
Eu1092 O1139 2.339 . S
Eu1092 O1140 2.563 . S
Eu1092 O1141 2.419 . S
Eu1092 O1143 2.380 . S
Eu1092 O1144 2.432 . S
Eu1092 C1156 2.848 . S
C1093 C1096 1.429 . S
C1093 C1097 1.411 . S
C1093 N1100 1.377 . S
C1094 C1096 1.420 . S
C1094 C1098 1.423 . S
C1094 C1106 1.392 . S
C1095 C1097 1.420 . S
C1095 C1098 1.351 . S
C1095 H1118 0.931 . S
C1096 C1093 1.429 . S
C1096 C1094 1.420 . S
C1096 N1104 1.362 . S
C1097 C1093 1.411 . S
C1097 C1095 1.420 . S
C1097 C1102 1.395 . S
C1098 C1094 1.423 . S
C1098 C1095 1.351 . S
C1098 H1110 0.930 . S
C1099 C1101 1.400 . S
C1099 C1102 1.386 . S
C1099 H1111 0.930 . S
N1100 C1093 1.377 . S
N1100 C1101 1.321 . S
N1100 Eu1103 2.609 . S
C1101 C1099 1.400 . S
C1101 N1100 1.321 . S
C1101 H1108 0.930 . S
C1102 C1097 1.395 . S
C1102 C1099 1.386 . S
C1102 H1121 0.930 . S
Eu1103 N1100 2.609 . S
Eu1103 N1104 2.657 . S
Eu1103 O1137 2.380 . S
Eu1103 O1138 2.432 . S
Eu1103 O1142 2.558 . S
Eu1103 O1143 2.612 . S
Eu1103 O1145 2.339 . S
Eu1103 O1146 2.563 . S
Eu1103 O1147 2.419 . S
Eu1103 C1167 2.848 . S
N1104 C1096 1.362 . S
N1104 Eu1103 2.657 . S
N1104 C1105 1.334 . S
C1105 N1104 1.334 . S
C1105 C1107 1.413 . S
C1105 H1112 0.929 . S
C1106 C1094 1.392 . S
C1106 C1107 1.367 . S
C1106 H1114 0.930 . S
C1107 C1105 1.413 . S
C1107 C1106 1.367 . S
C1107 H1109 0.930 . S
H1108 C1101 0.930 . S
H1109 C1107 0.930 . S
H1110 C1098 0.930 . S
H1111 C1099 0.930 . S
H1112 C1105 0.929 . S
H1113 C1127 0.930 . S
H1114 C1106 0.930 . S
H1115 C1133 0.930 . S
H1116 C1124 0.929 . S
H1117 C1131 0.930 . S
H1118 C1095 0.931 . S
H1119 C1125 0.930 . S
H1120 C1158 0.930 . S
H1121 C1102 0.930 . S
H1122 C1157 0.931 . S
N1123 Eu1092 2.657 . S
N1123 C1124 1.334 . S
N1123 C1128 1.362 . S
C1124 H1116 0.929 . S
C1124 N1123 1.334 . S
C1124 C1127 1.413 . S
C1125 H1119 0.930 . S
C1125 C1126 1.392 . S
C1125 C1127 1.367 . S
C1126 C1125 1.392 . S
C1126 C1128 1.420 . S
C1126 C1158 1.423 . S
C1127 H1113 0.930 . S
C1127 C1124 1.413 . S
C1127 C1125 1.367 . S
C1128 N1123 1.362 . S
C1128 C1126 1.420 . S
C1128 C1132 1.429 . S
H1129 C1134 0.930 . S
N1130 Eu1092 2.609 . S
N1130 C1132 1.377 . S
N1130 C1133 1.321 . S
C1131 H1117 0.930 . S
C1131 C1133 1.400 . S
C1131 C1134 1.386 . S
C1132 C1128 1.429 . S
C1132 N1130 1.377 . S
C1132 C1135 1.411 . S
C1133 H1115 0.930 . S
C1133 N1130 1.321 . S
C1133 C1131 1.400 . S
C1134 H1129 0.930 . S
C1134 C1131 1.386 . S
C1134 C1135 1.395 . S
C1135 C1132 1.411 . S
C1135 C1134 1.395 . S
C1135 C1157 1.420 . S
O1136 Eu1092 2.558 . S
O1136 C1156 1.257 . S
O1137 Eu1092 2.612 . S
O1137 Eu1103 2.380 . S
O1137 C1148 1.276 . S
O1138 Eu1103 2.432 . S
O1138 C1155 1.264 . S
O1139 Eu1092 2.339 . S
O1139 C1155 1.254 . S
O1140 Eu1092 2.563 . S
O1140 C1148 1.235 . S
O1141 Eu1092 2.419 . S
O1141 C1156 1.249 . S
O1142 Eu1103 2.558 . S
O1142 C1167 1.257 . S
O1143 Eu1092 2.380 . S
O1143 Eu1103 2.612 . S
O1143 C1159 1.276 . S
O1144 Eu1092 2.432 . S
O1144 C1166 1.264 . S
O1145 Eu1103 2.339 . S
O1145 C1166 1.254 . S
O1146 Eu1103 2.563 . S
O1146 C1159 1.235 . S
O1147 Eu1103 2.419 . S
O1147 C1167 1.249 . S
C1148 O1137 1.276 . S
C1148 O1140 1.235 . S
C1149 C1151 1.393 . S
C1149 C1153 1.395 . S
C1149 C1156 1.492 . S
C1150 C1151 1.392 . S
C1150 C1152 1.386 . S
C1151 C1149 1.393 . S
C1151 C1150 1.392 . S
C1151 H1168 0.930 . S
C1152 C1150 1.386 . S
C1152 C1154 1.395 . S
C1152 H1169 0.930 . S
C1153 C1149 1.395 . S
C1153 C1154 1.379 . S
C1153 H1170 0.930 . S
C1154 C1152 1.395 . S
C1154 C1153 1.379 . S
C1154 H1171 0.930 . S
C1155 O1138 1.264 . S
C1155 O1139 1.254 . S
C1156 Eu1092 2.848 . S
C1156 O1136 1.257 . S
C1156 O1141 1.249 . S
C1156 C1149 1.492 . S
C1157 H1122 0.931 . S
C1157 C1135 1.420 . S
C1157 C1158 1.351 . S
C1158 H1120 0.930 . S
C1158 C1126 1.423 . S
C1158 C1157 1.351 . S
C1159 O1143 1.276 . S
C1159 O1146 1.235 . S
C1160 C1161 1.393 . S
C1160 C1164 1.395 . S
C1160 C1167 1.492 . S
C1161 C1160 1.393 . S
C1161 C1162 1.392 . S
C1161 H1172 0.930 . S
C1162 C1161 1.392 . S
C1162 C1163 1.386 . S
C1163 C1162 1.386 . S
C1163 C1165 1.395 . S
C1163 H1173 0.930 . S
C1164 C1160 1.395 . S
C1164 C1165 1.379 . S
C1164 H1174 0.930 . S
C1165 C1163 1.395 . S
C1165 C1164 1.379 . S
C1165 H1175 0.930 . S
C1166 O1144 1.264 . S
C1166 O1145 1.254 . S
C1167 Eu1103 2.848 . S
C1167 O1142 1.257 . S
C1167 O1147 1.249 . S
C1167 C1160 1.492 . S
H1168 C1151 0.930 . S
H1169 C1152 0.930 . S
H1170 C1153 0.930 . S
H1171 C1154 0.930 . S
H1172 C1161 0.930 . S
H1173 C1163 0.930 . S
H1174 C1164 0.930 . S
H1175 C1165 0.930 . S
Eu1176 N1207 2.657 . S
Eu1176 N1214 2.609 . S
Eu1176 O1220 2.558 . S
Eu1176 O1221 2.612 . S
Eu1176 O1223 2.339 . S
Eu1176 O1224 2.563 . S
Eu1176 O1225 2.419 . S
Eu1176 O1227 2.380 . S
Eu1176 O1228 2.432 . S
Eu1176 C1240 2.848 . S
C1177 C1180 1.429 . S
C1177 C1181 1.411 1_455 S
C1177 N1184 1.377 . S
C1178 C1180 1.420 1_655 S
C1178 C1182 1.423 . S
C1178 C1190 1.392 . S
C1179 C1181 1.420 . S
C1179 C1182 1.351 . S
C1179 H1202 0.931 . S
C1180 C1177 1.429 . S
C1180 C1178 1.420 1_455 S
C1180 N1188 1.362 . S
C1181 C1177 1.411 1_655 S
C1181 C1179 1.420 . S
C1181 C1186 1.395 . S
C1182 C1178 1.423 . S
C1182 C1179 1.351 . S
C1182 H1194 0.930 . S
C1183 C1185 1.400 . S
C1183 C1186 1.386 1_455 S
C1183 H1195 0.930 . S
N1184 C1177 1.377 . S
N1184 C1185 1.321 . S
N1184 Eu1187 2.609 . S
C1185 C1183 1.400 . S
C1185 N1184 1.321 . S
C1185 H1192 0.930 . S
C1186 C1181 1.395 . S
C1186 C1183 1.386 1_655 S
C1186 H1205 0.930 . S
Eu1187 N1184 2.609 . S
Eu1187 N1188 2.657 . S
Eu1187 O1221 2.380 . S
Eu1187 O1222 2.432 . S
Eu1187 O1226 2.558 . S
Eu1187 O1227 2.612 . S
Eu1187 O1229 2.339 . S
Eu1187 O1230 2.563 . S
Eu1187 O1231 2.419 . S
Eu1187 C1251 2.848 . S
N1188 C1180 1.362 . S
N1188 Eu1187 2.657 . S
N1188 C1189 1.334 . S
C1189 N1188 1.334 . S
C1189 C1191 1.413 1_455 S
C1189 H1196 0.929 . S
C1190 C1178 1.392 . S
C1190 C1191 1.367 . S
C1190 H1198 0.930 . S
C1191 C1189 1.413 1_655 S
C1191 C1190 1.367 . S
C1191 H1193 0.930 . S
H1192 C1185 0.930 . S
H1193 C1191 0.930 . S
H1194 C1182 0.930 . S
H1195 C1183 0.930 . S
H1196 C1189 0.929 . S
H1197 C1211 0.930 . S
H1198 C1190 0.930 . S
H1199 C1217 0.930 . S
H1200 C1208 0.929 . S
H1201 C1215 0.930 . S
H1202 C1179 0.931 . S
H1203 C1209 0.930 . S
H1204 C1242 0.930 . S
H1205 C1186 0.930 . S
H1206 C1241 0.931 . S
N1207 Eu1176 2.657 . S
N1207 C1208 1.334 . S
N1207 C1212 1.362 . S
C1208 H1200 0.929 . S
C1208 N1207 1.334 . S
C1208 C1211 1.413 . S
C1209 H1203 0.930 . S
C1209 C1210 1.392 . S
C1209 C1211 1.367 . S
C1210 C1209 1.392 . S
C1210 C1212 1.420 . S
C1210 C1242 1.423 . S
C1211 H1197 0.930 . S
C1211 C1208 1.413 . S
C1211 C1209 1.367 . S
C1212 N1207 1.362 . S
C1212 C1210 1.420 . S
C1212 C1216 1.429 . S
H1213 C1218 0.930 . S
N1214 Eu1176 2.609 . S
N1214 C1216 1.377 . S
N1214 C1217 1.321 . S
C1215 H1201 0.930 . S
C1215 C1217 1.400 . S
C1215 C1218 1.386 . S
C1216 C1212 1.429 . S
C1216 N1214 1.377 . S
C1216 C1219 1.411 . S
C1217 H1199 0.930 . S
C1217 N1214 1.321 . S
C1217 C1215 1.400 . S
C1218 H1213 0.930 . S
C1218 C1215 1.386 . S
C1218 C1219 1.395 . S
C1219 C1216 1.411 . S
C1219 C1218 1.395 . S
C1219 C1241 1.420 . S
O1220 Eu1176 2.558 . S
O1220 C1240 1.257 . S
O1221 Eu1176 2.612 . S
O1221 Eu1187 2.380 . S
O1221 C1232 1.276 . S
O1222 Eu1187 2.432 . S
O1222 C1239 1.264 . S
O1223 Eu1176 2.339 . S
O1223 C1239 1.254 . S
O1224 Eu1176 2.563 . S
O1224 C1232 1.235 . S
O1225 Eu1176 2.419 . S
O1225 C1240 1.249 . S
O1226 Eu1187 2.558 . S
O1226 C1251 1.257 . S
O1227 Eu1176 2.380 . S
O1227 Eu1187 2.612 . S
O1227 C1243 1.276 . S
O1228 Eu1176 2.432 . S
O1228 C1250 1.264 . S
O1229 Eu1187 2.339 . S
O1229 C1250 1.254 . S
O1230 Eu1187 2.563 . S
O1230 C1243 1.235 . S
O1231 Eu1187 2.419 . S
O1231 C1251 1.249 . S
C1232 O1221 1.276 . S
C1232 O1224 1.235 . S
C1233 C1235 1.393 . S
C1233 C1237 1.395 . S
C1233 C1240 1.492 . S
C1234 C1235 1.392 . S
C1234 C1236 1.386 . S
C1235 C1233 1.393 . S
C1235 C1234 1.392 . S
C1235 H1252 0.930 . S
C1236 C1234 1.386 . S
C1236 C1238 1.395 . S
C1236 H1253 0.930 . S
C1237 C1233 1.395 . S
C1237 C1238 1.379 . S
C1237 H1254 0.930 . S
C1238 C1236 1.395 . S
C1238 C1237 1.379 . S
C1238 H1255 0.930 . S
C1239 O1222 1.264 . S
C1239 O1223 1.254 . S
C1240 Eu1176 2.848 . S
C1240 O1220 1.257 . S
C1240 O1225 1.249 . S
C1240 C1233 1.492 . S
C1241 H1206 0.931 . S
C1241 C1219 1.420 . S
C1241 C1242 1.351 . S
C1242 H1204 0.930 . S
C1242 C1210 1.423 . S
C1242 C1241 1.351 . S
C1243 O1227 1.276 . S
C1243 O1230 1.235 . S
C1244 C1245 1.393 . S
C1244 C1248 1.395 . S
C1244 C1251 1.492 . S
C1245 C1244 1.393 . S
C1245 C1246 1.392 . S
C1245 H1256 0.930 . S
C1246 C1245 1.392 . S
C1246 C1247 1.386 . S
C1247 C1246 1.386 . S
C1247 C1249 1.395 . S
C1247 H1257 0.930 . S
C1248 C1244 1.395 . S
C1248 C1249 1.379 . S
C1248 H1258 0.930 . S
C1249 C1247 1.395 . S
C1249 C1248 1.379 . S
C1249 H1259 0.930 . S
C1250 O1228 1.264 . S
C1250 O1229 1.254 . S
C1251 Eu1187 2.848 . S
C1251 O1226 1.257 . S
C1251 O1231 1.249 . S
C1251 C1244 1.492 . S
H1252 C1235 0.930 . S
H1253 C1236 0.930 . S
H1254 C1237 0.930 . S
H1255 C1238 0.930 . S
H1256 C1245 0.930 . S
H1257 C1247 0.930 . S
H1258 C1248 0.930 . S
H1259 C1249 0.930 . S
Eu1260 N1291 2.657 . S
Eu1260 N1298 2.609 . S
Eu1260 O1304 2.558 . S
Eu1260 O1305 2.612 . S
Eu1260 O1307 2.339 . S
Eu1260 O1308 2.563 . S
Eu1260 O1309 2.419 . S
Eu1260 O1311 2.380 . S
Eu1260 O1312 2.432 . S
Eu1260 C1324 2.848 . S
C1261 C1264 1.429 . S
C1261 C1265 1.411 . S
C1261 N1268 1.377 . S
C1262 C1264 1.420 . S
C1262 C1266 1.423 . S
C1262 C1274 1.392 . S
C1263 C1265 1.420 . S
C1263 C1266 1.351 . S
C1263 H1286 0.931 . S
C1264 C1261 1.429 . S
C1264 C1262 1.420 . S
C1264 N1272 1.362 . S
C1265 C1261 1.411 . S
C1265 C1263 1.420 . S
C1265 C1270 1.395 . S
C1266 C1262 1.423 . S
C1266 C1263 1.351 . S
C1266 H1278 0.930 . S
C1267 C1269 1.400 . S
C1267 C1270 1.386 . S
C1267 H1279 0.930 . S
N1268 C1261 1.377 . S
N1268 C1269 1.321 . S
N1268 Eu1271 2.609 . S
C1269 C1267 1.400 . S
C1269 N1268 1.321 . S
C1269 H1276 0.930 . S
C1270 C1265 1.395 . S
C1270 C1267 1.386 . S
C1270 H1289 0.930 . S
Eu1271 N1268 2.609 . S
Eu1271 N1272 2.657 . S
Eu1271 O1305 2.380 . S
Eu1271 O1306 2.432 . S
Eu1271 O1310 2.558 . S
Eu1271 O1311 2.612 . S
Eu1271 O1313 2.339 . S
Eu1271 O1314 2.563 . S
Eu1271 O1315 2.419 . S
Eu1271 C1335 2.848 . S
N1272 C1264 1.362 . S
N1272 Eu1271 2.657 . S
N1272 C1273 1.334 . S
C1273 N1272 1.334 . S
C1273 C1275 1.413 . S
C1273 H1280 0.929 . S
C1274 C1262 1.392 . S
C1274 C1275 1.367 . S
C1274 H1282 0.930 . S
C1275 C1273 1.413 . S
C1275 C1274 1.367 . S
C1275 H1277 0.930 . S
H1276 C1269 0.930 . S
H1277 C1275 0.930 . S
H1278 C1266 0.930 . S
H1279 C1267 0.930 . S
H1280 C1273 0.929 . S
H1281 C1295 0.930 . S
H1282 C1274 0.930 . S
H1283 C1301 0.930 . S
H1284 C1292 0.929 . S
H1285 C1299 0.930 . S
H1286 C1263 0.931 . S
H1287 C1293 0.930 . S
H1288 C1326 0.930 . S
H1289 C1270 0.930 . S
H1290 C1325 0.931 . S
N1291 Eu1260 2.657 . S
N1291 C1292 1.334 . S
N1291 C1296 1.362 . S
C1292 H1284 0.929 . S
C1292 N1291 1.334 . S
C1292 C1295 1.413 . S
C1293 H1287 0.930 . S
C1293 C1294 1.392 . S
C1293 C1295 1.367 . S
C1294 C1293 1.392 . S
C1294 C1296 1.420 . S
C1294 C1326 1.423 . S
C1295 H1281 0.930 . S
C1295 C1292 1.413 . S
C1295 C1293 1.367 . S
C1296 N1291 1.362 . S
C1296 C1294 1.420 . S
C1296 C1300 1.429 . S
H1297 C1302 0.930 . S
N1298 Eu1260 2.609 . S
N1298 C1300 1.377 . S
N1298 C1301 1.321 . S
C1299 H1285 0.930 . S
C1299 C1301 1.400 . S
C1299 C1302 1.386 . S
C1300 C1296 1.429 . S
C1300 N1298 1.377 . S
C1300 C1303 1.411 . S
C1301 H1283 0.930 . S
C1301 N1298 1.321 . S
C1301 C1299 1.400 . S
C1302 H1297 0.930 . S
C1302 C1299 1.386 . S
C1302 C1303 1.395 . S
C1303 C1300 1.411 . S
C1303 C1302 1.395 . S
C1303 C1325 1.420 . S
O1304 Eu1260 2.558 . S
O1304 C1324 1.257 . S
O1305 Eu1260 2.612 . S
O1305 Eu1271 2.380 . S
O1305 C1316 1.276 . S
O1306 Eu1271 2.432 . S
O1306 C1323 1.264 . S
O1307 Eu1260 2.339 . S
O1307 C1323 1.254 . S
O1308 Eu1260 2.563 . S
O1308 C1316 1.235 . S
O1309 Eu1260 2.419 . S
O1309 C1324 1.249 . S
O1310 Eu1271 2.558 . S
O1310 C1335 1.257 . S
O1311 Eu1260 2.380 . S
O1311 Eu1271 2.612 . S
O1311 C1327 1.276 . S
O1312 Eu1260 2.432 . S
O1312 C1334 1.264 . S
O1313 Eu1271 2.339 . S
O1313 C1334 1.254 . S
O1314 Eu1271 2.563 . S
O1314 C1327 1.235 . S
O1315 Eu1271 2.419 . S
O1315 C1335 1.249 . S
C1316 O1305 1.276 . S
C1316 O1308 1.235 . S
C1317 C1319 1.393 . S
C1317 C1321 1.395 . S
C1317 C1324 1.492 . S
C1318 C1319 1.392 . S
C1318 C1320 1.386 . S
C1319 C1317 1.393 . S
C1319 C1318 1.392 . S
C1319 H1336 0.930 . S
C1320 C1318 1.386 . S
C1320 C1322 1.395 . S
C1320 H1337 0.930 . S
C1321 C1317 1.395 . S
C1321 C1322 1.379 . S
C1321 H1338 0.930 . S
C1322 C1320 1.395 . S
C1322 C1321 1.379 . S
C1322 H1339 0.930 . S
C1323 O1306 1.264 . S
C1323 O1307 1.254 . S
C1324 Eu1260 2.848 . S
C1324 O1304 1.257 . S
C1324 O1309 1.249 . S
C1324 C1317 1.492 . S
C1325 H1290 0.931 . S
C1325 C1303 1.420 . S
C1325 C1326 1.351 . S
C1326 H1288 0.930 . S
C1326 C1294 1.423 . S
C1326 C1325 1.351 . S
C1327 O1311 1.276 . S
C1327 O1314 1.235 . S
C1328 C1329 1.393 . S
C1328 C1332 1.395 . S
C1328 C1335 1.492 . S
C1329 C1328 1.393 . S
C1329 C1330 1.392 . S
C1329 H1340 0.930 . S
C1330 C1329 1.392 . S
C1330 C1331 1.386 . S
C1331 C1330 1.386 . S
C1331 C1333 1.395 . S
C1331 H1341 0.930 . S
C1332 C1328 1.395 . S
C1332 C1333 1.379 . S
C1332 H1342 0.930 . S
C1333 C1331 1.395 . S
C1333 C1332 1.379 . S
C1333 H1343 0.930 . S
C1334 O1312 1.264 . S
C1334 O1313 1.254 . S
C1335 Eu1271 2.848 . S
C1335 O1310 1.257 . S
C1335 O1315 1.249 . S
C1335 C1328 1.492 . S
H1336 C1319 0.930 . S
H1337 C1320 0.930 . S
H1338 C1321 0.930 . S
H1339 C1322 0.930 . S
H1340 C1329 0.930 . S
H1341 C1331 0.930 . S
H1342 C1332 0.930 . S
H1343 C1333 0.930 . S
Eu1344 N1375 2.657 . S
Eu1344 N1382 2.609 . S
Eu1344 O1388 2.558 . S
Eu1344 O1389 2.612 . S
Eu1344 O1391 2.339 . S
Eu1344 O1392 2.563 . S
Eu1344 O1393 2.419 . S
Eu1344 O1395 2.380 . S
Eu1344 O1396 2.432 . S
Eu1344 C1408 2.848 . S
C1345 C1348 1.429 . S
C1345 C1349 1.411 . S
C1345 N1352 1.377 . S
C1346 C1348 1.420 . S
C1346 C1350 1.423 . S
C1346 C1358 1.392 . S
C1347 C1349 1.420 . S
C1347 C1350 1.351 . S
C1347 H1370 0.931 . S
C1348 C1345 1.429 . S
C1348 C1346 1.420 . S
C1348 N1356 1.362 . S
C1349 C1345 1.411 . S
C1349 C1347 1.420 . S
C1349 C1354 1.395 . S
C1350 C1346 1.423 . S
C1350 C1347 1.351 . S
C1350 H1362 0.930 . S
C1351 C1353 1.400 . S
C1351 C1354 1.386 . S
C1351 H1363 0.930 . S
N1352 C1345 1.377 . S
N1352 C1353 1.321 . S
N1352 Eu1355 2.609 . S
C1353 C1351 1.400 . S
C1353 N1352 1.321 . S
C1353 H1360 0.930 . S
C1354 C1349 1.395 . S
C1354 C1351 1.386 . S
C1354 H1373 0.930 . S
Eu1355 N1352 2.609 . S
Eu1355 N1356 2.657 . S
Eu1355 O1389 2.380 . S
Eu1355 O1390 2.432 . S
Eu1355 O1394 2.558 . S
Eu1355 O1395 2.612 . S
Eu1355 O1397 2.339 . S
Eu1355 O1398 2.563 . S
Eu1355 O1399 2.419 . S
Eu1355 C1419 2.848 . S
N1356 C1348 1.362 . S
N1356 Eu1355 2.657 . S
N1356 C1357 1.334 . S
C1357 N1356 1.334 . S
C1357 C1359 1.413 . S
C1357 H1364 0.929 . S
C1358 C1346 1.392 . S
C1358 C1359 1.367 . S
C1358 H1366 0.930 . S
C1359 C1357 1.413 . S
C1359 C1358 1.367 . S
C1359 H1361 0.930 . S
H1360 C1353 0.930 . S
H1361 C1359 0.930 . S
H1362 C1350 0.930 . S
H1363 C1351 0.930 . S
H1364 C1357 0.929 . S
H1365 C1379 0.930 . S
H1366 C1358 0.930 . S
H1367 C1385 0.930 . S
H1368 C1376 0.929 . S
H1369 C1383 0.930 . S
H1370 C1347 0.931 . S
H1371 C1377 0.930 . S
H1372 C1410 0.930 . S
H1373 C1354 0.930 . S
H1374 C1409 0.931 . S
N1375 Eu1344 2.657 . S
N1375 C1376 1.334 . S
N1375 C1380 1.362 . S
C1376 H1368 0.929 . S
C1376 N1375 1.334 . S
C1376 C1379 1.413 . S
C1377 H1371 0.930 . S
C1377 C1378 1.392 . S
C1377 C1379 1.367 . S
C1378 C1377 1.392 . S
C1378 C1380 1.420 . S
C1378 C1410 1.423 . S
C1379 H1365 0.930 . S
C1379 C1376 1.413 . S
C1379 C1377 1.367 . S
C1380 N1375 1.362 . S
C1380 C1378 1.420 . S
C1380 C1384 1.429 . S
H1381 C1386 0.930 . S
N1382 Eu1344 2.609 . S
N1382 C1384 1.377 . S
N1382 C1385 1.321 . S
C1383 H1369 0.930 . S
C1383 C1385 1.400 . S
C1383 C1386 1.386 . S
C1384 C1380 1.429 . S
C1384 N1382 1.377 . S
C1384 C1387 1.411 . S
C1385 H1367 0.930 . S
C1385 N1382 1.321 . S
C1385 C1383 1.400 . S
C1386 H1381 0.930 . S
C1386 C1383 1.386 . S
C1386 C1387 1.395 . S
C1387 C1384 1.411 . S
C1387 C1386 1.395 . S
C1387 C1409 1.420 . S
O1388 Eu1344 2.558 . S
O1388 C1408 1.257 . S
O1389 Eu1344 2.612 . S
O1389 Eu1355 2.380 . S
O1389 C1400 1.276 . S
O1390 Eu1355 2.432 . S
O1390 C1407 1.264 . S
O1391 Eu1344 2.339 . S
O1391 C1407 1.254 . S
O1392 Eu1344 2.563 . S
O1392 C1400 1.235 . S
O1393 Eu1344 2.419 . S
O1393 C1408 1.249 . S
O1394 Eu1355 2.558 . S
O1394 C1419 1.257 . S
O1395 Eu1344 2.380 . S
O1395 Eu1355 2.612 . S
O1395 C1411 1.276 . S
O1396 Eu1344 2.432 . S
O1396 C1418 1.264 . S
O1397 Eu1355 2.339 . S
O1397 C1418 1.254 . S
O1398 Eu1355 2.563 . S
O1398 C1411 1.235 . S
O1399 Eu1355 2.419 . S
O1399 C1419 1.249 . S
C1400 O1389 1.276 . S
C1400 O1392 1.235 . S
C1401 C1403 1.393 . S
C1401 C1405 1.395 . S
C1401 C1408 1.492 . S
C1402 C1403 1.392 . S
C1402 C1404 1.386 . S
C1403 C1401 1.393 . S
C1403 C1402 1.392 . S
C1403 H1420 0.930 . S
C1404 C1402 1.386 . S
C1404 C1406 1.395 . S
C1404 H1421 0.930 . S
C1405 C1401 1.395 . S
C1405 C1406 1.379 . S
C1405 H1422 0.930 . S
C1406 C1404 1.395 . S
C1406 C1405 1.379 . S
C1406 H1423 0.930 . S
C1407 O1390 1.264 . S
C1407 O1391 1.254 . S
C1408 Eu1344 2.848 . S
C1408 O1388 1.257 . S
C1408 O1393 1.249 . S
C1408 C1401 1.492 . S
C1409 H1374 0.931 . S
C1409 C1387 1.420 . S
C1409 C1410 1.351 . S
C1410 H1372 0.930 . S
C1410 C1378 1.423 . S
C1410 C1409 1.351 . S
C1411 O1395 1.276 . S
C1411 O1398 1.235 . S
C1412 C1413 1.393 . S
C1412 C1416 1.395 . S
C1412 C1419 1.492 . S
C1413 C1412 1.393 . S
C1413 C1414 1.392 . S
C1413 H1424 0.930 . S
C1414 C1413 1.392 . S
C1414 C1415 1.386 . S
C1415 C1414 1.386 . S
C1415 C1417 1.395 . S
C1415 H1425 0.930 . S
C1416 C1412 1.395 . S
C1416 C1417 1.379 . S
C1416 H1426 0.930 . S
C1417 C1415 1.395 . S
C1417 C1416 1.379 . S
C1417 H1427 0.930 . S
C1418 O1396 1.264 . S
C1418 O1397 1.254 . S
C1419 Eu1355 2.848 . S
C1419 O1394 1.257 . S
C1419 O1399 1.249 . S
C1419 C1412 1.492 . S
H1420 C1403 0.930 . S
H1421 C1404 0.930 . S
H1422 C1405 0.930 . S
H1423 C1406 0.930 . S
H1424 C1413 0.930 . S
H1425 C1415 0.930 . S
H1426 C1416 0.930 . S
H1427 C1417 0.930 . S
Eu1428 N1459 2.657 . S
Eu1428 N1466 2.609 . S
Eu1428 O1472 2.558 . S
Eu1428 O1473 2.612 . S
Eu1428 O1475 2.339 . S
Eu1428 O1476 2.563 . S
Eu1428 O1477 2.419 . S
Eu1428 O1479 2.380 . S
Eu1428 O1480 2.432 . S
Eu1428 C1492 2.848 . S
C1429 C1432 1.429 . S
C1429 C1433 1.411 . S
C1429 N1436 1.377 . S
C1430 C1432 1.420 . S
C1430 C1434 1.423 . S
C1430 C1442 1.392 . S
C1431 C1433 1.420 . S
C1431 C1434 1.351 . S
C1431 H1454 0.931 . S
C1432 C1429 1.429 . S
C1432 C1430 1.420 . S
C1432 N1440 1.362 . S
C1433 C1429 1.411 . S
C1433 C1431 1.420 . S
C1433 C1438 1.395 . S
C1434 C1430 1.423 . S
C1434 C1431 1.351 . S
C1434 H1446 0.930 . S
C1435 C1437 1.400 . S
C1435 C1438 1.386 . S
C1435 H1447 0.930 . S
N1436 C1429 1.377 . S
N1436 C1437 1.321 . S
N1436 Eu1439 2.609 . S
C1437 C1435 1.400 . S
C1437 N1436 1.321 . S
C1437 H1444 0.930 . S
C1438 C1433 1.395 . S
C1438 C1435 1.386 . S
C1438 H1457 0.930 . S
Eu1439 N1436 2.609 . S
Eu1439 N1440 2.657 . S
Eu1439 O1473 2.380 . S
Eu1439 O1474 2.432 . S
Eu1439 O1478 2.558 . S
Eu1439 O1479 2.612 . S
Eu1439 O1481 2.339 . S
Eu1439 O1482 2.563 . S
Eu1439 O1483 2.419 . S
Eu1439 C1503 2.848 . S
N1440 C1432 1.362 . S
N1440 Eu1439 2.657 . S
N1440 C1441 1.334 . S
C1441 N1440 1.334 . S
C1441 C1443 1.413 . S
C1441 H1448 0.929 . S
C1442 C1430 1.392 . S
C1442 C1443 1.367 . S
C1442 H1450 0.930 . S
C1443 C1441 1.413 . S
C1443 C1442 1.367 . S
C1443 H1445 0.930 . S
H1444 C1437 0.930 . S
H1445 C1443 0.930 . S
H1446 C1434 0.930 . S
H1447 C1435 0.930 . S
H1448 C1441 0.929 . S
H1449 C1463 0.930 . S
H1450 C1442 0.930 . S
H1451 C1469 0.930 . S
H1452 C1460 0.929 . S
H1453 C1467 0.930 . S
H1454 C1431 0.931 . S
H1455 C1461 0.930 . S
H1456 C1494 0.930 . S
H1457 C1438 0.930 . S
H1458 C1493 0.931 . S
N1459 Eu1428 2.657 . S
N1459 C1460 1.334 . S
N1459 C1464 1.362 . S
C1460 H1452 0.929 . S
C1460 N1459 1.334 . S
C1460 C1463 1.413 . S
C1461 H1455 0.930 . S
C1461 C1462 1.392 . S
C1461 C1463 1.367 . S
C1462 C1461 1.392 . S
C1462 C1464 1.420 . S
C1462 C1494 1.423 . S
C1463 H1449 0.930 . S
C1463 C1460 1.413 . S
C1463 C1461 1.367 . S
C1464 N1459 1.362 . S
C1464 C1462 1.420 . S
C1464 C1468 1.429 . S
H1465 C1470 0.930 . S
N1466 Eu1428 2.609 . S
N1466 C1468 1.377 . S
N1466 C1469 1.321 . S
C1467 H1453 0.930 . S
C1467 C1469 1.400 . S
C1467 C1470 1.386 . S
C1468 C1464 1.429 . S
C1468 N1466 1.377 . S
C1468 C1471 1.411 . S
C1469 H1451 0.930 . S
C1469 N1466 1.321 . S
C1469 C1467 1.400 . S
C1470 H1465 0.930 . S
C1470 C1467 1.386 . S
C1470 C1471 1.395 . S
C1471 C1468 1.411 . S
C1471 C1470 1.395 . S
C1471 C1493 1.420 . S
O1472 Eu1428 2.558 . S
O1472 C1492 1.257 . S
O1473 Eu1428 2.612 . S
O1473 Eu1439 2.380 . S
O1473 C1484 1.276 . S
O1474 Eu1439 2.432 . S
O1474 C1491 1.264 . S
O1475 Eu1428 2.339 . S
O1475 C1491 1.254 . S
O1476 Eu1428 2.563 . S
O1476 C1484 1.235 . S
O1477 Eu1428 2.419 . S
O1477 C1492 1.249 . S
O1478 Eu1439 2.558 . S
O1478 C1503 1.257 . S
O1479 Eu1428 2.380 . S
O1479 Eu1439 2.612 . S
O1479 C1495 1.276 . S
O1480 Eu1428 2.432 . S
O1480 C1502 1.264 . S
O1481 Eu1439 2.339 . S
O1481 C1502 1.254 . S
O1482 Eu1439 2.563 . S
O1482 C1495 1.235 . S
O1483 Eu1439 2.419 . S
O1483 C1503 1.249 . S
C1484 O1473 1.276 . S
C1484 O1476 1.235 . S
C1485 C1487 1.393 . S
C1485 C1489 1.395 . S
C1485 C1492 1.492 . S
C1486 C1487 1.392 . S
C1486 C1488 1.386 . S
C1487 C1485 1.393 . S
C1487 C1486 1.392 . S
C1487 H1504 0.930 . S
C1488 C1486 1.386 . S
C1488 C1490 1.395 . S
C1488 H1505 0.930 . S
C1489 C1485 1.395 . S
C1489 C1490 1.379 . S
C1489 H1506 0.930 . S
C1490 C1488 1.395 . S
C1490 C1489 1.379 . S
C1490 H1507 0.930 . S
C1491 O1474 1.264 . S
C1491 O1475 1.254 . S
C1492 Eu1428 2.848 . S
C1492 O1472 1.257 . S
C1492 O1477 1.249 . S
C1492 C1485 1.492 . S
C1493 H1458 0.931 . S
C1493 C1471 1.420 . S
C1493 C1494 1.351 . S
C1494 H1456 0.930 . S
C1494 C1462 1.423 . S
C1494 C1493 1.351 . S
C1495 O1479 1.276 . S
C1495 O1482 1.235 . S
C1496 C1497 1.393 . S
C1496 C1500 1.395 . S
C1496 C1503 1.492 . S
C1497 C1496 1.393 . S
C1497 C1498 1.392 . S
C1497 H1508 0.930 . S
C1498 C1497 1.392 . S
C1498 C1499 1.386 . S
C1499 C1498 1.386 . S
C1499 C1501 1.395 . S
C1499 H1509 0.930 . S
C1500 C1496 1.395 . S
C1500 C1501 1.379 . S
C1500 H1510 0.930 . S
C1501 C1499 1.395 . S
C1501 C1500 1.379 . S
C1501 H1511 0.930 . S
C1502 O1480 1.264 . S
C1502 O1481 1.254 . S
C1503 Eu1439 2.848 . S
C1503 O1478 1.257 . S
C1503 O1483 1.249 . S
C1503 C1496 1.492 . S
H1504 C1487 0.930 . S
H1505 C1488 0.930 . S
H1506 C1489 0.930 . S
H1507 C1490 0.930 . S
H1508 C1497 0.930 . S
H1509 C1499 0.930 . S
H1510 C1500 0.930 . S
H1511 C1501 0.930 . S
Eu1512 N1543 2.657 . S
Eu1512 N1550 2.609 . S
Eu1512 O1556 2.558 . S
Eu1512 O1557 2.612 . S
Eu1512 O1559 2.339 . S
Eu1512 O1560 2.563 . S
Eu1512 O1561 2.419 . S
Eu1512 O1563 2.380 . S
Eu1512 O1564 2.432 . S
Eu1512 C1576 2.848 . S
C1513 C1516 1.429 . S
C1513 C1517 1.411 . S
C1513 N1520 1.377 . S
C1514 C1516 1.420 . S
C1514 C1518 1.423 . S
C1514 C1526 1.392 . S
C1515 C1517 1.420 . S
C1515 C1518 1.351 . S
C1515 H1538 0.931 . S
C1516 C1513 1.429 . S
C1516 C1514 1.420 . S
C1516 N1524 1.362 . S
C1517 C1513 1.411 . S
C1517 C1515 1.420 . S
C1517 C1522 1.395 . S
C1518 C1514 1.423 . S
C1518 C1515 1.351 . S
C1518 H1530 0.930 . S
C1519 C1521 1.400 . S
C1519 C1522 1.386 . S
C1519 H1531 0.930 . S
N1520 C1513 1.377 . S
N1520 C1521 1.321 . S
N1520 Eu1523 2.609 . S
C1521 C1519 1.400 . S
C1521 N1520 1.321 . S
C1521 H1528 0.930 . S
C1522 C1517 1.395 . S
C1522 C1519 1.386 . S
C1522 H1541 0.930 . S
Eu1523 N1520 2.609 . S
Eu1523 N1524 2.657 . S
Eu1523 O1557 2.380 . S
Eu1523 O1558 2.432 . S
Eu1523 O1562 2.558 . S
Eu1523 O1563 2.612 . S
Eu1523 O1565 2.339 . S
Eu1523 O1566 2.563 . S
Eu1523 O1567 2.419 . S
Eu1523 C1587 2.848 . S
N1524 C1516 1.362 . S
N1524 Eu1523 2.657 . S
N1524 C1525 1.334 . S
C1525 N1524 1.334 . S
C1525 C1527 1.413 . S
C1525 H1532 0.929 . S
C1526 C1514 1.392 . S
C1526 C1527 1.367 . S
C1526 H1534 0.930 . S
C1527 C1525 1.413 . S
C1527 C1526 1.367 . S
C1527 H1529 0.930 . S
H1528 C1521 0.930 . S
H1529 C1527 0.930 . S
H1530 C1518 0.930 . S
H1531 C1519 0.930 . S
H1532 C1525 0.929 . S
H1533 C1547 0.930 . S
H1534 C1526 0.930 . S
H1535 C1553 0.930 . S
H1536 C1544 0.929 . S
H1537 C1551 0.930 . S
H1538 C1515 0.931 . S
H1539 C1545 0.930 . S
H1540 C1578 0.930 . S
H1541 C1522 0.930 . S
H1542 C1577 0.931 . S
N1543 Eu1512 2.657 . S
N1543 C1544 1.334 . S
N1543 C1548 1.362 . S
C1544 H1536 0.929 . S
C1544 N1543 1.334 . S
C1544 C1547 1.413 . S
C1545 H1539 0.930 . S
C1545 C1546 1.392 . S
C1545 C1547 1.367 . S
C1546 C1545 1.392 . S
C1546 C1548 1.420 . S
C1546 C1578 1.423 . S
C1547 H1533 0.930 . S
C1547 C1544 1.413 . S
C1547 C1545 1.367 . S
C1548 N1543 1.362 . S
C1548 C1546 1.420 . S
C1548 C1552 1.429 . S
H1549 C1554 0.930 . S
N1550 Eu1512 2.609 . S
N1550 C1552 1.377 . S
N1550 C1553 1.321 . S
C1551 H1537 0.930 . S
C1551 C1553 1.400 . S
C1551 C1554 1.386 . S
C1552 C1548 1.429 . S
C1552 N1550 1.377 . S
C1552 C1555 1.411 . S
C1553 H1535 0.930 . S
C1553 N1550 1.321 . S
C1553 C1551 1.400 . S
C1554 H1549 0.930 . S
C1554 C1551 1.386 . S
C1554 C1555 1.395 . S
C1555 C1552 1.411 . S
C1555 C1554 1.395 . S
C1555 C1577 1.420 . S
O1556 Eu1512 2.558 . S
O1556 C1576 1.257 . S
O1557 Eu1512 2.612 . S
O1557 Eu1523 2.380 . S
O1557 C1568 1.276 . S
O1558 Eu1523 2.432 . S
O1558 C1575 1.264 . S
O1559 Eu1512 2.339 . S
O1559 C1575 1.254 . S
O1560 Eu1512 2.563 . S
O1560 C1568 1.235 . S
O1561 Eu1512 2.419 . S
O1561 C1576 1.249 . S
O1562 Eu1523 2.558 . S
O1562 C1587 1.257 . S
O1563 Eu1512 2.380 . S
O1563 Eu1523 2.612 . S
O1563 C1579 1.276 . S
O1564 Eu1512 2.432 . S
O1564 C1586 1.264 . S
O1565 Eu1523 2.339 . S
O1565 C1586 1.254 . S
O1566 Eu1523 2.563 . S
O1566 C1579 1.235 . S
O1567 Eu1523 2.419 . S
O1567 C1587 1.249 . S
C1568 O1557 1.276 . S
C1568 O1560 1.235 . S
C1569 C1571 1.393 . S
C1569 C1573 1.395 . S
C1569 C1576 1.492 . S
C1570 C1571 1.392 . S
C1570 C1572 1.386 . S
C1571 C1569 1.393 . S
C1571 C1570 1.392 . S
C1571 H1588 0.930 . S
C1572 C1570 1.386 . S
C1572 C1574 1.395 . S
C1572 H1589 0.930 . S
C1573 C1569 1.395 . S
C1573 C1574 1.379 . S
C1573 H1590 0.930 . S
C1574 C1572 1.395 . S
C1574 C1573 1.379 . S
C1574 H1591 0.930 . S
C1575 O1558 1.264 . S
C1575 O1559 1.254 . S
C1576 Eu1512 2.848 . S
C1576 O1556 1.257 . S
C1576 O1561 1.249 . S
C1576 C1569 1.492 . S
C1577 H1542 0.931 . S
C1577 C1555 1.420 . S
C1577 C1578 1.351 . S
C1578 H1540 0.930 . S
C1578 C1546 1.423 . S
C1578 C1577 1.351 . S
C1579 O1563 1.276 . S
C1579 O1566 1.235 . S
C1580 C1581 1.393 . S
C1580 C1584 1.395 . S
C1580 C1587 1.492 . S
C1581 C1580 1.393 . S
C1581 C1582 1.392 . S
C1581 H1592 0.930 . S
C1582 C1581 1.392 . S
C1582 C1583 1.386 . S
C1583 C1582 1.386 . S
C1583 C1585 1.395 . S
C1583 H1593 0.930 . S
C1584 C1580 1.395 . S
C1584 C1585 1.379 . S
C1584 H1594 0.930 . S
C1585 C1583 1.395 . S
C1585 C1584 1.379 . S
C1585 H1595 0.930 . S
C1586 O1564 1.264 . S
C1586 O1565 1.254 . S
C1587 Eu1523 2.848 . S
C1587 O1562 1.257 . S
C1587 O1567 1.249 . S
C1587 C1580 1.492 . S
H1588 C1571 0.930 . S
H1589 C1572 0.930 . S
H1590 C1573 0.930 . S
H1591 C1574 0.930 . S
H1592 C1581 0.930 . S
H1593 C1583 0.930 . S
H1594 C1584 0.930 . S
H1595 C1585 0.930 . S
Eu1596 N1627 2.657 . S
Eu1596 N1634 2.609 1_554 S
Eu1596 O1640 2.558 1_554 S
Eu1596 O1641 2.612 . S
Eu1596 O1643 2.339 . S
Eu1596 O1644 2.563 . S
Eu1596 O1645 2.419 . S
Eu1596 O1647 2.380 . S
Eu1596 O1648 2.432 1_554 S
Eu1596 C1660 2.833 1_554 S
C1597 C1600 1.429 . S
C1597 C1601 1.411 . S
C1597 N1604 1.377 1_655 S
C1598 C1600 1.420 . S
C1598 C1602 1.423 . S
C1598 C1610 1.395 1_554 S
C1599 C1601 1.420 . S
C1599 C1602 1.351 . S
C1599 H1622 0.931 . S
C1600 C1597 1.429 . S
C1600 C1598 1.420 . S
C1600 N1608 1.362 1_655 S
C1601 C1597 1.411 . S
C1601 C1599 1.420 . S
C1601 C1606 1.395 . S
C1602 C1598 1.423 . S
C1602 C1599 1.351 . S
C1602 H1614 0.930 . S
C1603 C1605 1.400 . S
C1603 C1606 1.386 1_455 S
C1603 H1615 0.930 . S
N1604 C1597 1.377 1_455 S
N1604 C1605 1.321 . S
N1604 Eu1607 2.609 . S
C1605 C1603 1.400 . S
C1605 N1604 1.321 . S
C1605 H1612 0.930 . S
C1606 C1601 1.395 . S
C1606 C1603 1.386 1_655 S
C1606 H1625 0.930 . S
Eu1607 N1604 2.609 . S
Eu1607 N1608 2.657 . S
Eu1607 O1641 2.380 . S
Eu1607 O1642 2.432 . S
Eu1607 O1646 2.558 . S
Eu1607 O1647 2.612 . S
Eu1607 O1649 2.319 1_554 S
Eu1607 O1650 2.563 . S
Eu1607 O1651 2.419 1_455 S
Eu1607 C1671 2.848 1_455 S
N1608 C1600 1.362 1_455 S
N1608 Eu1607 2.657 . S
N1608 C1609 1.334 1_454 S
C1609 N1608 1.334 1_656 S
C1609 C1611 1.413 . S
C1609 H1616 0.929 1_655 S
C1610 C1598 1.395 1_556 S
C1610 C1611 1.365 . S
C1610 H1618 0.930 . S
C1611 C1609 1.413 . S
C1611 C1610 1.365 . S
C1611 H1613 0.930 . S
H1612 C1605 0.930 . S
H1613 C1611 0.930 . S
H1614 C1602 0.930 . S
H1615 C1603 0.930 . S
H1616 C1609 0.929 1_455 S
H1617 C1631 0.930 . S
H1618 C1610 0.930 . S
H1619 C1637 0.930 . S
H1620 C1628 0.929 . S
H1621 C1635 0.930 . S
H1622 C1599 0.931 . S
H1623 C1629 0.930 . S
H1624 C1662 0.930 . S
H1625 C1606 0.930 . S
H1626 C1661 0.931 . S
N1627 Eu1596 2.657 . S
N1627 C1628 1.334 . S
N1627 C1632 1.362 . S
C1628 H1620 0.929 . S
C1628 N1627 1.334 . S
C1628 C1631 1.413 . S
C1629 H1623 0.930 . S
C1629 C1630 1.392 . S
C1629 C1631 1.367 . S
C1630 C1629 1.392 . S
C1630 C1632 1.420 . S
C1630 C1662 1.423 . S
C1631 H1617 0.930 . S
C1631 C1628 1.413 . S
C1631 C1629 1.367 . S
C1632 N1627 1.362 . S
C1632 C1630 1.420 . S
C1632 C1636 1.429 1_554 S
H1633 C1638 0.930 . S
N1634 Eu1596 2.609 1_556 S
N1634 C1636 1.377 . S
N1634 C1637 1.321 . S
C1635 H1621 0.930 . S
C1635 C1637 1.400 . S
C1635 C1638 1.386 . S
C1636 C1632 1.429 1_556 S
C1636 N1634 1.377 . S
C1636 C1639 1.411 . S
C1637 H1619 0.930 . S
C1637 N1634 1.321 . S
C1637 C1635 1.400 . S
C1638 H1633 0.930 . S
C1638 C1635 1.386 . S
C1638 C1639 1.395 . S
C1639 C1636 1.411 . S
C1639 C1638 1.395 . S
C1639 C1661 1.420 . S
O1640 Eu1596 2.558 1_556 S
O1640 C1660 1.305 . S
O1641 Eu1596 2.612 . S
O1641 Eu1607 2.380 . S
O1641 C1652 1.276 . S
O1642 Eu1607 2.432 . S
O1642 C1659 1.264 . S
O1643 Eu1596 2.339 . S
O1643 C1659 1.254 . S
O1644 Eu1596 2.563 . S
O1644 C1652 1.235 . S
O1645 Eu1596 2.419 . S
O1645 C1660 1.191 1_554 S
O1646 Eu1607 2.558 . S
O1646 C1671 1.257 1_455 S
O1647 Eu1596 2.380 . S
O1647 Eu1607 2.612 . S
O1647 C1663 1.276 . S
O1648 Eu1596 2.432 1_556 S
O1648 C1670 1.264 . S
O1649 Eu1607 2.319 1_556 S
O1649 C1670 1.270 . S
O1650 Eu1607 2.563 . S
O1650 C1663 1.235 . S
O1651 Eu1607 2.419 1_655 S
O1651 C1671 1.249 . S
C1652 O1641 1.276 . S
C1652 O1644 1.235 . S
C1653 C1655 1.393 1_556 S
C1653 C1657 1.395 . S
C1653 C1660 1.504 . S
C1654 C1655 1.392 . S
C1654 C1656 1.386 1_554 S
C1655 C1653 1.393 1_554 S
C1655 C1654 1.392 . S
C1655 H1672 0.930 . S
C1656 C1654 1.386 1_556 S
C1656 C1658 1.395 . S
C1656 H1673 0.930 . S
C1657 C1653 1.395 . S
C1657 C1658 1.379 . S
C1657 H1674 0.930 . S
C1658 C1656 1.395 . S
C1658 C1657 1.379 . S
C1658 H1675 0.930 . S
C1659 O1642 1.264 . S
C1659 O1643 1.254 . S
C1660 Eu1596 2.833 1_556 S
C1660 O1640 1.305 . S
C1660 O1645 1.191 1_556 S
C1660 C1653 1.504 . S
C1661 H1626 0.931 . S
C1661 C1639 1.420 . S
C1661 C1662 1.351 1_556 S
C1662 H1624 0.930 . S
C1662 C1630 1.423 . S
C1662 C1661 1.351 1_554 S
C1663 O1647 1.276 . S
C1663 O1650 1.235 . S
C1664 C1665 1.393 . S
C1664 C1668 1.395 . S
C1664 C1671 1.492 . S
C1665 C1664 1.393 . S
C1665 C1666 1.392 . S
C1665 H1676 0.930 . S
C1666 C1665 1.392 . S
C1666 C1667 1.386 . S
C1667 C1666 1.386 . S
C1667 C1669 1.395 . S
C1667 H1677 0.930 . S
C1668 C1664 1.395 . S
C1668 C1669 1.379 . S
C1668 H1678 0.930 . S
C1669 C1667 1.395 . S
C1669 C1668 1.379 . S
C1669 H1679 0.930 . S
C1670 O1648 1.264 . S
C1670 O1649 1.270 . S
C1671 Eu1607 2.848 1_655 S
C1671 O1646 1.257 1_655 S
C1671 O1651 1.249 . S
C1671 C1664 1.492 . S
H1672 C1655 0.930 . S
H1673 C1656 0.930 . S
H1674 C1657 0.930 . S
H1675 C1658 0.930 . S
H1676 C1665 0.930 . S
H1677 C1667 0.930 . S
H1678 C1668 0.930 . S
H1679 C1669 0.930 . S
H1680 C1698 0.951 1_655 S
H1681 C1700 0.951 1_655 S
H1682 C1702 0.950 . S
H1683 C1703 0.950 . S
H1684 C1705 0.950 . S
H1685 C1708 0.950 . S
H1686 C1709 0.950 . S
H1687 C1711 0.949 . S
H1688 C1712 0.950 . S
H1689 C1713 0.951 . S
H1690 C1715 0.951 . S
H1691 C1717 0.950 . S
H1692 C1718 0.950 . S
H1693 C1720 0.950 1_554 S
H1694 C1723 0.950 . S
H1695 C1724 0.950 . S
H1696 C1726 0.950 . S
H1697 C1727 0.950 . S
C1698 H1680 0.951 1_455 S
C1698 C1699 1.366 . S
C1698 C1700 1.388 . S
C1699 C1698 1.366 . S
C1699 C1703 1.385 . S
C1700 H1681 0.951 1_455 S
C1700 C1698 1.388 . S
C1700 C1701 1.366 . S
C1701 C1700 1.366 . S
C1701 C1702 1.414 . S
C1701 C1704 1.499 . S
C1702 H1682 0.950 . S
C1702 C1701 1.414 . S
C1702 C1703 1.374 . S
C1703 H1683 0.950 . S
C1703 C1699 1.385 . S
C1703 C1702 1.374 . S
C1704 C1701 1.499 . S
C1704 C1705 1.373 . S
C1704 C1706 1.389 . S
C1705 H1684 0.950 . S
C1705 C1704 1.373 . S
C1705 C1721 1.377 . S
C1706 C1704 1.389 . S
C1706 C1707 1.524 1_455 S
C1706 C1720 1.377 . S
C1707 C1706 1.524 1_655 S
C1707 C1708 1.397 1_656 S
C1707 C1712 1.363 . S
C1708 H1685 0.950 . S
C1708 C1707 1.397 1_454 S
C1708 C1709 1.334 1_455 S
C1709 H1686 0.950 . S
C1709 C1708 1.334 1_655 S
C1709 C1710 1.287 . S
C1710 C1709 1.287 . S
C1710 C1711 1.524 . S
C1710 H1729 0.913 . S
C1711 H1687 0.949 . S
C1711 C1710 1.524 . S
C1711 C1712 1.415 1_554 S
C1712 H1688 0.950 . S
C1712 C1707 1.363 . S
C1712 C1711 1.415 1_556 S
C1713 H1689 0.951 . S
C1713 C1714 1.366 . S
C1713 C1715 1.388 . S
C1714 C1713 1.366 . S
C1714 C1718 1.385 . S
C1715 H1690 0.951 . S
C1715 C1713 1.388 . S
C1715 C1716 1.340 1_554 S
C1716 C1715 1.340 1_556 S
C1716 C1717 1.409 . S
C1716 C1719 1.529 . S
C1717 H1691 0.950 . S
C1717 C1716 1.409 . S
C1717 C1718 1.374 1_556 S
C1718 H1692 0.950 . S
C1718 C1714 1.385 . S
C1718 C1717 1.374 1_554 S
C1719 C1716 1.529 . S
C1719 C1720 1.373 . S
C1719 C1721 1.389 . S
C1720 H1693 0.950 1_556 S
C1720 C1706 1.377 . S
C1720 C1719 1.373 . S
C1721 C1705 1.377 . S
C1721 C1719 1.389 . S
C1721 C1722 1.524 . S
C1722 C1721 1.524 . S
C1722 C1723 1.397 . S
C1722 C1727 1.363 . S
C1723 H1694 0.950 . S
C1723 C1722 1.397 . S
C1723 C1724 1.334 . S
C1724 H1695 0.950 . S
C1724 C1723 1.334 . S
C1724 C1725 1.287 . S
C1725 C1724 1.287 . S
C1725 C1726 1.524 . S
C1725 H1728 0.999 . S
C1726 H1696 0.950 . S
C1726 C1725 1.524 . S
C1726 C1727 1.415 . S
C1727 H1697 0.950 . S
C1727 C1722 1.363 . S
C1727 C1726 1.415 . S
H1728 C1725 0.999 . S
H1729 C1710 0.913 . S
H1730 C1748 0.951 . S
H1731 C1750 0.951 . S
H1732 C1752 0.950 . S
H1733 C1753 0.950 . S
H1734 C1755 0.950 . S
H1735 C1758 0.950 . S
H1736 C1759 0.950 . S
H1737 C1761 0.950 . S
H1738 C1762 0.950 . S
H1739 C1763 0.951 . S
H1740 C1765 0.951 . S
H1741 C1767 0.950 . S
H1742 C1768 0.950 . S
H1743 C1770 0.950 . S
H1744 C1773 0.950 . S
H1745 C1774 0.950 . S
H1746 C1776 0.950 . S
H1747 C1777 0.950 . S
C1748 H1730 0.951 . S
C1748 C1749 1.366 . S
C1748 C1750 1.388 . S
C1749 C1748 1.366 . S
C1749 C1753 1.385 . S
C1750 H1731 0.951 . S
C1750 C1748 1.388 . S
C1750 C1751 1.366 . S
C1751 C1750 1.366 . S
C1751 C1752 1.414 . S
C1751 C1754 1.499 . S
C1752 H1732 0.950 . S
C1752 C1751 1.414 . S
C1752 C1753 1.374 . S
C1753 H1733 0.950 . S
C1753 C1749 1.385 . S
C1753 C1752 1.374 . S
C1754 C1751 1.499 . S
C1754 C1755 1.373 . S
C1754 C1756 1.389 . S
C1755 H1734 0.950 . S
C1755 C1754 1.373 . S
C1755 C1771 1.377 . S
C1756 C1754 1.389 . S
C1756 C1757 1.524 . S
C1756 C1770 1.377 . S
C1757 C1756 1.524 . S
C1757 C1758 1.397 . S
C1757 C1762 1.363 . S
C1758 H1735 0.950 . S
C1758 C1757 1.397 . S
C1758 C1759 1.334 . S
C1759 H1736 0.950 . S
C1759 C1758 1.334 . S
C1759 C1760 1.287 . S
C1760 C1759 1.287 . S
C1760 C1761 1.524 . S
C1760 H1779 0.913 . S
C1761 H1737 0.950 . S
C1761 C1760 1.524 . S
C1761 C1762 1.415 . S
C1762 H1738 0.950 . S
C1762 C1757 1.363 . S
C1762 C1761 1.415 . S
C1763 H1739 0.951 . S
C1763 C1764 1.366 . S
C1763 C1765 1.388 . S
C1764 C1763 1.366 . S
C1764 C1768 1.385 . S
C1765 H1740 0.951 . S
C1765 C1763 1.388 . S
C1765 C1766 1.366 . S
C1766 C1765 1.366 . S
C1766 C1767 1.414 . S
C1766 C1769 1.499 . S
C1767 H1741 0.950 . S
C1767 C1766 1.414 . S
C1767 C1768 1.374 . S
C1768 H1742 0.950 . S
C1768 C1764 1.385 . S
C1768 C1767 1.374 . S
C1769 C1766 1.499 . S
C1769 C1770 1.373 . S
C1769 C1771 1.389 . S
C1770 H1743 0.950 . S
C1770 C1756 1.377 . S
C1770 C1769 1.373 . S
C1771 C1755 1.377 . S
C1771 C1769 1.389 . S
C1771 C1772 1.524 . S
C1772 C1771 1.524 . S
C1772 C1773 1.397 . S
C1772 C1777 1.363 . S
C1773 H1744 0.950 . S
C1773 C1772 1.397 . S
C1773 C1774 1.334 . S
C1774 H1745 0.950 . S
C1774 C1773 1.334 . S
C1774 C1775 1.287 . S
C1775 C1774 1.287 . S
C1775 C1776 1.524 . S
C1775 H1778 0.999 . S
C1776 H1746 0.950 . S
C1776 C1775 1.524 . S
C1776 C1777 1.415 . S
C1777 H1747 0.950 . S
C1777 C1772 1.363 . S
C1777 C1776 1.415 . S
H1778 C1775 0.999 . S
H1779 C1760 0.913 . S
H1780 C1798 0.951 . S
H1781 C1800 0.951 . S
H1782 C1802 0.950 . S
H1783 C1803 0.950 . S
H1784 C1805 0.950 . S
H1785 C1808 0.950 . S
H1786 C1809 0.950 . S
H1787 C1811 0.950 . S
H1788 C1812 0.950 . S
H1789 C1813 0.951 . S
H1790 C1815 0.951 . S
H1791 C1817 0.950 . S
H1792 C1818 0.950 . S
H1793 C1820 0.950 . S
H1794 C1823 0.950 . S
H1795 C1824 0.950 . S
H1796 C1826 0.950 . S
H1797 C1827 0.950 . S
C1798 H1780 0.951 . S
C1798 C1799 1.366 . S
C1798 C1800 1.388 . S
C1799 C1798 1.366 . S
C1799 C1803 1.385 . S
C1800 H1781 0.951 . S
C1800 C1798 1.388 . S
C1800 C1801 1.366 . S
C1801 C1800 1.366 . S
C1801 C1802 1.414 . S
C1801 C1804 1.499 . S
C1802 H1782 0.950 . S
C1802 C1801 1.414 . S
C1802 C1803 1.374 . S
C1803 H1783 0.950 . S
C1803 C1799 1.385 . S
C1803 C1802 1.374 . S
C1804 C1801 1.499 . S
C1804 C1805 1.373 . S
C1804 C1806 1.389 . S
C1805 H1784 0.950 . S
C1805 C1804 1.373 . S
C1805 C1821 1.377 . S
C1806 C1804 1.389 . S
C1806 C1807 1.524 . S
C1806 C1820 1.377 . S
C1807 C1806 1.524 . S
C1807 C1808 1.397 . S
C1807 C1812 1.363 . S
C1808 H1785 0.950 . S
C1808 C1807 1.397 . S
C1808 C1809 1.334 . S
C1809 H1786 0.950 . S
C1809 C1808 1.334 . S
C1809 C1810 1.287 . S
C1810 C1809 1.287 . S
C1810 C1811 1.524 . S
C1810 H1829 0.913 . S
C1811 H1787 0.950 . S
C1811 C1810 1.524 . S
C1811 C1812 1.415 . S
C1812 H1788 0.950 . S
C1812 C1807 1.363 . S
C1812 C1811 1.415 . S
C1813 H1789 0.951 . S
C1813 C1814 1.366 . S
C1813 C1815 1.388 . S
C1814 C1813 1.366 . S
C1814 C1818 1.385 . S
C1815 H1790 0.951 . S
C1815 C1813 1.388 . S
C1815 C1816 1.366 . S
C1816 C1815 1.366 . S
C1816 C1817 1.414 . S
C1816 C1819 1.499 . S
C1817 H1791 0.950 . S
C1817 C1816 1.414 . S
C1817 C1818 1.374 . S
C1818 H1792 0.950 . S
C1818 C1814 1.385 . S
C1818 C1817 1.374 . S
C1819 C1816 1.499 . S
C1819 C1820 1.373 . S
C1819 C1821 1.389 . S
C1820 H1793 0.950 . S
C1820 C1806 1.377 . S
C1820 C1819 1.373 . S
C1821 C1805 1.377 . S
C1821 C1819 1.389 . S
C1821 C1822 1.524 . S
C1822 C1821 1.524 . S
C1822 C1823 1.397 . S
C1822 C1827 1.363 . S
C1823 H1794 0.950 . S
C1823 C1822 1.397 . S
C1823 C1824 1.334 . S
C1824 H1795 0.950 . S
C1824 C1823 1.334 . S
C1824 C1825 1.287 . S
C1825 C1824 1.287 . S
C1825 C1826 1.524 . S
C1825 H1828 0.999 . S
C1826 H1796 0.950 . S
C1826 C1825 1.524 . S
C1826 C1827 1.415 . S
C1827 H1797 0.950 . S
C1827 C1822 1.363 . S
C1827 C1826 1.415 . S
H1828 C1825 0.999 . S
H1829 C1810 0.913 . S
H1830 C1848 0.951 . S
H1831 C1850 0.951 . S
H1832 C1852 0.950 . S
H1833 C1853 0.950 . S
H1834 C1855 0.950 . S
H1835 C1858 0.950 . S
H1836 C1859 0.950 . S
H1837 C1861 0.950 . S
H1838 C1862 0.950 . S
H1839 C1863 0.951 . S
H1840 C1865 0.951 . S
H1841 C1867 0.950 . S
H1842 C1868 0.950 . S
H1843 C1870 0.950 . S
H1844 C1873 0.950 . S
H1845 C1874 0.950 . S
H1846 C1876 0.950 . S
H1847 C1877 0.950 . S
C1848 H1830 0.951 . S
C1848 C1849 1.366 . S
C1848 C1850 1.388 . S
C1849 C1848 1.366 . S
C1849 C1853 1.385 . S
C1850 H1831 0.951 . S
C1850 C1848 1.388 . S
C1850 C1851 1.366 . S
C1851 C1850 1.366 . S
C1851 C1852 1.414 . S
C1851 C1854 1.499 . S
C1852 H1832 0.950 . S
C1852 C1851 1.414 . S
C1852 C1853 1.374 . S
C1853 H1833 0.950 . S
C1853 C1849 1.385 . S
C1853 C1852 1.374 . S
C1854 C1851 1.499 . S
C1854 C1855 1.373 . S
C1854 C1856 1.389 . S
C1855 H1834 0.950 . S
C1855 C1854 1.373 . S
C1855 C1871 1.377 . S
C1856 C1854 1.389 . S
C1856 C1857 1.524 . S
C1856 C1870 1.377 . S
C1857 C1856 1.524 . S
C1857 C1858 1.397 . S
C1857 C1862 1.363 . S
C1858 H1835 0.950 . S
C1858 C1857 1.397 . S
C1858 C1859 1.334 . S
C1859 H1836 0.950 . S
C1859 C1858 1.334 . S
C1859 C1860 1.287 . S
C1860 C1859 1.287 . S
C1860 C1861 1.524 . S
C1860 H1879 0.913 . S
C1861 H1837 0.950 . S
C1861 C1860 1.524 . S
C1861 C1862 1.415 . S
C1862 H1838 0.950 . S
C1862 C1857 1.363 . S
C1862 C1861 1.415 . S
C1863 H1839 0.951 . S
C1863 C1864 1.366 . S
C1863 C1865 1.388 . S
C1864 C1863 1.366 . S
C1864 C1868 1.385 . S
C1865 H1840 0.951 . S
C1865 C1863 1.388 . S
C1865 C1866 1.366 . S
C1866 C1865 1.366 . S
C1866 C1867 1.414 . S
C1866 C1869 1.499 . S
C1867 H1841 0.950 . S
C1867 C1866 1.414 . S
C1867 C1868 1.374 . S
C1868 H1842 0.950 . S
C1868 C1864 1.385 . S
C1868 C1867 1.374 . S
C1869 C1866 1.499 . S
C1869 C1870 1.373 . S
C1869 C1871 1.389 . S
C1870 H1843 0.950 . S
C1870 C1856 1.377 . S
C1870 C1869 1.373 . S
C1871 C1855 1.377 . S
C1871 C1869 1.389 . S
C1871 C1872 1.524 . S
C1872 C1871 1.524 . S
C1872 C1873 1.397 . S
C1872 C1877 1.363 . S
C1873 H1844 0.950 . S
C1873 C1872 1.397 . S
C1873 C1874 1.334 . S
C1874 H1845 0.950 . S
C1874 C1873 1.334 . S
C1874 C1875 1.287 . S
C1875 C1874 1.287 . S
C1875 C1876 1.524 . S
C1875 H1878 0.999 . S
C1876 H1846 0.950 . S
C1876 C1875 1.524 . S
C1876 C1877 1.415 . S
C1877 H1847 0.950 . S
C1877 C1872 1.363 . S
C1877 C1876 1.415 . S
H1878 C1875 0.999 . S
H1879 C1860 0.913 . S
H1880 C1898 0.951 . S
H1881 C1900 0.951 . S
H1882 C1902 0.950 . S
H1883 C1903 0.950 . S
H1884 C1905 0.950 . S
H1885 C1908 0.950 . S
H1886 C1909 0.950 . S
H1887 C1911 0.950 . S
H1888 C1912 0.950 . S
H1889 C1913 0.951 . S
H1890 C1915 0.951 . S
H1891 C1917 0.950 . S
H1892 C1918 0.950 . S
H1893 C1920 0.950 . S
H1894 C1923 0.950 . S
H1895 C1924 0.950 . S
H1896 C1926 0.950 . S
H1897 C1927 0.950 . S
C1898 H1880 0.951 . S
C1898 C1899 1.366 1_655 S
C1898 C1900 1.388 . S
C1899 C1898 1.366 1_455 S
C1899 C1903 1.385 . S
C1900 H1881 0.951 . S
C1900 C1898 1.388 . S
C1900 C1901 1.366 1_655 S
C1901 C1900 1.366 1_455 S
C1901 C1902 1.414 . S
C1901 C1904 1.499 . S
C1902 H1882 0.950 . S
C1902 C1901 1.414 . S
C1902 C1903 1.374 . S
C1903 H1883 0.950 . S
C1903 C1899 1.385 . S
C1903 C1902 1.374 . S
C1904 C1901 1.499 . S
C1904 C1905 1.373 . S
C1904 C1906 1.389 . S
C1905 H1884 0.950 . S
C1905 C1904 1.373 . S
C1905 C1921 1.377 . S
C1906 C1904 1.389 . S
C1906 C1907 1.524 . S
C1906 C1920 1.377 . S
C1907 C1906 1.524 . S
C1907 C1908 1.397 . S
C1907 C1912 1.363 1_455 S
C1908 H1885 0.950 . S
C1908 C1907 1.397 . S
C1908 C1909 1.334 . S
C1909 H1886 0.950 . S
C1909 C1908 1.334 . S
C1909 C1910 1.287 . S
C1910 C1909 1.287 . S
C1910 C1911 1.524 1_455 S
C1910 H1929 0.913 . S
C1911 H1887 0.950 . S
C1911 C1910 1.524 1_655 S
C1911 C1912 1.415 . S
C1912 H1888 0.950 . S
C1912 C1907 1.363 1_655 S
C1912 C1911 1.415 . S
C1913 H1889 0.951 . S
C1913 C1914 1.366 . S
C1913 C1915 1.388 . S
C1914 C1913 1.366 . S
C1914 C1918 1.385 . S
C1915 H1890 0.951 . S
C1915 C1913 1.388 . S
C1915 C1916 1.366 . S
C1916 C1915 1.366 . S
C1916 C1917 1.414 . S
C1916 C1919 1.499 . S
C1917 H1891 0.950 . S
C1917 C1916 1.414 . S
C1917 C1918 1.374 . S
C1918 H1892 0.950 . S
C1918 C1914 1.385 . S
C1918 C1917 1.374 . S
C1919 C1916 1.499 . S
C1919 C1920 1.373 . S
C1919 C1921 1.389 . S
C1920 H1893 0.950 . S
C1920 C1906 1.377 . S
C1920 C1919 1.373 . S
C1921 C1905 1.377 . S
C1921 C1919 1.389 . S
C1921 C1922 1.524 . S
C1922 C1921 1.524 . S
C1922 C1923 1.397 . S
C1922 C1927 1.363 . S
C1923 H1894 0.950 . S
C1923 C1922 1.397 . S
C1923 C1924 1.334 . S
C1924 H1895 0.950 . S
C1924 C1923 1.334 . S
C1924 C1925 1.287 . S
C1925 C1924 1.287 . S
C1925 C1926 1.524 . S
C1925 H1928 0.999 . S
C1926 H1896 0.950 . S
C1926 C1925 1.524 . S
C1926 C1927 1.415 . S
C1927 H1897 0.950 . S
C1927 C1922 1.363 . S
C1927 C1926 1.415 . S
H1928 C1925 0.999 . S
H1929 C1910 0.913 . S
H1930 C1948 0.951 . S
H1931 C1950 0.951 . S
H1932 C1952 0.950 . S
H1933 C1953 0.950 . S
H1934 C1955 0.950 . S
H1935 C1958 0.950 . S
H1936 C1959 0.950 . S
H1937 C1961 0.950 . S
H1938 C1962 0.950 . S
H1939 C1963 0.951 . S
H1940 C1965 0.951 . S
H1941 C1967 0.950 . S
H1942 C1968 0.950 . S
H1943 C1970 0.950 . S
H1944 C1973 0.950 . S
H1945 C1974 0.950 . S
H1946 C1976 0.950 . S
H1947 C1977 0.950 . S
C1948 H1930 0.951 . S
C1948 C1949 1.366 . S
C1948 C1950 1.388 . S
C1949 C1948 1.366 . S
C1949 C1953 1.385 . S
C1950 H1931 0.951 . S
C1950 C1948 1.388 . S
C1950 C1951 1.366 . S
C1951 C1950 1.366 . S
C1951 C1952 1.414 . S
C1951 C1954 1.499 . S
C1952 H1932 0.950 . S
C1952 C1951 1.414 . S
C1952 C1953 1.374 . S
C1953 H1933 0.950 . S
C1953 C1949 1.385 . S
C1953 C1952 1.374 . S
C1954 C1951 1.499 . S
C1954 C1955 1.373 . S
C1954 C1956 1.389 . S
C1955 H1934 0.950 . S
C1955 C1954 1.373 . S
C1955 C1971 1.377 . S
C1956 C1954 1.389 . S
C1956 C1957 1.524 . S
C1956 C1970 1.377 . S
C1957 C1956 1.524 . S
C1957 C1958 1.397 . S
C1957 C1962 1.363 . S
C1958 H1935 0.950 . S
C1958 C1957 1.397 . S
C1958 C1959 1.334 . S
C1959 H1936 0.950 . S
C1959 C1958 1.334 . S
C1959 C1960 1.287 . S
C1960 C1959 1.287 . S
C1960 C1961 1.524 . S
C1960 H1979 0.913 . S
C1961 H1937 0.950 . S
C1961 C1960 1.524 . S
C1961 C1962 1.415 . S
C1962 H1938 0.950 . S
C1962 C1957 1.363 . S
C1962 C1961 1.415 . S
C1963 H1939 0.951 . S
C1963 C1964 1.366 . S
C1963 C1965 1.388 . S
C1964 C1963 1.366 . S
C1964 C1968 1.385 . S
C1965 H1940 0.951 . S
C1965 C1963 1.388 . S
C1965 C1966 1.366 . S
C1966 C1965 1.366 . S
C1966 C1967 1.414 . S
C1966 C1969 1.499 . S
C1967 H1941 0.950 . S
C1967 C1966 1.414 . S
C1967 C1968 1.374 . S
C1968 H1942 0.950 . S
C1968 C1964 1.385 . S
C1968 C1967 1.374 . S
C1969 C1966 1.499 . S
C1969 C1970 1.373 . S
C1969 C1971 1.389 . S
C1970 H1943 0.950 . S
C1970 C1956 1.377 . S
C1970 C1969 1.373 . S
C1971 C1955 1.377 . S
C1971 C1969 1.389 . S
C1971 C1972 1.524 . S
C1972 C1971 1.524 . S
C1972 C1973 1.397 . S
C1972 C1977 1.363 . S
C1973 H1944 0.950 . S
C1973 C1972 1.397 . S
C1973 C1974 1.334 . S
C1974 H1945 0.950 . S
C1974 C1973 1.334 . S
C1974 C1975 1.287 . S
C1975 C1974 1.287 . S
C1975 C1976 1.524 . S
C1975 H1978 0.999 . S
C1976 H1946 0.950 . S
C1976 C1975 1.524 . S
C1976 C1977 1.415 . S
C1977 H1947 0.950 . S
C1977 C1972 1.363 . S
C1977 C1976 1.415 . S
H1978 C1975 0.999 . S
H1979 C1960 0.913 . S
H1980 C1998 0.951 . S
H1981 C2000 0.951 . S
H1982 C2002 0.950 . S
H1983 C2003 0.950 . S
H1984 C2005 0.950 . S
H1985 C2008 0.950 . S
H1986 C2009 0.950 . S
H1987 C2011 0.950 . S
H1988 C2012 0.950 . S
H1989 C2013 0.951 . S
H1990 C2015 0.951 . S
H1991 C2017 0.950 . S
H1992 C2018 0.950 . S
H1993 C2020 0.950 . S
H1994 C2023 0.950 . S
H1995 C2024 0.950 . S
H1996 C2026 0.950 . S
H1997 C2027 0.950 . S
C1998 H1980 0.951 . S
C1998 C1999 1.366 . S
C1998 C2000 1.388 . S
C1999 C1998 1.366 . S
C1999 C2003 1.385 . S
C2000 H1981 0.951 . S
C2000 C1998 1.388 . S
C2000 C2001 1.366 . S
C2001 C2000 1.366 . S
C2001 C2002 1.414 . S
C2001 C2004 1.499 . S
C2002 H1982 0.950 . S
C2002 C2001 1.414 . S
C2002 C2003 1.374 . S
C2003 H1983 0.950 . S
C2003 C1999 1.385 . S
C2003 C2002 1.374 . S
C2004 C2001 1.499 . S
C2004 C2005 1.373 . S
C2004 C2006 1.389 . S
C2005 H1984 0.950 . S
C2005 C2004 1.373 . S
C2005 C2021 1.377 . S
C2006 C2004 1.389 . S
C2006 C2007 1.524 . S
C2006 C2020 1.377 . S
C2007 C2006 1.524 . S
C2007 C2008 1.397 . S
C2007 C2012 1.363 . S
C2008 H1985 0.950 . S
C2008 C2007 1.397 . S
C2008 C2009 1.334 . S
C2009 H1986 0.950 . S
C2009 C2008 1.334 . S
C2009 C2010 1.287 . S
C2010 C2009 1.287 . S
C2010 C2011 1.524 . S
C2010 H2029 0.913 . S
C2011 H1987 0.950 . S
C2011 C2010 1.524 . S
C2011 C2012 1.415 . S
C2012 H1988 0.950 . S
C2012 C2007 1.363 . S
C2012 C2011 1.415 . S
C2013 H1989 0.951 . S
C2013 C2014 1.366 . S
C2013 C2015 1.388 . S
C2014 C2013 1.366 . S
C2014 C2018 1.385 . S
C2015 H1990 0.951 . S
C2015 C2013 1.388 . S
C2015 C2016 1.366 . S
C2016 C2015 1.366 . S
C2016 C2017 1.414 . S
C2016 C2019 1.499 . S
C2017 H1991 0.950 . S
C2017 C2016 1.414 . S
C2017 C2018 1.374 . S
C2018 H1992 0.950 . S
C2018 C2014 1.385 . S
C2018 C2017 1.374 . S
C2019 C2016 1.499 . S
C2019 C2020 1.373 . S
C2019 C2021 1.389 . S
C2020 H1993 0.950 . S
C2020 C2006 1.377 . S
C2020 C2019 1.373 . S
C2021 C2005 1.377 . S
C2021 C2019 1.389 . S
C2021 C2022 1.524 . S
C2022 C2021 1.524 . S
C2022 C2023 1.397 . S
C2022 C2027 1.363 . S
C2023 H1994 0.950 . S
C2023 C2022 1.397 . S
C2023 C2024 1.334 . S
C2024 H1995 0.950 . S
C2024 C2023 1.334 . S
C2024 C2025 1.287 . S
C2025 C2024 1.287 . S
C2025 C2026 1.524 . S
C2025 H2028 0.999 . S
C2026 H1996 0.950 . S
C2026 C2025 1.524 . S
C2026 C2027 1.415 . S
C2027 H1997 0.950 . S
C2027 C2022 1.363 . S
C2027 C2026 1.415 . S
H2028 C2025 0.999 . S
H2029 C2010 0.913 . S
H2030 C2048 0.951 . S
H2031 C2050 0.951 . S
H2032 C2052 0.950 . S
H2033 C2053 0.950 . S
H2034 C2055 0.950 . S
H2035 C2058 0.950 . S
H2036 C2059 0.950 . S
H2037 C2061 0.950 . S
H2038 C2062 0.950 . S
H2039 C2063 0.951 . S
H2040 C2065 0.951 . S
H2041 C2067 0.950 . S
H2042 C2068 0.950 . S
H2043 C2070 0.950 . S
H2044 C2073 0.950 . S
H2045 C2074 0.950 . S
H2046 C2076 0.950 . S
H2047 C2077 0.950 . S
C2048 H2030 0.951 . S
C2048 C2049 1.366 . S
C2048 C2050 1.388 . S
C2049 C2048 1.366 . S
C2049 C2053 1.385 . S
C2050 H2031 0.951 . S
C2050 C2048 1.388 . S
C2050 C2051 1.366 . S
C2051 C2050 1.366 . S
C2051 C2052 1.414 . S
C2051 C2054 1.499 . S
C2052 H2032 0.950 . S
C2052 C2051 1.414 . S
C2052 C2053 1.374 . S
C2053 H2033 0.950 . S
C2053 C2049 1.385 . S
C2053 C2052 1.374 . S
C2054 C2051 1.499 . S
C2054 C2055 1.373 . S
C2054 C2056 1.389 . S
C2055 H2034 0.950 . S
C2055 C2054 1.373 . S
C2055 C2071 1.377 . S
C2056 C2054 1.389 . S
C2056 C2057 1.524 . S
C2056 C2070 1.377 . S
C2057 C2056 1.524 . S
C2057 C2058 1.397 . S
C2057 C2062 1.363 . S
C2058 H2035 0.950 . S
C2058 C2057 1.397 . S
C2058 C2059 1.334 . S
C2059 H2036 0.950 . S
C2059 C2058 1.334 . S
C2059 C2060 1.287 . S
C2060 C2059 1.287 . S
C2060 C2061 1.524 . S
C2060 H2079 0.913 . S
C2061 H2037 0.950 . S
C2061 C2060 1.524 . S
C2061 C2062 1.415 . S
C2062 H2038 0.950 . S
C2062 C2057 1.363 . S
C2062 C2061 1.415 . S
C2063 H2039 0.951 . S
C2063 C2064 1.366 . S
C2063 C2065 1.388 . S
C2064 C2063 1.366 . S
C2064 C2068 1.385 . S
C2065 H2040 0.951 . S
C2065 C2063 1.388 . S
C2065 C2066 1.366 . S
C2066 C2065 1.366 . S
C2066 C2067 1.414 . S
C2066 C2069 1.499 . S
C2067 H2041 0.950 . S
C2067 C2066 1.414 . S
C2067 C2068 1.374 . S
C2068 H2042 0.950 . S
C2068 C2064 1.385 . S
C2068 C2067 1.374 . S
C2069 C2066 1.499 . S
C2069 C2070 1.373 . S
C2069 C2071 1.389 . S
C2070 H2043 0.950 . S
C2070 C2056 1.377 . S
C2070 C2069 1.373 . S
C2071 C2055 1.377 . S
C2071 C2069 1.389 . S
C2071 C2072 1.524 . S
C2072 C2071 1.524 . S
C2072 C2073 1.397 . S
C2072 C2077 1.363 . S
C2073 H2044 0.950 . S
C2073 C2072 1.397 . S
C2073 C2074 1.334 . S
C2074 H2045 0.950 . S
C2074 C2073 1.334 . S
C2074 C2075 1.287 . S
C2075 C2074 1.287 . S
C2075 C2076 1.524 . S
C2075 H2078 0.999 . S
C2076 H2046 0.950 . S
C2076 C2075 1.524 . S
C2076 C2077 1.415 . S
C2077 H2047 0.950 . S
C2077 C2072 1.363 . S
C2077 C2076 1.415 . S
H2078 C2075 0.999 . S
H2079 C2060 0.913 . S
H2080 C2098 0.951 . S
H2081 C2100 0.951 . S
H2082 C2102 0.946 . S
H2083 C2103 0.950 . S
H2084 C2105 0.950 1_455 S
H2085 C2108 0.950 . S
H2086 C2109 0.928 1_565 S
H2087 C2111 0.950 . S
H2088 C2112 0.950 . S
H2089 C2113 0.951 . S
H2090 C2115 0.951 . S
H2091 C2117 0.974 . S
H2092 C2118 0.967 . S
H2093 C2120 0.950 . S
H2094 C2123 0.950 . S
H2095 C2124 0.950 . S
H2096 C2126 0.950 . S
H2097 C2127 0.950 . S
C2098 H2080 0.951 . S
C2098 C2099 1.366 . S
C2098 C2100 1.388 . S
C2099 C2098 1.366 . S
C2099 C2103 1.385 . S
C2100 H2081 0.951 . S
C2100 C2098 1.388 . S
C2100 C2101 1.366 . S
C2101 C2100 1.366 . S
C2101 C2102 1.414 . S
C2101 C2104 1.499 . S
C2102 H2082 0.946 . S
C2102 C2101 1.414 . S
C2102 C2103 1.374 . S
C2103 H2083 0.950 . S
C2103 C2099 1.385 . S
C2103 C2102 1.374 . S
C2104 C2101 1.499 . S
C2104 C2105 1.373 . S
C2104 C2106 1.389 . S
C2105 H2084 0.950 1_655 S
C2105 C2104 1.373 . S
C2105 C2121 1.377 1_655 S
C2106 C2104 1.389 . S
C2106 C2107 1.524 . S
C2106 C2120 1.377 . S
C2107 C2106 1.524 . S
C2107 C2108 1.397 . S
C2107 C2112 1.363 . S
C2108 H2085 0.950 . S
C2108 C2107 1.397 . S
C2108 C2109 1.334 . S
C2109 H2086 0.928 1_545 S
C2109 C2108 1.334 . S
C2109 C2110 1.287 1_545 S
C2110 C2109 1.287 1_565 S
C2110 C2111 1.524 . S
C2110 H2129 0.913 . S
C2111 H2087 0.950 . S
C2111 C2110 1.524 . S
C2111 C2112 1.415 1_565 S
C2112 H2088 0.950 . S
C2112 C2107 1.363 . S
C2112 C2111 1.415 1_545 S
C2113 H2089 0.951 . S
C2113 C2114 1.366 . S
C2113 C2115 1.388 . S
C2114 C2113 1.366 . S
C2114 C2118 1.385 . S
C2115 H2090 0.951 . S
C2115 C2113 1.388 . S
C2115 C2116 1.366 . S
C2116 C2115 1.366 . S
C2116 C2117 1.403 1_455 S
C2116 C2119 1.528 . S
C2117 H2091 0.974 . S
C2117 C2116 1.403 1_655 S
C2117 C2118 1.361 1_655 S
C2118 H2092 0.967 . S
C2118 C2114 1.385 . S
C2118 C2117 1.361 1_455 S
C2119 C2116 1.528 . S
C2119 C2120 1.348 1_455 S
C2119 C2121 1.390 . S
C2120 H2093 0.950 . S
C2120 C2106 1.377 . S
C2120 C2119 1.348 1_655 S
C2121 C2105 1.377 1_455 S
C2121 C2119 1.390 . S
C2121 C2122 1.524 . S
C2122 C2121 1.524 . S
C2122 C2123 1.397 . S
C2122 C2127 1.363 . S
C2123 H2094 0.950 . S
C2123 C2122 1.397 . S
C2123 C2124 1.334 . S
C2124 H2095 0.950 . S
C2124 C2123 1.334 . S
C2124 C2125 1.287 . S
C2125 C2124 1.287 . S
C2125 C2126 1.524 . S
C2125 H2128 0.999 . S
C2126 H2096 0.950 . S
C2126 C2125 1.524 . S
C2126 C2127 1.415 . S
C2127 H2097 0.950 . S
C2127 C2122 1.363 . S
C2127 C2126 1.415 . S
H2128 C2125 0.999 . S
H2129 C2110 0.913 . S
H2130 C2148 0.951 . S
H2131 C2150 0.951 . S
H2132 C2152 0.950 . S
H2133 C2153 0.950 . S
H2134 C2155 0.950 . S
H2135 C2158 0.950 . S
H2136 C2159 0.950 . S
H2137 C2161 0.950 . S
H2138 C2162 0.950 . S
H2139 C2163 0.951 . S
H2140 C2165 0.951 . S
H2141 C2167 0.950 . S
H2142 C2168 0.950 . S
H2143 C2170 0.950 . S
H2144 C2173 0.950 . S
H2145 C2174 0.950 . S
H2146 C2176 0.950 . S
H2147 C2177 0.950 . S
C2148 H2130 0.951 . S
C2148 C2149 1.366 . S
C2148 C2150 1.388 . S
C2149 C2148 1.366 . S
C2149 C2153 1.385 . S
C2150 H2131 0.951 . S
C2150 C2148 1.388 . S
C2150 C2151 1.366 . S
C2151 C2150 1.366 . S
C2151 C2152 1.414 . S
C2151 C2154 1.499 . S
C2152 H2132 0.950 . S
C2152 C2151 1.414 . S
C2152 C2153 1.374 . S
C2153 H2133 0.950 . S
C2153 C2149 1.385 . S
C2153 C2152 1.374 . S
C2154 C2151 1.499 . S
C2154 C2155 1.373 . S
C2154 C2156 1.389 . S
C2155 H2134 0.950 . S
C2155 C2154 1.373 . S
C2155 C2171 1.377 . S
C2156 C2154 1.389 . S
C2156 C2157 1.524 . S
C2156 C2170 1.377 . S
C2157 C2156 1.524 . S
C2157 C2158 1.397 . S
C2157 C2162 1.363 . S
C2158 H2135 0.950 . S
C2158 C2157 1.397 . S
C2158 C2159 1.334 . S
C2159 H2136 0.950 . S
C2159 C2158 1.334 . S
C2159 C2160 1.287 . S
C2160 C2159 1.287 . S
C2160 C2161 1.524 . S
C2160 H2179 0.913 . S
C2161 H2137 0.950 . S
C2161 C2160 1.524 . S
C2161 C2162 1.415 . S
C2162 H2138 0.950 . S
C2162 C2157 1.363 . S
C2162 C2161 1.415 . S
C2163 H2139 0.951 . S
C2163 C2164 1.366 . S
C2163 C2165 1.388 . S
C2164 C2163 1.366 . S
C2164 C2168 1.385 . S
C2165 H2140 0.951 . S
C2165 C2163 1.388 . S
C2165 C2166 1.366 . S
C2166 C2165 1.366 . S
C2166 C2167 1.414 . S
C2166 C2169 1.499 . S
C2167 H2141 0.950 . S
C2167 C2166 1.414 . S
C2167 C2168 1.374 . S
C2168 H2142 0.950 . S
C2168 C2164 1.385 . S
C2168 C2167 1.374 . S
C2169 C2166 1.499 . S
C2169 C2170 1.373 . S
C2169 C2171 1.389 . S
C2170 H2143 0.950 . S
C2170 C2156 1.377 . S
C2170 C2169 1.373 . S
C2171 C2155 1.377 . S
C2171 C2169 1.389 . S
C2171 C2172 1.524 . S
C2172 C2171 1.524 . S
C2172 C2173 1.397 . S
C2172 C2177 1.363 . S
C2173 H2144 0.950 . S
C2173 C2172 1.397 . S
C2173 C2174 1.334 . S
C2174 H2145 0.950 . S
C2174 C2173 1.334 . S
C2174 C2175 1.287 . S
C2175 C2174 1.287 . S
C2175 C2176 1.524 . S
C2175 H2178 0.999 . S
C2176 H2146 0.950 . S
C2176 C2175 1.524 . S
C2176 C2177 1.415 . S
C2177 H2147 0.950 . S
C2177 C2172 1.363 . S
C2177 C2176 1.415 . S
H2178 C2175 0.999 . S
H2179 C2160 0.913 . S
H2180 C2198 0.951 . S
H2181 C2200 0.951 . S
H2182 C2202 0.950 . S
H2183 C2203 0.950 . S
H2184 C2205 0.950 . S
H2185 C2208 0.950 . S
H2186 C2209 0.950 . S
H2187 C2211 0.950 . S
H2188 C2212 0.950 . S
H2189 C2213 0.951 . S
H2190 C2215 0.951 . S
H2191 C2217 0.950 . S
H2192 C2218 0.950 . S
H2193 C2220 0.950 . S
H2194 C2223 0.917 1_565 S
H2195 C2224 0.932 1_565 S
H2196 C2226 0.950 . S
H2197 C2227 0.950 . S
C2198 H2180 0.951 . S
C2198 C2199 1.366 . S
C2198 C2200 1.388 . S
C2199 C2198 1.366 . S
C2199 C2203 1.385 . S
C2200 H2181 0.951 . S
C2200 C2198 1.388 . S
C2200 C2201 1.366 . S
C2201 C2200 1.366 . S
C2201 C2202 1.414 . S
C2201 C2204 1.499 . S
C2202 H2182 0.950 . S
C2202 C2201 1.414 . S
C2202 C2203 1.374 . S
C2203 H2183 0.950 . S
C2203 C2199 1.385 . S
C2203 C2202 1.374 . S
C2204 C2201 1.499 . S
C2204 C2205 1.373 . S
C2204 C2206 1.389 . S
C2205 H2184 0.950 . S
C2205 C2204 1.373 . S
C2205 C2221 1.377 . S
C2206 C2204 1.389 . S
C2206 C2207 1.524 . S
C2206 C2220 1.377 . S
C2207 C2206 1.524 . S
C2207 C2208 1.397 . S
C2207 C2212 1.363 . S
C2208 H2185 0.950 . S
C2208 C2207 1.397 . S
C2208 C2209 1.334 . S
C2209 H2186 0.950 . S
C2209 C2208 1.334 . S
C2209 C2210 1.287 . S
C2210 C2209 1.287 . S
C2210 C2211 1.524 . S
C2210 H2229 0.913 . S
C2211 H2187 0.950 . S
C2211 C2210 1.524 . S
C2211 C2212 1.415 . S
C2212 H2188 0.950 . S
C2212 C2207 1.363 . S
C2212 C2211 1.415 . S
C2213 H2189 0.951 . S
C2213 C2214 1.366 . S
C2213 C2215 1.388 . S
C2214 C2213 1.366 . S
C2214 C2218 1.385 . S
C2215 H2190 0.951 . S
C2215 C2213 1.388 . S
C2215 C2216 1.366 . S
C2216 C2215 1.366 . S
C2216 C2217 1.414 . S
C2216 C2219 1.499 . S
C2217 H2191 0.950 . S
C2217 C2216 1.414 . S
C2217 C2218 1.374 . S
C2218 H2192 0.950 . S
C2218 C2214 1.385 . S
C2218 C2217 1.374 . S
C2219 C2216 1.499 . S
C2219 C2220 1.373 . S
C2219 C2221 1.389 . S
C2220 H2193 0.950 . S
C2220 C2206 1.377 . S
C2220 C2219 1.373 . S
C2221 C2205 1.377 . S
C2221 C2219 1.389 . S
C2221 C2222 1.524 . S
C2222 C2221 1.524 . S
C2222 C2223 1.397 . S
C2222 C2227 1.363 . S
C2223 H2194 0.917 1_545 S
C2223 C2222 1.397 . S
C2223 C2224 1.338 . S
C2224 H2195 0.932 1_545 S
C2224 C2223 1.338 . S
C2224 C2225 1.302 . S
C2225 C2224 1.302 . S
C2225 C2226 1.524 . S
C2225 H2228 0.999 . S
C2226 H2196 0.950 . S
C2226 C2225 1.524 . S
C2226 C2227 1.415 . S
C2227 H2197 0.950 . S
C2227 C2222 1.363 . S
C2227 C2226 1.415 . S
H2228 C2225 0.999 . S
H2229 C2210 0.913 . S
H2230 C2248 0.951 . S
H2231 C2250 0.951 . S
H2232 C2252 0.950 . S
H2233 C2253 0.950 . S
H2234 C2255 0.950 . S
H2235 C2258 0.950 . S
H2236 C2259 0.950 . S
H2237 C2261 0.950 . S
H2238 C2262 0.950 . S
H2239 C2263 0.951 . S
H2240 C2265 0.951 . S
H2241 C2267 0.950 . S
H2242 C2268 0.950 . S
H2243 C2270 0.950 . S
H2244 C2273 0.950 . S
H2245 C2274 0.950 . S
H2246 C2276 0.950 . S
H2247 C2277 0.950 . S
C2248 H2230 0.951 . S
C2248 C2249 1.366 . S
C2248 C2250 1.388 . S
C2249 C2248 1.366 . S
C2249 C2253 1.385 . S
C2250 H2231 0.951 . S
C2250 C2248 1.388 . S
C2250 C2251 1.366 . S
C2251 C2250 1.366 . S
C2251 C2252 1.414 . S
C2251 C2254 1.499 . S
C2252 H2232 0.950 . S
C2252 C2251 1.414 . S
C2252 C2253 1.374 . S
C2253 H2233 0.950 . S
C2253 C2249 1.385 . S
C2253 C2252 1.374 . S
C2254 C2251 1.499 . S
C2254 C2255 1.373 . S
C2254 C2256 1.389 . S
C2255 H2234 0.950 . S
C2255 C2254 1.373 . S
C2255 C2271 1.377 . S
C2256 C2254 1.389 . S
C2256 C2257 1.524 . S
C2256 C2270 1.377 . S
C2257 C2256 1.524 . S
C2257 C2258 1.397 . S
C2257 C2262 1.363 . S
C2258 H2235 0.950 . S
C2258 C2257 1.397 . S
C2258 C2259 1.334 . S
C2259 H2236 0.950 . S
C2259 C2258 1.334 . S
C2259 C2260 1.287 . S
C2260 C2259 1.287 . S
C2260 C2261 1.524 . S
C2260 H2279 0.913 . S
C2261 H2237 0.950 . S
C2261 C2260 1.524 . S
C2261 C2262 1.415 . S
C2262 H2238 0.950 . S
C2262 C2257 1.363 . S
C2262 C2261 1.415 . S
C2263 H2239 0.951 . S
C2263 C2264 1.366 . S
C2263 C2265 1.388 . S
C2264 C2263 1.366 . S
C2264 C2268 1.385 . S
C2265 H2240 0.951 . S
C2265 C2263 1.388 . S
C2265 C2266 1.366 . S
C2266 C2265 1.366 . S
C2266 C2267 1.414 . S
C2266 C2269 1.499 . S
C2267 H2241 0.950 . S
C2267 C2266 1.414 . S
C2267 C2268 1.374 . S
C2268 H2242 0.950 . S
C2268 C2264 1.385 . S
C2268 C2267 1.374 . S
C2269 C2266 1.499 . S
C2269 C2270 1.373 . S
C2269 C2271 1.389 . S
C2270 H2243 0.950 . S
C2270 C2256 1.377 . S
C2270 C2269 1.373 . S
C2271 C2255 1.377 . S
C2271 C2269 1.389 . S
C2271 C2272 1.524 . S
C2272 C2271 1.524 . S
C2272 C2273 1.397 . S
C2272 C2277 1.363 . S
C2273 H2244 0.950 . S
C2273 C2272 1.397 . S
C2273 C2274 1.334 . S
C2274 H2245 0.950 . S
C2274 C2273 1.334 . S
C2274 C2275 1.287 . S
C2275 C2274 1.287 . S
C2275 C2276 1.524 . S
C2275 H2278 0.999 . S
C2276 H2246 0.950 . S
C2276 C2275 1.524 . S
C2276 C2277 1.415 . S
C2277 H2247 0.950 . S
C2277 C2272 1.363 . S
C2277 C2276 1.415 . S
H2278 C2275 0.999 . S
H2279 C2260 0.913 . S
H2280 C2298 0.951 . S
H2281 C2300 0.951 . S
H2282 C2302 0.950 1_455 S
H2283 C2303 0.950 . S
H2284 C2305 0.950 . S
H2285 C2308 0.950 . S
H2286 C2309 0.950 . S
H2287 C2311 0.950 . S
H2288 C2312 0.950 . S
H2289 C2313 0.951 . S
H2290 C2315 0.951 . S
H2291 C2317 0.950 1_655 S
H2292 C2318 0.950 . S
H2293 C2320 0.950 . S
H2294 C2323 0.950 . S
H2295 C2324 0.915 1_565 S
H2296 C2326 0.950 . S
H2297 C2327 0.950 . S
C2298 H2280 0.951 . S
C2298 C2299 1.366 . S
C2298 C2300 1.388 . S
C2299 C2298 1.366 . S
C2299 C2303 1.385 . S
C2300 H2281 0.951 . S
C2300 C2298 1.388 . S
C2300 C2301 1.366 . S
C2301 C2300 1.366 . S
C2301 C2302 1.414 . S
C2301 C2304 1.499 . S
C2302 H2282 0.950 1_655 S
C2302 C2301 1.414 . S
C2302 C2303 1.374 . S
C2303 H2283 0.950 . S
C2303 C2299 1.385 . S
C2303 C2302 1.374 . S
C2304 C2301 1.499 . S
C2304 C2305 1.373 1_655 S
C2304 C2306 1.389 . S
C2305 H2284 0.950 . S
C2305 C2304 1.373 1_455 S
C2305 C2321 1.377 . S
C2306 C2304 1.389 . S
C2306 C2307 1.524 . S
C2306 C2320 1.377 . S
C2307 C2306 1.524 . S
C2307 C2308 1.397 . S
C2307 C2312 1.363 . S
C2308 H2285 0.950 . S
C2308 C2307 1.397 . S
C2308 C2309 1.334 . S
C2309 H2286 0.950 . S
C2309 C2308 1.334 . S
C2309 C2310 1.287 . S
C2310 C2309 1.287 . S
C2310 C2311 1.524 . S
C2310 H2329 0.913 . S
C2311 H2287 0.950 . S
C2311 C2310 1.524 . S
C2311 C2312 1.415 . S
C2312 H2288 0.950 . S
C2312 C2307 1.363 . S
C2312 C2311 1.415 . S
C2313 H2289 0.951 . S
C2313 C2314 1.366 . S
C2313 C2315 1.388 . S
C2314 C2313 1.366 . S
C2314 C2318 1.385 . S
C2315 H2290 0.951 . S
C2315 C2313 1.388 . S
C2315 C2316 1.366 . S
C2316 C2315 1.366 . S
C2316 C2317 1.414 . S
C2316 C2319 1.499 . S
C2317 H2291 0.950 1_455 S
C2317 C2316 1.414 . S
C2317 C2318 1.374 . S
C2318 H2292 0.950 . S
C2318 C2314 1.385 . S
C2318 C2317 1.374 . S
C2319 C2316 1.499 . S
C2319 C2320 1.373 1_455 S
C2319 C2321 1.389 . S
C2320 H2293 0.950 . S
C2320 C2306 1.377 . S
C2320 C2319 1.373 1_655 S
C2321 C2305 1.377 . S
C2321 C2319 1.389 . S
C2321 C2322 1.524 . S
C2322 C2321 1.524 . S
C2322 C2323 1.397 . S
C2322 C2327 1.363 . S
C2323 H2294 0.950 . S
C2323 C2322 1.397 . S
C2323 C2324 1.368 . S
C2324 H2295 0.915 1_545 S
C2324 C2323 1.368 . S
C2324 C2325 1.291 . S
C2325 C2324 1.291 . S
C2325 C2326 1.524 . S
C2325 H2328 0.999 1_545 S
C2326 H2296 0.950 . S
C2326 C2325 1.524 . S
C2326 C2327 1.415 . S
C2327 H2297 0.950 . S
C2327 C2322 1.363 . S
C2327 C2326 1.415 . S
H2328 C2325 0.999 1_565 S
H2329 C2310 0.913 . S
H2330 C2348 0.951 . S
H2331 C2350 0.951 . S
H2332 C2352 0.950 . S
H2333 C2353 0.950 . S
H2334 C2355 0.950 . S
H2335 C2358 0.950 . S
H2336 C2359 0.950 . S
H2337 C2361 0.950 . S
H2338 C2362 0.950 . S
H2339 C2363 0.951 . S
H2340 C2365 0.951 . S
H2341 C2367 0.950 . S
H2342 C2368 0.950 . S
H2343 C2370 0.950 . S
H2344 C2373 0.950 . S
H2345 C2374 0.950 . S
H2346 C2376 0.950 . S
H2347 C2377 0.950 . S
C2348 H2330 0.951 . S
C2348 C2349 1.366 . S
C2348 C2350 1.388 . S
C2349 C2348 1.366 . S
C2349 C2353 1.385 . S
C2350 H2331 0.951 . S
C2350 C2348 1.388 . S
C2350 C2351 1.366 . S
C2351 C2350 1.366 . S
C2351 C2352 1.414 . S
C2351 C2354 1.499 . S
C2352 H2332 0.950 . S
C2352 C2351 1.414 . S
C2352 C2353 1.374 . S
C2353 H2333 0.950 . S
C2353 C2349 1.385 . S
C2353 C2352 1.374 . S
C2354 C2351 1.499 . S
C2354 C2355 1.373 . S
C2354 C2356 1.389 . S
C2355 H2334 0.950 . S
C2355 C2354 1.373 . S
C2355 C2371 1.377 . S
C2356 C2354 1.389 . S
C2356 C2357 1.524 . S
C2356 C2370 1.377 . S
C2357 C2356 1.524 . S
C2357 C2358 1.397 . S
C2357 C2362 1.363 . S
C2358 H2335 0.950 . S
C2358 C2357 1.397 . S
C2358 C2359 1.334 . S
C2359 H2336 0.950 . S
C2359 C2358 1.334 . S
C2359 C2360 1.287 . S
C2360 C2359 1.287 . S
C2360 C2361 1.524 . S
C2360 H2379 0.913 . S
C2361 H2337 0.950 . S
C2361 C2360 1.524 . S
C2361 C2362 1.415 . S
C2362 H2338 0.950 . S
C2362 C2357 1.363 . S
C2362 C2361 1.415 . S
C2363 H2339 0.951 . S
C2363 C2364 1.366 . S
C2363 C2365 1.388 . S
C2364 C2363 1.366 . S
C2364 C2368 1.385 . S
C2365 H2340 0.951 . S
C2365 C2363 1.388 . S
C2365 C2366 1.366 . S
C2366 C2365 1.366 . S
C2366 C2367 1.414 . S
C2366 C2369 1.499 . S
C2367 H2341 0.950 . S
C2367 C2366 1.414 . S
C2367 C2368 1.374 . S
C2368 H2342 0.950 . S
C2368 C2364 1.385 . S
C2368 C2367 1.374 . S
C2369 C2366 1.499 . S
C2369 C2370 1.373 . S
C2369 C2371 1.389 . S
C2370 H2343 0.950 . S
C2370 C2356 1.377 . S
C2370 C2369 1.373 . S
C2371 C2355 1.377 . S
C2371 C2369 1.389 . S
C2371 C2372 1.524 . S
C2372 C2371 1.524 . S
C2372 C2373 1.397 . S
C2372 C2377 1.363 . S
C2373 H2344 0.950 . S
C2373 C2372 1.397 . S
C2373 C2374 1.334 . S
C2374 H2345 0.950 . S
C2374 C2373 1.334 . S
C2374 C2375 1.287 . S
C2375 C2374 1.287 . S
C2375 C2376 1.524 . S
C2375 H2378 0.999 . S
C2376 H2346 0.950 . S
C2376 C2375 1.524 . S
C2376 C2377 1.415 . S
C2377 H2347 0.950 . S
C2377 C2372 1.363 . S
C2377 C2376 1.415 . S
H2378 C2375 0.999 . S
H2379 C2360 0.913 . S
H2380 C2398 0.951 . S
H2381 C2400 0.951 . S
H2382 C2402 0.950 . S
H2383 C2403 0.950 . S
H2384 C2405 0.950 . S
H2385 C2408 0.950 . S
H2386 C2409 0.950 . S
H2387 C2411 0.950 . S
H2388 C2412 0.948 1_545 S
H2389 C2413 0.951 . S
H2390 C2415 0.951 . S
H2391 C2417 0.950 . S
H2392 C2418 0.950 . S
H2393 C2420 0.950 . S
H2394 C2423 0.950 . S
H2395 C2424 0.950 . S
H2396 C2426 0.950 . S
H2397 C2427 0.950 . S
C2398 H2380 0.951 . S
C2398 C2399 1.366 . S
C2398 C2400 1.388 . S
C2399 C2398 1.366 . S
C2399 C2403 1.385 . S
C2400 H2381 0.951 . S
C2400 C2398 1.388 . S
C2400 C2401 1.366 . S
C2401 C2400 1.366 . S
C2401 C2402 1.414 . S
C2401 C2404 1.499 . S
C2402 H2382 0.950 . S
C2402 C2401 1.414 . S
C2402 C2403 1.374 . S
C2403 H2383 0.950 . S
C2403 C2399 1.385 . S
C2403 C2402 1.374 . S
C2404 C2401 1.499 . S
C2404 C2405 1.373 . S
C2404 C2406 1.389 . S
C2405 H2384 0.950 . S
C2405 C2404 1.373 . S
C2405 C2421 1.377 . S
C2406 C2404 1.389 . S
C2406 C2407 1.524 . S
C2406 C2420 1.377 . S
C2407 C2406 1.524 . S
C2407 C2408 1.397 . S
C2407 C2412 1.350 1_545 S
C2408 H2385 0.950 . S
C2408 C2407 1.397 . S
C2408 C2409 1.334 1_545 S
C2409 H2386 0.950 . S
C2409 C2408 1.334 1_565 S
C2409 C2410 1.287 . S
C2410 C2409 1.287 . S
C2410 C2411 1.524 . S
C2410 H2429 0.913 . S
C2411 H2387 0.950 . S
C2411 C2410 1.524 . S
C2411 C2412 1.430 . S
C2412 H2388 0.948 1_565 S
C2412 C2407 1.350 1_565 S
C2412 C2411 1.430 . S
C2413 H2389 0.951 . S
C2413 C2414 1.366 . S
C2413 C2415 1.388 . S
C2414 C2413 1.366 . S
C2414 C2418 1.385 . S
C2415 H2390 0.951 . S
C2415 C2413 1.388 . S
C2415 C2416 1.366 . S
C2416 C2415 1.366 . S
C2416 C2417 1.414 . S
C2416 C2419 1.499 . S
C2417 H2391 0.950 . S
C2417 C2416 1.414 . S
C2417 C2418 1.374 . S
C2418 H2392 0.950 . S
C2418 C2414 1.385 . S
C2418 C2417 1.374 . S
C2419 C2416 1.499 . S
C2419 C2420 1.373 . S
C2419 C2421 1.389 . S
C2420 H2393 0.950 . S
C2420 C2406 1.377 . S
C2420 C2419 1.373 . S
C2421 C2405 1.377 . S
C2421 C2419 1.389 . S
C2421 C2422 1.524 . S
C2422 C2421 1.524 . S
C2422 C2423 1.397 . S
C2422 C2427 1.363 . S
C2423 H2394 0.950 . S
C2423 C2422 1.397 . S
C2423 C2424 1.334 . S
C2424 H2395 0.950 . S
C2424 C2423 1.334 . S
C2424 C2425 1.287 . S
C2425 C2424 1.287 . S
C2425 C2426 1.524 . S
C2425 H2428 0.999 . S
C2426 H2396 0.950 . S
C2426 C2425 1.524 . S
C2426 C2427 1.415 . S
C2427 H2397 0.950 . S
C2427 C2422 1.363 . S
C2427 C2426 1.415 . S
H2428 C2425 0.999 . S
H2429 C2410 0.913 . S
H2430 C2448 0.951 . S
H2431 C2450 0.951 . S
H2432 C2452 0.950 . S
H2433 C2453 0.950 . S
H2434 C2455 0.950 . S
H2435 C2458 0.950 . S
H2436 C2459 0.950 . S
H2437 C2461 0.950 . S
H2438 C2462 0.950 . S
H2439 C2463 0.951 . S
H2440 C2465 0.951 . S
H2441 C2467 0.950 . S
H2442 C2468 0.950 . S
H2443 C2470 0.950 . S
H2444 C2473 0.950 . S
H2445 C2474 0.950 . S
H2446 C2476 0.950 . S
H2447 C2477 0.950 . S
C2448 H2430 0.951 . S
C2448 C2449 1.366 . S
C2448 C2450 1.388 . S
C2449 C2448 1.366 . S
C2449 C2453 1.385 . S
C2450 H2431 0.951 . S
C2450 C2448 1.388 . S
C2450 C2451 1.366 . S
C2451 C2450 1.366 . S
C2451 C2452 1.414 . S
C2451 C2454 1.499 . S
C2452 H2432 0.950 . S
C2452 C2451 1.414 . S
C2452 C2453 1.374 . S
C2453 H2433 0.950 . S
C2453 C2449 1.385 . S
C2453 C2452 1.374 . S
C2454 C2451 1.499 . S
C2454 C2455 1.373 . S
C2454 C2456 1.389 . S
C2455 H2434 0.950 . S
C2455 C2454 1.373 . S
C2455 C2471 1.377 . S
C2456 C2454 1.389 . S
C2456 C2457 1.524 . S
C2456 C2470 1.377 . S
C2457 C2456 1.524 . S
C2457 C2458 1.397 . S
C2457 C2462 1.363 . S
C2458 H2435 0.950 . S
C2458 C2457 1.397 . S
C2458 C2459 1.334 . S
C2459 H2436 0.950 . S
C2459 C2458 1.334 . S
C2459 C2460 1.287 . S
C2460 C2459 1.287 . S
C2460 C2461 1.524 . S
C2460 H2479 0.913 . S
C2461 H2437 0.950 . S
C2461 C2460 1.524 . S
C2461 C2462 1.415 . S
C2462 H2438 0.950 . S
C2462 C2457 1.363 . S
C2462 C2461 1.415 . S
C2463 H2439 0.951 . S
C2463 C2464 1.366 . S
C2463 C2465 1.388 . S
C2464 C2463 1.366 . S
C2464 C2468 1.385 . S
C2465 H2440 0.951 . S
C2465 C2463 1.388 . S
C2465 C2466 1.366 . S
C2466 C2465 1.366 . S
C2466 C2467 1.414 . S
C2466 C2469 1.499 . S
C2467 H2441 0.950 . S
C2467 C2466 1.414 . S
C2467 C2468 1.374 . S
C2468 H2442 0.950 . S
C2468 C2464 1.385 . S
C2468 C2467 1.374 . S
C2469 C2466 1.499 . S
C2469 C2470 1.373 . S
C2469 C2471 1.389 . S
C2470 H2443 0.950 . S
C2470 C2456 1.377 . S
C2470 C2469 1.373 . S
C2471 C2455 1.377 . S
C2471 C2469 1.389 . S
C2471 C2472 1.524 . S
C2472 C2471 1.524 . S
C2472 C2473 1.397 . S
C2472 C2477 1.363 . S
C2473 H2444 0.950 . S
C2473 C2472 1.397 . S
C2473 C2474 1.334 . S
C2474 H2445 0.950 . S
C2474 C2473 1.334 . S
C2474 C2475 1.287 . S
C2475 C2474 1.287 . S
C2475 C2476 1.524 . S
C2475 H2478 0.999 . S
C2476 H2446 0.950 . S
C2476 C2475 1.524 . S
C2476 C2477 1.415 . S
C2477 H2447 0.950 . S
C2477 C2472 1.363 . S
C2477 C2476 1.415 . S
H2478 C2475 0.999 . S
H2479 C2460 0.913 . S
H2480 C2498 0.951 . S
H2481 C2500 0.951 . S
H2482 C2502 0.950 . S
H2483 C2503 0.950 . S
H2484 C2505 0.950 . S
H2485 C2508 0.950 . S
H2486 C2509 0.950 . S
H2487 C2511 0.950 . S
H2488 C2512 0.950 . S
H2489 C2513 0.951 . S
H2490 C2515 0.951 . S
H2491 C2517 0.950 . S
H2492 C2518 0.950 . S
H2493 C2520 0.950 . S
H2494 C2523 0.950 1_565 S
H2495 C2524 0.950 . S
H2496 C2526 0.950 . S
H2497 C2527 0.950 . S
C2498 H2480 0.951 . S
C2498 C2499 1.366 . S
C2498 C2500 1.388 . S
C2499 C2498 1.366 . S
C2499 C2503 1.385 . S
C2500 H2481 0.951 . S
C2500 C2498 1.388 . S
C2500 C2501 1.366 . S
C2501 C2500 1.366 . S
C2501 C2502 1.414 . S
C2501 C2504 1.499 . S
C2502 H2482 0.950 . S
C2502 C2501 1.414 . S
C2502 C2503 1.374 . S
C2503 H2483 0.950 . S
C2503 C2499 1.385 . S
C2503 C2502 1.374 . S
C2504 C2501 1.499 . S
C2504 C2505 1.373 . S
C2504 C2506 1.389 . S
C2505 H2484 0.950 . S
C2505 C2504 1.373 . S
C2505 C2521 1.377 . S
C2506 C2504 1.389 . S
C2506 C2507 1.524 1_554 S
C2506 C2520 1.377 . S
C2507 C2506 1.524 1_556 S
C2507 C2508 1.397 . S
C2507 C2512 1.363 . S
C2508 H2485 0.950 . S
C2508 C2507 1.397 . S
C2508 C2509 1.334 . S
C2509 H2486 0.950 . S
C2509 C2508 1.334 . S
C2509 C2510 1.287 . S
C2510 C2509 1.287 . S
C2510 C2511 1.524 . S
C2510 H2529 0.913 . S
C2511 H2487 0.950 . S
C2511 C2510 1.524 . S
C2511 C2512 1.415 . S
C2512 H2488 0.950 . S
C2512 C2507 1.363 . S
C2512 C2511 1.415 . S
C2513 H2489 0.951 . S
C2513 C2514 1.366 . S
C2513 C2515 1.388 . S
C2514 C2513 1.366 . S
C2514 C2518 1.385 1_545 S
C2515 H2490 0.951 . S
C2515 C2513 1.388 . S
C2515 C2516 1.366 1_545 S
C2516 C2515 1.366 1_565 S
C2516 C2517 1.414 . S
C2516 C2519 1.499 . S
C2517 H2491 0.950 . S
C2517 C2516 1.414 . S
C2517 C2518 1.374 . S
C2518 H2492 0.950 . S
C2518 C2514 1.385 1_565 S
C2518 C2517 1.374 . S
C2519 C2516 1.499 . S
C2519 C2520 1.373 . S
C2519 C2521 1.389 . S
C2520 H2493 0.950 . S
C2520 C2506 1.377 . S
C2520 C2519 1.373 . S
C2521 C2505 1.377 . S
C2521 C2519 1.389 . S
C2521 C2522 1.524 1_565 S
C2522 C2521 1.524 1_545 S
C2522 C2523 1.397 . S
C2522 C2527 1.363 . S
C2523 H2494 0.950 1_545 S
C2523 C2522 1.397 . S
C2523 C2524 1.334 . S
C2524 H2495 0.950 . S
C2524 C2523 1.334 . S
C2524 C2525 1.287 . S
C2525 C2524 1.287 . S
C2525 C2526 1.524 . S
C2525 H2528 0.999 . S
C2526 H2496 0.950 . S
C2526 C2525 1.524 . S
C2526 C2527 1.415 . S
C2527 H2497 0.950 . S
C2527 C2522 1.363 . S
C2527 C2526 1.415 . S
H2528 C2525 0.999 . S
H2529 C2510 0.913 . S
H2530 C2548 0.951 . S
H2531 C2550 0.952 . S
H2532 C2552 0.950 . S
H2533 C2553 0.950 . S
H2534 C2555 0.950 . S
H2535 C2558 0.950 . S
H2536 C2559 0.950 . S
H2537 C2561 0.950 . S
H2538 C2562 0.950 . S
H2539 C2563 0.951 . S
H2540 C2565 0.951 1_556 S
H2541 C2567 0.950 . S
H2542 C2568 0.950 . S
H2543 C2570 0.950 . S
H2544 C2573 0.950 . S
H2545 C2574 0.950 . S
H2546 C2576 0.950 . S
H2547 C2577 0.950 . S
C2548 H2530 0.951 . S
C2548 C2549 1.366 . S
C2548 C2550 1.388 . S
C2549 C2548 1.366 . S
C2549 C2553 1.385 . S
C2550 H2531 0.952 . S
C2550 C2548 1.388 . S
C2550 C2551 1.366 . S
C2551 C2550 1.366 . S
C2551 C2552 1.414 . S
C2551 C2554 1.500 . S
C2552 H2532 0.950 . S
C2552 C2551 1.414 . S
C2552 C2553 1.374 . S
C2553 H2533 0.950 . S
C2553 C2549 1.385 . S
C2553 C2552 1.374 . S
C2554 C2551 1.500 . S
C2554 C2555 1.377 . S
C2554 C2556 1.385 1_556 S
C2555 H2534 0.950 . S
C2555 C2554 1.377 . S
C2555 C2571 1.377 . S
C2556 C2554 1.385 1_554 S
C2556 C2557 1.524 . S
C2556 C2570 1.377 . S
C2557 C2556 1.524 . S
C2557 C2558 1.397 . S
C2557 C2562 1.363 . S
C2558 H2535 0.950 . S
C2558 C2557 1.397 . S
C2558 C2559 1.334 . S
C2559 H2536 0.950 . S
C2559 C2558 1.334 . S
C2559 C2560 1.287 . S
C2560 C2559 1.287 . S
C2560 C2561 1.524 . S
C2560 H2579 0.913 . S
C2561 H2537 0.950 . S
C2561 C2560 1.524 . S
C2561 C2562 1.415 . S
C2562 H2538 0.950 . S
C2562 C2557 1.363 . S
C2562 C2561 1.415 . S
C2563 H2539 0.951 . S
C2563 C2564 1.366 . S
C2563 C2565 1.392 . S
C2564 C2563 1.366 . S
C2564 C2568 1.385 . S
C2565 H2540 0.951 1_554 S
C2565 C2563 1.392 . S
C2565 C2566 1.364 . S
C2566 C2565 1.364 . S
C2566 C2567 1.414 . S
C2566 C2569 1.489 1_554 S
C2567 H2541 0.950 . S
C2567 C2566 1.414 . S
C2567 C2568 1.374 . S
C2568 H2542 0.950 . S
C2568 C2564 1.385 . S
C2568 C2567 1.374 . S
C2569 C2566 1.489 1_556 S
C2569 C2570 1.351 1_556 S
C2569 C2571 1.418 . S
C2570 H2543 0.950 . S
C2570 C2556 1.377 . S
C2570 C2569 1.351 1_554 S
C2571 C2555 1.377 . S
C2571 C2569 1.418 . S
C2571 C2572 1.524 . S
C2572 C2571 1.524 . S
C2572 C2573 1.397 . S
C2572 C2577 1.363 . S
C2573 H2544 0.950 . S
C2573 C2572 1.397 . S
C2573 C2574 1.334 . S
C2574 H2545 0.950 . S
C2574 C2573 1.334 . S
C2574 C2575 1.287 . S
C2575 C2574 1.287 . S
C2575 C2576 1.524 . S
C2575 H2578 0.999 . S
C2576 H2546 0.950 . S
C2576 C2575 1.524 . S
C2576 C2577 1.415 . S
C2577 H2547 0.950 . S
C2577 C2572 1.363 . S
C2577 C2576 1.415 . S
H2578 C2575 0.999 . S
H2579 C2560 0.913 . S
H2580 C2598 0.951 . S
H2581 C2600 0.951 . S
H2582 C2602 0.950 . S
H2583 C2603 0.950 . S
H2584 C2605 0.950 . S
H2585 C2608 0.950 . S
H2586 C2609 0.950 . S
H2587 C2611 0.950 . S
H2588 C2612 0.950 . S
H2589 C2613 0.951 . S
H2590 C2615 0.951 . S
H2591 C2617 0.950 . S
H2592 C2618 0.950 . S
H2593 C2620 0.950 . S
H2594 C2623 0.950 . S
H2595 C2624 0.950 . S
H2596 C2626 0.950 . S
H2597 C2627 0.950 . S
C2598 H2580 0.951 . S
C2598 C2599 1.366 . S
C2598 C2600 1.388 . S
C2599 C2598 1.366 . S
C2599 C2603 1.385 . S
C2600 H2581 0.951 . S
C2600 C2598 1.388 . S
C2600 C2601 1.366 . S
C2601 C2600 1.366 . S
C2601 C2602 1.414 . S
C2601 C2604 1.499 . S
C2602 H2582 0.950 . S
C2602 C2601 1.414 . S
C2602 C2603 1.374 . S
C2603 H2583 0.950 . S
C2603 C2599 1.385 . S
C2603 C2602 1.374 . S
C2604 C2601 1.499 . S
C2604 C2605 1.373 . S
C2604 C2606 1.389 . S
C2605 H2584 0.950 . S
C2605 C2604 1.373 . S
C2605 C2621 1.377 . S
C2606 C2604 1.389 . S
C2606 C2607 1.524 . S
C2606 C2620 1.377 . S
C2607 C2606 1.524 . S
C2607 C2608 1.397 . S
C2607 C2612 1.363 . S
C2608 H2585 0.950 . S
C2608 C2607 1.397 . S
C2608 C2609 1.334 . S
C2609 H2586 0.950 . S
C2609 C2608 1.334 . S
C2609 C2610 1.287 . S
C2610 C2609 1.287 . S
C2610 C2611 1.524 . S
C2610 H2629 0.913 . S
C2611 H2587 0.950 . S
C2611 C2610 1.524 . S
C2611 C2612 1.415 . S
C2612 H2588 0.950 . S
C2612 C2607 1.363 . S
C2612 C2611 1.415 . S
C2613 H2589 0.951 . S
C2613 C2614 1.366 . S
C2613 C2615 1.388 . S
C2614 C2613 1.366 . S
C2614 C2618 1.385 . S
C2615 H2590 0.951 . S
C2615 C2613 1.388 . S
C2615 C2616 1.366 . S
C2616 C2615 1.366 . S
C2616 C2617 1.414 . S
C2616 C2619 1.499 . S
C2617 H2591 0.950 . S
C2617 C2616 1.414 . S
C2617 C2618 1.374 . S
C2618 H2592 0.950 . S
C2618 C2614 1.385 . S
C2618 C2617 1.374 . S
C2619 C2616 1.499 . S
C2619 C2620 1.373 . S
C2619 C2621 1.389 . S
C2620 H2593 0.950 . S
C2620 C2606 1.377 . S
C2620 C2619 1.373 . S
C2621 C2605 1.377 . S
C2621 C2619 1.389 . S
C2621 C2622 1.524 . S
C2622 C2621 1.524 . S
C2622 C2623 1.397 . S
C2622 C2627 1.363 . S
C2623 H2594 0.950 . S
C2623 C2622 1.397 . S
C2623 C2624 1.334 . S
C2624 H2595 0.950 . S
C2624 C2623 1.334 . S
C2624 C2625 1.287 . S
C2625 C2624 1.287 . S
C2625 C2626 1.524 . S
C2625 H2628 0.999 . S
C2626 H2596 0.950 . S
C2626 C2625 1.524 . S
C2626 C2627 1.415 . S
C2627 H2597 0.950 . S
C2627 C2622 1.363 . S
C2627 C2626 1.415 . S
H2628 C2625 0.999 . S
H2629 C2610 0.913 . S
H2630 C2648 0.951 . S
H2631 C2650 0.951 . S
H2632 C2652 0.950 . S
H2633 C2653 0.950 . S
H2634 C2655 0.950 . S
H2635 C2658 0.950 . S
H2636 C2659 0.950 . S
H2637 C2661 0.950 . S
H2638 C2662 0.950 . S
H2639 C2663 0.951 1_455 S
H2640 C2665 0.951 . S
H2641 C2667 0.950 . S
H2642 C2668 0.950 . S
H2643 C2670 0.950 . S
H2644 C2673 0.950 . S
H2645 C2674 0.950 . S
H2646 C2676 0.950 . S
H2647 C2677 0.950 . S
C2648 H2630 0.951 . S
C2648 C2649 1.366 . S
C2648 C2650 1.388 . S
C2649 C2648 1.366 . S
C2649 C2653 1.385 . S
C2650 H2631 0.951 . S
C2650 C2648 1.388 . S
C2650 C2651 1.366 . S
C2651 C2650 1.366 . S
C2651 C2652 1.414 . S
C2651 C2654 1.499 . S
C2652 H2632 0.950 . S
C2652 C2651 1.414 . S
C2652 C2653 1.374 . S
C2653 H2633 0.950 . S
C2653 C2649 1.385 . S
C2653 C2652 1.374 . S
C2654 C2651 1.499 . S
C2654 C2655 1.373 . S
C2654 C2656 1.389 . S
C2655 H2634 0.950 . S
C2655 C2654 1.373 . S
C2655 C2671 1.377 . S
C2656 C2654 1.389 . S
C2656 C2657 1.524 . S
C2656 C2670 1.377 . S
C2657 C2656 1.524 . S
C2657 C2658 1.397 . S
C2657 C2662 1.363 . S
C2658 H2635 0.950 . S
C2658 C2657 1.397 . S
C2658 C2659 1.334 . S
C2659 H2636 0.950 . S
C2659 C2658 1.334 . S
C2659 C2660 1.287 . S
C2660 C2659 1.287 . S
C2660 C2661 1.524 . S
C2660 H2679 0.913 . S
C2661 H2637 0.950 . S
C2661 C2660 1.524 . S
C2661 C2662 1.415 . S
C2662 H2638 0.950 . S
C2662 C2657 1.363 . S
C2662 C2661 1.415 . S
C2663 H2639 0.951 1_655 S
C2663 C2664 1.366 1_655 S
C2663 C2665 1.388 . S
C2664 C2663 1.366 1_455 S
C2664 C2668 1.385 . S
C2665 H2640 0.951 . S
C2665 C2663 1.388 . S
C2665 C2666 1.366 . S
C2666 C2665 1.366 . S
C2666 C2667 1.414 . S
C2666 C2669 1.499 . S
C2667 H2641 0.950 . S
C2667 C2666 1.414 . S
C2667 C2668 1.374 1_655 S
C2668 H2642 0.950 . S
C2668 C2664 1.385 . S
C2668 C2667 1.374 1_455 S
C2669 C2666 1.499 . S
C2669 C2670 1.373 . S
C2669 C2671 1.389 . S
C2670 H2643 0.950 . S
C2670 C2656 1.377 . S
C2670 C2669 1.373 . S
C2671 C2655 1.377 . S
C2671 C2669 1.389 . S
C2671 C2672 1.524 . S
C2672 C2671 1.524 . S
C2672 C2673 1.397 . S
C2672 C2677 1.363 . S
C2673 H2644 0.950 . S
C2673 C2672 1.397 . S
C2673 C2674 1.334 . S
C2674 H2645 0.950 . S
C2674 C2673 1.334 . S
C2674 C2675 1.287 . S
C2675 C2674 1.287 . S
C2675 C2676 1.524 . S
C2675 H2678 0.999 . S
C2676 H2646 0.950 . S
C2676 C2675 1.524 . S
C2676 C2677 1.415 . S
C2677 H2647 0.950 . S
C2677 C2672 1.363 . S
C2677 C2676 1.415 . S
H2678 C2675 0.999 . S
H2679 C2660 0.913 . S
H2680 C2698 0.951 . S
H2681 C2700 0.951 . S
H2682 C2702 0.950 . S
H2683 C2703 0.950 . S
H2684 C2705 0.950 . S
H2685 C2708 0.950 . S
H2686 C2709 0.950 . S
H2687 C2711 0.950 . S
H2688 C2712 0.950 . S
H2689 C2713 0.951 . S
H2690 C2715 0.951 . S
H2691 C2717 0.950 . S
H2692 C2718 0.950 . S
H2693 C2720 0.950 . S
H2694 C2723 0.950 . S
H2695 C2724 0.950 . S
H2696 C2726 0.950 . S
H2697 C2727 0.950 . S
C2698 H2680 0.951 . S
C2698 C2699 1.366 . S
C2698 C2700 1.388 . S
C2699 C2698 1.366 . S
C2699 C2703 1.385 . S
C2700 H2681 0.951 . S
C2700 C2698 1.388 . S
C2700 C2701 1.366 . S
C2701 C2700 1.366 . S
C2701 C2702 1.414 . S
C2701 C2704 1.499 . S
C2702 H2682 0.950 . S
C2702 C2701 1.414 . S
C2702 C2703 1.374 . S
C2703 H2683 0.950 . S
C2703 C2699 1.385 . S
C2703 C2702 1.374 . S
C2704 C2701 1.499 . S
C2704 C2705 1.373 . S
C2704 C2706 1.389 . S
C2705 H2684 0.950 . S
C2705 C2704 1.373 . S
C2705 C2721 1.377 . S
C2706 C2704 1.389 . S
C2706 C2707 1.524 . S
C2706 C2720 1.377 . S
C2707 C2706 1.524 . S
C2707 C2708 1.397 . S
C2707 C2712 1.363 . S
C2708 H2685 0.950 . S
C2708 C2707 1.397 . S
C2708 C2709 1.334 . S
C2709 H2686 0.950 . S
C2709 C2708 1.334 . S
C2709 C2710 1.287 . S
C2710 C2709 1.287 . S
C2710 C2711 1.524 . S
C2710 H2729 0.913 . S
C2711 H2687 0.950 . S
C2711 C2710 1.524 . S
C2711 C2712 1.415 . S
C2712 H2688 0.950 . S
C2712 C2707 1.363 . S
C2712 C2711 1.415 . S
C2713 H2689 0.951 . S
C2713 C2714 1.366 . S
C2713 C2715 1.388 . S
C2714 C2713 1.366 . S
C2714 C2718 1.385 . S
C2715 H2690 0.951 . S
C2715 C2713 1.388 . S
C2715 C2716 1.366 . S
C2716 C2715 1.366 . S
C2716 C2717 1.414 . S
C2716 C2719 1.499 . S
C2717 H2691 0.950 . S
C2717 C2716 1.414 . S
C2717 C2718 1.374 . S
C2718 H2692 0.950 . S
C2718 C2714 1.385 . S
C2718 C2717 1.374 . S
C2719 C2716 1.499 . S
C2719 C2720 1.373 . S
C2719 C2721 1.389 . S
C2720 H2693 0.950 . S
C2720 C2706 1.377 . S
C2720 C2719 1.373 . S
C2721 C2705 1.377 . S
C2721 C2719 1.389 . S
C2721 C2722 1.524 . S
C2722 C2721 1.524 . S
C2722 C2723 1.397 . S
C2722 C2727 1.363 . S
C2723 H2694 0.950 . S
C2723 C2722 1.397 . S
C2723 C2724 1.334 . S
C2724 H2695 0.950 . S
C2724 C2723 1.334 . S
C2724 C2725 1.287 . S
C2725 C2724 1.287 . S
C2725 C2726 1.524 . S
C2725 H2728 0.999 . S
C2726 H2696 0.950 . S
C2726 C2725 1.524 . S
C2726 C2727 1.415 . S
C2727 H2697 0.950 . S
C2727 C2722 1.363 . S
C2727 C2726 1.415 . S
H2728 C2725 0.999 . S
H2729 C2710 0.913 . S
H2730 C2748 0.951 . S
H2731 C2750 0.951 . S
H2732 C2752 0.950 . S
H2733 C2753 0.950 . S
H2734 C2755 0.950 . S
H2735 C2758 0.950 . S
H2736 C2759 0.950 . S
H2737 C2761 0.950 . S
H2738 C2762 0.950 . S
H2739 C2763 0.951 . S
H2740 C2765 0.951 . S
H2741 C2767 0.950 . S
H2742 C2768 0.950 . S
H2743 C2770 0.950 . S
H2744 C2773 0.950 . S
H2745 C2774 0.950 . S
H2746 C2776 0.950 . S
H2747 C2777 0.950 . S
C2748 H2730 0.951 . S
C2748 C2749 1.366 . S
C2748 C2750 1.388 . S
C2749 C2748 1.366 . S
C2749 C2753 1.385 . S
C2750 H2731 0.951 . S
C2750 C2748 1.388 . S
C2750 C2751 1.366 . S
C2751 C2750 1.366 . S
C2751 C2752 1.414 . S
C2751 C2754 1.499 . S
C2752 H2732 0.950 . S
C2752 C2751 1.414 . S
C2752 C2753 1.374 . S
C2753 H2733 0.950 . S
C2753 C2749 1.385 . S
C2753 C2752 1.374 . S
C2754 C2751 1.499 . S
C2754 C2755 1.373 . S
C2754 C2756 1.389 . S
C2755 H2734 0.950 . S
C2755 C2754 1.373 . S
C2755 C2771 1.377 . S
C2756 C2754 1.389 . S
C2756 C2757 1.524 . S
C2756 C2770 1.377 . S
C2757 C2756 1.524 . S
C2757 C2758 1.397 . S
C2757 C2762 1.363 . S
C2758 H2735 0.950 . S
C2758 C2757 1.397 . S
C2758 C2759 1.334 . S
C2759 H2736 0.950 . S
C2759 C2758 1.334 . S
C2759 C2760 1.287 . S
C2760 C2759 1.287 . S
C2760 C2761 1.524 . S
C2760 H2779 0.913 . S
C2761 H2737 0.950 . S
C2761 C2760 1.524 . S
C2761 C2762 1.415 . S
C2762 H2738 0.950 . S
C2762 C2757 1.363 . S
C2762 C2761 1.415 . S
C2763 H2739 0.951 . S
C2763 C2764 1.366 . S
C2763 C2765 1.388 . S
C2764 C2763 1.366 . S
C2764 C2768 1.385 . S
C2765 H2740 0.951 . S
C2765 C2763 1.388 . S
C2765 C2766 1.366 . S
C2766 C2765 1.366 . S
C2766 C2767 1.414 . S
C2766 C2769 1.499 . S
C2767 H2741 0.950 . S
C2767 C2766 1.414 . S
C2767 C2768 1.374 . S
C2768 H2742 0.950 . S
C2768 C2764 1.385 . S
C2768 C2767 1.374 . S
C2769 C2766 1.499 . S
C2769 C2770 1.373 . S
C2769 C2771 1.389 . S
C2770 H2743 0.950 . S
C2770 C2756 1.377 . S
C2770 C2769 1.373 . S
C2771 C2755 1.377 . S
C2771 C2769 1.389 . S
C2771 C2772 1.524 . S
C2772 C2771 1.524 . S
C2772 C2773 1.397 . S
C2772 C2777 1.363 . S
C2773 H2744 0.950 . S
C2773 C2772 1.397 . S
C2773 C2774 1.334 . S
C2774 H2745 0.950 . S
C2774 C2773 1.334 . S
C2774 C2775 1.287 . S
C2775 C2774 1.287 . S
C2775 C2776 1.524 . S
C2775 H2778 0.999 . S
C2776 H2746 0.950 . S
C2776 C2775 1.524 . S
C2776 C2777 1.415 . S
C2777 H2747 0.950 . S
C2777 C2772 1.363 . S
C2777 C2776 1.415 . S
H2778 C2775 0.999 . S
H2779 C2760 0.913 . S
H2780 C2798 0.951 . S
H2781 C2800 0.951 . S
H2782 C2802 0.950 . S
H2783 C2803 0.950 . S
H2784 C2805 0.950 . S
H2785 C2808 0.950 . S
H2786 C2809 0.950 . S
H2787 C2811 0.950 . S
H2788 C2812 0.950 . S
H2789 C2813 0.951 . S
H2790 C2815 0.951 . S
H2791 C2817 0.950 . S
H2792 C2818 0.950 . S
H2793 C2820 0.950 . S
H2794 C2823 0.950 . S
H2795 C2824 0.950 . S
H2796 C2826 0.950 . S
H2797 C2827 0.950 . S
C2798 H2780 0.951 . S
C2798 C2799 1.366 . S
C2798 C2800 1.388 . S
C2799 C2798 1.366 . S
C2799 C2803 1.385 . S
C2800 H2781 0.951 . S
C2800 C2798 1.388 . S
C2800 C2801 1.366 . S
C2801 C2800 1.366 . S
C2801 C2802 1.414 . S
C2801 C2804 1.499 . S
C2802 H2782 0.950 . S
C2802 C2801 1.414 . S
C2802 C2803 1.374 . S
C2803 H2783 0.950 . S
C2803 C2799 1.385 . S
C2803 C2802 1.374 . S
C2804 C2801 1.499 . S
C2804 C2805 1.373 . S
C2804 C2806 1.389 . S
C2805 H2784 0.950 . S
C2805 C2804 1.373 . S
C2805 C2821 1.377 . S
C2806 C2804 1.389 . S
C2806 C2807 1.524 . S
C2806 C2820 1.377 . S
C2807 C2806 1.524 . S
C2807 C2808 1.397 . S
C2807 C2812 1.363 . S
C2808 H2785 0.950 . S
C2808 C2807 1.397 . S
C2808 C2809 1.334 . S
C2809 H2786 0.950 . S
C2809 C2808 1.334 . S
C2809 C2810 1.287 . S
C2810 C2809 1.287 . S
C2810 C2811 1.524 . S
C2810 H2829 0.913 . S
C2811 H2787 0.950 . S
C2811 C2810 1.524 . S
C2811 C2812 1.415 . S
C2812 H2788 0.950 . S
C2812 C2807 1.363 . S
C2812 C2811 1.415 . S
C2813 H2789 0.951 . S
C2813 C2814 1.366 . S
C2813 C2815 1.388 . S
C2814 C2813 1.366 . S
C2814 C2818 1.385 . S
C2815 H2790 0.951 . S
C2815 C2813 1.388 . S
C2815 C2816 1.366 . S
C2816 C2815 1.366 . S
C2816 C2817 1.414 . S
C2816 C2819 1.499 . S
C2817 H2791 0.950 . S
C2817 C2816 1.414 . S
C2817 C2818 1.374 . S
C2818 H2792 0.950 . S
C2818 C2814 1.385 . S
C2818 C2817 1.374 . S
C2819 C2816 1.499 . S
C2819 C2820 1.373 . S
C2819 C2821 1.389 . S
C2820 H2793 0.950 . S
C2820 C2806 1.377 . S
C2820 C2819 1.373 . S
C2821 C2805 1.377 . S
C2821 C2819 1.389 . S
C2821 C2822 1.524 . S
C2822 C2821 1.524 . S
C2822 C2823 1.397 . S
C2822 C2827 1.363 . S
C2823 H2794 0.950 . S
C2823 C2822 1.397 . S
C2823 C2824 1.334 . S
C2824 H2795 0.950 . S
C2824 C2823 1.334 . S
C2824 C2825 1.287 . S
C2825 C2824 1.287 . S
C2825 C2826 1.524 . S
C2825 H2828 0.999 . S
C2826 H2796 0.950 . S
C2826 C2825 1.524 . S
C2826 C2827 1.415 . S
C2827 H2797 0.950 . S
C2827 C2822 1.363 . S
C2827 C2826 1.415 . S
H2828 C2825 0.999 . S
H2829 C2810 0.913 . S
H2830 C2848 0.951 . S
H2831 C2850 0.951 . S
H2832 C2852 0.950 . S
H2833 C2853 0.950 . S
H2834 C2855 0.950 . S
H2835 C2858 0.950 . S
H2836 C2859 0.950 . S
H2837 C2861 0.950 . S
H2838 C2862 0.950 . S
H2839 C2863 0.951 . S
H2840 C2865 0.951 . S
H2841 C2867 0.950 . S
H2842 C2868 0.950 . S
H2843 C2870 0.950 . S
H2844 C2873 0.950 . S
H2845 C2874 0.950 . S
H2846 C2876 0.950 . S
H2847 C2877 0.950 . S
C2848 H2830 0.951 . S
C2848 C2849 1.366 . S
C2848 C2850 1.388 . S
C2849 C2848 1.366 . S
C2849 C2853 1.385 . S
C2850 H2831 0.951 . S
C2850 C2848 1.388 . S
C2850 C2851 1.366 . S
C2851 C2850 1.366 . S
C2851 C2852 1.414 . S
C2851 C2854 1.499 . S
C2852 H2832 0.950 . S
C2852 C2851 1.414 . S
C2852 C2853 1.374 . S
C2853 H2833 0.950 . S
C2853 C2849 1.385 . S
C2853 C2852 1.374 . S
C2854 C2851 1.499 . S
C2854 C2855 1.373 . S
C2854 C2856 1.389 . S
C2855 H2834 0.950 . S
C2855 C2854 1.373 . S
C2855 C2871 1.377 . S
C2856 C2854 1.389 . S
C2856 C2857 1.524 . S
C2856 C2870 1.377 . S
C2857 C2856 1.524 . S
C2857 C2858 1.397 . S
C2857 C2862 1.363 . S
C2858 H2835 0.950 . S
C2858 C2857 1.397 . S
C2858 C2859 1.334 . S
C2859 H2836 0.950 . S
C2859 C2858 1.334 . S
C2859 C2860 1.287 . S
C2860 C2859 1.287 . S
C2860 C2861 1.524 . S
C2860 H2879 0.913 . S
C2861 H2837 0.950 . S
C2861 C2860 1.524 . S
C2861 C2862 1.415 . S
C2862 H2838 0.950 . S
C2862 C2857 1.363 . S
C2862 C2861 1.415 . S
C2863 H2839 0.951 . S
C2863 C2864 1.366 . S
C2863 C2865 1.388 . S
C2864 C2863 1.366 . S
C2864 C2868 1.385 . S
C2865 H2840 0.951 . S
C2865 C2863 1.388 . S
C2865 C2866 1.366 . S
C2866 C2865 1.366 . S
C2866 C2867 1.414 . S
C2866 C2869 1.499 . S
C2867 H2841 0.950 . S
C2867 C2866 1.414 . S
C2867 C2868 1.374 . S
C2868 H2842 0.950 . S
C2868 C2864 1.385 . S
C2868 C2867 1.374 . S
C2869 C2866 1.499 . S
C2869 C2870 1.373 . S
C2869 C2871 1.389 . S
C2870 H2843 0.950 . S
C2870 C2856 1.377 . S
C2870 C2869 1.373 . S
C2871 C2855 1.377 . S
C2871 C2869 1.389 . S
C2871 C2872 1.524 . S
C2872 C2871 1.524 . S
C2872 C2873 1.397 . S
C2872 C2877 1.363 . S
C2873 H2844 0.950 . S
C2873 C2872 1.397 . S
C2873 C2874 1.334 . S
C2874 H2845 0.950 . S
C2874 C2873 1.334 . S
C2874 C2875 1.287 . S
C2875 C2874 1.287 . S
C2875 C2876 1.524 . S
C2875 H2878 0.999 . S
C2876 H2846 0.950 . S
C2876 C2875 1.524 . S
C2876 C2877 1.415 . S
C2877 H2847 0.950 . S
C2877 C2872 1.363 . S
C2877 C2876 1.415 . S
H2878 C2875 0.999 . S
H2879 C2860 0.913 . S
H2880 C2898 0.951 . S
H2881 C2900 0.951 . S
H2882 C2902 0.950 . S
H2883 C2903 0.950 . S
H2884 C2905 0.950 . S
H2885 C2908 0.950 . S
H2886 C2909 0.950 . S
H2887 C2911 0.950 . S
H2888 C2912 0.950 . S
H2889 C2913 0.951 . S
H2890 C2915 0.951 . S
H2891 C2917 0.950 . S
H2892 C2918 0.950 . S
H2893 C2920 0.950 . S
H2894 C2923 0.950 . S
H2895 C2924 0.910 1_655 S
H2896 C2926 0.950 . S
H2897 C2927 0.950 . S
C2898 H2880 0.951 . S
C2898 C2899 1.366 . S
C2898 C2900 1.388 . S
C2899 C2898 1.366 . S
C2899 C2903 1.385 . S
C2900 H2881 0.951 . S
C2900 C2898 1.388 . S
C2900 C2901 1.366 . S
C2901 C2900 1.366 . S
C2901 C2902 1.414 . S
C2901 C2904 1.499 . S
C2902 H2882 0.950 . S
C2902 C2901 1.414 . S
C2902 C2903 1.374 . S
C2903 H2883 0.950 . S
C2903 C2899 1.385 . S
C2903 C2902 1.374 . S
C2904 C2901 1.499 . S
C2904 C2905 1.373 . S
C2904 C2906 1.389 . S
C2905 H2884 0.950 . S
C2905 C2904 1.373 . S
C2905 C2921 1.377 . S
C2906 C2904 1.389 . S
C2906 C2907 1.524 . S
C2906 C2920 1.377 . S
C2907 C2906 1.524 . S
C2907 C2908 1.397 . S
C2907 C2912 1.363 . S
C2908 H2885 0.950 . S
C2908 C2907 1.397 . S
C2908 C2909 1.334 . S
C2909 H2886 0.950 . S
C2909 C2908 1.334 . S
C2909 C2910 1.287 . S
C2910 C2909 1.287 . S
C2910 C2911 1.524 . S
C2910 H2929 0.913 . S
C2911 H2887 0.950 . S
C2911 C2910 1.524 . S
C2911 C2912 1.415 . S
C2912 H2888 0.950 . S
C2912 C2907 1.363 . S
C2912 C2911 1.415 . S
C2913 H2889 0.951 . S
C2913 C2914 1.366 . S
C2913 C2915 1.388 . S
C2914 C2913 1.366 . S
C2914 C2918 1.385 . S
C2915 H2890 0.951 . S
C2915 C2913 1.388 . S
C2915 C2916 1.366 . S
C2916 C2915 1.366 . S
C2916 C2917 1.414 . S
C2916 C2919 1.499 . S
C2917 H2891 0.950 . S
C2917 C2916 1.414 . S
C2917 C2918 1.374 . S
C2918 H2892 0.950 . S
C2918 C2914 1.385 . S
C2918 C2917 1.374 . S
C2919 C2916 1.499 . S
C2919 C2920 1.373 . S
C2919 C2921 1.389 . S
C2920 H2893 0.950 . S
C2920 C2906 1.377 . S
C2920 C2919 1.373 . S
C2921 C2905 1.377 . S
C2921 C2919 1.389 . S
C2921 C2922 1.524 . S
C2922 C2921 1.524 . S
C2922 C2923 1.397 . S
C2922 C2927 1.363 . S
C2923 H2894 0.950 . S
C2923 C2922 1.397 . S
C2923 C2924 1.334 . S
C2924 H2895 0.910 1_455 S
C2924 C2923 1.334 . S
C2924 C2925 1.287 . S
C2925 C2924 1.287 . S
C2925 C2926 1.524 . S
C2925 H2928 0.999 1_455 S
C2926 H2896 0.950 . S
C2926 C2925 1.524 . S
C2926 C2927 1.415 . S
C2927 H2897 0.950 . S
C2927 C2922 1.363 . S
C2927 C2926 1.415 . S
H2928 C2925 0.999 1_655 S
H2929 C2910 0.913 . S
H2930 C2948 0.951 . S
H2931 C2950 0.951 . S
H2932 C2952 0.950 . S
H2933 C2953 0.950 . S
H2934 C2955 0.950 . S
H2935 C2958 0.950 . S
H2936 C2959 0.950 . S
H2937 C2961 0.950 . S
H2938 C2962 0.950 . S
H2939 C2963 0.951 . S
H2940 C2965 0.951 . S
H2941 C2967 0.950 . S
H2942 C2968 0.950 . S
H2943 C2970 0.950 . S
H2944 C2973 0.950 . S
H2945 C2974 0.950 . S
H2946 C2976 0.950 . S
H2947 C2977 0.950 . S
C2948 H2930 0.951 . S
C2948 C2949 1.366 . S
C2948 C2950 1.388 . S
C2949 C2948 1.366 . S
C2949 C2953 1.385 . S
C2950 H2931 0.951 . S
C2950 C2948 1.388 . S
C2950 C2951 1.366 . S
C2951 C2950 1.366 . S
C2951 C2952 1.414 . S
C2951 C2954 1.499 . S
C2952 H2932 0.950 . S
C2952 C2951 1.414 . S
C2952 C2953 1.374 . S
C2953 H2933 0.950 . S
C2953 C2949 1.385 . S
C2953 C2952 1.374 . S
C2954 C2951 1.499 . S
C2954 C2955 1.373 . S
C2954 C2956 1.389 . S
C2955 H2934 0.950 . S
C2955 C2954 1.373 . S
C2955 C2971 1.377 . S
C2956 C2954 1.389 . S
C2956 C2957 1.524 . S
C2956 C2970 1.377 . S
C2957 C2956 1.524 . S
C2957 C2958 1.397 . S
C2957 C2962 1.363 . S
C2958 H2935 0.950 . S
C2958 C2957 1.397 . S
C2958 C2959 1.334 . S
C2959 H2936 0.950 . S
C2959 C2958 1.334 . S
C2959 C2960 1.287 . S
C2960 C2959 1.287 . S
C2960 C2961 1.524 . S
C2960 H2979 0.913 . S
C2961 H2937 0.950 . S
C2961 C2960 1.524 . S
C2961 C2962 1.415 . S
C2962 H2938 0.950 . S
C2962 C2957 1.363 . S
C2962 C2961 1.415 . S
C2963 H2939 0.951 . S
C2963 C2964 1.366 . S
C2963 C2965 1.388 . S
C2964 C2963 1.366 . S
C2964 C2968 1.385 . S
C2965 H2940 0.951 . S
C2965 C2963 1.388 . S
C2965 C2966 1.366 . S
C2966 C2965 1.366 . S
C2966 C2967 1.414 . S
C2966 C2969 1.499 . S
C2967 H2941 0.950 . S
C2967 C2966 1.414 . S
C2967 C2968 1.374 . S
C2968 H2942 0.950 . S
C2968 C2964 1.385 . S
C2968 C2967 1.374 . S
C2969 C2966 1.499 . S
C2969 C2970 1.373 . S
C2969 C2971 1.389 . S
C2970 H2943 0.950 . S
C2970 C2956 1.377 . S
C2970 C2969 1.373 . S
C2971 C2955 1.377 . S
C2971 C2969 1.389 . S
C2971 C2972 1.524 . S
C2972 C2971 1.524 . S
C2972 C2973 1.397 . S
C2972 C2977 1.363 . S
C2973 H2944 0.950 . S
C2973 C2972 1.397 . S
C2973 C2974 1.334 . S
C2974 H2945 0.950 . S
C2974 C2973 1.334 . S
C2974 C2975 1.287 . S
C2975 C2974 1.287 . S
C2975 C2976 1.524 . S
C2975 H2978 0.999 . S
C2976 H2946 0.950 . S
C2976 C2975 1.524 . S
C2976 C2977 1.415 . S
C2977 H2947 0.950 . S
C2977 C2972 1.363 . S
C2977 C2976 1.415 . S
H2978 C2975 0.999 . S
H2979 C2960 0.913 . S
H2980 C2998 0.951 . S
H2981 C3000 0.951 . S
H2982 C3002 0.950 . S
H2983 C3003 0.950 . S
H2984 C3005 0.950 . S
H2985 C3008 0.950 . S
H2986 C3009 0.950 . S
H2987 C3011 0.950 . S
H2988 C3012 0.950 . S
H2989 C3013 0.951 . S
H2990 C3015 0.951 . S
H2991 C3017 0.950 . S
H2992 C3018 0.950 . S
H2993 C3020 0.950 . S
H2994 C3023 0.950 . S
H2995 C3024 0.950 . S
H2996 C3026 0.950 . S
H2997 C3027 0.950 . S
C2998 H2980 0.951 . S
C2998 C2999 1.366 . S
C2998 C3000 1.388 . S
C2999 C2998 1.366 . S
C2999 C3003 1.385 . S
C3000 H2981 0.951 . S
C3000 C2998 1.388 . S
C3000 C3001 1.366 . S
C3001 C3000 1.366 . S
C3001 C3002 1.414 . S
C3001 C3004 1.499 . S
C3002 H2982 0.950 . S
C3002 C3001 1.414 . S
C3002 C3003 1.374 . S
C3003 H2983 0.950 . S
C3003 C2999 1.385 . S
C3003 C3002 1.374 . S
C3004 C3001 1.499 . S
C3004 C3005 1.373 . S
C3004 C3006 1.389 . S
C3005 H2984 0.950 . S
C3005 C3004 1.373 . S
C3005 C3021 1.377 . S
C3006 C3004 1.389 . S
C3006 C3007 1.524 . S
C3006 C3020 1.377 . S
C3007 C3006 1.524 . S
C3007 C3008 1.397 . S
C3007 C3012 1.363 . S
C3008 H2985 0.950 . S
C3008 C3007 1.397 . S
C3008 C3009 1.334 . S
C3009 H2986 0.950 . S
C3009 C3008 1.334 . S
C3009 C3010 1.287 . S
C3010 C3009 1.287 . S
C3010 C3011 1.524 . S
C3010 H3029 0.913 . S
C3011 H2987 0.950 . S
C3011 C3010 1.524 . S
C3011 C3012 1.415 . S
C3012 H2988 0.950 . S
C3012 C3007 1.363 . S
C3012 C3011 1.415 . S
C3013 H2989 0.951 . S
C3013 C3014 1.366 . S
C3013 C3015 1.388 . S
C3014 C3013 1.366 . S
C3014 C3018 1.385 . S
C3015 H2990 0.951 . S
C3015 C3013 1.388 . S
C3015 C3016 1.366 . S
C3016 C3015 1.366 . S
C3016 C3017 1.414 . S
C3016 C3019 1.499 . S
C3017 H2991 0.950 . S
C3017 C3016 1.414 . S
C3017 C3018 1.374 . S
C3018 H2992 0.950 . S
C3018 C3014 1.385 . S
C3018 C3017 1.374 . S
C3019 C3016 1.499 . S
C3019 C3020 1.373 . S
C3019 C3021 1.389 . S
C3020 H2993 0.950 . S
C3020 C3006 1.377 . S
C3020 C3019 1.373 . S
C3021 C3005 1.377 . S
C3021 C3019 1.389 . S
C3021 C3022 1.524 . S
C3022 C3021 1.524 . S
C3022 C3023 1.397 . S
C3022 C3027 1.363 . S
C3023 H2994 0.950 . S
C3023 C3022 1.397 . S
C3023 C3024 1.334 . S
C3024 H2995 0.950 . S
C3024 C3023 1.334 . S
C3024 C3025 1.287 . S
C3025 C3024 1.287 . S
C3025 C3026 1.524 . S
C3025 H3028 0.999 . S
C3026 H2996 0.950 . S
C3026 C3025 1.524 . S
C3026 C3027 1.415 . S
C3027 H2997 0.950 . S
C3027 C3022 1.363 . S
C3027 C3026 1.415 . S
H3028 C3025 0.999 . S
H3029 C3010 0.913 . S
H3030 C3048 0.951 . S
H3031 C3050 0.951 . S
H3032 C3052 0.950 . S
H3033 C3053 0.950 . S
H3034 C3055 0.950 . S
H3035 C3058 0.950 . S
H3036 C3059 0.950 . S
H3037 C3061 0.950 . S
H3038 C3062 0.950 . S
H3039 C3063 0.951 . S
H3040 C3065 0.951 . S
H3041 C3067 0.950 . S
H3042 C3068 0.950 . S
H3043 C3070 0.950 . S
H3044 C3073 0.950 . S
H3045 C3074 0.950 . S
H3046 C3076 0.950 . S
H3047 C3077 0.950 . S
C3048 H3030 0.951 . S
C3048 C3049 1.366 . S
C3048 C3050 1.388 . S
C3049 C3048 1.366 . S
C3049 C3053 1.385 . S
C3050 H3031 0.951 . S
C3050 C3048 1.388 . S
C3050 C3051 1.366 . S
C3051 C3050 1.366 . S
C3051 C3052 1.414 . S
C3051 C3054 1.499 . S
C3052 H3032 0.950 . S
C3052 C3051 1.414 . S
C3052 C3053 1.374 . S
C3053 H3033 0.950 . S
C3053 C3049 1.385 . S
C3053 C3052 1.374 . S
C3054 C3051 1.499 . S
C3054 C3055 1.373 . S
C3054 C3056 1.389 . S
C3055 H3034 0.950 . S
C3055 C3054 1.373 . S
C3055 C3071 1.377 . S
C3056 C3054 1.389 . S
C3056 C3057 1.524 . S
C3056 C3070 1.377 . S
C3057 C3056 1.524 . S
C3057 C3058 1.397 . S
C3057 C3062 1.363 . S
C3058 H3035 0.950 . S
C3058 C3057 1.397 . S
C3058 C3059 1.334 . S
C3059 H3036 0.950 . S
C3059 C3058 1.334 . S
C3059 C3060 1.287 . S
C3060 C3059 1.287 . S
C3060 C3061 1.524 . S
C3060 H3079 0.913 . S
C3061 H3037 0.950 . S
C3061 C3060 1.524 . S
C3061 C3062 1.415 . S
C3062 H3038 0.950 . S
C3062 C3057 1.363 . S
C3062 C3061 1.415 . S
C3063 H3039 0.951 . S
C3063 C3064 1.366 . S
C3063 C3065 1.388 . S
C3064 C3063 1.366 . S
C3064 C3068 1.385 . S
C3065 H3040 0.951 . S
C3065 C3063 1.388 . S
C3065 C3066 1.366 . S
C3066 C3065 1.366 . S
C3066 C3067 1.414 . S
C3066 C3069 1.499 . S
C3067 H3041 0.950 . S
C3067 C3066 1.414 . S
C3067 C3068 1.374 . S
C3068 H3042 0.950 . S
C3068 C3064 1.385 . S
C3068 C3067 1.374 . S
C3069 C3066 1.499 . S
C3069 C3070 1.373 . S
C3069 C3071 1.389 . S
C3070 H3043 0.950 . S
C3070 C3056 1.377 . S
C3070 C3069 1.373 . S
C3071 C3055 1.377 . S
C3071 C3069 1.389 . S
C3071 C3072 1.524 . S
C3072 C3071 1.524 . S
C3072 C3073 1.397 . S
C3072 C3077 1.363 . S
C3073 H3044 0.950 . S
C3073 C3072 1.397 . S
C3073 C3074 1.334 . S
C3074 H3045 0.950 . S
C3074 C3073 1.334 . S
C3074 C3075 1.287 . S
C3075 C3074 1.287 . S
C3075 C3076 1.524 . S
C3075 H3078 0.999 . S
C3076 H3046 0.950 . S
C3076 C3075 1.524 . S
C3076 C3077 1.415 . S
C3077 H3047 0.950 . S
C3077 C3072 1.363 . S
C3077 C3076 1.415 . S
H3078 C3075 0.999 . S
H3079 C3060 0.913 . S
H3080 C3098 0.951 . S
H3081 C3100 0.951 . S
H3082 C3102 0.950 . S
H3083 C3103 0.950 . S
H3084 C3105 0.950 . S
H3085 C3108 0.950 . S
H3086 C3109 0.950 . S
H3087 C3111 0.950 . S
H3088 C3112 0.950 . S
H3089 C3113 0.951 . S
H3090 C3115 0.951 . S
H3091 C3117 0.950 . S
H3092 C3118 0.950 . S
H3093 C3120 0.950 . S
H3094 C3123 0.950 . S
H3095 C3124 0.950 . S
H3096 C3126 0.950 . S
H3097 C3127 0.950 . S
C3098 H3080 0.951 . S
C3098 C3099 1.366 . S
C3098 C3100 1.388 . S
C3099 C3098 1.366 . S
C3099 C3103 1.385 . S
C3100 H3081 0.951 . S
C3100 C3098 1.388 . S
C3100 C3101 1.366 . S
C3101 C3100 1.366 . S
C3101 C3102 1.414 . S
C3101 C3104 1.499 . S
C3102 H3082 0.950 . S
C3102 C3101 1.414 . S
C3102 C3103 1.374 . S
C3103 H3083 0.950 . S
C3103 C3099 1.385 . S
C3103 C3102 1.374 . S
C3104 C3101 1.499 . S
C3104 C3105 1.373 . S
C3104 C3106 1.389 . S
C3105 H3084 0.950 . S
C3105 C3104 1.373 . S
C3105 C3121 1.377 . S
C3106 C3104 1.389 . S
C3106 C3107 1.524 . S
C3106 C3120 1.377 . S
C3107 C3106 1.524 . S
C3107 C3108 1.397 . S
C3107 C3112 1.363 . S
C3108 H3085 0.950 . S
C3108 C3107 1.397 . S
C3108 C3109 1.334 . S
C3109 H3086 0.950 . S
C3109 C3108 1.334 . S
C3109 C3110 1.287 . S
C3110 C3109 1.287 . S
C3110 C3111 1.524 . S
C3110 H3129 0.913 . S
C3111 H3087 0.950 . S
C3111 C3110 1.524 . S
C3111 C3112 1.415 . S
C3112 H3088 0.950 . S
C3112 C3107 1.363 . S
C3112 C3111 1.415 . S
C3113 H3089 0.951 . S
C3113 C3114 1.366 . S
C3113 C3115 1.388 . S
C3114 C3113 1.366 . S
C3114 C3118 1.385 . S
C3115 H3090 0.951 . S
C3115 C3113 1.388 . S
C3115 C3116 1.366 . S
C3116 C3115 1.366 . S
C3116 C3117 1.414 . S
C3116 C3119 1.499 . S
C3117 H3091 0.950 . S
C3117 C3116 1.414 . S
C3117 C3118 1.374 . S
C3118 H3092 0.950 . S
C3118 C3114 1.385 . S
C3118 C3117 1.374 . S
C3119 C3116 1.499 . S
C3119 C3120 1.373 . S
C3119 C3121 1.389 . S
C3120 H3093 0.950 . S
C3120 C3106 1.377 . S
C3120 C3119 1.373 . S
C3121 C3105 1.377 . S
C3121 C3119 1.389 . S
C3121 C3122 1.524 . S
C3122 C3121 1.524 . S
C3122 C3123 1.397 . S
C3122 C3127 1.363 . S
C3123 H3094 0.950 . S
C3123 C3122 1.397 . S
C3123 C3124 1.334 . S
C3124 H3095 0.950 . S
C3124 C3123 1.334 . S
C3124 C3125 1.287 . S
C3125 C3124 1.287 . S
C3125 C3126 1.524 . S
C3125 H3128 0.999 . S
C3126 H3096 0.950 . S
C3126 C3125 1.524 . S
C3126 C3127 1.415 . S
C3127 H3097 0.950 . S
C3127 C3122 1.363 . S
C3127 C3126 1.415 . S
H3128 C3125 0.999 . S
H3129 C3110 0.913 . S
H3130 C3148 0.951 . S
H3131 C3150 0.951 . S
H3132 C3152 0.950 . S
H3133 C3153 0.950 . S
H3134 C3155 0.950 . S
H3135 C3158 0.950 . S
H3136 C3159 0.950 . S
H3137 C3161 0.950 . S
H3138 C3162 0.950 . S
H3139 C3163 0.951 . S
H3140 C3165 0.951 . S
H3141 C3167 0.950 . S
H3142 C3168 0.950 . S
H3143 C3170 0.950 . S
H3144 C3173 0.950 . S
H3145 C3174 0.950 . S
H3146 C3176 0.950 . S
H3147 C3177 0.950 . S
C3148 H3130 0.951 . S
C3148 C3149 1.366 . S
C3148 C3150 1.388 . S
C3149 C3148 1.366 . S
C3149 C3153 1.385 . S
C3150 H3131 0.951 . S
C3150 C3148 1.388 . S
C3150 C3151 1.366 . S
C3151 C3150 1.366 . S
C3151 C3152 1.414 . S
C3151 C3154 1.499 . S
C3152 H3132 0.950 . S
C3152 C3151 1.414 . S
C3152 C3153 1.374 . S
C3153 H3133 0.950 . S
C3153 C3149 1.385 . S
C3153 C3152 1.374 . S
C3154 C3151 1.499 . S
C3154 C3155 1.373 . S
C3154 C3156 1.389 . S
C3155 H3134 0.950 . S
C3155 C3154 1.373 . S
C3155 C3171 1.377 . S
C3156 C3154 1.389 . S
C3156 C3157 1.524 . S
C3156 C3170 1.377 . S
C3157 C3156 1.524 . S
C3157 C3158 1.397 . S
C3157 C3162 1.363 . S
C3158 H3135 0.950 . S
C3158 C3157 1.397 . S
C3158 C3159 1.334 . S
C3159 H3136 0.950 . S
C3159 C3158 1.334 . S
C3159 C3160 1.287 . S
C3160 C3159 1.287 . S
C3160 C3161 1.524 . S
C3160 H3179 0.913 . S
C3161 H3137 0.950 . S
C3161 C3160 1.524 . S
C3161 C3162 1.415 . S
C3162 H3138 0.950 . S
C3162 C3157 1.363 . S
C3162 C3161 1.415 . S
C3163 H3139 0.951 . S
C3163 C3164 1.366 . S
C3163 C3165 1.388 . S
C3164 C3163 1.366 . S
C3164 C3168 1.385 . S
C3165 H3140 0.951 . S
C3165 C3163 1.388 . S
C3165 C3166 1.366 . S
C3166 C3165 1.366 . S
C3166 C3167 1.414 . S
C3166 C3169 1.499 . S
C3167 H3141 0.950 . S
C3167 C3166 1.414 . S
C3167 C3168 1.374 . S
C3168 H3142 0.950 . S
C3168 C3164 1.385 . S
C3168 C3167 1.374 . S
C3169 C3166 1.499 . S
C3169 C3170 1.373 . S
C3169 C3171 1.389 . S
C3170 H3143 0.950 . S
C3170 C3156 1.377 . S
C3170 C3169 1.373 . S
C3171 C3155 1.377 . S
C3171 C3169 1.389 . S
C3171 C3172 1.524 . S
C3172 C3171 1.524 . S
C3172 C3173 1.397 . S
C3172 C3177 1.363 . S
C3173 H3144 0.950 . S
C3173 C3172 1.397 . S
C3173 C3174 1.334 . S
C3174 H3145 0.950 . S
C3174 C3173 1.334 . S
C3174 C3175 1.287 . S
C3175 C3174 1.287 . S
C3175 C3176 1.524 . S
C3175 H3178 0.999 . S
C3176 H3146 0.950 . S
C3176 C3175 1.524 . S
C3176 C3177 1.415 . S
C3177 H3147 0.950 . S
C3177 C3172 1.363 . S
C3177 C3176 1.415 . S
H3178 C3175 0.999 . S
H3179 C3160 0.913 . S
H3180 C3198 0.951 . S
H3181 C3200 0.951 . S
H3182 C3202 0.950 . S
H3183 C3203 0.950 . S
H3184 C3205 0.950 . S
H3185 C3208 0.950 . S
H3186 C3209 0.950 . S
H3187 C3211 0.950 . S
H3188 C3212 0.950 . S
H3189 C3213 0.948 . S
H3190 C3215 0.951 . S
H3191 C3217 0.950 . S
H3192 C3218 0.959 . S
H3193 C3220 0.950 . S
H3194 C3223 0.950 . S
H3195 C3224 0.950 1_554 S
H3196 C3226 0.950 . S
H3197 C3227 0.950 . S
C3198 H3180 0.951 . S
C3198 C3199 1.366 . S
C3198 C3200 1.388 . S
C3199 C3198 1.366 . S
C3199 C3203 1.385 . S
C3200 H3181 0.951 . S
C3200 C3198 1.388 . S
C3200 C3201 1.366 . S
C3201 C3200 1.366 . S
C3201 C3202 1.414 . S
C3201 C3204 1.499 . S
C3202 H3182 0.950 . S
C3202 C3201 1.414 . S
C3202 C3203 1.374 . S
C3203 H3183 0.950 . S
C3203 C3199 1.385 . S
C3203 C3202 1.374 . S
C3204 C3201 1.499 . S
C3204 C3205 1.373 . S
C3204 C3206 1.389 . S
C3205 H3184 0.950 . S
C3205 C3204 1.373 . S
C3205 C3221 1.377 . S
C3206 C3204 1.389 . S
C3206 C3207 1.524 . S
C3206 C3220 1.377 . S
C3207 C3206 1.524 . S
C3207 C3208 1.397 . S
C3207 C3212 1.363 . S
C3208 H3185 0.950 . S
C3208 C3207 1.397 . S
C3208 C3209 1.334 . S
C3209 H3186 0.950 . S
C3209 C3208 1.334 . S
C3209 C3210 1.287 . S
C3210 C3209 1.287 . S
C3210 C3211 1.524 . S
C3210 H3229 0.913 . S
C3211 H3187 0.950 . S
C3211 C3210 1.524 . S
C3211 C3212 1.415 . S
C3212 H3188 0.950 . S
C3212 C3207 1.363 . S
C3212 C3211 1.415 . S
C3213 H3189 0.948 . S
C3213 C3214 1.366 1_545 S
C3213 C3215 1.390 1_545 S
C3214 C3213 1.366 1_565 S
C3214 C3218 1.380 1_556 S
C3215 H3190 0.951 . S
C3215 C3213 1.390 1_565 S
C3215 C3216 1.366 . S
C3216 C3215 1.366 . S
C3216 C3217 1.414 . S
C3216 C3219 1.499 . S
C3217 H3191 0.950 . S
C3217 C3216 1.414 . S
C3217 C3218 1.370 1_556 S
C3218 H3192 0.959 . S
C3218 C3214 1.380 1_554 S
C3218 C3217 1.370 1_554 S
C3219 C3216 1.499 . S
C3219 C3220 1.373 . S
C3219 C3221 1.389 . S
C3220 H3193 0.950 . S
C3220 C3206 1.377 . S
C3220 C3219 1.373 . S
C3221 C3205 1.377 . S
C3221 C3219 1.389 . S
C3221 C3222 1.524 . S
C3222 C3221 1.524 . S
C3222 C3223 1.397 . S
C3222 C3227 1.363 . S
C3223 H3194 0.950 . S
C3223 C3222 1.397 . S
C3223 C3224 1.334 . S
C3224 H3195 0.950 1_556 S
C3224 C3223 1.334 . S
C3224 C3225 1.287 . S
C3225 C3224 1.287 . S
C3225 C3226 1.524 . S
C3225 H3228 0.999 1_565 S
C3226 H3196 0.950 . S
C3226 C3225 1.524 . S
C3226 C3227 1.415 . S
C3227 H3197 0.950 . S
C3227 C3222 1.363 . S
C3227 C3226 1.415 . S
H3228 C3225 0.999 1_545 S
H3229 C3210 0.913 . S
H3230 C3248 0.951 . S
H3231 C3250 0.951 . S
H3232 C3252 0.950 . S
H3233 C3253 0.950 . S
H3234 C3255 0.950 . S
H3235 C3258 0.950 . S
H3236 C3259 0.950 . S
H3237 C3261 0.950 . S
H3238 C3262 0.950 . S
H3239 C3263 0.951 . S
H3240 C3265 0.951 . S
H3241 C3267 0.950 . S
H3242 C3268 0.950 . S
H3243 C3270 0.950 . S
H3244 C3273 0.950 . S
H3245 C3274 0.950 . S
H3246 C3276 0.950 . S
H3247 C3277 0.950 . S
C3248 H3230 0.951 . S
C3248 C3249 1.366 . S
C3248 C3250 1.388 . S
C3249 C3248 1.366 . S
C3249 C3253 1.385 . S
C3250 H3231 0.951 . S
C3250 C3248 1.388 . S
C3250 C3251 1.366 . S
C3251 C3250 1.366 . S
C3251 C3252 1.414 . S
C3251 C3254 1.499 . S
C3252 H3232 0.950 . S
C3252 C3251 1.414 . S
C3252 C3253 1.374 . S
C3253 H3233 0.950 . S
C3253 C3249 1.385 . S
C3253 C3252 1.374 . S
C3254 C3251 1.499 . S
C3254 C3255 1.373 . S
C3254 C3256 1.389 . S
C3255 H3234 0.950 . S
C3255 C3254 1.373 . S
C3255 C3271 1.377 . S
C3256 C3254 1.389 . S
C3256 C3257 1.524 . S
C3256 C3270 1.377 . S
C3257 C3256 1.524 . S
C3257 C3258 1.397 . S
C3257 C3262 1.363 . S
C3258 H3235 0.950 . S
C3258 C3257 1.397 . S
C3258 C3259 1.334 . S
C3259 H3236 0.950 . S
C3259 C3258 1.334 . S
C3259 C3260 1.287 . S
C3260 C3259 1.287 . S
C3260 C3261 1.524 . S
C3260 H3279 0.913 . S
C3261 H3237 0.950 . S
C3261 C3260 1.524 . S
C3261 C3262 1.415 . S
C3262 H3238 0.950 . S
C3262 C3257 1.363 . S
C3262 C3261 1.415 . S
C3263 H3239 0.951 . S
C3263 C3264 1.366 . S
C3263 C3265 1.388 . S
C3264 C3263 1.366 . S
C3264 C3268 1.385 . S
C3265 H3240 0.951 . S
C3265 C3263 1.388 . S
C3265 C3266 1.366 . S
C3266 C3265 1.366 . S
C3266 C3267 1.414 . S
C3266 C3269 1.499 . S
C3267 H3241 0.950 . S
C3267 C3266 1.414 . S
C3267 C3268 1.374 . S
C3268 H3242 0.950 . S
C3268 C3264 1.385 . S
C3268 C3267 1.374 . S
C3269 C3266 1.499 . S
C3269 C3270 1.373 . S
C3269 C3271 1.389 . S
C3270 H3243 0.950 . S
C3270 C3256 1.377 . S
C3270 C3269 1.373 . S
C3271 C3255 1.377 . S
C3271 C3269 1.389 . S
C3271 C3272 1.524 . S
C3272 C3271 1.524 . S
C3272 C3273 1.397 . S
C3272 C3277 1.363 . S
C3273 H3244 0.950 . S
C3273 C3272 1.397 . S
C3273 C3274 1.334 . S
C3274 H3245 0.950 . S
C3274 C3273 1.334 . S
C3274 C3275 1.287 . S
C3275 C3274 1.287 . S
C3275 C3276 1.524 . S
C3275 H3278 0.999 . S
C3276 H3246 0.950 . S
C3276 C3275 1.524 . S
C3276 C3277 1.415 . S
C3277 H3247 0.950 . S
C3277 C3272 1.363 . S
C3277 C3276 1.415 . S
H3278 C3275 0.999 . S
H3279 C3260 0.913 . S
H3280 C3298 0.951 . S
H3281 C3300 0.951 . S
H3282 C3302 0.952 . S
H3283 C3303 0.950 . S
H3284 C3305 0.950 . S
H3285 C3308 0.950 . S
H3286 C3309 0.950 . S
H3287 C3311 0.950 . S
H3288 C3312 0.950 1_545 S
H3289 C3313 0.951 . S
H3290 C3315 0.951 . S
H3291 C3317 0.950 . S
H3292 C3318 0.950 . S
H3293 C3320 0.949 . S
H3294 C3323 0.950 . S
H3295 C3324 0.950 . S
H3296 C3326 0.950 . S
H3297 C3327 0.950 . S
C3298 H3280 0.951 . S
C3298 C3299 1.366 . S
C3298 C3300 1.388 . S
C3299 C3298 1.366 . S
C3299 C3303 1.385 1_545 S
C3300 H3281 0.951 . S
C3300 C3298 1.388 . S
C3300 C3301 1.366 . S
C3301 C3300 1.366 . S
C3301 C3302 1.412 1_545 S
C3301 C3304 1.499 . S
C3302 H3282 0.952 . S
C3302 C3301 1.412 1_565 S
C3302 C3303 1.374 . S
C3303 H3283 0.950 . S
C3303 C3299 1.385 1_565 S
C3303 C3302 1.374 . S
C3304 C3301 1.499 . S
C3304 C3305 1.373 . S
C3304 C3306 1.389 . S
C3305 H3284 0.950 . S
C3305 C3304 1.373 . S
C3305 C3321 1.377 . S
C3306 C3304 1.389 . S
C3306 C3307 1.524 1_545 S
C3306 C3320 1.377 . S
C3307 C3306 1.524 1_565 S
C3307 C3308 1.397 . S
C3307 C3312 1.363 . S
C3308 H3285 0.950 . S
C3308 C3307 1.397 . S
C3308 C3309 1.334 . S
C3309 H3286 0.950 . S
C3309 C3308 1.334 . S
C3309 C3310 1.287 . S
C3310 C3309 1.287 . S
C3310 C3311 1.524 . S
C3310 H3329 0.913 . S
C3311 H3287 0.950 . S
C3311 C3310 1.524 . S
C3311 C3312 1.415 . S
C3312 H3288 0.950 1_565 S
C3312 C3307 1.363 . S
C3312 C3311 1.415 . S
C3313 H3289 0.951 . S
C3313 C3314 1.366 . S
C3313 C3315 1.388 . S
C3314 C3313 1.366 . S
C3314 C3318 1.385 . S
C3315 H3290 0.951 . S
C3315 C3313 1.388 . S
C3315 C3316 1.366 . S
C3316 C3315 1.366 . S
C3316 C3317 1.414 . S
C3316 C3319 1.499 . S
C3317 H3291 0.950 . S
C3317 C3316 1.414 . S
C3317 C3318 1.374 . S
C3318 H3292 0.950 . S
C3318 C3314 1.385 . S
C3318 C3317 1.374 . S
C3319 C3316 1.499 . S
C3319 C3320 1.373 . S
C3319 C3321 1.389 . S
C3320 H3293 0.949 . S
C3320 C3306 1.377 . S
C3320 C3319 1.373 . S
C3321 C3305 1.377 . S
C3321 C3319 1.389 . S
C3321 C3322 1.524 . S
C3322 C3321 1.524 . S
C3322 C3323 1.397 . S
C3322 C3327 1.363 . S
C3323 H3294 0.950 . S
C3323 C3322 1.397 . S
C3323 C3324 1.334 . S
C3324 H3295 0.950 . S
C3324 C3323 1.334 . S
C3324 C3325 1.287 . S
C3325 C3324 1.287 . S
C3325 C3326 1.524 . S
C3325 H3328 0.999 . S
C3326 H3296 0.950 . S
C3326 C3325 1.524 . S
C3326 C3327 1.415 . S
C3327 H3297 0.950 . S
C3327 C3322 1.363 . S
C3327 C3326 1.415 . S
H3328 C3325 0.999 . S
H3329 C3310 0.913 . S
H3330 C3348 0.951 . S
H3331 C3350 0.951 . S
H3332 C3352 0.950 . S
H3333 C3353 0.950 . S
H3334 C3355 0.950 . S
H3335 C3358 0.950 . S
H3336 C3359 0.950 . S
H3337 C3361 0.950 . S
H3338 C3362 0.950 . S
H3339 C3363 0.951 . S
H3340 C3365 0.951 . S
H3341 C3367 0.950 . S
H3342 C3368 0.950 . S
H3343 C3370 0.950 . S
H3344 C3373 0.950 . S
H3345 C3374 0.950 . S
H3346 C3376 0.950 . S
H3347 C3377 0.950 . S
C3348 H3330 0.951 . S
C3348 C3349 1.366 . S
C3348 C3350 1.388 . S
C3349 C3348 1.366 . S
C3349 C3353 1.385 . S
C3350 H3331 0.951 . S
C3350 C3348 1.388 . S
C3350 C3351 1.366 . S
C3351 C3350 1.366 . S
C3351 C3352 1.414 . S
C3351 C3354 1.499 . S
C3352 H3332 0.950 . S
C3352 C3351 1.414 . S
C3352 C3353 1.374 . S
C3353 H3333 0.950 . S
C3353 C3349 1.385 . S
C3353 C3352 1.374 . S
C3354 C3351 1.499 . S
C3354 C3355 1.373 . S
C3354 C3356 1.389 . S
C3355 H3334 0.950 . S
C3355 C3354 1.373 . S
C3355 C3371 1.377 . S
C3356 C3354 1.389 . S
C3356 C3357 1.524 . S
C3356 C3370 1.377 . S
C3357 C3356 1.524 . S
C3357 C3358 1.397 . S
C3357 C3362 1.363 . S
C3358 H3335 0.950 . S
C3358 C3357 1.397 . S
C3358 C3359 1.334 . S
C3359 H3336 0.950 . S
C3359 C3358 1.334 . S
C3359 C3360 1.287 . S
C3360 C3359 1.287 . S
C3360 C3361 1.524 . S
C3360 H3379 0.913 . S
C3361 H3337 0.950 . S
C3361 C3360 1.524 . S
C3361 C3362 1.415 . S
C3362 H3338 0.950 . S
C3362 C3357 1.363 . S
C3362 C3361 1.415 . S
C3363 H3339 0.951 . S
C3363 C3364 1.366 . S
C3363 C3365 1.388 . S
C3364 C3363 1.366 . S
C3364 C3368 1.385 . S
C3365 H3340 0.951 . S
C3365 C3363 1.388 . S
C3365 C3366 1.366 . S
C3366 C3365 1.366 . S
C3366 C3367 1.414 . S
C3366 C3369 1.499 . S
C3367 H3341 0.950 . S
C3367 C3366 1.414 . S
C3367 C3368 1.374 . S
C3368 H3342 0.950 . S
C3368 C3364 1.385 . S
C3368 C3367 1.374 . S
C3369 C3366 1.499 . S
C3369 C3370 1.373 . S
C3369 C3371 1.389 . S
C3370 H3343 0.950 . S
C3370 C3356 1.377 . S
C3370 C3369 1.373 . S
C3371 C3355 1.377 . S
C3371 C3369 1.389 . S
C3371 C3372 1.524 . S
C3372 C3371 1.524 . S
C3372 C3373 1.397 . S
C3372 C3377 1.363 . S
C3373 H3344 0.950 . S
C3373 C3372 1.397 . S
C3373 C3374 1.334 . S
C3374 H3345 0.950 . S
C3374 C3373 1.334 . S
C3374 C3375 1.287 . S
C3375 C3374 1.287 . S
C3375 C3376 1.524 . S
C3375 H3378 0.999 . S
C3376 H3346 0.950 . S
C3376 C3375 1.524 . S
C3376 C3377 1.415 . S
C3377 H3347 0.950 . S
C3377 C3372 1.363 . S
C3377 C3376 1.415 . S
H3378 C3375 0.999 . S
H3379 C3360 0.913 . S
H3380 C3398 0.951 . S
H3381 C3400 0.951 . S
H3382 C3402 0.950 . S
H3383 C3403 0.950 . S
H3384 C3405 0.950 . S
H3385 C3408 0.950 . S
H3386 C3409 0.950 . S
H3387 C3411 0.950 . S
H3388 C3412 0.950 . S
H3389 C3413 0.951 . S
H3390 C3415 0.951 . S
H3391 C3417 0.950 . S
H3392 C3418 0.950 . S
H3393 C3420 0.950 . S
H3394 C3423 0.950 . S
H3395 C3424 0.950 . S
H3396 C3426 0.950 . S
H3397 C3427 0.950 . S
C3398 H3380 0.951 . S
C3398 C3399 1.366 . S
C3398 C3400 1.388 . S
C3399 C3398 1.366 . S
C3399 C3403 1.385 . S
C3400 H3381 0.951 . S
C3400 C3398 1.388 . S
C3400 C3401 1.366 . S
C3401 C3400 1.366 . S
C3401 C3402 1.414 . S
C3401 C3404 1.499 . S
C3402 H3382 0.950 . S
C3402 C3401 1.414 . S
C3402 C3403 1.374 . S
C3403 H3383 0.950 . S
C3403 C3399 1.385 . S
C3403 C3402 1.374 . S
C3404 C3401 1.499 . S
C3404 C3405 1.373 . S
C3404 C3406 1.389 . S
C3405 H3384 0.950 . S
C3405 C3404 1.373 . S
C3405 C3421 1.377 . S
C3406 C3404 1.389 . S
C3406 C3407 1.524 . S
C3406 C3420 1.377 . S
C3407 C3406 1.524 . S
C3407 C3408 1.397 1_545 S
C3407 C3412 1.363 . S
C3408 H3385 0.950 . S
C3408 C3407 1.397 1_565 S
C3408 C3409 1.334 . S
C3409 H3386 0.950 . S
C3409 C3408 1.334 . S
C3409 C3410 1.287 . S
C3410 C3409 1.287 . S
C3410 C3411 1.524 . S
C3410 H3429 0.913 . S
C3411 H3387 0.950 . S
C3411 C3410 1.524 . S
C3411 C3412 1.415 1_565 S
C3412 H3388 0.950 . S
C3412 C3407 1.363 . S
C3412 C3411 1.415 1_545 S
C3413 H3389 0.951 . S
C3413 C3414 1.366 . S
C3413 C3415 1.388 . S
C3414 C3413 1.366 . S
C3414 C3418 1.385 . S
C3415 H3390 0.951 . S
C3415 C3413 1.388 . S
C3415 C3416 1.366 . S
C3416 C3415 1.366 . S
C3416 C3417 1.414 . S
C3416 C3419 1.499 . S
C3417 H3391 0.950 . S
C3417 C3416 1.414 . S
C3417 C3418 1.374 . S
C3418 H3392 0.950 . S
C3418 C3414 1.385 . S
C3418 C3417 1.374 . S
C3419 C3416 1.499 . S
C3419 C3420 1.373 . S
C3419 C3421 1.389 . S
C3420 H3393 0.950 . S
C3420 C3406 1.377 . S
C3420 C3419 1.373 . S
C3421 C3405 1.377 . S
C3421 C3419 1.389 . S
C3421 C3422 1.524 . S
C3422 C3421 1.524 . S
C3422 C3423 1.397 . S
C3422 C3427 1.363 . S
C3423 H3394 0.950 . S
C3423 C3422 1.397 . S
C3423 C3424 1.334 . S
C3424 H3395 0.950 . S
C3424 C3423 1.334 . S
C3424 C3425 1.287 . S
C3425 C3424 1.287 . S
C3425 C3426 1.524 . S
C3425 H3428 0.999 . S
C3426 H3396 0.950 . S
C3426 C3425 1.524 . S
C3426 C3427 1.415 . S
C3427 H3397 0.950 . S
C3427 C3422 1.363 . S
C3427 C3426 1.415 . S
H3428 C3425 0.999 . S
H3429 C3410 0.913 . S
H3430 C3448 0.951 . S
H3431 C3450 0.951 . S
H3432 C3452 0.950 . S
H3433 C3453 0.950 . S
H3434 C3455 0.950 . S
H3435 C3458 0.950 . S
H3436 C3459 0.950 . S
H3437 C3461 0.950 . S
H3438 C3462 0.950 . S
H3439 C3463 0.951 . S
H3440 C3465 0.951 . S
H3441 C3467 0.950 . S
H3442 C3468 0.950 . S
H3443 C3470 0.950 . S
H3444 C3473 0.950 . S
H3445 C3474 0.950 . S
H3446 C3476 0.950 . S
H3447 C3477 0.950 . S
C3448 H3430 0.951 . S
C3448 C3449 1.366 . S
C3448 C3450 1.388 . S
C3449 C3448 1.366 . S
C3449 C3453 1.385 . S
C3450 H3431 0.951 . S
C3450 C3448 1.388 . S
C3450 C3451 1.366 . S
C3451 C3450 1.366 . S
C3451 C3452 1.414 . S
C3451 C3454 1.499 . S
C3452 H3432 0.950 . S
C3452 C3451 1.414 . S
C3452 C3453 1.374 . S
C3453 H3433 0.950 . S
C3453 C3449 1.385 . S
C3453 C3452 1.374 . S
C3454 C3451 1.499 . S
C3454 C3455 1.373 . S
C3454 C3456 1.389 . S
C3455 H3434 0.950 . S
C3455 C3454 1.373 . S
C3455 C3471 1.377 . S
C3456 C3454 1.389 . S
C3456 C3457 1.524 . S
C3456 C3470 1.377 . S
C3457 C3456 1.524 . S
C3457 C3458 1.397 . S
C3457 C3462 1.363 . S
C3458 H3435 0.950 . S
C3458 C3457 1.397 . S
C3458 C3459 1.334 . S
C3459 H3436 0.950 . S
C3459 C3458 1.334 . S
C3459 C3460 1.287 . S
C3460 C3459 1.287 . S
C3460 C3461 1.524 . S
C3460 H3479 0.913 . S
C3461 H3437 0.950 . S
C3461 C3460 1.524 . S
C3461 C3462 1.415 . S
C3462 H3438 0.950 . S
C3462 C3457 1.363 . S
C3462 C3461 1.415 . S
C3463 H3439 0.951 . S
C3463 C3464 1.366 . S
C3463 C3465 1.388 . S
C3464 C3463 1.366 . S
C3464 C3468 1.385 . S
C3465 H3440 0.951 . S
C3465 C3463 1.388 . S
C3465 C3466 1.366 . S
C3466 C3465 1.366 . S
C3466 C3467 1.414 . S
C3466 C3469 1.499 . S
C3467 H3441 0.950 . S
C3467 C3466 1.414 . S
C3467 C3468 1.374 . S
C3468 H3442 0.950 . S
C3468 C3464 1.385 . S
C3468 C3467 1.374 . S
C3469 C3466 1.499 . S
C3469 C3470 1.373 . S
C3469 C3471 1.389 . S
C3470 H3443 0.950 . S
C3470 C3456 1.377 . S
C3470 C3469 1.373 . S
C3471 C3455 1.377 . S
C3471 C3469 1.389 . S
C3471 C3472 1.524 . S
C3472 C3471 1.524 . S
C3472 C3473 1.397 . S
C3472 C3477 1.363 . S
C3473 H3444 0.950 . S
C3473 C3472 1.397 . S
C3473 C3474 1.334 . S
C3474 H3445 0.950 . S
C3474 C3473 1.334 . S
C3474 C3475 1.287 . S
C3475 C3474 1.287 . S
C3475 C3476 1.524 . S
C3475 H3478 0.999 . S
C3476 H3446 0.950 . S
C3476 C3475 1.524 . S
C3476 C3477 1.415 . S
C3477 H3447 0.950 . S
C3477 C3472 1.363 . S
C3477 C3476 1.415 . S
H3478 C3475 0.999 . S
H3479 C3460 0.913 . S
H3480 C3498 0.951 . S
H3481 C3500 0.951 . S
H3482 C3502 0.950 . S
H3483 C3503 0.950 . S
H3484 C3505 0.950 . S
H3485 C3508 0.950 . S
H3486 C3509 0.950 . S
H3487 C3511 0.950 . S
H3488 C3512 0.950 . S
H3489 C3513 0.951 . S
H3490 C3515 0.951 . S
H3491 C3517 0.950 . S
H3492 C3518 0.950 . S
H3493 C3520 0.950 . S
H3494 C3523 0.950 . S
H3495 C3524 0.950 . S
H3496 C3526 0.950 . S
H3497 C3527 0.950 . S
C3498 H3480 0.951 . S
C3498 C3499 1.366 1_545 S
C3498 C3500 1.388 . S
C3499 C3498 1.366 1_565 S
C3499 C3503 1.385 . S
C3500 H3481 0.951 . S
C3500 C3498 1.388 . S
C3500 C3501 1.366 . S
C3501 C3500 1.366 . S
C3501 C3502 1.414 1_545 S
C3501 C3504 1.499 . S
C3502 H3482 0.950 . S
C3502 C3501 1.414 1_565 S
C3502 C3503 1.374 . S
C3503 H3483 0.950 . S
C3503 C3499 1.385 . S
C3503 C3502 1.374 . S
C3504 C3501 1.499 . S
C3504 C3505 1.373 1_545 S
C3504 C3506 1.389 . S
C3505 H3484 0.950 . S
C3505 C3504 1.373 1_565 S
C3505 C3521 1.377 . S
C3506 C3504 1.389 . S
C3506 C3507 1.524 . S
C3506 C3520 1.377 . S
C3507 C3506 1.524 . S
C3507 C3508 1.397 . S
C3507 C3512 1.363 . S
C3508 H3485 0.950 . S
C3508 C3507 1.397 . S
C3508 C3509 1.334 . S
C3509 H3486 0.950 . S
C3509 C3508 1.334 . S
C3509 C3510 1.287 . S
C3510 C3509 1.287 . S
C3510 C3511 1.524 . S
C3510 H3529 0.913 . S
C3511 H3487 0.950 . S
C3511 C3510 1.524 . S
C3511 C3512 1.415 . S
C3512 H3488 0.950 . S
C3512 C3507 1.363 . S
C3512 C3511 1.415 . S
C3513 H3489 0.951 . S
C3513 C3514 1.366 . S
C3513 C3515 1.388 . S
C3514 C3513 1.366 . S
C3514 C3518 1.385 . S
C3515 H3490 0.951 . S
C3515 C3513 1.388 . S
C3515 C3516 1.366 . S
C3516 C3515 1.366 . S
C3516 C3517 1.414 . S
C3516 C3519 1.499 . S
C3517 H3491 0.950 . S
C3517 C3516 1.414 . S
C3517 C3518 1.374 . S
C3518 H3492 0.950 . S
C3518 C3514 1.385 . S
C3518 C3517 1.374 . S
C3519 C3516 1.499 . S
C3519 C3520 1.373 . S
C3519 C3521 1.389 1_545 S
C3520 H3493 0.950 . S
C3520 C3506 1.377 . S
C3520 C3519 1.373 . S
C3521 C3505 1.377 . S
C3521 C3519 1.389 1_565 S
C3521 C3522 1.524 . S
C3522 C3521 1.524 . S
C3522 C3523 1.397 . S
C3522 C3527 1.363 . S
C3523 H3494 0.950 . S
C3523 C3522 1.397 . S
C3523 C3524 1.334 . S
C3524 H3495 0.950 . S
C3524 C3523 1.334 . S
C3524 C3525 1.287 . S
C3525 C3524 1.287 . S
C3525 C3526 1.524 . S
C3525 H3528 0.999 . S
C3526 H3496 0.950 . S
C3526 C3525 1.524 . S
C3526 C3527 1.415 . S
C3527 H3497 0.950 . S
C3527 C3522 1.363 . S
C3527 C3526 1.415 . S
H3528 C3525 0.999 . S
H3529 C3510 0.913 . S
H3530 C3548 0.951 . S
H3531 C3550 0.951 . S
H3532 C3552 0.950 . S
H3533 C3553 0.950 . S
H3534 C3555 0.950 . S
H3535 C3558 0.950 . S
H3536 C3559 0.950 . S
H3537 C3561 0.950 . S
H3538 C3562 0.950 . S
H3539 C3563 0.951 . S
H3540 C3565 0.951 . S
H3541 C3567 0.950 . S
H3542 C3568 0.950 . S
H3543 C3570 0.950 . S
H3544 C3573 0.950 . S
H3545 C3574 0.950 . S
H3546 C3576 0.950 . S
H3547 C3577 0.950 . S
C3548 H3530 0.951 . S
C3548 C3549 1.366 . S
C3548 C3550 1.388 . S
C3549 C3548 1.366 . S
C3549 C3553 1.385 . S
C3550 H3531 0.951 . S
C3550 C3548 1.388 . S
C3550 C3551 1.366 . S
C3551 C3550 1.366 . S
C3551 C3552 1.414 . S
C3551 C3554 1.499 . S
C3552 H3532 0.950 . S
C3552 C3551 1.414 . S
C3552 C3553 1.374 . S
C3553 H3533 0.950 . S
C3553 C3549 1.385 . S
C3553 C3552 1.374 . S
C3554 C3551 1.499 . S
C3554 C3555 1.373 . S
C3554 C3556 1.389 . S
C3555 H3534 0.950 . S
C3555 C3554 1.373 . S
C3555 C3571 1.377 . S
C3556 C3554 1.389 . S
C3556 C3557 1.524 . S
C3556 C3570 1.377 . S
C3557 C3556 1.524 . S
C3557 C3558 1.397 . S
C3557 C3562 1.363 . S
C3558 H3535 0.950 . S
C3558 C3557 1.397 . S
C3558 C3559 1.334 . S
C3559 H3536 0.950 . S
C3559 C3558 1.334 . S
C3559 C3560 1.287 . S
C3560 C3559 1.287 . S
C3560 C3561 1.524 . S
C3560 H3579 0.913 . S
C3561 H3537 0.950 . S
C3561 C3560 1.524 . S
C3561 C3562 1.415 . S
C3562 H3538 0.950 . S
C3562 C3557 1.363 . S
C3562 C3561 1.415 . S
C3563 H3539 0.951 . S
C3563 C3564 1.366 . S
C3563 C3565 1.388 . S
C3564 C3563 1.366 . S
C3564 C3568 1.385 . S
C3565 H3540 0.951 . S
C3565 C3563 1.388 . S
C3565 C3566 1.366 . S
C3566 C3565 1.366 . S
C3566 C3567 1.414 . S
C3566 C3569 1.499 . S
C3567 H3541 0.950 . S
C3567 C3566 1.414 . S
C3567 C3568 1.374 . S
C3568 H3542 0.950 . S
C3568 C3564 1.385 . S
C3568 C3567 1.374 . S
C3569 C3566 1.499 . S
C3569 C3570 1.373 . S
C3569 C3571 1.389 . S
C3570 H3543 0.950 . S
C3570 C3556 1.377 . S
C3570 C3569 1.373 . S
C3571 C3555 1.377 . S
C3571 C3569 1.389 . S
C3571 C3572 1.524 . S
C3572 C3571 1.524 . S
C3572 C3573 1.397 . S
C3572 C3577 1.363 . S
C3573 H3544 0.950 . S
C3573 C3572 1.397 . S
C3573 C3574 1.334 . S
C3574 H3545 0.950 . S
C3574 C3573 1.334 . S
C3574 C3575 1.287 . S
C3575 C3574 1.287 . S
C3575 C3576 1.524 . S
C3575 H3578 0.999 . S
C3576 H3546 0.950 . S
C3576 C3575 1.524 . S
C3576 C3577 1.415 . S
C3577 H3547 0.950 . S
C3577 C3572 1.363 . S
C3577 C3576 1.415 . S
H3578 C3575 0.999 . S
H3579 C3560 0.913 . S
H3580 C3598 0.951 . S
H3581 C3600 0.951 . S
H3582 C3602 0.950 . S
H3583 C3603 0.950 . S
H3584 C3605 0.950 . S
H3585 C3608 0.950 . S
H3586 C3609 0.950 . S
H3587 C3611 0.950 . S
H3588 C3612 0.950 . S
H3589 C3613 0.951 . S
H3590 C3615 0.951 . S
H3591 C3617 0.950 . S
H3592 C3618 0.950 . S
H3593 C3620 0.950 . S
H3594 C3623 0.950 . S
H3595 C3624 0.950 . S
H3596 C3626 0.950 . S
H3597 C3627 0.950 . S
C3598 H3580 0.951 . S
C3598 C3599 1.366 . S
C3598 C3600 1.388 . S
C3599 C3598 1.366 . S
C3599 C3603 1.385 . S
C3600 H3581 0.951 . S
C3600 C3598 1.388 . S
C3600 C3601 1.366 . S
C3601 C3600 1.366 . S
C3601 C3602 1.414 . S
C3601 C3604 1.499 . S
C3602 H3582 0.950 . S
C3602 C3601 1.414 . S
C3602 C3603 1.374 . S
C3603 H3583 0.950 . S
C3603 C3599 1.385 . S
C3603 C3602 1.374 . S
C3604 C3601 1.499 . S
C3604 C3605 1.373 . S
C3604 C3606 1.389 . S
C3605 H3584 0.950 . S
C3605 C3604 1.373 . S
C3605 C3621 1.377 . S
C3606 C3604 1.389 . S
C3606 C3607 1.524 . S
C3606 C3620 1.377 . S
C3607 C3606 1.524 . S
C3607 C3608 1.397 . S
C3607 C3612 1.363 . S
C3608 H3585 0.950 . S
C3608 C3607 1.397 . S
C3608 C3609 1.334 . S
C3609 H3586 0.950 . S
C3609 C3608 1.334 . S
C3609 C3610 1.287 . S
C3610 C3609 1.287 . S
C3610 C3611 1.524 . S
C3610 H3629 0.913 . S
C3611 H3587 0.950 . S
C3611 C3610 1.524 . S
C3611 C3612 1.415 . S
C3612 H3588 0.950 . S
C3612 C3607 1.363 . S
C3612 C3611 1.415 . S
C3613 H3589 0.951 . S
C3613 C3614 1.366 . S
C3613 C3615 1.388 . S
C3614 C3613 1.366 . S
C3614 C3618 1.385 . S
C3615 H3590 0.951 . S
C3615 C3613 1.388 . S
C3615 C3616 1.366 . S
C3616 C3615 1.366 . S
C3616 C3617 1.414 . S
C3616 C3619 1.499 . S
C3617 H3591 0.950 . S
C3617 C3616 1.414 . S
C3617 C3618 1.374 . S
C3618 H3592 0.950 . S
C3618 C3614 1.385 . S
C3618 C3617 1.374 . S
C3619 C3616 1.499 . S
C3619 C3620 1.373 . S
C3619 C3621 1.389 . S
C3620 H3593 0.950 . S
C3620 C3606 1.377 . S
C3620 C3619 1.373 . S
C3621 C3605 1.377 . S
C3621 C3619 1.389 . S
C3621 C3622 1.524 1_545 S
C3622 C3621 1.524 1_565 S
C3622 C3623 1.397 . S
C3622 C3627 1.363 . S
C3623 H3594 0.950 . S
C3623 C3622 1.397 . S
C3623 C3624 1.334 . S
C3624 H3595 0.950 . S
C3624 C3623 1.334 . S
C3624 C3625 1.287 . S
C3625 C3624 1.287 . S
C3625 C3626 1.524 . S
C3625 H3628 0.999 . S
C3626 H3596 0.950 . S
C3626 C3625 1.524 . S
C3626 C3627 1.415 . S
C3627 H3597 0.950 . S
C3627 C3622 1.363 . S
C3627 C3626 1.415 . S
H3628 C3625 0.999 . S
H3629 C3610 0.913 . S
H3630 C3648 0.951 . S
H3631 C3650 0.951 . S
H3632 C3652 0.950 . S
H3633 C3653 0.950 . S
H3634 C3655 0.950 . S
H3635 C3658 0.950 . S
H3636 C3659 0.950 . S
H3637 C3661 0.950 . S
H3638 C3662 0.950 . S
H3639 C3663 0.951 . S
H3640 C3665 0.951 . S
H3641 C3667 0.950 . S
H3642 C3668 0.950 . S
H3643 C3670 0.950 . S
H3644 C3673 0.950 . S
H3645 C3674 0.950 . S
H3646 C3676 0.950 . S
H3647 C3677 0.950 . S
C3648 H3630 0.951 . S
C3648 C3649 1.366 . S
C3648 C3650 1.388 . S
C3649 C3648 1.366 . S
C3649 C3653 1.385 . S
C3650 H3631 0.951 . S
C3650 C3648 1.388 . S
C3650 C3651 1.366 . S
C3651 C3650 1.366 . S
C3651 C3652 1.414 . S
C3651 C3654 1.499 . S
C3652 H3632 0.950 . S
C3652 C3651 1.414 . S
C3652 C3653 1.374 . S
C3653 H3633 0.950 . S
C3653 C3649 1.385 . S
C3653 C3652 1.374 . S
C3654 C3651 1.499 . S
C3654 C3655 1.373 . S
C3654 C3656 1.389 . S
C3655 H3634 0.950 . S
C3655 C3654 1.373 . S
C3655 C3671 1.377 . S
C3656 C3654 1.389 . S
C3656 C3657 1.524 . S
C3656 C3670 1.377 . S
C3657 C3656 1.524 . S
C3657 C3658 1.397 . S
C3657 C3662 1.363 . S
C3658 H3635 0.950 . S
C3658 C3657 1.397 . S
C3658 C3659 1.334 . S
C3659 H3636 0.950 . S
C3659 C3658 1.334 . S
C3659 C3660 1.287 . S
C3660 C3659 1.287 . S
C3660 C3661 1.524 . S
C3660 H3679 0.913 . S
C3661 H3637 0.950 . S
C3661 C3660 1.524 . S
C3661 C3662 1.415 . S
C3662 H3638 0.950 . S
C3662 C3657 1.363 . S
C3662 C3661 1.415 . S
C3663 H3639 0.951 . S
C3663 C3664 1.366 . S
C3663 C3665 1.388 . S
C3664 C3663 1.366 . S
C3664 C3668 1.385 . S
C3665 H3640 0.951 . S
C3665 C3663 1.388 . S
C3665 C3666 1.366 . S
C3666 C3665 1.366 . S
C3666 C3667 1.414 . S
C3666 C3669 1.499 . S
C3667 H3641 0.950 . S
C3667 C3666 1.414 . S
C3667 C3668 1.374 . S
C3668 H3642 0.950 . S
C3668 C3664 1.385 . S
C3668 C3667 1.374 . S
C3669 C3666 1.499 . S
C3669 C3670 1.373 . S
C3669 C3671 1.389 . S
C3670 H3643 0.950 . S
C3670 C3656 1.377 . S
C3670 C3669 1.373 . S
C3671 C3655 1.377 . S
C3671 C3669 1.389 . S
C3671 C3672 1.524 . S
C3672 C3671 1.524 . S
C3672 C3673 1.397 . S
C3672 C3677 1.363 . S
C3673 H3644 0.950 . S
C3673 C3672 1.397 . S
C3673 C3674 1.334 . S
C3674 H3645 0.950 . S
C3674 C3673 1.334 . S
C3674 C3675 1.287 . S
C3675 C3674 1.287 . S
C3675 C3676 1.524 . S
C3675 H3678 0.999 . S
C3676 H3646 0.950 . S
C3676 C3675 1.524 . S
C3676 C3677 1.415 . S
C3677 H3647 0.950 . S
C3677 C3672 1.363 . S
C3677 C3676 1.415 . S
H3678 C3675 0.999 . S
H3679 C3660 0.913 . S
H3680 C3698 0.951 . S
H3681 C3700 0.951 . S
H3682 C3702 0.950 . S
H3683 C3703 0.950 . S
H3684 C3705 0.950 . S
H3685 C3708 0.950 . S
H3686 C3709 0.950 . S
H3687 C3711 0.950 . S
H3688 C3712 0.950 . S
H3689 C3713 0.951 . S
H3690 C3715 0.951 . S
H3691 C3717 0.950 . S
H3692 C3718 0.950 . S
H3693 C3720 0.950 1_556 S
H3694 C3723 0.950 . S
H3695 C3724 0.950 . S
H3696 C3726 0.950 . S
H3697 C3727 0.950 . S
C3698 H3680 0.951 . S
C3698 C3699 1.366 . S
C3698 C3700 1.388 . S
C3699 C3698 1.366 . S
C3699 C3703 1.385 . S
C3700 H3681 0.951 . S
C3700 C3698 1.388 . S
C3700 C3701 1.366 . S
C3701 C3700 1.366 . S
C3701 C3702 1.414 . S
C3701 C3704 1.499 . S
C3702 H3682 0.950 . S
C3702 C3701 1.414 . S
C3702 C3703 1.374 . S
C3703 H3683 0.950 . S
C3703 C3699 1.385 . S
C3703 C3702 1.374 . S
C3704 C3701 1.499 . S
C3704 C3705 1.373 . S
C3704 C3706 1.389 . S
C3705 H3684 0.950 . S
C3705 C3704 1.373 . S
C3705 C3721 1.377 . S
C3706 C3704 1.389 . S
C3706 C3707 1.524 1_554 S
C3706 C3720 1.377 . S
C3707 C3706 1.524 1_556 S
C3707 C3708 1.397 . S
C3707 C3712 1.363 . S
C3708 H3685 0.950 . S
C3708 C3707 1.397 . S
C3708 C3709 1.334 . S
C3709 H3686 0.950 . S
C3709 C3708 1.334 . S
C3709 C3710 1.287 . S
C3710 C3709 1.287 . S
C3710 C3711 1.524 . S
C3710 H3729 0.913 . S
C3711 H3687 0.950 . S
C3711 C3710 1.524 . S
C3711 C3712 1.415 . S
C3712 H3688 0.950 . S
C3712 C3707 1.363 . S
C3712 C3711 1.415 . S
C3713 H3689 0.951 . S
C3713 C3714 1.366 . S
C3713 C3715 1.388 . S
C3714 C3713 1.366 . S
C3714 C3718 1.385 . S
C3715 H3690 0.951 . S
C3715 C3713 1.388 . S
C3715 C3716 1.366 . S
C3716 C3715 1.366 . S
C3716 C3717 1.414 . S
C3716 C3719 1.499 . S
C3717 H3691 0.950 . S
C3717 C3716 1.414 . S
C3717 C3718 1.374 . S
C3718 H3692 0.950 . S
C3718 C3714 1.385 . S
C3718 C3717 1.374 . S
C3719 C3716 1.499 . S
C3719 C3720 1.373 . S
C3719 C3721 1.389 . S
C3720 H3693 0.950 1_554 S
C3720 C3706 1.377 . S
C3720 C3719 1.373 . S
C3721 C3705 1.377 . S
C3721 C3719 1.389 . S
C3721 C3722 1.524 . S
C3722 C3721 1.524 . S
C3722 C3723 1.397 . S
C3722 C3727 1.363 . S
C3723 H3694 0.950 . S
C3723 C3722 1.397 . S
C3723 C3724 1.334 . S
C3724 H3695 0.950 . S
C3724 C3723 1.334 . S
C3724 C3725 1.287 . S
C3725 C3724 1.287 . S
C3725 C3726 1.524 . S
C3725 H3728 0.999 . S
C3726 H3696 0.950 . S
C3726 C3725 1.524 . S
C3726 C3727 1.415 . S
C3727 H3697 0.950 . S
C3727 C3722 1.363 . S
C3727 C3726 1.415 . S
H3728 C3725 0.999 . S
H3729 C3710 0.913 . S
H3730 C3748 0.951 . S
H3731 C3750 0.951 . S
H3732 C3752 0.950 . S
H3733 C3753 0.950 . S
H3734 C3755 0.950 . S
H3735 C3758 0.950 . S
H3736 C3759 0.950 . S
H3737 C3761 0.950 . S
H3738 C3762 0.950 . S
H3739 C3763 0.951 . S
H3740 C3765 0.951 . S
H3741 C3767 0.950 . S
H3742 C3768 0.950 . S
H3743 C3770 0.950 . S
H3744 C3773 0.947 . S
H3745 C3774 0.950 . S
H3746 C3776 0.950 . S
H3747 C3777 0.950 . S
C3748 H3730 0.951 . S
C3748 C3749 1.366 . S
C3748 C3750 1.388 . S
C3749 C3748 1.366 . S
C3749 C3753 1.385 . S
C3750 H3731 0.951 . S
C3750 C3748 1.388 . S
C3750 C3751 1.366 . S
C3751 C3750 1.366 . S
C3751 C3752 1.414 . S
C3751 C3754 1.499 . S
C3752 H3732 0.950 . S
C3752 C3751 1.414 . S
C3752 C3753 1.374 . S
C3753 H3733 0.950 . S
C3753 C3749 1.385 . S
C3753 C3752 1.374 . S
C3754 C3751 1.499 . S
C3754 C3755 1.373 . S
C3754 C3756 1.389 . S
C3755 H3734 0.950 . S
C3755 C3754 1.373 . S
C3755 C3771 1.377 . S
C3756 C3754 1.389 . S
C3756 C3757 1.524 . S
C3756 C3770 1.377 . S
C3757 C3756 1.524 . S
C3757 C3758 1.397 . S
C3757 C3762 1.363 . S
C3758 H3735 0.950 . S
C3758 C3757 1.397 . S
C3758 C3759 1.334 . S
C3759 H3736 0.950 . S
C3759 C3758 1.334 . S
C3759 C3760 1.287 . S
C3760 C3759 1.287 . S
C3760 C3761 1.524 . S
C3760 H3779 0.913 . S
C3761 H3737 0.950 . S
C3761 C3760 1.524 . S
C3761 C3762 1.415 . S
C3762 H3738 0.950 . S
C3762 C3757 1.363 . S
C3762 C3761 1.415 . S
C3763 H3739 0.951 . S
C3763 C3764 1.366 . S
C3763 C3765 1.388 . S
C3764 C3763 1.366 . S
C3764 C3768 1.385 . S
C3765 H3740 0.951 . S
C3765 C3763 1.388 . S
C3765 C3766 1.366 . S
C3766 C3765 1.366 . S
C3766 C3767 1.414 . S
C3766 C3769 1.499 . S
C3767 H3741 0.950 . S
C3767 C3766 1.414 . S
C3767 C3768 1.374 . S
C3768 H3742 0.950 . S
C3768 C3764 1.385 . S
C3768 C3767 1.374 . S
C3769 C3766 1.499 . S
C3769 C3770 1.373 . S
C3769 C3771 1.389 . S
C3770 H3743 0.950 . S
C3770 C3756 1.377 . S
C3770 C3769 1.373 . S
C3771 C3755 1.377 . S
C3771 C3769 1.389 . S
C3771 C3772 1.545 . S
C3772 C3771 1.545 . S
C3772 C3773 1.389 1_554 S
C3772 C3777 1.350 1_554 S
C3773 H3744 0.947 . S
C3773 C3772 1.389 1_556 S
C3773 C3774 1.334 . S
C3774 H3745 0.950 . S
C3774 C3773 1.334 . S
C3774 C3775 1.287 . S
C3775 C3774 1.287 . S
C3775 C3776 1.524 . S
C3775 H3778 0.999 . S
C3776 H3746 0.950 . S
C3776 C3775 1.524 . S
C3776 C3777 1.415 . S
C3777 H3747 0.950 . S
C3777 C3772 1.350 1_556 S
C3777 C3776 1.415 . S
H3778 C3775 0.999 . S
H3779 C3760 0.913 . S
H3780 C3798 0.951 . S
H3781 C3800 0.951 . S
H3782 C3802 0.950 . S
H3783 C3803 0.950 . S
H3784 C3805 0.950 . S
H3785 C3808 0.950 . S
H3786 C3809 0.950 . S
H3787 C3811 0.950 . S
H3788 C3812 0.950 . S
H3789 C3813 0.951 . S
H3790 C3815 0.951 . S
H3791 C3817 0.950 . S
H3792 C3818 0.950 . S
H3793 C3820 0.950 . S
H3794 C3823 0.950 . S
H3795 C3824 0.950 . S
H3796 C3826 0.950 . S
H3797 C3827 0.950 . S
C3798 H3780 0.951 . S
C3798 C3799 1.366 . S
C3798 C3800 1.388 . S
C3799 C3798 1.366 . S
C3799 C3803 1.385 . S
C3800 H3781 0.951 . S
C3800 C3798 1.388 . S
C3800 C3801 1.366 . S
C3801 C3800 1.366 . S
C3801 C3802 1.414 . S
C3801 C3804 1.499 . S
C3802 H3782 0.950 . S
C3802 C3801 1.414 . S
C3802 C3803 1.374 . S
C3803 H3783 0.950 . S
C3803 C3799 1.385 . S
C3803 C3802 1.374 . S
C3804 C3801 1.499 . S
C3804 C3805 1.373 . S
C3804 C3806 1.389 . S
C3805 H3784 0.950 . S
C3805 C3804 1.373 . S
C3805 C3821 1.377 . S
C3806 C3804 1.389 . S
C3806 C3807 1.524 . S
C3806 C3820 1.377 . S
C3807 C3806 1.524 . S
C3807 C3808 1.397 . S
C3807 C3812 1.363 . S
C3808 H3785 0.950 . S
C3808 C3807 1.397 . S
C3808 C3809 1.334 . S
C3809 H3786 0.950 . S
C3809 C3808 1.334 . S
C3809 C3810 1.287 . S
C3810 C3809 1.287 . S
C3810 C3811 1.524 . S
C3810 H3829 0.913 . S
C3811 H3787 0.950 . S
C3811 C3810 1.524 . S
C3811 C3812 1.415 . S
C3812 H3788 0.950 . S
C3812 C3807 1.363 . S
C3812 C3811 1.415 . S
C3813 H3789 0.951 . S
C3813 C3814 1.366 . S
C3813 C3815 1.388 . S
C3814 C3813 1.366 . S
C3814 C3818 1.385 . S
C3815 H3790 0.951 . S
C3815 C3813 1.388 . S
C3815 C3816 1.366 . S
C3816 C3815 1.366 . S
C3816 C3817 1.414 . S
C3816 C3819 1.499 . S
C3817 H3791 0.950 . S
C3817 C3816 1.414 . S
C3817 C3818 1.374 . S
C3818 H3792 0.950 . S
C3818 C3814 1.385 . S
C3818 C3817 1.374 . S
C3819 C3816 1.499 . S
C3819 C3820 1.373 . S
C3819 C3821 1.389 . S
C3820 H3793 0.950 . S
C3820 C3806 1.377 . S
C3820 C3819 1.373 . S
C3821 C3805 1.377 . S
C3821 C3819 1.389 . S
C3821 C3822 1.524 . S
C3822 C3821 1.524 . S
C3822 C3823 1.397 . S
C3822 C3827 1.363 . S
C3823 H3794 0.950 . S
C3823 C3822 1.397 . S
C3823 C3824 1.334 . S
C3824 H3795 0.950 . S
C3824 C3823 1.334 . S
C3824 C3825 1.287 . S
C3825 C3824 1.287 . S
C3825 C3826 1.524 . S
C3825 H3828 0.999 . S
C3826 H3796 0.950 . S
C3826 C3825 1.524 . S
C3826 C3827 1.415 . S
C3827 H3797 0.950 . S
C3827 C3822 1.363 . S
C3827 C3826 1.415 . S
H3828 C3825 0.999 . S
H3829 C3810 0.913 . S
H3830 C3848 0.951 . S
H3831 C3850 0.951 . S
H3832 C3852 0.950 . S
H3833 C3853 0.950 . S
H3834 C3855 0.950 . S
H3835 C3858 0.950 . S
H3836 C3859 0.950 . S
H3837 C3861 0.950 . S
H3838 C3862 0.950 . S
H3839 C3863 0.951 . S
H3840 C3865 0.951 . S
H3841 C3867 0.950 . S
H3842 C3868 0.950 . S
H3843 C3870 0.950 . S
H3844 C3873 0.950 . S
H3845 C3874 0.950 . S
H3846 C3876 0.950 . S
H3847 C3877 0.950 . S
C3848 H3830 0.951 . S
C3848 C3849 1.366 . S
C3848 C3850 1.388 . S
C3849 C3848 1.366 . S
C3849 C3853 1.385 . S
C3850 H3831 0.951 . S
C3850 C3848 1.388 . S
C3850 C3851 1.366 . S
C3851 C3850 1.366 . S
C3851 C3852 1.414 . S
C3851 C3854 1.499 . S
C3852 H3832 0.950 . S
C3852 C3851 1.414 . S
C3852 C3853 1.374 . S
C3853 H3833 0.950 . S
C3853 C3849 1.385 . S
C3853 C3852 1.374 . S
C3854 C3851 1.499 . S
C3854 C3855 1.373 . S
C3854 C3856 1.389 . S
C3855 H3834 0.950 . S
C3855 C3854 1.373 . S
C3855 C3871 1.377 . S
C3856 C3854 1.389 . S
C3856 C3857 1.524 . S
C3856 C3870 1.377 . S
C3857 C3856 1.524 . S
C3857 C3858 1.397 . S
C3857 C3862 1.363 . S
C3858 H3835 0.950 . S
C3858 C3857 1.397 . S
C3858 C3859 1.334 . S
C3859 H3836 0.950 . S
C3859 C3858 1.334 . S
C3859 C3860 1.287 . S
C3860 C3859 1.287 . S
C3860 C3861 1.524 . S
C3860 H3879 0.913 . S
C3861 H3837 0.950 . S
C3861 C3860 1.524 . S
C3861 C3862 1.415 . S
C3862 H3838 0.950 . S
C3862 C3857 1.363 . S
C3862 C3861 1.415 . S
C3863 H3839 0.951 . S
C3863 C3864 1.366 . S
C3863 C3865 1.388 . S
C3864 C3863 1.366 . S
C3864 C3868 1.385 . S
C3865 H3840 0.951 . S
C3865 C3863 1.388 . S
C3865 C3866 1.366 . S
C3866 C3865 1.366 . S
C3866 C3867 1.414 . S
C3866 C3869 1.499 . S
C3867 H3841 0.950 . S
C3867 C3866 1.414 . S
C3867 C3868 1.374 . S
C3868 H3842 0.950 . S
C3868 C3864 1.385 . S
C3868 C3867 1.374 . S
C3869 C3866 1.499 . S
C3869 C3870 1.373 . S
C3869 C3871 1.389 . S
C3870 H3843 0.950 . S
C3870 C3856 1.377 . S
C3870 C3869 1.373 . S
C3871 C3855 1.377 . S
C3871 C3869 1.389 . S
C3871 C3872 1.524 . S
C3872 C3871 1.524 . S
C3872 C3873 1.397 . S
C3872 C3877 1.363 . S
C3873 H3844 0.950 . S
C3873 C3872 1.397 . S
C3873 C3874 1.334 . S
C3874 H3845 0.950 . S
C3874 C3873 1.334 . S
C3874 C3875 1.287 . S
C3875 C3874 1.287 . S
C3875 C3876 1.524 . S
C3875 H3878 0.999 . S
C3876 H3846 0.950 . S
C3876 C3875 1.524 . S
C3876 C3877 1.415 . S
C3877 H3847 0.950 . S
C3877 C3872 1.363 . S
C3877 C3876 1.415 . S
H3878 C3875 0.999 . S
H3879 C3860 0.913 . S
H3880 C3898 0.951 . S
H3881 C3900 0.951 . S
H3882 C3902 0.950 . S
H3883 C3903 0.950 . S
H3884 C3905 0.950 . S
H3885 C3908 0.950 . S
H3886 C3909 0.950 . S
H3887 C3911 0.950 . S
H3888 C3912 0.950 . S
H3889 C3913 0.951 . S
H3890 C3915 0.951 . S
H3891 C3917 0.950 . S
H3892 C3918 0.950 . S
H3893 C3920 0.950 . S
H3894 C3923 0.950 . S
H3895 C3924 0.950 . S
H3896 C3926 0.950 . S
H3897 C3927 0.950 . S
C3898 H3880 0.951 . S
C3898 C3899 1.329 1_565 S
C3898 C3900 1.388 . S
C3899 C3898 1.329 1_545 S
C3899 C3903 1.379 . S
C3900 H3881 0.951 . S
C3900 C3898 1.388 . S
C3900 C3901 1.366 . S
C3901 C3900 1.366 . S
C3901 C3902 1.414 . S
C3901 C3904 1.499 . S
C3902 H3882 0.950 . S
C3902 C3901 1.414 . S
C3902 C3903 1.374 1_565 S
C3903 H3883 0.950 . S
C3903 C3899 1.379 . S
C3903 C3902 1.374 1_545 S
C3904 C3901 1.499 . S
C3904 C3905 1.373 . S
C3904 C3906 1.389 . S
C3905 H3884 0.950 . S
C3905 C3904 1.373 . S
C3905 C3921 1.377 . S
C3906 C3904 1.389 . S
C3906 C3907 1.524 . S
C3906 C3920 1.377 . S
C3907 C3906 1.524 . S
C3907 C3908 1.397 . S
C3907 C3912 1.363 . S
C3908 H3885 0.950 . S
C3908 C3907 1.397 . S
C3908 C3909 1.334 . S
C3909 H3886 0.950 . S
C3909 C3908 1.334 . S
C3909 C3910 1.287 . S
C3910 C3909 1.287 . S
C3910 C3911 1.524 . S
C3910 H3929 0.913 . S
C3911 H3887 0.950 . S
C3911 C3910 1.524 . S
C3911 C3912 1.415 . S
C3912 H3888 0.950 . S
C3912 C3907 1.363 . S
C3912 C3911 1.415 . S
C3913 H3889 0.951 . S
C3913 C3914 1.366 . S
C3913 C3915 1.388 . S
C3914 C3913 1.366 . S
C3914 C3918 1.385 . S
C3915 H3890 0.951 . S
C3915 C3913 1.388 . S
C3915 C3916 1.366 . S
C3916 C3915 1.366 . S
C3916 C3917 1.414 . S
C3916 C3919 1.499 . S
C3917 H3891 0.950 . S
C3917 C3916 1.414 . S
C3917 C3918 1.374 . S
C3918 H3892 0.950 . S
C3918 C3914 1.385 . S
C3918 C3917 1.374 . S
C3919 C3916 1.499 . S
C3919 C3920 1.373 . S
C3919 C3921 1.389 . S
C3920 H3893 0.950 . S
C3920 C3906 1.377 . S
C3920 C3919 1.373 . S
C3921 C3905 1.377 . S
C3921 C3919 1.389 . S
C3921 C3922 1.524 . S
C3922 C3921 1.524 . S
C3922 C3923 1.397 . S
C3922 C3927 1.363 . S
C3923 H3894 0.950 . S
C3923 C3922 1.397 . S
C3923 C3924 1.334 . S
C3924 H3895 0.950 . S
C3924 C3923 1.334 . S
C3924 C3925 1.287 . S
C3925 C3924 1.287 . S
C3925 C3926 1.524 . S
C3925 H3928 0.999 . S
C3926 H3896 0.950 . S
C3926 C3925 1.524 . S
C3926 C3927 1.415 . S
C3927 H3897 0.950 . S
C3927 C3922 1.363 . S
C3927 C3926 1.415 . S
H3928 C3925 0.999 . S
H3929 C3910 0.913 . S
H3930 C3948 0.951 . S
H3931 C3950 0.951 . S
H3932 C3952 0.950 . S
H3933 C3953 0.950 . S
H3934 C3955 0.950 . S
H3935 C3958 0.950 . S
H3936 C3959 0.950 . S
H3937 C3961 0.950 . S
H3938 C3962 0.950 . S
H3939 C3963 0.951 1_545 S
H3940 C3965 0.951 . S
H3941 C3967 0.950 . S
H3942 C3968 0.950 . S
H3943 C3970 0.950 . S
H3944 C3973 0.950 . S
H3945 C3974 0.950 . S
H3946 C3976 0.950 . S
H3947 C3977 0.950 . S
C3948 H3930 0.951 . S
C3948 C3949 1.366 . S
C3948 C3950 1.388 . S
C3949 C3948 1.366 . S
C3949 C3953 1.385 . S
C3950 H3931 0.951 . S
C3950 C3948 1.388 . S
C3950 C3951 1.366 . S
C3951 C3950 1.366 . S
C3951 C3952 1.414 . S
C3951 C3954 1.499 . S
C3952 H3932 0.950 . S
C3952 C3951 1.414 . S
C3952 C3953 1.374 . S
C3953 H3933 0.950 . S
C3953 C3949 1.385 . S
C3953 C3952 1.374 . S
C3954 C3951 1.499 . S
C3954 C3955 1.373 . S
C3954 C3956 1.389 . S
C3955 H3934 0.950 . S
C3955 C3954 1.373 . S
C3955 C3971 1.377 . S
C3956 C3954 1.389 . S
C3956 C3957 1.524 . S
C3956 C3970 1.377 . S
C3957 C3956 1.524 . S
C3957 C3958 1.397 . S
C3957 C3962 1.363 . S
C3958 H3935 0.950 . S
C3958 C3957 1.397 . S
C3958 C3959 1.334 . S
C3959 H3936 0.950 . S
C3959 C3958 1.334 . S
C3959 C3960 1.287 . S
C3960 C3959 1.287 . S
C3960 C3961 1.524 . S
C3960 H3979 0.913 . S
C3961 H3937 0.950 . S
C3961 C3960 1.524 . S
C3961 C3962 1.415 . S
C3962 H3938 0.950 . S
C3962 C3957 1.363 . S
C3962 C3961 1.415 . S
C3963 H3939 0.951 1_565 S
C3963 C3964 1.366 . S
C3963 C3965 1.388 . S
C3964 C3963 1.366 . S
C3964 C3968 1.385 . S
C3965 H3940 0.951 . S
C3965 C3963 1.388 . S
C3965 C3966 1.366 . S
C3966 C3965 1.366 . S
C3966 C3967 1.414 . S
C3966 C3969 1.499 . S
C3967 H3941 0.950 . S
C3967 C3966 1.414 . S
C3967 C3968 1.374 . S
C3968 H3942 0.950 . S
C3968 C3964 1.385 . S
C3968 C3967 1.374 . S
C3969 C3966 1.499 . S
C3969 C3970 1.373 . S
C3969 C3971 1.389 . S
C3970 H3943 0.950 . S
C3970 C3956 1.377 . S
C3970 C3969 1.373 . S
C3971 C3955 1.377 . S
C3971 C3969 1.389 . S
C3971 C3972 1.524 . S
C3972 C3971 1.524 . S
C3972 C3973 1.397 . S
C3972 C3977 1.363 . S
C3973 H3944 0.950 . S
C3973 C3972 1.397 . S
C3973 C3974 1.334 . S
C3974 H3945 0.950 . S
C3974 C3973 1.334 . S
C3974 C3975 1.287 . S
C3975 C3974 1.287 . S
C3975 C3976 1.524 . S
C3975 H3978 0.999 . S
C3976 H3946 0.950 . S
C3976 C3975 1.524 . S
C3976 C3977 1.415 . S
C3977 H3947 0.950 . S
C3977 C3972 1.363 . S
C3977 C3976 1.415 . S
H3978 C3975 0.999 . S
H3979 C3960 0.913 . S
H3980 C3998 0.951 . S
H3981 C4000 0.951 . S
H3982 C4002 0.950 . S
H3983 C4003 0.950 . S
H3984 C4005 0.950 . S
H3985 C4008 0.950 . S
H3986 C4009 0.950 . S
H3987 C4011 0.950 . S
H3988 C4012 0.950 . S
H3989 C4013 0.951 . S
H3990 C4015 0.951 . S
H3991 C4017 0.950 . S
H3992 C4018 0.950 . S
H3993 C4020 0.950 . S
H3994 C4023 0.950 . S
H3995 C4024 0.950 . S
H3996 C4026 0.950 . S
H3997 C4027 0.950 . S
C3998 H3980 0.951 . S
C3998 C3999 1.366 . S
C3998 C4000 1.388 . S
C3999 C3998 1.366 . S
C3999 C4003 1.385 . S
C4000 H3981 0.951 . S
C4000 C3998 1.388 . S
C4000 C4001 1.366 . S
C4001 C4000 1.366 . S
C4001 C4002 1.414 . S
C4001 C4004 1.499 . S
C4002 H3982 0.950 . S
C4002 C4001 1.414 . S
C4002 C4003 1.374 . S
C4003 H3983 0.950 . S
C4003 C3999 1.385 . S
C4003 C4002 1.374 . S
C4004 C4001 1.499 . S
C4004 C4005 1.373 . S
C4004 C4006 1.389 . S
C4005 H3984 0.950 . S
C4005 C4004 1.373 . S
C4005 C4021 1.377 . S
C4006 C4004 1.389 . S
C4006 C4007 1.524 . S
C4006 C4020 1.377 . S
C4007 C4006 1.524 . S
C4007 C4008 1.397 . S
C4007 C4012 1.363 . S
C4008 H3985 0.950 . S
C4008 C4007 1.397 . S
C4008 C4009 1.334 . S
C4009 H3986 0.950 . S
C4009 C4008 1.334 . S
C4009 C4010 1.287 . S
C4010 C4009 1.287 . S
C4010 C4011 1.524 . S
C4010 H4029 0.913 . S
C4011 H3987 0.950 . S
C4011 C4010 1.524 . S
C4011 C4012 1.415 . S
C4012 H3988 0.950 . S
C4012 C4007 1.363 . S
C4012 C4011 1.415 . S
C4013 H3989 0.951 . S
C4013 C4014 1.366 . S
C4013 C4015 1.388 . S
C4014 C4013 1.366 . S
C4014 C4018 1.385 . S
C4015 H3990 0.951 . S
C4015 C4013 1.388 . S
C4015 C4016 1.366 . S
C4016 C4015 1.366 . S
C4016 C4017 1.414 . S
C4016 C4019 1.499 . S
C4017 H3991 0.950 . S
C4017 C4016 1.414 . S
C4017 C4018 1.374 . S
C4018 H3992 0.950 . S
C4018 C4014 1.385 . S
C4018 C4017 1.374 . S
C4019 C4016 1.499 . S
C4019 C4020 1.373 . S
C4019 C4021 1.389 . S
C4020 H3993 0.950 . S
C4020 C4006 1.377 . S
C4020 C4019 1.373 . S
C4021 C4005 1.377 . S
C4021 C4019 1.389 . S
C4021 C4022 1.524 . S
C4022 C4021 1.524 . S
C4022 C4023 1.397 . S
C4022 C4027 1.363 . S
C4023 H3994 0.950 . S
C4023 C4022 1.397 . S
C4023 C4024 1.334 . S
C4024 H3995 0.950 . S
C4024 C4023 1.334 . S
C4024 C4025 1.287 . S
C4025 C4024 1.287 . S
C4025 C4026 1.524 . S
C4025 H4028 0.999 . S
C4026 H3996 0.950 . S
C4026 C4025 1.524 . S
C4026 C4027 1.415 . S
C4027 H3997 0.950 . S
C4027 C4022 1.363 . S
C4027 C4026 1.415 . S
H4028 C4025 0.999 . S
H4029 C4010 0.913 . S
H4030 C4048 0.951 . S
H4031 C4050 0.951 . S
H4032 C4052 0.950 . S
H4033 C4053 0.950 . S
H4034 C4055 0.950 . S
H4035 C4058 0.950 . S
H4036 C4059 0.950 . S
H4037 C4061 0.950 . S
H4038 C4062 0.950 . S
H4039 C4063 0.951 . S
H4040 C4065 0.951 . S
H4041 C4067 0.950 . S
H4042 C4068 0.950 . S
H4043 C4070 0.950 . S
H4044 C4073 0.950 . S
H4045 C4074 0.950 . S
H4046 C4076 0.950 . S
H4047 C4077 0.950 . S
C4048 H4030 0.951 . S
C4048 C4049 1.366 . S
C4048 C4050 1.388 . S
C4049 C4048 1.366 . S
C4049 C4053 1.385 . S
C4050 H4031 0.951 . S
C4050 C4048 1.388 . S
C4050 C4051 1.366 . S
C4051 C4050 1.366 . S
C4051 C4052 1.414 . S
C4051 C4054 1.499 . S
C4052 H4032 0.950 . S
C4052 C4051 1.414 . S
C4052 C4053 1.374 . S
C4053 H4033 0.950 . S
C4053 C4049 1.385 . S
C4053 C4052 1.374 . S
C4054 C4051 1.499 . S
C4054 C4055 1.373 . S
C4054 C4056 1.389 . S
C4055 H4034 0.950 . S
C4055 C4054 1.373 . S
C4055 C4071 1.377 . S
C4056 C4054 1.389 . S
C4056 C4057 1.524 . S
C4056 C4070 1.377 . S
C4057 C4056 1.524 . S
C4057 C4058 1.397 . S
C4057 C4062 1.363 . S
C4058 H4035 0.950 . S
C4058 C4057 1.397 . S
C4058 C4059 1.334 . S
C4059 H4036 0.950 . S
C4059 C4058 1.334 . S
C4059 C4060 1.287 . S
C4060 C4059 1.287 . S
C4060 C4061 1.524 . S
C4060 H4079 0.913 . S
C4061 H4037 0.950 . S
C4061 C4060 1.524 . S
C4061 C4062 1.415 . S
C4062 H4038 0.950 . S
C4062 C4057 1.363 . S
C4062 C4061 1.415 . S
C4063 H4039 0.951 . S
C4063 C4064 1.366 . S
C4063 C4065 1.388 . S
C4064 C4063 1.366 . S
C4064 C4068 1.385 . S
C4065 H4040 0.951 . S
C4065 C4063 1.388 . S
C4065 C4066 1.366 . S
C4066 C4065 1.366 . S
C4066 C4067 1.414 . S
C4066 C4069 1.499 . S
C4067 H4041 0.950 . S
C4067 C4066 1.414 . S
C4067 C4068 1.374 . S
C4068 H4042 0.950 . S
C4068 C4064 1.385 . S
C4068 C4067 1.374 . S
C4069 C4066 1.499 . S
C4069 C4070 1.373 . S
C4069 C4071 1.389 . S
C4070 H4043 0.950 . S
C4070 C4056 1.377 . S
C4070 C4069 1.373 . S
C4071 C4055 1.377 . S
C4071 C4069 1.389 . S
C4071 C4072 1.524 . S
C4072 C4071 1.524 . S
C4072 C4073 1.397 . S
C4072 C4077 1.363 . S
C4073 H4044 0.950 . S
C4073 C4072 1.397 . S
C4073 C4074 1.334 . S
C4074 H4045 0.950 . S
C4074 C4073 1.334 . S
C4074 C4075 1.287 . S
C4075 C4074 1.287 . S
C4075 C4076 1.524 . S
C4075 H4078 0.999 . S
C4076 H4046 0.950 . S
C4076 C4075 1.524 . S
C4076 C4077 1.415 . S
C4077 H4047 0.950 . S
C4077 C4072 1.363 . S
C4077 C4076 1.415 . S
H4078 C4075 0.999 . S
H4079 C4060 0.913 . S
H4080 C4098 0.951 . S
H4081 C4100 0.951 . S
H4082 C4102 0.950 . S
H4083 C4103 0.950 . S
H4084 C4105 0.950 . S
H4085 C4108 0.950 . S
H4086 C4109 0.950 . S
H4087 C4111 0.950 . S
H4088 C4112 0.950 . S
H4089 C4113 0.951 . S
H4090 C4115 0.951 . S
H4091 C4117 0.950 . S
H4092 C4118 0.950 . S
H4093 C4120 0.950 . S
H4094 C4123 0.950 . S
H4095 C4124 0.950 . S
H4096 C4126 0.950 . S
H4097 C4127 0.950 . S
C4098 H4080 0.951 . S
C4098 C4099 1.366 . S
C4098 C4100 1.388 . S
C4099 C4098 1.366 . S
C4099 C4103 1.385 . S
C4100 H4081 0.951 . S
C4100 C4098 1.388 . S
C4100 C4101 1.366 . S
C4101 C4100 1.366 . S
C4101 C4102 1.414 . S
C4101 C4104 1.499 . S
C4102 H4082 0.950 . S
C4102 C4101 1.414 . S
C4102 C4103 1.374 . S
C4103 H4083 0.950 . S
C4103 C4099 1.385 . S
C4103 C4102 1.374 . S
C4104 C4101 1.499 . S
C4104 C4105 1.373 . S
C4104 C4106 1.389 . S
C4105 H4084 0.950 . S
C4105 C4104 1.373 . S
C4105 C4121 1.377 . S
C4106 C4104 1.389 . S
C4106 C4107 1.524 . S
C4106 C4120 1.377 . S
C4107 C4106 1.524 . S
C4107 C4108 1.397 . S
C4107 C4112 1.363 . S
C4108 H4085 0.950 . S
C4108 C4107 1.397 . S
C4108 C4109 1.334 . S
C4109 H4086 0.950 . S
C4109 C4108 1.334 . S
C4109 C4110 1.287 . S
C4110 C4109 1.287 . S
C4110 C4111 1.524 . S
C4110 H4129 0.913 . S
C4111 H4087 0.950 . S
C4111 C4110 1.524 . S
C4111 C4112 1.415 . S
C4112 H4088 0.950 . S
C4112 C4107 1.363 . S
C4112 C4111 1.415 . S
C4113 H4089 0.951 . S
C4113 C4114 1.366 . S
C4113 C4115 1.388 . S
C4114 C4113 1.366 . S
C4114 C4118 1.385 . S
C4115 H4090 0.951 . S
C4115 C4113 1.388 . S
C4115 C4116 1.366 . S
C4116 C4115 1.366 . S
C4116 C4117 1.414 . S
C4116 C4119 1.499 . S
C4117 H4091 0.950 . S
C4117 C4116 1.414 . S
C4117 C4118 1.374 . S
C4118 H4092 0.950 . S
C4118 C4114 1.385 . S
C4118 C4117 1.374 . S
C4119 C4116 1.499 . S
C4119 C4120 1.373 . S
C4119 C4121 1.389 . S
C4120 H4093 0.950 . S
C4120 C4106 1.377 . S
C4120 C4119 1.373 . S
C4121 C4105 1.377 . S
C4121 C4119 1.389 . S
C4121 C4122 1.524 . S
C4122 C4121 1.524 . S
C4122 C4123 1.397 . S
C4122 C4127 1.363 . S
C4123 H4094 0.950 . S
C4123 C4122 1.397 . S
C4123 C4124 1.334 . S
C4124 H4095 0.950 . S
C4124 C4123 1.334 . S
C4124 C4125 1.287 . S
C4125 C4124 1.287 . S
C4125 C4126 1.524 . S
C4125 H4128 0.999 . S
C4126 H4096 0.950 . S
C4126 C4125 1.524 . S
C4126 C4127 1.415 . S
C4127 H4097 0.950 . S
C4127 C4122 1.363 . S
C4127 C4126 1.415 . S
H4128 C4125 0.999 . S
H4129 C4110 0.913 . S
H4130 C4148 0.951 . S
H4131 C4150 0.951 . S
H4132 C4152 0.950 . S
H4133 C4153 0.950 . S
H4134 C4155 0.950 . S
H4135 C4158 0.950 . S
H4136 C4159 0.950 . S
H4137 C4161 0.950 . S
H4138 C4162 0.950 . S
H4139 C4163 0.951 . S
H4140 C4165 0.951 . S
H4141 C4167 0.950 . S
H4142 C4168 0.950 . S
H4143 C4170 0.950 . S
H4144 C4173 0.950 . S
H4145 C4174 0.950 . S
H4146 C4176 0.950 . S
H4147 C4177 0.950 . S
C4148 H4130 0.951 . S
C4148 C4149 1.366 . S
C4148 C4150 1.388 . S
C4149 C4148 1.366 . S
C4149 C4153 1.385 . S
C4150 H4131 0.951 . S
C4150 C4148 1.388 . S
C4150 C4151 1.366 . S
C4151 C4150 1.366 . S
C4151 C4152 1.414 . S
C4151 C4154 1.499 . S
C4152 H4132 0.950 . S
C4152 C4151 1.414 . S
C4152 C4153 1.374 . S
C4153 H4133 0.950 . S
C4153 C4149 1.385 . S
C4153 C4152 1.374 . S
C4154 C4151 1.499 . S
C4154 C4155 1.373 . S
C4154 C4156 1.389 . S
C4155 H4134 0.950 . S
C4155 C4154 1.373 . S
C4155 C4171 1.377 . S
C4156 C4154 1.389 . S
C4156 C4157 1.524 . S
C4156 C4170 1.377 . S
C4157 C4156 1.524 . S
C4157 C4158 1.397 . S
C4157 C4162 1.363 . S
C4158 H4135 0.950 . S
C4158 C4157 1.397 . S
C4158 C4159 1.334 . S
C4159 H4136 0.950 . S
C4159 C4158 1.334 . S
C4159 C4160 1.287 . S
C4160 C4159 1.287 . S
C4160 C4161 1.524 . S
C4160 H4179 0.913 . S
C4161 H4137 0.950 . S
C4161 C4160 1.524 . S
C4161 C4162 1.415 . S
C4162 H4138 0.950 . S
C4162 C4157 1.363 . S
C4162 C4161 1.415 . S
C4163 H4139 0.951 . S
C4163 C4164 1.366 . S
C4163 C4165 1.388 . S
C4164 C4163 1.366 . S
C4164 C4168 1.385 . S
C4165 H4140 0.951 . S
C4165 C4163 1.388 . S
C4165 C4166 1.366 . S
C4166 C4165 1.366 . S
C4166 C4167 1.414 . S
C4166 C4169 1.499 . S
C4167 H4141 0.950 . S
C4167 C4166 1.414 . S
C4167 C4168 1.374 . S
C4168 H4142 0.950 . S
C4168 C4164 1.385 . S
C4168 C4167 1.374 . S
C4169 C4166 1.499 . S
C4169 C4170 1.373 . S
C4169 C4171 1.389 . S
C4170 H4143 0.950 . S
C4170 C4156 1.377 . S
C4170 C4169 1.373 . S
C4171 C4155 1.377 . S
C4171 C4169 1.389 . S
C4171 C4172 1.524 . S
C4172 C4171 1.524 . S
C4172 C4173 1.397 . S
C4172 C4177 1.363 . S
C4173 H4144 0.950 . S
C4173 C4172 1.397 . S
C4173 C4174 1.334 . S
C4174 H4145 0.950 . S
C4174 C4173 1.334 . S
C4174 C4175 1.287 . S
C4175 C4174 1.287 . S
C4175 C4176 1.524 . S
C4175 H4178 0.999 . S
C4176 H4146 0.950 . S
C4176 C4175 1.524 . S
C4176 C4177 1.415 . S
C4177 H4147 0.950 . S
C4177 C4172 1.363 . S
C4177 C4176 1.415 . S
H4178 C4175 0.999 . S
H4179 C4160 0.913 . S
H4180 C4198 0.951 . S
H4181 C4200 0.951 . S
H4182 C4202 0.950 . S
H4183 C4203 0.950 . S
H4184 C4205 0.950 . S
H4185 C4208 0.950 . S
H4186 C4209 0.950 . S
H4187 C4211 0.950 1_554 S
H4188 C4212 0.901 1_554 S
H4189 C4213 0.951 . S
H4190 C4215 0.951 . S
H4191 C4217 0.950 . S
H4192 C4218 0.950 . S
H4193 C4220 0.950 . S
H4194 C4223 0.950 . S
H4195 C4224 0.950 . S
H4196 C4226 0.950 . S
H4197 C4227 0.950 . S
C4198 H4180 0.951 . S
C4198 C4199 1.366 . S
C4198 C4200 1.388 . S
C4199 C4198 1.366 . S
C4199 C4203 1.385 . S
C4200 H4181 0.951 . S
C4200 C4198 1.388 . S
C4200 C4201 1.366 . S
C4201 C4200 1.366 . S
C4201 C4202 1.414 . S
C4201 C4204 1.499 . S
C4202 H4182 0.950 . S
C4202 C4201 1.414 . S
C4202 C4203 1.374 . S
C4203 H4183 0.950 . S
C4203 C4199 1.385 . S
C4203 C4202 1.374 . S
C4204 C4201 1.499 . S
C4204 C4205 1.373 . S
C4204 C4206 1.389 . S
C4205 H4184 0.950 . S
C4205 C4204 1.373 . S
C4205 C4221 1.377 . S
C4206 C4204 1.389 . S
C4206 C4207 1.524 1_455 S
C4206 C4220 1.377 . S
C4207 C4206 1.524 1_655 S
C4207 C4208 1.397 . S
C4207 C4212 1.415 . S
C4208 H4185 0.950 . S
C4208 C4207 1.397 . S
C4208 C4209 1.334 . S
C4209 H4186 0.950 . S
C4209 C4208 1.334 . S
C4209 C4210 1.287 . S
C4210 C4209 1.287 . S
C4210 C4211 1.524 . S
C4210 H4229 0.913 . S
C4211 H4187 0.950 1_556 S
C4211 C4210 1.524 . S
C4211 C4212 1.414 . S
C4212 H4188 0.901 1_556 S
C4212 C4207 1.415 . S
C4212 C4211 1.414 . S
C4213 H4189 0.951 . S
C4213 C4214 1.366 1_556 S
C4213 C4215 1.388 . S
C4214 C4213 1.366 1_554 S
C4214 C4218 1.385 . S
C4215 H4190 0.951 . S
C4215 C4213 1.388 . S
C4215 C4216 1.327 1_556 S
C4216 C4215 1.327 1_554 S
C4216 C4217 1.460 . S
C4216 C4219 1.493 1_554 S
C4217 H4191 0.950 . S
C4217 C4216 1.460 . S
C4217 C4218 1.374 . S
C4218 H4192 0.950 . S
C4218 C4214 1.385 . S
C4218 C4217 1.374 . S
C4219 C4216 1.493 1_556 S
C4219 C4220 1.373 . S
C4219 C4221 1.389 . S
C4220 H4193 0.950 . S
C4220 C4206 1.377 . S
C4220 C4219 1.373 . S
C4221 C4205 1.377 . S
C4221 C4219 1.389 . S
C4221 C4222 1.524 . S
C4222 C4221 1.524 . S
C4222 C4223 1.397 1_556 S
C4222 C4227 1.363 . S
C4223 H4194 0.950 . S
C4223 C4222 1.397 1_554 S
C4223 C4224 1.334 . S
C4224 H4195 0.950 . S
C4224 C4223 1.334 . S
C4224 C4225 1.287 1_554 S
C4225 C4224 1.287 1_556 S
C4225 C4226 1.524 . S
C4225 H4228 0.998 . S
C4226 H4196 0.950 . S
C4226 C4225 1.524 . S
C4226 C4227 1.415 . S
C4227 H4197 0.950 . S
C4227 C4222 1.363 . S
C4227 C4226 1.415 . S
H4228 C4225 0.998 . S
H4229 C4210 0.913 . S
H4230 C4248 0.951 . S
H4231 C4250 0.950 . S
H4232 C4252 0.964 . S
H4233 C4253 0.950 . S
H4234 C4255 0.950 . S
H4235 C4258 0.950 . S
H4236 C4259 0.950 . S
H4237 C4261 0.950 . S
H4238 C4262 0.950 . S
H4239 C4263 0.951 . S
H4240 C4265 0.951 . S
H4241 C4267 0.950 . S
H4242 C4268 0.950 . S
H4243 C4270 0.950 . S
H4244 C4273 0.950 . S
H4245 C4274 0.950 . S
H4246 C4276 0.950 . S
H4247 C4277 0.950 . S
C4248 H4230 0.951 . S
C4248 C4249 1.366 . S
C4248 C4250 1.389 1_455 S
C4249 C4248 1.366 . S
C4249 C4253 1.385 . S
C4250 H4231 0.950 . S
C4250 C4248 1.389 1_655 S
C4250 C4251 1.365 . S
C4251 C4250 1.365 . S
C4251 C4252 1.414 1_655 S
C4251 C4254 1.499 . S
C4252 H4232 0.964 . S
C4252 C4251 1.414 1_455 S
C4252 C4253 1.374 . S
C4253 H4233 0.950 . S
C4253 C4249 1.385 . S
C4253 C4252 1.374 . S
C4254 C4251 1.499 . S
C4254 C4255 1.373 . S
C4254 C4256 1.389 . S
C4255 H4234 0.950 . S
C4255 C4254 1.373 . S
C4255 C4271 1.377 . S
C4256 C4254 1.389 . S
C4256 C4257 1.524 . S
C4256 C4270 1.377 . S
C4257 C4256 1.524 . S
C4257 C4258 1.397 . S
C4257 C4262 1.363 . S
C4258 H4235 0.950 . S
C4258 C4257 1.397 . S
C4258 C4259 1.334 . S
C4259 H4236 0.950 . S
C4259 C4258 1.334 . S
C4259 C4260 1.287 . S
C4260 C4259 1.287 . S
C4260 C4261 1.524 . S
C4260 H4279 0.913 . S
C4261 H4237 0.950 . S
C4261 C4260 1.524 . S
C4261 C4262 1.415 . S
C4262 H4238 0.950 . S
C4262 C4257 1.363 . S
C4262 C4261 1.415 . S
C4263 H4239 0.951 . S
C4263 C4264 1.366 . S
C4263 C4265 1.388 . S
C4264 C4263 1.366 . S
C4264 C4268 1.385 . S
C4265 H4240 0.951 . S
C4265 C4263 1.388 . S
C4265 C4266 1.366 . S
C4266 C4265 1.366 . S
C4266 C4267 1.414 . S
C4266 C4269 1.499 . S
C4267 H4241 0.950 . S
C4267 C4266 1.414 . S
C4267 C4268 1.374 . S
C4268 H4242 0.950 . S
C4268 C4264 1.385 . S
C4268 C4267 1.374 . S
C4269 C4266 1.499 . S
C4269 C4270 1.373 . S
C4269 C4271 1.389 . S
C4270 H4243 0.950 . S
C4270 C4256 1.377 . S
C4270 C4269 1.373 . S
C4271 C4255 1.377 . S
C4271 C4269 1.389 . S
C4271 C4272 1.524 . S
C4272 C4271 1.524 . S
C4272 C4273 1.397 . S
C4272 C4277 1.363 . S
C4273 H4244 0.950 . S
C4273 C4272 1.397 . S
C4273 C4274 1.334 . S
C4274 H4245 0.950 . S
C4274 C4273 1.334 . S
C4274 C4275 1.287 . S
C4275 C4274 1.287 . S
C4275 C4276 1.524 . S
C4275 H4278 0.999 . S
C4276 H4246 0.950 . S
C4276 C4275 1.524 . S
C4276 C4277 1.415 . S
C4277 H4247 0.950 . S
C4277 C4272 1.363 . S
C4277 C4276 1.415 . S
H4278 C4275 0.999 . S
H4279 C4260 0.913 . S
H4280 C4298 0.951 . S
H4281 C4300 0.951 . S
H4282 C4302 0.950 . S
H4283 C4303 0.950 . S
H4284 C4305 0.950 . S
H4285 C4308 0.950 . S
H4286 C4309 0.950 . S
H4287 C4311 0.950 . S
H4288 C4312 0.950 . S
H4289 C4313 0.951 . S
H4290 C4315 0.951 . S
H4291 C4317 0.950 . S
H4292 C4318 0.950 . S
H4293 C4320 0.950 . S
H4294 C4323 0.950 . S
H4295 C4324 0.950 . S
H4296 C4326 0.950 . S
H4297 C4327 0.950 . S
C4298 H4280 0.951 . S
C4298 C4299 1.366 . S
C4298 C4300 1.388 . S
C4299 C4298 1.366 . S
C4299 C4303 1.385 . S
C4300 H4281 0.951 . S
C4300 C4298 1.388 . S
C4300 C4301 1.366 . S
C4301 C4300 1.366 . S
C4301 C4302 1.414 . S
C4301 C4304 1.499 . S
C4302 H4282 0.950 . S
C4302 C4301 1.414 . S
C4302 C4303 1.374 . S
C4303 H4283 0.950 . S
C4303 C4299 1.385 . S
C4303 C4302 1.374 . S
C4304 C4301 1.499 . S
C4304 C4305 1.373 . S
C4304 C4306 1.389 . S
C4305 H4284 0.950 . S
C4305 C4304 1.373 . S
C4305 C4321 1.377 . S
C4306 C4304 1.389 . S
C4306 C4307 1.524 . S
C4306 C4320 1.377 . S
C4307 C4306 1.524 . S
C4307 C4308 1.397 . S
C4307 C4312 1.363 . S
C4308 H4285 0.950 . S
C4308 C4307 1.397 . S
C4308 C4309 1.334 . S
C4309 H4286 0.950 . S
C4309 C4308 1.334 . S
C4309 C4310 1.287 . S
C4310 C4309 1.287 . S
C4310 C4311 1.524 . S
C4310 H4329 0.913 . S
C4311 H4287 0.950 . S
C4311 C4310 1.524 . S
C4311 C4312 1.415 . S
C4312 H4288 0.950 . S
C4312 C4307 1.363 . S
C4312 C4311 1.415 . S
C4313 H4289 0.951 . S
C4313 C4314 1.366 . S
C4313 C4315 1.388 . S
C4314 C4313 1.366 . S
C4314 C4318 1.385 . S
C4315 H4290 0.951 . S
C4315 C4313 1.388 . S
C4315 C4316 1.366 . S
C4316 C4315 1.366 . S
C4316 C4317 1.414 . S
C4316 C4319 1.499 . S
C4317 H4291 0.950 . S
C4317 C4316 1.414 . S
C4317 C4318 1.374 . S
C4318 H4292 0.950 . S
C4318 C4314 1.385 . S
C4318 C4317 1.374 . S
C4319 C4316 1.499 . S
C4319 C4320 1.373 . S
C4319 C4321 1.389 . S
C4320 H4293 0.950 . S
C4320 C4306 1.377 . S
C4320 C4319 1.373 . S
C4321 C4305 1.377 . S
C4321 C4319 1.389 . S
C4321 C4322 1.524 . S
C4322 C4321 1.524 . S
C4322 C4323 1.397 . S
C4322 C4327 1.363 . S
C4323 H4294 0.950 . S
C4323 C4322 1.397 . S
C4323 C4324 1.334 . S
C4324 H4295 0.950 . S
C4324 C4323 1.334 . S
C4324 C4325 1.287 . S
C4325 C4324 1.287 . S
C4325 C4326 1.524 . S
C4325 H4328 0.999 . S
C4326 H4296 0.950 . S
C4326 C4325 1.524 . S
C4326 C4327 1.415 . S
C4327 H4297 0.950 . S
C4327 C4322 1.363 . S
C4327 C4326 1.415 . S
H4328 C4325 0.999 . S
H4329 C4310 0.913 . S
H4330 C4348 0.951 . S
H4331 C4350 0.951 . S
H4332 C4352 0.950 . S
H4333 C4353 0.950 . S
H4334 C4355 0.950 . S
H4335 C4358 0.949 . S
H4336 C4359 0.950 . S
H4337 C4361 0.950 . S
H4338 C4362 0.972 . S
H4339 C4363 0.951 . S
H4340 C4365 0.951 . S
H4341 C4367 0.950 . S
H4342 C4368 0.950 . S
H4343 C4370 0.950 . S
H4344 C4373 0.950 . S
H4345 C4374 0.950 . S
H4346 C4376 0.950 . S
H4347 C4377 0.950 . S
C4348 H4330 0.951 . S
C4348 C4349 1.366 . S
C4348 C4350 1.388 . S
C4349 C4348 1.366 . S
C4349 C4353 1.385 . S
C4350 H4331 0.951 . S
C4350 C4348 1.388 . S
C4350 C4351 1.366 . S
C4351 C4350 1.366 . S
C4351 C4352 1.414 . S
C4351 C4354 1.499 1_455 S
C4352 H4332 0.950 . S
C4352 C4351 1.414 . S
C4352 C4353 1.374 . S
C4353 H4333 0.950 . S
C4353 C4349 1.385 . S
C4353 C4352 1.374 . S
C4354 C4351 1.499 1_655 S
C4354 C4355 1.373 . S
C4354 C4356 1.389 . S
C4355 H4334 0.950 . S
C4355 C4354 1.373 . S
C4355 C4371 1.377 . S
C4356 C4354 1.389 . S
C4356 C4357 1.524 . S
C4356 C4370 1.377 . S
C4357 C4356 1.524 . S
C4357 C4358 1.397 1_655 S
C4357 C4362 1.358 . S
C4358 H4335 0.949 . S
C4358 C4357 1.397 1_455 S
C4358 C4359 1.334 . S
C4359 H4336 0.950 . S
C4359 C4358 1.334 . S
C4359 C4360 1.287 . S
C4360 C4359 1.287 . S
C4360 C4361 1.524 . S
C4360 H4379 0.913 . S
C4361 H4337 0.950 . S
C4361 C4360 1.524 . S
C4361 C4362 1.404 1_455 S
C4362 H4338 0.972 . S
C4362 C4357 1.358 . S
C4362 C4361 1.404 1_655 S
C4363 H4339 0.951 . S
C4363 C4364 1.366 . S
C4363 C4365 1.388 . S
C4364 C4363 1.366 . S
C4364 C4368 1.385 . S
C4365 H4340 0.951 . S
C4365 C4363 1.388 . S
C4365 C4366 1.366 . S
C4366 C4365 1.366 . S
C4366 C4367 1.414 . S
C4366 C4369 1.499 . S
C4367 H4341 0.950 . S
C4367 C4366 1.414 . S
C4367 C4368 1.374 . S
C4368 H4342 0.950 . S
C4368 C4364 1.385 . S
C4368 C4367 1.374 . S
C4369 C4366 1.499 . S
C4369 C4370 1.373 . S
C4369 C4371 1.389 . S
C4370 H4343 0.950 . S
C4370 C4356 1.377 . S
C4370 C4369 1.373 . S
C4371 C4355 1.377 . S
C4371 C4369 1.389 . S
C4371 C4372 1.524 . S
C4372 C4371 1.524 . S
C4372 C4373 1.397 . S
C4372 C4377 1.363 . S
C4373 H4344 0.950 . S
C4373 C4372 1.397 . S
C4373 C4374 1.334 . S
C4374 H4345 0.950 . S
C4374 C4373 1.334 . S
C4374 C4375 1.287 . S
C4375 C4374 1.287 . S
C4375 C4376 1.524 . S
C4375 H4378 0.999 . S
C4376 H4346 0.950 . S
C4376 C4375 1.524 . S
C4376 C4377 1.415 . S
C4377 H4347 0.950 . S
C4377 C4372 1.363 . S
C4377 C4376 1.415 . S
H4378 C4375 0.999 . S
H4379 C4360 0.913 . S
H4380 C4398 0.951 . S
H4381 C4400 0.951 . S
H4382 C4402 0.950 . S
H4383 C4403 0.947 . S
H4384 C4405 0.950 1_655 S
H4385 C4408 0.950 . S
H4386 C4409 0.950 . S
H4387 C4411 0.950 . S
H4388 C4412 0.950 . S
H4389 C4413 0.951 . S
H4390 C4415 0.951 . S
H4391 C4417 0.950 . S
H4392 C4418 0.950 . S
H4393 C4420 0.950 . S
H4394 C4423 0.950 . S
H4395 C4424 0.950 . S
H4396 C4426 0.950 . S
H4397 C4427 0.950 1_455 S
C4398 H4380 0.951 . S
C4398 C4399 1.366 . S
C4398 C4400 1.388 . S
C4399 C4398 1.366 . S
C4399 C4403 1.372 1_655 S
C4400 H4381 0.951 . S
C4400 C4398 1.388 . S
C4400 C4401 1.366 1_655 S
C4401 C4400 1.366 1_455 S
C4401 C4402 1.414 . S
C4401 C4404 1.499 . S
C4402 H4382 0.950 . S
C4402 C4401 1.414 . S
C4402 C4403 1.390 . S
C4403 H4383 0.947 . S
C4403 C4399 1.372 1_455 S
C4403 C4402 1.390 . S
C4404 C4401 1.499 . S
C4404 C4405 1.373 . S
C4404 C4406 1.389 . S
C4405 H4384 0.950 1_455 S
C4405 C4404 1.373 . S
C4405 C4421 1.377 . S
C4406 C4404 1.389 . S
C4406 C4407 1.524 . S
C4406 C4420 1.377 . S
C4407 C4406 1.524 . S
C4407 C4408 1.397 . S
C4407 C4412 1.363 . S
C4408 H4385 0.950 . S
C4408 C4407 1.397 . S
C4408 C4409 1.334 . S
C4409 H4386 0.950 . S
C4409 C4408 1.334 . S
C4409 C4410 1.287 . S
C4410 C4409 1.287 . S
C4410 C4411 1.524 . S
C4410 H4429 0.913 . S
C4411 H4387 0.950 . S
C4411 C4410 1.524 . S
C4411 C4412 1.415 . S
C4412 H4388 0.950 . S
C4412 C4407 1.363 . S
C4412 C4411 1.415 . S
C4413 H4389 0.951 . S
C4413 C4414 1.366 . S
C4413 C4415 1.388 . S
C4414 C4413 1.366 . S
C4414 C4418 1.385 . S
C4415 H4390 0.951 . S
C4415 C4413 1.388 . S
C4415 C4416 1.366 . S
C4416 C4415 1.366 . S
C4416 C4417 1.414 . S
C4416 C4419 1.499 . S
C4417 H4391 0.950 . S
C4417 C4416 1.414 . S
C4417 C4418 1.374 . S
C4418 H4392 0.950 . S
C4418 C4414 1.385 . S
C4418 C4417 1.374 . S
C4419 C4416 1.499 . S
C4419 C4420 1.373 . S
C4419 C4421 1.389 . S
C4420 H4393 0.950 . S
C4420 C4406 1.377 . S
C4420 C4419 1.373 . S
C4421 C4405 1.377 . S
C4421 C4419 1.389 . S
C4421 C4422 1.524 1_455 S
C4422 C4421 1.524 1_655 S
C4422 C4423 1.397 . S
C4422 C4427 1.363 . S
C4423 H4394 0.950 . S
C4423 C4422 1.397 . S
C4423 C4424 1.334 . S
C4424 H4395 0.950 . S
C4424 C4423 1.334 . S
C4424 C4425 1.287 . S
C4425 C4424 1.287 . S
C4425 C4426 1.524 . S
C4425 H4428 0.999 . S
C4426 H4396 0.950 . S
C4426 C4425 1.524 . S
C4426 C4427 1.415 . S
C4427 H4397 0.950 1_655 S
C4427 C4422 1.363 . S
C4427 C4426 1.415 . S
H4428 C4425 0.999 . S
H4429 C4410 0.913 . S
H4430 C4448 0.951 . S
H4431 C4450 0.951 . S
H4432 C4452 0.950 . S
H4433 C4453 0.950 . S
H4434 C4455 0.950 . S
H4435 C4458 0.950 . S
H4436 C4459 0.950 . S
H4437 C4461 0.950 . S
H4438 C4462 0.950 . S
H4439 C4463 0.951 . S
H4440 C4465 0.951 . S
H4441 C4467 0.950 . S
H4442 C4468 0.950 . S
H4443 C4470 0.950 . S
H4444 C4473 0.950 . S
H4445 C4474 0.950 . S
H4446 C4476 0.950 . S
H4447 C4477 0.950 . S
C4448 H4430 0.951 . S
C4448 C4449 1.366 . S
C4448 C4450 1.388 . S
C4449 C4448 1.366 . S
C4449 C4453 1.385 . S
C4450 H4431 0.951 . S
C4450 C4448 1.388 . S
C4450 C4451 1.366 . S
C4451 C4450 1.366 . S
C4451 C4452 1.414 . S
C4451 C4454 1.499 . S
C4452 H4432 0.950 . S
C4452 C4451 1.414 . S
C4452 C4453 1.374 . S
C4453 H4433 0.950 . S
C4453 C4449 1.385 . S
C4453 C4452 1.374 . S
C4454 C4451 1.499 . S
C4454 C4455 1.373 . S
C4454 C4456 1.389 . S
C4455 H4434 0.950 . S
C4455 C4454 1.373 . S
C4455 C4471 1.377 . S
C4456 C4454 1.389 . S
C4456 C4457 1.524 . S
C4456 C4470 1.377 . S
C4457 C4456 1.524 . S
C4457 C4458 1.397 . S
C4457 C4462 1.363 . S
C4458 H4435 0.950 . S
C4458 C4457 1.397 . S
C4458 C4459 1.334 . S
C4459 H4436 0.950 . S
C4459 C4458 1.334 . S
C4459 C4460 1.287 . S
C4460 C4459 1.287 . S
C4460 C4461 1.524 . S
C4460 H4479 0.913 . S
C4461 H4437 0.950 . S
C4461 C4460 1.524 . S
C4461 C4462 1.415 . S
C4462 H4438 0.950 . S
C4462 C4457 1.363 . S
C4462 C4461 1.415 . S
C4463 H4439 0.951 . S
C4463 C4464 1.366 . S
C4463 C4465 1.388 . S
C4464 C4463 1.366 . S
C4464 C4468 1.385 . S
C4465 H4440 0.951 . S
C4465 C4463 1.388 . S
C4465 C4466 1.366 . S
C4466 C4465 1.366 . S
C4466 C4467 1.414 . S
C4466 C4469 1.499 . S
C4467 H4441 0.950 . S
C4467 C4466 1.414 . S
C4467 C4468 1.374 . S
C4468 H4442 0.950 . S
C4468 C4464 1.385 . S
C4468 C4467 1.374 . S
C4469 C4466 1.499 . S
C4469 C4470 1.373 . S
C4469 C4471 1.389 . S
C4470 H4443 0.950 . S
C4470 C4456 1.377 . S
C4470 C4469 1.373 . S
C4471 C4455 1.377 . S
C4471 C4469 1.389 . S
C4471 C4472 1.524 . S
C4472 C4471 1.524 . S
C4472 C4473 1.397 . S
C4472 C4477 1.363 . S
C4473 H4444 0.950 . S
C4473 C4472 1.397 . S
C4473 C4474 1.334 . S
C4474 H4445 0.950 . S
C4474 C4473 1.334 . S
C4474 C4475 1.287 . S
C4475 C4474 1.287 . S
C4475 C4476 1.524 . S
C4475 H4478 0.999 . S
C4476 H4446 0.950 . S
C4476 C4475 1.524 . S
C4476 C4477 1.415 . S
C4477 H4447 0.950 . S
C4477 C4472 1.363 . S
C4477 C4476 1.415 . S
H4478 C4475 0.999 . S
H4479 C4460 0.913 . S
H4480 C4498 0.951 . S
H4481 C4500 0.951 . S
H4482 C4502 0.950 . S
H4483 C4503 0.950 . S
H4484 C4505 0.950 . S
H4485 C4508 0.950 . S
H4486 C4509 0.950 . S
H4487 C4511 0.950 . S
H4488 C4512 0.950 . S
H4489 C4513 0.951 . S
H4490 C4515 0.951 . S
H4491 C4517 0.950 . S
H4492 C4518 0.950 . S
H4493 C4520 0.950 . S
H4494 C4523 0.950 . S
H4495 C4524 0.950 . S
H4496 C4526 0.950 . S
H4497 C4527 0.950 . S
C4498 H4480 0.951 . S
C4498 C4499 1.366 . S
C4498 C4500 1.388 . S
C4499 C4498 1.366 . S
C4499 C4503 1.385 . S
C4500 H4481 0.951 . S
C4500 C4498 1.388 . S
C4500 C4501 1.366 . S
C4501 C4500 1.366 . S
C4501 C4502 1.414 . S
C4501 C4504 1.499 . S
C4502 H4482 0.950 . S
C4502 C4501 1.414 . S
C4502 C4503 1.374 . S
C4503 H4483 0.950 . S
C4503 C4499 1.385 . S
C4503 C4502 1.374 . S
C4504 C4501 1.499 . S
C4504 C4505 1.373 . S
C4504 C4506 1.389 . S
C4505 H4484 0.950 . S
C4505 C4504 1.373 . S
C4505 C4521 1.377 . S
C4506 C4504 1.389 . S
C4506 C4507 1.524 . S
C4506 C4520 1.377 . S
C4507 C4506 1.524 . S
C4507 C4508 1.397 . S
C4507 C4512 1.363 . S
C4508 H4485 0.950 . S
C4508 C4507 1.397 . S
C4508 C4509 1.334 . S
C4509 H4486 0.950 . S
C4509 C4508 1.334 . S
C4509 C4510 1.287 . S
C4510 C4509 1.287 . S
C4510 C4511 1.524 . S
C4510 H4529 0.913 . S
C4511 H4487 0.950 . S
C4511 C4510 1.524 . S
C4511 C4512 1.415 . S
C4512 H4488 0.950 . S
C4512 C4507 1.363 . S
C4512 C4511 1.415 . S
C4513 H4489 0.951 . S
C4513 C4514 1.366 . S
C4513 C4515 1.388 . S
C4514 C4513 1.366 . S
C4514 C4518 1.385 . S
C4515 H4490 0.951 . S
C4515 C4513 1.388 . S
C4515 C4516 1.366 . S
C4516 C4515 1.366 . S
C4516 C4517 1.414 . S
C4516 C4519 1.499 . S
C4517 H4491 0.950 . S
C4517 C4516 1.414 . S
C4517 C4518 1.374 . S
C4518 H4492 0.950 . S
C4518 C4514 1.385 . S
C4518 C4517 1.374 . S
C4519 C4516 1.499 . S
C4519 C4520 1.373 . S
C4519 C4521 1.389 . S
C4520 H4493 0.950 . S
C4520 C4506 1.377 . S
C4520 C4519 1.373 . S
C4521 C4505 1.377 . S
C4521 C4519 1.389 . S
C4521 C4522 1.524 . S
C4522 C4521 1.524 . S
C4522 C4523 1.397 . S
C4522 C4527 1.363 . S
C4523 H4494 0.950 . S
C4523 C4522 1.397 . S
C4523 C4524 1.334 . S
C4524 H4495 0.950 . S
C4524 C4523 1.334 . S
C4524 C4525 1.287 . S
C4525 C4524 1.287 . S
C4525 C4526 1.524 . S
C4525 H4528 0.999 . S
C4526 H4496 0.950 . S
C4526 C4525 1.524 . S
C4526 C4527 1.415 . S
C4527 H4497 0.950 . S
C4527 C4522 1.363 . S
C4527 C4526 1.415 . S
H4528 C4525 0.999 . S
H4529 C4510 0.913 . S
H4530 C4548 0.951 . S
H4531 C4550 0.951 . S
H4532 C4552 0.950 . S
H4533 C4553 0.950 1_554 S
H4534 C4555 0.950 . S
H4535 C4558 0.950 . S
H4536 C4559 0.950 . S
H4537 C4561 0.950 . S
H4538 C4562 0.950 . S
H4539 C4563 0.951 . S
H4540 C4565 0.951 . S
H4541 C4567 0.950 . S
H4542 C4568 0.950 . S
H4543 C4570 0.950 . S
H4544 C4573 0.950 . S
H4545 C4574 0.950 . S
H4546 C4576 0.950 . S
H4547 C4577 0.950 . S
C4548 H4530 0.951 . S
C4548 C4549 1.366 . S
C4548 C4550 1.388 . S
C4549 C4548 1.366 . S
C4549 C4553 1.385 . S
C4550 H4531 0.951 . S
C4550 C4548 1.388 . S
C4550 C4551 1.366 . S
C4551 C4550 1.366 . S
C4551 C4552 1.414 . S
C4551 C4554 1.499 . S
C4552 H4532 0.950 . S
C4552 C4551 1.414 . S
C4552 C4553 1.374 . S
C4553 H4533 0.950 1_556 S
C4553 C4549 1.385 . S
C4553 C4552 1.374 . S
C4554 C4551 1.499 . S
C4554 C4555 1.373 . S
C4554 C4556 1.389 . S
C4555 H4534 0.950 . S
C4555 C4554 1.373 . S
C4555 C4571 1.377 . S
C4556 C4554 1.389 . S
C4556 C4557 1.524 . S
C4556 C4570 1.377 . S
C4557 C4556 1.524 . S
C4557 C4558 1.397 . S
C4557 C4562 1.363 . S
C4558 H4535 0.950 . S
C4558 C4557 1.397 . S
C4558 C4559 1.334 . S
C4559 H4536 0.950 . S
C4559 C4558 1.334 . S
C4559 C4560 1.287 . S
C4560 C4559 1.287 . S
C4560 C4561 1.524 . S
C4560 H4579 0.913 . S
C4561 H4537 0.950 . S
C4561 C4560 1.524 . S
C4561 C4562 1.415 . S
C4562 H4538 0.950 . S
C4562 C4557 1.363 . S
C4562 C4561 1.415 . S
C4563 H4539 0.951 . S
C4563 C4564 1.366 . S
C4563 C4565 1.388 . S
C4564 C4563 1.366 . S
C4564 C4568 1.385 . S
C4565 H4540 0.951 . S
C4565 C4563 1.388 . S
C4565 C4566 1.366 . S
C4566 C4565 1.366 . S
C4566 C4567 1.414 . S
C4566 C4569 1.499 . S
C4567 H4541 0.950 . S
C4567 C4566 1.414 . S
C4567 C4568 1.374 . S
C4568 H4542 0.950 . S
C4568 C4564 1.385 . S
C4568 C4567 1.374 . S
C4569 C4566 1.499 . S
C4569 C4570 1.373 . S
C4569 C4571 1.389 . S
C4570 H4543 0.950 . S
C4570 C4556 1.377 . S
C4570 C4569 1.373 . S
C4571 C4555 1.377 . S
C4571 C4569 1.389 . S
C4571 C4572 1.524 . S
C4572 C4571 1.524 . S
C4572 C4573 1.397 . S
C4572 C4577 1.363 . S
C4573 H4544 0.950 . S
C4573 C4572 1.397 . S
C4573 C4574 1.334 . S
C4574 H4545 0.950 . S
C4574 C4573 1.334 . S
C4574 C4575 1.287 . S
C4575 C4574 1.287 . S
C4575 C4576 1.524 . S
C4575 H4578 0.999 . S
C4576 H4546 0.950 . S
C4576 C4575 1.524 . S
C4576 C4577 1.415 . S
C4577 H4547 0.950 . S
C4577 C4572 1.363 . S
C4577 C4576 1.415 . S
H4578 C4575 0.999 . S
H4579 C4560 0.913 . S
H4580 C4598 0.951 . S
H4581 C4600 0.951 . S
H4582 C4602 0.950 . S
H4583 C4603 0.950 . S
H4584 C4605 0.950 . S
H4585 C4608 0.950 . S
H4586 C4609 0.950 . S
H4587 C4611 0.950 . S
H4588 C4612 0.950 . S
H4589 C4613 0.951 . S
H4590 C4615 0.951 . S
H4591 C4617 0.950 . S
H4592 C4618 0.950 . S
H4593 C4620 0.950 . S
H4594 C4623 0.950 . S
H4595 C4624 0.950 . S
H4596 C4626 0.950 . S
H4597 C4627 0.950 . S
C4598 H4580 0.951 . S
C4598 C4599 1.366 . S
C4598 C4600 1.388 . S
C4599 C4598 1.366 . S
C4599 C4603 1.385 . S
C4600 H4581 0.951 . S
C4600 C4598 1.388 . S
C4600 C4601 1.366 . S
C4601 C4600 1.366 . S
C4601 C4602 1.414 . S
C4601 C4604 1.499 . S
C4602 H4582 0.950 . S
C4602 C4601 1.414 . S
C4602 C4603 1.374 . S
C4603 H4583 0.950 . S
C4603 C4599 1.385 . S
C4603 C4602 1.374 . S
C4604 C4601 1.499 . S
C4604 C4605 1.373 . S
C4604 C4606 1.389 . S
C4605 H4584 0.950 . S
C4605 C4604 1.373 . S
C4605 C4621 1.377 . S
C4606 C4604 1.389 . S
C4606 C4607 1.524 . S
C4606 C4620 1.377 . S
C4607 C4606 1.524 . S
C4607 C4608 1.397 . S
C4607 C4612 1.363 . S
C4608 H4585 0.950 . S
C4608 C4607 1.397 . S
C4608 C4609 1.334 . S
C4609 H4586 0.950 . S
C4609 C4608 1.334 . S
C4609 C4610 1.287 . S
C4610 C4609 1.287 . S
C4610 C4611 1.524 . S
C4610 H4629 0.913 . S
C4611 H4587 0.950 . S
C4611 C4610 1.524 . S
C4611 C4612 1.415 . S
C4612 H4588 0.950 . S
C4612 C4607 1.363 . S
C4612 C4611 1.415 . S
C4613 H4589 0.951 . S
C4613 C4614 1.366 . S
C4613 C4615 1.388 . S
C4614 C4613 1.366 . S
C4614 C4618 1.385 . S
C4615 H4590 0.951 . S
C4615 C4613 1.388 . S
C4615 C4616 1.366 . S
C4616 C4615 1.366 . S
C4616 C4617 1.414 . S
C4616 C4619 1.499 . S
C4617 H4591 0.950 . S
C4617 C4616 1.414 . S
C4617 C4618 1.374 . S
C4618 H4592 0.950 . S
C4618 C4614 1.385 . S
C4618 C4617 1.374 . S
C4619 C4616 1.499 . S
C4619 C4620 1.373 . S
C4619 C4621 1.389 . S
C4620 H4593 0.950 . S
C4620 C4606 1.377 . S
C4620 C4619 1.373 . S
C4621 C4605 1.377 . S
C4621 C4619 1.389 . S
C4621 C4622 1.524 . S
C4622 C4621 1.524 . S
C4622 C4623 1.397 . S
C4622 C4627 1.363 . S
C4623 H4594 0.950 . S
C4623 C4622 1.397 . S
C4623 C4624 1.334 . S
C4624 H4595 0.950 . S
C4624 C4623 1.334 . S
C4624 C4625 1.287 . S
C4625 C4624 1.287 . S
C4625 C4626 1.524 . S
C4625 H4628 0.999 . S
C4626 H4596 0.950 . S
C4626 C4625 1.524 . S
C4626 C4627 1.415 . S
C4627 H4597 0.950 . S
C4627 C4622 1.363 . S
C4627 C4626 1.415 . S
H4628 C4625 0.999 . S
H4629 C4610 0.913 . S
H4630 C4648 0.951 . S
H4631 C4650 0.951 . S
H4632 C4652 0.950 . S
H4633 C4653 0.950 . S
H4634 C4655 0.950 . S
H4635 C4658 0.950 . S
H4636 C4659 0.950 . S
H4637 C4661 0.950 . S
H4638 C4662 0.950 . S
H4639 C4663 0.951 . S
H4640 C4665 0.951 . S
H4641 C4667 0.950 . S
H4642 C4668 0.950 . S
H4643 C4670 0.950 . S
H4644 C4673 0.950 . S
H4645 C4674 0.950 . S
H4646 C4676 0.950 . S
H4647 C4677 0.950 . S
C4648 H4630 0.951 . S
C4648 C4649 1.366 . S
C4648 C4650 1.388 . S
C4649 C4648 1.366 . S
C4649 C4653 1.385 . S
C4650 H4631 0.951 . S
C4650 C4648 1.388 . S
C4650 C4651 1.366 . S
C4651 C4650 1.366 . S
C4651 C4652 1.414 . S
C4651 C4654 1.499 . S
C4652 H4632 0.950 . S
C4652 C4651 1.414 . S
C4652 C4653 1.374 . S
C4653 H4633 0.950 . S
C4653 C4649 1.385 . S
C4653 C4652 1.374 . S
C4654 C4651 1.499 . S
C4654 C4655 1.373 . S
C4654 C4656 1.389 . S
C4655 H4634 0.950 . S
C4655 C4654 1.373 . S
C4655 C4671 1.377 . S
C4656 C4654 1.389 . S
C4656 C4657 1.524 . S
C4656 C4670 1.377 . S
C4657 C4656 1.524 . S
C4657 C4658 1.397 . S
C4657 C4662 1.363 . S
C4658 H4635 0.950 . S
C4658 C4657 1.397 . S
C4658 C4659 1.334 . S
C4659 H4636 0.950 . S
C4659 C4658 1.334 . S
C4659 C4660 1.287 . S
C4660 C4659 1.287 . S
C4660 C4661 1.524 . S
C4660 H4679 0.913 . S
C4661 H4637 0.950 . S
C4661 C4660 1.524 . S
C4661 C4662 1.415 . S
C4662 H4638 0.950 . S
C4662 C4657 1.363 . S
C4662 C4661 1.415 . S
C4663 H4639 0.951 . S
C4663 C4664 1.366 . S
C4663 C4665 1.388 . S
C4664 C4663 1.366 . S
C4664 C4668 1.385 . S
C4665 H4640 0.951 . S
C4665 C4663 1.388 . S
C4665 C4666 1.366 . S
C4666 C4665 1.366 . S
C4666 C4667 1.414 . S
C4666 C4669 1.499 . S
C4667 H4641 0.950 . S
C4667 C4666 1.414 . S
C4667 C4668 1.374 . S
C4668 H4642 0.950 . S
C4668 C4664 1.385 . S
C4668 C4667 1.374 . S
C4669 C4666 1.499 . S
C4669 C4670 1.373 . S
C4669 C4671 1.389 . S
C4670 H4643 0.950 . S
C4670 C4656 1.377 . S
C4670 C4669 1.373 . S
C4671 C4655 1.377 . S
C4671 C4669 1.389 . S
C4671 C4672 1.524 . S
C4672 C4671 1.524 . S
C4672 C4673 1.397 . S
C4672 C4677 1.363 . S
C4673 H4644 0.950 . S
C4673 C4672 1.397 . S
C4673 C4674 1.334 . S
C4674 H4645 0.950 . S
C4674 C4673 1.334 . S
C4674 C4675 1.287 . S
C4675 C4674 1.287 . S
C4675 C4676 1.524 . S
C4675 H4678 0.999 . S
C4676 H4646 0.950 . S
C4676 C4675 1.524 . S
C4676 C4677 1.415 . S
C4677 H4647 0.950 . S
C4677 C4672 1.363 . S
C4677 C4676 1.415 . S
H4678 C4675 0.999 . S
H4679 C4660 0.913 . S
H4680 C4698 0.951 . S
H4681 C4700 0.951 . S
H4682 C4702 0.950 . S
H4683 C4703 0.950 . S
H4684 C4705 0.950 . S
H4685 C4708 0.950 . S
H4686 C4709 0.950 . S
H4687 C4711 0.950 . S
H4688 C4712 0.950 . S
H4689 C4713 0.951 . S
H4690 C4715 0.951 . S
H4691 C4717 0.950 . S
H4692 C4718 0.950 . S
H4693 C4720 0.950 . S
H4694 C4723 0.950 . S
H4695 C4724 0.950 . S
H4696 C4726 0.950 . S
H4697 C4727 0.950 . S
C4698 H4680 0.951 . S
C4698 C4699 1.366 . S
C4698 C4700 1.388 . S
C4699 C4698 1.366 . S
C4699 C4703 1.385 . S
C4700 H4681 0.951 . S
C4700 C4698 1.388 . S
C4700 C4701 1.366 . S
C4701 C4700 1.366 . S
C4701 C4702 1.414 . S
C4701 C4704 1.499 . S
C4702 H4682 0.950 . S
C4702 C4701 1.414 . S
C4702 C4703 1.374 . S
C4703 H4683 0.950 . S
C4703 C4699 1.385 . S
C4703 C4702 1.374 . S
C4704 C4701 1.499 . S
C4704 C4705 1.373 . S
C4704 C4706 1.389 . S
C4705 H4684 0.950 . S
C4705 C4704 1.373 . S
C4705 C4721 1.377 . S
C4706 C4704 1.389 . S
C4706 C4707 1.524 . S
C4706 C4720 1.377 . S
C4707 C4706 1.524 . S
C4707 C4708 1.397 . S
C4707 C4712 1.363 . S
C4708 H4685 0.950 . S
C4708 C4707 1.397 . S
C4708 C4709 1.334 . S
C4709 H4686 0.950 . S
C4709 C4708 1.334 . S
C4709 C4710 1.287 . S
C4710 C4709 1.287 . S
C4710 C4711 1.524 . S
C4710 H4729 0.913 . S
C4711 H4687 0.950 . S
C4711 C4710 1.524 . S
C4711 C4712 1.415 . S
C4712 H4688 0.950 . S
C4712 C4707 1.363 . S
C4712 C4711 1.415 . S
C4713 H4689 0.951 . S
C4713 C4714 1.366 . S
C4713 C4715 1.388 . S
C4714 C4713 1.366 . S
C4714 C4718 1.385 . S
C4715 H4690 0.951 . S
C4715 C4713 1.388 . S
C4715 C4716 1.366 . S
C4716 C4715 1.366 . S
C4716 C4717 1.414 . S
C4716 C4719 1.499 . S
C4717 H4691 0.950 . S
C4717 C4716 1.414 . S
C4717 C4718 1.374 . S
C4718 H4692 0.950 . S
C4718 C4714 1.385 . S
C4718 C4717 1.374 . S
C4719 C4716 1.499 . S
C4719 C4720 1.373 . S
C4719 C4721 1.389 . S
C4720 H4693 0.950 . S
C4720 C4706 1.377 . S
C4720 C4719 1.373 . S
C4721 C4705 1.377 . S
C4721 C4719 1.389 . S
C4721 C4722 1.524 . S
C4722 C4721 1.524 . S
C4722 C4723 1.397 . S
C4722 C4727 1.363 . S
C4723 H4694 0.950 . S
C4723 C4722 1.397 . S
C4723 C4724 1.334 . S
C4724 H4695 0.950 . S
C4724 C4723 1.334 . S
C4724 C4725 1.287 . S
C4725 C4724 1.287 . S
C4725 C4726 1.524 . S
C4725 H4728 0.999 . S
C4726 H4696 0.950 . S
C4726 C4725 1.524 . S
C4726 C4727 1.415 . S
C4727 H4697 0.950 . S
C4727 C4722 1.363 . S
C4727 C4726 1.415 . S
H4728 C4725 0.999 . S
H4729 C4710 0.913 . S
H4730 C4748 0.951 . S
H4731 C4750 0.951 . S
H4732 C4752 0.950 . S
H4733 C4753 0.950 . S
H4734 C4755 0.950 . S
H4735 C4758 0.950 . S
H4736 C4759 0.950 . S
H4737 C4761 0.950 . S
H4738 C4762 0.950 . S
H4739 C4763 0.951 . S
H4740 C4765 0.951 . S
H4741 C4767 0.950 . S
H4742 C4768 0.950 . S
H4743 C4770 0.950 . S
H4744 C4773 0.950 . S
H4745 C4774 0.950 . S
H4746 C4776 0.950 . S
H4747 C4777 0.950 . S
C4748 H4730 0.951 . S
C4748 C4749 1.366 . S
C4748 C4750 1.388 . S
C4749 C4748 1.366 . S
C4749 C4753 1.385 . S
C4750 H4731 0.951 . S
C4750 C4748 1.388 . S
C4750 C4751 1.366 . S
C4751 C4750 1.366 . S
C4751 C4752 1.414 . S
C4751 C4754 1.499 . S
C4752 H4732 0.950 . S
C4752 C4751 1.414 . S
C4752 C4753 1.374 . S
C4753 H4733 0.950 . S
C4753 C4749 1.385 . S
C4753 C4752 1.374 . S
C4754 C4751 1.499 . S
C4754 C4755 1.373 . S
C4754 C4756 1.389 . S
C4755 H4734 0.950 . S
C4755 C4754 1.373 . S
C4755 C4771 1.377 . S
C4756 C4754 1.389 . S
C4756 C4757 1.524 . S
C4756 C4770 1.377 . S
C4757 C4756 1.524 . S
C4757 C4758 1.397 . S
C4757 C4762 1.363 . S
C4758 H4735 0.950 . S
C4758 C4757 1.397 . S
C4758 C4759 1.334 . S
C4759 H4736 0.950 . S
C4759 C4758 1.334 . S
C4759 C4760 1.287 . S
C4760 C4759 1.287 . S
C4760 C4761 1.524 . S
C4760 H4779 0.913 . S
C4761 H4737 0.950 . S
C4761 C4760 1.524 . S
C4761 C4762 1.415 . S
C4762 H4738 0.950 . S
C4762 C4757 1.363 . S
C4762 C4761 1.415 . S
C4763 H4739 0.951 . S
C4763 C4764 1.366 . S
C4763 C4765 1.388 . S
C4764 C4763 1.366 . S
C4764 C4768 1.385 . S
C4765 H4740 0.951 . S
C4765 C4763 1.388 . S
C4765 C4766 1.366 . S
C4766 C4765 1.366 . S
C4766 C4767 1.414 . S
C4766 C4769 1.499 . S
C4767 H4741 0.950 . S
C4767 C4766 1.414 . S
C4767 C4768 1.374 . S
C4768 H4742 0.950 . S
C4768 C4764 1.385 . S
C4768 C4767 1.374 . S
C4769 C4766 1.499 . S
C4769 C4770 1.373 . S
C4769 C4771 1.389 . S
C4770 H4743 0.950 . S
C4770 C4756 1.377 . S
C4770 C4769 1.373 . S
C4771 C4755 1.377 . S
C4771 C4769 1.389 . S
C4771 C4772 1.524 . S
C4772 C4771 1.524 . S
C4772 C4773 1.397 . S
C4772 C4777 1.363 . S
C4773 H4744 0.950 . S
C4773 C4772 1.397 . S
C4773 C4774 1.334 . S
C4774 H4745 0.950 . S
C4774 C4773 1.334 . S
C4774 C4775 1.287 . S
C4775 C4774 1.287 . S
C4775 C4776 1.524 . S
C4775 H4778 0.999 . S
C4776 H4746 0.950 . S
C4776 C4775 1.524 . S
C4776 C4777 1.415 . S
C4777 H4747 0.950 . S
C4777 C4772 1.363 . S
C4777 C4776 1.415 . S
H4778 C4775 0.999 . S
H4779 C4760 0.913 . S
H4780 C4798 0.951 . S
H4781 C4800 0.951 . S
H4782 C4802 0.950 . S
H4783 C4803 0.950 . S
H4784 C4805 0.950 . S
H4785 C4808 0.950 . S
H4786 C4809 0.950 . S
H4787 C4811 0.950 . S
H4788 C4812 0.950 . S
H4789 C4813 0.951 . S
H4790 C4815 0.951 . S
H4791 C4817 0.950 . S
H4792 C4818 0.950 . S
H4793 C4820 0.950 . S
H4794 C4823 0.950 . S
H4795 C4824 0.950 . S
H4796 C4826 0.950 . S
H4797 C4827 0.950 . S
C4798 H4780 0.951 . S
C4798 C4799 1.366 . S
C4798 C4800 1.388 . S
C4799 C4798 1.366 . S
C4799 C4803 1.385 . S
C4800 H4781 0.951 . S
C4800 C4798 1.388 . S
C4800 C4801 1.366 . S
C4801 C4800 1.366 . S
C4801 C4802 1.414 . S
C4801 C4804 1.499 . S
C4802 H4782 0.950 . S
C4802 C4801 1.414 . S
C4802 C4803 1.374 . S
C4803 H4783 0.950 . S
C4803 C4799 1.385 . S
C4803 C4802 1.374 . S
C4804 C4801 1.499 . S
C4804 C4805 1.373 . S
C4804 C4806 1.389 . S
C4805 H4784 0.950 . S
C4805 C4804 1.373 . S
C4805 C4821 1.377 . S
C4806 C4804 1.389 . S
C4806 C4807 1.524 . S
C4806 C4820 1.377 . S
C4807 C4806 1.524 . S
C4807 C4808 1.397 . S
C4807 C4812 1.363 . S
C4808 H4785 0.950 . S
C4808 C4807 1.397 . S
C4808 C4809 1.334 . S
C4809 H4786 0.950 . S
C4809 C4808 1.334 . S
C4809 C4810 1.287 . S
C4810 C4809 1.287 . S
C4810 C4811 1.524 . S
C4810 H4829 0.913 . S
C4811 H4787 0.950 . S
C4811 C4810 1.524 . S
C4811 C4812 1.415 . S
C4812 H4788 0.950 . S
C4812 C4807 1.363 . S
C4812 C4811 1.415 . S
C4813 H4789 0.951 . S
C4813 C4814 1.366 . S
C4813 C4815 1.388 . S
C4814 C4813 1.366 . S
C4814 C4818 1.385 . S
C4815 H4790 0.951 . S
C4815 C4813 1.388 . S
C4815 C4816 1.366 . S
C4816 C4815 1.366 . S
C4816 C4817 1.414 . S
C4816 C4819 1.499 . S
C4817 H4791 0.950 . S
C4817 C4816 1.414 . S
C4817 C4818 1.374 . S
C4818 H4792 0.950 . S
C4818 C4814 1.385 . S
C4818 C4817 1.374 . S
C4819 C4816 1.499 . S
C4819 C4820 1.373 . S
C4819 C4821 1.389 . S
C4820 H4793 0.950 . S
C4820 C4806 1.377 . S
C4820 C4819 1.373 . S
C4821 C4805 1.377 . S
C4821 C4819 1.389 . S
C4821 C4822 1.524 . S
C4822 C4821 1.524 . S
C4822 C4823 1.397 . S
C4822 C4827 1.363 . S
C4823 H4794 0.950 . S
C4823 C4822 1.397 . S
C4823 C4824 1.334 . S
C4824 H4795 0.950 . S
C4824 C4823 1.334 . S
C4824 C4825 1.287 . S
C4825 C4824 1.287 . S
C4825 C4826 1.524 . S
C4825 H4828 0.999 . S
C4826 H4796 0.950 . S
C4826 C4825 1.524 . S
C4826 C4827 1.415 . S
C4827 H4797 0.950 . S
C4827 C4822 1.363 . S
C4827 C4826 1.415 . S
H4828 C4825 0.999 . S
H4829 C4810 0.913 . S
H4830 C4848 0.951 . S
H4831 C4850 0.951 . S
H4832 C4852 0.950 . S
H4833 C4853 0.950 . S
H4834 C4855 0.950 . S
H4835 C4858 0.950 . S
H4836 C4859 0.950 . S
H4837 C4861 0.950 . S
H4838 C4862 0.950 . S
H4839 C4863 0.951 . S
H4840 C4865 0.951 . S
H4841 C4867 0.950 . S
H4842 C4868 0.950 . S
H4843 C4870 0.950 . S
H4844 C4873 0.950 . S
H4845 C4874 0.950 . S
H4846 C4876 0.950 . S
H4847 C4877 0.950 . S
C4848 H4830 0.951 . S
C4848 C4849 1.366 . S
C4848 C4850 1.388 . S
C4849 C4848 1.366 . S
C4849 C4853 1.385 . S
C4850 H4831 0.951 . S
C4850 C4848 1.388 . S
C4850 C4851 1.366 . S
C4851 C4850 1.366 . S
C4851 C4852 1.414 . S
C4851 C4854 1.499 . S
C4852 H4832 0.950 . S
C4852 C4851 1.414 . S
C4852 C4853 1.374 . S
C4853 H4833 0.950 . S
C4853 C4849 1.385 . S
C4853 C4852 1.374 . S
C4854 C4851 1.499 . S
C4854 C4855 1.373 . S
C4854 C4856 1.389 . S
C4855 H4834 0.950 . S
C4855 C4854 1.373 . S
C4855 C4871 1.377 . S
C4856 C4854 1.389 . S
C4856 C4857 1.524 . S
C4856 C4870 1.377 . S
C4857 C4856 1.524 . S
C4857 C4858 1.397 . S
C4857 C4862 1.363 . S
C4858 H4835 0.950 . S
C4858 C4857 1.397 . S
C4858 C4859 1.334 . S
C4859 H4836 0.950 . S
C4859 C4858 1.334 . S
C4859 C4860 1.287 . S
C4860 C4859 1.287 . S
C4860 C4861 1.524 . S
C4860 H4879 0.913 . S
C4861 H4837 0.950 . S
C4861 C4860 1.524 . S
C4861 C4862 1.415 . S
C4862 H4838 0.950 . S
C4862 C4857 1.363 . S
C4862 C4861 1.415 . S
C4863 H4839 0.951 . S
C4863 C4864 1.366 . S
C4863 C4865 1.388 . S
C4864 C4863 1.366 . S
C4864 C4868 1.385 . S
C4865 H4840 0.951 . S
C4865 C4863 1.388 . S
C4865 C4866 1.366 . S
C4866 C4865 1.366 . S
C4866 C4867 1.414 . S
C4866 C4869 1.499 . S
C4867 H4841 0.950 . S
C4867 C4866 1.414 . S
C4867 C4868 1.374 . S
C4868 H4842 0.950 . S
C4868 C4864 1.385 . S
C4868 C4867 1.374 . S
C4869 C4866 1.499 . S
C4869 C4870 1.373 . S
C4869 C4871 1.389 . S
C4870 H4843 0.950 . S
C4870 C4856 1.377 . S
C4870 C4869 1.373 . S
C4871 C4855 1.377 . S
C4871 C4869 1.389 . S
C4871 C4872 1.524 . S
C4872 C4871 1.524 . S
C4872 C4873 1.397 . S
C4872 C4877 1.363 . S
C4873 H4844 0.950 . S
C4873 C4872 1.397 . S
C4873 C4874 1.334 . S
C4874 H4845 0.950 . S
C4874 C4873 1.334 . S
C4874 C4875 1.287 . S
C4875 C4874 1.287 . S
C4875 C4876 1.524 . S
C4875 H4878 0.999 . S
C4876 H4846 0.950 . S
C4876 C4875 1.524 . S
C4876 C4877 1.415 . S
C4877 H4847 0.950 . S
C4877 C4872 1.363 . S
C4877 C4876 1.415 . S
H4878 C4875 0.999 . S
H4879 C4860 0.913 . S
H4880 C4898 0.951 . S
H4881 C4900 0.951 . S
H4882 C4902 0.950 . S
H4883 C4903 0.950 . S
H4884 C4905 0.950 . S
H4885 C4908 0.950 . S
H4886 C4909 0.950 . S
H4887 C4911 0.950 . S
H4888 C4912 0.950 . S
H4889 C4913 0.951 . S
H4890 C4915 0.951 . S
H4891 C4917 0.950 . S
H4892 C4918 0.950 . S
H4893 C4920 0.950 . S
H4894 C4923 0.950 . S
H4895 C4924 0.950 . S
H4896 C4926 0.950 . S
H4897 C4927 0.950 . S
C4898 H4880 0.951 . S
C4898 C4899 1.366 . S
C4898 C4900 1.388 . S
C4899 C4898 1.366 . S
C4899 C4903 1.385 . S
C4900 H4881 0.951 . S
C4900 C4898 1.388 . S
C4900 C4901 1.366 . S
C4901 C4900 1.366 . S
C4901 C4902 1.414 . S
C4901 C4904 1.499 . S
C4902 H4882 0.950 . S
C4902 C4901 1.414 . S
C4902 C4903 1.374 . S
C4903 H4883 0.950 . S
C4903 C4899 1.385 . S
C4903 C4902 1.374 . S
C4904 C4901 1.499 . S
C4904 C4905 1.373 . S
C4904 C4906 1.389 . S
C4905 H4884 0.950 . S
C4905 C4904 1.373 . S
C4905 C4921 1.377 . S
C4906 C4904 1.389 . S
C4906 C4907 1.524 . S
C4906 C4920 1.377 . S
C4907 C4906 1.524 . S
C4907 C4908 1.397 . S
C4907 C4912 1.363 . S
C4908 H4885 0.950 . S
C4908 C4907 1.397 . S
C4908 C4909 1.334 . S
C4909 H4886 0.950 . S
C4909 C4908 1.334 . S
C4909 C4910 1.287 . S
C4910 C4909 1.287 . S
C4910 C4911 1.524 . S
C4910 H4929 0.913 . S
C4911 H4887 0.950 . S
C4911 C4910 1.524 . S
C4911 C4912 1.415 . S
C4912 H4888 0.950 . S
C4912 C4907 1.363 . S
C4912 C4911 1.415 . S
C4913 H4889 0.951 . S
C4913 C4914 1.366 . S
C4913 C4915 1.388 . S
C4914 C4913 1.366 . S
C4914 C4918 1.385 . S
C4915 H4890 0.951 . S
C4915 C4913 1.388 . S
C4915 C4916 1.366 . S
C4916 C4915 1.366 . S
C4916 C4917 1.414 . S
C4916 C4919 1.499 . S
C4917 H4891 0.950 . S
C4917 C4916 1.414 . S
C4917 C4918 1.374 . S
C4918 H4892 0.950 . S
C4918 C4914 1.385 . S
C4918 C4917 1.374 . S
C4919 C4916 1.499 . S
C4919 C4920 1.373 . S
C4919 C4921 1.389 . S
C4920 H4893 0.950 . S
C4920 C4906 1.377 . S
C4920 C4919 1.373 . S
C4921 C4905 1.377 . S
C4921 C4919 1.389 . S
C4921 C4922 1.524 . S
C4922 C4921 1.524 . S
C4922 C4923 1.397 . S
C4922 C4927 1.363 . S
C4923 H4894 0.950 . S
C4923 C4922 1.397 . S
C4923 C4924 1.334 . S
C4924 H4895 0.950 . S
C4924 C4923 1.334 . S
C4924 C4925 1.287 . S
C4925 C4924 1.287 . S
C4925 C4926 1.524 . S
C4925 H4928 0.999 . S
C4926 H4896 0.950 . S
C4926 C4925 1.524 . S
C4926 C4927 1.415 . S
C4927 H4897 0.950 . S
C4927 C4922 1.363 . S
C4927 C4926 1.415 . S
H4928 C4925 0.999 . S
H4929 C4910 0.913 . S
H4930 C4948 0.951 . S
H4931 C4950 0.951 . S
H4932 C4952 0.950 . S
H4933 C4953 0.950 . S
H4934 C4955 0.950 . S
H4935 C4958 0.950 . S
H4936 C4959 0.950 . S
H4937 C4961 0.950 . S
H4938 C4962 0.950 . S
H4939 C4963 0.951 . S
H4940 C4965 0.951 . S
H4941 C4967 0.950 . S
H4942 C4968 0.950 . S
H4943 C4970 0.950 . S
H4944 C4973 0.950 . S
H4945 C4974 0.950 . S
H4946 C4976 0.950 . S
H4947 C4977 0.950 . S
C4948 H4930 0.951 . S
C4948 C4949 1.366 . S
C4948 C4950 1.388 . S
C4949 C4948 1.366 . S
C4949 C4953 1.385 . S
C4950 H4931 0.951 . S
C4950 C4948 1.388 . S
C4950 C4951 1.366 . S
C4951 C4950 1.366 . S
C4951 C4952 1.414 . S
C4951 C4954 1.499 . S
C4952 H4932 0.950 . S
C4952 C4951 1.414 . S
C4952 C4953 1.374 . S
C4953 H4933 0.950 . S
C4953 C4949 1.385 . S
C4953 C4952 1.374 . S
C4954 C4951 1.499 . S
C4954 C4955 1.373 . S
C4954 C4956 1.389 . S
C4955 H4934 0.950 . S
C4955 C4954 1.373 . S
C4955 C4971 1.377 . S
C4956 C4954 1.389 . S
C4956 C4957 1.524 . S
C4956 C4970 1.377 . S
C4957 C4956 1.524 . S
C4957 C4958 1.397 . S
C4957 C4962 1.363 . S
C4958 H4935 0.950 . S
C4958 C4957 1.397 . S
C4958 C4959 1.334 . S
C4959 H4936 0.950 . S
C4959 C4958 1.334 . S
C4959 C4960 1.287 . S
C4960 C4959 1.287 . S
C4960 C4961 1.524 . S
C4960 H4979 0.913 . S
C4961 H4937 0.950 . S
C4961 C4960 1.524 . S
C4961 C4962 1.415 . S
C4962 H4938 0.950 . S
C4962 C4957 1.363 . S
C4962 C4961 1.415 . S
C4963 H4939 0.951 . S
C4963 C4964 1.366 . S
C4963 C4965 1.388 . S
C4964 C4963 1.366 . S
C4964 C4968 1.385 . S
C4965 H4940 0.951 . S
C4965 C4963 1.388 . S
C4965 C4966 1.366 . S
C4966 C4965 1.366 . S
C4966 C4967 1.414 . S
C4966 C4969 1.499 . S
C4967 H4941 0.950 . S
C4967 C4966 1.414 . S
C4967 C4968 1.374 . S
C4968 H4942 0.950 . S
C4968 C4964 1.385 . S
C4968 C4967 1.374 . S
C4969 C4966 1.499 . S
C4969 C4970 1.373 . S
C4969 C4971 1.389 . S
C4970 H4943 0.950 . S
C4970 C4956 1.377 . S
C4970 C4969 1.373 . S
C4971 C4955 1.377 . S
C4971 C4969 1.389 . S
C4971 C4972 1.524 . S
C4972 C4971 1.524 . S
C4972 C4973 1.397 . S
C4972 C4977 1.363 . S
C4973 H4944 0.950 . S
C4973 C4972 1.397 . S
C4973 C4974 1.334 . S
C4974 H4945 0.950 . S
C4974 C4973 1.334 . S
C4974 C4975 1.287 . S
C4975 C4974 1.287 . S
C4975 C4976 1.524 . S
C4975 H4978 0.999 . S
C4976 H4946 0.950 . S
C4976 C4975 1.524 . S
C4976 C4977 1.415 . S
C4977 H4947 0.950 . S
C4977 C4972 1.363 . S
C4977 C4976 1.415 . S
H4978 C4975 0.999 . S
H4979 C4960 0.913 . S
H4980 C4998 0.951 . S
H4981 C5000 0.951 . S
H4982 C5002 0.950 . S
H4983 C5003 0.950 . S
H4984 C5005 0.950 . S
H4985 C5008 0.950 . S
H4986 C5009 0.950 . S
H4987 C5011 0.950 . S
H4988 C5012 0.950 . S
H4989 C5013 0.951 . S
H4990 C5015 0.951 . S
H4991 C5017 0.950 . S
H4992 C5018 0.950 . S
H4993 C5020 0.950 . S
H4994 C5023 0.950 . S
H4995 C5024 0.950 . S
H4996 C5026 0.950 . S
H4997 C5027 0.950 . S
C4998 H4980 0.951 . S
C4998 C4999 1.366 . S
C4998 C5000 1.388 . S
C4999 C4998 1.366 . S
C4999 C5003 1.385 . S
C5000 H4981 0.951 . S
C5000 C4998 1.388 . S
C5000 C5001 1.366 . S
C5001 C5000 1.366 . S
C5001 C5002 1.414 . S
C5001 C5004 1.499 . S
C5002 H4982 0.950 . S
C5002 C5001 1.414 . S
C5002 C5003 1.374 . S
C5003 H4983 0.950 . S
C5003 C4999 1.385 . S
C5003 C5002 1.374 . S
C5004 C5001 1.499 . S
C5004 C5005 1.373 . S
C5004 C5006 1.389 . S
C5005 H4984 0.950 . S
C5005 C5004 1.373 . S
C5005 C5021 1.377 . S
C5006 C5004 1.389 . S
C5006 C5007 1.524 . S
C5006 C5020 1.377 . S
C5007 C5006 1.524 . S
C5007 C5008 1.397 . S
C5007 C5012 1.363 . S
C5008 H4985 0.950 . S
C5008 C5007 1.397 . S
C5008 C5009 1.334 . S
C5009 H4986 0.950 . S
C5009 C5008 1.334 . S
C5009 C5010 1.287 . S
C5010 C5009 1.287 . S
C5010 C5011 1.524 . S
C5010 H5029 0.913 . S
C5011 H4987 0.950 . S
C5011 C5010 1.524 . S
C5011 C5012 1.415 . S
C5012 H4988 0.950 . S
C5012 C5007 1.363 . S
C5012 C5011 1.415 . S
C5013 H4989 0.951 . S
C5013 C5014 1.366 . S
C5013 C5015 1.388 . S
C5014 C5013 1.366 . S
C5014 C5018 1.385 . S
C5015 H4990 0.951 . S
C5015 C5013 1.388 . S
C5015 C5016 1.366 . S
C5016 C5015 1.366 . S
C5016 C5017 1.414 . S
C5016 C5019 1.499 . S
C5017 H4991 0.950 . S
C5017 C5016 1.414 . S
C5017 C5018 1.374 . S
C5018 H4992 0.950 . S
C5018 C5014 1.385 . S
C5018 C5017 1.374 . S
C5019 C5016 1.499 . S
C5019 C5020 1.373 . S
C5019 C5021 1.389 . S
C5020 H4993 0.950 . S
C5020 C5006 1.377 . S
C5020 C5019 1.373 . S
C5021 C5005 1.377 . S
C5021 C5019 1.389 . S
C5021 C5022 1.524 . S
C5022 C5021 1.524 . S
C5022 C5023 1.397 . S
C5022 C5027 1.363 . S
C5023 H4994 0.950 . S
C5023 C5022 1.397 . S
C5023 C5024 1.334 . S
C5024 H4995 0.950 . S
C5024 C5023 1.334 . S
C5024 C5025 1.287 . S
C5025 C5024 1.287 . S
C5025 C5026 1.524 . S
C5025 H5028 0.999 . S
C5026 H4996 0.950 . S
C5026 C5025 1.524 . S
C5026 C5027 1.415 . S
C5027 H4997 0.950 . S
C5027 C5022 1.363 . S
C5027 C5026 1.415 . S
H5028 C5025 0.999 . S
H5029 C5010 0.913 . S
H5030 C5048 0.951 . S
H5031 C5050 0.951 . S
H5032 C5052 0.950 . S
H5033 C5053 0.950 . S
H5034 C5055 0.950 1_556 S
H5035 C5058 0.950 . S
H5036 C5059 0.950 . S
H5037 C5061 0.950 . S
H5038 C5062 0.950 . S
H5039 C5063 0.951 . S
H5040 C5065 0.951 . S
H5041 C5067 0.945 . S
H5042 C5068 0.950 . S
H5043 C5070 0.950 . S
H5044 C5073 0.950 . S
H5045 C5074 0.950 . S
H5046 C5076 0.956 . S
H5047 C5077 0.934 1_545 S
C5048 H5030 0.951 . S
C5048 C5049 1.366 . S
C5048 C5050 1.388 . S
C5049 C5048 1.366 . S
C5049 C5053 1.385 . S
C5050 H5031 0.951 . S
C5050 C5048 1.388 . S
C5050 C5051 1.366 . S
C5051 C5050 1.366 . S
C5051 C5052 1.414 . S
C5051 C5054 1.499 . S
C5052 H5032 0.950 . S
C5052 C5051 1.414 . S
C5052 C5053 1.374 . S
C5053 H5033 0.950 . S
C5053 C5049 1.385 . S
C5053 C5052 1.374 . S
C5054 C5051 1.499 . S
C5054 C5055 1.373 . S
C5054 C5056 1.389 . S
C5055 H5034 0.950 1_554 S
C5055 C5054 1.373 . S
C5055 C5071 1.377 . S
C5056 C5054 1.389 . S
C5056 C5057 1.524 . S
C5056 C5070 1.377 . S
C5057 C5056 1.524 . S
C5057 C5058 1.397 . S
C5057 C5062 1.363 . S
C5058 H5035 0.950 . S
C5058 C5057 1.397 . S
C5058 C5059 1.334 . S
C5059 H5036 0.950 . S
C5059 C5058 1.334 . S
C5059 C5060 1.287 . S
C5060 C5059 1.287 . S
C5060 C5061 1.524 . S
C5060 H5079 0.913 . S
C5061 H5037 0.950 . S
C5061 C5060 1.524 . S
C5061 C5062 1.415 . S
C5062 H5038 0.950 . S
C5062 C5057 1.363 . S
C5062 C5061 1.415 . S
C5063 H5039 0.951 . S
C5063 C5064 1.366 . S
C5063 C5065 1.388 . S
C5064 C5063 1.366 . S
C5064 C5068 1.385 . S
C5065 H5040 0.951 . S
C5065 C5063 1.388 . S
C5065 C5066 1.366 . S
C5066 C5065 1.366 . S
C5066 C5067 1.417 1_545 S
C5066 C5069 1.499 1_545 S
C5067 H5041 0.945 . S
C5067 C5066 1.417 1_565 S
C5067 C5068 1.376 1_565 S
C5068 H5042 0.950 . S
C5068 C5064 1.385 . S
C5068 C5067 1.376 1_545 S
C5069 C5066 1.499 1_565 S
C5069 C5070 1.373 . S
C5069 C5071 1.389 . S
C5070 H5043 0.950 . S
C5070 C5056 1.377 . S
C5070 C5069 1.373 . S
C5071 C5055 1.377 . S
C5071 C5069 1.389 . S
C5071 C5072 1.524 1_554 S
C5072 C5071 1.524 1_556 S
C5072 C5073 1.397 . S
C5072 C5077 1.385 . S
C5073 H5044 0.950 . S
C5073 C5072 1.397 . S
C5073 C5074 1.334 . S
C5074 H5045 0.950 . S
C5074 C5073 1.334 . S
C5074 C5075 1.287 . S
C5075 C5074 1.287 . S
C5075 C5076 1.518 1_565 S
C5075 H5078 0.999 . S
C5076 H5046 0.956 . S
C5076 C5075 1.518 1_545 S
C5076 C5077 1.409 1_545 S
C5077 H5047 0.934 1_565 S
C5077 C5072 1.385 . S
C5077 C5076 1.409 1_565 S
H5078 C5075 0.999 . S
H5079 C5060 0.913 . S
H5080 C5098 0.951 . S
H5081 C5100 0.951 . S
H5082 C5102 0.950 . S
H5083 C5103 0.950 . S
H5084 C5105 0.950 . S
H5085 C5108 0.950 . S
H5086 C5109 0.950 . S
H5087 C5111 0.950 . S
H5088 C5112 0.950 . S
H5089 C5113 0.951 . S
H5090 C5115 0.951 . S
H5091 C5117 0.950 . S
H5092 C5118 0.950 . S
H5093 C5120 0.950 . S
H5094 C5123 0.950 . S
H5095 C5124 0.950 . S
H5096 C5126 0.950 . S
H5097 C5127 0.950 . S
C5098 H5080 0.951 . S
C5098 C5099 1.366 . S
C5098 C5100 1.388 . S
C5099 C5098 1.366 . S
C5099 C5103 1.385 . S
C5100 H5081 0.951 . S
C5100 C5098 1.388 . S
C5100 C5101 1.366 . S
C5101 C5100 1.366 . S
C5101 C5102 1.414 . S
C5101 C5104 1.499 . S
C5102 H5082 0.950 . S
C5102 C5101 1.414 . S
C5102 C5103 1.374 . S
C5103 H5083 0.950 . S
C5103 C5099 1.385 . S
C5103 C5102 1.374 . S
C5104 C5101 1.499 . S
C5104 C5105 1.373 . S
C5104 C5106 1.389 . S
C5105 H5084 0.950 . S
C5105 C5104 1.373 . S
C5105 C5121 1.377 . S
C5106 C5104 1.389 . S
C5106 C5107 1.524 . S
C5106 C5120 1.377 . S
C5107 C5106 1.524 . S
C5107 C5108 1.397 . S
C5107 C5112 1.363 . S
C5108 H5085 0.950 . S
C5108 C5107 1.397 . S
C5108 C5109 1.334 . S
C5109 H5086 0.950 . S
C5109 C5108 1.334 . S
C5109 C5110 1.287 . S
C5110 C5109 1.287 . S
C5110 C5111 1.524 . S
C5110 H5129 0.913 . S
C5111 H5087 0.950 . S
C5111 C5110 1.524 . S
C5111 C5112 1.415 . S
C5112 H5088 0.950 . S
C5112 C5107 1.363 . S
C5112 C5111 1.415 . S
C5113 H5089 0.951 . S
C5113 C5114 1.366 . S
C5113 C5115 1.388 . S
C5114 C5113 1.366 . S
C5114 C5118 1.385 . S
C5115 H5090 0.951 . S
C5115 C5113 1.388 . S
C5115 C5116 1.366 . S
C5116 C5115 1.366 . S
C5116 C5117 1.414 . S
C5116 C5119 1.499 . S
C5117 H5091 0.950 . S
C5117 C5116 1.414 . S
C5117 C5118 1.374 . S
C5118 H5092 0.950 . S
C5118 C5114 1.385 . S
C5118 C5117 1.374 . S
C5119 C5116 1.499 . S
C5119 C5120 1.373 . S
C5119 C5121 1.389 . S
C5120 H5093 0.950 . S
C5120 C5106 1.377 . S
C5120 C5119 1.373 . S
C5121 C5105 1.377 . S
C5121 C5119 1.389 . S
C5121 C5122 1.524 . S
C5122 C5121 1.524 . S
C5122 C5123 1.397 . S
C5122 C5127 1.363 . S
C5123 H5094 0.950 . S
C5123 C5122 1.397 . S
C5123 C5124 1.334 . S
C5124 H5095 0.950 . S
C5124 C5123 1.334 . S
C5124 C5125 1.287 . S
C5125 C5124 1.287 . S
C5125 C5126 1.524 . S
C5125 H5128 0.999 . S
C5126 H5096 0.950 . S
C5126 C5125 1.524 . S
C5126 C5127 1.415 . S
C5127 H5097 0.950 . S
C5127 C5122 1.363 . S
C5127 C5126 1.415 . S
H5128 C5125 0.999 . S
H5129 C5110 0.913 . S
H5130 C5148 0.951 . S
H5131 C5150 0.951 . S
H5132 C5152 0.950 . S
H5133 C5153 0.950 . S
H5134 C5155 0.950 . S
H5135 C5158 0.950 . S
H5136 C5159 0.950 . S
H5137 C5161 0.950 . S
H5138 C5162 0.950 . S
H5139 C5163 0.951 . S
H5140 C5165 0.951 . S
H5141 C5167 0.950 1_556 S
H5142 C5168 0.950 . S
H5143 C5170 0.950 . S
H5144 C5173 0.950 . S
H5145 C5174 0.950 . S
H5146 C5176 0.950 . S
H5147 C5177 0.950 . S
C5148 H5130 0.951 . S
C5148 C5149 1.366 1_556 S
C5148 C5150 1.388 . S
C5149 C5148 1.366 1_554 S
C5149 C5153 1.385 . S
C5150 H5131 0.951 . S
C5150 C5148 1.388 . S
C5150 C5151 1.366 1_556 S
C5151 C5150 1.366 1_554 S
C5151 C5152 1.414 . S
C5151 C5154 1.499 . S
C5152 H5132 0.950 . S
C5152 C5151 1.414 . S
C5152 C5153 1.374 . S
C5153 H5133 0.950 . S
C5153 C5149 1.385 . S
C5153 C5152 1.374 . S
C5154 C5151 1.499 . S
C5154 C5155 1.373 . S
C5154 C5156 1.389 . S
C5155 H5134 0.950 . S
C5155 C5154 1.373 . S
C5155 C5171 1.377 . S
C5156 C5154 1.389 . S
C5156 C5157 1.524 1_554 S
C5156 C5170 1.377 . S
C5157 C5156 1.524 1_556 S
C5157 C5158 1.397 1_556 S
C5157 C5162 1.363 . S
C5158 H5135 0.950 . S
C5158 C5157 1.397 1_554 S
C5158 C5159 1.334 . S
C5159 H5136 0.950 . S
C5159 C5158 1.334 . S
C5159 C5160 1.287 1_554 S
C5160 C5159 1.287 1_556 S
C5160 C5161 1.524 . S
C5160 H5179 0.913 . S
C5161 H5137 0.950 . S
C5161 C5160 1.524 . S
C5161 C5162 1.415 . S
C5162 H5138 0.950 . S
C5162 C5157 1.363 . S
C5162 C5161 1.415 . S
C5163 H5139 0.951 . S
C5163 C5164 1.366 . S
C5163 C5165 1.388 . S
C5164 C5163 1.366 . S
C5164 C5168 1.385 . S
C5165 H5140 0.951 . S
C5165 C5163 1.388 . S
C5165 C5166 1.366 . S
C5166 C5165 1.366 . S
C5166 C5167 1.414 . S
C5166 C5169 1.499 . S
C5167 H5141 0.950 1_554 S
C5167 C5166 1.414 . S
C5167 C5168 1.374 . S
C5168 H5142 0.950 . S
C5168 C5164 1.385 . S
C5168 C5167 1.374 . S
C5169 C5166 1.499 . S
C5169 C5170 1.373 . S
C5169 C5171 1.389 . S
C5170 H5143 0.950 . S
C5170 C5156 1.377 . S
C5170 C5169 1.373 . S
C5171 C5155 1.377 . S
C5171 C5169 1.389 . S
C5171 C5172 1.524 . S
C5172 C5171 1.524 . S
C5172 C5173 1.397 . S
C5172 C5177 1.363 . S
C5173 H5144 0.950 . S
C5173 C5172 1.397 . S
C5173 C5174 1.334 . S
C5174 H5145 0.950 . S
C5174 C5173 1.334 . S
C5174 C5175 1.287 . S
C5175 C5174 1.287 . S
C5175 C5176 1.524 . S
C5175 H5178 0.999 . S
C5176 H5146 0.950 . S
C5176 C5175 1.524 . S
C5176 C5177 1.415 . S
C5177 H5147 0.950 . S
C5177 C5172 1.363 . S
C5177 C5176 1.415 . S
H5178 C5175 0.999 . S
H5179 C5160 0.913 . S
H5180 C5198 0.951 . S
H5181 C5200 0.951 . S
H5182 C5202 0.950 . S
H5183 C5203 0.950 . S
H5184 C5205 0.950 . S
H5185 C5208 0.950 . S
H5186 C5209 0.950 . S
H5187 C5211 0.950 . S
H5188 C5212 0.950 . S
H5189 C5213 0.951 . S
H5190 C5215 0.951 . S
H5191 C5217 0.950 . S
H5192 C5218 0.950 . S
H5193 C5220 0.950 . S
H5194 C5223 0.950 . S
H5195 C5224 0.950 . S
H5196 C5226 0.950 . S
H5197 C5227 0.950 . S
C5198 H5180 0.951 . S
C5198 C5199 1.366 . S
C5198 C5200 1.388 . S
C5199 C5198 1.366 . S
C5199 C5203 1.385 . S
C5200 H5181 0.951 . S
C5200 C5198 1.388 . S
C5200 C5201 1.366 . S
C5201 C5200 1.366 . S
C5201 C5202 1.414 . S
C5201 C5204 1.499 . S
C5202 H5182 0.950 . S
C5202 C5201 1.414 . S
C5202 C5203 1.374 . S
C5203 H5183 0.950 . S
C5203 C5199 1.385 . S
C5203 C5202 1.374 . S
C5204 C5201 1.499 . S
C5204 C5205 1.373 . S
C5204 C5206 1.389 . S
C5205 H5184 0.950 . S
C5205 C5204 1.373 . S
C5205 C5221 1.377 . S
C5206 C5204 1.389 . S
C5206 C5207 1.524 . S
C5206 C5220 1.377 . S
C5207 C5206 1.524 . S
C5207 C5208 1.397 . S
C5207 C5212 1.363 . S
C5208 H5185 0.950 . S
C5208 C5207 1.397 . S
C5208 C5209 1.334 . S
C5209 H5186 0.950 . S
C5209 C5208 1.334 . S
C5209 C5210 1.287 . S
C5210 C5209 1.287 . S
C5210 C5211 1.524 . S
C5210 H5229 0.913 . S
C5211 H5187 0.950 . S
C5211 C5210 1.524 . S
C5211 C5212 1.415 . S
C5212 H5188 0.950 . S
C5212 C5207 1.363 . S
C5212 C5211 1.415 . S
C5213 H5189 0.951 . S
C5213 C5214 1.366 . S
C5213 C5215 1.388 . S
C5214 C5213 1.366 . S
C5214 C5218 1.385 . S
C5215 H5190 0.951 . S
C5215 C5213 1.388 . S
C5215 C5216 1.366 . S
C5216 C5215 1.366 . S
C5216 C5217 1.414 . S
C5216 C5219 1.499 . S
C5217 H5191 0.950 . S
C5217 C5216 1.414 . S
C5217 C5218 1.374 . S
C5218 H5192 0.950 . S
C5218 C5214 1.385 . S
C5218 C5217 1.374 . S
C5219 C5216 1.499 . S
C5219 C5220 1.373 . S
C5219 C5221 1.389 . S
C5220 H5193 0.950 . S
C5220 C5206 1.377 . S
C5220 C5219 1.373 . S
C5221 C5205 1.377 . S
C5221 C5219 1.389 . S
C5221 C5222 1.524 . S
C5222 C5221 1.524 . S
C5222 C5223 1.397 . S
C5222 C5227 1.363 . S
C5223 H5194 0.950 . S
C5223 C5222 1.397 . S
C5223 C5224 1.334 . S
C5224 H5195 0.950 . S
C5224 C5223 1.334 . S
C5224 C5225 1.287 . S
C5225 C5224 1.287 . S
C5225 C5226 1.524 . S
C5225 H5228 0.999 . S
C5226 H5196 0.950 . S
C5226 C5225 1.524 . S
C5226 C5227 1.415 . S
C5227 H5197 0.950 . S
C5227 C5222 1.363 . S
C5227 C5226 1.415 . S
H5228 C5225 0.999 . S
H5229 C5210 0.913 . S
H5230 C5248 0.951 . S
H5231 C5250 0.951 . S
H5232 C5252 0.950 . S
H5233 C5253 0.950 . S
H5234 C5255 0.950 . S
H5235 C5258 0.950 . S
H5236 C5259 0.950 . S
H5237 C5261 0.950 . S
H5238 C5262 0.950 . S
H5239 C5263 0.951 . S
H5240 C5265 0.951 . S
H5241 C5267 0.950 . S
H5242 C5268 0.950 . S
H5243 C5270 0.950 . S
H5244 C5273 0.950 . S
H5245 C5274 0.950 . S
H5246 C5276 0.950 . S
H5247 C5277 0.950 . S
C5248 H5230 0.951 . S
C5248 C5249 1.366 . S
C5248 C5250 1.388 . S
C5249 C5248 1.366 . S
C5249 C5253 1.385 . S
C5250 H5231 0.951 . S
C5250 C5248 1.388 . S
C5250 C5251 1.366 . S
C5251 C5250 1.366 . S
C5251 C5252 1.414 . S
C5251 C5254 1.499 . S
C5252 H5232 0.950 . S
C5252 C5251 1.414 . S
C5252 C5253 1.374 . S
C5253 H5233 0.950 . S
C5253 C5249 1.385 . S
C5253 C5252 1.374 . S
C5254 C5251 1.499 . S
C5254 C5255 1.373 . S
C5254 C5256 1.389 . S
C5255 H5234 0.950 . S
C5255 C5254 1.373 . S
C5255 C5271 1.377 . S
C5256 C5254 1.389 . S
C5256 C5257 1.524 . S
C5256 C5270 1.377 . S
C5257 C5256 1.524 . S
C5257 C5258 1.397 . S
C5257 C5262 1.363 . S
C5258 H5235 0.950 . S
C5258 C5257 1.397 . S
C5258 C5259 1.334 . S
C5259 H5236 0.950 . S
C5259 C5258 1.334 . S
C5259 C5260 1.287 . S
C5260 C5259 1.287 . S
C5260 C5261 1.524 . S
C5260 H5279 0.913 . S
C5261 H5237 0.950 . S
C5261 C5260 1.524 . S
C5261 C5262 1.415 . S
C5262 H5238 0.950 . S
C5262 C5257 1.363 . S
C5262 C5261 1.415 . S
C5263 H5239 0.951 . S
C5263 C5264 1.366 . S
C5263 C5265 1.388 . S
C5264 C5263 1.366 . S
C5264 C5268 1.385 . S
C5265 H5240 0.951 . S
C5265 C5263 1.388 . S
C5265 C5266 1.366 . S
C5266 C5265 1.366 . S
C5266 C5267 1.414 . S
C5266 C5269 1.499 . S
C5267 H5241 0.950 . S
C5267 C5266 1.414 . S
C5267 C5268 1.374 . S
C5268 H5242 0.950 . S
C5268 C5264 1.385 . S
C5268 C5267 1.374 . S
C5269 C5266 1.499 . S
C5269 C5270 1.373 . S
C5269 C5271 1.389 . S
C5270 H5243 0.950 . S
C5270 C5256 1.377 . S
C5270 C5269 1.373 . S
C5271 C5255 1.377 . S
C5271 C5269 1.389 . S
C5271 C5272 1.524 . S
C5272 C5271 1.524 . S
C5272 C5273 1.397 . S
C5272 C5277 1.363 . S
C5273 H5244 0.950 . S
C5273 C5272 1.397 . S
C5273 C5274 1.334 . S
C5274 H5245 0.950 . S
C5274 C5273 1.334 . S
C5274 C5275 1.287 . S
C5275 C5274 1.287 . S
C5275 C5276 1.524 . S
C5275 H5278 0.999 . S
C5276 H5246 0.950 . S
C5276 C5275 1.524 . S
C5276 C5277 1.415 . S
C5277 H5247 0.950 . S
C5277 C5272 1.363 . S
C5277 C5276 1.415 . S
H5278 C5275 0.999 . S
H5279 C5260 0.913 . S
H5280 C5298 0.951 . S
H5281 C5300 0.951 . S
H5282 C5302 0.950 . S
H5283 C5303 0.950 . S
H5284 C5305 0.950 . S
H5285 C5308 0.950 . S
H5286 C5309 0.950 . S
H5287 C5311 0.950 . S
H5288 C5312 0.950 . S
H5289 C5313 0.951 . S
H5290 C5315 0.951 . S
H5291 C5317 0.950 . S
H5292 C5318 0.950 . S
H5293 C5320 0.950 . S
H5294 C5323 0.950 . S
H5295 C5324 0.950 . S
H5296 C5326 0.950 . S
H5297 C5327 0.950 . S
C5298 H5280 0.951 . S
C5298 C5299 1.366 . S
C5298 C5300 1.388 . S
C5299 C5298 1.366 . S
C5299 C5303 1.385 . S
C5300 H5281 0.951 . S
C5300 C5298 1.388 . S
C5300 C5301 1.366 . S
C5301 C5300 1.366 . S
C5301 C5302 1.414 . S
C5301 C5304 1.499 . S
C5302 H5282 0.950 . S
C5302 C5301 1.414 . S
C5302 C5303 1.374 . S
C5303 H5283 0.950 . S
C5303 C5299 1.385 . S
C5303 C5302 1.374 . S
C5304 C5301 1.499 . S
C5304 C5305 1.373 . S
C5304 C5306 1.389 . S
C5305 H5284 0.950 . S
C5305 C5304 1.373 . S
C5305 C5321 1.377 . S
C5306 C5304 1.389 . S
C5306 C5307 1.524 . S
C5306 C5320 1.377 . S
C5307 C5306 1.524 . S
C5307 C5308 1.397 . S
C5307 C5312 1.363 . S
C5308 H5285 0.950 . S
C5308 C5307 1.397 . S
C5308 C5309 1.334 . S
C5309 H5286 0.950 . S
C5309 C5308 1.334 . S
C5309 C5310 1.287 . S
C5310 C5309 1.287 . S
C5310 C5311 1.524 . S
C5310 H5329 0.913 . S
C5311 H5287 0.950 . S
C5311 C5310 1.524 . S
C5311 C5312 1.415 . S
C5312 H5288 0.950 . S
C5312 C5307 1.363 . S
C5312 C5311 1.415 . S
C5313 H5289 0.951 . S
C5313 C5314 1.366 . S
C5313 C5315 1.388 . S
C5314 C5313 1.366 . S
C5314 C5318 1.385 . S
C5315 H5290 0.951 . S
C5315 C5313 1.388 . S
C5315 C5316 1.366 . S
C5316 C5315 1.366 . S
C5316 C5317 1.414 . S
C5316 C5319 1.499 . S
C5317 H5291 0.950 . S
C5317 C5316 1.414 . S
C5317 C5318 1.374 . S
C5318 H5292 0.950 . S
C5318 C5314 1.385 . S
C5318 C5317 1.374 . S
C5319 C5316 1.499 . S
C5319 C5320 1.373 . S
C5319 C5321 1.389 . S
C5320 H5293 0.950 . S
C5320 C5306 1.377 . S
C5320 C5319 1.373 . S
C5321 C5305 1.377 . S
C5321 C5319 1.389 . S
C5321 C5322 1.524 . S
C5322 C5321 1.524 . S
C5322 C5323 1.397 . S
C5322 C5327 1.363 . S
C5323 H5294 0.950 . S
C5323 C5322 1.397 . S
C5323 C5324 1.334 . S
C5324 H5295 0.950 . S
C5324 C5323 1.334 . S
C5324 C5325 1.287 . S
C5325 C5324 1.287 . S
C5325 C5326 1.524 . S
C5325 H5328 0.999 . S
C5326 H5296 0.950 . S
C5326 C5325 1.524 . S
C5326 C5327 1.415 . S
C5327 H5297 0.950 . S
C5327 C5322 1.363 . S
C5327 C5326 1.415 . S
H5328 C5325 0.999 . S
H5329 C5310 0.913 . S
H5330 C5348 0.951 . S
H5331 C5350 0.951 . S
H5332 C5352 0.950 . S
H5333 C5353 0.950 . S
H5334 C5355 0.950 . S
H5335 C5358 0.950 . S
H5336 C5359 0.950 . S
H5337 C5361 0.950 . S
H5338 C5362 0.950 . S
H5339 C5363 0.951 . S
H5340 C5365 0.951 . S
H5341 C5367 0.950 . S
H5342 C5368 0.950 . S
H5343 C5370 0.950 . S
H5344 C5373 0.950 . S
H5345 C5374 0.950 . S
H5346 C5376 0.950 . S
H5347 C5377 0.950 . S
C5348 H5330 0.951 . S
C5348 C5349 1.366 . S
C5348 C5350 1.388 . S
C5349 C5348 1.366 . S
C5349 C5353 1.385 . S
C5350 H5331 0.951 . S
C5350 C5348 1.388 . S
C5350 C5351 1.366 . S
C5351 C5350 1.366 . S
C5351 C5352 1.414 . S
C5351 C5354 1.499 . S
C5352 H5332 0.950 . S
C5352 C5351 1.414 . S
C5352 C5353 1.374 . S
C5353 H5333 0.950 . S
C5353 C5349 1.385 . S
C5353 C5352 1.374 . S
C5354 C5351 1.499 . S
C5354 C5355 1.373 . S
C5354 C5356 1.389 . S
C5355 H5334 0.950 . S
C5355 C5354 1.373 . S
C5355 C5371 1.377 . S
C5356 C5354 1.389 . S
C5356 C5357 1.524 . S
C5356 C5370 1.377 . S
C5357 C5356 1.524 . S
C5357 C5358 1.397 . S
C5357 C5362 1.363 . S
C5358 H5335 0.950 . S
C5358 C5357 1.397 . S
C5358 C5359 1.334 . S
C5359 H5336 0.950 . S
C5359 C5358 1.334 . S
C5359 C5360 1.287 . S
C5360 C5359 1.287 . S
C5360 C5361 1.524 . S
C5360 H5379 0.913 . S
C5361 H5337 0.950 . S
C5361 C5360 1.524 . S
C5361 C5362 1.415 . S
C5362 H5338 0.950 . S
C5362 C5357 1.363 . S
C5362 C5361 1.415 . S
C5363 H5339 0.951 . S
C5363 C5364 1.366 . S
C5363 C5365 1.388 . S
C5364 C5363 1.366 . S
C5364 C5368 1.385 . S
C5365 H5340 0.951 . S
C5365 C5363 1.388 . S
C5365 C5366 1.366 . S
C5366 C5365 1.366 . S
C5366 C5367 1.414 . S
C5366 C5369 1.499 . S
C5367 H5341 0.950 . S
C5367 C5366 1.414 . S
C5367 C5368 1.374 . S
C5368 H5342 0.950 . S
C5368 C5364 1.385 . S
C5368 C5367 1.374 . S
C5369 C5366 1.499 . S
C5369 C5370 1.373 . S
C5369 C5371 1.389 . S
C5370 H5343 0.950 . S
C5370 C5356 1.377 . S
C5370 C5369 1.373 . S
C5371 C5355 1.377 . S
C5371 C5369 1.389 . S
C5371 C5372 1.524 . S
C5372 C5371 1.524 . S
C5372 C5373 1.397 . S
C5372 C5377 1.363 . S
C5373 H5344 0.950 . S
C5373 C5372 1.397 . S
C5373 C5374 1.334 . S
C5374 H5345 0.950 . S
C5374 C5373 1.334 . S
C5374 C5375 1.287 . S
C5375 C5374 1.287 . S
C5375 C5376 1.524 . S
C5375 H5378 0.999 . S
C5376 H5346 0.950 . S
C5376 C5375 1.524 . S
C5376 C5377 1.415 . S
C5377 H5347 0.950 . S
C5377 C5372 1.363 . S
C5377 C5376 1.415 . S
H5378 C5375 0.999 . S
H5379 C5360 0.913 . S
H5380 C5398 0.951 . S
H5381 C5400 0.951 . S
H5382 C5402 0.950 . S
H5383 C5403 0.950 . S
H5384 C5405 0.950 . S
H5385 C5408 0.950 . S
H5386 C5409 0.950 . S
H5387 C5411 0.950 . S
H5388 C5412 0.950 . S
H5389 C5413 0.951 . S
H5390 C5415 0.951 . S
H5391 C5417 0.950 . S
H5392 C5418 0.950 . S
H5393 C5420 0.950 . S
H5394 C5423 0.950 . S
H5395 C5424 0.950 . S
H5396 C5426 0.950 . S
H5397 C5427 0.950 . S
C5398 H5380 0.951 . S
C5398 C5399 1.366 . S
C5398 C5400 1.388 . S
C5399 C5398 1.366 . S
C5399 C5403 1.385 . S
C5400 H5381 0.951 . S
C5400 C5398 1.388 . S
C5400 C5401 1.366 . S
C5401 C5400 1.366 . S
C5401 C5402 1.414 . S
C5401 C5404 1.499 . S
C5402 H5382 0.950 . S
C5402 C5401 1.414 . S
C5402 C5403 1.374 . S
C5403 H5383 0.950 . S
C5403 C5399 1.385 . S
C5403 C5402 1.374 . S
C5404 C5401 1.499 . S
C5404 C5405 1.373 . S
C5404 C5406 1.389 . S
C5405 H5384 0.950 . S
C5405 C5404 1.373 . S
C5405 C5421 1.377 . S
C5406 C5404 1.389 . S
C5406 C5407 1.524 . S
C5406 C5420 1.377 . S
C5407 C5406 1.524 . S
C5407 C5408 1.397 . S
C5407 C5412 1.363 . S
C5408 H5385 0.950 . S
C5408 C5407 1.397 . S
C5408 C5409 1.334 . S
C5409 H5386 0.950 . S
C5409 C5408 1.334 . S
C5409 C5410 1.287 1_455 S
C5410 C5409 1.287 1_655 S
C5410 C5411 1.524 . S
C5410 H5429 0.913 . S
C5411 H5387 0.950 . S
C5411 C5410 1.524 . S
C5411 C5412 1.415 1_655 S
C5412 H5388 0.950 . S
C5412 C5407 1.363 . S
C5412 C5411 1.415 1_455 S
C5413 H5389 0.951 . S
C5413 C5414 1.366 . S
C5413 C5415 1.388 . S
C5414 C5413 1.366 . S
C5414 C5418 1.385 . S
C5415 H5390 0.951 . S
C5415 C5413 1.388 . S
C5415 C5416 1.366 . S
C5416 C5415 1.366 . S
C5416 C5417 1.414 . S
C5416 C5419 1.499 . S
C5417 H5391 0.950 . S
C5417 C5416 1.414 . S
C5417 C5418 1.374 . S
C5418 H5392 0.950 . S
C5418 C5414 1.385 . S
C5418 C5417 1.374 . S
C5419 C5416 1.499 . S
C5419 C5420 1.373 . S
C5419 C5421 1.389 . S
C5420 H5393 0.950 . S
C5420 C5406 1.377 . S
C5420 C5419 1.373 . S
C5421 C5405 1.377 . S
C5421 C5419 1.389 . S
C5421 C5422 1.524 . S
C5422 C5421 1.524 . S
C5422 C5423 1.397 . S
C5422 C5427 1.363 . S
C5423 H5394 0.950 . S
C5423 C5422 1.397 . S
C5423 C5424 1.334 . S
C5424 H5395 0.950 . S
C5424 C5423 1.334 . S
C5424 C5425 1.287 . S
C5425 C5424 1.287 . S
C5425 C5426 1.524 . S
C5425 H5428 0.999 . S
C5426 H5396 0.950 . S
C5426 C5425 1.524 . S
C5426 C5427 1.415 . S
C5427 H5397 0.950 . S
C5427 C5422 1.363 . S
C5427 C5426 1.415 . S
H5428 C5425 0.999 . S
H5429 C5410 0.913 . S
H5430 C5448 0.951 . S
H5431 C5450 0.951 . S
H5432 C5452 0.950 . S
H5433 C5453 0.950 . S
H5434 C5455 0.950 . S
H5435 C5458 0.950 . S
H5436 C5459 0.950 . S
H5437 C5461 0.950 . S
H5438 C5462 0.950 . S
H5439 C5463 0.951 . S
H5440 C5465 0.951 . S
H5441 C5467 0.950 . S
H5442 C5468 0.950 . S
H5443 C5470 0.950 . S
H5444 C5473 0.950 . S
H5445 C5474 0.950 . S
H5446 C5476 0.950 . S
H5447 C5477 0.950 . S
C5448 H5430 0.951 . S
C5448 C5449 1.366 . S
C5448 C5450 1.388 . S
C5449 C5448 1.366 . S
C5449 C5453 1.385 . S
C5450 H5431 0.951 . S
C5450 C5448 1.388 . S
C5450 C5451 1.366 . S
C5451 C5450 1.366 . S
C5451 C5452 1.414 . S
C5451 C5454 1.499 . S
C5452 H5432 0.950 . S
C5452 C5451 1.414 . S
C5452 C5453 1.374 . S
C5453 H5433 0.950 . S
C5453 C5449 1.385 . S
C5453 C5452 1.374 . S
C5454 C5451 1.499 . S
C5454 C5455 1.373 . S
C5454 C5456 1.389 . S
C5455 H5434 0.950 . S
C5455 C5454 1.373 . S
C5455 C5471 1.377 . S
C5456 C5454 1.389 . S
C5456 C5457 1.524 . S
C5456 C5470 1.377 . S
C5457 C5456 1.524 . S
C5457 C5458 1.397 . S
C5457 C5462 1.363 . S
C5458 H5435 0.950 . S
C5458 C5457 1.397 . S
C5458 C5459 1.334 . S
C5459 H5436 0.950 . S
C5459 C5458 1.334 . S
C5459 C5460 1.287 . S
C5460 C5459 1.287 . S
C5460 C5461 1.524 . S
C5460 H5479 0.913 . S
C5461 H5437 0.950 . S
C5461 C5460 1.524 . S
C5461 C5462 1.415 . S
C5462 H5438 0.950 . S
C5462 C5457 1.363 . S
C5462 C5461 1.415 . S
C5463 H5439 0.951 . S
C5463 C5464 1.366 . S
C5463 C5465 1.388 . S
C5464 C5463 1.366 . S
C5464 C5468 1.385 . S
C5465 H5440 0.951 . S
C5465 C5463 1.388 . S
C5465 C5466 1.366 . S
C5466 C5465 1.366 . S
C5466 C5467 1.414 . S
C5466 C5469 1.499 . S
C5467 H5441 0.950 . S
C5467 C5466 1.414 . S
C5467 C5468 1.374 . S
C5468 H5442 0.950 . S
C5468 C5464 1.385 . S
C5468 C5467 1.374 . S
C5469 C5466 1.499 . S
C5469 C5470 1.373 . S
C5469 C5471 1.389 . S
C5470 H5443 0.950 . S
C5470 C5456 1.377 . S
C5470 C5469 1.373 . S
C5471 C5455 1.377 . S
C5471 C5469 1.389 . S
C5471 C5472 1.524 . S
C5472 C5471 1.524 . S
C5472 C5473 1.397 . S
C5472 C5477 1.363 . S
C5473 H5444 0.950 . S
C5473 C5472 1.397 . S
C5473 C5474 1.334 . S
C5474 H5445 0.950 . S
C5474 C5473 1.334 . S
C5474 C5475 1.287 . S
C5475 C5474 1.287 . S
C5475 C5476 1.524 . S
C5475 H5478 0.999 . S
C5476 H5446 0.950 . S
C5476 C5475 1.524 . S
C5476 C5477 1.415 . S
C5477 H5447 0.950 . S
C5477 C5472 1.363 . S
C5477 C5476 1.415 . S
H5478 C5475 0.999 . S
H5479 C5460 0.913 . S
H5480 C5498 0.951 . S
H5481 C5500 0.951 . S
H5482 C5502 0.950 . S
H5483 C5503 0.950 . S
H5484 C5505 0.950 . S
H5485 C5508 0.950 . S
H5486 C5509 0.950 . S
H5487 C5511 0.950 . S
H5488 C5512 0.950 . S
H5489 C5513 0.951 . S
H5490 C5515 0.951 . S
H5491 C5517 0.950 . S
H5492 C5518 0.950 . S
H5493 C5520 0.950 . S
H5494 C5523 0.950 . S
H5495 C5524 0.950 . S
H5496 C5526 0.950 . S
H5497 C5527 0.950 . S
C5498 H5480 0.951 . S
C5498 C5499 1.366 . S
C5498 C5500 1.388 . S
C5499 C5498 1.366 . S
C5499 C5503 1.385 . S
C5500 H5481 0.951 . S
C5500 C5498 1.388 . S
C5500 C5501 1.366 . S
C5501 C5500 1.366 . S
C5501 C5502 1.414 . S
C5501 C5504 1.499 . S
C5502 H5482 0.950 . S
C5502 C5501 1.414 . S
C5502 C5503 1.374 . S
C5503 H5483 0.950 . S
C5503 C5499 1.385 . S
C5503 C5502 1.374 . S
C5504 C5501 1.499 . S
C5504 C5505 1.373 . S
C5504 C5506 1.389 . S
C5505 H5484 0.950 . S
C5505 C5504 1.373 . S
C5505 C5521 1.377 . S
C5506 C5504 1.389 . S
C5506 C5507 1.524 . S
C5506 C5520 1.377 . S
C5507 C5506 1.524 . S
C5507 C5508 1.397 . S
C5507 C5512 1.363 . S
C5508 H5485 0.950 . S
C5508 C5507 1.397 . S
C5508 C5509 1.334 . S
C5509 H5486 0.950 . S
C5509 C5508 1.334 . S
C5509 C5510 1.287 . S
C5510 C5509 1.287 . S
C5510 C5511 1.524 . S
C5510 H5529 0.913 . S
C5511 H5487 0.950 . S
C5511 C5510 1.524 . S
C5511 C5512 1.415 . S
C5512 H5488 0.950 . S
C5512 C5507 1.363 . S
C5512 C5511 1.415 . S
C5513 H5489 0.951 . S
C5513 C5514 1.366 . S
C5513 C5515 1.388 . S
C5514 C5513 1.366 . S
C5514 C5518 1.385 . S
C5515 H5490 0.951 . S
C5515 C5513 1.388 . S
C5515 C5516 1.366 . S
C5516 C5515 1.366 . S
C5516 C5517 1.414 . S
C5516 C5519 1.499 . S
C5517 H5491 0.950 . S
C5517 C5516 1.414 . S
C5517 C5518 1.374 . S
C5518 H5492 0.950 . S
C5518 C5514 1.385 . S
C5518 C5517 1.374 . S
C5519 C5516 1.499 . S
C5519 C5520 1.373 . S
C5519 C5521 1.389 . S
C5520 H5493 0.950 . S
C5520 C5506 1.377 . S
C5520 C5519 1.373 . S
C5521 C5505 1.377 . S
C5521 C5519 1.389 . S
C5521 C5522 1.524 . S
C5522 C5521 1.524 . S
C5522 C5523 1.397 . S
C5522 C5527 1.363 . S
C5523 H5494 0.950 . S
C5523 C5522 1.397 . S
C5523 C5524 1.334 1_556 S
C5524 H5495 0.950 . S
C5524 C5523 1.334 1_554 S
C5524 C5525 1.287 . S
C5525 C5524 1.287 . S
C5525 C5526 1.524 1_554 S
C5525 H5528 0.999 . S
C5526 H5496 0.950 . S
C5526 C5525 1.524 1_556 S
C5526 C5527 1.415 . S
C5527 H5497 0.950 . S
C5527 C5522 1.363 . S
C5527 C5526 1.415 . S
H5528 C5525 0.999 . S
H5529 C5510 0.913 . S
H5530 C5548 0.951 . S
H5531 C5550 0.951 . S
H5532 C5552 0.950 . S
H5533 C5553 0.950 . S
H5534 C5555 0.950 . S
H5535 C5558 0.950 . S
H5536 C5559 0.950 . S
H5537 C5561 0.950 . S
H5538 C5562 0.950 . S
H5539 C5563 0.951 . S
H5540 C5565 0.951 . S
H5541 C5567 0.950 . S
H5542 C5568 0.950 . S
H5543 C5570 0.950 . S
H5544 C5573 0.950 . S
H5545 C5574 0.950 . S
H5546 C5576 0.950 . S
H5547 C5577 0.950 . S
C5548 H5530 0.951 . S
C5548 C5549 1.366 . S
C5548 C5550 1.388 . S
C5549 C5548 1.366 . S
C5549 C5553 1.385 . S
C5550 H5531 0.951 . S
C5550 C5548 1.388 . S
C5550 C5551 1.366 . S
C5551 C5550 1.366 . S
C5551 C5552 1.414 . S
C5551 C5554 1.499 . S
C5552 H5532 0.950 . S
C5552 C5551 1.414 . S
C5552 C5553 1.374 . S
C5553 H5533 0.950 . S
C5553 C5549 1.385 . S
C5553 C5552 1.374 . S
C5554 C5551 1.499 . S
C5554 C5555 1.373 . S
C5554 C5556 1.389 . S
C5555 H5534 0.950 . S
C5555 C5554 1.373 . S
C5555 C5571 1.377 . S
C5556 C5554 1.389 . S
C5556 C5557 1.524 . S
C5556 C5570 1.377 . S
C5557 C5556 1.524 . S
C5557 C5558 1.397 . S
C5557 C5562 1.363 . S
C5558 H5535 0.950 . S
C5558 C5557 1.397 . S
C5558 C5559 1.334 . S
C5559 H5536 0.950 . S
C5559 C5558 1.334 . S
C5559 C5560 1.287 . S
C5560 C5559 1.287 . S
C5560 C5561 1.524 . S
C5560 H5579 0.913 . S
C5561 H5537 0.950 . S
C5561 C5560 1.524 . S
C5561 C5562 1.415 . S
C5562 H5538 0.950 . S
C5562 C5557 1.363 . S
C5562 C5561 1.415 . S
C5563 H5539 0.951 . S
C5563 C5564 1.366 . S
C5563 C5565 1.388 . S
C5564 C5563 1.366 . S
C5564 C5568 1.385 . S
C5565 H5540 0.951 . S
C5565 C5563 1.388 . S
C5565 C5566 1.366 . S
C5566 C5565 1.366 . S
C5566 C5567 1.414 . S
C5566 C5569 1.499 . S
C5567 H5541 0.950 . S
C5567 C5566 1.414 . S
C5567 C5568 1.374 . S
C5568 H5542 0.950 . S
C5568 C5564 1.385 . S
C5568 C5567 1.374 . S
C5569 C5566 1.499 . S
C5569 C5570 1.373 . S
C5569 C5571 1.389 . S
C5570 H5543 0.950 . S
C5570 C5556 1.377 . S
C5570 C5569 1.373 . S
C5571 C5555 1.377 . S
C5571 C5569 1.389 . S
C5571 C5572 1.524 . S
C5572 C5571 1.524 . S
C5572 C5573 1.397 . S
C5572 C5577 1.363 . S
C5573 H5544 0.950 . S
C5573 C5572 1.397 . S
C5573 C5574 1.334 . S
C5574 H5545 0.950 . S
C5574 C5573 1.334 . S
C5574 C5575 1.287 . S
C5575 C5574 1.287 . S
C5575 C5576 1.524 . S
C5575 H5578 0.999 . S
C5576 H5546 0.950 . S
C5576 C5575 1.524 . S
C5576 C5577 1.415 . S
C5577 H5547 0.950 . S
C5577 C5572 1.363 . S
C5577 C5576 1.415 . S
H5578 C5575 0.999 . S
H5579 C5560 0.913 . S
H5580 C5598 0.951 . S
H5581 C5600 0.951 . S
H5582 C5602 0.950 . S
H5583 C5603 0.950 . S
H5584 C5605 0.950 . S
H5585 C5608 0.950 . S
H5586 C5609 0.950 . S
H5587 C5611 0.950 . S
H5588 C5612 0.950 . S
H5589 C5613 0.951 . S
H5590 C5615 0.951 . S
H5591 C5617 0.950 . S
H5592 C5618 0.950 . S
H5593 C5620 0.950 . S
H5594 C5623 0.950 . S
H5595 C5624 0.950 . S
H5596 C5626 0.950 . S
H5597 C5627 0.950 . S
C5598 H5580 0.951 . S
C5598 C5599 1.366 . S
C5598 C5600 1.388 . S
C5599 C5598 1.366 . S
C5599 C5603 1.385 . S
C5600 H5581 0.951 . S
C5600 C5598 1.388 . S
C5600 C5601 1.366 . S
C5601 C5600 1.366 . S
C5601 C5602 1.414 . S
C5601 C5604 1.499 . S
C5602 H5582 0.950 . S
C5602 C5601 1.414 . S
C5602 C5603 1.374 . S
C5603 H5583 0.950 . S
C5603 C5599 1.385 . S
C5603 C5602 1.374 . S
C5604 C5601 1.499 . S
C5604 C5605 1.373 . S
C5604 C5606 1.389 . S
C5605 H5584 0.950 . S
C5605 C5604 1.373 . S
C5605 C5621 1.377 . S
C5606 C5604 1.389 . S
C5606 C5607 1.524 . S
C5606 C5620 1.377 . S
C5607 C5606 1.524 . S
C5607 C5608 1.397 . S
C5607 C5612 1.363 . S
C5608 H5585 0.950 . S
C5608 C5607 1.397 . S
C5608 C5609 1.334 . S
C5609 H5586 0.950 . S
C5609 C5608 1.334 . S
C5609 C5610 1.287 . S
C5610 C5609 1.287 . S
C5610 C5611 1.524 . S
C5610 H5629 0.913 . S
C5611 H5587 0.950 . S
C5611 C5610 1.524 . S
C5611 C5612 1.415 . S
C5612 H5588 0.950 . S
C5612 C5607 1.363 . S
C5612 C5611 1.415 . S
C5613 H5589 0.951 . S
C5613 C5614 1.366 . S
C5613 C5615 1.388 . S
C5614 C5613 1.366 . S
C5614 C5618 1.385 . S
C5615 H5590 0.951 . S
C5615 C5613 1.388 . S
C5615 C5616 1.366 . S
C5616 C5615 1.366 . S
C5616 C5617 1.414 . S
C5616 C5619 1.499 . S
C5617 H5591 0.950 . S
C5617 C5616 1.414 . S
C5617 C5618 1.374 . S
C5618 H5592 0.950 . S
C5618 C5614 1.385 . S
C5618 C5617 1.374 . S
C5619 C5616 1.499 . S
C5619 C5620 1.373 . S
C5619 C5621 1.389 . S
C5620 H5593 0.950 . S
C5620 C5606 1.377 . S
C5620 C5619 1.373 . S
C5621 C5605 1.377 . S
C5621 C5619 1.389 . S
C5621 C5622 1.524 . S
C5622 C5621 1.524 . S
C5622 C5623 1.397 . S
C5622 C5627 1.363 . S
C5623 H5594 0.950 . S
C5623 C5622 1.397 . S
C5623 C5624 1.334 . S
C5624 H5595 0.950 . S
C5624 C5623 1.334 . S
C5624 C5625 1.287 . S
C5625 C5624 1.287 . S
C5625 C5626 1.524 . S
C5625 H5628 0.999 . S
C5626 H5596 0.950 . S
C5626 C5625 1.524 . S
C5626 C5627 1.415 . S
C5627 H5597 0.950 . S
C5627 C5622 1.363 . S
C5627 C5626 1.415 . S
H5628 C5625 0.999 . S
H5629 C5610 0.913 . S
H5630 C5648 0.951 . S
H5631 C5650 0.951 . S
H5632 C5652 0.950 . S
H5633 C5653 0.950 . S
H5634 C5655 0.950 . S
H5635 C5658 0.950 . S
H5636 C5659 0.950 . S
H5637 C5661 0.950 . S
H5638 C5662 0.950 . S
H5639 C5663 0.951 . S
H5640 C5665 0.951 . S
H5641 C5667 0.950 . S
H5642 C5668 0.950 . S
H5643 C5670 0.950 . S
H5644 C5673 0.950 . S
H5645 C5674 0.950 . S
H5646 C5676 0.950 . S
H5647 C5677 0.950 . S
C5648 H5630 0.951 . S
C5648 C5649 1.366 . S
C5648 C5650 1.388 . S
C5649 C5648 1.366 . S
C5649 C5653 1.385 . S
C5650 H5631 0.951 . S
C5650 C5648 1.388 . S
C5650 C5651 1.366 . S
C5651 C5650 1.366 . S
C5651 C5652 1.414 . S
C5651 C5654 1.499 . S
C5652 H5632 0.950 . S
C5652 C5651 1.414 . S
C5652 C5653 1.374 . S
C5653 H5633 0.950 . S
C5653 C5649 1.385 . S
C5653 C5652 1.374 . S
C5654 C5651 1.499 . S
C5654 C5655 1.373 . S
C5654 C5656 1.389 . S
C5655 H5634 0.950 . S
C5655 C5654 1.373 . S
C5655 C5671 1.377 . S
C5656 C5654 1.389 . S
C5656 C5657 1.524 . S
C5656 C5670 1.377 . S
C5657 C5656 1.524 . S
C5657 C5658 1.397 . S
C5657 C5662 1.363 . S
C5658 H5635 0.950 . S
C5658 C5657 1.397 . S
C5658 C5659 1.334 . S
C5659 H5636 0.950 . S
C5659 C5658 1.334 . S
C5659 C5660 1.287 . S
C5660 C5659 1.287 . S
C5660 C5661 1.524 . S
C5660 H5679 0.913 . S
C5661 H5637 0.950 . S
C5661 C5660 1.524 . S
C5661 C5662 1.415 . S
C5662 H5638 0.950 . S
C5662 C5657 1.363 . S
C5662 C5661 1.415 . S
C5663 H5639 0.951 . S
C5663 C5664 1.366 . S
C5663 C5665 1.388 . S
C5664 C5663 1.366 . S
C5664 C5668 1.385 . S
C5665 H5640 0.951 . S
C5665 C5663 1.388 . S
C5665 C5666 1.366 . S
C5666 C5665 1.366 . S
C5666 C5667 1.414 . S
C5666 C5669 1.499 . S
C5667 H5641 0.950 . S
C5667 C5666 1.414 . S
C5667 C5668 1.374 . S
C5668 H5642 0.950 . S
C5668 C5664 1.385 . S
C5668 C5667 1.374 . S
C5669 C5666 1.499 . S
C5669 C5670 1.373 . S
C5669 C5671 1.389 . S
C5670 H5643 0.950 . S
C5670 C5656 1.377 . S
C5670 C5669 1.373 . S
C5671 C5655 1.377 . S
C5671 C5669 1.389 . S
C5671 C5672 1.524 . S
C5672 C5671 1.524 . S
C5672 C5673 1.397 . S
C5672 C5677 1.363 . S
C5673 H5644 0.950 . S
C5673 C5672 1.397 . S
C5673 C5674 1.334 . S
C5674 H5645 0.950 . S
C5674 C5673 1.334 . S
C5674 C5675 1.287 . S
C5675 C5674 1.287 . S
C5675 C5676 1.524 . S
C5675 H5678 0.999 . S
C5676 H5646 0.950 . S
C5676 C5675 1.524 . S
C5676 C5677 1.415 . S
C5677 H5647 0.950 . S
C5677 C5672 1.363 . S
C5677 C5676 1.415 . S
H5678 C5675 0.999 . S
H5679 C5660 0.913 . S
H5680 C5698 0.951 . S
H5681 C5700 0.951 . S
H5682 C5702 0.950 . S
H5683 C5703 0.950 . S
H5684 C5705 0.950 . S
H5685 C5708 0.950 . S
H5686 C5709 0.950 . S
H5687 C5711 0.950 . S
H5688 C5712 0.950 . S
H5689 C5713 0.951 . S
H5690 C5715 0.951 . S
H5691 C5717 0.950 . S
H5692 C5718 0.950 . S
H5693 C5720 0.950 . S
H5694 C5723 0.950 . S
H5695 C5724 0.950 . S
H5696 C5726 0.950 . S
H5697 C5727 0.950 . S
C5698 H5680 0.951 . S
C5698 C5699 1.366 . S
C5698 C5700 1.388 . S
C5699 C5698 1.366 . S
C5699 C5703 1.385 . S
C5700 H5681 0.951 . S
C5700 C5698 1.388 . S
C5700 C5701 1.366 . S
C5701 C5700 1.366 . S
C5701 C5702 1.414 . S
C5701 C5704 1.499 . S
C5702 H5682 0.950 . S
C5702 C5701 1.414 . S
C5702 C5703 1.374 . S
C5703 H5683 0.950 . S
C5703 C5699 1.385 . S
C5703 C5702 1.374 . S
C5704 C5701 1.499 . S
C5704 C5705 1.373 . S
C5704 C5706 1.389 . S
C5705 H5684 0.950 . S
C5705 C5704 1.373 . S
C5705 C5721 1.377 . S
C5706 C5704 1.389 . S
C5706 C5707 1.524 . S
C5706 C5720 1.377 . S
C5707 C5706 1.524 . S
C5707 C5708 1.397 . S
C5707 C5712 1.363 . S
C5708 H5685 0.950 . S
C5708 C5707 1.397 . S
C5708 C5709 1.334 . S
C5709 H5686 0.950 . S
C5709 C5708 1.334 . S
C5709 C5710 1.287 . S
C5710 C5709 1.287 . S
C5710 C5711 1.524 . S
C5710 H5729 0.913 . S
C5711 H5687 0.950 . S
C5711 C5710 1.524 . S
C5711 C5712 1.415 . S
C5712 H5688 0.950 . S
C5712 C5707 1.363 . S
C5712 C5711 1.415 . S
C5713 H5689 0.951 . S
C5713 C5714 1.366 . S
C5713 C5715 1.388 . S
C5714 C5713 1.366 . S
C5714 C5718 1.385 . S
C5715 H5690 0.951 . S
C5715 C5713 1.388 . S
C5715 C5716 1.366 . S
C5716 C5715 1.366 . S
C5716 C5717 1.414 . S
C5716 C5719 1.499 . S
C5717 H5691 0.950 . S
C5717 C5716 1.414 . S
C5717 C5718 1.374 . S
C5718 H5692 0.950 . S
C5718 C5714 1.385 . S
C5718 C5717 1.374 . S
C5719 C5716 1.499 . S
C5719 C5720 1.373 . S
C5719 C5721 1.389 . S
C5720 H5693 0.950 . S
C5720 C5706 1.377 . S
C5720 C5719 1.373 . S
C5721 C5705 1.377 . S
C5721 C5719 1.389 . S
C5721 C5722 1.524 . S
C5722 C5721 1.524 . S
C5722 C5723 1.397 . S
C5722 C5727 1.363 . S
C5723 H5694 0.950 . S
C5723 C5722 1.397 . S
C5723 C5724 1.334 . S
C5724 H5695 0.950 . S
C5724 C5723 1.334 . S
C5724 C5725 1.287 . S
C5725 C5724 1.287 . S
C5725 C5726 1.524 . S
C5725 H5728 0.999 . S
C5726 H5696 0.950 . S
C5726 C5725 1.524 . S
C5726 C5727 1.415 . S
C5727 H5697 0.950 . S
C5727 C5722 1.363 . S
C5727 C5726 1.415 . S
H5728 C5725 0.999 . S
H5729 C5710 0.913 . S
H5730 C5748 0.951 . S
H5731 C5750 0.951 . S
H5732 C5752 0.950 . S
H5733 C5753 0.950 . S
H5734 C5755 0.950 . S
H5735 C5758 0.950 . S
H5736 C5759 0.950 . S
H5737 C5761 0.950 . S
H5738 C5762 0.950 . S
H5739 C5763 0.951 . S
H5740 C5765 0.951 . S
H5741 C5767 0.950 . S
H5742 C5768 0.950 . S
H5743 C5770 0.950 . S
H5744 C5773 0.950 . S
H5745 C5774 0.950 . S
H5746 C5776 0.950 . S
H5747 C5777 0.950 . S
C5748 H5730 0.951 . S
C5748 C5749 1.366 . S
C5748 C5750 1.388 . S
C5749 C5748 1.366 . S
C5749 C5753 1.385 . S
C5750 H5731 0.951 . S
C5750 C5748 1.388 . S
C5750 C5751 1.366 . S
C5751 C5750 1.366 . S
C5751 C5752 1.414 . S
C5751 C5754 1.499 . S
C5752 H5732 0.950 . S
C5752 C5751 1.414 . S
C5752 C5753 1.374 . S
C5753 H5733 0.950 . S
C5753 C5749 1.385 . S
C5753 C5752 1.374 . S
C5754 C5751 1.499 . S
C5754 C5755 1.373 . S
C5754 C5756 1.389 . S
C5755 H5734 0.950 . S
C5755 C5754 1.373 . S
C5755 C5771 1.377 . S
C5756 C5754 1.389 . S
C5756 C5757 1.524 . S
C5756 C5770 1.377 . S
C5757 C5756 1.524 . S
C5757 C5758 1.397 . S
C5757 C5762 1.363 . S
C5758 H5735 0.950 . S
C5758 C5757 1.397 . S
C5758 C5759 1.334 . S
C5759 H5736 0.950 . S
C5759 C5758 1.334 . S
C5759 C5760 1.287 . S
C5760 C5759 1.287 . S
C5760 C5761 1.524 . S
C5760 H5779 0.913 . S
C5761 H5737 0.950 . S
C5761 C5760 1.524 . S
C5761 C5762 1.415 . S
C5762 H5738 0.950 . S
C5762 C5757 1.363 . S
C5762 C5761 1.415 . S
C5763 H5739 0.951 . S
C5763 C5764 1.366 . S
C5763 C5765 1.388 . S
C5764 C5763 1.366 . S
C5764 C5768 1.385 . S
C5765 H5740 0.951 . S
C5765 C5763 1.388 . S
C5765 C5766 1.366 . S
C5766 C5765 1.366 . S
C5766 C5767 1.414 . S
C5766 C5769 1.499 . S
C5767 H5741 0.950 . S
C5767 C5766 1.414 . S
C5767 C5768 1.374 . S
C5768 H5742 0.950 . S
C5768 C5764 1.385 . S
C5768 C5767 1.374 . S
C5769 C5766 1.499 . S
C5769 C5770 1.373 . S
C5769 C5771 1.389 . S
C5770 H5743 0.950 . S
C5770 C5756 1.377 . S
C5770 C5769 1.373 . S
C5771 C5755 1.377 . S
C5771 C5769 1.389 . S
C5771 C5772 1.524 . S
C5772 C5771 1.524 . S
C5772 C5773 1.397 . S
C5772 C5777 1.363 . S
C5773 H5744 0.950 . S
C5773 C5772 1.397 . S
C5773 C5774 1.334 . S
C5774 H5745 0.950 . S
C5774 C5773 1.334 . S
C5774 C5775 1.287 . S
C5775 C5774 1.287 . S
C5775 C5776 1.524 . S
C5775 H5778 0.999 . S
C5776 H5746 0.950 . S
C5776 C5775 1.524 . S
C5776 C5777 1.415 . S
C5777 H5747 0.950 . S
C5777 C5772 1.363 . S
C5777 C5776 1.415 . S
H5778 C5775 0.999 . S
H5779 C5760 0.913 . S
H5780 C5798 0.951 . S
H5781 C5800 0.951 . S
H5782 C5802 0.950 . S
H5783 C5803 0.950 . S
H5784 C5805 0.950 . S
H5785 C5808 0.950 . S
H5786 C5809 0.950 . S
H5787 C5811 0.950 . S
H5788 C5812 0.950 . S
H5789 C5813 0.951 . S
H5790 C5815 0.951 . S
H5791 C5817 0.950 . S
H5792 C5818 0.950 . S
H5793 C5820 0.950 . S
H5794 C5823 0.950 . S
H5795 C5824 0.950 . S
H5796 C5826 0.950 . S
H5797 C5827 0.947 1_455 S
C5798 H5780 0.951 . S
C5798 C5799 1.366 . S
C5798 C5800 1.388 . S
C5799 C5798 1.366 . S
C5799 C5803 1.385 . S
C5800 H5781 0.951 . S
C5800 C5798 1.388 . S
C5800 C5801 1.366 . S
C5801 C5800 1.366 . S
C5801 C5802 1.414 . S
C5801 C5804 1.499 . S
C5802 H5782 0.950 . S
C5802 C5801 1.414 . S
C5802 C5803 1.374 . S
C5803 H5783 0.950 . S
C5803 C5799 1.385 . S
C5803 C5802 1.374 . S
C5804 C5801 1.499 . S
C5804 C5805 1.373 . S
C5804 C5806 1.389 . S
C5805 H5784 0.950 . S
C5805 C5804 1.373 . S
C5805 C5821 1.377 . S
C5806 C5804 1.389 . S
C5806 C5807 1.524 . S
C5806 C5820 1.377 . S
C5807 C5806 1.524 . S
C5807 C5808 1.397 . S
C5807 C5812 1.363 . S
C5808 H5785 0.950 . S
C5808 C5807 1.397 . S
C5808 C5809 1.334 . S
C5809 H5786 0.950 . S
C5809 C5808 1.334 . S
C5809 C5810 1.287 . S
C5810 C5809 1.287 . S
C5810 C5811 1.524 . S
C5810 H5829 0.913 . S
C5811 H5787 0.950 . S
C5811 C5810 1.524 . S
C5811 C5812 1.415 . S
C5812 H5788 0.950 . S
C5812 C5807 1.363 . S
C5812 C5811 1.415 . S
C5813 H5789 0.951 . S
C5813 C5814 1.366 . S
C5813 C5815 1.388 . S
C5814 C5813 1.366 . S
C5814 C5818 1.385 . S
C5815 H5790 0.951 . S
C5815 C5813 1.388 . S
C5815 C5816 1.368 1_455 S
C5816 C5815 1.368 1_655 S
C5816 C5817 1.413 . S
C5816 C5819 1.497 . S
C5817 H5791 0.950 . S
C5817 C5816 1.413 . S
C5817 C5818 1.374 1_655 S
C5818 H5792 0.950 . S
C5818 C5814 1.385 . S
C5818 C5817 1.374 1_455 S
C5819 C5816 1.497 . S
C5819 C5820 1.373 . S
C5819 C5821 1.389 . S
C5820 H5793 0.950 . S
C5820 C5806 1.377 . S
C5820 C5819 1.373 . S
C5821 C5805 1.377 . S
C5821 C5819 1.389 . S
C5821 C5822 1.524 . S
C5822 C5821 1.524 . S
C5822 C5823 1.397 . S
C5822 C5827 1.386 . S
C5823 H5794 0.950 . S
C5823 C5822 1.397 . S
C5823 C5824 1.334 . S
C5824 H5795 0.950 . S
C5824 C5823 1.334 . S
C5824 C5825 1.287 . S
C5825 C5824 1.287 . S
C5825 C5826 1.524 1_655 S
C5825 H5828 0.999 1_655 S
C5826 H5796 0.950 . S
C5826 C5825 1.524 1_455 S
C5826 C5827 1.397 1_455 S
C5827 H5797 0.947 1_655 S
C5827 C5822 1.386 . S
C5827 C5826 1.397 1_655 S
H5828 C5825 0.999 1_455 S
H5829 C5810 0.913 . S
H5830 C5848 0.951 . S
H5831 C5850 0.951 . S
H5832 C5852 0.950 . S
H5833 C5853 0.950 . S
H5834 C5855 0.950 . S
H5835 C5858 0.950 . S
H5836 C5859 0.950 . S
H5837 C5861 0.950 . S
H5838 C5862 0.950 . S
H5839 C5863 0.951 . S
H5840 C5865 0.951 . S
H5841 C5867 0.950 . S
H5842 C5868 0.950 . S
H5843 C5870 0.950 . S
H5844 C5873 0.950 . S
H5845 C5874 0.950 . S
H5846 C5876 0.950 . S
H5847 C5877 0.950 . S
C5848 H5830 0.951 . S
C5848 C5849 1.366 . S
C5848 C5850 1.388 . S
C5849 C5848 1.366 . S
C5849 C5853 1.385 . S
C5850 H5831 0.951 . S
C5850 C5848 1.388 . S
C5850 C5851 1.366 . S
C5851 C5850 1.366 . S
C5851 C5852 1.414 . S
C5851 C5854 1.499 . S
C5852 H5832 0.950 . S
C5852 C5851 1.414 . S
C5852 C5853 1.374 . S
C5853 H5833 0.950 . S
C5853 C5849 1.385 . S
C5853 C5852 1.374 . S
C5854 C5851 1.499 . S
C5854 C5855 1.373 . S
C5854 C5856 1.389 . S
C5855 H5834 0.950 . S
C5855 C5854 1.373 . S
C5855 C5871 1.377 . S
C5856 C5854 1.389 . S
C5856 C5857 1.524 . S
C5856 C5870 1.377 . S
C5857 C5856 1.524 . S
C5857 C5858 1.397 . S
C5857 C5862 1.363 . S
C5858 H5835 0.950 . S
C5858 C5857 1.397 . S
C5858 C5859 1.334 . S
C5859 H5836 0.950 . S
C5859 C5858 1.334 . S
C5859 C5860 1.287 . S
C5860 C5859 1.287 . S
C5860 C5861 1.524 . S
C5860 H5879 0.913 . S
C5861 H5837 0.950 . S
C5861 C5860 1.524 . S
C5861 C5862 1.415 . S
C5862 H5838 0.950 . S
C5862 C5857 1.363 . S
C5862 C5861 1.415 . S
C5863 H5839 0.951 . S
C5863 C5864 1.366 . S
C5863 C5865 1.388 . S
C5864 C5863 1.366 . S
C5864 C5868 1.385 . S
C5865 H5840 0.951 . S
C5865 C5863 1.388 . S
C5865 C5866 1.366 . S
C5866 C5865 1.366 . S
C5866 C5867 1.414 . S
C5866 C5869 1.499 . S
C5867 H5841 0.950 . S
C5867 C5866 1.414 . S
C5867 C5868 1.374 . S
C5868 H5842 0.950 . S
C5868 C5864 1.385 . S
C5868 C5867 1.374 . S
C5869 C5866 1.499 . S
C5869 C5870 1.373 . S
C5869 C5871 1.389 . S
C5870 H5843 0.950 . S
C5870 C5856 1.377 . S
C5870 C5869 1.373 . S
C5871 C5855 1.377 . S
C5871 C5869 1.389 . S
C5871 C5872 1.524 . S
C5872 C5871 1.524 . S
C5872 C5873 1.397 . S
C5872 C5877 1.363 . S
C5873 H5844 0.950 . S
C5873 C5872 1.397 . S
C5873 C5874 1.334 . S
C5874 H5845 0.950 . S
C5874 C5873 1.334 . S
C5874 C5875 1.287 . S
C5875 C5874 1.287 . S
C5875 C5876 1.524 . S
C5875 H5878 0.999 . S
C5876 H5846 0.950 . S
C5876 C5875 1.524 . S
C5876 C5877 1.415 . S
C5877 H5847 0.950 . S
C5877 C5872 1.363 . S
C5877 C5876 1.415 . S
H5878 C5875 0.999 . S
H5879 C5860 0.913 . S
H5880 C5898 0.951 . S
H5881 C5900 0.951 . S
H5882 C5902 0.950 . S
H5883 C5903 0.950 . S
H5884 C5905 0.950 . S
H5885 C5908 0.950 . S
H5886 C5909 0.950 . S
H5887 C5911 0.950 . S
H5888 C5912 0.950 . S
H5889 C5913 0.951 . S
H5890 C5915 0.951 . S
H5891 C5917 0.950 . S
H5892 C5918 0.950 . S
H5893 C5920 0.950 . S
H5894 C5923 0.950 . S
H5895 C5924 0.950 . S
H5896 C5926 0.950 . S
H5897 C5927 0.950 . S
C5898 H5880 0.951 . S
C5898 C5899 1.366 . S
C5898 C5900 1.388 . S
C5899 C5898 1.366 . S
C5899 C5903 1.385 . S
C5900 H5881 0.951 . S
C5900 C5898 1.388 . S
C5900 C5901 1.366 . S
C5901 C5900 1.366 . S
C5901 C5902 1.414 . S
C5901 C5904 1.499 . S
C5902 H5882 0.950 . S
C5902 C5901 1.414 . S
C5902 C5903 1.374 . S
C5903 H5883 0.950 . S
C5903 C5899 1.385 . S
C5903 C5902 1.374 . S
C5904 C5901 1.499 . S
C5904 C5905 1.373 . S
C5904 C5906 1.389 . S
C5905 H5884 0.950 . S
C5905 C5904 1.373 . S
C5905 C5921 1.377 . S
C5906 C5904 1.389 . S
C5906 C5907 1.524 . S
C5906 C5920 1.377 . S
C5907 C5906 1.524 . S
C5907 C5908 1.397 . S
C5907 C5912 1.363 . S
C5908 H5885 0.950 . S
C5908 C5907 1.397 . S
C5908 C5909 1.334 . S
C5909 H5886 0.950 . S
C5909 C5908 1.334 . S
C5909 C5910 1.287 . S
C5910 C5909 1.287 . S
C5910 C5911 1.524 . S
C5910 H5929 0.913 . S
C5911 H5887 0.950 . S
C5911 C5910 1.524 . S
C5911 C5912 1.415 . S
C5912 H5888 0.950 . S
C5912 C5907 1.363 . S
C5912 C5911 1.415 . S
C5913 H5889 0.951 . S
C5913 C5914 1.366 . S
C5913 C5915 1.388 . S
C5914 C5913 1.366 . S
C5914 C5918 1.385 . S
C5915 H5890 0.951 . S
C5915 C5913 1.388 . S
C5915 C5916 1.366 . S
C5916 C5915 1.366 . S
C5916 C5917 1.414 . S
C5916 C5919 1.499 . S
C5917 H5891 0.950 . S
C5917 C5916 1.414 . S
C5917 C5918 1.374 . S
C5918 H5892 0.950 . S
C5918 C5914 1.385 . S
C5918 C5917 1.374 . S
C5919 C5916 1.499 . S
C5919 C5920 1.373 . S
C5919 C5921 1.389 . S
C5920 H5893 0.950 . S
C5920 C5906 1.377 . S
C5920 C5919 1.373 . S
C5921 C5905 1.377 . S
C5921 C5919 1.389 . S
C5921 C5922 1.524 . S
C5922 C5921 1.524 . S
C5922 C5923 1.397 . S
C5922 C5927 1.363 . S
C5923 H5894 0.950 . S
C5923 C5922 1.397 . S
C5923 C5924 1.334 . S
C5924 H5895 0.950 . S
C5924 C5923 1.334 . S
C5924 C5925 1.287 . S
C5925 C5924 1.287 . S
C5925 C5926 1.524 . S
C5925 H5928 0.999 . S
C5926 H5896 0.950 . S
C5926 C5925 1.524 . S
C5926 C5927 1.415 . S
C5927 H5897 0.950 . S
C5927 C5922 1.363 . S
C5927 C5926 1.415 . S
H5928 C5925 0.999 . S
H5929 C5910 0.913 . S
H5930 C5948 0.951 . S
H5931 C5950 0.951 . S
H5932 C5952 0.950 . S
H5933 C5953 0.950 . S
H5934 C5955 0.950 . S
H5935 C5958 0.950 . S
H5936 C5959 0.950 . S
H5937 C5961 0.950 . S
H5938 C5962 0.950 . S
H5939 C5963 0.951 . S
H5940 C5965 0.951 . S
H5941 C5967 0.950 . S
H5942 C5968 0.950 . S
H5943 C5970 0.950 . S
H5944 C5973 0.950 . S
H5945 C5974 0.950 . S
H5946 C5976 0.950 . S
H5947 C5977 0.950 . S
C5948 H5930 0.951 . S
C5948 C5949 1.366 . S
C5948 C5950 1.388 . S
C5949 C5948 1.366 . S
C5949 C5953 1.385 . S
C5950 H5931 0.951 . S
C5950 C5948 1.388 . S
C5950 C5951 1.366 . S
C5951 C5950 1.366 . S
C5951 C5952 1.414 . S
C5951 C5954 1.499 . S
C5952 H5932 0.950 . S
C5952 C5951 1.414 . S
C5952 C5953 1.374 . S
C5953 H5933 0.950 . S
C5953 C5949 1.385 . S
C5953 C5952 1.374 . S
C5954 C5951 1.499 . S
C5954 C5955 1.373 . S
C5954 C5956 1.389 . S
C5955 H5934 0.950 . S
C5955 C5954 1.373 . S
C5955 C5971 1.377 . S
C5956 C5954 1.389 . S
C5956 C5957 1.524 . S
C5956 C5970 1.377 . S
C5957 C5956 1.524 . S
C5957 C5958 1.397 . S
C5957 C5962 1.363 . S
C5958 H5935 0.950 . S
C5958 C5957 1.397 . S
C5958 C5959 1.334 . S
C5959 H5936 0.950 . S
C5959 C5958 1.334 . S
C5959 C5960 1.287 . S
C5960 C5959 1.287 . S
C5960 C5961 1.524 . S
C5960 H5979 0.913 . S
C5961 H5937 0.950 . S
C5961 C5960 1.524 . S
C5961 C5962 1.415 . S
C5962 H5938 0.950 . S
C5962 C5957 1.363 . S
C5962 C5961 1.415 . S
C5963 H5939 0.951 . S
C5963 C5964 1.366 . S
C5963 C5965 1.388 . S
C5964 C5963 1.366 . S
C5964 C5968 1.385 . S
C5965 H5940 0.951 . S
C5965 C5963 1.388 . S
C5965 C5966 1.366 . S
C5966 C5965 1.366 . S
C5966 C5967 1.414 . S
C5966 C5969 1.499 . S
C5967 H5941 0.950 . S
C5967 C5966 1.414 . S
C5967 C5968 1.374 . S
C5968 H5942 0.950 . S
C5968 C5964 1.385 . S
C5968 C5967 1.374 . S
C5969 C5966 1.499 . S
C5969 C5970 1.373 . S
C5969 C5971 1.389 . S
C5970 H5943 0.950 . S
C5970 C5956 1.377 . S
C5970 C5969 1.373 . S
C5971 C5955 1.377 . S
C5971 C5969 1.389 . S
C5971 C5972 1.524 . S
C5972 C5971 1.524 . S
C5972 C5973 1.397 . S
C5972 C5977 1.363 . S
C5973 H5944 0.950 . S
C5973 C5972 1.397 . S
C5973 C5974 1.334 . S
C5974 H5945 0.950 . S
C5974 C5973 1.334 . S
C5974 C5975 1.287 . S
C5975 C5974 1.287 . S
C5975 C5976 1.524 . S
C5975 H5978 0.999 . S
C5976 H5946 0.950 . S
C5976 C5975 1.524 . S
C5976 C5977 1.415 . S
C5977 H5947 0.950 . S
C5977 C5972 1.363 . S
C5977 C5976 1.415 . S
H5978 C5975 0.999 . S
H5979 C5960 0.913 . S
H5980 C5998 0.951 . S
H5981 C6000 0.951 . S
H5982 C6002 0.950 . S
H5983 C6003 0.950 . S
H5984 C6005 0.950 . S
H5985 C6008 0.950 . S
H5986 C6009 0.950 . S
H5987 C6011 0.950 . S
H5988 C6012 0.950 . S
H5989 C6013 0.951 . S
H5990 C6015 0.928 1_455 S
H5991 C6017 0.950 . S
H5992 C6018 0.950 . S
H5993 C6020 0.950 . S
H5994 C6023 0.950 . S
H5995 C6024 0.950 . S
H5996 C6026 0.950 . S
H5997 C6027 0.950 . S
C5998 H5980 0.951 . S
C5998 C5999 1.366 . S
C5998 C6000 1.388 . S
C5999 C5998 1.366 . S
C5999 C6003 1.385 . S
C6000 H5981 0.951 . S
C6000 C5998 1.388 . S
C6000 C6001 1.366 . S
C6001 C6000 1.366 . S
C6001 C6002 1.414 . S
C6001 C6004 1.499 . S
C6002 H5982 0.950 . S
C6002 C6001 1.414 . S
C6002 C6003 1.374 . S
C6003 H5983 0.950 . S
C6003 C5999 1.385 . S
C6003 C6002 1.374 . S
C6004 C6001 1.499 . S
C6004 C6005 1.373 . S
C6004 C6006 1.389 . S
C6005 H5984 0.950 . S
C6005 C6004 1.373 . S
C6005 C6021 1.377 . S
C6006 C6004 1.389 . S
C6006 C6007 1.524 . S
C6006 C6020 1.377 . S
C6007 C6006 1.524 . S
C6007 C6008 1.397 . S
C6007 C6012 1.363 . S
C6008 H5985 0.950 . S
C6008 C6007 1.397 . S
C6008 C6009 1.334 . S
C6009 H5986 0.950 . S
C6009 C6008 1.334 . S
C6009 C6010 1.287 . S
C6010 C6009 1.287 . S
C6010 C6011 1.524 . S
C6010 H6029 0.913 . S
C6011 H5987 0.950 . S
C6011 C6010 1.524 . S
C6011 C6012 1.415 . S
C6012 H5988 0.950 . S
C6012 C6007 1.363 . S
C6012 C6011 1.415 . S
C6013 H5989 0.951 . S
C6013 C6014 1.372 . S
C6013 C6015 1.358 1_455 S
C6014 C6013 1.372 . S
C6014 C6018 1.369 1_455 S
C6015 H5990 0.928 1_655 S
C6015 C6013 1.358 1_655 S
C6015 C6016 1.420 . S
C6016 C6015 1.420 . S
C6016 C6017 1.414 . S
C6016 C6019 1.499 . S
C6017 H5991 0.950 . S
C6017 C6016 1.414 . S
C6017 C6018 1.374 . S
C6018 H5992 0.950 . S
C6018 C6014 1.369 1_655 S
C6018 C6017 1.374 . S
C6019 C6016 1.499 . S
C6019 C6020 1.373 . S
C6019 C6021 1.389 . S
C6020 H5993 0.950 . S
C6020 C6006 1.377 . S
C6020 C6019 1.373 . S
C6021 C6005 1.377 . S
C6021 C6019 1.389 . S
C6021 C6022 1.524 . S
C6022 C6021 1.524 . S
C6022 C6023 1.397 . S
C6022 C6027 1.363 1_655 S
C6023 H5994 0.950 . S
C6023 C6022 1.397 . S
C6023 C6024 1.334 1_655 S
C6024 H5995 0.950 . S
C6024 C6023 1.334 1_455 S
C6024 C6025 1.287 . S
C6025 C6024 1.287 . S
C6025 C6026 1.524 . S
C6025 H6028 0.999 . S
C6026 H5996 0.950 . S
C6026 C6025 1.524 . S
C6026 C6027 1.415 . S
C6027 H5997 0.950 . S
C6027 C6022 1.363 1_455 S
C6027 C6026 1.415 . S
H6028 C6025 0.999 . S
H6029 C6010 0.913 . S
H6030 C6048 0.951 . S
H6031 C6050 0.951 . S
H6032 C6052 0.950 . S
H6033 C6053 0.950 . S
H6034 C6055 0.950 . S
H6035 C6058 0.950 . S
H6036 C6059 0.950 . S
H6037 C6061 0.950 . S
H6038 C6062 0.950 . S
H6039 C6063 0.951 . S
H6040 C6065 0.951 . S
H6041 C6067 0.950 . S
H6042 C6068 0.950 . S
H6043 C6070 0.950 . S
H6044 C6073 0.950 . S
H6045 C6074 0.950 . S
H6046 C6076 0.950 . S
H6047 C6077 0.950 . S
C6048 H6030 0.951 . S
C6048 C6049 1.366 . S
C6048 C6050 1.388 . S
C6049 C6048 1.366 . S
C6049 C6053 1.385 . S
C6050 H6031 0.951 . S
C6050 C6048 1.388 . S
C6050 C6051 1.366 . S
C6051 C6050 1.366 . S
C6051 C6052 1.414 . S
C6051 C6054 1.499 . S
C6052 H6032 0.950 . S
C6052 C6051 1.414 . S
C6052 C6053 1.374 . S
C6053 H6033 0.950 . S
C6053 C6049 1.385 . S
C6053 C6052 1.374 . S
C6054 C6051 1.499 . S
C6054 C6055 1.373 . S
C6054 C6056 1.389 . S
C6055 H6034 0.950 . S
C6055 C6054 1.373 . S
C6055 C6071 1.377 . S
C6056 C6054 1.389 . S
C6056 C6057 1.524 . S
C6056 C6070 1.377 . S
C6057 C6056 1.524 . S
C6057 C6058 1.397 . S
C6057 C6062 1.363 . S
C6058 H6035 0.950 . S
C6058 C6057 1.397 . S
C6058 C6059 1.334 . S
C6059 H6036 0.950 . S
C6059 C6058 1.334 . S
C6059 C6060 1.287 . S
C6060 C6059 1.287 . S
C6060 C6061 1.524 . S
C6060 H6079 0.913 . S
C6061 H6037 0.950 . S
C6061 C6060 1.524 . S
C6061 C6062 1.415 . S
C6062 H6038 0.950 . S
C6062 C6057 1.363 . S
C6062 C6061 1.415 . S
C6063 H6039 0.951 . S
C6063 C6064 1.366 . S
C6063 C6065 1.388 . S
C6064 C6063 1.366 . S
C6064 C6068 1.385 . S
C6065 H6040 0.951 . S
C6065 C6063 1.388 . S
C6065 C6066 1.366 . S
C6066 C6065 1.366 . S
C6066 C6067 1.414 . S
C6066 C6069 1.499 . S
C6067 H6041 0.950 . S
C6067 C6066 1.414 . S
C6067 C6068 1.374 . S
C6068 H6042 0.950 . S
C6068 C6064 1.385 . S
C6068 C6067 1.374 . S
C6069 C6066 1.499 . S
C6069 C6070 1.373 . S
C6069 C6071 1.389 . S
C6070 H6043 0.950 . S
C6070 C6056 1.377 . S
C6070 C6069 1.373 . S
C6071 C6055 1.377 . S
C6071 C6069 1.389 . S
C6071 C6072 1.524 . S
C6072 C6071 1.524 . S
C6072 C6073 1.397 . S
C6072 C6077 1.363 . S
C6073 H6044 0.950 . S
C6073 C6072 1.397 . S
C6073 C6074 1.334 . S
C6074 H6045 0.950 . S
C6074 C6073 1.334 . S
C6074 C6075 1.287 . S
C6075 C6074 1.287 . S
C6075 C6076 1.524 . S
C6075 H6078 0.999 . S
C6076 H6046 0.950 . S
C6076 C6075 1.524 . S
C6076 C6077 1.415 . S
C6077 H6047 0.950 . S
C6077 C6072 1.363 . S
C6077 C6076 1.415 . S
H6078 C6075 0.999 . S
H6079 C6060 0.913 . S
H6080 C6098 0.951 . S
H6081 C6100 0.951 . S
H6082 C6102 0.950 . S
H6083 C6103 0.950 . S
H6084 C6105 0.950 . S
H6085 C6108 0.950 . S
H6086 C6109 0.950 . S
H6087 C6111 0.950 . S
H6088 C6112 0.950 . S
H6089 C6113 0.951 . S
H6090 C6115 0.951 . S
H6091 C6117 0.950 . S
H6092 C6118 0.950 . S
H6093 C6120 0.950 . S
H6094 C6123 0.950 . S
H6095 C6124 0.950 . S
H6096 C6126 0.950 . S
H6097 C6127 0.950 . S
C6098 H6080 0.951 . S
C6098 C6099 1.366 . S
C6098 C6100 1.388 . S
C6099 C6098 1.366 . S
C6099 C6103 1.385 . S
C6100 H6081 0.951 . S
C6100 C6098 1.388 . S
C6100 C6101 1.366 . S
C6101 C6100 1.366 . S
C6101 C6102 1.414 . S
C6101 C6104 1.499 . S
C6102 H6082 0.950 . S
C6102 C6101 1.414 . S
C6102 C6103 1.374 . S
C6103 H6083 0.950 . S
C6103 C6099 1.385 . S
C6103 C6102 1.374 . S
C6104 C6101 1.499 . S
C6104 C6105 1.373 . S
C6104 C6106 1.389 . S
C6105 H6084 0.950 . S
C6105 C6104 1.373 . S
C6105 C6121 1.377 . S
C6106 C6104 1.389 . S
C6106 C6107 1.524 . S
C6106 C6120 1.377 . S
C6107 C6106 1.524 . S
C6107 C6108 1.397 . S
C6107 C6112 1.363 . S
C6108 H6085 0.950 . S
C6108 C6107 1.397 . S
C6108 C6109 1.334 . S
C6109 H6086 0.950 . S
C6109 C6108 1.334 . S
C6109 C6110 1.287 . S
C6110 C6109 1.287 . S
C6110 C6111 1.524 . S
C6110 H6129 0.913 . S
C6111 H6087 0.950 . S
C6111 C6110 1.524 . S
C6111 C6112 1.415 . S
C6112 H6088 0.950 . S
C6112 C6107 1.363 . S
C6112 C6111 1.415 . S
C6113 H6089 0.951 . S
C6113 C6114 1.366 . S
C6113 C6115 1.388 . S
C6114 C6113 1.366 . S
C6114 C6118 1.385 . S
C6115 H6090 0.951 . S
C6115 C6113 1.388 . S
C6115 C6116 1.366 . S
C6116 C6115 1.366 . S
C6116 C6117 1.414 . S
C6116 C6119 1.499 . S
C6117 H6091 0.950 . S
C6117 C6116 1.414 . S
C6117 C6118 1.374 . S
C6118 H6092 0.950 . S
C6118 C6114 1.385 . S
C6118 C6117 1.374 . S
C6119 C6116 1.499 . S
C6119 C6120 1.373 . S
C6119 C6121 1.389 . S
C6120 H6093 0.950 . S
C6120 C6106 1.377 . S
C6120 C6119 1.373 . S
C6121 C6105 1.377 . S
C6121 C6119 1.389 . S
C6121 C6122 1.524 . S
C6122 C6121 1.524 . S
C6122 C6123 1.397 . S
C6122 C6127 1.363 . S
C6123 H6094 0.950 . S
C6123 C6122 1.397 . S
C6123 C6124 1.334 . S
C6124 H6095 0.950 . S
C6124 C6123 1.334 . S
C6124 C6125 1.287 . S
C6125 C6124 1.287 . S
C6125 C6126 1.524 . S
C6125 H6128 0.999 . S
C6126 H6096 0.950 . S
C6126 C6125 1.524 . S
C6126 C6127 1.415 . S
C6127 H6097 0.950 . S
C6127 C6122 1.363 . S
C6127 C6126 1.415 . S
H6128 C6125 0.999 . S
H6129 C6110 0.913 . S
H6130 C6148 0.951 . S
H6131 C6150 0.951 . S
H6132 C6152 0.950 . S
H6133 C6153 0.950 . S
H6134 C6155 0.950 . S
H6135 C6158 0.950 . S
H6136 C6159 0.950 . S
H6137 C6161 0.950 . S
H6138 C6162 0.950 . S
H6139 C6163 0.951 . S
H6140 C6165 0.954 . S
H6141 C6167 0.950 . S
H6142 C6168 0.950 . S
H6143 C6170 0.950 . S
H6144 C6173 0.950 . S
H6145 C6174 0.950 . S
H6146 C6176 0.950 . S
H6147 C6177 0.952 . S
C6148 H6130 0.951 . S
C6148 C6149 1.366 . S
C6148 C6150 1.388 . S
C6149 C6148 1.366 . S
C6149 C6153 1.385 . S
C6150 H6131 0.951 . S
C6150 C6148 1.388 . S
C6150 C6151 1.366 . S
C6151 C6150 1.366 . S
C6151 C6152 1.414 . S
C6151 C6154 1.499 . S
C6152 H6132 0.950 . S
C6152 C6151 1.414 . S
C6152 C6153 1.374 . S
C6153 H6133 0.950 . S
C6153 C6149 1.385 . S
C6153 C6152 1.374 . S
C6154 C6151 1.499 . S
C6154 C6155 1.373 . S
C6154 C6156 1.389 . S
C6155 H6134 0.950 . S
C6155 C6154 1.373 . S
C6155 C6171 1.377 . S
C6156 C6154 1.389 . S
C6156 C6157 1.524 . S
C6156 C6170 1.377 . S
C6157 C6156 1.524 . S
C6157 C6158 1.397 . S
C6157 C6162 1.363 . S
C6158 H6135 0.950 . S
C6158 C6157 1.397 . S
C6158 C6159 1.334 . S
C6159 H6136 0.950 . S
C6159 C6158 1.334 . S
C6159 C6160 1.287 . S
C6160 C6159 1.287 . S
C6160 C6161 1.524 . S
C6160 H6179 0.913 . S
C6161 H6137 0.950 . S
C6161 C6160 1.524 . S
C6161 C6162 1.415 . S
C6162 H6138 0.950 . S
C6162 C6157 1.363 . S
C6162 C6161 1.415 . S
C6163 H6139 0.951 . S
C6163 C6164 1.366 . S
C6163 C6165 1.390 . S
C6164 C6163 1.366 . S
C6164 C6168 1.385 1_545 S
C6165 H6140 0.954 . S
C6165 C6163 1.390 . S
C6165 C6166 1.360 1_545 S
C6166 C6165 1.360 1_565 S
C6166 C6167 1.414 . S
C6166 C6169 1.499 . S
C6167 H6141 0.950 . S
C6167 C6166 1.414 . S
C6167 C6168 1.374 . S
C6168 H6142 0.950 . S
C6168 C6164 1.385 1_565 S
C6168 C6167 1.374 . S
C6169 C6166 1.499 . S
C6169 C6170 1.373 . S
C6169 C6171 1.389 . S
C6170 H6143 0.950 . S
C6170 C6156 1.377 . S
C6170 C6169 1.373 . S
C6171 C6155 1.377 . S
C6171 C6169 1.389 . S
C6171 C6172 1.524 . S
C6172 C6171 1.524 . S
C6172 C6173 1.397 . S
C6172 C6177 1.363 . S
C6173 H6144 0.950 . S
C6173 C6172 1.397 . S
C6173 C6174 1.334 . S
C6174 H6145 0.950 . S
C6174 C6173 1.334 . S
C6174 C6175 1.287 1_565 S
C6175 C6174 1.287 1_545 S
C6175 C6176 1.524 . S
C6175 H6178 0.999 . S
C6176 H6146 0.950 . S
C6176 C6175 1.524 . S
C6176 C6177 1.415 1_545 S
C6177 H6147 0.952 . S
C6177 C6172 1.363 . S
C6177 C6176 1.415 1_565 S
H6178 C6175 0.999 . S
H6179 C6160 0.913 . S
H6180 C6198 0.951 . S
H6181 C6200 0.951 . S
H6182 C6202 0.950 . S
H6183 C6203 0.950 . S
H6184 C6205 0.950 . S
H6185 C6208 0.950 . S
H6186 C6209 0.950 . S
H6187 C6211 0.950 . S
H6188 C6212 0.950 . S
H6189 C6213 0.951 . S
H6190 C6215 0.951 . S
H6191 C6217 0.950 . S
H6192 C6218 0.950 . S
H6193 C6220 0.950 . S
H6194 C6223 0.950 . S
H6195 C6224 0.950 . S
H6196 C6226 0.950 . S
H6197 C6227 0.950 . S
C6198 H6180 0.951 . S
C6198 C6199 1.366 . S
C6198 C6200 1.388 . S
C6199 C6198 1.366 . S
C6199 C6203 1.385 . S
C6200 H6181 0.951 . S
C6200 C6198 1.388 . S
C6200 C6201 1.366 . S
C6201 C6200 1.366 . S
C6201 C6202 1.414 . S
C6201 C6204 1.499 . S
C6202 H6182 0.950 . S
C6202 C6201 1.414 . S
C6202 C6203 1.374 . S
C6203 H6183 0.950 . S
C6203 C6199 1.385 . S
C6203 C6202 1.374 . S
C6204 C6201 1.499 . S
C6204 C6205 1.373 . S
C6204 C6206 1.389 . S
C6205 H6184 0.950 . S
C6205 C6204 1.373 . S
C6205 C6221 1.377 . S
C6206 C6204 1.389 . S
C6206 C6207 1.524 . S
C6206 C6220 1.377 . S
C6207 C6206 1.524 . S
C6207 C6208 1.397 . S
C6207 C6212 1.363 . S
C6208 H6185 0.950 . S
C6208 C6207 1.397 . S
C6208 C6209 1.334 . S
C6209 H6186 0.950 . S
C6209 C6208 1.334 . S
C6209 C6210 1.287 . S
C6210 C6209 1.287 . S
C6210 C6211 1.524 . S
C6210 H6229 0.913 . S
C6211 H6187 0.950 . S
C6211 C6210 1.524 . S
C6211 C6212 1.415 . S
C6212 H6188 0.950 . S
C6212 C6207 1.363 . S
C6212 C6211 1.415 . S
C6213 H6189 0.951 . S
C6213 C6214 1.366 . S
C6213 C6215 1.388 . S
C6214 C6213 1.366 . S
C6214 C6218 1.385 . S
C6215 H6190 0.951 . S
C6215 C6213 1.388 . S
C6215 C6216 1.366 . S
C6216 C6215 1.366 . S
C6216 C6217 1.414 . S
C6216 C6219 1.499 . S
C6217 H6191 0.950 . S
C6217 C6216 1.414 . S
C6217 C6218 1.374 . S
C6218 H6192 0.950 . S
C6218 C6214 1.385 . S
C6218 C6217 1.374 . S
C6219 C6216 1.499 . S
C6219 C6220 1.373 . S
C6219 C6221 1.389 . S
C6220 H6193 0.950 . S
C6220 C6206 1.377 . S
C6220 C6219 1.373 . S
C6221 C6205 1.377 . S
C6221 C6219 1.389 . S
C6221 C6222 1.524 . S
C6222 C6221 1.524 . S
C6222 C6223 1.397 . S
C6222 C6227 1.363 . S
C6223 H6194 0.950 . S
C6223 C6222 1.397 . S
C6223 C6224 1.334 . S
C6224 H6195 0.950 . S
C6224 C6223 1.334 . S
C6224 C6225 1.287 . S
C6225 C6224 1.287 . S
C6225 C6226 1.524 . S
C6225 H6228 0.999 . S
C6226 H6196 0.950 . S
C6226 C6225 1.524 . S
C6226 C6227 1.415 . S
C6227 H6197 0.950 . S
C6227 C6222 1.363 . S
C6227 C6226 1.415 . S
H6228 C6225 0.999 . S
H6229 C6210 0.913 . S
H6230 C6248 0.951 . S
H6231 C6250 0.951 . S
H6232 C6252 0.950 . S
H6233 C6253 0.950 . S
H6234 C6255 0.957 . S
H6235 C6258 0.950 . S
H6236 C6259 0.950 . S
H6237 C6261 0.950 . S
H6238 C6262 0.950 . S
H6239 C6263 0.951 . S
H6240 C6265 0.951 . S
H6241 C6267 0.950 . S
H6242 C6268 0.950 . S
H6243 C6270 0.950 . S
H6244 C6273 0.950 . S
H6245 C6274 0.950 . S
H6246 C6276 0.950 . S
H6247 C6277 0.958 . S
C6248 H6230 0.951 . S
C6248 C6249 1.366 . S
C6248 C6250 1.388 . S
C6249 C6248 1.366 . S
C6249 C6253 1.385 . S
C6250 H6231 0.951 . S
C6250 C6248 1.388 . S
C6250 C6251 1.366 . S
C6251 C6250 1.366 . S
C6251 C6252 1.414 . S
C6251 C6254 1.499 . S
C6252 H6232 0.950 . S
C6252 C6251 1.414 . S
C6252 C6253 1.374 . S
C6253 H6233 0.950 . S
C6253 C6249 1.385 . S
C6253 C6252 1.374 . S
C6254 C6251 1.499 . S
C6254 C6255 1.373 . S
C6254 C6256 1.389 . S
C6255 H6234 0.957 . S
C6255 C6254 1.373 . S
C6255 C6271 1.377 . S
C6256 C6254 1.389 . S
C6256 C6257 1.524 . S
C6256 C6270 1.377 . S
C6257 C6256 1.524 . S
C6257 C6258 1.397 . S
C6257 C6262 1.363 . S
C6258 H6235 0.950 . S
C6258 C6257 1.397 . S
C6258 C6259 1.334 . S
C6259 H6236 0.950 . S
C6259 C6258 1.334 . S
C6259 C6260 1.287 . S
C6260 C6259 1.287 . S
C6260 C6261 1.524 . S
C6260 H6279 0.913 . S
C6261 H6237 0.950 . S
C6261 C6260 1.524 . S
C6261 C6262 1.415 . S
C6262 H6238 0.950 . S
C6262 C6257 1.363 . S
C6262 C6261 1.415 . S
C6263 H6239 0.951 . S
C6263 C6264 1.366 . S
C6263 C6265 1.388 . S
C6264 C6263 1.366 . S
C6264 C6268 1.385 . S
C6265 H6240 0.951 . S
C6265 C6263 1.388 . S
C6265 C6266 1.366 . S
C6266 C6265 1.366 . S
C6266 C6267 1.414 . S
C6266 C6269 1.499 . S
C6267 H6241 0.950 . S
C6267 C6266 1.414 . S
C6267 C6268 1.374 . S
C6268 H6242 0.950 . S
C6268 C6264 1.385 . S
C6268 C6267 1.374 . S
C6269 C6266 1.499 . S
C6269 C6270 1.373 . S
C6269 C6271 1.389 . S
C6270 H6243 0.950 . S
C6270 C6256 1.377 . S
C6270 C6269 1.373 . S
C6271 C6255 1.377 . S
C6271 C6269 1.389 . S
C6271 C6272 1.524 1_554 S
C6272 C6271 1.524 1_556 S
C6272 C6273 1.397 . S
C6272 C6277 1.363 . S
C6273 H6244 0.950 . S
C6273 C6272 1.397 . S
C6273 C6274 1.334 . S
C6274 H6245 0.950 . S
C6274 C6273 1.334 . S
C6274 C6275 1.287 . S
C6275 C6274 1.287 . S
C6275 C6276 1.524 . S
C6275 H6278 0.999 . S
C6276 H6246 0.950 . S
C6276 C6275 1.524 . S
C6276 C6277 1.415 . S
C6277 H6247 0.958 . S
C6277 C6272 1.363 . S
C6277 C6276 1.415 . S
H6278 C6275 0.999 . S
H6279 C6260 0.913 . S
H6280 C6298 0.951 . S
H6281 C6300 0.951 . S
H6282 C6302 0.950 . S
H6283 C6303 0.950 . S
H6284 C6305 0.950 . S
H6285 C6308 0.950 . S
H6286 C6309 0.950 . S
H6287 C6311 0.950 . S
H6288 C6312 0.950 . S
H6289 C6313 0.951 . S
H6290 C6315 0.951 . S
H6291 C6317 0.950 . S
H6292 C6318 0.950 . S
H6293 C6320 0.950 . S
H6294 C6323 0.950 . S
H6295 C6324 0.950 . S
H6296 C6326 0.950 . S
H6297 C6327 0.950 . S
C6298 H6280 0.951 . S
C6298 C6299 1.366 . S
C6298 C6300 1.388 . S
C6299 C6298 1.366 . S
C6299 C6303 1.385 . S
C6300 H6281 0.951 . S
C6300 C6298 1.388 . S
C6300 C6301 1.366 . S
C6301 C6300 1.366 . S
C6301 C6302 1.414 . S
C6301 C6304 1.499 . S
C6302 H6282 0.950 . S
C6302 C6301 1.414 . S
C6302 C6303 1.374 . S
C6303 H6283 0.950 . S
C6303 C6299 1.385 . S
C6303 C6302 1.374 . S
C6304 C6301 1.499 . S
C6304 C6305 1.373 . S
C6304 C6306 1.389 . S
C6305 H6284 0.950 . S
C6305 C6304 1.373 . S
C6305 C6321 1.377 . S
C6306 C6304 1.389 . S
C6306 C6307 1.524 . S
C6306 C6320 1.377 . S
C6307 C6306 1.524 . S
C6307 C6308 1.397 . S
C6307 C6312 1.363 . S
C6308 H6285 0.950 . S
C6308 C6307 1.397 . S
C6308 C6309 1.334 . S
C6309 H6286 0.950 . S
C6309 C6308 1.334 . S
C6309 C6310 1.287 . S
C6310 C6309 1.287 . S
C6310 C6311 1.524 . S
C6310 H6329 0.913 . S
C6311 H6287 0.950 . S
C6311 C6310 1.524 . S
C6311 C6312 1.415 . S
C6312 H6288 0.950 . S
C6312 C6307 1.363 . S
C6312 C6311 1.415 . S
C6313 H6289 0.951 . S
C6313 C6314 1.366 . S
C6313 C6315 1.388 . S
C6314 C6313 1.366 . S
C6314 C6318 1.385 . S
C6315 H6290 0.951 . S
C6315 C6313 1.388 . S
C6315 C6316 1.366 . S
C6316 C6315 1.366 . S
C6316 C6317 1.414 . S
C6316 C6319 1.499 . S
C6317 H6291 0.950 . S
C6317 C6316 1.414 . S
C6317 C6318 1.374 . S
C6318 H6292 0.950 . S
C6318 C6314 1.385 . S
C6318 C6317 1.374 . S
C6319 C6316 1.499 . S
C6319 C6320 1.373 . S
C6319 C6321 1.389 . S
C6320 H6293 0.950 . S
C6320 C6306 1.377 . S
C6320 C6319 1.373 . S
C6321 C6305 1.377 . S
C6321 C6319 1.389 . S
C6321 C6322 1.524 . S
C6322 C6321 1.524 . S
C6322 C6323 1.397 . S
C6322 C6327 1.363 . S
C6323 H6294 0.950 . S
C6323 C6322 1.397 . S
C6323 C6324 1.334 . S
C6324 H6295 0.950 . S
C6324 C6323 1.334 . S
C6324 C6325 1.287 . S
C6325 C6324 1.287 . S
C6325 C6326 1.524 . S
C6325 H6328 0.999 . S
C6326 H6296 0.950 . S
C6326 C6325 1.524 . S
C6326 C6327 1.415 . S
C6327 H6297 0.950 . S
C6327 C6322 1.363 . S
C6327 C6326 1.415 . S
H6328 C6325 0.999 . S
H6329 C6310 0.913 . S
H6330 C6348 0.951 . S
H6331 C6350 0.951 . S
H6332 C6352 0.950 . S
H6333 C6353 0.950 . S
H6334 C6355 0.950 . S
H6335 C6358 0.950 . S
H6336 C6359 0.950 . S
H6337 C6361 0.950 . S
H6338 C6362 0.950 . S
H6339 C6363 0.951 . S
H6340 C6365 0.951 . S
H6341 C6367 0.950 . S
H6342 C6368 0.950 . S
H6343 C6370 0.950 . S
H6344 C6373 0.950 . S
H6345 C6374 0.950 . S
H6346 C6376 0.950 . S
H6347 C6377 0.950 1_554 S
C6348 H6330 0.951 . S
C6348 C6349 1.366 . S
C6348 C6350 1.388 . S
C6349 C6348 1.366 . S
C6349 C6353 1.385 . S
C6350 H6331 0.951 . S
C6350 C6348 1.388 . S
C6350 C6351 1.366 . S
C6351 C6350 1.366 . S
C6351 C6352 1.414 . S
C6351 C6354 1.499 . S
C6352 H6332 0.950 . S
C6352 C6351 1.414 . S
C6352 C6353 1.374 . S
C6353 H6333 0.950 . S
C6353 C6349 1.385 . S
C6353 C6352 1.374 . S
C6354 C6351 1.499 . S
C6354 C6355 1.373 . S
C6354 C6356 1.389 . S
C6355 H6334 0.950 . S
C6355 C6354 1.373 . S
C6355 C6371 1.377 . S
C6356 C6354 1.389 . S
C6356 C6357 1.524 . S
C6356 C6370 1.377 . S
C6357 C6356 1.524 . S
C6357 C6358 1.397 . S
C6357 C6362 1.363 . S
C6358 H6335 0.950 . S
C6358 C6357 1.397 . S
C6358 C6359 1.334 . S
C6359 H6336 0.950 . S
C6359 C6358 1.334 . S
C6359 C6360 1.287 . S
C6360 C6359 1.287 . S
C6360 C6361 1.524 . S
C6360 H6379 0.913 . S
C6361 H6337 0.950 . S
C6361 C6360 1.524 . S
C6361 C6362 1.415 . S
C6362 H6338 0.950 . S
C6362 C6357 1.363 . S
C6362 C6361 1.415 . S
C6363 H6339 0.951 . S
C6363 C6364 1.366 . S
C6363 C6365 1.388 . S
C6364 C6363 1.366 . S
C6364 C6368 1.385 . S
C6365 H6340 0.951 . S
C6365 C6363 1.388 . S
C6365 C6366 1.366 . S
C6366 C6365 1.366 . S
C6366 C6367 1.414 . S
C6366 C6369 1.499 . S
C6367 H6341 0.950 . S
C6367 C6366 1.414 . S
C6367 C6368 1.374 . S
C6368 H6342 0.950 . S
C6368 C6364 1.385 . S
C6368 C6367 1.374 . S
C6369 C6366 1.499 . S
C6369 C6370 1.373 . S
C6369 C6371 1.389 . S
C6370 H6343 0.950 . S
C6370 C6356 1.377 . S
C6370 C6369 1.373 . S
C6371 C6355 1.377 . S
C6371 C6369 1.389 . S
C6371 C6372 1.524 1_554 S
C6372 C6371 1.524 1_556 S
C6372 C6373 1.397 . S
C6372 C6377 1.363 . S
C6373 H6344 0.950 . S
C6373 C6372 1.397 . S
C6373 C6374 1.334 . S
C6374 H6345 0.950 . S
C6374 C6373 1.334 . S
C6374 C6375 1.287 . S
C6375 C6374 1.287 . S
C6375 C6376 1.524 . S
C6375 H6378 0.999 . S
C6376 H6346 0.950 . S
C6376 C6375 1.524 . S
C6376 C6377 1.415 . S
C6377 H6347 0.950 1_556 S
C6377 C6372 1.363 . S
C6377 C6376 1.415 . S
H6378 C6375 0.999 . S
H6379 C6360 0.913 . S
H6380 C6398 0.951 . S
H6381 C6400 0.951 . S
H6382 C6402 0.950 . S
H6383 C6403 0.950 1_545 S
H6384 C6405 0.950 . S
H6385 C6408 0.950 . S
H6386 C6409 0.950 . S
H6387 C6411 0.950 . S
H6388 C6412 0.950 . S
H6389 C6413 0.951 . S
H6390 C6415 0.951 . S
H6391 C6417 0.950 . S
H6392 C6418 0.950 . S
H6393 C6420 0.950 . S
H6394 C6423 0.950 . S
H6395 C6424 0.950 . S
H6396 C6426 0.950 . S
H6397 C6427 0.950 . S
C6398 H6380 0.951 . S
C6398 C6399 1.367 1_565 S
C6398 C6400 1.388 . S
C6399 C6398 1.367 1_545 S
C6399 C6403 1.385 1_545 S
C6400 H6381 0.951 . S
C6400 C6398 1.388 . S
C6400 C6401 1.366 . S
C6401 C6400 1.366 . S
C6401 C6402 1.414 . S
C6401 C6404 1.499 . S
C6402 H6382 0.950 . S
C6402 C6401 1.414 . S
C6402 C6403 1.374 . S
C6403 H6383 0.950 1_565 S
C6403 C6399 1.385 1_565 S
C6403 C6402 1.374 . S
C6404 C6401 1.499 . S
C6404 C6405 1.373 . S
C6404 C6406 1.389 . S
C6405 H6384 0.950 . S
C6405 C6404 1.373 . S
C6405 C6421 1.377 . S
C6406 C6404 1.389 . S
C6406 C6407 1.524 . S
C6406 C6420 1.377 . S
C6407 C6406 1.524 . S
C6407 C6408 1.397 . S
C6407 C6412 1.363 . S
C6408 H6385 0.950 . S
C6408 C6407 1.397 . S
C6408 C6409 1.334 . S
C6409 H6386 0.950 . S
C6409 C6408 1.334 . S
C6409 C6410 1.287 . S
C6410 C6409 1.287 . S
C6410 C6411 1.524 . S
C6410 H6429 0.913 . S
C6411 H6387 0.950 . S
C6411 C6410 1.524 . S
C6411 C6412 1.415 . S
C6412 H6388 0.950 . S
C6412 C6407 1.363 . S
C6412 C6411 1.415 . S
C6413 H6389 0.951 . S
C6413 C6414 1.366 . S
C6413 C6415 1.388 . S
C6414 C6413 1.366 . S
C6414 C6418 1.385 . S
C6415 H6390 0.951 . S
C6415 C6413 1.388 . S
C6415 C6416 1.366 . S
C6416 C6415 1.366 . S
C6416 C6417 1.414 . S
C6416 C6419 1.499 . S
C6417 H6391 0.950 . S
C6417 C6416 1.414 . S
C6417 C6418 1.374 . S
C6418 H6392 0.950 . S
C6418 C6414 1.385 . S
C6418 C6417 1.374 . S
C6419 C6416 1.499 . S
C6419 C6420 1.373 . S
C6419 C6421 1.389 . S
C6420 H6393 0.950 . S
C6420 C6406 1.377 . S
C6420 C6419 1.373 . S
C6421 C6405 1.377 . S
C6421 C6419 1.389 . S
C6421 C6422 1.524 . S
C6422 C6421 1.524 . S
C6422 C6423 1.397 . S
C6422 C6427 1.363 . S
C6423 H6394 0.950 . S
C6423 C6422 1.397 . S
C6423 C6424 1.334 . S
C6424 H6395 0.950 . S
C6424 C6423 1.334 . S
C6424 C6425 1.287 . S
C6425 C6424 1.287 . S
C6425 C6426 1.524 . S
C6425 H6428 0.999 . S
C6426 H6396 0.950 . S
C6426 C6425 1.524 . S
C6426 C6427 1.415 . S
C6427 H6397 0.950 . S
C6427 C6422 1.363 . S
C6427 C6426 1.415 . S
H6428 C6425 0.999 . S
H6429 C6410 0.913 . S
H6430 C6448 0.951 . S
H6431 C6450 0.951 . S
H6432 C6452 0.950 . S
H6433 C6453 0.950 . S
H6434 C6455 0.950 . S
H6435 C6458 0.950 . S
H6436 C6459 0.950 . S
H6437 C6461 0.950 . S
H6438 C6462 0.950 . S
H6439 C6463 0.951 . S
H6440 C6465 0.951 . S
H6441 C6467 0.950 . S
H6442 C6468 0.950 . S
H6443 C6470 0.950 . S
H6444 C6473 0.950 . S
H6445 C6474 0.950 . S
H6446 C6476 0.950 . S
H6447 C6477 0.950 . S
C6448 H6430 0.951 . S
C6448 C6449 1.366 . S
C6448 C6450 1.388 . S
C6449 C6448 1.366 . S
C6449 C6453 1.385 . S
C6450 H6431 0.951 . S
C6450 C6448 1.388 . S
C6450 C6451 1.366 . S
C6451 C6450 1.366 . S
C6451 C6452 1.414 . S
C6451 C6454 1.499 . S
C6452 H6432 0.950 . S
C6452 C6451 1.414 . S
C6452 C6453 1.374 . S
C6453 H6433 0.950 . S
C6453 C6449 1.385 . S
C6453 C6452 1.374 . S
C6454 C6451 1.499 . S
C6454 C6455 1.373 . S
C6454 C6456 1.389 . S
C6455 H6434 0.950 . S
C6455 C6454 1.373 . S
C6455 C6471 1.377 . S
C6456 C6454 1.389 . S
C6456 C6457 1.524 . S
C6456 C6470 1.377 . S
C6457 C6456 1.524 . S
C6457 C6458 1.397 . S
C6457 C6462 1.363 . S
C6458 H6435 0.950 . S
C6458 C6457 1.397 . S
C6458 C6459 1.334 . S
C6459 H6436 0.950 . S
C6459 C6458 1.334 . S
C6459 C6460 1.287 . S
C6460 C6459 1.287 . S
C6460 C6461 1.524 . S
C6460 H6479 0.913 . S
C6461 H6437 0.950 . S
C6461 C6460 1.524 . S
C6461 C6462 1.415 . S
C6462 H6438 0.950 . S
C6462 C6457 1.363 . S
C6462 C6461 1.415 . S
C6463 H6439 0.951 . S
C6463 C6464 1.366 . S
C6463 C6465 1.388 . S
C6464 C6463 1.366 . S
C6464 C6468 1.385 . S
C6465 H6440 0.951 . S
C6465 C6463 1.388 . S
C6465 C6466 1.366 . S
C6466 C6465 1.366 . S
C6466 C6467 1.414 . S
C6466 C6469 1.499 . S
C6467 H6441 0.950 . S
C6467 C6466 1.414 . S
C6467 C6468 1.374 . S
C6468 H6442 0.950 . S
C6468 C6464 1.385 . S
C6468 C6467 1.374 . S
C6469 C6466 1.499 . S
C6469 C6470 1.373 . S
C6469 C6471 1.389 . S
C6470 H6443 0.950 . S
C6470 C6456 1.377 . S
C6470 C6469 1.373 . S
C6471 C6455 1.377 . S
C6471 C6469 1.389 . S
C6471 C6472 1.524 . S
C6472 C6471 1.524 . S
C6472 C6473 1.397 . S
C6472 C6477 1.363 . S
C6473 H6444 0.950 . S
C6473 C6472 1.397 . S
C6473 C6474 1.334 . S
C6474 H6445 0.950 . S
C6474 C6473 1.334 . S
C6474 C6475 1.287 . S
C6475 C6474 1.287 . S
C6475 C6476 1.524 . S
C6475 H6478 0.999 . S
C6476 H6446 0.950 . S
C6476 C6475 1.524 . S
C6476 C6477 1.415 . S
C6477 H6447 0.950 . S
C6477 C6472 1.363 . S
C6477 C6476 1.415 . S
H6478 C6475 0.999 . S
H6479 C6460 0.913 . S
C1699 C105 1.646 . S
C1714 C392 1.520 . S
C1749 C65 2.237 . S
C1764 C483 2.165 . S
C1799 C73 1.451 . S
C1814 C560 1.373 . S
C1864 C658 1.582 . S
C1849 C92 1.711 . S
C1899 C17 1.654 . S
C1914 C742 1.569 . S
C1964 C814 0.895 . S
C1949 C37 0.939 . S
C2014 C903 0.685 . S
C1999 C49 0.703 . S
C2049 C8 1.304 . S
C2064 C980 1.174 . S
C2114 C399 1.947 . S
C2099 C231 2.001 . S
C2149 C241 0.591 . S
C2164 C490 0.639 . S
C2214 C567 1.204 . S
C2199 C273 1.200 . S
C2264 C644 1.467 . S
C2249 C171 1.563 1_556 S
C2299 C227 2.030 . S
C2314 C728 1.872 . S
C2364 C830 1.073 . S
C2349 C245 1.121 . S
C2414 C910 0.745 . S
C2399 C269 0.742 . S
C2464 C987 1.336 . S
C2449 C175 1.420 . S
C2514 C406 1.434 . S
C2499 C162 1.539 . S
C2549 C289 2.052 . S
C2564 C1071 1.969 . S
C2614 C1159 2.151 . S
C2599 C330 2.318 . S
C2664 C1232 0.507 . S
C2649 C317 0.347 . S
C2699 C120 0.675 . S
C2714 C994 0.683 . S
C2749 C134 1.466 . S
C2764 C574 1.405 . S
C2799 C331 2.320 . S
C2814 C1323 2.237 . S
C2864 C1400 0.658 . S
C2849 C303 0.615 . S
C2914 C403 1.556 1_565 S
C2899 C59 1.663 . S
C2964 C1418 2.209 . S
C2949 C107 2.267 . S
C2999 C91 1.513 . S
C3014 C571 1.439 . S
C3049 C78 1.750 . S
C3064 C1318 1.618 . S
C3114 C730 1.592 . S
C3099 C7 1.617 . S
C3149 C51 0.980 . S
C3164 C1162 0.925 . S
C3214 C914 0.745 1_566 S
C3199 C31 0.754 . S
C3264 C1495 1.207 . S
C3249 C22 1.321 . S
C3314 C410 1.993 . S
C3299 C143 2.090 . S
C3364 C1402 0.672 . S
C3349 C315 0.647 . S
C3399 C115 1.282 . S
C3414 C578 1.232 . S
C3449 C287 1.596 . S
C3464 C1327 1.517 . S
C3499 C147 1.982 . S
C3514 C739 1.921 . S
C3564 C1155 1.103 . S
C3549 C311 1.184 . S
C3599 C119 0.784 . S
C3614 C898 0.777 . S
C3649 C283 1.484 . S
C3664 C1502 1.392 . S
C3699 C190 1.557 . S
C3714 C394 1.446 . S
C3749 C177 2.088 . S
C3764 C1082 2.015 . S
C3799 C260 2.355 . S
C3814 C812 2.192 . S
C3849 C247 0.411 . S
C3864 C1243 0.523 . S
C3914 C1486 0.681 . S
C3899 C274 0.721 . S
C3949 C218 1.477 . S
C3964 C562 1.419 . S
C4014 C662 2.282 . S
C3999 C261 2.363 . S
C4064 C487 0.690 . S
C4049 C205 0.668 . S
C4099 C77 1.646 . S
C4114 C1568 1.520 . S
C4164 C1407 2.165 . S
C4149 C93 2.237 . S
C4199 C101 1.451 . S
C4214 C1652 1.373 . S
C4249 C64 1.712 . S
C4264 C1330 1.582 . S
C4299 C45 1.654 . S
C4314 C1078 1.569 . S
C4364 C1150 0.897 . S
C4349 C9 0.940 . S
C4414 C1239 0.686 . S
C4399 C21 0.703 . S
C4464 C1484 1.172 . S
C4449 C36 1.303 . S
C4514 C1575 1.947 . S
C4499 C259 2.001 . S
C4549 C185 0.591 . S
C4564 C1414 0.642 . S
C4614 C1659 1.205 . S
C4599 C203 1.199 . S
C4664 C1316 1.467 . S
C4649 C213 1.563 . S
C4714 C1064 1.872 . S
C4699 C255 2.030 . S
C4749 C189 1.121 . S
C4764 C1166 1.073 . S
C4814 C1246 0.743 . S
C4799 C199 0.742 . S
C4849 C217 1.419 . S
C4864 C1491 1.337 . S
C4914 C1582 1.434 . S
C4899 C316 1.539 . S
C4949 C135 2.052 . S
C4964 C735 1.972 . S
C5014 C823 2.152 . S
C4999 C148 2.325 . S
C5064 C896 0.508 . S
C5049 C163 0.345 . S
C5114 C1498 0.681 . S
C5099 C302 0.676 . S
C5149 C288 1.459 1_554 S
C5164 C1666 1.402 . S
C5214 C651 2.235 . S
C5199 C149 2.313 . S
C5264 C476 0.661 . S
C5249 C121 0.615 . S
C5299 C87 1.663 . S
C5314 C1579 1.556 . S
C5364 C494 2.209 . S
C5349 C79 2.266 . S
C5399 C63 1.513 . S
C5414 C1663 1.438 . S
C5449 C106 1.751 . S
C5464 C646 1.618 . S
C5499 C35 1.616 . S
C5514 C1066 1.593 . S
C5564 C826 0.926 . S
C5549 C23 0.977 . S
C5599 C3 0.753 . S
C5614 C1250 0.754 . S
C5649 C50 1.318 . S
C5664 C991 1.207 . S
C5714 C1586 1.993 . S
C5699 C325 2.090 . S
C5749 C161 0.647 . S
C5764 C478 0.672 . S
C5814 C1670 1.234 . S
C5799 C297 1.282 . S
C5849 C133 1.598 . S
C5864 C655 1.526 . S
C5899 C329 1.981 . S
C5914 C1075 1.922 . S
C5964 C819 1.104 . S
C5949 C157 1.184 . S
C5999 C301 0.784 . S
C6014 C1234 0.788 . S
C6064 C998 1.386 . S
C6049 C129 1.483 . S
C6114 C1570 1.446 . S
C6099 C246 1.557 . S
C6164 C746 2.015 1_655 S
C6149 C219 2.088 . S
C6199 C232 2.355 . S
C6214 C1148 2.192 . S
C6264 C907 0.523 . S
C6249 C191 0.413 . S
C6299 C204 0.675 . S
C6314 C982 0.679 . S
C6349 C176 1.477 . S
C6364 C1654 1.420 . S
C6414 C1334 2.283 . S
C6399 C233 2.362 . S
C6464 C1411 0.691 . S
C6449 C275 0.668 . S
