# Generated by pormake.
# Topology gar, (4,6)-cn, num edge types: 1
# Building blocks:
#     Node 0, Type 0, BuildingBlock: GALJAG_clean_sbu_0, # of connection points: 4
#     Node 1, Type 0, BuildingBlock: GALJAG_clean_sbu_0, # of connection points: 4
#     Node 2, Type 0, BuildingBlock: GALJAG_clean_sbu_0, # of connection points: 4
#     Node 3, Type 0, BuildingBlock: GALJAG_clean_sbu_0, # of connection points: 4
#     Node 4, Type 0, BuildingBlock: GALJAG_clean_sbu_0, # of connection points: 4
#     Node 5, Type 0, BuildingBlock: GALJAG_clean_sbu_0, # of connection points: 4
#     Node 6, Type 0, BuildingBlock: GALJAG_clean_sbu_0, # of connection points: 4
#     Node 7, Type 0, BuildingBlock: GALJAG_clean_sbu_0, # of connection points: 4
#     Node 8, Type 0, BuildingBlock: GALJAG_clean_sbu_0, # of connection points: 4
#     Node 9, Type 0, BuildingBlock: GALJAG_clean_sbu_0, # of connection points: 4
#     Node 10, Type 0, BuildingBlock: GALJAG_clean_sbu_0, # of connection points: 4
#     Node 11, Type 0, BuildingBlock: GALJAG_clean_sbu_0, # of connection points: 4
#     Node 12, Type 0, BuildingBlock: GALJAG_clean_sbu_0, # of connection points: 4
#     Node 13, Type 0, BuildingBlock: GALJAG_clean_sbu_0, # of connection points: 4
#     Node 14, Type 0, BuildingBlock: GALJAG_clean_sbu_0, # of connection points: 4
#     Node 15, Type 0, BuildingBlock: GALJAG_clean_sbu_0, # of connection points: 4
#     Node 16, Type 0, BuildingBlock: GALJAG_clean_sbu_0, # of connection points: 4
#     Node 17, Type 0, BuildingBlock: GALJAG_clean_sbu_0, # of connection points: 4
#     Node 18, Type 0, BuildingBlock: GALJAG_clean_sbu_0, # of connection points: 4
#     Node 19, Type 0, BuildingBlock: GALJAG_clean_sbu_0, # of connection points: 4
#     Node 20, Type 0, BuildingBlock: GALJAG_clean_sbu_0, # of connection points: 4
#     Node 21, Type 0, BuildingBlock: GALJAG_clean_sbu_0, # of connection points: 4
#     Node 22, Type 0, BuildingBlock: GALJAG_clean_sbu_0, # of connection points: 4
#     Node 23, Type 0, BuildingBlock: GALJAG_clean_sbu_0, # of connection points: 4
#     Node 24, Type 1, BuildingBlock: GEDQOX_clean_sbu_0, # of connection points: 6
#     Node 25, Type 1, BuildingBlock: GEDQOX_clean_sbu_0, # of connection points: 6
#     Node 26, Type 1, BuildingBlock: GEDQOX_clean_sbu_0, # of connection points: 6
#     Node 27, Type 1, BuildingBlock: GEDQOX_clean_sbu_0, # of connection points: 6
#     Node 28, Type 1, BuildingBlock: GEDQOX_clean_sbu_0, # of connection points: 6
#     Node 29, Type 1, BuildingBlock: GEDQOX_clean_sbu_0, # of connection points: 6
#     Node 30, Type 1, BuildingBlock: GEDQOX_clean_sbu_0, # of connection points: 6
#     Node 31, Type 1, BuildingBlock: GEDQOX_clean_sbu_0, # of connection points: 6
#     Node 32, Type 1, BuildingBlock: GEDQOX_clean_sbu_0, # of connection points: 6
#     Node 33, Type 1, BuildingBlock: GEDQOX_clean_sbu_0, # of connection points: 6
#     Node 34, Type 1, BuildingBlock: GEDQOX_clean_sbu_0, # of connection points: 6
#     Node 35, Type 1, BuildingBlock: GEDQOX_clean_sbu_0, # of connection points: 6
#     Node 36, Type 1, BuildingBlock: GEDQOX_clean_sbu_0, # of connection points: 6
#     Node 37, Type 1, BuildingBlock: GEDQOX_clean_sbu_0, # of connection points: 6
#     Node 38, Type 1, BuildingBlock: GEDQOX_clean_sbu_0, # of connection points: 6
#     Node 39, Type 1, BuildingBlock: GEDQOX_clean_sbu_0, # of connection points: 6
#     Edge 40, Type (0, 1), BuildingBlock: AJUNOK_clean_linker_0, # of connection points: 2
#     Edge 41, Type (0, 1), BuildingBlock: AJUNOK_clean_linker_0, # of connection points: 2
#     Edge 42, Type (0, 1), BuildingBlock: AJUNOK_clean_linker_0, # of connection points: 2
#     Edge 43, Type (0, 1), BuildingBlock: AJUNOK_clean_linker_0, # of connection points: 2
#     Edge 44, Type (0, 1), BuildingBlock: AJUNOK_clean_linker_0, # of connection points: 2
#     Edge 45, Type (0, 1), BuildingBlock: AJUNOK_clean_linker_0, # of connection points: 2
#     Edge 46, Type (0, 1), BuildingBlock: AJUNOK_clean_linker_0, # of connection points: 2
#     Edge 47, Type (0, 1), BuildingBlock: AJUNOK_clean_linker_0, # of connection points: 2
#     Edge 48, Type (0, 1), BuildingBlock: AJUNOK_clean_linker_0, # of connection points: 2
#     Edge 49, Type (0, 1), BuildingBlock: AJUNOK_clean_linker_0, # of connection points: 2
#     Edge 50, Type (0, 1), BuildingBlock: AJUNOK_clean_linker_0, # of connection points: 2
#     Edge 51, Type (0, 1), BuildingBlock: AJUNOK_clean_linker_0, # of connection points: 2
#     Edge 52, Type (0, 1), BuildingBlock: AJUNOK_clean_linker_0, # of connection points: 2
#     Edge 53, Type (0, 1), BuildingBlock: AJUNOK_clean_linker_0, # of connection points: 2
#     Edge 54, Type (0, 1), BuildingBlock: AJUNOK_clean_linker_0, # of connection points: 2
#     Edge 55, Type (0, 1), BuildingBlock: AJUNOK_clean_linker_0, # of connection points: 2
#     Edge 56, Type (0, 1), BuildingBlock: AJUNOK_clean_linker_0, # of connection points: 2
#     Edge 57, Type (0, 1), BuildingBlock: AJUNOK_clean_linker_0, # of connection points: 2
#     Edge 58, Type (0, 1), BuildingBlock: AJUNOK_clean_linker_0, # of connection points: 2
#     Edge 59, Type (0, 1), BuildingBlock: AJUNOK_clean_linker_0, # of connection points: 2
#     Edge 60, Type (0, 1), BuildingBlock: AJUNOK_clean_linker_0, # of connection points: 2
#     Edge 61, Type (0, 1), BuildingBlock: AJUNOK_clean_linker_0, # of connection points: 2
#     Edge 62, Type (0, 1), BuildingBlock: AJUNOK_clean_linker_0, # of connection points: 2
#     Edge 63, Type (0, 1), BuildingBlock: AJUNOK_clean_linker_0, # of connection points: 2
#     Edge 64, Type (0, 1), BuildingBlock: AJUNOK_clean_linker_0, # of connection points: 2
#     Edge 65, Type (0, 1), BuildingBlock: AJUNOK_clean_linker_0, # of connection points: 2
#     Edge 66, Type (0, 1), BuildingBlock: AJUNOK_clean_linker_0, # of connection points: 2
#     Edge 67, Type (0, 1), BuildingBlock: AJUNOK_clean_linker_0, # of connection points: 2
#     Edge 68, Type (0, 1), BuildingBlock: AJUNOK_clean_linker_0, # of connection points: 2
#     Edge 69, Type (0, 1), BuildingBlock: AJUNOK_clean_linker_0, # of connection points: 2
#     Edge 70, Type (0, 1), BuildingBlock: AJUNOK_clean_linker_0, # of connection points: 2
#     Edge 71, Type (0, 1), BuildingBlock: AJUNOK_clean_linker_0, # of connection points: 2
#     Edge 72, Type (0, 1), BuildingBlock: AJUNOK_clean_linker_0, # of connection points: 2
#     Edge 73, Type (0, 1), BuildingBlock: AJUNOK_clean_linker_0, # of connection points: 2
#     Edge 74, Type (0, 1), BuildingBlock: AJUNOK_clean_linker_0, # of connection points: 2
#     Edge 75, Type (0, 1), BuildingBlock: AJUNOK_clean_linker_0, # of connection points: 2
#     Edge 76, Type (0, 1), BuildingBlock: AJUNOK_clean_linker_0, # of connection points: 2
#     Edge 77, Type (0, 1), BuildingBlock: AJUNOK_clean_linker_0, # of connection points: 2
#     Edge 78, Type (0, 1), BuildingBlock: AJUNOK_clean_linker_0, # of connection points: 2
#     Edge 79, Type (0, 1), BuildingBlock: AJUNOK_clean_linker_0, # of connection points: 2
#     Edge 80, Type (0, 1), BuildingBlock: AJUNOK_clean_linker_0, # of connection points: 2
#     Edge 81, Type (0, 1), BuildingBlock: AJUNOK_clean_linker_0, # of connection points: 2
#     Edge 82, Type (0, 1), BuildingBlock: AJUNOK_clean_linker_0, # of connection points: 2
#     Edge 83, Type (0, 1), BuildingBlock: AJUNOK_clean_linker_0, # of connection points: 2
#     Edge 84, Type (0, 1), BuildingBlock: AJUNOK_clean_linker_0, # of connection points: 2
#     Edge 85, Type (0, 1), BuildingBlock: AJUNOK_clean_linker_0, # of connection points: 2
#     Edge 86, Type (0, 1), BuildingBlock: AJUNOK_clean_linker_0, # of connection points: 2
#     Edge 87, Type (0, 1), BuildingBlock: AJUNOK_clean_linker_0, # of connection points: 2
#     Edge 88, Type (0, 1), BuildingBlock: AJUNOK_clean_linker_0, # of connection points: 2
#     Edge 89, Type (0, 1), BuildingBlock: AJUNOK_clean_linker_0, # of connection points: 2
#     Edge 90, Type (0, 1), BuildingBlock: AJUNOK_clean_linker_0, # of connection points: 2
#     Edge 91, Type (0, 1), BuildingBlock: AJUNOK_clean_linker_0, # of connection points: 2
#     Edge 92, Type (0, 1), BuildingBlock: AJUNOK_clean_linker_0, # of connection points: 2
#     Edge 93, Type (0, 1), BuildingBlock: AJUNOK_clean_linker_0, # of connection points: 2
#     Edge 94, Type (0, 1), BuildingBlock: AJUNOK_clean_linker_0, # of connection points: 2
#     Edge 95, Type (0, 1), BuildingBlock: AJUNOK_clean_linker_0, # of connection points: 2
#     Edge 96, Type (0, 1), BuildingBlock: AJUNOK_clean_linker_0, # of connection points: 2
#     Edge 97, Type (0, 1), BuildingBlock: AJUNOK_clean_linker_0, # of connection points: 2
#     Edge 98, Type (0, 1), BuildingBlock: AJUNOK_clean_linker_0, # of connection points: 2
#     Edge 99, Type (0, 1), BuildingBlock: AJUNOK_clean_linker_0, # of connection points: 2
#     Edge 100, Type (0, 1), BuildingBlock: AJUNOK_clean_linker_0, # of connection points: 2
#     Edge 101, Type (0, 1), BuildingBlock: AJUNOK_clean_linker_0, # of connection points: 2
#     Edge 102, Type (0, 1), BuildingBlock: AJUNOK_clean_linker_0, # of connection points: 2
#     Edge 103, Type (0, 1), BuildingBlock: AJUNOK_clean_linker_0, # of connection points: 2
#     Edge 104, Type (0, 1), BuildingBlock: AJUNOK_clean_linker_0, # of connection points: 2
#     Edge 105, Type (0, 1), BuildingBlock: AJUNOK_clean_linker_0, # of connection points: 2
#     Edge 106, Type (0, 1), BuildingBlock: AJUNOK_clean_linker_0, # of connection points: 2
#     Edge 107, Type (0, 1), BuildingBlock: AJUNOK_clean_linker_0, # of connection points: 2
#     Edge 108, Type (0, 1), BuildingBlock: AJUNOK_clean_linker_0, # of connection points: 2
#     Edge 109, Type (0, 1), BuildingBlock: AJUNOK_clean_linker_0, # of connection points: 2
#     Edge 110, Type (0, 1), BuildingBlock: AJUNOK_clean_linker_0, # of connection points: 2
#     Edge 111, Type (0, 1), BuildingBlock: AJUNOK_clean_linker_0, # of connection points: 2
#     Edge 112, Type (0, 1), BuildingBlock: AJUNOK_clean_linker_0, # of connection points: 2
#     Edge 113, Type (0, 1), BuildingBlock: AJUNOK_clean_linker_0, # of connection points: 2
#     Edge 114, Type (0, 1), BuildingBlock: AJUNOK_clean_linker_0, # of connection points: 2
#     Edge 115, Type (0, 1), BuildingBlock: AJUNOK_clean_linker_0, # of connection points: 2
#     Edge 116, Type (0, 1), BuildingBlock: AJUNOK_clean_linker_0, # of connection points: 2
#     Edge 117, Type (0, 1), BuildingBlock: AJUNOK_clean_linker_0, # of connection points: 2
#     Edge 118, Type (0, 1), BuildingBlock: AJUNOK_clean_linker_0, # of connection points: 2
#     Edge 119, Type (0, 1), BuildingBlock: AJUNOK_clean_linker_0, # of connection points: 2
#     Edge 120, Type (0, 1), BuildingBlock: AJUNOK_clean_linker_0, # of connection points: 2
#     Edge 121, Type (0, 1), BuildingBlock: AJUNOK_clean_linker_0, # of connection points: 2
#     Edge 122, Type (0, 1), BuildingBlock: AJUNOK_clean_linker_0, # of connection points: 2
#     Edge 123, Type (0, 1), BuildingBlock: AJUNOK_clean_linker_0, # of connection points: 2
#     Edge 124, Type (0, 1), BuildingBlock: AJUNOK_clean_linker_0, # of connection points: 2
#     Edge 125, Type (0, 1), BuildingBlock: AJUNOK_clean_linker_0, # of connection points: 2
#     Edge 126, Type (0, 1), BuildingBlock: AJUNOK_clean_linker_0, # of connection points: 2
#     Edge 127, Type (0, 1), BuildingBlock: AJUNOK_clean_linker_0, # of connection points: 2
#     Edge 128, Type (0, 1), BuildingBlock: AJUNOK_clean_linker_0, # of connection points: 2
#     Edge 129, Type (0, 1), BuildingBlock: AJUNOK_clean_linker_0, # of connection points: 2
#     Edge 130, Type (0, 1), BuildingBlock: AJUNOK_clean_linker_0, # of connection points: 2
#     Edge 131, Type (0, 1), BuildingBlock: AJUNOK_clean_linker_0, # of connection points: 2
#     Edge 132, Type (0, 1), BuildingBlock: AJUNOK_clean_linker_0, # of connection points: 2
#     Edge 133, Type (0, 1), BuildingBlock: AJUNOK_clean_linker_0, # of connection points: 2
#     Edge 134, Type (0, 1), BuildingBlock: AJUNOK_clean_linker_0, # of connection points: 2
#     Edge 135, Type (0, 1), BuildingBlock: AJUNOK_clean_linker_0, # of connection points: 2
# Relax obj value: 0.364
# Max RMSD: 0.506
# Mean RMSD: 0.201
data_MOF--net-gar--node1-GALJAG_clean_sbu_0--node2-GEDQOX_clean_sbu_0--edge1-AJUNOK_clean_linker_0
_symmetry_space_group_name_H-M    P1
_symmetry_Int_Tables_number       1
_symmetry_cell_setting            triclinic
loop_
_symmetry_equiv_pos_as_xyz
'x, y, z'
_cell_length_a     46.269199
_cell_length_b     44.7194
_cell_length_c     39.301321
_cell_angle_alpha  99.317226
_cell_angle_beta   97.238355
_cell_angle_gamma 97.623937
loop_
_atom_site_label
_atom_site_type_symbol
_atom_site_fract_x
_atom_site_fract_y
_atom_site_fract_z
_atom_type_partial_charge
In0 In 0.16636 0.40868 0.51256 0.0
O1 O 0.17323 0.407 0.45632 0.0
O2 O 0.19857 0.38122 0.48563 0.0
C3 C 0.11202 0.40956 0.48036 0.0
C4 C 0.15499 0.36786 0.55371 0.0
C5 C 0.1866 0.46316 0.55607 0.0
O6 O 0.1214 0.38511 0.48491 0.0
O7 O 0.12989 0.43382 0.49287 0.0
O8 O 0.1789 0.43868 0.56655 0.0
O9 O 0.18875 0.45898 0.52403 0.0
C10 C 0.19065 0.38773 0.45604 0.0
O11 O 0.17875 0.37011 0.54067 0.0
O12 O 0.13753 0.38586 0.54561 0.0
In13 In 1.01358 0.78874 0.67515 0.0
O14 O 0.04713 0.82468 0.6634 0.0
O15 O 1.00306 0.82147 0.63748 0.0
C16 C 1.01396 0.74085 0.62378 0.0
C17 C 0.05466 0.79087 0.73017 0.0
C18 C 0.97327 0.79742 0.71759 0.0
O19 O 1.03573 0.76118 0.63643 0.0
O20 O 0.99076 0.7442 0.63714 0.0
O21 O 0.9848 0.77331 0.71364 0.0
O22 O 0.97803 0.81441 0.69547 0.0
C23 C 1.02981 0.83403 0.64154 0.0
O24 O 0.04581 0.8145 0.72178 0.0
O25 O 0.04351 0.76601 0.70992 0.0
In26 In 0.65926 0.90911 0.99124 0.0
O27 O 0.68247 0.92436 0.9482 0.0
O28 O 0.69769 0.88834 0.97075 0.0
C29 C 0.61376 0.89538 0.93905 0.0
C30 C 0.65448 0.86716 0.03159 0.0
C31 C 0.65283 0.96046 0.03539 0.0
O32 O 0.6224 0.92205 0.95617 0.0
O33 O 0.62709 0.87506 0.94954 0.0
O34 O 0.64061 0.93397 0.03651 0.0
O35 O 0.67079 0.96106 0.01368 0.0
C36 C 0.6975 0.90285 0.94566 0.0
O37 O 0.67939 0.88314 0.03167 0.0
O38 O 0.63324 0.87214 1.01083 0.0
In39 In 0.51711 0.27924 0.1859 0.0
O40 O 0.51395 0.25654 0.12923 0.0
O41 O 0.4956 0.22994 0.1631 0.0
C42 C 0.53079 0.3308 0.16151 0.0
C43 C 0.49271 0.30164 0.24123 0.0
C44 C 0.56182 0.25536 0.21427 0.0
O45 O 0.50482 0.31592 0.15498 0.0
O46 O 0.5492 0.31954 0.18018 0.0
O47 O 0.53628 0.24992 0.22206 0.0
O48 O 0.56473 0.27298 0.19243 0.0
C49 C 0.50503 0.23002 0.13425 0.0
O50 O 0.51997 0.30245 0.24137 0.0
O51 O 0.47675 0.28916 0.21237 0.0
In52 In 0.08034 0.82737 0.27449 0.0
O53 O 0.08325 0.79717 0.22244 0.0
O54 O 0.074 0.77373 0.2634 0.0
C55 C 0.07174 0.8688 0.23149 0.0
C56 C 1.02383 0.82861 0.29958 0.0
C57 C 0.1425 0.83699 0.30477 0.0
O58 O 0.07211 0.84074 0.22088 0.0
O59 O 0.07699 0.87672 0.26441 0.0
O60 O 0.12287 0.81713 0.31182 0.0
O61 O 0.13054 0.85345 0.28557 0.0
C62 C 0.078 0.77158 0.23181 0.0
O63 O 0.04832 0.84166 0.31794 0.0
O64 O 1.02839 0.81397 0.27104 0.0
In65 In 0.59252 0.87301 0.41121 0.0
O66 O 0.62474 0.86151 0.36719 0.0
O67 O 0.64491 0.88362 0.41677 0.0
C68 C 0.53058 0.86479 0.38089 0.0
C69 C 0.5993 0.83012 0.45259 0.0
C70 C 0.59327 0.92813 0.45427 0.0
O71 O 0.55056 0.88448 0.37418 0.0
O72 O 0.5421 0.84775 0.39969 0.0
O73 O 0.5885 0.90231 0.46316 0.0
O74 O 0.59795 0.9266 0.423 0.0
C75 C 0.64933 0.87184 0.38689 0.0
O76 O 0.60346 0.85864 0.46379 0.0
O77 O 0.59071 0.82258 0.41999 0.0
In78 In 0.57927 0.32815 0.77277 0.0
O79 O 0.58196 0.29787 0.72065 0.0
O80 O 0.57322 0.27456 0.76185 0.0
C81 C 0.57284 0.37009 0.7298 0.0
C82 C 0.52212 0.32895 0.79639 0.0
C83 C 0.64086 0.33673 0.80481 0.0
O84 O 0.57408 0.34219 0.71936 0.0
O85 O 0.57579 0.37762 0.76271 0.0
O86 O 0.62049 0.31756 0.81162 0.0
O87 O 0.62991 0.35323 0.78492 0.0
C88 C 0.57708 0.27234 0.73022 0.0
O89 O 0.52722 0.31379 0.76841 0.0
O90 O 0.5463 0.34288 0.81477 0.0
In91 In 0.09072 0.37247 0.91046 0.0
O92 O 0.09602 0.35879 0.96396 0.0
O93 O 0.09334 0.32292 0.9207 0.0
C94 C 0.09269 0.4287 0.95207 0.0
C95 C 0.14792 0.37098 0.88688 0.0
C96 C 1.02875 0.36329 0.87986 0.0
O97 O 0.08771 0.40337 0.96203 0.0
O98 O 0.09702 0.42608 0.9206 0.0
O99 O 0.0484 0.38363 0.87377 0.0
O100 O 0.04066 0.34594 0.89789 0.0
C101 C 0.09672 0.33072 0.95364 0.0
O102 O 0.12345 0.36159 0.86661 0.0
O103 O 0.14317 0.38188 0.91694 0.0
In104 In 0.4849 0.16671 0.33629 0.0
O105 O 0.5248 0.1682 0.30423 0.0
O106 O 0.48357 0.14275 0.2801 0.0
C107 C 0.51238 0.15977 0.40096 0.0
C108 C 0.45895 0.21877 0.33256 0.0
C109 C 0.4437 0.11771 0.3346 0.0
O110 O 0.52717 0.16879 0.3784 0.0
O111 O 0.48498 0.15688 0.39174 0.0
O112 O 0.43813 0.14481 0.33974 0.0
O113 O 0.4697 0.11553 0.32916 0.0
C114 C 0.51004 0.15099 0.27703 0.0
O115 O 0.45342 0.19503 0.30937 0.0
O116 O 0.47924 0.21741 0.3568 0.0
In117 In 0.29327 0.17236 0.49922 0.0
O118 O 0.33595 0.20515 0.51993 0.0
O119 O 0.31846 0.17742 0.55378 0.0
C120 C 0.28644 0.21602 0.46043 0.0
C121 C 0.31907 0.12302 0.47875 0.0
C122 C 0.24057 0.16297 0.52231 0.0
O123 O 0.29345 0.22161 0.49308 0.0
O124 O 0.28127 0.18774 0.44691 0.0
O125 O 0.24425 0.15037 0.49227 0.0
O126 O 0.26311 0.18019 0.53974 0.0
C127 C 0.33855 0.19794 0.5497 0.0
O128 O 0.30044 0.12304 0.49951 0.0
O129 O 0.32199 0.14672 0.46517 0.0
In130 In 0.22677 0.09344 0.85948 0.0
O131 O 0.18163 0.09386 0.82425 0.0
O132 O 0.21675 0.08455 0.79749 0.0
C133 C 0.19073 0.09486 0.91709 0.0
C134 C 0.25587 0.03622 0.85438 0.0
C135 C 0.25714 0.15641 0.85584 0.0
O136 O 0.18706 0.07435 0.89003 0.0
O137 O 0.21307 0.11444 0.91625 0.0
O138 O 0.26857 0.13801 0.87336 0.0
O139 O 0.23172 0.14322 0.84106 0.0
C140 C 0.19004 0.08861 0.79476 0.0
O141 O 0.26824 0.06315 0.86966 0.0
O142 O 0.2297 0.03817 0.84185 0.0
In143 In 0.27244 0.9551 0.09767 0.0
O144 O 0.26833 0.91613 0.13139 0.0
O145 O 0.29964 0.95591 0.15078 0.0
C146 C 0.28715 0.91844 0.04007 0.0
C147 C 0.22477 0.986 0.10742 0.0
C148 C 0.30851 1.00235 0.08476 0.0
O149 O 0.26059 0.92192 0.04233 0.0
O150 O 0.30468 0.9311 0.06729 0.0
O151 O 0.2867 0.98825 0.06285 0.0
O152 O 0.31147 0.99314 0.11356 0.0
C153 C 0.28867 0.92996 0.15568 0.0
O154 O 0.25122 0.99684 0.11944 0.0
O155 O 0.22161 0.95853 0.09108 0.0
In156 In 0.38374 0.50965 0.1862 0.0
O157 O 0.40633 0.49073 0.23089 0.0
O158 O 0.36453 0.50411 0.2354 0.0
C159 C 0.37021 0.45086 0.15374 0.0
C160 C 0.34162 0.54227 0.16741 0.0
C161 C 0.43088 0.53926 0.16494 0.0
O162 O 0.39617 0.46533 0.15954 0.0
O163 O 0.35094 0.46654 0.1631 0.0
O164 O 0.41033 0.52111 0.1448 0.0
O165 O 0.42775 0.54315 0.19684 0.0
C166 C 0.38432 0.48986 0.24685 0.0
O167 O 0.35994 0.55163 0.19515 0.0
O168 O 0.34507 0.51715 0.14985 0.0
In169 In 0.90016 0.24976 0.09039 0.0
O170 O 0.91894 0.20546 0.07293 0.0
O171 O 0.95072 0.24474 0.09166 0.0
C172 C 0.8576 0.20621 0.09951 0.0
C173 C 0.89155 0.28987 0.14927 0.0
C174 C 0.88632 0.27496 0.03192 0.0
O175 O 0.85787 0.21629 0.07136 0.0
O176 O 0.87906 0.21791 0.12305 0.0
O177 O 0.9067 0.28811 0.05656 0.0
O178 O 0.87409 0.24936 0.03654 0.0
C179 C 0.94595 0.21614 0.07947 0.0
O180 O 0.87607 0.28596 0.11964 0.0
O181 O 0.91314 0.27514 0.14912 0.0
In182 In 0.18152 0.53185 0.3358 0.0
O183 O 0.18844 0.48067 0.32043 0.0
O184 O 0.2137 0.50678 0.36651 0.0
C185 C 0.22968 0.57121 0.33064 0.0
C186 C 0.14772 0.54417 0.27757 0.0
C187 C 0.15348 0.54695 0.39248 0.0
O188 O 0.21896 0.54852 0.30684 0.0
O189 O 0.21657 0.57326 0.35689 0.0
O190 O 0.14235 0.52445 0.36828 0.0
O191 O 0.17741 0.56098 0.38723 0.0
C192 C 0.20831 0.48139 0.34598 0.0
O193 O 0.15195 0.51718 0.2804 0.0
O194 O 0.1587 0.56369 0.3045 0.0
In195 In 0.87551 1.0125 0.67325 0.0
O196 O 0.88989 0.96865 0.68538 0.0
O197 O 0.88264 1.00113 0.72818 0.0
C198 C 0.83208 0.97286 0.63059 0.0
C199 C 0.84505 0.06007 0.68061 0.0
C200 C 0.92851 0.03039 0.65454 0.0
O201 O 0.83472 0.97578 0.66322 0.0
O202 O 0.85107 0.99023 0.61946 0.0
O203 O 0.92233 0.04055 0.68431 0.0
O204 O 0.90822 1.01125 0.63509 0.0
C205 C 0.88829 0.9745 0.7175 0.0
O206 O 0.85988 0.05448 0.65626 0.0
O207 O 0.8474 0.04304 0.70317 0.0
In208 In 0.9439 0.11087 0.32511 0.0
O209 O 0.98425 0.12953 0.29533 0.0
O210 O 0.95685 0.09084 0.2676 0.0
C211 C 0.98013 0.11509 0.38982 0.0
C212 C 0.91551 0.16856 0.33057 0.0
C213 C 0.91405 0.04779 0.32894 0.0
O214 O 0.98901 0.11122 0.3605 0.0
O215 O 0.9532 0.11827 0.38697 0.0
O216 O 0.90117 0.06749 0.31516 0.0
O217 O 0.94069 0.05963 0.33961 0.0
C218 C 0.97989 0.10977 0.26753 0.0
O219 O 0.90356 0.14226 0.31294 0.0
O220 O 0.94075 0.16563 0.34526 0.0
In221 In 0.40575 0.75528 0.58919 0.0
O222 O 0.42216 0.7095 0.5741 0.0
O223 O 0.45559 0.74786 0.58999 0.0
C224 C 0.35254 0.72226 0.58306 0.0
C225 C 0.39982 0.78598 0.65534 0.0
C226 C 0.39523 0.77994 0.52995 0.0
O227 O 0.37544 0.71364 0.59664 0.0
O228 O 0.35669 0.74745 0.57268 0.0
O229 O 0.40998 0.79569 0.55807 0.0
O230 O 0.38797 0.75209 0.5315 0.0
C231 C 0.44938 0.71903 0.57934 0.0
O232 O 0.40429 0.79998 0.63052 0.0
O233 O 0.40176 0.75792 0.64782 0.0
In234 In 0.44262 0.61012 0.82292 0.0
O235 O 0.40191 0.64155 0.81461 0.0
O236 O 0.44116 0.66548 0.84191 0.0
C237 C 0.41237 0.54628 0.82181 0.0
C238 C 0.47912 0.60786 0.76589 0.0
C239 C 0.47544 0.61471 0.88997 0.0
O240 O 0.39894 0.5691 0.81865 0.0
O241 O 0.4397 0.55523 0.82316 0.0
O242 O 0.48464 0.62837 0.86671 0.0
O243 O 0.44953 0.60045 0.88035 0.0
C244 C 0.41498 0.66815 0.83005 0.0
O245 O 0.48759 0.60619 0.79729 0.0
O246 O 0.45184 0.61019 0.76218 0.0
In247 In 0.68398 0.03288 0.83566 0.0
O248 O 0.69156 0.98263 0.81584 0.0
O249 O 0.71368 1.00472 0.86536 0.0
C250 C 0.7323 0.07073 0.82849 0.0
C251 C 0.65037 0.04675 0.77865 0.0
C252 C 0.65557 0.04853 0.89194 0.0
O253 O 0.72056 0.07353 0.85583 0.0
O254 O 0.72003 0.0485 0.80497 0.0
O255 O 0.64267 0.02985 0.86483 0.0
O256 O 0.68211 0.05824 0.89055 0.0
C257 C 0.71001 0.98123 0.84194 0.0
O258 O 0.65096 1.01927 0.78287 0.0
O259 O 0.66493 0.06631 0.8038 0.0
In260 In 0.78529 0.67196 0.981 0.0
O261 O 0.79534 0.6231 0.97977 0.0
O262 O 0.82633 0.65514 0.96377 0.0
C263 C 0.73149 0.65668 0.99848 0.0
C264 C 0.8183 0.70195 0.04028 0.0
C265 C 0.7775 0.71307 0.93872 0.0
O266 O 0.73905 0.64163 0.97166 0.0
O267 O 0.75036 0.67906 0.01424 0.0
O268 O 0.77749 0.71844 0.97105 0.0
O269 O 0.77993 0.68564 0.92645 0.0
C270 C 0.82058 0.62883 0.97121 0.0
O271 O 0.79877 0.67917 0.03898 0.0
O272 O 0.82262 0.70858 1.01121 0.0
In273 In 0.98034 0.66068 0.83696 0.0
O274 O 0.97242 0.71095 0.85451 0.0
O275 O 0.95051 0.68756 0.8053 0.0
C276 C 0.93218 0.62229 0.84436 0.0
C277 C 1.0067 0.64363 0.77936 0.0
C278 C 1.01614 0.65006 0.89467 0.0
O279 O 0.94213 0.64656 0.86612 0.0
O280 O 0.94601 0.61823 0.81886 0.0
O281 O 1.0036 0.62977 0.86914 0.0
O282 O 1.01226 0.67687 0.89067 0.0
C283 C 0.95427 0.71168 0.82789 0.0
O284 O 1.01834 0.6665 0.80293 0.0
O285 O 0.98262 0.6304 0.78522 0.0
In286 In 0.76307 0.44603 0.59537 0.0
O287 O 0.75903 0.40704 0.62934 0.0
O288 O 0.78697 0.44895 0.65036 0.0
C289 C 0.77202 0.40809 0.53493 0.0
C290 C 0.71878 0.48152 0.60543 0.0
C291 C 0.80704 0.48961 0.5913 0.0
O292 O 0.7886 0.41263 0.56386 0.0
O293 O 0.74917 0.42074 0.53666 0.0
O294 O 0.80605 0.47641 0.61721 0.0
O295 O 0.78559 0.4806 0.56694 0.0
C296 C 0.77746 0.42245 0.65487 0.0
O297 O 0.74563 0.49158 0.60723 0.0
O298 O 0.71315 0.45239 0.59804 0.0
In299 In 0.7257 0.59371 0.35779 0.0
O300 O 0.76658 0.56221 0.36314 0.0
O301 O 0.72562 0.53727 0.3441 0.0
C302 C 0.75727 0.65704 0.35544 0.0
C303 C 0.6897 0.58624 0.2921 0.0
C304 C 0.68846 0.59535 0.41435 0.0
O305 O 0.73473 0.6418 0.33561 0.0
O306 O 0.76532 0.64054 0.37747 0.0
O307 O 0.68017 0.5962 0.38268 0.0
O308 O 0.71592 0.59399 0.41857 0.0
C309 C 0.75261 0.53505 0.35219 0.0
O310 O 0.6814 0.59456 0.32115 0.0
O311 O 0.71584 0.58027 0.29583 0.0
Nd312 Nd 0.10463 0.1263 0.1002 0.0
Nd313 Nd 0.06585 0.07702 0.08501 0.0
C314 C 0.13949 0.1799 0.11577 0.0
C315 C 0.13643 0.20578 0.09635 0.0
C316 C 0.11386 0.22369 0.10088 0.0
C317 C 0.10769 0.24431 0.07856 0.0
C318 C 0.12399 0.24784 0.05114 0.0
C319 C 0.147 0.23052 0.04709 0.0
C320 C 0.15321 0.20989 0.06945 0.0
C321 C 0.10833 0.10456 0.02929 0.0
C322 C 0.03929 0.13757 0.07119 0.0
C323 C 1.03152 1.02257 0.07272 0.0
C324 C 1.03587 0.998 0.09351 0.0
C325 C 0.06112 1.00204 0.11874 0.0
C326 C 0.06548 0.98057 0.14025 0.0
C327 C 0.0447 0.9541 0.13722 0.0
C328 C 1.01934 0.94964 0.11174 0.0
C329 C 1.01491 0.9715 0.09016 0.0
C330 C 0.06296 0.10067 0.15607 0.0
C331 C 0.1312 0.06488 0.11017 0.0
O332 O 0.11869 0.17255 0.13383 0.0
O333 O 0.14719 0.15558 0.09856 0.0
O334 O 0.10331 0.13155 0.04217 0.0
O335 O 0.10472 0.0877 0.0526 0.0
O336 O 0.06437 0.15025 0.09051 0.0
O337 O 1.03552 0.10769 0.05914 0.0
O338 O 0.0521 0.02947 0.05428 0.0
O339 O 1.02428 0.04725 0.0896 0.0
O340 O 0.06926 0.07403 0.14417 0.0
O341 O 0.0653 0.11633 0.13159 0.0
O342 O 0.10693 0.0539 0.08867 0.0
O343 O 0.1345 0.09413 0.12503 0.0
H344 H 0.10014 0.221 0.1209 0.0
H345 H 0.08946 0.2568 0.08213 0.0
H346 H 0.16011 0.23276 0.0264 0.0
H347 H 0.17058 0.19638 0.0649 0.0
H348 H 0.07774 1.02194 0.1221 0.0
H349 H 0.08538 0.98462 0.15918 0.0
H350 H 1.00271 0.92958 0.10894 0.0
H351 H 0.99508 0.96784 0.0712 0.0
Nd352 Nd 0.34274 0.88028 0.36106 0.0
Nd353 Nd 0.33064 0.82449 0.32436 0.0
C354 C 0.34537 0.93378 0.40293 0.0
C355 C 0.34887 0.96549 0.39696 0.0
C356 C 0.33693 0.97221 0.36488 0.0
C357 C 0.34718 0.99992 0.35519 0.0
C358 C 0.36964 1.02083 0.37727 0.0
C359 C 0.37964 1.01537 0.41056 0.0
C360 C 0.36919 0.98782 0.42042 0.0
C361 C 0.39771 0.86442 0.3459 0.0
C362 C 0.33048 0.87996 0.27961 0.0
C363 C 0.32588 0.76975 0.28432 0.0
C364 C 0.31543 0.73902 0.29091 0.0
C365 C 0.329 0.71388 0.27893 0.0
C366 C 0.31972 0.68501 0.28683 0.0
C367 C 0.29682 0.68108 0.30676 0.0
C368 C 0.28329 0.70628 0.31856 0.0
C369 C 0.29263 0.73499 0.31096 0.0
C370 C 0.27587 0.84039 0.3401 0.0
C371 C 0.34592 0.82584 0.40632 0.0
O372 O 0.32063 0.916 0.38908 0.0
O373 O 0.36817 0.92028 0.3984 0.0
O374 O 0.38785 0.88946 0.34059 0.0
O375 O 0.37685 0.84699 0.35502 0.0
O376 O 0.33103 0.89721 0.31002 0.0
O377 O 0.33462 0.85123 0.27844 0.0
O378 O 0.35046 0.78391 0.3033 0.0
O379 O 0.3061 0.78775 0.28192 0.0
O380 O 0.2861 0.81575 0.34613 0.0
O381 O 0.2965 0.85762 0.33029 0.0
O382 O 0.34374 0.80812 0.3758 0.0
O383 O 0.3413 0.8543 0.40737 0.0
H384 H 0.3214 0.9552 0.34624 0.0
H385 H 0.33938 1.0039 0.32941 0.0
H386 H 0.39717 0.03132 0.42775 0.0
H387 H 0.37881 0.98291 0.44512 0.0
H388 H 0.34687 0.71665 0.2638 0.0
H389 H 0.33058 0.66588 0.27781 0.0
H390 H 0.26522 0.70371 0.33345 0.0
H391 H 0.28199 0.75405 0.32083 0.0
Nd392 Nd 0.60963 0.11348 0.58765 0.0
Nd393 Nd 0.55655 0.08932 0.58889 0.0
C394 C 0.66496 0.13086 0.57899 0.0
C395 C 0.69358 0.12843 0.59874 0.0
C396 C 0.71626 0.11972 0.5807 0.0
C397 C 0.74225 0.11377 0.59879 0.0
C398 C 0.74603 0.11637 0.6353 0.0
C399 C 0.72373 0.12623 0.65348 0.0
C400 C 0.69767 0.13208 0.63535 0.0
C401 C 0.60887 0.09104 0.65037 0.0
C402 C 0.59036 0.0436 0.54904 0.0
C403 C 0.50081 0.0706 0.5941 0.0
C404 C 0.47348 0.0732 0.57178 0.0
C405 C 0.45088 0.04791 0.56118 0.0
C406 C 0.42558 0.04993 0.53849 0.0
C407 C 0.4225 0.0773 0.52604 0.0
C408 C 0.44534 0.10248 0.53667 0.0
C409 C 0.47066 0.10034 0.55889 0.0
C410 C 0.55711 0.11123 0.52579 0.0
C411 C 0.57657 0.1582 0.6312 0.0
O412 O 0.64917 0.10498 0.56293 0.0
O413 O 0.64911 0.14929 0.59441 0.0
O414 O 0.62105 0.11781 0.64719 0.0
O415 O 0.59609 0.07652 0.62081 0.0
O416 O 0.60322 0.07019 0.54392 0.0
O417 O 0.57385 0.04422 0.57376 0.0
O418 O 0.51608 0.09611 0.6122 0.0
O419 O 0.51745 0.05268 0.57948 0.0
O420 O 0.54606 0.08424 0.52946 0.0
O421 O 0.56997 0.12608 0.55527 0.0
O422 O 0.56261 0.13132 0.63398 0.0
O423 O 0.59357 0.15871 0.60694 0.0
H424 H 0.71346 0.11653 0.55249 0.0
H425 H 0.75894 0.10592 0.58404 0.0
H426 H 0.7262 0.12885 0.68163 0.0
H427 H 0.68046 0.13868 0.64992 0.0
H428 H 0.45286 0.02659 0.57035 0.0
H429 H 0.40835 0.03017 0.53087 0.0
H430 H 0.44338 0.12427 0.52866 0.0
H431 H 0.48797 0.12006 0.56614 0.0
Nd432 Nd 0.34501 0.35917 0.86859 0.0
Nd433 Nd 0.32519 0.34531 0.81301 0.0
C434 C 0.35726 0.36832 0.93728 0.0
C435 C 0.3451 0.3606 0.96815 0.0
C436 C 0.35622 0.33847 0.98553 0.0
C437 C 0.35194 0.33765 0.01993 0.0
C438 C 0.33745 0.3597 0.03752 0.0
C439 C 0.32231 0.37825 0.01816 0.0
C440 C 0.32623 0.3788 0.98378 0.0
C441 C 0.36274 0.41403 0.84114 0.0
C442 C 0.27294 0.36203 0.85398 0.0
C443 C 0.31907 0.338 0.7443 0.0
C444 C 0.33194 0.31821 0.71852 0.0
C445 C 0.35659 0.33024 0.70461 0.0
C446 C 0.3697 0.31118 0.68143 0.0
C447 C 0.35839 0.2798 0.6719 0.0
C448 C 0.33375 0.26791 0.6859 0.0
C449 C 0.32072 0.28684 0.70898 0.0
C450 C 0.30666 0.28955 0.83818 0.0
C451 C 0.3973 0.33975 0.8283 0.0
O452 O 0.36591 0.34638 0.91689 0.0
O453 O 0.34468 0.38707 0.9203 0.0
O454 O 0.3797 0.39856 0.85761 0.0
O455 O 0.3366 0.39814 0.83637 0.0
O456 O 0.29458 0.35805 0.87745 0.0
O457 O 0.28035 0.36213 0.82281 0.0
O458 O 0.33762 0.35984 0.7649 0.0
O459 O 0.30003 0.32447 0.76088 0.0
O460 O 0.29057 0.304 0.81905 0.0
O461 O 0.33261 0.30622 0.84574 0.0
O462 O 0.3736 0.33459 0.8042 0.0
O463 O 0.39239 0.34983 0.85989 0.0
H464 H 0.37037 0.32366 0.97375 0.0
H465 H 0.36286 0.32226 0.03387 0.0
H466 H 0.31057 0.3953 0.03064 0.0
H467 H 0.31683 0.39567 0.97081 0.0
H468 H 0.36571 0.35439 0.71161 0.0
H469 H 0.38833 0.321 0.67051 0.0
H470 H 0.32361 0.24411 0.67786 0.0
H471 H 0.30168 0.27684 0.71906 0.0
Nd472 Nd 0.07975 0.1288 0.60743 0.0
Nd473 Nd 0.09048 0.07293 0.57526 0.0
C474 C 0.06397 0.18204 0.63101 0.0
C475 C 0.07871 0.21319 0.63066 0.0
C476 C 0.06235 0.23439 0.61815 0.0
C477 C 0.07675 0.2619 0.61163 0.0
C478 C 0.10775 0.26866 0.61769 0.0
C479 C 0.12402 0.24797 0.63161 0.0
C480 C 0.10964 0.22048 0.63806 0.0
C481 C 0.1335 0.13481 0.58272 0.0
C482 C 0.05235 0.10683 0.52485 0.0
C483 C 0.10703 1.02035 0.55057 0.0
C484 C 0.09882 0.98915 0.55779 0.0
C485 C 0.11301 0.98021 0.5874 0.0
C486 C 0.10216 0.9528 0.59725 0.0
C487 C 0.07708 0.93366 0.57754 0.0
C488 C 0.06361 0.94185 0.54715 0.0
C489 C 0.07452 0.96925 0.53719 0.0
C490 C 1.03677 0.06689 0.59999 0.0
C491 C 0.11739 0.09473 0.659 0.0
O492 O 0.053 0.16573 0.60041 0.0
O493 O 0.0779 0.16639 0.65107 0.0
O494 O 0.12907 0.14793 0.61283 0.0
O495 O 0.10998 0.11904 0.56609 0.0
O496 O 0.04574 0.11908 0.55537 0.0
O497 O 0.0749 0.0916 0.52546 0.0
O498 O 0.12308 0.04065 0.5759 0.0
O499 O 0.08585 0.03161 0.53435 0.0
O500 O 0.04123 0.05353 0.56996 0.0
O501 O 0.06033 0.08263 0.61662 0.0
O502 O 0.12255 0.08009 0.62876 0.0
O503 O 0.09657 0.1122 0.6582 0.0
H504 H 1.03855 0.229 0.61178 0.0
H505 H 0.06368 0.27713 0.60015 0.0
H506 H 0.14791 0.25265 0.6365 0.0
H507 H 0.12287 0.20443 0.64747 0.0
H508 H 0.13178 0.99493 0.60381 0.0
H509 H 0.11273 0.94714 0.62107 0.0
H510 H 0.04437 0.92732 0.53145 0.0
H511 H 0.06323 0.97538 0.51406 0.0
Nd512 Nd 0.36121 0.86889 0.85113 0.0
Nd513 Nd 0.30965 0.8352 0.83272 0.0
C514 C 0.41671 0.89435 0.85843 0.0
C515 C 0.44479 0.8843 0.85244 0.0
C516 C 0.46252 0.89926 0.83197 0.0
C517 C 0.49155 0.89408 0.83155 0.0
C518 C 0.50319 0.87431 0.85215 0.0
C519 C 0.48431 0.85692 0.8695 0.0
C520 C 0.45529 0.86177 0.8695 0.0
C521 C 0.33066 0.87691 0.90785 0.0
C522 C 0.36175 0.79127 0.84448 0.0
C523 C 0.25488 0.80659 0.82317 0.0
C524 C 0.22457 0.80977 0.82812 0.0
C525 C 0.20728 0.78563 0.83841 0.0
C526 C 0.17676 0.78419 0.83514 0.0
C527 C 0.16326 0.8068 0.82127 0.0
C528 C 0.18099 0.83258 0.81442 0.0
C529 C 0.21151 0.83412 0.81796 0.0
C530 C 0.34177 0.82686 0.77715 0.0
C531 C 0.30945 0.91314 0.84057 0.0
O532 O 0.39781 0.89422 0.83075 0.0
O533 O 0.4045 0.88462 0.88367 0.0
O534 O 0.34633 0.89834 0.89678 0.0
O535 O 0.33136 0.85093 0.88915 0.0
O536 O 0.37794 0.81912 0.84857 0.0
O537 O 0.33274 0.79127 0.84076 0.0
O538 O 0.27374 0.80674 0.85089 0.0
O539 O 0.26613 0.8208 0.80014 0.0
O540 O 0.32613 0.80548 0.78825 0.0
O541 O 0.33983 0.85282 0.79493 0.0
O542 O 0.29306 0.88533 0.83657 0.0
O543 O 0.3384 0.9129 0.84359 0.0
H544 H 0.45458 0.91638 0.81817 0.0
H545 H 0.50564 0.90761 0.81779 0.0
H546 H 0.49262 0.84193 0.88615 0.0
H547 H 0.44187 0.8495 0.88504 0.0
H548 H 0.21712 0.76675 0.84654 0.0
H549 H 0.16355 0.76419 0.84072 0.0
H550 H 0.17121 0.85013 0.80314 0.0
H551 H 0.22456 0.85314 0.81021 0.0
Nd552 Nd 0.54968 0.09571 0.06124 0.0
Nd553 Nd 0.61225 0.10188 0.10503 0.0
C554 C 0.49701 0.10444 0.03405 0.0
C555 C 0.46761 0.09502 0.04192 0.0
C556 C 0.44279 0.10345 0.02387 0.0
C557 C 0.41466 0.09309 0.03083 0.0
C558 C 0.41134 0.07432 0.05594 0.0
C559 C 0.43642 0.06658 0.07443 0.0
C560 C 0.46435 0.07682 0.06742 0.0
C561 C 0.56866 0.04113 0.06853 0.0
C562 C 0.55684 0.10627 0.14831 0.0
C563 C 0.66531 0.09424 0.1323 0.0
C564 C 0.69484 0.10555 0.12607 0.0
C565 C 0.7197 0.09722 0.14415 0.0
C566 C 0.74792 0.10969 0.13937 0.0
C567 C 0.75138 0.1307 0.11661 0.0
C568 C 0.72627 0.13824 0.09791 0.0
C569 C 0.69821 0.12571 0.10256 0.0
C570 C 0.59298 0.15632 0.09599 0.0
C571 C 0.60499 0.09092 0.01805 0.0
O572 O 0.51428 0.12435 0.0587 0.0
O573 O 0.51008 0.08197 0.02103 0.0
O574 O 0.54848 0.04417 0.04381 0.0
O575 O 0.57316 0.06504 0.09176 0.0
O576 O 0.54049 0.10681 0.11822 0.0
O577 O 0.58419 0.10015 0.14961 0.0
O578 O 0.64899 0.07483 0.1064 0.0
O579 O 0.65115 0.11537 0.14621 0.0
O580 O 0.61253 0.15366 0.1216 0.0
O581 O 0.58909 0.13198 0.07365 0.0
O582 O 0.62134 0.09 0.04802 0.0
O583 O 0.57791 0.09776 0.01702 0.0
H584 H 0.44515 0.11763 1.00419 0.0
H585 H 0.39557 0.09946 0.01648 0.0
H586 H 0.43436 0.05184 0.09362 0.0
H587 H 0.48342 0.07009 0.08144 0.0
H588 H 0.71728 0.08149 0.16224 0.0
H589 H 0.76697 0.10316 0.15363 0.0
H590 H 0.72833 0.15456 0.08042 0.0
H591 H 0.6791 0.13226 0.08838 0.0
Nd592 Nd 0.31105 0.32748 0.31674 0.0
Nd593 Nd 0.34993 0.3671 0.37333 0.0
C594 C 0.27134 0.29569 0.26635 0.0
C595 C 0.24001 0.2972 0.27055 0.0
C596 C 0.23004 0.32556 0.27068 0.0
C597 C 0.21363 0.33637 0.29622 0.0
C598 C 0.20644 0.31878 0.32149 0.0
C599 C 0.20935 0.28747 0.31474 0.0
C600 C 0.22591 0.27667 0.28915 0.0
C601 C 0.30078 0.31391 0.38076 0.0
C602 C 0.28631 0.38769 0.35381 0.0
C603 C 0.39208 0.39805 0.42063 0.0
C604 C 0.42221 0.3957 0.41166 0.0
C605 C 0.43495 0.36957 0.41707 0.0
C606 C 0.45168 0.35641 0.39298 0.0
C607 C 0.45587 0.36921 0.36334 0.0
C608 C 0.44821 0.3983 0.36173 0.0
C609 C 0.43199 0.41178 0.38612 0.0
C610 C 0.35842 0.38244 0.3096 0.0
C611 C 0.37481 0.30727 0.33657 0.0
O612 O 0.28704 0.32125 0.26254 0.0
O613 O 0.28552 0.28253 0.28922 0.0
O614 O 0.28063 0.31764 0.35664 0.0
O615 O 0.32571 0.3198 0.37172 0.0
O616 O 0.2856 0.36828 0.32451 0.0
O617 O 0.30709 0.38828 0.38059 0.0
O618 O 0.37707 0.3726 0.42576 0.0
O619 O 0.37588 0.41206 0.40056 0.0
O620 O 0.37884 0.37684 0.33204 0.0
O621 O 0.33395 0.37545 0.31918 0.0
O622 O 0.37493 0.32608 0.366 0.0
O623 O 0.3544 0.30713 0.30967 0.0
H624 H 0.23887 0.34149 0.25513 0.0
H625 H 0.20967 0.35976 0.29826 0.0
H626 H 0.20119 0.27192 0.331 0.0
H627 H 0.23142 0.25376 0.28788 0.0
H628 H 0.42876 0.357 0.43708 0.0
H629 H 0.4588 0.3347 0.39561 0.0
H630 H 0.45266 0.40939 0.34 0.0
H631 H 0.42357 0.43253 0.38169 0.0
Nd632 Nd 0.58421 0.62861 0.10399 0.0
Nd633 Nd 0.5849 0.56928 0.07354 0.0
C634 C 0.57781 0.6857 0.12772 0.0
C635 C 0.59125 0.71397 0.11809 0.0
C636 C 0.58984 0.74259 0.13782 0.0
C637 C 0.60421 0.76928 0.12931 0.0
C638 C 0.62034 0.76753 0.10118 0.0
C639 C 0.622 0.73869 0.08186 0.0
C640 C 0.60762 0.71211 0.09032 0.0
C641 C 0.6339 0.62423 0.0718 0.0
C642 C 0.55035 0.60609 0.02247 0.0
C643 C 0.59372 0.51253 0.05248 0.0
C644 C 0.58766 0.48578 0.06899 0.0
C645 C 0.58187 0.45613 0.04901 0.0
C646 C 0.57242 0.43108 0.06423 0.0
C647 C 0.56876 0.43554 0.09955 0.0
C648 C 0.57459 0.46529 0.11942 0.0
C649 C 0.5839 0.49022 0.10424 0.0
C650 C 0.5343 0.57434 0.10319 0.0
C651 C 0.61691 0.59138 0.15594 0.0
O652 O 0.55865 0.6673 0.10352 0.0
O653 O 0.59669 0.67129 0.14322 0.0
O654 O 0.63383 0.63927 0.10264 0.0
O655 O 0.60827 0.61132 0.05865 0.0
O656 O 0.55019 0.62447 0.05255 0.0
O657 O 0.5671 0.58437 0.02226 0.0
O658 O 0.61473 0.53424 0.06941 0.0
O659 O 0.57019 0.52316 0.04115 0.0
O660 O 0.53502 0.55929 0.07255 0.0
O661 O 0.55988 0.58643 0.11778 0.0
O662 O 0.61841 0.57402 0.12568 0.0
O663 O 0.59927 0.61219 0.15551 0.0
H664 H 0.57766 0.74427 0.15969 0.0
H665 H 0.60248 0.79132 0.14441 0.0
H666 H 0.6336 0.73671 0.05951 0.0
H667 H 0.60918 0.69005 0.07509 0.0
H668 H 0.58405 0.45246 0.02158 0.0
H669 H 0.56799 0.40826 0.04849 0.0
H670 H 0.5714 0.46931 0.14653 0.0
H671 H 0.58743 0.51309 0.1198 0.0
Nd672 Nd 0.85711 0.36665 0.35979 0.0
Nd673 Nd 0.80905 0.33593 0.32441 0.0
C674 C 0.90489 0.40784 0.38239 0.0
C675 C 0.93683 0.41135 0.38614 0.0
C676 C 0.95087 0.38808 0.3704 0.0
C677 C 0.98107 0.38902 0.38002 0.0
C678 C 0.99715 0.41293 0.40588 0.0
C679 C 0.98331 0.43731 0.4195 0.0
C680 C 0.95324 0.43649 0.40965 0.0
C681 C 0.81868 0.35735 0.40758 0.0
C682 C 0.86246 0.292 0.34344 0.0
C683 C 0.76359 0.29189 0.30459 0.0
C684 C 0.73301 0.27817 0.30236 0.0
C685 C 0.71175 0.29549 0.31332 0.0
C686 C 0.68201 0.28256 0.30573 0.0
C687 C 0.67356 0.25241 0.28697 0.0
C688 C 0.69516 0.2345 0.27853 0.0
C689 C 0.72481 0.24735 0.28632 0.0
C690 C 0.8466 0.34499 0.27592 0.0
C691 C 0.80451 0.41089 0.33995 0.0
O692 O 0.89047 0.40378 0.35078 0.0
O693 O 0.89286 0.39011 0.40176 0.0
O694 O 0.84543 0.35118 0.41048 0.0
O695 O 0.81209 0.36498 0.37824 0.0
O696 O 0.87822 0.31978 0.35566 0.0
O697 O 0.8341 0.29243 0.33212 0.0
O698 O 0.78066 0.29555 0.33455 0.0
O699 O 0.76972 0.3134 0.28646 0.0
O700 O 0.81962 0.35049 0.27319 0.0
O701 O 0.85386 0.33785 0.30546 0.0
O702 O 0.78813 0.38314 0.32942 0.0
O703 O 0.83309 0.41015 0.34972 0.0
H704 H 0.93828 0.3685 0.35219 0.0
H705 H 0.99151 0.37029 0.36872 0.0
H706 H 0.99525 0.45593 0.43953 0.0
H707 H 0.94248 0.45452 0.42202 0.0
H708 H 0.71799 0.31931 0.32588 0.0
H709 H 0.66557 0.29692 0.31182 0.0
H710 H 0.68899 0.21138 0.26371 0.0
H711 H 0.74123 0.23376 0.27798 0.0
Nd712 Nd 0.05781 0.56687 0.57217 0.0
Nd713 Nd 0.10739 0.61428 0.60251 0.0
C714 C 1.00717 0.53208 0.54596 0.0
C715 C 0.97706 0.53348 0.55195 0.0
C716 C 0.97137 0.55598 0.57837 0.0
C717 C 0.94259 0.55762 0.58426 0.0
C718 C 0.91931 0.53626 0.56421 0.0
C719 C 0.92508 0.51428 0.53702 0.0
C720 C 0.95389 0.513 0.53083 0.0
C721 C 0.10933 0.54367 0.58465 0.0
C722 C 0.05845 0.60203 0.65346 0.0
C723 C 0.15528 0.64898 0.63858 0.0
C724 C 0.18307 0.65998 0.62821 0.0
C725 C 0.20771 0.67191 0.65341 0.0
C726 C 0.2349 0.67987 0.64299 0.0
C727 C 0.23747 0.67574 0.60734 0.0
C728 C 0.21262 0.66386 0.58225 0.0
C729 C 0.18549 0.65611 0.59266 0.0
C730 C 0.06128 0.63704 0.56903 0.0
C731 C 0.10444 0.58506 0.52132 0.0
O732 O 1.01866 0.55447 0.53171 0.0
O733 O 1.02491 0.52626 0.57201 0.0
O734 O 0.08995 0.53409 0.55716 0.0
O735 O 0.10094 0.56412 0.60547 0.0
O736 O 0.04415 0.58057 0.62723 0.0
O737 O 0.08377 0.61777 0.65042 0.0
O738 O 0.15011 0.61928 0.6365 0.0
O739 O 0.13262 0.66014 0.62535 0.0
O740 O 0.08867 0.64358 0.56462 0.0
O741 O 0.05922 0.61735 0.58849 0.0
O742 O 0.12269 0.59655 0.55053 0.0
O743 O 0.07597 0.57795 0.52248 0.0
H744 H 0.98925 0.57187 0.59474 0.0
H745 H 0.93862 0.57491 0.6051 0.0
H746 H 0.90748 0.49728 0.5215 0.0
H747 H 0.95812 0.49571 0.51013 0.0
H748 H 0.20598 0.67467 0.68094 0.0
H749 H 0.25389 0.6893 0.6627 0.0
H750 H 0.21428 0.66029 0.55472 0.0
H751 H 0.16647 0.64666 0.57305 0.0
Nd752 Nd 0.84695 0.85935 0.37409 0.0
Nd753 Nd 0.82787 0.84719 0.3166 0.0
C754 C 0.8581 0.86414 0.44277 0.0
C755 C 0.84194 0.85947 0.47161 0.0
C756 C 0.81098 0.85536 0.46686 0.0
C757 C 0.7963 0.86155 0.49553 0.0
C758 C 0.81263 0.87177 0.52894 0.0
C759 C 0.84309 0.87059 0.53391 0.0
C760 C 0.85773 0.8648 0.50528 0.0
C761 C 0.86514 0.9152 0.3487 0.0
C762 C 0.77477 0.86341 0.35635 0.0
C763 C 0.82271 0.84634 0.2487 0.0
C764 C 0.83555 0.83083 0.22024 0.0
C765 C 0.8346 0.84192 0.1889 0.0
C766 C 0.84226 0.82437 0.15975 0.0
C767 C 0.85077 0.79572 0.16205 0.0
C768 C 0.85496 0.78642 0.19442 0.0
C769 C 0.84726 0.80392 0.22351 0.0
C770 C 0.80835 0.79051 0.33955 0.0
C771 C 0.89948 0.84065 0.33268 0.0
O772 O 0.86075 0.83981 0.42102 0.0
O773 O 0.85194 0.88662 0.42722 0.0
O774 O 0.88196 0.89953 0.36523 0.0
O775 O 0.83901 0.89915 0.34317 0.0
O776 O 0.79621 0.86076 0.38088 0.0
O777 O 0.7825 0.86244 0.32526 0.0
O778 O 0.84114 0.86653 0.27152 0.0
O779 O 0.80476 0.82892 0.26297 0.0
O780 O 0.79285 0.80517 0.31998 0.0
O781 O 0.83431 0.80713 0.3481 0.0
O782 O 0.87602 0.83599 0.30833 0.0
O783 O 0.89438 0.85015 0.36442 0.0
H784 H 0.79837 0.85027 0.44102 0.0
H785 H 0.77277 0.86197 0.49115 0.0
H786 H 0.85625 0.87831 0.55944 0.0
H787 H 0.88161 0.86758 0.50935 0.0
H788 H 0.82597 0.86295 0.18634 0.0
H789 H 0.83836 0.83144 0.13469 0.0
H790 H 0.86095 0.76407 0.19635 0.0
H791 H 0.84844 0.79536 0.24783 0.0
Nd792 Nd 0.84096 0.37868 0.86201 0.0
Nd793 Nd 0.82862 0.32319 0.8257 0.0
C794 C 0.84504 0.4321 0.90474 0.0
C795 C 0.84509 0.46401 0.90022 0.0
C796 C 0.83055 0.4708 0.86952 0.0
C797 C 0.83735 0.49976 0.86095 0.0
C798 C 0.85927 0.52193 0.88252 0.0
C799 C 0.87155 0.51602 0.91487 0.0
C800 C 0.86449 0.4872 0.92363 0.0
C801 C 0.89565 0.36233 0.84651 0.0
C802 C 0.82516 0.37791 0.78055 0.0
C803 C 0.82505 0.26906 0.78483 0.0
C804 C 0.81931 0.2381 0.79262 0.0
C805 C 0.82394 0.21254 0.76941 0.0
C806 C 0.81604 0.18297 0.77613 0.0
C807 C 0.80342 0.17879 0.80613 0.0
C808 C 0.79955 0.20467 0.82961 0.0
C809 C 0.80767 0.23401 0.82308 0.0
C810 C 0.77389 0.33899 0.84144 0.0
C811 C 0.84353 0.32382 0.90744 0.0
O812 O 0.82041 0.41302 0.89473 0.0
O813 O 0.86756 0.42042 0.89493 0.0
O814 O 0.88561 0.38706 0.84032 0.0
O815 O 0.87493 0.34526 0.85634 0.0
O816 O 0.82608 0.39501 0.8112 0.0
O817 O 0.83055 0.3496 0.77934 0.0
O818 O 0.85 0.28558 0.80015 0.0
O819 O 0.8031 0.28436 0.78671 0.0
O820 O 0.78425 0.31439 0.84746 0.0
O821 O 0.7944 0.35638 0.8316 0.0
O822 O 0.84067 0.30597 0.87691 0.0
O823 O 0.84031 0.35271 0.90858 0.0
H824 H 0.81549 0.45318 0.85109 0.0
H825 H 0.82698 0.50416 0.83638 0.0
H826 H 0.88842 0.53275 0.93209 0.0
H827 H 0.87598 0.48229 0.94739 0.0
H828 H 0.83294 0.2154 0.74578 0.0
H829 H 0.8191 0.16339 0.75751 0.0
H830 H 0.78893 0.20231 0.85227 0.0
H831 H 0.80379 0.25352 0.8412 0.0
Nd832 Nd 0.81286 0.82831 0.80444 0.0
Nd833 Nd 0.85331 0.86601 0.86005 0.0
C834 C 0.77131 0.79781 0.75579 0.0
C835 C 0.74081 0.80127 0.76246 0.0
C836 C 0.73066 0.82895 0.75815 0.0
C837 C 0.71601 0.84377 0.7834 0.0
C838 C 0.71072 0.83075 0.81271 0.0
C839 C 0.71439 0.79994 0.81205 0.0
C840 C 0.72886 0.78505 0.78666 0.0
C841 C 0.80209 0.81596 0.869 0.0
C842 C 0.79106 0.88981 0.84109 0.0
C843 C 0.89489 0.89661 0.90858 0.0
C844 C 0.92535 0.89274 0.90219 0.0
C845 C 0.93457 0.86438 0.90513 0.0
C846 C 0.94909 0.84997 0.8795 0.0
C847 C 0.9555 0.86419 0.85134 0.0
C848 C 0.9527 0.89538 0.85355 0.0
C849 C 0.93814 0.90975 0.87918 0.0
C850 C 0.86469 0.87696 0.79517 0.0
C851 C 0.87476 0.80411 0.82437 0.0
O852 O 0.78753 0.82269 0.75102 0.0
O853 O 0.78589 0.78384 0.77748 0.0
O854 O 0.78261 0.82191 0.84564 0.0
O855 O 0.82687 0.8199 0.85915 0.0
O856 O 0.78988 0.87091 0.81138 0.0
O857 O 0.81154 0.88902 0.86758 0.0
O858 O 0.87838 0.87204 0.91367 0.0
O859 O 0.88062 0.91043 0.88645 0.0
O860 O 0.884 0.87155 0.81909 0.0
O861 O 0.83983 0.87399 0.80503 0.0
O862 O 0.87565 0.82307 0.85395 0.0
O863 O 0.85464 0.80494 0.79749 0.0
H864 H 0.73822 0.8416 0.73881 0.0
H865 H 0.71218 0.86682 0.78182 0.0
H866 H 0.70906 0.78849 0.83325 0.0
H867 H 0.73501 0.76301 0.78986 0.0
H868 H 0.92633 0.85103 0.92354 0.0
H869 H 0.95202 0.8265 0.87988 0.0
H870 H 0.95892 0.90771 0.83336 0.0
H871 H 0.93266 0.93226 0.87707 0.0
Nd872 Nd 0.60337 0.6255 0.59786 0.0
Nd873 Nd 0.56527 0.57584 0.58373 0.0
C874 C 0.63897 0.67888 0.61324 0.0
C875 C 0.63582 0.70558 0.59541 0.0
C876 C 0.60921 0.71773 0.59288 0.0
C877 C 0.60373 0.73812 0.57006 0.0
C878 C 0.62492 0.74731 0.54969 0.0
C879 C 0.65218 0.73665 0.55355 0.0
C880 C 0.65749 0.71582 0.57597 0.0
C881 C 0.60682 0.60169 0.52741 0.0
C882 C 0.53881 0.6368 0.56864 0.0
C883 C 0.53012 0.52231 0.56952 0.0
C884 C 0.5334 0.49619 0.58847 0.0
C885 C 0.55642 0.47886 0.58423 0.0
C886 C 0.56254 0.45794 0.60621 0.0
C887 C 0.54574 0.45358 0.633 0.0
C888 C 0.52226 0.47029 0.6367 0.0
C889 C 0.51609 0.49118 0.61467 0.0
C890 C 0.56158 0.60049 0.65394 0.0
C891 C 0.62931 0.56396 0.61289 0.0
O892 O 0.61894 0.67123 0.6322 0.0
O893 O 0.64525 0.65487 0.59391 0.0
O894 O 0.60018 0.62839 0.53871 0.0
O895 O 0.60489 0.58617 0.55216 0.0
O896 O 0.56398 0.64992 0.58723 0.0
O897 O 0.53478 0.60669 0.55802 0.0
O898 O 0.55026 0.5295 0.55052 0.0
O899 O 0.52327 0.54668 0.58758 0.0
O900 O 0.56845 0.57376 0.64322 0.0
O901 O 0.56352 0.61549 0.62882 0.0
O902 O 0.6042 0.55098 0.59422 0.0
O903 O 0.63347 0.5941 0.62343 0.0
H904 H 0.59211 0.71062 0.60761 0.0
H905 H 0.58272 0.74639 0.56791 0.0
H906 H 0.66896 0.74359 0.53828 0.0
H907 H 0.67809 0.70675 0.57708 0.0
H908 H 0.57052 0.48222 0.56473 0.0
H909 H 0.58111 0.44592 0.60293 0.0
H910 H 0.50874 0.46737 0.65687 0.0
H911 H 0.49833 0.50422 0.61893 0.0
Nd912 Nd 0.10883 0.61396 0.08833 0.0
Nd913 Nd 0.05493 0.58916 0.08832 0.0
C914 C 0.16404 0.63188 0.08007 0.0
C915 C 0.1909 0.62082 0.0935 0.0
C916 C 0.21889 0.63754 0.09419 0.0
C917 C 0.24419 0.62676 0.1078 0.0
C918 C 0.24163 0.59917 0.1208 0.0
C919 C 0.21349 0.58281 0.12045 0.0
C920 C 0.18835 0.5936 0.10707 0.0
C921 C 0.10718 0.58979 0.14983 0.0
C922 C 0.08941 0.54351 0.04781 0.0
C923 C 0.99894 0.57223 0.09496 0.0
C924 C 0.97089 0.57128 0.07219 0.0
C925 C 0.94535 0.57542 0.08695 0.0
C926 C 0.91952 0.57848 0.066 0.0
C927 C 0.91886 0.57752 0.02994 0.0
C928 C 0.94422 0.57238 0.01506 0.0
C929 C 0.96999 0.56922 0.036 0.0
C930 C 0.05814 0.6111 0.02577 0.0
C931 C 0.0755 0.65778 0.13127 0.0
O932 O 0.14539 0.61204 0.05686 0.0
O933 O 0.15105 0.64618 0.10383 0.0
O934 O 0.11973 0.61672 0.14767 0.0
O935 O 0.09457 0.57594 0.11987 0.0
O936 O 0.10485 0.57 0.04618 0.0
O937 O 0.07028 0.54342 0.06974 0.0
O938 O 1.01355 0.59955 0.10754 0.0
O939 O 1.01606 0.55302 0.08407 0.0
O940 O 0.04641 0.58409 0.02863 0.0
O941 O 0.06928 0.62617 0.05574 0.0
O942 O 0.06255 0.63058 0.13457 0.0
O943 O 0.09152 0.65865 0.10612 0.0
H944 H 0.22116 0.65875 0.0841 0.0
H945 H 0.2657 0.63957 0.10748 0.0
H946 H 0.21097 0.56158 0.13049 0.0
H947 H 0.16685 0.58064 0.10723 0.0
H948 H 0.94571 0.57743 0.11485 0.0
H949 H 0.90051 0.58314 0.07829 0.0
H950 H 0.94432 0.57168 0.98739 0.0
H951 H 0.98946 0.56614 0.02403 0.0
C952 C 0.10672 0.27909 0.96668 0.0
C953 C 0.1026 0.30946 0.97864 0.0
C954 C 0.11374 0.25942 0.99014 0.0
C955 C 0.11674 0.26917 0.02658 0.0
H956 H 0.1048 0.27049 0.93897 0.0
H957 H 0.1166 0.23625 0.97962 0.0
S958 S 0.10899 0.34666 0.07164 0.0
N959 N 0.10245 0.3483 0.02977 0.0
N960 N 0.11574 0.31157 0.07337 0.0
C961 C 0.11265 0.29943 0.03885 0.0
C962 C 0.1056 0.31946 0.01507 0.0
C963 C 0.18943 0.81822 0.33361 0.0
C964 C 0.17666 0.83948 0.31551 0.0
C965 C 0.22078 0.8191 0.34171 0.0
C966 C 0.242 0.84139 0.3326 0.0
H967 H 0.17501 0.80018 0.34124 0.0
H968 H 0.22847 0.80167 0.35514 0.0
S969 S 0.22147 0.90282 0.28496 0.0
N970 N 0.18919 0.88393 0.28883 0.0
N971 N 0.24675 0.88559 0.30405 0.0
C972 C 0.22958 0.86299 0.31484 0.0
C973 C 0.19765 0.86202 0.3064 0.0
C974 C 0.60185 0.98623 0.46993 0.0
C975 C 0.59309 0.95746 0.4789 0.0
C976 C 0.60159 1.01391 0.49296 0.0
C977 C 0.59224 1.01406 0.52581 0.0
H978 H 0.60895 0.98742 0.4449 0.0
H979 H 0.60827 0.03539 0.48463 0.0
S980 S 0.56785 0.94505 0.56246 0.0
N981 N 0.57542 0.93111 0.52365 0.0
N982 N 0.57471 0.9827 0.56632 0.0
C983 C 0.58368 0.98546 0.53518 0.0
C984 C 0.58417 0.95736 0.51194 0.0
C985 C 0.48429 0.34676 0.83713 0.0
C986 C 0.49021 0.33089 0.80501 0.0
C987 C 0.45485 0.34902 0.84446 0.0
C988 C 0.42898 0.33596 0.82012 0.0
H989 H 0.50266 0.35773 0.85702 0.0
H990 H 0.45242 0.36167 0.86959 0.0
S991 S 0.43105 0.29142 0.73203 0.0
N992 N 0.46626 0.30133 0.74876 0.0
N993 N 0.41237 0.30601 0.76211 0.0
C994 C 0.4346 0.32004 0.78797 0.0
C995 C 0.46449 0.31742 0.78065 0.0
C996 C 1.02282 0.87754 0.60999 0.0
C997 C 0.04092 0.85736 0.62186 0.0
C998 C 1.03439 0.90165 0.59435 0.0
C999 C 0.06431 0.90604 0.58992 0.0
H1000 H 0.99996 0.87545 0.61405 0.0
H1001 H 1.02016 0.91763 0.58693 0.0
S1002 S 0.11944 0.85634 0.6113 0.0
N1003 N 0.08928 0.84125 0.6246 0.0
N1004 N 0.11074 0.88623 0.59485 0.0
C1005 C 0.08207 0.8849 0.5998 0.0
C1006 C 0.07043 0.86061 0.61586 0.0
C1007 C 0.5767 0.91337 0.89955 0.0
C1008 C 0.58918 0.88879 0.91009 0.0
C1009 C 0.55018 0.90821 0.87686 0.0
C1010 C 0.53525 0.87824 0.86387 0.0
H1011 H 0.58645 0.93688 0.91054 0.0
H1012 H 0.54008 0.92799 0.87226 0.0
S1013 S 0.56255 0.80601 0.87664 0.0
N1014 N 0.58765 0.83339 0.90103 0.0
N1015 N 0.53758 0.82368 0.85772 0.0
C1016 C 0.54931 0.85343 0.87084 0.0
C1017 C 0.57636 0.8587 0.89419 0.0
C1018 C 0.53751 0.19217 0.14545 0.0
C1019 C 0.52128 0.20541 0.12075 0.0
C1020 C 0.5613 0.17768 0.13728 0.0
C1021 C 0.56863 0.1736 0.10338 0.0
H1022 H 0.53346 0.19512 0.17225 0.0
H1023 H 0.57413 0.1697 0.15799 0.0
S1024 S 0.5316 0.20145 0.02816 0.0
N1025 N 0.51393 0.21316 0.06067 0.0
N1026 N 0.55692 0.18258 0.04429 0.0
C1027 C 0.55168 0.18515 0.07778 0.0
C1028 C 0.52826 0.20153 0.08662 0.0
C1029 C 0.18545 0.37883 0.391 0.0
C1030 C 0.19647 0.37056 0.42262 0.0
C1031 C 0.18724 0.36109 0.35872 0.0
C1032 C 0.20065 0.33442 0.35632 0.0
H1033 H 0.17481 0.39901 0.39106 0.0
H1034 H 0.17789 0.36855 0.33548 0.0
S1035 S 0.23154 0.30203 0.43221 0.0
N1036 N 0.21979 0.33325 0.44997 0.0
N1037 N 0.22453 0.30044 0.38969 0.0
C1038 C 0.21152 0.32576 0.38808 0.0
C1039 C 0.2093 0.34377 0.42101 0.0
C1040 C 1.00355 0.0804 0.21707 0.0
C1041 C 1.00066 0.10839 0.2385 0.0
C1042 C 1.02342 0.07842 0.19156 0.0
C1043 C 0.04158 0.10435 0.18428 0.0
H1044 H 0.99065 0.05935 0.22048 0.0
H1045 H 1.02428 0.05592 0.17697 0.0
S1046 S 0.0426 0.18385 0.23137 0.0
N1047 N 1.01872 0.16314 0.24958 0.0
N1048 N 0.05404 0.15958 0.2015 0.0
C1049 C 1.03847 0.13259 0.20495 0.0
C1050 C 1.01883 0.13452 0.23174 0.0
C1051 C 0.3703 0.7726 0.46775 0.0
C1052 C 0.38406 0.79277 0.49868 0.0
C1053 C 0.35756 0.78341 0.43853 0.0
C1054 C 0.35747 0.81494 0.43887 0.0
H1055 H 0.36927 0.74805 0.46602 0.0
H1056 H 0.34767 0.76677 0.4154 0.0
S1057 S 0.39083 0.87766 0.51316 0.0
N1058 N 0.39702 0.84604 0.52756 0.0
N1059 N 0.37294 0.86638 0.47305 0.0
C1060 C 0.37112 0.83544 0.46967 0.0
C1061 C 0.38445 0.82439 0.49934 0.0
C1062 C 0.63885 0.08784 0.74458 0.0
C1063 C 0.63655 0.05631 0.746 0.0
C1064 C 0.6291 0.09836 0.71392 0.0
C1065 C 0.61634 0.07801 0.68281 0.0
H1066 H 0.64896 0.10484 0.76728 0.0
H1067 H 0.63208 0.12289 0.71455 0.0
S1068 S 0.60379 0.99306 0.67213 0.0
N1069 N 0.61951 1.00464 0.71319 0.0
N1070 N 0.60097 1.02449 0.65569 0.0
C1071 C 0.61297 0.04638 0.68388 0.0
C1072 C 0.62312 0.03554 0.71531 0.0
C1073 C 0.33248 0.40687 0.12249 0.0
C1074 C 0.36236 0.41957 0.13314 0.0
C1075 C 0.32408 0.38245 0.09433 0.0
C1076 C 0.34532 0.37056 0.07568 0.0
H1077 H 0.31535 0.41766 0.13364 0.0
H1078 H 0.30081 0.37562 0.08434 0.0
S1079 S 0.42668 0.38889 0.10165 0.0
N1080 N 0.41329 0.41292 0.12972 0.0
N1081 N 0.39768 0.3678 0.076 0.0
C1082 C 0.37531 0.37945 0.09021 0.0
C1083 C 0.38382 0.40407 0.11909 0.0
C1084 C 0.98951 0.12169 0.45678 0.0
C1085 C 0.99923 0.11398 0.42418 0.0
C1086 C 1.00673 0.11982 0.48887 0.0
C1087 C 1.03451 0.10967 0.4903 0.0
H1088 H 0.96829 0.12924 0.45758 0.0
H1089 H 0.99788 0.12601 0.51282 0.0
S1090 S 0.07057 0.08676 0.4127 0.0
N1091 N 0.03914 0.09604 0.39601 0.0
N1092 N 0.07079 0.09211 0.45529 0.0
C1093 C 0.04447 0.10196 0.45786 0.0
C1094 C 1.02713 0.10421 0.4253 0.0
C1095 C 0.37881 0.77919 0.71029 0.0
C1096 C 0.38847 0.7992 0.68829 0.0
C1097 C 0.36458 0.78895 0.73883 0.0
C1098 C 0.35928 0.81944 0.74762 0.0
H1099 H 0.3814 0.75525 0.70485 0.0
H1100 H 0.35729 0.77201 0.75403 0.0
S1101 S 0.38192 0.88214 0.70052 0.0
N1102 N 0.39274 0.85188 0.6786 0.0
N1103 N 0.36658 0.87024 0.73274 0.0
C1104 C 0.36986 0.84022 0.7269 0.0
C1105 C 0.38419 0.83012 0.69723 0.0
C1106 C 0.65934 0.06911 0.95598 0.0
C1107 C 0.64154 0.05901 0.92321 0.0
C1108 C 0.64744 0.07994 0.98602 0.0
C1109 C 0.61718 0.08197 0.98477 0.0
H1110 H 0.68279 0.06824 0.95862 0.0
H1111 H 0.66224 0.08668 1.01055 0.0
S1112 S 0.56093 0.05913 0.90505 0.0
N1113 N 0.592 0.05194 0.89121 0.0
N1114 N 0.56965 0.07311 0.94721 0.0
C1115 C 0.59916 0.07261 0.9519 0.0
C1116 C 0.61128 0.06085 0.92136 0.0
C1117 C 0.40005 0.4485 0.27711 0.0
C1118 C 0.37782 0.46538 0.26727 0.0
C1119 C 0.3934 0.42116 0.28959 0.0
C1120 C 0.36425 0.40938 0.29247 0.0
H1121 H 0.42273 0.45601 0.27429 0.0
H1122 H 0.41133 0.40922 0.29699 0.0
S1123 S 0.29778 0.44479 0.27003 0.0
N1124 N 0.32535 0.46851 0.26168 0.0
N1125 N 0.31284 0.41685 0.28433 0.0
C1126 C 0.34178 0.42609 0.2828 0.0
C1127 C 0.34859 0.45421 0.27063 0.0
C1128 C 0.20666 0.03688 0.12542 0.0
C1129 C 0.20027 1.00516 0.11074 0.0
C1130 C 0.18444 0.05595 0.12666 0.0
C1131 C 0.15465 0.04428 0.11326 0.0
H1132 H 0.22924 0.04736 0.13538 0.0
H1133 H 0.19085 0.08019 0.13722 0.0
S1134 S 0.12563 0.96226 0.07447 0.0
N1135 N 0.16145 0.96289 0.08443 0.0
N1136 N 0.12011 0.99789 0.08641 0.0
C1137 C 0.14795 1.0123 0.09956 0.0
C1138 C 0.17053 0.99304 0.09837 0.0
C1139 C 0.69913 0.66804 0.04309 0.0
C1140 C 0.70438 0.64822 0.01355 0.0
C1141 C 0.67634 0.65993 0.06153 0.0
C1142 C 0.6574 0.63182 0.05101 0.0
H1143 H 0.71321 0.68992 0.05276 0.0
H1144 H 0.6736 0.67595 0.08429 0.0
S1145 S 0.66029 0.57217 0.97465 0.0
N1146 N 0.68801 0.59941 0.97404 0.0
N1147 N 0.64434 0.58446 1.00848 0.0
C1148 C 0.66149 0.61213 0.02085 0.0
C1149 C 0.68515 0.62026 1.00215 0.0
C1150 C 0.74899 0.47374 0.33613 0.0
C1151 C 0.76623 0.50349 0.34902 0.0
C1152 C 0.7609 0.44493 0.33315 0.0
C1153 C 0.79139 0.44274 0.34264 0.0
H1154 H 0.72554 0.47249 0.32811 0.0
H1155 H 0.74565 0.42389 0.32318 0.0
S1156 S 0.84737 0.51274 0.37865 0.0
N1157 N 0.8166 0.5273 0.37176 0.0
N1158 N 0.83827 0.47519 0.36636 0.0
C1159 C 0.80883 0.47233 0.35566 0.0
C1160 C 0.79668 0.50161 0.35872 0.0
C1161 C 0.83706 0.51718 0.55475 0.0
C1162 C 0.83336 0.51029 0.5877 0.0
C1163 C 0.86488 0.52876 0.54805 0.0
C1164 C 0.88962 0.53377 0.57412 0.0
H1165 H 0.81899 0.51127 0.53325 0.0
H1166 H 0.86744 0.53161 0.52167 0.0
S1167 S 0.89 0.52571 0.66668 0.0
N1168 N 0.85533 0.51463 0.64829 0.0
N1169 N 0.90789 0.53544 0.63538 0.0
C1170 C 0.88549 0.53038 0.60818 0.0
C1171 C 0.85717 0.51883 0.61507 0.0
C1172 C 0.42349 0.24864 0.30272 0.0
C1173 C 0.43991 0.24356 0.33354 0.0
C1174 C 0.40274 0.26929 0.30358 0.0
C1175 C 0.3972 0.28555 0.33535 0.0
H1176 H 0.42644 0.23627 0.27765 0.0
H1177 H 0.39082 0.2723 0.27916 0.0
S1178 S 0.43237 0.27823 0.42369 0.0
N1179 N 0.44829 0.25581 0.3967 0.0
N1180 N 0.40889 0.2931 0.39869 0.0
C1181 C 0.4133 0.28025 0.36634 0.0
C1182 C 0.43475 0.25978 0.36535 0.0
C1183 C 0.34165 0.08242 0.50392 0.0
C1184 C 0.342 0.10284 0.48014 0.0
C1185 C 0.36742 0.07185 0.51642 0.0
C1186 C 0.39441 0.08109 0.50533 0.0
H1187 H 0.32208 0.07686 0.51559 0.0
H1188 H 0.36663 0.05865 0.53717 0.0
S1189 S 0.40536 0.12747 0.43649 0.0
N1190 N 0.3703 0.12699 0.44096 0.0
N1191 N 0.41851 0.10649 0.46387 0.0
C1192 C 0.39411 0.09805 0.47811 0.0
C1193 C 0.3679 0.10898 0.46552 0.0
C1194 C 0.79888 0.70796 0.37124 0.0
C1195 C 0.77147 0.69106 0.3522 0.0
C1196 C 0.81107 0.73893 0.36728 0.0
C1197 C 0.79684 0.75608 0.34414 0.0
H1198 H 0.81137 0.69712 0.38959 0.0
H1199 H 0.8319 0.74962 0.383 0.0
S1200 S 0.7245 0.72394 0.28782 0.0
N1201 N 0.73108 0.69585 0.30878 0.0
N1202 N 0.75269 0.75177 0.302 0.0
C1203 C 0.76946 0.73934 0.32524 0.0
C1204 C 0.75734 0.708 0.329 0.0
C1205 C 0.89682 0.60233 0.88164 0.0
C1206 C 0.90909 0.59841 0.85052 0.0
C1207 C 0.879 0.57791 0.89082 0.0
C1208 C 0.87288 0.54882 0.86933 0.0
H1209 H 0.90206 0.62395 0.8998 0.0
H1210 H 0.87083 0.58132 0.91549 0.0
S1211 S 0.89822 0.52708 0.78408 0.0
N1212 N 0.91206 0.5637 0.79696 0.0
N1213 N 0.87966 0.51773 0.815 0.0
C1214 C 0.8838 0.54504 0.83736 0.0
C1215 C 0.90164 0.56989 0.82778 0.0
C1216 C 0.06534 0.92158 0.21973 0.0
C1217 C 0.06452 0.89012 0.20707 0.0
C1218 C 0.05842 0.94189 0.1971 0.0
C1219 C 0.05005 0.93162 0.16086 0.0
H1220 H 0.07154 0.93069 0.24734 0.0
H1221 H 0.05962 0.96593 0.20813 0.0
S1222 S 0.04464 0.85162 0.11415 0.0
N1223 N 0.05469 0.84978 0.1555 0.0
N1224 N 0.04175 0.88792 0.1134 0.0
C1225 C 0.0489 0.90023 0.14788 0.0
C1226 C 0.05615 0.87956 0.17082 0.0
C1227 C 0.98209 0.3829 0.85169 0.0
C1228 C 0.99462 0.36138 0.86958 0.0
C1229 C 0.9508 0.38262 0.84405 0.0
C1230 C 0.92941 0.36074 0.85354 0.0
H1231 H 0.99667 0.40067 0.84382 0.0
H1232 H 0.94331 0.40017 0.83069 0.0
S1233 S 0.94927 0.29909 0.90119 0.0
N1234 N 0.98168 0.31727 0.89667 0.0
N1235 N 0.92422 0.31676 0.8824 0.0
C1236 C 0.94158 0.33893 0.87117 0.0
C1237 C 0.97345 0.33926 0.87908 0.0
C1238 C 0.58585 0.24302 0.67309 0.0
C1239 C 0.57627 0.24265 0.70574 0.0
C1240 C 0.58565 0.2158 0.64928 0.0
C1241 C 0.57544 0.18679 0.65666 0.0
H1242 H 0.5939 0.26463 0.66584 0.0
H1243 H 0.59355 0.21759 0.62478 0.0
S1244 S 0.54772 0.17278 0.73836 0.0
N1245 N 0.55625 0.21049 0.74411 0.0
N1246 N 0.55544 0.15947 0.69938 0.0
C1247 C 0.56551 0.18602 0.6891 0.0
C1248 C 0.56606 0.21382 0.71358 0.0
C1249 C 0.70609 0.8761 0.40425 0.0
C1250 C 0.68098 0.86968 0.37768 0.0
C1251 C 0.73559 0.87398 0.39738 0.0
C1252 C 0.74254 0.86584 0.36326 0.0
H1253 H 0.70296 0.88264 0.43113 0.0
H1254 H 0.75324 0.87904 0.41933 0.0
S1255 S 0.68574 0.84626 0.28352 0.0
N1256 N 0.66609 0.85414 0.31522 0.0
N1257 N 0.72045 0.85097 0.30232 0.0
C1258 C 0.71768 0.85949 0.33636 0.0
C1259 C 0.68752 0.86117 0.34347 0.0
C1260 C 0.15668 0.31617 0.56935 0.0
C1261 C 0.14665 0.3446 0.57476 0.0
C1262 C 0.14494 0.29202 0.58474 0.0
C1263 C 0.123 0.29568 0.60622 0.0
H1264 H 0.17245 0.312 0.55163 0.0
H1265 H 0.15203 0.26992 0.57836 0.0
S1266 S 0.09338 0.36741 0.63342 0.0
N1267 N 0.11628 0.37629 0.6063 0.0
N1268 N 0.09465 0.33104 0.63569 0.0
C1269 C 0.11441 0.32468 0.61375 0.0
C1270 C 0.12616 0.34913 0.59793 0.0
C1271 C 0.61114 0.24053 0.21409 0.0
C1272 C 0.58731 0.2451 0.23202 0.0
C1273 C 0.6387 0.23927 0.23222 0.0
C1274 C 0.64322 0.2431 0.2688 0.0
H1275 H 0.60897 0.24006 0.18621 0.0
H1276 H 0.65714 0.23825 0.21781 0.0
S1277 S 0.58646 0.24985 0.32686 0.0
N1278 N 0.56852 0.24849 0.28739 0.0
N1279 N 0.621 0.24713 0.3218 0.0
C1280 C 0.61891 0.24457 0.28662 0.0
C1281 C 0.59063 0.24522 0.26804 0.0
C1282 C 0.63243 0.9956 0.0796 0.0
C1283 C 0.63675 0.98613 0.04492 0.0
C1284 C 0.61067 1.01388 0.08738 0.0
C1285 C 0.59171 1.02198 0.0606 0.0
H1286 H 0.64534 0.9881 0.10066 0.0
H1287 H 0.60809 1.02096 0.11437 0.0
S1288 S 0.59217 0.99939 0.9653 0.0
N1289 N 0.62003 0.98536 0.98383 0.0
N1290 N 0.57781 1.0171 0.99775 0.0
C1291 C 0.59562 1.01196 0.02579 0.0
C1292 C 0.61854 0.99479 0.01815 0.0
C1293 C 0.94816 0.83409 0.75364 0.0
C1294 C 0.96493 0.81014 0.75156 0.0
C1295 C 0.94541 0.85124 0.7859 0.0
C1296 C 0.95982 0.84563 0.8176 0.0
H1297 H 0.93781 0.84021 0.73003 0.0
H1298 H 0.93198 0.86928 0.78583 0.0
S1299 S 1.00742 0.78581 0.82625 0.0
N1300 N 0.99613 0.78131 0.78395 0.0
N1301 N 0.99202 0.81437 0.84441 0.0
C1302 C 0.9764 0.82135 0.81588 0.0
C1303 C 0.97868 0.80344 0.78297 0.0
C1304 C 0.16633 0.12453 0.96658 0.0
C1305 C 0.17 0.09635 0.94617 0.0
C1306 C 0.1466 0.1266 0.99222 0.0
C1307 C 0.12931 0.10063 1.00064 0.0
H1308 H 0.17853 0.14564 0.96229 0.0
H1309 H 0.14518 0.14924 1.006 0.0
S1310 S 0.13072 1.02065 0.95667 0.0
N1311 N 0.15374 0.04135 0.93739 0.0
N1312 N 0.11862 0.04515 0.98568 0.0
C1313 C 0.1332 0.07221 0.98099 0.0
C1314 C 0.15273 0.07014 0.95409 0.0
C1315 C 0.78772 0.37931 0.68768 0.0
C1316 C 0.78879 0.41089 0.6871 0.0
C1317 C 0.80046 0.36879 0.71737 0.0
C1318 C 0.81449 0.38936 0.74797 0.0
H1319 H 0.77733 0.36259 0.66486 0.0
H1320 H 0.79874 0.34429 0.71656 0.0
S1321 S 0.823 0.47432 0.76008 0.0
N1322 N 0.80517 0.46253 0.7201 0.0
N1323 N 0.8285 0.44295 0.77537 0.0
C1324 C 0.81556 0.42093 0.74764 0.0
C1325 C 0.80292 0.43159 0.71745 0.0
C1326 C 0.55095 0.16251 0.45515 0.0
C1327 C 0.52475 0.14807 0.43279 0.0
C1328 C 0.56122 0.15121 0.48562 0.0
C1329 C 0.54616 0.12453 0.4944 0.0
H1330 H 0.56331 0.18294 0.44941 0.0
H1331 H 0.5813 0.16318 0.50209 0.0
S1332 S 0.47732 0.07725 0.44321 0.0
N1333 N 0.48458 0.10523 0.42143 0.0
N1334 N 0.50379 0.08385 0.47702 0.0
C1335 C 0.52022 0.10979 0.47173 0.0
C1336 C 0.5096 0.12155 0.44146 0.0
C1337 C 0.85704 0.73938 0.08147 0.0
C1338 C 0.82776 0.72425 0.07243 0.0
C1339 C 0.86505 0.76275 0.11098 0.0
C1340 C 0.84363 0.77178 0.13106 0.0
H1341 H 0.87365 0.73311 0.06572 0.0
H1342 H 0.88776 0.77395 0.1179 0.0
S1343 S 0.76377 0.7413 0.11616 0.0
N1344 N 0.77731 0.72097 0.08478 0.0
N1345 N 0.79223 0.76523 0.13946 0.0
C1346 C 0.81434 0.75719 0.1218 0.0
C1347 C 0.80638 0.73327 0.09255 0.0
C1348 C 0.17998 0.07999 0.72762 0.0
C1349 C 0.17075 0.08909 0.76024 0.0
C1350 C 0.16263 0.08125 0.69535 0.0
C1351 C 0.1352 0.09216 0.69374 0.0
H1352 H 0.20095 0.07185 0.72691 0.0
H1353 H 0.17114 0.07406 0.67141 0.0
S1354 S 0.10022 0.11832 0.77124 0.0
N1355 N 0.13148 0.10884 0.78817 0.0
N1356 N 0.09964 0.11167 0.72858 0.0
C1357 C 0.12567 0.10115 0.72618 0.0
C1358 C 0.14312 0.09949 0.75893 0.0
C1359 C 0.80611 0.37735 0.5032 0.0
C1360 C 0.78096 0.3922 0.50162 0.0
C1361 C 0.81729 0.36518 0.47287 0.0
C1362 C 0.80409 0.3673 0.43912 0.0
H1363 H 0.81784 0.37566 0.52831 0.0
H1364 H 0.83704 0.35474 0.47607 0.0
S1365 S 0.73717 0.40302 0.41974 0.0
N1366 N 0.7427 0.40739 0.46274 0.0
N1367 N 0.76356 0.38479 0.40616 0.0
C1368 C 0.77842 0.38133 0.43701 0.0
C1369 C 0.76695 0.39365 0.46798 0.0
C1370 C 0.55265 0.14103 0.24361 0.0
C1371 C 0.52212 0.14005 0.24418 0.0
C1372 C 0.5637 0.12904 0.21307 0.0
C1373 C 0.54474 0.11591 0.18156 0.0
H1374 H 0.56815 0.15087 0.26702 0.0
H1375 H 0.58735 0.13076 0.21398 0.0
S1376 S 0.46297 0.10856 0.16872 0.0
N1377 N 0.4732 0.12511 0.20995 0.0
N1378 N 0.49377 0.10322 0.15323 0.0
C1379 C 0.51423 0.11512 0.18184 0.0
C1380 C 0.50301 0.12698 0.21285 0.0
C1381 C 0.79136 0.73514 0.88741 0.0
C1382 C 0.77959 0.73853 0.91883 0.0
C1383 C 0.79855 0.7605 0.87155 0.0
C1384 C 0.79409 0.79003 0.88644 0.0
H1385 H 0.79616 0.71305 0.87573 0.0
H1386 H 0.80801 0.75707 0.84761 0.0
S1387 S 0.76224 0.81104 0.96703 0.0
N1388 N 0.76233 0.77372 0.96319 0.0
N1389 N 0.77625 0.82119 0.9332 0.0
C1390 C 0.78144 0.79364 0.917 0.0
C1391 C 0.77407 0.7679 0.93324 0.0
C1392 C 0.99969 0.20824 0.0824 0.0
C1393 C 0.96949 0.19601 0.07416 0.0
C1394 C 1.02179 0.18931 0.07955 0.0
C1395 C 1.01502 0.15707 0.06826 0.0
H1396 H 1.0064 0.23261 0.09184 0.0
H1397 H 0.04456 0.20017 0.08718 0.0
S1398 S 0.93934 0.11335 0.04189 0.0
N1399 N 0.93409 0.14925 0.05275 0.0
N1400 N 0.97543 0.11416 0.0477 0.0
C1401 C 0.98493 0.14466 0.05886 0.0
C1402 C 0.96235 0.16392 0.06178 0.0
C1403 C 0.45562 0.55048 0.115 0.0
C1404 C 0.45702 0.55285 0.15132 0.0
C1405 C 0.4806 0.55885 0.10009 0.0
C1406 C 0.50809 0.57005 0.12081 0.0
H1407 H 0.43517 0.54114 0.09766 0.0
H1408 H 0.47848 0.55567 0.0719 0.0
S1409 S 0.52341 0.58317 0.21743 0.0
N1410 N 0.48788 0.56911 0.20795 0.0
N1411 N 0.53511 0.58509 0.1797 0.0
C1412 C 0.50968 0.57419 0.15729 0.0
C1413 C 0.48406 0.56552 0.17261 0.0
C1414 C 0.37076 0.70149 0.82591 0.0
C1415 C 0.40148 0.69971 0.83396 0.0
C1416 C 0.35852 0.73008 0.82974 0.0
C1417 C 0.3757 0.75998 0.84156 0.0
H1418 H 0.35559 0.6803 0.81656 0.0
H1419 H 0.3349 0.72855 0.82286 0.0
S1420 S 0.45758 0.77024 0.86581 0.0
N1421 N 0.4486 0.73258 0.85463 0.0
N1422 N 0.42644 0.78442 0.86076 0.0
C1423 C 0.40646 0.75851 0.84936 0.0
C1424 C 0.41888 0.72941 0.84593 0.0
C1425 C 0.31914 0.68496 0.60569 0.0
C1426 C 0.32294 0.70641 0.58356 0.0
C1427 C 0.2911 0.67412 0.61218 0.0
C1428 C 0.26613 0.68427 0.59655 0.0
H1429 H 0.33799 0.67774 0.61956 0.0
H1430 H 0.289 0.65846 0.6304 0.0
S1431 S 0.26411 0.73702 0.53289 0.0
N1432 N 0.29939 0.73478 0.54294 0.0
N1433 N 0.24648 0.71471 0.55573 0.0
C1434 C 0.26942 0.70404 0.57251 0.0
C1435 C 0.29796 0.71505 0.56585 0.0
C1436 C 0.73324 0.93827 0.81209 0.0
C1437 C 0.72884 0.95637 0.8432 0.0
C1438 C 0.75341 0.91727 0.812 0.0
C1439 C 0.76974 0.91256 0.84306 0.0
H1440 H 0.72172 0.94105 0.78732 0.0
H1441 H 0.75646 0.90485 0.78701 0.0
S1442 S 0.76526 0.95298 0.93207 0.0
N1443 N 0.74215 0.96767 0.90631 0.0
N1444 N 0.77915 0.92752 0.90617 0.0
C1445 C 0.7651 0.93006 0.87452 0.0
C1446 C 0.74487 0.95195 0.87458 0.0
C1447 C 0.82481 0.10275 0.65722 0.0
C1448 C 0.82191 0.07972 0.67761 0.0
C1449 C 0.80051 0.11604 0.64557 0.0
C1450 C 0.77233 0.10661 0.65362 0.0
H1451 H 0.84567 0.10932 0.64856 0.0
H1452 H 0.8035 0.13277 0.62872 0.0
S1453 S 0.75322 0.04767 0.70701 0.0
N1454 N 0.78902 0.04911 0.70683 0.0
N1455 N 0.74318 0.07356 0.6843 0.0
C1456 C 0.76948 0.08489 0.6757 0.0
C1457 C 0.79434 0.07159 0.68789 0.0
C1458 C 0.36772 0.50053 0.82085 0.0
C1459 C 0.39861 0.51243 0.82562 0.0
C1460 C 0.35597 0.46957 0.82502 0.0
C1461 C 0.37406 0.44779 0.83478 0.0
H1462 H 0.35216 0.51534 0.81372 0.0
H1463 H 0.33227 0.46285 0.82089 0.0
S1464 S 0.4564 0.46599 0.8511 0.0
N1465 N 0.44655 0.49797 0.84099 0.0
N1466 N 0.42544 0.44223 0.84891 0.0
C1467 C 0.40484 0.45961 0.83961 0.0
C1468 C 0.41668 0.49074 0.8351 0.0
C1469 C 0.25869 0.59896 0.29258 0.0
C1470 C 0.25247 0.59611 0.32616 0.0
C1471 C 0.27507 0.62587 0.28671 0.0
C1472 C 0.28572 0.65066 0.31427 0.0
H1473 H 0.24928 0.58118 0.27033 0.0
H1474 H 0.27771 0.62806 0.26017 0.0
S1475 S 0.28031 0.65241 0.40783 0.0
N1476 N 0.26181 0.61867 0.38795 0.0
N1477 N 0.29264 0.66909 0.3768 0.0
C1478 C 0.28186 0.64702 0.3483 0.0
C1479 C 0.26523 0.61974 0.35429 0.0
C1480 C 0.6259 0.81816 0.50722 0.0
C1481 C 0.60555 0.80803 0.47624 0.0
C1482 C 0.63242 0.7983 0.53048 0.0
C1483 C 0.61838 0.76768 0.52415 0.0
H1484 H 0.63714 0.84165 0.51346 0.0
H1485 H 0.64827 0.80709 0.55387 0.0
S1486 S 0.56318 0.72959 0.44747 0.0
N1487 N 0.57159 0.76499 0.4406 0.0
N1488 N 0.58318 0.72803 0.48489 0.0
C1489 C 0.59791 0.75721 0.49349 0.0
C1490 C 0.5917 0.77726 0.46938 0.0
C1491 C 0.69625 0.36023 0.80699 0.0
C1492 C 0.67477 0.33837 0.81645 0.0
C1493 C 0.72758 0.36099 0.8156 0.0
C1494 C 0.73996 0.3398 0.83418 0.0
H1495 H 0.68878 0.37693 0.79222 0.0
H1496 H 0.74227 0.37816 0.80691 0.0
S1497 S 0.69446 0.27785 0.86605 0.0
N1498 N 0.66949 0.29509 0.84643 0.0
N1499 N 0.72688 0.29631 0.8621 0.0
C1500 C 0.71872 0.31807 0.84408 0.0
C1501 C 0.6869 0.3174 0.83547 0.0
C1502 C 0.08261 0.45846 1.00826 0.0
C1503 C 0.09276 0.45855 0.97586 0.0
C1504 C 0.08182 0.48587 0.03128 0.0
C1505 C 0.09164 0.51475 0.02336 0.0
H1506 H 0.07481 0.43695 0.01586 0.0
H1507 H 0.0735 0.48434 0.0556 0.0
S1508 S 0.12043 0.52807 0.94206 0.0
N1509 N 0.11274 0.49034 0.93711 0.0
N1510 N 0.11187 0.54169 0.9805 0.0
C1511 C 0.10218 0.51525 0.99124 0.0
C1512 C 0.10256 0.48728 0.9675 0.0
C1513 C 0.98639 0.84467 0.34189 0.0
C1514 C 0.99212 0.83104 0.30864 0.0
C1515 C 0.95703 0.84718 0.34951 0.0
C1516 C 0.93112 0.83662 0.32438 0.0
H1517 H 1.00482 0.85359 0.36247 0.0
H1518 H 0.95472 0.85798 0.37553 0.0
S1519 S 0.93287 0.79947 0.23288 0.0
N1520 N 0.96801 0.80687 0.25028 0.0
N1521 N 0.91442 0.81198 0.26419 0.0
C1522 C 0.93665 0.8231 0.29108 0.0
C1523 C 0.96638 0.82024 0.28343 0.0
C1524 C 0.52309 0.36428 0.11708 0.0
C1525 C 0.53973 0.3585 0.14714 0.0
C1526 C 0.53271 0.38917 0.10154 0.0
C1527 C 0.55899 0.40926 0.11594 0.0
H1528 H 0.5029 0.34911 0.10502 0.0
H1529 H 0.51947 0.39284 0.07826 0.0
S1530 S 0.60986 0.40485 0.19508 0.0
N1531 N 0.58331 0.37541 0.19121 0.0
N1532 N 0.60118 0.42215 0.16202 0.0
C1533 C 0.57546 0.40407 0.14631 0.0
C1534 C 0.56587 0.37868 0.16192 0.0
C1535 C 0.07692 0.43583 0.44729 0.0
C1536 C 0.08291 0.40964 0.4607 0.0
C1537 C 0.04942 0.43635 0.42825 0.0
C1538 C 1.02706 0.41074 0.42216 0.0
H1539 H 0.09358 0.45606 0.45147 0.0
H1540 H 0.04548 0.45705 0.4186 0.0
S1541 S 1.03125 0.33717 0.45327 0.0
N1542 N 0.06421 0.35771 0.4672 0.0
N1543 N 1.01225 0.35896 0.43206 0.0
C1544 C 1.0328 0.3844 0.4354 0.0
C1545 C 0.06082 0.3838 0.45457 0.0
C1546 C 0.041 0.71618 0.57922 0.0
C1547 C 1.01791 0.71349 0.59929 0.0
C1548 C 0.05275 0.69042 0.56524 0.0
C1549 C 0.04205 0.66114 0.57121 0.0
H1550 H 0.05172 0.73862 0.57682 0.0
H1551 H 0.07218 0.69401 0.55268 0.0
S1552 S 0.97739 0.64119 0.61504 0.0
N1553 N 0.98135 0.67889 0.61902 0.0
N1554 N 1.00331 0.63033 0.59268 0.0
C1555 C 1.01639 0.65773 0.58717 0.0
C1556 C 1.0044 0.68406 0.60129 0.0
C1557 C 0.72191 0.86551 0.90951 0.0
C1558 C 0.70421 0.88866 0.91129 0.0
C1559 C 0.72344 0.84692 0.87767 0.0
C1560 C 0.70718 0.85044 0.84608 0.0
H1561 H 0.73402 0.86114 0.93314 0.0
H1562 H 0.73743 0.82943 0.87796 0.0
S1563 S 0.65679 0.90757 0.83652 0.0
N1564 N 0.67001 0.91442 0.8785 0.0
N1565 N 0.67244 0.87898 0.81889 0.0
C1566 C 0.68972 0.87394 0.84737 0.0
C1567 C 0.68838 0.89315 0.87984 0.0
C1568 C 0.52617 0.59376 0.73985 0.0
C1569 C 0.49978 0.60697 0.73676 0.0
C1570 C 0.54555 0.59226 0.71381 0.0
C1571 C 0.54099 0.60485 0.68286 0.0
H1572 H 0.53182 0.58377 0.76265 0.0
H1573 H 0.56462 0.58095 0.71817 0.0
S1574 S 0.4758 0.64278 0.66066 0.0
N1575 N 0.47064 0.63293 0.69848 0.0
N1576 N 0.5069 0.63131 0.65142 0.0
C1577 C 0.51494 0.61861 0.67958 0.0
C1578 C 0.49468 0.61936 0.70569 0.0
C1579 C 0.85895 0.26906 0.97085 0.0
C1580 C 0.87627 0.28826 1.0005 0.0
C1581 C 0.84822 0.28069 0.94122 0.0
C1582 C 0.85362 0.31225 0.94008 0.0
H1583 H 0.85376 0.24464 0.97034 0.0
H1584 H 0.83546 0.26477 0.91903 0.0
S1585 S 0.89796 0.37252 1.01054 0.0
N1586 N 0.89863 0.34055 0.0264 0.0
N1587 N 0.87803 0.36249 0.97139 0.0
C1588 C 0.87078 0.33177 0.96963 0.0
C1589 C 0.88221 0.31979 0.99955 0.0
C1590 C 0.13316 0.58508 0.2447 0.0
C1591 C 0.13403 0.55366 0.24478 0.0
C1592 C 0.12361 0.59592 0.21417 0.0
C1593 C 0.11406 0.57602 0.18188 0.0
H1594 H 0.14072 0.60182 0.26841 0.0
H1595 H 0.12418 0.62042 0.21586 0.0
S1596 S 0.11051 0.49142 0.1673 0.0
N1597 N 0.12344 0.50249 0.20928 0.0
N1598 N 0.10511 0.52292 0.15208 0.0
C1599 C 0.11375 0.54439 0.18153 0.0
C1600 C 0.12382 0.53325 0.2128 0.0
C1601 C 0.81352 0.91724 0.61644 0.0
C1602 C 0.81363 0.94642 0.60739 0.0
C1603 C 0.80776 0.89085 0.59052 0.0
C1604 C 0.80166 0.89315 0.55516 0.0
H1605 H 0.82168 0.91504 0.64287 0.0
H1606 H 0.81197 0.86925 0.59767 0.0
S1607 S 0.79038 0.96365 0.52013 0.0
N1608 N 0.80067 0.97562 0.56247 0.0
N1609 N 0.789 0.92605 0.51364 0.0
C1610 C 0.79649 0.92165 0.54685 0.0
C1611 C 0.80294 0.94846 0.5731 0.0
C1612 C 0.51355 0.63847 0.94453 0.0
C1613 C 0.49415 0.61286 0.92419 0.0
C1614 C 0.53096 0.63653 0.97654 0.0
C1615 C 0.53079 0.60861 0.98916 0.0
H1616 H 0.51501 0.66034 0.93588 0.0
H1617 H 0.54519 0.65697 0.99112 0.0
S1618 S 0.48477 0.53454 0.94569 0.0
N1619 N 0.47608 0.55868 0.91981 0.0
N1620 N 0.50953 0.55475 0.97802 0.0
C1621 C 0.51185 0.58286 0.96877 0.0
C1622 C 0.49344 0.58505 0.93698 0.0
C1623 C 0.89497 0.30422 0.21557 0.0
C1624 C 0.88266 0.30733 0.18175 0.0
C1625 C 0.88416 0.31742 0.24589 0.0
C1626 C 0.86053 0.33447 0.24401 0.0
H1627 H 0.91243 0.29054 0.21862 0.0
H1628 H 0.89384 0.31332 0.27097 0.0
S1629 S 0.82214 0.35191 0.16229 0.0
N1630 N 0.84653 0.33067 0.14889 0.0
N1631 N 0.82665 0.35527 0.20515 0.0
C1632 C 0.84892 0.3388 0.21049 0.0
C1633 C 0.85982 0.32533 0.17972 0.0
C1634 C 0.111 0.54688 0.428 0.0
C1635 C 0.14067 0.55662 0.42507 0.0
C1636 C 0.09915 0.55687 0.45863 0.0
C1637 C 0.11654 0.57682 0.4878 0.0
H1638 H 0.09675 0.53154 0.40644 0.0
H1639 H 0.0763 0.5484 0.45963 0.0
S1640 S 0.19594 0.60812 0.49388 0.0
N1641 N 0.18728 0.58693 0.45455 0.0
N1642 N 0.16531 0.60544 0.51133 0.0
C1643 C 0.14625 0.58656 0.48505 0.0
C1644 C 0.15821 0.57654 0.45401 0.0
C1645 C 0.87879 0.95584 0.77226 0.0
C1646 C 0.8869 0.94996 0.73879 0.0
C1647 C 0.87197 0.93194 0.79039 0.0
C1648 C 0.8731 0.90136 0.77578 0.0
H1649 H 0.87657 0.9789 0.78404 0.0
H1650 H 0.86524 0.93734 0.81583 0.0
S1651 S 0.8945 0.87349 0.69019 0.0
N1652 N 0.89698 0.91099 0.69258 0.0
N1653 N 0.88398 0.8663 0.72706 0.0
C1654 C 0.88218 0.89512 0.74313 0.0
C1655 C 0.88918 0.91939 0.72454 0.0
C1656 C 0.66617 0.49171 0.60778 0.0
C1657 C 0.69644 0.50295 0.61091 0.0
C1658 C 0.64506 0.51175 0.61066 0.0
C1659 C 0.65301 0.5441 0.61694 0.0
H1660 H 0.65858 0.4672 0.60223 0.0
H1661 H 0.62204 0.50162 0.60692 0.0
S1662 S 0.72947 0.58567 0.62906 0.0
N1663 N 0.73335 0.5491 0.62235 0.0
N1664 N 0.69372 0.58619 0.62746 0.0
C1665 C 0.68325 0.55567 0.62146 0.0
C1666 C 0.70484 0.5353 0.61846 0.0
C1667 C 0.18956 0.134 0.51951 0.0
C1668 C 0.21274 0.15714 0.53711 0.0
C1669 C 0.16389 0.12703 0.5343 0.0
C1670 C 0.16045 0.14286 0.56716 0.0
H1671 H 0.19144 0.12088 0.49448 0.0
H1672 H 0.14673 0.1088 0.51998 0.0
S1673 S 0.21369 0.2068 0.62293 0.0
N1674 N 0.22979 0.19686 0.58857 0.0
N1675 N 0.18185 0.18363 0.61614 0.0
C1676 C 0.18317 0.16645 0.5847 0.0
C1677 C 0.20919 0.17358 0.56965 0.0
C1678 C 0.2533 0.97528 0.83682 0.0
C1679 C 0.27005 1.00503 0.85113 0.0
C1680 C 0.26551 0.94666 0.83368 0.0
C1681 C 0.29594 0.94475 0.8439 0.0
H1682 H 0.22997 0.97386 0.82792 0.0
H1683 H 0.2506 0.92558 0.82267 0.0
S1684 S 0.35068 1.01479 0.88403 0.0
N1685 N 0.31983 0.0291 0.87654 0.0
N1686 N 0.34219 0.97735 0.87016 0.0
C1687 C 0.31293 0.97434 0.85827 0.0
C1688 C 0.30039 1.0034 0.86194 0.0
C1689 C 0.35089 0.04452 0.10316 0.0
C1690 C 0.33108 1.02504 0.0761 0.0
C1691 C 0.37588 0.06223 0.09612 0.0
C1692 C 0.38196 0.06087 0.06181 0.0
H1693 H 0.34773 0.04512 0.13011 0.0
H1694 H 0.39131 0.07599 0.1178 0.0
S1695 S 0.33628 1.01453 0.98158 0.0
N1696 N 0.31824 1.00663 0.01351 0.0
N1697 N 0.36567 0.0396 1.00037 0.0
C1698 C 0.36152 0.04279 0.03432 0.0
C1699 C 0.33591 1.0249 0.04146 0.0
C1700 C 0.93027 0.75452 0.85607 0.0
C1701 C 0.93585 0.73668 0.82543 0.0
C1702 C 0.91047 0.77579 0.85506 0.0
C1703 C 0.89572 0.78104 0.82335 0.0
H1704 H 0.94053 0.75132 0.88128 0.0
H1705 H 0.90655 0.78808 0.87973 0.0
S1706 S 0.90446 0.7421 0.73524 0.0
N1707 N 0.92583 0.72653 0.76206 0.0
N1708 N 0.88951 0.76732 0.76019 0.0
C1709 C 0.90171 0.76395 0.79235 0.0
C1710 C 0.92156 0.74175 0.7934 0.0
C1711 C 0.87344 0.62206 0.97563 0.0
C1712 C 0.84424 0.61037 0.97857 0.0
C1713 C 0.89737 0.60983 0.99031 0.0
C1714 C 0.89309 0.5857 1.00894 0.0
H1715 H 0.87803 0.64187 0.9634 0.0
H1716 H 0.91947 0.62066 0.98892 0.0
S1717 S 0.82118 0.54397 0.02011 0.0
N1718 N 0.81238 0.57087 0.99824 0.0
N1719 N 0.85757 0.5482 0.02622 0.0
C1720 C 0.86405 0.57237 1.01006 0.0
C1721 C 0.83958 0.5846 0.99475 0.0
C1722 C 0.29996 0.20601 0.86733 0.0
C1723 C 0.27096 0.19034 0.85208 0.0
C1724 C 0.31168 0.23703 0.86315 0.0
C1725 C 0.29544 0.25532 0.84343 0.0
H1726 H 0.31404 0.19418 0.88284 0.0
H1727 H 0.33384 0.24676 0.8758 0.0
S1728 S 0.21846 0.22654 0.79769 0.0
N1729 N 0.22686 0.19748 0.81596 0.0
N1730 N 0.24778 0.2534 0.8086 0.0
C1731 C 0.26653 0.23976 0.82826 0.0
C1732 C 0.25478 0.20845 0.83237 0.0
C1733 C 0.39507 0.09553 0.34867 0.0
C1734 C 0.42321 0.0914 0.34036 0.0
C1735 C 0.37715 0.07231 0.35983 0.0
C1736 C 0.38699 0.04445 0.36304 0.0
H1737 H 0.38728 0.11724 0.34788 0.0
H1738 H 0.35603 0.07651 0.3671 0.0
S1739 S 0.45703 1.02064 0.34107 0.0
N1740 N 0.45873 0.05602 0.33344 0.0
N1741 N 0.425 1.01268 0.35458 0.0
C1742 C 0.41425 0.0394 0.3532 0.0
C1743 C 0.43239 0.0628 0.34172 0.0
C1744 C 0.5622 0.4216 0.71709 0.0
C1745 C 0.56697 0.39149 0.70497 0.0
C1746 C 0.55524 0.44142 0.69379 0.0
C1747 C 0.55297 0.43209 0.65736 0.0
H1748 H 0.56355 0.42988 0.7448 0.0
H1749 H 0.55185 0.46437 0.70443 0.0
S1750 S 0.56269 0.35542 0.61192 0.0
N1751 N 0.56856 0.35335 0.65371 0.0
N1752 N 0.55542 0.39037 0.61039 0.0
C1753 C 0.55774 0.4021 0.64493 0.0
C1754 C 0.56472 0.38191 0.66856 0.0
C1755 C 0.4843 0.88479 0.35231 0.0
C1756 C 0.49653 0.86312 0.37024 0.0
C1757 C 0.45306 0.88465 0.34429 0.0
C1758 C 0.43143 0.86275 0.35333 0.0
H1759 H 0.49908 0.90256 0.34473 0.0
H1760 H 0.44579 0.90233 0.33097 0.0
S1761 S 0.45046 0.80071 0.40083 0.0
N1762 N 0.48304 0.81887 0.39688 0.0
N1763 N 0.42569 0.81856 0.38182 0.0
C1764 C 0.4433 0.84079 0.37098 0.0
C1765 C 0.47512 0.841 0.37934 0.0
C1766 C 0.0858 0.74244 0.17413 0.0
C1767 C 0.07673 0.74193 0.20703 0.0
C1768 C 0.08503 0.71531 0.14995 0.0
C1769 C 0.0748 0.68624 0.15718 0.0
H1770 H 0.09385 0.76407 0.16696 0.0
H1771 H 0.09257 0.71723 0.12528 0.0
S1772 S 0.04821 0.67189 0.23937 0.0
N1773 N 0.05707 0.70959 0.24544 0.0
N1774 N 0.05528 0.65874 0.20002 0.0
C1775 C 0.06538 0.68534 0.18987 0.0
C1776 C 0.06646 0.71306 0.21472 0.0
C1777 C 0.18648 0.36268 0.84342 0.0
C1778 C 0.17974 0.36877 0.87797 0.0
C1779 C 0.21603 0.36102 0.83588 0.0
C1780 C 0.24105 0.36475 0.86228 0.0
H1781 H 0.16875 0.35936 0.82174 0.0
H1782 H 0.21917 0.35637 0.80881 0.0
S1783 S 0.23651 0.3805 0.95731 0.0
N1784 N 0.20202 0.37843 0.93889 0.0
N1785 N 0.25585 0.37462 0.92498 0.0
C1786 C 0.2345 0.37054 0.89683 0.0
C1787 C 0.20465 0.37272 0.90449 0.0
C1788 C 0.62135 0.84066 0.06546 0.0
C1789 C 0.64914 0.84476 0.05449 0.0
C1790 C 0.61304 0.81667 0.08259 0.0
C1791 C 0.63211 0.79564 0.08905 0.0
H1792 H 0.60542 0.85555 0.05968 0.0
H1793 H 0.59087 0.81357 0.08902 0.0
S1794 S 0.70842 0.79802 0.06854 0.0
N1795 N 0.69668 0.82745 0.05358 0.0
N1796 N 0.68097 0.78179 0.08581 0.0
C1797 C 0.66062 0.80038 0.07989 0.0
C1798 C 0.66922 0.82517 0.06268 0.0
C1799 C 0.09482 0.7686 0.76005 0.0
C1800 C 0.07832 0.7927 0.75941 0.0
C1801 C 0.1212 0.77236 0.78296 0.0
C1802 C 0.13175 0.80027 0.80612 0.0
H1803 H 0.08854 0.74753 0.74106 0.0
H1804 H 0.13455 0.7542 0.78038 0.0
S1805 S 0.0927 0.86732 0.82052 0.0
N1806 N 0.07134 0.84319 0.78799 0.0
N1807 N 0.12106 0.85012 0.83143 0.0
C1808 C 0.11375 0.8232 0.80836 0.0
C1809 C 0.08695 0.81944 0.78489 0.0
C1810 C 0.1756 0.51563 0.55411 0.0
C1811 C 0.17933 0.49252 0.5739 0.0
C1812 C 0.15496 0.53523 0.56061 0.0
C1813 C 0.1383 0.53333 0.58793 0.0
H1814 H 0.18554 0.51596 0.53061 0.0
H1815 H 0.15 0.54973 0.54191 0.0
S1816 S 0.14646 0.4835 0.65384 0.0
N1817 N 0.16967 0.4737 0.62687 0.0
N1818 N 0.13126 0.51129 0.63924 0.0
C1819 C 0.14539 0.51403 0.61137 0.0
C1820 C 0.16614 0.49361 0.60451 0.0
C1821 C 0.50009 0.32313 0.30502 0.0
C1822 C 0.48149 0.31612 0.27248 0.0
C1823 C 0.4916 0.33987 0.33453 0.0
C1824 C 0.46447 0.35069 0.33238 0.0
H1825 H 0.52162 0.31601 0.30765 0.0
H1826 H 0.50663 0.34502 0.35892 0.0
S1827 S 0.40675 0.33626 0.25428 0.0
N1828 N 0.43394 0.31949 0.24065 0.0
N1829 N 0.41816 0.35111 0.29582 0.0
C1830 C 0.44533 0.34289 0.30034 0.0
C1831 C 0.45376 0.32551 0.27047 0.0
C1832 C 0.67315 0.58445 0.47475 0.0
C1833 C 0.66749 0.59617 0.44322 0.0
C1834 C 0.65345 0.58483 0.50072 0.0
C1835 C 0.62674 0.5976 0.49771 0.0
H1836 H 0.69309 0.57459 0.47948 0.0
H1837 H 0.65976 0.5757 0.52397 0.0
S1838 S 0.60094 0.63224 0.42148 0.0
N1839 N 0.63193 0.62092 0.41167 0.0
N1840 N 0.59676 0.62285 0.45972 0.0
C1841 C 0.6211 0.6096 0.46657 0.0
C1842 C 0.64067 0.60853 0.43986 0.0
C1843 C 0.29278 0.88569 0.18855 0.0
C1844 C 0.29979 0.91711 0.18712 0.0
C1845 C 0.30387 0.87349 0.21775 0.0
C1846 C 0.32206 0.89227 0.24704 0.0
H1847 H 0.27867 0.87034 0.16691 0.0
H1848 H 0.29737 0.84933 0.21781 0.0
S1849 S 0.34789 0.97577 0.25632 0.0
N1850 N 0.32713 0.96644 0.21768 0.0
N1851 N 0.34709 0.94374 0.27222 0.0
C1852 C 0.32937 0.92359 0.24582 0.0
C1853 C 0.31851 0.93591 0.21603 0.0
C1854 C 1.03719 0.66277 0.95973 0.0
C1855 C 1.03124 0.64193 0.92757 0.0
C1856 C 0.04748 0.65356 0.99149 0.0
C1857 C 0.05207 0.62308 0.99236 0.0
H1858 H 1.03275 0.68603 0.96063 0.0
H1859 H 0.05051 0.67 0.01562 0.0
S1860 S 0.04355 0.56062 0.91532 0.0
N1861 N 1.0337 0.5901 0.89888 0.0
N1862 N 0.05243 0.57307 0.95772 0.0
C1863 C 0.04765 0.60264 0.96022 0.0
C1864 C 1.03743 0.61195 0.92815 0.0
C1865 C 0.36319 0.24943 0.57959 0.0
C1866 C 0.35768 0.21777 0.5797 0.0
C1867 C 0.36818 0.27051 0.61091 0.0
C1868 C 0.36821 0.26029 0.64291 0.0
H1869 H 0.35961 0.25807 0.55543 0.0
H1870 H 0.36803 0.2945 0.60962 0.0
S1871 S 0.3672 0.18022 0.65674 0.0
N1872 N 0.36104 0.17742 0.61392 0.0
N1873 N 0.37185 0.21726 0.6731 0.0
C1874 C 0.36885 0.22902 0.64328 0.0
C1875 C 0.36313 0.20756 0.61142 0.0
C1876 C 0.64618 0.60136 0.25503 0.0
C1877 C 0.67092 0.58582 0.25694 0.0
C1878 C 0.62907 0.60279 0.22276 0.0
C1879 C 0.63522 0.58832 0.19023 0.0
H1880 H 0.64019 0.61316 0.2788 0.0
H1881 H 0.61074 0.6155 0.22345 0.0
S1882 S 0.69674 0.54339 0.17997 0.0
N1883 N 0.70014 0.55507 0.22258 0.0
N1884 N 0.66796 0.55706 0.16271 0.0
C1885 C 0.65953 0.57213 0.19177 0.0
C1886 C 0.67727 0.57109 0.22467 0.0
C1887 C 0.28056 0.88349 0.97966 0.0
C1888 C 0.29837 0.90506 1.00717 0.0
C1889 C 0.29145 0.87253 0.94834 0.0
C1890 C 0.32041 0.88314 0.94296 0.0
H1891 H 0.25797 0.87528 0.98215 0.0
H1892 H 0.27668 0.85676 0.92764 0.0
S1893 S 0.37579 0.93999 1.00607 0.0
N1894 N 0.34664 0.93633 0.02615 0.0
N1895 N 0.3664 0.91654 0.96813 0.0
C1896 C 0.33829 0.90443 0.97037 0.0
C1897 C 0.32751 0.91513 1.00213 0.0
C1898 C 0.04721 0.64682 0.74163 0.0
C1899 C 1.01976 0.63251 0.74737 0.0
C1900 C 0.0596 0.63642 0.71171 0.0
C1901 C 0.04514 0.61117 0.68591 0.0
H1902 H 0.05928 0.66633 0.76038 0.0
H1903 H 0.08067 0.64862 0.70871 0.0
S1904 S 0.97265 0.56543 0.68837 0.0
N1905 N 0.97845 0.59143 0.72446 0.0
N1906 N 1.00166 0.57216 0.66868 0.0
C1907 C 1.01771 0.59661 0.69143 0.0
C1908 C 1.00507 0.60715 0.7219 0.0
C1909 C 0.30309 0.27046 0.45573 0.0
C1910 C 0.2877 0.24108 0.43998 0.0
C1911 C 0.30704 0.29414 0.43651 0.0
C1912 C 0.29506 0.2895 0.40117 0.0
H1913 H 0.31294 0.27502 0.48292 0.0
H1914 H 0.31958 0.31617 0.44932 0.0
S1915 S 0.25296 0.2172 0.3476 0.0
N1916 N 0.26055 0.20887 0.38685 0.0
N1917 N 0.26756 0.25349 0.35091 0.0
C1918 C 0.27936 0.26044 0.38519 0.0
C1919 C 0.2757 0.23622 0.40458 0.0
C1920 C 0.50151 0.70866 0.5744 0.0
C1921 C 0.47152 0.69745 0.57358 0.0
C1922 C 0.5225 0.68864 0.57024 0.0
C1923 C 0.51479 0.65635 0.5653 0.0
H1924 H 0.50898 0.73316 0.57871 0.0
H1925 H 0.54527 0.69872 0.57176 0.0
S1926 S 0.43902 0.61482 0.55998 0.0
N1927 N 0.435 0.65136 0.56602 0.0
N1928 N 0.47451 0.61427 0.55889 0.0
C1929 C 0.48474 0.64475 0.56327 0.0
C1930 C 0.46323 0.66511 0.56734 0.0
C1931 C 0.96035 0.02872 0.60776 0.0
C1932 C 0.95673 0.04029 0.6422 0.0
C1933 C 0.9862 0.03766 0.59453 0.0
C1934 C 1.00972 0.05854 0.61519 0.0
H1935 H 0.94294 1.01258 0.59056 0.0
H1936 H 0.98773 0.02805 0.56784 0.0
S1937 S 1.01183 0.09561 0.70723 0.0
N1938 N 0.97912 0.07381 0.69688 0.0
N1939 N 1.0279 0.09061 0.67196 0.0
C1940 C 1.00657 0.07034 0.64971 0.0
C1941 C 0.98009 0.06124 0.66328 0.0
C1942 C 0.87239 0.2026 0.32003 0.0
C1943 C 0.90194 0.20015 0.33399 0.0
C1944 C 0.86018 0.23124 0.32335 0.0
C1945 C 0.87626 0.26057 0.34071 0.0
H1946 H 0.85812 0.18191 0.30622 0.0
H1947 H 0.83751 0.23022 0.31171 0.0
S1948 S 0.95488 0.26902 0.38201 0.0
N1949 N 0.94677 0.23184 0.36628 0.0
N1950 N 0.92473 0.28375 0.37181 0.0
C1951 C 0.90587 0.25845 0.35454 0.0
C1952 C 0.91822 0.22929 0.35144 0.0
C1953 C 0.81335 0.16714 0.0757 0.0
C1954 C 0.83302 0.18382 0.1048 0.0
C1955 C 0.78777 0.14854 0.07982 0.0
C1956 C 0.78084 0.14616 0.11318 0.0
H1957 H 0.81733 0.16907 0.0495 0.0
H1958 H 0.77279 0.13671 0.0567 0.0
S1959 S 0.82573 0.18424 0.19781 0.0
N1960 N 0.84472 0.19566 0.16812 0.0
N1961 N 0.79611 0.16116 0.17586 0.0
C1962 C 0.80093 0.16167 0.14253 0.0
C1963 C 0.82717 0.18044 0.13833 0.0
C1964 C 0.22884 0.43476 0.32035 0.0
C1965 C 0.22616 0.45606 0.34982 0.0
C1966 C 0.24808 0.41299 0.32234 0.0
C1967 C 0.26512 0.41062 0.35403 0.0
H1968 H 0.21687 0.43566 0.29511 0.0
H1969 H 0.25006 0.3983 0.29828 0.0
S1970 S 0.2648 0.45978 0.43963 0.0
N1971 N 0.24164 0.47289 0.41224 0.0
N1972 N 0.27686 0.43128 0.41608 0.0
C1973 C 0.26202 0.43126 0.38399 0.0
C1974 C 0.24277 0.45396 0.38186 0.0
C1975 C 0.29431 0.54222 0.12972 0.0
C1976 C 0.31702 0.55821 0.1562 0.0
C1977 C 0.27027 0.55585 0.11843 0.0
C1978 C 0.26803 0.58613 0.13287 0.0
H1979 H 0.29486 0.51875 0.11775 0.0
H1980 H 0.25327 0.54255 0.09809 0.0
S1981 S 0.32169 0.63834 0.20213 0.0
N1982 N 0.33593 0.60624 0.19625 0.0
N1983 N 0.2905 0.63201 0.17466 0.0
C1984 C 0.29066 0.60265 0.159 0.0
C1985 C 0.31517 0.58862 0.17083 0.0
C1986 C 0.87028 0.99974 0.32241 0.0
C1987 C 0.90045 1.01395 0.3332 0.0
C1988 C 0.85874 0.96882 0.32703 0.0
C1989 C 0.87632 0.94923 0.34288 0.0
H1990 H 0.85512 1.01267 0.31015 0.0
H1991 H 0.8356 0.96026 0.31797 0.0
S1992 S 0.95675 0.97382 0.376 0.0
N1993 N 0.94718 1.00397 0.36082 0.0
N1994 N 0.92649 0.94822 0.36905 0.0
C1995 C 0.9064 0.9633 0.35357 0.0
C1996 C 0.91801 0.99449 0.34895 0.0
C1997 C 0.75461 0.1017 0.7888 0.0
C1998 C 0.75512 0.09456 0.82235 0.0
C1999 C 0.77214 0.1279 0.7832 0.0
C2000 C 0.79078 0.14784 0.81107 0.0
H2001 H 0.73894 0.08827 0.7672 0.0
H2002 H 0.76945 0.13366 0.75736 0.0
S2003 S 0.80367 0.13627 0.90284 0.0
N2004 N 0.778 0.10729 0.88303 0.0
N2005 N 0.81171 0.15626 0.8725 0.0
C2006 C 0.7932 0.13953 0.84425 0.0
C2007 C 0.7751 0.11299 0.84994 0.0
loop_
_geom_bond_atom_site_label_1
_geom_bond_atom_site_label_2
_geom_bond_distance
_geom_bond_site_symmetry_2
_ccdc_geom_bond_type
In0 O1 2.294 . S
In0 O2 2.326 . S
In0 O6 2.266 . S
In0 O7 2.326 . S
In0 O8 2.266 . S
In0 O9 2.326 . S
In0 O11 2.294 . S
In0 O12 2.326 . S
O1 In0 2.294 . S
O1 C10 1.240 . S
O2 In0 2.326 . S
O2 C10 1.252 . S
C3 O6 1.252 . S
C3 O7 1.260 . S
C4 O11 1.240 . S
C4 O12 1.252 . S
C5 O8 1.252 . S
C5 O9 1.260 . S
O6 In0 2.266 . S
O6 C3 1.252 . S
O7 In0 2.326 . S
O7 C3 1.260 . S
O8 In0 2.266 . S
O8 C5 1.252 . S
O9 In0 2.326 . S
O9 C5 1.260 . S
C10 O1 1.240 . S
C10 O2 1.252 . S
O11 In0 2.294 . S
O11 C4 1.240 . S
O12 In0 2.326 . S
O12 C4 1.252 . S
In13 O14 2.294 . S
In13 O15 2.326 . S
In13 O19 2.266 1_455 S
In13 O20 2.326 1_455 S
In13 O21 2.264 1_455 S
In13 O22 2.322 1_455 S
In13 O24 2.296 . S
In13 O25 2.330 . S
O14 In13 2.294 . S
O14 C23 1.240 . S
O15 In13 2.326 . S
O15 C23 1.252 . S
C16 O19 1.252 . S
C16 O20 1.260 . S
C17 O24 1.240 . S
C17 O25 1.252 . S
C18 O21 1.252 . S
C18 O22 1.260 . S
O19 In13 2.266 1_655 S
O19 C16 1.252 . S
O20 In13 2.326 1_655 S
O20 C16 1.260 . S
O21 In13 2.264 1_655 S
O21 C18 1.252 . S
O22 In13 2.322 1_655 S
O22 C18 1.260 . S
C23 O14 1.240 . S
C23 O15 1.252 . S
O24 In13 2.296 . S
O24 C17 1.240 . S
O25 In13 2.330 . S
O25 C17 1.252 . S
In26 O27 2.294 . S
In26 O28 2.326 1_556 S
In26 O32 2.266 . S
In26 O33 2.326 1_556 S
In26 O34 2.266 1_556 S
In26 O35 2.326 . S
In26 O37 2.294 1_556 S
In26 O38 2.326 . S
O27 In26 2.294 . S
O27 C36 1.240 . S
O28 In26 2.326 1_554 S
O28 C36 1.252 1_554 S
C29 O32 1.252 . S
C29 O33 1.260 1_556 S
C30 O37 1.240 . S
C30 O38 1.252 1_554 S
C31 O34 1.252 . S
C31 O35 1.260 1_554 S
O32 In26 2.266 . S
O32 C29 1.252 . S
O33 In26 2.326 1_554 S
O33 C29 1.260 1_554 S
O34 In26 2.266 1_554 S
O34 C31 1.252 . S
O35 In26 2.326 . S
O35 C31 1.260 1_556 S
C36 O27 1.240 . S
C36 O28 1.252 1_556 S
O37 In26 2.294 1_554 S
O37 C30 1.240 . S
O38 In26 2.326 . S
O38 C30 1.252 1_556 S
In39 O40 2.294 . S
In39 O41 2.326 . S
In39 O45 2.266 . S
In39 O46 2.326 . S
In39 O47 2.266 . S
In39 O48 2.326 . S
In39 O50 2.294 . S
In39 O51 2.326 . S
O40 In39 2.294 . S
O40 C49 1.240 . S
O41 In39 2.326 . S
O41 C49 1.252 . S
C42 O45 1.252 . S
C42 O46 1.260 . S
C43 O50 1.240 . S
C43 O51 1.252 . S
C44 O47 1.252 . S
C44 O48 1.260 . S
O45 In39 2.266 . S
O45 C42 1.252 . S
O46 In39 2.326 . S
O46 C42 1.260 . S
O47 In39 2.266 . S
O47 C44 1.252 . S
O48 In39 2.326 . S
O48 C44 1.260 . S
C49 O40 1.240 . S
C49 O41 1.252 . S
O50 In39 2.294 . S
O50 C43 1.240 . S
O51 In39 2.326 . S
O51 C43 1.252 . S
In52 O53 2.294 . S
In52 O54 2.326 . S
In52 O58 2.266 . S
In52 O59 2.326 . S
In52 O60 2.266 . S
In52 O61 2.326 . S
In52 O63 2.294 . S
In52 O64 2.326 1_455 S
O53 In52 2.294 . S
O53 C62 1.240 . S
O54 In52 2.326 . S
O54 C62 1.252 . S
C55 O58 1.252 . S
C55 O59 1.260 . S
C56 O63 1.240 1_655 S
C56 O64 1.252 . S
C57 O60 1.252 . S
C57 O61 1.260 . S
O58 In52 2.266 . S
O58 C55 1.252 . S
O59 In52 2.326 . S
O59 C55 1.260 . S
O60 In52 2.266 . S
O60 C57 1.252 . S
O61 In52 2.326 . S
O61 C57 1.260 . S
C62 O53 1.240 . S
C62 O54 1.252 . S
O63 In52 2.294 . S
O63 C56 1.240 1_455 S
O64 In52 2.326 1_655 S
O64 C56 1.252 . S
In65 O66 2.294 . S
In65 O67 2.326 . S
In65 O71 2.266 . S
In65 O72 2.326 . S
In65 O73 2.266 . S
In65 O74 2.326 . S
In65 O76 2.294 . S
In65 O77 2.326 . S
O66 In65 2.294 . S
O66 C75 1.240 . S
O67 In65 2.326 . S
O67 C75 1.252 . S
C68 O71 1.252 . S
C68 O72 1.260 . S
C69 O76 1.240 . S
C69 O77 1.252 . S
C70 O73 1.252 . S
C70 O74 1.260 . S
O71 In65 2.266 . S
O71 C68 1.252 . S
O72 In65 2.326 . S
O72 C68 1.260 . S
O73 In65 2.266 . S
O73 C70 1.252 . S
O74 In65 2.326 . S
O74 C70 1.260 . S
C75 O66 1.240 . S
C75 O67 1.252 . S
O76 In65 2.294 . S
O76 C69 1.240 . S
O77 In65 2.326 . S
O77 C69 1.252 . S
In78 O79 2.294 . S
In78 O80 2.326 . S
In78 O84 2.266 . S
In78 O85 2.326 . S
In78 O86 2.266 . S
In78 O87 2.326 . S
In78 O89 2.294 . S
In78 O90 2.326 . S
O79 In78 2.294 . S
O79 C88 1.240 . S
O80 In78 2.326 . S
O80 C88 1.252 . S
C81 O84 1.252 . S
C81 O85 1.260 . S
C82 O89 1.240 . S
C82 O90 1.252 . S
C83 O86 1.252 . S
C83 O87 1.260 . S
O84 In78 2.266 . S
O84 C81 1.252 . S
O85 In78 2.326 . S
O85 C81 1.260 . S
O86 In78 2.266 . S
O86 C83 1.252 . S
O87 In78 2.326 . S
O87 C83 1.260 . S
C88 O79 1.240 . S
C88 O80 1.252 . S
O89 In78 2.294 . S
O89 C82 1.240 . S
O90 In78 2.326 . S
O90 C82 1.252 . S
In91 O92 2.294 . S
In91 O93 2.326 . S
In91 O97 2.266 . S
In91 O98 2.326 . S
In91 O99 2.266 . S
In91 O100 2.326 . S
In91 O102 2.294 . S
In91 O103 2.326 . S
O92 In91 2.294 . S
O92 C101 1.240 . S
O93 In91 2.326 . S
O93 C101 1.252 . S
C94 O97 1.252 . S
C94 O98 1.260 . S
C95 O102 1.240 . S
C95 O103 1.252 . S
C96 O99 1.258 . S
C96 O100 1.261 . S
O97 In91 2.266 . S
O97 C94 1.252 . S
O98 In91 2.326 . S
O98 C94 1.260 . S
O99 In91 2.266 . S
O99 C96 1.258 . S
O100 In91 2.326 . S
O100 C96 1.261 . S
C101 O92 1.240 . S
C101 O93 1.252 . S
O102 In91 2.294 . S
O102 C95 1.240 . S
O103 In91 2.326 . S
O103 C95 1.252 . S
In104 O105 2.294 . S
In104 O106 2.326 . S
In104 O110 2.266 . S
In104 O111 2.326 . S
In104 O112 2.266 . S
In104 O113 2.326 . S
In104 O115 2.294 . S
In104 O116 2.326 . S
O105 In104 2.294 . S
O105 C114 1.240 . S
O106 In104 2.326 . S
O106 C114 1.252 . S
C107 O110 1.252 . S
C107 O111 1.260 . S
C108 O115 1.240 . S
C108 O116 1.252 . S
C109 O112 1.252 . S
C109 O113 1.260 . S
O110 In104 2.266 . S
O110 C107 1.252 . S
O111 In104 2.326 . S
O111 C107 1.260 . S
O112 In104 2.266 . S
O112 C109 1.252 . S
O113 In104 2.326 . S
O113 C109 1.260 . S
C114 O105 1.240 . S
C114 O106 1.252 . S
O115 In104 2.294 . S
O115 C108 1.240 . S
O116 In104 2.326 . S
O116 C108 1.252 . S
In117 O118 2.294 . S
In117 O119 2.326 . S
In117 O123 2.266 . S
In117 O124 2.326 . S
In117 O125 2.266 . S
In117 O126 2.326 . S
In117 O128 2.294 . S
In117 O129 2.326 . S
O118 In117 2.294 . S
O118 C127 1.240 . S
O119 In117 2.326 . S
O119 C127 1.252 . S
C120 O123 1.252 . S
C120 O124 1.260 . S
C121 O128 1.240 . S
C121 O129 1.252 . S
C122 O125 1.252 . S
C122 O126 1.260 . S
O123 In117 2.266 . S
O123 C120 1.252 . S
O124 In117 2.326 . S
O124 C120 1.260 . S
O125 In117 2.266 . S
O125 C122 1.252 . S
O126 In117 2.326 . S
O126 C122 1.260 . S
C127 O118 1.240 . S
C127 O119 1.252 . S
O128 In117 2.294 . S
O128 C121 1.240 . S
O129 In117 2.326 . S
O129 C121 1.252 . S
In130 O131 2.294 . S
In130 O132 2.326 . S
In130 O136 2.266 . S
In130 O137 2.326 . S
In130 O138 2.266 . S
In130 O139 2.326 . S
In130 O141 2.294 . S
In130 O142 2.348 . S
O131 In130 2.294 . S
O131 C140 1.240 . S
O132 In130 2.326 . S
O132 C140 1.252 . S
C133 O136 1.252 . S
C133 O137 1.260 . S
C134 O141 1.255 . S
C134 O142 1.252 . S
C135 O138 1.252 . S
C135 O139 1.260 . S
O136 In130 2.266 . S
O136 C133 1.252 . S
O137 In130 2.326 . S
O137 C133 1.260 . S
O138 In130 2.266 . S
O138 C135 1.252 . S
O139 In130 2.326 . S
O139 C135 1.260 . S
C140 O131 1.240 . S
C140 O132 1.252 . S
O141 In130 2.294 . S
O141 C134 1.255 . S
O142 In130 2.348 . S
O142 C134 1.252 . S
In143 O144 2.294 . S
In143 O145 2.326 . S
In143 O149 2.266 . S
In143 O150 2.326 . S
In143 O151 2.266 . S
In143 O152 2.326 . S
In143 O154 2.294 . S
In143 O155 2.326 . S
O144 In143 2.294 . S
O144 C153 1.240 . S
O145 In143 2.326 . S
O145 C153 1.252 . S
C146 O149 1.252 . S
C146 O150 1.260 . S
C147 O154 1.240 . S
C147 O155 1.252 . S
C148 O151 1.252 . S
C148 O152 1.260 . S
O149 In143 2.266 . S
O149 C146 1.252 . S
O150 In143 2.326 . S
O150 C146 1.260 . S
O151 In143 2.266 . S
O151 C148 1.252 . S
O152 In143 2.326 . S
O152 C148 1.260 . S
C153 O144 1.240 . S
C153 O145 1.252 . S
O154 In143 2.294 . S
O154 C147 1.240 . S
O155 In143 2.326 . S
O155 C147 1.252 . S
In156 O157 2.294 . S
In156 O158 2.326 . S
In156 O162 2.266 . S
In156 O163 2.326 . S
In156 O164 2.266 . S
In156 O165 2.326 . S
In156 O167 2.294 . S
In156 O168 2.326 . S
O157 In156 2.294 . S
O157 C166 1.240 . S
O158 In156 2.326 . S
O158 C166 1.252 . S
C159 O162 1.252 . S
C159 O163 1.260 . S
C160 O167 1.240 . S
C160 O168 1.252 . S
C161 O164 1.252 . S
C161 O165 1.260 . S
O162 In156 2.266 . S
O162 C159 1.252 . S
O163 In156 2.326 . S
O163 C159 1.260 . S
O164 In156 2.266 . S
O164 C161 1.252 . S
O165 In156 2.326 . S
O165 C161 1.260 . S
C166 O157 1.240 . S
C166 O158 1.252 . S
O167 In156 2.294 . S
O167 C160 1.240 . S
O168 In156 2.326 . S
O168 C160 1.252 . S
In169 O170 2.294 . S
In169 O171 2.326 . S
In169 O175 2.266 . S
In169 O176 2.326 . S
In169 O177 2.266 . S
In169 O178 2.326 . S
In169 O180 2.294 . S
In169 O181 2.326 . S
O170 In169 2.294 . S
O170 C179 1.240 . S
O171 In169 2.326 . S
O171 C179 1.252 . S
C172 O175 1.252 . S
C172 O176 1.260 . S
C173 O180 1.240 . S
C173 O181 1.252 . S
C174 O177 1.252 . S
C174 O178 1.260 . S
O175 In169 2.266 . S
O175 C172 1.252 . S
O176 In169 2.326 . S
O176 C172 1.260 . S
O177 In169 2.266 . S
O177 C174 1.252 . S
O178 In169 2.326 . S
O178 C174 1.260 . S
C179 O170 1.240 . S
C179 O171 1.252 . S
O180 In169 2.294 . S
O180 C173 1.240 . S
O181 In169 2.326 . S
O181 C173 1.252 . S
In182 O183 2.294 . S
In182 O184 2.326 . S
In182 O188 2.266 . S
In182 O189 2.326 . S
In182 O190 2.266 . S
In182 O191 2.326 . S
In182 O193 2.294 . S
In182 O194 2.326 . S
O183 In182 2.294 . S
O183 C192 1.240 . S
O184 In182 2.326 . S
O184 C192 1.252 . S
C185 O188 1.252 . S
C185 O189 1.260 . S
C186 O193 1.240 . S
C186 O194 1.252 . S
C187 O190 1.252 . S
C187 O191 1.260 . S
O188 In182 2.266 . S
O188 C185 1.252 . S
O189 In182 2.326 . S
O189 C185 1.260 . S
O190 In182 2.266 . S
O190 C187 1.252 . S
O191 In182 2.326 . S
O191 C187 1.260 . S
C192 O183 1.240 . S
C192 O184 1.252 . S
O193 In182 2.294 . S
O193 C186 1.240 . S
O194 In182 2.326 . S
O194 C186 1.252 . S
In195 O196 2.294 . S
In195 O197 2.326 1_565 S
In195 O201 2.266 . S
In195 O202 2.325 1_565 S
In195 O203 2.266 1_565 S
In195 O204 2.326 . S
In195 O206 2.294 1_565 S
In195 O207 2.326 . S
O196 In195 2.294 . S
O196 C205 1.240 . S
O197 In195 2.326 1_545 S
O197 C205 1.252 1_545 S
C198 O201 1.252 . S
C198 O202 1.260 1_565 S
C199 O206 1.240 . S
C199 O207 1.252 1_545 S
C200 O203 1.252 . S
C200 O204 1.260 1_545 S
O201 In195 2.266 . S
O201 C198 1.252 . S
O202 In195 2.325 1_545 S
O202 C198 1.260 1_545 S
O203 In195 2.266 1_545 S
O203 C200 1.252 . S
O204 In195 2.326 . S
O204 C200 1.260 1_565 S
C205 O196 1.240 . S
C205 O197 1.252 1_565 S
O206 In195 2.294 1_545 S
O206 C199 1.240 . S
O207 In195 2.326 . S
O207 C199 1.252 1_565 S
In208 O209 2.294 . S
In208 O210 2.326 . S
In208 O214 2.266 . S
In208 O215 2.326 . S
In208 O216 2.266 . S
In208 O217 2.326 . S
In208 O219 2.294 . S
In208 O220 2.326 . S
O209 In208 2.294 . S
O209 C218 1.240 . S
O210 In208 2.326 . S
O210 C218 1.252 . S
C211 O214 1.252 . S
C211 O215 1.260 . S
C212 O219 1.240 . S
C212 O220 1.252 . S
C213 O216 1.252 . S
C213 O217 1.260 . S
O214 In208 2.266 . S
O214 C211 1.252 . S
O215 In208 2.326 . S
O215 C211 1.260 . S
O216 In208 2.266 . S
O216 C213 1.252 . S
O217 In208 2.326 . S
O217 C213 1.260 . S
C218 O209 1.240 . S
C218 O210 1.252 . S
O219 In208 2.294 . S
O219 C212 1.240 . S
O220 In208 2.326 . S
O220 C212 1.252 . S
In221 O222 2.294 . S
In221 O223 2.326 . S
In221 O227 2.266 . S
In221 O228 2.326 . S
In221 O229 2.266 . S
In221 O230 2.326 . S
In221 O232 2.294 . S
In221 O233 2.326 . S
O222 In221 2.294 . S
O222 C231 1.240 . S
O223 In221 2.326 . S
O223 C231 1.252 . S
C224 O227 1.252 . S
C224 O228 1.260 . S
C225 O232 1.240 . S
C225 O233 1.252 . S
C226 O229 1.252 . S
C226 O230 1.260 . S
O227 In221 2.266 . S
O227 C224 1.252 . S
O228 In221 2.326 . S
O228 C224 1.260 . S
O229 In221 2.266 . S
O229 C226 1.252 . S
O230 In221 2.326 . S
O230 C226 1.260 . S
C231 O222 1.240 . S
C231 O223 1.252 . S
O232 In221 2.294 . S
O232 C225 1.240 . S
O233 In221 2.326 . S
O233 C225 1.252 . S
In234 O235 2.294 . S
In234 O236 2.326 . S
In234 O240 2.266 . S
In234 O241 2.326 . S
In234 O242 2.266 . S
In234 O243 2.326 . S
In234 O245 2.294 . S
In234 O246 2.326 . S
O235 In234 2.294 . S
O235 C244 1.240 . S
O236 In234 2.326 . S
O236 C244 1.252 . S
C237 O240 1.252 . S
C237 O241 1.260 . S
C238 O245 1.240 . S
C238 O246 1.252 . S
C239 O242 1.252 . S
C239 O243 1.260 . S
O240 In234 2.266 . S
O240 C237 1.252 . S
O241 In234 2.326 . S
O241 C237 1.260 . S
O242 In234 2.266 . S
O242 C239 1.252 . S
O243 In234 2.326 . S
O243 C239 1.260 . S
C244 O235 1.240 . S
C244 O236 1.252 . S
O245 In234 2.294 . S
O245 C238 1.240 . S
O246 In234 2.326 . S
O246 C238 1.252 . S
In247 O248 2.296 1_545 S
In247 O249 2.330 1_545 S
In247 O253 2.264 . S
In247 O254 2.322 . S
In247 O255 2.266 . S
In247 O256 2.326 . S
In247 O258 2.294 1_545 S
In247 O259 2.326 1_545 S
O248 In247 2.296 1_565 S
O248 C257 1.240 . S
O249 In247 2.330 1_565 S
O249 C257 1.252 . S
C250 O253 1.252 . S
C250 O254 1.260 . S
C251 O258 1.240 . S
C251 O259 1.252 . S
C252 O255 1.252 . S
C252 O256 1.260 . S
O253 In247 2.264 . S
O253 C250 1.252 . S
O254 In247 2.322 . S
O254 C250 1.260 . S
O255 In247 2.266 . S
O255 C252 1.252 . S
O256 In247 2.326 . S
O256 C252 1.260 . S
C257 O248 1.240 . S
C257 O249 1.252 . S
O258 In247 2.294 1_565 S
O258 C251 1.240 . S
O259 In247 2.326 1_565 S
O259 C251 1.252 . S
In260 O261 2.294 . S
In260 O262 2.326 . S
In260 O266 2.266 1_554 S
In260 O267 2.326 1_554 S
In260 O268 2.264 1_554 S
In260 O269 2.322 1_554 S
In260 O271 2.296 . S
In260 O272 2.330 . S
O261 In260 2.294 . S
O261 C270 1.240 . S
O262 In260 2.326 . S
O262 C270 1.252 . S
C263 O266 1.252 . S
C263 O267 1.260 . S
C264 O271 1.240 . S
C264 O272 1.252 . S
C265 O268 1.252 . S
C265 O269 1.260 . S
O266 In260 2.266 1_556 S
O266 C263 1.252 . S
O267 In260 2.326 1_556 S
O267 C263 1.260 . S
O268 In260 2.264 1_556 S
O268 C265 1.252 . S
O269 In260 2.322 1_556 S
O269 C265 1.260 . S
C270 O261 1.240 . S
C270 O262 1.252 . S
O271 In260 2.296 . S
O271 C264 1.240 . S
O272 In260 2.330 . S
O272 C264 1.252 . S
In273 O274 2.294 . S
In273 O275 2.326 . S
In273 O279 2.266 . S
In273 O280 2.326 . S
In273 O281 2.266 . S
In273 O282 2.326 . S
In273 O284 2.294 . S
In273 O285 2.326 . S
O274 In273 2.294 . S
O274 C283 1.240 . S
O275 In273 2.326 . S
O275 C283 1.252 . S
C276 O279 1.252 . S
C276 O280 1.260 . S
C277 O284 1.240 . S
C277 O285 1.252 . S
C278 O281 1.252 . S
C278 O282 1.260 . S
O279 In273 2.266 . S
O279 C276 1.252 . S
O280 In273 2.326 . S
O280 C276 1.260 . S
O281 In273 2.266 . S
O281 C278 1.252 . S
O282 In273 2.326 . S
O282 C278 1.260 . S
C283 O274 1.240 . S
C283 O275 1.252 . S
O284 In273 2.294 . S
O284 C277 1.240 . S
O285 In273 2.326 . S
O285 C277 1.252 . S
In286 O287 2.294 . S
In286 O288 2.326 . S
In286 O292 2.266 . S
In286 O293 2.326 . S
In286 O294 2.266 . S
In286 O295 2.326 . S
In286 O297 2.294 . S
In286 O298 2.326 . S
O287 In286 2.294 . S
O287 C296 1.240 . S
O288 In286 2.326 . S
O288 C296 1.252 . S
C289 O292 1.252 . S
C289 O293 1.260 . S
C290 O297 1.240 . S
C290 O298 1.252 . S
C291 O294 1.252 . S
C291 O295 1.260 . S
O292 In286 2.266 . S
O292 C289 1.252 . S
O293 In286 2.326 . S
O293 C289 1.260 . S
O294 In286 2.266 . S
O294 C291 1.252 . S
O295 In286 2.326 . S
O295 C291 1.260 . S
C296 O287 1.240 . S
C296 O288 1.252 . S
O297 In286 2.294 . S
O297 C290 1.240 . S
O298 In286 2.326 . S
O298 C290 1.252 . S
In299 O300 2.294 . S
In299 O301 2.326 . S
In299 O305 2.266 . S
In299 O306 2.326 . S
In299 O307 2.266 . S
In299 O308 2.326 . S
In299 O310 2.294 . S
In299 O311 2.326 . S
O300 In299 2.294 . S
O300 C309 1.240 . S
O301 In299 2.326 . S
O301 C309 1.252 . S
C302 O305 1.252 . S
C302 O306 1.260 . S
C303 O310 1.240 . S
C303 O311 1.252 . S
C304 O307 1.252 . S
C304 O308 1.260 . S
O305 In299 2.266 . S
O305 C302 1.252 . S
O306 In299 2.326 . S
O306 C302 1.260 . S
O307 In299 2.266 . S
O307 C304 1.252 . S
O308 In299 2.326 . S
O308 C304 1.260 . S
C309 O300 1.240 . S
C309 O301 1.252 . S
O310 In299 2.294 . S
O310 C303 1.240 . S
O311 In299 2.326 . S
O311 C303 1.252 . S
Nd312 C314 2.836 . S
Nd312 O332 2.500 . S
Nd312 O333 2.492 . S
Nd312 O334 2.487 . S
Nd312 O335 2.682 . S
Nd312 O336 2.410 . S
Nd312 O341 2.414 . S
Nd312 O343 2.424 . S
Nd313 C323 2.836 1_545 S
Nd313 O335 2.414 . S
Nd313 O337 2.424 . S
Nd313 O338 2.500 . S
Nd313 O339 2.492 . S
Nd313 O340 2.487 . S
Nd313 O341 2.682 . S
Nd313 O342 2.410 . S
C314 Nd312 2.836 . S
C314 C315 1.498 . S
C314 O332 1.258 . S
C314 O333 1.239 . S
C315 C314 1.498 . S
C315 C316 1.366 . S
C315 C320 1.407 . S
C316 C315 1.366 . S
C316 C317 1.392 . S
C316 H344 0.930 . S
C317 C316 1.392 . S
C317 C318 1.398 . S
C317 H345 0.929 . S
C318 C317 1.398 . S
C318 C319 1.352 . S
C319 C318 1.352 . S
C319 C320 1.384 . S
C319 H346 0.930 . S
C320 C315 1.407 . S
C320 C319 1.384 . S
C320 H347 0.929 . S
C321 O334 1.241 . S
C321 O335 1.273 . S
C322 O336 1.251 . S
C322 O337 1.268 . S
C323 Nd313 2.836 1_565 S
C323 C324 1.498 . S
C323 O338 1.258 1_565 S
C323 O339 1.239 1_565 S
C324 C323 1.498 . S
C324 C325 1.366 . S
C324 C329 1.407 . S
C325 C324 1.366 . S
C325 C326 1.392 . S
C325 H348 0.930 . S
C326 C325 1.392 . S
C326 C327 1.398 . S
C326 H349 0.929 . S
C327 C326 1.398 . S
C327 C328 1.352 . S
C328 C327 1.352 . S
C328 C329 1.384 . S
C328 H350 0.930 . S
C329 C324 1.407 . S
C329 C328 1.384 . S
C329 H351 0.929 . S
C330 O340 1.241 . S
C330 O341 1.273 . S
C331 O342 1.251 . S
C331 O343 1.268 . S
O332 Nd312 2.500 . S
O332 C314 1.258 . S
O333 Nd312 2.492 . S
O333 C314 1.239 . S
O334 Nd312 2.487 . S
O334 C321 1.241 . S
O335 Nd312 2.682 . S
O335 Nd313 2.414 . S
O335 C321 1.273 . S
O336 Nd312 2.410 . S
O336 C322 1.251 . S
O337 Nd313 2.424 . S
O337 C322 1.268 . S
O338 Nd313 2.500 . S
O338 C323 1.258 1_545 S
O339 Nd313 2.492 . S
O339 C323 1.239 1_545 S
O340 Nd313 2.487 . S
O340 C330 1.241 . S
O341 Nd312 2.414 . S
O341 Nd313 2.682 . S
O341 C330 1.273 . S
O342 Nd313 2.410 . S
O342 C331 1.251 . S
O343 Nd312 2.424 . S
O343 C331 1.268 . S
H344 C316 0.930 . S
H345 C317 0.929 . S
H346 C319 0.930 . S
H347 C320 0.929 . S
H348 C325 0.930 . S
H349 C326 0.929 . S
H350 C328 0.930 . S
H351 C329 0.929 . S
Nd352 C354 2.836 . S
Nd352 O372 2.500 . S
Nd352 O373 2.492 . S
Nd352 O374 2.487 . S
Nd352 O375 2.682 . S
Nd352 O376 2.410 . S
Nd352 O381 2.414 . S
Nd352 O383 2.424 . S
Nd353 C363 2.836 . S
Nd353 O375 2.414 . S
Nd353 O377 2.424 . S
Nd353 O378 2.500 . S
Nd353 O379 2.492 . S
Nd353 O380 2.487 . S
Nd353 O381 2.682 . S
Nd353 O382 2.410 . S
C354 Nd352 2.836 . S
C354 C355 1.498 . S
C354 O372 1.258 . S
C354 O373 1.239 . S
C355 C354 1.498 . S
C355 C356 1.366 . S
C355 C360 1.407 . S
C356 C355 1.366 . S
C356 C357 1.392 . S
C356 H384 0.930 . S
C357 C356 1.392 . S
C357 C358 1.398 1_565 S
C357 H385 0.929 1_565 S
C358 C357 1.398 1_545 S
C358 C359 1.352 . S
C359 C358 1.352 . S
C359 C360 1.384 1_545 S
C359 H386 0.930 . S
C360 C355 1.407 . S
C360 C359 1.384 1_565 S
C360 H387 0.929 . S
C361 O374 1.241 . S
C361 O375 1.273 . S
C362 O376 1.251 . S
C362 O377 1.268 . S
C363 Nd353 2.836 . S
C363 C364 1.498 . S
C363 O378 1.258 . S
C363 O379 1.239 . S
C364 C363 1.498 . S
C364 C365 1.366 . S
C364 C369 1.407 . S
C365 C364 1.366 . S
C365 C366 1.392 . S
C365 H388 0.930 . S
C366 C365 1.392 . S
C366 C367 1.398 . S
C366 H389 0.929 . S
C367 C366 1.398 . S
C367 C368 1.352 . S
C368 C367 1.352 . S
C368 C369 1.384 . S
C368 H390 0.930 . S
C369 C364 1.407 . S
C369 C368 1.384 . S
C369 H391 0.929 . S
C370 O380 1.241 . S
C370 O381 1.273 . S
C371 O382 1.251 . S
C371 O383 1.268 . S
O372 Nd352 2.500 . S
O372 C354 1.258 . S
O373 Nd352 2.492 . S
O373 C354 1.239 . S
O374 Nd352 2.487 . S
O374 C361 1.241 . S
O375 Nd352 2.682 . S
O375 Nd353 2.414 . S
O375 C361 1.273 . S
O376 Nd352 2.410 . S
O376 C362 1.251 . S
O377 Nd353 2.424 . S
O377 C362 1.268 . S
O378 Nd353 2.500 . S
O378 C363 1.258 . S
O379 Nd353 2.492 . S
O379 C363 1.239 . S
O380 Nd353 2.487 . S
O380 C370 1.241 . S
O381 Nd352 2.414 . S
O381 Nd353 2.682 . S
O381 C370 1.273 . S
O382 Nd353 2.410 . S
O382 C371 1.251 . S
O383 Nd352 2.424 . S
O383 C371 1.268 . S
H384 C356 0.930 . S
H385 C357 0.929 1_545 S
H386 C359 0.930 . S
H387 C360 0.929 . S
H388 C365 0.930 . S
H389 C366 0.929 . S
H390 C368 0.930 . S
H391 C369 0.929 . S
Nd392 C394 2.836 . S
Nd392 O412 2.500 . S
Nd392 O413 2.492 . S
Nd392 O414 2.487 . S
Nd392 O415 2.682 . S
Nd392 O416 2.410 . S
Nd392 O421 2.414 . S
Nd392 O423 2.424 . S
Nd393 C403 2.836 . S
Nd393 O415 2.414 . S
Nd393 O417 2.424 . S
Nd393 O418 2.500 . S
Nd393 O419 2.492 . S
Nd393 O420 2.487 . S
Nd393 O421 2.682 . S
Nd393 O422 2.410 . S
C394 Nd392 2.836 . S
C394 C395 1.498 . S
C394 O412 1.258 . S
C394 O413 1.239 . S
C395 C394 1.498 . S
C395 C396 1.366 . S
C395 C400 1.407 . S
C396 C395 1.366 . S
C396 C397 1.392 . S
C396 H424 0.930 . S
C397 C396 1.392 . S
C397 C398 1.398 . S
C397 H425 0.929 . S
C398 C397 1.398 . S
C398 C399 1.352 . S
C399 C398 1.352 . S
C399 C400 1.384 . S
C399 H426 0.930 . S
C400 C395 1.407 . S
C400 C399 1.384 . S
C400 H427 0.929 . S
C401 O414 1.241 . S
C401 O415 1.273 . S
C402 O416 1.251 . S
C402 O417 1.268 . S
C403 Nd393 2.836 . S
C403 C404 1.498 . S
C403 O418 1.258 . S
C403 O419 1.239 . S
C404 C403 1.498 . S
C404 C405 1.366 . S
C404 C409 1.407 . S
C405 C404 1.366 . S
C405 C406 1.392 . S
C405 H428 0.930 . S
C406 C405 1.392 . S
C406 C407 1.398 . S
C406 H429 0.929 . S
C407 C406 1.398 . S
C407 C408 1.352 . S
C408 C407 1.352 . S
C408 C409 1.384 . S
C408 H430 0.930 . S
C409 C404 1.407 . S
C409 C408 1.384 . S
C409 H431 0.929 . S
C410 O420 1.241 . S
C410 O421 1.273 . S
C411 O422 1.251 . S
C411 O423 1.268 . S
O412 Nd392 2.500 . S
O412 C394 1.258 . S
O413 Nd392 2.492 . S
O413 C394 1.239 . S
O414 Nd392 2.487 . S
O414 C401 1.241 . S
O415 Nd392 2.682 . S
O415 Nd393 2.414 . S
O415 C401 1.273 . S
O416 Nd392 2.410 . S
O416 C402 1.251 . S
O417 Nd393 2.424 . S
O417 C402 1.268 . S
O418 Nd393 2.500 . S
O418 C403 1.258 . S
O419 Nd393 2.492 . S
O419 C403 1.239 . S
O420 Nd393 2.487 . S
O420 C410 1.241 . S
O421 Nd392 2.414 . S
O421 Nd393 2.682 . S
O421 C410 1.273 . S
O422 Nd393 2.410 . S
O422 C411 1.251 . S
O423 Nd392 2.424 . S
O423 C411 1.268 . S
H424 C396 0.930 . S
H425 C397 0.929 . S
H426 C399 0.930 . S
H427 C400 0.929 . S
H428 C405 0.930 . S
H429 C406 0.929 . S
H430 C408 0.930 . S
H431 C409 0.929 . S
Nd432 C434 2.836 . S
Nd432 O452 2.500 . S
Nd432 O453 2.492 . S
Nd432 O454 2.487 . S
Nd432 O455 2.682 . S
Nd432 O456 2.410 . S
Nd432 O461 2.414 . S
Nd432 O463 2.424 . S
Nd433 C443 2.836 . S
Nd433 O455 2.414 . S
Nd433 O457 2.424 . S
Nd433 O458 2.500 . S
Nd433 O459 2.492 . S
Nd433 O460 2.487 . S
Nd433 O461 2.682 . S
Nd433 O462 2.410 . S
C434 Nd432 2.836 . S
C434 C435 1.498 . S
C434 O452 1.258 . S
C434 O453 1.239 . S
C435 C434 1.498 . S
C435 C436 1.366 . S
C435 C440 1.407 . S
C436 C435 1.366 . S
C436 C437 1.392 1_556 S
C436 H464 0.930 . S
C437 C436 1.392 1_554 S
C437 C438 1.398 . S
C437 H465 0.929 . S
C438 C437 1.398 . S
C438 C439 1.352 . S
C439 C438 1.352 . S
C439 C440 1.384 1_554 S
C439 H466 0.930 . S
C440 C435 1.407 . S
C440 C439 1.384 1_556 S
C440 H467 0.929 . S
C441 O454 1.241 . S
C441 O455 1.273 . S
C442 O456 1.251 . S
C442 O457 1.268 . S
C443 Nd433 2.836 . S
C443 C444 1.498 . S
C443 O458 1.258 . S
C443 O459 1.239 . S
C444 C443 1.498 . S
C444 C445 1.366 . S
C444 C449 1.407 . S
C445 C444 1.366 . S
C445 C446 1.392 . S
C445 H468 0.930 . S
C446 C445 1.392 . S
C446 C447 1.398 . S
C446 H469 0.929 . S
C447 C446 1.398 . S
C447 C448 1.352 . S
C448 C447 1.352 . S
C448 C449 1.384 . S
C448 H470 0.930 . S
C449 C444 1.407 . S
C449 C448 1.384 . S
C449 H471 0.929 . S
C450 O460 1.241 . S
C450 O461 1.273 . S
C451 O462 1.251 . S
C451 O463 1.268 . S
O452 Nd432 2.500 . S
O452 C434 1.258 . S
O453 Nd432 2.492 . S
O453 C434 1.239 . S
O454 Nd432 2.487 . S
O454 C441 1.241 . S
O455 Nd432 2.682 . S
O455 Nd433 2.414 . S
O455 C441 1.273 . S
O456 Nd432 2.410 . S
O456 C442 1.251 . S
O457 Nd433 2.424 . S
O457 C442 1.268 . S
O458 Nd433 2.500 . S
O458 C443 1.258 . S
O459 Nd433 2.492 . S
O459 C443 1.239 . S
O460 Nd433 2.487 . S
O460 C450 1.241 . S
O461 Nd432 2.414 . S
O461 Nd433 2.682 . S
O461 C450 1.273 . S
O462 Nd433 2.410 . S
O462 C451 1.251 . S
O463 Nd432 2.424 . S
O463 C451 1.268 . S
H464 C436 0.930 . S
H465 C437 0.929 . S
H466 C439 0.930 . S
H467 C440 0.929 . S
H468 C445 0.930 . S
H469 C446 0.929 . S
H470 C448 0.930 . S
H471 C449 0.929 . S
Nd472 C474 2.836 . S
Nd472 O492 2.500 . S
Nd472 O493 2.492 . S
Nd472 O494 2.487 . S
Nd472 O495 2.682 . S
Nd472 O496 2.410 . S
Nd472 O501 2.414 . S
Nd472 O503 2.424 . S
Nd473 C483 2.836 1_545 S
Nd473 O495 2.414 . S
Nd473 O497 2.424 . S
Nd473 O498 2.500 1_545 S
Nd473 O499 2.492 1_545 S
Nd473 O500 2.487 1_455 S
Nd473 O501 2.682 . S
Nd473 O502 2.410 . S
C474 Nd472 2.836 . S
C474 C475 1.498 . S
C474 O492 1.258 . S
C474 O493 1.239 . S
C475 C474 1.498 . S
C475 C476 1.366 . S
C475 C480 1.407 . S
C476 C475 1.366 . S
C476 C477 1.392 . S
C476 H504 0.930 . S
C477 C476 1.392 . S
C477 C478 1.398 . S
C477 H505 0.929 1_455 S
C478 C477 1.398 . S
C478 C479 1.352 . S
C479 C478 1.352 . S
C479 C480 1.384 . S
C479 H506 0.930 . S
C480 C475 1.407 . S
C480 C479 1.384 . S
C480 H507 0.929 . S
C481 O494 1.241 . S
C481 O495 1.273 . S
C482 O496 1.251 . S
C482 O497 1.268 . S
C483 Nd473 2.836 1_565 S
C483 C484 1.498 . S
C483 O498 1.258 . S
C483 O499 1.239 . S
C484 C483 1.498 . S
C484 C485 1.366 . S
C484 C489 1.407 . S
C485 C484 1.366 . S
C485 C486 1.392 . S
C485 H508 0.930 . S
C486 C485 1.392 . S
C486 C487 1.398 . S
C486 H509 0.929 . S
C487 C486 1.398 . S
C487 C488 1.352 . S
C488 C487 1.352 . S
C488 C489 1.384 . S
C488 H510 0.930 . S
C489 C484 1.407 . S
C489 C488 1.384 . S
C489 H511 0.929 . S
C490 O500 1.241 1_455 S
C490 O501 1.273 . S
C491 O502 1.251 . S
C491 O503 1.268 . S
O492 Nd472 2.500 . S
O492 C474 1.258 . S
O493 Nd472 2.492 . S
O493 C474 1.239 . S
O494 Nd472 2.487 . S
O494 C481 1.241 . S
O495 Nd472 2.682 . S
O495 Nd473 2.414 . S
O495 C481 1.273 . S
O496 Nd472 2.410 . S
O496 C482 1.251 . S
O497 Nd473 2.424 . S
O497 C482 1.268 . S
O498 Nd473 2.500 1_565 S
O498 C483 1.258 . S
O499 Nd473 2.492 1_565 S
O499 C483 1.239 . S
O500 Nd473 2.487 1_655 S
O500 C490 1.241 1_655 S
O501 Nd472 2.414 . S
O501 Nd473 2.682 . S
O501 C490 1.273 . S
O502 Nd473 2.410 . S
O502 C491 1.251 . S
O503 Nd472 2.424 . S
O503 C491 1.268 . S
H504 C476 0.930 . S
H505 C477 0.929 1_655 S
H506 C479 0.930 . S
H507 C480 0.929 . S
H508 C485 0.930 . S
H509 C486 0.929 . S
H510 C488 0.930 . S
H511 C489 0.929 . S
Nd512 C514 2.836 . S
Nd512 O532 2.500 . S
Nd512 O533 2.492 . S
Nd512 O534 2.487 . S
Nd512 O535 2.682 . S
Nd512 O536 2.410 . S
Nd512 O541 2.414 . S
Nd512 O543 2.424 . S
Nd513 C523 2.836 . S
Nd513 O535 2.414 . S
Nd513 O537 2.424 . S
Nd513 O538 2.500 . S
Nd513 O539 2.492 . S
Nd513 O540 2.487 . S
Nd513 O541 2.682 . S
Nd513 O542 2.410 . S
C514 Nd512 2.836 . S
C514 C515 1.498 . S
C514 O532 1.258 . S
C514 O533 1.239 . S
C515 C514 1.498 . S
C515 C516 1.366 . S
C515 C520 1.407 . S
C516 C515 1.366 . S
C516 C517 1.392 . S
C516 H544 0.930 . S
C517 C516 1.392 . S
C517 C518 1.398 . S
C517 H545 0.929 . S
C518 C517 1.398 . S
C518 C519 1.352 . S
C519 C518 1.352 . S
C519 C520 1.384 . S
C519 H546 0.930 . S
C520 C515 1.407 . S
C520 C519 1.384 . S
C520 H547 0.929 . S
C521 O534 1.241 . S
C521 O535 1.273 . S
C522 O536 1.251 . S
C522 O537 1.268 . S
C523 Nd513 2.836 . S
C523 C524 1.498 . S
C523 O538 1.258 . S
C523 O539 1.239 . S
C524 C523 1.498 . S
C524 C525 1.366 . S
C524 C529 1.407 . S
C525 C524 1.366 . S
C525 C526 1.392 . S
C525 H548 0.930 . S
C526 C525 1.392 . S
C526 C527 1.398 . S
C526 H549 0.929 . S
C527 C526 1.398 . S
C527 C528 1.352 . S
C528 C527 1.352 . S
C528 C529 1.384 . S
C528 H550 0.930 . S
C529 C524 1.407 . S
C529 C528 1.384 . S
C529 H551 0.929 . S
C530 O540 1.241 . S
C530 O541 1.273 . S
C531 O542 1.251 . S
C531 O543 1.268 . S
O532 Nd512 2.500 . S
O532 C514 1.258 . S
O533 Nd512 2.492 . S
O533 C514 1.239 . S
O534 Nd512 2.487 . S
O534 C521 1.241 . S
O535 Nd512 2.682 . S
O535 Nd513 2.414 . S
O535 C521 1.273 . S
O536 Nd512 2.410 . S
O536 C522 1.251 . S
O537 Nd513 2.424 . S
O537 C522 1.268 . S
O538 Nd513 2.500 . S
O538 C523 1.258 . S
O539 Nd513 2.492 . S
O539 C523 1.239 . S
O540 Nd513 2.487 . S
O540 C530 1.241 . S
O541 Nd512 2.414 . S
O541 Nd513 2.682 . S
O541 C530 1.273 . S
O542 Nd513 2.410 . S
O542 C531 1.251 . S
O543 Nd512 2.424 . S
O543 C531 1.268 . S
H544 C516 0.930 . S
H545 C517 0.929 . S
H546 C519 0.930 . S
H547 C520 0.929 . S
H548 C525 0.930 . S
H549 C526 0.929 . S
H550 C528 0.930 . S
H551 C529 0.929 . S
Nd552 C554 2.836 . S
Nd552 O572 2.500 . S
Nd552 O573 2.492 . S
Nd552 O574 2.487 . S
Nd552 O575 2.682 . S
Nd552 O576 2.410 . S
Nd552 O581 2.414 . S
Nd552 O583 2.424 1_554 S
Nd553 C563 2.836 . S
Nd553 O575 2.414 . S
Nd553 O577 2.424 . S
Nd553 O578 2.500 . S
Nd553 O579 2.492 . S
Nd553 O580 2.487 . S
Nd553 O581 2.682 . S
Nd553 O582 2.410 . S
C554 Nd552 2.836 . S
C554 C555 1.498 . S
C554 O572 1.258 . S
C554 O573 1.239 . S
C555 C554 1.498 . S
C555 C556 1.366 . S
C555 C560 1.407 . S
C556 C555 1.366 . S
C556 C557 1.392 . S
C556 H584 0.930 . S
C557 C556 1.392 . S
C557 C558 1.398 . S
C557 H585 0.929 . S
C558 C557 1.398 . S
C558 C559 1.352 1_545 S
C559 C558 1.352 1_565 S
C559 C560 1.384 1_565 S
C559 H586 0.930 . S
C560 C555 1.407 . S
C560 C559 1.384 1_545 S
C560 H587 0.929 1_545 S
C561 O574 1.241 . S
C561 O575 1.273 . S
C562 O576 1.251 . S
C562 O577 1.268 . S
C563 Nd553 2.836 . S
C563 C564 1.498 . S
C563 O578 1.258 . S
C563 O579 1.239 . S
C564 C563 1.498 . S
C564 C565 1.366 . S
C564 C569 1.407 . S
C565 C564 1.366 . S
C565 C566 1.392 . S
C565 H588 0.930 . S
C566 C565 1.392 . S
C566 C567 1.398 . S
C566 H589 0.929 . S
C567 C566 1.398 . S
C567 C568 1.352 . S
C568 C567 1.352 . S
C568 C569 1.384 . S
C568 H590 0.930 . S
C569 C564 1.407 . S
C569 C568 1.384 . S
C569 H591 0.929 . S
C570 O580 1.241 . S
C570 O581 1.273 . S
C571 O582 1.251 1_556 S
C571 O583 1.268 . S
O572 Nd552 2.500 . S
O572 C554 1.258 . S
O573 Nd552 2.492 . S
O573 C554 1.239 . S
O574 Nd552 2.487 . S
O574 C561 1.241 . S
O575 Nd552 2.682 . S
O575 Nd553 2.414 . S
O575 C561 1.273 . S
O576 Nd552 2.410 . S
O576 C562 1.251 . S
O577 Nd553 2.424 . S
O577 C562 1.268 . S
O578 Nd553 2.500 . S
O578 C563 1.258 . S
O579 Nd553 2.492 . S
O579 C563 1.239 . S
O580 Nd553 2.487 . S
O580 C570 1.241 . S
O581 Nd552 2.414 . S
O581 Nd553 2.682 . S
O581 C570 1.273 . S
O582 Nd553 2.410 . S
O582 C571 1.251 1_554 S
O583 Nd552 2.424 1_556 S
O583 C571 1.268 . S
H584 C556 0.930 . S
H585 C557 0.929 . S
H586 C559 0.930 . S
H587 C560 0.929 1_565 S
H588 C565 0.930 . S
H589 C566 0.929 . S
H590 C568 0.930 . S
H591 C569 0.929 . S
Nd592 C594 2.836 . S
Nd592 O612 2.500 . S
Nd592 O613 2.492 . S
Nd592 O614 2.487 . S
Nd592 O615 2.682 . S
Nd592 O616 2.410 . S
Nd592 O621 2.414 . S
Nd592 O623 2.424 . S
Nd593 C603 2.836 . S
Nd593 O615 2.414 . S
Nd593 O617 2.424 . S
Nd593 O618 2.500 . S
Nd593 O619 2.492 . S
Nd593 O620 2.487 . S
Nd593 O621 2.682 . S
Nd593 O622 2.410 . S
C594 Nd592 2.836 . S
C594 C595 1.498 . S
C594 O612 1.258 . S
C594 O613 1.239 . S
C595 C594 1.498 . S
C595 C596 1.366 . S
C595 C600 1.407 . S
C596 C595 1.366 . S
C596 C597 1.392 . S
C596 H624 0.930 . S
C597 C596 1.392 . S
C597 C598 1.398 . S
C597 H625 0.929 . S
C598 C597 1.398 . S
C598 C599 1.352 . S
C599 C598 1.352 . S
C599 C600 1.384 . S
C599 H626 0.930 . S
C600 C595 1.407 . S
C600 C599 1.384 . S
C600 H627 0.929 . S
C601 O614 1.241 . S
C601 O615 1.273 . S
C602 O616 1.251 . S
C602 O617 1.268 . S
C603 Nd593 2.836 . S
C603 C604 1.498 . S
C603 O618 1.258 . S
C603 O619 1.239 . S
C604 C603 1.498 . S
C604 C605 1.366 . S
C604 C609 1.407 . S
C605 C604 1.366 . S
C605 C606 1.392 . S
C605 H628 0.930 . S
C606 C605 1.392 . S
C606 C607 1.398 . S
C606 H629 0.929 . S
C607 C606 1.398 . S
C607 C608 1.352 . S
C608 C607 1.352 . S
C608 C609 1.384 . S
C608 H630 0.930 . S
C609 C604 1.407 . S
C609 C608 1.384 . S
C609 H631 0.929 . S
C610 O620 1.241 . S
C610 O621 1.273 . S
C611 O622 1.251 . S
C611 O623 1.268 . S
O612 Nd592 2.500 . S
O612 C594 1.258 . S
O613 Nd592 2.492 . S
O613 C594 1.239 . S
O614 Nd592 2.487 . S
O614 C601 1.241 . S
O615 Nd592 2.682 . S
O615 Nd593 2.414 . S
O615 C601 1.273 . S
O616 Nd592 2.410 . S
O616 C602 1.251 . S
O617 Nd593 2.424 . S
O617 C602 1.268 . S
O618 Nd593 2.500 . S
O618 C603 1.258 . S
O619 Nd593 2.492 . S
O619 C603 1.239 . S
O620 Nd593 2.487 . S
O620 C610 1.241 . S
O621 Nd592 2.414 . S
O621 Nd593 2.682 . S
O621 C610 1.273 . S
O622 Nd593 2.410 . S
O622 C611 1.251 . S
O623 Nd592 2.424 . S
O623 C611 1.268 . S
H624 C596 0.930 . S
H625 C597 0.929 . S
H626 C599 0.930 . S
H627 C600 0.929 . S
H628 C605 0.930 . S
H629 C606 0.929 . S
H630 C608 0.930 . S
H631 C609 0.929 . S
Nd632 C634 2.836 . S
Nd632 O652 2.500 . S
Nd632 O653 2.492 . S
Nd632 O654 2.487 . S
Nd632 O655 2.682 . S
Nd632 O656 2.410 . S
Nd632 O661 2.414 . S
Nd632 O663 2.424 . S
Nd633 C643 2.836 . S
Nd633 O655 2.414 . S
Nd633 O657 2.424 . S
Nd633 O658 2.500 . S
Nd633 O659 2.492 . S
Nd633 O660 2.487 . S
Nd633 O661 2.682 . S
Nd633 O662 2.410 . S
C634 Nd632 2.836 . S
C634 C635 1.498 . S
C634 O652 1.258 . S
C634 O653 1.239 . S
C635 C634 1.498 . S
C635 C636 1.366 . S
C635 C640 1.407 . S
C636 C635 1.366 . S
C636 C637 1.392 . S
C636 H664 0.930 . S
C637 C636 1.392 . S
C637 C638 1.398 . S
C637 H665 0.929 . S
C638 C637 1.398 . S
C638 C639 1.352 . S
C639 C638 1.352 . S
C639 C640 1.384 . S
C639 H666 0.930 . S
C640 C635 1.407 . S
C640 C639 1.384 . S
C640 H667 0.929 . S
C641 O654 1.241 . S
C641 O655 1.273 . S
C642 O656 1.251 . S
C642 O657 1.268 . S
C643 Nd633 2.836 . S
C643 C644 1.498 . S
C643 O658 1.258 . S
C643 O659 1.239 . S
C644 C643 1.498 . S
C644 C645 1.366 . S
C644 C649 1.407 . S
C645 C644 1.366 . S
C645 C646 1.392 . S
C645 H668 0.930 . S
C646 C645 1.392 . S
C646 C647 1.398 . S
C646 H669 0.929 . S
C647 C646 1.398 . S
C647 C648 1.352 . S
C648 C647 1.352 . S
C648 C649 1.384 . S
C648 H670 0.930 . S
C649 C644 1.407 . S
C649 C648 1.384 . S
C649 H671 0.929 . S
C650 O660 1.241 . S
C650 O661 1.273 . S
C651 O662 1.251 . S
C651 O663 1.268 . S
O652 Nd632 2.500 . S
O652 C634 1.258 . S
O653 Nd632 2.492 . S
O653 C634 1.239 . S
O654 Nd632 2.487 . S
O654 C641 1.241 . S
O655 Nd632 2.682 . S
O655 Nd633 2.414 . S
O655 C641 1.273 . S
O656 Nd632 2.410 . S
O656 C642 1.251 . S
O657 Nd633 2.424 . S
O657 C642 1.268 . S
O658 Nd633 2.500 . S
O658 C643 1.258 . S
O659 Nd633 2.492 . S
O659 C643 1.239 . S
O660 Nd633 2.487 . S
O660 C650 1.241 . S
O661 Nd632 2.414 . S
O661 Nd633 2.682 . S
O661 C650 1.273 . S
O662 Nd633 2.410 . S
O662 C651 1.251 . S
O663 Nd632 2.424 . S
O663 C651 1.268 . S
H664 C636 0.930 . S
H665 C637 0.929 . S
H666 C639 0.930 . S
H667 C640 0.929 . S
H668 C645 0.930 . S
H669 C646 0.929 . S
H670 C648 0.930 . S
H671 C649 0.929 . S
Nd672 C674 2.836 . S
Nd672 O692 2.500 . S
Nd672 O693 2.492 . S
Nd672 O694 2.487 . S
Nd672 O695 2.682 . S
Nd672 O696 2.410 . S
Nd672 O701 2.414 . S
Nd672 O703 2.424 . S
Nd673 C683 2.836 . S
Nd673 O695 2.414 . S
Nd673 O697 2.424 . S
Nd673 O698 2.500 . S
Nd673 O699 2.492 . S
Nd673 O700 2.487 . S
Nd673 O701 2.682 . S
Nd673 O702 2.410 . S
C674 Nd672 2.836 . S
C674 C675 1.498 . S
C674 O692 1.258 . S
C674 O693 1.239 . S
C675 C674 1.498 . S
C675 C676 1.366 . S
C675 C680 1.407 . S
C676 C675 1.366 . S
C676 C677 1.392 . S
C676 H704 0.930 . S
C677 C676 1.392 . S
C677 C678 1.398 . S
C677 H705 0.929 . S
C678 C677 1.398 . S
C678 C679 1.352 . S
C679 C678 1.352 . S
C679 C680 1.384 . S
C679 H706 0.930 . S
C680 C675 1.407 . S
C680 C679 1.384 . S
C680 H707 0.929 . S
C681 O694 1.241 . S
C681 O695 1.273 . S
C682 O696 1.251 . S
C682 O697 1.268 . S
C683 Nd673 2.836 . S
C683 C684 1.498 . S
C683 O698 1.258 . S
C683 O699 1.239 . S
C684 C683 1.498 . S
C684 C685 1.366 . S
C684 C689 1.407 . S
C685 C684 1.366 . S
C685 C686 1.392 . S
C685 H708 0.930 . S
C686 C685 1.392 . S
C686 C687 1.398 . S
C686 H709 0.929 . S
C687 C686 1.398 . S
C687 C688 1.352 . S
C688 C687 1.352 . S
C688 C689 1.384 . S
C688 H710 0.930 . S
C689 C684 1.407 . S
C689 C688 1.384 . S
C689 H711 0.929 . S
C690 O700 1.241 . S
C690 O701 1.273 . S
C691 O702 1.251 . S
C691 O703 1.268 . S
O692 Nd672 2.500 . S
O692 C674 1.258 . S
O693 Nd672 2.492 . S
O693 C674 1.239 . S
O694 Nd672 2.487 . S
O694 C681 1.241 . S
O695 Nd672 2.682 . S
O695 Nd673 2.414 . S
O695 C681 1.273 . S
O696 Nd672 2.410 . S
O696 C682 1.251 . S
O697 Nd673 2.424 . S
O697 C682 1.268 . S
O698 Nd673 2.500 . S
O698 C683 1.258 . S
O699 Nd673 2.492 . S
O699 C683 1.239 . S
O700 Nd673 2.487 . S
O700 C690 1.241 . S
O701 Nd672 2.414 . S
O701 Nd673 2.682 . S
O701 C690 1.273 . S
O702 Nd673 2.410 . S
O702 C691 1.251 . S
O703 Nd672 2.424 . S
O703 C691 1.268 . S
H704 C676 0.930 . S
H705 C677 0.929 . S
H706 C679 0.930 . S
H707 C680 0.929 . S
H708 C685 0.930 . S
H709 C686 0.929 . S
H710 C688 0.930 . S
H711 C689 0.929 . S
Nd712 C714 2.836 . S
Nd712 O732 2.500 . S
Nd712 O733 2.492 . S
Nd712 O734 2.487 1_655 S
Nd712 O735 2.682 1_655 S
Nd712 O736 2.410 1_655 S
Nd712 O741 2.414 1_655 S
Nd712 O743 2.424 1_655 S
Nd713 C723 2.836 . S
Nd713 O735 2.414 . S
Nd713 O737 2.424 . S
Nd713 O738 2.500 . S
Nd713 O739 2.492 . S
Nd713 O740 2.487 . S
Nd713 O741 2.682 . S
Nd713 O742 2.410 . S
C714 Nd712 2.836 . S
C714 C715 1.498 . S
C714 O732 1.258 . S
C714 O733 1.239 . S
C715 C714 1.498 . S
C715 C716 1.366 . S
C715 C720 1.407 . S
C716 C715 1.366 . S
C716 C717 1.392 . S
C716 H744 0.930 . S
C717 C716 1.392 . S
C717 C718 1.398 . S
C717 H745 0.929 . S
C718 C717 1.398 . S
C718 C719 1.352 . S
C719 C718 1.352 . S
C719 C720 1.384 . S
C719 H746 0.930 . S
C720 C715 1.407 . S
C720 C719 1.384 . S
C720 H747 0.929 . S
C721 O734 1.241 . S
C721 O735 1.273 . S
C722 O736 1.251 . S
C722 O737 1.268 . S
C723 Nd713 2.836 . S
C723 C724 1.498 . S
C723 O738 1.258 . S
C723 O739 1.239 . S
C724 C723 1.498 . S
C724 C725 1.366 . S
C724 C729 1.407 . S
C725 C724 1.366 . S
C725 C726 1.392 . S
C725 H748 0.930 . S
C726 C725 1.392 . S
C726 C727 1.398 . S
C726 H749 0.929 . S
C727 C726 1.398 . S
C727 C728 1.352 . S
C728 C727 1.352 . S
C728 C729 1.384 . S
C728 H750 0.930 . S
C729 C724 1.407 . S
C729 C728 1.384 . S
C729 H751 0.929 . S
C730 O740 1.241 . S
C730 O741 1.273 . S
C731 O742 1.251 . S
C731 O743 1.268 . S
O732 Nd712 2.500 . S
O732 C714 1.258 . S
O733 Nd712 2.492 . S
O733 C714 1.239 . S
O734 Nd712 2.487 1_455 S
O734 C721 1.241 . S
O735 Nd712 2.682 1_455 S
O735 Nd713 2.414 . S
O735 C721 1.273 . S
O736 Nd712 2.410 1_455 S
O736 C722 1.251 . S
O737 Nd713 2.424 . S
O737 C722 1.268 . S
O738 Nd713 2.500 . S
O738 C723 1.258 . S
O739 Nd713 2.492 . S
O739 C723 1.239 . S
O740 Nd713 2.487 . S
O740 C730 1.241 . S
O741 Nd712 2.414 1_455 S
O741 Nd713 2.682 . S
O741 C730 1.273 . S
O742 Nd713 2.410 . S
O742 C731 1.251 . S
O743 Nd712 2.424 1_455 S
O743 C731 1.268 . S
H744 C716 0.930 . S
H745 C717 0.929 . S
H746 C719 0.930 . S
H747 C720 0.929 . S
H748 C725 0.930 . S
H749 C726 0.929 . S
H750 C728 0.930 . S
H751 C729 0.929 . S
Nd752 C754 2.836 . S
Nd752 O772 2.500 . S
Nd752 O773 2.492 . S
Nd752 O774 2.487 . S
Nd752 O775 2.682 . S
Nd752 O776 2.410 . S
Nd752 O781 2.414 . S
Nd752 O783 2.424 . S
Nd753 C763 2.836 . S
Nd753 O775 2.414 . S
Nd753 O777 2.424 . S
Nd753 O778 2.500 . S
Nd753 O779 2.492 . S
Nd753 O780 2.487 . S
Nd753 O781 2.682 . S
Nd753 O782 2.410 . S
C754 Nd752 2.836 . S
C754 C755 1.498 . S
C754 O772 1.258 . S
C754 O773 1.239 . S
C755 C754 1.498 . S
C755 C756 1.366 . S
C755 C760 1.407 . S
C756 C755 1.366 . S
C756 C757 1.392 . S
C756 H784 0.930 . S
C757 C756 1.392 . S
C757 C758 1.398 . S
C757 H785 0.929 . S
C758 C757 1.398 . S
C758 C759 1.352 . S
C759 C758 1.352 . S
C759 C760 1.384 . S
C759 H786 0.930 . S
C760 C755 1.407 . S
C760 C759 1.384 . S
C760 H787 0.929 . S
C761 O774 1.241 . S
C761 O775 1.273 . S
C762 O776 1.251 . S
C762 O777 1.268 . S
C763 Nd753 2.836 . S
C763 C764 1.498 . S
C763 O778 1.258 . S
C763 O779 1.239 . S
C764 C763 1.498 . S
C764 C765 1.366 . S
C764 C769 1.407 . S
C765 C764 1.366 . S
C765 C766 1.392 . S
C765 H788 0.930 . S
C766 C765 1.392 . S
C766 C767 1.398 . S
C766 H789 0.929 . S
C767 C766 1.398 . S
C767 C768 1.352 . S
C768 C767 1.352 . S
C768 C769 1.384 . S
C768 H790 0.930 . S
C769 C764 1.407 . S
C769 C768 1.384 . S
C769 H791 0.929 . S
C770 O780 1.241 . S
C770 O781 1.273 . S
C771 O782 1.251 . S
C771 O783 1.268 . S
O772 Nd752 2.500 . S
O772 C754 1.258 . S
O773 Nd752 2.492 . S
O773 C754 1.239 . S
O774 Nd752 2.487 . S
O774 C761 1.241 . S
O775 Nd752 2.682 . S
O775 Nd753 2.414 . S
O775 C761 1.273 . S
O776 Nd752 2.410 . S
O776 C762 1.251 . S
O777 Nd753 2.424 . S
O777 C762 1.268 . S
O778 Nd753 2.500 . S
O778 C763 1.258 . S
O779 Nd753 2.492 . S
O779 C763 1.239 . S
O780 Nd753 2.487 . S
O780 C770 1.241 . S
O781 Nd752 2.414 . S
O781 Nd753 2.682 . S
O781 C770 1.273 . S
O782 Nd753 2.410 . S
O782 C771 1.251 . S
O783 Nd752 2.424 . S
O783 C771 1.268 . S
H784 C756 0.930 . S
H785 C757 0.929 . S
H786 C759 0.930 . S
H787 C760 0.929 . S
H788 C765 0.930 . S
H789 C766 0.929 . S
H790 C768 0.930 . S
H791 C769 0.929 . S
Nd792 C794 2.836 . S
Nd792 O812 2.500 . S
Nd792 O813 2.492 . S
Nd792 O814 2.487 . S
Nd792 O815 2.682 . S
Nd792 O816 2.410 . S
Nd792 O821 2.414 . S
Nd792 O823 2.424 . S
Nd793 C803 2.836 . S
Nd793 O815 2.414 . S
Nd793 O817 2.424 . S
Nd793 O818 2.500 . S
Nd793 O819 2.492 . S
Nd793 O820 2.487 . S
Nd793 O821 2.682 . S
Nd793 O822 2.410 . S
C794 Nd792 2.836 . S
C794 C795 1.498 . S
C794 O812 1.258 . S
C794 O813 1.239 . S
C795 C794 1.498 . S
C795 C796 1.366 . S
C795 C800 1.407 . S
C796 C795 1.366 . S
C796 C797 1.392 . S
C796 H824 0.930 . S
C797 C796 1.392 . S
C797 C798 1.398 . S
C797 H825 0.929 . S
C798 C797 1.398 . S
C798 C799 1.352 . S
C799 C798 1.352 . S
C799 C800 1.384 . S
C799 H826 0.930 . S
C800 C795 1.407 . S
C800 C799 1.384 . S
C800 H827 0.929 . S
C801 O814 1.241 . S
C801 O815 1.273 . S
C802 O816 1.251 . S
C802 O817 1.268 . S
C803 Nd793 2.836 . S
C803 C804 1.498 . S
C803 O818 1.258 . S
C803 O819 1.239 . S
C804 C803 1.498 . S
C804 C805 1.366 . S
C804 C809 1.407 . S
C805 C804 1.366 . S
C805 C806 1.392 . S
C805 H828 0.930 . S
C806 C805 1.392 . S
C806 C807 1.398 . S
C806 H829 0.929 . S
C807 C806 1.398 . S
C807 C808 1.352 . S
C808 C807 1.352 . S
C808 C809 1.384 . S
C808 H830 0.930 . S
C809 C804 1.407 . S
C809 C808 1.384 . S
C809 H831 0.929 . S
C810 O820 1.241 . S
C810 O821 1.273 . S
C811 O822 1.251 . S
C811 O823 1.268 . S
O812 Nd792 2.500 . S
O812 C794 1.258 . S
O813 Nd792 2.492 . S
O813 C794 1.239 . S
O814 Nd792 2.487 . S
O814 C801 1.241 . S
O815 Nd792 2.682 . S
O815 Nd793 2.414 . S
O815 C801 1.273 . S
O816 Nd792 2.410 . S
O816 C802 1.251 . S
O817 Nd793 2.424 . S
O817 C802 1.268 . S
O818 Nd793 2.500 . S
O818 C803 1.258 . S
O819 Nd793 2.492 . S
O819 C803 1.239 . S
O820 Nd793 2.487 . S
O820 C810 1.241 . S
O821 Nd792 2.414 . S
O821 Nd793 2.682 . S
O821 C810 1.273 . S
O822 Nd793 2.410 . S
O822 C811 1.251 . S
O823 Nd792 2.424 . S
O823 C811 1.268 . S
H824 C796 0.930 . S
H825 C797 0.929 . S
H826 C799 0.930 . S
H827 C800 0.929 . S
H828 C805 0.930 . S
H829 C806 0.929 . S
H830 C808 0.930 . S
H831 C809 0.929 . S
Nd832 C834 2.836 . S
Nd832 O852 2.500 . S
Nd832 O853 2.492 . S
Nd832 O854 2.487 . S
Nd832 O855 2.682 . S
Nd832 O856 2.410 . S
Nd832 O861 2.414 . S
Nd832 O863 2.424 . S
Nd833 C843 2.836 . S
Nd833 O855 2.414 . S
Nd833 O857 2.424 . S
Nd833 O858 2.500 . S
Nd833 O859 2.492 . S
Nd833 O860 2.487 . S
Nd833 O861 2.682 . S
Nd833 O862 2.410 . S
C834 Nd832 2.836 . S
C834 C835 1.498 . S
C834 O852 1.258 . S
C834 O853 1.239 . S
C835 C834 1.498 . S
C835 C836 1.366 . S
C835 C840 1.407 . S
C836 C835 1.366 . S
C836 C837 1.392 . S
C836 H864 0.930 . S
C837 C836 1.392 . S
C837 C838 1.398 . S
C837 H865 0.929 . S
C838 C837 1.398 . S
C838 C839 1.352 . S
C839 C838 1.352 . S
C839 C840 1.384 . S
C839 H866 0.930 . S
C840 C835 1.407 . S
C840 C839 1.384 . S
C840 H867 0.929 . S
C841 O854 1.241 . S
C841 O855 1.273 . S
C842 O856 1.251 . S
C842 O857 1.268 . S
C843 Nd833 2.836 . S
C843 C844 1.498 . S
C843 O858 1.258 . S
C843 O859 1.239 . S
C844 C843 1.498 . S
C844 C845 1.366 . S
C844 C849 1.407 . S
C845 C844 1.366 . S
C845 C846 1.392 . S
C845 H868 0.930 . S
C846 C845 1.392 . S
C846 C847 1.398 . S
C846 H869 0.929 . S
C847 C846 1.398 . S
C847 C848 1.352 . S
C848 C847 1.352 . S
C848 C849 1.384 . S
C848 H870 0.930 . S
C849 C844 1.407 . S
C849 C848 1.384 . S
C849 H871 0.929 . S
C850 O860 1.241 . S
C850 O861 1.273 . S
C851 O862 1.251 . S
C851 O863 1.268 . S
O852 Nd832 2.500 . S
O852 C834 1.258 . S
O853 Nd832 2.492 . S
O853 C834 1.239 . S
O854 Nd832 2.487 . S
O854 C841 1.241 . S
O855 Nd832 2.682 . S
O855 Nd833 2.414 . S
O855 C841 1.273 . S
O856 Nd832 2.410 . S
O856 C842 1.251 . S
O857 Nd833 2.424 . S
O857 C842 1.268 . S
O858 Nd833 2.500 . S
O858 C843 1.258 . S
O859 Nd833 2.492 . S
O859 C843 1.239 . S
O860 Nd833 2.487 . S
O860 C850 1.241 . S
O861 Nd832 2.414 . S
O861 Nd833 2.682 . S
O861 C850 1.273 . S
O862 Nd833 2.410 . S
O862 C851 1.251 . S
O863 Nd832 2.424 . S
O863 C851 1.268 . S
H864 C836 0.930 . S
H865 C837 0.929 . S
H866 C839 0.930 . S
H867 C840 0.929 . S
H868 C845 0.930 . S
H869 C846 0.929 . S
H870 C848 0.930 . S
H871 C849 0.929 . S
Nd872 C874 2.836 . S
Nd872 O892 2.500 . S
Nd872 O893 2.492 . S
Nd872 O894 2.487 . S
Nd872 O895 2.682 . S
Nd872 O896 2.410 . S
Nd872 O901 2.414 . S
Nd872 O903 2.424 . S
Nd873 C883 2.836 . S
Nd873 O895 2.414 . S
Nd873 O897 2.424 . S
Nd873 O898 2.500 . S
Nd873 O899 2.492 . S
Nd873 O900 2.487 . S
Nd873 O901 2.682 . S
Nd873 O902 2.410 . S
C874 Nd872 2.836 . S
C874 C875 1.498 . S
C874 O892 1.258 . S
C874 O893 1.239 . S
C875 C874 1.498 . S
C875 C876 1.366 . S
C875 C880 1.407 . S
C876 C875 1.366 . S
C876 C877 1.392 . S
C876 H904 0.930 . S
C877 C876 1.392 . S
C877 C878 1.398 . S
C877 H905 0.929 . S
C878 C877 1.398 . S
C878 C879 1.352 . S
C879 C878 1.352 . S
C879 C880 1.384 . S
C879 H906 0.930 . S
C880 C875 1.407 . S
C880 C879 1.384 . S
C880 H907 0.929 . S
C881 O894 1.241 . S
C881 O895 1.273 . S
C882 O896 1.251 . S
C882 O897 1.268 . S
C883 Nd873 2.836 . S
C883 C884 1.498 . S
C883 O898 1.258 . S
C883 O899 1.239 . S
C884 C883 1.498 . S
C884 C885 1.366 . S
C884 C889 1.407 . S
C885 C884 1.366 . S
C885 C886 1.392 . S
C885 H908 0.930 . S
C886 C885 1.392 . S
C886 C887 1.398 . S
C886 H909 0.929 . S
C887 C886 1.398 . S
C887 C888 1.352 . S
C888 C887 1.352 . S
C888 C889 1.384 . S
C888 H910 0.930 . S
C889 C884 1.407 . S
C889 C888 1.384 . S
C889 H911 0.929 . S
C890 O900 1.241 . S
C890 O901 1.273 . S
C891 O902 1.251 . S
C891 O903 1.268 . S
O892 Nd872 2.500 . S
O892 C874 1.258 . S
O893 Nd872 2.492 . S
O893 C874 1.239 . S
O894 Nd872 2.487 . S
O894 C881 1.241 . S
O895 Nd872 2.682 . S
O895 Nd873 2.414 . S
O895 C881 1.273 . S
O896 Nd872 2.410 . S
O896 C882 1.251 . S
O897 Nd873 2.424 . S
O897 C882 1.268 . S
O898 Nd873 2.500 . S
O898 C883 1.258 . S
O899 Nd873 2.492 . S
O899 C883 1.239 . S
O900 Nd873 2.487 . S
O900 C890 1.241 . S
O901 Nd872 2.414 . S
O901 Nd873 2.682 . S
O901 C890 1.273 . S
O902 Nd873 2.410 . S
O902 C891 1.251 . S
O903 Nd872 2.424 . S
O903 C891 1.268 . S
H904 C876 0.930 . S
H905 C877 0.929 . S
H906 C879 0.930 . S
H907 C880 0.929 . S
H908 C885 0.930 . S
H909 C886 0.929 . S
H910 C888 0.930 . S
H911 C889 0.929 . S
Nd912 C914 2.836 . S
Nd912 O932 2.500 . S
Nd912 O933 2.492 . S
Nd912 O934 2.487 . S
Nd912 O935 2.682 . S
Nd912 O936 2.410 . S
Nd912 O941 2.414 . S
Nd912 O943 2.424 . S
Nd913 C923 2.836 . S
Nd913 O935 2.414 1_655 S
Nd913 O937 2.424 1_655 S
Nd913 O938 2.500 . S
Nd913 O939 2.492 . S
Nd913 O940 2.487 1_655 S
Nd913 O941 2.682 1_655 S
Nd913 O942 2.410 1_655 S
C914 Nd912 2.836 . S
C914 C915 1.498 . S
C914 O932 1.258 . S
C914 O933 1.239 . S
C915 C914 1.498 . S
C915 C916 1.366 . S
C915 C920 1.407 . S
C916 C915 1.366 . S
C916 C917 1.392 . S
C916 H944 0.930 . S
C917 C916 1.392 . S
C917 C918 1.398 . S
C917 H945 0.929 . S
C918 C917 1.398 . S
C918 C919 1.352 . S
C919 C918 1.352 . S
C919 C920 1.384 . S
C919 H946 0.930 . S
C920 C915 1.407 . S
C920 C919 1.384 . S
C920 H947 0.929 . S
C921 O934 1.241 . S
C921 O935 1.273 . S
C922 O936 1.251 . S
C922 O937 1.268 . S
C923 Nd913 2.836 . S
C923 C924 1.498 . S
C923 O938 1.258 . S
C923 O939 1.239 . S
C924 C923 1.498 . S
C924 C925 1.366 . S
C924 C929 1.407 . S
C925 C924 1.366 . S
C925 C926 1.392 . S
C925 H948 0.930 . S
C926 C925 1.392 . S
C926 C927 1.398 . S
C926 H949 0.929 . S
C927 C926 1.398 . S
C927 C928 1.352 . S
C928 C927 1.352 . S
C928 C929 1.384 . S
C928 H950 0.930 . S
C929 C924 1.407 . S
C929 C928 1.384 . S
C929 H951 0.929 . S
C930 O940 1.241 . S
C930 O941 1.273 . S
C931 O942 1.251 . S
C931 O943 1.268 . S
O932 Nd912 2.500 . S
O932 C914 1.258 . S
O933 Nd912 2.492 . S
O933 C914 1.239 . S
O934 Nd912 2.487 . S
O934 C921 1.241 . S
O935 Nd912 2.682 . S
O935 Nd913 2.414 1_455 S
O935 C921 1.273 . S
O936 Nd912 2.410 . S
O936 C922 1.251 . S
O937 Nd913 2.424 1_455 S
O937 C922 1.268 . S
O938 Nd913 2.500 . S
O938 C923 1.258 . S
O939 Nd913 2.492 . S
O939 C923 1.239 . S
O940 Nd913 2.487 1_455 S
O940 C930 1.241 . S
O941 Nd912 2.414 . S
O941 Nd913 2.682 1_455 S
O941 C930 1.273 . S
O942 Nd913 2.410 1_455 S
O942 C931 1.251 . S
O943 Nd912 2.424 . S
O943 C931 1.268 . S
H944 C916 0.930 . S
H945 C917 0.929 . S
H946 C919 0.930 . S
H947 C920 0.929 . S
H948 C925 0.930 . S
H949 C926 0.929 . S
H950 C928 0.930 . S
H951 C929 0.929 . S
C952 C953 1.369 . S
C952 C954 1.419 1_556 S
C952 H956 0.930 . S
C953 C952 1.369 . S
C953 C962 1.429 1_556 S
C954 C952 1.419 1_554 S
C954 C955 1.363 . S
C954 H957 0.929 . S
C955 C954 1.363 . S
C955 C961 1.428 . S
H956 C952 0.930 . S
H957 C954 0.929 . S
S958 N959 1.613 . S
S958 N960 1.610 . S
N959 S958 1.613 . S
N959 C962 1.350 . S
N960 S958 1.610 . S
N960 C961 1.351 . S
C961 C955 1.428 . S
C961 N960 1.351 . S
C961 C962 1.434 . S
C962 C953 1.429 1_554 S
C962 N959 1.350 . S
C962 C961 1.434 . S
C963 C964 1.369 . S
C963 C965 1.419 . S
C963 H967 0.930 . S
C964 C963 1.369 . S
C964 C973 1.429 . S
C965 C963 1.419 . S
C965 C966 1.363 . S
C965 H968 0.929 . S
C966 C965 1.363 . S
C966 C972 1.428 . S
H967 C963 0.930 . S
H968 C965 0.929 . S
S969 N970 1.613 . S
S969 N971 1.610 . S
N970 S969 1.613 . S
N970 C973 1.350 . S
N971 S969 1.610 . S
N971 C972 1.351 . S
C972 C966 1.428 . S
C972 N971 1.351 . S
C972 C973 1.434 . S
C973 C964 1.429 . S
C973 N970 1.350 . S
C973 C972 1.434 . S
C974 C975 1.369 . S
C974 C976 1.419 . S
C974 H978 0.930 . S
C975 C974 1.369 . S
C975 C984 1.429 . S
C976 C974 1.419 . S
C976 C977 1.363 . S
C976 H979 0.929 . S
C977 C976 1.363 . S
C977 C983 1.428 . S
H978 C974 0.930 . S
H979 C976 0.929 . S
S980 N981 1.613 . S
S980 N982 1.610 . S
N981 S980 1.613 . S
N981 C984 1.350 . S
N982 S980 1.610 . S
N982 C983 1.351 . S
C983 C977 1.428 . S
C983 N982 1.351 . S
C983 C984 1.434 . S
C984 C975 1.429 . S
C984 N981 1.350 . S
C984 C983 1.434 . S
C985 C986 1.369 . S
C985 C987 1.419 . S
C985 H989 0.930 . S
C986 C985 1.369 . S
C986 C995 1.429 . S
C987 C985 1.419 . S
C987 C988 1.363 . S
C987 H990 0.929 . S
C988 C987 1.363 . S
C988 C994 1.428 . S
H989 C985 0.930 . S
H990 C987 0.929 . S
S991 N992 1.613 . S
S991 N993 1.610 . S
N992 S991 1.613 . S
N992 C995 1.350 . S
N993 S991 1.610 . S
N993 C994 1.351 . S
C994 C988 1.428 . S
C994 N993 1.351 . S
C994 C995 1.434 . S
C995 C986 1.429 . S
C995 N992 1.350 . S
C995 C994 1.434 . S
C996 C997 1.369 . S
C996 C998 1.419 . S
C996 H1000 0.930 1_455 S
C997 C996 1.369 . S
C997 C1006 1.429 . S
C998 C996 1.419 . S
C998 C999 1.363 . S
C998 H1001 0.929 . S
C999 C998 1.363 . S
C999 C1005 1.428 . S
H1000 C996 0.930 1_655 S
H1001 C998 0.929 . S
S1002 N1003 1.613 . S
S1002 N1004 1.610 . S
N1003 S1002 1.613 . S
N1003 C1006 1.350 . S
N1004 S1002 1.610 . S
N1004 C1005 1.351 . S
C1005 C999 1.428 . S
C1005 N1004 1.351 . S
C1005 C1006 1.434 . S
C1006 C997 1.429 . S
C1006 N1003 1.350 . S
C1006 C1005 1.434 . S
C1007 C1008 1.369 . S
C1007 C1009 1.419 . S
C1007 H1011 0.930 . S
C1008 C1007 1.369 . S
C1008 C1017 1.429 . S
C1009 C1007 1.419 . S
C1009 C1010 1.363 . S
C1009 H1012 0.929 . S
C1010 C1009 1.363 . S
C1010 C1016 1.428 . S
H1011 C1007 0.930 . S
H1012 C1009 0.929 . S
S1013 N1014 1.613 . S
S1013 N1015 1.610 . S
N1014 S1013 1.613 . S
N1014 C1017 1.350 . S
N1015 S1013 1.610 . S
N1015 C1016 1.351 . S
C1016 C1010 1.428 . S
C1016 N1015 1.351 . S
C1016 C1017 1.434 . S
C1017 C1008 1.429 . S
C1017 N1014 1.350 . S
C1017 C1016 1.434 . S
C1018 C1019 1.369 . S
C1018 C1020 1.419 . S
C1018 H1022 0.930 . S
C1019 C1018 1.369 . S
C1019 C1028 1.429 . S
C1020 C1018 1.419 . S
C1020 C1021 1.363 . S
C1020 H1023 0.929 . S
C1021 C1020 1.363 . S
C1021 C1027 1.428 . S
H1022 C1018 0.930 . S
H1023 C1020 0.929 . S
S1024 N1025 1.613 1_556 S
S1024 N1026 1.610 1_556 S
N1025 S1024 1.613 1_554 S
N1025 C1028 1.350 . S
N1026 S1024 1.610 1_554 S
N1026 C1027 1.351 . S
C1027 C1021 1.428 . S
C1027 N1026 1.351 . S
C1027 C1028 1.434 . S
C1028 C1019 1.429 . S
C1028 N1025 1.350 . S
C1028 C1027 1.434 . S
C1029 C1030 1.369 . S
C1029 C1031 1.419 . S
C1029 H1033 0.930 . S
C1030 C1029 1.369 . S
C1030 C1039 1.429 . S
C1031 C1029 1.419 . S
C1031 C1032 1.363 . S
C1031 H1034 0.929 . S
C1032 C1031 1.363 . S
C1032 C1038 1.428 . S
H1033 C1029 0.930 . S
H1034 C1031 0.929 . S
S1035 N1036 1.613 . S
S1035 N1037 1.610 . S
N1036 S1035 1.613 . S
N1036 C1039 1.350 . S
N1037 S1035 1.610 . S
N1037 C1038 1.351 . S
C1038 C1032 1.428 . S
C1038 N1037 1.351 . S
C1038 C1039 1.434 . S
C1039 C1030 1.429 . S
C1039 N1036 1.350 . S
C1039 C1038 1.434 . S
C1040 C1041 1.369 . S
C1040 C1042 1.419 . S
C1040 H1044 0.930 . S
C1041 C1040 1.369 . S
C1041 C1050 1.397 1_655 S
C1042 C1040 1.419 . S
C1042 C1043 1.363 1_655 S
C1042 H1045 0.929 . S
C1043 C1042 1.363 1_455 S
C1043 C1049 1.428 . S
H1044 C1040 0.930 . S
H1045 C1042 0.929 . S
S1046 N1047 1.613 . S
S1046 N1048 1.610 . S
N1047 S1046 1.613 . S
N1047 C1050 1.350 . S
N1048 S1046 1.610 . S
N1048 C1049 1.351 . S
C1049 C1043 1.428 . S
C1049 N1048 1.351 . S
C1049 C1050 1.469 . S
C1050 C1041 1.397 1_455 S
C1050 N1047 1.350 . S
C1050 C1049 1.469 . S
C1051 C1052 1.369 . S
C1051 C1053 1.419 . S
C1051 H1055 0.930 . S
C1052 C1051 1.369 . S
C1052 C1061 1.429 . S
C1053 C1051 1.419 . S
C1053 C1054 1.363 . S
C1053 H1056 0.929 . S
C1054 C1053 1.363 . S
C1054 C1060 1.428 . S
H1055 C1051 0.930 . S
H1056 C1053 0.929 . S
S1057 N1058 1.613 . S
S1057 N1059 1.610 . S
N1058 S1057 1.613 . S
N1058 C1061 1.350 . S
N1059 S1057 1.610 . S
N1059 C1060 1.351 . S
C1060 C1054 1.428 . S
C1060 N1059 1.351 . S
C1060 C1061 1.434 . S
C1061 C1052 1.429 . S
C1061 N1058 1.350 . S
C1061 C1060 1.434 . S
C1062 C1063 1.340 1_545 S
C1062 C1064 1.419 . S
C1062 H1066 0.930 . S
C1063 C1062 1.340 1_565 S
C1063 C1072 1.435 . S
C1064 C1062 1.419 . S
C1064 C1065 1.363 . S
C1064 H1067 0.929 . S
C1065 C1064 1.363 . S
C1065 C1071 1.438 . S
H1066 C1062 0.930 . S
H1067 C1064 0.929 . S
S1068 N1069 1.613 . S
S1068 N1070 1.610 . S
N1069 S1068 1.613 . S
N1069 C1072 1.350 . S
N1070 S1068 1.610 . S
N1070 C1071 1.348 1_565 S
C1071 C1065 1.438 . S
C1071 N1070 1.348 1_545 S
C1071 C1072 1.427 1_545 S
C1072 C1063 1.435 . S
C1072 N1069 1.350 . S
C1072 C1071 1.427 1_565 S
C1073 C1074 1.369 . S
C1073 C1075 1.419 . S
C1073 H1077 0.930 . S
C1074 C1073 1.369 . S
C1074 C1083 1.429 . S
C1075 C1073 1.419 . S
C1075 C1076 1.363 . S
C1075 H1078 0.929 . S
C1076 C1075 1.363 . S
C1076 C1082 1.428 . S
H1077 C1073 0.930 . S
H1078 C1075 0.929 . S
S1079 N1080 1.613 . S
S1079 N1081 1.610 . S
N1080 S1079 1.613 . S
N1080 C1083 1.350 . S
N1081 S1079 1.610 . S
N1081 C1082 1.351 . S
C1082 C1076 1.428 . S
C1082 N1081 1.351 . S
C1082 C1083 1.434 . S
C1083 C1074 1.429 . S
C1083 N1080 1.350 . S
C1083 C1082 1.434 . S
C1084 C1085 1.369 . S
C1084 C1086 1.419 . S
C1084 H1088 0.930 . S
C1085 C1084 1.369 . S
C1085 C1094 1.429 . S
C1086 C1084 1.419 . S
C1086 C1087 1.363 1_655 S
C1086 H1089 0.929 . S
C1087 C1086 1.363 1_455 S
C1087 C1093 1.428 . S
H1088 C1084 0.930 . S
H1089 C1086 0.929 . S
S1090 N1091 1.613 . S
S1090 N1092 1.610 . S
N1091 S1090 1.613 . S
N1091 C1094 1.350 1_455 S
N1092 S1090 1.610 . S
N1092 C1093 1.351 . S
C1093 C1087 1.428 . S
C1093 N1092 1.351 . S
C1093 C1094 1.434 1_455 S
C1094 C1085 1.429 . S
C1094 N1091 1.350 1_655 S
C1094 C1093 1.434 1_655 S
C1095 C1096 1.369 . S
C1095 C1097 1.419 . S
C1095 H1099 0.930 . S
C1096 C1095 1.369 . S
C1096 C1105 1.429 . S
C1097 C1095 1.419 . S
C1097 C1098 1.363 . S
C1097 H1100 0.929 . S
C1098 C1097 1.363 . S
C1098 C1104 1.428 . S
H1099 C1095 0.930 . S
H1100 C1097 0.929 . S
S1101 N1102 1.613 . S
S1101 N1103 1.610 . S
N1102 S1101 1.613 . S
N1102 C1105 1.350 . S
N1103 S1101 1.610 . S
N1103 C1104 1.351 . S
C1104 C1098 1.428 . S
C1104 N1103 1.351 . S
C1104 C1105 1.434 . S
C1105 C1096 1.429 . S
C1105 N1102 1.350 . S
C1105 C1104 1.434 . S
C1106 C1107 1.369 . S
C1106 C1108 1.419 . S
C1106 H1110 0.930 . S
C1107 C1106 1.369 . S
C1107 C1116 1.429 . S
C1108 C1106 1.419 . S
C1108 C1109 1.363 . S
C1108 H1111 0.929 . S
C1109 C1108 1.363 . S
C1109 C1115 1.428 . S
H1110 C1106 0.930 . S
H1111 C1108 0.929 . S
S1112 N1113 1.613 . S
S1112 N1114 1.610 . S
N1113 S1112 1.613 . S
N1113 C1116 1.350 . S
N1114 S1112 1.610 . S
N1114 C1115 1.351 . S
C1115 C1109 1.428 . S
C1115 N1114 1.351 . S
C1115 C1116 1.434 . S
C1116 C1107 1.429 . S
C1116 N1113 1.350 . S
C1116 C1115 1.434 . S
C1117 C1118 1.369 . S
C1117 C1119 1.419 . S
C1117 H1121 0.930 . S
C1118 C1117 1.369 . S
C1118 C1127 1.429 . S
C1119 C1117 1.419 . S
C1119 C1120 1.363 . S
C1119 H1122 0.929 . S
C1120 C1119 1.363 . S
C1120 C1126 1.428 . S
H1121 C1117 0.930 . S
H1122 C1119 0.929 . S
S1123 N1124 1.613 . S
S1123 N1125 1.610 . S
N1124 S1123 1.613 . S
N1124 C1127 1.350 . S
N1125 S1123 1.610 . S
N1125 C1126 1.351 . S
C1126 C1120 1.428 . S
C1126 N1125 1.351 . S
C1126 C1127 1.434 . S
C1127 C1118 1.429 . S
C1127 N1124 1.350 . S
C1127 C1126 1.434 . S
C1128 C1129 1.369 . S
C1128 C1130 1.419 1_565 S
C1128 H1132 0.930 . S
C1129 C1128 1.369 . S
C1129 C1138 1.429 . S
C1130 C1128 1.419 1_545 S
C1130 C1131 1.363 . S
C1130 H1133 0.929 . S
C1131 C1130 1.363 . S
C1131 C1137 1.428 . S
H1132 C1128 0.930 . S
H1133 C1130 0.929 . S
S1134 N1135 1.613 . S
S1134 N1136 1.610 1_565 S
N1135 S1134 1.613 . S
N1135 C1138 1.350 . S
N1136 S1134 1.610 1_545 S
N1136 C1137 1.351 . S
C1137 C1131 1.428 . S
C1137 N1136 1.351 . S
C1137 C1138 1.434 1_545 S
C1138 C1129 1.429 . S
C1138 N1135 1.350 . S
C1138 C1137 1.434 1_565 S
C1139 C1140 1.369 . S
C1139 C1141 1.419 1_556 S
C1139 H1143 0.930 . S
C1140 C1139 1.369 . S
C1140 C1149 1.429 1_556 S
C1141 C1139 1.419 1_554 S
C1141 C1142 1.363 . S
C1141 H1144 0.929 . S
C1142 C1141 1.363 . S
C1142 C1148 1.428 . S
H1143 C1139 0.930 . S
H1144 C1141 0.929 . S
S1145 N1146 1.613 . S
S1145 N1147 1.610 . S
N1146 S1145 1.613 . S
N1146 C1149 1.350 . S
N1147 S1145 1.610 . S
N1147 C1148 1.351 . S
C1148 C1142 1.428 . S
C1148 N1147 1.351 . S
C1148 C1149 1.434 . S
C1149 C1140 1.429 1_554 S
C1149 N1146 1.350 . S
C1149 C1148 1.434 . S
C1150 C1151 1.369 . S
C1150 C1152 1.419 . S
C1150 H1154 0.930 . S
C1151 C1150 1.369 . S
C1151 C1160 1.429 . S
C1152 C1150 1.419 . S
C1152 C1153 1.363 . S
C1152 H1155 0.929 . S
C1153 C1152 1.363 . S
C1153 C1159 1.428 . S
H1154 C1150 0.930 . S
H1155 C1152 0.929 . S
S1156 N1157 1.613 . S
S1156 N1158 1.610 . S
N1157 S1156 1.613 . S
N1157 C1160 1.350 . S
N1158 S1156 1.610 . S
N1158 C1159 1.351 . S
C1159 C1153 1.428 . S
C1159 N1158 1.351 . S
C1159 C1160 1.434 . S
C1160 C1151 1.429 . S
C1160 N1157 1.350 . S
C1160 C1159 1.434 . S
C1161 C1162 1.369 . S
C1161 C1163 1.419 . S
C1161 H1165 0.930 . S
C1162 C1161 1.369 . S
C1162 C1171 1.429 . S
C1163 C1161 1.419 . S
C1163 C1164 1.363 . S
C1163 H1166 0.929 . S
C1164 C1163 1.363 . S
C1164 C1170 1.428 . S
H1165 C1161 0.930 . S
H1166 C1163 0.929 . S
S1167 N1168 1.613 . S
S1167 N1169 1.610 . S
N1168 S1167 1.613 . S
N1168 C1171 1.350 . S
N1169 S1167 1.610 . S
N1169 C1170 1.351 . S
C1170 C1164 1.428 . S
C1170 N1169 1.351 . S
C1170 C1171 1.434 . S
C1171 C1162 1.429 . S
C1171 N1168 1.350 . S
C1171 C1170 1.434 . S
C1172 C1173 1.369 . S
C1172 C1174 1.419 . S
C1172 H1176 0.930 . S
C1173 C1172 1.369 . S
C1173 C1182 1.429 . S
C1174 C1172 1.419 . S
C1174 C1175 1.363 . S
C1174 H1177 0.929 . S
C1175 C1174 1.363 . S
C1175 C1181 1.428 . S
H1176 C1172 0.930 . S
H1177 C1174 0.929 . S
S1178 N1179 1.613 . S
S1178 N1180 1.610 . S
N1179 S1178 1.613 . S
N1179 C1182 1.350 . S
N1180 S1178 1.610 . S
N1180 C1181 1.351 . S
C1181 C1175 1.428 . S
C1181 N1180 1.351 . S
C1181 C1182 1.434 . S
C1182 C1173 1.429 . S
C1182 N1179 1.350 . S
C1182 C1181 1.434 . S
C1183 C1184 1.369 . S
C1183 C1185 1.419 . S
C1183 H1187 0.930 . S
C1184 C1183 1.369 . S
C1184 C1193 1.429 . S
C1185 C1183 1.419 . S
C1185 C1186 1.363 . S
C1185 H1188 0.929 . S
C1186 C1185 1.363 . S
C1186 C1192 1.428 . S
H1187 C1183 0.930 . S
H1188 C1185 0.929 . S
S1189 N1190 1.613 . S
S1189 N1191 1.610 . S
N1190 S1189 1.613 . S
N1190 C1193 1.350 . S
N1191 S1189 1.610 . S
N1191 C1192 1.351 . S
C1192 C1186 1.428 . S
C1192 N1191 1.351 . S
C1192 C1193 1.434 . S
C1193 C1184 1.429 . S
C1193 N1190 1.350 . S
C1193 C1192 1.434 . S
C1194 C1195 1.369 . S
C1194 C1196 1.419 . S
C1194 H1198 0.930 . S
C1195 C1194 1.369 . S
C1195 C1204 1.429 . S
C1196 C1194 1.419 . S
C1196 C1197 1.363 . S
C1196 H1199 0.929 . S
C1197 C1196 1.363 . S
C1197 C1203 1.428 . S
H1198 C1194 0.930 . S
H1199 C1196 0.929 . S
S1200 N1201 1.613 . S
S1200 N1202 1.610 . S
N1201 S1200 1.613 . S
N1201 C1204 1.350 . S
N1202 S1200 1.610 . S
N1202 C1203 1.351 . S
C1203 C1197 1.428 . S
C1203 N1202 1.351 . S
C1203 C1204 1.434 . S
C1204 C1195 1.429 . S
C1204 N1201 1.350 . S
C1204 C1203 1.434 . S
C1205 C1206 1.369 . S
C1205 C1207 1.419 . S
C1205 H1209 0.930 . S
C1206 C1205 1.369 . S
C1206 C1215 1.429 . S
C1207 C1205 1.419 . S
C1207 C1208 1.363 . S
C1207 H1210 0.929 . S
C1208 C1207 1.363 . S
C1208 C1214 1.428 . S
H1209 C1205 0.930 . S
H1210 C1207 0.929 . S
S1211 N1212 1.613 . S
S1211 N1213 1.610 . S
N1212 S1211 1.613 . S
N1212 C1215 1.350 . S
N1213 S1211 1.610 . S
N1213 C1214 1.351 . S
C1214 C1208 1.428 . S
C1214 N1213 1.351 . S
C1214 C1215 1.434 . S
C1215 C1206 1.429 . S
C1215 N1212 1.350 . S
C1215 C1214 1.434 . S
C1216 C1217 1.369 . S
C1216 C1218 1.419 . S
C1216 H1220 0.930 . S
C1217 C1216 1.369 . S
C1217 C1226 1.429 . S
C1218 C1216 1.419 . S
C1218 C1219 1.363 . S
C1218 H1221 0.929 . S
C1219 C1218 1.363 . S
C1219 C1225 1.428 . S
H1220 C1216 0.930 . S
H1221 C1218 0.929 . S
S1222 N1223 1.613 1_655 S
S1222 N1224 1.610 1_655 S
N1223 S1222 1.613 1_455 S
N1223 C1226 1.350 . S
N1224 S1222 1.610 1_455 S
N1224 C1225 1.351 . S
C1225 C1219 1.428 . S
C1225 N1224 1.351 . S
C1225 C1226 1.434 . S
C1226 C1217 1.429 . S
C1226 N1223 1.350 . S
C1226 C1225 1.434 . S
C1227 C1228 1.369 . S
C1227 C1229 1.419 . S
C1227 H1231 0.930 . S
C1228 C1227 1.369 . S
C1228 C1237 1.429 . S
C1229 C1227 1.419 . S
C1229 C1230 1.363 . S
C1229 H1232 0.929 . S
C1230 C1229 1.363 . S
C1230 C1236 1.428 . S
H1231 C1227 0.930 . S
H1232 C1229 0.929 . S
S1233 N1234 1.613 . S
S1233 N1235 1.610 . S
N1234 S1233 1.613 . S
N1234 C1237 1.350 . S
N1235 S1233 1.610 . S
N1235 C1236 1.351 . S
C1236 C1230 1.428 . S
C1236 N1235 1.351 . S
C1236 C1237 1.434 . S
C1237 C1228 1.429 . S
C1237 N1234 1.350 . S
C1237 C1236 1.434 . S
C1238 C1239 1.369 . S
C1238 C1240 1.419 . S
C1238 H1242 0.930 . S
C1239 C1238 1.369 . S
C1239 C1248 1.429 . S
C1240 C1238 1.419 . S
C1240 C1241 1.363 . S
C1240 H1243 0.929 . S
C1241 C1240 1.363 . S
C1241 C1247 1.428 . S
H1242 C1238 0.930 . S
H1243 C1240 0.929 . S
S1244 N1245 1.613 . S
S1244 N1246 1.610 . S
N1245 S1244 1.613 . S
N1245 C1248 1.350 . S
N1246 S1244 1.610 . S
N1246 C1247 1.351 . S
C1247 C1241 1.428 . S
C1247 N1246 1.351 . S
C1247 C1248 1.434 . S
C1248 C1239 1.429 . S
C1248 N1245 1.350 . S
C1248 C1247 1.434 . S
C1249 C1250 1.369 . S
C1249 C1251 1.419 . S
C1249 H1253 0.930 . S
C1250 C1249 1.369 . S
C1250 C1259 1.429 . S
C1251 C1249 1.419 . S
C1251 C1252 1.363 . S
C1251 H1254 0.929 . S
C1252 C1251 1.363 . S
C1252 C1258 1.428 . S
H1253 C1249 0.930 . S
H1254 C1251 0.929 . S
S1255 N1256 1.613 . S
S1255 N1257 1.610 . S
N1256 S1255 1.613 . S
N1256 C1259 1.350 . S
N1257 S1255 1.610 . S
N1257 C1258 1.351 . S
C1258 C1252 1.428 . S
C1258 N1257 1.351 . S
C1258 C1259 1.434 . S
C1259 C1250 1.429 . S
C1259 N1256 1.350 . S
C1259 C1258 1.434 . S
C1260 C1261 1.369 . S
C1260 C1262 1.419 . S
C1260 H1264 0.930 . S
C1261 C1260 1.369 . S
C1261 C1270 1.429 . S
C1262 C1260 1.419 . S
C1262 C1263 1.363 . S
C1262 H1265 0.929 . S
C1263 C1262 1.363 . S
C1263 C1269 1.428 . S
H1264 C1260 0.930 . S
H1265 C1262 0.929 . S
S1266 N1267 1.613 . S
S1266 N1268 1.610 . S
N1267 S1266 1.613 . S
N1267 C1270 1.350 . S
N1268 S1266 1.610 . S
N1268 C1269 1.351 . S
C1269 C1263 1.428 . S
C1269 N1268 1.351 . S
C1269 C1270 1.434 . S
C1270 C1261 1.429 . S
C1270 N1267 1.350 . S
C1270 C1269 1.434 . S
C1271 C1272 1.369 . S
C1271 C1273 1.419 . S
C1271 H1275 0.930 . S
C1272 C1271 1.369 . S
C1272 C1281 1.429 . S
C1273 C1271 1.419 . S
C1273 C1274 1.363 . S
C1273 H1276 0.929 . S
C1274 C1273 1.363 . S
C1274 C1280 1.428 . S
H1275 C1271 0.930 . S
H1276 C1273 0.929 . S
S1277 N1278 1.613 . S
S1277 N1279 1.610 . S
N1278 S1277 1.613 . S
N1278 C1281 1.350 . S
N1279 S1277 1.610 . S
N1279 C1280 1.351 . S
C1280 C1274 1.428 . S
C1280 N1279 1.351 . S
C1280 C1281 1.434 . S
C1281 C1272 1.429 . S
C1281 N1278 1.350 . S
C1281 C1280 1.434 . S
C1282 C1283 1.369 . S
C1282 C1284 1.401 1_565 S
C1282 H1286 0.930 . S
C1283 C1282 1.369 . S
C1283 C1292 1.429 . S
C1284 C1282 1.401 1_545 S
C1284 C1285 1.379 . S
C1284 H1287 0.932 . S
C1285 C1284 1.379 . S
C1285 C1291 1.428 . S
H1286 C1282 0.930 . S
H1287 C1284 0.932 . S
S1288 N1289 1.613 1_545 S
S1288 N1290 1.610 . S
N1289 S1288 1.613 1_565 S
N1289 C1292 1.350 1_556 S
N1290 S1288 1.610 . S
N1290 C1291 1.351 1_556 S
C1291 C1285 1.428 . S
C1291 N1290 1.351 1_554 S
C1291 C1292 1.434 1_545 S
C1292 C1283 1.429 . S
C1292 N1289 1.350 1_554 S
C1292 C1291 1.434 1_565 S
C1293 C1294 1.369 . S
C1293 C1295 1.419 . S
C1293 H1297 0.930 . S
C1294 C1293 1.369 . S
C1294 C1303 1.429 . S
C1295 C1293 1.419 . S
C1295 C1296 1.363 . S
C1295 H1298 0.929 . S
C1296 C1295 1.363 . S
C1296 C1302 1.428 . S
H1297 C1293 0.930 . S
H1298 C1295 0.929 . S
S1299 N1300 1.613 1_455 S
S1299 N1301 1.610 1_455 S
N1300 S1299 1.613 1_655 S
N1300 C1303 1.350 . S
N1301 S1299 1.610 1_655 S
N1301 C1302 1.351 . S
C1302 C1296 1.428 . S
C1302 N1301 1.351 . S
C1302 C1303 1.434 . S
C1303 C1294 1.429 . S
C1303 N1300 1.350 . S
C1303 C1302 1.434 . S
C1304 C1305 1.369 . S
C1304 C1306 1.419 1_556 S
C1304 H1308 0.930 . S
C1305 C1304 1.369 . S
C1305 C1314 1.429 . S
C1306 C1304 1.419 1_554 S
C1306 C1307 1.363 . S
C1306 H1309 0.929 . S
C1307 C1306 1.363 . S
C1307 C1313 1.428 1_554 S
H1308 C1304 0.930 . S
H1309 C1306 0.929 . S
S1310 N1311 1.613 1_565 S
S1310 N1312 1.610 1_565 S
N1311 S1310 1.613 1_545 S
N1311 C1314 1.350 . S
N1312 S1310 1.610 1_545 S
N1312 C1313 1.351 . S
C1313 C1307 1.428 1_556 S
C1313 N1312 1.351 . S
C1313 C1314 1.434 . S
C1314 C1305 1.429 . S
C1314 N1311 1.350 . S
C1314 C1313 1.434 . S
C1315 C1316 1.369 . S
C1315 C1317 1.419 . S
C1315 H1319 0.930 . S
C1316 C1315 1.369 . S
C1316 C1325 1.429 . S
C1317 C1315 1.419 . S
C1317 C1318 1.363 . S
C1317 H1320 0.929 . S
C1318 C1317 1.363 . S
C1318 C1324 1.428 . S
H1319 C1315 0.930 . S
H1320 C1317 0.929 . S
S1321 N1322 1.613 . S
S1321 N1323 1.610 . S
N1322 S1321 1.613 . S
N1322 C1325 1.350 . S
N1323 S1321 1.610 . S
N1323 C1324 1.351 . S
C1324 C1318 1.428 . S
C1324 N1323 1.351 . S
C1324 C1325 1.434 . S
C1325 C1316 1.429 . S
C1325 N1322 1.350 . S
C1325 C1324 1.434 . S
C1326 C1327 1.369 . S
C1326 C1328 1.419 . S
C1326 H1330 0.930 . S
C1327 C1326 1.369 . S
C1327 C1336 1.429 . S
C1328 C1326 1.419 . S
C1328 C1329 1.363 . S
C1328 H1331 0.929 . S
C1329 C1328 1.363 . S
C1329 C1335 1.428 . S
H1330 C1326 0.930 . S
H1331 C1328 0.929 . S
S1332 N1333 1.613 . S
S1332 N1334 1.610 . S
N1333 S1332 1.613 . S
N1333 C1336 1.350 . S
N1334 S1332 1.610 . S
N1334 C1335 1.351 . S
C1335 C1329 1.428 . S
C1335 N1334 1.351 . S
C1335 C1336 1.434 . S
C1336 C1327 1.429 . S
C1336 N1333 1.350 . S
C1336 C1335 1.434 . S
C1337 C1338 1.369 . S
C1337 C1339 1.419 . S
C1337 H1341 0.930 . S
C1338 C1337 1.369 . S
C1338 C1347 1.429 . S
C1339 C1337 1.419 . S
C1339 C1340 1.363 . S
C1339 H1342 0.929 . S
C1340 C1339 1.363 . S
C1340 C1346 1.428 . S
H1341 C1337 0.930 . S
H1342 C1339 0.929 . S
S1343 N1344 1.613 . S
S1343 N1345 1.610 . S
N1344 S1343 1.613 . S
N1344 C1347 1.350 . S
N1345 S1343 1.610 . S
N1345 C1346 1.351 . S
C1346 C1340 1.428 . S
C1346 N1345 1.351 . S
C1346 C1347 1.434 . S
C1347 C1338 1.429 . S
C1347 N1344 1.350 . S
C1347 C1346 1.434 . S
C1348 C1349 1.369 . S
C1348 C1350 1.419 . S
C1348 H1352 0.930 . S
C1349 C1348 1.369 . S
C1349 C1358 1.429 . S
C1350 C1348 1.419 . S
C1350 C1351 1.363 . S
C1350 H1353 0.929 . S
C1351 C1350 1.363 . S
C1351 C1357 1.428 . S
H1352 C1348 0.930 . S
H1353 C1350 0.929 . S
S1354 N1355 1.613 . S
S1354 N1356 1.610 . S
N1355 S1354 1.613 . S
N1355 C1358 1.350 . S
N1356 S1354 1.610 . S
N1356 C1357 1.351 . S
C1357 C1351 1.428 . S
C1357 N1356 1.351 . S
C1357 C1358 1.434 . S
C1358 C1349 1.429 . S
C1358 N1355 1.350 . S
C1358 C1357 1.434 . S
C1359 C1360 1.369 . S
C1359 C1361 1.419 . S
C1359 H1363 0.930 . S
C1360 C1359 1.369 . S
C1360 C1369 1.429 . S
C1361 C1359 1.419 . S
C1361 C1362 1.363 . S
C1361 H1364 0.929 . S
C1362 C1361 1.363 . S
C1362 C1368 1.428 . S
H1363 C1359 0.930 . S
H1364 C1361 0.929 . S
S1365 N1366 1.613 . S
S1365 N1367 1.610 . S
N1366 S1365 1.613 . S
N1366 C1369 1.350 . S
N1367 S1365 1.610 . S
N1367 C1368 1.351 . S
C1368 C1362 1.428 . S
C1368 N1367 1.351 . S
C1368 C1369 1.434 . S
C1369 C1360 1.429 . S
C1369 N1366 1.350 . S
C1369 C1368 1.434 . S
C1370 C1371 1.369 . S
C1370 C1372 1.419 . S
C1370 H1374 0.930 . S
C1371 C1370 1.369 . S
C1371 C1380 1.429 . S
C1372 C1370 1.419 . S
C1372 C1373 1.363 . S
C1372 H1375 0.929 . S
C1373 C1372 1.363 . S
C1373 C1379 1.428 . S
H1374 C1370 0.930 . S
H1375 C1372 0.929 . S
S1376 N1377 1.613 . S
S1376 N1378 1.610 . S
N1377 S1376 1.613 . S
N1377 C1380 1.350 . S
N1378 S1376 1.610 . S
N1378 C1379 1.351 . S
C1379 C1373 1.428 . S
C1379 N1378 1.351 . S
C1379 C1380 1.434 . S
C1380 C1371 1.429 . S
C1380 N1377 1.350 . S
C1380 C1379 1.434 . S
C1381 C1382 1.369 . S
C1381 C1383 1.419 . S
C1381 H1385 0.930 . S
C1382 C1381 1.369 . S
C1382 C1391 1.429 . S
C1383 C1381 1.419 . S
C1383 C1384 1.363 . S
C1383 H1386 0.929 . S
C1384 C1383 1.363 . S
C1384 C1390 1.428 . S
H1385 C1381 0.930 . S
H1386 C1383 0.929 . S
S1387 N1388 1.613 . S
S1387 N1389 1.610 . S
N1388 S1387 1.613 . S
N1388 C1391 1.350 . S
N1389 S1387 1.610 . S
N1389 C1390 1.351 . S
C1390 C1384 1.428 . S
C1390 N1389 1.351 . S
C1390 C1391 1.434 . S
C1391 C1382 1.429 . S
C1391 N1388 1.350 . S
C1391 C1390 1.434 . S
C1392 C1393 1.369 . S
C1392 C1394 1.419 . S
C1392 H1396 0.930 . S
C1393 C1392 1.369 . S
C1393 C1402 1.429 . S
C1394 C1392 1.419 . S
C1394 C1395 1.363 . S
C1394 H1397 0.929 . S
C1395 C1394 1.363 . S
C1395 C1401 1.428 . S
H1396 C1392 0.930 . S
H1397 C1394 0.929 . S
S1398 N1399 1.613 . S
S1398 N1400 1.610 . S
N1399 S1398 1.613 . S
N1399 C1402 1.350 . S
N1400 S1398 1.610 . S
N1400 C1401 1.351 . S
C1401 C1395 1.428 . S
C1401 N1400 1.351 . S
C1401 C1402 1.434 . S
C1402 C1393 1.429 . S
C1402 N1399 1.350 . S
C1402 C1401 1.434 . S
C1403 C1404 1.369 . S
C1403 C1405 1.419 . S
C1403 H1407 0.930 . S
C1404 C1403 1.369 . S
C1404 C1413 1.429 . S
C1405 C1403 1.419 . S
C1405 C1406 1.363 . S
C1405 H1408 0.929 . S
C1406 C1405 1.363 . S
C1406 C1412 1.428 . S
H1407 C1403 0.930 . S
H1408 C1405 0.929 . S
S1409 N1410 1.613 . S
S1409 N1411 1.610 . S
N1410 S1409 1.613 . S
N1410 C1413 1.350 . S
N1411 S1409 1.610 . S
N1411 C1412 1.351 . S
C1412 C1406 1.428 . S
C1412 N1411 1.351 . S
C1412 C1413 1.434 . S
C1413 C1404 1.429 . S
C1413 N1410 1.350 . S
C1413 C1412 1.434 . S
C1414 C1415 1.369 . S
C1414 C1416 1.419 . S
C1414 H1418 0.930 . S
C1415 C1414 1.369 . S
C1415 C1424 1.429 . S
C1416 C1414 1.419 . S
C1416 C1417 1.363 . S
C1416 H1419 0.929 . S
C1417 C1416 1.363 . S
C1417 C1423 1.428 . S
H1418 C1414 0.930 . S
H1419 C1416 0.929 . S
S1420 N1421 1.613 . S
S1420 N1422 1.610 . S
N1421 S1420 1.613 . S
N1421 C1424 1.350 . S
N1422 S1420 1.610 . S
N1422 C1423 1.351 . S
C1423 C1417 1.428 . S
C1423 N1422 1.351 . S
C1423 C1424 1.434 . S
C1424 C1415 1.429 . S
C1424 N1421 1.350 . S
C1424 C1423 1.434 . S
C1425 C1426 1.369 . S
C1425 C1427 1.419 . S
C1425 H1429 0.930 . S
C1426 C1425 1.369 . S
C1426 C1435 1.429 . S
C1427 C1425 1.419 . S
C1427 C1428 1.363 . S
C1427 H1430 0.929 . S
C1428 C1427 1.363 . S
C1428 C1434 1.428 . S
H1429 C1425 0.930 . S
H1430 C1427 0.929 . S
S1431 N1432 1.613 . S
S1431 N1433 1.610 . S
N1432 S1431 1.613 . S
N1432 C1435 1.350 . S
N1433 S1431 1.610 . S
N1433 C1434 1.351 . S
C1434 C1428 1.428 . S
C1434 N1433 1.351 . S
C1434 C1435 1.434 . S
C1435 C1426 1.429 . S
C1435 N1432 1.350 . S
C1435 C1434 1.434 . S
C1436 C1437 1.369 . S
C1436 C1438 1.419 . S
C1436 H1440 0.930 . S
C1437 C1436 1.369 . S
C1437 C1446 1.429 . S
C1438 C1436 1.419 . S
C1438 C1439 1.363 . S
C1438 H1441 0.929 . S
C1439 C1438 1.363 . S
C1439 C1445 1.428 . S
H1440 C1436 0.930 . S
H1441 C1438 0.929 . S
S1442 N1443 1.613 . S
S1442 N1444 1.610 . S
N1443 S1442 1.613 . S
N1443 C1446 1.350 . S
N1444 S1442 1.610 . S
N1444 C1445 1.351 . S
C1445 C1439 1.428 . S
C1445 N1444 1.351 . S
C1445 C1446 1.434 . S
C1446 C1437 1.429 . S
C1446 N1443 1.350 . S
C1446 C1445 1.434 . S
C1447 C1448 1.369 . S
C1447 C1449 1.419 . S
C1447 H1451 0.930 . S
C1448 C1447 1.369 . S
C1448 C1457 1.429 . S
C1449 C1447 1.419 . S
C1449 C1450 1.363 . S
C1449 H1452 0.929 . S
C1450 C1449 1.363 . S
C1450 C1456 1.428 . S
H1451 C1447 0.930 . S
H1452 C1449 0.929 . S
S1453 N1454 1.613 . S
S1453 N1455 1.610 . S
N1454 S1453 1.613 . S
N1454 C1457 1.350 . S
N1455 S1453 1.610 . S
N1455 C1456 1.351 . S
C1456 C1450 1.428 . S
C1456 N1455 1.351 . S
C1456 C1457 1.434 . S
C1457 C1448 1.429 . S
C1457 N1454 1.350 . S
C1457 C1456 1.434 . S
C1458 C1459 1.369 . S
C1458 C1460 1.419 . S
C1458 H1462 0.930 . S
C1459 C1458 1.369 . S
C1459 C1468 1.429 . S
C1460 C1458 1.419 . S
C1460 C1461 1.363 . S
C1460 H1463 0.929 . S
C1461 C1460 1.363 . S
C1461 C1467 1.428 . S
H1462 C1458 0.930 . S
H1463 C1460 0.929 . S
S1464 N1465 1.613 . S
S1464 N1466 1.610 . S
N1465 S1464 1.613 . S
N1465 C1468 1.350 . S
N1466 S1464 1.610 . S
N1466 C1467 1.351 . S
C1467 C1461 1.428 . S
C1467 N1466 1.351 . S
C1467 C1468 1.434 . S
C1468 C1459 1.429 . S
C1468 N1465 1.350 . S
C1468 C1467 1.434 . S
C1469 C1470 1.369 . S
C1469 C1471 1.419 . S
C1469 H1473 0.930 . S
C1470 C1469 1.369 . S
C1470 C1479 1.429 . S
C1471 C1469 1.419 . S
C1471 C1472 1.363 . S
C1471 H1474 0.929 . S
C1472 C1471 1.363 . S
C1472 C1478 1.428 . S
H1473 C1469 0.930 . S
H1474 C1471 0.929 . S
S1475 N1476 1.613 . S
S1475 N1477 1.610 . S
N1476 S1475 1.613 . S
N1476 C1479 1.350 . S
N1477 S1475 1.610 . S
N1477 C1478 1.351 . S
C1478 C1472 1.428 . S
C1478 N1477 1.351 . S
C1478 C1479 1.434 . S
C1479 C1470 1.429 . S
C1479 N1476 1.350 . S
C1479 C1478 1.434 . S
C1480 C1481 1.369 . S
C1480 C1482 1.419 . S
C1480 H1484 0.930 . S
C1481 C1480 1.369 . S
C1481 C1490 1.429 . S
C1482 C1480 1.419 . S
C1482 C1483 1.363 . S
C1482 H1485 0.929 . S
C1483 C1482 1.363 . S
C1483 C1489 1.428 . S
H1484 C1480 0.930 . S
H1485 C1482 0.929 . S
S1486 N1487 1.613 . S
S1486 N1488 1.610 . S
N1487 S1486 1.613 . S
N1487 C1490 1.350 . S
N1488 S1486 1.610 . S
N1488 C1489 1.351 . S
C1489 C1483 1.428 . S
C1489 N1488 1.351 . S
C1489 C1490 1.434 . S
C1490 C1481 1.429 . S
C1490 N1487 1.350 . S
C1490 C1489 1.434 . S
C1491 C1492 1.369 . S
C1491 C1493 1.419 . S
C1491 H1495 0.930 . S
C1492 C1491 1.369 . S
C1492 C1501 1.429 . S
C1493 C1491 1.419 . S
C1493 C1494 1.363 . S
C1493 H1496 0.929 . S
C1494 C1493 1.363 . S
C1494 C1500 1.428 . S
H1495 C1491 0.930 . S
H1496 C1493 0.929 . S
S1497 N1498 1.613 . S
S1497 N1499 1.610 . S
N1498 S1497 1.613 . S
N1498 C1501 1.350 . S
N1499 S1497 1.610 . S
N1499 C1500 1.351 . S
C1500 C1494 1.428 . S
C1500 N1499 1.351 . S
C1500 C1501 1.434 . S
C1501 C1492 1.429 . S
C1501 N1498 1.350 . S
C1501 C1500 1.434 . S
C1502 C1503 1.369 . S
C1502 C1504 1.419 1_556 S
C1502 H1506 0.930 . S
C1503 C1502 1.369 . S
C1503 C1512 1.429 . S
C1504 C1502 1.419 1_554 S
C1504 C1505 1.363 . S
C1504 H1507 0.929 . S
C1505 C1504 1.363 . S
C1505 C1511 1.428 . S
H1506 C1502 0.930 . S
H1507 C1504 0.929 . S
S1508 N1509 1.613 . S
S1508 N1510 1.610 1_556 S
N1509 S1508 1.613 . S
N1509 C1512 1.350 . S
N1510 S1508 1.610 1_554 S
N1510 C1511 1.351 . S
C1511 C1505 1.428 . S
C1511 N1510 1.351 . S
C1511 C1512 1.434 1_554 S
C1512 C1503 1.429 . S
C1512 N1509 1.350 . S
C1512 C1511 1.434 1_556 S
C1513 C1514 1.369 . S
C1513 C1515 1.419 . S
C1513 H1517 0.930 . S
C1514 C1513 1.369 . S
C1514 C1523 1.429 . S
C1515 C1513 1.419 . S
C1515 C1516 1.363 . S
C1515 H1518 0.929 . S
C1516 C1515 1.363 . S
C1516 C1522 1.428 . S
H1517 C1513 0.930 . S
H1518 C1515 0.929 . S
S1519 N1520 1.613 . S
S1519 N1521 1.610 . S
N1520 S1519 1.613 . S
N1520 C1523 1.350 . S
N1521 S1519 1.610 . S
N1521 C1522 1.351 . S
C1522 C1516 1.428 . S
C1522 N1521 1.351 . S
C1522 C1523 1.434 . S
C1523 C1514 1.429 . S
C1523 N1520 1.350 . S
C1523 C1522 1.434 . S
C1524 C1525 1.369 . S
C1524 C1526 1.419 . S
C1524 H1528 0.930 . S
C1525 C1524 1.369 . S
C1525 C1534 1.429 . S
C1526 C1524 1.419 . S
C1526 C1527 1.363 . S
C1526 H1529 0.929 . S
C1527 C1526 1.363 . S
C1527 C1533 1.428 . S
H1528 C1524 0.930 . S
H1529 C1526 0.929 . S
S1530 N1531 1.613 . S
S1530 N1532 1.610 . S
N1531 S1530 1.613 . S
N1531 C1534 1.350 . S
N1532 S1530 1.610 . S
N1532 C1533 1.351 . S
C1533 C1527 1.428 . S
C1533 N1532 1.351 . S
C1533 C1534 1.434 . S
C1534 C1525 1.429 . S
C1534 N1531 1.350 . S
C1534 C1533 1.434 . S
C1535 C1536 1.369 . S
C1535 C1537 1.419 . S
C1535 H1539 0.930 . S
C1536 C1535 1.369 . S
C1536 C1545 1.429 1_455 S
C1537 C1535 1.419 . S
C1537 C1538 1.365 1_455 S
C1537 H1540 0.929 . S
C1538 C1537 1.365 1_655 S
C1538 C1544 1.427 . S
H1539 C1535 0.930 . S
H1540 C1537 0.929 . S
S1541 N1542 1.613 . S
S1541 N1543 1.610 . S
N1542 S1541 1.613 . S
N1542 C1545 1.350 . S
N1543 S1541 1.610 . S
N1543 C1544 1.351 . S
C1544 C1538 1.427 . S
C1544 N1543 1.351 . S
C1544 C1545 1.434 . S
C1545 C1536 1.429 1_655 S
C1545 N1542 1.350 . S
C1545 C1544 1.434 . S
C1546 C1547 1.369 1_455 S
C1546 C1548 1.419 . S
C1546 H1550 0.930 . S
C1547 C1546 1.369 1_655 S
C1547 C1556 1.429 . S
C1548 C1546 1.419 . S
C1548 C1549 1.363 . S
C1548 H1551 0.929 . S
C1549 C1548 1.363 . S
C1549 C1555 1.428 1_455 S
H1550 C1546 0.930 . S
H1551 C1548 0.929 . S
S1552 N1553 1.613 . S
S1552 N1554 1.610 . S
N1553 S1552 1.613 . S
N1553 C1556 1.350 . S
N1554 S1552 1.610 . S
N1554 C1555 1.351 . S
C1555 C1549 1.428 1_655 S
C1555 N1554 1.351 . S
C1555 C1556 1.434 . S
C1556 C1547 1.429 . S
C1556 N1553 1.350 . S
C1556 C1555 1.434 . S
C1557 C1558 1.369 . S
C1557 C1559 1.419 . S
C1557 H1561 0.930 . S
C1558 C1557 1.369 . S
C1558 C1567 1.429 . S
C1559 C1557 1.419 . S
C1559 C1560 1.363 . S
C1559 H1562 0.929 . S
C1560 C1559 1.363 . S
C1560 C1566 1.428 . S
H1561 C1557 0.930 . S
H1562 C1559 0.929 . S
S1563 N1564 1.613 . S
S1563 N1565 1.610 . S
N1564 S1563 1.613 . S
N1564 C1567 1.350 . S
N1565 S1563 1.610 . S
N1565 C1566 1.351 . S
C1566 C1560 1.428 . S
C1566 N1565 1.351 . S
C1566 C1567 1.434 . S
C1567 C1558 1.429 . S
C1567 N1564 1.350 . S
C1567 C1566 1.434 . S
C1568 C1569 1.369 . S
C1568 C1570 1.419 . S
C1568 H1572 0.930 . S
C1569 C1568 1.369 . S
C1569 C1578 1.429 . S
C1570 C1568 1.419 . S
C1570 C1571 1.363 . S
C1570 H1573 0.929 . S
C1571 C1570 1.363 . S
C1571 C1577 1.428 . S
H1572 C1568 0.930 . S
H1573 C1570 0.929 . S
S1574 N1575 1.613 . S
S1574 N1576 1.610 . S
N1575 S1574 1.613 . S
N1575 C1578 1.350 . S
N1576 S1574 1.610 . S
N1576 C1577 1.351 . S
C1577 C1571 1.428 . S
C1577 N1576 1.351 . S
C1577 C1578 1.434 . S
C1578 C1569 1.429 . S
C1578 N1575 1.350 . S
C1578 C1577 1.434 . S
C1579 C1580 1.369 . S
C1579 C1581 1.419 . S
C1579 H1583 0.930 . S
C1580 C1579 1.369 . S
C1580 C1589 1.429 . S
C1581 C1579 1.419 . S
C1581 C1582 1.363 . S
C1581 H1584 0.929 . S
C1582 C1581 1.363 . S
C1582 C1588 1.428 . S
H1583 C1579 0.930 . S
H1584 C1581 0.929 . S
S1585 N1586 1.613 . S
S1585 N1587 1.610 . S
N1586 S1585 1.613 . S
N1586 C1589 1.350 . S
N1587 S1585 1.610 . S
N1587 C1588 1.351 . S
C1588 C1582 1.428 . S
C1588 N1587 1.351 . S
C1588 C1589 1.434 . S
C1589 C1580 1.429 . S
C1589 N1586 1.350 . S
C1589 C1588 1.434 . S
C1590 C1591 1.369 . S
C1590 C1592 1.419 . S
C1590 H1594 0.930 . S
C1591 C1590 1.369 . S
C1591 C1600 1.429 . S
C1592 C1590 1.419 . S
C1592 C1593 1.363 . S
C1592 H1595 0.929 . S
C1593 C1592 1.363 . S
C1593 C1599 1.428 . S
H1594 C1590 0.930 . S
H1595 C1592 0.929 . S
S1596 N1597 1.613 . S
S1596 N1598 1.610 . S
N1597 S1596 1.613 . S
N1597 C1600 1.350 . S
N1598 S1596 1.610 . S
N1598 C1599 1.351 . S
C1599 C1593 1.428 . S
C1599 N1598 1.351 . S
C1599 C1600 1.434 . S
C1600 C1591 1.429 . S
C1600 N1597 1.350 . S
C1600 C1599 1.434 . S
C1601 C1602 1.369 . S
C1601 C1603 1.419 . S
C1601 H1605 0.930 . S
C1602 C1601 1.369 . S
C1602 C1611 1.429 . S
C1603 C1601 1.419 . S
C1603 C1604 1.363 . S
C1603 H1606 0.929 . S
C1604 C1603 1.363 . S
C1604 C1610 1.428 . S
H1605 C1601 0.930 . S
H1606 C1603 0.929 . S
S1607 N1608 1.613 . S
S1607 N1609 1.610 . S
N1608 S1607 1.613 . S
N1608 C1611 1.350 . S
N1609 S1607 1.610 . S
N1609 C1610 1.351 . S
C1610 C1604 1.428 . S
C1610 N1609 1.351 . S
C1610 C1611 1.434 . S
C1611 C1602 1.429 . S
C1611 N1608 1.350 . S
C1611 C1610 1.434 . S
C1612 C1613 1.369 . S
C1612 C1614 1.419 . S
C1612 H1616 0.930 . S
C1613 C1612 1.369 . S
C1613 C1622 1.429 . S
C1614 C1612 1.419 . S
C1614 C1615 1.363 . S
C1614 H1617 0.929 . S
C1615 C1614 1.363 . S
C1615 C1621 1.428 . S
H1616 C1612 0.930 . S
H1617 C1614 0.929 . S
S1618 N1619 1.613 . S
S1618 N1620 1.610 . S
N1619 S1618 1.613 . S
N1619 C1622 1.350 . S
N1620 S1618 1.610 . S
N1620 C1621 1.351 . S
C1621 C1615 1.428 . S
C1621 N1620 1.351 . S
C1621 C1622 1.434 . S
C1622 C1613 1.429 . S
C1622 N1619 1.350 . S
C1622 C1621 1.434 . S
C1623 C1624 1.369 . S
C1623 C1625 1.419 . S
C1623 H1627 0.930 . S
C1624 C1623 1.369 . S
C1624 C1633 1.429 . S
C1625 C1623 1.419 . S
C1625 C1626 1.363 . S
C1625 H1628 0.929 . S
C1626 C1625 1.363 . S
C1626 C1632 1.428 . S
H1627 C1623 0.930 . S
H1628 C1625 0.929 . S
S1629 N1630 1.613 . S
S1629 N1631 1.610 . S
N1630 S1629 1.613 . S
N1630 C1633 1.350 . S
N1631 S1629 1.610 . S
N1631 C1632 1.351 . S
C1632 C1626 1.428 . S
C1632 N1631 1.351 . S
C1632 C1633 1.434 . S
C1633 C1624 1.429 . S
C1633 N1630 1.350 . S
C1633 C1632 1.434 . S
C1634 C1635 1.369 . S
C1634 C1636 1.419 . S
C1634 H1638 0.930 . S
C1635 C1634 1.369 . S
C1635 C1644 1.429 . S
C1636 C1634 1.419 . S
C1636 C1637 1.363 . S
C1636 H1639 0.929 . S
C1637 C1636 1.363 . S
C1637 C1643 1.428 . S
H1638 C1634 0.930 . S
H1639 C1636 0.929 . S
S1640 N1641 1.613 . S
S1640 N1642 1.610 . S
N1641 S1640 1.613 . S
N1641 C1644 1.350 . S
N1642 S1640 1.610 . S
N1642 C1643 1.351 . S
C1643 C1637 1.428 . S
C1643 N1642 1.351 . S
C1643 C1644 1.434 . S
C1644 C1635 1.429 . S
C1644 N1641 1.350 . S
C1644 C1643 1.434 . S
C1645 C1646 1.369 . S
C1645 C1647 1.419 . S
C1645 H1649 0.930 . S
C1646 C1645 1.369 . S
C1646 C1655 1.429 . S
C1647 C1645 1.419 . S
C1647 C1648 1.363 . S
C1647 H1650 0.929 . S
C1648 C1647 1.363 . S
C1648 C1654 1.428 . S
H1649 C1645 0.930 . S
H1650 C1647 0.929 . S
S1651 N1652 1.613 . S
S1651 N1653 1.610 . S
N1652 S1651 1.613 . S
N1652 C1655 1.350 . S
N1653 S1651 1.610 . S
N1653 C1654 1.351 . S
C1654 C1648 1.428 . S
C1654 N1653 1.351 . S
C1654 C1655 1.434 . S
C1655 C1646 1.429 . S
C1655 N1652 1.350 . S
C1655 C1654 1.434 . S
C1656 C1657 1.369 . S
C1656 C1658 1.419 . S
C1656 H1660 0.930 . S
C1657 C1656 1.369 . S
C1657 C1666 1.429 . S
C1658 C1656 1.419 . S
C1658 C1659 1.363 . S
C1658 H1661 0.929 . S
C1659 C1658 1.363 . S
C1659 C1665 1.428 . S
H1660 C1656 0.930 . S
H1661 C1658 0.929 . S
S1662 N1663 1.613 . S
S1662 N1664 1.610 . S
N1663 S1662 1.613 . S
N1663 C1666 1.350 . S
N1664 S1662 1.610 . S
N1664 C1665 1.351 . S
C1665 C1659 1.428 . S
C1665 N1664 1.351 . S
C1665 C1666 1.434 . S
C1666 C1657 1.429 . S
C1666 N1663 1.350 . S
C1666 C1665 1.434 . S
C1667 C1668 1.369 . S
C1667 C1669 1.419 . S
C1667 H1671 0.930 . S
C1668 C1667 1.369 . S
C1668 C1677 1.429 . S
C1669 C1667 1.419 . S
C1669 C1670 1.363 . S
C1669 H1672 0.929 . S
C1670 C1669 1.363 . S
C1670 C1676 1.428 . S
H1671 C1667 0.930 . S
H1672 C1669 0.929 . S
S1673 N1674 1.613 . S
S1673 N1675 1.610 . S
N1674 S1673 1.613 . S
N1674 C1677 1.350 . S
N1675 S1673 1.610 . S
N1675 C1676 1.351 . S
C1676 C1670 1.428 . S
C1676 N1675 1.351 . S
C1676 C1677 1.434 . S
C1677 C1668 1.429 . S
C1677 N1674 1.350 . S
C1677 C1676 1.434 . S
C1678 C1679 1.369 . S
C1678 C1680 1.419 . S
C1678 H1682 0.930 . S
C1679 C1678 1.369 . S
C1679 C1688 1.429 . S
C1680 C1678 1.419 . S
C1680 C1681 1.363 . S
C1680 H1683 0.929 . S
C1681 C1680 1.363 . S
C1681 C1687 1.428 . S
H1682 C1678 0.930 . S
H1683 C1680 0.929 . S
S1684 N1685 1.613 . S
S1684 N1686 1.610 . S
N1685 S1684 1.613 . S
N1685 C1688 1.350 . S
N1686 S1684 1.610 . S
N1686 C1687 1.351 . S
C1687 C1681 1.428 . S
C1687 N1686 1.351 . S
C1687 C1688 1.434 . S
C1688 C1679 1.429 . S
C1688 N1685 1.350 . S
C1688 C1687 1.434 . S
C1689 C1690 1.369 . S
C1689 C1691 1.419 . S
C1689 H1693 0.930 . S
C1690 C1689 1.369 . S
C1690 C1699 1.429 . S
C1691 C1689 1.419 . S
C1691 C1692 1.363 1_565 S
C1691 H1694 0.929 . S
C1692 C1691 1.363 1_545 S
C1692 C1698 1.428 . S
H1693 C1689 0.930 . S
H1694 C1691 0.929 . S
S1695 N1696 1.613 1_545 S
S1695 N1697 1.610 . S
N1696 S1695 1.613 1_565 S
N1696 C1699 1.350 . S
N1697 S1695 1.610 . S
N1697 C1698 1.351 . S
C1698 C1692 1.428 . S
C1698 N1697 1.351 . S
C1698 C1699 1.434 1_545 S
C1699 C1690 1.429 . S
C1699 N1696 1.350 . S
C1699 C1698 1.434 1_565 S
C1700 C1701 1.369 . S
C1700 C1702 1.419 . S
C1700 H1704 0.930 . S
C1701 C1700 1.369 . S
C1701 C1710 1.429 . S
C1702 C1700 1.419 . S
C1702 C1703 1.363 . S
C1702 H1705 0.929 . S
C1703 C1702 1.363 . S
C1703 C1709 1.428 . S
H1704 C1700 0.930 . S
H1705 C1702 0.929 . S
S1706 N1707 1.613 . S
S1706 N1708 1.610 . S
N1707 S1706 1.613 . S
N1707 C1710 1.350 . S
N1708 S1706 1.610 . S
N1708 C1709 1.351 . S
C1709 C1703 1.428 . S
C1709 N1708 1.351 . S
C1709 C1710 1.434 . S
C1710 C1701 1.429 . S
C1710 N1707 1.350 . S
C1710 C1709 1.434 . S
C1711 C1712 1.369 . S
C1711 C1713 1.419 . S
C1711 H1715 0.930 . S
C1712 C1711 1.369 . S
C1712 C1721 1.429 . S
C1713 C1711 1.419 . S
C1713 C1714 1.363 . S
C1713 H1716 0.929 . S
C1714 C1713 1.363 . S
C1714 C1720 1.428 . S
H1715 C1711 0.930 . S
H1716 C1713 0.929 . S
S1717 N1718 1.613 . S
S1717 N1719 1.610 . S
N1718 S1717 1.613 . S
N1718 C1721 1.350 . S
N1719 S1717 1.610 . S
N1719 C1720 1.351 . S
C1720 C1714 1.428 . S
C1720 N1719 1.351 . S
C1720 C1721 1.434 . S
C1721 C1712 1.429 . S
C1721 N1718 1.350 . S
C1721 C1720 1.434 . S
C1722 C1723 1.369 . S
C1722 C1724 1.419 . S
C1722 H1726 0.930 . S
C1723 C1722 1.369 . S
C1723 C1732 1.429 . S
C1724 C1722 1.419 . S
C1724 C1725 1.363 . S
C1724 H1727 0.929 . S
C1725 C1724 1.363 . S
C1725 C1731 1.428 . S
H1726 C1722 0.930 . S
H1727 C1724 0.929 . S
S1728 N1729 1.613 . S
S1728 N1730 1.610 . S
N1729 S1728 1.613 . S
N1729 C1732 1.350 . S
N1730 S1728 1.610 . S
N1730 C1731 1.351 . S
C1731 C1725 1.428 . S
C1731 N1730 1.351 . S
C1731 C1732 1.434 . S
C1732 C1723 1.429 . S
C1732 N1729 1.350 . S
C1732 C1731 1.434 . S
C1733 C1734 1.369 . S
C1733 C1735 1.419 . S
C1733 H1737 0.930 . S
C1734 C1733 1.369 . S
C1734 C1743 1.429 . S
C1735 C1733 1.419 . S
C1735 C1736 1.363 . S
C1735 H1738 0.929 . S
C1736 C1735 1.363 . S
C1736 C1742 1.428 . S
H1737 C1733 0.930 . S
H1738 C1735 0.929 . S
S1739 N1740 1.613 . S
S1739 N1741 1.610 . S
N1740 S1739 1.613 . S
N1740 C1743 1.350 . S
N1741 S1739 1.610 . S
N1741 C1742 1.351 . S
C1742 C1736 1.428 . S
C1742 N1741 1.351 . S
C1742 C1743 1.434 . S
C1743 C1734 1.429 . S
C1743 N1740 1.350 . S
C1743 C1742 1.434 . S
C1744 C1745 1.369 . S
C1744 C1746 1.419 . S
C1744 H1748 0.930 . S
C1745 C1744 1.369 . S
C1745 C1754 1.429 . S
C1746 C1744 1.419 . S
C1746 C1747 1.363 . S
C1746 H1749 0.929 . S
C1747 C1746 1.363 . S
C1747 C1753 1.428 . S
H1748 C1744 0.930 . S
H1749 C1746 0.929 . S
S1750 N1751 1.613 . S
S1750 N1752 1.610 . S
N1751 S1750 1.613 . S
N1751 C1754 1.350 . S
N1752 S1750 1.610 . S
N1752 C1753 1.351 . S
C1753 C1747 1.428 . S
C1753 N1752 1.351 . S
C1753 C1754 1.434 . S
C1754 C1745 1.429 . S
C1754 N1751 1.350 . S
C1754 C1753 1.434 . S
C1755 C1756 1.369 . S
C1755 C1757 1.419 . S
C1755 H1759 0.930 . S
C1756 C1755 1.369 . S
C1756 C1765 1.429 . S
C1757 C1755 1.419 . S
C1757 C1758 1.363 . S
C1757 H1760 0.929 . S
C1758 C1757 1.363 . S
C1758 C1764 1.428 . S
H1759 C1755 0.930 . S
H1760 C1757 0.929 . S
S1761 N1762 1.613 . S
S1761 N1763 1.610 . S
N1762 S1761 1.613 . S
N1762 C1765 1.350 . S
N1763 S1761 1.610 . S
N1763 C1764 1.351 . S
C1764 C1758 1.428 . S
C1764 N1763 1.351 . S
C1764 C1765 1.434 . S
C1765 C1756 1.429 . S
C1765 N1762 1.350 . S
C1765 C1764 1.434 . S
C1766 C1767 1.369 . S
C1766 C1768 1.419 . S
C1766 H1770 0.930 . S
C1767 C1766 1.369 . S
C1767 C1776 1.429 . S
C1768 C1766 1.419 . S
C1768 C1769 1.363 . S
C1768 H1771 0.929 . S
C1769 C1768 1.363 . S
C1769 C1775 1.428 . S
H1770 C1766 0.930 . S
H1771 C1768 0.929 . S
S1772 N1773 1.613 1_655 S
S1772 N1774 1.610 1_655 S
N1773 S1772 1.613 1_455 S
N1773 C1776 1.350 . S
N1774 S1772 1.610 1_455 S
N1774 C1775 1.351 . S
C1775 C1769 1.428 . S
C1775 N1774 1.351 . S
C1775 C1776 1.434 . S
C1776 C1767 1.429 . S
C1776 N1773 1.350 . S
C1776 C1775 1.434 . S
C1777 C1778 1.369 . S
C1777 C1779 1.419 . S
C1777 H1781 0.930 . S
C1778 C1777 1.369 . S
C1778 C1787 1.429 . S
C1779 C1777 1.419 . S
C1779 C1780 1.363 . S
C1779 H1782 0.929 . S
C1780 C1779 1.363 . S
C1780 C1786 1.428 . S
H1781 C1777 0.930 . S
H1782 C1779 0.929 . S
S1783 N1784 1.613 . S
S1783 N1785 1.610 . S
N1784 S1783 1.613 . S
N1784 C1787 1.350 . S
N1785 S1783 1.610 . S
N1785 C1786 1.351 . S
C1786 C1780 1.428 . S
C1786 N1785 1.351 . S
C1786 C1787 1.434 . S
C1787 C1778 1.429 . S
C1787 N1784 1.350 . S
C1787 C1786 1.434 . S
C1788 C1789 1.369 . S
C1788 C1790 1.419 . S
C1788 H1792 0.930 . S
C1789 C1788 1.369 . S
C1789 C1798 1.429 . S
C1790 C1788 1.419 . S
C1790 C1791 1.363 . S
C1790 H1793 0.929 . S
C1791 C1790 1.363 . S
C1791 C1797 1.428 . S
H1792 C1788 0.930 . S
H1793 C1790 0.929 . S
S1794 N1795 1.613 . S
S1794 N1796 1.610 . S
N1795 S1794 1.613 . S
N1795 C1798 1.350 . S
N1796 S1794 1.610 . S
N1796 C1797 1.351 . S
C1797 C1791 1.428 . S
C1797 N1796 1.351 . S
C1797 C1798 1.434 . S
C1798 C1789 1.429 . S
C1798 N1795 1.350 . S
C1798 C1797 1.434 . S
C1799 C1800 1.369 . S
C1799 C1801 1.419 . S
C1799 H1803 0.930 . S
C1800 C1799 1.369 . S
C1800 C1809 1.429 . S
C1801 C1799 1.419 . S
C1801 C1802 1.363 . S
C1801 H1804 0.929 . S
C1802 C1801 1.363 . S
C1802 C1808 1.428 . S
H1803 C1799 0.930 . S
H1804 C1801 0.929 . S
S1805 N1806 1.613 . S
S1805 N1807 1.610 . S
N1806 S1805 1.613 . S
N1806 C1809 1.350 . S
N1807 S1805 1.610 . S
N1807 C1808 1.351 . S
C1808 C1802 1.428 . S
C1808 N1807 1.351 . S
C1808 C1809 1.434 . S
C1809 C1800 1.429 . S
C1809 N1806 1.350 . S
C1809 C1808 1.434 . S
C1810 C1811 1.369 . S
C1810 C1812 1.419 . S
C1810 H1814 0.930 . S
C1811 C1810 1.369 . S
C1811 C1820 1.429 . S
C1812 C1810 1.419 . S
C1812 C1813 1.363 . S
C1812 H1815 0.929 . S
C1813 C1812 1.363 . S
C1813 C1819 1.428 . S
H1814 C1810 0.930 . S
H1815 C1812 0.929 . S
S1816 N1817 1.613 . S
S1816 N1818 1.610 . S
N1817 S1816 1.613 . S
N1817 C1820 1.350 . S
N1818 S1816 1.610 . S
N1818 C1819 1.351 . S
C1819 C1813 1.428 . S
C1819 N1818 1.351 . S
C1819 C1820 1.434 . S
C1820 C1811 1.429 . S
C1820 N1817 1.350 . S
C1820 C1819 1.434 . S
C1821 C1822 1.369 . S
C1821 C1823 1.419 . S
C1821 H1825 0.930 . S
C1822 C1821 1.369 . S
C1822 C1831 1.429 . S
C1823 C1821 1.419 . S
C1823 C1824 1.363 . S
C1823 H1826 0.929 . S
C1824 C1823 1.363 . S
C1824 C1830 1.428 . S
H1825 C1821 0.930 . S
H1826 C1823 0.929 . S
S1827 N1828 1.613 . S
S1827 N1829 1.610 . S
N1828 S1827 1.613 . S
N1828 C1831 1.350 . S
N1829 S1827 1.610 . S
N1829 C1830 1.351 . S
C1830 C1824 1.428 . S
C1830 N1829 1.351 . S
C1830 C1831 1.434 . S
C1831 C1822 1.429 . S
C1831 N1828 1.350 . S
C1831 C1830 1.434 . S
C1832 C1833 1.369 . S
C1832 C1834 1.419 . S
C1832 H1836 0.930 . S
C1833 C1832 1.369 . S
C1833 C1842 1.429 . S
C1834 C1832 1.419 . S
C1834 C1835 1.363 . S
C1834 H1837 0.929 . S
C1835 C1834 1.363 . S
C1835 C1841 1.428 . S
H1836 C1832 0.930 . S
H1837 C1834 0.929 . S
S1838 N1839 1.613 . S
S1838 N1840 1.610 . S
N1839 S1838 1.613 . S
N1839 C1842 1.350 . S
N1840 S1838 1.610 . S
N1840 C1841 1.351 . S
C1841 C1835 1.428 . S
C1841 N1840 1.351 . S
C1841 C1842 1.434 . S
C1842 C1833 1.429 . S
C1842 N1839 1.350 . S
C1842 C1841 1.434 . S
C1843 C1844 1.369 . S
C1843 C1845 1.419 . S
C1843 H1847 0.930 . S
C1844 C1843 1.369 . S
C1844 C1853 1.429 . S
C1845 C1843 1.419 . S
C1845 C1846 1.363 . S
C1845 H1848 0.929 . S
C1846 C1845 1.363 . S
C1846 C1852 1.428 . S
H1847 C1843 0.930 . S
H1848 C1845 0.929 . S
S1849 N1850 1.613 . S
S1849 N1851 1.610 . S
N1850 S1849 1.613 . S
N1850 C1853 1.350 . S
N1851 S1849 1.610 . S
N1851 C1852 1.351 . S
C1852 C1846 1.428 . S
C1852 N1851 1.351 . S
C1852 C1853 1.434 . S
C1853 C1844 1.429 . S
C1853 N1850 1.350 . S
C1853 C1852 1.434 . S
C1854 C1855 1.370 . S
C1854 C1856 1.419 . S
C1854 H1858 0.930 . S
C1855 C1854 1.370 . S
C1855 C1864 1.442 . S
C1856 C1854 1.419 . S
C1856 C1857 1.363 . S
C1856 H1859 0.929 1_556 S
C1857 C1856 1.363 . S
C1857 C1863 1.428 . S
H1858 C1854 0.930 . S
H1859 C1856 0.929 1_554 S
S1860 N1861 1.613 1_455 S
S1860 N1862 1.610 . S
N1861 S1860 1.613 1_655 S
N1861 C1864 1.350 1_655 S
N1862 S1860 1.610 . S
N1862 C1863 1.351 . S
C1863 C1857 1.428 . S
C1863 N1862 1.351 . S
C1863 C1864 1.434 . S
C1864 C1855 1.442 . S
C1864 N1861 1.350 1_455 S
C1864 C1863 1.434 . S
C1865 C1866 1.369 . S
C1865 C1867 1.419 . S
C1865 H1869 0.930 . S
C1866 C1865 1.369 . S
C1866 C1875 1.429 . S
C1867 C1865 1.419 . S
C1867 C1868 1.363 . S
C1867 H1870 0.929 . S
C1868 C1867 1.363 . S
C1868 C1874 1.428 . S
H1869 C1865 0.930 . S
H1870 C1867 0.929 . S
S1871 N1872 1.613 . S
S1871 N1873 1.610 . S
N1872 S1871 1.613 . S
N1872 C1875 1.350 . S
N1873 S1871 1.610 . S
N1873 C1874 1.351 . S
C1874 C1868 1.428 . S
C1874 N1873 1.351 . S
C1874 C1875 1.434 . S
C1875 C1866 1.429 . S
C1875 N1872 1.350 . S
C1875 C1874 1.434 . S
C1876 C1877 1.369 . S
C1876 C1878 1.419 . S
C1876 H1880 0.930 . S
C1877 C1876 1.369 . S
C1877 C1886 1.429 . S
C1878 C1876 1.419 . S
C1878 C1879 1.363 . S
C1878 H1881 0.929 . S
C1879 C1878 1.363 . S
C1879 C1885 1.428 . S
H1880 C1876 0.930 . S
H1881 C1878 0.929 . S
S1882 N1883 1.613 . S
S1882 N1884 1.610 . S
N1883 S1882 1.613 . S
N1883 C1886 1.350 . S
N1884 S1882 1.610 . S
N1884 C1885 1.351 . S
C1885 C1879 1.428 . S
C1885 N1884 1.351 . S
C1885 C1886 1.434 . S
C1886 C1877 1.429 . S
C1886 N1883 1.350 . S
C1886 C1885 1.434 . S
C1887 C1888 1.369 . S
C1887 C1889 1.419 . S
C1887 H1891 0.930 . S
C1888 C1887 1.369 . S
C1888 C1897 1.429 . S
C1889 C1887 1.419 . S
C1889 C1890 1.363 . S
C1889 H1892 0.929 . S
C1890 C1889 1.363 . S
C1890 C1896 1.428 . S
H1891 C1887 0.930 . S
H1892 C1889 0.929 . S
S1893 N1894 1.613 1_556 S
S1893 N1895 1.610 . S
N1894 S1893 1.613 1_554 S
N1894 C1897 1.350 1_554 S
N1895 S1893 1.610 . S
N1895 C1896 1.351 . S
C1896 C1890 1.428 . S
C1896 N1895 1.351 . S
C1896 C1897 1.434 . S
C1897 C1888 1.429 . S
C1897 N1894 1.350 1_556 S
C1897 C1896 1.434 . S
C1898 C1899 1.369 1_455 S
C1898 C1900 1.419 . S
C1898 H1902 0.930 . S
C1899 C1898 1.369 1_655 S
C1899 C1908 1.429 . S
C1900 C1898 1.419 . S
C1900 C1901 1.363 . S
C1900 H1903 0.929 . S
C1901 C1900 1.363 . S
C1901 C1907 1.428 1_455 S
H1902 C1898 0.930 . S
H1903 C1900 0.929 . S
S1904 N1905 1.613 . S
S1904 N1906 1.610 . S
N1905 S1904 1.613 . S
N1905 C1908 1.350 . S
N1906 S1904 1.610 . S
N1906 C1907 1.351 . S
C1907 C1901 1.428 1_655 S
C1907 N1906 1.351 . S
C1907 C1908 1.434 . S
C1908 C1899 1.429 . S
C1908 N1905 1.350 . S
C1908 C1907 1.434 . S
C1909 C1910 1.369 . S
C1909 C1911 1.419 . S
C1909 H1913 0.930 . S
C1910 C1909 1.369 . S
C1910 C1919 1.429 . S
C1911 C1909 1.419 . S
C1911 C1912 1.363 . S
C1911 H1914 0.929 . S
C1912 C1911 1.363 . S
C1912 C1918 1.428 . S
H1913 C1909 0.930 . S
H1914 C1911 0.929 . S
S1915 N1916 1.613 . S
S1915 N1917 1.610 . S
N1916 S1915 1.613 . S
N1916 C1919 1.350 . S
N1917 S1915 1.610 . S
N1917 C1918 1.351 . S
C1918 C1912 1.428 . S
C1918 N1917 1.351 . S
C1918 C1919 1.434 . S
C1919 C1910 1.429 . S
C1919 N1916 1.350 . S
C1919 C1918 1.434 . S
C1920 C1921 1.369 . S
C1920 C1922 1.419 . S
C1920 H1924 0.930 . S
C1921 C1920 1.369 . S
C1921 C1930 1.429 . S
C1922 C1920 1.419 . S
C1922 C1923 1.363 . S
C1922 H1925 0.929 . S
C1923 C1922 1.363 . S
C1923 C1929 1.428 . S
H1924 C1920 0.930 . S
H1925 C1922 0.929 . S
S1926 N1927 1.613 . S
S1926 N1928 1.610 . S
N1927 S1926 1.613 . S
N1927 C1930 1.350 . S
N1928 S1926 1.610 . S
N1928 C1929 1.351 . S
C1929 C1923 1.428 . S
C1929 N1928 1.351 . S
C1929 C1930 1.434 . S
C1930 C1921 1.429 . S
C1930 N1927 1.350 . S
C1930 C1929 1.434 . S
C1931 C1932 1.369 . S
C1931 C1933 1.419 . S
C1931 H1935 0.930 . S
C1932 C1931 1.369 . S
C1932 C1941 1.429 . S
C1933 C1931 1.419 . S
C1933 C1934 1.363 . S
C1933 H1936 0.929 . S
C1934 C1933 1.363 . S
C1934 C1940 1.428 . S
H1935 C1931 0.930 . S
H1936 C1933 0.929 . S
S1937 N1938 1.613 . S
S1937 N1939 1.610 . S
N1938 S1937 1.613 . S
N1938 C1941 1.350 . S
N1939 S1937 1.610 . S
N1939 C1940 1.351 . S
C1940 C1934 1.428 . S
C1940 N1939 1.351 . S
C1940 C1941 1.434 . S
C1941 C1932 1.429 . S
C1941 N1938 1.350 . S
C1941 C1940 1.434 . S
C1942 C1943 1.369 . S
C1942 C1944 1.419 . S
C1942 H1946 0.930 . S
C1943 C1942 1.369 . S
C1943 C1952 1.429 . S
C1944 C1942 1.419 . S
C1944 C1945 1.363 . S
C1944 H1947 0.929 . S
C1945 C1944 1.363 . S
C1945 C1951 1.428 . S
H1946 C1942 0.930 . S
H1947 C1944 0.929 . S
S1948 N1949 1.613 . S
S1948 N1950 1.610 . S
N1949 S1948 1.613 . S
N1949 C1952 1.350 . S
N1950 S1948 1.610 . S
N1950 C1951 1.351 . S
C1951 C1945 1.428 . S
C1951 N1950 1.351 . S
C1951 C1952 1.434 . S
C1952 C1943 1.429 . S
C1952 N1949 1.350 . S
C1952 C1951 1.434 . S
C1953 C1954 1.369 . S
C1953 C1955 1.419 . S
C1953 H1957 0.930 . S
C1954 C1953 1.369 . S
C1954 C1963 1.429 . S
C1955 C1953 1.419 . S
C1955 C1956 1.363 . S
C1955 H1958 0.929 1_554 S
C1956 C1955 1.363 . S
C1956 C1962 1.428 . S
H1957 C1953 0.930 . S
H1958 C1955 0.929 1_556 S
S1959 N1960 1.613 . S
S1959 N1961 1.610 . S
N1960 S1959 1.613 . S
N1960 C1963 1.350 . S
N1961 S1959 1.610 . S
N1961 C1962 1.351 . S
C1962 C1956 1.428 . S
C1962 N1961 1.351 . S
C1962 C1963 1.434 . S
C1963 C1954 1.429 . S
C1963 N1960 1.350 . S
C1963 C1962 1.434 . S
C1964 C1965 1.369 . S
C1964 C1966 1.419 . S
C1964 H1968 0.930 . S
C1965 C1964 1.369 . S
C1965 C1974 1.429 . S
C1966 C1964 1.419 . S
C1966 C1967 1.363 . S
C1966 H1969 0.929 . S
C1967 C1966 1.363 . S
C1967 C1973 1.428 . S
H1968 C1964 0.930 . S
H1969 C1966 0.929 . S
S1970 N1971 1.613 . S
S1970 N1972 1.610 . S
N1971 S1970 1.613 . S
N1971 C1974 1.350 . S
N1972 S1970 1.610 . S
N1972 C1973 1.351 . S
C1973 C1967 1.428 . S
C1973 N1972 1.351 . S
C1973 C1974 1.434 . S
C1974 C1965 1.429 . S
C1974 N1971 1.350 . S
C1974 C1973 1.434 . S
C1975 C1976 1.369 . S
C1975 C1977 1.419 . S
C1975 H1979 0.930 . S
C1976 C1975 1.369 . S
C1976 C1985 1.429 . S
C1977 C1975 1.419 . S
C1977 C1978 1.363 . S
C1977 H1980 0.929 . S
C1978 C1977 1.363 . S
C1978 C1984 1.428 . S
H1979 C1975 0.930 . S
H1980 C1977 0.929 . S
S1981 N1982 1.613 . S
S1981 N1983 1.610 . S
N1982 S1981 1.613 . S
N1982 C1985 1.350 . S
N1983 S1981 1.610 . S
N1983 C1984 1.351 . S
C1984 C1978 1.428 . S
C1984 N1983 1.351 . S
C1984 C1985 1.434 . S
C1985 C1976 1.429 . S
C1985 N1982 1.350 . S
C1985 C1984 1.434 . S
C1986 C1987 1.369 . S
C1986 C1988 1.419 . S
C1986 H1990 0.930 . S
C1987 C1986 1.369 . S
C1987 C1996 1.429 . S
C1988 C1986 1.419 . S
C1988 C1989 1.363 . S
C1988 H1991 0.929 . S
C1989 C1988 1.363 . S
C1989 C1995 1.428 . S
H1990 C1986 0.930 . S
H1991 C1988 0.929 . S
S1992 N1993 1.613 . S
S1992 N1994 1.610 . S
N1993 S1992 1.613 . S
N1993 C1996 1.350 . S
N1994 S1992 1.610 . S
N1994 C1995 1.351 . S
C1995 C1989 1.428 . S
C1995 N1994 1.351 . S
C1995 C1996 1.434 . S
C1996 C1987 1.429 . S
C1996 N1993 1.350 . S
C1996 C1995 1.434 . S
C1997 C1998 1.369 . S
C1997 C1999 1.419 . S
C1997 H2001 0.930 . S
C1998 C1997 1.369 . S
C1998 C2007 1.429 . S
C1999 C1997 1.419 . S
C1999 C2000 1.363 . S
C1999 H2002 0.929 . S
C2000 C1999 1.363 . S
C2000 C2006 1.428 . S
H2001 C1997 0.930 . S
H2002 C1999 0.929 . S
S2003 N2004 1.613 . S
S2003 N2005 1.610 . S
N2004 S2003 1.613 . S
N2004 C2007 1.350 . S
N2005 S2003 1.610 . S
N2005 C2006 1.351 . S
C2006 C2000 1.428 . S
C2006 N2005 1.351 . S
C2006 C2007 1.434 . S
C2007 C1998 1.429 . S
C2007 N2004 1.350 . S
C2007 C2006 1.434 . S
C953 C101 1.835 . S
C955 C318 1.706 . S
C964 C57 2.130 . S
C966 C370 1.946 . S
C975 C70 1.334 . S
C977 C402 1.368 1_565 S
C988 C451 2.426 . S
C986 C82 2.427 . S
C997 C23 1.298 . S
C999 C487 1.250 . S
C1010 C518 0.697 . S
C1008 C29 0.658 . S
C1021 C570 0.416 . S
C1019 C49 0.564 . S
C1030 C10 3.147 . S
C1032 C598 2.959 . S
C1043 C330 2.120 . S
C1041 C218 2.306 . S
C1052 C226 1.768 . S
C1054 C371 1.812 . S
C1065 C401 1.815 . S
C1063 C251 1.986 . S
C1076 C438 0.926 . S
C1074 C159 0.971 . S
C1085 C211 1.805 . S
C1087 C482 1.825 . S
C1098 C530 2.029 . S
C1096 C225 1.991 . S
C1109 C571 1.801 . S
C1107 C252 1.766 . S
C1120 C610 2.234 . S
C1118 C166 2.413 . S
C1131 C331 2.422 . S
C1129 C147 2.395 . S
C1140 C263 1.557 . S
C1142 C641 1.534 . S
C1153 C691 2.397 . S
C1151 C309 2.392 . S
C1164 C718 1.005 . S
C1162 C291 1.012 . S
C1173 C108 2.975 . S
C1175 C611 2.914 . S
C1184 C121 1.863 . S
C1186 C407 1.709 . S
C1195 C302 2.546 . S
C1197 C770 2.431 . S
C1208 C798 1.480 . S
C1206 C276 1.598 . S
C1219 C327 1.457 . S
C1217 C55 1.552 . S
C1230 C801 2.134 . S
C1228 C96 2.266 1_655 S
C1239 C88 1.611 . S
C1241 C411 1.624 . S
C1250 C75 2.790 . S
C1252 C762 2.770 . S
C1263 C478 1.416 . S
C1261 C4 1.445 . S
C1272 C44 1.140 . S
C1274 C687 1.091 . S
C1285 C561 0.708 . S
C1283 C31 0.723 . S
C1296 C847 2.106 . S
C1294 C18 2.224 . S
C1307 C321 2.162 . S
C1305 C133 2.313 . S
C1318 C802 2.119 . S
C1316 C296 2.065 . S
C1327 C107 2.241 . S
C1329 C410 2.131 . S
C1338 C264 1.001 . S
C1340 C767 0.919 . S
C1349 C140 2.055 . S
C1351 C491 2.055 . S
C1362 C681 2.141 . S
C1360 C289 2.093 . S
C1371 C114 2.153 . S
C1373 C562 2.186 . S
C1382 C265 2.125 . S
C1384 C841 2.026 . S
C1393 C179 2.460 . S
C1395 C322 2.477 1_655 S
C1404 C161 2.185 . S
C1406 C650 2.171 . S
C1415 C244 2.729 . S
C1417 C522 2.723 . S
C1426 C224 1.232 . S
C1428 C727 1.206 . S
C1439 C842 2.660 . S
C1437 C257 2.672 . S
C1448 C199 2.038 . S
C1450 C398 1.907 . S
C1461 C441 2.600 . S
C1459 C237 2.714 . S
C1472 C367 1.551 . S
C1470 C185 1.677 . S
C1481 C69 1.830 . S
C1483 C878 1.676 . S
C1494 C810 2.005 . S
C1492 C83 2.208 . S
C1503 C94 1.463 . S
C1505 C922 1.499 . S
C1514 C56 2.431 . S
C1516 C771 2.436 . S
C1525 C42 1.337 . S
C1527 C647 1.256 . S
C1538 C678 0.893 . S
C1536 C3 0.909 . S
C1549 C730 0.381 . S
C1547 C16 0.655 . S
C1560 C838 2.260 . S
C1558 C36 2.431 . S
C1571 C890 2.036 . S
C1569 C238 2.235 . S
C1580 C174 1.849 1_556 S
C1582 C811 1.885 . S
C1593 C921 1.840 . S
C1591 C186 1.976 . S
C1604 C758 0.808 . S
C1602 C198 0.837 . S
C1615 C642 1.935 1_556 S
C1613 C239 1.913 . S
C1624 C173 2.114 . S
C1626 C690 2.109 . S
C1637 C731 1.808 . S
C1635 C187 1.778 . S
C1646 C205 2.430 . S
C1648 C850 2.235 . S
C1659 C891 2.402 . S
C1657 C290 2.369 . S
C1668 C122 1.782 . S
C1670 C481 1.830 . S
C1681 C531 2.364 . S
C1679 C134 2.347 1_565 S
C1692 C558 1.112 . S
C1690 C148 1.120 . S
C1703 C851 2.881 . S
C1701 C283 2.936 . S
C1712 C270 1.597 . S
C1714 C927 1.465 . S
C1725 C450 2.482 . S
C1723 C135 2.580 . S
C1736 C358 1.476 . S
C1734 C109 1.597 . S
C1745 C81 1.537 . S
C1747 C887 1.448 . S
C1758 C361 2.160 . S
C1756 C68 2.312 . S
C1767 C62 1.649 . S
C1769 C931 1.667 . S
C1778 C95 2.792 . S
C1780 C442 2.782 . S
C1789 C30 1.427 . S
C1791 C638 1.364 . S
C1802 C527 1.082 . S
C1800 C17 1.111 . S
C1811 C5 0.823 . S
C1813 C721 0.869 . S
C1822 C43 2.031 . S
C1824 C607 1.925 . S
C1835 C881 2.121 . S
C1833 C304 2.274 . S
C1844 C153 2.101 . S
C1846 C362 2.151 . S
C1857 C930 2.204 1_556 S
C1855 C278 2.291 1_455 S
C1866 C127 1.161 . S
C1868 C447 1.081 . S
C1877 C303 2.134 . S
C1879 C651 2.150 . S
C1890 C521 2.207 . S
C1888 C146 2.186 1_556 S
C1899 C277 2.092 . S
C1901 C722 2.131 . S
C1912 C601 1.875 . S
C1910 C120 1.980 . S
C1923 C882 2.483 . S
C1921 C231 2.463 . S
C1934 C490 2.246 1_655 S
C1932 C200 2.235 . S
C1943 C212 2.721 . S
C1945 C682 2.710 . S
C1956 C567 1.271 . S
C1954 C172 1.309 . S
C1965 C192 2.625 . S
C1967 C602 2.607 . S
C1976 C160 1.956 . S
C1978 C918 1.825 . S
C1989 C761 2.622 . S
C1987 C213 2.721 1_565 S
C2000 C807 1.502 . S
C1998 C250 1.627 . S
