# Generated by pormake.
# Topology ctn, (3,4)-cn, num edge types: 1
# Building blocks:
#     Node 0, Type 0, BuildingBlock: WUSLED_clean_sbu_0, # of connection points: 3
#     Node 1, Type 0, BuildingBlock: WUSLED_clean_sbu_0, # of connection points: 3
#     Node 2, Type 0, BuildingBlock: WUSLED_clean_sbu_0, # of connection points: 3
#     Node 3, Type 0, BuildingBlock: WUSLED_clean_sbu_0, # of connection points: 3
#     Node 4, Type 0, BuildingBlock: WUSLED_clean_sbu_0, # of connection points: 3
#     Node 5, Type 0, BuildingBlock: WUSLED_clean_sbu_0, # of connection points: 3
#     Node 6, Type 0, BuildingBlock: WUSLED_clean_sbu_0, # of connection points: 3
#     Node 7, Type 0, BuildingBlock: WUSLED_clean_sbu_0, # of connection points: 3
#     Node 8, Type 0, BuildingBlock: WUSLED_clean_sbu_0, # of connection points: 3
#     Node 9, Type 0, BuildingBlock: WUSLED_clean_sbu_0, # of connection points: 3
#     Node 10, Type 0, BuildingBlock: WUSLED_clean_sbu_0, # of connection points: 3
#     Node 11, Type 0, BuildingBlock: WUSLED_clean_sbu_0, # of connection points: 3
#     Node 12, Type 0, BuildingBlock: WUSLED_clean_sbu_0, # of connection points: 3
#     Node 13, Type 0, BuildingBlock: WUSLED_clean_sbu_0, # of connection points: 3
#     Node 14, Type 0, BuildingBlock: WUSLED_clean_sbu_0, # of connection points: 3
#     Node 15, Type 0, BuildingBlock: WUSLED_clean_sbu_0, # of connection points: 3
#     Node 16, Type 1, BuildingBlock: NAHDIM_clean_sbu_0, # of connection points: 4
#     Node 17, Type 1, BuildingBlock: NAHDIM_clean_sbu_0, # of connection points: 4
#     Node 18, Type 1, BuildingBlock: NAHDIM_clean_sbu_0, # of connection points: 4
#     Node 19, Type 1, BuildingBlock: NAHDIM_clean_sbu_0, # of connection points: 4
#     Node 20, Type 1, BuildingBlock: NAHDIM_clean_sbu_0, # of connection points: 4
#     Node 21, Type 1, BuildingBlock: NAHDIM_clean_sbu_0, # of connection points: 4
#     Node 22, Type 1, BuildingBlock: NAHDIM_clean_sbu_0, # of connection points: 4
#     Node 23, Type 1, BuildingBlock: NAHDIM_clean_sbu_0, # of connection points: 4
#     Node 24, Type 1, BuildingBlock: NAHDIM_clean_sbu_0, # of connection points: 4
#     Node 25, Type 1, BuildingBlock: NAHDIM_clean_sbu_0, # of connection points: 4
#     Node 26, Type 1, BuildingBlock: NAHDIM_clean_sbu_0, # of connection points: 4
#     Node 27, Type 1, BuildingBlock: NAHDIM_clean_sbu_0, # of connection points: 4
#     Edge 28, Type (0, 1), BuildingBlock: AJUNOK_clean_linker_0, # of connection points: 2
#     Edge 29, Type (0, 1), BuildingBlock: AJUNOK_clean_linker_0, # of connection points: 2
#     Edge 30, Type (0, 1), BuildingBlock: AJUNOK_clean_linker_0, # of connection points: 2
#     Edge 31, Type (0, 1), BuildingBlock: AJUNOK_clean_linker_0, # of connection points: 2
#     Edge 32, Type (0, 1), BuildingBlock: AJUNOK_clean_linker_0, # of connection points: 2
#     Edge 33, Type (0, 1), BuildingBlock: AJUNOK_clean_linker_0, # of connection points: 2
#     Edge 34, Type (0, 1), BuildingBlock: AJUNOK_clean_linker_0, # of connection points: 2
#     Edge 35, Type (0, 1), BuildingBlock: AJUNOK_clean_linker_0, # of connection points: 2
#     Edge 36, Type (0, 1), BuildingBlock: AJUNOK_clean_linker_0, # of connection points: 2
#     Edge 37, Type (0, 1), BuildingBlock: AJUNOK_clean_linker_0, # of connection points: 2
#     Edge 38, Type (0, 1), BuildingBlock: AJUNOK_clean_linker_0, # of connection points: 2
#     Edge 39, Type (0, 1), BuildingBlock: AJUNOK_clean_linker_0, # of connection points: 2
#     Edge 40, Type (0, 1), BuildingBlock: AJUNOK_clean_linker_0, # of connection points: 2
#     Edge 41, Type (0, 1), BuildingBlock: AJUNOK_clean_linker_0, # of connection points: 2
#     Edge 42, Type (0, 1), BuildingBlock: AJUNOK_clean_linker_0, # of connection points: 2
#     Edge 43, Type (0, 1), BuildingBlock: AJUNOK_clean_linker_0, # of connection points: 2
#     Edge 44, Type (0, 1), BuildingBlock: AJUNOK_clean_linker_0, # of connection points: 2
#     Edge 45, Type (0, 1), BuildingBlock: AJUNOK_clean_linker_0, # of connection points: 2
#     Edge 46, Type (0, 1), BuildingBlock: AJUNOK_clean_linker_0, # of connection points: 2
#     Edge 47, Type (0, 1), BuildingBlock: AJUNOK_clean_linker_0, # of connection points: 2
#     Edge 48, Type (0, 1), BuildingBlock: AJUNOK_clean_linker_0, # of connection points: 2
#     Edge 49, Type (0, 1), BuildingBlock: AJUNOK_clean_linker_0, # of connection points: 2
#     Edge 50, Type (0, 1), BuildingBlock: AJUNOK_clean_linker_0, # of connection points: 2
#     Edge 51, Type (0, 1), BuildingBlock: AJUNOK_clean_linker_0, # of connection points: 2
#     Edge 52, Type (0, 1), BuildingBlock: AJUNOK_clean_linker_0, # of connection points: 2
#     Edge 53, Type (0, 1), BuildingBlock: AJUNOK_clean_linker_0, # of connection points: 2
#     Edge 54, Type (0, 1), BuildingBlock: AJUNOK_clean_linker_0, # of connection points: 2
#     Edge 55, Type (0, 1), BuildingBlock: AJUNOK_clean_linker_0, # of connection points: 2
#     Edge 56, Type (0, 1), BuildingBlock: AJUNOK_clean_linker_0, # of connection points: 2
#     Edge 57, Type (0, 1), BuildingBlock: AJUNOK_clean_linker_0, # of connection points: 2
#     Edge 58, Type (0, 1), BuildingBlock: AJUNOK_clean_linker_0, # of connection points: 2
#     Edge 59, Type (0, 1), BuildingBlock: AJUNOK_clean_linker_0, # of connection points: 2
#     Edge 60, Type (0, 1), BuildingBlock: AJUNOK_clean_linker_0, # of connection points: 2
#     Edge 61, Type (0, 1), BuildingBlock: AJUNOK_clean_linker_0, # of connection points: 2
#     Edge 62, Type (0, 1), BuildingBlock: AJUNOK_clean_linker_0, # of connection points: 2
#     Edge 63, Type (0, 1), BuildingBlock: AJUNOK_clean_linker_0, # of connection points: 2
#     Edge 64, Type (0, 1), BuildingBlock: AJUNOK_clean_linker_0, # of connection points: 2
#     Edge 65, Type (0, 1), BuildingBlock: AJUNOK_clean_linker_0, # of connection points: 2
#     Edge 66, Type (0, 1), BuildingBlock: AJUNOK_clean_linker_0, # of connection points: 2
#     Edge 67, Type (0, 1), BuildingBlock: AJUNOK_clean_linker_0, # of connection points: 2
#     Edge 68, Type (0, 1), BuildingBlock: AJUNOK_clean_linker_0, # of connection points: 2
#     Edge 69, Type (0, 1), BuildingBlock: AJUNOK_clean_linker_0, # of connection points: 2
#     Edge 70, Type (0, 1), BuildingBlock: AJUNOK_clean_linker_0, # of connection points: 2
#     Edge 71, Type (0, 1), BuildingBlock: AJUNOK_clean_linker_0, # of connection points: 2
#     Edge 72, Type (0, 1), BuildingBlock: AJUNOK_clean_linker_0, # of connection points: 2
#     Edge 73, Type (0, 1), BuildingBlock: AJUNOK_clean_linker_0, # of connection points: 2
#     Edge 74, Type (0, 1), BuildingBlock: AJUNOK_clean_linker_0, # of connection points: 2
#     Edge 75, Type (0, 1), BuildingBlock: AJUNOK_clean_linker_0, # of connection points: 2
# Relax obj value: 0.002
# Max RMSD: 0.033
# Mean RMSD: 0.019
data_MOF--net-ctn--node1-WUSLED_clean_sbu_0--node2-NAHDIM_clean_sbu_0--edge1-AJUNOK_clean_linker_0
_symmetry_space_group_name_H-M    P1
_symmetry_Int_Tables_number       1
_symmetry_cell_setting            triclinic
loop_
_symmetry_equiv_pos_as_xyz
'x, y, z'
_cell_length_a     55.804565
_cell_length_b     56.24878
_cell_length_c     55.78498
_cell_angle_alpha  91.693367
_cell_angle_beta   89.966318
_cell_angle_gamma 91.988278
loop_
_atom_site_label
_atom_site_type_symbol
_atom_site_fract_x
_atom_site_fract_y
_atom_site_fract_z
_atom_type_partial_charge
C0 C 1.00881 0.07166 0.10778 0.0
C1 C 0.02002 0.05744 0.12442 0.0
C2 C 0.98375 0.05633 0.14891 0.0
C3 C 1.00762 0.0499 0.14486 0.0
C4 C 0.97268 0.07058 0.13215 0.0
C5 C 0.98508 0.07813 0.11179 0.0
U6 U 0.05968 0.06872 0.06138 0.0
O7 O 0.05835 0.07291 0.02232 0.0
O8 O 0.08029 0.09793 0.04463 0.0
C9 C 0.07178 0.09259 0.02311 0.0
C10 C 0.02147 0.08005 0.08625 0.0
C11 C 0.06274 0.11262 1.0097 0.0
C12 C 0.03147 0.14006 1.00052 0.0
C13 C 0.03977 0.12128 1.0139 0.0
C14 C 0.06911 0.14189 0.97891 0.0
C15 C 0.046 0.15046 0.98274 0.0
C16 C 0.07735 0.12313 0.99223 0.0
C17 C 0.10755 0.02101 0.06695 0.0
C18 C 0.13086 1.00003 0.03659 0.0
C19 C 0.14479 1.00268 0.0777 0.0
C20 C 0.12481 1.0158 0.08413 0.0
C21 C 0.14783 0.99425 0.05394 0.0
C22 C 0.1109 1.01327 0.04302 0.0
C23 C 0.0858 0.03343 0.07477 0.0
O24 O 0.04279 0.09022 0.08986 0.0
O25 O 0.02071 0.06536 0.06749 0.0
O26 O 0.06673 0.0305 0.06102 0.0
O27 O 0.08911 0.05541 0.08311 0.0
H28 H 0.03837 0.05228 0.12166 0.0
H29 H 1.0168 0.03932 0.15765 0.0
H30 H 0.9543 0.07572 0.13469 0.0
H31 H 0.97612 0.08907 0.09914 0.0
H32 H 1.01377 0.14657 1.00422 0.0
H33 H 0.02828 0.1135 0.02745 0.0
H34 H 0.08069 0.14946 0.96531 0.0
H35 H 0.09515 0.11671 0.98876 0.0
H36 H 0.13274 0.99384 0.01813 0.0
H37 H 0.15785 0.99909 0.09136 0.0
H38 H 0.12267 0.02166 0.10266 0.0
H39 H 0.09793 1.0171 0.02934 0.0
C40 C 0.29294 0.76299 0.17135 0.0
C41 C 0.29486 0.78751 0.17712 0.0
C42 C 0.29448 0.79674 0.13467 0.0
C43 C 0.29549 0.80422 0.15894 0.0
C44 C 0.29275 0.77222 0.12898 0.0
C45 C 0.29197 0.75557 0.14712 0.0
U46 U 0.31336 0.73348 0.22924 0.0
O47 O 0.29162 0.71825 0.25835 0.0
O48 O 0.31512 0.69544 0.23698 0.0
C49 C 0.29863 0.69651 0.25376 0.0
C50 C 0.29088 0.74485 0.19003 0.0
C51 C 0.27957 0.67774 0.2524 0.0
C52 C 0.24442 0.65871 0.23326 0.0
C53 C 0.26205 0.67711 0.23432 0.0
C54 C 0.26159 0.64158 0.26841 0.0
C55 C 0.24412 0.64063 0.25023 0.0
C56 C 0.27915 0.65993 0.26945 0.0
C57 C 0.36857 0.75856 0.2639 0.0
C58 C 0.37993 0.7466 0.30378 0.0
C59 C 0.4072 0.77142 0.28078 0.0
C60 C 0.39064 0.77104 0.26195 0.0
C61 C 0.40196 0.75941 0.30201 0.0
C62 C 0.36337 0.74616 0.28486 0.0
C63 C 0.3513 0.75886 0.24393 0.0
O64 O 0.30783 0.7292 0.19019 0.0
O65 O 0.28457 0.75223 0.21164 0.0
O66 O 0.32923 0.76412 0.24974 0.0
O67 O 0.35234 0.74109 0.22818 0.0
H68 H 0.29564 0.7938 0.19565 0.0
H69 H 0.29683 0.82299 0.16384 0.0
H70 H 0.29145 0.76593 0.11047 0.0
H71 H 0.29027 0.7368 0.1422 0.0
H72 H 0.23096 0.6587 0.21929 0.0
H73 H 0.26207 0.69078 0.22104 0.0
H74 H 0.26192 0.62788 0.28164 0.0
H75 H 0.29254 0.66012 0.28352 0.0
H76 H 0.37558 0.73682 0.31973 0.0
H77 H 0.42398 0.78148 0.27892 0.0
H78 H 0.395 0.78066 0.24589 0.0
H79 H 0.34651 0.73623 0.28662 0.0
C80 C 0.97864 0.44016 1.00749 0.0
C81 C 0.98104 0.41791 0.01798 0.0
C82 C 0.99579 0.40104 0.98022 0.0
C83 C 0.98943 0.39853 1.00443 0.0
C84 C 0.99339 0.42328 0.9698 0.0
C85 C 0.98487 0.44259 0.98327 0.0
U86 U 0.97864 0.48601 0.06038 0.0
O87 O 0.97193 0.52432 0.06032 0.0
O88 O 0.94828 0.50042 0.08074 0.0
C89 C 0.95226 0.52211 0.07318 0.0
C90 C 0.96887 0.46079 0.02095 0.0
C91 C 0.93113 0.53417 0.06425 0.0
C92 C 0.90389 0.54385 0.03219 0.0
C93 C 0.92387 0.53185 0.04018 0.0
C94 C 0.89816 0.56041 0.07226 0.0
C95 C 0.89075 0.55822 0.04818 0.0
C96 C 0.91812 0.54849 0.0802 0.0
C97 C 0.02697 0.48357 0.10968 0.0
C98 C 0.04198 0.51549 0.1367 0.0
C99 C 0.0488 0.47446 0.14582 0.0
C100 C 0.03655 0.46694 0.12493 0.0
C101 C 0.05176 0.49882 0.15194 0.0
C102 C 0.02961 0.50794 0.11581 0.0
C103 C 1.01512 0.475 0.08721 0.0
O104 O 0.95866 0.45657 0.04173 0.0
O105 O 0.98228 0.48048 0.02127 0.0
O106 O 0.01713 0.489 0.06879 0.0
O107 O 0.99354 0.46521 0.08943 0.0
H108 H 0.97635 0.41541 0.0366 0.0
H109 H 0.99112 0.38159 1.01292 0.0
H110 H 0.99772 0.42564 0.95107 0.0
H111 H 0.98294 0.45944 0.97467 0.0
H112 H 0.89894 0.54214 1.01343 0.0
H113 H 0.93372 0.52091 0.02756 0.0
H114 H 0.88835 0.5712 0.08505 0.0
H115 H 0.92343 0.55048 0.09885 0.0
H116 H 0.04432 0.53439 0.14064 0.0
H117 H 0.05598 0.46117 0.15724 0.0
H118 H 0.03473 0.44807 0.12054 0.0
H119 H 0.0224 0.52114 0.10432 0.0
C120 C 0.72558 0.77136 0.18228 0.0
C121 C 0.74558 0.75678 0.18261 0.0
C122 C 0.73929 0.74527 0.14054 0.0
C123 C 0.75239 0.74394 0.16195 0.0
C124 C 0.71948 0.76002 0.14013 0.0
C125 C 0.71263 0.77278 0.16078 0.0
U126 U 0.72848 0.8227 0.22995 0.0
O127 O 0.69914 0.84224 0.24679 0.0
O128 O 0.7229 0.82179 0.26904 0.0
C129 C 0.70354 0.83441 0.26826 0.0
C130 C 0.71717 0.78391 0.20439 0.0
C131 C 0.68257 0.82511 0.28155 0.0
C132 C 0.64635 0.79995 0.28405 0.0
C133 C 0.66672 0.80771 0.27135 0.0
C134 C 0.6577 0.82663 0.31731 0.0
C135 C 0.64162 0.80934 0.30718 0.0
C136 C 0.67798 0.83439 0.30462 0.0
C137 C 0.77654 0.87347 0.22461 0.0
C138 C 0.80139 0.8975 0.25269 0.0
C139 C 0.78806 0.91448 0.21585 0.0
C140 C 0.77613 0.89296 0.20945 0.0
C141 C 0.8008 0.91702 0.23755 0.0
C142 C 0.78933 0.87596 0.24634 0.0
C143 C 0.76459 0.85059 0.21672 0.0
O144 O 0.73135 0.78414 0.22324 0.0
O145 O 0.70699 0.80436 0.20146 0.0
O146 O 0.74277 0.85194 0.20811 0.0
O147 O 0.76709 0.83221 0.23045 0.0
H148 H 0.7559 0.75508 0.19886 0.0
H149 H 0.76796 0.73302 0.1627 0.0
H150 H 0.70897 0.76129 0.12393 0.0
H151 H 0.69694 0.78355 0.15998 0.0
H152 H 0.63429 0.7866 0.2758 0.0
H153 H 0.66997 0.80032 0.25354 0.0
H154 H 0.6543 0.83458 0.33485 0.0
H155 H 0.68993 0.84794 0.31271 0.0
H156 H 0.8111 0.89896 0.26951 0.0
H157 H 0.7877 0.92904 0.20358 0.0
H158 H 0.76676 0.89146 0.19244 0.0
H159 H 0.79019 0.86126 0.25838 0.0
C160 C 1.00597 0.97597 0.43397 0.0
C161 C 1.01159 0.9978 0.42335 0.0
C162 C 0.98078 0.9895 0.39289 0.0
C163 C 0.99907 1.00452 0.40296 0.0
C164 C 0.97531 0.96769 0.40367 0.0
C165 C 0.98775 0.96103 0.42401 0.0
U166 U 0.05692 0.98167 0.48067 0.0
O167 O 0.05563 0.97535 0.51938 0.0
O168 O 0.078 0.95332 0.49593 0.0
C169 C 0.06926 0.95677 0.51759 0.0
C170 C 0.01891 0.9682 0.45522 0.0
C171 C 0.06057 0.93521 0.52984 0.0
C172 C 0.02843 0.90798 0.54245 0.0
C173 C 0.03616 0.92821 0.53011 0.0
C174 C 0.06939 0.90134 0.55409 0.0
C175 C 0.04498 0.89427 0.55455 0.0
C176 C 0.07709 0.92158 0.54186 0.0
C177 C 0.10441 0.03325 0.47818 0.0
C178 C 0.14739 0.03665 0.48613 0.0
C179 C 0.12291 0.071 0.49221 0.0
C180 C 0.1026 0.05738 0.48492 0.0
C181 C 0.14556 0.06086 0.49266 0.0
C182 C 0.12703 0.02297 0.47897 0.0
C183 C 0.08274 0.01968 0.46936 0.0
O184 O 0.04036 0.96003 0.45118 0.0
O185 O 0.018 0.98224 0.47444 0.0
O186 O 0.0637 0.02051 0.48321 0.0
O187 O 0.08591 0.99843 0.45964 0.0
H188 H 0.02572 1.00951 0.43073 0.0
H189 H 1.00398 0.02124 0.39482 0.0
H190 H 0.96126 0.95579 0.39642 0.0
H191 H 0.98317 0.94412 0.43196 0.0
H192 H 1.00945 0.90329 0.54283 0.0
H193 H 0.02308 0.93848 0.52098 0.0
H194 H 0.0826 0.89111 0.56309 0.0
H195 H 0.096 0.92666 0.54185 0.0
H196 H 0.16456 0.02827 0.4867 0.0
H197 H 0.12097 0.08962 0.49708 0.0
H198 H 0.08545 0.06581 0.4843 0.0
H199 H 0.12908 1.00441 0.47392 0.0
C200 C 0.2238 0.78402 0.86156 0.0
C201 C 0.21738 0.77748 0.88495 0.0
C202 C 0.23995 0.81182 0.90197 0.0
C203 C 0.22537 0.79124 0.90491 0.0
C204 C 0.24618 0.81848 0.87863 0.0
C205 C 0.23816 0.80478 0.85868 0.0
U206 U 0.22548 0.73195 0.81491 0.0
O207 O 0.19602 0.71007 0.79867 0.0
O208 O 0.21931 0.73207 0.77588 0.0
C209 C 0.19992 0.71822 0.7771 0.0
C210 C 0.21447 0.77026 0.84016 0.0
C211 C 0.17873 0.72622 0.76414 0.0
C212 C 0.14024 0.74528 0.76331 0.0
C213 C 0.16056 0.73868 0.77594 0.0
C214 C 0.15624 0.72751 0.72689 0.0
C215 C 0.13787 0.73977 0.73863 0.0
C216 C 0.17645 0.72082 0.73953 0.0
C217 C 0.27558 0.6865 0.81993 0.0
C218 C 0.27666 0.64706 0.80087 0.0
C219 C 0.31236 0.66456 0.81986 0.0
C220 C 0.29979 0.6849 0.82614 0.0
C221 C 0.30096 0.64539 0.80716 0.0
C222 C 0.26408 0.6675 0.80711 0.0
C223 C 0.2627 0.70785 0.82775 0.0
O224 O 0.22791 0.77083 0.8208 0.0
O225 O 0.20471 0.74905 0.8438 0.0
O226 O 0.24102 0.70419 0.83642 0.0
O227 O 0.26432 0.72604 0.81351 0.0
H228 H 0.20604 0.76183 0.88788 0.0
H229 H 0.22023 0.78572 0.92268 0.0
H230 H 0.25691 0.83456 0.87576 0.0
H231 H 0.24301 0.81064 0.84095 0.0
H232 H 0.12639 0.75475 0.77281 0.0
H233 H 0.16198 0.74312 0.79493 0.0
H234 H 0.15473 0.72261 0.70801 0.0
H235 H 0.19023 0.71115 0.73011 0.0
H236 H 0.26743 0.63257 0.79106 0.0
H237 H 0.33089 0.66363 0.82541 0.0
H238 H 0.30894 0.6993 0.83616 0.0
H239 H 0.24539 0.66839 0.80211 0.0
C240 C 0.97625 0.61032 0.53432 0.0
C241 C 0.9988 0.62094 0.52951 0.0
C242 C 0.99285 0.65092 0.56129 0.0
C243 C 1.00702 0.64109 0.54286 0.0
C244 C 0.97009 0.64044 0.56569 0.0
C245 C 0.9619 0.6203 0.55236 0.0
U246 U 0.98136 0.56304 0.48366 0.0
O247 O 0.97488 0.5243 0.48446 0.0
O248 O 0.95303 0.54562 0.46113 0.0
C249 C 0.9565 0.52451 0.46975 0.0
C250 C 0.96753 0.58868 0.52104 0.0
C251 C 0.93487 0.51083 0.47712 0.0
C252 C 0.90461 0.5001 0.50674 0.0
C253 C 0.92445 0.51431 0.49983 0.0
C254 C 0.90521 0.47915 0.4682 0.0
C255 C 0.89486 0.48225 0.49102 0.0
C256 C 0.92498 0.49331 0.46133 0.0
C257 C 0.03503 0.56746 0.43971 0.0
C258 C 0.03915 0.55465 0.39781 0.0
C259 C 0.07453 0.5618 0.42241 0.0
C260 C 0.06006 0.56776 0.442 0.0
C261 C 0.0643 0.55543 0.39999 0.0
C262 C 0.02463 0.56055 0.41751 0.0
C263 C 0.02052 0.5757 0.46038 0.0
O264 O 0.95984 0.59181 0.49913 0.0
O265 O 0.98093 0.57004 0.52267 0.0
O266 O 0.02063 0.56245 0.47939 0.0
O267 O 0.99928 0.58383 0.45563 0.0
H268 H 1.01007 0.61357 0.51552 0.0
H269 H 0.02443 0.64904 0.53871 0.0
H270 H 0.95879 0.64755 0.57978 0.0
H271 H 0.94443 0.61237 0.5563 0.0
H272 H 0.89728 0.50268 0.52457 0.0
H273 H 0.9319 0.52771 0.51231 0.0
H274 H 0.89803 0.46567 0.45564 0.0
H275 H 0.93276 0.49036 0.44374 0.0
H276 H 0.0307 0.55023 0.38071 0.0
H277 H 0.09382 0.56243 0.42473 0.0
H278 H 0.0685 0.57305 0.45891 0.0
H279 H 1.00535 0.56019 0.4152 0.0
C280 C 0.7865 0.78196 0.87017 0.0
C281 C 0.79068 0.78727 0.89462 0.0
C282 C 0.78172 0.74601 0.90452 0.0
C283 C 0.78846 0.76947 0.91159 0.0
C284 C 0.77827 0.74051 0.87998 0.0
C285 C 0.78061 0.75828 0.86297 0.0
U286 U 0.80949 0.81602 0.81467 0.0
O287 O 0.78881 0.83343 0.78705 0.0
O288 O 0.81366 0.85477 0.81011 0.0
C289 C 0.79673 0.85491 0.79372 0.0
C290 C 0.78638 0.80163 0.853 0.0
C291 C 0.77866 0.87354 0.7967 0.0
C292 C 0.73749 0.88659 0.79469 0.0
C293 C 0.75396 0.86834 0.79367 0.0
C294 C 0.76994 0.91551 0.80215 0.0
C295 C 0.7453 0.91038 0.79889 0.0
C296 C 0.78641 0.89731 0.80102 0.0
C297 C 0.86232 0.79242 0.77684 0.0
C298 C 0.89717 0.81012 0.75676 0.0
C299 C 0.87881 0.77332 0.74098 0.0
C300 C 0.86188 0.77379 0.75949 0.0
C301 C 0.89668 0.79144 0.73944 0.0
C302 C 0.88013 0.81066 0.77523 0.0
C303 C 0.84511 0.79152 0.79713 0.0
O304 O 0.80476 0.81691 0.85395 0.0
O305 O 0.77927 0.79625 0.83096 0.0
O306 O 0.82253 0.78678 0.79152 0.0
O307 O 0.84779 0.80794 0.8143 0.0
H308 H 0.79505 0.80537 0.90071 0.0
H309 H 0.79116 0.77424 0.93038 0.0
H310 H 0.77346 0.72249 0.87397 0.0
H311 H 0.77729 0.75351 0.84429 0.0
H312 H 0.71861 0.88212 0.79211 0.0
H313 H 0.74734 0.85025 0.79016 0.0
H314 H 0.77657 0.93371 0.80491 0.0
H315 H 0.80533 0.90189 0.80305 0.0
H316 H 0.91075 0.82431 0.75601 0.0
H317 H 0.87827 0.75843 0.7282 0.0
H318 H 0.84862 0.75931 0.76047 0.0
H319 H 0.88113 0.82522 0.78837 0.0
C320 C 0.28644 0.28738 0.37273 0.0
C321 C 0.29471 0.26434 0.36832 0.0
C322 C 0.28273 0.25295 0.40861 0.0
C323 C 0.29284 0.24725 0.38612 0.0
C324 C 0.27502 0.27621 0.41304 0.0
C325 C 0.27687 0.29321 0.39529 0.0
U326 U 0.31023 0.31746 0.31531 0.0
O327 O 0.28929 0.33153 0.28568 0.0
O328 O 0.31281 0.35556 0.30751 0.0
C329 C 0.29618 0.35368 0.29079 0.0
C330 C 0.28624 0.30529 0.35391 0.0
C331 C 0.27699 0.37127 0.29195 0.0
C332 C 0.2559 0.40319 0.31253 0.0
C333 C 0.27317 0.38567 0.31256 0.0
C334 C 0.2455 0.39181 0.27157 0.0
C335 C 0.24211 0.40671 0.29191 0.0
C336 C 0.26282 0.37441 0.27157 0.0
C337 C 0.36561 0.29413 0.28183 0.0
C338 C 0.37758 0.30329 0.24106 0.0
C339 C 0.4048 0.28324 0.26683 0.0
C340 C 0.38787 0.28394 0.28533 0.0
C341 C 0.39975 0.29262 0.24437 0.0
C342 C 0.36065 0.30405 0.25964 0.0
C343 C 0.34778 0.29364 0.3014 0.0
O344 O 0.30399 0.32128 0.35428 0.0
O345 O 0.28053 0.29743 0.33215 0.0
O346 O 0.32565 0.28744 0.29521 0.0
O347 O 0.34906 0.31163 0.31697 0.0
H348 H 0.30212 0.25942 0.35099 0.0
H349 H 0.29861 0.2294 0.38203 0.0
H350 H 0.26732 0.2812 0.43021 0.0
H351 H 0.27039 0.31087 0.39906 0.0
H352 H 0.25369 0.41434 0.32848 0.0
H353 H 0.28373 0.38366 0.32861 0.0
H354 H 0.23476 0.39363 0.25561 0.0
H355 H 0.26534 0.3635 0.25549 0.0
H356 H 0.37335 0.31108 0.22412 0.0
H357 H 0.42167 0.27485 0.26992 0.0
H358 H 0.39206 0.27622 0.30233 0.0
H359 H 0.34364 0.3122 0.25662 0.0
C360 C 0.4737 0.93649 0.50752 0.0
C361 C 0.49783 0.93039 0.50905 0.0
C362 C 0.4906 0.8972 0.48052 0.0
C363 C 0.50622 0.91092 0.49564 0.0
C364 C 0.46632 0.903 0.47959 0.0
C365 C 0.45799 0.92251 0.49291 0.0
U366 U 0.47675 0.98374 0.55874 0.0
O367 O 0.47079 0.02214 0.55801 0.0
O368 O 0.44736 0.99927 0.57981 0.0
C369 C 0.45133 0.02058 0.57126 0.0
C370 C 0.46466 0.95758 0.52051 0.0
C371 C 0.43007 0.03257 0.5623 0.0
C372 C 0.40629 0.04749 0.52974 0.0
C373 C 0.42611 0.03524 0.53766 0.0
C374 C 0.39388 0.05421 0.5709 0.0
C375 C 0.38989 0.05708 0.54627 0.0
C376 C 0.41375 0.04209 0.5788 0.0
C377 C 0.52771 0.98108 0.60551 0.0
C378 C 0.53117 1.00462 0.64274 0.0
C379 C 0.56334 0.97919 0.63032 0.0
C380 C 0.5504 0.97213 0.60972 0.0
C381 C 0.55377 0.99528 0.64724 0.0
C382 C 0.5182 0.99752 0.62205 0.0
C383 C 0.51434 0.97259 0.58395 0.0
O384 O 0.45566 0.95385 0.5419 0.0
O385 O 0.47833 0.97706 0.51975 0.0
O386 O 0.51569 0.98639 0.56537 0.0
O387 O 0.49264 0.96357 0.58757 0.0
H388 H 0.51022 0.94081 0.52042 0.0
H389 H 0.52492 0.90661 0.49705 0.0
H390 H 0.4539 0.89278 0.46809 0.0
H391 H 0.43929 0.92689 0.49154 0.0
H392 H 0.40405 0.0498 0.51068 0.0
H393 H 0.43846 0.0281 0.52453 0.0
H394 H 0.38154 0.06127 0.58408 0.0
H395 H 0.41645 0.04026 0.59788 0.0
H396 H 0.52339 1.0171 0.65542 0.0
H397 H 0.58093 0.97214 0.63295 0.0
H398 H 0.55811 0.95955 0.59708 0.0
H399 H 0.50072 1.00469 0.61905 0.0
C400 C 0.22345 0.26815 0.67882 0.0
C401 C 0.23458 0.24624 0.68065 0.0
C402 C 0.23963 0.24331 0.63726 0.0
C403 C 0.24261 0.23397 0.66013 0.0
C404 C 0.22822 0.26508 0.63538 0.0
C405 C 0.22027 0.27739 0.6559 0.0
U406 U 0.22591 0.31947 0.72604 0.0
O407 O 0.19687 0.33966 0.7426 0.0
O408 O 0.22013 0.31897 0.76512 0.0
C409 C 0.20105 0.33197 0.76417 0.0
C410 C 0.21446 0.28056 0.70075 0.0
C411 C 0.17987 0.32325 0.77749 0.0
C412 C 0.14379 0.29798 0.78055 0.0
C413 C 0.16447 0.30509 0.76799 0.0
C414 C 0.15401 0.32672 0.81242 0.0
C415 C 0.13818 0.30895 0.80278 0.0
C416 C 0.17462 0.33382 0.79986 0.0
C417 C 0.27542 0.36906 0.72015 0.0
C418 C 0.31238 0.3897 0.73353 0.0
C419 C 0.27826 0.41242 0.72246 0.0
C420 C 0.26501 0.39127 0.71745 0.0
C421 C 0.3022 0.41187 0.7302 0.0
C422 C 0.29918 0.36855 0.72842 0.0
C423 C 0.26263 0.34647 0.71265 0.0
O424 O 0.22851 0.28076 0.71969 0.0
O425 O 0.20427 0.30101 0.69781 0.0
O426 O 0.24088 0.34805 0.7039 0.0
O427 O 0.2647 0.32838 0.72681 0.0
H428 H 0.23703 0.23852 0.69801 0.0
H429 H 0.2513 0.21723 0.66215 0.0
H430 H 0.22513 0.27247 0.61799 0.0
H431 H 0.21147 0.29404 0.65371 0.0
H432 H 0.13218 0.28392 0.77288 0.0
H433 H 0.16832 0.29662 0.75078 0.0
H434 H 0.15015 0.33553 0.82945 0.0
H435 H 0.18631 0.34786 0.80748 0.0
H436 H 0.3308 0.38874 0.73942 0.0
H437 H 0.26982 0.42926 0.72014 0.0
H438 H 0.24678 0.39238 0.71107 0.0
H439 H 0.30776 0.35174 0.73044 0.0
C440 C 0.78622 0.2659 0.67612 0.0
C441 C 0.8083 0.27535 0.66798 0.0
C442 C 0.78766 0.29921 0.63912 0.0
C443 C 0.809 0.29185 0.64961 0.0
C444 C 0.76562 0.29024 0.64786 0.0
C445 C 0.76493 0.2737 0.66611 0.0
U446 U 0.80908 0.23442 0.73186 0.0
O447 O 0.78856 0.21877 0.76153 0.0
O448 O 0.81041 0.19599 0.73828 0.0
C449 C 0.79463 0.19695 0.75575 0.0
C450 C 0.78484 0.24729 0.69426 0.0
C451 C 0.77519 0.17839 0.75495 0.0
C452 C 0.73303 0.16589 0.75186 0.0
C453 C 0.75112 0.1838 0.75106 0.0
C454 C 0.76285 0.1369 0.75988 0.0
C455 C 0.73872 0.14224 0.75631 0.0
C456 C 0.78086 0.15478 0.7592 0.0
C457 C 0.86615 0.25774 0.76497 0.0
C458 C 0.87709 0.25411 0.80695 0.0
C459 C 0.90783 0.2628 0.77753 0.0
C460 C 0.89039 0.26224 0.75948 0.0
C461 C 0.90136 0.25889 0.80149 0.0
C462 C 0.85965 0.25341 0.78885 0.0
C463 C 0.84802 0.25864 0.7457 0.0
O464 O 0.80155 0.23137 0.6932 0.0
O465 O 0.77989 0.25447 0.71629 0.0
O466 O 0.82629 0.26434 0.75231 0.0
O467 O 0.84817 0.24129 0.72939 0.0
H468 H 0.82497 0.26975 0.67558 0.0
H469 H 0.82623 0.29878 0.64354 0.0
H470 H 0.7489 0.29554 0.6401 0.0
H471 H 0.74771 0.26665 0.67214 0.0
H472 H 0.71459 0.17052 0.74904 0.0
H473 H 0.74623 0.20187 0.7477 0.0
H474 H 0.76776 0.11897 0.76385 0.0
H475 H 0.79927 0.15022 0.76241 0.0
H476 H 0.8716 0.251 0.82525 0.0
H477 H 0.92631 0.26696 0.77283 0.0
H478 H 0.89581 0.26575 0.74123 0.0
H479 H 0.84108 0.24979 0.79359 0.0
C480 C 0.50705 0.56621 0.60696 0.0
C481 C 0.51869 0.55363 0.62469 0.0
C482 C 0.48203 0.55219 0.64858 0.0
C483 C 0.50625 0.54664 0.64533 0.0
C484 C 0.47037 0.56424 0.63045 0.0
C485 C 0.48279 0.57124 0.60991 0.0
U486 U 0.55755 0.56378 0.55975 0.0
O487 O 0.55537 0.56915 0.52083 0.0
O488 O 0.57805 0.59324 0.54344 0.0
C489 C 0.56888 0.58875 0.52201 0.0
C490 C 0.51979 0.57469 0.5855 0.0
C491 C 0.55956 0.60929 0.50953 0.0
C492 C 0.5378 0.64608 0.50937 0.0
C493 C 0.54591 0.62644 0.52157 0.0
C494 C 0.55657 0.63146 0.47293 0.0
C495 C 0.54303 0.6488 0.48487 0.0
C496 C 0.56473 0.61192 0.48514 0.0
C497 C 0.60507 0.5155 0.56273 0.0
C498 C 0.6463 0.51592 0.54831 0.0
C499 C 0.62547 0.47838 0.55568 0.0
C500 C 0.60508 0.49056 0.56275 0.0
C501 C 0.64637 0.49089 0.54844 0.0
C502 C 0.62582 0.52811 0.55528 0.0
C503 C 0.58356 0.52777 0.57143 0.0
O504 O 0.54123 0.58459 0.58908 0.0
O505 O 0.51866 0.56039 0.56645 0.0
O506 O 0.56442 0.52538 0.55774 0.0
O507 O 0.58696 0.54946 0.58054 0.0
H508 H 0.5374 0.54944 0.62269 0.0
H509 H 0.51567 0.5373 0.65895 0.0
H510 H 0.45159 0.56823 0.63212 0.0
H511 H 0.47345 0.58075 0.59635 0.0
H512 H 0.52782 0.65933 0.51922 0.0
H513 H 0.54172 0.62477 0.54042 0.0
H514 H 0.56079 0.63295 0.45407 0.0
H515 H 0.57519 0.59887 0.47552 0.0
H516 H 0.66224 0.52612 0.5433 0.0
H517 H 0.62489 0.45912 0.55587 0.0
H518 H 0.58931 0.48047 0.56846 0.0
H519 H 0.62635 0.54738 0.55515 0.0
C520 C 0.50986 0.48088 0.93279 0.0
C521 C 0.51525 0.50382 0.9246 0.0
C522 C 0.48729 0.4971 0.89126 0.0
C523 C 0.504 0.51189 0.90406 0.0
C524 C 0.48202 0.47413 0.89958 0.0
C525 C 0.49323 0.46611 0.92012 0.0
U526 U 0.55771 0.48577 0.98202 0.0
O527 O 0.55426 0.4804 0.02088 0.0
O528 O 0.57788 0.45797 0.99918 0.0
C529 C 0.56815 0.462 0.02033 0.0
C530 C 0.52114 0.4722 0.95461 0.0
C531 C 0.5593 0.44095 0.03333 0.0
C532 C 0.5414 0.40086 0.03428 0.0
C533 C 0.5485 0.42099 0.02142 0.0
C534 C 0.55524 0.42064 0.0711 0.0
C535 C 0.54503 0.40033 0.05924 0.0
C536 C 0.56237 0.44066 0.05827 0.0
C537 C 0.60442 0.53827 0.98067 0.0
C538 C 0.64547 0.54222 0.99556 0.0
C539 C 0.62261 0.57741 0.98985 0.0
C540 C 0.60305 0.56313 0.98186 0.0
C541 C 0.64402 0.56714 0.99683 0.0
C542 C 0.6258 0.52788 0.98767 0.0
C543 C 0.58361 0.52391 0.97122 0.0
O544 O 0.54272 0.46389 0.95183 0.0
O545 O 0.51915 0.48588 0.97397 0.0
O546 O 0.56387 0.5247 0.98404 0.0
O547 O 0.5878 0.50248 0.96247 0.0
H548 H 0.52801 0.51552 0.9342 0.0
H549 H 0.5081 0.52983 0.89842 0.0
H550 H 0.46934 0.46228 0.89007 0.0
H551 H 0.48885 0.44835 0.92616 0.0
H552 H 0.53351 0.38553 0.02465 0.0
H553 H 0.54581 0.42084 1.00218 0.0
H554 H 0.5577 0.42107 0.09037 0.0
H555 H 0.5705 0.45593 0.06783 0.0
H556 H 0.66176 0.53384 1.00084 0.0
H557 H 0.62111 0.59657 0.9902 0.0
H558 H 0.58685 0.57155 0.97635 0.0
H559 H 0.62737 0.50873 0.98692 0.0
C560 C 0.72608 0.29122 0.35907 0.0
C561 C 0.73648 0.28155 0.37938 0.0
C562 C 0.74188 0.32124 0.39787 0.0
C563 C 0.74421 0.29644 0.39868 0.0
C564 C 0.73162 0.33079 0.37742 0.0
C565 C 0.72383 0.31593 0.35823 0.0
U566 U 0.72678 0.23615 0.31601 0.0
O567 O 0.69627 0.21365 0.30246 0.0
O568 O 0.719 0.23356 0.27736 0.0
C569 C 0.69932 0.22041 0.28027 0.0
C570 C 0.71661 0.27606 0.33893 0.0
C571 C 0.67753 0.22776 0.26766 0.0
C572 C 0.65537 0.25667 0.24561 0.0
C573 C 0.67577 0.25066 0.25845 0.0
C574 C 0.63795 0.21724 0.25137 0.0
C575 C 0.63632 0.23996 0.24177 0.0
C576 C 0.65838 0.21119 0.26407 0.0
C577 C 0.7767 0.19024 0.32192 0.0
C578 C 0.81356 0.17149 0.30925 0.0
C579 C 0.77915 0.14701 0.32065 0.0
C580 C 0.76606 0.1675 0.32507 0.0
C581 C 0.80318 0.14881 0.31307 0.0
C582 C 0.80052 0.19197 0.31376 0.0
C583 C 0.76418 0.21229 0.32881 0.0
O584 O 0.72987 0.27531 0.31946 0.0
O585 O 0.70718 0.25517 0.34443 0.0
O586 O 0.74293 0.20978 0.33883 0.0
O587 O 0.76545 0.22963 0.31351 0.0
H588 H 0.73845 0.26252 0.38043 0.0
H589 H 0.75207 0.2886 0.4142 0.0
H590 H 0.72915 0.34975 0.37645 0.0
H591 H 0.71572 0.32374 0.34282 0.0
H592 H 0.65442 0.27445 0.23882 0.0
H593 H 0.69016 0.2639 0.26104 0.0
H594 H 0.62358 0.20399 0.24868 0.0
H595 H 0.65933 0.19342 0.27091 0.0
H596 H 0.83205 0.17344 0.30348 0.0
H597 H 0.77053 0.12975 0.32333 0.0
H598 H 0.74775 0.16547 0.33134 0.0
H599 H 0.80926 0.20924 0.31138 0.0
C600 C 0.47875 0.1122 0.03364 0.0
C601 C 0.47268 0.13486 0.026 0.0
C602 C 0.49377 0.15388 0.06012 0.0
C603 C 0.48017 0.15545 0.03905 0.0
C604 C 0.50014 0.1313 0.06756 0.0
C605 C 0.49259 0.11071 0.05457 0.0
U606 U 0.47928 0.06323 0.98328 0.0
O607 O 0.47221 0.02464 0.98565 0.0
O608 O 0.44899 0.0458 0.96356 0.0
C609 C 0.45277 0.02485 0.97238 0.0
C610 C 0.46928 0.09012 0.0211 0.0
C611 C 0.4315 1.0119 0.9817 0.0
C612 C 0.40104 1.00537 1.01227 0.0
C613 C 0.4212 1.0182 1.00386 0.0
C614 C 0.40137 0.97993 0.97648 0.0
C615 C 0.39081 0.98619 0.99857 0.0
C616 C 0.42147 0.99271 0.96813 0.0
C617 C 0.52801 0.06521 0.93383 0.0
C618 C 0.56018 0.04312 0.91488 0.0
C619 C 0.53326 0.06488 0.89038 0.0
C620 C 0.52089 0.07228 0.91098 0.0
C621 C 0.55322 0.05045 0.89211 0.0
C622 C 0.54782 0.05051 0.93549 0.0
C623 C 0.51609 0.07452 0.95588 0.0
O624 O 0.45933 0.09246 0.99997 0.0
O625 O 0.48256 0.0713 0.02204 0.0
O626 O 0.51787 0.06194 0.97527 0.0
O627 O 0.49468 0.08319 0.95326 0.0
H628 H 0.46186 0.13674 1.0101 0.0
H629 H 0.47532 0.17263 0.03266 0.0
H630 H 0.5105 0.12952 0.08378 0.0
H631 H 0.49729 0.09356 0.06118 0.0
H632 H 0.39331 1.01058 0.02937 0.0
H633 H 0.42874 0.03298 1.0146 0.0
H634 H 0.39427 0.96493 0.96577 0.0
H635 H 0.42927 0.9875 0.95105 0.0
H636 H 0.57523 0.03167 0.91677 0.0
H637 H 0.52754 0.0709 0.8731 0.0
H638 H 0.50597 0.08387 0.90899 0.0
H639 H 0.55399 0.04491 0.95277 0.0
C640 C 0.22961 0.93701 0.02631 0.0
O641 O 0.24165 0.94233 1.00683 0.0
O642 O 0.25493 0.87791 1.00036 0.0
Zn643 Zn 0.26439 0.89941 0.0291 0.0
O644 O 0.2927 0.92102 0.01981 0.0
C645 C 0.28805 0.86312 0.0564 0.0
O646 O 0.30071 0.86068 0.03668 0.0
O647 O 0.23615 0.91958 0.03848 0.0
C648 C 0.3098 0.9282 0.03357 0.0
O649 O 0.30981 0.9214 0.0559 0.0
C650 C 0.27028 0.8719 0.98461 0.0
O651 O 0.29254 0.87994 0.98714 0.0
O652 O 0.27212 0.87877 0.05732 0.0
C653 C 0.17173 0.48163 0.29223 0.0
O654 O 0.15744 0.48409 0.3108 0.0
O655 O 0.12455 0.52475 0.30167 0.0
Zn656 Zn 0.14639 0.52239 0.27228 0.0
O657 O 0.16606 0.55325 0.26893 0.0
C658 C 0.10701 0.52654 0.2381 0.0
O659 O 0.10004 0.54296 0.25356 0.0
O660 O 0.16981 0.49556 0.27481 0.0
C661 C 0.17688 0.55854 0.24961 0.0
O662 O 0.17468 0.54382 0.23096 0.0
C663 C 0.12779 0.54127 0.31756 0.0
O664 O 0.1459 0.55653 0.31506 0.0
O665 O 0.12615 0.51574 0.24237 0.0
C666 C 0.80659 0.61002 0.01981 0.0
O667 O 0.78957 0.60023 1.00616 0.0
O668 O 0.78065 0.67211 0.99387 0.0
Zn669 Zn 0.77442 0.65022 0.02197 0.0
O670 O 0.74582 0.62744 1.0146 0.0
C671 C 0.7637 0.69207 0.05272 0.0
O672 O 0.76427 0.70335 0.03244 0.0
O673 O 0.80408 0.63112 0.02812 0.0
C674 C 0.72551 0.6301 0.02457 0.0
O675 O 0.72305 0.64802 0.03988 0.0
C676 C 0.76396 0.67695 0.97942 0.0
O677 O 0.74244 0.66743 0.98281 0.0
O678 O 0.76764 0.66991 0.05239 0.0
C679 C 0.86232 0.06558 0.29923 0.0
O680 O 0.86293 0.0487 0.31498 0.0
O681 O 0.91703 0.03062 0.30369 0.0
Zn682 Zn 0.89654 0.03559 0.27416 0.0
O683 O 0.8761 1.00547 0.26695 0.0
C684 C 0.92813 0.02737 0.23281 0.0
O685 O 0.92487 1.00493 0.23824 0.0
O686 O 0.87517 0.06373 0.28045 0.0
C687 C 0.85457 1.00606 0.25952 0.0
O688 O 0.84532 0.02684 0.25606 0.0
C689 C 0.92664 1.01076 0.30684 0.0
O690 O 0.92328 0.99365 0.29051 0.0
O691 O 0.91792 0.04319 0.24558 0.0
C692 C 0.30751 0.11067 0.51607 0.0
O693 O 0.29375 0.10345 0.49801 0.0
O694 O 0.28155 0.17052 0.49145 0.0
Zn695 Zn 0.27338 0.14874 0.51905 0.0
O696 O 0.24562 0.12608 0.50899 0.0
C697 C 0.27159 0.19006 0.55209 0.0
O698 O 0.28691 0.19933 0.5368 0.0
O699 O 0.30242 0.12971 0.5276 0.0
C700 C 0.22796 0.12151 0.52277 0.0
O701 O 0.22766 0.13168 0.54426 0.0
C702 C 0.26535 0.1834 0.48321 0.0
O703 O 0.24382 0.1819 0.49272 0.0
O704 O 0.26364 0.1688 0.54826 0.0
C705 C 0.35325 0.55843 0.78835 0.0
O706 O 0.34237 0.53771 0.79174 0.0
O707 O 0.41497 0.52258 0.80364 0.0
Zn708 Zn 0.3949 0.52996 0.77446 0.0
O709 O 0.37327 0.50099 0.76665 0.0
C710 C 0.42845 0.52335 0.73375 0.0
O711 O 0.42856 0.50104 0.74006 0.0
O712 O 0.37505 0.559 0.78162 0.0
C713 C 0.3613 0.49861 0.74729 0.0
O714 O 0.36287 0.51564 0.7317 0.0
C715 C 0.43723 0.52788 0.80596 0.0
O716 O 0.44829 0.53934 0.78876 0.0
O717 O 0.4159 0.5379 0.7458 0.0
C718 C 0.73197 0.43791 0.5239 0.0
O719 O 0.74598 0.44364 0.50589 0.0
O720 O 0.76088 0.37928 0.5005 0.0
Zn721 Zn 0.76702 0.40114 0.52986 0.0
O722 O 0.79553 0.42398 0.52416 0.0
C723 C 0.78391 0.3614 0.55713 0.0
O724 O 0.792 0.35447 0.53604 0.0
O725 O 0.7374 0.42041 0.53656 0.0
C726 C 0.81562 0.41693 0.51645 0.0
O727 O 0.8182 0.39403 0.51239 0.0
C728 C 0.76613 0.3854 0.47929 0.0
O729 O 0.77559 0.40677 0.47609 0.0
O730 O 0.77292 0.38085 0.55886 0.0
C731 C 0.68 0.98923 0.79413 0.0
O732 O 0.68138 1.00745 0.8094 0.0
O733 O 0.6266 0.02664 0.80184 0.0
Zn734 Zn 0.64501 1.01848 0.77127 0.0
O735 O 0.66754 0.04622 0.76275 0.0
C736 C 0.61141 0.02488 0.7312 0.0
O737 O 0.61435 0.04767 0.73667 0.0
O738 O 0.66544 0.98987 0.77662 0.0
C739 C 0.66543 0.06734 0.77113 0.0
O740 O 0.64746 0.07184 0.7856 0.0
C741 C 0.60414 0.02284 0.80443 0.0
O742 O 0.59178 1.01292 0.78652 0.0
O743 O 0.62241 1.00996 0.74346 0.0
C744 C 1.01483 0.22785 0.92349 0.0
O745 O 0.99336 0.22784 0.91385 0.0
O746 O 0.99448 0.26377 0.87521 0.0
Zn747 Zn 0.02214 0.27273 0.89806 0.0
O748 O 1.01369 0.30152 0.91923 0.0
C749 C 0.05052 0.28622 0.85624 0.0
O750 O 0.02922 0.28766 0.84653 0.0
O751 O 0.02957 0.24502 0.9193 0.0
C752 C 0.02726 0.32013 0.9214 0.0
O753 O 0.04771 0.32082 0.90974 0.0
C754 C 0.97425 0.27354 0.87619 0.0
O755 O 0.97045 0.28948 0.89333 0.0
O756 O 0.05193 0.28038 0.87807 0.0
C757 C 0.51369 0.73151 0.43213 0.0
O758 O 0.49262 0.74086 0.43508 0.0
O759 O 0.49488 0.76337 0.37432 0.0
Zn760 Zn 0.52204 0.77027 0.39821 0.0
O761 O 0.51337 0.79795 0.42075 0.0
C762 C 0.55307 0.78396 0.35793 0.0
O763 O 0.53266 0.78454 0.34628 0.0
O764 O 0.52847 0.74099 0.41754 0.0
C765 C 0.52255 0.81882 0.41854 0.0
O766 O 0.53813 0.82252 0.40129 0.0
C767 C 0.47318 0.7681 0.37892 0.0
O768 O 0.46794 0.77706 0.40021 0.0
O769 O 0.55274 0.77856 0.37994 0.0
C770 C 1.0169 0.80977 0.60818 0.0
O771 O 1.002 0.79314 0.59943 0.0
O772 O 0.9931 0.78372 0.67252 0.0
Zn773 Zn 0.01995 0.77763 0.64863 0.0
O774 O 1.01055 0.74887 0.62705 0.0
C775 C 0.0503 0.76031 0.68668 0.0
O776 O 0.0296 0.75284 0.69543 0.0
O777 O 0.02629 0.80696 0.62866 0.0
C778 C 0.02547 0.73324 0.62075 0.0
O779 O 0.04777 0.73596 0.62811 0.0
C780 C 0.97117 0.78272 0.66618 0.0
O781 O 0.96598 0.77804 0.64353 0.0
O782 O 0.05049 0.77122 0.66701 0.0
C783 C 0.51607 0.31646 0.11342 0.0
O784 O 0.49559 0.30525 0.10827 0.0
O785 O 0.49374 0.28682 0.17366 0.0
Zn786 Zn 0.52055 0.27976 0.14984 0.0
O787 O 0.51011 0.25185 0.12772 0.0
C788 C 0.54985 0.26203 0.18867 0.0
O789 O 0.52885 0.25705 0.19833 0.0
O790 O 0.52892 0.30887 0.13023 0.0
C791 C 0.52481 0.23726 0.11875 0.0
O792 O 0.54773 0.2404 0.12376 0.0
C793 C 0.47179 0.28183 0.16886 0.0
O794 O 0.46631 0.27258 0.14759 0.0
O795 O 0.55055 0.27153 0.16825 0.0
C796 C 0.23173 0.83385 0.9408 0.0
C797 C 0.24822 0.82662 0.92317 0.0
C798 C 0.23901 0.84839 0.96056 0.0
C799 C 0.26313 0.85621 0.9636 0.0
H800 H 0.21294 0.82856 0.93909 0.0
H801 H 0.22554 0.85363 0.97347 0.0
S802 S 0.31363 0.8408 0.92316 0.0
N803 N 0.28988 0.82736 0.91054 0.0
N804 N 0.30366 0.85468 0.94747 0.0
C805 C 0.27987 0.84872 0.94624 0.0
C806 C 0.2724 0.83397 0.9261 0.0
C807 C 0.09939 0.56698 0.37425 0.0
C808 C 0.08006 0.55102 0.3788 0.0
C809 C 0.11459 0.56354 0.35454 0.0
C810 C 0.11122 0.54397 0.3384 0.0
H811 H 0.10266 0.5825 0.3859 0.0
H812 H 0.12908 0.57653 0.35194 0.0
S813 S 0.06367 0.49639 0.34272 0.0
N814 N 0.05871 0.51447 0.36592 0.0
N815 N 0.08713 0.50806 0.32868 0.0
C816 C 0.09198 0.52775 0.34277 0.0
C817 C 0.07645 0.53129 0.36294 0.0
C818 C 0.79444 0.72398 0.94073 0.0
C819 C 0.77728 0.72765 0.92287 0.0
C820 C 0.79019 0.7073 0.95866 0.0
C821 C 0.76845 0.69381 0.95964 0.0
H822 H 0.81134 0.73408 0.94083 0.0
H823 H 0.80395 0.70524 0.97205 0.0
S824 S 0.71743 0.6972 0.91717 0.0
N825 N 0.73763 0.71672 0.90738 0.0
N826 N 0.72953 0.68544 0.94087 0.0
C827 C 0.75115 0.69734 0.94177 0.0
C828 C 0.75559 0.7142 0.92346 0.0
C829 C 0.96488 0.9793 0.35173 0.0
C830 C 0.96769 0.996 0.37087 0.0
C831 C 0.95188 0.98441 0.33113 0.0
C832 C 0.941 1.00646 0.32874 0.0
H833 H 0.97285 0.96205 0.35266 0.0
H834 H 0.95027 0.97081 0.31702 0.0
S835 S 0.94272 0.05628 0.37404 0.0
N836 N 0.95837 0.03543 0.38633 0.0
N837 N 0.934 0.04521 0.34758 0.0
C838 C 0.94383 0.02345 0.34772 0.0
C839 C 0.95717 1.0182 0.36874 0.0
C840 C 0.24239 0.20571 0.61207 0.0
C841 C 0.24809 0.23016 0.61543 0.0
C842 C 0.24995 0.19298 0.59155 0.0
C843 C 0.26371 0.2041 0.5736 0.0
H844 H 0.23173 0.19638 0.62529 0.0
H845 H 0.24499 0.17422 0.58984 0.0
S846 S 0.28399 0.26778 0.57421 0.0
N847 N 0.26876 0.26492 0.59939 0.0
N848 N 0.28284 0.2412 0.56081 0.0
C849 C 0.26963 0.22856 0.57684 0.0
C850 C 0.26184 0.24152 0.5977 0.0
C851 C 0.46955 0.52209 0.67905 0.0
C852 C 0.46888 0.54545 0.67078 0.0
C853 C 0.45656 0.51518 0.69944 0.0
C854 C 0.44248 0.53138 0.71251 0.0
H855 H 0.47983 0.50891 0.66943 0.0
H856 H 0.45749 0.4969 0.70486 0.0
S857 S 0.4361 0.59522 0.69911 0.0
N858 N 0.45402 0.58512 0.67788 0.0
N859 N 0.42953 0.57226 0.71598 0.0
C860 C 0.44208 0.55496 0.70463 0.0
C861 C 0.45526 0.56194 0.68385 0.0
C862 C 0.77376 0.33569 0.61898 0.0
C863 C 0.78817 0.31564 0.61862 0.0
C864 C 0.77295 0.35068 0.59931 0.0
C865 C 0.7863 0.34608 0.57832 0.0
H866 H 0.76292 0.33977 0.63458 0.0
H867 H 0.76137 0.36573 0.60043 0.0
S868 S 0.82701 0.29579 0.56843 0.0
N869 N 0.81621 0.29201 0.59566 0.0
N870 N 0.81482 0.32005 0.55875 0.0
C871 C 0.80104 0.3262 0.5779 0.0
C872 C 0.80196 0.31105 0.59801 0.0
C873 C 0.57117 0.02653 0.67601 0.0
C874 C 0.56753 1.00235 0.66938 0.0
C875 C 0.58514 0.03359 0.69611 0.0
C876 C 0.59597 1.01676 0.71049 0.0
H877 H 0.56362 0.04014 0.66527 0.0
H878 H 0.58767 0.05246 0.70018 0.0
S879 S 0.59011 0.95103 0.70186 0.0
N880 N 0.57455 0.96149 0.67958 0.0
N881 N 0.60085 0.9746 0.71717 0.0
C882 C 0.59189 0.99245 0.70435 0.0
C883 C 0.5777 0.98531 0.68387 0.0
C884 C 0.91584 0.27589 0.84115 0.0
C885 C 0.91971 0.26105 0.8209 0.0
C886 C 0.93339 0.27946 0.85903 0.0
C887 C 0.95556 0.26821 0.8575 0.0
H888 H 0.89931 0.28535 0.84293 0.0
H889 H 0.92959 0.29142 0.874 0.0
S890 S 0.97377 0.22607 0.80881 0.0
N891 N 0.94674 0.23397 0.8009 0.0
N892 N 0.9798 0.24059 0.83437 0.0
C893 C 0.95938 0.25277 0.83759 0.0
C894 C 0.94149 0.24925 0.81933 0.0
C895 C 0.48773 0.85474 0.4651 0.0
C896 C 0.49959 0.87724 0.46526 0.0
C897 C 0.49548 0.83589 0.45027 0.0
C898 C 0.51525 0.83885 0.43476 0.0
H899 H 0.47235 0.85166 0.47659 0.0
H900 H 0.48566 0.81896 0.45077 0.0
S901 S 0.55218 0.89457 0.42818 0.0
N902 N 0.53188 0.90155 0.44849 0.0
N903 N 0.54653 0.86633 0.42067 0.0
C904 C 0.52729 0.86132 0.43483 0.0
C905 C 0.51947 0.88043 0.45006 0.0
C906 C 0.11636 0.29758 0.8404 0.0
C907 C 0.11569 0.30237 0.81579 0.0
C908 C 0.0953 0.29217 0.85323 0.0
C909 C 0.07263 0.29152 0.84204 0.0
H910 H 0.13334 0.29795 0.84983 0.0
H911 H 0.09684 0.28868 0.87215 0.0
S912 S 0.06115 0.3033 0.77789 0.0
N913 N 0.09052 0.30652 0.78076 0.0
N914 N 0.051 0.29625 0.80465 0.0
C915 C 0.07176 0.29625 0.81736 0.0
C916 C 0.09324 0.30166 0.80431 0.0
C917 C 0.55117 0.68253 0.45713 0.0
C918 C 0.53496 0.66988 0.47178 0.0
C919 C 0.54412 0.70231 0.44445 0.0
C920 C 0.5205 0.71036 0.44583 0.0
H921 H 0.56961 0.67724 0.45562 0.0
H922 H 0.55741 0.71141 0.43355 0.0
S923 S 0.47075 0.68271 0.48086 0.0
N924 N 0.49397 0.66627 0.48627 0.0
N925 N 0.4807 0.70355 0.46275 0.0
C926 C 0.50404 0.69777 0.46036 0.0
C927 C 0.51126 0.67757 0.47326 0.0
C928 C 0.93975 0.79257 0.72625 0.0
C929 C 0.91526 0.79035 0.72028 0.0
C930 C 0.95762 0.79032 0.70866 0.0
C931 C 0.95177 0.78591 0.68431 0.0
H932 H 0.94516 0.79552 0.74478 0.0
H933 H 0.97619 0.7918 0.71432 0.0
S934 S 0.89006 0.78047 0.65915 0.0
N935 N 0.886 0.7848 0.68824 0.0
N936 N 0.91938 0.78055 0.65516 0.0
C937 C 0.92726 0.78425 0.67806 0.0
C938 C 0.90909 0.78644 0.69602 0.0
C939 C 0.04553 0.86953 0.59132 0.0
C940 C 0.03698 0.87282 0.56795 0.0
C941 C 0.03878 0.84928 0.60418 0.0
C942 C 0.0232 0.83136 0.59423 0.0
H943 H 0.0575 0.8828 0.59984 0.0
H944 H 0.04596 0.8477 0.62206 0.0
S945 S 0.99624 0.83116 0.53328 0.0
N946 N 1.01249 0.85623 0.53515 0.0
N947 N 0.99953 0.81835 0.55926 0.0
C948 C 1.01443 0.83449 0.57085 0.0
C949 C 0.02135 0.85515 0.55776 0.0
C950 C 0.09311 0.73976 0.73446 0.0
C951 C 0.1159 0.74599 0.72535 0.0
C952 C 0.07213 0.74452 0.72185 0.0
C953 C 0.07301 0.75586 0.69965 0.0
H954 H 0.09147 0.73072 0.75128 0.0
H955 H 0.05507 0.73911 0.72963 0.0
S956 S 0.1284 0.77705 0.66871 0.0
N957 N 0.13819 0.76496 0.69331 0.0
N958 N 0.09889 0.77389 0.66953 0.0
C959 C 0.09576 0.76255 0.69053 0.0
C960 C 0.11713 0.7576 0.70337 0.0
C961 C 0.98704 0.6914 0.58036 0.0
C962 C 1.00176 0.67189 0.57613 0.0
C963 C 0.99486 0.71113 0.59468 0.0
C964 C 0.01773 0.71217 0.60544 0.0
H965 H 0.96934 0.6915 0.57239 0.0
H966 H 0.98284 0.7257 0.59726 0.0
S967 S 0.06265 0.66494 0.60108 0.0
N968 N 0.03988 0.65436 0.58466 0.0
N969 N 0.05473 0.69136 0.61133 0.0
C970 C 0.03258 0.69266 0.60144 0.0
C971 C 0.02458 0.67258 0.58686 0.0
C972 C 0.83817 0.93997 0.2507 0.0
C973 C 0.81386 0.93984 0.24404 0.0
C974 C 0.85112 0.96139 0.25581 0.0
C975 C 0.84024 0.98358 0.25456 0.0
H976 H 0.84742 0.92338 0.25149 0.0
H977 H 0.86988 0.9605 0.26051 0.0
S978 S 0.77627 0.99267 0.23993 0.0
N979 N 0.77898 0.96355 0.23786 0.0
N980 N 0.80311 1.00378 0.24734 0.0
C981 C 0.81572 0.98359 0.24845 0.0
C982 C 0.8026 0.96177 0.24321 0.0
C983 C 0.83105 0.12362 0.28864 0.0
C984 C 0.81767 0.12719 0.30974 0.0
C985 C 0.84527 0.10365 0.28537 0.0
C986 C 0.84684 0.08646 0.30314 0.0
H987 H 0.83042 0.13633 0.27444 0.0
H988 H 0.85513 0.10176 0.26874 0.0
S989 S 0.81612 0.08825 0.36229 0.0
N990 N 0.80747 0.11236 0.34903 0.0
N991 N 0.83399 0.07484 0.34299 0.0
C992 C 0.83359 0.08993 0.32442 0.0
C993 C 0.81907 0.11024 0.32768 0.0
C994 C 0.36922 0.96367 0.03081 0.0
C995 C 0.36949 0.97236 1.00743 0.0
C996 C 0.34982 0.9496 0.03912 0.0
C997 C 0.32982 0.9437 0.02441 0.0
H998 H 0.38437 0.96733 0.04265 0.0
H999 H 0.3507 0.9431 0.05717 0.0
S1000 S 0.32094 0.96376 0.96224 0.0
N1001 N 0.34747 0.97531 0.97014 0.0
N1002 N 0.31114 0.94882 0.98553 0.0
C1003 C 0.32967 0.95277 1.00112 0.0
C1004 C 0.34944 0.96708 0.99269 0.0
C1005 C 0.20813 0.42893 0.31065 0.0
C1006 C 0.22438 0.42598 0.29157 0.0
C1007 C 0.19123 0.44688 0.31066 0.0
C1008 C 0.1899 0.46274 0.29164 0.0
H1009 H 0.20827 0.41706 0.32559 0.0
H1010 H 0.17908 0.44823 0.32574 0.0
S1011 S 0.22941 0.46338 0.23796 0.0
N1012 N 0.23878 0.44106 0.25362 0.0
N1013 N 0.207 0.47455 0.25342 0.0
C1014 C 0.20625 0.4601 0.27253 0.0
C1015 C 0.22345 0.44181 0.27255 0.0
C1016 C 0.16673 0.08943 0.52151 0.0
C1017 C 0.1671 0.07564 0.50008 0.0
C1018 C 0.18655 0.10392 0.52872 0.0
C1019 C 0.20753 0.10546 0.51469 0.0
H1020 H 0.15099 0.08893 0.53288 0.0
H1021 H 0.18523 0.11418 0.54538 0.0
S1022 S 0.21741 0.0731 0.45669 0.0
N1023 N 0.19005 0.06452 0.46472 0.0
N1024 N 0.22733 0.09173 0.47817 0.0
C1025 C 0.20813 0.09171 0.49317 0.0
C1026 C 0.18795 0.0768 0.48593 0.0
C1027 C 0.69972 0.12716 0.77354 0.0
C1028 C 0.71949 0.12337 0.75842 0.0
C1029 C 0.68222 0.10909 0.77718 0.0
C1030 C 0.68367 0.08647 0.76579 0.0
H1031 H 0.6981 0.14403 0.78318 0.0
H1032 H 0.66764 0.11285 0.78938 0.0
S1033 S 0.73087 0.06828 0.72264 0.0
N1034 N 0.73874 0.09592 0.73072 0.0
N1035 N 0.706 0.06192 0.73753 0.0
C1036 C 0.70303 0.08272 0.75002 0.0
C1037 C 0.72088 0.10114 0.74638 0.0
C1038 C 0.3635 0.09239 0.54913 0.0
C1039 C 0.36889 0.07042 0.53802 0.0
C1040 C 0.34377 0.10526 0.54185 0.0
C1041 C 0.32852 0.09671 0.52316 0.0
H1042 H 0.37476 0.09986 0.56347 0.0
H1043 H 0.34052 0.12208 0.55101 0.0
S1044 S 0.33429 0.03951 0.48884 0.0
N1045 N 0.35693 0.04027 0.50789 0.0
N1046 N 0.32012 0.06443 0.49396 0.0
C1047 C 0.3337 0.07467 0.51193 0.0
C1048 C 0.3538 0.06158 0.51938 0.0
C1049 C 0.67617 0.4595 0.55619 0.0
C1050 C 0.66828 0.47774 0.54168 0.0
C1051 C 0.69667 0.44679 0.5503 0.0
C1052 C 0.71022 0.45173 0.5296 0.0
H1053 H 0.66655 0.45516 0.57245 0.0
H1054 H 0.70196 0.43303 0.5622 0.0
S1055 S 0.69648 0.49708 0.48491 0.0
N1056 N 0.67509 0.49951 0.50519 0.0
N1057 N 0.71374 0.47594 0.49419 0.0
C1058 C 0.70243 0.46987 0.51482 0.0
C1059 C 0.68149 0.48279 0.52085 0.0
C1060 C 0.74156 0.33214 0.44189 0.0
C1061 C 0.74944 0.33713 0.41854 0.0
C1062 C 0.74726 0.34766 0.46141 0.0
C1063 C 0.76111 0.3688 0.45841 0.0
H1064 H 0.73039 0.31639 0.445 0.0
H1065 H 0.74039 0.34319 0.47894 0.0
S1066 S 0.78815 0.38873 0.40117 0.0
N1067 N 0.77322 0.36375 0.39376 0.0
N1068 N 0.78387 0.39297 0.43024 0.0
C1069 C 0.76968 0.37361 0.4352 0.0
C1070 C 0.76385 0.35779 0.41536 0.0
C1071 C 0.5544 0.03381 0.84987 0.0
C1072 C 0.56675 0.04325 0.87016 0.0
C1073 C 0.56665 0.02714 0.82888 0.0
C1074 C 0.59181 0.02979 0.82719 0.0
H1075 H 0.53505 0.03137 0.85027 0.0
H1076 H 0.55622 0.01995 0.81383 0.0
S1077 S 0.63251 0.05443 0.87517 0.0
N1078 N 0.60549 0.05546 0.88714 0.0
N1079 N 0.6286 0.04288 0.84785 0.0
C1080 C 0.60439 0.0393 0.84739 0.0
C1081 C 0.59187 0.04601 0.86881 0.0
C1082 C 0.25649 0.23206 0.43839 0.0
C1083 C 0.27897 0.2346 0.42714 0.0
C1084 C 0.25233 0.21536 0.45622 0.0
C1085 C 0.27049 0.20046 0.46373 0.0
H1086 H 0.24187 0.24303 0.43328 0.0
H1087 H 0.23467 0.21429 0.46424 0.0
S1088 S 0.33277 0.20022 0.44008 0.0
N1089 N 0.31976 0.22097 0.42487 0.0
N1090 N 0.31202 0.18944 0.45831 0.0
C1091 C 0.2931 0.20272 0.45253 0.0
C1092 C 0.29729 0.21976 0.43425 0.0
C1093 C 0.45003 0.50225 0.86698 0.0
C1094 C 0.47502 0.50557 0.8695 0.0
C1095 C 0.43803 0.50967 0.84654 0.0
C1096 C 0.45051 0.52072 0.82767 0.0
H1097 H 0.43958 0.49395 0.88102 0.0
H1098 H 0.41878 0.50666 0.84558 0.0
S1099 S 0.51637 0.5328 0.82513 0.0
N1100 N 0.51199 0.52006 0.85112 0.0
N1101 N 0.48957 0.53426 0.81286 0.0
C1102 C 0.47557 0.52416 0.82999 0.0
C1103 C 0.48777 0.51656 0.85084 0.0
C1104 C 0.74831 0.74256 0.09649 0.0
C1105 C 0.74609 0.73132 0.11861 0.0
C1106 C 0.75421 0.72976 0.07546 0.0
C1107 C 0.75801 0.70511 0.07558 0.0
H1108 H 0.74559 0.76148 0.09545 0.0
H1109 H 0.75569 0.73935 0.05895 0.0
S1110 S 0.75342 0.66711 0.12889 0.0
N1111 N 0.74753 0.69403 0.13937 0.0
N1112 N 0.75869 0.66993 0.09997 0.0
C1113 C 0.7558 0.69364 0.09765 0.0
C1114 C 0.74985 0.70674 0.1191 0.0
C1115 C 0.9575 0.06505 0.18447 0.0
C1116 C 0.97034 0.0485 0.1706 0.0
C1117 C 0.9442 0.0581 0.20461 0.0
C1118 C 0.94301 0.03425 0.21171 0.0
H1119 H 0.9578 0.0836 0.17977 0.0
H1120 H 0.93461 0.0716 0.21456 0.0
S1121 S 0.97325 0.98385 0.18119 0.0
N1122 N 0.98086 1.00714 0.16518 0.0
N1123 N 0.95611 0.99402 0.20306 0.0
C1124 C 0.9559 1.01751 0.19802 0.0
C1125 C 0.96951 0.02464 0.17753 0.0
C1126 C 0.278 0.83289 0.1161 0.0
C1127 C 0.29434 0.8144 0.11528 0.0
C1128 C 0.2764 0.84877 0.09723 0.0
C1129 C 0.29119 0.8469 0.07679 0.0
H1130 H 0.26586 0.83472 0.13116 0.0
H1131 H 0.26316 0.86236 0.09856 0.0
S1132 S 0.33859 0.80278 0.06709 0.0
N1133 N 0.3267 0.79604 0.09322 0.0
N1134 N 0.32383 0.82571 0.05778 0.0
C1135 C 0.30818 0.8289 0.07618 0.0
C1136 C 0.3097 0.8127 0.09537 0.0
C1137 C 0.08776 0.49662 0.17866 0.0
C1138 C 0.06555 0.50662 0.17386 0.0
C1139 C 0.10102 0.5033 0.19929 0.0
C1140 C 0.09265 0.52026 0.21611 0.0
H1141 H 0.09508 0.4836 0.16625 0.0
H1142 H 0.118 0.495 0.20204 0.0
S1143 S 0.03509 0.5513 0.21226 0.0
N1144 N 0.03546 0.53395 0.18789 0.0
N1145 N 0.06038 0.54676 0.22651 0.0
C1146 C 0.07043 0.53045 0.21149 0.0
C1147 C 0.05693 0.52361 0.19044 0.0
C1148 C 0.44376 0.75599 0.3179 0.0
C1149 C 0.41948 0.76055 0.3222 0.0
C1150 C 0.46083 0.75799 0.3364 0.0
C1151 C 0.45438 0.76483 0.35998 0.0
H1152 H 0.44965 0.75087 0.30003 0.0
H1153 H 0.47931 0.75447 0.33202 0.0
S1154 S 0.39296 0.77893 0.38056 0.0
N1155 N 0.38978 0.77228 0.35169 0.0
N1156 N 0.42166 0.77595 0.38651 0.0
C1157 C 0.43003 0.76921 0.36455 0.0
C1158 C 0.41266 0.76706 0.34569 0.0
C1159 C 0.99132 0.35869 0.9648 0.0
C1160 C 1.00454 0.38045 0.96572 0.0
C1161 C 0.99879 0.33934 0.95049 0.0
C1162 C 0.01994 0.34087 0.93669 0.0
H1163 H 0.9748 0.35674 0.97488 0.0
H1164 H 0.98781 0.32308 0.95024 0.0
S1165 S 0.06169 0.39372 0.93406 0.0
N1166 N 0.04022 0.4022 0.95244 0.0
N1167 N 0.05438 0.36604 0.92562 0.0
C1168 C 0.03354 0.36249 0.93784 0.0
C1169 C 0.02582 0.3822 0.9523 0.0
C1170 C 0.59707 0.80192 0.30887 0.0
C1171 C 0.6195 0.80187 0.32034 0.0
C1172 C 0.57583 0.79604 0.32116 0.0
C1173 C 0.57608 0.78976 0.34543 0.0
H1174 H 0.59586 0.80701 0.29035 0.0
H1175 H 0.55903 0.79663 0.31148 0.0
S1176 S 0.63052 0.78543 0.38321 0.0
N1177 N 0.64091 0.79394 0.35699 0.0
N1178 N 0.60109 0.78302 0.38019 0.0
C1179 C 0.59851 0.78924 0.357 0.0
C1180 C 0.62015 0.79528 0.34445 0.0
C1181 C 0.05185 0.19076 0.96492 0.0
C1182 C 0.03727 0.17017 0.9681 0.0
C1183 C 0.04438 0.20929 0.95067 0.0
C1184 C 0.02201 0.20803 0.93888 0.0
H1185 H 0.06919 0.19262 0.97363 0.0
H1186 H 0.05633 0.22472 0.94888 0.0
S1187 S 0.9775 0.15737 0.94065 0.0
N1188 N 0.99972 0.14925 0.95777 0.0
N1189 N 0.9855 0.18401 0.93117 0.0
C1190 C 1.00724 0.18747 0.94193 0.0
C1191 C 1.01488 0.16861 0.95649 0.0
C1192 C 0.44178 0.29742 0.22849 0.0
C1193 C 0.41752 0.29079 0.22447 0.0
C1194 C 0.45904 0.29485 0.21035 0.0
C1195 C 0.45285 0.28538 0.18741 0.0
H1196 H 0.44747 0.30466 0.24586 0.0
H1197 H 0.47748 0.30012 0.21449 0.0
S1198 S 0.39169 0.26474 0.16792 0.0
N1199 N 0.3882 0.274 0.19601 0.0
N1200 N 0.42042 0.26927 0.16187 0.0
C1201 C 0.42855 0.27882 0.18314 0.0
C1202 C 0.41098 0.28151 0.20163 0.0
C1203 C 0.51553 0.3674 0.06972 0.0
C1204 C 0.53824 0.37871 0.07291 0.0
C1205 C 0.50857 0.34736 0.08285 0.0
C1206 C 0.52406 0.33771 0.0997 0.0
H1207 H 0.50284 0.37433 0.05723 0.0
H1208 H 0.49081 0.33951 0.07983 0.0
S1209 S 0.58626 0.35973 0.11344 0.0
N1210 N 0.57672 0.37802 0.0932 0.0
N1211 N 0.56371 0.34064 0.11801 0.0
C1212 C 0.54701 0.34867 0.10277 0.0
C1213 C 0.55406 0.36906 0.08938 0.0
C1214 C 0.59165 0.24154 0.23738 0.0
C1215 C 0.61467 0.24608 0.22791 0.0
C1216 C 0.57094 0.24682 0.22459 0.0
C1217 C 0.57231 0.25675 0.2017 0.0
H1218 H 0.58962 0.23399 0.25493 0.0
H1219 H 0.55369 0.24304 0.23282 0.0
S1220 S 0.62849 0.27108 0.16848 0.0
N1221 N 0.63773 0.26043 0.19401 0.0
N1222 N 0.59892 0.27044 0.16994 0.0
C1223 C 0.5953 0.26126 0.19196 0.0
C1224 C 0.61641 0.25594 0.20507 0.0
C1225 C 0.52523 0.17918 0.08182 0.0
C1226 C 0.50123 0.17564 0.07451 0.0
C1227 C 0.53265 0.19924 0.09582 0.0
C1228 C 0.51633 0.21653 0.10333 0.0
H1229 H 0.53846 0.16638 0.07656 0.0
H1230 H 0.55135 0.20102 0.10096 0.0
S1231 S 0.45117 0.21523 0.08939 0.0
N1232 N 0.46102 0.19085 0.07607 0.0
N1233 N 0.47484 0.22855 0.10231 0.0
C1234 C 0.49221 0.21318 0.0961 0.0
C1235 C 0.48471 0.19278 0.08171 0.0
C1236 C 0.32975 0.43821 0.75573 0.0
C1237 C 0.31678 0.43429 0.73429 0.0
C1238 C 0.34392 0.45905 0.75979 0.0
C1239 C 0.34586 0.47681 0.74249 0.0
H1240 H 0.3288 0.4251 0.76958 0.0
H1241 H 0.35345 0.46119 0.77665 0.0
S1242 S 0.31629 0.47445 0.68273 0.0
N1243 N 0.30735 0.44941 0.69519 0.0
N1244 N 0.33383 0.48858 0.7027 0.0
C1245 C 0.33305 0.47298 0.72086 0.0
C1246 C 0.31856 0.45177 0.7168 0.0
C1247 C 0.30436 0.60097 0.80694 0.0
C1248 C 0.31425 0.62345 0.80124 0.0
C1249 C 0.31705 0.58014 0.80263 0.0
C1250 C 0.34015 0.58088 0.79238 0.0
H1251 H 0.28686 0.59951 0.81528 0.0
H1252 H 0.3087 0.56334 0.80764 0.0
S1253 S 0.37319 0.63527 0.77232 0.0
N1254 N 0.34788 0.64514 0.7835 0.0
N1255 N 0.37181 0.60616 0.7755 0.0
C1256 C 0.35002 0.60327 0.78612 0.0
C1257 C 0.33707 0.62447 0.79053 0.0
C1258 C 0.87604 0.44143 0.49479 0.0
C1259 C 0.87455 0.46619 0.49845 0.0
C1260 C 0.85706 0.42579 0.50096 0.0
C1261 C 0.83565 0.43418 0.51097 0.0
H1262 H 0.89209 0.43402 0.48714 0.0
H1263 H 0.85923 0.40691 0.49762 0.0
S1264 S 0.82257 0.49762 0.52394 0.0
N1265 N 0.8499 0.49849 0.51257 0.0
N1266 N 0.81421 0.46917 0.52429 0.0
C1267 C 0.83397 0.45896 0.51488 0.0
C1268 C 0.8534 0.47491 0.50864 0.0
C1269 C 0.71167 0.93151 0.77975 0.0
C1270 C 0.72795 0.92994 0.79883 0.0
C1271 C 0.69606 0.95049 0.77857 0.0
C1272 C 0.69599 0.9687 0.7965 0.0
H1273 H 0.71138 0.91824 0.76526 0.0
H1274 H 0.6842 0.95104 0.76325 0.0
S1275 S 0.73381 0.97164 0.85142 0.0
N1276 N 0.74208 0.94732 0.83683 0.0
N1277 N 0.7129 0.98301 0.83474 0.0
C1278 C 0.71179 0.96695 0.81605 0.0
C1279 C 0.72771 0.94761 0.81718 0.0
C1280 C 0.68755 0.57994 0.99448 0.0
C1281 C 0.66485 0.58253 1.00503 0.0
C1282 C 0.70708 0.59522 1.00103 0.0
C1283 C 0.70472 0.61362 0.0185 0.0
H1284 H 0.69011 0.56634 0.98064 0.0
H1285 H 0.72407 0.5927 0.99209 0.0
S1286 S 0.64933 0.62645 0.05294 0.0
N1287 N 0.6414 0.60386 0.03476 0.0
N1288 N 0.67785 0.63256 0.04713 0.0
C1289 C 0.68218 0.61593 0.02963 0.0
C1290 C 0.66233 0.60042 0.02287 0.0
C1291 C 0.21353 0.6139 0.26997 0.0
C1292 C 0.22589 0.62061 0.2491 0.0
C1293 C 0.19735 0.59423 0.2698 0.0
C1294 C 0.19294 0.58026 0.24877 0.0
H1295 H 0.21648 0.6239 0.28666 0.0
H1296 H 0.18856 0.58973 0.28647 0.0
S1297 S 0.2206 0.59054 0.18915 0.0
N1298 N 0.23251 0.61189 0.20675 0.0
N1299 N 0.20204 0.57506 0.20626 0.0
C1300 C 0.20489 0.58707 0.22762 0.0
C1301 C 0.22133 0.60718 0.22782 0.0
C1302 C 0.867 0.59528 0.0465 0.0
C1303 C 0.86947 0.57112 0.03997 0.0
C1304 C 0.84682 0.6077 0.03969 0.0
C1305 C 0.82816 0.5965 0.02607 0.0
H1306 H 0.88086 0.60474 0.05694 0.0
H1307 H 0.84586 0.62625 0.04529 0.0
S1308 S 0.82564 0.53316 1.0049 0.0
N1309 N 0.85131 0.53628 0.01952 0.0
N1310 N 0.81354 0.55953 1.00646 0.0
C1311 C 0.83048 0.57232 0.0193 0.0
C1312 C 0.85106 0.55969 0.02628 0.0
C1313 C 0.18245 0.98451 0.02692 0.0
C1314 C 0.16856 0.97934 0.04729 0.0
C1315 C 0.2021 0.97079 0.02038 0.0
C1316 C 0.20866 0.95122 0.03386 0.0
H1317 H 0.17828 0.99948 1.01609 0.0
H1318 H 0.21223 0.97567 1.00459 0.0
S1319 S 0.17724 0.92947 0.08818 0.0
N1320 N 0.1621 0.95272 0.08039 0.0
N1321 N 0.19906 0.9271 0.06835 0.0
C1322 C 0.19474 0.94574 0.0542 0.0
C1323 C 0.17474 0.95974 0.06084 0.0
loop_
_geom_bond_atom_site_label_1
_geom_bond_atom_site_label_2
_geom_bond_distance
_geom_bond_site_symmetry_2
_ccdc_geom_bond_type
C0 C1 1.264 . S
C0 C5 1.479 . S
C0 C10 1.465 . S
C1 C0 1.264 . S
C1 C3 1.339 . S
C1 H28 0.947 . S
C2 C3 1.395 . S
C2 C4 1.320 . S
C3 C1 1.339 . S
C3 C2 1.395 . S
C3 H29 0.929 1_545 S
C4 C2 1.320 . S
C4 C5 1.405 . S
C4 H30 0.930 . S
C5 C0 1.479 . S
C5 C4 1.405 . S
C5 H31 0.931 . S
U6 O7 2.454 . S
U6 O8 2.458 . S
U6 C9 2.984 . S
U6 C10 2.847 1_455 S
U6 C23 2.882 . S
U6 O24 2.441 1_455 S
U6 O25 2.420 . S
U6 O26 2.455 . S
U6 O27 2.449 . S
O7 U6 2.454 . S
O7 C9 1.353 . S
O8 U6 2.458 . S
O8 C9 1.286 . S
C9 U6 2.984 . S
C9 O7 1.353 . S
C9 O8 1.286 . S
C9 C11 1.363 1_554 S
C10 C0 1.465 . S
C10 U6 2.847 1_655 S
C10 O24 1.249 . S
C10 O25 1.202 1_655 S
C11 C9 1.363 1_556 S
C11 C13 1.412 . S
C11 C16 1.342 . S
C12 C13 1.332 . S
C12 C15 1.461 . S
C12 H32 0.932 1_455 S
C13 C11 1.412 . S
C13 C12 1.332 . S
C13 H33 0.906 1_456 S
C14 C15 1.474 . S
C14 C16 1.285 . S
C14 H34 0.929 . S
C15 C12 1.461 . S
C15 C14 1.474 . S
C16 C11 1.342 . S
C16 C14 1.285 . S
C16 H35 0.930 . S
C17 C20 1.424 . S
C17 C22 1.245 . S
C17 C23 1.428 1_565 S
C18 C21 1.260 . S
C18 C22 1.477 . S
C18 H36 0.964 . S
C19 C20 1.384 . S
C19 C21 1.479 . S
C19 H37 0.929 . S
C20 C17 1.424 . S
C20 C19 1.384 . S
C20 H38 0.928 . S
C21 C18 1.260 . S
C21 C19 1.479 . S
C22 C17 1.245 . S
C22 C18 1.477 . S
C22 H39 0.932 1_565 S
C23 U6 2.882 . S
C23 C17 1.428 1_545 S
C23 O26 1.301 . S
C23 O27 1.282 . S
O24 U6 2.441 1_655 S
O24 C10 1.249 . S
O25 U6 2.420 . S
O25 C10 1.202 1_455 S
O26 U6 2.455 . S
O26 C23 1.301 . S
O27 U6 2.449 . S
O27 C23 1.282 . S
H28 C1 0.947 . S
H29 C3 0.929 1_565 S
H30 C4 0.930 . S
H31 C5 0.931 . S
H32 C12 0.932 1_655 S
H33 C13 0.906 1_654 S
H34 C14 0.929 . S
H35 C16 0.930 . S
H36 C18 0.964 . S
H37 C19 0.929 . S
H38 C20 0.928 . S
H39 C22 0.932 1_545 S
C40 C41 1.264 . S
C40 C45 1.479 . S
C40 C50 1.465 . S
C41 C40 1.264 . S
C41 C43 1.339 . S
C41 H68 0.931 . S
C42 C43 1.395 . S
C42 C44 1.320 . S
C43 C41 1.339 . S
C43 C42 1.395 . S
C43 H69 0.929 . S
C44 C42 1.320 . S
C44 C45 1.405 . S
C44 H70 0.930 . S
C45 C40 1.479 . S
C45 C44 1.405 . S
C45 H71 0.931 . S
U46 O47 2.454 . S
U46 O48 2.458 . S
U46 C49 2.984 . S
U46 C50 2.847 . S
U46 C63 2.882 . S
U46 O64 2.441 . S
U46 O65 2.420 . S
U46 O66 2.455 . S
U46 O67 2.449 . S
O47 U46 2.454 . S
O47 C49 1.353 . S
O48 U46 2.458 . S
O48 C49 1.286 . S
C49 U46 2.984 . S
C49 O47 1.353 . S
C49 O48 1.286 . S
C49 C51 1.363 . S
C50 C40 1.465 . S
C50 U46 2.847 . S
C50 O64 1.249 . S
C50 O65 1.202 . S
C51 C49 1.363 . S
C51 C53 1.408 . S
C51 C56 1.342 . S
C52 C53 1.310 . S
C52 C55 1.461 . S
C52 H72 0.932 . S
C53 C51 1.408 . S
C53 C52 1.310 . S
C53 H73 0.930 . S
C54 C55 1.474 . S
C54 C56 1.285 . S
C54 H74 0.929 . S
C55 C52 1.461 . S
C55 C54 1.474 . S
C56 C51 1.342 . S
C56 C54 1.285 . S
C56 H75 0.930 . S
C57 C60 1.424 . S
C57 C62 1.245 . S
C57 C63 1.428 . S
C58 C61 1.260 . S
C58 C62 1.477 . S
C58 H76 0.932 . S
C59 C60 1.384 . S
C59 C61 1.479 . S
C59 H77 0.929 . S
C60 C57 1.424 . S
C60 C59 1.384 . S
C60 H78 0.928 . S
C61 C58 1.260 . S
C61 C59 1.479 . S
C62 C57 1.245 . S
C62 C58 1.477 . S
C62 H79 0.932 . S
C63 U46 2.882 . S
C63 C57 1.428 . S
C63 O66 1.301 . S
C63 O67 1.282 . S
O64 U46 2.441 . S
O64 C50 1.249 . S
O65 U46 2.420 . S
O65 C50 1.202 . S
O66 U46 2.455 . S
O66 C63 1.301 . S
O67 U46 2.449 . S
O67 C63 1.282 . S
H68 C41 0.931 . S
H69 C43 0.929 . S
H70 C44 0.930 . S
H71 C45 0.931 . S
H72 C52 0.932 . S
H73 C53 0.930 . S
H74 C54 0.929 . S
H75 C56 0.930 . S
H76 C58 0.932 . S
H77 C59 0.929 . S
H78 C60 0.928 . S
H79 C62 0.932 . S
C80 C81 1.264 1_655 S
C80 C85 1.479 . S
C80 C90 1.465 . S
C81 C80 1.264 1_455 S
C81 C83 1.339 . S
C81 H108 0.929 . S
C82 C83 1.395 1_655 S
C82 C84 1.320 . S
C83 C81 1.339 . S
C83 C82 1.395 1_455 S
C83 H109 0.929 . S
C84 C82 1.320 . S
C84 C85 1.405 . S
C84 H110 0.930 . S
C85 C80 1.479 . S
C85 C84 1.405 . S
C85 H111 0.931 . S
U86 O87 2.454 . S
U86 O88 2.458 . S
U86 C89 2.984 . S
U86 C90 2.847 1_554 S
U86 C103 2.882 1_655 S
U86 O104 2.441 1_554 S
U86 O105 2.420 . S
U86 O106 2.455 . S
U86 O107 2.449 1_655 S
O87 U86 2.454 . S
O87 C89 1.353 . S
O88 U86 2.458 . S
O88 C89 1.286 . S
C89 U86 2.984 . S
C89 O87 1.353 . S
C89 O88 1.286 . S
C89 C91 1.363 . S
C90 C80 1.465 . S
C90 U86 2.847 1_556 S
C90 O104 1.249 . S
C90 O105 1.202 1_556 S
C91 C89 1.363 . S
C91 C93 1.408 . S
C91 C96 1.342 . S
C92 C93 1.310 . S
C92 C95 1.461 . S
C92 H112 0.932 1_554 S
C93 C91 1.408 . S
C93 C92 1.310 . S
C93 H113 0.930 1_554 S
C94 C95 1.474 . S
C94 C96 1.285 . S
C94 H114 0.929 . S
C95 C92 1.461 . S
C95 C94 1.474 . S
C96 C91 1.342 . S
C96 C94 1.285 . S
C96 H115 0.930 . S
C97 C100 1.424 . S
C97 C102 1.245 . S
C97 C103 1.428 . S
C98 C101 1.260 . S
C98 C102 1.477 . S
C98 H116 0.932 . S
C99 C100 1.384 . S
C99 C101 1.479 . S
C99 H117 0.929 . S
C100 C97 1.424 . S
C100 C99 1.384 . S
C100 H118 0.928 . S
C101 C98 1.260 . S
C101 C99 1.479 . S
C102 C97 1.245 . S
C102 C98 1.477 . S
C102 H119 0.932 . S
C103 U86 2.882 1_455 S
C103 C97 1.428 . S
C103 O106 1.301 1_455 S
C103 O107 1.282 . S
O104 U86 2.441 1_556 S
O104 C90 1.249 . S
O105 U86 2.420 . S
O105 C90 1.202 1_554 S
O106 U86 2.455 . S
O106 C103 1.301 1_655 S
O107 U86 2.449 1_455 S
O107 C103 1.282 . S
H108 C81 0.929 . S
H109 C83 0.929 . S
H110 C84 0.930 . S
H111 C85 0.931 . S
H112 C92 0.932 1_556 S
H113 C93 0.930 1_556 S
H114 C94 0.929 . S
H115 C96 0.930 . S
H116 C98 0.932 . S
H117 C99 0.929 . S
H118 C100 0.928 . S
H119 C102 0.932 . S
C120 C121 1.264 . S
C120 C125 1.479 . S
C120 C130 1.465 . S
C121 C120 1.264 . S
C121 C123 1.339 . S
C121 H148 0.931 . S
C122 C123 1.395 . S
C122 C124 1.320 . S
C123 C121 1.339 . S
C123 C122 1.395 . S
C123 H149 0.929 . S
C124 C122 1.320 . S
C124 C125 1.405 . S
C124 H150 0.930 . S
C125 C120 1.479 . S
C125 C124 1.405 . S
C125 H151 0.931 . S
U126 O127 2.454 . S
U126 O128 2.458 . S
U126 C129 2.984 . S
U126 C130 2.847 . S
U126 C143 2.882 . S
U126 O144 2.441 . S
U126 O145 2.420 . S
U126 O146 2.455 . S
U126 O147 2.449 . S
O127 U126 2.454 . S
O127 C129 1.353 . S
O128 U126 2.458 . S
O128 C129 1.286 . S
C129 U126 2.984 . S
C129 O127 1.353 . S
C129 O128 1.286 . S
C129 C131 1.363 . S
C130 C120 1.465 . S
C130 U126 2.847 . S
C130 O144 1.249 . S
C130 O145 1.202 . S
C131 C129 1.363 . S
C131 C133 1.408 . S
C131 C136 1.342 . S
C132 C133 1.310 . S
C132 C135 1.461 . S
C132 H152 0.932 . S
C133 C131 1.408 . S
C133 C132 1.310 . S
C133 H153 0.930 . S
C134 C135 1.474 . S
C134 C136 1.285 . S
C134 H154 0.929 . S
C135 C132 1.461 . S
C135 C134 1.474 . S
C136 C131 1.342 . S
C136 C134 1.285 . S
C136 H155 0.930 . S
C137 C140 1.424 . S
C137 C142 1.245 . S
C137 C143 1.428 . S
C138 C141 1.260 . S
C138 C142 1.477 . S
C138 H156 0.932 . S
C139 C140 1.384 . S
C139 C141 1.479 . S
C139 H157 0.929 . S
C140 C137 1.424 . S
C140 C139 1.384 . S
C140 H158 0.928 . S
C141 C138 1.260 . S
C141 C139 1.479 . S
C142 C137 1.245 . S
C142 C138 1.477 . S
C142 H159 0.932 . S
C143 U126 2.882 . S
C143 C137 1.428 . S
C143 O146 1.301 . S
C143 O147 1.282 . S
O144 U126 2.441 . S
O144 C130 1.249 . S
O145 U126 2.420 . S
O145 C130 1.202 . S
O146 U126 2.455 . S
O146 C143 1.301 . S
O147 U126 2.449 . S
O147 C143 1.282 . S
H148 C121 0.931 . S
H149 C123 0.929 . S
H150 C124 0.930 . S
H151 C125 0.931 . S
H152 C132 0.932 . S
H153 C133 0.930 . S
H154 C134 0.929 . S
H155 C136 0.930 . S
H156 C138 0.932 . S
H157 C139 0.929 . S
H158 C140 0.928 . S
H159 C142 0.932 . S
C160 C161 1.264 1_565 S
C160 C165 1.479 . S
C160 C170 1.467 1_655 S
C161 C160 1.264 1_545 S
C161 C163 1.339 . S
C161 H188 0.931 1_655 S
C162 C163 1.395 1_565 S
C162 C164 1.320 . S
C163 C161 1.339 . S
C163 C162 1.395 1_545 S
C163 H189 0.929 . S
C164 C162 1.320 . S
C164 C165 1.405 . S
C164 H190 0.930 . S
C165 C160 1.479 . S
C165 C164 1.405 . S
C165 H191 0.931 . S
U166 O167 2.454 . S
U166 O168 2.458 . S
U166 C169 2.984 . S
U166 C170 2.844 . S
U166 C183 2.882 1_565 S
U166 O184 2.441 1_455 S
U166 O185 2.409 1_565 S
U166 O186 2.455 . S
U166 O187 2.449 1_565 S
O167 U166 2.454 . S
O167 C169 1.353 . S
O168 U166 2.458 . S
O168 C169 1.286 . S
C169 U166 2.984 . S
C169 O167 1.353 . S
C169 O168 1.286 . S
C169 C171 1.363 . S
C170 C160 1.467 1_455 S
C170 U166 2.844 . S
C170 O184 1.249 1_455 S
C170 O185 1.186 1_565 S
C171 C169 1.363 . S
C171 C173 1.408 . S
C171 C176 1.342 . S
C172 C173 1.310 . S
C172 C175 1.461 . S
C172 H192 0.932 1_455 S
C173 C171 1.408 . S
C173 C172 1.310 . S
C173 H193 0.930 1_455 S
C174 C175 1.474 . S
C174 C176 1.285 . S
C174 H194 0.929 . S
C175 C172 1.461 . S
C175 C174 1.474 . S
C176 C171 1.342 . S
C176 C174 1.285 . S
C176 H195 0.930 . S
C177 C180 1.424 . S
C177 C182 1.245 . S
C177 C183 1.428 . S
C178 C181 1.260 . S
C178 C182 1.477 . S
C178 H196 0.932 . S
C179 C180 1.384 . S
C179 C181 1.479 . S
C179 H197 0.929 . S
C180 C177 1.424 . S
C180 C179 1.384 . S
C180 H198 0.928 . S
C181 C178 1.260 . S
C181 C179 1.479 . S
C182 C177 1.245 . S
C182 C178 1.477 . S
C182 H199 0.932 . S
C183 U166 2.882 1_545 S
C183 C177 1.428 . S
C183 O186 1.301 1_545 S
C183 O187 1.282 . S
O184 U166 2.441 1_655 S
O184 C170 1.249 1_655 S
O185 U166 2.409 1_545 S
O185 C170 1.186 1_545 S
O186 U166 2.455 . S
O186 C183 1.301 1_565 S
O187 U166 2.449 1_545 S
O187 C183 1.282 . S
H188 C161 0.931 1_455 S
H189 C163 0.929 . S
H190 C164 0.930 . S
H191 C165 0.931 . S
H192 C172 0.932 1_655 S
H193 C173 0.930 1_655 S
H194 C174 0.929 . S
H195 C176 0.930 . S
H196 C178 0.932 . S
H197 C179 0.929 . S
H198 C180 0.928 . S
H199 C182 0.932 . S
C200 C201 1.264 . S
C200 C205 1.479 . S
C200 C210 1.465 . S
C201 C200 1.264 . S
C201 C203 1.339 . S
C201 H228 0.931 . S
C202 C203 1.395 . S
C202 C204 1.320 . S
C203 C201 1.339 . S
C203 C202 1.395 . S
C203 H229 0.929 . S
C204 C202 1.320 . S
C204 C205 1.405 . S
C204 H230 0.930 . S
C205 C200 1.479 . S
C205 C204 1.405 . S
C205 H231 0.931 . S
U206 O207 2.454 . S
U206 O208 2.458 . S
U206 C209 2.984 . S
U206 C210 2.847 . S
U206 C223 2.882 . S
U206 O224 2.441 . S
U206 O225 2.420 . S
U206 O226 2.455 . S
U206 O227 2.449 . S
O207 U206 2.454 . S
O207 C209 1.353 . S
O208 U206 2.458 . S
O208 C209 1.286 . S
C209 U206 2.984 . S
C209 O207 1.353 . S
C209 O208 1.286 . S
C209 C211 1.363 . S
C210 C200 1.465 . S
C210 U206 2.847 . S
C210 O224 1.249 . S
C210 O225 1.202 . S
C211 C209 1.363 . S
C211 C213 1.408 . S
C211 C216 1.342 . S
C212 C213 1.310 . S
C212 C215 1.461 . S
C212 H232 0.932 . S
C213 C211 1.408 . S
C213 C212 1.310 . S
C213 H233 0.930 . S
C214 C215 1.474 . S
C214 C216 1.285 . S
C214 H234 0.929 . S
C215 C212 1.461 . S
C215 C214 1.474 . S
C216 C211 1.342 . S
C216 C214 1.285 . S
C216 H235 0.930 . S
C217 C220 1.424 . S
C217 C222 1.245 . S
C217 C223 1.428 . S
C218 C221 1.260 . S
C218 C222 1.477 . S
C218 H236 0.932 . S
C219 C220 1.384 . S
C219 C221 1.479 . S
C219 H237 0.929 . S
C220 C217 1.424 . S
C220 C219 1.384 . S
C220 H238 0.928 . S
C221 C218 1.260 . S
C221 C219 1.479 . S
C222 C217 1.245 . S
C222 C218 1.477 . S
C222 H239 0.932 . S
C223 U206 2.882 . S
C223 C217 1.428 . S
C223 O226 1.301 . S
C223 O227 1.282 . S
O224 U206 2.441 . S
O224 C210 1.249 . S
O225 U206 2.420 . S
O225 C210 1.202 . S
O226 U206 2.455 . S
O226 C223 1.301 . S
O227 U206 2.449 . S
O227 C223 1.282 . S
H228 C201 0.931 . S
H229 C203 0.929 . S
H230 C204 0.930 . S
H231 C205 0.931 . S
H232 C212 0.932 . S
H233 C213 0.930 . S
H234 C214 0.929 . S
H235 C216 0.930 . S
H236 C218 0.932 . S
H237 C219 0.929 . S
H238 C220 0.928 . S
H239 C222 0.932 . S
C240 C241 1.264 1_655 S
C240 C245 1.479 . S
C240 C250 1.465 . S
C241 C240 1.264 1_455 S
C241 C243 1.339 . S
C241 H268 0.931 . S
C242 C243 1.395 1_655 S
C242 C244 1.320 . S
C243 C241 1.339 . S
C243 C242 1.395 1_455 S
C243 H269 0.929 . S
C244 C242 1.320 . S
C244 C245 1.405 . S
C244 H270 0.930 . S
C245 C240 1.479 . S
C245 C244 1.405 . S
C245 H271 0.931 . S
U246 O247 2.454 . S
U246 O248 2.458 . S
U246 C249 2.984 . S
U246 C250 2.847 . S
U246 C263 2.882 1_655 S
U246 O264 2.441 . S
U246 O265 2.420 . S
U246 O266 2.455 . S
U246 O267 2.449 1_655 S
O247 U246 2.454 . S
O247 C249 1.353 . S
O248 U246 2.458 . S
O248 C249 1.286 . S
C249 U246 2.984 . S
C249 O247 1.353 . S
C249 O248 1.286 . S
C249 C251 1.363 . S
C250 C240 1.465 . S
C250 U246 2.847 . S
C250 O264 1.249 . S
C250 O265 1.202 . S
C251 C249 1.363 . S
C251 C253 1.408 . S
C251 C256 1.342 . S
C252 C253 1.310 . S
C252 C255 1.461 . S
C252 H272 0.932 . S
C253 C251 1.408 . S
C253 C252 1.310 . S
C253 H273 0.930 . S
C254 C255 1.474 . S
C254 C256 1.285 . S
C254 H274 0.929 . S
C255 C252 1.461 . S
C255 C254 1.474 . S
C256 C251 1.342 . S
C256 C254 1.285 . S
C256 H275 0.930 . S
C257 C260 1.424 . S
C257 C262 1.245 . S
C257 C263 1.428 . S
C258 C261 1.260 . S
C258 C262 1.477 . S
C258 H276 0.932 . S
C259 C260 1.384 . S
C259 C261 1.479 . S
C259 H277 0.929 . S
C260 C257 1.424 . S
C260 C259 1.384 . S
C260 H278 0.928 . S
C261 C258 1.260 . S
C261 C259 1.479 . S
C262 C257 1.245 . S
C262 C258 1.477 . S
C262 H279 0.911 1_455 S
C263 U246 2.882 1_455 S
C263 C257 1.428 . S
C263 O266 1.301 1_455 S
C263 O267 1.282 . S
O264 U246 2.441 . S
O264 C250 1.249 . S
O265 U246 2.420 . S
O265 C250 1.202 . S
O266 U246 2.455 . S
O266 C263 1.301 1_655 S
O267 U246 2.449 1_455 S
O267 C263 1.282 . S
H268 C241 0.931 . S
H269 C243 0.929 . S
H270 C244 0.930 . S
H271 C245 0.931 . S
H272 C252 0.932 . S
H273 C253 0.930 . S
H274 C254 0.929 . S
H275 C256 0.930 . S
H276 C258 0.932 . S
H277 C259 0.929 . S
H278 C260 0.928 . S
H279 C262 0.911 1_655 S
C280 C281 1.264 . S
C280 C285 1.479 . S
C280 C290 1.465 . S
C281 C280 1.264 . S
C281 C283 1.339 . S
C281 H308 0.931 . S
C282 C283 1.395 . S
C282 C284 1.320 . S
C283 C281 1.339 . S
C283 C282 1.395 . S
C283 H309 0.929 . S
C284 C282 1.320 . S
C284 C285 1.405 . S
C284 H310 0.930 . S
C285 C280 1.479 . S
C285 C284 1.405 . S
C285 H311 0.931 . S
U286 O287 2.454 . S
U286 O288 2.458 . S
U286 C289 2.984 . S
U286 C290 2.847 . S
U286 C303 2.882 . S
U286 O304 2.441 . S
U286 O305 2.420 . S
U286 O306 2.455 . S
U286 O307 2.449 . S
O287 U286 2.454 . S
O287 C289 1.353 . S
O288 U286 2.458 . S
O288 C289 1.286 . S
C289 U286 2.984 . S
C289 O287 1.353 . S
C289 O288 1.286 . S
C289 C291 1.363 . S
C290 C280 1.465 . S
C290 U286 2.847 . S
C290 O304 1.249 . S
C290 O305 1.202 . S
C291 C289 1.363 . S
C291 C293 1.408 . S
C291 C296 1.342 . S
C292 C293 1.310 . S
C292 C295 1.461 . S
C292 H312 0.932 . S
C293 C291 1.408 . S
C293 C292 1.310 . S
C293 H313 0.930 . S
C294 C295 1.474 . S
C294 C296 1.285 . S
C294 H314 0.929 . S
C295 C292 1.461 . S
C295 C294 1.474 . S
C296 C291 1.342 . S
C296 C294 1.285 . S
C296 H315 0.930 . S
C297 C300 1.424 . S
C297 C302 1.245 . S
C297 C303 1.428 . S
C298 C301 1.260 . S
C298 C302 1.477 . S
C298 H316 0.932 . S
C299 C300 1.384 . S
C299 C301 1.479 . S
C299 H317 0.929 . S
C300 C297 1.424 . S
C300 C299 1.384 . S
C300 H318 0.928 . S
C301 C298 1.260 . S
C301 C299 1.479 . S
C302 C297 1.245 . S
C302 C298 1.477 . S
C302 H319 0.932 . S
C303 U286 2.882 . S
C303 C297 1.428 . S
C303 O306 1.301 . S
C303 O307 1.282 . S
O304 U286 2.441 . S
O304 C290 1.249 . S
O305 U286 2.420 . S
O305 C290 1.202 . S
O306 U286 2.455 . S
O306 C303 1.301 . S
O307 U286 2.449 . S
O307 C303 1.282 . S
H308 C281 0.931 . S
H309 C283 0.929 . S
H310 C284 0.930 . S
H311 C285 0.931 . S
H312 C292 0.932 . S
H313 C293 0.930 . S
H314 C294 0.929 . S
H315 C296 0.930 . S
H316 C298 0.932 . S
H317 C299 0.929 . S
H318 C300 0.928 . S
H319 C302 0.932 . S
C320 C321 1.264 . S
C320 C325 1.479 . S
C320 C330 1.465 . S
C321 C320 1.264 . S
C321 C323 1.339 . S
C321 H348 0.931 . S
C322 C323 1.395 . S
C322 C324 1.320 . S
C323 C321 1.339 . S
C323 C322 1.395 . S
C323 H349 0.929 . S
C324 C322 1.320 . S
C324 C325 1.405 . S
C324 H350 0.930 . S
C325 C320 1.479 . S
C325 C324 1.405 . S
C325 H351 0.931 . S
U326 O327 2.454 . S
U326 O328 2.458 . S
U326 C329 2.984 . S
U326 C330 2.847 . S
U326 C343 2.882 . S
U326 O344 2.441 . S
U326 O345 2.420 . S
U326 O346 2.455 . S
U326 O347 2.449 . S
O327 U326 2.454 . S
O327 C329 1.353 . S
O328 U326 2.458 . S
O328 C329 1.286 . S
C329 U326 2.984 . S
C329 O327 1.353 . S
C329 O328 1.286 . S
C329 C331 1.363 . S
C330 C320 1.465 . S
C330 U326 2.847 . S
C330 O344 1.249 . S
C330 O345 1.202 . S
C331 C329 1.363 . S
C331 C333 1.408 . S
C331 C336 1.342 . S
C332 C333 1.310 . S
C332 C335 1.461 . S
C332 H352 0.932 . S
C333 C331 1.408 . S
C333 C332 1.310 . S
C333 H353 0.930 . S
C334 C335 1.474 . S
C334 C336 1.285 . S
C334 H354 0.929 . S
C335 C332 1.461 . S
C335 C334 1.474 . S
C336 C331 1.342 . S
C336 C334 1.285 . S
C336 H355 0.930 . S
C337 C340 1.424 . S
C337 C342 1.245 . S
C337 C343 1.428 . S
C338 C341 1.260 . S
C338 C342 1.477 . S
C338 H356 0.932 . S
C339 C340 1.384 . S
C339 C341 1.479 . S
C339 H357 0.929 . S
C340 C337 1.424 . S
C340 C339 1.384 . S
C340 H358 0.928 . S
C341 C338 1.260 . S
C341 C339 1.479 . S
C342 C337 1.245 . S
C342 C338 1.477 . S
C342 H359 0.932 . S
C343 U326 2.882 . S
C343 C337 1.428 . S
C343 O346 1.301 . S
C343 O347 1.282 . S
O344 U326 2.441 . S
O344 C330 1.249 . S
O345 U326 2.420 . S
O345 C330 1.202 . S
O346 U326 2.455 . S
O346 C343 1.301 . S
O347 U326 2.449 . S
O347 C343 1.282 . S
H348 C321 0.931 . S
H349 C323 0.929 . S
H350 C324 0.930 . S
H351 C325 0.931 . S
H352 C332 0.932 . S
H353 C333 0.930 . S
H354 C334 0.929 . S
H355 C336 0.930 . S
H356 C338 0.932 . S
H357 C339 0.929 . S
H358 C340 0.928 . S
H359 C342 0.932 . S
C360 C361 1.264 . S
C360 C365 1.479 . S
C360 C370 1.465 . S
C361 C360 1.264 . S
C361 C363 1.339 . S
C361 H388 0.931 . S
C362 C363 1.395 . S
C362 C364 1.320 . S
C363 C361 1.339 . S
C363 C362 1.395 . S
C363 H389 0.929 . S
C364 C362 1.320 . S
C364 C365 1.405 . S
C364 H390 0.930 . S
C365 C360 1.479 . S
C365 C364 1.405 . S
C365 H391 0.931 . S
U366 O367 2.454 . S
U366 O368 2.458 1_565 S
U366 C369 2.984 1_565 S
U366 C370 2.847 . S
U366 C383 2.882 . S
U366 O384 2.441 . S
U366 O385 2.420 . S
U366 O386 2.455 . S
U366 O387 2.449 . S
O367 U366 2.454 . S
O367 C369 1.353 1_565 S
O368 U366 2.458 1_545 S
O368 C369 1.286 . S
C369 U366 2.984 1_545 S
C369 O367 1.353 1_545 S
C369 O368 1.286 . S
C369 C371 1.363 . S
C370 C360 1.465 . S
C370 U366 2.847 . S
C370 O384 1.249 . S
C370 O385 1.202 . S
C371 C369 1.363 . S
C371 C373 1.408 . S
C371 C376 1.342 . S
C372 C373 1.310 . S
C372 C375 1.461 . S
C372 H392 0.932 . S
C373 C371 1.408 . S
C373 C372 1.310 . S
C373 H393 0.930 . S
C374 C375 1.474 . S
C374 C376 1.285 . S
C374 H394 0.929 . S
C375 C372 1.461 . S
C375 C374 1.474 . S
C376 C371 1.342 . S
C376 C374 1.285 . S
C376 H395 0.930 . S
C377 C380 1.424 . S
C377 C382 1.211 1_565 S
C377 C383 1.428 . S
C378 C381 1.260 1_545 S
C378 C382 1.476 . S
C378 H396 0.932 . S
C379 C380 1.384 . S
C379 C381 1.479 . S
C379 H397 0.929 . S
C380 C377 1.424 . S
C380 C379 1.384 . S
C380 H398 0.928 . S
C381 C378 1.260 1_565 S
C381 C379 1.479 . S
C382 C377 1.211 1_545 S
C382 C378 1.476 . S
C382 H399 0.967 . S
C383 U366 2.882 . S
C383 C377 1.428 . S
C383 O386 1.301 . S
C383 O387 1.282 . S
O384 U366 2.441 . S
O384 C370 1.249 . S
O385 U366 2.420 . S
O385 C370 1.202 . S
O386 U366 2.455 . S
O386 C383 1.301 . S
O387 U366 2.449 . S
O387 C383 1.282 . S
H388 C361 0.931 . S
H389 C363 0.929 . S
H390 C364 0.930 . S
H391 C365 0.931 . S
H392 C372 0.932 . S
H393 C373 0.930 . S
H394 C374 0.929 . S
H395 C376 0.930 . S
H396 C378 0.932 . S
H397 C379 0.929 . S
H398 C380 0.928 . S
H399 C382 0.967 . S
C400 C401 1.264 . S
C400 C405 1.479 . S
C400 C410 1.465 . S
C401 C400 1.264 . S
C401 C403 1.339 . S
C401 H428 0.931 . S
C402 C403 1.395 . S
C402 C404 1.320 . S
C403 C401 1.339 . S
C403 C402 1.395 . S
C403 H429 0.929 . S
C404 C402 1.320 . S
C404 C405 1.405 . S
C404 H430 0.930 . S
C405 C400 1.479 . S
C405 C404 1.405 . S
C405 H431 0.931 . S
U406 O407 2.454 . S
U406 O408 2.458 . S
U406 C409 2.984 . S
U406 C410 2.847 . S
U406 C423 2.882 . S
U406 O424 2.441 . S
U406 O425 2.420 . S
U406 O426 2.455 . S
U406 O427 2.449 . S
O407 U406 2.454 . S
O407 C409 1.353 . S
O408 U406 2.458 . S
O408 C409 1.286 . S
C409 U406 2.984 . S
C409 O407 1.353 . S
C409 O408 1.286 . S
C409 C411 1.363 . S
C410 C400 1.465 . S
C410 U406 2.847 . S
C410 O424 1.249 . S
C410 O425 1.202 . S
C411 C409 1.363 . S
C411 C413 1.408 . S
C411 C416 1.342 . S
C412 C413 1.310 . S
C412 C415 1.461 . S
C412 H432 0.932 . S
C413 C411 1.408 . S
C413 C412 1.310 . S
C413 H433 0.930 . S
C414 C415 1.474 . S
C414 C416 1.285 . S
C414 H434 0.929 . S
C415 C412 1.461 . S
C415 C414 1.474 . S
C416 C411 1.342 . S
C416 C414 1.285 . S
C416 H435 0.930 . S
C417 C420 1.424 . S
C417 C422 1.245 . S
C417 C423 1.428 . S
C418 C421 1.260 . S
C418 C422 1.477 . S
C418 H436 0.932 . S
C419 C420 1.384 . S
C419 C421 1.479 . S
C419 H437 0.929 . S
C420 C417 1.424 . S
C420 C419 1.384 . S
C420 H438 0.928 . S
C421 C418 1.260 . S
C421 C419 1.479 . S
C422 C417 1.245 . S
C422 C418 1.477 . S
C422 H439 0.932 . S
C423 U406 2.882 . S
C423 C417 1.428 . S
C423 O426 1.301 . S
C423 O427 1.282 . S
O424 U406 2.441 . S
O424 C410 1.249 . S
O425 U406 2.420 . S
O425 C410 1.202 . S
O426 U406 2.455 . S
O426 C423 1.301 . S
O427 U406 2.449 . S
O427 C423 1.282 . S
H428 C401 0.931 . S
H429 C403 0.929 . S
H430 C404 0.930 . S
H431 C405 0.931 . S
H432 C412 0.932 . S
H433 C413 0.930 . S
H434 C414 0.929 . S
H435 C416 0.930 . S
H436 C418 0.932 . S
H437 C419 0.929 . S
H438 C420 0.928 . S
H439 C422 0.932 . S
C440 C441 1.264 . S
C440 C445 1.479 . S
C440 C450 1.465 . S
C441 C440 1.264 . S
C441 C443 1.339 . S
C441 H468 0.931 . S
C442 C443 1.395 . S
C442 C444 1.320 . S
C443 C441 1.339 . S
C443 C442 1.395 . S
C443 H469 0.929 . S
C444 C442 1.320 . S
C444 C445 1.405 . S
C444 H470 0.930 . S
C445 C440 1.479 . S
C445 C444 1.405 . S
C445 H471 0.931 . S
U446 O447 2.454 . S
U446 O448 2.458 . S
U446 C449 2.984 . S
U446 C450 2.847 . S
U446 C463 2.882 . S
U446 O464 2.441 . S
U446 O465 2.420 . S
U446 O466 2.455 . S
U446 O467 2.449 . S
O447 U446 2.454 . S
O447 C449 1.353 . S
O448 U446 2.458 . S
O448 C449 1.286 . S
C449 U446 2.984 . S
C449 O447 1.353 . S
C449 O448 1.286 . S
C449 C451 1.363 . S
C450 C440 1.465 . S
C450 U446 2.847 . S
C450 O464 1.249 . S
C450 O465 1.202 . S
C451 C449 1.363 . S
C451 C453 1.408 . S
C451 C456 1.342 . S
C452 C453 1.310 . S
C452 C455 1.461 . S
C452 H472 0.932 . S
C453 C451 1.408 . S
C453 C452 1.310 . S
C453 H473 0.930 . S
C454 C455 1.474 . S
C454 C456 1.285 . S
C454 H474 0.929 . S
C455 C452 1.461 . S
C455 C454 1.474 . S
C456 C451 1.342 . S
C456 C454 1.285 . S
C456 H475 0.930 . S
C457 C460 1.424 . S
C457 C462 1.245 . S
C457 C463 1.428 . S
C458 C461 1.260 . S
C458 C462 1.477 . S
C458 H476 0.932 . S
C459 C460 1.384 . S
C459 C461 1.479 . S
C459 H477 0.929 . S
C460 C457 1.424 . S
C460 C459 1.384 . S
C460 H478 0.928 . S
C461 C458 1.260 . S
C461 C459 1.479 . S
C462 C457 1.245 . S
C462 C458 1.477 . S
C462 H479 0.932 . S
C463 U446 2.882 . S
C463 C457 1.428 . S
C463 O466 1.301 . S
C463 O467 1.282 . S
O464 U446 2.441 . S
O464 C450 1.249 . S
O465 U446 2.420 . S
O465 C450 1.202 . S
O466 U446 2.455 . S
O466 C463 1.301 . S
O467 U446 2.449 . S
O467 C463 1.282 . S
H468 C441 0.931 . S
H469 C443 0.929 . S
H470 C444 0.930 . S
H471 C445 0.931 . S
H472 C452 0.932 . S
H473 C453 0.930 . S
H474 C454 0.929 . S
H475 C456 0.930 . S
H476 C458 0.932 . S
H477 C459 0.929 . S
H478 C460 0.928 . S
H479 C462 0.932 . S
C480 C481 1.264 . S
C480 C485 1.479 . S
C480 C490 1.465 . S
C481 C480 1.264 . S
C481 C483 1.339 . S
C481 H508 0.931 . S
C482 C483 1.395 . S
C482 C484 1.320 . S
C483 C481 1.339 . S
C483 C482 1.395 . S
C483 H509 0.929 . S
C484 C482 1.320 . S
C484 C485 1.405 . S
C484 H510 0.930 . S
C485 C480 1.479 . S
C485 C484 1.405 . S
C485 H511 0.931 . S
U486 O487 2.454 . S
U486 O488 2.458 . S
U486 C489 2.984 . S
U486 C490 2.847 . S
U486 C503 2.882 . S
U486 O504 2.441 . S
U486 O505 2.420 . S
U486 O506 2.455 . S
U486 O507 2.449 . S
O487 U486 2.454 . S
O487 C489 1.353 . S
O488 U486 2.458 . S
O488 C489 1.286 . S
C489 U486 2.984 . S
C489 O487 1.353 . S
C489 O488 1.286 . S
C489 C491 1.363 . S
C490 C480 1.465 . S
C490 U486 2.847 . S
C490 O504 1.249 . S
C490 O505 1.202 . S
C491 C489 1.363 . S
C491 C493 1.408 . S
C491 C496 1.342 . S
C492 C493 1.310 . S
C492 C495 1.461 . S
C492 H512 0.932 . S
C493 C491 1.408 . S
C493 C492 1.310 . S
C493 H513 0.930 . S
C494 C495 1.474 . S
C494 C496 1.285 . S
C494 H514 0.929 . S
C495 C492 1.461 . S
C495 C494 1.474 . S
C496 C491 1.342 . S
C496 C494 1.285 . S
C496 H515 0.930 . S
C497 C500 1.424 . S
C497 C502 1.245 . S
C497 C503 1.428 . S
C498 C501 1.260 . S
C498 C502 1.477 . S
C498 H516 0.932 . S
C499 C500 1.384 . S
C499 C501 1.479 . S
C499 H517 0.929 . S
C500 C497 1.424 . S
C500 C499 1.384 . S
C500 H518 0.928 . S
C501 C498 1.260 . S
C501 C499 1.479 . S
C502 C497 1.245 . S
C502 C498 1.477 . S
C502 H519 0.932 . S
C503 U486 2.882 . S
C503 C497 1.428 . S
C503 O506 1.301 . S
C503 O507 1.282 . S
O504 U486 2.441 . S
O504 C490 1.249 . S
O505 U486 2.420 . S
O505 C490 1.202 . S
O506 U486 2.455 . S
O506 C503 1.301 . S
O507 U486 2.449 . S
O507 C503 1.282 . S
H508 C481 0.931 . S
H509 C483 0.929 . S
H510 C484 0.930 . S
H511 C485 0.931 . S
H512 C492 0.932 . S
H513 C493 0.930 . S
H514 C494 0.929 . S
H515 C496 0.930 . S
H516 C498 0.932 . S
H517 C499 0.929 . S
H518 C500 0.928 . S
H519 C502 0.932 . S
C520 C521 1.264 . S
C520 C525 1.479 . S
C520 C530 1.465 . S
C521 C520 1.264 . S
C521 C523 1.339 . S
C521 H548 0.931 . S
C522 C523 1.395 . S
C522 C524 1.320 . S
C523 C521 1.339 . S
C523 C522 1.395 . S
C523 H549 0.929 . S
C524 C522 1.320 . S
C524 C525 1.405 . S
C524 H550 0.930 . S
C525 C520 1.479 . S
C525 C524 1.405 . S
C525 H551 0.931 . S
U526 O527 2.454 . S
U526 O528 2.475 . S
U526 C529 2.984 . S
U526 C530 2.847 . S
U526 C543 2.882 . S
U526 O544 2.441 . S
U526 O545 2.420 . S
U526 O546 2.455 . S
U526 O547 2.449 . S
O527 U526 2.454 . S
O527 C529 1.353 . S
O528 U526 2.475 . S
O528 C529 1.287 . S
C529 U526 2.984 . S
C529 O527 1.353 . S
C529 O528 1.287 . S
C529 C531 1.363 1_556 S
C530 C520 1.465 . S
C530 U526 2.847 . S
C530 O544 1.249 . S
C530 O545 1.202 . S
C531 C529 1.363 1_554 S
C531 C533 1.408 . S
C531 C536 1.342 . S
C532 C533 1.310 . S
C532 C535 1.461 . S
C532 H552 0.932 . S
C533 C531 1.408 . S
C533 C532 1.310 . S
C533 H553 0.930 1_554 S
C534 C535 1.474 . S
C534 C536 1.285 . S
C534 H554 0.929 . S
C535 C532 1.461 . S
C535 C534 1.474 . S
C536 C531 1.342 . S
C536 C534 1.285 . S
C536 H555 0.930 . S
C537 C540 1.424 . S
C537 C542 1.245 . S
C537 C543 1.428 . S
C538 C541 1.260 . S
C538 C542 1.477 . S
C538 H556 0.932 1_556 S
C539 C540 1.384 . S
C539 C541 1.479 . S
C539 H557 0.929 . S
C540 C537 1.424 . S
C540 C539 1.384 . S
C540 H558 0.928 . S
C541 C538 1.260 . S
C541 C539 1.479 . S
C542 C537 1.245 . S
C542 C538 1.477 . S
C542 H559 0.932 1_556 S
C543 U526 2.882 . S
C543 C537 1.428 . S
C543 O546 1.301 . S
C543 O547 1.282 . S
O544 U526 2.441 . S
O544 C530 1.249 . S
O545 U526 2.420 . S
O545 C530 1.202 . S
O546 U526 2.455 . S
O546 C543 1.301 . S
O547 U526 2.449 . S
O547 C543 1.282 . S
H548 C521 0.931 . S
H549 C523 0.929 . S
H550 C524 0.930 . S
H551 C525 0.931 . S
H552 C532 0.932 . S
H553 C533 0.930 1_556 S
H554 C534 0.929 . S
H555 C536 0.930 . S
H556 C538 0.932 1_554 S
H557 C539 0.929 . S
H558 C540 0.928 . S
H559 C542 0.932 1_554 S
C560 C561 1.264 . S
C560 C565 1.479 . S
C560 C570 1.465 . S
C561 C560 1.264 . S
C561 C563 1.339 . S
C561 H588 0.931 . S
C562 C563 1.395 . S
C562 C564 1.320 . S
C563 C561 1.339 . S
C563 C562 1.395 . S
C563 H589 0.929 . S
C564 C562 1.320 . S
C564 C565 1.405 . S
C564 H590 0.930 . S
C565 C560 1.479 . S
C565 C564 1.405 . S
C565 H591 0.931 . S
U566 O567 2.454 . S
U566 O568 2.458 . S
U566 C569 2.984 . S
U566 C570 2.847 . S
U566 C583 2.882 . S
U566 O584 2.441 . S
U566 O585 2.420 . S
U566 O586 2.455 . S
U566 O587 2.449 . S
O567 U566 2.454 . S
O567 C569 1.353 . S
O568 U566 2.458 . S
O568 C569 1.286 . S
C569 U566 2.984 . S
C569 O567 1.353 . S
C569 O568 1.286 . S
C569 C571 1.363 . S
C570 C560 1.465 . S
C570 U566 2.847 . S
C570 O584 1.249 . S
C570 O585 1.202 . S
C571 C569 1.363 . S
C571 C573 1.408 . S
C571 C576 1.342 . S
C572 C573 1.310 . S
C572 C575 1.461 . S
C572 H592 0.932 . S
C573 C571 1.408 . S
C573 C572 1.310 . S
C573 H593 0.930 . S
C574 C575 1.474 . S
C574 C576 1.285 . S
C574 H594 0.929 . S
C575 C572 1.461 . S
C575 C574 1.474 . S
C576 C571 1.342 . S
C576 C574 1.285 . S
C576 H595 0.930 . S
C577 C580 1.424 . S
C577 C582 1.245 . S
C577 C583 1.428 . S
C578 C581 1.260 . S
C578 C582 1.477 . S
C578 H596 0.932 . S
C579 C580 1.384 . S
C579 C581 1.479 . S
C579 H597 0.929 . S
C580 C577 1.424 . S
C580 C579 1.384 . S
C580 H598 0.928 . S
C581 C578 1.260 . S
C581 C579 1.479 . S
C582 C577 1.245 . S
C582 C578 1.477 . S
C582 H599 0.932 . S
C583 U566 2.882 . S
C583 C577 1.428 . S
C583 O586 1.301 . S
C583 O587 1.282 . S
O584 U566 2.441 . S
O584 C570 1.249 . S
O585 U566 2.420 . S
O585 C570 1.202 . S
O586 U566 2.455 . S
O586 C583 1.301 . S
O587 U566 2.449 . S
O587 C583 1.282 . S
H588 C561 0.931 . S
H589 C563 0.929 . S
H590 C564 0.930 . S
H591 C565 0.931 . S
H592 C572 0.932 . S
H593 C573 0.930 . S
H594 C574 0.929 . S
H595 C576 0.930 . S
H596 C578 0.932 . S
H597 C579 0.929 . S
H598 C580 0.928 . S
H599 C582 0.932 . S
C600 C601 1.264 . S
C600 C605 1.479 . S
C600 C610 1.465 . S
C601 C600 1.264 . S
C601 C603 1.339 . S
C601 H628 0.931 . S
C602 C603 1.395 . S
C602 C604 1.320 . S
C603 C601 1.339 . S
C603 C602 1.395 . S
C603 H629 0.929 . S
C604 C602 1.320 . S
C604 C605 1.405 . S
C604 H630 0.930 . S
C605 C600 1.479 . S
C605 C604 1.405 . S
C605 H631 0.931 . S
U606 O607 2.454 . S
U606 O608 2.458 . S
U606 C609 2.984 . S
U606 C610 2.847 1_556 S
U606 C623 2.882 . S
U606 O624 2.441 1_556 S
U606 O625 2.420 . S
U606 O626 2.455 . S
U606 O627 2.449 . S
O607 U606 2.454 . S
O607 C609 1.353 . S
O608 U606 2.458 . S
O608 C609 1.286 . S
C609 U606 2.984 . S
C609 O607 1.353 . S
C609 O608 1.286 . S
C609 C611 1.363 1_545 S
C610 C600 1.465 . S
C610 U606 2.847 1_554 S
C610 O624 1.249 . S
C610 O625 1.202 1_554 S
C611 C609 1.363 1_565 S
C611 C613 1.408 1_556 S
C611 C616 1.342 . S
C612 C613 1.310 . S
C612 C615 1.461 1_554 S
C612 H632 0.932 . S
C613 C611 1.408 1_554 S
C613 C612 1.310 . S
C613 H633 0.930 1_565 S
C614 C615 1.474 . S
C614 C616 1.285 . S
C614 H634 0.929 . S
C615 C612 1.461 1_556 S
C615 C614 1.474 . S
C616 C611 1.342 . S
C616 C614 1.285 . S
C616 H635 0.930 . S
C617 C620 1.424 . S
C617 C622 1.245 . S
C617 C623 1.428 . S
C618 C621 1.260 . S
C618 C622 1.477 . S
C618 H636 0.932 1_545 S
C619 C620 1.384 . S
C619 C621 1.479 . S
C619 H637 0.929 . S
C620 C617 1.424 . S
C620 C619 1.384 . S
C620 H638 0.928 . S
C621 C618 1.260 . S
C621 C619 1.479 . S
C622 C617 1.245 . S
C622 C618 1.477 . S
C622 H639 0.932 1_545 S
C623 U606 2.882 . S
C623 C617 1.428 . S
C623 O626 1.301 . S
C623 O627 1.282 . S
O624 U606 2.441 1_554 S
O624 C610 1.249 . S
O625 U606 2.420 . S
O625 C610 1.202 1_556 S
O626 U606 2.455 . S
O626 C623 1.301 . S
O627 U606 2.449 . S
O627 C623 1.282 . S
H628 C601 0.931 . S
H629 C603 0.929 . S
H630 C604 0.930 . S
H631 C605 0.931 . S
H632 C612 0.932 . S
H633 C613 0.930 1_545 S
H634 C614 0.929 . S
H635 C616 0.930 . S
H636 C618 0.932 1_565 S
H637 C619 0.929 . S
H638 C620 0.928 . S
H639 C622 0.932 1_565 S
C640 O641 1.160 1_554 S
C640 O647 1.185 . S
O641 C640 1.160 1_556 S
O642 Zn643 1.899 1_556 S
O642 C650 1.284 . S
Zn643 O642 1.899 1_554 S
Zn643 O644 2.032 . S
Zn643 O647 2.086 . S
Zn643 O652 1.977 . S
O644 Zn643 2.032 . S
O644 C648 1.278 . S
C645 O646 1.203 . S
C645 O652 1.267 . S
O646 C645 1.203 . S
O647 C640 1.185 . S
O647 Zn643 2.086 . S
C648 O644 1.278 . S
C648 O649 1.211 . S
O649 C648 1.211 . S
C650 O642 1.284 . S
C650 O651 1.273 . S
O651 C650 1.273 . S
O652 Zn643 1.977 . S
O652 C645 1.267 . S
C653 O654 1.160 . S
C653 O660 1.185 . S
O654 C653 1.160 . S
O655 Zn656 1.899 . S
O655 C663 1.284 . S
Zn656 O655 1.899 . S
Zn656 O657 2.032 . S
Zn656 O660 2.086 . S
Zn656 O665 1.977 . S
O657 Zn656 2.032 . S
O657 C661 1.278 . S
C658 O659 1.203 . S
C658 O665 1.267 . S
O659 C658 1.203 . S
O660 C653 1.185 . S
O660 Zn656 2.086 . S
C661 O657 1.278 . S
C661 O662 1.211 . S
O662 C661 1.211 . S
C663 O655 1.284 . S
C663 O664 1.273 . S
O664 C663 1.273 . S
O665 Zn656 1.977 . S
O665 C658 1.267 . S
C666 O667 1.160 1_554 S
C666 O673 1.185 . S
O667 C666 1.160 1_556 S
O668 Zn669 1.899 1_556 S
O668 C676 1.284 . S
Zn669 O668 1.899 1_554 S
Zn669 O670 2.032 1_554 S
Zn669 O673 2.086 . S
Zn669 O678 1.977 . S
O670 Zn669 2.032 1_556 S
O670 C674 1.278 . S
C671 O672 1.203 . S
C671 O678 1.267 . S
O672 C671 1.203 . S
O673 C666 1.185 . S
O673 Zn669 2.086 . S
C674 O670 1.278 . S
C674 O675 1.211 1_556 S
O675 C674 1.211 1_554 S
C676 O668 1.284 . S
C676 O677 1.273 . S
O677 C676 1.273 . S
O678 Zn669 1.977 . S
O678 C671 1.267 . S
C679 O680 1.160 . S
C679 O686 1.185 . S
O680 C679 1.160 . S
O681 Zn682 1.899 . S
O681 C689 1.284 . S
Zn682 O681 1.899 . S
Zn682 O683 2.032 1_545 S
Zn682 O686 2.086 . S
Zn682 O691 1.977 . S
O683 Zn682 2.032 1_565 S
O683 C687 1.278 . S
C684 O685 1.203 . S
C684 O691 1.267 . S
O685 C684 1.203 . S
O686 C679 1.185 . S
O686 Zn682 2.086 . S
C687 O683 1.278 . S
C687 O688 1.211 . S
O688 C687 1.211 . S
C689 O681 1.284 . S
C689 O690 1.273 1_545 S
O690 C689 1.273 1_565 S
O691 Zn682 1.977 . S
O691 C684 1.267 . S
C692 O693 1.160 . S
C692 O699 1.185 . S
O693 C692 1.160 . S
O694 Zn695 1.899 . S
O694 C702 1.284 . S
Zn695 O694 1.899 . S
Zn695 O696 2.032 . S
Zn695 O699 2.086 . S
Zn695 O704 1.977 . S
O696 Zn695 2.032 . S
O696 C700 1.278 . S
C697 O698 1.203 . S
C697 O704 1.267 . S
O698 C697 1.203 . S
O699 C692 1.185 . S
O699 Zn695 2.086 . S
C700 O696 1.278 . S
C700 O701 1.211 . S
O701 C700 1.211 . S
C702 O694 1.284 . S
C702 O703 1.273 . S
O703 C702 1.273 . S
O704 Zn695 1.977 . S
O704 C697 1.267 . S
C705 O706 1.160 . S
C705 O712 1.185 . S
O706 C705 1.160 . S
O707 Zn708 1.899 . S
O707 C715 1.284 . S
Zn708 O707 1.899 . S
Zn708 O709 2.032 . S
Zn708 O712 2.086 . S
Zn708 O717 1.977 . S
O709 Zn708 2.032 . S
O709 C713 1.278 . S
C710 O711 1.203 . S
C710 O717 1.267 . S
O711 C710 1.203 . S
O712 C705 1.185 . S
O712 Zn708 2.086 . S
C713 O709 1.278 . S
C713 O714 1.211 . S
O714 C713 1.211 . S
C715 O707 1.284 . S
C715 O716 1.273 . S
O716 C715 1.273 . S
O717 Zn708 1.977 . S
O717 C710 1.267 . S
C718 O719 1.160 . S
C718 O725 1.185 . S
O719 C718 1.160 . S
O720 Zn721 1.899 . S
O720 C728 1.284 . S
Zn721 O720 1.899 . S
Zn721 O722 2.032 . S
Zn721 O725 2.086 . S
Zn721 O730 1.977 . S
O722 Zn721 2.032 . S
O722 C726 1.278 . S
C723 O724 1.203 . S
C723 O730 1.267 . S
O724 C723 1.203 . S
O725 C718 1.185 . S
O725 Zn721 2.086 . S
C726 O722 1.278 . S
C726 O727 1.211 . S
O727 C726 1.211 . S
C728 O720 1.284 . S
C728 O729 1.273 . S
O729 C728 1.273 . S
O730 Zn721 1.977 . S
O730 C723 1.267 . S
C731 O732 1.160 . S
C731 O738 1.185 . S
O732 C731 1.160 . S
O733 Zn734 1.899 . S
O733 C741 1.284 1_565 S
Zn734 O733 1.899 . S
Zn734 O735 2.032 1_565 S
Zn734 O738 2.086 . S
Zn734 O743 1.977 . S
O735 Zn734 2.032 1_545 S
O735 C739 1.278 . S
C736 O737 1.203 1_565 S
C736 O743 1.267 . S
O737 C736 1.203 1_545 S
O738 C731 1.185 . S
O738 Zn734 2.086 . S
C739 O735 1.278 . S
C739 O740 1.211 . S
O740 C739 1.211 . S
C741 O733 1.284 1_545 S
C741 O742 1.273 . S
O742 C741 1.273 . S
O743 Zn734 1.977 . S
O743 C736 1.267 . S
C744 O745 1.160 1_455 S
C744 O751 1.185 . S
O745 C744 1.160 1_655 S
O746 Zn747 1.899 1_655 S
O746 C754 1.284 . S
Zn747 O746 1.899 1_455 S
Zn747 O748 2.032 . S
Zn747 O751 2.086 . S
Zn747 O756 1.977 . S
O748 Zn747 2.032 . S
O748 C752 1.278 . S
C749 O750 1.203 . S
C749 O756 1.267 . S
O750 C749 1.203 . S
O751 C744 1.185 . S
O751 Zn747 2.086 . S
C752 O748 1.278 . S
C752 O753 1.211 . S
O753 C752 1.211 . S
C754 O746 1.284 . S
C754 O755 1.273 . S
O755 C754 1.273 . S
O756 Zn747 1.977 . S
O756 C749 1.267 . S
C757 O758 1.160 . S
C757 O764 1.185 . S
O758 C757 1.160 . S
O759 Zn760 1.899 . S
O759 C767 1.284 . S
Zn760 O759 1.899 . S
Zn760 O761 2.032 . S
Zn760 O764 2.086 . S
Zn760 O769 1.977 . S
O761 Zn760 2.032 . S
O761 C765 1.278 . S
C762 O763 1.203 . S
C762 O769 1.267 . S
O763 C762 1.203 . S
O764 C757 1.185 . S
O764 Zn760 2.086 . S
C765 O761 1.278 . S
C765 O766 1.211 . S
O766 C765 1.211 . S
C767 O759 1.284 . S
C767 O768 1.273 . S
O768 C767 1.273 . S
O769 Zn760 1.977 . S
O769 C762 1.267 . S
C770 O771 1.160 1_455 S
C770 O777 1.185 . S
O771 C770 1.160 1_655 S
O772 Zn773 1.899 1_655 S
O772 C780 1.284 . S
Zn773 O772 1.899 1_455 S
Zn773 O774 2.033 1_455 S
Zn773 O777 2.086 . S
Zn773 O782 1.977 . S
O774 Zn773 2.033 1_655 S
O774 C778 1.278 1_655 S
C775 O776 1.203 . S
C775 O782 1.267 . S
O776 C775 1.203 . S
O777 C770 1.185 . S
O777 Zn773 2.086 . S
C778 O774 1.278 1_455 S
C778 O779 1.211 . S
O779 C778 1.211 . S
C780 O772 1.284 . S
C780 O781 1.273 . S
O781 C780 1.273 . S
O782 Zn773 1.977 . S
O782 C775 1.267 . S
C783 O784 1.160 . S
C783 O790 1.185 . S
O784 C783 1.160 . S
O785 Zn786 1.899 . S
O785 C793 1.284 . S
Zn786 O785 1.899 . S
Zn786 O787 2.032 . S
Zn786 O790 2.086 . S
Zn786 O795 1.977 . S
O787 Zn786 2.032 . S
O787 C791 1.278 . S
C788 O789 1.203 . S
C788 O795 1.267 . S
O789 C788 1.203 . S
O790 C783 1.185 . S
O790 Zn786 2.086 . S
C791 O787 1.278 . S
C791 O792 1.211 . S
O792 C791 1.211 . S
C793 O785 1.284 . S
C793 O794 1.273 . S
O794 C793 1.273 . S
O795 Zn786 1.977 . S
O795 C788 1.267 . S
C796 C797 1.369 . S
C796 C798 1.419 . S
C796 H800 0.930 . S
C797 C796 1.369 . S
C797 C806 1.429 . S
C798 C796 1.419 . S
C798 C799 1.363 . S
C798 H801 0.929 . S
C799 C798 1.363 . S
C799 C805 1.428 . S
H800 C796 0.930 . S
H801 C798 0.929 . S
S802 N803 1.613 . S
S802 N804 1.610 . S
N803 S802 1.613 . S
N803 C806 1.350 . S
N804 S802 1.610 . S
N804 C805 1.351 . S
C805 C799 1.428 . S
C805 N804 1.351 . S
C805 C806 1.434 . S
C806 C797 1.429 . S
C806 N803 1.350 . S
C806 C805 1.434 . S
C807 C808 1.369 . S
C807 C809 1.419 . S
C807 H811 0.930 . S
C808 C807 1.369 . S
C808 C817 1.429 . S
C809 C807 1.419 . S
C809 C810 1.363 . S
C809 H812 0.929 . S
C810 C809 1.363 . S
C810 C816 1.428 . S
H811 C807 0.930 . S
H812 C809 0.929 . S
S813 N814 1.613 . S
S813 N815 1.610 . S
N814 S813 1.613 . S
N814 C817 1.350 . S
N815 S813 1.610 . S
N815 C816 1.351 . S
C816 C810 1.428 . S
C816 N815 1.351 . S
C816 C817 1.434 . S
C817 C808 1.429 . S
C817 N814 1.350 . S
C817 C816 1.434 . S
C818 C819 1.369 . S
C818 C820 1.419 . S
C818 H822 0.930 . S
C819 C818 1.369 . S
C819 C828 1.429 . S
C820 C818 1.419 . S
C820 C821 1.363 . S
C820 H823 0.929 . S
C821 C820 1.363 . S
C821 C827 1.428 . S
H822 C818 0.930 . S
H823 C820 0.929 . S
S824 N825 1.613 . S
S824 N826 1.610 . S
N825 S824 1.613 . S
N825 C828 1.350 . S
N826 S824 1.610 . S
N826 C827 1.351 . S
C827 C821 1.428 . S
C827 N826 1.351 . S
C827 C828 1.434 . S
C828 C819 1.429 . S
C828 N825 1.350 . S
C828 C827 1.434 . S
C829 C830 1.369 . S
C829 C831 1.419 . S
C829 H833 0.930 . S
C830 C829 1.369 . S
C830 C839 1.429 1_565 S
C831 C829 1.419 . S
C831 C832 1.363 1_565 S
C831 H834 0.929 . S
C832 C831 1.363 1_545 S
C832 C838 1.428 . S
H833 C829 0.930 . S
H834 C831 0.929 . S
S835 N836 1.613 . S
S835 N837 1.610 . S
N836 S835 1.613 . S
N836 C839 1.350 . S
N837 S835 1.610 . S
N837 C838 1.351 . S
C838 C832 1.428 . S
C838 N837 1.351 . S
C838 C839 1.434 . S
C839 C830 1.429 1_545 S
C839 N836 1.350 . S
C839 C838 1.434 . S
C840 C841 1.369 . S
C840 C842 1.419 . S
C840 H844 0.930 . S
C841 C840 1.369 . S
C841 C850 1.429 . S
C842 C840 1.419 . S
C842 C843 1.363 . S
C842 H845 0.929 . S
C843 C842 1.363 . S
C843 C849 1.428 . S
H844 C840 0.930 . S
H845 C842 0.929 . S
S846 N847 1.613 . S
S846 N848 1.610 . S
N847 S846 1.613 . S
N847 C850 1.350 . S
N848 S846 1.610 . S
N848 C849 1.351 . S
C849 C843 1.428 . S
C849 N848 1.351 . S
C849 C850 1.434 . S
C850 C841 1.429 . S
C850 N847 1.350 . S
C850 C849 1.434 . S
C851 C852 1.369 . S
C851 C853 1.419 . S
C851 H855 0.930 . S
C852 C851 1.369 . S
C852 C861 1.429 . S
C853 C851 1.419 . S
C853 C854 1.363 . S
C853 H856 0.929 . S
C854 C853 1.363 . S
C854 C860 1.428 . S
H855 C851 0.930 . S
H856 C853 0.929 . S
S857 N858 1.613 . S
S857 N859 1.610 . S
N858 S857 1.613 . S
N858 C861 1.350 . S
N859 S857 1.610 . S
N859 C860 1.351 . S
C860 C854 1.428 . S
C860 N859 1.351 . S
C860 C861 1.434 . S
C861 C852 1.429 . S
C861 N858 1.350 . S
C861 C860 1.434 . S
C862 C863 1.369 . S
C862 C864 1.419 . S
C862 H866 0.930 . S
C863 C862 1.369 . S
C863 C872 1.429 . S
C864 C862 1.419 . S
C864 C865 1.363 . S
C864 H867 0.929 . S
C865 C864 1.363 . S
C865 C871 1.428 . S
H866 C862 0.930 . S
H867 C864 0.929 . S
S868 N869 1.613 . S
S868 N870 1.610 . S
N869 S868 1.613 . S
N869 C872 1.350 . S
N870 S868 1.610 . S
N870 C871 1.351 . S
C871 C865 1.428 . S
C871 N870 1.351 . S
C871 C872 1.434 . S
C872 C863 1.429 . S
C872 N869 1.350 . S
C872 C871 1.434 . S
C873 C874 1.369 1_545 S
C873 C875 1.419 . S
C873 H877 0.930 . S
C874 C873 1.369 1_565 S
C874 C883 1.429 . S
C875 C873 1.419 . S
C875 C876 1.363 1_545 S
C875 H878 0.929 . S
C876 C875 1.363 1_565 S
C876 C882 1.428 . S
H877 C873 0.930 . S
H878 C875 0.929 . S
S879 N880 1.613 . S
S879 N881 1.610 . S
N880 S879 1.613 . S
N880 C883 1.350 . S
N881 S879 1.610 . S
N881 C882 1.351 . S
C882 C876 1.428 . S
C882 N881 1.351 . S
C882 C883 1.434 . S
C883 C874 1.429 . S
C883 N880 1.350 . S
C883 C882 1.434 . S
C884 C885 1.369 . S
C884 C886 1.419 . S
C884 H888 0.930 . S
C885 C884 1.369 . S
C885 C894 1.429 . S
C886 C884 1.419 . S
C886 C887 1.363 . S
C886 H889 0.929 . S
C887 C886 1.363 . S
C887 C893 1.428 . S
H888 C884 0.930 . S
H889 C886 0.929 . S
S890 N891 1.613 . S
S890 N892 1.610 . S
N891 S890 1.613 . S
N891 C894 1.350 . S
N892 S890 1.610 . S
N892 C893 1.351 . S
C893 C887 1.428 . S
C893 N892 1.351 . S
C893 C894 1.434 . S
C894 C885 1.429 . S
C894 N891 1.350 . S
C894 C893 1.434 . S
C895 C896 1.369 . S
C895 C897 1.419 . S
C895 H899 0.930 . S
C896 C895 1.369 . S
C896 C905 1.429 . S
C897 C895 1.419 . S
C897 C898 1.363 . S
C897 H900 0.929 . S
C898 C897 1.363 . S
C898 C904 1.428 . S
H899 C895 0.930 . S
H900 C897 0.929 . S
S901 N902 1.613 . S
S901 N903 1.610 . S
N902 S901 1.613 . S
N902 C905 1.350 . S
N903 S901 1.610 . S
N903 C904 1.351 . S
C904 C898 1.428 . S
C904 N903 1.351 . S
C904 C905 1.434 . S
C905 C896 1.429 . S
C905 N902 1.350 . S
C905 C904 1.434 . S
C906 C907 1.369 . S
C906 C908 1.419 . S
C906 H910 0.930 . S
C907 C906 1.369 . S
C907 C916 1.429 . S
C908 C906 1.419 . S
C908 C909 1.363 . S
C908 H911 0.929 . S
C909 C908 1.363 . S
C909 C915 1.428 . S
H910 C906 0.930 . S
H911 C908 0.929 . S
S912 N913 1.613 . S
S912 N914 1.610 . S
N913 S912 1.613 . S
N913 C916 1.350 . S
N914 S912 1.610 . S
N914 C915 1.351 . S
C915 C909 1.428 . S
C915 N914 1.351 . S
C915 C916 1.434 . S
C916 C907 1.429 . S
C916 N913 1.350 . S
C916 C915 1.434 . S
C917 C918 1.369 . S
C917 C919 1.419 . S
C917 H921 0.930 . S
C918 C917 1.369 . S
C918 C927 1.429 . S
C919 C917 1.419 . S
C919 C920 1.363 . S
C919 H922 0.929 . S
C920 C919 1.363 . S
C920 C926 1.428 . S
H921 C917 0.930 . S
H922 C919 0.929 . S
S923 N924 1.613 . S
S923 N925 1.610 . S
N924 S923 1.613 . S
N924 C927 1.350 . S
N925 S923 1.610 . S
N925 C926 1.351 . S
C926 C920 1.428 . S
C926 N925 1.351 . S
C926 C927 1.434 . S
C927 C918 1.429 . S
C927 N924 1.350 . S
C927 C926 1.434 . S
C928 C929 1.369 . S
C928 C930 1.419 . S
C928 H932 0.930 . S
C929 C928 1.369 . S
C929 C938 1.429 . S
C930 C928 1.419 . S
C930 C931 1.363 . S
C930 H933 0.929 . S
C931 C930 1.363 . S
C931 C937 1.428 . S
H932 C928 0.930 . S
H933 C930 0.929 . S
S934 N935 1.613 . S
S934 N936 1.610 . S
N935 S934 1.613 . S
N935 C938 1.350 . S
N936 S934 1.610 . S
N936 C937 1.351 . S
C937 C931 1.428 . S
C937 N936 1.351 . S
C937 C938 1.434 . S
C938 C929 1.429 . S
C938 N935 1.350 . S
C938 C937 1.434 . S
C939 C940 1.369 . S
C939 C941 1.419 . S
C939 H943 0.930 . S
C940 C939 1.369 . S
C940 C949 1.429 . S
C941 C939 1.419 . S
C941 C942 1.363 . S
C941 H944 0.929 . S
C942 C941 1.363 . S
C942 C948 1.428 . S
H943 C939 0.930 . S
H944 C941 0.929 . S
S945 N946 1.613 . S
S945 N947 1.610 . S
N946 S945 1.613 . S
N946 C949 1.350 . S
N947 S945 1.610 . S
N947 C948 1.351 . S
C948 C942 1.428 . S
C948 N947 1.351 . S
C948 C949 1.434 . S
C949 C940 1.429 . S
C949 N946 1.350 . S
C949 C948 1.434 . S
C950 C951 1.369 . S
C950 C952 1.419 . S
C950 H954 0.930 . S
C951 C950 1.369 . S
C951 C960 1.429 . S
C952 C950 1.419 . S
C952 C953 1.363 . S
C952 H955 0.929 . S
C953 C952 1.363 . S
C953 C959 1.428 . S
H954 C950 0.930 . S
H955 C952 0.929 . S
S956 N957 1.613 . S
S956 N958 1.610 . S
N957 S956 1.613 . S
N957 C960 1.350 . S
N958 S956 1.610 . S
N958 C959 1.351 . S
C959 C953 1.428 . S
C959 N958 1.351 . S
C959 C960 1.434 . S
C960 C951 1.429 . S
C960 N957 1.350 . S
C960 C959 1.434 . S
C961 C962 1.369 . S
C961 C963 1.419 . S
C961 H965 0.930 . S
C962 C961 1.369 . S
C962 C971 1.429 1_655 S
C963 C961 1.419 . S
C963 C964 1.363 . S
C963 H966 0.929 . S
C964 C963 1.363 . S
C964 C970 1.428 1_655 S
H965 C961 0.930 . S
H966 C963 0.929 . S
S967 N968 1.613 . S
S967 N969 1.610 . S
N968 S967 1.613 . S
N968 C971 1.350 . S
N969 S967 1.610 . S
N969 C970 1.351 . S
C970 C964 1.428 1_455 S
C970 N969 1.351 . S
C970 C971 1.434 . S
C971 C962 1.429 1_455 S
C971 N968 1.350 . S
C971 C970 1.434 . S
C972 C973 1.369 . S
C972 C974 1.419 . S
C972 H976 0.930 . S
C973 C972 1.369 . S
C973 C982 1.429 . S
C974 C972 1.419 . S
C974 C975 1.363 . S
C974 H977 0.929 . S
C975 C974 1.363 . S
C975 C981 1.428 . S
H976 C972 0.930 . S
H977 C974 0.929 . S
S978 N979 1.613 . S
S978 N980 1.610 . S
N979 S978 1.613 . S
N979 C982 1.350 . S
N980 S978 1.610 . S
N980 C981 1.351 . S
C981 C975 1.428 . S
C981 N980 1.351 . S
C981 C982 1.434 . S
C982 C973 1.429 . S
C982 N979 1.350 . S
C982 C981 1.434 . S
C983 C984 1.369 . S
C983 C985 1.419 . S
C983 H987 0.930 . S
C984 C983 1.369 . S
C984 C993 1.429 . S
C985 C983 1.419 . S
C985 C986 1.363 . S
C985 H988 0.929 . S
C986 C985 1.363 . S
C986 C992 1.428 . S
H987 C983 0.930 . S
H988 C985 0.929 . S
S989 N990 1.613 . S
S989 N991 1.610 . S
N990 S989 1.613 . S
N990 C993 1.350 . S
N991 S989 1.610 . S
N991 C992 1.351 . S
C992 C986 1.428 . S
C992 N991 1.351 . S
C992 C993 1.434 . S
C993 C984 1.429 . S
C993 N990 1.350 . S
C993 C992 1.434 . S
C994 C995 1.369 1_554 S
C994 C996 1.419 . S
C994 H998 0.930 . S
C995 C994 1.369 1_556 S
C995 C1004 1.429 . S
C996 C994 1.419 . S
C996 C997 1.363 . S
C996 H999 0.929 . S
C997 C996 1.363 . S
C997 C1003 1.428 1_554 S
H998 C994 0.930 . S
H999 C996 0.929 . S
S1000 N1001 1.613 . S
S1000 N1002 1.610 . S
N1001 S1000 1.613 . S
N1001 C1004 1.350 . S
N1002 S1000 1.610 . S
N1002 C1003 1.351 . S
C1003 C997 1.428 1_556 S
C1003 N1002 1.351 . S
C1003 C1004 1.434 . S
C1004 C995 1.429 . S
C1004 N1001 1.350 . S
C1004 C1003 1.434 . S
C1005 C1006 1.369 . S
C1005 C1007 1.419 . S
C1005 H1009 0.930 . S
C1006 C1005 1.369 . S
C1006 C1015 1.429 . S
C1007 C1005 1.419 . S
C1007 C1008 1.363 . S
C1007 H1010 0.929 . S
C1008 C1007 1.363 . S
C1008 C1014 1.428 . S
H1009 C1005 0.930 . S
H1010 C1007 0.929 . S
S1011 N1012 1.613 . S
S1011 N1013 1.610 . S
N1012 S1011 1.613 . S
N1012 C1015 1.350 . S
N1013 S1011 1.610 . S
N1013 C1014 1.351 . S
C1014 C1008 1.428 . S
C1014 N1013 1.351 . S
C1014 C1015 1.434 . S
C1015 C1006 1.429 . S
C1015 N1012 1.350 . S
C1015 C1014 1.434 . S
C1016 C1017 1.369 . S
C1016 C1018 1.419 . S
C1016 H1020 0.930 . S
C1017 C1016 1.369 . S
C1017 C1026 1.429 . S
C1018 C1016 1.419 . S
C1018 C1019 1.363 . S
C1018 H1021 0.929 . S
C1019 C1018 1.363 . S
C1019 C1025 1.428 . S
H1020 C1016 0.930 . S
H1021 C1018 0.929 . S
S1022 N1023 1.613 . S
S1022 N1024 1.610 . S
N1023 S1022 1.613 . S
N1023 C1026 1.350 . S
N1024 S1022 1.610 . S
N1024 C1025 1.351 . S
C1025 C1019 1.428 . S
C1025 N1024 1.351 . S
C1025 C1026 1.434 . S
C1026 C1017 1.429 . S
C1026 N1023 1.350 . S
C1026 C1025 1.434 . S
C1027 C1028 1.369 . S
C1027 C1029 1.419 . S
C1027 H1031 0.930 . S
C1028 C1027 1.369 . S
C1028 C1037 1.429 . S
C1029 C1027 1.419 . S
C1029 C1030 1.363 . S
C1029 H1032 0.929 . S
C1030 C1029 1.363 . S
C1030 C1036 1.428 . S
H1031 C1027 0.930 . S
H1032 C1029 0.929 . S
S1033 N1034 1.613 . S
S1033 N1035 1.610 . S
N1034 S1033 1.613 . S
N1034 C1037 1.350 . S
N1035 S1033 1.610 . S
N1035 C1036 1.351 . S
C1036 C1030 1.428 . S
C1036 N1035 1.351 . S
C1036 C1037 1.434 . S
C1037 C1028 1.429 . S
C1037 N1034 1.350 . S
C1037 C1036 1.434 . S
C1038 C1039 1.369 . S
C1038 C1040 1.419 . S
C1038 H1042 0.930 . S
C1039 C1038 1.369 . S
C1039 C1048 1.429 . S
C1040 C1038 1.419 . S
C1040 C1041 1.363 . S
C1040 H1043 0.929 . S
C1041 C1040 1.363 . S
C1041 C1047 1.428 . S
H1042 C1038 0.930 . S
H1043 C1040 0.929 . S
S1044 N1045 1.613 . S
S1044 N1046 1.610 . S
N1045 S1044 1.613 . S
N1045 C1048 1.350 . S
N1046 S1044 1.610 . S
N1046 C1047 1.351 . S
C1047 C1041 1.428 . S
C1047 N1046 1.351 . S
C1047 C1048 1.434 . S
C1048 C1039 1.429 . S
C1048 N1045 1.350 . S
C1048 C1047 1.434 . S
C1049 C1050 1.369 . S
C1049 C1051 1.419 . S
C1049 H1053 0.930 . S
C1050 C1049 1.369 . S
C1050 C1059 1.429 . S
C1051 C1049 1.419 . S
C1051 C1052 1.363 . S
C1051 H1054 0.929 . S
C1052 C1051 1.363 . S
C1052 C1058 1.428 . S
H1053 C1049 0.930 . S
H1054 C1051 0.929 . S
S1055 N1056 1.613 . S
S1055 N1057 1.610 . S
N1056 S1055 1.613 . S
N1056 C1059 1.350 . S
N1057 S1055 1.610 . S
N1057 C1058 1.351 . S
C1058 C1052 1.428 . S
C1058 N1057 1.351 . S
C1058 C1059 1.434 . S
C1059 C1050 1.429 . S
C1059 N1056 1.350 . S
C1059 C1058 1.434 . S
C1060 C1061 1.369 . S
C1060 C1062 1.419 . S
C1060 H1064 0.930 . S
C1061 C1060 1.369 . S
C1061 C1070 1.429 . S
C1062 C1060 1.419 . S
C1062 C1063 1.363 . S
C1062 H1065 0.929 . S
C1063 C1062 1.363 . S
C1063 C1069 1.428 . S
H1064 C1060 0.930 . S
H1065 C1062 0.929 . S
S1066 N1067 1.613 . S
S1066 N1068 1.610 . S
N1067 S1066 1.613 . S
N1067 C1070 1.350 . S
N1068 S1066 1.610 . S
N1068 C1069 1.351 . S
C1069 C1063 1.428 . S
C1069 N1068 1.351 . S
C1069 C1070 1.434 . S
C1070 C1061 1.429 . S
C1070 N1067 1.350 . S
C1070 C1069 1.434 . S
C1071 C1072 1.369 . S
C1071 C1073 1.419 . S
C1071 H1075 0.930 . S
C1072 C1071 1.369 . S
C1072 C1081 1.429 . S
C1073 C1071 1.419 . S
C1073 C1074 1.363 . S
C1073 H1076 0.929 . S
C1074 C1073 1.363 . S
C1074 C1080 1.438 . S
H1075 C1071 0.930 . S
H1076 C1073 0.929 . S
S1077 N1078 1.613 . S
S1077 N1079 1.610 . S
N1078 S1077 1.613 . S
N1078 C1081 1.350 1_565 S
N1079 S1077 1.610 . S
N1079 C1080 1.339 1_565 S
C1080 C1074 1.438 . S
C1080 N1079 1.339 1_545 S
C1080 C1081 1.437 . S
C1081 C1072 1.429 . S
C1081 N1078 1.350 1_545 S
C1081 C1080 1.437 . S
C1082 C1083 1.369 . S
C1082 C1084 1.419 . S
C1082 H1086 0.930 . S
C1083 C1082 1.369 . S
C1083 C1092 1.429 . S
C1084 C1082 1.419 . S
C1084 C1085 1.363 . S
C1084 H1087 0.929 . S
C1085 C1084 1.363 . S
C1085 C1091 1.428 . S
H1086 C1082 0.930 . S
H1087 C1084 0.929 . S
S1088 N1089 1.613 . S
S1088 N1090 1.610 . S
N1089 S1088 1.613 . S
N1089 C1092 1.350 . S
N1090 S1088 1.610 . S
N1090 C1091 1.351 . S
C1091 C1085 1.428 . S
C1091 N1090 1.351 . S
C1091 C1092 1.434 . S
C1092 C1083 1.429 . S
C1092 N1089 1.350 . S
C1092 C1091 1.434 . S
C1093 C1094 1.369 . S
C1093 C1095 1.419 . S
C1093 H1097 0.930 . S
C1094 C1093 1.369 . S
C1094 C1103 1.429 . S
C1095 C1093 1.419 . S
C1095 C1096 1.363 . S
C1095 H1098 0.929 . S
C1096 C1095 1.363 . S
C1096 C1102 1.428 . S
H1097 C1093 0.930 . S
H1098 C1095 0.929 . S
S1099 N1100 1.613 . S
S1099 N1101 1.610 . S
N1100 S1099 1.613 . S
N1100 C1103 1.350 . S
N1101 S1099 1.610 . S
N1101 C1102 1.351 . S
C1102 C1096 1.428 . S
C1102 N1101 1.351 . S
C1102 C1103 1.434 . S
C1103 C1094 1.429 . S
C1103 N1100 1.350 . S
C1103 C1102 1.434 . S
C1104 C1105 1.369 . S
C1104 C1106 1.419 . S
C1104 H1108 0.930 . S
C1105 C1104 1.369 . S
C1105 C1114 1.429 . S
C1106 C1104 1.419 . S
C1106 C1107 1.363 . S
C1106 H1109 0.929 . S
C1107 C1106 1.363 . S
C1107 C1113 1.428 . S
H1108 C1104 0.930 . S
H1109 C1106 0.929 . S
S1110 N1111 1.613 . S
S1110 N1112 1.610 . S
N1111 S1110 1.613 . S
N1111 C1114 1.350 . S
N1112 S1110 1.610 . S
N1112 C1113 1.351 . S
C1113 C1107 1.428 . S
C1113 N1112 1.351 . S
C1113 C1114 1.434 . S
C1114 C1105 1.429 . S
C1114 N1111 1.350 . S
C1114 C1113 1.434 . S
C1115 C1116 1.369 . S
C1115 C1117 1.419 . S
C1115 H1119 0.930 . S
C1116 C1115 1.369 . S
C1116 C1125 1.429 . S
C1117 C1115 1.419 . S
C1117 C1118 1.363 . S
C1117 H1120 0.929 . S
C1118 C1117 1.363 . S
C1118 C1124 1.459 . S
H1119 C1115 0.930 . S
H1120 C1117 0.929 . S
S1121 N1122 1.613 . S
S1121 N1123 1.610 . S
N1122 S1121 1.613 . S
N1122 C1125 1.350 1_565 S
N1123 S1121 1.610 . S
N1123 C1124 1.314 1_565 S
C1124 C1118 1.459 . S
C1124 N1123 1.314 1_545 S
C1124 C1125 1.438 . S
C1125 C1116 1.429 . S
C1125 N1122 1.350 1_545 S
C1125 C1124 1.438 . S
C1126 C1127 1.369 . S
C1126 C1128 1.419 . S
C1126 H1130 0.930 . S
C1127 C1126 1.369 . S
C1127 C1136 1.429 . S
C1128 C1126 1.419 . S
C1128 C1129 1.363 . S
C1128 H1131 0.929 . S
C1129 C1128 1.363 . S
C1129 C1135 1.428 . S
H1130 C1126 0.930 . S
H1131 C1128 0.929 . S
S1132 N1133 1.613 . S
S1132 N1134 1.610 . S
N1133 S1132 1.613 . S
N1133 C1136 1.350 . S
N1134 S1132 1.610 . S
N1134 C1135 1.351 . S
C1135 C1129 1.428 . S
C1135 N1134 1.351 . S
C1135 C1136 1.434 . S
C1136 C1127 1.429 . S
C1136 N1133 1.350 . S
C1136 C1135 1.434 . S
C1137 C1138 1.369 . S
C1137 C1139 1.419 . S
C1137 H1141 0.930 . S
C1138 C1137 1.369 . S
C1138 C1147 1.429 . S
C1139 C1137 1.419 . S
C1139 C1140 1.363 . S
C1139 H1142 0.929 . S
C1140 C1139 1.363 . S
C1140 C1146 1.428 . S
H1141 C1137 0.930 . S
H1142 C1139 0.929 . S
S1143 N1144 1.613 . S
S1143 N1145 1.610 . S
N1144 S1143 1.613 . S
N1144 C1147 1.350 . S
N1145 S1143 1.610 . S
N1145 C1146 1.351 . S
C1146 C1140 1.428 . S
C1146 N1145 1.351 . S
C1146 C1147 1.434 . S
C1147 C1138 1.429 . S
C1147 N1144 1.350 . S
C1147 C1146 1.434 . S
C1148 C1149 1.369 . S
C1148 C1150 1.419 . S
C1148 H1152 0.930 . S
C1149 C1148 1.369 . S
C1149 C1158 1.429 . S
C1150 C1148 1.419 . S
C1150 C1151 1.363 . S
C1150 H1153 0.929 . S
C1151 C1150 1.363 . S
C1151 C1157 1.428 . S
H1152 C1148 0.930 . S
H1153 C1150 0.929 . S
S1154 N1155 1.613 . S
S1154 N1156 1.610 . S
N1155 S1154 1.613 . S
N1155 C1158 1.350 . S
N1156 S1154 1.610 . S
N1156 C1157 1.351 . S
C1157 C1151 1.428 . S
C1157 N1156 1.351 . S
C1157 C1158 1.434 . S
C1158 C1149 1.429 . S
C1158 N1155 1.350 . S
C1158 C1157 1.434 . S
C1159 C1160 1.369 . S
C1159 C1161 1.419 . S
C1159 H1163 0.930 . S
C1160 C1159 1.369 . S
C1160 C1169 1.429 . S
C1161 C1159 1.419 . S
C1161 C1162 1.363 . S
C1161 H1164 0.929 . S
C1162 C1161 1.363 . S
C1162 C1168 1.428 . S
H1163 C1159 0.930 . S
H1164 C1161 0.929 . S
S1165 N1166 1.610 1_455 S
S1165 N1167 1.612 . S
N1166 S1165 1.610 1_655 S
N1166 C1169 1.350 . S
N1167 S1165 1.612 . S
N1167 C1168 1.351 1_455 S
C1168 C1162 1.428 . S
C1168 N1167 1.351 1_655 S
C1168 C1169 1.434 . S
C1169 C1160 1.429 . S
C1169 N1166 1.350 . S
C1169 C1168 1.434 . S
C1170 C1171 1.369 . S
C1170 C1172 1.419 . S
C1170 H1174 0.930 . S
C1171 C1170 1.369 . S
C1171 C1180 1.429 . S
C1172 C1170 1.419 . S
C1172 C1173 1.363 . S
C1172 H1175 0.929 . S
C1173 C1172 1.363 . S
C1173 C1179 1.428 . S
H1174 C1170 0.930 . S
H1175 C1172 0.929 . S
S1176 N1177 1.613 . S
S1176 N1178 1.610 . S
N1177 S1176 1.613 . S
N1177 C1180 1.350 . S
N1178 S1176 1.610 . S
N1178 C1179 1.351 . S
C1179 C1173 1.428 . S
C1179 N1178 1.351 . S
C1179 C1180 1.434 . S
C1180 C1171 1.429 . S
C1180 N1177 1.350 . S
C1180 C1179 1.434 . S
C1181 C1182 1.369 . S
C1181 C1183 1.419 . S
C1181 H1185 0.930 . S
C1182 C1181 1.369 . S
C1182 C1191 1.429 . S
C1183 C1181 1.419 . S
C1183 C1184 1.363 . S
C1183 H1186 0.929 . S
C1184 C1183 1.363 . S
C1184 C1190 1.428 . S
H1185 C1181 0.930 . S
H1186 C1183 0.929 . S
S1187 N1188 1.613 . S
S1187 N1189 1.610 . S
N1188 S1187 1.613 . S
N1188 C1191 1.350 1_655 S
N1189 S1187 1.610 . S
N1189 C1190 1.351 1_655 S
C1190 C1184 1.428 . S
C1190 N1189 1.351 1_455 S
C1190 C1191 1.434 . S
C1191 C1182 1.429 . S
C1191 N1188 1.350 1_455 S
C1191 C1190 1.434 . S
C1192 C1193 1.369 . S
C1192 C1194 1.419 . S
C1192 H1196 0.930 . S
C1193 C1192 1.369 . S
C1193 C1202 1.429 . S
C1194 C1192 1.419 . S
C1194 C1195 1.363 . S
C1194 H1197 0.929 . S
C1195 C1194 1.363 . S
C1195 C1201 1.428 . S
H1196 C1192 0.930 . S
H1197 C1194 0.929 . S
S1198 N1199 1.613 . S
S1198 N1200 1.610 . S
N1199 S1198 1.613 . S
N1199 C1202 1.350 . S
N1200 S1198 1.610 . S
N1200 C1201 1.351 . S
C1201 C1195 1.428 . S
C1201 N1200 1.351 . S
C1201 C1202 1.434 . S
C1202 C1193 1.429 . S
C1202 N1199 1.350 . S
C1202 C1201 1.434 . S
C1203 C1204 1.369 . S
C1203 C1205 1.419 . S
C1203 H1207 0.930 . S
C1204 C1203 1.369 . S
C1204 C1213 1.429 . S
C1205 C1203 1.419 . S
C1205 C1206 1.363 . S
C1205 H1208 0.929 . S
C1206 C1205 1.363 . S
C1206 C1212 1.428 . S
H1207 C1203 0.930 . S
H1208 C1205 0.929 . S
S1209 N1210 1.613 . S
S1209 N1211 1.610 . S
N1210 S1209 1.613 . S
N1210 C1213 1.350 . S
N1211 S1209 1.610 . S
N1211 C1212 1.351 . S
C1212 C1206 1.428 . S
C1212 N1211 1.351 . S
C1212 C1213 1.434 . S
C1213 C1204 1.429 . S
C1213 N1210 1.350 . S
C1213 C1212 1.434 . S
C1214 C1215 1.369 . S
C1214 C1216 1.419 . S
C1214 H1218 0.930 . S
C1215 C1214 1.369 . S
C1215 C1224 1.429 . S
C1216 C1214 1.419 . S
C1216 C1217 1.363 . S
C1216 H1219 0.929 . S
C1217 C1216 1.363 . S
C1217 C1223 1.428 . S
H1218 C1214 0.930 . S
H1219 C1216 0.929 . S
S1220 N1221 1.613 . S
S1220 N1222 1.610 . S
N1221 S1220 1.613 . S
N1221 C1224 1.350 . S
N1222 S1220 1.610 . S
N1222 C1223 1.351 . S
C1223 C1217 1.428 . S
C1223 N1222 1.351 . S
C1223 C1224 1.434 . S
C1224 C1215 1.429 . S
C1224 N1221 1.350 . S
C1224 C1223 1.434 . S
C1225 C1226 1.369 . S
C1225 C1227 1.419 . S
C1225 H1229 0.930 . S
C1226 C1225 1.369 . S
C1226 C1235 1.429 . S
C1227 C1225 1.419 . S
C1227 C1228 1.363 . S
C1227 H1230 0.929 . S
C1228 C1227 1.363 . S
C1228 C1234 1.428 . S
H1229 C1225 0.930 . S
H1230 C1227 0.929 . S
S1231 N1232 1.613 . S
S1231 N1233 1.610 . S
N1232 S1231 1.613 . S
N1232 C1235 1.350 . S
N1233 S1231 1.610 . S
N1233 C1234 1.351 . S
C1234 C1228 1.428 . S
C1234 N1233 1.351 . S
C1234 C1235 1.434 . S
C1235 C1226 1.429 . S
C1235 N1232 1.350 . S
C1235 C1234 1.434 . S
C1236 C1237 1.369 . S
C1236 C1238 1.419 . S
C1236 H1240 0.930 . S
C1237 C1236 1.369 . S
C1237 C1246 1.429 . S
C1238 C1236 1.419 . S
C1238 C1239 1.363 . S
C1238 H1241 0.929 . S
C1239 C1238 1.363 . S
C1239 C1245 1.428 . S
H1240 C1236 0.930 . S
H1241 C1238 0.929 . S
S1242 N1243 1.613 . S
S1242 N1244 1.610 . S
N1243 S1242 1.613 . S
N1243 C1246 1.350 . S
N1244 S1242 1.610 . S
N1244 C1245 1.351 . S
C1245 C1239 1.428 . S
C1245 N1244 1.351 . S
C1245 C1246 1.434 . S
C1246 C1237 1.429 . S
C1246 N1243 1.350 . S
C1246 C1245 1.434 . S
C1247 C1248 1.369 . S
C1247 C1249 1.419 . S
C1247 H1251 0.930 . S
C1248 C1247 1.369 . S
C1248 C1257 1.429 . S
C1249 C1247 1.419 . S
C1249 C1250 1.363 . S
C1249 H1252 0.929 . S
C1250 C1249 1.363 . S
C1250 C1256 1.428 . S
H1251 C1247 0.930 . S
H1252 C1249 0.929 . S
S1253 N1254 1.613 . S
S1253 N1255 1.610 . S
N1254 S1253 1.613 . S
N1254 C1257 1.350 . S
N1255 S1253 1.610 . S
N1255 C1256 1.351 . S
C1256 C1250 1.428 . S
C1256 N1255 1.351 . S
C1256 C1257 1.434 . S
C1257 C1248 1.429 . S
C1257 N1254 1.350 . S
C1257 C1256 1.434 . S
C1258 C1259 1.369 . S
C1258 C1260 1.419 . S
C1258 H1262 0.930 . S
C1259 C1258 1.369 . S
C1259 C1268 1.429 . S
C1260 C1258 1.419 . S
C1260 C1261 1.363 . S
C1260 H1263 0.929 . S
C1261 C1260 1.363 . S
C1261 C1267 1.428 . S
H1262 C1258 0.930 . S
H1263 C1260 0.929 . S
S1264 N1265 1.613 . S
S1264 N1266 1.610 . S
N1265 S1264 1.613 . S
N1265 C1268 1.350 . S
N1266 S1264 1.610 . S
N1266 C1267 1.351 . S
C1267 C1261 1.428 . S
C1267 N1266 1.351 . S
C1267 C1268 1.434 . S
C1268 C1259 1.429 . S
C1268 N1265 1.350 . S
C1268 C1267 1.434 . S
C1269 C1270 1.369 . S
C1269 C1271 1.419 . S
C1269 H1273 0.930 . S
C1270 C1269 1.369 . S
C1270 C1279 1.429 . S
C1271 C1269 1.419 . S
C1271 C1272 1.363 . S
C1271 H1274 0.929 . S
C1272 C1271 1.363 . S
C1272 C1278 1.428 . S
H1273 C1269 0.930 . S
H1274 C1271 0.929 . S
S1275 N1276 1.613 . S
S1275 N1277 1.610 . S
N1276 S1275 1.613 . S
N1276 C1279 1.350 . S
N1277 S1275 1.610 . S
N1277 C1278 1.351 . S
C1278 C1272 1.428 . S
C1278 N1277 1.351 . S
C1278 C1279 1.434 . S
C1279 C1270 1.429 . S
C1279 N1276 1.350 . S
C1279 C1278 1.434 . S
C1280 C1281 1.369 . S
C1280 C1282 1.419 . S
C1280 H1284 0.930 . S
C1281 C1280 1.369 . S
C1281 C1290 1.429 . S
C1282 C1280 1.419 . S
C1282 C1283 1.363 . S
C1282 H1285 0.929 . S
C1283 C1282 1.363 . S
C1283 C1289 1.428 . S
H1284 C1280 0.930 . S
H1285 C1282 0.929 . S
S1286 N1287 1.613 . S
S1286 N1288 1.610 . S
N1287 S1286 1.613 . S
N1287 C1290 1.350 . S
N1288 S1286 1.610 . S
N1288 C1289 1.351 . S
C1289 C1283 1.428 . S
C1289 N1288 1.351 . S
C1289 C1290 1.434 . S
C1290 C1281 1.429 . S
C1290 N1287 1.350 . S
C1290 C1289 1.434 . S
C1291 C1292 1.369 . S
C1291 C1293 1.419 . S
C1291 H1295 0.930 . S
C1292 C1291 1.369 . S
C1292 C1301 1.429 . S
C1293 C1291 1.419 . S
C1293 C1294 1.363 . S
C1293 H1296 0.929 . S
C1294 C1293 1.363 . S
C1294 C1300 1.428 . S
H1295 C1291 0.930 . S
H1296 C1293 0.929 . S
S1297 N1298 1.613 . S
S1297 N1299 1.610 . S
N1298 S1297 1.613 . S
N1298 C1301 1.350 . S
N1299 S1297 1.610 . S
N1299 C1300 1.351 . S
C1300 C1294 1.428 . S
C1300 N1299 1.351 . S
C1300 C1301 1.434 . S
C1301 C1292 1.429 . S
C1301 N1298 1.350 . S
C1301 C1300 1.434 . S
C1302 C1303 1.369 . S
C1302 C1304 1.419 . S
C1302 H1306 0.930 . S
C1303 C1302 1.369 . S
C1303 C1312 1.429 . S
C1304 C1302 1.419 . S
C1304 C1305 1.363 . S
C1304 H1307 0.929 . S
C1305 C1304 1.363 . S
C1305 C1311 1.428 . S
H1306 C1302 0.930 . S
H1307 C1304 0.929 . S
S1308 N1309 1.613 . S
S1308 N1310 1.610 . S
N1309 S1308 1.613 . S
N1309 C1312 1.350 . S
N1310 S1308 1.610 . S
N1310 C1311 1.351 . S
C1311 C1305 1.428 . S
C1311 N1310 1.351 . S
C1311 C1312 1.434 . S
C1312 C1303 1.429 . S
C1312 N1309 1.350 . S
C1312 C1311 1.434 . S
C1313 C1314 1.369 . S
C1313 C1315 1.419 . S
C1313 H1317 0.930 . S
C1314 C1313 1.369 . S
C1314 C1323 1.429 . S
C1315 C1313 1.419 . S
C1315 C1316 1.363 . S
C1315 H1318 0.929 . S
C1316 C1315 1.363 . S
C1316 C1322 1.428 . S
H1317 C1313 0.930 . S
H1318 C1315 0.929 . S
S1319 N1320 1.613 . S
S1319 N1321 1.610 . S
N1320 S1319 1.613 . S
N1320 C1323 1.350 . S
N1321 S1319 1.610 . S
N1321 C1322 1.351 . S
C1322 C1316 1.428 . S
C1322 N1321 1.351 . S
C1322 C1323 1.434 . S
C1323 C1314 1.429 . S
C1323 N1320 1.350 . S
C1323 C1322 1.434 . S
C799 C650 1.419 . S
C797 C202 1.420 . S
C810 C663 1.605 . S
C808 C261 1.613 . S
C819 C282 1.454 . S
C821 C676 1.458 . S
C832 C689 1.523 . S
C830 C162 1.520 . S
C843 C697 1.453 . S
C841 C402 1.479 . S
C854 C710 1.423 . S
C852 C482 1.435 . S
C863 C442 1.517 . S
C865 C723 1.500 . S
C876 C736 1.514 . S
C874 C381 1.526 . S
C885 C461 1.476 . S
C887 C754 1.472 . S
C898 C765 1.475 . S
C896 C362 1.505 . S
C907 C415 1.431 . S
C909 C749 1.395 . S
C920 C757 1.473 . S
C918 C495 1.505 . S
C929 C301 1.527 . S
C931 C780 1.524 . S
C940 C175 1.531 . S
C942 C770 1.496 . S
C951 C215 1.477 . S
C953 C775 1.444 . S
C962 C242 1.534 . S
C964 C778 1.507 1_655 S
C973 C141 1.498 . S
C975 C687 1.465 . S
C984 C581 1.465 . S
C986 C679 1.446 . S
C997 C648 1.503 . S
C995 C615 1.528 . S
C1008 C653 1.489 . S
C1006 C335 1.505 . S
C1017 C181 1.582 . S
C1019 C700 1.554 . S
C1030 C739 1.492 . S
C1028 C455 1.517 . S
C1041 C692 1.439 . S
C1039 C375 1.468 . S
C1052 C718 1.487 . S
C1050 C501 1.522 . S
C1063 C728 1.419 . S
C1061 C562 1.419 . S
C1072 C621 1.612 . S
C1074 C741 1.604 . S
C1083 C322 1.455 . S
C1085 C702 1.457 . S
C1096 C715 1.523 . S
C1094 C522 1.523 . S
C1105 C122 1.483 . S
C1107 C671 1.453 . S
C1118 C684 1.421 . S
C1116 C2 1.434 . S
C1129 C645 1.499 . S
C1127 C42 1.515 . S
C1140 C658 1.512 . S
C1138 C101 1.525 . S
C1149 C61 1.472 . S
C1151 C767 1.469 . S
C1160 C82 1.505 . S
C1162 C752 1.476 1_655 S
C1171 C135 1.429 . S
C1173 C762 1.401 . S
C1182 C15 1.506 . S
C1184 C744 1.474 . S
C1195 C793 1.524 . S
C1193 C341 1.526 . S
C1206 C783 1.498 . S
C1204 C535 1.530 . S
C1217 C788 1.443 . S
C1215 C575 1.477 . S
C1226 C602 1.538 . S
C1228 C791 1.511 . S
C1237 C421 1.499 . S
C1239 C713 1.466 . S
C1250 C705 1.449 . S
C1248 C221 1.466 . S
C1261 C726 1.501 . S
C1259 C255 1.527 . S
C1272 C731 1.488 . S
C1270 C295 1.507 . S
C1281 C541 1.581 . S
C1283 C674 1.553 . S
C1294 C661 1.489 . S
C1292 C55 1.519 . S
C1303 C95 1.468 . S
C1305 C666 1.441 . S
C1316 C640 1.491 . S
C1314 C21 1.523 . S
