# Generated by pormake.
# Topology rtl, (3,6)-cn, num edge types: 1
# Building blocks:
#     Node 0, Type 0, BuildingBlock: WUSLED_clean_sbu_0, # of connection points: 3
#     Node 1, Type 0, BuildingBlock: WUSLED_clean_sbu_0, # of connection points: 3
#     Node 2, Type 0, BuildingBlock: WUSLED_clean_sbu_0, # of connection points: 3
#     Node 3, Type 0, BuildingBlock: WUSLED_clean_sbu_0, # of connection points: 3
#     Node 4, Type 1, BuildingBlock: LEVNOQ01_clean_sbu_1, # of connection points: 6
#     Node 5, Type 1, BuildingBlock: LEVNOQ01_clean_sbu_1, # of connection points: 6
#     Edge 6, Type (0, 1), BuildingBlock: MIFKUJ_clean_linker_0, # of connection points: 2
#     Edge 7, Type (0, 1), BuildingBlock: MIFKUJ_clean_linker_0, # of connection points: 2
#     Edge 8, Type (0, 1), BuildingBlock: MIFKUJ_clean_linker_0, # of connection points: 2
#     Edge 9, Type (0, 1), BuildingBlock: MIFKUJ_clean_linker_0, # of connection points: 2
#     Edge 10, Type (0, 1), BuildingBlock: MIFKUJ_clean_linker_0, # of connection points: 2
#     Edge 11, Type (0, 1), BuildingBlock: MIFKUJ_clean_linker_0, # of connection points: 2
#     Edge 12, Type (0, 1), BuildingBlock: MIFKUJ_clean_linker_0, # of connection points: 2
#     Edge 13, Type (0, 1), BuildingBlock: MIFKUJ_clean_linker_0, # of connection points: 2
#     Edge 14, Type (0, 1), BuildingBlock: MIFKUJ_clean_linker_0, # of connection points: 2
#     Edge 15, Type (0, 1), BuildingBlock: MIFKUJ_clean_linker_0, # of connection points: 2
#     Edge 16, Type (0, 1), BuildingBlock: MIFKUJ_clean_linker_0, # of connection points: 2
#     Edge 17, Type (0, 1), BuildingBlock: MIFKUJ_clean_linker_0, # of connection points: 2
# Relax obj value: 0.023
# Max RMSD: 0.059
# Mean RMSD: 0.042
data_MOF--net-rtl--node1-WUSLED_clean_sbu_0--node2-LEVNOQ01_clean_sbu_1--edge1-MIFKUJ_clean_linker_0
_symmetry_space_group_name_H-M    P1
_symmetry_Int_Tables_number       1
_symmetry_cell_setting            triclinic
loop_
_symmetry_equiv_pos_as_xyz
'x, y, z'
_cell_length_a     49.423483
_cell_length_b     55.803568
_cell_length_c     38.62173
_cell_angle_alpha  90.431419
_cell_angle_beta   98.04319
_cell_angle_gamma 90.112563
loop_
_atom_site_label
_atom_site_type_symbol
_atom_site_fract_x
_atom_site_fract_y
_atom_site_fract_z
_atom_type_partial_charge
C0 C 0.22735 0.88739 0.1874 0.0
C1 C 0.2076 0.90496 0.17732 0.0
C2 C 0.20305 0.91293 0.23853 0.0
C3 C 0.19555 0.91761 0.20266 0.0
C4 C 0.22316 0.8955 0.24836 0.0
C5 C 0.23515 0.88287 0.22303 0.0
U6 U 0.23575 0.87129 0.09265 0.0
O7 O 0.273 0.86156 0.07038 0.0
O8 O 0.23907 0.83591 0.06824 0.0
C9 C 0.26439 0.8396 0.0627 0.0
C10 C 0.23957 0.87325 0.16123 0.0
C11 C 0.2841 0.82024 0.07329 0.0
C12 C 0.29984 0.78639 0.11013 0.0
C13 C 0.28173 0.8055 0.10208 0.0
C14 C 0.32335 0.79695 0.06141 0.0
C15 C 0.32077 0.78178 0.08972 0.0
C16 C 0.30518 0.81592 0.05328 0.0
C17 C 0.19434 0.90637 0.01705 0.0
C18 C 0.18093 0.89389 0.95648 0.0
C19 C 0.17704 0.93554 0.97302 0.0
C20 C 0.18744 0.93 0.00757 0.0
C21 C 0.17316 0.91751 0.94709 0.0
C22 C 0.19142 0.88837 0.99115 0.0
C23 C 0.20316 0.90099 0.05432 0.0
O24 O 0.22277 0.85876 0.14166 0.0
O25 O 0.25603 0.88498 0.14338 0.0
O26 O 0.22865 0.90624 0.06664 0.0
O27 O 0.19498 0.88041 0.06565 0.0
H28 H 0.20137 0.90874 0.14989 0.0
H29 H 0.18039 0.93109 0.19414 0.0
H30 H 0.22917 0.89115 0.27563 0.0
H31 H 0.25031 0.86931 0.23128 0.0
H32 H 0.29746 0.77521 0.13231 0.0
H33 H 0.26571 0.80858 0.11807 0.0
H34 H 0.33896 0.79375 0.04484 0.0
H35 H 0.30733 0.82702 0.03092 0.0
H36 H 0.17808 0.87953 0.93729 0.0
H37 H 0.17184 0.95399 0.9667 0.0
H38 H 0.18965 0.94419 0.02709 0.0
H39 H 0.1967 0.86998 0.99783 0.0
C40 C 0.72894 0.6473 0.68505 0.0
C41 C 0.70389 0.6353 0.67637 0.0
C42 C 0.70562 0.62183 0.73659 0.0
C43 C 0.6923 0.62275 0.70192 0.0
C44 C 0.73117 0.6332 0.74483 0.0
C45 C 0.74267 0.64587 0.71929 0.0
U46 U 0.73314 0.66524 0.59058 0.0
O47 O 0.73507 0.70098 0.56752 0.0
O48 O 0.76871 0.67565 0.56536 0.0
C49 C 0.75972 0.69759 0.55935 0.0
C50 C 0.74043 0.66205 0.65912 0.0
C51 C 0.77958 0.71702 0.5695 0.0
C52 C 0.80165 0.74592 0.61191 0.0
C53 C 0.78346 0.72674 0.60348 0.0
C54 C 0.81254 0.7455 0.55269 0.0
C55 C 0.81635 0.7556 0.58655 0.0
C56 C 0.79435 0.72644 0.5443 0.0
C57 C 0.68739 0.63064 0.51716 0.0
C58 C 0.68122 0.64027 0.45517 0.0
C59 C 0.65918 0.60523 0.47531 0.0
C60 C 0.67069 0.61045 0.50965 0.0
C61 C 0.66405 0.62015 0.4476 0.0
C62 C 0.69277 0.6455 0.48972 0.0
C63 C 0.69847 0.63581 0.55387 0.0
O64 O 0.75575 0.65069 0.63915 0.0
O65 O 0.72332 0.67715 0.64172 0.0
O66 O 0.69125 0.65636 0.56664 0.0
O67 O 0.72438 0.63069 0.56331 0.0
H68 H 0.69306 0.63603 0.64999 0.0
H69 H 0.67276 0.61394 0.69463 0.0
H70 H 0.74183 0.63305 0.77131 0.0
H71 H 0.76203 0.655 0.72646 0.0
H72 H 0.80428 0.75309 0.63831 0.0
H73 H 0.77228 0.71964 0.62335 0.0
H74 H 0.82315 0.75269 0.53235 0.0
H75 H 0.79154 0.71924 0.5179 0.0
H76 H 0.6853 0.6522 0.43452 0.0
H77 H 0.64657 0.58933 0.47046 0.0
H78 H 0.66643 0.59871 0.53047 0.0
H79 H 0.70567 0.66119 0.49507 0.0
C80 C 0.80688 0.17526 0.10549 0.0
C81 C 0.81941 0.15278 0.10433 0.0
C82 C 0.83306 0.1541 0.16762 0.0
C83 C 0.83236 0.14228 0.13512 0.0
C84 C 0.82058 0.17672 0.16843 0.0
C85 C 0.80763 0.18715 0.13768 0.0
U86 U 0.7895 0.17971 1.00565 0.0
O87 O 0.75036 0.18851 0.97359 0.0
O88 O 0.7861 0.21165 0.97229 0.0
C89 C 0.75973 0.20871 0.96253 0.0
C90 C 0.79296 0.18663 0.07356 0.0
C91 C 0.74261 0.23002 0.96569 0.0
C92 C 0.72802 0.26336 0.99951 0.0
C93 C 0.74435 0.24308 0.99712 0.0
C94 C 0.70788 0.25768 0.93915 0.0
C95 C 0.70951 0.27095 0.97055 0.0
C96 C 0.72427 0.23745 0.93679 0.0
C97 C 0.82087 0.13348 0.94787 0.0
C98 C 0.81328 0.13257 0.88426 0.0
C99 C 0.84441 0.10429 0.91593 0.0
C100 C 0.83903 0.11426 0.94756 0.0
C101 C 0.8317 0.11333 0.8838 0.0
C102 C 0.80792 0.14256 0.91604 0.0
C103 C 0.81626 0.14389 0.98171 0.0
O104 O 0.80895 0.19738 0.05402 0.0
O105 O 0.77345 0.17394 0.05529 0.0
O106 O 0.7914 0.14182 0.98979 0.0
O107 O 0.82709 0.16515 0.98919 0.0
H108 H 0.81905 0.14332 0.07966 0.0
H109 H 0.84147 0.12475 0.13351 0.0
H110 H 0.82107 0.18654 0.1928 0.0
H111 H 0.7982 0.20459 0.13906 0.0
H112 H 0.73013 0.27325 0.02397 0.0
H113 H 0.7584 0.23763 0.01976 0.0
H114 H 0.69362 0.26269 0.9165 0.0
H115 H 0.72255 0.22754 0.91234 0.0
H116 H 0.80291 0.13984 0.86007 0.0
H117 H 0.85903 0.08981 0.91669 0.0
H118 H 0.84931 0.10709 0.9719 0.0
H119 H 0.7938 0.15741 0.91578 0.0
C120 C 0.28539 0.38097 0.3997 0.0
C121 C 0.30064 0.40197 0.40828 0.0
C122 C 0.30806 0.40622 0.34746 0.0
C123 C 0.3118 0.41456 0.38232 0.0
C124 C 0.29239 0.38536 0.33907 0.0
C125 C 0.28118 0.37289 0.36494 0.0
U126 U 0.28085 0.36424 0.4951 0.0
O127 O 0.24476 0.3539 0.51945 0.0
O128 O 0.27869 0.32867 0.51849 0.0
C129 C 0.25369 0.33195 0.52557 0.0
C130 C 0.27424 0.36684 0.42651 0.0
C131 C 0.23392 0.3124 0.51514 0.0
C132 C 0.22 0.2762 0.48163 0.0
C133 C 0.2379 0.29565 0.48894 0.0
C134 C 0.19333 0.29042 0.52561 0.0
C135 C 0.19765 0.27323 0.50013 0.0
C136 C 0.21133 0.30973 0.53309 0.0
C137 C 0.32519 0.39717 0.57045 0.0
C138 C 0.31884 0.39642 0.63182 0.0
C139 C 0.36138 0.41098 0.61531 0.0
C140 C 0.35148 0.40657 0.58015 0.0
C141 C 0.34513 0.40619 0.64164 0.0
C142 C 0.30897 0.3919 0.59654 0.0
C143 C 0.31525 0.39317 0.53305 0.0
O144 O 0.29151 0.35211 0.44438 0.0
O145 O 0.25887 0.37851 0.4461 0.0
O146 O 0.28957 0.39869 0.52248 0.0
O147 O 0.32268 0.37287 0.51978 0.0
H148 H 0.30419 0.40842 0.43506 0.0
H149 H 0.32396 0.43043 0.38968 0.0
H150 H 0.2888 0.37863 0.31244 0.0
H151 H 0.2694 0.35676 0.35782 0.0
H152 H 0.22371 0.26341 0.46161 0.0
H153 H 0.25508 0.29734 0.4745 0.0
H154 H 0.17651 0.28852 0.54061 0.0
H155 H 0.20792 0.32236 0.55348 0.0
H156 H 0.30566 0.3927 0.6513 0.0
H157 H 0.38189 0.41806 0.62185 0.0
H158 H 0.36438 0.41057 0.56043 0.0
H159 H 0.28863 0.38451 0.58962 0.0
O160 O 0.97613 0.06742 0.59594 0.0
Mg161 Mg 0.0156 0.05606 0.59175 0.0
O162 O 0.96743 0.02997 0.58082 0.0
Mg163 Mg 1.00123 0.0171 0.54593 0.0
O164 O 0.02576 0.05365 0.54224 0.0
O165 O 0.03933 0.08338 0.58067 0.0
O166 O 0.03356 0.00275 0.51105 0.0
O167 O 0.97342 0.03533 0.49717 0.0
Mg168 Mg 0.9735 0.98881 0.49858 0.0
O169 O 0.97866 0.97903 0.55033 0.0
O170 O 0.00563 0.98613 0.46845 0.0
O171 O 0.94043 0.01023 0.47915 0.0
O172 O 0.96049 0.95546 0.5053 0.0
C173 C 0.03849 0.01119 0.62511 0.0
C174 C 0.96029 0.04961 0.59415 0.0
C175 C 0.03833 0.07402 0.54989 0.0
C176 C 0.02954 0.99241 0.48116 0.0
C177 C 0.9506 0.03087 0.47821 0.0
C178 C 0.96699 0.959 0.53841 0.0
O179 O 0.03457 0.03316 0.63091 0.0
O180 O 0.02971 1.00192 0.59527 0.0
O181 O 0.51985 0.50801 0.12348 0.0
Mg182 Mg 0.5078 0.48558 0.07895 0.0
O183 O 0.53033 0.5356 0.08768 0.0
Mg184 Mg 0.50138 0.51898 0.04046 0.0
O185 O 0.52931 0.48294 0.03754 0.0
O186 O 0.5344 0.45848 0.08387 0.0
O187 O 0.47235 0.50012 0.99331 0.0
O188 O 0.53255 0.53302 1.00349 0.0
Mg189 Mg 0.47296 0.55221 0.99014 0.0
O190 O 0.47749 0.55565 0.04332 0.0
O191 O 0.44461 0.52723 0.96717 0.0
O192 O 0.50832 0.55773 0.96716 0.0
O193 O 0.45582 0.58235 1.00575 0.0
C194 C 0.4563 0.48822 0.08154 0.0
C195 C 0.53099 0.5279 0.11872 0.0
C196 C 0.54051 0.46415 0.05367 0.0
C197 C 0.45178 0.50562 0.97086 0.0
C198 C 0.53073 0.54743 0.97762 0.0
C199 C 0.46379 0.57553 0.03736 0.0
O200 O 0.46883 0.46986 0.07353 0.0
O201 O 0.46695 0.50859 0.07691 0.0
H202 H 0.14182 0.27154 0.49413 0.0
H203 H 0.11251 0.23597 0.48973 0.0
H204 H 0.18321 0.19088 0.4888 0.0
H205 H 0.21259 0.22644 0.49275 0.0
H206 H 0.14087 0.17306 0.44509 0.0
H207 H 0.15585 0.20076 0.56406 0.0
H208 H 0.15646 0.23013 0.6122 0.0
H209 H 0.06975 0.23956 0.58691 0.0
H210 H 0.06869 0.21049 0.53826 0.0
H211 H 0.08888 0.06961 0.53008 0.0
H212 H 0.11379 0.10222 0.50583 0.0
H213 H 0.04007 0.14432 0.49086 0.0
H214 H 0.01526 0.11174 0.51468 0.0
H215 H 0.08275 0.16359 0.53889 0.0
H216 H 0.06806 0.13338 0.42146 0.0
H217 H 0.06865 0.10456 0.37287 0.0
H218 H 0.15581 0.09841 0.39724 0.0
H219 H 0.15574 0.12715 0.44609 0.0
C220 C 0.1511 0.25405 0.49281 0.0
C221 C 0.17956 0.25181 0.49414 0.0
C222 C 0.13433 0.23372 0.49025 0.0
C223 C 0.14569 0.21068 0.48955 0.0
C224 C 0.17396 0.20844 0.48932 0.0
C225 C 0.19073 0.2288 0.49157 0.0
C226 C 0.12835 0.18899 0.49127 0.0
C227 C 0.12835 0.17086 0.46578 0.0
C228 C 0.11169 0.18622 0.51798 0.0
C229 C 0.11224 0.20365 0.54729 0.0
C230 C 0.13694 0.20924 0.5686 0.0
C231 C 0.13737 0.22581 0.59599 0.0
C232 C 0.11317 0.23675 0.60254 0.0
C233 C 0.08849 0.2311 0.58176 0.0
C234 C 0.08796 0.21457 0.55428 0.0
C235 C 0.07775 0.0853 0.51974 0.0
C236 C 0.05013 0.08813 0.52369 0.0
C237 C 0.09199 0.10398 0.50609 0.0
C238 C 0.0788 0.12575 0.4967 0.0
C239 C 0.05062 0.12766 0.49782 0.0
C240 C 0.03641 0.10899 0.51117 0.0
C241 C 0.09503 0.14773 0.49254 0.0
C242 C 0.09504 0.16585 0.51795 0.0
C243 C 0.11185 0.15026 0.46604 0.0
C244 C 0.11186 0.13224 0.43766 0.0
C245 C 0.08732 0.12566 0.41674 0.0
C246 C 0.08758 0.10945 0.38902 0.0
C247 C 0.11226 0.09966 0.38199 0.0
C248 C 0.13672 0.10602 0.40271 0.0
C249 C 0.13658 0.12231 0.43036 0.0
H250 H 0.11244 0.08717 0.36045 0.0
H251 H 0.11354 0.24957 0.62377 0.0
H252 H 0.3073 0.73603 0.10653 0.0
H253 H 0.33681 0.70077 0.11247 0.0
H254 H 0.40551 0.74453 0.09466 0.0
H255 H 0.37606 0.77983 0.08853 0.0
H256 H 0.40232 0.7069 0.05386 0.0
H257 H 0.4006 0.71913 0.17572 0.0
H258 H 0.38001 0.7257 0.22957 0.0
H259 H 0.33824 0.6581 0.21422 0.0
H260 H 0.35827 0.65127 0.15998 0.0
H261 H 0.49352 0.61299 0.06651 0.0
H262 H 0.47423 0.64827 0.09206 0.0
H263 H 0.39823 0.61035 0.09295 0.0
H264 H 0.41765 0.57503 0.06757 0.0
H265 H 0.40893 0.64604 0.14772 0.0
H266 H 0.40579 0.63734 0.0221 0.0
H267 H 0.42657 0.6305 0.96843 0.0
H268 H 0.47773 0.69244 0.99193 0.0
H269 H 0.45754 0.6994 0.04611 0.0
C270 C 0.32881 0.73825 0.1046 0.0
C271 C 0.33926 0.76076 0.09686 0.0
C272 C 0.34571 0.71804 0.10806 0.0
C273 C 0.3735 0.71993 0.10425 0.0
C274 C 0.38415 0.74254 0.09762 0.0
C275 C 0.36725 0.76272 0.094 0.0
C276 C 0.39087 0.69811 0.10411 0.0
C277 C 0.40419 0.69392 0.07484 0.0
C278 C 0.39289 0.68076 0.131 0.0
C279 C 0.38077 0.68479 0.16359 0.0
C280 C 0.38684 0.70575 0.18366 0.0
C281 C 0.37531 0.70951 0.21429 0.0
C282 C 0.35778 0.69235 0.22527 0.0
C283 C 0.3518 0.67138 0.20567 0.0
C284 C 0.36327 0.66755 0.17499 0.0
C285 C 0.47328 0.61176 0.07411 0.0
C286 C 0.45714 0.59128 0.06558 0.0
C287 C 0.46216 0.63199 0.08839 0.0
C288 C 0.43463 0.63207 0.09384 0.0
C289 C 0.41951 0.61068 0.08904 0.0
C290 C 0.43066 0.59044 0.07473 0.0
C291 C 0.42029 0.65513 0.09767 0.0
C292 C 0.40737 0.65937 0.12725 0.0
C293 C 0.41856 0.67265 0.07112 0.0
C294 C 0.43041 0.66872 0.03832 0.0
C295 C 0.42162 0.64939 0.01594 0.0
C296 C 0.43327 0.64551 0.98543 0.0
C297 C 0.45352 0.66099 0.97683 0.0
C298 C 0.46209 0.68044 0.99867 0.0
C299 C 0.45055 0.68436 0.02928 0.0
H300 H 0.46252 0.65795 0.95319 0.0
H301 H 0.34887 0.69529 0.249 0.0
H302 H 0.86661 0.76282 0.56611 0.0
H303 H 0.89543 0.79847 0.57493 0.0
H304 H 0.83803 0.83128 0.63511 0.0
H305 H 0.80852 0.79585 0.62532 0.0
H306 H 0.8515 0.8617 0.58848 0.0
H307 H 0.90192 0.8131 0.67454 0.0
H308 H 0.92532 0.77688 0.69948 0.0
H309 H 0.98252 0.78143 0.62571 0.0
H310 H 0.95923 0.81748 0.59996 0.0
H311 H 0.94022 0.9624 0.59594 0.0
H312 H 0.9184 0.92887 0.62281 0.0
H313 H 0.95594 0.87887 0.55843 0.0
H314 H 0.97735 0.91205 0.53169 0.0
H315 H 0.95201 0.85998 0.62298 0.0
H316 H 0.89411 0.90183 0.52953 0.0
H317 H 0.87069 0.93769 0.50324 0.0
H318 H 0.82763 0.94528 0.59187 0.0
H319 H 0.85111 0.9096 0.61887 0.0
C320 C 0.86009 0.77758 0.58129 0.0
C321 C 0.83513 0.77647 0.59482 0.0
C322 C 0.8768 0.79788 0.58672 0.0
C323 C 0.86914 0.81754 0.60609 0.0
C324 C 0.84449 0.81632 0.62026 0.0
C325 C 0.82772 0.79597 0.61483 0.0
C326 C 0.8859 0.8399 0.60904 0.0
C327 C 0.87337 0.86141 0.59698 0.0
C328 C 0.91453 0.83962 0.61975 0.0
C329 C 0.92871 0.81796 0.6352 0.0
C330 C 0.91937 0.80629 0.66347 0.0
C331 C 0.93264 0.7858 0.67777 0.0
C332 C 0.95537 0.77684 0.66416 0.0
C333 C 0.96491 0.78839 0.63623 0.0
C334 C 0.95171 0.80888 0.62181 0.0
C335 C 0.94456 0.94417 0.58863 0.0
C336 C 0.96036 0.93971 0.56176 0.0
C337 C 0.93196 0.92506 0.60375 0.0
C338 C 0.93525 0.90135 0.59227 0.0
C339 C 0.95308 0.89693 0.56774 0.0
C340 C 0.9653 0.91592 0.55244 0.0
C341 C 0.91764 0.8814 0.60157 0.0
C342 C 0.93001 0.86034 0.61566 0.0
C343 C 0.88887 0.88203 0.59274 0.0
C344 C 0.87458 0.90328 0.57638 0.0
C345 C 0.87978 0.91125 0.54349 0.0
C346 C 0.86648 0.93152 0.52846 0.0
C347 C 0.84774 0.9438 0.54593 0.0
C348 C 0.8422 0.93578 0.57841 0.0
C349 C 0.85549 0.91554 0.59359 0.0
H350 H 0.83747 0.95949 0.53425 0.0
H351 H 0.96561 0.76097 0.67527 0.0
H352 H 0.69463 0.30562 0.92114 0.0
H353 H 0.66477 0.34012 0.9255 0.0
H354 H 0.655 0.31977 0.03056 0.0
H355 H 0.68381 0.2848 0.02591 0.0
H356 H 0.60729 0.33153 0.99545 0.0
H357 H 0.69825 0.36622 0.0111 0.0
H358 H 0.74317 0.3757 0.99366 0.0
H359 H 0.7039 0.41222 0.90285 0.0
H360 H 0.65871 0.40266 0.91951 0.0
H361 H 0.57299 0.43003 0.08696 0.0
H362 H 0.60001 0.40001 0.06197 0.0
H363 H 0.5791 0.43106 0.9599 0.0
H364 H 0.55129 0.46168 0.98501 0.0
H365 H 0.63753 0.41516 0.97998 0.0
H366 H 0.54648 0.38476 0.96955 0.0
H367 H 0.50217 0.37635 0.98943 0.0
H368 H 0.54206 0.33219 0.07169 0.0
H369 H 0.58669 0.34065 0.05266 0.0
C370 C 0.68594 0.30835 0.94509 0.0
C371 C 0.69176 0.29236 0.97322 0.0
C372 C 0.66906 0.32827 0.94765 0.0
C373 C 0.65778 0.33276 0.97849 0.0
C374 C 0.66347 0.31677 0.00649 0.0
C375 C 0.68023 0.29686 1.00392 0.0
C376 C 0.63978 0.35383 0.98188 0.0
C377 C 0.614 0.34978 0.99211 0.0
C378 C 0.64796 0.37772 0.97628 0.0
C379 C 0.67511 0.38343 0.96628 0.0
C380 C 0.69919 0.37607 0.98724 0.0
C381 C 0.7247 0.3815 0.97753 0.0
C382 C 0.72639 0.39447 0.94709 0.0
C383 C 0.70256 0.40211 0.92636 0.0
C384 C 0.677 0.3967 0.93592 0.0
C385 C 0.57412 0.43076 0.05918 0.0
C386 C 0.55957 0.44815 0.03791 0.0
C387 C 0.58968 0.4135 0.04496 0.0
C388 C 0.59122 0.41304 0.00905 0.0
C389 C 0.57802 0.43106 0.98772 0.0
C390 C 0.56218 0.44852 1.00207 0.0
C391 C 0.60562 0.39271 0.99461 0.0
C392 C 0.63064 0.39685 0.98243 0.0
C393 C 0.59682 0.36885 0.99842 0.0
C394 C 0.56997 0.36345 0.00975 0.0
C395 C 0.54584 0.37338 0.99203 0.0
C396 C 0.52065 0.36859 1.00313 0.0
C397 C 0.5193 0.35377 0.03183 0.0
C398 C 0.54314 0.34367 0.04945 0.0
C399 C 0.56838 0.34843 0.03848 0.0
H400 H 0.49979 0.35009 0.04039 0.0
H401 H 0.74616 0.39866 0.93963 0.0
H402 H 0.22607 0.93014 0.30293 0.0
H403 H 0.20281 0.9485 0.34837 0.0
H404 H 0.12579 0.94242 0.2809 0.0
H405 H 0.14881 0.924 0.23553 0.0
H406 H 0.12976 0.98495 0.31398 0.0
H407 H 0.1458 0.90181 0.34659 0.0
H408 H 0.17455 0.86631 0.36184 0.0
H409 H 0.21883 0.90457 0.44878 0.0
H410 H 0.19054 0.94042 0.43374 0.0
H411 H 0.0247 0.97616 0.41418 0.0
H412 H 0.06049 0.9677 0.37892 0.0
H413 H 0.12165 0.98879 0.46454 0.0
H414 H 0.08542 0.99746 0.50072 0.0
H415 H 0.13349 0.94501 0.42894 0.0
H416 H 0.10849 0.02522 0.40239 0.0
H417 H 0.07572 0.05801 0.38844 0.0
H418 H 0.04715 0.02522 0.28914 0.0
H419 H 0.07863 0.99138 0.30332 0.0
C420 C 0.20416 0.93266 0.29778 0.0
C421 C 0.18931 0.92546 0.26555 0.0
C422 C 0.1909 0.94323 0.32379 0.0
C423 C 0.16248 0.94665 0.31825 0.0
C424 C 0.14774 0.94007 0.28579 0.0
C425 C 0.16097 0.92957 0.25979 0.0
C426 C 0.14769 0.9563 0.3464 0.0
C427 C 0.13055 0.9762 0.33909 0.0
C428 C 0.14939 0.94541 0.37969 0.0
C429 C 0.16631 0.92386 0.38879 0.0
C430 C 0.16182 0.9027 0.36879 0.0
C431 C 0.178 0.88251 0.37742 0.0
C432 C 0.19857 0.88321 0.40619 0.0
C433 C 0.20293 0.90408 0.42646 0.0
C434 C 0.18683 0.92433 0.4179 0.0
C435 C 0.0457 0.97905 0.42581 0.0
C436 C 0.05212 0.98758 0.4604 0.0
C437 C 0.06619 0.97422 0.40544 0.0
C438 C 0.09371 0.97781 0.41893 0.0
C439 C 0.10047 0.98596 0.45362 0.0
C440 C 0.07979 0.991 0.47417 0.0
C441 C 0.1149 0.97309 0.39597 0.0
C442 C 0.13322 0.95414 0.4042 0.0
C443 C 0.11418 0.98479 0.36342 0.0
C444 C 0.09591 0.00561 0.35406 0.0
C445 C 0.09509 0.02485 0.37767 0.0
C446 C 0.0767 0.04364 0.36973 0.0
C447 C 0.05951 0.04383 0.3378 0.0
C448 C 0.06054 0.02509 0.31384 0.0
C449 C 0.07858 0.00601 0.3219 0.0
H450 H 0.04536 0.05847 0.33167 0.0
H451 H 0.21107 0.86756 0.41284 0.0
H452 H 0.65232 0.62571 0.7468 0.0
H453 H 0.63051 0.60949 0.79452 0.0
H454 H 0.70632 0.57638 0.83797 0.0
H455 H 0.72841 0.59248 0.78981 0.0
H456 H 0.65758 0.54658 0.83909 0.0
H457 H 0.69253 0.62357 0.87649 0.0
H458 H 0.70147 0.66673 0.87059 0.0
H459 H 0.61523 0.68069 0.85585 0.0
H460 H 0.60576 0.63756 0.86111 0.0
H461 H 0.58314 0.52838 0.98806 0.0
H462 H 0.62092 0.53779 0.95483 0.0
H463 H 0.56868 0.58696 0.89108 0.0
H464 H 0.53169 0.57818 0.9238 0.0
H465 H 0.61709 0.60683 0.91163 0.0
H466 H 0.58282 0.5292 0.86373 0.0
H467 H 0.5735 0.48606 0.86879 0.0
H468 H 0.65849 0.47328 0.904 0.0
H469 H 0.66827 0.51649 0.89955 0.0
C470 C 0.6643 0.61465 0.76611 0.0
C471 C 0.69213 0.61043 0.76449 0.0
C472 C 0.65184 0.6055 0.79351 0.0
C473 C 0.66685 0.59188 0.81993 0.0
C474 C 0.69439 0.58687 0.81787 0.0
C475 C 0.707 0.59622 0.79051 0.0
C476 C 0.65372 0.58418 0.85036 0.0
C477 C 0.64919 0.55969 0.8555 0.0
C478 C 0.64287 0.60127 0.87182 0.0
C479 C 0.64844 0.6273 0.86902 0.0
C480 C 0.67547 0.63582 0.87176 0.0
C481 C 0.68063 0.66028 0.86856 0.0
C482 C 0.65893 0.67644 0.86281 0.0
C483 C 0.63202 0.66816 0.86031 0.0
C484 C 0.62674 0.64371 0.86345 0.0
C485 C 0.57985 0.54127 0.96701 0.0
C486 C 0.55432 0.55254 0.95873 0.0
C487 C 0.60141 0.54654 0.948 0.0
C488 C 0.59766 0.56311 0.92042 0.0
C489 C 0.57223 0.57427 0.91237 0.0
C490 C 0.55093 0.56911 0.93115 0.0
C491 C 0.61961 0.56927 0.89922 0.0
C492 C 0.62598 0.59361 0.89587 0.0
C493 C 0.63206 0.55201 0.87952 0.0
C494 C 0.62621 0.52607 0.88174 0.0
C495 C 0.59948 0.51721 0.87278 0.0
C496 C 0.59412 0.49275 0.8755 0.0
C497 C 0.61536 0.47693 0.88684 0.0
C498 C 0.64205 0.48556 0.89531 0.0
C499 C 0.64752 0.51003 0.89269 0.0
H500 H 0.61114 0.458 0.88897 0.0
H501 H 0.66297 0.69537 0.86033 0.0
H502 H 0.81591 0.1543 0.23223 0.0
H503 H 0.83829 0.1364 0.28625 0.0
H504 H 0.90307 0.11041 0.23198 0.0
H505 H 0.88093 0.12849 0.17782 0.0
H506 H 0.88698 0.0763 0.27199 0.0
H507 H 0.91341 0.15822 0.28802 0.0
H508 H 0.90671 0.20195 0.29005 0.0
H509 H 0.8578 0.19371 0.37276 0.0
H510 H 0.86388 0.14988 0.37089 0.0
H511 H 0.97265 0.07237 0.45582 0.0
H512 H 0.9546 0.09622 0.40459 0.0
H513 H 0.88246 0.0517 0.38859 0.0
H514 H 0.9003 0.0278 0.4392 0.0
H515 H 0.90784 0.1225 0.38291 0.0
H516 H 0.86775 0.03843 0.30271 0.0
H517 H 0.87816 0.99529 0.29996 0.0
H518 H 0.96156 0.00927 0.34334 0.0
H519 H 0.95174 0.05251 0.34588 0.0
C520 C 0.83509 0.14504 0.2318 0.0
C521 C 0.84664 0.14296 0.20058 0.0
C522 C 0.84787 0.13477 0.26277 0.0
C523 C 0.87257 0.12228 0.26336 0.0
C524 C 0.88403 0.11996 0.23221 0.0
C525 C 0.87126 0.13023 0.2012 0.0
C526 C 0.88602 0.11112 0.29626 0.0
C527 C 0.89155 0.08646 0.29618 0.0
C528 C 0.89255 0.12438 0.32779 0.0
C529 C 0.88892 0.15074 0.3291 0.0
C530 C 0.90105 0.16571 0.30646 0.0
C531 C 0.89739 0.19053 0.30761 0.0
C532 C 0.88179 0.2006 0.33146 0.0
C533 C 0.86986 0.18588 0.35428 0.0
C534 C 0.87343 0.16105 0.35321 0.0
C535 C 0.95272 0.06796 0.44177 0.0
C536 C 0.93808 0.04799 0.45139 0.0
C537 C 0.94244 0.08159 0.41247 0.0
C538 C 0.91743 0.07543 0.39234 0.0
C539 C 0.90204 0.0565 0.40331 0.0
C540 C 0.91226 0.04289 0.43238 0.0
C541 C 0.908 0.08765 0.3587 0.0
C542 C 0.90328 0.11243 0.35865 0.0
C543 C 0.90268 0.07462 0.32684 0.0
C544 C 0.90892 0.04868 0.32475 0.0
C545 C 0.88833 0.03231 0.31149 0.0
C546 C 0.89413 0.00784 0.31 0.0
C547 C 0.92048 0.99954 0.32156 0.0
C548 C 0.94113 0.01571 0.3345 0.0
C549 C 0.93545 0.0402 0.336 0.0
H550 H 0.92491 0.98059 0.32043 0.0
H551 H 0.87898 0.21982 0.33232 0.0
H552 H 0.33848 0.38018 0.70025 0.0
H553 H 0.35574 0.38988 0.76136 0.0
H554 H 0.39267 0.45444 0.72863 0.0
H555 H 0.37522 0.44515 0.66783 0.0
H556 H 0.42752 0.43115 0.77677 0.0
H557 H 0.3331 0.45631 0.7624 0.0
H558 H 0.28326 0.45069 0.74826 0.0
H559 H 0.28527 0.39743 0.82825 0.0
H560 H 0.33522 0.40254 0.84256 0.0
H561 H 0.40345 0.51101 0.92867 0.0
H562 H 0.38479 0.48613 0.87929 0.0
H563 H 0.44886 0.43437 0.9065 0.0
H564 H 0.46843 0.45992 0.95586 0.0
H565 H 0.36466 0.44384 0.86468 0.0
H566 H 0.46717 0.41176 0.83067 0.0
H567 H 0.51629 0.4217 0.84318 0.0
H568 H 0.49672 0.49586 0.85639 0.0
H569 H 0.44751 0.48636 0.84359 0.0
C570 C 0.35009 0.39654 0.70607 0.0
C571 C 0.3555 0.41183 0.67899 0.0
C572 C 0.36005 0.402 0.74103 0.0
C573 C 0.37554 0.42289 0.74961 0.0
C574 C 0.38102 0.43809 0.72265 0.0
C575 C 0.37106 0.4327 0.68782 0.0
C576 C 0.38572 0.42939 0.78658 0.0
C577 C 0.41379 0.43366 0.79609 0.0
C578 C 0.36789 0.43271 0.81188 0.0
C579 C 0.33792 0.42957 0.80323 0.0
C580 C 0.32294 0.44325 0.77675 0.0
C581 C 0.29467 0.44019 0.76875 0.0
C582 C 0.28112 0.42365 0.78726 0.0
C583 C 0.2958 0.41019 0.81388 0.0
C584 C 0.32409 0.41316 0.82195 0.0
C585 C 0.41346 0.49417 0.9246 0.0
C586 C 0.43778 0.48769 0.9459 0.0
C587 C 0.4026 0.47983 0.89634 0.0
C588 C 0.41565 0.45856 0.88861 0.0
C589 C 0.43869 0.45096 0.91151 0.0
C590 C 0.44976 0.46548 0.93988 0.0
C591 C 0.40642 0.44612 0.85469 0.0
C592 C 0.37851 0.4407 0.84567 0.0
C593 C 0.42429 0.44223 0.82956 0.0
C594 C 0.45374 0.44829 0.83659 0.0
C595 C 0.47339 0.43018 0.83615 0.0
C596 C 0.50121 0.43573 0.8433 0.0
C597 C 0.50959 0.45937 0.8507 0.0
C598 C 0.49018 0.47754 0.85076 0.0
C599 C 0.46233 0.47209 0.84357 0.0
H600 H 0.53113 0.46359 0.8563 0.0
H601 H 0.25923 0.42132 0.78104 0.0
H602 H 0.61187 0.60453 0.42618 0.0
H603 H 0.59155 0.59199 0.36763 0.0
H604 H 0.66579 0.61091 0.32748 0.0
H605 H 0.68658 0.62324 0.38642 0.0
H606 H 0.61713 0.62425 0.28275 0.0
H607 H 0.65599 0.55447 0.34293 0.0
H608 H 0.66383 0.52637 0.39228 0.0
H609 H 0.578 0.51041 0.38076 0.0
H610 H 0.56959 0.53869 0.33166 0.0
H611 H 0.57564 0.55782 0.12286 0.0
H612 H 0.60051 0.57629 0.17593 0.0
H613 H 0.54096 0.54754 0.2364 0.0
H614 H 0.51723 0.52812 0.18411 0.0
H615 H 0.58744 0.53933 0.26938 0.0
H616 H 0.54696 0.61014 0.21274 0.0
H617 H 0.53737 0.63897 0.16451 0.0
H618 H 0.62314 0.65385 0.1699 0.0
H619 H 0.63327 0.62485 0.21787 0.0
C620 C 0.62399 0.60598 0.405 0.0
C621 C 0.65105 0.61455 0.41119 0.0
C622 C 0.61226 0.59893 0.37146 0.0
C623 C 0.62727 0.60022 0.34326 0.0
C624 C 0.65385 0.60976 0.34889 0.0
C625 C 0.66568 0.61682 0.38259 0.0
C626 C 0.6155 0.59033 0.30851 0.0
C627 C 0.61094 0.60562 0.27958 0.0
C628 C 0.60707 0.5661 0.30456 0.0
C629 C 0.61215 0.54883 0.33378 0.0
C630 C 0.63877 0.54508 0.35107 0.0
C631 C 0.64332 0.52911 0.37897 0.0
C632 C 0.62142 0.51665 0.38969 0.0
C633 C 0.59494 0.52008 0.37245 0.0
C634 C 0.59028 0.53606 0.34455 0.0
C635 C 0.56781 0.55571 0.14749 0.0
C636 C 0.5446 0.54146 0.14942 0.0
C637 C 0.58195 0.56634 0.17783 0.0
C638 C 0.57262 0.56348 0.2104 0.0
C639 C 0.54883 0.54991 0.21184 0.0
C640 C 0.53517 0.53887 0.18185 0.0
C641 C 0.58803 0.5734 0.24348 0.0
C642 C 0.59356 0.558 0.27223 0.0
C643 C 0.59698 0.59757 0.24724 0.0
C644 C 0.59089 0.61515 0.21863 0.0
C645 C 0.56379 0.61945 0.20348 0.0
C646 C 0.55825 0.63583 0.17621 0.0
C647 C 0.57964 0.64819 0.16408 0.0
C648 C 0.6066 0.64424 0.17928 0.0
C649 C 0.61225 0.62784 0.20652 0.0
H650 H 0.57532 0.66086 0.14296 0.0
H651 H 0.62499 0.50429 0.41131 0.0
H652 H 0.83918 0.13737 0.82413 0.0
H653 H 0.85268 0.1209 0.77039 0.0
H654 H 0.85347 0.04978 0.81342 0.0
H655 H 0.83967 0.0661 0.86724 0.0
H656 H 0.89883 0.05771 0.78506 0.0
H657 H 0.80361 0.06617 0.74752 0.0
H658 H 0.75891 0.0864 0.73855 0.0
H659 H 0.79053 0.13882 0.6738 0.0
H660 H 0.83556 0.1191 0.68278 0.0
H661 H 0.93589 0.01324 0.62611 0.0
H662 H 0.90499 0.01805 0.67025 0.0
H663 H 0.90106 0.09407 0.65083 0.0
H664 H 0.93165 0.08938 0.60691 0.0
H665 H 0.85224 0.0768 0.66624 0.0
H666 H 0.94887 0.07177 0.71261 0.0
H667 H 0.99357 0.05144 0.72078 0.0
H668 H 0.95846 0.99202 0.76892 0.0
H669 H 0.91342 0.01185 0.76049 0.0
C670 C 0.8417 0.11817 0.82199 0.0
C671 C 0.83832 0.10311 0.85014 0.0
C672 C 0.84947 0.10875 0.79119 0.0
C673 C 0.85388 0.08403 0.78765 0.0
C674 C 0.85023 0.0689 0.81551 0.0
C675 C 0.84244 0.0783 0.84634 0.0
C676 C 0.86363 0.07428 0.75556 0.0
C677 C 0.88827 0.06143 0.75911 0.0
C678 C 0.8501 0.0793 0.72159 0.0
C679 C 0.82304 0.09123 0.71604 0.0
C680 C 0.8011 0.08211 0.73158 0.0
C681 C 0.77569 0.09348 0.72646 0.0
C682 C 0.7719 0.11391 0.70567 0.0
C683 C 0.7935 0.12299 0.68991 0.0
C684 C 0.81897 0.11171 0.69497 0.0
C685 C 0.92766 0.03082 0.63043 0.0
C686 C 0.9364 0.05098 0.61333 0.0
C687 C 0.91018 0.03358 0.65583 0.0
C688 C 0.90113 0.0565 0.66431 0.0
C689 C 0.90784 0.07624 0.64488 0.0
C690 C 0.9254 0.07353 0.6198 0.0
C691 C 0.88759 0.06071 0.69587 0.0
C692 C 0.86237 0.07263 0.69224 0.0
C693 C 0.90055 0.05482 0.72979 0.0
C694 C 0.92773 0.04315 0.73556 0.0
C695 C 0.95066 0.05431 0.72476 0.0
C696 C 0.97605 0.04288 0.72943 0.0
C697 C 0.97884 0.02042 0.74526 0.0
C698 C 0.95626 0.00939 0.75659 0.0
C699 C 0.93079 0.02071 0.75187 0.0
H700 H 0.99851 0.01159 0.74881 0.0
H701 H 0.7522 0.12268 0.70174 0.0
H702 H 0.31148 0.45462 0.33544 0.0
H703 H 0.33356 0.4744 0.2901 0.0
H704 H 0.3562 0.40539 0.2523 0.0
H705 H 0.33471 0.38566 0.29763 0.0
H706 H 0.39868 0.4365 0.2593 0.0
H707 H 0.3031 0.43683 0.20956 0.0
H708 H 0.25438 0.44676 0.20835 0.0
H709 H 0.27419 0.52178 0.21427 0.0
H710 H 0.32311 0.51226 0.216 0.0
H711 H 0.42841 0.44739 0.09154 0.0
H712 H 0.39943 0.44014 0.13646 0.0
H713 H 0.40411 0.5149 0.16554 0.0
H714 H 0.43364 0.52242 0.1205 0.0
H715 H 0.3491 0.48789 0.16709 0.0
H716 H 0.44451 0.48762 0.21308 0.0
H717 H 0.49289 0.4774 0.21199 0.0
H718 H 0.47318 0.40246 0.2132 0.0
H719 H 0.42455 0.41225 0.21361 0.0
C720 C 0.32128 0.44371 0.31753 0.0
C721 C 0.32122 0.41855 0.32005 0.0
C722 C 0.33369 0.45502 0.29148 0.0
C723 C 0.34638 0.44137 0.26763 0.0
C724 C 0.3465 0.4163 0.27034 0.0
C725 C 0.33402 0.40503 0.29614 0.0
C726 C 0.3601 0.45288 0.24011 0.0
C727 C 0.38776 0.4477 0.23918 0.0
C728 C 0.34615 0.46811 0.21435 0.0
C729 C 0.31678 0.47382 0.21337 0.0
C730 C 0.29709 0.45543 0.21095 0.0
C731 C 0.26944 0.46099 0.21009 0.0
C732 C 0.2612 0.48488 0.21136 0.0
C733 C 0.2806 0.50327 0.21338 0.0
C734 C 0.30829 0.49781 0.21428 0.0
C735 C 0.42282 0.46248 0.10685 0.0
C736 C 0.4337 0.48543 0.10276 0.0
C737 C 0.40619 0.45828 0.1325 0.0
C738 C 0.39993 0.47692 0.15455 0.0
C739 C 0.40875 0.50029 0.14872 0.0
C740 C 0.42561 0.50454 0.12299 0.0
C741 C 0.38732 0.47095 0.18607 0.0
C742 C 0.36003 0.4771 0.18771 0.0
C743 C 0.40157 0.45668 0.2127 0.0
C744 C 0.43086 0.45068 0.21307 0.0
C745 C 0.45046 0.46896 0.21282 0.0
C746 C 0.47793 0.46325 0.21236 0.0
C747 C 0.4861 0.43929 0.21246 0.0
C748 C 0.46681 0.42101 0.2131 0.0
C749 C 0.4393 0.42663 0.21347 0.0
H750 H 0.50738 0.43489 0.2121 0.0
H751 H 0.23978 0.48915 0.21067 0.0
H752 H 0.13028 0.94773 0.92784 0.0
H753 H 0.10873 0.95764 0.86915 0.0
H754 H 0.16357 0.90982 0.82518 0.0
H755 H 0.18607 0.9004 0.88424 0.0
H756 H 0.15765 0.95096 0.78883 0.0
H757 H 0.09736 0.89359 0.82629 0.0
H758 H 0.06898 0.87447 0.866 0.0
H759 H 0.01825 0.93703 0.86245 0.0
H760 H 0.04657 0.95669 0.82314 0.0
H761 H 0.07031 0.97069 0.62264 0.0
H762 H 0.09429 0.94862 0.67296 0.0
H763 H 0.06023 0.99652 0.74352 0.0
H764 H 0.03697 0.01868 0.69403 0.0
H765 H 0.05665 0.94725 0.76046 0.0
H766 H 0.12232 0.00591 0.72994 0.0
H767 H 0.15099 0.02452 0.69011 0.0
H768 H 0.19137 0.95735 0.67936 0.0
H769 H 0.16262 0.93826 0.71879 0.0
C770 C 0.13805 0.93947 0.90578 0.0
C771 C 0.16003 0.92329 0.91091 0.0
C772 C 0.12544 0.94495 0.87213 0.0
C773 C 0.13419 0.9342 0.84264 0.0
C774 C 0.15632 0.91823 0.84751 0.0
C775 C 0.16903 0.91273 0.88131 0.0
C776 C 0.12022 0.94007 0.80697 0.0
C777 C 0.13562 0.94962 0.78235 0.0
C778 C 0.09144 0.93844 0.79837 0.0
C779 C 0.07422 0.92667 0.82191 0.0
C780 C 0.08027 0.90334 0.83416 0.0
C781 C 0.06417 0.8924 0.85658 0.0
C782 C 0.04185 0.90454 0.86678 0.0
C783 C 0.03555 0.92764 0.85453 0.0
C784 C 0.0516 0.93869 0.83214 0.0
C785 C 0.06791 0.97636 0.64892 0.0
C786 C 0.05198 0.99653 0.6544 0.0
C787 C 0.08164 0.96382 0.67758 0.0
C788 C 0.0791 0.97101 0.71198 0.0
C789 C 0.06251 0.99066 0.71727 0.0
C790 C 0.04933 0.00338 0.68889 0.0
C791 C 0.094 0.95875 0.74296 0.0
C792 C 0.07874 0.94803 0.7667 0.0
C793 C 0.12285 0.95913 0.75057 0.0
C794 C 0.14007 0.97059 0.72689 0.0
C795 C 0.13711 0.99505 0.71879 0.0
C796 C 0.15342 0.0057 0.69636 0.0
C797 C 0.17292 0.9921 0.6821 0.0
C798 C 0.17621 0.96785 0.69035 0.0
C799 C 0.15992 0.95711 0.71273 0.0
H800 H 0.18554 1.00038 0.66476 0.0
H801 H 0.02942 0.89604 0.88414 0.0
loop_
_geom_bond_atom_site_label_1
_geom_bond_atom_site_label_2
_geom_bond_distance
_geom_bond_site_symmetry_2
_ccdc_geom_bond_type
C0 C1 1.264 . S
C0 C5 1.479 . S
C0 C10 1.465 . S
C1 C0 1.264 . S
C1 C3 1.339 . S
C1 H28 0.931 . S
C2 C3 1.395 . S
C2 C4 1.320 . S
C3 C1 1.339 . S
C3 C2 1.395 . S
C3 H29 0.929 . S
C4 C2 1.320 . S
C4 C5 1.405 . S
C4 H30 0.930 . S
C5 C0 1.479 . S
C5 C4 1.405 . S
C5 H31 0.931 . S
U6 O7 2.454 . S
U6 O8 2.458 . S
U6 C9 2.984 . S
U6 C10 2.847 . S
U6 C23 2.882 . S
U6 O24 2.441 . S
U6 O25 2.420 . S
U6 O26 2.455 . S
U6 O27 2.449 . S
O7 U6 2.454 . S
O7 C9 1.353 . S
O8 U6 2.458 . S
O8 C9 1.286 . S
C9 U6 2.984 . S
C9 O7 1.353 . S
C9 O8 1.286 . S
C9 C11 1.363 . S
C10 C0 1.465 . S
C10 U6 2.847 . S
C10 O24 1.249 . S
C10 O25 1.202 . S
C11 C9 1.363 . S
C11 C13 1.408 . S
C11 C16 1.342 . S
C12 C13 1.310 . S
C12 C15 1.461 . S
C12 H32 0.932 . S
C13 C11 1.408 . S
C13 C12 1.310 . S
C13 H33 0.930 . S
C14 C15 1.474 . S
C14 C16 1.285 . S
C14 H34 0.929 . S
C15 C12 1.461 . S
C15 C14 1.474 . S
C16 C11 1.342 . S
C16 C14 1.285 . S
C16 H35 0.930 . S
C17 C20 1.424 . S
C17 C22 1.245 . S
C17 C23 1.428 1_556 S
C18 C21 1.260 . S
C18 C22 1.477 . S
C18 H36 0.932 . S
C19 C20 1.384 . S
C19 C21 1.479 . S
C19 H37 0.929 . S
C20 C17 1.424 . S
C20 C19 1.384 . S
C20 H38 0.928 1_556 S
C21 C18 1.260 . S
C21 C19 1.479 . S
C22 C17 1.245 . S
C22 C18 1.477 . S
C22 H39 0.932 . S
C23 U6 2.882 . S
C23 C17 1.428 1_554 S
C23 O26 1.301 . S
C23 O27 1.282 . S
O24 U6 2.441 . S
O24 C10 1.249 . S
O25 U6 2.420 . S
O25 C10 1.202 . S
O26 U6 2.455 . S
O26 C23 1.301 . S
O27 U6 2.449 . S
O27 C23 1.282 . S
H28 C1 0.931 . S
H29 C3 0.929 . S
H30 C4 0.930 . S
H31 C5 0.931 . S
H32 C12 0.932 . S
H33 C13 0.930 . S
H34 C14 0.929 . S
H35 C16 0.930 . S
H36 C18 0.932 . S
H37 C19 0.929 . S
H38 C20 0.928 1_554 S
H39 C22 0.932 . S
C40 C41 1.264 . S
C40 C45 1.479 . S
C40 C50 1.465 . S
C41 C40 1.264 . S
C41 C43 1.339 . S
C41 H68 0.931 . S
C42 C43 1.395 . S
C42 C44 1.320 . S
C43 C41 1.339 . S
C43 C42 1.395 . S
C43 H69 0.929 . S
C44 C42 1.320 . S
C44 C45 1.405 . S
C44 H70 0.930 . S
C45 C40 1.479 . S
C45 C44 1.405 . S
C45 H71 0.931 . S
U46 O47 2.454 . S
U46 O48 2.458 . S
U46 C49 2.984 . S
U46 C50 2.847 . S
U46 C63 2.882 . S
U46 O64 2.441 . S
U46 O65 2.420 . S
U46 O66 2.455 . S
U46 O67 2.449 . S
O47 U46 2.454 . S
O47 C49 1.353 . S
O48 U46 2.458 . S
O48 C49 1.286 . S
C49 U46 2.984 . S
C49 O47 1.353 . S
C49 O48 1.286 . S
C49 C51 1.363 . S
C50 C40 1.465 . S
C50 U46 2.847 . S
C50 O64 1.249 . S
C50 O65 1.202 . S
C51 C49 1.363 . S
C51 C53 1.408 . S
C51 C56 1.342 . S
C52 C53 1.310 . S
C52 C55 1.461 . S
C52 H72 0.932 . S
C53 C51 1.408 . S
C53 C52 1.310 . S
C53 H73 0.930 . S
C54 C55 1.474 . S
C54 C56 1.285 . S
C54 H74 0.929 . S
C55 C52 1.461 . S
C55 C54 1.474 . S
C56 C51 1.342 . S
C56 C54 1.285 . S
C56 H75 0.930 . S
C57 C60 1.424 . S
C57 C62 1.245 . S
C57 C63 1.428 . S
C58 C61 1.260 . S
C58 C62 1.477 . S
C58 H76 0.932 . S
C59 C60 1.384 . S
C59 C61 1.479 . S
C59 H77 0.929 . S
C60 C57 1.424 . S
C60 C59 1.384 . S
C60 H78 0.928 . S
C61 C58 1.260 . S
C61 C59 1.479 . S
C62 C57 1.245 . S
C62 C58 1.477 . S
C62 H79 0.932 . S
C63 U46 2.882 . S
C63 C57 1.428 . S
C63 O66 1.301 . S
C63 O67 1.282 . S
O64 U46 2.441 . S
O64 C50 1.249 . S
O65 U46 2.420 . S
O65 C50 1.202 . S
O66 U46 2.455 . S
O66 C63 1.301 . S
O67 U46 2.449 . S
O67 C63 1.282 . S
H68 C41 0.931 . S
H69 C43 0.929 . S
H70 C44 0.930 . S
H71 C45 0.931 . S
H72 C52 0.932 . S
H73 C53 0.930 . S
H74 C54 0.929 . S
H75 C56 0.930 . S
H76 C58 0.932 . S
H77 C59 0.929 . S
H78 C60 0.928 . S
H79 C62 0.932 . S
C80 C81 1.264 . S
C80 C85 1.479 . S
C80 C90 1.465 . S
C81 C80 1.264 . S
C81 C83 1.339 . S
C81 H108 0.931 . S
C82 C83 1.395 . S
C82 C84 1.320 . S
C83 C81 1.339 . S
C83 C82 1.395 . S
C83 H109 0.929 . S
C84 C82 1.320 . S
C84 C85 1.405 . S
C84 H110 0.930 . S
C85 C80 1.479 . S
C85 C84 1.405 . S
C85 H111 0.931 . S
U86 O87 2.454 . S
U86 O88 2.458 1_554 S
U86 C89 2.984 1_554 S
U86 C90 2.847 . S
U86 C103 2.882 1_554 S
U86 O104 2.441 . S
U86 O105 2.420 . S
U86 O106 2.455 1_554 S
U86 O107 2.449 1_554 S
O87 U86 2.454 . S
O87 C89 1.353 1_554 S
O88 U86 2.458 1_556 S
O88 C89 1.286 . S
C89 U86 2.984 1_556 S
C89 O87 1.353 1_556 S
C89 O88 1.286 . S
C89 C91 1.363 . S
C90 C80 1.465 . S
C90 U86 2.847 . S
C90 O104 1.249 . S
C90 O105 1.202 . S
C91 C89 1.363 . S
C91 C93 1.408 1_556 S
C91 C96 1.342 . S
C92 C93 1.310 . S
C92 C95 1.461 1_554 S
C92 H112 0.932 . S
C93 C91 1.408 1_554 S
C93 C92 1.310 . S
C93 H113 0.930 . S
C94 C95 1.474 . S
C94 C96 1.285 . S
C94 H114 0.929 . S
C95 C92 1.461 1_556 S
C95 C94 1.474 . S
C96 C91 1.342 . S
C96 C94 1.285 . S
C96 H115 0.930 . S
C97 C100 1.424 . S
C97 C102 1.245 . S
C97 C103 1.428 . S
C98 C101 1.260 . S
C98 C102 1.477 . S
C98 H116 0.932 . S
C99 C100 1.384 . S
C99 C101 1.479 . S
C99 H117 0.929 . S
C100 C97 1.424 . S
C100 C99 1.384 . S
C100 H118 0.928 . S
C101 C98 1.260 . S
C101 C99 1.479 . S
C102 C97 1.245 . S
C102 C98 1.477 . S
C102 H119 0.932 . S
C103 U86 2.882 1_556 S
C103 C97 1.428 . S
C103 O106 1.301 . S
C103 O107 1.282 . S
O104 U86 2.441 . S
O104 C90 1.249 . S
O105 U86 2.420 . S
O105 C90 1.202 . S
O106 U86 2.455 1_556 S
O106 C103 1.301 . S
O107 U86 2.449 1_556 S
O107 C103 1.282 . S
H108 C81 0.931 . S
H109 C83 0.929 . S
H110 C84 0.930 . S
H111 C85 0.931 . S
H112 C92 0.932 . S
H113 C93 0.930 . S
H114 C94 0.929 . S
H115 C96 0.930 . S
H116 C98 0.932 . S
H117 C99 0.929 . S
H118 C100 0.928 . S
H119 C102 0.932 . S
C120 C121 1.264 . S
C120 C125 1.479 . S
C120 C130 1.465 . S
C121 C120 1.264 . S
C121 C123 1.339 . S
C121 H148 0.931 . S
C122 C123 1.395 . S
C122 C124 1.320 . S
C123 C121 1.339 . S
C123 C122 1.395 . S
C123 H149 0.929 . S
C124 C122 1.320 . S
C124 C125 1.405 . S
C124 H150 0.930 . S
C125 C120 1.479 . S
C125 C124 1.405 . S
C125 H151 0.931 . S
U126 O127 2.454 . S
U126 O128 2.458 . S
U126 C129 2.984 . S
U126 C130 2.847 . S
U126 C143 2.882 . S
U126 O144 2.441 . S
U126 O145 2.420 . S
U126 O146 2.455 . S
U126 O147 2.449 . S
O127 U126 2.454 . S
O127 C129 1.353 . S
O128 U126 2.458 . S
O128 C129 1.286 . S
C129 U126 2.984 . S
C129 O127 1.353 . S
C129 O128 1.286 . S
C129 C131 1.363 . S
C130 C120 1.465 . S
C130 U126 2.847 . S
C130 O144 1.249 . S
C130 O145 1.202 . S
C131 C129 1.363 . S
C131 C133 1.408 . S
C131 C136 1.342 . S
C132 C133 1.310 . S
C132 C135 1.461 . S
C132 H152 0.932 . S
C133 C131 1.408 . S
C133 C132 1.310 . S
C133 H153 0.930 . S
C134 C135 1.474 . S
C134 C136 1.285 . S
C134 H154 0.929 . S
C135 C132 1.461 . S
C135 C134 1.474 . S
C136 C131 1.342 . S
C136 C134 1.285 . S
C136 H155 0.930 . S
C137 C140 1.424 . S
C137 C142 1.245 . S
C137 C143 1.428 . S
C138 C141 1.260 . S
C138 C142 1.477 . S
C138 H156 0.932 . S
C139 C140 1.384 . S
C139 C141 1.479 . S
C139 H157 0.929 . S
C140 C137 1.424 . S
C140 C139 1.384 . S
C140 H158 0.928 . S
C141 C138 1.260 . S
C141 C139 1.479 . S
C142 C137 1.245 . S
C142 C138 1.477 . S
C142 H159 0.932 . S
C143 U126 2.882 . S
C143 C137 1.428 . S
C143 O146 1.301 . S
C143 O147 1.282 . S
O144 U126 2.441 . S
O144 C130 1.249 . S
O145 U126 2.420 . S
O145 C130 1.202 . S
O146 U126 2.455 . S
O146 C143 1.301 . S
O147 U126 2.449 . S
O147 C143 1.282 . S
H148 C121 0.931 . S
H149 C123 0.929 . S
H150 C124 0.930 . S
H151 C125 0.931 . S
H152 C132 0.932 . S
H153 C133 0.930 . S
H154 C134 0.929 . S
H155 C136 0.930 . S
H156 C138 0.932 . S
H157 C139 0.929 . S
H158 C140 0.928 . S
H159 C142 0.932 . S
O160 Mg161 1.990 1_655 S
O160 C174 1.253 . S
Mg161 O160 1.990 1_455 S
Mg161 O164 2.180 . S
Mg161 O165 2.117 . S
Mg161 O179 2.030 . S
O162 Mg163 2.072 1_655 S
O162 C174 1.260 . S
Mg163 O162 2.072 1_455 S
Mg163 O164 2.099 . S
Mg163 O166 2.071 1_545 S
Mg163 O167 2.072 1_455 S
Mg163 O169 2.099 1_445 S
Mg163 O180 2.079 1_545 S
O164 Mg161 2.180 . S
O164 Mg163 2.099 . S
O164 C175 1.279 . S
O165 Mg161 2.117 . S
O165 C175 1.250 . S
O166 Mg163 2.071 1_565 S
O166 C176 1.272 . S
O167 Mg163 2.072 1_655 S
O167 C177 1.260 . S
Mg168 O169 2.180 . S
Mg168 O170 2.030 1_655 S
Mg168 O171 1.990 1_565 S
Mg168 O172 2.117 . S
O169 Mg163 2.099 1_665 S
O169 Mg168 2.180 . S
O169 C178 1.279 . S
O170 Mg168 2.030 1_455 S
O170 C176 1.248 . S
O171 Mg168 1.990 1_545 S
O171 C177 1.253 . S
O172 Mg168 2.117 . S
O172 C178 1.250 . S
C173 O179 1.253 . S
C173 O180 1.263 1_545 S
C174 O160 1.253 . S
C174 O162 1.260 . S
C175 O164 1.279 . S
C175 O165 1.250 . S
C176 O166 1.272 . S
C176 O170 1.248 . S
C177 O167 1.260 . S
C177 O171 1.253 . S
C178 O169 1.279 . S
C178 O172 1.250 . S
O179 Mg161 2.030 . S
O179 C173 1.253 . S
O180 Mg163 2.079 1_565 S
O180 C173 1.263 1_565 S
O181 Mg182 1.990 . S
O181 C195 1.253 . S
Mg182 O181 1.990 . S
Mg182 O185 2.180 . S
Mg182 O186 2.117 . S
Mg182 O200 2.030 . S
O183 Mg184 2.072 . S
O183 C195 1.260 . S
Mg184 O183 2.072 . S
Mg184 O185 2.099 . S
Mg184 O187 2.079 1_554 S
Mg184 O188 2.072 . S
Mg184 O190 2.099 . S
Mg184 O201 2.079 . S
O185 Mg182 2.180 . S
O185 Mg184 2.099 . S
O185 C196 1.279 . S
O186 Mg182 2.117 . S
O186 C196 1.250 . S
O187 Mg184 2.079 1_556 S
O187 C197 1.264 . S
O188 Mg184 2.072 . S
O188 C198 1.260 1_554 S
Mg189 O190 2.180 1_556 S
Mg189 O191 2.030 . S
Mg189 O192 1.990 . S
Mg189 O193 2.117 1_556 S
O190 Mg184 2.099 . S
O190 Mg189 2.180 1_554 S
O190 C199 1.279 . S
O191 Mg189 2.030 . S
O191 C197 1.248 . S
O192 Mg189 1.990 . S
O192 C198 1.253 . S
O193 Mg189 2.117 1_554 S
O193 C199 1.250 . S
C194 O200 1.248 . S
C194 O201 1.264 . S
C195 O181 1.253 . S
C195 O183 1.260 . S
C196 O185 1.279 . S
C196 O186 1.250 . S
C197 O187 1.264 . S
C197 O191 1.248 . S
C198 O188 1.260 1_556 S
C198 O192 1.253 . S
C199 O190 1.279 . S
C199 O193 1.250 . S
O200 Mg182 2.030 . S
O200 C194 1.248 . S
O201 Mg184 2.079 . S
O201 C194 1.264 . S
H202 C220 0.951 . S
H203 C222 0.951 . S
H204 C224 0.950 . S
H205 C225 0.950 . S
H206 C227 0.950 . S
H207 C230 0.950 . S
H208 C231 0.950 . S
H209 C233 0.950 . S
H210 C234 0.950 . S
H211 C235 0.951 . S
H212 C237 0.951 . S
H213 C239 0.950 . S
H214 C240 0.950 . S
H215 C242 0.950 . S
H216 C245 0.950 . S
H217 C246 0.950 . S
H218 C248 0.950 . S
H219 C249 0.950 . S
C220 H202 0.951 . S
C220 C221 1.366 . S
C220 C222 1.388 . S
C221 C220 1.366 . S
C221 C225 1.385 . S
C222 H203 0.951 . S
C222 C220 1.388 . S
C222 C223 1.366 . S
C223 C222 1.366 . S
C223 C224 1.414 . S
C223 C226 1.499 . S
C224 H204 0.950 . S
C224 C223 1.414 . S
C224 C225 1.374 . S
C225 H205 0.950 . S
C225 C221 1.385 . S
C225 C224 1.374 . S
C226 C223 1.499 . S
C226 C227 1.373 . S
C226 C228 1.389 . S
C227 H206 0.950 . S
C227 C226 1.373 . S
C227 C243 1.377 . S
C228 C226 1.389 . S
C228 C229 1.524 . S
C228 C242 1.377 . S
C229 C228 1.524 . S
C229 C230 1.397 . S
C229 C234 1.363 . S
C230 H207 0.950 . S
C230 C229 1.397 . S
C230 C231 1.334 . S
C231 H208 0.950 . S
C231 C230 1.334 . S
C231 C232 1.287 . S
C232 C231 1.287 . S
C232 C233 1.524 . S
C232 H251 0.913 . S
C233 H209 0.950 . S
C233 C232 1.524 . S
C233 C234 1.415 . S
C234 H210 0.950 . S
C234 C229 1.363 . S
C234 C233 1.415 . S
C235 H211 0.951 . S
C235 C236 1.366 . S
C235 C237 1.388 . S
C236 C235 1.366 . S
C236 C240 1.385 . S
C237 H212 0.951 . S
C237 C235 1.388 . S
C237 C238 1.366 . S
C238 C237 1.366 . S
C238 C239 1.414 . S
C238 C241 1.499 . S
C239 H213 0.950 . S
C239 C238 1.414 . S
C239 C240 1.374 . S
C240 H214 0.950 . S
C240 C236 1.385 . S
C240 C239 1.374 . S
C241 C238 1.499 . S
C241 C242 1.373 . S
C241 C243 1.389 . S
C242 H215 0.950 . S
C242 C228 1.377 . S
C242 C241 1.373 . S
C243 C227 1.377 . S
C243 C241 1.389 . S
C243 C244 1.524 . S
C244 C243 1.524 . S
C244 C245 1.397 . S
C244 C249 1.363 . S
C245 H216 0.950 . S
C245 C244 1.397 . S
C245 C246 1.334 . S
C246 H217 0.950 . S
C246 C245 1.334 . S
C246 C247 1.287 . S
C247 C246 1.287 . S
C247 C248 1.524 . S
C247 H250 0.999 . S
C248 H218 0.950 . S
C248 C247 1.524 . S
C248 C249 1.415 . S
C249 H219 0.950 . S
C249 C244 1.363 . S
C249 C248 1.415 . S
H250 C247 0.999 . S
H251 C232 0.913 . S
H252 C270 0.951 . S
H253 C272 0.951 . S
H254 C274 0.950 . S
H255 C275 0.950 . S
H256 C277 0.950 . S
H257 C280 0.950 . S
H258 C281 0.950 . S
H259 C283 0.950 . S
H260 C284 0.950 . S
H261 C285 0.951 . S
H262 C287 0.951 . S
H263 C289 0.950 . S
H264 C290 0.950 . S
H265 C292 0.950 . S
H266 C295 0.950 . S
H267 C296 0.950 . S
H268 C298 0.950 . S
H269 C299 0.950 . S
C270 H252 0.951 . S
C270 C271 1.366 . S
C270 C272 1.388 . S
C271 C270 1.366 . S
C271 C275 1.385 . S
C272 H253 0.951 . S
C272 C270 1.388 . S
C272 C273 1.366 . S
C273 C272 1.366 . S
C273 C274 1.414 . S
C273 C276 1.499 . S
C274 H254 0.950 . S
C274 C273 1.414 . S
C274 C275 1.374 . S
C275 H255 0.950 . S
C275 C271 1.385 . S
C275 C274 1.374 . S
C276 C273 1.499 . S
C276 C277 1.373 . S
C276 C278 1.389 . S
C277 H256 0.950 . S
C277 C276 1.373 . S
C277 C293 1.377 . S
C278 C276 1.389 . S
C278 C279 1.524 . S
C278 C292 1.377 . S
C279 C278 1.524 . S
C279 C280 1.397 . S
C279 C284 1.363 . S
C280 H257 0.950 . S
C280 C279 1.397 . S
C280 C281 1.334 . S
C281 H258 0.950 . S
C281 C280 1.334 . S
C281 C282 1.287 . S
C282 C281 1.287 . S
C282 C283 1.524 . S
C282 H301 0.913 . S
C283 H259 0.950 . S
C283 C282 1.524 . S
C283 C284 1.415 . S
C284 H260 0.950 . S
C284 C279 1.363 . S
C284 C283 1.415 . S
C285 H261 0.951 . S
C285 C286 1.366 . S
C285 C287 1.388 . S
C286 C285 1.366 . S
C286 C290 1.385 . S
C287 H262 0.951 . S
C287 C285 1.388 . S
C287 C288 1.366 . S
C288 C287 1.366 . S
C288 C289 1.414 . S
C288 C291 1.499 . S
C289 H263 0.950 . S
C289 C288 1.414 . S
C289 C290 1.374 . S
C290 H264 0.950 . S
C290 C286 1.385 . S
C290 C289 1.374 . S
C291 C288 1.499 . S
C291 C292 1.373 . S
C291 C293 1.389 . S
C292 H265 0.950 . S
C292 C278 1.377 . S
C292 C291 1.373 . S
C293 C277 1.377 . S
C293 C291 1.389 . S
C293 C294 1.548 . S
C294 C293 1.548 . S
C294 C295 1.388 1_554 S
C294 C299 1.349 1_554 S
C295 H266 0.950 . S
C295 C294 1.388 1_556 S
C295 C296 1.334 . S
C296 H267 0.950 . S
C296 C295 1.334 . S
C296 C297 1.287 . S
C297 C296 1.287 . S
C297 C298 1.524 . S
C297 H300 0.999 . S
C298 H268 0.950 . S
C298 C297 1.524 . S
C298 C299 1.415 . S
C299 H269 0.950 . S
C299 C294 1.349 1_556 S
C299 C298 1.415 . S
H300 C297 0.999 . S
H301 C282 0.913 . S
H302 C320 0.951 . S
H303 C322 0.951 . S
H304 C324 0.950 . S
H305 C325 0.950 . S
H306 C327 0.950 . S
H307 C330 0.950 . S
H308 C331 0.950 . S
H309 C333 0.950 1_455 S
H310 C334 0.950 . S
H311 C335 0.951 . S
H312 C337 0.951 . S
H313 C339 0.950 . S
H314 C340 0.950 . S
H315 C342 0.950 . S
H316 C345 0.950 . S
H317 C346 0.950 . S
H318 C348 0.950 . S
H319 C349 0.950 . S
C320 H302 0.951 . S
C320 C321 1.366 . S
C320 C322 1.388 . S
C321 C320 1.366 . S
C321 C325 1.385 . S
C322 H303 0.951 . S
C322 C320 1.388 . S
C322 C323 1.366 . S
C323 C322 1.366 . S
C323 C324 1.414 . S
C323 C326 1.499 . S
C324 H304 0.950 . S
C324 C323 1.414 . S
C324 C325 1.374 . S
C325 H305 0.950 . S
C325 C321 1.385 . S
C325 C324 1.374 . S
C326 C323 1.499 . S
C326 C327 1.373 . S
C326 C328 1.389 . S
C327 H306 0.950 . S
C327 C326 1.373 . S
C327 C343 1.377 . S
C328 C326 1.389 . S
C328 C329 1.524 . S
C328 C342 1.377 . S
C329 C328 1.524 . S
C329 C330 1.397 . S
C329 C334 1.363 . S
C330 H307 0.950 . S
C330 C329 1.397 . S
C330 C331 1.334 . S
C331 H308 0.950 . S
C331 C330 1.334 . S
C331 C332 1.287 . S
C332 C331 1.287 . S
C332 C333 1.524 . S
C332 H351 0.913 . S
C333 H309 0.950 1_655 S
C333 C332 1.524 . S
C333 C334 1.415 . S
C334 H310 0.950 . S
C334 C329 1.363 . S
C334 C333 1.415 . S
C335 H311 0.951 . S
C335 C336 1.366 . S
C335 C337 1.388 . S
C336 C335 1.366 . S
C336 C340 1.385 . S
C337 H312 0.951 . S
C337 C335 1.388 . S
C337 C338 1.366 . S
C338 C337 1.366 . S
C338 C339 1.414 . S
C338 C341 1.499 . S
C339 H313 0.950 . S
C339 C338 1.414 . S
C339 C340 1.374 . S
C340 H314 0.950 . S
C340 C336 1.385 . S
C340 C339 1.374 . S
C341 C338 1.499 . S
C341 C342 1.373 . S
C341 C343 1.389 . S
C342 H315 0.950 . S
C342 C328 1.377 . S
C342 C341 1.373 . S
C343 C327 1.377 . S
C343 C341 1.389 . S
C343 C344 1.524 . S
C344 C343 1.524 . S
C344 C345 1.397 . S
C344 C349 1.363 . S
C345 H316 0.950 . S
C345 C344 1.397 . S
C345 C346 1.334 . S
C346 H317 0.950 . S
C346 C345 1.334 . S
C346 C347 1.287 . S
C347 C346 1.287 . S
C347 C348 1.524 . S
C347 H350 0.999 . S
C348 H318 0.950 . S
C348 C347 1.524 . S
C348 C349 1.415 . S
C349 H319 0.950 . S
C349 C344 1.363 . S
C349 C348 1.415 . S
H350 C347 0.999 . S
H351 C332 0.913 . S
H352 C370 0.951 . S
H353 C372 0.951 . S
H354 C374 0.950 . S
H355 C375 0.950 . S
H356 C377 0.950 . S
H357 C380 0.950 . S
H358 C381 0.950 1_554 S
H359 C383 0.950 . S
H360 C384 0.950 . S
H361 C385 0.951 . S
H362 C387 0.951 . S
H363 C389 0.950 . S
H364 C390 0.950 . S
H365 C392 0.950 . S
H366 C395 0.950 1_556 S
H367 C396 0.950 . S
H368 C398 0.950 . S
H369 C399 0.950 . S
C370 H352 0.951 . S
C370 C371 1.366 . S
C370 C372 1.388 . S
C371 C370 1.366 . S
C371 C375 1.385 1_556 S
C372 H353 0.951 . S
C372 C370 1.388 . S
C372 C373 1.361 1_556 S
C373 C372 1.361 1_554 S
C373 C374 1.418 . S
C373 C376 1.500 . S
C374 H354 0.950 . S
C374 C373 1.418 . S
C374 C375 1.374 . S
C375 H355 0.950 . S
C375 C371 1.385 1_554 S
C375 C374 1.374 . S
C376 C373 1.500 . S
C376 C377 1.373 . S
C376 C378 1.389 1_554 S
C377 H356 0.950 . S
C377 C376 1.373 . S
C377 C393 1.377 . S
C378 C376 1.389 1_556 S
C378 C379 1.524 . S
C378 C392 1.377 . S
C379 C378 1.524 . S
C379 C380 1.397 1_556 S
C379 C384 1.363 . S
C380 H357 0.950 . S
C380 C379 1.397 1_554 S
C380 C381 1.334 1_554 S
C381 H358 0.950 1_556 S
C381 C380 1.334 1_556 S
C381 C382 1.287 . S
C382 C381 1.287 . S
C382 C383 1.524 . S
C382 H401 0.913 . S
C383 H359 0.950 . S
C383 C382 1.524 . S
C383 C384 1.415 . S
C384 H360 0.950 . S
C384 C379 1.363 . S
C384 C383 1.415 . S
C385 H361 0.951 . S
C385 C386 1.366 . S
C385 C387 1.388 . S
C386 C385 1.366 . S
C386 C390 1.385 1_554 S
C387 H362 0.951 . S
C387 C385 1.388 . S
C387 C388 1.366 . S
C388 C387 1.366 . S
C388 C389 1.414 1_554 S
C388 C391 1.499 . S
C389 H363 0.950 . S
C389 C388 1.414 1_556 S
C389 C390 1.374 . S
C390 H364 0.950 . S
C390 C386 1.385 1_556 S
C390 C389 1.374 . S
C391 C388 1.499 . S
C391 C392 1.373 1_554 S
C391 C393 1.389 . S
C392 H365 0.950 . S
C392 C378 1.377 . S
C392 C391 1.373 1_556 S
C393 C377 1.377 . S
C393 C391 1.389 . S
C393 C394 1.524 . S
C394 C393 1.524 . S
C394 C395 1.397 . S
C394 C399 1.363 . S
C395 H366 0.950 1_554 S
C395 C394 1.397 . S
C395 C396 1.334 . S
C396 H367 0.950 . S
C396 C395 1.334 . S
C396 C397 1.287 . S
C397 C396 1.287 . S
C397 C398 1.524 . S
C397 H400 0.999 . S
C398 H368 0.950 . S
C398 C397 1.524 . S
C398 C399 1.415 . S
C399 H369 0.950 . S
C399 C394 1.363 . S
C399 C398 1.415 . S
H400 C397 0.999 . S
H401 C382 0.913 . S
H402 C420 0.951 . S
H403 C422 0.951 . S
H404 C424 0.950 . S
H405 C425 0.950 . S
H406 C427 0.950 . S
H407 C430 0.950 . S
H408 C431 0.950 . S
H409 C433 0.950 . S
H410 C434 0.950 . S
H411 C435 0.951 . S
H412 C437 0.951 . S
H413 C439 0.950 . S
H414 C440 0.950 . S
H415 C442 0.950 . S
H416 C445 0.950 . S
H417 C446 0.950 . S
H418 C448 0.950 . S
H419 C449 0.950 . S
C420 H402 0.951 . S
C420 C421 1.366 . S
C420 C422 1.388 . S
C421 C420 1.366 . S
C421 C425 1.385 . S
C422 H403 0.951 . S
C422 C420 1.388 . S
C422 C423 1.366 . S
C423 C422 1.366 . S
C423 C424 1.414 . S
C423 C426 1.499 . S
C424 H404 0.950 . S
C424 C423 1.414 . S
C424 C425 1.374 . S
C425 H405 0.950 . S
C425 C421 1.385 . S
C425 C424 1.374 . S
C426 C423 1.499 . S
C426 C427 1.373 . S
C426 C428 1.389 . S
C427 H406 0.950 . S
C427 C426 1.373 . S
C427 C443 1.377 . S
C428 C426 1.389 . S
C428 C429 1.524 . S
C428 C442 1.377 . S
C429 C428 1.524 . S
C429 C430 1.397 . S
C429 C434 1.363 . S
C430 H407 0.950 . S
C430 C429 1.397 . S
C430 C431 1.334 . S
C431 H408 0.950 . S
C431 C430 1.334 . S
C431 C432 1.287 . S
C432 C431 1.287 . S
C432 C433 1.524 . S
C432 H451 0.913 . S
C433 H409 0.950 . S
C433 C432 1.524 . S
C433 C434 1.415 . S
C434 H410 0.950 . S
C434 C429 1.363 . S
C434 C433 1.415 . S
C435 H411 0.951 . S
C435 C436 1.366 . S
C435 C437 1.388 . S
C436 C435 1.366 . S
C436 C440 1.385 . S
C437 H412 0.951 . S
C437 C435 1.388 . S
C437 C438 1.366 . S
C438 C437 1.366 . S
C438 C439 1.414 . S
C438 C441 1.499 . S
C439 H413 0.950 . S
C439 C438 1.414 . S
C439 C440 1.374 . S
C440 H414 0.950 . S
C440 C436 1.385 . S
C440 C439 1.374 . S
C441 C438 1.499 . S
C441 C442 1.373 . S
C441 C443 1.389 . S
C442 H415 0.950 . S
C442 C428 1.377 . S
C442 C441 1.373 . S
C443 C427 1.377 . S
C443 C441 1.389 . S
C443 C444 1.552 . S
C444 C443 1.552 . S
C444 C445 1.364 1_565 S
C444 C449 1.368 . S
C445 H416 0.950 . S
C445 C444 1.364 1_545 S
C445 C446 1.334 . S
C446 H417 0.950 . S
C446 C445 1.334 . S
C446 C447 1.287 . S
C447 C446 1.287 . S
C447 C448 1.524 . S
C447 H450 0.999 . S
C448 H418 0.950 . S
C448 C447 1.524 . S
C448 C449 1.415 1_545 S
C449 H419 0.950 . S
C449 C444 1.368 . S
C449 C448 1.415 1_565 S
H450 C447 0.999 . S
H451 C432 0.913 . S
H452 C470 0.951 . S
H453 C472 0.951 . S
H454 C474 0.950 . S
H455 C475 0.950 . S
H456 C477 0.950 . S
H457 C480 0.950 . S
H458 C481 0.950 . S
H459 C483 0.950 . S
H460 C484 0.950 . S
H461 C485 0.951 . S
H462 C487 0.951 . S
H463 C489 0.950 . S
H464 C490 0.950 . S
H465 C492 0.950 . S
H466 C495 0.950 . S
H467 C496 0.950 . S
H468 C498 0.950 . S
H469 C499 0.950 . S
C470 H452 0.951 . S
C470 C471 1.366 . S
C470 C472 1.388 . S
C471 C470 1.366 . S
C471 C475 1.385 . S
C472 H453 0.951 . S
C472 C470 1.388 . S
C472 C473 1.366 . S
C473 C472 1.366 . S
C473 C474 1.414 . S
C473 C476 1.499 . S
C474 H454 0.950 . S
C474 C473 1.414 . S
C474 C475 1.374 . S
C475 H455 0.950 . S
C475 C471 1.385 . S
C475 C474 1.374 . S
C476 C473 1.499 . S
C476 C477 1.373 . S
C476 C478 1.389 . S
C477 H456 0.950 . S
C477 C476 1.373 . S
C477 C493 1.377 . S
C478 C476 1.389 . S
C478 C479 1.524 . S
C478 C492 1.377 . S
C479 C478 1.524 . S
C479 C480 1.397 . S
C479 C484 1.363 . S
C480 H457 0.950 . S
C480 C479 1.397 . S
C480 C481 1.334 . S
C481 H458 0.950 . S
C481 C480 1.334 . S
C481 C482 1.287 . S
C482 C481 1.287 . S
C482 C483 1.524 . S
C482 H501 0.913 . S
C483 H459 0.950 . S
C483 C482 1.524 . S
C483 C484 1.415 . S
C484 H460 0.950 . S
C484 C479 1.363 . S
C484 C483 1.415 . S
C485 H461 0.951 . S
C485 C486 1.366 . S
C485 C487 1.388 . S
C486 C485 1.366 . S
C486 C490 1.385 . S
C487 H462 0.951 . S
C487 C485 1.388 . S
C487 C488 1.366 . S
C488 C487 1.366 . S
C488 C489 1.414 . S
C488 C491 1.499 . S
C489 H463 0.950 . S
C489 C488 1.414 . S
C489 C490 1.374 . S
C490 H464 0.950 . S
C490 C486 1.385 . S
C490 C489 1.374 . S
C491 C488 1.499 . S
C491 C492 1.373 . S
C491 C493 1.389 . S
C492 H465 0.950 . S
C492 C478 1.377 . S
C492 C491 1.373 . S
C493 C477 1.377 . S
C493 C491 1.389 . S
C493 C494 1.524 . S
C494 C493 1.524 . S
C494 C495 1.397 . S
C494 C499 1.363 . S
C495 H466 0.950 . S
C495 C494 1.397 . S
C495 C496 1.334 . S
C496 H467 0.950 . S
C496 C495 1.334 . S
C496 C497 1.287 . S
C497 C496 1.287 . S
C497 C498 1.524 . S
C497 H500 0.999 . S
C498 H468 0.950 . S
C498 C497 1.524 . S
C498 C499 1.415 . S
C499 H469 0.950 . S
C499 C494 1.363 . S
C499 C498 1.415 . S
H500 C497 0.999 . S
H501 C482 0.913 . S
H502 C520 0.951 . S
H503 C522 0.951 . S
H504 C524 0.950 . S
H505 C525 0.950 . S
H506 C527 0.950 . S
H507 C530 0.950 . S
H508 C531 0.950 . S
H509 C533 0.950 . S
H510 C534 0.950 . S
H511 C535 0.951 . S
H512 C537 0.951 . S
H513 C539 0.950 . S
H514 C540 0.950 . S
H515 C542 0.950 . S
H516 C545 0.950 . S
H517 C546 0.950 . S
H518 C548 0.950 . S
H519 C549 0.950 1_545 S
C520 H502 0.951 . S
C520 C521 1.366 . S
C520 C522 1.388 . S
C521 C520 1.366 . S
C521 C525 1.385 . S
C522 H503 0.951 . S
C522 C520 1.388 . S
C522 C523 1.366 . S
C523 C522 1.366 . S
C523 C524 1.414 . S
C523 C526 1.499 . S
C524 H504 0.950 . S
C524 C523 1.414 . S
C524 C525 1.374 . S
C525 H505 0.950 . S
C525 C521 1.385 . S
C525 C524 1.374 . S
C526 C523 1.499 . S
C526 C527 1.373 . S
C526 C528 1.389 . S
C527 H506 0.950 . S
C527 C526 1.373 . S
C527 C543 1.377 . S
C528 C526 1.389 . S
C528 C529 1.524 . S
C528 C542 1.377 . S
C529 C528 1.524 . S
C529 C530 1.397 . S
C529 C534 1.363 . S
C530 H507 0.950 . S
C530 C529 1.397 . S
C530 C531 1.334 . S
C531 H508 0.950 . S
C531 C530 1.334 . S
C531 C532 1.287 . S
C532 C531 1.287 . S
C532 C533 1.524 . S
C532 H551 0.913 . S
C533 H509 0.950 . S
C533 C532 1.524 . S
C533 C534 1.415 . S
C534 H510 0.950 . S
C534 C529 1.363 . S
C534 C533 1.415 . S
C535 H511 0.951 . S
C535 C536 1.366 . S
C535 C537 1.388 . S
C536 C535 1.366 . S
C536 C540 1.385 . S
C537 H512 0.951 . S
C537 C535 1.388 . S
C537 C538 1.366 . S
C538 C537 1.366 . S
C538 C539 1.414 . S
C538 C541 1.499 . S
C539 H513 0.950 . S
C539 C538 1.414 . S
C539 C540 1.374 . S
C540 H514 0.950 . S
C540 C536 1.385 . S
C540 C539 1.374 . S
C541 C538 1.499 . S
C541 C542 1.373 . S
C541 C543 1.389 . S
C542 H515 0.950 . S
C542 C528 1.377 . S
C542 C541 1.373 . S
C543 C527 1.377 . S
C543 C541 1.389 . S
C543 C544 1.524 . S
C544 C543 1.524 . S
C544 C545 1.397 . S
C544 C549 1.363 1_545 S
C545 H516 0.950 . S
C545 C544 1.397 . S
C545 C546 1.334 1_545 S
C546 H517 0.950 . S
C546 C545 1.334 1_565 S
C546 C547 1.287 . S
C547 C546 1.287 . S
C547 C548 1.524 . S
C547 H550 0.999 . S
C548 H518 0.950 . S
C548 C547 1.524 . S
C548 C549 1.415 . S
C549 H519 0.950 1_565 S
C549 C544 1.363 1_565 S
C549 C548 1.415 . S
H550 C547 0.999 . S
H551 C532 0.913 . S
H552 C570 0.951 . S
H553 C572 0.951 . S
H554 C574 0.950 . S
H555 C575 0.950 . S
H556 C577 0.950 . S
H557 C580 0.950 . S
H558 C581 0.950 . S
H559 C583 0.950 . S
H560 C584 0.950 . S
H561 C585 0.951 . S
H562 C587 0.951 . S
H563 C589 0.950 . S
H564 C590 0.950 . S
H565 C592 0.950 . S
H566 C595 0.950 . S
H567 C596 0.950 . S
H568 C598 0.950 . S
H569 C599 0.950 . S
C570 H552 0.951 . S
C570 C571 1.366 . S
C570 C572 1.388 . S
C571 C570 1.366 . S
C571 C575 1.385 . S
C572 H553 0.951 . S
C572 C570 1.388 . S
C572 C573 1.366 . S
C573 C572 1.366 . S
C573 C574 1.414 . S
C573 C576 1.499 . S
C574 H554 0.950 . S
C574 C573 1.414 . S
C574 C575 1.374 . S
C575 H555 0.950 . S
C575 C571 1.385 . S
C575 C574 1.374 . S
C576 C573 1.499 . S
C576 C577 1.373 . S
C576 C578 1.389 . S
C577 H556 0.950 . S
C577 C576 1.373 . S
C577 C593 1.377 . S
C578 C576 1.389 . S
C578 C579 1.524 . S
C578 C592 1.377 . S
C579 C578 1.524 . S
C579 C580 1.397 . S
C579 C584 1.363 . S
C580 H557 0.950 . S
C580 C579 1.397 . S
C580 C581 1.334 . S
C581 H558 0.950 . S
C581 C580 1.334 . S
C581 C582 1.287 . S
C582 C581 1.287 . S
C582 C583 1.524 . S
C582 H601 0.913 . S
C583 H559 0.950 . S
C583 C582 1.524 . S
C583 C584 1.415 . S
C584 H560 0.950 . S
C584 C579 1.363 . S
C584 C583 1.415 . S
C585 H561 0.951 . S
C585 C586 1.366 . S
C585 C587 1.388 . S
C586 C585 1.366 . S
C586 C590 1.385 . S
C587 H562 0.951 . S
C587 C585 1.388 . S
C587 C588 1.366 . S
C588 C587 1.366 . S
C588 C589 1.414 . S
C588 C591 1.499 . S
C589 H563 0.950 . S
C589 C588 1.414 . S
C589 C590 1.374 . S
C590 H564 0.950 . S
C590 C586 1.385 . S
C590 C589 1.374 . S
C591 C588 1.499 . S
C591 C592 1.373 . S
C591 C593 1.389 . S
C592 H565 0.950 . S
C592 C578 1.377 . S
C592 C591 1.373 . S
C593 C577 1.377 . S
C593 C591 1.389 . S
C593 C594 1.524 . S
C594 C593 1.524 . S
C594 C595 1.397 . S
C594 C599 1.363 . S
C595 H566 0.950 . S
C595 C594 1.397 . S
C595 C596 1.334 . S
C596 H567 0.950 . S
C596 C595 1.334 . S
C596 C597 1.287 . S
C597 C596 1.287 . S
C597 C598 1.524 . S
C597 H600 0.999 . S
C598 H568 0.950 . S
C598 C597 1.524 . S
C598 C599 1.415 . S
C599 H569 0.950 . S
C599 C594 1.363 . S
C599 C598 1.415 . S
H600 C597 0.999 . S
H601 C582 0.913 . S
H602 C620 0.951 . S
H603 C622 0.951 . S
H604 C624 0.950 . S
H605 C625 0.950 . S
H606 C627 0.950 . S
H607 C630 0.950 . S
H608 C631 0.950 . S
H609 C633 0.950 . S
H610 C634 0.950 . S
H611 C635 0.951 . S
H612 C637 0.951 . S
H613 C639 0.950 . S
H614 C640 0.950 . S
H615 C642 0.950 . S
H616 C645 0.950 . S
H617 C646 0.950 . S
H618 C648 0.950 . S
H619 C649 0.950 . S
C620 H602 0.951 . S
C620 C621 1.366 . S
C620 C622 1.388 . S
C621 C620 1.366 . S
C621 C625 1.385 . S
C622 H603 0.951 . S
C622 C620 1.388 . S
C622 C623 1.366 . S
C623 C622 1.366 . S
C623 C624 1.414 . S
C623 C626 1.499 . S
C624 H604 0.950 . S
C624 C623 1.414 . S
C624 C625 1.374 . S
C625 H605 0.950 . S
C625 C621 1.385 . S
C625 C624 1.374 . S
C626 C623 1.499 . S
C626 C627 1.373 . S
C626 C628 1.389 . S
C627 H606 0.950 . S
C627 C626 1.373 . S
C627 C643 1.377 . S
C628 C626 1.389 . S
C628 C629 1.524 . S
C628 C642 1.377 . S
C629 C628 1.524 . S
C629 C630 1.397 . S
C629 C634 1.363 . S
C630 H607 0.950 . S
C630 C629 1.397 . S
C630 C631 1.334 . S
C631 H608 0.950 . S
C631 C630 1.334 . S
C631 C632 1.287 . S
C632 C631 1.287 . S
C632 C633 1.524 . S
C632 H651 0.913 . S
C633 H609 0.950 . S
C633 C632 1.524 . S
C633 C634 1.415 . S
C634 H610 0.950 . S
C634 C629 1.363 . S
C634 C633 1.415 . S
C635 H611 0.951 . S
C635 C636 1.366 . S
C635 C637 1.388 . S
C636 C635 1.366 . S
C636 C640 1.385 . S
C637 H612 0.951 . S
C637 C635 1.388 . S
C637 C638 1.366 . S
C638 C637 1.366 . S
C638 C639 1.414 . S
C638 C641 1.499 . S
C639 H613 0.950 . S
C639 C638 1.414 . S
C639 C640 1.374 . S
C640 H614 0.950 . S
C640 C636 1.385 . S
C640 C639 1.374 . S
C641 C638 1.499 . S
C641 C642 1.373 . S
C641 C643 1.389 . S
C642 H615 0.950 . S
C642 C628 1.377 . S
C642 C641 1.373 . S
C643 C627 1.377 . S
C643 C641 1.389 . S
C643 C644 1.524 . S
C644 C643 1.524 . S
C644 C645 1.397 . S
C644 C649 1.363 . S
C645 H616 0.950 . S
C645 C644 1.397 . S
C645 C646 1.334 . S
C646 H617 0.950 . S
C646 C645 1.334 . S
C646 C647 1.287 . S
C647 C646 1.287 . S
C647 C648 1.524 . S
C647 H650 0.999 . S
C648 H618 0.950 . S
C648 C647 1.524 . S
C648 C649 1.415 . S
C649 H619 0.950 . S
C649 C644 1.363 . S
C649 C648 1.415 . S
H650 C647 0.999 . S
H651 C632 0.913 . S
H652 C670 0.951 . S
H653 C672 0.951 . S
H654 C674 0.950 . S
H655 C675 0.950 . S
H656 C677 0.950 . S
H657 C680 0.950 . S
H658 C681 0.950 . S
H659 C683 0.950 . S
H660 C684 0.950 . S
H661 C685 0.951 . S
H662 C687 0.951 . S
H663 C689 0.950 . S
H664 C690 0.950 . S
H665 C692 0.950 . S
H666 C695 0.950 . S
H667 C696 0.950 1_455 S
H668 C698 0.950 . S
H669 C699 0.950 . S
C670 H652 0.951 . S
C670 C671 1.366 . S
C670 C672 1.388 . S
C671 C670 1.366 . S
C671 C675 1.385 . S
C672 H653 0.951 . S
C672 C670 1.388 . S
C672 C673 1.366 . S
C673 C672 1.366 . S
C673 C674 1.414 . S
C673 C676 1.499 . S
C674 H654 0.950 . S
C674 C673 1.414 . S
C674 C675 1.374 . S
C675 H655 0.950 . S
C675 C671 1.385 . S
C675 C674 1.374 . S
C676 C673 1.499 . S
C676 C677 1.373 . S
C676 C678 1.389 . S
C677 H656 0.950 . S
C677 C676 1.373 . S
C677 C693 1.377 . S
C678 C676 1.389 . S
C678 C679 1.524 . S
C678 C692 1.377 . S
C679 C678 1.524 . S
C679 C680 1.397 . S
C679 C684 1.363 . S
C680 H657 0.950 . S
C680 C679 1.397 . S
C680 C681 1.334 . S
C681 H658 0.950 . S
C681 C680 1.334 . S
C681 C682 1.287 . S
C682 C681 1.287 . S
C682 C683 1.524 . S
C682 H701 0.913 . S
C683 H659 0.950 . S
C683 C682 1.524 . S
C683 C684 1.415 . S
C684 H660 0.950 . S
C684 C679 1.363 . S
C684 C683 1.415 . S
C685 H661 0.951 . S
C685 C686 1.366 . S
C685 C687 1.388 . S
C686 C685 1.366 . S
C686 C690 1.385 . S
C687 H662 0.951 . S
C687 C685 1.388 . S
C687 C688 1.366 . S
C688 C687 1.366 . S
C688 C689 1.414 . S
C688 C691 1.499 . S
C689 H663 0.950 . S
C689 C688 1.414 . S
C689 C690 1.374 . S
C690 H664 0.950 . S
C690 C686 1.385 . S
C690 C689 1.374 . S
C691 C688 1.499 . S
C691 C692 1.373 . S
C691 C693 1.389 . S
C692 H665 0.950 . S
C692 C678 1.377 . S
C692 C691 1.373 . S
C693 C677 1.377 . S
C693 C691 1.389 . S
C693 C694 1.524 . S
C694 C693 1.524 . S
C694 C695 1.397 . S
C694 C699 1.363 . S
C695 H666 0.950 . S
C695 C694 1.397 . S
C695 C696 1.334 . S
C696 H667 0.950 1_655 S
C696 C695 1.334 . S
C696 C697 1.287 . S
C697 C696 1.287 . S
C697 C698 1.524 . S
C697 H700 0.999 1_655 S
C698 H668 0.950 . S
C698 C697 1.524 . S
C698 C699 1.415 . S
C699 H669 0.950 . S
C699 C694 1.363 . S
C699 C698 1.415 . S
H700 C697 0.999 1_455 S
H701 C682 0.913 . S
H702 C720 0.951 . S
H703 C722 0.951 . S
H704 C724 0.950 . S
H705 C725 0.950 . S
H706 C727 0.950 . S
H707 C730 0.950 . S
H708 C731 0.950 . S
H709 C733 0.950 . S
H710 C734 0.950 . S
H711 C735 0.951 . S
H712 C737 0.951 . S
H713 C739 0.950 . S
H714 C740 0.950 . S
H715 C742 0.950 . S
H716 C745 0.950 . S
H717 C746 0.950 . S
H718 C748 0.950 . S
H719 C749 0.950 . S
C720 H702 0.951 . S
C720 C721 1.366 . S
C720 C722 1.388 . S
C721 C720 1.366 . S
C721 C725 1.385 . S
C722 H703 0.951 . S
C722 C720 1.388 . S
C722 C723 1.366 . S
C723 C722 1.366 . S
C723 C724 1.414 . S
C723 C726 1.499 . S
C724 H704 0.950 . S
C724 C723 1.414 . S
C724 C725 1.374 . S
C725 H705 0.950 . S
C725 C721 1.385 . S
C725 C724 1.374 . S
C726 C723 1.499 . S
C726 C727 1.373 . S
C726 C728 1.389 . S
C727 H706 0.950 . S
C727 C726 1.373 . S
C727 C743 1.377 . S
C728 C726 1.389 . S
C728 C729 1.524 . S
C728 C742 1.377 . S
C729 C728 1.524 . S
C729 C730 1.397 . S
C729 C734 1.363 . S
C730 H707 0.950 . S
C730 C729 1.397 . S
C730 C731 1.334 . S
C731 H708 0.950 . S
C731 C730 1.334 . S
C731 C732 1.287 . S
C732 C731 1.287 . S
C732 C733 1.524 . S
C732 H751 0.913 . S
C733 H709 0.950 . S
C733 C732 1.524 . S
C733 C734 1.415 . S
C734 H710 0.950 . S
C734 C729 1.363 . S
C734 C733 1.415 . S
C735 H711 0.951 . S
C735 C736 1.366 . S
C735 C737 1.388 . S
C736 C735 1.366 . S
C736 C740 1.385 . S
C737 H712 0.951 . S
C737 C735 1.388 . S
C737 C738 1.366 . S
C738 C737 1.366 . S
C738 C739 1.414 . S
C738 C741 1.499 . S
C739 H713 0.950 . S
C739 C738 1.414 . S
C739 C740 1.374 . S
C740 H714 0.950 . S
C740 C736 1.385 . S
C740 C739 1.374 . S
C741 C738 1.499 . S
C741 C742 1.373 . S
C741 C743 1.389 . S
C742 H715 0.950 . S
C742 C728 1.377 . S
C742 C741 1.373 . S
C743 C727 1.377 . S
C743 C741 1.389 . S
C743 C744 1.524 . S
C744 C743 1.524 . S
C744 C745 1.397 . S
C744 C749 1.363 . S
C745 H716 0.950 . S
C745 C744 1.397 . S
C745 C746 1.334 . S
C746 H717 0.950 . S
C746 C745 1.334 . S
C746 C747 1.287 . S
C747 C746 1.287 . S
C747 C748 1.524 . S
C747 H750 0.999 . S
C748 H718 0.950 . S
C748 C747 1.524 . S
C748 C749 1.415 . S
C749 H719 0.950 . S
C749 C744 1.363 . S
C749 C748 1.415 . S
H750 C747 0.999 . S
H751 C732 0.913 . S
H752 C770 0.951 . S
H753 C772 0.951 . S
H754 C774 0.950 . S
H755 C775 0.950 . S
H756 C777 0.950 . S
H757 C780 0.950 . S
H758 C781 0.950 . S
H759 C783 0.950 . S
H760 C784 0.950 . S
H761 C785 0.951 . S
H762 C787 0.951 . S
H763 C789 0.950 . S
H764 C790 0.950 1_545 S
H765 C792 0.950 . S
H766 C795 0.950 . S
H767 C796 0.950 . S
H768 C798 0.950 . S
H769 C799 0.950 . S
C770 H752 0.951 . S
C770 C771 1.366 . S
C770 C772 1.388 . S
C771 C770 1.366 . S
C771 C775 1.385 . S
C772 H753 0.951 . S
C772 C770 1.388 . S
C772 C773 1.366 . S
C773 C772 1.366 . S
C773 C774 1.414 . S
C773 C776 1.499 . S
C774 H754 0.950 . S
C774 C773 1.414 . S
C774 C775 1.374 . S
C775 H755 0.950 . S
C775 C771 1.385 . S
C775 C774 1.374 . S
C776 C773 1.499 . S
C776 C777 1.373 . S
C776 C778 1.389 . S
C777 H756 0.950 . S
C777 C776 1.373 . S
C777 C793 1.377 . S
C778 C776 1.389 . S
C778 C779 1.524 . S
C778 C792 1.377 . S
C779 C778 1.524 . S
C779 C780 1.397 . S
C779 C784 1.363 . S
C780 H757 0.950 . S
C780 C779 1.397 . S
C780 C781 1.334 . S
C781 H758 0.950 . S
C781 C780 1.334 . S
C781 C782 1.287 . S
C782 C781 1.287 . S
C782 C783 1.524 . S
C782 H801 0.913 . S
C783 H759 0.950 . S
C783 C782 1.524 . S
C783 C784 1.415 . S
C784 H760 0.950 . S
C784 C779 1.363 . S
C784 C783 1.415 . S
C785 H761 0.951 . S
C785 C786 1.366 . S
C785 C787 1.388 . S
C786 C785 1.366 . S
C786 C790 1.385 . S
C787 H762 0.951 . S
C787 C785 1.388 . S
C787 C788 1.366 . S
C788 C787 1.366 . S
C788 C789 1.414 . S
C788 C791 1.499 . S
C789 H763 0.950 . S
C789 C788 1.414 . S
C789 C790 1.374 . S
C790 H764 0.950 1_565 S
C790 C786 1.385 . S
C790 C789 1.374 . S
C791 C788 1.499 . S
C791 C792 1.373 . S
C791 C793 1.389 . S
C792 H765 0.950 . S
C792 C778 1.377 . S
C792 C791 1.373 . S
C793 C777 1.377 . S
C793 C791 1.389 . S
C793 C794 1.524 . S
C794 C793 1.524 . S
C794 C795 1.397 1_565 S
C794 C799 1.363 . S
C795 H766 0.950 . S
C795 C794 1.397 1_545 S
C795 C796 1.334 . S
C796 H767 0.950 . S
C796 C795 1.334 . S
C796 C797 1.287 . S
C797 C796 1.287 . S
C797 C798 1.524 1_545 S
C797 H800 0.999 . S
C798 H768 0.950 . S
C798 C797 1.524 1_565 S
C798 C799 1.415 . S
C799 H769 0.950 . S
C799 C794 1.363 . S
C799 C798 1.415 . S
H800 C797 0.999 . S
H801 C782 0.913 . S
C236 C175 1.343 . S
C221 C135 1.519 . S
C271 C15 1.517 . S
C286 C199 1.340 . S
C321 C55 1.688 . S
C336 C178 1.484 . S
C371 C95 1.702 . S
C386 C196 1.498 . S
C436 C176 1.606 . S
C421 C2 1.637 . S
C486 C198 1.568 . S
C471 C42 1.578 . S
C521 C82 1.582 . S
C536 C177 1.504 . S
C571 C141 1.621 . S
C586 C197 1.538 . S
C636 C195 1.533 . S
C621 C61 1.563 . S
C686 C174 1.604 . S
C671 C101 1.649 . S
C736 C194 1.635 . S
C721 C122 1.667 . S
C771 C21 1.651 . S
C786 C173 1.566 1_565 S
