# Generated by pormake.
# Topology anh, (6,3)-cn, num edge types: 1
# Building blocks:
#     Node 0, Type 0, BuildingBlock: PAMTOO_clean_sbu_0, # of connection points: 6
#     Node 1, Type 0, BuildingBlock: PAMTOO_clean_sbu_0, # of connection points: 6
#     Node 2, Type 0, BuildingBlock: PAMTOO_clean_sbu_0, # of connection points: 6
#     Node 3, Type 1, BuildingBlock: WUSLED_clean_sbu_0, # of connection points: 3
#     Node 4, Type 1, BuildingBlock: WUSLED_clean_sbu_0, # of connection points: 3
#     Node 5, Type 1, BuildingBlock: WUSLED_clean_sbu_0, # of connection points: 3
#     Node 6, Type 1, BuildingBlock: WUSLED_clean_sbu_0, # of connection points: 3
#     Node 7, Type 1, BuildingBlock: WUSLED_clean_sbu_0, # of connection points: 3
#     Node 8, Type 1, BuildingBlock: WUSLED_clean_sbu_0, # of connection points: 3
#     Edge 9, Type (0, 1), BuildingBlock: TEMPAE_clean_linker_10, # of connection points: 2
#     Edge 10, Type (0, 1), BuildingBlock: TEMPAE_clean_linker_10, # of connection points: 2
#     Edge 11, Type (0, 1), BuildingBlock: TEMPAE_clean_linker_10, # of connection points: 2
#     Edge 12, Type (0, 1), BuildingBlock: TEMPAE_clean_linker_10, # of connection points: 2
#     Edge 13, Type (0, 1), BuildingBlock: TEMPAE_clean_linker_10, # of connection points: 2
#     Edge 14, Type (0, 1), BuildingBlock: TEMPAE_clean_linker_10, # of connection points: 2
#     Edge 15, Type (0, 1), BuildingBlock: TEMPAE_clean_linker_10, # of connection points: 2
#     Edge 16, Type (0, 1), BuildingBlock: TEMPAE_clean_linker_10, # of connection points: 2
#     Edge 17, Type (0, 1), BuildingBlock: TEMPAE_clean_linker_10, # of connection points: 2
#     Edge 18, Type (0, 1), BuildingBlock: TEMPAE_clean_linker_10, # of connection points: 2
#     Edge 19, Type (0, 1), BuildingBlock: TEMPAE_clean_linker_10, # of connection points: 2
#     Edge 20, Type (0, 1), BuildingBlock: TEMPAE_clean_linker_10, # of connection points: 2
#     Edge 21, Type (0, 1), BuildingBlock: TEMPAE_clean_linker_10, # of connection points: 2
#     Edge 22, Type (0, 1), BuildingBlock: TEMPAE_clean_linker_10, # of connection points: 2
#     Edge 23, Type (0, 1), BuildingBlock: TEMPAE_clean_linker_10, # of connection points: 2
#     Edge 24, Type (0, 1), BuildingBlock: TEMPAE_clean_linker_10, # of connection points: 2
#     Edge 25, Type (0, 1), BuildingBlock: TEMPAE_clean_linker_10, # of connection points: 2
#     Edge 26, Type (0, 1), BuildingBlock: TEMPAE_clean_linker_10, # of connection points: 2
# Relax obj value: 0.165
# Max RMSD: 0.187
# Mean RMSD: 0.148
data_MOF--net-anh--node1-PAMTOO_clean_sbu_0--node2-WUSLED_clean_sbu_0--edge1-TEMPAE_clean_linker_10
_symmetry_space_group_name_H-M    P1
_symmetry_Int_Tables_number       1
_symmetry_cell_setting            triclinic
loop_
_symmetry_equiv_pos_as_xyz
'x, y, z'
_cell_length_a     39.74964
_cell_length_b     38.419879
_cell_length_c     70.391107
_cell_angle_alpha  91.274551
_cell_angle_beta   94.521126
_cell_angle_gamma 107.43051
loop_
_atom_site_label
_atom_site_type_symbol
_atom_site_fract_x
_atom_site_fract_y
_atom_site_fract_z
_atom_type_partial_charge
Dy0 Dy 0.07585 0.59496 0.17091 0.0
Dy1 Dy 1.04589 0.50503 0.16887 0.0
C2 C 0.06 0.54997 0.13307 0.0
O3 O 1.01685 0.58446 0.17337 0.0
O4 O 0.99695 0.52358 0.1633 0.0
O5 O 0.09481 0.64182 0.15417 0.0
O6 O 0.09278 0.64942 0.18463 0.0
O7 O 1.03971 0.5241 0.19805 0.0
O8 O 0.08522 0.57754 0.20043 0.0
O9 O 0.10589 0.51603 0.17221 0.0
O10 O 0.12379 0.57697 0.16545 0.0
O11 O 1.03818 0.45201 0.18064 0.0
O12 O 1.01569 0.4567 0.15197 0.0
C13 C 0.9906 0.55455 0.16774 0.0
O14 O 1.04911 0.57333 0.14255 0.0
O15 O 0.06773 0.52344 0.14172 0.0
C16 C 0.14016 0.69076 0.17009 0.0
C17 C 0.20814 0.74276 0.1718 0.0
C18 C 0.19914 0.71224 0.15891 0.0
C19 C 0.16553 0.68645 0.15808 0.0
C20 C 0.14909 0.72124 0.18288 0.0
C21 C 0.18264 0.74694 0.18373 0.0
C22 C 0.10397 0.66471 0.16896 0.0
C23 C 0.06265 0.55084 0.20833 0.0
C24 C 0.13097 0.54589 0.16816 0.0
C25 C 0.9813 0.41121 0.17014 0.0
C26 C 0.91292 0.3666 0.1765 0.0
C27 C 0.93267 0.39336 0.19036 0.0
C28 C 0.96646 0.41567 0.18716 0.0
C29 C 0.96151 0.38466 0.15625 0.0
C30 C 0.92757 0.36265 0.15935 0.0
C31 C 1.01627 0.43535 0.16607 0.0
H32 H 0.21821 0.70797 0.14966 0.0
H33 H 0.15949 0.6632 0.14802 0.0
H34 H 0.12997 0.72535 0.19215 0.0
H35 H 0.18846 0.77039 0.19363 0.0
H36 H 0.9218 0.39723 0.20361 0.0
H37 H 0.98083 0.43648 0.19795 0.0
H38 H 0.97227 0.3811 0.14292 0.0
H39 H 0.913 0.34209 0.14848 0.0
Dy40 Dy 0.55873 0.01569 0.51873 0.0
Dy41 Dy 0.64582 0.0476 0.52411 0.0
C42 C 0.59945 0.03542 0.55888 0.0
O43 O 0.56845 0.07433 0.5119 0.0
O44 O 0.62626 0.09615 0.52495 0.0
O45 O 0.51323 0.9931 0.53419 0.0
O46 O 0.50637 0.99854 0.50367 0.0
O47 O 0.63066 0.05173 0.49298 0.0
O48 O 0.57428 0.01102 0.48943 0.0
O49 O 0.63735 0.98815 0.51851 0.0
O50 O 0.57798 0.96708 0.5231 0.0
O51 O 0.69871 0.0596 0.51514 0.0
O52 O 0.6906 0.07795 0.54327 0.0
C53 C 0.59714 0.10151 0.51724 0.0
O54 O 0.5762 0.04386 0.54726 0.0
O55 O 0.62596 0.02714 0.55204 0.0
C56 C 0.46799 0.94619 0.51676 0.0
C57 C 0.41796 0.8761 0.51364 0.0
C58 C 0.43815 0.88912 0.53101 0.0
C59 C 0.46285 0.92393 0.53259 0.0
C60 C 0.44905 0.93226 0.49917 0.0
C61 C 0.42441 0.89754 0.49762 0.0
C62 C 0.49156 0.98431 0.51877 0.0
C63 C 0.60248 0.03182 0.48228 0.0
C64 C 0.60828 0.96136 0.5203 0.0
C65 C 0.73512 0.11776 0.5274 0.0
C66 C 0.77783 0.18966 0.52252 0.0
C67 C 0.74688 0.17393 0.51034 0.0
C68 C 0.72565 0.13828 0.51278 0.0
C69 C 0.76527 0.13378 0.53993 0.0
C70 C 0.78647 0.16939 0.53752 0.0
C71 C 0.71288 0.08043 0.53038 0.0
H72 H 0.4336 0.87317 0.54358 0.0
H73 H 0.47708 0.93377 0.54637 0.0
H74 H 0.45255 0.94858 0.48671 0.0
H75 H 0.40952 0.88783 0.48397 0.0
H76 H 0.73959 0.18881 0.49862 0.0
H77 H 0.702 0.12667 0.50318 0.0
H78 H 0.77248 0.11869 0.55158 0.0
H79 H 0.80975 0.18104 0.54736 0.0
Dy80 Dy 0.58606 0.52915 0.84339 0.0
Dy81 Dy 0.50489 0.49852 0.83531 0.0
C82 C 0.55192 0.51607 0.80095 0.0
O83 O 0.57135 0.57936 0.83604 0.0
O84 O 0.51204 0.55808 0.84002 0.0
O85 O 0.63761 0.56088 0.83616 0.0
O86 O 0.63216 0.52877 0.86155 0.0
O87 O 0.51718 0.49316 0.8669 0.0
O88 O 0.56647 0.54221 0.87045 0.0
O89 O 0.52387 0.45178 0.82819 0.0
O90 O 0.57306 0.46938 0.84866 0.0
O91 O 0.45246 0.48178 0.84467 0.0
O92 O 0.46079 0.47019 0.81537 0.0
C93 C 0.5406 0.58496 0.83748 0.0
O94 O 0.5759 0.50871 0.81267 0.0
O95 O 0.52487 0.52286 0.80802 0.0
C96 C 0.6685 0.51776 0.83941 0.0
C97 C 0.70667 0.47806 0.82266 0.0
C98 C 0.68126 0.4884 0.81124 0.0
C99 C 0.66305 0.50961 0.81957 0.0
C100 C 0.68632 0.49847 0.85095 0.0
C101 C 0.7039 0.47671 0.84243 0.0
C102 C 0.65206 0.54271 0.84807 0.0
C103 C 0.54071 0.51851 0.87794 0.0
C104 C 0.54975 0.44404 0.83781 0.0
C105 C 0.41452 0.49332 0.8201 0.0
C106 C 0.37082 0.53337 0.80593 0.0
C107 C 0.39342 0.54576 0.82265 0.0
C108 C 0.41516 0.52596 0.82966 0.0
C109 C 0.39401 0.48227 0.80267 0.0
C110 C 0.37227 0.50231 0.79556 0.0
C111 C 0.43814 0.47313 0.8272 0.0
H112 H 0.68142 0.48748 0.79585 0.0
H113 H 0.647 0.52167 0.81031 0.0
H114 H 0.68843 0.50196 0.86636 0.0
H115 H 0.72183 0.46647 0.85148 0.0
H116 H 0.39232 0.56914 0.83121 0.0
H117 H 0.43173 0.53583 0.84282 0.0
H118 H 0.39433 0.45783 0.7948 0.0
H119 H 0.35486 0.49228 0.78269 0.0
C120 C 0.62266 0.12674 0.21184 0.0
C121 C 0.64241 0.15285 0.22597 0.0
C122 C 0.682 0.18339 0.20264 0.0
C123 C 0.67177 0.18112 0.22137 0.0
C124 C 0.66187 0.15737 0.18854 0.0
C125 C 0.63241 0.12936 0.19311 0.0
U126 U 0.56923 0.06513 0.24778 0.0
O127 O 0.5118 0.03931 0.24773 0.0
O128 O 0.54731 1.00524 0.24678 0.0
C129 C 0.51445 0.00609 0.24604 0.0
C130 C 0.59283 0.09576 0.21649 0.0
C131 C 0.48937 0.98077 0.23178 0.0
C132 C 0.45479 0.9669 0.20093 0.0
C133 C 0.48038 0.99157 0.21361 0.0
C134 C 0.44823 0.92033 0.22421 0.0
C135 C 0.4384 0.93107 0.20619 0.0
C136 C 0.47337 0.94496 0.23687 0.0
C137 C 0.59935 0.08395 0.30137 0.0
C138 C 0.56586 0.0565 0.32761 0.0
C139 C 0.62832 0.08936 0.33346 0.0
C140 C 0.62973 0.09657 0.31413 0.0
C141 C 0.59633 0.06951 0.34054 0.0
C142 C 0.56737 0.0636 0.30817 0.0
C143 C 0.60205 0.09242 0.28112 0.0
O144 O 0.60171 0.06812 0.22363 0.0
O145 O 0.56814 0.10399 0.22538 0.0
O146 O 0.57642 0.10316 0.27266 0.0
O147 O 0.61179 0.06926 0.27049 0.0
H148 H 0.63542 0.15106 0.24056 0.0
H149 H 0.68705 0.20058 0.23255 0.0
H150 H 0.669 0.15865 0.17398 0.0
H151 H 0.6175 0.1094 0.18205 0.0
H152 H 0.4476 0.97581 0.18712 0.0
H153 H 0.49265 0.0191 0.20937 0.0
H154 H 0.43554 0.89315 0.22879 0.0
H155 H 0.47987 0.9362 0.25084 0.0
H156 H 0.54073 0.04135 0.33255 0.0
H157 H 0.65248 0.09915 0.34284 0.0
H158 H 0.6547 0.11205 0.30912 0.0
H159 H 0.5436 0.05343 0.29851 0.0
C160 C 0.60262 0.6241 0.53614 0.0
C161 C 0.58229 0.6403 0.54672 0.0
C162 C 0.60506 0.69788 0.53101 0.0
C163 C 0.58337 0.67672 0.54412 0.0
C164 C 0.62563 0.68141 0.52064 0.0
C165 C 0.62425 0.64499 0.52312 0.0
U166 U 0.59411 0.53435 0.56283 0.0
O167 O 0.56667 0.47818 0.55111 0.0
O168 O 0.62482 0.49568 0.55904 0.0
C169 C 0.59649 0.46981 0.55187 0.0
C170 C 0.601 0.5853 0.53769 0.0
C171 C 0.59785 0.43333 0.54569 0.0
C172 C 0.58203 0.38181 0.52244 0.0
C173 C 0.58071 0.41657 0.52814 0.0
C174 C 0.61788 0.38042 0.5517 0.0
C175 C 0.60011 0.36301 0.53433 0.0
C176 C 0.61687 0.41523 0.55725 0.0
C177 C 0.58322 0.54181 0.61861 0.0
C178 C 0.57541 0.50002 0.64472 0.0
C179 C 0.58175 0.56389 0.65112 0.0
C180 C 0.58473 0.57021 0.63179 0.0
C181 C 0.57733 0.52885 0.65802 0.0
C182 C 0.57843 0.50647 0.62515 0.0
C183 C 0.58681 0.55125 0.59842 0.0
O184 O 0.62803 0.57887 0.5473 0.0
O185 O 0.57039 0.56222 0.54099 0.0
O186 O 0.55981 0.5369 0.5857 0.0
O187 O 0.61771 0.55571 0.59176 0.0
H188 H 0.56529 0.62473 0.55683 0.0
H189 H 0.5667 0.68803 0.55219 0.0
H190 H 0.64317 0.6967 0.51069 0.0
H191 H 0.64011 0.63303 0.51477 0.0
H192 H 0.56806 0.36926 0.50899 0.0
H193 H 0.56633 0.43036 0.51883 0.0
H194 H 0.63257 0.36707 0.56107 0.0
H195 H 0.63052 0.4278 0.57077 0.0
H196 H 0.57214 0.47269 0.64947 0.0
H197 H 0.58253 0.58665 0.66068 0.0
H198 H 0.5882 0.59763 0.62707 0.0
H199 H 0.57717 0.48407 0.61522 0.0
C200 C 1.02419 0.56259 0.8671 0.0
C201 C 1.00389 0.57664 0.87882 0.0
C202 C 0.95935 0.5689 0.85258 0.0
C203 C 0.97182 0.58018 0.87154 0.0
C204 C 0.98039 0.55629 0.84062 0.0
C205 C 1.01286 0.55315 0.84791 0.0
U206 U 0.06987 0.54832 0.91178 0.0
O207 O 0.10653 0.51729 0.92042 0.0
O208 O 0.12323 0.57729 0.92458 0.0
C209 C 0.13312 0.54783 0.92259 0.0
C210 C 0.05553 0.5554 0.87573 0.0
C211 C 0.15942 0.55223 0.90883 0.0
C212 C 0.16925 0.54539 0.87561 0.0
C213 C 0.14879 0.5344 0.8907 0.0
C214 C 0.2114 0.59235 0.89641 0.0
C215 C 0.20065 0.57435 0.87839 0.0
C216 C 0.19083 0.58135 0.91158 0.0
C217 C 1.03535 0.55369 0.95688 0.0
C218 C 0.07818 0.54983 0.98249 0.0
C219 C 1.03146 0.57638 0.98852 0.0
C220 C 1.01868 0.57048 0.96936 0.0
C221 C 0.06113 0.56595 0.99502 0.0
C222 C 0.06537 0.54378 0.96345 0.0
C223 C 1.02607 0.55184 0.93651 0.0
O224 O 0.07549 0.58247 0.88711 0.0
O225 O 1.04944 0.52319 0.88317 0.0
O226 O 1.0248 0.52072 0.92775 0.0
O227 O 1.04477 0.58087 0.92838 0.0
H228 H 1.01227 0.58372 0.89379 0.0
H229 H 0.95599 0.59 0.88096 0.0
H230 H 0.97083 0.5468 0.82601 0.0
H231 H 1.02829 0.54197 0.83885 0.0
H232 H 0.16093 0.5307 0.86188 0.0
H233 H 0.12393 0.51282 0.8879 0.0
H234 H 0.23577 0.61472 0.89872 0.0
H235 H 0.19855 0.59651 0.9252 0.0
H236 H 0.10068 0.54107 0.98755 0.0
H237 H 1.01786 0.58828 0.99837 0.0
H238 H 0.99617 0.57917 0.96429 0.0
H239 H 0.07911 0.53168 0.9538 0.0
C240 C 1.00536 0.48787 0.47835 0.0
C241 C 0.97455 0.47307 0.466 0.0
C242 C 0.9517 0.42605 0.48845 0.0
C243 C 0.94787 0.44251 0.47105 0.0
C244 C 0.98284 0.44097 0.50063 0.0
C245 C 1.0093 0.4716 0.49564 0.0
U246 U 0.05697 0.54856 0.44158 0.0
O247 O 0.0818 0.60825 0.44239 0.0
O248 O 0.11426 0.57119 0.44024 0.0
C249 C 0.11379 0.60514 0.44206 0.0
C250 C 1.03412 0.51954 0.47331 0.0
C251 C 0.14168 0.62924 0.45544 0.0
C252 C 0.18077 0.64015 0.48481 0.0
C253 C 0.15049 0.61862 0.4737 0.0
C254 C 0.1923 0.68353 0.45983 0.0
C255 C 0.20252 0.67213 0.4776 0.0
C256 C 0.16218 0.66227 0.44887 0.0
C257 C 1.03021 0.52602 0.38841 0.0
C258 C 0.06244 0.56178 0.36387 0.0
C259 C 1.01659 0.50469 0.35519 0.0
C260 C 1.01032 0.50008 0.37435 0.0
C261 C 1.04286 0.53544 0.34975 0.0
C262 C 0.05629 0.557 0.38311 0.0
C263 C 1.02441 0.51933 0.40854 0.0
O264 O 0.05923 0.51157 0.46472 0.0
O265 O 1.02448 0.54643 0.46567 0.0
O266 O 1.0157 0.54461 0.41814 0.0
O267 O 1.04823 0.50746 0.41804 0.0
H268 H 0.97114 0.4851 0.45249 0.0
H269 H 0.92416 0.43198 0.46139 0.0
H270 H 0.98712 0.42862 0.51392 0.0
H271 H 1.03308 0.48244 0.50523 0.0
H272 H 0.18808 0.631 0.49853 0.0
H273 H 0.1348 0.59315 0.47901 0.0
H274 H 0.20832 0.70845 0.45414 0.0
H275 H 0.15568 0.67094 0.43487 0.0
H276 H 0.08298 0.58561 0.36007 0.0
H277 H 1.00076 0.48423 0.3446 0.0
H278 H 0.99014 0.47601 0.37822 0.0
H279 H 0.07211 0.57719 0.39384 0.0
C280 C 0.52424 0.91377 0.81828 0.0
C281 C 0.52336 0.89169 0.802 0.0
C282 C 0.52609 0.84137 0.82208 0.0
C283 C 0.52419 0.85567 0.80388 0.0
C284 C 0.52687 0.8638 0.83826 0.0
C285 C 0.526 0.8996 0.83636 0.0
U286 U 0.53125 1.00469 0.79324 0.0
O287 O 0.50195 0.04381 0.79932 0.0
O288 O 0.56004 0.05915 0.80631 0.0
C289 C 0.53072 0.06789 0.80745 0.0
C290 C 0.5241 0.95187 0.81715 0.0
C291 C 0.53246 0.10636 0.81021 0.0
C292 C 0.53151 0.15541 0.83232 0.0
C293 C 0.52781 0.11864 0.82842 0.0
C294 C 0.54391 0.16816 0.79959 0.0
C295 C 0.53981 0.18074 0.818 0.0
C296 C 0.54037 0.13118 0.79573 0.0
C297 C 0.54845 1.00236 0.73808 0.0
C298 C 0.53812 0.0318 0.7088 0.0
C299 C 0.57434 0.99112 0.7093 0.0
C300 C 0.56933 0.98541 0.72849 0.0
C301 C 0.55837 0.01385 0.69903 0.0
C302 C 0.53305 0.02597 0.72819 0.0
C303 C 0.5413 0.99144 0.75771 0.0
O304 O 0.55461 0.9758 0.81462 0.0
O305 O 0.49722 0.95777 0.80709 0.0
O306 O 0.50983 0.98828 0.76343 0.0
O307 O 0.56733 1.00274 0.77128 0.0
H308 H 0.52224 0.90234 0.78792 0.0
H309 H 0.52393 0.83924 0.79114 0.0
H310 H 0.52782 0.8536 0.85245 0.0
H311 H 0.52675 0.91632 0.84908 0.0
H312 H 0.52867 0.16409 0.84669 0.0
H313 H 0.52196 0.0998 0.83981 0.0
H314 H 0.54978 0.18686 0.78817 0.0
H315 H 0.54408 0.12208 0.7816 0.0
H316 H 0.52535 0.04944 0.70135 0.0
H317 H 0.59073 0.97745 0.70249 0.0
H318 H 0.58126 0.9669 0.7358 0.0
H319 H 0.51664 0.03921 0.73528 0.0
C320 C 0.65348 0.55011 0.14013 0.0
C321 C 0.6736 0.54938 0.12462 0.0
C322 C 0.72738 0.55202 0.14614 0.0
C323 C 0.70979 0.55053 0.12755 0.0
C324 C 0.70641 0.55232 0.16151 0.0
C325 C 0.67065 0.55168 0.15854 0.0
U326 U 0.55183 0.54593 0.12084 0.0
O327 O 0.50573 0.51701 0.13645 0.0
O328 O 0.52095 0.57635 0.13551 0.0
C329 C 0.49846 0.54693 0.14147 0.0
C330 C 0.61494 0.5492 0.13823 0.0
C331 C 0.46008 0.54555 0.14246 0.0
C332 C 0.41001 0.53735 0.16222 0.0
C333 C 0.44517 0.53802 0.15993 0.0
C334 C 0.40294 0.55226 0.12945 0.0
C335 C 0.38767 0.54482 0.14715 0.0
C336 C 0.4383 0.5525 0.12715 0.0
C337 C 0.54209 0.53861 0.06271 0.0
C338 C 0.51308 0.53109 0.03033 0.0
C339 C 0.57611 0.54008 0.03513 0.0
C340 C 0.57454 0.54211 0.05508 0.0
C341 C 0.5453 0.53456 0.0226 0.0
C342 C 0.51153 0.5331 0.05012 0.0
C343 C 0.53833 0.54101 0.08348 0.0
O344 O 0.60605 0.57811 0.13293 0.0
O345 O 0.58983 0.51847 0.13338 0.0
O346 O 0.53487 0.51225 0.09381 0.0
O347 O 0.55138 0.5724 0.09325 0.0
H348 H 0.66147 0.54812 0.1102 0.0
H349 H 0.72379 0.55068 0.11501 0.0
H350 H 0.71702 0.55249 0.17611 0.0
H351 H 0.65614 0.55218 0.1709 0.0
H352 H 0.40074 0.53044 0.17604 0.0
H353 H 0.46098 0.53259 0.17211 0.0
H354 H 0.38805 0.55856 0.11721 0.0
H355 H 0.44866 0.55847 0.11341 0.0
H356 H 0.48903 0.52687 0.02102 0.0
H357 H 0.60129 0.54279 0.02947 0.0
H358 H 0.59849 0.54642 0.06448 0.0
H359 H 0.48623 0.53046 0.05563 0.0
C360 C 0.17666 0.51182 0.16339 0.0
C361 C 0.16845 0.54485 0.16557 0.0
C362 C 0.21138 0.51112 0.16004 0.0
C363 C 0.23944 0.5442 0.15906 0.0
C364 C 0.2313 0.57757 0.16143 0.0
C365 C 0.19635 0.57747 0.16446 0.0
C366 C 0.21804 0.47473 0.15757 0.0
C367 C 0.25962 0.61372 0.16061 0.0
C368 C 0.33751 0.54576 0.16851 0.0
C369 C 0.34936 0.54481 0.15007 0.0
C370 C 0.30228 0.54482 0.17152 0.0
C371 C 0.27722 0.54407 0.15587 0.0
C372 C 0.28879 0.54395 0.13726 0.0
C373 C 0.32394 0.54376 0.1346 0.0
C374 C 0.29186 0.54473 0.19169 0.0
C375 C 0.26376 0.54361 0.11994 0.0
H376 H 0.15575 0.48629 0.16401 0.0
H377 H 0.19093 0.60335 0.16603 0.0
H378 H 0.23056 0.47341 0.14413 0.0
H379 H 0.23674 0.47155 0.16948 0.0
H380 H 0.19331 0.45148 0.15725 0.0
H381 H 0.24974 0.6373 0.16351 0.0
H382 H 0.28233 0.61526 0.17117 0.0
H383 H 0.26969 0.61615 0.14629 0.0
H384 H 0.35567 0.5477 0.18099 0.0
H385 H 0.33103 0.54245 0.12016 0.0
H386 H 0.26929 0.52008 0.19346 0.0
H387 H 0.28291 0.56887 0.19464 0.0
H388 H 0.31395 0.54507 0.20246 0.0
H389 H 0.24291 0.51678 0.11825 0.0
H390 H 0.27752 0.54834 0.10666 0.0
H391 H 0.25035 0.56484 0.12173 0.0
C392 C 0.7891 0.25541 0.51444 0.0
C393 C 0.80215 0.22619 0.51896 0.0
C394 C 0.81207 0.28945 0.51019 0.0
C395 C 0.84881 0.29414 0.51025 0.0
C396 C 0.86212 0.26492 0.51515 0.0
C397 C 0.83867 0.23139 0.51948 0.0
C398 C 0.79701 0.32018 0.50534 0.0
C399 C 0.90114 0.26889 0.51554 0.0
C400 C 0.90576 0.36542 0.4801 0.0
C401 C 0.92375 0.39313 0.49384 0.0
C402 C 0.88056 0.33355 0.48519 0.0
C403 C 0.87338 0.32905 0.50452 0.0
C404 C 0.89105 0.35707 0.51843 0.0
C405 C 0.91573 0.38888 0.51289 0.0
C406 C 0.86227 0.30424 0.46994 0.0
C407 C 0.88401 0.35352 0.53918 0.0
H408 H 0.76093 0.25165 0.51424 0.0
H409 H 0.84887 0.20882 0.52278 0.0
H410 H 0.81106 0.34494 0.51451 0.0
H411 H 0.80112 0.32734 0.49034 0.0
H412 H 0.76825 0.31291 0.50714 0.0
H413 H 0.90719 0.24347 0.51957 0.0
H414 H 0.91053 0.27619 0.5013 0.0
H415 H 0.91638 0.29137 0.52587 0.0
H416 H 0.91201 0.36815 0.46539 0.0
H417 H 0.92883 0.41046 0.52356 0.0
H418 H 0.83313 0.29784 0.4699 0.0
H419 H 0.86894 0.27877 0.47306 0.0
H420 H 0.86992 0.31241 0.45548 0.0
H421 H 0.85697 0.355 0.5409 0.0
H422 H 0.90322 0.37545 0.5485 0.0
H423 H 0.88522 0.32669 0.54417 0.0
C424 C 0.56035 0.64687 0.82421 0.0
C425 C 0.53779 0.62228 0.8355 0.0
C426 C 0.5574 0.68204 0.82171 0.0
C427 C 0.532 0.69329 0.83118 0.0
C428 C 0.50941 0.66868 0.84278 0.0
C429 C 0.5122 0.63324 0.84455 0.0
C430 C 0.58143 0.70715 0.80888 0.0
C431 C 0.48238 0.67979 0.85337 0.0
C432 C 0.55014 0.79575 0.83889 0.0
C433 C 0.52744 0.80332 0.82434 0.0
C434 C 0.55136 0.76002 0.84149 0.0
C435 C 0.52958 0.73104 0.82915 0.0
C436 C 0.50644 0.7384 0.81451 0.0
C437 C 0.5057 0.77445 0.81226 0.0
C438 C 0.57618 0.75333 0.85738 0.0
C439 C 0.48291 0.70834 0.80098 0.0
H440 H 0.57988 0.63834 0.81699 0.0
H441 H 0.49474 0.6143 0.8533 0.0
H442 H 0.56547 0.7171 0.79786 0.0
H443 H 0.5989 0.73143 0.81736 0.0
H444 H 0.59825 0.69351 0.80163 0.0
H445 H 0.46849 0.65831 0.86278 0.0
H446 H 0.49537 0.70528 0.86221 0.0
H447 H 0.46241 0.68554 0.84303 0.0
H448 H 0.56737 0.81792 0.84814 0.0
H449 H 0.48778 0.77997 0.80114 0.0
H450 H 0.5967 0.74339 0.85127 0.0
H451 H 0.56143 0.73179 0.86649 0.0
H452 H 0.5896 0.77837 0.86651 0.0
H453 H 0.4995 0.69824 0.79161 0.0
H454 H 0.46356 0.71777 0.79187 0.0
H455 H 0.46817 0.68489 0.80898 0.0
C456 C 0.94365 0.58751 0.16162 0.0
C457 C 0.95242 0.55536 0.16565 0.0
C458 C 0.90783 0.58764 0.15843 0.0
C459 C 0.87932 0.5551 0.15986 0.0
C460 C 0.88815 0.52285 0.16452 0.0
C461 C 0.92411 0.52324 0.16698 0.0
C462 C 0.90057 0.62277 0.15331 0.0
C463 C 0.85948 0.48764 0.16695 0.0
C464 C 0.78631 0.56372 0.16764 0.0
C465 C 0.76671 0.55311 0.14961 0.0
C466 C 0.82213 0.56388 0.17119 0.0
C467 C 0.84053 0.55458 0.15633 0.0
C468 C 0.8215 0.5445 0.13808 0.0
C469 C 0.78532 0.54342 0.13504 0.0
C470 C 0.84028 0.57391 0.19107 0.0
C471 C 0.83964 0.53533 0.12148 0.0
H472 H 0.96489 0.61257 0.16042 0.0
H473 H 0.93009 0.49815 0.1702 0.0
H474 H 0.88087 0.61803 0.1407 0.0
H475 H 0.88919 0.63304 0.16533 0.0
H476 H 0.92496 0.64429 0.15017 0.0
H477 H 0.8704 0.46564 0.17195 0.0
H478 H 0.84147 0.49215 0.17737 0.0
H479 H 0.84334 0.47818 0.15318 0.0
H480 H 0.77409 0.57241 0.17927 0.0
H481 H 0.7718 0.53457 0.12105 0.0
H482 H 0.86235 0.59965 0.19103 0.0
H483 H 0.85186 0.55237 0.19599 0.0
H484 H 0.82192 0.5776 0.20151 0.0
H485 H 0.86113 0.55991 0.1182 0.0
H486 H 0.82112 0.52587 0.10845 0.0
H487 H 0.85206 0.51381 0.12517 0.0
C488 C 0.35492 0.84284 0.5041 0.0
C489 C 0.38777 0.84215 0.51253 0.0
C490 C 0.32597 0.81121 0.50192 0.0
C491 C 0.32987 0.77789 0.50839 0.0
C492 C 0.36254 0.77723 0.51777 0.0
C493 C 0.39126 0.80955 0.51976 0.0
C494 C 0.29153 0.81333 0.49202 0.0
C495 C 0.36751 0.74227 0.52501 0.0
C496 C 0.23983 0.70712 0.50636 0.0
C497 C 0.23712 0.69287 0.48761 0.0
C498 C 0.27155 0.7325 0.5143 0.0
C499 C 0.30075 0.74366 0.50313 0.0
C500 C 0.29898 0.7265 0.48493 0.0
C501 C 0.26717 0.70131 0.47742 0.0
C502 C 0.27293 0.74948 0.53399 0.0
C503 C 0.32941 0.7374 0.47251 0.0
H504 H 0.35193 0.86828 0.49901 0.0
H505 H 0.41664 0.80909 0.52643 0.0
H506 H 0.28461 0.79549 0.47879 0.0
H507 H 0.26979 0.80341 0.50138 0.0
H508 H 0.29284 0.84156 0.48817 0.0
H509 H 0.39256 0.74729 0.53432 0.0
H510 H 0.34502 0.72775 0.53311 0.0
H511 H 0.36806 0.72385 0.51276 0.0
H512 H 0.21665 0.70023 0.51432 0.0
H513 H 0.26521 0.68958 0.46306 0.0
H514 H 0.27167 0.77783 0.53282 0.0
H515 H 0.29823 0.751 0.54234 0.0
H516 H 0.25057 0.73393 0.54193 0.0
H517 H 0.33154 0.7648 0.46705 0.0
H518 H 0.32574 0.71783 0.4601 0.0
H519 H 0.35479 0.73924 0.48083 0.0
C520 C 0.53219 0.38309 0.82079 0.0
C521 C 0.55228 0.40654 0.83587 0.0
C522 C 0.53272 0.34698 0.81874 0.0
C523 C 0.55365 0.3337 0.83218 0.0
C524 C 0.57446 0.35731 0.84731 0.0
C525 C 0.57377 0.39368 0.84889 0.0
C526 C 0.51036 0.32286 0.8023 0.0
C527 C 0.59706 0.34402 0.86191 0.0
C528 C 0.52215 0.23061 0.83432 0.0
C529 C 0.54457 0.22011 0.82244 0.0
C530 C 0.52606 0.26759 0.83845 0.0
C531 C 0.55281 0.2948 0.83036 0.0
C532 C 0.57615 0.28448 0.81882 0.0
C533 C 0.57176 0.24728 0.815 0.0
C534 C 0.50072 0.27751 0.85089 0.0
C535 C 0.60484 0.31267 0.80983 0.0
H536 H 0.51585 0.39294 0.8105 0.0
H537 H 0.58946 0.41175 0.86051 0.0
H538 H 0.52692 0.31063 0.79398 0.0
H539 H 0.48967 0.30008 0.80786 0.0
H540 H 0.49716 0.33802 0.79249 0.0
H541 H 0.61062 0.36536 0.87322 0.0
H542 H 0.58052 0.31979 0.86873 0.0
H543 H 0.61737 0.33536 0.8548 0.0
H544 H 0.50087 0.20989 0.84002 0.0
H545 H 0.58964 0.23947 0.80614 0.0
H546 H 0.48303 0.2896 0.84213 0.0
H547 H 0.51546 0.29834 0.86216 0.0
H548 H 0.48406 0.25342 0.85779 0.0
H549 H 0.59263 0.32494 0.79809 0.0
H550 H 0.62415 0.30064 0.80385 0.0
H551 H 0.61934 0.33508 0.82036 0.0
C552 C 0.57788 0.89417 0.51559 0.0
C553 C 0.60933 0.92302 0.51961 0.0
C554 C 0.5778 0.8576 0.51578 0.0
C555 C 0.60986 0.84949 0.52042 0.0
C556 C 0.6419 0.87848 0.52387 0.0
C557 C 0.6413 0.9149 0.52329 0.0
C558 C 0.54319 0.82762 0.51154 0.0
C559 C 0.67674 0.87098 0.52848 0.0
C560 C 0.60341 0.75936 0.54357 0.0
C561 C 0.60644 0.73687 0.5282 0.0
C562 C 0.60444 0.79588 0.54116 0.0
C563 C 0.60939 0.81084 0.52301 0.0
C564 C 0.61307 0.78864 0.50746 0.0
C565 C 0.61106 0.7519 0.51018 0.0
C566 C 0.60016 0.81852 0.55809 0.0
C567 C 0.61844 0.80335 0.48785 0.0
H568 H 0.55313 0.90016 0.51236 0.0
H569 H 0.66575 0.937 0.52626 0.0
H570 H 0.54557 0.80849 0.50005 0.0
H571 H 0.5366 0.81166 0.52441 0.0
H572 H 0.52095 0.83844 0.50707 0.0
H573 H 0.6992 0.89649 0.53119 0.0
H574 H 0.67538 0.85439 0.54127 0.0
H575 H 0.68217 0.85488 0.51646 0.0
H576 H 0.60057 0.7486 0.55765 0.0
H577 H 0.61269 0.73487 0.49803 0.0
H578 H 0.57717 0.82887 0.55492 0.0
H579 H 0.62398 0.84264 0.56094 0.0
H580 H 0.5961 0.8028 0.57121 0.0
H581 H 0.59296 0.80542 0.48113 0.0
H582 H 0.62789 0.78534 0.47842 0.0
H583 H 0.63776 0.83112 0.48868 0.0
C584 C 0.76545 0.47413 0.81533 0.0
C585 C 0.74284 0.49493 0.81809 0.0
C586 C 0.80204 0.49089 0.81736 0.0
C587 C 0.81531 0.52828 0.82349 0.0
C588 C 0.79244 0.54973 0.8251 0.0
C589 C 0.75635 0.53294 0.8216 0.0
C590 C 0.82632 0.46787 0.8149 0.0
C591 C 0.8055 0.58889 0.83301 0.0
C592 C 0.89604 0.54682 0.85773 0.0
C593 C 0.92245 0.5646 0.84617 0.0
C594 C 0.86064 0.53622 0.85068 0.0
C595 C 0.85196 0.54308 0.83156 0.0
C596 C 0.87817 0.5631 0.82024 0.0
C597 C 0.91343 0.57382 0.82777 0.0
C598 C 0.83285 0.51624 0.86342 0.0
C599 C 0.86938 0.57106 0.79986 0.0
H600 H 0.75469 0.44479 0.81281 0.0
H601 H 0.73849 0.54877 0.82403 0.0
H602 H 0.85043 0.48351 0.80831 0.0
H603 H 0.8348 0.45973 0.82908 0.0
H604 H 0.81285 0.44264 0.80592 0.0
H605 H 0.78424 0.60226 0.83221 0.0
H606 H 0.81567 0.58953 0.84821 0.0
H607 H 0.82769 0.60521 0.82527 0.0
H608 H 0.90312 0.53938 0.87192 0.0
H609 H 0.93408 0.588 0.81904 0.0
H610 H 0.82185 0.48718 0.85835 0.0
H611 H 0.81059 0.52813 0.86291 0.0
H612 H 0.84379 0.51719 0.87852 0.0
H613 H 0.86369 0.54561 0.7908 0.0
H614 H 0.89159 0.59227 0.7943 0.0
H615 H 0.8454 0.5802 0.79845 0.0
C616 C 0.26141 0.7821 0.15685 0.0
C617 C 0.24409 0.76993 0.17322 0.0
C618 C 0.29487 0.80872 0.15829 0.0
C619 C 0.31125 0.82348 0.17651 0.0
C620 C 0.29408 0.81085 0.19303 0.0
C621 C 0.26095 0.78418 0.19118 0.0
C622 C 0.31269 0.82092 0.14038 0.0
C623 C 0.31055 0.82581 0.21277 0.0
C624 C 0.4083 0.86898 0.19093 0.0
C625 C 0.40895 0.90539 0.19392 0.0
C626 C 0.37738 0.84234 0.18322 0.0
C627 C 0.34624 0.85229 0.17878 0.0
C628 C 0.34773 0.8896 0.18014 0.0
C629 C 0.37923 0.91581 0.18759 0.0
C630 C 0.37725 0.80308 0.18146 0.0
C631 C 0.31523 0.90141 0.17529 0.0
H632 H 0.24854 0.77131 0.14289 0.0
H633 H 0.24822 0.77434 0.20392 0.0
H634 H 0.31966 0.85102 0.13966 0.0
H635 H 0.33777 0.81378 0.14063 0.0
H636 H 0.29572 0.80806 0.12725 0.0
H637 H 0.2936 0.81325 0.22414 0.0
H638 H 0.33656 0.82085 0.21551 0.0
H639 H 0.3153 0.85579 0.21383 0.0
H640 H 0.43149 0.861 0.19555 0.0
H641 H 0.37973 0.94397 0.18984 0.0
H642 H 0.3627 0.78975 0.16783 0.0
H643 H 0.36347 0.78784 0.19324 0.0
H644 H 0.40451 0.80074 0.18221 0.0
H645 H 0.30419 0.89211 0.16044 0.0
H646 H 0.32097 0.93152 0.17675 0.0
H647 H 0.29449 0.88855 0.18482 0.0
C648 C 0.62922 0.16836 0.51843 0.0
C649 C 0.59711 0.13996 0.51549 0.0
C650 C 0.63 0.20509 0.51877 0.0
C651 C 0.59787 0.21384 0.51615 0.0
C652 C 0.56559 0.18545 0.51195 0.0
C653 C 0.56557 0.14879 0.51166 0.0
C654 C 0.66511 0.2344 0.523 0.0
C655 C 0.53094 0.19383 0.50849 0.0
C656 C 0.59455 0.29898 0.54334 0.0
C657 C 0.5992 0.32479 0.52923 0.0
C658 C 0.59395 0.26295 0.53915 0.0
C659 C 0.59764 0.25202 0.52028 0.0
C660 C 0.60185 0.2777 0.50583 0.0
C661 C 0.60271 0.31384 0.51049 0.0
C662 C 0.58957 0.23656 0.55503 0.0
C663 C 0.6063 0.26736 0.48557 0.0
H664 H 0.65392 0.16196 0.52096 0.0
H665 H 0.54072 0.1271 0.50909 0.0
H666 H 0.66805 0.25607 0.51256 0.0
H667 H 0.66618 0.24738 0.53737 0.0
H668 H 0.68791 0.22336 0.52264 0.0
H669 H 0.50838 0.16889 0.5045 0.0
H670 H 0.52543 0.20714 0.52153 0.0
H671 H 0.53266 0.21329 0.49692 0.0
H672 H 0.59106 0.30688 0.55775 0.0
H673 H 0.60668 0.33366 0.49951 0.0
H674 H 0.61255 0.22577 0.55656 0.0
H675 H 0.56552 0.21294 0.55152 0.0
H676 H 0.58728 0.24943 0.56896 0.0
H677 H 0.63364 0.26606 0.48469 0.0
H678 H 0.6018 0.28759 0.47542 0.0
H679 H 0.58787 0.24001 0.48098 0.0
C680 C 0.34373 0.58346 0.80625 0.0
C681 C 0.33975 0.54627 0.80311 0.0
C682 C 0.31717 0.59434 0.81421 0.0
C683 C 0.2866 0.56721 0.81896 0.0
C684 C 0.28028 0.53024 0.81296 0.0
C685 C 0.30682 0.52037 0.80451 0.0
C686 C 0.32426 0.63398 0.82033 0.0
C687 C 0.24816 0.50034 0.81808 0.0
C688 C 0.25827 0.57686 0.86779 0.0
C689 C 0.22488 0.58092 0.86341 0.0
C690 C 0.27915 0.57345 0.85336 0.0
C691 C 0.26661 0.57561 0.83414 0.0
C692 C 0.2339 0.58223 0.82967 0.0
C693 C 0.21298 0.5844 0.84447 0.0
C694 C 0.31303 0.56427 0.8587 0.0
C695 C 0.2205 0.58521 0.80929 0.0
H696 H 0.36926 0.60341 0.80497 0.0
H697 H 0.30375 0.49161 0.80191 0.0
H698 H 0.29994 0.6423 0.81767 0.0
H699 H 0.3323 0.63791 0.83588 0.0
H700 H 0.3458 0.65217 0.81278 0.0
H701 H 0.2491 0.47265 0.81381 0.0
H702 H 0.24592 0.50136 0.83369 0.0
H703 H 0.22381 0.50422 0.8109 0.0
H704 H 0.26682 0.57329 0.88244 0.0
H705 H 0.18686 0.58732 0.84124 0.0
H706 H 0.33572 0.58395 0.85272 0.0
H707 H 0.31075 0.53666 0.85263 0.0
H708 H 0.31907 0.56452 0.8744 0.0
H709 H 0.241 0.60561 0.80214 0.0
H710 H 0.19577 0.59314 0.80834 0.0
H711 H 0.21522 0.55869 0.80127 0.0
C712 C 0.87311 0.32423 0.19734 0.0
C713 C 0.87763 0.34205 0.18015 0.0
C714 C 0.84044 0.29948 0.20072 0.0
C715 C 0.81143 0.29275 0.18667 0.0
C716 C 0.81561 0.31129 0.16943 0.0
C717 C 0.84877 0.3356 0.16633 0.0
C718 C 0.83726 0.27977 0.21913 0.0
C719 C 0.78508 0.3055 0.1543 0.0
C720 C 0.73937 0.20209 0.18774 0.0
C721 C 0.71439 0.21185 0.19794 0.0
C722 C 0.77079 0.22826 0.18372 0.0
C723 C 0.77718 0.26523 0.18982 0.0
C724 C 0.75164 0.27543 0.19969 0.0
C725 C 0.72067 0.24853 0.20382 0.0
C726 C 0.7975 0.21621 0.1733 0.0
C727 C 0.75727 0.31467 0.20613 0.0
H728 H 0.8955 0.3289 0.20795 0.0
H729 H 0.85214 0.34972 0.15312 0.0
H730 H 0.81529 0.28413 0.22668 0.0
H731 H 0.83088 0.24996 0.21597 0.0
H732 H 0.86199 0.28899 0.22884 0.0
H733 H 0.79314 0.32068 0.14133 0.0
H734 H 0.77359 0.27604 0.15013 0.0
H735 H 0.76385 0.31469 0.16012 0.0
H736 H 0.73473 0.1737 0.18333 0.0
H737 H 0.70122 0.25619 0.21154 0.0
H738 H 0.82289 0.22254 0.18239 0.0
H739 H 0.80296 0.23143 0.16011 0.0
H740 H 0.78832 0.18649 0.16935 0.0
H741 H 0.77999 0.32358 0.21719 0.0
H742 H 0.73358 0.31859 0.21216 0.0
H743 H 0.76386 0.33271 0.194 0.0
C744 C 0.09268 0.54268 0.10564 0.0
C745 C 0.06752 0.55629 0.11338 0.0
C746 C 0.09979 0.54818 0.08667 0.0
C747 C 0.08065 0.56701 0.07541 0.0
C748 C 0.05648 0.58234 0.08345 0.0
C749 C 1.05036 0.57695 0.10252 0.0
C750 C 0.12633 0.53239 0.07845 0.0
C751 C 1.03502 0.60188 0.07161 0.0
C752 C 0.09612 0.5941 0.02515 0.0
C753 C 0.06993 0.56533 0.0153 0.0
C754 C 0.10186 0.59407 0.045 0.0
C755 C 0.08052 0.5648 0.05466 0.0
C756 C 0.05538 0.53485 0.04445 0.0
C757 C 1.05053 0.5355 0.02475 0.0
C758 C 0.12921 0.62594 0.05569 0.0
C759 C 1.03205 0.50321 0.05436 0.0
H760 H 0.10663 0.52755 0.11435 0.0
H761 H 1.03114 0.58769 0.1087 0.0
H762 H 0.11259 0.51016 0.06767 0.0
H763 H 0.1456 0.55366 0.07108 0.0
H764 H 0.14104 0.52117 0.08958 0.0
H765 H 1.02059 0.61576 0.08055 0.0
H766 H 1.05227 0.62249 0.06297 0.0
H767 H 1.01534 0.58184 0.06156 0.0
H768 H 0.11118 0.61683 0.01742 0.0
H769 H 1.03065 0.51328 0.0167 0.0
H770 H 0.1458 0.61611 0.06642 0.0
H771 H 0.11577 0.64252 0.06354 0.0
H772 H 0.14666 0.64388 0.04597 0.0
H773 H 1.0485 0.49062 0.06369 0.0
H774 H 1.01462 0.48173 0.0441 0.0
H775 H 1.0151 0.51317 0.06355 0.0
C776 C 0.62558 0.02745 0.45058 0.0
C777 C 0.60067 0.03548 0.46147 0.0
C778 C 0.6233 0.03044 0.43066 0.0
C779 C 0.59633 0.04318 0.42163 0.0
C780 C 0.57125 0.05148 0.43271 0.0
C781 C 0.57337 0.04689 0.45246 0.0
C782 C 0.64996 0.02037 0.4193 0.0
C783 C 0.54251 0.06577 0.42377 0.0
C784 C 0.61466 0.09014 0.37493 0.0
C785 C 0.59513 0.0628 0.36133 0.0
C786 C 0.61525 0.08402 0.39452 0.0
C787 C 0.59554 0.0498 0.40081 0.0
C788 C 0.57511 0.02227 0.38724 0.0
C789 C 0.57524 0.02904 0.36767 0.0
C790 C 0.63699 0.11429 0.40851 0.0
C791 C 0.55371 0.9854 0.39337 0.0
H792 H 0.64646 0.01827 0.45761 0.0
H793 H 0.55416 0.05313 0.46099 0.0
H794 H 0.63629 1.00154 0.40699 0.0
H795 H 0.66744 0.04529 0.41349 0.0
H796 H 0.66669 0.00713 0.42808 0.0
H797 H 0.526 0.07236 0.4345 0.0
H798 H 0.55438 0.09076 0.41605 0.0
H799 H 0.52506 0.04516 0.41314 0.0
H800 H 0.62947 0.1166 0.37027 0.0
H801 H 0.56034 0.00758 0.35732 0.0
H802 H 0.65706 0.10502 0.41706 0.0
H803 H 0.61968 0.12135 0.41859 0.0
H804 H 0.65083 0.13935 0.40131 0.0
H805 H 0.57181 0.97102 0.39989 0.0
H806 H 0.53712 0.96798 0.38123 0.0
H807 H 0.53623 0.98864 0.40437 0.0
C808 C 0.57922 0.50051 0.77201 0.0
C809 C 0.55503 0.51568 0.77988 0.0
C810 C 0.58244 0.49976 0.75219 0.0
C811 C 0.5615 0.5152 0.73979 0.0
C812 C 0.53697 0.5305 0.74764 0.0
C813 C 0.53383 0.53027 0.76749 0.0
C814 C 0.6087 0.48286 0.74456 0.0
C815 C 0.51433 0.54759 0.73507 0.0
C816 C 0.59597 0.55021 0.69244 0.0
C817 C 0.57481 0.52333 0.67901 0.0
C818 C 0.59205 0.54768 0.7121 0.0
C819 C 0.5666 0.51723 0.71882 0.0
C820 C 0.54587 0.48934 0.70544 0.0
C821 C 0.55023 0.49268 0.68575 0.0
C822 C 0.61473 0.57818 0.72567 0.0
C823 C 0.51883 0.45609 0.71193 0.0
H824 H 0.59563 0.48893 0.78135 0.0
H825 H 0.51507 0.5421 0.77334 0.0
H826 H 0.59587 0.46312 0.73246 0.0
H827 H 0.63061 0.50444 0.73906 0.0
H828 H 0.62016 0.46853 0.75566 0.0
H829 H 0.49698 0.5589 0.74333 0.0
H830 H 0.5314 0.56992 0.72724 0.0
H831 H 0.49748 0.52696 0.72426 0.0
H832 H 0.61564 0.57362 0.68754 0.0
H833 H 0.53364 0.47176 0.6756 0.0
H834 H 0.63015 0.56719 0.7365 0.0
H835 H 0.59764 0.59068 0.73341 0.0
H836 H 0.63347 0.5999 0.71823 0.0
H837 H 0.53232 0.44054 0.72127 0.0
H838 H 0.50359 0.4377 0.69976 0.0
H839 H 0.50002 0.46443 0.72048 0.0
C840 C 0.62235 0.03863 0.59342 0.0
C841 C 0.59391 0.03326 0.57946 0.0
C842 C 0.61676 0.0371 0.61295 0.0
C843 C 0.58183 0.02903 0.61856 0.0
C844 C 0.55305 0.02314 0.60444 0.0
C845 C 0.55949 0.02579 0.58513 0.0
C846 C 0.64816 0.04384 0.62757 0.0
C847 C 0.51537 0.01389 0.6097 0.0
C848 C 0.56284 0.98761 0.66662 0.0
C849 C 0.56271 0.01787 0.67819 0.0
C850 C 0.56927 0.99097 0.64732 0.0
C851 C 0.57514 0.02535 0.63912 0.0
C852 C 0.57399 0.05583 0.65049 0.0
C853 C 0.56795 0.05178 0.6699 0.0
C854 C 0.56982 0.95765 0.63568 0.0
C855 C 0.57983 0.09288 0.64225 0.0
H856 H 0.649 0.04456 0.5891 0.0
H857 H 0.53734 0.02131 0.57439 0.0
H858 H 0.64787 0.06522 0.63836 0.0
H859 H 0.64656 0.01853 0.63521 0.0
H860 H 0.67373 0.05252 0.62102 0.0
H861 H 0.49584 0.00771 0.59695 0.0
H862 H 0.5093 0.98994 0.61878 0.0
H863 H 0.51195 0.03715 0.61812 0.0
H864 H 0.55787 0.96103 0.67266 0.0
H865 H 0.56816 0.07539 0.67867 0.0
H866 H 0.59568 0.96276 0.6296 0.0
H867 H 0.54907 0.95189 0.62354 0.0
H868 H 0.56533 0.933 0.64426 0.0
H869 H 0.60733 0.10317 0.63814 0.0
H870 H 0.57543 0.11314 0.65251 0.0
H871 H 0.56181 0.09085 0.62913 0.0
C872 C 0.50905 0.51539 0.90779 0.0
C873 C 0.54038 0.51929 0.89907 0.0
C874 C 0.50938 0.5185 0.92786 0.0
C875 C 0.54162 0.52442 0.93952 0.0
C876 C 0.57316 0.52757 0.93067 0.0
C877 C 0.57224 0.52561 0.91063 0.0
C878 C 0.47538 0.51648 0.93653 0.0
C879 C 0.60791 0.53262 0.9424 0.0
C880 C 0.55231 0.56374 0.99098 0.0
C881 C 0.54613 0.53221 1.00148 0.0
C882 C 0.55054 0.56163 0.97085 0.0
C883 C 0.54256 0.52712 0.96095 0.0
C884 C 0.53639 0.49522 0.9716 0.0
C885 C 0.53803 0.49814 0.99169 0.0
C886 C 0.55699 0.59633 0.96018 0.0
C887 C 0.52791 0.45792 0.96175 0.0
H888 H 0.48448 0.51108 0.8989 0.0
H889 H 0.59653 0.5285 0.90394 0.0
H890 H 0.47039 0.49589 0.9476 0.0
H891 H 0.47772 0.54327 0.94365 0.0
H892 H 0.45221 0.50944 0.92568 0.0
H893 H 0.63017 0.53516 0.93339 0.0
H894 H 0.61435 0.55738 0.95205 0.0
H895 H 0.60569 0.50896 0.95151 0.0
H896 H 0.55807 0.59005 0.99853 0.0
H897 H 0.53273 0.47371 0.9998 0.0
H898 H 0.53394 0.59446 0.9498 0.0
H899 H 0.58037 0.60007 0.95193 0.0
H900 H 0.5616 0.62083 0.96989 0.0
H901 H 0.50285 0.45207 0.95241 0.0
H902 H 0.52511 0.43594 0.97204 0.0
H903 H 0.54906 0.45721 0.95249 0.0
C904 C 1.02952 0.53802 0.23709 0.0
C905 C 0.06198 0.55094 0.2292 0.0
C906 C 1.02799 0.53678 0.25688 0.0
C907 C 0.0598 0.54787 0.26905 0.0
C908 C 0.09274 0.56064 0.26112 0.0
C909 C 0.0934 0.5626 0.24123 0.0
C910 C 0.99228 0.52391 0.26475 0.0
C911 C 0.12723 0.57123 0.27361 0.0
C912 C 1.05229 0.57273 0.32075 0.0
C913 C 1.04971 0.53959 0.32937 0.0
C914 C 0.05634 0.57606 0.30116 0.0
C915 C 0.05838 0.5457 0.29005 0.0
C916 C 0.05705 0.51258 0.29883 0.0
C917 C 1.05247 0.50986 0.31835 0.0
C918 C 0.05727 0.61167 0.29223 0.0
C919 C 0.05934 0.47961 0.28753 0.0
H920 H 1.0052 0.52926 0.22773 0.0
H921 H 0.11851 0.57215 0.23506 0.0
H922 H 0.99118 0.50108 0.27429 0.0
H923 H 0.98812 0.5465 0.27342 0.0
H924 H 0.9702 0.51463 0.25331 0.0
H925 H 0.15053 0.58132 0.26526 0.0
H926 H 0.12759 0.59277 0.28444 0.0
H927 H 0.1298 0.54724 0.28141 0.0
H928 H 1.04994 0.59568 0.3292 0.0
H929 H 1.05091 0.48433 0.32503 0.0
H930 H 1.03443 0.60718 0.28134 0.0
H931 H 0.08167 0.622 0.2848 0.0
H932 H 0.05632 0.63299 0.30292 0.0
H933 H 1.03441 0.46779 0.27824 0.0
H934 H 0.06344 0.45809 0.29691 0.0
H935 H 0.08128 0.48745 0.27813 0.0
loop_
_geom_bond_atom_site_label_1
_geom_bond_atom_site_label_2
_geom_bond_distance
_geom_bond_site_symmetry_2
_ccdc_geom_bond_type
Dy0 O3 2.307 1_455 S
Dy0 O5 2.395 . S
Dy0 O6 2.379 . S
Dy0 O8 2.339 . S
Dy0 O10 2.298 . S
Dy0 O14 2.275 . S
Dy0 C22 2.738 . S
Dy1 O4 2.298 . S
Dy1 O7 2.275 1_655 S
Dy1 O9 2.307 1_655 S
Dy1 O11 2.395 . S
Dy1 O12 2.379 . S
Dy1 O15 2.339 . S
Dy1 C31 2.738 . S
C2 O14 1.254 . S
C2 O15 1.257 1_455 S
O3 Dy0 2.307 1_655 S
O3 C13 1.266 . S
O4 Dy1 2.298 . S
O4 C13 1.236 . S
O5 Dy0 2.395 . S
O5 C22 1.255 . S
O6 Dy0 2.379 . S
O6 C22 1.249 . S
O7 Dy1 2.275 1_455 S
O7 C23 1.254 . S
O8 Dy0 2.339 . S
O8 C23 1.257 . S
O9 Dy1 2.307 1_455 S
O9 C24 1.266 . S
O10 Dy0 2.298 . S
O10 C24 1.236 . S
O11 Dy1 2.395 . S
O11 C31 1.255 . S
O12 Dy1 2.379 . S
O12 C31 1.249 . S
C13 O3 1.266 . S
C13 O4 1.236 . S
O14 Dy0 2.275 . S
O14 C2 1.254 . S
O15 Dy1 2.339 . S
O15 C2 1.257 1_655 S
C16 C19 1.344 . S
C16 C20 1.328 . S
C16 C22 1.516 . S
C17 C18 1.304 . S
C17 C21 1.323 . S
C18 C17 1.304 . S
C18 C19 1.371 . S
C18 H32 0.930 . S
C19 C16 1.344 . S
C19 C18 1.371 . S
C19 H33 0.931 . S
C20 C16 1.328 . S
C20 C21 1.433 . S
C20 H34 0.931 . S
C21 C17 1.323 . S
C21 C20 1.433 . S
C21 H35 0.933 . S
C22 Dy0 2.738 . S
C22 O5 1.255 . S
C22 O6 1.249 . S
C22 C16 1.516 . S
C23 O7 1.254 . S
C23 O8 1.257 . S
C24 O9 1.266 . S
C24 O10 1.236 . S
C25 C28 1.344 . S
C25 C29 1.328 . S
C25 C31 1.516 . S
C26 C27 1.304 . S
C26 C30 1.323 . S
C27 C26 1.304 . S
C27 C28 1.371 . S
C27 H36 0.930 . S
C28 C25 1.344 . S
C28 C27 1.371 . S
C28 H37 0.931 . S
C29 C25 1.328 . S
C29 C30 1.433 . S
C29 H38 0.931 . S
C30 C26 1.323 . S
C30 C29 1.433 . S
C30 H39 0.933 . S
C31 Dy1 2.738 . S
C31 O11 1.255 . S
C31 O12 1.249 . S
C31 C25 1.516 . S
H32 C18 0.930 . S
H33 C19 0.931 . S
H34 C20 0.931 . S
H35 C21 0.933 . S
H36 C27 0.930 . S
H37 C28 0.931 . S
H38 C29 0.931 . S
H39 C30 0.933 . S
Dy40 O43 2.307 . S
Dy40 O45 2.395 1_545 S
Dy40 O46 2.379 1_545 S
Dy40 O48 2.339 . S
Dy40 O50 2.298 1_545 S
Dy40 O54 2.275 . S
Dy40 C62 2.738 1_545 S
Dy41 O44 2.298 . S
Dy41 O47 2.275 . S
Dy41 O49 2.307 1_545 S
Dy41 O51 2.395 . S
Dy41 O52 2.379 . S
Dy41 O55 2.339 . S
Dy41 C71 2.738 . S
C42 O54 1.254 . S
C42 O55 1.257 . S
O43 Dy40 2.307 . S
O43 C53 1.266 . S
O44 Dy41 2.298 . S
O44 C53 1.236 . S
O45 Dy40 2.395 1_565 S
O45 C62 1.255 . S
O46 Dy40 2.379 1_565 S
O46 C62 1.249 . S
O47 Dy41 2.275 . S
O47 C63 1.254 . S
O48 Dy40 2.339 . S
O48 C63 1.257 . S
O49 Dy41 2.307 1_565 S
O49 C64 1.266 . S
O50 Dy40 2.298 1_565 S
O50 C64 1.236 . S
O51 Dy41 2.395 . S
O51 C71 1.255 . S
O52 Dy41 2.379 . S
O52 C71 1.249 . S
C53 O43 1.266 . S
C53 O44 1.236 . S
O54 Dy40 2.275 . S
O54 C42 1.254 . S
O55 Dy41 2.339 . S
O55 C42 1.257 . S
C56 C59 1.344 . S
C56 C60 1.328 . S
C56 C62 1.516 . S
C57 C58 1.304 . S
C57 C61 1.323 . S
C58 C57 1.304 . S
C58 C59 1.371 . S
C58 H72 0.930 . S
C59 C56 1.344 . S
C59 C58 1.371 . S
C59 H73 0.931 . S
C60 C56 1.328 . S
C60 C61 1.433 . S
C60 H74 0.931 . S
C61 C57 1.323 . S
C61 C60 1.433 . S
C61 H75 0.933 . S
C62 Dy40 2.738 1_565 S
C62 O45 1.255 . S
C62 O46 1.249 . S
C62 C56 1.516 . S
C63 O47 1.254 . S
C63 O48 1.257 . S
C64 O49 1.266 . S
C64 O50 1.236 . S
C65 C68 1.344 . S
C65 C69 1.328 . S
C65 C71 1.516 . S
C66 C67 1.304 . S
C66 C70 1.323 . S
C67 C66 1.304 . S
C67 C68 1.371 . S
C67 H76 0.930 . S
C68 C65 1.344 . S
C68 C67 1.371 . S
C68 H77 0.931 . S
C69 C65 1.328 . S
C69 C70 1.433 . S
C69 H78 0.931 . S
C70 C66 1.323 . S
C70 C69 1.433 . S
C70 H79 0.933 . S
C71 Dy41 2.738 . S
C71 O51 1.255 . S
C71 O52 1.249 . S
C71 C65 1.516 . S
H72 C58 0.930 . S
H73 C59 0.931 . S
H74 C60 0.931 . S
H75 C61 0.933 . S
H76 C67 0.930 . S
H77 C68 0.931 . S
H78 C69 0.931 . S
H79 C70 0.933 . S
Dy80 O83 2.307 . S
Dy80 O85 2.395 . S
Dy80 O86 2.379 . S
Dy80 O88 2.339 . S
Dy80 O90 2.298 . S
Dy80 O94 2.275 . S
Dy80 C102 2.738 . S
Dy81 O84 2.298 . S
Dy81 O87 2.275 . S
Dy81 O89 2.307 . S
Dy81 O91 2.395 . S
Dy81 O92 2.379 . S
Dy81 O95 2.339 . S
Dy81 C111 2.738 . S
C82 O94 1.254 . S
C82 O95 1.257 . S
O83 Dy80 2.307 . S
O83 C93 1.266 . S
O84 Dy81 2.298 . S
O84 C93 1.236 . S
O85 Dy80 2.395 . S
O85 C102 1.255 . S
O86 Dy80 2.379 . S
O86 C102 1.249 . S
O87 Dy81 2.275 . S
O87 C103 1.254 . S
O88 Dy80 2.339 . S
O88 C103 1.257 . S
O89 Dy81 2.307 . S
O89 C104 1.266 . S
O90 Dy80 2.298 . S
O90 C104 1.236 . S
O91 Dy81 2.395 . S
O91 C111 1.255 . S
O92 Dy81 2.379 . S
O92 C111 1.249 . S
C93 O83 1.266 . S
C93 O84 1.236 . S
O94 Dy80 2.275 . S
O94 C82 1.254 . S
O95 Dy81 2.339 . S
O95 C82 1.257 . S
C96 C99 1.344 . S
C96 C100 1.328 . S
C96 C102 1.516 . S
C97 C98 1.304 . S
C97 C101 1.323 . S
C98 C97 1.304 . S
C98 C99 1.371 . S
C98 H112 0.930 . S
C99 C96 1.344 . S
C99 C98 1.371 . S
C99 H113 0.931 . S
C100 C96 1.328 . S
C100 C101 1.433 . S
C100 H114 0.931 . S
C101 C97 1.323 . S
C101 C100 1.433 . S
C101 H115 0.933 . S
C102 Dy80 2.738 . S
C102 O85 1.255 . S
C102 O86 1.249 . S
C102 C96 1.516 . S
C103 O87 1.254 . S
C103 O88 1.257 . S
C104 O89 1.266 . S
C104 O90 1.236 . S
C105 C108 1.344 . S
C105 C109 1.328 . S
C105 C111 1.516 . S
C106 C107 1.304 . S
C106 C110 1.323 . S
C107 C106 1.304 . S
C107 C108 1.371 . S
C107 H116 0.930 . S
C108 C105 1.344 . S
C108 C107 1.371 . S
C108 H117 0.931 . S
C109 C105 1.328 . S
C109 C110 1.433 . S
C109 H118 0.931 . S
C110 C106 1.323 . S
C110 C109 1.433 . S
C110 H119 0.933 . S
C111 Dy81 2.738 . S
C111 O91 1.255 . S
C111 O92 1.249 . S
C111 C105 1.516 . S
H112 C98 0.930 . S
H113 C99 0.931 . S
H114 C100 0.931 . S
H115 C101 0.933 . S
H116 C107 0.930 . S
H117 C108 0.931 . S
H118 C109 0.931 . S
H119 C110 0.933 . S
C120 C121 1.264 . S
C120 C125 1.479 . S
C120 C130 1.465 . S
C121 C120 1.264 . S
C121 C123 1.339 . S
C121 H148 0.931 . S
C122 C123 1.395 . S
C122 C124 1.320 . S
C123 C121 1.339 . S
C123 C122 1.395 . S
C123 H149 0.929 . S
C124 C122 1.320 . S
C124 C125 1.405 . S
C124 H150 0.930 . S
C125 C120 1.479 . S
C125 C124 1.405 . S
C125 H151 0.931 . S
U126 O127 2.454 . S
U126 O128 2.458 . S
U126 C129 2.984 . S
U126 C130 2.847 . S
U126 C143 2.882 . S
U126 O144 2.441 . S
U126 O145 2.420 . S
U126 O146 2.455 . S
U126 O147 2.449 . S
O127 U126 2.454 . S
O127 C129 1.353 . S
O128 U126 2.458 . S
O128 C129 1.286 . S
C129 U126 2.984 . S
C129 O127 1.353 . S
C129 O128 1.286 . S
C129 C131 1.363 1_545 S
C130 C120 1.465 . S
C130 U126 2.847 . S
C130 O144 1.249 . S
C130 O145 1.202 . S
C131 C129 1.363 1_565 S
C131 C133 1.408 . S
C131 C136 1.342 . S
C132 C133 1.310 . S
C132 C135 1.461 . S
C132 H152 0.932 . S
C133 C131 1.408 . S
C133 C132 1.310 . S
C133 H153 0.930 . S
C134 C135 1.474 . S
C134 C136 1.285 . S
C134 H154 0.929 . S
C135 C132 1.461 . S
C135 C134 1.474 . S
C136 C131 1.342 . S
C136 C134 1.285 . S
C136 H155 0.930 . S
C137 C140 1.424 . S
C137 C142 1.245 . S
C137 C143 1.428 . S
C138 C141 1.260 . S
C138 C142 1.477 . S
C138 H156 0.932 . S
C139 C140 1.384 . S
C139 C141 1.479 . S
C139 H157 0.929 . S
C140 C137 1.424 . S
C140 C139 1.384 . S
C140 H158 0.928 . S
C141 C138 1.260 . S
C141 C139 1.479 . S
C142 C137 1.245 . S
C142 C138 1.477 . S
C142 H159 0.932 . S
C143 U126 2.882 . S
C143 C137 1.428 . S
C143 O146 1.301 . S
C143 O147 1.282 . S
O144 U126 2.441 . S
O144 C130 1.249 . S
O145 U126 2.420 . S
O145 C130 1.202 . S
O146 U126 2.455 . S
O146 C143 1.301 . S
O147 U126 2.449 . S
O147 C143 1.282 . S
H148 C121 0.931 . S
H149 C123 0.929 . S
H150 C124 0.930 . S
H151 C125 0.931 . S
H152 C132 0.932 . S
H153 C133 0.930 . S
H154 C134 0.929 . S
H155 C136 0.930 . S
H156 C138 0.932 . S
H157 C139 0.929 . S
H158 C140 0.928 . S
H159 C142 0.932 . S
C160 C161 1.264 . S
C160 C165 1.479 . S
C160 C170 1.465 . S
C161 C160 1.264 . S
C161 C163 1.339 . S
C161 H188 0.931 . S
C162 C163 1.395 . S
C162 C164 1.320 . S
C163 C161 1.339 . S
C163 C162 1.395 . S
C163 H189 0.929 . S
C164 C162 1.320 . S
C164 C165 1.405 . S
C164 H190 0.930 . S
C165 C160 1.479 . S
C165 C164 1.405 . S
C165 H191 0.931 . S
U166 O167 2.454 . S
U166 O168 2.458 . S
U166 C169 2.984 . S
U166 C170 2.847 . S
U166 C183 2.882 . S
U166 O184 2.441 . S
U166 O185 2.420 . S
U166 O186 2.455 . S
U166 O187 2.449 . S
O167 U166 2.454 . S
O167 C169 1.353 . S
O168 U166 2.458 . S
O168 C169 1.286 . S
C169 U166 2.984 . S
C169 O167 1.353 . S
C169 O168 1.286 . S
C169 C171 1.363 . S
C170 C160 1.465 . S
C170 U166 2.847 . S
C170 O184 1.249 . S
C170 O185 1.202 . S
C171 C169 1.363 . S
C171 C173 1.408 . S
C171 C176 1.342 . S
C172 C173 1.310 . S
C172 C175 1.461 . S
C172 H192 0.932 . S
C173 C171 1.408 . S
C173 C172 1.310 . S
C173 H193 0.930 . S
C174 C175 1.474 . S
C174 C176 1.285 . S
C174 H194 0.929 . S
C175 C172 1.461 . S
C175 C174 1.474 . S
C176 C171 1.342 . S
C176 C174 1.285 . S
C176 H195 0.930 . S
C177 C180 1.424 . S
C177 C182 1.245 . S
C177 C183 1.428 . S
C178 C181 1.260 . S
C178 C182 1.477 . S
C178 H196 0.932 . S
C179 C180 1.384 . S
C179 C181 1.479 . S
C179 H197 0.929 . S
C180 C177 1.424 . S
C180 C179 1.384 . S
C180 H198 0.928 . S
C181 C178 1.260 . S
C181 C179 1.479 . S
C182 C177 1.245 . S
C182 C178 1.477 . S
C182 H199 0.932 . S
C183 U166 2.882 . S
C183 C177 1.428 . S
C183 O186 1.301 . S
C183 O187 1.282 . S
O184 U166 2.441 . S
O184 C170 1.249 . S
O185 U166 2.420 . S
O185 C170 1.202 . S
O186 U166 2.455 . S
O186 C183 1.301 . S
O187 U166 2.449 . S
O187 C183 1.282 . S
H188 C161 0.931 . S
H189 C163 0.929 . S
H190 C164 0.930 . S
H191 C165 0.931 . S
H192 C172 0.932 . S
H193 C173 0.930 . S
H194 C174 0.929 . S
H195 C176 0.930 . S
H196 C178 0.932 . S
H197 C179 0.929 . S
H198 C180 0.928 . S
H199 C182 0.932 . S
C200 C201 1.264 . S
C200 C205 1.479 . S
C200 C210 1.465 . S
C201 C200 1.264 . S
C201 C203 1.339 . S
C201 H228 0.931 . S
C202 C203 1.395 . S
C202 C204 1.320 . S
C203 C201 1.339 . S
C203 C202 1.395 . S
C203 H229 0.929 . S
C204 C202 1.320 . S
C204 C205 1.405 . S
C204 H230 0.930 . S
C205 C200 1.479 . S
C205 C204 1.405 . S
C205 H231 0.931 . S
U206 O207 2.454 . S
U206 O208 2.458 . S
U206 C209 2.984 . S
U206 C210 2.847 1_455 S
U206 C223 2.882 . S
U206 O224 2.441 1_455 S
U206 O225 2.420 1_455 S
U206 O226 2.455 . S
U206 O227 2.449 1_455 S
O207 U206 2.454 . S
O207 C209 1.353 . S
O208 U206 2.458 . S
O208 C209 1.286 . S
C209 U206 2.984 . S
C209 O207 1.353 . S
C209 O208 1.286 . S
C209 C211 1.363 . S
C210 C200 1.465 . S
C210 U206 2.847 1_655 S
C210 O224 1.249 . S
C210 O225 1.202 . S
C211 C209 1.363 . S
C211 C213 1.408 . S
C211 C216 1.342 . S
C212 C213 1.310 . S
C212 C215 1.461 . S
C212 H232 0.932 . S
C213 C211 1.408 . S
C213 C212 1.310 . S
C213 H233 0.930 . S
C214 C215 1.474 . S
C214 C216 1.285 . S
C214 H234 0.929 . S
C215 C212 1.461 . S
C215 C214 1.474 . S
C216 C211 1.342 . S
C216 C214 1.285 . S
C216 H235 0.930 . S
C217 C220 1.424 1_455 S
C217 C222 1.245 . S
C217 C223 1.428 . S
C218 C221 1.247 1_556 S
C218 C222 1.477 . S
C218 H236 0.932 . S
C219 C220 1.384 . S
C219 C221 1.468 1_656 S
C219 H237 0.929 . S
C220 C217 1.424 1_655 S
C220 C219 1.384 . S
C220 H238 0.928 . S
C221 C218 1.247 1_554 S
C221 C219 1.468 1_454 S
C222 C217 1.245 . S
C222 C218 1.477 . S
C222 H239 0.932 . S
C223 U206 2.882 . S
C223 C217 1.428 . S
C223 O226 1.301 . S
C223 O227 1.282 1_455 S
O224 U206 2.441 1_655 S
O224 C210 1.249 . S
O225 U206 2.420 1_655 S
O225 C210 1.202 . S
O226 U206 2.455 . S
O226 C223 1.301 . S
O227 U206 2.449 1_655 S
O227 C223 1.282 1_655 S
H228 C201 0.931 . S
H229 C203 0.929 . S
H230 C204 0.930 . S
H231 C205 0.931 . S
H232 C212 0.932 . S
H233 C213 0.930 . S
H234 C214 0.929 . S
H235 C216 0.930 . S
H236 C218 0.932 . S
H237 C219 0.929 . S
H238 C220 0.928 . S
H239 C222 0.932 . S
C240 C241 1.264 . S
C240 C245 1.479 . S
C240 C250 1.465 . S
C241 C240 1.264 . S
C241 C243 1.339 . S
C241 H268 0.931 . S
C242 C243 1.395 . S
C242 C244 1.320 . S
C243 C241 1.339 . S
C243 C242 1.395 . S
C243 H269 0.929 . S
C244 C242 1.320 . S
C244 C245 1.405 . S
C244 H270 0.930 . S
C245 C240 1.479 . S
C245 C244 1.405 . S
C245 H271 0.931 . S
U246 O247 2.454 . S
U246 O248 2.458 . S
U246 C249 2.984 . S
U246 C250 2.847 1_455 S
U246 C263 2.882 1_455 S
U246 O264 2.441 1_455 S
U246 O265 2.420 1_455 S
U246 O266 2.455 . S
U246 O267 2.449 1_455 S
O247 U246 2.454 . S
O247 C249 1.353 . S
O248 U246 2.458 . S
O248 C249 1.286 . S
C249 U246 2.984 . S
C249 O247 1.353 . S
C249 O248 1.286 . S
C249 C251 1.363 . S
C250 C240 1.465 . S
C250 U246 2.847 1_655 S
C250 O264 1.249 . S
C250 O265 1.202 . S
C251 C249 1.363 . S
C251 C253 1.408 . S
C251 C256 1.342 . S
C252 C253 1.310 . S
C252 C255 1.461 . S
C252 H272 0.932 . S
C253 C251 1.408 . S
C253 C252 1.310 . S
C253 H273 0.930 . S
C254 C255 1.474 . S
C254 C256 1.285 . S
C254 H274 0.929 . S
C255 C252 1.461 . S
C255 C254 1.474 . S
C256 C251 1.342 . S
C256 C254 1.285 . S
C256 H275 0.930 . S
C257 C260 1.424 . S
C257 C262 1.245 1_655 S
C257 C263 1.428 . S
C258 C261 1.260 1_455 S
C258 C262 1.477 . S
C258 H276 0.932 . S
C259 C260 1.384 . S
C259 C261 1.479 . S
C259 H277 0.929 . S
C260 C257 1.424 . S
C260 C259 1.384 . S
C260 H278 0.928 . S
C261 C258 1.260 1_655 S
C261 C259 1.479 . S
C262 C257 1.245 1_455 S
C262 C258 1.477 . S
C262 H279 0.932 . S
C263 U246 2.882 1_655 S
C263 C257 1.428 . S
C263 O266 1.301 1_655 S
C263 O267 1.282 . S
O264 U246 2.441 1_655 S
O264 C250 1.249 . S
O265 U246 2.420 1_655 S
O265 C250 1.202 . S
O266 U246 2.455 . S
O266 C263 1.301 1_455 S
O267 U246 2.449 1_655 S
O267 C263 1.282 . S
H268 C241 0.931 . S
H269 C243 0.929 . S
H270 C244 0.930 . S
H271 C245 0.931 . S
H272 C252 0.932 . S
H273 C253 0.930 . S
H274 C254 0.929 . S
H275 C256 0.930 . S
H276 C258 0.932 . S
H277 C259 0.929 . S
H278 C260 0.928 . S
H279 C262 0.932 . S
C280 C281 1.264 . S
C280 C285 1.479 . S
C280 C290 1.465 . S
C281 C280 1.264 . S
C281 C283 1.339 . S
C281 H308 0.931 . S
C282 C283 1.395 . S
C282 C284 1.320 . S
C283 C281 1.339 . S
C283 C282 1.395 . S
C283 H309 0.929 . S
C284 C282 1.320 . S
C284 C285 1.405 . S
C284 H310 0.930 . S
C285 C280 1.479 . S
C285 C284 1.405 . S
C285 H311 0.931 . S
U286 O287 2.473 . S
U286 O288 2.490 . S
U286 C289 3.013 . S
U286 C290 2.819 1_545 S
U286 C303 2.882 . S
U286 O304 2.423 1_545 S
U286 O305 2.388 1_545 S
U286 O306 2.470 . S
U286 O307 2.435 1_545 S
O287 U286 2.473 . S
O287 C289 1.353 . S
O288 U286 2.490 . S
O288 C289 1.286 . S
C289 U286 3.013 . S
C289 O287 1.353 . S
C289 O288 1.286 . S
C289 C291 1.363 . S
C290 C280 1.465 . S
C290 U286 2.819 1_565 S
C290 O304 1.249 . S
C290 O305 1.202 . S
C291 C289 1.363 . S
C291 C293 1.408 . S
C291 C296 1.342 . S
C292 C293 1.310 . S
C292 C295 1.461 . S
C292 H312 0.932 . S
C293 C291 1.408 . S
C293 C292 1.310 . S
C293 H313 0.930 . S
C294 C295 1.474 . S
C294 C296 1.285 . S
C294 H314 0.929 . S
C295 C292 1.461 . S
C295 C294 1.474 . S
C296 C291 1.342 . S
C296 C294 1.285 . S
C296 H315 0.930 . S
C297 C300 1.424 1_545 S
C297 C302 1.245 . S
C297 C303 1.428 . S
C298 C301 1.260 . S
C298 C302 1.477 . S
C298 H316 0.932 . S
C299 C300 1.384 . S
C299 C301 1.479 1_565 S
C299 H317 0.929 . S
C300 C297 1.424 1_565 S
C300 C299 1.384 . S
C300 H318 0.928 . S
C301 C298 1.260 . S
C301 C299 1.479 1_545 S
C302 C297 1.245 . S
C302 C298 1.477 . S
C302 H319 0.932 . S
C303 U286 2.882 . S
C303 C297 1.428 . S
C303 O306 1.301 . S
C303 O307 1.282 1_545 S
O304 U286 2.423 1_565 S
O304 C290 1.249 . S
O305 U286 2.388 1_565 S
O305 C290 1.202 . S
O306 U286 2.470 . S
O306 C303 1.301 . S
O307 U286 2.435 1_565 S
O307 C303 1.282 1_565 S
H308 C281 0.931 . S
H309 C283 0.929 . S
H310 C284 0.930 . S
H311 C285 0.931 . S
H312 C292 0.932 . S
H313 C293 0.930 . S
H314 C294 0.929 . S
H315 C296 0.930 . S
H316 C298 0.932 . S
H317 C299 0.929 . S
H318 C300 0.928 . S
H319 C302 0.932 . S
C320 C321 1.264 . S
C320 C325 1.479 . S
C320 C330 1.465 . S
C321 C320 1.264 . S
C321 C323 1.339 . S
C321 H348 0.931 . S
C322 C323 1.395 . S
C322 C324 1.320 . S
C323 C321 1.339 . S
C323 C322 1.395 . S
C323 H349 0.929 . S
C324 C322 1.320 . S
C324 C325 1.405 . S
C324 H350 0.930 . S
C325 C320 1.479 . S
C325 C324 1.405 . S
C325 H351 0.931 . S
U326 O327 2.454 . S
U326 O328 2.458 . S
U326 C329 2.984 . S
U326 C330 2.847 . S
U326 C343 2.882 . S
U326 O344 2.441 . S
U326 O345 2.420 . S
U326 O346 2.455 . S
U326 O347 2.449 . S
O327 U326 2.454 . S
O327 C329 1.353 . S
O328 U326 2.458 . S
O328 C329 1.286 . S
C329 U326 2.984 . S
C329 O327 1.353 . S
C329 O328 1.286 . S
C329 C331 1.363 . S
C330 C320 1.465 . S
C330 U326 2.847 . S
C330 O344 1.249 . S
C330 O345 1.202 . S
C331 C329 1.363 . S
C331 C333 1.408 . S
C331 C336 1.342 . S
C332 C333 1.310 . S
C332 C335 1.461 . S
C332 H352 0.932 . S
C333 C331 1.408 . S
C333 C332 1.310 . S
C333 H353 0.930 . S
C334 C335 1.474 . S
C334 C336 1.285 . S
C334 H354 0.929 . S
C335 C332 1.461 . S
C335 C334 1.474 . S
C336 C331 1.342 . S
C336 C334 1.285 . S
C336 H355 0.930 . S
C337 C340 1.424 . S
C337 C342 1.245 . S
C337 C343 1.428 . S
C338 C341 1.260 . S
C338 C342 1.477 . S
C338 H356 0.932 . S
C339 C340 1.384 . S
C339 C341 1.479 . S
C339 H357 0.929 . S
C340 C337 1.424 . S
C340 C339 1.384 . S
C340 H358 0.928 . S
C341 C338 1.260 . S
C341 C339 1.479 . S
C342 C337 1.245 . S
C342 C338 1.477 . S
C342 H359 0.932 . S
C343 U326 2.882 . S
C343 C337 1.428 . S
C343 O346 1.301 . S
C343 O347 1.282 . S
O344 U326 2.441 . S
O344 C330 1.249 . S
O345 U326 2.420 . S
O345 C330 1.202 . S
O346 U326 2.455 . S
O346 C343 1.301 . S
O347 U326 2.449 . S
O347 C343 1.282 . S
H348 C321 0.931 . S
H349 C323 0.929 . S
H350 C324 0.930 . S
H351 C325 0.931 . S
H352 C332 0.932 . S
H353 C333 0.930 . S
H354 C334 0.929 . S
H355 C336 0.930 . S
H356 C338 0.932 . S
H357 C339 0.929 . S
H358 C340 0.928 . S
H359 C342 0.932 . S
C360 C361 1.391 . S
C360 C362 1.394 . S
C360 H376 0.931 . S
C361 C360 1.391 . S
C361 C365 1.376 . S
C362 C360 1.394 . S
C362 C363 1.369 . S
C362 C366 1.531 . S
C363 C362 1.369 . S
C363 C364 1.410 . S
C363 C371 1.503 . S
C364 C363 1.410 . S
C364 C365 1.392 . S
C364 C367 1.511 . S
C365 C361 1.376 . S
C365 C364 1.392 . S
C365 H377 0.929 . S
C366 C362 1.531 . S
C366 H378 0.960 . S
C366 H379 0.962 . S
C366 H380 0.960 . S
C367 C364 1.511 . S
C367 H381 0.961 . S
C367 H382 0.961 . S
C367 H383 0.961 . S
C368 C369 1.370 . S
C368 C370 1.363 . S
C368 H384 0.931 . S
C369 C368 1.370 . S
C369 C373 1.408 . S
C370 C368 1.363 . S
C370 C371 1.370 . S
C370 C374 1.524 . S
C371 C363 1.503 . S
C371 C370 1.370 . S
C371 C372 1.403 . S
C372 C371 1.403 . S
C372 C373 1.404 . S
C372 C375 1.539 . S
C373 C369 1.408 . S
C373 C372 1.404 . S
C373 H385 0.930 . S
C374 C370 1.524 . S
C374 H386 0.956 . S
C374 H387 0.961 . S
C374 H388 0.961 . S
C375 C372 1.539 . S
C375 H389 0.958 . S
C375 H390 0.961 . S
C375 H391 0.960 . S
H376 C360 0.931 . S
H377 C365 0.929 . S
H378 C366 0.960 . S
H379 C366 0.962 . S
H380 C366 0.960 . S
H381 C367 0.961 . S
H382 C367 0.961 . S
H383 C367 0.961 . S
H384 C368 0.931 . S
H385 C373 0.930 . S
H386 C374 0.956 . S
H387 C374 0.961 . S
H388 C374 0.961 . S
H389 C375 0.958 . S
H390 C375 0.961 . S
H391 C375 0.960 . S
C392 C393 1.391 . S
C392 C394 1.394 . S
C392 H408 0.931 . S
C393 C392 1.391 . S
C393 C397 1.376 . S
C394 C392 1.394 . S
C394 C395 1.369 . S
C394 C398 1.531 . S
C395 C394 1.369 . S
C395 C396 1.410 . S
C395 C403 1.503 . S
C396 C395 1.410 . S
C396 C397 1.392 . S
C396 C399 1.511 . S
C397 C393 1.376 . S
C397 C396 1.392 . S
C397 H409 0.929 . S
C398 C394 1.531 . S
C398 H410 0.960 . S
C398 H411 0.962 . S
C398 H412 0.960 . S
C399 C396 1.511 . S
C399 H413 0.961 . S
C399 H414 0.961 . S
C399 H415 0.961 . S
C400 C401 1.370 . S
C400 C402 1.363 . S
C400 H416 0.931 . S
C401 C400 1.370 . S
C401 C405 1.408 . S
C402 C400 1.363 . S
C402 C403 1.370 . S
C402 C406 1.524 . S
C403 C395 1.503 . S
C403 C402 1.370 . S
C403 C404 1.403 . S
C404 C403 1.403 . S
C404 C405 1.404 . S
C404 C407 1.539 . S
C405 C401 1.408 . S
C405 C404 1.404 . S
C405 H417 0.930 . S
C406 C402 1.524 . S
C406 H418 0.956 . S
C406 H419 0.961 . S
C406 H420 0.961 . S
C407 C404 1.539 . S
C407 H421 0.958 . S
C407 H422 0.961 . S
C407 H423 0.960 . S
H408 C392 0.931 . S
H409 C397 0.929 . S
H410 C398 0.960 . S
H411 C398 0.962 . S
H412 C398 0.960 . S
H413 C399 0.961 . S
H414 C399 0.961 . S
H415 C399 0.961 . S
H416 C400 0.931 . S
H417 C405 0.930 . S
H418 C406 0.956 . S
H419 C406 0.961 . S
H420 C406 0.961 . S
H421 C407 0.958 . S
H422 C407 0.961 . S
H423 C407 0.960 . S
C424 C425 1.391 . S
C424 C426 1.394 . S
C424 H440 0.931 . S
C425 C424 1.391 . S
C425 C429 1.376 . S
C426 C424 1.394 . S
C426 C427 1.369 . S
C426 C430 1.531 . S
C427 C426 1.369 . S
C427 C428 1.410 . S
C427 C435 1.503 . S
C428 C427 1.410 . S
C428 C429 1.392 . S
C428 C431 1.511 . S
C429 C425 1.376 . S
C429 C428 1.392 . S
C429 H441 0.929 . S
C430 C426 1.531 . S
C430 H442 0.960 . S
C430 H443 0.962 . S
C430 H444 0.960 . S
C431 C428 1.511 . S
C431 H445 0.961 . S
C431 H446 0.961 . S
C431 H447 0.961 . S
C432 C433 1.370 . S
C432 C434 1.363 . S
C432 H448 0.931 . S
C433 C432 1.370 . S
C433 C437 1.408 . S
C434 C432 1.363 . S
C434 C435 1.370 . S
C434 C438 1.524 . S
C435 C427 1.503 . S
C435 C434 1.370 . S
C435 C436 1.403 . S
C436 C435 1.403 . S
C436 C437 1.404 . S
C436 C439 1.539 . S
C437 C433 1.408 . S
C437 C436 1.404 . S
C437 H449 0.930 . S
C438 C434 1.524 . S
C438 H450 0.956 . S
C438 H451 0.961 . S
C438 H452 0.961 . S
C439 C436 1.539 . S
C439 H453 0.958 . S
C439 H454 0.961 . S
C439 H455 0.960 . S
H440 C424 0.931 . S
H441 C429 0.929 . S
H442 C430 0.960 . S
H443 C430 0.962 . S
H444 C430 0.960 . S
H445 C431 0.961 . S
H446 C431 0.961 . S
H447 C431 0.961 . S
H448 C432 0.931 . S
H449 C437 0.930 . S
H450 C438 0.956 . S
H451 C438 0.961 . S
H452 C438 0.961 . S
H453 C439 0.958 . S
H454 C439 0.961 . S
H455 C439 0.960 . S
C456 C457 1.391 . S
C456 C458 1.394 . S
C456 H472 0.931 . S
C457 C456 1.391 . S
C457 C461 1.376 . S
C458 C456 1.394 . S
C458 C459 1.369 . S
C458 C462 1.531 . S
C459 C458 1.369 . S
C459 C460 1.410 . S
C459 C467 1.503 . S
C460 C459 1.410 . S
C460 C461 1.392 . S
C460 C463 1.511 . S
C461 C457 1.376 . S
C461 C460 1.392 . S
C461 H473 0.929 . S
C462 C458 1.531 . S
C462 H474 0.960 . S
C462 H475 0.962 . S
C462 H476 0.960 . S
C463 C460 1.511 . S
C463 H477 0.961 . S
C463 H478 0.961 . S
C463 H479 0.961 . S
C464 C465 1.370 . S
C464 C466 1.363 . S
C464 H480 0.931 . S
C465 C464 1.370 . S
C465 C469 1.408 . S
C466 C464 1.363 . S
C466 C467 1.370 . S
C466 C470 1.524 . S
C467 C459 1.503 . S
C467 C466 1.370 . S
C467 C468 1.403 . S
C468 C467 1.403 . S
C468 C469 1.404 . S
C468 C471 1.539 . S
C469 C465 1.408 . S
C469 C468 1.404 . S
C469 H481 0.930 . S
C470 C466 1.524 . S
C470 H482 0.956 . S
C470 H483 0.961 . S
C470 H484 0.961 . S
C471 C468 1.539 . S
C471 H485 0.958 . S
C471 H486 0.961 . S
C471 H487 0.960 . S
H472 C456 0.931 . S
H473 C461 0.929 . S
H474 C462 0.960 . S
H475 C462 0.962 . S
H476 C462 0.960 . S
H477 C463 0.961 . S
H478 C463 0.961 . S
H479 C463 0.961 . S
H480 C464 0.931 . S
H481 C469 0.930 . S
H482 C470 0.956 . S
H483 C470 0.961 . S
H484 C470 0.961 . S
H485 C471 0.958 . S
H486 C471 0.961 . S
H487 C471 0.960 . S
C488 C489 1.391 . S
C488 C490 1.394 . S
C488 H504 0.931 . S
C489 C488 1.391 . S
C489 C493 1.376 . S
C490 C488 1.394 . S
C490 C491 1.369 . S
C490 C494 1.531 . S
C491 C490 1.369 . S
C491 C492 1.410 . S
C491 C499 1.503 . S
C492 C491 1.410 . S
C492 C493 1.392 . S
C492 C495 1.511 . S
C493 C489 1.376 . S
C493 C492 1.392 . S
C493 H505 0.929 . S
C494 C490 1.531 . S
C494 H506 0.960 . S
C494 H507 0.962 . S
C494 H508 0.960 . S
C495 C492 1.511 . S
C495 H509 0.961 . S
C495 H510 0.961 . S
C495 H511 0.961 . S
C496 C497 1.370 . S
C496 C498 1.363 . S
C496 H512 0.931 . S
C497 C496 1.370 . S
C497 C501 1.408 . S
C498 C496 1.363 . S
C498 C499 1.370 . S
C498 C502 1.524 . S
C499 C491 1.503 . S
C499 C498 1.370 . S
C499 C500 1.403 . S
C500 C499 1.403 . S
C500 C501 1.404 . S
C500 C503 1.539 . S
C501 C497 1.408 . S
C501 C500 1.404 . S
C501 H513 0.930 . S
C502 C498 1.524 . S
C502 H514 0.956 . S
C502 H515 0.961 . S
C502 H516 0.961 . S
C503 C500 1.539 . S
C503 H517 0.958 . S
C503 H518 0.961 . S
C503 H519 0.960 . S
H504 C488 0.931 . S
H505 C493 0.929 . S
H506 C494 0.960 . S
H507 C494 0.962 . S
H508 C494 0.960 . S
H509 C495 0.961 . S
H510 C495 0.961 . S
H511 C495 0.961 . S
H512 C496 0.931 . S
H513 C501 0.930 . S
H514 C502 0.956 . S
H515 C502 0.961 . S
H516 C502 0.961 . S
H517 C503 0.958 . S
H518 C503 0.961 . S
H519 C503 0.960 . S
C520 C521 1.391 . S
C520 C522 1.394 . S
C520 H536 0.931 . S
C521 C520 1.391 . S
C521 C525 1.376 . S
C522 C520 1.394 . S
C522 C523 1.369 . S
C522 C526 1.531 . S
C523 C522 1.369 . S
C523 C524 1.410 . S
C523 C531 1.503 . S
C524 C523 1.410 . S
C524 C525 1.392 . S
C524 C527 1.511 . S
C525 C521 1.376 . S
C525 C524 1.392 . S
C525 H537 0.929 . S
C526 C522 1.531 . S
C526 H538 0.960 . S
C526 H539 0.962 . S
C526 H540 0.960 . S
C527 C524 1.511 . S
C527 H541 0.961 . S
C527 H542 0.961 . S
C527 H543 0.961 . S
C528 C529 1.370 . S
C528 C530 1.363 . S
C528 H544 0.931 . S
C529 C528 1.370 . S
C529 C533 1.408 . S
C530 C528 1.363 . S
C530 C531 1.370 . S
C530 C534 1.524 . S
C531 C523 1.503 . S
C531 C530 1.370 . S
C531 C532 1.403 . S
C532 C531 1.403 . S
C532 C533 1.404 . S
C532 C535 1.539 . S
C533 C529 1.408 . S
C533 C532 1.404 . S
C533 H545 0.930 . S
C534 C530 1.524 . S
C534 H546 0.956 . S
C534 H547 0.961 . S
C534 H548 0.961 . S
C535 C532 1.539 . S
C535 H549 0.958 . S
C535 H550 0.961 . S
C535 H551 0.960 . S
H536 C520 0.931 . S
H537 C525 0.929 . S
H538 C526 0.960 . S
H539 C526 0.962 . S
H540 C526 0.960 . S
H541 C527 0.961 . S
H542 C527 0.961 . S
H543 C527 0.961 . S
H544 C528 0.931 . S
H545 C533 0.930 . S
H546 C534 0.956 . S
H547 C534 0.961 . S
H548 C534 0.961 . S
H549 C535 0.958 . S
H550 C535 0.961 . S
H551 C535 0.960 . S
C552 C553 1.391 . S
C552 C554 1.394 . S
C552 H568 0.931 . S
C553 C552 1.391 . S
C553 C557 1.376 . S
C554 C552 1.394 . S
C554 C555 1.369 . S
C554 C558 1.531 . S
C555 C554 1.369 . S
C555 C556 1.410 . S
C555 C563 1.503 . S
C556 C555 1.410 . S
C556 C557 1.392 . S
C556 C559 1.511 . S
C557 C553 1.376 . S
C557 C556 1.392 . S
C557 H569 0.929 . S
C558 C554 1.531 . S
C558 H570 0.960 . S
C558 H571 0.962 . S
C558 H572 0.960 . S
C559 C556 1.511 . S
C559 H573 0.961 . S
C559 H574 0.961 . S
C559 H575 0.961 . S
C560 C561 1.370 . S
C560 C562 1.363 . S
C560 H576 0.931 . S
C561 C560 1.370 . S
C561 C565 1.408 . S
C562 C560 1.363 . S
C562 C563 1.370 . S
C562 C566 1.524 . S
C563 C555 1.503 . S
C563 C562 1.370 . S
C563 C564 1.403 . S
C564 C563 1.403 . S
C564 C565 1.404 . S
C564 C567 1.539 . S
C565 C561 1.408 . S
C565 C564 1.404 . S
C565 H577 0.930 . S
C566 C562 1.524 . S
C566 H578 0.956 . S
C566 H579 0.961 . S
C566 H580 0.961 . S
C567 C564 1.539 . S
C567 H581 0.958 . S
C567 H582 0.961 . S
C567 H583 0.960 . S
H568 C552 0.931 . S
H569 C557 0.929 . S
H570 C558 0.960 . S
H571 C558 0.962 . S
H572 C558 0.960 . S
H573 C559 0.961 . S
H574 C559 0.961 . S
H575 C559 0.961 . S
H576 C560 0.931 . S
H577 C565 0.930 . S
H578 C566 0.956 . S
H579 C566 0.961 . S
H580 C566 0.961 . S
H581 C567 0.958 . S
H582 C567 0.961 . S
H583 C567 0.960 . S
C584 C585 1.391 . S
C584 C586 1.394 . S
C584 H600 0.931 . S
C585 C584 1.391 . S
C585 C589 1.376 . S
C586 C584 1.394 . S
C586 C587 1.369 . S
C586 C590 1.531 . S
C587 C586 1.369 . S
C587 C588 1.410 . S
C587 C595 1.503 . S
C588 C587 1.410 . S
C588 C589 1.392 . S
C588 C591 1.511 . S
C589 C585 1.376 . S
C589 C588 1.392 . S
C589 H601 0.929 . S
C590 C586 1.531 . S
C590 H602 0.960 . S
C590 H603 0.962 . S
C590 H604 0.960 . S
C591 C588 1.511 . S
C591 H605 0.961 . S
C591 H606 0.961 . S
C591 H607 0.961 . S
C592 C593 1.370 . S
C592 C594 1.363 . S
C592 H608 0.931 . S
C593 C592 1.370 . S
C593 C597 1.408 . S
C594 C592 1.363 . S
C594 C595 1.370 . S
C594 C598 1.524 . S
C595 C587 1.503 . S
C595 C594 1.370 . S
C595 C596 1.403 . S
C596 C595 1.403 . S
C596 C597 1.404 . S
C596 C599 1.539 . S
C597 C593 1.408 . S
C597 C596 1.404 . S
C597 H609 0.930 . S
C598 C594 1.524 . S
C598 H610 0.956 . S
C598 H611 0.961 . S
C598 H612 0.961 . S
C599 C596 1.539 . S
C599 H613 0.958 . S
C599 H614 0.961 . S
C599 H615 0.960 . S
H600 C584 0.931 . S
H601 C589 0.929 . S
H602 C590 0.960 . S
H603 C590 0.962 . S
H604 C590 0.960 . S
H605 C591 0.961 . S
H606 C591 0.961 . S
H607 C591 0.961 . S
H608 C592 0.931 . S
H609 C597 0.930 . S
H610 C598 0.956 . S
H611 C598 0.961 . S
H612 C598 0.961 . S
H613 C599 0.958 . S
H614 C599 0.961 . S
H615 C599 0.960 . S
C616 C617 1.391 . S
C616 C618 1.394 . S
C616 H632 0.931 . S
C617 C616 1.391 . S
C617 C621 1.376 . S
C618 C616 1.394 . S
C618 C619 1.369 . S
C618 C622 1.531 . S
C619 C618 1.369 . S
C619 C620 1.410 . S
C619 C627 1.503 . S
C620 C619 1.410 . S
C620 C621 1.392 . S
C620 C623 1.511 . S
C621 C617 1.376 . S
C621 C620 1.392 . S
C621 H633 0.929 . S
C622 C618 1.531 . S
C622 H634 0.960 . S
C622 H635 0.962 . S
C622 H636 0.960 . S
C623 C620 1.511 . S
C623 H637 0.961 . S
C623 H638 0.961 . S
C623 H639 0.961 . S
C624 C625 1.370 . S
C624 C626 1.363 . S
C624 H640 0.931 . S
C625 C624 1.370 . S
C625 C629 1.408 . S
C626 C624 1.363 . S
C626 C627 1.370 . S
C626 C630 1.524 . S
C627 C619 1.503 . S
C627 C626 1.370 . S
C627 C628 1.403 . S
C628 C627 1.403 . S
C628 C629 1.404 . S
C628 C631 1.539 . S
C629 C625 1.408 . S
C629 C628 1.404 . S
C629 H641 0.930 . S
C630 C626 1.524 . S
C630 H642 0.956 . S
C630 H643 0.961 . S
C630 H644 0.961 . S
C631 C628 1.539 . S
C631 H645 0.958 . S
C631 H646 0.961 . S
C631 H647 0.960 . S
H632 C616 0.931 . S
H633 C621 0.929 . S
H634 C622 0.960 . S
H635 C622 0.962 . S
H636 C622 0.960 . S
H637 C623 0.961 . S
H638 C623 0.961 . S
H639 C623 0.961 . S
H640 C624 0.931 . S
H641 C629 0.930 . S
H642 C630 0.956 . S
H643 C630 0.961 . S
H644 C630 0.961 . S
H645 C631 0.958 . S
H646 C631 0.961 . S
H647 C631 0.960 . S
C648 C649 1.391 . S
C648 C650 1.394 . S
C648 H664 0.931 . S
C649 C648 1.391 . S
C649 C653 1.376 . S
C650 C648 1.394 . S
C650 C651 1.369 . S
C650 C654 1.531 . S
C651 C650 1.369 . S
C651 C652 1.410 . S
C651 C659 1.503 . S
C652 C651 1.410 . S
C652 C653 1.392 . S
C652 C655 1.511 . S
C653 C649 1.376 . S
C653 C652 1.392 . S
C653 H665 0.929 . S
C654 C650 1.531 . S
C654 H666 0.960 . S
C654 H667 0.962 . S
C654 H668 0.960 . S
C655 C652 1.511 . S
C655 H669 0.961 . S
C655 H670 0.961 . S
C655 H671 0.961 . S
C656 C657 1.370 . S
C656 C658 1.363 . S
C656 H672 0.931 . S
C657 C656 1.370 . S
C657 C661 1.408 . S
C658 C656 1.363 . S
C658 C659 1.370 . S
C658 C662 1.524 . S
C659 C651 1.503 . S
C659 C658 1.370 . S
C659 C660 1.403 . S
C660 C659 1.403 . S
C660 C661 1.404 . S
C660 C663 1.539 . S
C661 C657 1.408 . S
C661 C660 1.404 . S
C661 H673 0.930 . S
C662 C658 1.524 . S
C662 H674 0.956 . S
C662 H675 0.961 . S
C662 H676 0.961 . S
C663 C660 1.539 . S
C663 H677 0.958 . S
C663 H678 0.961 . S
C663 H679 0.960 . S
H664 C648 0.931 . S
H665 C653 0.929 . S
H666 C654 0.960 . S
H667 C654 0.962 . S
H668 C654 0.960 . S
H669 C655 0.961 . S
H670 C655 0.961 . S
H671 C655 0.961 . S
H672 C656 0.931 . S
H673 C661 0.930 . S
H674 C662 0.956 . S
H675 C662 0.961 . S
H676 C662 0.961 . S
H677 C663 0.958 . S
H678 C663 0.961 . S
H679 C663 0.960 . S
C680 C681 1.391 . S
C680 C682 1.394 . S
C680 H696 0.931 . S
C681 C680 1.391 . S
C681 C685 1.376 . S
C682 C680 1.394 . S
C682 C683 1.369 . S
C682 C686 1.531 . S
C683 C682 1.369 . S
C683 C684 1.410 . S
C683 C691 1.503 . S
C684 C683 1.410 . S
C684 C685 1.392 . S
C684 C687 1.511 . S
C685 C681 1.376 . S
C685 C684 1.392 . S
C685 H697 0.929 . S
C686 C682 1.531 . S
C686 H698 0.960 . S
C686 H699 0.962 . S
C686 H700 0.960 . S
C687 C684 1.511 . S
C687 H701 0.961 . S
C687 H702 0.961 . S
C687 H703 0.961 . S
C688 C689 1.370 . S
C688 C690 1.363 . S
C688 H704 0.931 . S
C689 C688 1.370 . S
C689 C693 1.408 . S
C690 C688 1.363 . S
C690 C691 1.370 . S
C690 C694 1.524 . S
C691 C683 1.503 . S
C691 C690 1.370 . S
C691 C692 1.403 . S
C692 C691 1.403 . S
C692 C693 1.404 . S
C692 C695 1.539 . S
C693 C689 1.408 . S
C693 C692 1.404 . S
C693 H705 0.930 . S
C694 C690 1.524 . S
C694 H706 0.956 . S
C694 H707 0.961 . S
C694 H708 0.961 . S
C695 C692 1.539 . S
C695 H709 0.958 . S
C695 H710 0.961 . S
C695 H711 0.960 . S
H696 C680 0.931 . S
H697 C685 0.929 . S
H698 C686 0.960 . S
H699 C686 0.962 . S
H700 C686 0.960 . S
H701 C687 0.961 . S
H702 C687 0.961 . S
H703 C687 0.961 . S
H704 C688 0.931 . S
H705 C693 0.930 . S
H706 C694 0.956 . S
H707 C694 0.961 . S
H708 C694 0.961 . S
H709 C695 0.958 . S
H710 C695 0.961 . S
H711 C695 0.960 . S
C712 C713 1.391 . S
C712 C714 1.394 . S
C712 H728 0.931 . S
C713 C712 1.391 . S
C713 C717 1.376 . S
C714 C712 1.394 . S
C714 C715 1.369 . S
C714 C718 1.531 . S
C715 C714 1.369 . S
C715 C716 1.410 . S
C715 C723 1.503 . S
C716 C715 1.410 . S
C716 C717 1.392 . S
C716 C719 1.511 . S
C717 C713 1.376 . S
C717 C716 1.392 . S
C717 H729 0.929 . S
C718 C714 1.531 . S
C718 H730 0.960 . S
C718 H731 0.962 . S
C718 H732 0.960 . S
C719 C716 1.511 . S
C719 H733 0.961 . S
C719 H734 0.961 . S
C719 H735 0.961 . S
C720 C721 1.370 . S
C720 C722 1.363 . S
C720 H736 0.931 . S
C721 C720 1.370 . S
C721 C725 1.408 . S
C722 C720 1.363 . S
C722 C723 1.370 . S
C722 C726 1.524 . S
C723 C715 1.503 . S
C723 C722 1.370 . S
C723 C724 1.403 . S
C724 C723 1.403 . S
C724 C725 1.404 . S
C724 C727 1.539 . S
C725 C721 1.408 . S
C725 C724 1.404 . S
C725 H737 0.930 . S
C726 C722 1.524 . S
C726 H738 0.956 . S
C726 H739 0.961 . S
C726 H740 0.961 . S
C727 C724 1.539 . S
C727 H741 0.958 . S
C727 H742 0.961 . S
C727 H743 0.960 . S
H728 C712 0.931 . S
H729 C717 0.929 . S
H730 C718 0.960 . S
H731 C718 0.962 . S
H732 C718 0.960 . S
H733 C719 0.961 . S
H734 C719 0.961 . S
H735 C719 0.961 . S
H736 C720 0.931 . S
H737 C725 0.930 . S
H738 C726 0.956 . S
H739 C726 0.961 . S
H740 C726 0.961 . S
H741 C727 0.958 . S
H742 C727 0.961 . S
H743 C727 0.960 . S
C744 C745 1.391 . S
C744 C746 1.394 . S
C744 H760 0.931 . S
C745 C744 1.391 . S
C745 C749 1.376 1_455 S
C746 C744 1.394 . S
C746 C747 1.369 . S
C746 C750 1.531 . S
C747 C746 1.369 . S
C747 C748 1.410 1_455 S
C747 C755 1.503 . S
C748 C747 1.410 1_655 S
C748 C749 1.392 . S
C748 C751 1.511 . S
C749 C745 1.376 1_655 S
C749 C748 1.392 . S
C749 H761 0.929 . S
C750 C746 1.531 . S
C750 H762 0.960 . S
C750 H763 0.962 . S
C750 H764 0.960 . S
C751 C748 1.511 . S
C751 H765 0.961 . S
C751 H766 0.961 . S
C751 H767 0.961 . S
C752 C753 1.370 . S
C752 C754 1.363 . S
C752 H768 0.931 . S
C753 C752 1.370 . S
C753 C757 1.408 . S
C754 C752 1.363 . S
C754 C755 1.370 . S
C754 C758 1.524 . S
C755 C747 1.503 . S
C755 C754 1.370 . S
C755 C756 1.406 . S
C756 C755 1.406 . S
C756 C757 1.406 . S
C756 C759 1.534 1_455 S
C757 C753 1.408 . S
C757 C756 1.406 . S
C757 H769 0.930 1_455 S
C758 C754 1.524 . S
C758 H770 0.956 . S
C758 H771 0.961 . S
C758 H772 0.961 . S
C759 C756 1.534 1_655 S
C759 H773 0.958 . S
C759 H774 0.961 . S
C759 H775 0.960 . S
H760 C744 0.931 . S
H761 C749 0.929 . S
H762 C750 0.960 . S
H763 C750 0.962 . S
H764 C750 0.960 . S
H765 C751 0.961 . S
H766 C751 0.961 . S
H767 C751 0.961 . S
H768 C752 0.931 . S
H769 C757 0.930 1_655 S
H770 C758 0.956 . S
H771 C758 0.961 . S
H772 C758 0.961 . S
H773 C759 0.958 . S
H774 C759 0.961 . S
H775 C759 0.960 . S
C776 C777 1.391 . S
C776 C778 1.394 . S
C776 H792 0.931 . S
C777 C776 1.391 . S
C777 C781 1.376 . S
C778 C776 1.394 . S
C778 C779 1.369 . S
C778 C782 1.531 . S
C779 C778 1.369 . S
C779 C780 1.410 . S
C779 C787 1.503 . S
C780 C779 1.410 . S
C780 C781 1.392 . S
C780 C783 1.511 . S
C781 C777 1.376 . S
C781 C780 1.392 . S
C781 H793 0.929 . S
C782 C778 1.531 . S
C782 H794 0.960 1_545 S
C782 H795 0.962 . S
C782 H796 0.960 1_545 S
C783 C780 1.511 . S
C783 H797 0.961 . S
C783 H798 0.961 . S
C783 H799 0.961 . S
C784 C785 1.370 . S
C784 C786 1.363 . S
C784 H800 0.931 . S
C785 C784 1.370 . S
C785 C789 1.408 . S
C786 C784 1.363 . S
C786 C787 1.370 . S
C786 C790 1.524 . S
C787 C779 1.503 . S
C787 C786 1.370 . S
C787 C788 1.403 . S
C788 C787 1.403 . S
C788 C789 1.404 . S
C788 C791 1.539 1_545 S
C789 C785 1.408 . S
C789 C788 1.404 . S
C789 H801 0.930 . S
C790 C786 1.524 . S
C790 H802 0.956 . S
C790 H803 0.961 . S
C790 H804 0.961 . S
C791 C788 1.539 1_565 S
C791 H805 0.958 . S
C791 H806 0.961 . S
C791 H807 0.960 . S
H792 C776 0.931 . S
H793 C781 0.929 . S
H794 C782 0.960 1_565 S
H795 C782 0.962 . S
H796 C782 0.960 1_565 S
H797 C783 0.961 . S
H798 C783 0.961 . S
H799 C783 0.961 . S
H800 C784 0.931 . S
H801 C789 0.930 . S
H802 C790 0.956 . S
H803 C790 0.961 . S
H804 C790 0.961 . S
H805 C791 0.958 . S
H806 C791 0.961 . S
H807 C791 0.960 . S
C808 C809 1.391 . S
C808 C810 1.394 . S
C808 H824 0.931 . S
C809 C808 1.391 . S
C809 C813 1.376 . S
C810 C808 1.394 . S
C810 C811 1.369 . S
C810 C814 1.531 . S
C811 C810 1.369 . S
C811 C812 1.410 . S
C811 C819 1.503 . S
C812 C811 1.410 . S
C812 C813 1.392 . S
C812 C815 1.511 . S
C813 C809 1.376 . S
C813 C812 1.392 . S
C813 H825 0.929 . S
C814 C810 1.531 . S
C814 H826 0.960 . S
C814 H827 0.962 . S
C814 H828 0.960 . S
C815 C812 1.511 . S
C815 H829 0.961 . S
C815 H830 0.961 . S
C815 H831 0.961 . S
C816 C817 1.370 . S
C816 C818 1.363 . S
C816 H832 0.931 . S
C817 C816 1.370 . S
C817 C821 1.408 . S
C818 C816 1.363 . S
C818 C819 1.370 . S
C818 C822 1.524 . S
C819 C811 1.503 . S
C819 C818 1.370 . S
C819 C820 1.403 . S
C820 C819 1.403 . S
C820 C821 1.404 . S
C820 C823 1.539 . S
C821 C817 1.408 . S
C821 C820 1.404 . S
C821 H833 0.930 . S
C822 C818 1.524 . S
C822 H834 0.956 . S
C822 H835 0.961 . S
C822 H836 0.961 . S
C823 C820 1.539 . S
C823 H837 0.958 . S
C823 H838 0.961 . S
C823 H839 0.960 . S
H824 C808 0.931 . S
H825 C813 0.929 . S
H826 C814 0.960 . S
H827 C814 0.962 . S
H828 C814 0.960 . S
H829 C815 0.961 . S
H830 C815 0.961 . S
H831 C815 0.961 . S
H832 C816 0.931 . S
H833 C821 0.930 . S
H834 C822 0.956 . S
H835 C822 0.961 . S
H836 C822 0.961 . S
H837 C823 0.958 . S
H838 C823 0.961 . S
H839 C823 0.960 . S
C840 C841 1.391 . S
C840 C842 1.394 . S
C840 H856 0.931 . S
C841 C840 1.391 . S
C841 C845 1.376 . S
C842 C840 1.394 . S
C842 C843 1.369 . S
C842 C846 1.531 . S
C843 C842 1.369 . S
C843 C844 1.410 . S
C843 C851 1.503 . S
C844 C843 1.410 . S
C844 C845 1.392 . S
C844 C847 1.511 . S
C845 C841 1.376 . S
C845 C844 1.392 . S
C845 H857 0.929 . S
C846 C842 1.531 . S
C846 H858 0.960 . S
C846 H859 0.962 . S
C846 H860 0.960 . S
C847 C844 1.511 . S
C847 H861 0.961 1_545 S
C847 H862 0.961 1_545 S
C847 H863 0.961 . S
C848 C849 1.370 1_565 S
C848 C850 1.363 . S
C848 H864 0.931 . S
C849 C848 1.370 1_545 S
C849 C853 1.408 . S
C850 C848 1.363 . S
C850 C851 1.370 1_565 S
C850 C854 1.524 . S
C851 C843 1.503 . S
C851 C850 1.370 1_545 S
C851 C852 1.403 . S
C852 C851 1.403 . S
C852 C853 1.404 . S
C852 C855 1.539 . S
C853 C849 1.408 . S
C853 C852 1.404 . S
C853 H865 0.930 . S
C854 C850 1.524 . S
C854 H866 0.956 . S
C854 H867 0.961 . S
C854 H868 0.961 . S
C855 C852 1.539 . S
C855 H869 0.958 . S
C855 H870 0.961 . S
C855 H871 0.960 . S
H856 C840 0.931 . S
H857 C845 0.929 . S
H858 C846 0.960 . S
H859 C846 0.962 . S
H860 C846 0.960 . S
H861 C847 0.961 1_565 S
H862 C847 0.961 1_565 S
H863 C847 0.961 . S
H864 C848 0.931 . S
H865 C853 0.930 . S
H866 C854 0.956 . S
H867 C854 0.961 . S
H868 C854 0.961 . S
H869 C855 0.958 . S
H870 C855 0.961 . S
H871 C855 0.960 . S
C872 C873 1.391 . S
C872 C874 1.394 . S
C872 H888 0.931 . S
C873 C872 1.391 . S
C873 C877 1.376 . S
C874 C872 1.394 . S
C874 C875 1.369 . S
C874 C878 1.531 . S
C875 C874 1.369 . S
C875 C876 1.410 . S
C875 C883 1.503 . S
C876 C875 1.410 . S
C876 C877 1.392 . S
C876 C879 1.511 . S
C877 C873 1.376 . S
C877 C876 1.392 . S
C877 H889 0.929 . S
C878 C874 1.531 . S
C878 H890 0.960 . S
C878 H891 0.962 . S
C878 H892 0.960 . S
C879 C876 1.511 . S
C879 H893 0.961 . S
C879 H894 0.961 . S
C879 H895 0.961 . S
C880 C881 1.370 . S
C880 C882 1.363 . S
C880 H896 0.931 . S
C881 C880 1.370 . S
C881 C885 1.408 . S
C882 C880 1.363 . S
C882 C883 1.370 . S
C882 C886 1.524 . S
C883 C875 1.503 . S
C883 C882 1.370 . S
C883 C884 1.403 . S
C884 C883 1.403 . S
C884 C885 1.404 . S
C884 C887 1.539 . S
C885 C881 1.408 . S
C885 C884 1.404 . S
C885 H897 0.930 . S
C886 C882 1.524 . S
C886 H898 0.956 . S
C886 H899 0.961 . S
C886 H900 0.961 . S
C887 C884 1.539 . S
C887 H901 0.958 . S
C887 H902 0.961 . S
C887 H903 0.960 . S
H888 C872 0.931 . S
H889 C877 0.929 . S
H890 C878 0.960 . S
H891 C878 0.962 . S
H892 C878 0.960 . S
H893 C879 0.961 . S
H894 C879 0.961 . S
H895 C879 0.961 . S
H896 C880 0.931 . S
H897 C885 0.930 . S
H898 C886 0.956 . S
H899 C886 0.961 . S
H900 C886 0.961 . S
H901 C887 0.958 . S
H902 C887 0.961 . S
H903 C887 0.960 . S
C904 C905 1.391 1_655 S
C904 C906 1.394 . S
C904 H920 0.931 . S
C905 C904 1.391 1_455 S
C905 C909 1.376 . S
C906 C904 1.394 . S
C906 C907 1.366 . S
C906 C910 1.531 . S
C907 C906 1.366 . S
C907 C908 1.413 1_655 S
C907 C915 1.503 . S
C908 C907 1.413 1_455 S
C908 C909 1.392 . S
C908 C911 1.511 . S
C909 C905 1.376 . S
C909 C908 1.392 . S
C909 H921 0.929 . S
C910 C906 1.531 . S
C910 H922 0.960 . S
C910 H923 0.962 . S
C910 H924 0.960 . S
C911 C908 1.511 . S
C911 H925 0.961 . S
C911 H926 0.961 . S
C911 H927 0.961 . S
C912 C913 1.370 . S
C912 C914 1.369 . S
C912 H928 0.931 . S
C913 C912 1.370 . S
C913 C917 1.408 . S
C914 C912 1.369 . S
C914 C915 1.359 . S
C914 C918 1.531 1_655 S
C915 C907 1.503 . S
C915 C914 1.359 . S
C915 C916 1.403 . S
C916 C915 1.403 . S
C916 C917 1.404 . S
C916 C919 1.539 . S
C917 C913 1.408 . S
C917 C916 1.404 . S
C917 H929 0.930 . S
C918 C914 1.531 1_455 S
C918 H930 0.956 1_455 S
C918 H931 0.961 . S
C918 H932 0.961 . S
C919 C916 1.539 . S
C919 H933 0.958 . S
C919 H934 0.961 1_655 S
C919 H935 0.960 1_655 S
H920 C904 0.931 . S
H921 C909 0.929 . S
H922 C910 0.960 . S
H923 C910 0.962 . S
H924 C910 0.960 . S
H925 C911 0.961 . S
H926 C911 0.961 . S
H927 C911 0.961 . S
H928 C912 0.931 . S
H929 C917 0.930 . S
H930 C918 0.956 1_655 S
H931 C918 0.961 . S
H932 C918 0.961 . S
H933 C919 0.958 . S
H934 C919 0.961 1_455 S
H935 C919 0.960 1_455 S
C361 C24 2.977 . S
C369 C335 2.922 . S
C393 C66 1.126 . S
C401 C242 1.125 . S
C425 C93 1.872 . S
C433 C282 1.833 . S
C457 C13 3.139 . S
C465 C322 3.092 . S
C497 C255 1.293 . S
C489 C57 1.307 . S
C529 C295 1.998 . S
C521 C104 2.071 . S
C553 C64 2.003 . S
C561 C162 1.978 . S
C585 C97 0.484 . S
C593 C202 0.562 . S
C617 C17 1.306 . S
C625 C135 1.288 . S
C657 C175 1.861 . S
C649 C53 1.915 . S
C689 C215 0.217 . S
C681 C106 0.429 . S
C713 C26 1.088 . S
C721 C122 1.137 . S
C753 C221 1.093 . S
C745 C2 1.061 . S
C777 C63 1.446 . S
C785 C141 1.504 . S
C809 C82 1.362 . S
C817 C181 1.367 . S
C849 C301 1.412 . S
C841 C42 1.379 . S
C881 C341 1.761 1_556 S
C873 C103 1.736 . S
C905 C23 1.503 . S
C913 C261 1.520 . S
