# Generated by pormake.
# Topology gar, (4,6)-cn, num edge types: 1
# Building blocks:
#     Node 0, Type 0, BuildingBlock: UXUYUI_clean_sbu_0, # of connection points: 4
#     Node 1, Type 0, BuildingBlock: UXUYUI_clean_sbu_0, # of connection points: 4
#     Node 2, Type 0, BuildingBlock: UXUYUI_clean_sbu_0, # of connection points: 4
#     Node 3, Type 0, BuildingBlock: UXUYUI_clean_sbu_0, # of connection points: 4
#     Node 4, Type 0, BuildingBlock: UXUYUI_clean_sbu_0, # of connection points: 4
#     Node 5, Type 0, BuildingBlock: UXUYUI_clean_sbu_0, # of connection points: 4
#     Node 6, Type 0, BuildingBlock: UXUYUI_clean_sbu_0, # of connection points: 4
#     Node 7, Type 0, BuildingBlock: UXUYUI_clean_sbu_0, # of connection points: 4
#     Node 8, Type 0, BuildingBlock: UXUYUI_clean_sbu_0, # of connection points: 4
#     Node 9, Type 0, BuildingBlock: UXUYUI_clean_sbu_0, # of connection points: 4
#     Node 10, Type 0, BuildingBlock: UXUYUI_clean_sbu_0, # of connection points: 4
#     Node 11, Type 0, BuildingBlock: UXUYUI_clean_sbu_0, # of connection points: 4
#     Node 12, Type 0, BuildingBlock: UXUYUI_clean_sbu_0, # of connection points: 4
#     Node 13, Type 0, BuildingBlock: UXUYUI_clean_sbu_0, # of connection points: 4
#     Node 14, Type 0, BuildingBlock: UXUYUI_clean_sbu_0, # of connection points: 4
#     Node 15, Type 0, BuildingBlock: UXUYUI_clean_sbu_0, # of connection points: 4
#     Node 16, Type 0, BuildingBlock: UXUYUI_clean_sbu_0, # of connection points: 4
#     Node 17, Type 0, BuildingBlock: UXUYUI_clean_sbu_0, # of connection points: 4
#     Node 18, Type 0, BuildingBlock: UXUYUI_clean_sbu_0, # of connection points: 4
#     Node 19, Type 0, BuildingBlock: UXUYUI_clean_sbu_0, # of connection points: 4
#     Node 20, Type 0, BuildingBlock: UXUYUI_clean_sbu_0, # of connection points: 4
#     Node 21, Type 0, BuildingBlock: UXUYUI_clean_sbu_0, # of connection points: 4
#     Node 22, Type 0, BuildingBlock: UXUYUI_clean_sbu_0, # of connection points: 4
#     Node 23, Type 0, BuildingBlock: UXUYUI_clean_sbu_0, # of connection points: 4
#     Node 24, Type 1, BuildingBlock: KUMBOL_clean_sbu_0, # of connection points: 6
#     Node 25, Type 1, BuildingBlock: KUMBOL_clean_sbu_0, # of connection points: 6
#     Node 26, Type 1, BuildingBlock: KUMBOL_clean_sbu_0, # of connection points: 6
#     Node 27, Type 1, BuildingBlock: KUMBOL_clean_sbu_0, # of connection points: 6
#     Node 28, Type 1, BuildingBlock: KUMBOL_clean_sbu_0, # of connection points: 6
#     Node 29, Type 1, BuildingBlock: KUMBOL_clean_sbu_0, # of connection points: 6
#     Node 30, Type 1, BuildingBlock: KUMBOL_clean_sbu_0, # of connection points: 6
#     Node 31, Type 1, BuildingBlock: KUMBOL_clean_sbu_0, # of connection points: 6
#     Node 32, Type 1, BuildingBlock: KUMBOL_clean_sbu_0, # of connection points: 6
#     Node 33, Type 1, BuildingBlock: KUMBOL_clean_sbu_0, # of connection points: 6
#     Node 34, Type 1, BuildingBlock: KUMBOL_clean_sbu_0, # of connection points: 6
#     Node 35, Type 1, BuildingBlock: KUMBOL_clean_sbu_0, # of connection points: 6
#     Node 36, Type 1, BuildingBlock: KUMBOL_clean_sbu_0, # of connection points: 6
#     Node 37, Type 1, BuildingBlock: KUMBOL_clean_sbu_0, # of connection points: 6
#     Node 38, Type 1, BuildingBlock: KUMBOL_clean_sbu_0, # of connection points: 6
#     Node 39, Type 1, BuildingBlock: KUMBOL_clean_sbu_0, # of connection points: 6
#     Edge 40, Type (0, 1), BuildingBlock: ZUJKAS_clean_linker_0, # of connection points: 2
#     Edge 41, Type (0, 1), BuildingBlock: ZUJKAS_clean_linker_0, # of connection points: 2
#     Edge 42, Type (0, 1), BuildingBlock: ZUJKAS_clean_linker_0, # of connection points: 2
#     Edge 43, Type (0, 1), BuildingBlock: ZUJKAS_clean_linker_0, # of connection points: 2
#     Edge 44, Type (0, 1), BuildingBlock: ZUJKAS_clean_linker_0, # of connection points: 2
#     Edge 45, Type (0, 1), BuildingBlock: ZUJKAS_clean_linker_0, # of connection points: 2
#     Edge 46, Type (0, 1), BuildingBlock: ZUJKAS_clean_linker_0, # of connection points: 2
#     Edge 47, Type (0, 1), BuildingBlock: ZUJKAS_clean_linker_0, # of connection points: 2
#     Edge 48, Type (0, 1), BuildingBlock: ZUJKAS_clean_linker_0, # of connection points: 2
#     Edge 49, Type (0, 1), BuildingBlock: ZUJKAS_clean_linker_0, # of connection points: 2
#     Edge 50, Type (0, 1), BuildingBlock: ZUJKAS_clean_linker_0, # of connection points: 2
#     Edge 51, Type (0, 1), BuildingBlock: ZUJKAS_clean_linker_0, # of connection points: 2
#     Edge 52, Type (0, 1), BuildingBlock: ZUJKAS_clean_linker_0, # of connection points: 2
#     Edge 53, Type (0, 1), BuildingBlock: ZUJKAS_clean_linker_0, # of connection points: 2
#     Edge 54, Type (0, 1), BuildingBlock: ZUJKAS_clean_linker_0, # of connection points: 2
#     Edge 55, Type (0, 1), BuildingBlock: ZUJKAS_clean_linker_0, # of connection points: 2
#     Edge 56, Type (0, 1), BuildingBlock: ZUJKAS_clean_linker_0, # of connection points: 2
#     Edge 57, Type (0, 1), BuildingBlock: ZUJKAS_clean_linker_0, # of connection points: 2
#     Edge 58, Type (0, 1), BuildingBlock: ZUJKAS_clean_linker_0, # of connection points: 2
#     Edge 59, Type (0, 1), BuildingBlock: ZUJKAS_clean_linker_0, # of connection points: 2
#     Edge 60, Type (0, 1), BuildingBlock: ZUJKAS_clean_linker_0, # of connection points: 2
#     Edge 61, Type (0, 1), BuildingBlock: ZUJKAS_clean_linker_0, # of connection points: 2
#     Edge 62, Type (0, 1), BuildingBlock: ZUJKAS_clean_linker_0, # of connection points: 2
#     Edge 63, Type (0, 1), BuildingBlock: ZUJKAS_clean_linker_0, # of connection points: 2
#     Edge 64, Type (0, 1), BuildingBlock: ZUJKAS_clean_linker_0, # of connection points: 2
#     Edge 65, Type (0, 1), BuildingBlock: ZUJKAS_clean_linker_0, # of connection points: 2
#     Edge 66, Type (0, 1), BuildingBlock: ZUJKAS_clean_linker_0, # of connection points: 2
#     Edge 67, Type (0, 1), BuildingBlock: ZUJKAS_clean_linker_0, # of connection points: 2
#     Edge 68, Type (0, 1), BuildingBlock: ZUJKAS_clean_linker_0, # of connection points: 2
#     Edge 69, Type (0, 1), BuildingBlock: ZUJKAS_clean_linker_0, # of connection points: 2
#     Edge 70, Type (0, 1), BuildingBlock: ZUJKAS_clean_linker_0, # of connection points: 2
#     Edge 71, Type (0, 1), BuildingBlock: ZUJKAS_clean_linker_0, # of connection points: 2
#     Edge 72, Type (0, 1), BuildingBlock: ZUJKAS_clean_linker_0, # of connection points: 2
#     Edge 73, Type (0, 1), BuildingBlock: ZUJKAS_clean_linker_0, # of connection points: 2
#     Edge 74, Type (0, 1), BuildingBlock: ZUJKAS_clean_linker_0, # of connection points: 2
#     Edge 75, Type (0, 1), BuildingBlock: ZUJKAS_clean_linker_0, # of connection points: 2
#     Edge 76, Type (0, 1), BuildingBlock: ZUJKAS_clean_linker_0, # of connection points: 2
#     Edge 77, Type (0, 1), BuildingBlock: ZUJKAS_clean_linker_0, # of connection points: 2
#     Edge 78, Type (0, 1), BuildingBlock: ZUJKAS_clean_linker_0, # of connection points: 2
#     Edge 79, Type (0, 1), BuildingBlock: ZUJKAS_clean_linker_0, # of connection points: 2
#     Edge 80, Type (0, 1), BuildingBlock: ZUJKAS_clean_linker_0, # of connection points: 2
#     Edge 81, Type (0, 1), BuildingBlock: ZUJKAS_clean_linker_0, # of connection points: 2
#     Edge 82, Type (0, 1), BuildingBlock: ZUJKAS_clean_linker_0, # of connection points: 2
#     Edge 83, Type (0, 1), BuildingBlock: ZUJKAS_clean_linker_0, # of connection points: 2
#     Edge 84, Type (0, 1), BuildingBlock: ZUJKAS_clean_linker_0, # of connection points: 2
#     Edge 85, Type (0, 1), BuildingBlock: ZUJKAS_clean_linker_0, # of connection points: 2
#     Edge 86, Type (0, 1), BuildingBlock: ZUJKAS_clean_linker_0, # of connection points: 2
#     Edge 87, Type (0, 1), BuildingBlock: ZUJKAS_clean_linker_0, # of connection points: 2
#     Edge 88, Type (0, 1), BuildingBlock: ZUJKAS_clean_linker_0, # of connection points: 2
#     Edge 89, Type (0, 1), BuildingBlock: ZUJKAS_clean_linker_0, # of connection points: 2
#     Edge 90, Type (0, 1), BuildingBlock: ZUJKAS_clean_linker_0, # of connection points: 2
#     Edge 91, Type (0, 1), BuildingBlock: ZUJKAS_clean_linker_0, # of connection points: 2
#     Edge 92, Type (0, 1), BuildingBlock: ZUJKAS_clean_linker_0, # of connection points: 2
#     Edge 93, Type (0, 1), BuildingBlock: ZUJKAS_clean_linker_0, # of connection points: 2
#     Edge 94, Type (0, 1), BuildingBlock: ZUJKAS_clean_linker_0, # of connection points: 2
#     Edge 95, Type (0, 1), BuildingBlock: ZUJKAS_clean_linker_0, # of connection points: 2
#     Edge 96, Type (0, 1), BuildingBlock: ZUJKAS_clean_linker_0, # of connection points: 2
#     Edge 97, Type (0, 1), BuildingBlock: ZUJKAS_clean_linker_0, # of connection points: 2
#     Edge 98, Type (0, 1), BuildingBlock: ZUJKAS_clean_linker_0, # of connection points: 2
#     Edge 99, Type (0, 1), BuildingBlock: ZUJKAS_clean_linker_0, # of connection points: 2
#     Edge 100, Type (0, 1), BuildingBlock: ZUJKAS_clean_linker_0, # of connection points: 2
#     Edge 101, Type (0, 1), BuildingBlock: ZUJKAS_clean_linker_0, # of connection points: 2
#     Edge 102, Type (0, 1), BuildingBlock: ZUJKAS_clean_linker_0, # of connection points: 2
#     Edge 103, Type (0, 1), BuildingBlock: ZUJKAS_clean_linker_0, # of connection points: 2
#     Edge 104, Type (0, 1), BuildingBlock: ZUJKAS_clean_linker_0, # of connection points: 2
#     Edge 105, Type (0, 1), BuildingBlock: ZUJKAS_clean_linker_0, # of connection points: 2
#     Edge 106, Type (0, 1), BuildingBlock: ZUJKAS_clean_linker_0, # of connection points: 2
#     Edge 107, Type (0, 1), BuildingBlock: ZUJKAS_clean_linker_0, # of connection points: 2
#     Edge 108, Type (0, 1), BuildingBlock: ZUJKAS_clean_linker_0, # of connection points: 2
#     Edge 109, Type (0, 1), BuildingBlock: ZUJKAS_clean_linker_0, # of connection points: 2
#     Edge 110, Type (0, 1), BuildingBlock: ZUJKAS_clean_linker_0, # of connection points: 2
#     Edge 111, Type (0, 1), BuildingBlock: ZUJKAS_clean_linker_0, # of connection points: 2
#     Edge 112, Type (0, 1), BuildingBlock: ZUJKAS_clean_linker_0, # of connection points: 2
#     Edge 113, Type (0, 1), BuildingBlock: ZUJKAS_clean_linker_0, # of connection points: 2
#     Edge 114, Type (0, 1), BuildingBlock: ZUJKAS_clean_linker_0, # of connection points: 2
#     Edge 115, Type (0, 1), BuildingBlock: ZUJKAS_clean_linker_0, # of connection points: 2
#     Edge 116, Type (0, 1), BuildingBlock: ZUJKAS_clean_linker_0, # of connection points: 2
#     Edge 117, Type (0, 1), BuildingBlock: ZUJKAS_clean_linker_0, # of connection points: 2
#     Edge 118, Type (0, 1), BuildingBlock: ZUJKAS_clean_linker_0, # of connection points: 2
#     Edge 119, Type (0, 1), BuildingBlock: ZUJKAS_clean_linker_0, # of connection points: 2
#     Edge 120, Type (0, 1), BuildingBlock: ZUJKAS_clean_linker_0, # of connection points: 2
#     Edge 121, Type (0, 1), BuildingBlock: ZUJKAS_clean_linker_0, # of connection points: 2
#     Edge 122, Type (0, 1), BuildingBlock: ZUJKAS_clean_linker_0, # of connection points: 2
#     Edge 123, Type (0, 1), BuildingBlock: ZUJKAS_clean_linker_0, # of connection points: 2
#     Edge 124, Type (0, 1), BuildingBlock: ZUJKAS_clean_linker_0, # of connection points: 2
#     Edge 125, Type (0, 1), BuildingBlock: ZUJKAS_clean_linker_0, # of connection points: 2
#     Edge 126, Type (0, 1), BuildingBlock: ZUJKAS_clean_linker_0, # of connection points: 2
#     Edge 127, Type (0, 1), BuildingBlock: ZUJKAS_clean_linker_0, # of connection points: 2
#     Edge 128, Type (0, 1), BuildingBlock: ZUJKAS_clean_linker_0, # of connection points: 2
#     Edge 129, Type (0, 1), BuildingBlock: ZUJKAS_clean_linker_0, # of connection points: 2
#     Edge 130, Type (0, 1), BuildingBlock: ZUJKAS_clean_linker_0, # of connection points: 2
#     Edge 131, Type (0, 1), BuildingBlock: ZUJKAS_clean_linker_0, # of connection points: 2
#     Edge 132, Type (0, 1), BuildingBlock: ZUJKAS_clean_linker_0, # of connection points: 2
#     Edge 133, Type (0, 1), BuildingBlock: ZUJKAS_clean_linker_0, # of connection points: 2
#     Edge 134, Type (0, 1), BuildingBlock: ZUJKAS_clean_linker_0, # of connection points: 2
#     Edge 135, Type (0, 1), BuildingBlock: ZUJKAS_clean_linker_0, # of connection points: 2
# Relax obj value: 0.137
# Max RMSD: 0.298
# Mean RMSD: 0.194
data_MOF--net-gar--node1-UXUYUI_clean_sbu_0--node2-KUMBOL_clean_sbu_0--edge1-ZUJKAS_clean_linker_0
_symmetry_space_group_name_H-M    P1
_symmetry_Int_Tables_number       1
_symmetry_cell_setting            triclinic
loop_
_symmetry_equiv_pos_as_xyz
'x, y, z'
_cell_length_a     88.851669
_cell_length_b     84.955672
_cell_length_c     85.214916
_cell_angle_alpha  99.70904
_cell_angle_beta   92.797346
_cell_angle_gamma 102.1047
loop_
_atom_site_label
_atom_site_type_symbol
_atom_site_fract_x
_atom_site_fract_y
_atom_site_fract_z
_atom_type_partial_charge
Li0 Li 0.07605 0.31378 0.3755 0.0
Li1 Li 0.09431 0.32796 0.39801 0.0
Li2 Li 0.10327 0.31406 0.37485 0.0
Li3 Li 0.08837 0.29863 0.39381 0.0
C4 C 0.09298 0.34373 0.36677 0.0
N5 N 0.09245 0.36655 0.34726 0.0
C6 C 0.09135 0.3595 0.37321 0.0
C7 C 0.09427 0.33957 0.35039 0.0
C8 C 0.09111 0.37085 0.36316 0.0
C9 C 0.09401 0.35128 0.34073 0.0
C10 C 0.06294 0.31826 0.40721 0.0
C11 C 0.0462 0.31577 0.42851 0.0
N12 N 0.04001 0.32808 0.42457 0.0
C13 C 0.05652 0.33097 0.40343 0.0
C14 C 0.05779 0.31061 0.41985 0.0
C15 C 0.04488 0.33571 0.41232 0.0
C16 C 0.04814 0.2985 0.35763 0.0
N17 N 0.0579 0.31325 0.36305 0.0
C18 C 0.04066 0.32715 0.35174 0.0
C19 C 0.05453 0.32741 0.36012 0.0
C20 C 0.03004 0.31219 0.34659 0.0
C21 C 0.03403 0.29767 0.34926 0.0
H22 H 0.05115 0.28746 0.36022 0.0
H23 H 0.0623 0.339 0.36476 0.0
C24 C 0.11139 0.35882 0.40934 0.0
N25 N 0.0998 0.34723 0.41309 0.0
C26 C 0.11475 0.37458 0.41828 0.0
C27 C 0.09484 0.36574 0.43535 0.0
C28 C 0.09201 0.35009 0.4262 0.0
C29 C 0.10594 0.37818 0.43099 0.0
H30 H 0.11736 0.35604 0.39881 0.0
H31 H 0.08314 0.3405 0.42912 0.0
C32 C 0.08454 0.28397 0.35604 0.0
N33 N 0.08319 0.26221 0.32773 0.0
C34 C 0.08661 0.26814 0.35626 0.0
C35 C 0.08164 0.28869 0.34146 0.0
C36 C 0.0859 0.25733 0.34181 0.0
C37 C 0.08106 0.27753 0.32727 0.0
C38 C 0.1201 0.32208 0.40923 0.0
C39 C 0.13433 0.33056 0.40552 0.0
C40 C 0.11682 0.32303 0.4252 0.0
C41 C 0.14499 0.34009 0.41785 0.0
C42 C 0.12776 0.33274 0.43719 0.0
N43 N 0.1415 0.341 0.4333 0.0
C44 C 0.12724 0.33104 0.36118 0.0
C45 C 0.12165 0.30231 0.35173 0.0
C46 C 0.13846 0.3335 0.3505 0.0
N47 N 0.11901 0.31568 0.36138 0.0
C48 C 0.13266 0.3042 0.34079 0.0
C49 C 0.14107 0.31996 0.34005 0.0
H50 H 0.12497 0.34138 0.36925 0.0
H51 H 0.11527 0.29023 0.35251 0.0
C52 C 0.07097 0.27044 0.40206 0.0
N53 N 0.0852 0.28055 0.40384 0.0
C54 C 0.06803 0.25754 0.41045 0.0
C55 C 0.09449 0.2658 0.42221 0.0
C56 C 0.09692 0.27847 0.41354 0.0
C57 C 0.07986 0.25518 0.42077 0.0
H58 H 0.06189 0.27258 0.3943 0.0
H59 H 0.10808 0.28683 0.41474 0.0
O60 O 0.09344 0.33255 0.37655 0.0
O61 O 0.07409 0.31312 0.39851 0.0
O62 O 0.08531 0.29469 0.37009 0.0
O63 O 0.10937 0.31303 0.39729 0.0
H64 H 0.09008 0.36288 0.38582 0.0
H65 H 0.0956 0.32748 0.34518 0.0
H66 H 0.08984 0.38308 0.36799 0.0
H67 H 0.09506 0.34824 0.32804 0.0
H68 H 0.04212 0.30997 0.43834 0.0
H69 H 0.06054 0.33716 0.39384 0.0
H70 H 0.06271 0.30079 0.42294 0.0
H71 H 0.03974 0.34547 0.4095 0.0
H72 H 0.03808 0.3386 0.34972 0.0
H73 H 0.02607 0.28591 0.34558 0.0
H74 H 0.12323 0.3841 0.41458 0.0
H75 H 0.08784 0.36835 0.44512 0.0
H76 H 0.08879 0.2643 0.36748 0.0
H77 H 0.07983 0.30082 0.34111 0.0
H78 H 0.08752 0.24505 0.34178 0.0
H79 H 0.0789 0.28103 0.31588 0.0
H80 H 0.13711 0.32985 0.39324 0.0
H81 H 0.10582 0.31658 0.42826 0.0
H82 H 0.15602 0.34679 0.41515 0.0
H83 H 0.12532 0.33375 0.44959 0.0
H84 H 0.14494 0.34578 0.35035 0.0
H85 H 0.1348 0.29343 0.33323 0.0
H86 H 0.05665 0.24951 0.40883 0.0
H87 H 0.10385 0.26456 0.4302 0.0
Li88 Li 0.0048 0.77906 0.64173 0.0
Li89 Li 0.01633 0.765 0.66127 0.0
Li90 Li 0.99923 0.74925 0.63792 0.0
Li91 Li 0.98893 0.76352 0.66053 0.0
C92 C 0.02977 0.762 0.62735 0.0
N93 N 0.05057 0.75679 0.60502 0.0
C94 C 0.04403 0.75896 0.63203 0.0
C95 C 0.02614 0.76253 0.61133 0.0
C96 C 0.05439 0.75636 0.62056 0.0
C97 C 0.03678 0.75978 0.6002 0.0
C98 C 0.00882 0.79522 0.67907 0.0
C99 C 0.00848 0.80345 0.70753 0.0
N100 N 0.01515 0.81909 0.70633 0.0
C101 C 0.01559 0.81139 0.6781 0.0
C102 C 0.00514 0.79121 0.69387 0.0
C103 C 0.01873 0.82328 0.69203 0.0
C104 C 0.99595 0.80533 0.63095 0.0
N105 N 0.00758 0.79725 0.63158 0.0
C106 C 0.02275 0.81462 0.61629 0.0
C107 C 0.02092 0.80177 0.62473 0.0
C108 C 0.01091 0.82311 0.61534 0.0
C109 C 0.99745 0.81854 0.62294 0.0
H110 H 0.9855 0.80141 0.63658 0.0
H111 H 0.0301 0.79536 0.62576 0.0
C112 C 0.03859 0.75145 0.6742 0.0
N113 N 0.03389 0.7657 0.67446 0.0
C114 C 0.0524 0.75142 0.68256 0.0
C115 C 0.05598 0.78064 0.6917 0.0
C116 C 0.04213 0.78012 0.68308 0.0
C117 C 0.06139 0.76622 0.69115 0.0
H118 H 0.03193 0.74024 0.66696 0.0
H119 H 0.0383 0.79131 0.68276 0.0
C120 C 0.97284 0.75713 0.62575 0.0
N121 N 0.94964 0.74313 0.60161 0.0
C122 C 0.95791 0.75069 0.62947 0.0
C123 C 0.97594 0.75666 0.60978 0.0
C124 C 0.94635 0.74362 0.61709 0.0
C125 C 0.96406 0.74945 0.59774 0.0
C126 C 1.00002 0.73473 0.66995 0.0
C127 C 0.99842 0.71809 0.66377 0.0
C128 C 1.00205 0.74019 0.68649 0.0
C129 C 0.99876 0.70715 0.67426 0.0
C130 C 1.00237 0.72887 0.69658 0.0
N131 N 1.00071 0.71273 0.69031 0.0
C132 C 0.00404 0.72402 0.61347 0.0
C133 C 0.97945 0.72031 0.62372 0.0
C134 C 0.9997 0.70883 0.60345 0.0
N135 N 0.99387 0.72949 0.62321 0.0
C136 C 0.97463 0.705 0.61394 0.0
C137 C 0.98488 0.69912 0.60372 0.0
H138 H 0.01568 0.73102 0.61389 0.0
H139 H 0.97188 0.72466 0.63216 0.0
C140 C 0.9671 0.7757 0.67785 0.0
N141 N 0.97226 0.76201 0.67247 0.0
C142 C 0.9543 0.77462 0.68663 0.0
C143 C 0.95257 0.74541 0.68417 0.0
C144 C 0.96528 0.74703 0.67525 0.0
C145 C 0.94699 0.75933 0.68982 0.0
H146 H 0.97291 0.78736 0.67522 0.0
H147 H 0.96946 0.73633 0.67036 0.0
O148 O 0.01958 0.76469 0.63849 0.0
O149 O 0.00565 0.78349 0.6655 0.0
O150 O 0.98431 0.76397 0.63772 0.0
O151 O 0.99951 0.74554 0.65979 0.0
H152 H 0.04713 0.75871 0.64439 0.0
H153 H 0.01518 0.76493 0.60752 0.0
H154 H 0.06547 0.75401 0.62403 0.0
H155 H 0.03408 0.76004 0.58775 0.0
H156 H 0.00571 0.80051 0.71907 0.0
H157 H 0.01842 0.81469 0.66669 0.0
H158 H 0.99963 0.77886 0.69481 0.0
H159 H 0.024 0.83584 0.69146 0.0
H160 H 0.03335 0.81802 0.61069 0.0
H161 H 0.98812 0.82489 0.62239 0.0
H162 H 0.05625 0.74006 0.68194 0.0
H163 H 0.06276 0.79231 0.69803 0.0
H164 H 0.9553 0.75107 0.64178 0.0
H165 H 0.9874 0.76171 0.60674 0.0
H166 H 0.93476 0.73852 0.61978 0.0
H167 H 0.96631 0.74888 0.58532 0.0
H168 H 0.9969 0.71365 0.651 0.0
H169 H 0.00346 0.753 0.69148 0.0
H170 H 0.99749 0.69423 0.66963 0.0
H171 H 0.00394 0.73293 0.70941 0.0
H172 H 0.00815 0.70438 0.5962 0.0
H173 H 0.96323 0.69765 0.61468 0.0
H174 H 0.95019 0.78557 0.69097 0.0
H175 H 0.94698 0.73346 0.68637 0.0
Li176 Li 0.57595 0.81452 0.87509 0.0
Li177 Li 0.595 0.82964 0.89654 0.0
Li178 Li 0.60328 0.81393 0.87413 0.0
Li179 Li 0.58834 0.80048 0.89449 0.0
C180 C 0.59372 0.84516 0.86663 0.0
N181 N 0.59407 0.87121 0.851 0.0
C182 C 0.58891 0.85903 0.87404 0.0
C183 C 0.59845 0.84443 0.85116 0.0
C184 C 0.58926 0.87211 0.86598 0.0
C185 C 0.59859 0.85775 0.84349 0.0
C186 C 0.56437 0.82191 0.90788 0.0
C187 C 0.55117 0.82311 0.93196 0.0
N188 N 0.54279 0.83305 0.92644 0.0
C189 C 0.55571 0.83219 0.90246 0.0
C190 C 0.5621 0.81731 0.92273 0.0
C191 C 0.54482 0.83766 0.91202 0.0
C192 C 0.54583 0.80021 0.86287 0.0
N193 N 0.55764 0.81316 0.8625 0.0
C194 C 0.54229 0.82378 0.84499 0.0
C195 C 0.55623 0.82469 0.85359 0.0
C196 C 0.52971 0.81089 0.84562 0.0
C197 C 0.53164 0.79879 0.85441 0.0
H198 H 0.54739 0.79119 0.87001 0.0
H199 H 0.56573 0.83477 0.85328 0.0
C200 C 0.61315 0.86058 0.90508 0.0
N201 N 0.60185 0.84974 0.9103 0.0
C202 C 0.61782 0.87655 0.91345 0.0
C203 C 0.60017 0.86933 0.93319 0.0
C204 C 0.5957 0.85356 0.92432 0.0
C205 C 0.61097 0.8811 0.92744 0.0
H206 H 0.61801 0.85697 0.89401 0.0
H207 H 0.58702 0.84458 0.92836 0.0
C208 C 0.5827 0.78381 0.85694 0.0
N209 N 0.57809 0.76092 0.82904 0.0
C210 C 0.58334 0.76761 0.85741 0.0
C211 C 0.5797 0.78842 0.84232 0.0
C212 C 0.581 0.75621 0.84316 0.0
C213 C 0.57739 0.77663 0.82833 0.0
C214 C 0.61966 0.82274 0.90949 0.0
C215 C 0.63443 0.8309 0.90688 0.0
C216 C 0.6153 0.82335 0.92508 0.0
C217 C 0.64456 0.83978 0.91993 0.0
C218 C 0.62573 0.83245 0.93782 0.0
N219 N 0.64002 0.8404 0.935 0.0
C220 C 0.62872 0.82926 0.86198 0.0
C221 C 0.62067 0.80105 0.85038 0.0
C222 C 0.64081 0.83125 0.85225 0.0
N223 N 0.61902 0.81437 0.86082 0.0
C224 C 0.63255 0.80248 0.84036 0.0
C225 C 0.64282 0.81771 0.84135 0.0
H226 H 0.62702 0.83957 0.87049 0.0
H227 H 0.61286 0.78936 0.84986 0.0
C228 C 0.57085 0.77659 0.90898 0.0
N229 N 0.58527 0.78288 0.90523 0.0
C230 C 0.56844 0.76374 0.91746 0.0
C231 C 0.59575 0.76396 0.91766 0.0
C232 C 0.59764 0.7769 0.9093 0.0
C233 C 0.58101 0.75731 0.9219 0.0
H234 H 0.56126 0.78162 0.90545 0.0
H235 H 0.60897 0.78226 0.90611 0.0
O236 O 0.59373 0.83231 0.87441 0.0
O237 O 0.57446 0.81564 0.89838 0.0
O238 O 0.58501 0.79505 0.8708 0.0
O239 O 0.60945 0.8143 0.89685 0.0
H240 H 0.58491 0.85968 0.88588 0.0
H241 H 0.60186 0.83365 0.84509 0.0
H242 H 0.58568 0.88296 0.87161 0.0
H243 H 0.60227 0.85736 0.83154 0.0
H244 H 0.54929 0.81966 0.94349 0.0
H245 H 0.55728 0.83579 0.89096 0.0
H246 H 0.56873 0.80935 0.92708 0.0
H247 H 0.53794 0.84553 0.90795 0.0
H248 H 0.5413 0.83322 0.83814 0.0
H249 H 0.52214 0.78872 0.85526 0.0
H250 H 0.62613 0.88541 0.90871 0.0
H251 H 0.5945 0.87256 0.94386 0.0
H252 H 0.58566 0.76391 0.86868 0.0
H253 H 0.57925 0.80095 0.84178 0.0
H254 H 0.5815 0.74362 0.84333 0.0
H255 H 0.57506 0.77998 0.8169 0.0
H256 H 0.63804 0.83041 0.8949 0.0
H257 H 0.60387 0.81712 0.92728 0.0
H258 H 0.65602 0.8462 0.91808 0.0
H259 H 0.62246 0.83323 0.94993 0.0
H260 H 0.64865 0.8431 0.85348 0.0
H261 H 0.63374 0.79181 0.83197 0.0
H262 H 0.55688 0.75879 0.92037 0.0
H263 H 0.60572 0.75938 0.92099 0.0
Li264 Li 0.50433 0.277 0.14082 0.0
Li265 Li 0.51634 0.26402 0.16109 0.0
Li266 Li 0.499 0.24736 0.13802 0.0
Li267 Li 0.48878 0.2622 0.16019 0.0
C268 C 0.52969 0.26046 0.1271 0.0
N269 N 0.5508 0.25573 0.10498 0.0
C270 C 0.54449 0.25906 0.13209 0.0
C271 C 0.52568 0.25967 0.11087 0.0
C272 C 0.555 0.25667 0.12073 0.0
C273 C 0.53648 0.25715 0.09986 0.0
C274 C 0.50787 0.29442 0.17782 0.0
C275 C 0.50804 0.30315 0.20628 0.0
N276 N 0.51273 0.319 0.20448 0.0
C277 C 0.51265 0.31078 0.17624 0.0
C278 C 0.50553 0.29056 0.19295 0.0
C279 C 0.51506 0.32303 0.18987 0.0
C280 C 0.49532 0.30226 0.12817 0.0
N281 N 0.50713 0.29466 0.12999 0.0
C282 C 0.52318 0.31229 0.11562 0.0
C283 C 0.52091 0.29944 0.12406 0.0
C284 C 0.51127 0.32054 0.1136 0.0
C285 C 0.49718 0.31538 0.12003 0.0
H286 H 0.48452 0.29816 0.13314 0.0
H287 H 0.53015 0.2933 0.12589 0.0
C288 C 0.53935 0.25172 0.17434 0.0
N289 N 0.53395 0.26554 0.17451 0.0
C290 C 0.55314 0.25235 0.1831 0.0
C291 C 0.55509 0.28128 0.19262 0.0
C292 C 0.54138 0.28013 0.18348 0.0
C293 C 0.56133 0.26736 0.19216 0.0
H294 H 0.53323 0.24037 0.16688 0.0
H295 H 0.53697 0.29098 0.18318 0.0
C296 C 0.47259 0.25514 0.12513 0.0
N297 N 0.44969 0.24155 0.10061 0.0
C298 C 0.45755 0.24871 0.12856 0.0
C299 C 0.47593 0.25489 0.10926 0.0
C300 C 0.44615 0.24184 0.11599 0.0
C301 C 0.46421 0.24788 0.09702 0.0
C302 C 0.49976 0.23378 0.17046 0.0
C303 C 0.49665 0.21694 0.16454 0.0
C304 C 0.50301 0.23952 0.18689 0.0
C305 C 0.4967 0.20611 0.17518 0.0
C306 C 0.50298 0.2283 0.19715 0.0
N307 N 0.49984 0.21197 0.19113 0.0
C308 C 0.50438 0.22192 0.11463 0.0
C309 C 0.47918 0.21842 0.1235 0.0
C310 C 0.50015 0.20706 0.10413 0.0
N311 N 0.49381 0.22744 0.12375 0.0
C312 C 0.47448 0.20335 0.11328 0.0
C313 C 0.48503 0.19771 0.10336 0.0
H314 H 0.51616 0.22874 0.11578 0.0
H315 H 0.4713 0.22276 0.13155 0.0
C316 C 0.46871 0.27456 0.18032 0.0
N317 N 0.47242 0.26075 0.17265 0.0
C318 C 0.45739 0.27342 0.19098 0.0
C319 C 0.45334 0.24383 0.18479 0.0
C320 C 0.4649 0.24556 0.17439 0.0
C321 C 0.44977 0.25792 0.1934 0.0
H322 H 0.4747 0.28641 0.17832 0.0
H323 H 0.46801 0.23484 0.16782 0.0
O324 O 0.51927 0.26274 0.13811 0.0
O325 O 0.50549 0.28233 0.16456 0.0
O326 O 0.48389 0.26182 0.13731 0.0
O327 O 0.49975 0.24451 0.16013 0.0
H328 H 0.54788 0.25987 0.14461 0.0
H329 H 0.51431 0.26079 0.1068 0.0
H330 H 0.56649 0.25557 0.12444 0.0
H331 H 0.53349 0.25633 0.08725 0.0
H332 H 0.50622 0.30033 0.21805 0.0
H333 H 0.51451 0.31397 0.1646 0.0
H334 H 0.50163 0.27802 0.19438 0.0
H335 H 0.51879 0.33575 0.18883 0.0
H336 H 0.53414 0.31562 0.11066 0.0
H337 H 0.48776 0.32153 0.11898 0.0
H338 H 0.55769 0.24139 0.18215 0.0
H339 H 0.56097 0.29303 0.19959 0.0
H340 H 0.45476 0.24893 0.1408 0.0
H341 H 0.48746 0.26001 0.10643 0.0
H342 H 0.43448 0.23674 0.11846 0.0
H343 H 0.46665 0.24749 0.08466 0.0
H344 H 0.49423 0.21226 0.15185 0.0
H345 H 0.50569 0.25246 0.19167 0.0
H346 H 0.49428 0.19305 0.17076 0.0
H347 H 0.5055 0.23259 0.20989 0.0
H348 H 0.50876 0.20261 0.09712 0.0
H349 H 0.4629 0.19608 0.11328 0.0
H350 H 0.45454 0.28449 0.19718 0.0
H351 H 0.44746 0.23172 0.1863 0.0
Li352 Li 0.07512 0.82258 0.09916 0.0
Li353 Li 0.08992 0.81135 0.12011 0.0
Li354 Li 0.07199 0.79224 0.09638 0.0
Li355 Li 0.0595 0.80738 0.11915 0.0
C356 C 0.10074 0.81173 0.08435 0.0
N357 N 0.11979 0.81639 0.06009 0.0
C358 C 0.11595 0.82074 0.08791 0.0
C359 C 0.09524 0.80498 0.06848 0.0
C360 C 0.1254 0.82298 0.07547 0.0
C361 C 0.10504 0.80752 0.05638 0.0
C362 C 0.0795 0.84271 0.13324 0.0
C363 C 0.07607 0.85974 0.15784 0.0
N364 N 0.08491 0.87293 0.15307 0.0
C365 C 0.08861 0.85637 0.1286 0.0
C366 C 0.07318 0.84435 0.14796 0.0
C367 C 0.09117 0.87157 0.13878 0.0
C368 C 0.06055 0.84457 0.08599 0.0
N369 N 0.0746 0.84074 0.0876 0.0
C370 C 0.08563 0.86247 0.07391 0.0
C371 C 0.08704 0.84933 0.08159 0.0
C372 C 0.07126 0.8669 0.07234 0.0
C373 C 0.0586 0.85746 0.07834 0.0
H374 H 0.05077 0.83763 0.09077 0.0
H375 H 0.09816 0.84621 0.08298 0.0
C376 C 0.11415 0.79838 0.13307 0.0
N377 N 0.10924 0.81262 0.1337 0.0
C378 C 0.12765 0.79781 0.1421 0.0
C379 C 0.1312 0.82663 0.15234 0.0
C380 C 0.11755 0.82665 0.14312 0.0
C381 C 0.13656 0.81205 0.152 0.0
H382 H 0.10749 0.78732 0.12554 0.0
H383 H 0.11364 0.83793 0.14346 0.0
C384 C 0.04489 0.8011 0.08267 0.0
N385 N 0.02301 0.79328 0.05679 0.0
C386 C 0.02944 0.79457 0.0846 0.0
C387 C 0.04922 0.80373 0.06761 0.0
C388 C 0.01855 0.79068 0.07136 0.0
C389 C 0.03799 0.79967 0.05466 0.0
C390 C 0.07032 0.77897 0.12823 0.0
C391 C 0.06134 0.76362 0.12116 0.0
C392 C 0.07652 0.78164 0.14408 0.0
C393 C 0.05877 0.7511 0.1301 0.0
C394 C 0.07367 0.76881 0.15262 0.0
N395 N 0.06493 0.75394 0.14551 0.0
C396 C 0.08255 0.76425 0.0837 0.0
C397 C 0.05699 0.76286 0.07339 0.0
C398 C 0.08188 0.74823 0.07585 0.0
N399 N 0.07014 0.77116 0.08259 0.0
C400 C 0.05585 0.74678 0.06525 0.0
C401 C 0.06828 0.73908 0.06672 0.0
H402 H 0.09285 0.77104 0.09113 0.0
H403 H 0.04716 0.76842 0.07279 0.0
C404 C 0.0328 0.81838 0.13109 0.0
N405 N 0.04093 0.80646 0.13132 0.0
C406 C 0.01916 0.81797 0.13894 0.0
C407 C 0.02234 0.79306 0.14722 0.0
C408 C 0.03588 0.79391 0.13918 0.0
C409 C 0.01366 0.80518 0.14723 0.0
H410 H 0.03686 0.82823 0.12472 0.0
H411 H 0.04223 0.78437 0.13914 0.0
O412 O 0.09145 0.80915 0.09641 0.0
O413 O 0.07637 0.82785 0.12324 0.0
O414 O 0.05563 0.80516 0.09556 0.0
O415 O 0.07317 0.79131 0.11964 0.0
H416 H 0.1204 0.82591 0.10017 0.0
H417 H 0.08359 0.79771 0.06555 0.0
H418 H 0.1372 0.82992 0.07804 0.0
H419 H 0.10094 0.80237 0.04404 0.0
H420 H 0.07125 0.86122 0.16927 0.0
H421 H 0.09357 0.85527 0.11722 0.0
H422 H 0.06607 0.83386 0.15167 0.0
H423 H 0.09812 0.88229 0.13532 0.0
H424 H 0.0958 0.86936 0.06966 0.0
H425 H 0.0472 0.86001 0.07718 0.0
H426 H 0.13089 0.78614 0.14146 0.0
H427 H 0.13759 0.83805 0.15949 0.0
H428 H 0.02591 0.79255 0.09621 0.0
H429 H 0.06108 0.80899 0.06597 0.0
H430 H 0.00655 0.78561 0.07266 0.0
H431 H 0.04116 0.80164 0.04294 0.0
H432 H 0.05636 0.7614 0.10894 0.0
H433 H 0.08346 0.79349 0.14971 0.0
H434 H 0.05186 0.73914 0.12478 0.0
H435 H 0.0784 0.77068 0.1649 0.0
H436 H 0.09185 0.74295 0.07717 0.0
H437 H 0.04508 0.74022 0.05848 0.0
H438 H 0.0131 0.82774 0.13864 0.0
H439 H 0.01859 0.78278 0.15314 0.0
Li440 Li 0.5192 0.78692 0.43961 0.0
Li441 Li 0.50178 0.76854 0.41572 0.0
Li442 Li 0.51681 0.75654 0.43707 0.0
Li443 Li 0.53181 0.77118 0.41696 0.0
C444 C 0.49098 0.77135 0.45178 0.0
N445 N 0.47236 0.7748 0.4766 0.0
C446 C 0.4765 0.77489 0.44912 0.0
C447 C 0.49594 0.76943 0.46701 0.0
C448 C 0.46727 0.77662 0.46184 0.0
C449 C 0.48638 0.77128 0.47942 0.0
C450 C 0.52017 0.79933 0.4066 0.0
C451 C 0.52376 0.80661 0.38069 0.0
N452 N 0.52251 0.82211 0.38673 0.0
C453 C 0.51894 0.81534 0.41257 0.0
C454 C 0.52258 0.79489 0.39054 0.0
C455 C 0.52012 0.82667 0.40233 0.0
C456 C 0.53534 0.81716 0.45993 0.0
N457 N 0.52122 0.80795 0.45361 0.0
C458 C 0.50927 0.83004 0.46351 0.0
C459 C 0.50827 0.814 0.45553 0.0
C460 C 0.52373 0.84003 0.46973 0.0
C461 C 0.53684 0.83325 0.46821 0.0
H462 H 0.54554 0.81227 0.45802 0.0
H463 H 0.49721 0.80663 0.45017 0.0
C464 C 0.47181 0.75304 0.39662 0.0
N465 N 0.48238 0.76736 0.40204 0.0
C466 C 0.45804 0.75281 0.38746 0.0
C467 C 0.46611 0.78196 0.38942 0.0
C468 C 0.4796 0.78167 0.39864 0.0
C469 C 0.45495 0.76742 0.38361 0.0
H470 H 0.47401 0.74174 0.39946 0.0
H471 H 0.48779 0.79304 0.40326 0.0
C472 C 0.54674 0.77597 0.45299 0.0
N473 N 0.56876 0.77874 0.47793 0.0
C474 C 0.56137 0.77327 0.44987 0.0
C475 C 0.54333 0.78021 0.46878 0.0
C476 C 0.57234 0.77468 0.46264 0.0
C477 C 0.55462 0.78152 0.48122 0.0
C478 C 0.51503 0.73749 0.40193 0.0
C479 C 0.52155 0.72518 0.40653 0.0
C480 C 0.50879 0.73571 0.3862 0.0
C481 C 0.52178 0.71127 0.39526 0.0
C482 C 0.50922 0.72159 0.37528 0.0
N483 N 0.51565 0.70977 0.38 0.0
C484 C 0.50402 0.72956 0.4536 0.0
C485 C 0.53107 0.73505 0.45229 0.0
C486 C 0.50474 0.71656 0.46173 0.0
N487 N 0.51709 0.73851 0.44897 0.0
C488 C 0.53233 0.72232 0.46047 0.0
C489 C 0.51907 0.71271 0.46527 0.0
H490 H 0.49298 0.73241 0.45089 0.0
H491 H 0.54131 0.74193 0.44824 0.0
C492 C 0.55893 0.78703 0.4031 0.0
N493 N 0.55048 0.77219 0.40493 0.0
C494 C 0.57266 0.78825 0.39535 0.0
C495 C 0.56903 0.75893 0.39154 0.0
C496 C 0.55538 0.75828 0.39937 0.0
C497 C 0.578 0.77408 0.38936 0.0
H498 H 0.55508 0.79803 0.40778 0.0
H499 H 0.54885 0.7466 0.40121 0.0
O500 O 0.49999 0.76924 0.43937 0.0
O501 O 0.51915 0.78812 0.41648 0.0
O502 O 0.53589 0.77464 0.4406 0.0
O503 O 0.51427 0.75097 0.4129 0.0
H504 H 0.47244 0.77625 0.43734 0.0
H505 H 0.50697 0.76636 0.4692 0.0
H506 H 0.45604 0.77936 0.45996 0.0
H507 H 0.49007 0.76983 0.49128 0.0
H508 H 0.52569 0.80338 0.36823 0.0
H509 H 0.51707 0.81899 0.42496 0.0
H510 H 0.52359 0.78255 0.38577 0.0
H511 H 0.51916 0.83909 0.40679 0.0
H512 H 0.49886 0.83474 0.46447 0.0
H513 H 0.54823 0.84057 0.47267 0.0
H514 H 0.44997 0.74121 0.38328 0.0
H515 H 0.46431 0.79363 0.38716 0.0
H516 H 0.5642 0.77004 0.4377 0.0
H517 H 0.53216 0.78262 0.47139 0.0
H518 H 0.58369 0.77256 0.46041 0.0
H519 H 0.55215 0.78479 0.4935 0.0
H520 H 0.52642 0.72637 0.41865 0.0
H521 H 0.5036 0.74509 0.38251 0.0
H522 H 0.5268 0.70165 0.39865 0.0
H523 H 0.50441 0.72001 0.36306 0.0
H524 H 0.49418 0.70963 0.46523 0.0
H525 H 0.54361 0.71972 0.46255 0.0
H526 H 0.57892 0.80023 0.39393 0.0
H527 H 0.57264 0.74763 0.38753 0.0
Li528 Li 0.57543 0.32262 0.59881 0.0
Li529 Li 0.59045 0.31138 0.6196 0.0
Li530 Li 0.57241 0.29222 0.59595 0.0
Li531 Li 0.56009 0.30733 0.61893 0.0
C532 C 0.60113 0.31152 0.58381 0.0
N533 N 0.62033 0.31559 0.55958 0.0
C534 C 0.61645 0.3202 0.58738 0.0
C535 C 0.59559 0.3048 0.56795 0.0
C536 C 0.62598 0.32214 0.57495 0.0
C537 C 0.60547 0.30704 0.55585 0.0
C538 C 0.57982 0.34272 0.63284 0.0
C539 C 0.57626 0.3597 0.65742 0.0
N540 N 0.58477 0.37299 0.65253 0.0
C541 C 0.58859 0.3565 0.62806 0.0
C542 C 0.5736 0.34429 0.64761 0.0
C543 C 0.59093 0.37171 0.63818 0.0
C544 C 0.56099 0.34528 0.58647 0.0
N545 N 0.57478 0.34075 0.58724 0.0
C546 C 0.58547 0.36139 0.57216 0.0
C547 C 0.58695 0.34854 0.58023 0.0
C548 C 0.57128 0.36628 0.57112 0.0
C549 C 0.55897 0.35792 0.57846 0.0
H550 H 0.55146 0.33905 0.59216 0.0
H551 H 0.59786 0.34486 0.58092 0.0
C552 C 0.61944 0.3031 0.62718 0.0
N553 N 0.60998 0.31304 0.63293 0.0
C554 C 0.6332 0.30295 0.63603 0.0
C555 C 0.6275 0.32333 0.65673 0.0
C556 C 0.61383 0.32313 0.64745 0.0
C557 C 0.63749 0.3131 0.65116 0.0
H558 H 0.61621 0.29506 0.6157 0.0
H559 H 0.60625 0.33096 0.65193 0.0
C560 C 0.54523 0.30159 0.58257 0.0
N561 N 0.52326 0.29486 0.55687 0.0
C562 C 0.52969 0.29557 0.58457 0.0
C563 C 0.5496 0.30426 0.56754 0.0
C564 C 0.51875 0.29222 0.57142 0.0
C565 C 0.53831 0.30076 0.55468 0.0
C566 C 0.57102 0.27909 0.62804 0.0
C567 C 0.56197 0.26368 0.62122 0.0
C568 C 0.57727 0.28201 0.64389 0.0
C569 C 0.55933 0.2514 0.63042 0.0
C570 C 0.57433 0.26941 0.65271 0.0
N571 N 0.5655 0.25449 0.64585 0.0
C572 C 0.58299 0.26468 0.58082 0.0
C573 C 0.55627 0.26252 0.57463 0.0
C574 C 0.58189 0.24867 0.57262 0.0
N575 N 0.57024 0.2712 0.58191 0.0
C576 C 0.55466 0.24646 0.56629 0.0
C577 C 0.56754 0.23931 0.56545 0.0
H578 H 0.59393 0.27172 0.58685 0.0
H579 H 0.54622 0.26777 0.57584 0.0
C580 C 0.53388 0.31873 0.63178 0.0
N581 N 0.54155 0.30635 0.63121 0.0
C582 C 0.52027 0.31832 0.63968 0.0
C583 C 0.52252 0.29245 0.64636 0.0
C584 C 0.53604 0.29332 0.6383 0.0
C585 C 0.5143 0.30504 0.64719 0.0
H586 H 0.53828 0.32895 0.626 0.0
H587 H 0.54201 0.28343 0.63761 0.0
O588 O 0.59177 0.30923 0.59587 0.0
O589 O 0.57688 0.32784 0.62289 0.0
O590 O 0.55602 0.30511 0.59538 0.0
O591 O 0.57385 0.29123 0.61921 0.0
H592 H 0.62094 0.32536 0.59963 0.0
H593 H 0.58386 0.29778 0.56501 0.0
H594 H 0.63786 0.32883 0.57752 0.0
H595 H 0.60134 0.30191 0.54352 0.0
H596 H 0.5715 0.36111 0.66889 0.0
H597 H 0.59346 0.35546 0.61664 0.0
H598 H 0.56676 0.33371 0.65143 0.0
H599 H 0.59762 0.38252 0.63462 0.0
H600 H 0.5953 0.36731 0.56665 0.0
H601 H 0.54789 0.36131 0.57831 0.0
H602 H 0.64022 0.29464 0.63117 0.0
H603 H 0.63023 0.33155 0.66816 0.0
H604 H 0.52614 0.29352 0.59617 0.0
H605 H 0.56154 0.30914 0.56585 0.0
H606 H 0.50668 0.28755 0.57277 0.0
H607 H 0.54152 0.30278 0.54298 0.0
H608 H 0.557 0.26126 0.60898 0.0
H609 H 0.58429 0.29389 0.64932 0.0
H610 H 0.55236 0.23941 0.6253 0.0
H611 H 0.57907 0.27148 0.66501 0.0
H612 H 0.59201 0.24344 0.57237 0.0
H613 H 0.54337 0.23948 0.56108 0.0
H614 H 0.51459 0.32846 0.64003 0.0
H615 H 0.51839 0.28179 0.65165 0.0
Li616 Li 0.01954 0.28589 0.93865 0.0
Li617 Li 1.00156 0.26775 0.91492 0.0
Li618 Li 0.01652 0.25553 0.93605 0.0
Li619 Li 0.03174 0.26994 0.91581 0.0
C620 C 0.99071 0.26971 0.95084 0.0
N621 N 0.97172 0.27185 0.97548 0.0
C622 C 0.97621 0.27323 0.94827 0.0
C623 C 0.99551 0.26716 0.96589 0.0
C624 C 0.96679 0.27429 0.96089 0.0
C625 C 0.98576 0.26833 0.97821 0.0
C626 C 0.02071 0.29975 0.90737 0.0
C627 C 0.02815 0.31169 0.88441 0.0
N628 N 0.02366 0.32552 0.89103 0.0
C629 C 0.01613 0.31404 0.91394 0.0
C630 C 0.02674 0.29852 0.89249 0.0
C631 C 0.01774 0.32695 0.90549 0.0
C632 C 0.03604 0.31818 0.95251 0.0
N633 N 0.02278 0.30693 0.95307 0.0
C634 C 0.01371 0.32647 0.97186 0.0
C635 C 0.01179 0.31075 0.9627 0.0
C636 C 0.02699 0.33859 0.97104 0.0
C637 C 0.03839 0.33411 0.9614 0.0
H638 H 0.04459 0.31494 0.94471 0.0
H639 H 1.0013 0.3018 0.96303 0.0
C640 C 0.96996 0.25333 0.89934 0.0
N641 N 0.98212 0.26652 0.90125 0.0
C642 C 0.95611 0.253 0.89026 0.0
C643 C 0.96735 0.27974 0.88511 0.0
C644 C 0.98091 0.27959 0.89429 0.0
C645 C 0.95456 0.26635 0.8829 0.0
H646 H 0.97093 0.24303 0.90496 0.0
H647 H 0.99041 0.29011 0.89597 0.0
C648 C 0.04658 0.27573 0.95215 0.0
N649 N 0.06826 0.28072 0.97788 0.0
C650 C 0.06155 0.27372 0.9497 0.0
C651 C 0.04266 0.2804 0.96766 0.0
C652 C 0.07234 0.27625 0.96287 0.0
C653 C 0.05378 0.28284 0.98052 0.0
C654 C 0.01447 0.23605 0.9015 0.0
C655 C 0.02233 0.22481 0.90633 0.0
C656 C 0.007 0.23285 0.88612 0.0
C657 C 0.02256 0.21048 0.89564 0.0
C658 C 0.00754 0.2184 0.87577 0.0
N659 N 0.01523 0.2076 0.8807 0.0
C660 C 0.00353 0.22834 0.95218 0.0
C661 C 0.03073 0.23482 0.95221 0.0
C662 C 0.00428 0.2156 0.96065 0.0
N663 N 0.01667 0.23766 0.94807 0.0
C664 C 0.03201 0.22237 0.96075 0.0
C665 C 0.0187 0.21242 0.96507 0.0
H666 H 0.99243 0.23072 0.94883 0.0
H667 H 0.04104 0.24202 0.9486 0.0
C668 C 0.06139 0.28511 0.90672 0.0
N669 N 0.05033 0.27094 0.90367 0.0
C670 C 0.07519 0.28649 0.8991 0.0
C671 C 0.0662 0.25868 0.88525 0.0
C672 C 0.05255 0.25783 0.89312 0.0
C673 C 0.07788 0.27317 0.88813 0.0
H674 H 0.05958 0.29537 0.91525 0.0
H675 H 0.04379 0.2466 0.89078 0.0
O676 O 1.00005 0.26862 0.9386 0.0
O677 O 0.0193 0.287 0.91544 0.0
O678 O 0.03587 0.27315 0.93937 0.0
O679 O 0.01383 0.24999 0.91185 0.0
H680 H 0.97231 0.27517 0.93666 0.0
H681 H 0.00662 0.26424 0.96804 0.0
H682 H 0.95555 0.27704 0.9591 0.0
H683 H 0.98934 0.26642 0.98993 0.0
H684 H 0.0328 0.31092 0.87288 0.0
H685 H 0.01127 0.31511 0.92536 0.0
H686 H 0.03026 0.28749 0.88723 0.0
H687 H 0.01425 0.33809 0.91042 0.0
H688 H 0.00469 0.32915 0.97929 0.0
H689 H 0.04874 0.34298 0.96014 0.0
H690 H 0.94677 0.24227 0.88891 0.0
H691 H 0.96684 0.29051 0.88007 0.0
H692 H 0.06476 0.27011 0.93775 0.0
H693 H 0.03119 0.28222 0.96975 0.0
H694 H 0.08395 0.27467 0.96117 0.0
H695 H 0.0509 0.28645 0.9926 0.0
H696 H 0.02821 0.22714 0.91816 0.0
H697 H 1.00083 0.24144 0.88225 0.0
H698 H 0.02857 0.20164 0.89921 0.0
H699 H 1.00182 0.21576 0.86382 0.0
H700 H 0.99367 0.20836 0.96374 0.0
H701 H 0.04337 0.22027 0.96352 0.0
H702 H 0.08379 0.29787 0.90207 0.0
H703 H 0.06744 0.24807 0.87682 0.0
Li704 Li 0.41816 0.04131 0.30439 0.0
Li705 Li 0.39651 0.02546 0.28584 0.0
Li706 Li 0.41844 0.04296 0.27674 0.0
Li707 Li 0.39947 0.05478 0.29246 0.0
C708 C 0.42823 0.01373 0.28854 0.0
N709 N 0.44869 0.99395 0.29228 0.0
C710 C 0.42273 0.99745 0.29008 0.0
C711 C 0.44413 0.01994 0.28884 0.0
C712 C 0.43326 0.98765 0.29198 0.0
C713 C 0.45429 0.00976 0.29078 0.0
C714 C 0.38507 0.03804 0.31748 0.0
C715 C 0.35849 0.03543 0.32335 0.0
N716 N 0.3628 0.03591 0.33899 0.0
C717 C 0.38925 0.03852 0.33361 0.0
C718 C 0.36959 0.03648 0.31228 0.0
C719 C 0.37781 0.03742 0.3443 0.0
C720 C 0.43466 0.05869 0.33126 0.0
N721 N 0.43003 0.04312 0.32307 0.0
C722 C 0.44333 0.0329 0.34255 0.0
C723 C 0.4338 0.0302 0.3285 0.0
C724 C 0.44874 0.04898 0.35095 0.0
C725 C 0.44413 0.06195 0.34534 0.0
H726 H 0.43103 0.06859 0.32676 0.0
H727 H 0.42955 0.01791 0.32188 0.0
C728 C 0.3762 0.99947 0.26586 0.0
N729 N 0.38171 0.0062 0.28119 0.0
C730 C 0.36374 0.98615 0.26271 0.0
C731 C 0.364 0.98601 0.29112 0.0
C732 C 0.37618 0.9996 0.29372 0.0
C733 C 0.35745 0.9793 0.27545 0.0
H734 H 0.38139 0.00446 0.25609 0.0
H735 H 0.38127 0.00488 0.30573 0.0
C736 C 0.43435 0.07363 0.29359 0.0
N737 N 0.45884 0.0987 0.29063 0.0
C738 C 0.43163 0.08833 0.29007 0.0
C739 C 0.4495 0.07173 0.2958 0.0
C740 C 0.44418 0.10084 0.28857 0.0
C741 C 0.46174 0.08453 0.29419 0.0
C742 C 0.38546 0.03674 0.25851 0.0
C743 C 0.38971 0.03255 0.24304 0.0
C744 C 0.36991 0.03602 0.26098 0.0
C745 C 0.37826 0.02743 0.23029 0.0
C746 C 0.35881 0.03078 0.24792 0.0
N747 N 0.36318 0.02662 0.23297 0.0
C748 C 0.43404 0.03053 0.2525 0.0
C749 C 0.43387 0.05865 0.25382 0.0
C750 C 0.44199 0.03039 0.2389 0.0
N751 N 0.43032 0.04455 0.25968 0.0
C752 C 0.44183 0.05907 0.24019 0.0
C753 C 0.4459 0.04478 0.23261 0.0
H754 H 0.43042 0.01935 0.25705 0.0
H755 H 0.43019 0.0694 0.25947 0.0
C756 C 0.38531 0.0781 0.30982 0.0
N757 N 0.38915 0.07158 0.29529 0.0
C758 C 0.3781 0.09129 0.31125 0.0
C759 C 0.37912 0.09056 0.28275 0.0
C760 C 0.38615 0.07738 0.28187 0.0
C761 C 0.37521 0.09773 0.2976 0.0
H762 H 0.38807 0.07324 0.32028 0.0
H763 H 0.38952 0.07194 0.27056 0.0
O764 O 0.41802 0.02328 0.28609 0.0
O765 O 0.39613 0.03881 0.30686 0.0
O766 O 0.4222 0.06138 0.29534 0.0
O767 O 0.39648 0.04141 0.27116 0.0
H768 H 0.41044 0.99242 0.28972 0.0
H769 H 0.44856 0.03243 0.28742 0.0
H770 H 0.42917 0.97501 0.29315 0.0
H771 H 0.46662 0.01439 0.291 0.0
H772 H 0.34645 0.03419 0.31949 0.0
H773 H 0.40118 0.03965 0.33781 0.0
H774 H 0.36618 0.03599 0.29983 0.0
H775 H 0.38087 0.03774 0.35682 0.0
H776 H 0.44673 0.02262 0.34659 0.0
H777 H 0.44787 0.07445 0.35173 0.0
H778 H 0.35917 0.98125 0.25044 0.0
H779 H 0.36001 0.98064 0.30125 0.0
H780 H 0.41996 0.09004 0.28849 0.0
H781 H 0.45179 0.06055 0.29882 0.0
H782 H 0.44225 0.11227 0.2858 0.0
H783 H 0.47353 0.08323 0.29583 0.0
H784 H 0.40169 0.03308 0.24091 0.0
H785 H 0.36646 0.03933 0.27285 0.0
H786 H 0.38137 0.02405 0.21826 0.0
H787 H 0.34672 0.02999 0.24966 0.0
H788 H 0.44462 0.01905 0.23308 0.0
H789 H 0.44464 0.07035 0.23555 0.0
H790 H 0.37521 0.09667 0.32285 0.0
H791 H 0.37686 0.0952 0.27199 0.0
Li792 Li 0.29815 0.20513 0.52232 0.0
Li793 Li 0.30944 0.1832 0.50554 0.0
Li794 Li 0.29827 0.2033 0.4931 0.0
Li795 Li 0.28011 0.18071 0.50311 0.0
C796 C 0.3284 0.21981 0.5084 0.0
N797 N 0.35321 0.24494 0.50637 0.0
C798 C 0.34326 0.21683 0.50762 0.0
C799 C 0.32615 0.23556 0.50815 0.0
C800 C 0.35565 0.22971 0.50663 0.0
C801 C 0.33884 0.2481 0.50708 0.0
C802 C 0.2956 0.17082 0.53269 0.0
C803 C 0.29167 0.1437 0.53894 0.0
N804 N 0.29875 0.15018 0.55383 0.0
C805 C 0.30278 0.17723 0.54807 0.0
C806 C 0.28996 0.15394 0.52806 0.0
C807 C 0.30429 0.16659 0.55858 0.0
C808 C 0.2867 0.21566 0.55116 0.0
N809 N 0.29944 0.21847 0.54297 0.0
C810 C 0.31327 0.23789 0.5654 0.0
C811 C 0.31256 0.22944 0.54966 0.0
C812 C 0.30042 0.23483 0.57433 0.0
C813 C 0.28694 0.22373 0.56689 0.0
H814 H 0.27646 0.20684 0.54554 0.0
H815 H 0.32259 0.23134 0.54293 0.0
C816 C 0.33362 0.17013 0.49118 0.0
N817 N 0.32614 0.17176 0.50474 0.0
C818 C 0.34649 0.16296 0.49056 0.0
C819 C 0.34366 0.15919 0.51779 0.0
C820 C 0.33097 0.16649 0.51791 0.0
C821 C 0.35178 0.15747 0.50405 0.0
H822 H 0.32979 0.17471 0.48094 0.0
H823 H 0.32517 0.16818 0.52867 0.0
C824 C 0.27254 0.21644 0.50505 0.0
N825 N 0.25636 0.24017 0.50131 0.0
C826 C 0.25791 0.21205 0.49669 0.0
C827 C 0.27886 0.23284 0.5117 0.0
C828 C 0.24993 0.22425 0.49489 0.0
C829 C 0.27052 0.24467 0.50961 0.0
C830 C 0.29328 0.1687 0.472 0.0
C831 C 0.28895 0.17352 0.45787 0.0
C832 C 0.29659 0.15325 0.47142 0.0
C833 C 0.28815 0.16283 0.44332 0.0
C834 C 0.29566 0.14292 0.45664 0.0
N835 N 0.29152 0.14788 0.44301 0.0
C836 C 0.31466 0.21502 0.46857 0.0
C837 C 0.29074 0.22301 0.47046 0.0
C838 C 0.31747 0.22234 0.45517 0.0
N839 N 0.30143 0.21537 0.47587 0.0
C840 C 0.29311 0.23054 0.45713 0.0
C841 C 0.30652 0.23008 0.44915 0.0
H842 H 0.32291 0.20871 0.47296 0.0
H843 H 0.28016 0.22289 0.47611 0.0
C844 C 0.25336 0.1638 0.51482 0.0
N845 N 0.25982 0.16611 0.50101 0.0
C846 C 0.23855 0.15391 0.5145 0.0
C847 C 0.23711 0.14891 0.48569 0.0
C848 C 0.25201 0.15891 0.48657 0.0
C849 C 0.23012 0.14624 0.4998 0.0
H850 H 0.25968 0.16981 0.52616 0.0
H851 H 0.2573 0.16098 0.47571 0.0
O852 O 0.3162 0.20735 0.50957 0.0
O853 O 0.29412 0.18103 0.52222 0.0
O854 O 0.28055 0.20468 0.50678 0.0
O855 O 0.29481 0.17927 0.48627 0.0
H856 H 0.34522 0.20473 0.50791 0.0
H857 H 0.31474 0.23805 0.50866 0.0
H858 H 0.36722 0.22759 0.50608 0.0
H859 H 0.33727 0.26034 0.50683 0.0
H860 H 0.28739 0.13061 0.53553 0.0
H861 H 0.30728 0.19027 0.5518 0.0
H862 H 0.28437 0.14882 0.51618 0.0
H863 H 0.30989 0.17136 0.5705 0.0
H864 H 0.32393 0.24624 0.5707 0.0
H865 H 0.27669 0.22116 0.57324 0.0
H866 H 0.35244 0.1621 0.47976 0.0
H867 H 0.34707 0.15493 0.52841 0.0
H868 H 0.25285 0.19937 0.49156 0.0
H869 H 0.29006 0.23638 0.51843 0.0
H870 H 0.23863 0.22106 0.48838 0.0
H871 H 0.2753 0.25743 0.51461 0.0
H872 H 0.28629 0.18541 0.45811 0.0
H873 H 0.29997 0.14937 0.48228 0.0
H874 H 0.2849 0.16643 0.43228 0.0
H875 H 0.29829 0.13096 0.45599 0.0
H876 H 0.32802 0.22178 0.44947 0.0
H877 H 0.28422 0.2361 0.45276 0.0
H878 H 0.23366 0.15256 0.52571 0.0
H879 H 0.2312 0.14322 0.47406 0.0
Li880 Li 0.17293 0.02638 0.76652 0.0
Li881 Li 0.15034 0.00778 0.77957 0.0
Li882 Li 0.17055 0.99285 0.76285 0.0
Li883 Li 0.1494 0.00583 0.74758 0.0
C884 C 0.18333 0.0144 0.79654 0.0
N885 N 0.20205 0.01997 0.82463 0.0
C886 C 0.17893 0.02245 0.81068 0.0
C887 C 0.19728 0.00927 0.79664 0.0
C888 C 0.18855 0.02512 0.82478 0.0
C889 C 0.20658 0.01219 0.81098 0.0
C890 C 0.13886 0.03407 0.76761 0.0
C891 C 0.11214 0.03592 0.76565 0.0
N892 N 0.1165 0.05227 0.7715 0.0
C893 C 0.14309 0.05088 0.77358 0.0
C894 C 0.12327 0.0265 0.7636 0.0
C895 C 0.1316 0.05987 0.77548 0.0
C896 C 0.18959 0.05588 0.75455 0.0
N897 N 0.18635 0.04992 0.76824 0.0
C898 C 0.1992 0.07664 0.78357 0.0
C899 C 0.19109 0.06014 0.78262 0.0
C900 C 0.20271 0.08325 0.76962 0.0
C901 C 0.19769 0.07226 0.75497 0.0
H902 H 0.18571 0.04795 0.74312 0.0
H903 H 0.18834 0.05564 0.79352 0.0
C904 C 0.1375 0.99586 0.80903 0.0
N905 N 0.13821 0.00799 0.80019 0.0
C906 C 0.13014 0.99635 0.82355 0.0
C907 C 0.12395 0.02166 0.81993 0.0
C908 C 0.13147 0.02074 0.80556 0.0
C909 C 0.12319 0.00948 0.82954 0.0
H910 H 0.14288 0.98576 0.80502 0.0
H911 H 0.13201 0.03051 0.79884 0.0
C912 C 0.18159 0.00619 0.73418 0.0
N913 N 0.19919 1.00082 0.70882 0.0
C914 C 0.17519 0.99484 0.72042 0.0
C915 C 0.19695 0.01473 0.73512 0.0
C916 C 0.18427 0.99234 0.70769 0.0
C917 C 0.20567 0.01185 0.72215 0.0
C918 C 0.13465 0.97426 0.75898 0.0
C919 C 0.13705 0.95876 0.75279 0.0
C920 C 0.11997 0.97601 0.76304 0.0
C921 C 0.12463 0.94521 0.75068 0.0
C922 C 0.10784 0.96216 0.76071 0.0
N923 N 0.11041 0.94718 0.75464 0.0
C924 C 0.18438 0.96691 0.77595 0.0
C925 C 0.18883 0.96673 0.74905 0.0
C926 C 0.19228 0.95396 0.77643 0.0
N927 N 0.18268 0.97333 0.76242 0.0
C928 C 0.19679 0.95371 0.74902 0.0
C929 C 0.19883 0.94682 0.76286 0.0
H930 H 0.17962 0.97188 0.78665 0.0
H931 H 0.18758 0.97148 0.73817 0.0
C932 C 0.13268 0.02042 0.72435 0.0
N933 N 0.13641 0.00597 0.72628 0.0
C934 C 0.12461 0.02205 0.71013 0.0
C935 C 0.12453 0.99413 0.69927 0.0
C936 C 0.13224 0.99287 0.71393 0.0
C937 C 0.1205 0.00891 0.69704 0.0
H938 H 0.13618 0.031 0.7338 0.0
H939 H 0.13508 0.98135 0.71523 0.0
O940 O 0.17382 0.01107 0.78277 0.0
O941 O 0.14992 0.02507 0.76562 0.0
O942 O 0.17284 0.00893 0.74668 0.0
O943 O 0.14673 0.9876 0.76141 0.0
H944 H 0.16817 0.02651 0.81078 0.0
H945 H 0.20082 1.00302 0.78577 0.0
H946 H 0.18526 0.03126 0.83584 0.0
H947 H 0.21739 0.00824 0.81125 0.0
H948 H 0.10004 0.03024 0.76255 0.0
H949 H 0.15511 0.05691 0.77673 0.0
H950 H 0.11984 0.01352 0.75881 0.0
H951 H 0.1347 0.0729 0.7801 0.0
H952 H 0.20235 0.08424 0.79527 0.0
H953 H 0.20005 0.07616 0.74372 0.0
H954 H 0.1303 0.98658 0.83016 0.0
H955 H 0.11871 0.03198 0.82334 0.0
H956 H 0.16338 0.988 0.71961 0.0
H957 H 0.20207 0.0235 0.74575 0.0
H958 H 0.17946 0.98363 0.69694 0.0
H959 H 0.21757 0.01838 0.72269 0.0
H960 H 0.1484 0.95722 0.7497 0.0
H961 H 0.11798 0.98789 0.76807 0.0
H962 H 0.12631 0.93312 0.74591 0.0
H963 H 0.0964 0.96331 0.7638 0.0
H964 H 0.19336 0.9498 0.78765 0.0
H965 H 0.20113 0.949 0.73798 0.0
H966 H 0.12204 0.03378 0.70923 0.0
H967 H 0.12165 0.98351 0.68977 0.0
Li968 Li 0.29963 0.94002 0.01507 0.0
Li969 Li 0.31195 0.92139 0.02792 0.0
Li970 Li 0.32684 0.94475 0.01994 0.0
Li971 Li 0.31467 0.92143 3e-05 0.0
C972 C 0.31804 0.95631 0.04852 0.0
N973 N 0.33238 0.9808 0.07359 0.0
C974 C 0.3225 0.95238 0.06308 0.0
C975 C 0.32066 0.97273 0.04681 0.0
C976 C 0.32976 0.96494 0.0756 0.0
C977 C 0.32801 0.98492 0.05959 0.0
C978 C 0.28462 0.90181 0.01112 0.0
C979 C 0.27719 0.87244 0.00824 0.0
N980 N 0.26321 0.87378 0.01345 0.0
C981 C 0.27011 0.90291 0.01625 0.0
C982 C 0.28815 0.88647 0.0069 0.0
C983 C 0.25946 0.88859 0.01742 0.0
C984 C 0.27357 0.94681 0.00072 0.0
N985 N 0.28318 0.94977 0.01425 0.0
C986 C 0.26916 0.96798 0.02779 0.0
C987 C 0.28128 0.96007 0.02762 0.0
C988 C 0.25874 0.9649 0.01416 0.0
C989 C 0.26108 0.9543 0.00041 0.0
H990 H 0.27553 0.9385 0.99032 0.0
H991 H 0.28909 0.96203 0.0382 0.0
C992 C 0.32506 0.90767 0.05021 0.0
N993 N 0.31126 0.90903 0.04369 0.0
C994 C 0.32557 0.89896 0.06251 0.0
C995 C 0.29764 0.89408 0.06168 0.0
C996 C 0.29769 0.90276 0.04928 0.0
C997 C 0.31172 0.8921 0.06837 0.0
H998 H 0.3357 0.91364 0.04612 0.0
H999 H 0.28701 0.90487 0.04445 0.0
C1000 C 0.3212 0.95502 0.98996 0.0
N1001 N 0.33316 0.97542 0.96944 0.0
C1002 C 0.33253 0.95108 0.98017 0.0
C1003 C 0.31593 0.9693 0.98933 0.0
C1004 C 0.33841 0.96154 0.96984 0.0
C1005 C 0.32217 0.9795 0.97892 0.0
C1006 C 0.34109 0.91307 0.01507 0.0
C1007 C 0.35674 0.91991 0.01436 0.0
C1008 C 0.3362 0.89619 0.01425 0.0
C1009 C 0.36726 0.90972 0.01293 0.0
C1010 C 0.34708 0.88641 0.01282 0.0
N1011 N 0.36225 0.89333 0.01221 0.0
C1012 C 0.35251 0.95705 0.03969 0.0
C1013 C 0.34948 0.97393 0.02072 0.0
C1014 C 0.36616 0.96767 0.04651 0.0
N1015 N 0.34467 0.96028 0.02697 0.0
C1016 C 0.3633 0.98466 0.02686 0.0
C1017 C 0.37196 0.98135 0.03969 0.0
H1018 H 0.34818 0.94608 0.0444 0.0
H1019 H 0.34285 0.97632 0.01082 0.0
C1020 C 0.3018 0.9012 0.9719 0.0
N1021 N 0.31545 0.9082 0.98066 0.0
C1022 C 0.30146 0.89028 0.9577 0.0
C1023 C 0.32928 0.89425 0.96185 0.0
C1024 C 0.32907 0.90516 0.97588 0.0
C1025 C 0.31534 0.88663 0.95265 0.0
H1026 H 0.29119 0.90401 0.97606 0.0
H1027 H 0.33976 0.91113 0.98298 0.0
O1028 O 0.31111 0.94414 0.03605 0.0
O1029 O 0.29517 0.91571 0.00996 0.0
O1030 O 0.31485 0.9447 0.99973 0.0
O1031 O 0.33076 0.923 0.01706 0.0
H1032 H 0.32044 0.93978 0.06469 0.0
H1033 H 0.31729 0.97599 0.03561 0.0
H1034 H 0.33333 0.96207 0.0869 0.0
H1035 H 0.33029 0.99765 0.05835 0.0
H1036 H 0.2798 0.86048 0.0051 0.0
H1037 H 0.26717 0.91472 0.01944 0.0
H1038 H 0.29919 0.8854 0.00258 0.0
H1039 H 0.24823 0.88924 0.02149 0.0
H1040 H 0.26786 0.97627 0.03852 0.0
H1041 H 0.25315 0.95151 0.98975 0.0
H1042 H 0.33665 0.89774 0.06741 0.0
H1043 H 0.28677 0.88938 0.06626 0.0
H1044 H 0.33673 0.94009 0.98053 0.0
H1045 H 0.30711 0.97247 0.99683 0.0
H1046 H 0.34714 0.95862 0.96212 0.0
H1047 H 0.31824 0.99062 0.97833 0.0
H1048 H 0.36073 0.93295 0.01495 0.0
H1049 H 0.32419 0.89072 0.015 0.0
H1050 H 0.3794 0.91485 0.01242 0.0
H1051 H 0.34347 0.87334 0.01228 0.0
H1052 H 0.37247 0.96479 0.05645 0.0
H1053 H 0.36753 0.99487 0.02098 0.0
H1054 H 0.29052 0.88483 0.95075 0.0
H1055 H 0.34019 0.89162 0.95838 0.0
Li1056 Li 0.28229 0.39509 0.03058 0.0
Li1057 Li 0.29349 0.37486 0.04223 0.0
Li1058 Li 0.31139 0.39756 0.03124 0.0
Li1059 Li 0.29276 0.37303 0.01266 0.0
C1060 C 0.29709 0.41007 0.06269 0.0
N1061 N 0.29528 0.43231 0.08982 0.0
C1062 C 0.28854 0.40497 0.07498 0.0
C1063 C 0.30471 0.42647 0.06418 0.0
C1064 C 0.28777 0.4164 0.08861 0.0
C1065 C 0.30365 0.43753 0.078 0.0
C1066 C 0.26263 0.35898 0.02736 0.0
C1067 C 0.24957 0.33051 0.02311 0.0
N1068 N 0.2371 0.33484 0.02981 0.0
C1069 C 0.24962 0.36317 0.03403 0.0
C1070 C 0.26256 0.34254 0.02169 0.0
C1071 C 0.23685 0.35078 0.03522 0.0
C1072 C 0.25517 0.40265 0.01809 0.0
N1073 N 0.26555 0.40659 0.03118 0.0
C1074 C 0.25088 0.42475 0.04442 0.0
C1075 C 0.2636 0.41741 0.04423 0.0
C1076 C 0.23995 0.42094 0.03108 0.0
C1077 C 0.24225 0.40968 0.01778 0.0
H1078 H 0.25688 0.39392 0.00789 0.0
H1079 H 0.27177 0.42034 0.0546 0.0
C1080 C 0.30421 0.35848 0.06603 0.0
N1081 N 0.29158 0.36239 0.05934 0.0
C1082 C 0.30303 0.35052 0.07917 0.0
C1083 C 0.27589 0.35072 0.07839 0.0
C1084 C 0.27758 0.35859 0.06525 0.0
C1085 C 0.28875 0.34673 0.0857 0.0
H1086 H 0.31532 0.3619 0.06144 0.0
H1087 H 0.26782 0.36234 0.06026 0.0
C1088 C 0.296 0.40839 0.00335 0.0
N1089 N 0.29509 0.43107 0.98384 0.0
C1090 C 0.29637 0.40393 0.98685 0.0
C1091 C 0.29519 0.42436 0.00997 0.0
C1092 C 0.29593 0.41559 0.97719 0.0
C1093 C 0.2947 0.43565 -0.00012 0.0
C1094 C 0.31878 0.36158 0.02884 0.0
C1095 C 0.33484 0.36583 0.03186 0.0
C1096 C 0.31103 0.34517 0.02683 0.0
C1097 C 0.34293 0.35354 0.03281 0.0
C1098 C 0.31953 0.33324 0.02791 0.0
N1099 N 0.33517 0.33763 0.03084 0.0
C1100 C 0.3402 0.41787 0.04715 0.0
C1101 C 0.33763 0.4159 0.01909 0.0
C1102 C 0.35507 0.42792 0.04812 0.0
N1103 N 0.33177 0.41209 0.03278 0.0
C1104 C 0.35245 0.42586 0.0195 0.0
C1105 C 0.3615 0.43207 0.03416 0.0
H1106 H 0.33539 0.41463 0.05789 0.0
H1107 H 0.33084 0.41103 0.00777 0.0
C1108 C 0.2773 0.35754 0.98213 0.0
N1109 N 0.2904 0.3594 0.99184 0.0
C1110 C 0.2759 0.34885 0.96642 0.0
C1111 C 0.30129 0.34371 0.97116 0.0
C1112 C 0.30225 0.3526 0.98671 0.0
C1113 C 0.28808 0.34192 0.96065 0.0
H1114 H 0.26807 0.36316 0.98647 0.0
H1115 H 0.31265 0.35444 0.99453 0.0
O1116 O 0.29814 0.39904 0.04934 0.0
O1117 O 0.27524 0.37095 0.02615 0.0
O1118 O 0.29625 0.39706 0.01292 0.0
O1119 O 0.31072 0.37348 0.02785 0.0
H1120 H 0.28251 0.39237 0.074 0.0
H1121 H 0.31132 0.43062 0.05474 0.0
H1122 H 0.28119 0.41263 0.09821 0.0
H1123 H 0.30948 0.45027 0.07932 0.0
H1124 H 0.24939 0.31773 0.01885 0.0
H1125 H 0.24946 0.37585 0.03843 0.0
H1126 H 0.2724 0.33911 0.01621 0.0
H1127 H 0.22675 0.35383 0.04048 0.0
H1128 H 0.24953 0.43317 0.05503 0.0
H1129 H 0.23428 0.40649 0.00713 0.0
H1130 H 0.31326 0.34761 0.08431 0.0
H1131 H 0.26473 0.34845 0.08318 0.0
H1132 H 0.29704 0.39161 0.98158 0.0
H1133 H 0.29486 0.42795 0.02274 0.0
H1134 H 0.29624 0.41233 0.96439 0.0
H1135 H 0.294 0.44804 0.0048 0.0
H1136 H 0.34099 0.3785 0.03342 0.0
H1137 H 0.2986 0.34171 0.02456 0.0
H1138 H 0.35538 0.35664 0.03511 0.0
H1139 H 0.31369 0.32049 0.02643 0.0
H1140 H 0.36141 0.43248 0.05973 0.0
H1141 H 0.35686 0.42837 0.00835 0.0
H1142 H 0.26544 0.3477 0.95883 0.0
H1143 H 0.31109 0.33886 0.96722 0.0
Li1144 Li 0.77738 0.15726 0.03457 0.0
Li1145 Li 0.79182 0.13908 0.0185 0.0
Li1146 Li 0.77785 0.15751 0.00654 0.0
Li1147 Li 0.76413 0.13332 0.01499 0.0
C1148 C 0.80706 0.17705 0.02707 0.0
N1149 N 0.83043 0.20489 0.0351 0.0
C1150 C 0.82232 0.17573 0.03001 0.0
C1151 C 0.80369 0.19251 0.02817 0.0
C1152 C 0.83397 0.18995 0.03404 0.0
C1153 C 0.81566 0.20645 0.03229 0.0
C1154 C 0.77336 0.12297 0.0444 0.0
C1155 C 0.76971 0.09544 0.0496 0.0
N1156 N 0.76455 0.10044 0.06397 0.0
C1157 C 0.76805 0.12784 0.05923 0.0
C1158 C 0.77429 0.10666 0.03956 0.0
C1159 C 0.76367 0.11627 0.06896 0.0
C1160 C 0.76306 0.17309 0.05806 0.0
N1161 N 0.77698 0.17046 0.05388 0.0
C1162 C 0.79001 0.18883 0.07698 0.0
C1163 C 0.79032 0.1778 0.06303 0.0
C1164 C 0.77583 0.19222 0.08135 0.0
C1165 C 0.76221 0.18413 0.07177 0.0
H1166 H 0.75265 0.16677 0.0506 0.0
H1167 H 0.80116 0.17518 0.05941 0.0
C1168 C 0.81703 0.13055 0.00494 0.0
N1169 N 0.80878 0.13 0.01789 0.0
C1170 C 0.82979 0.12347 0.00392 0.0
C1171 C 0.8249 0.1152 0.02942 0.0
C1172 C 0.81242 0.12268 0.03008 0.0
C1173 C 0.83372 0.11567 0.01627 0.0
H1174 H 0.81366 0.13648 0.99548 0.0
H1175 H 0.80568 0.12271 0.04028 0.0
C1176 C 0.74948 0.16486 0.01742 0.0
N1177 N 0.72859 0.18444 0.01481 0.0
C1178 C 0.7341 0.1578 0.01173 0.0
C1179 C 0.7542 0.18187 0.02185 0.0
C1180 C 0.72372 0.16791 0.0105 0.0
C1181 C 0.74349 0.19156 0.02041 0.0
C1182 C 0.77548 0.12238 0.98552 0.0
C1183 C 0.77154 0.12554 0.97045 0.0
C1184 C 0.77558 0.10639 0.9874 0.0
C1185 C 0.76749 0.11252 0.95751 0.0
C1186 C 0.77143 0.0937 0.97415 0.0
N1187 N 0.76749 0.09701 0.95962 0.0
C1188 C 0.79279 0.17701 0.98741 0.0
C1189 C 0.76541 0.17093 0.98274 0.0
C1190 C 0.79431 0.18539 0.97477 0.0
N1191 N 0.77854 0.17006 0.99106 0.0
C1192 C 0.76637 0.17926 0.97001 0.0
C1193 C 0.78099 0.18635 0.96586 0.0
H1194 H 0.80297 0.1756 0.994 0.0
H1195 H 0.75428 0.16468 0.9856 0.0
C1196 C 0.74032 0.10792 0.0202 0.0
N1197 N 0.74667 0.11662 0.0093 0.0
C1198 C 0.72703 0.09579 0.01583 0.0
C1199 C 0.72678 0.10209 0.98915 0.0
C1200 C 0.74011 0.11414 0.99408 0.0
C1201 C 0.72002 0.09296 0.00021 0.0
H1202 H 0.74499 0.11089 0.03247 0.0
H1203 H 0.74484 0.12199 0.98599 0.0
O1204 O 0.79563 0.16318 0.02269 0.0
O1205 O 0.77766 0.13417 0.03475 0.0
O1206 O 0.75967 0.15505 0.01899 0.0
O1207 O 0.77894 0.13492 0.99839 0.0
H1208 H 0.82514 0.16384 0.0291 0.0
H1209 H 0.79201 0.19376 0.02571 0.0
H1210 H 0.84584 0.18911 0.0363 0.0
H1211 H 0.81321 0.2185 0.03318 0.0
H1212 H 0.77024 0.08276 0.04596 0.0
H1213 H 0.76731 0.14041 0.0632 0.0
H1214 H 0.77833 0.10269 0.0281 0.0
H1215 H 0.75954 0.11987 0.08047 0.0
H1216 H 0.80071 0.19458 0.08427 0.0
H1217 H 0.75107 0.1865 0.07469 0.0
H1218 H 0.8364 0.12392 0.99359 0.0
H1219 H 0.82781 0.10938 0.03918 0.0
H1220 H 0.7302 0.14465 0.00839 0.0
H1221 H 0.76596 0.18751 0.0265 0.0
H1222 H 0.71178 0.16262 0.00614 0.0
H1223 H 0.747 0.20474 0.0238 0.0
H1224 H 0.77143 0.13787 0.96881 0.0
H1225 H 0.77862 0.10378 0.99899 0.0
H1226 H 0.76429 0.11476 0.9458 0.0
H1227 H 0.7713 0.08123 0.97544 0.0
H1228 H 0.80573 0.19082 0.97182 0.0
H1229 H 0.7559 0.17964 0.96314 0.0
H1230 H 0.72166 0.0896 0.02494 0.0
H1231 H 0.72132 0.10058 0.97718 0.0
Li1232 Li 0.19501 0.55419 0.2489 0.0
Li1233 Li 0.17305 0.5381 0.25906 0.0
Li1234 Li 0.19139 0.52483 0.24323 0.0
Li1235 Li 0.17271 0.53804 0.23093 0.0
C1236 C 0.20635 0.5444 0.27668 0.0
N1237 N 0.22906 0.55515 0.30178 0.0
C1238 C 0.20259 0.55061 0.29189 0.0
C1239 C 0.2216 0.54345 0.27427 0.0
C1240 C 0.21425 0.55602 0.30442 0.0
C1241 C 0.23293 0.54903 0.2871 0.0
C1242 C 0.16406 0.56766 0.24923 0.0
C1243 C 0.13853 0.57317 0.24777 0.0
N1244 N 0.14486 0.58951 0.25136 0.0
C1245 C 0.17031 0.58451 0.25288 0.0
C1246 C 0.14805 0.56193 0.24665 0.0
C1247 C 0.16041 0.59536 0.25391 0.0
C1248 C 0.21373 0.57871 0.23815 0.0
N1249 N 0.20992 0.57327 0.25182 0.0
C1250 C 0.22833 0.59534 0.26754 0.0
C1251 C 0.2167 0.58134 0.26639 0.0
C1252 C 0.2327 0.60101 0.25355 0.0
C1253 C 0.22534 0.59253 0.23871 0.0
H1254 H 0.20766 0.57236 0.22682 0.0
H1255 H 0.21293 0.57715 0.2771 0.0
C1256 C 0.15893 0.52233 0.28158 0.0
N1257 N 0.16133 0.53668 0.27612 0.0
C1258 C 0.15159 0.52098 0.29546 0.0
C1259 C 0.1491 0.54913 0.29748 0.0
C1260 C 0.15663 0.54997 0.28365 0.0
C1261 C 0.14678 0.53457 0.30358 0.0
H1262 H 0.16315 0.51214 0.27539 0.0
H1263 H 0.15922 0.56137 0.27929 0.0
C1264 C 0.20604 0.53966 0.21786 0.0
N1265 N 0.22896 0.53978 0.1971 0.0
C1266 C 0.20223 0.53695 0.20138 0.0
C1267 C 0.22149 0.54245 0.2238 0.0
C1268 C 0.21399 0.53704 0.19107 0.0
C1269 C 0.23291 0.54247 0.21311 0.0
C1270 C 0.15618 0.50628 0.24034 0.0
C1271 C 0.1582 0.49022 0.23853 0.0
C1272 C 0.14132 0.50924 0.24095 0.0
C1273 C 0.14527 0.47734 0.23734 0.0
C1274 C 0.12868 0.49604 0.23975 0.0
N1275 N 0.1309 0.48049 0.23798 0.0
C1276 C 0.20457 0.50192 0.25398 0.0
C1277 C 0.2052 0.50132 0.22602 0.0
C1278 C 0.21234 0.48927 0.25307 0.0
N1279 N 0.2013 0.50767 0.24059 0.0
C1280 C 0.21318 0.48876 0.22459 0.0
C1281 C 0.21674 0.48272 0.23826 0.0
H1282 H 0.20114 0.50722 0.26533 0.0
H1283 H 0.20214 0.506 0.21557 0.0
C1284 C 0.15587 0.5488 0.20793 0.0
N1285 N 0.16074 0.53601 0.21244 0.0
C1286 C 0.14667 0.54635 0.19371 0.0
C1287 C 0.14849 0.51787 0.18891 0.0
C1288 C 0.15746 0.52083 0.2033 0.0
C1289 C 0.14285 0.53069 0.18409 0.0
H1290 H 0.15909 0.56082 0.21536 0.0
H1291 H 0.16192 0.5111 0.2072 0.0
O1292 O 0.19507 0.53903 0.2643 0.0
O1293 O 0.17367 0.55693 0.24826 0.0
O1294 O 0.19466 0.53999 0.22807 0.0
O1295 O 0.16877 0.51895 0.24145 0.0
H1296 H 0.19082 0.55133 0.29397 0.0
H1297 H 0.22464 0.53846 0.26264 0.0
H1298 H 0.21154 0.56092 0.31624 0.0
H1299 H 0.2448 0.54846 0.2854 0.0
H1300 H 0.12612 0.5689 0.24578 0.0
H1301 H 0.18269 0.58915 0.25492 0.0
H1302 H 0.14302 0.54897 0.24374 0.0
H1303 H 0.16509 0.60843 0.25675 0.0
H1304 H 0.23344 0.60196 0.27923 0.0
H1305 H 0.22833 0.59672 0.2277 0.0
H1306 H 0.14991 0.5096 0.29994 0.0
H1307 H 0.1457 0.55988 0.30369 0.0
H1308 H 0.19033 0.53489 0.1966 0.0
H1309 H 0.22462 0.54474 0.23653 0.0
H1310 H 0.21121 0.53498 0.17828 0.0
H1311 H 0.24493 0.54467 0.21753 0.0
H1312 H 0.16964 0.48773 0.23801 0.0
H1313 H 0.13956 0.52156 0.24238 0.0
H1314 H 0.14666 0.46484 0.23591 0.0
H1315 H 0.11711 0.49815 0.24023 0.0
H1316 H 0.21499 0.48471 0.26378 0.0
H1317 H 0.21642 0.48374 0.21302 0.0
H1318 H 0.14245 0.55651 0.1904 0.0
H1319 H 0.14608 0.50574 0.18162 0.0
Li1320 Li 0.78278 0.8956 0.53077 0.0
Li1321 Li 0.79351 0.87551 0.54327 0.0
Li1322 Li 0.81196 0.89817 0.53242 0.0
Li1323 Li 0.79359 0.87352 0.51372 0.0
C1324 C 0.79603 0.91021 0.5634 0.0
N1325 N 0.79254 0.9312 0.59081 0.0
C1326 C 0.78772 0.90414 0.57543 0.0
C1327 C 0.80265 0.92692 0.56533 0.0
C1328 C 0.78605 0.91496 0.58918 0.0
C1329 C 0.80073 0.93735 0.57928 0.0
C1330 C 0.76278 0.85948 0.52638 0.0
C1331 C 0.74958 0.83104 0.52017 0.0
N1332 N 0.73669 0.83509 0.52612 0.0
C1333 C 0.74937 0.86339 0.53232 0.0
C1334 C 0.76288 0.8432 0.52015 0.0
C1335 C 0.73631 0.85088 0.53212 0.0
C1336 C 0.76018 0.90999 0.51699 0.0
N1337 N 0.76607 0.90724 0.53106 0.0
C1338 C 0.747 0.91892 0.54496 0.0
C1339 C 0.75966 0.91147 0.5449 0.0
C1340 C 0.74077 0.92215 0.53063 0.0
C1341 C 0.74769 0.91762 0.51654 0.0
H1342 H 0.76503 0.90608 0.50601 0.0
H1343 H 0.76405 0.90866 0.55587 0.0
C1344 C 0.80433 0.86416 0.5703 0.0
N1345 N 0.79149 0.86339 0.56058 0.0
C1346 C 0.80319 0.85683 0.58387 0.0
C1347 C 0.7757 0.84771 0.57702 0.0
C1348 C 0.77735 0.85529 0.56369 0.0
C1349 C 0.78867 0.84862 0.58752 0.0
H1350 H 0.81542 0.87085 0.56773 0.0
H1351 H 0.76722 0.85502 0.55613 0.0
C1352 C 0.79648 0.90859 0.50386 0.0
N1353 N 0.79437 0.93089 0.48421 0.0
C1354 C 0.79444 0.90348 0.48728 0.0
C1355 C 0.79747 0.92502 0.51048 0.0
C1356 C 0.79343 0.91495 0.47754 0.0
C1357 C 0.79634 0.93611 0.50032 0.0
C1358 C 0.81863 0.86159 0.53008 0.0
C1359 C 0.83475 0.86478 0.5308 0.0
C1360 C 0.81023 0.84569 0.52991 0.0
C1361 C 0.84223 0.85193 0.53126 0.0
C1362 C 0.81814 0.83318 0.53042 0.0
N1363 N 0.83384 0.83653 0.53107 0.0
C1364 C 0.84285 0.91336 0.54706 0.0
C1365 C 0.8365 0.9214 0.52279 0.0
C1366 C 0.85789 0.92311 0.5481 0.0
N1367 N 0.83249 0.91262 0.53449 0.0
C1368 C 0.8513 0.93139 0.52344 0.0
C1369 C 0.86241 0.9323 0.53613 0.0
H1370 H 0.83953 0.90615 0.55616 0.0
H1371 H 0.82826 0.92055 0.51279 0.0
C1372 C 0.7779 0.85615 0.48389 0.0
N1373 N 0.79154 0.85952 0.49309 0.0
C1374 C 0.77649 0.84731 0.46825 0.0
C1375 C 0.80302 0.84509 0.47199 0.0
C1376 C 0.80394 0.85403 0.48753 0.0
C1377 C 0.78924 0.84183 0.46197 0.0
H1378 H 0.76821 0.86071 0.48857 0.0
H1379 H 0.81471 0.85701 0.49498 0.0
O1380 O 0.79811 0.89977 0.55002 0.0
O1381 O 0.77573 0.87155 0.52669 0.0
O1382 O 0.79745 0.89749 0.51353 0.0
O1383 O 0.81116 0.87404 0.52962 0.0
H1384 H 0.7825 0.89124 0.57413 0.0
H1385 H 0.80923 0.93177 0.55617 0.0
H1386 H 0.7796 0.91045 0.59856 0.0
H1387 H 0.80579 0.95033 0.58095 0.0
H1388 H 0.7495 0.81837 0.51545 0.0
H1389 H 0.74909 0.87592 0.53717 0.0
H1390 H 0.7731 0.83998 0.51534 0.0
H1391 H 0.72588 0.85371 0.53676 0.0
H1392 H 0.74195 0.92175 0.55611 0.0
H1393 H 0.74357 0.91996 0.50518 0.0
H1394 H 0.81351 0.8581 0.59169 0.0
H1395 H 0.76429 0.84135 0.57914 0.0
H1396 H 0.79371 0.8908 0.482 0.0
H1397 H 0.79901 0.92911 0.52331 0.0
H1398 H 0.79188 0.91119 0.46468 0.0
H1399 H 0.79703 0.94886 0.50525 0.0
H1400 H 0.84139 0.87705 0.53095 0.0
H1401 H 0.79776 0.84307 0.52951 0.0
H1402 H 0.85471 0.85421 0.53178 0.0
H1403 H 0.81181 0.82081 0.53033 0.0
H1404 H 0.86597 0.9231 0.55803 0.0
H1405 H 0.85395 0.93838 0.51403 0.0
H1406 H 0.76558 0.84498 0.46107 0.0
H1407 H 0.81323 0.84136 0.46766 0.0
Li1408 Li 0.94309 0.07303 0.28758 0.0
Li1409 Li 0.91924 0.05281 0.26949 0.0
Li1410 Li 0.94152 0.07152 0.25568 0.0
Li1411 Li 0.92171 0.08637 0.27197 0.0
C1412 C 0.95306 0.04479 0.26836 0.0
N1413 N 0.97526 0.02633 0.26701 0.0
C1414 C 0.94943 0.02881 0.27134 0.0
C1415 C 0.96794 0.05138 0.26463 0.0
C1416 C 0.96084 0.01968 0.27062 0.0
C1417 C 0.97901 0.04185 0.26401 0.0
C1418 C 0.91061 0.07005 0.30116 0.0
C1419 C 0.8882 0.07549 0.31404 0.0
N1420 N 0.89259 0.06903 0.32662 0.0
C1421 C 0.91487 0.06339 0.31417 0.0
C1422 C 0.89717 0.07614 0.30105 0.0
C1423 C 0.90561 0.06302 0.32695 0.0
C1424 C 0.95452 0.08295 0.32305 0.0
N1425 N 0.95629 0.07335 0.30895 0.0
C1426 C 0.97392 0.06145 0.32373 0.0
C1427 C 0.96603 0.06284 0.30929 0.0
C1428 C 0.97202 0.07085 0.33856 0.0
C1429 C 0.96216 0.08188 0.33781 0.0
H1430 H 0.94684 0.09128 0.32304 0.0
H1431 H 0.96755 0.05507 0.29839 0.0
C1432 C 0.90173 0.01879 0.25375 0.0
N1433 N 0.90579 0.02926 0.2681 0.0
C1434 C 0.89364 1.00228 0.25279 0.0
C1435 C 0.89379 0.0071 0.28131 0.0
C1436 C 0.90189 0.0235 0.28175 0.0
C1437 C 0.88946 0.9959 0.26669 0.0
H1438 H 0.90492 0.02314 0.24289 0.0
H1439 H 0.90531 0.03155 0.29318 0.0
C1440 C 0.95766 0.10416 0.27302 0.0
N1441 N 0.98195 0.12994 0.27138 0.0
C1442 C 0.95496 0.11769 0.26693 0.0
C1443 C 0.97267 0.10373 0.27832 0.0
C1444 C 0.9674 0.13061 0.2662 0.0
C1445 C 0.98481 0.11688 0.27735 0.0
C1446 C 0.90911 0.06764 0.23917 0.0
C1447 C 0.9151 0.07747 0.22834 0.0
C1448 C 0.89403 0.0582 0.23625 0.0
C1449 C 0.90585 0.07763 0.21466 0.0
C1450 C 0.88513 0.05876 0.22247 0.0
N1451 N 0.89118 0.06837 0.21204 0.0
C1452 C 0.94684 0.05924 0.22172 0.0
C1453 C 0.96698 0.08133 0.23356 0.0
C1454 C 0.95381 0.05806 0.20704 0.0
N1455 N 0.95329 0.07082 0.23482 0.0
C1456 C 0.97443 0.08047 0.21909 0.0
C1457 C 0.96791 0.06875 0.20528 0.0
H1458 H 0.93608 0.05079 0.22256 0.0
H1459 H 0.97226 0.09056 0.24378 0.0
C1460 C 0.91102 0.11835 0.2855 0.0
N1461 N 0.90954 0.10598 0.2725 0.0
C1462 C 0.90318 0.1315 0.28569 0.0
C1463 C 0.89214 0.11953 0.25918 0.0
C1464 C 0.90014 0.10663 0.25949 0.0
C1465 C 0.89341 0.13257 0.27237 0.0
H1466 H 0.91841 0.1182 0.29593 0.0
H1467 H 0.89866 0.09706 0.24908 0.0
O1468 O 0.94213 0.05399 0.26918 0.0
O1469 O 0.91979 0.07114 0.28882 0.0
O1470 O 0.94559 0.0916 0.27421 0.0
O1471 O 0.91796 0.06728 0.2526 0.0
H1472 H 0.93795 0.02357 0.27427 0.0
H1473 H 0.97093 0.06377 0.26236 0.0
H1474 H 0.95822 0.00731 0.27296 0.0
H1475 H 0.9906 0.04679 0.26119 0.0
H1476 H 0.87778 0.08019 0.31414 0.0
H1477 H 0.92521 0.05857 0.31439 0.0
H1478 H 0.89377 0.08138 0.29108 0.0
H1479 H 0.9088 0.05796 0.33714 0.0
H1480 H 0.98111 0.05259 0.32322 0.0
H1481 H 0.96026 0.08972 0.34858 0.0
H1482 H 0.89063 0.99462 0.2411 0.0
H1483 H 0.89131 0.0032 0.29254 0.0
H1484 H 0.94336 0.11822 0.26289 0.0
H1485 H 0.9749 0.09336 0.28315 0.0
H1486 H 0.9655 0.14119 0.26155 0.0
H1487 H 0.99651 0.11673 0.28139 0.0
H1488 H 0.92674 0.08493 0.23052 0.0
H1489 H 0.88926 0.05058 0.24458 0.0
H1490 H 0.91032 0.08515 0.20615 0.0
H1491 H 0.87341 0.05155 0.22005 0.0
H1492 H 0.94818 0.04857 0.19715 0.0
H1493 H 0.98514 0.0892 0.21872 0.0
H1494 H 0.90507 0.14091 0.29629 0.0
H1495 H 0.88479 0.119 0.24853 0.0
Li1496 Li 0.27914 0.65928 0.53564 0.0
Li1497 Li 0.29389 0.64191 0.5185 0.0
Li1498 Li 0.27838 0.65935 0.5075 0.0
Li1499 Li 0.26635 0.63475 0.51692 0.0
C1500 C 0.30821 0.67971 0.52378 0.0
N1501 N 0.33149 0.70724 0.52473 0.0
C1502 C 0.32357 0.6783 0.52302 0.0
C1503 C 0.30472 0.69516 0.52508 0.0
C1504 C 0.33517 0.69236 0.52352 0.0
C1505 C 0.31664 0.70891 0.52551 0.0
C1506 C 0.27431 0.62462 0.54393 0.0
C1507 C 0.266 0.59611 0.54559 0.0
N1508 N 0.26058 0.60047 0.55997 0.0
C1509 C 0.26876 0.62883 0.55877 0.0
C1510 C 0.27311 0.60815 0.53735 0.0
C1511 C 0.26185 0.61644 0.5667 0.0
C1512 C 0.2654 0.67239 0.56142 0.0
N1513 N 0.27909 0.67248 0.55502 0.0
C1514 C 0.29249 0.69324 0.57624 0.0
C1515 C 0.29253 0.68243 0.56208 0.0
C1516 C 0.27848 0.69358 0.58306 0.0
C1517 C 0.26482 0.68294 0.57559 0.0
H1518 H 0.25497 0.66416 0.55544 0.0
H1519 H 0.30321 0.68209 0.55663 0.0
C1520 C 0.31892 0.63321 0.50391 0.0
N1521 N 0.31112 0.63333 0.5172 0.0
C1522 C 0.33137 0.62566 0.50263 0.0
C1523 C 0.32735 0.6187 0.5288 0.0
C1524 C 0.31502 0.62637 0.52955 0.0
C1525 C 0.33562 0.61826 0.51519 0.0
H1526 H 0.31528 0.63876 0.49426 0.0
H1527 H 0.30845 0.62669 0.53991 0.0
C1528 C 0.25072 0.66631 0.5217 0.0
N1529 N 0.23028 0.68688 0.5237 0.0
C1530 C 0.23493 0.65991 0.51759 0.0
C1531 C 0.2561 0.68317 0.52686 0.0
C1532 C 0.22479 0.67051 0.51868 0.0
C1533 C 0.24559 0.69337 0.52778 0.0
C1534 C 0.27672 0.62615 0.48497 0.0
C1535 C 0.2671 0.62903 0.4728 0.0
C1536 C 0.2832 0.61239 0.48245 0.0
C1537 C 0.26404 0.618 0.45828 0.0
C1538 C 0.27979 0.6016 0.46779 0.0
N1539 N 0.27038 0.60461 0.45611 0.0
C1540 C 0.29114 0.6792 0.48695 0.0
C1541 C 0.26373 0.67387 0.48601 0.0
C1542 C 0.29113 0.68847 0.47503 0.0
N1543 N 0.27758 0.67227 0.49221 0.0
C1544 C 0.26315 0.6828 0.47384 0.0
C1545 C 0.277 0.6901 0.46832 0.0
H1546 H 0.30191 0.6771 0.49166 0.0
H1547 H 0.25313 0.66771 0.49005 0.0
C1548 C 0.23896 0.61804 0.52529 0.0
N1549 N 0.2493 0.61703 0.51416 0.0
C1550 C 0.22559 0.60584 0.52407 0.0
C1551 C 0.23391 0.59171 0.50007 0.0
C1552 C 0.24723 0.60405 0.50192 0.0
C1553 C 0.22287 0.59269 0.51112 0.0
H1554 H 0.24099 0.62852 0.53492 0.0
H1555 H 0.25566 0.60328 0.4934 0.0
O1556 O 0.29674 0.66598 0.52319 0.0
O1557 O 0.2812 0.63662 0.53607 0.0
O1558 O 0.26074 0.65601 0.52074 0.0
O1559 O 0.27988 0.63681 0.49926 0.0
H1560 H 0.32652 0.66649 0.52211 0.0
H1561 H 0.29295 0.69653 0.52556 0.0
H1562 H 0.34709 0.69142 0.52294 0.0
H1563 H 0.31408 0.72092 0.52643 0.0
H1564 H 0.26481 0.58329 0.54056 0.0
H1565 H 0.2699 0.6415 0.56421 0.0
H1566 H 0.27746 0.60472 0.52591 0.0
H1567 H 0.25753 0.61953 0.5782 0.0
H1568 H 0.30322 0.70141 0.58163 0.0
H1569 H 0.25386 0.68274 0.58067 0.0
H1570 H 0.33743 0.62538 0.49189 0.0
H1571 H 0.33046 0.61328 0.53878 0.0
H1572 H 0.23057 0.64689 0.51356 0.0
H1573 H 0.2682 0.68829 0.5303 0.0
H1574 H 0.21254 0.66572 0.51553 0.0
H1575 H 0.24961 0.70643 0.53179 0.0
H1576 H 0.26198 0.6396 0.47456 0.0
H1577 H 0.29051 0.60987 0.49181 0.0
H1578 H 0.25662 0.62006 0.44875 0.0
H1579 H 0.28459 0.59081 0.46572 0.0
H1580 H 0.30193 0.69364 0.47055 0.0
H1581 H 0.2521 0.6836 0.46847 0.0
H1582 H 0.21712 0.60711 0.53265 0.0
H1583 H 0.23206 0.58175 0.48991 0.0
Li1584 Li 0.41879 0.55212 0.76887 0.0
Li1585 Li 0.44257 0.57222 0.78687 0.0
Li1586 Li 0.42138 0.58555 0.77148 0.0
Li1587 Li 0.44119 0.57102 0.75524 0.0
C1588 C 0.40995 0.5697 0.80044 0.0
N1589 N 0.3915 0.56992 0.8256 0.0
C1590 C 0.41452 0.56479 0.81443 0.0
C1591 C 0.396 0.5747 0.79921 0.0
C1592 C 0.40503 0.56499 0.82703 0.0
C1593 C 0.38682 0.57472 0.81207 0.0
C1594 C 0.45315 0.54478 0.76879 0.0
C1595 C 0.47993 0.54357 0.76746 0.0
N1596 N 0.47631 0.52765 0.76932 0.0
C1597 C 0.44966 0.52841 0.77063 0.0
C1598 C 0.46837 0.55244 0.76715 0.0
C1599 C 0.46155 0.51996 0.77089 0.0
C1600 C 0.40077 0.51825 0.75321 0.0
N1601 N 0.4054 0.52861 0.76754 0.0
C1602 C 0.39403 0.50639 0.78096 0.0
C1603 C 0.40209 0.52278 0.78128 0.0
C1604 C 0.38911 0.49529 0.76636 0.0
C1605 C 0.39269 0.50175 0.75236 0.0
H1606 H 0.4035 0.52267 0.74227 0.0
H1607 H 0.40596 0.53077 0.79268 0.0
C1608 C 0.46324 0.58572 0.81839 0.0
N1609 N 0.4557 0.572 0.80785 0.0
C1610 C 0.47134 0.58463 0.83289 0.0
C1611 C 0.46416 0.5554 0.82574 0.0
C1612 C 0.45621 0.55702 0.81147 0.0
C1613 C 0.47196 0.56927 0.83701 0.0
H1614 H 0.46291 0.59765 0.8157 0.0
H1615 H 0.45009 0.54609 0.80339 0.0
C1616 C 0.40852 0.56748 0.73892 0.0
N1617 N 0.39018 0.5689 0.71234 0.0
C1618 C 0.4143 0.57768 0.72833 0.0
C1619 C 0.39344 0.55803 0.73606 0.0
C1620 C 0.40485 0.57819 0.71492 0.0
C1621 C 0.38433 0.55895 0.72255 0.0
C1622 C 0.45715 0.6036 0.77257 0.0
C1623 C 0.45428 0.61705 0.76645 0.0
C1624 C 0.47223 0.60337 0.77785 0.0
C1625 C 0.4666 0.63009 0.76569 0.0
C1626 C 0.48424 0.61664 0.77685 0.0
N1627 N 0.4812 0.62961 0.77086 0.0
C1628 C 0.41503 0.62016 0.7816 0.0
C1629 C 0.39575 0.60305 0.76288 0.0
C1630 C 0.40739 0.63343 0.7818 0.0
N1631 N 0.40931 0.60508 0.77218 0.0
C1632 C 0.38771 0.61595 0.76283 0.0
C1633 C 0.39335 0.63171 0.77234 0.0
H1634 H 0.4257 0.62209 0.78905 0.0
H1635 H 0.39102 0.59132 0.75527 0.0
C1636 C 0.45369 0.55583 0.72566 0.0
N1637 N 0.45325 0.57063 0.73469 0.0
C1638 C 0.46107 0.55468 0.7112 0.0
C1639 C 0.46787 0.58395 0.7152 0.0
C1640 C 0.46033 0.58457 0.72959 0.0
C1641 C 0.46833 0.56882 0.70545 0.0
H1642 H 0.44819 0.54472 0.72958 0.0
H1643 H 0.46 0.59636 0.73654 0.0
O1644 O 0.41936 0.57027 0.78824 0.0
O1645 O 0.4417 0.55326 0.76851 0.0
O1646 O 0.41762 0.56664 0.75199 0.0
O1647 O 0.4452 0.59093 0.77381 0.0
H1648 H 0.42529 0.56092 0.81559 0.0
H1649 H 0.39236 0.57863 0.78848 0.0
H1650 H 0.40845 0.56128 0.83796 0.0
H1651 H 0.37601 0.57861 0.81131 0.0
H1652 H 0.49177 0.54932 0.76622 0.0
H1653 H 0.43791 0.52233 0.77188 0.0
H1654 H 0.47121 0.56508 0.76562 0.0
H1655 H 0.45904 0.50729 0.77233 0.0
H1656 H 0.39206 0.50242 0.79224 0.0
H1657 H 0.38921 0.49419 0.74069 0.0
H1658 H 0.47715 0.59588 0.84073 0.0
H1659 H 0.46377 0.54319 0.82804 0.0
H1660 H 0.42596 0.58508 0.73044 0.0
H1661 H 0.38883 0.55011 0.7442 0.0
H1662 H 0.40917 0.58597 0.70656 0.0
H1663 H 0.37261 0.55173 0.72018 0.0
H1664 H 0.44265 0.61741 0.76235 0.0
H1665 H 0.4746 0.59311 0.78278 0.0
H1666 H 0.46455 0.6406 0.76101 0.0
H1667 H 0.49597 0.61664 0.7809 0.0
H1668 H 0.41248 0.64497 0.78958 0.0
H1669 H 0.37717 0.61356 0.75506 0.0
H1670 H 0.46112 0.54261 0.70467 0.0
H1671 H 0.473 0.59537 0.71162 0.0
Li1672 Li 0.6728 0.03971 0.7596 0.0
Li1673 Li 0.69475 0.05673 0.7501 0.0
Li1674 Li 0.67262 0.04036 0.73185 0.0
Li1675 Li 0.69122 0.02734 0.74382 0.0
C1676 C 0.66313 0.06891 0.74808 0.0
N1677 N 0.64286 0.08923 0.746 0.0
C1678 C 0.66866 0.08586 0.75043 0.0
C1679 C 0.64731 0.06228 0.74464 0.0
C1680 C 0.65822 0.09594 0.74937 0.0
C1681 C 0.63724 0.07276 0.7436 0.0
C1682 C 0.70621 0.04561 0.77734 0.0
C1683 C 0.73295 0.05011 0.78721 0.0
N1684 N 0.72907 0.05431 0.80235 0.0
C1685 C 0.70247 0.04994 0.793 0.0
C1686 C 0.72155 0.04564 0.77441 0.0
C1687 C 0.7142 0.05432 0.80548 0.0
C1688 C 0.65934 0.02415 0.78265 0.0
N1689 N 0.66109 0.03813 0.7766 0.0
C1690 C 0.64774 0.05035 0.79709 0.0
C1691 C 0.65555 0.05114 0.78342 0.0
C1692 C 0.64588 0.03609 0.80367 0.0
C1693 C 0.65161 0.02281 0.79627 0.0
H1694 H 0.66427 0.01422 0.77707 0.0
H1695 H 0.65758 0.06226 0.77853 0.0
C1696 C 0.71421 0.08181 0.74057 0.0
N1697 N 0.70973 0.07586 0.7538 0.0
C1698 C 0.72642 0.09526 0.7419 0.0
C1699 C 0.72876 0.09647 0.77055 0.0
C1700 C 0.71638 0.08306 0.76866 0.0
C1701 C 0.73396 0.1026 0.75702 0.0
H1702 H 0.70833 0.07602 0.72898 0.0
H1703 H 0.71218 0.07838 0.779 0.0
C1704 C 0.65685 0.0081 0.74316 0.0
N1705 N 0.63293 0.98199 0.745 0.0
C1706 C 0.65984 0.99267 0.74364 0.0
C1707 C 0.6417 0.01024 0.74358 0.0
C1708 C 0.64759 0.97961 0.74454 0.0
C1709 C 0.62977 0.9969 0.74459 0.0
C1710 C 0.7055 0.04168 0.71851 0.0
C1711 C 0.701 0.03726 0.70214 0.0
C1712 C 0.72116 0.04511 0.72388 0.0
C1713 C 0.71228 0.03631 0.69138 0.0
C1714 C 0.73209 0.04402 0.71274 0.0
N1715 N 0.72746 0.03968 0.69685 0.0
C1716 C 0.65854 0.05106 0.70675 0.0
C1717 C 0.65427 0.02239 0.70633 0.0
C1718 C 0.64912 0.04834 0.69261 0.0
N1719 N 0.66062 0.03811 0.71331 0.0
C1720 C 0.64468 0.01912 0.69236 0.0
C1721 C 0.64195 0.0322 0.68552 0.0
H1722 H 0.6641 0.06339 0.71255 0.0
H1723 H 0.65666 0.0124 0.71161 0.0
C1724 C 0.70757 0.00628 0.7535 0.0
N1725 N 0.70148 0.0106 0.74041 0.0
C1726 C 0.71635 0.99451 0.7517 0.0
C1727 C 0.71162 0.99123 0.72294 0.0
C1728 C 0.70303 0.00324 0.72532 0.0
C1729 C 0.71856 0.98705 0.73627 0.0
H1730 H 0.70564 0.01201 0.76531 0.0
H1731 H 0.69767 0.00676 0.71519 0.0
O1732 O 0.6732 0.05898 0.74959 0.0
O1733 O 0.69482 0.04112 0.76502 0.0
O1734 O 0.66867 0.02081 0.74159 0.0
O1735 O 0.69462 0.04316 0.72914 0.0
H1736 H 0.68088 0.09118 0.7532 0.0
H1737 H 0.64285 0.04922 0.74277 0.0
H1738 H 0.66232 0.10909 0.75126 0.0
H1739 H 0.62496 0.06779 0.74093 0.0
H1740 H 0.74487 0.05019 0.78511 0.0
H1741 H 0.69064 0.04994 0.79548 0.0
H1742 H 0.72461 0.04219 0.76239 0.0
H1743 H 0.71149 0.05771 0.81765 0.0
H1744 H 0.64366 0.06091 0.80271 0.0
H1745 H 0.65026 0.01161 0.80105 0.0
H1746 H 0.72972 0.10003 0.73125 0.0
H1747 H 0.73419 0.10197 0.78243 0.0
H1748 H 0.67149 0.99076 0.74314 0.0
H1749 H 0.63915 0.02202 0.7431 0.0
H1750 H 0.64972 0.96758 0.74481 0.0
H1751 H 0.61799 0.9984 0.74495 0.0
H1752 H 0.68892 0.03468 0.6978 0.0
H1753 H 0.72484 0.04874 0.73649 0.0
H1754 H 0.70897 0.03293 0.67867 0.0
H1755 H 0.74425 0.04669 0.71671 0.0
H1756 H 0.64716 0.05865 0.68747 0.0
H1757 H 0.63946 0.00654 0.68694 0.0
H1758 H 0.7212 0.99112 0.76223 0.0
H1759 H 0.71298 0.98542 0.71092 0.0
Li1760 Li 0.79841 0.70566 0.02223 0.0
Li1761 Li 0.80941 0.6836 0.00544 0.0
Li1762 Li 0.79823 0.70377 0.99286 0.0
Li1763 Li 0.78014 0.68119 0.0032 0.0
C1764 C 0.82876 0.72046 0.00997 0.0
N1765 N 0.85413 0.74594 0.01112 0.0
C1766 C 0.84369 0.71763 0.01109 0.0
C1767 C 0.82674 0.73625 0.00945 0.0
C1768 C 0.85636 0.73068 0.01166 0.0
C1769 C 0.83971 0.74896 0.01003 0.0
C1770 C 0.79534 0.6716 0.03298 0.0
C1771 C 0.79004 0.64483 0.0401 0.0
N1772 N 0.79783 0.65135 0.05467 0.0
C1773 C 0.80325 0.67807 0.04803 0.0
C1774 C 0.78863 0.65488 0.02895 0.0
C1775 C 0.8044 0.66761 0.05883 0.0
C1776 C 0.78687 0.71647 0.0509 0.0
N1777 N 0.79976 0.71912 0.04291 0.0
C1778 C 0.81341 0.7385 0.06547 0.0
C1779 C 0.81288 0.73 0.04977 0.0
C1780 C 0.80039 0.73561 0.0742 0.0
C1781 C 0.78694 0.72458 0.06659 0.0
H1782 H 0.77663 0.70772 0.04516 0.0
H1783 H 0.82304 0.73178 0.04324 0.0
C1784 C 0.83466 0.67213 0.99175 0.0
N1785 N 0.82606 0.67204 0.00455 0.0
C1786 C 0.84754 0.66497 0.99116 0.0
C1787 C 0.84237 0.65754 0.01678 0.0
C1788 C 0.82969 0.66488 0.01691 0.0
C1789 C 0.85167 0.65767 0.0039 0.0
H1790 H 0.8317 0.67808 0.98214 0.0
H1791 H 0.82294 0.66502 0.02706 0.0
C1792 C 0.77275 0.71688 0.00444 0.0
N1793 N 0.75665 0.74037 0.99954 0.0
C1794 C 0.75802 0.71224 0.99629 0.0
C1795 C 0.77919 0.73342 0.01033 0.0
C1796 C 0.75009 0.72431 0.99388 0.0
C1797 C 0.7709 0.74513 0.00766 0.0
C1798 C 0.79404 0.6687 0.9723 0.0
C1799 C 0.79092 0.67305 0.95757 0.0
C1800 C 0.79694 0.65325 0.97279 0.0
C1801 C 0.7908 0.66183 0.94352 0.0
C1802 C 0.79674 0.64238 0.95847 0.0
N1803 N 0.7937 0.64686 0.94426 0.0
C1804 C 0.81536 0.71956 0.97066 0.0
C1805 C 0.78876 0.71976 0.9681 0.0
C1806 C 0.81797 0.72752 0.95765 0.0
N1807 N 0.80095 0.71591 0.97568 0.0
C1808 C 0.79081 0.72758 0.95492 0.0
C1809 C 0.80557 0.73146 0.94941 0.0
H1810 H 0.82482 0.71601 0.97656 0.0
H1811 H 0.77732 0.71626 0.97187 0.0
C1812 C 0.75002 0.67092 0.01224 0.0
N1813 N 0.75978 0.66677 0.00124 0.0
C1814 C 0.73506 0.66134 0.01184 0.0
C1815 C 0.74035 0.64317 0.98884 0.0
C1816 C 0.75524 0.65316 0.98965 0.0
C1817 C 0.72995 0.6472 2e-05 0.0
H1818 H 0.7539 0.68175 0.02139 0.0
H1819 H 0.76314 0.65006 0.981 0.0
O1820 O 0.81625 0.70773 0.00908 0.0
O1821 O 0.79424 0.6816 0.02221 0.0
O1822 O 0.78069 0.70523 0.00682 0.0
O1823 O 0.79462 0.6797 0.98614 0.0
H1824 H 0.84546 0.70549 0.01151 0.0
H1825 H 0.81529 0.73861 0.00839 0.0
H1826 H 0.86798 0.72866 0.01252 0.0
H1827 H 0.83832 0.76123 0.00956 0.0
H1828 H 0.78495 0.63185 0.03715 0.0
H1829 H 0.80857 0.69098 0.05128 0.0
H1830 H 0.78249 0.64973 0.01732 0.0
H1831 H 0.81055 0.67241 0.0705 0.0
H1832 H 0.82406 0.74678 0.07091 0.0
H1833 H 0.77657 0.72212 0.07277 0.0
H1834 H 0.8544 0.66553 0.98102 0.0
H1835 H 0.84484 0.65181 0.02675 0.0
H1836 H 0.75285 0.69945 0.99175 0.0
H1837 H 0.79043 0.73717 0.01696 0.0
H1838 H 0.73872 0.72092 0.98751 0.0
H1839 H 0.77578 0.75799 0.01207 0.0
H1840 H 0.78863 0.68495 0.95697 0.0
H1841 H 0.79939 0.64973 0.98412 0.0
H1842 H 0.78842 0.66503 0.93204 0.0
H1843 H 0.79902 0.63039 0.95865 0.0
H1844 H 0.82958 0.73035 0.95398 0.0
H1845 H 0.78081 0.72999 0.94878 0.0
H1846 H 0.72765 0.66488 0.02089 0.0
H1847 H 0.73695 0.63252 0.97941 0.0
Li1848 Li 0.8969 0.52577 0.78744 0.0
Li1849 Li 0.91889 0.54227 0.80563 0.0
Li1850 Li 0.9006 0.55506 0.79218 0.0
Li1851 Li 0.91921 0.54133 0.77736 0.0
C1852 C 0.88665 0.54141 0.81919 0.0
N1853 N 0.86577 0.54196 0.84214 0.0
C1854 C 0.89088 0.53963 0.83469 0.0
C1855 C 0.8718 0.54347 0.81535 0.0
C1856 C 0.88016 0.53994 0.84613 0.0
C1857 C 0.86141 0.54373 0.82712 0.0
C1858 C 0.92849 0.51303 0.7876 0.0
C1859 C 0.95457 0.50921 0.78641 0.0
N1860 N 0.94918 0.49276 0.78488 0.0
C1861 C 0.9232 0.49609 0.78598 0.0
C1862 C 0.94429 0.51967 0.78781 0.0
C1863 C 0.93384 0.48605 0.78464 0.0
C1864 C 0.88031 0.49672 0.76905 0.0
N1865 N 0.88188 0.50663 0.78356 0.0
C1866 C 0.86058 0.48934 0.79228 0.0
C1867 C 0.87253 0.50312 0.79519 0.0
C1868 C 0.85858 0.47887 0.7774 0.0
C1869 C 0.8686 0.48262 0.76565 0.0
H1870 H 0.88818 0.49978 0.76018 0.0
H1871 H 0.87435 0.51089 0.80676 0.0
C1872 C 0.93344 0.56008 0.8335 0.0
N1873 N 0.93037 0.54482 0.82452 0.0
C1874 C 0.94229 0.5633 0.848 0.0
C1875 C 0.94403 0.53479 0.84381 0.0
C1876 C 0.93519 0.53215 0.82934 0.0
C1877 C 0.94777 0.55058 0.85316 0.0
H1878 H 0.92908 0.56973 0.82929 0.0
H1879 H 0.93226 0.52011 0.82192 0.0
C1880 C 0.88544 0.53374 0.75962 0.0
N1881 N 0.86162 0.52104 0.73586 0.0
C1882 C 0.88867 0.52949 0.74378 0.0
C1883 C 0.8701 0.53165 0.76337 0.0
C1884 C 0.87647 0.52309 0.73193 0.0
C1885 C 0.85821 0.52513 0.7512 0.0
C1886 C 0.93571 0.57376 0.79588 0.0
C1887 C 0.93354 0.5889 0.79305 0.0
C1888 C 0.95055 0.57191 0.80009 0.0
C1889 C 0.94633 0.60195 0.79437 0.0
C1890 C 0.96304 0.58527 0.80129 0.0
N1891 N 0.96069 0.59988 0.79842 0.0
C1892 C 0.88996 0.58041 0.80958 0.0
C1893 C 0.88267 0.57463 0.78165 0.0
C1894 C 0.88109 0.59217 0.81188 0.0
N1895 N 0.89038 0.5719 0.79468 0.0
C1896 C 0.8737 0.58626 0.78338 0.0
C1897 C 0.87274 0.59506 0.79867 0.0
H1898 H 0.89627 0.5778 0.81965 0.0
H1899 H 0.88341 0.56769 0.76997 0.0
C1900 C 0.93002 0.52648 0.75059 0.0
N1901 N 0.93128 0.54117 0.76033 0.0
C1902 C 0.93692 0.52567 0.73628 0.0
C1903 C 0.94688 0.55503 0.74283 0.0
C1904 C 0.93963 0.55528 0.75691 0.0
C1905 C 0.94515 0.54016 0.73213 0.0
H1906 H 0.923 0.51555 0.75359 0.0
H1907 H 0.94018 0.5668 0.76473 0.0
O1908 O 0.89687 0.54054 0.80774 0.0
O1909 O 0.91814 0.52293 0.78884 0.0
O1910 O 0.89727 0.54033 0.77131 0.0
O1911 O 0.92327 0.56093 0.79468 0.0
H1912 H 0.90226 0.53782 0.83783 0.0
H1913 H 0.8683 0.54477 0.80339 0.0
H1914 H 0.88326 0.53851 0.85816 0.0
H1915 H 0.84987 0.54528 0.82431 0.0
H1916 H 0.96684 0.51416 0.78651 0.0
H1917 H 0.91098 0.49078 0.78579 0.0
H1918 H 0.94855 0.53273 0.78891 0.0
H1919 H 0.92991 0.47292 0.78341 0.0
H1920 H 0.85312 0.48682 0.80165 0.0
H1921 H 0.86767 0.47458 0.75418 0.0
H1922 H 0.94489 0.57557 0.85506 0.0
H1923 H 0.94824 0.52476 0.84744 0.0
H1924 H 0.90047 0.53125 0.74062 0.0
H1925 H 0.8674 0.53494 0.77555 0.0
H1926 H 0.8788 0.51981 0.71961 0.0
H1927 H 0.84628 0.52335 0.75394 0.0
H1928 H 0.92209 0.59051 0.78983 0.0
H1929 H 0.9524 0.56033 0.80249 0.0
H1930 H 0.94483 0.61373 0.79219 0.0
H1931 H 0.9746 0.58403 0.80452 0.0
H1932 H 0.88063 0.59877 0.82382 0.0
H1933 H 0.86775 0.58848 0.77285 0.0
H1934 H 0.93518 0.514 0.72825 0.0
H1935 H 0.95337 0.56641 0.74014 0.0
Li1936 Li 0.81456 0.42243 0.52943 0.0
Li1937 Li 0.79909 0.43901 0.51724 0.0
Li1938 Li 0.81525 0.42288 0.50157 0.0
Li1939 Li 0.8264 0.4469 0.52065 0.0
C1940 C 0.78566 0.40139 0.51132 0.0
N1941 N 0.76231 0.37364 0.5088 0.0
C1942 C 0.7711 0.40266 0.51622 0.0
C1943 C 0.78828 0.38601 0.50498 0.0
C1944 C 0.75946 0.38848 0.51489 0.0
C1945 C 0.77635 0.37213 0.50386 0.0
C1946 C 0.81874 0.45722 0.5497 0.0
C1947 C 0.82564 0.4861 0.56072 0.0
N1948 N 0.83315 0.48286 0.57369 0.0
C1949 C 0.8264 0.45416 0.56321 0.0
C1950 C 0.81818 0.4733 0.54852 0.0
C1951 C 0.83363 0.46728 0.57519 0.0
C1952 C 0.82877 0.41028 0.55286 0.0
N1953 N 0.81503 0.40989 0.54492 0.0
C1954 C 0.80119 0.39366 0.5618 0.0
C1955 C 0.80141 0.40178 0.54902 0.0
C1956 C 0.81512 0.39433 0.57058 0.0
C1957 C 0.8291 0.40244 0.56587 0.0
H1958 H 0.83936 0.41732 0.54957 0.0
H1959 H 0.79067 0.40215 0.5428 0.0
C1960 C 0.77352 0.44662 0.50334 0.0
N1961 N 0.7815 0.44685 0.51738 0.0
C1962 C 0.76103 0.45409 0.50329 0.0
C1963 C 0.76536 0.46168 0.53216 0.0
C1964 C 0.77769 0.454 0.53164 0.0
C1965 C 0.75695 0.46182 0.51784 0.0
H1966 H 0.77708 0.44088 0.49224 0.0
H1967 H 0.78446 0.45403 0.54255 0.0
C1968 C 0.8421 0.41496 0.51679 0.0
N1969 N 0.8607 0.39255 0.51567 0.0
C1970 C 0.85816 0.42024 0.51769 0.0
C1971 C 0.8355 0.39828 0.51532 0.0
C1972 C 0.86737 0.40873 0.5171 0.0
C1973 C 0.84509 0.38714 0.51478 0.0
C1974 C 0.81907 0.45283 0.48916 0.0
C1975 C 0.8328 0.44971 0.48338 0.0
C1976 C 0.81155 0.46335 0.4825 0.0
C1977 C 0.83869 0.45706 0.47082 0.0
C1978 C 0.81788 0.47056 0.47005 0.0
N1979 N 0.83118 0.46726 0.46449 0.0
C1980 C 0.80225 0.40283 0.4733 0.0
C1981 C 0.82938 0.40592 0.47784 0.0
C1982 C 0.8018 0.3913 0.45951 0.0
N1983 N 0.81587 0.40964 0.48216 0.0
C1984 C 0.82946 0.39435 0.46428 0.0
C1985 C 0.81553 0.38686 0.455 0.0
H1986 H 0.79172 0.40615 0.47714 0.0
H1987 H 0.84007 0.41173 0.485 0.0
C1988 C 0.85396 0.46319 0.53633 0.0
N1989 N 0.84278 0.46495 0.5258 0.0
C1990 C 0.86716 0.47552 0.54064 0.0
C1991 C 0.85679 0.49148 0.52353 0.0
C1992 C 0.84365 0.47885 0.5197 0.0
C1993 C 0.86884 0.48968 0.53387 0.0
H1994 H 0.85272 0.452 0.54108 0.0
H1995 H 0.83433 0.48 0.51164 0.0
O1996 O 0.79713 0.4152 0.51248 0.0
O1997 O 0.81176 0.44454 0.53774 0.0
O1998 O 0.83302 0.4262 0.51763 0.0
O1999 O 0.81285 0.4456 0.50122 0.0
H2000 H 0.76884 0.41446 0.5211 0.0
H2001 H 0.79934 0.38477 0.50081 0.0
H2002 H 0.74817 0.38929 0.51869 0.0
H2003 H 0.77823 0.36015 0.499 0.0
H2004 H 0.82548 0.49863 0.55987 0.0
H2005 H 0.82676 0.44181 0.56446 0.0
H2006 H 0.81226 0.47586 0.53815 0.0
H2007 H 0.83964 0.46508 0.58568 0.0
H2008 H 0.79022 0.3873 0.56505 0.0
H2009 H 0.84003 0.40332 0.57255 0.0
H2010 H 0.75466 0.45383 0.49205 0.0
H2011 H 0.76265 0.46771 0.54357 0.0
H2012 H 0.86347 0.43312 0.51881 0.0
H2013 H 0.82313 0.39402 0.51483 0.0
H2014 H 0.87982 0.41266 0.51779 0.0
H2015 H 0.84014 0.3742 0.51371 0.0
H2016 H 0.83883 0.44174 0.48855 0.0
H2017 H 0.80095 0.46593 0.48694 0.0
H2018 H 0.84926 0.4547 0.46614 0.0
H2019 H 0.81219 0.47875 0.4648 0.0
H2020 H 0.79088 0.38599 0.45246 0.0
H2021 H 0.84026 0.39115 0.46123 0.0
H2022 H 0.87633 0.47351 0.54839 0.0
H2023 H 0.85778 0.50224 0.51807 0.0
Li2024 Li 0.65031 0.5079 0.27973 0.0
Li2025 Li 0.673 0.5265 0.26676 0.0
Li2026 Li 0.64941 0.50602 0.24794 0.0
Li2027 Li 0.67042 0.49284 0.26303 0.0
C2028 C 0.63887 0.53412 0.26773 0.0
N2029 N 0.61633 0.5521 0.27139 0.0
C2030 C 0.64283 0.55067 0.27484 0.0
C2031 C 0.62348 0.52672 0.26241 0.0
C2032 C 0.63125 0.55955 0.2766 0.0
C2033 C 0.61224 0.53601 0.26439 0.0
C2034 C 0.68383 0.51393 0.29634 0.0
C2035 C 0.70714 0.51036 0.30961 0.0
N2036 N 0.70361 0.5186 0.32356 0.0
C2037 C 0.68046 0.52243 0.31077 0.0
C2038 C 0.69729 0.50787 0.29571 0.0
C2039 C 0.69059 0.52464 0.32442 0.0
C2040 C 0.63116 0.49437 0.30533 0.0
N2041 N 0.6381 0.50835 0.30019 0.0
C2042 C 0.63023 0.52424 0.32368 0.0
C2043 C 0.63748 0.52312 0.30916 0.0
C2044 C 0.62313 0.51007 0.32946 0.0
C2045 C 0.6236 0.49495 0.31972 0.0
H2046 H 0.6316 0.4826 0.29839 0.0
H2047 H 0.64288 0.53426 0.30522 0.0
C2048 C 0.68652 0.55715 0.25502 0.0
N2049 N 0.68638 0.55008 0.26831 0.0
C2050 C 0.69445 0.57359 0.25537 0.0
C2051 C 0.70231 0.57571 0.28308 0.0
C2052 C 0.69417 0.55922 0.28223 0.0
C2053 C 0.7026 0.58344 0.26956 0.0
H2054 H 0.68028 0.55007 0.24399 0.0
H2055 H 0.69394 0.55385 0.29288 0.0
C2056 C 0.63438 0.4745 0.25899 0.0
N2057 N 0.60983 0.44768 0.25433 0.0
C2058 C 0.63672 0.45885 0.25333 0.0
C2059 C 0.61959 0.47653 0.26232 0.0
C2060 C 0.62415 0.44544 0.25104 0.0
C2061 C 0.60732 0.46281 0.25986 0.0
C2062 C 0.68087 0.50615 0.23398 0.0
C2063 C 0.67371 0.49511 0.2203 0.0
C2064 C 0.6963 0.51427 0.23431 0.0
C2065 C 0.68215 0.49241 0.20708 0.0
C2066 C 0.70437 0.51118 0.22087 0.0
N2067 N 0.69718 0.50042 0.20764 0.0
C2068 C 0.64295 0.51849 0.21859 0.0
C2069 C 0.623 0.49606 0.22057 0.0
C2070 C 0.63554 0.52045 0.20414 0.0
N2071 N 0.6368 0.50641 0.22667 0.0
C2072 C 0.61514 0.49764 0.2061 0.0
C2073 C 0.62133 0.50998 0.19739 0.0
H2074 H 0.65376 0.52685 0.2234 0.0
H2075 H 0.61795 0.48648 0.22689 0.0
C2076 C 0.68001 0.46306 0.27341 0.0
N2077 N 0.68241 0.47317 0.26238 0.0
C2078 C 0.68775 0.44993 0.27359 0.0
C2079 C 0.70064 0.45721 0.25107 0.0
C2080 C 0.69263 0.4702 0.25127 0.0
C2081 C 0.69848 0.44655 0.26236 0.0
H2082 H 0.67202 0.46515 0.28232 0.0
H2083 H 0.6947 0.47793 0.24237 0.0
O2084 O 0.65003 0.52525 0.26584 0.0
O2085 O 0.67381 0.51109 0.28299 0.0
O2086 O 0.64661 0.48769 0.2616 0.0
O2087 O 0.6728 0.509 0.247 0.0
H2088 H 0.65471 0.55657 0.27896 0.0
H2089 H 0.62028 0.51396 0.25674 0.0
H2090 H 0.63412 0.57237 0.28209 0.0
H2091 H 0.60028 0.53045 0.26034 0.0
H2092 H 0.71758 0.5057 0.30931 0.0
H2093 H 0.67012 0.52723 0.31144 0.0
H2094 H 0.70004 0.50125 0.28461 0.0
H2095 H 0.68809 0.53113 0.3357 0.0
H2096 H 0.63015 0.53627 0.33028 0.0
H2097 H 0.61851 0.48354 0.32336 0.0
H2098 H 0.69424 0.57844 0.24443 0.0
H2099 H 0.70805 0.58244 0.29446 0.0
H2100 H 0.64813 0.45708 0.25078 0.0
H2101 H 0.61764 0.48854 0.2669 0.0
H2102 H 0.62578 0.43324 0.24669 0.0
H2103 H 0.59581 0.46419 0.26241 0.0
H2104 H 0.66175 0.48872 0.2199 0.0
H2105 H 0.70198 0.52284 0.24485 0.0
H2106 H 0.67676 0.48394 0.19638 0.0
H2107 H 0.71634 0.51735 0.22095 0.0
H2108 H 0.64093 0.53041 0.19847 0.0
H2109 H 0.60436 0.48905 0.20169 0.0
H2110 H 0.68543 0.44264 0.28281 0.0
H2111 H 0.70839 0.4555 0.24184 0.0
Gd2112 Gd 0.06453 0.04884 0.02591 0.0
Gd2113 Gd 0.02611 0.02934 0.0085 0.0
C2114 C 0.00521 0.97549 0.00993 0.0
C2115 C 1.00023 0.96351 0.98172 0.0
C2116 C 0.01203 0.99251 0.99012 0.0
C2117 C 0.01166 0.99084 0.00595 0.0
C2118 C 0.0059 0.97896 0.97783 0.0
C2119 C 0.9999 0.96178 0.99775 0.0
C2120 C 0.00358 0.97451 0.02598 0.0
C2121 C 0.00775 0.98869 0.03754 0.0
N2122 N 0.0164 0.00445 0.01741 0.0
C2123 C 0.014 0.00361 0.03304 0.0
H2124 H 0.01712 0.01422 0.04236 0.0
C2125 C 0.01515 0.01037 0.97148 0.0
N2126 N 0.01709 0.00767 0.98677 0.0
C2127 C 0.00935 0.99731 0.95888 0.0
C2128 C 0.00492 0.98148 0.96204 0.0
H2129 H 0.01842 0.02264 0.96901 0.0
H2130 H 0.995 0.94992 0.0006 0.0
H2131 H 0.06969 0.06659 0.99298 0.0
H2132 H 0.99864 0.96298 0.02951 0.0
H2133 H 0.0062 0.98815 0.04998 0.0
H2134 H 0.99557 0.95296 0.97245 0.0
H2135 H 0.07391 0.05264 0.06471 0.0
H2136 H 0.092 0.11675 0.00808 0.0
H2137 H 0.08073 0.09327 0.98655 0.0
H2138 H 0.10079 0.12237 0.06477 0.0
H2139 H 0.00822 0.99948 0.94677 0.0
H2140 H 1.00026 0.97139 0.95229 0.0
H2141 H 0.09935 0.1275 0.03725 0.0
H2142 H 0.0866 0.07405 0.08758 0.0
N2143 N 0.0738 0.07451 0.01832 0.0
C2144 C 0.08695 0.10499 0.01109 0.0
C2145 C 0.08065 0.09177 0.99891 0.0
C2146 C 0.08705 0.10278 0.02697 0.0
C2147 C 0.0803 0.08721 0.03026 0.0
C2148 C 0.07435 0.07652 0.00272 0.0
N2149 N 0.07514 0.06907 0.04832 0.0
C2150 C 0.08089 0.08442 0.04575 0.0
C2151 C 0.08493 0.07719 0.07593 0.0
C2152 C 0.09025 0.09324 0.07365 0.0
C2153 C 0.07767 0.06513 0.06299 0.0
C2154 C 0.08855 0.09697 0.05838 0.0
H2155 H 0.09611 0.10251 0.08363 0.0
O2156 O 0.08064 0.03634 0.03565 0.0
O2157 O 0.0479 0.02483 0.01818 0.0
O2158 O 0.02562 0.03944 0.03562 0.0
O2159 O 0.04961 0.05592 0.04606 0.0
O2160 O 0.0585 0.02951 0.04111 0.0
O2161 O 0.08654 0.04873 0.01586 0.0
O2162 O 0.00969 0.03928 0.99581 0.0
O2163 O 0.04243 0.05369 0.01645 0.0
O2164 O 0.06504 0.04026 0.9987 0.0
O2165 O 0.04196 0.02171 0.98927 0.0
O2166 O 0.03241 0.04814 0.9932 0.0
O2167 O 0.00411 0.03105 0.01797 0.0
C2168 C 0.04933 0.01864 0.03053 0.0
C2169 C 0.09489 0.11258 0.05523 0.0
C2170 C 0.09411 0.11549 0.03956 0.0
C2171 C 0.09099 0.04039 0.02598 0.0
C2172 C 0.10686 0.04562 0.03317 0.0
C2173 C 0.11219 0.06058 0.04371 0.0
C2174 C 0.11655 0.03472 0.03012 0.0
C2175 C 0.1315 0.03854 0.0377 0.0
C2176 C 0.12705 0.06436 0.05146 0.0
C2177 C 0.13669 0.05335 0.04856 0.0
C2178 C 0.03489 0.04943 0.04772 0.0
C2179 C 0.04054 0.05967 0.00397 0.0
C2180 C 0.99941 0.03704 0.00601 0.0
C2181 C 0.98347 0.03054 0.99925 0.0
C2182 C 0.97916 0.01605 0.98787 0.0
C2183 C 0.97252 0.03965 0.00378 0.0
C2184 C 0.95726 0.03449 0.99689 0.0
C2185 C 0.96401 0.0109 0.98087 0.0
C2186 C 0.95308 0.02008 0.9853 0.0
C2187 C 0.05627 0.02916 0.9871 0.0
H2188 H 0.10494 0.06924 0.04603 0.0
H2189 H 0.11239 0.02313 0.02199 0.0
H2190 H 0.13112 0.07586 0.05968 0.0
H2191 H 0.14828 0.05655 0.05447 0.0
H2192 H 0.98741 0.00879 0.98431 0.0
H2193 H 0.9759 0.05077 0.01271 0.0
H2194 H 0.96075 0.99984 0.97192 0.0
H2195 H 0.94143 0.01601 0.97957 0.0
Gd2196 Gd 0.2853 0.79882 0.28815 0.0
Gd2197 Gd 0.30437 0.78308 0.25261 0.0
C2198 C 0.29092 0.73247 0.22031 0.0
C2199 C 0.31551 0.72433 0.21941 0.0
C2200 C 0.3133 0.74951 0.23674 0.0
C2201 C 0.29788 0.74669 0.23153 0.0
C2202 C 0.32228 0.73827 0.23084 0.0
C2203 C 0.29988 0.72151 0.21404 0.0
C2204 C 0.27513 0.7296 0.21574 0.0
C2205 C 0.26665 0.74065 0.22247 0.0
N2206 N 0.28968 0.7578 0.23751 0.0
C2207 C 0.2741 0.75472 0.23329 0.0
H2208 H 0.267 0.76266 0.23849 0.0
C2209 C 0.33514 0.76713 0.2519 0.0
N2210 N 0.31963 0.76342 0.24729 0.0
C2211 C 0.34439 0.75615 0.24683 0.0
C2212 C 0.33793 0.74162 0.23625 0.0
H2213 H 0.34055 0.77885 0.25914 0.0
H2214 H 0.29476 0.71065 0.20528 0.0
H2215 H 0.32423 0.81324 0.3016 0.0
H2216 H 0.26935 0.71877 0.20726 0.0
H2217 H 0.25434 0.73837 0.21931 0.0
H2218 H 0.32225 0.71567 0.21463 0.0
H2219 H 0.25151 0.81004 0.28179 0.0
H2220 H 0.33011 0.86129 0.32812 0.0
H2221 H 0.34057 0.83715 0.31818 0.0
H2222 H 0.28086 0.87424 0.32085 0.0
H2223 H 0.3566 0.75914 0.2507 0.0
H2224 H 0.34519 0.73329 0.23204 0.0
H2225 H 0.30788 0.87492 0.32907 0.0
H2226 H 0.24014 0.83383 0.28929 0.0
N2227 N 0.30352 0.82241 0.30238 0.0
C2228 C 0.32258 0.85051 0.32095 0.0
C2229 C 0.32849 0.83691 0.31542 0.0
C2230 C 0.30712 0.85021 0.31681 0.0
C2231 C 0.29777 0.83589 0.30732 0.0
C2232 C 0.31885 0.823 0.30615 0.0
N2233 N 0.27412 0.82206 0.29266 0.0
C2234 C 0.28266 0.83568 0.30234 0.0
C2235 C 0.25217 0.83463 0.29288 0.0
C2236 C 0.261 0.84889 0.30225 0.0
C2237 C 0.25883 0.82123 0.28842 0.0
C2238 C 0.27637 0.84954 0.3072 0.0
H2239 H 0.25578 0.85923 0.3058 0.0
O2240 O 0.26336 0.79268 0.29774 0.0
O2241 O 0.29062 0.77784 0.27236 0.0
O2242 O 0.28151 0.78899 0.2441 0.0
O2243 O 0.27206 0.8031 0.26615 0.0
O2244 O 0.26854 0.77429 0.27926 0.0
O2245 O 0.28456 0.79496 0.31266 0.0
O2246 O 0.32412 0.79487 0.24194 0.0
O2247 O 0.29897 0.80426 0.26817 0.0
O2248 O 0.30592 0.78882 0.29717 0.0
O2249 O 0.31802 0.77938 0.27451 0.0
O2250 O 0.32194 0.80583 0.26342 0.0
O2251 O 0.30107 0.79005 0.2296 0.0
C2252 C 0.27822 0.76755 0.27138 0.0
C2253 C 0.28553 0.86356 0.31696 0.0
C2254 C 0.30088 0.86392 0.32169 0.0
C2255 C 0.26942 0.79086 0.31132 0.0
C2256 C 0.26189 0.77599 0.31688 0.0
C2257 C 0.24575 0.77035 0.31426 0.0
C2258 C 0.27058 0.76758 0.32513 0.0
C2259 C 0.26327 0.75373 0.33084 0.0
C2260 C 0.23847 0.75629 0.31964 0.0
C2261 C 0.24719 0.74798 0.32793 0.0
C2262 C 0.2714 0.7972 0.25059 0.0
C2263 C 0.31212 0.81359 0.26981 0.0
C2264 C 0.31587 0.79563 0.2292 0.0
C2265 C 0.32236 0.79217 0.21404 0.0
C2266 C 0.33233 0.78137 0.21108 0.0
C2267 C 0.31949 0.80143 0.2028 0.0
C2268 C 0.32672 0.80046 0.18868 0.0
C2269 C 0.33955 0.78025 0.19682 0.0
C2270 C 0.33691 0.78993 0.18566 0.0
C2271 C 0.31714 0.78254 0.29024 0.0
H2272 H 0.23876 0.77684 0.30811 0.0
H2273 H 0.28299 0.77199 0.32753 0.0
H2274 H 0.22605 0.75206 0.31769 0.0
H2275 H 0.24131 0.73749 0.33265 0.0
H2276 H 0.33476 0.77416 0.2198 0.0
H2277 H 0.31201 0.81 0.20534 0.0
H2278 H 0.34736 0.77208 0.19453 0.0
H2279 H 0.34268 0.78917 0.17474 0.0
Gd2280 Gd 0.52638 0.03763 0.52371 0.0
Gd2281 Gd 0.56602 0.04212 0.51063 0.0
C2282 C 0.59639 0.09293 0.51207 0.0
C2283 C 0.59891 0.09333 0.48386 0.0
C2284 C 0.58429 0.06908 0.49227 0.0
C2285 C 0.5873 0.07684 0.50806 0.0
C2286 C 0.59037 0.07707 0.48 0.0
C2287 C 0.60189 0.10126 0.49987 0.0
C2288 C 0.59999 0.10002 0.52823 0.0
C2289 C 0.5949 0.09094 0.5399 0.0
N2290 N 0.58187 0.06841 0.51954 0.0
C2291 C 0.58597 0.075 0.53533 0.0
H2292 H 0.58209 0.06826 0.54454 0.0
C2293 C 0.57424 0.04455 0.47377 0.0
N2294 N 0.57595 0.05341 0.48895 0.0
C2295 C 0.58007 0.05195 0.46119 0.0
C2296 C 0.58798 0.06835 0.46428 0.0
H2297 H 0.56803 0.0319 0.47135 0.0
H2298 H 0.60874 0.11369 0.50271 0.0
H2299 H 0.51038 0.01139 0.48986 0.0
H2300 H 0.60697 0.11233 0.5318 0.0
H2301 H 0.59782 0.09621 0.55243 0.0
H2302 H 0.60354 0.09976 0.47459 0.0
H2303 H 0.5238 0.04819 0.56286 0.0
H2304 H 0.48511 0.96754 0.50271 0.0
H2305 H 0.4945 0.98348 0.48203 0.0
H2306 H 0.48818 0.98044 0.55988 0.0
H2307 H 0.57841 0.04502 0.44911 0.0
H2308 H 0.59248 0.07406 0.45452 0.0
H2309 H 0.48317 0.96634 0.53181 0.0
H2310 H 0.51309 0.03533 0.58509 0.0
N2311 N 0.51056 0.0113 0.51488 0.0
C2312 C 0.49221 0.97979 0.50626 0.0
C2313 C 0.49742 0.98878 0.49456 0.0
C2314 C 0.4958 0.98693 0.5224 0.0
C2315 C 0.505 1.00297 0.52638 0.0
C2316 C 0.50645 0.00467 0.4991 0.0
N2317 N 0.51618 0.02652 0.54539 0.0
C2318 C 0.50788 0.01084 0.54214 0.0
C2319 C 0.51162 0.02827 0.57308 0.0
C2320 C 0.50374 0.01186 0.57007 0.0
C2321 C 0.51764 0.03552 0.56049 0.0
C2322 C 0.50158 1.00299 0.55441 0.0
H2323 H 0.49907 0.00628 0.57983 0.0
O2324 O 0.51561 0.05777 0.53217 0.0
O2325 O 0.54792 0.05477 0.51999 0.0
O2326 O 0.56511 0.04189 0.53704 0.0
O2327 O 0.54025 0.02866 0.54143 0.0
O2328 O 0.5379 0.06095 0.54073 0.0
O2329 O 0.50507 0.03994 0.51133 0.0
O2330 O 0.57703 0.02232 0.50163 0.0
O2331 O 0.54456 0.02501 0.51453 0.0
O2332 O 0.52747 0.0377 0.49727 0.0
O2333 O 0.55214 0.05169 0.49338 0.0
O2334 O 0.55442 0.01866 0.49375 0.0
O2335 O 0.58733 0.03966 0.52291 0.0
C2336 C 0.54892 0.06585 0.53215 0.0
C2337 C 0.49298 0.98676 0.5506 0.0
C2338 C 0.49012 0.97873 0.53462 0.0
C2339 C 0.50399 0.05301 0.52132 0.0
C2340 C 0.48875 0.05376 0.52708 0.0
C2341 C 0.48278 0.04425 0.53823 0.0
C2342 C 0.48066 0.06504 0.52237 0.0
C2343 C 0.46684 0.06708 0.52908 0.0
C2344 C 0.46907 0.04616 0.54484 0.0
C2345 C 0.46119 0.05753 0.54039 0.0
C2346 C 0.55519 0.03393 0.54567 0.0
C2347 C 0.5435 0.01383 0.50246 0.0
C2348 C 0.58857 0.02688 0.51259 0.0
C2349 C 0.60391 0.02641 0.50692 0.0
C2350 C 0.60974 0.03591 0.49571 0.0
C2351 C 0.61227 0.01541 0.51179 0.0
C2352 C 0.62622 0.01364 0.5052 0.0
C2353 C 0.62357 0.03428 0.48921 0.0
C2354 C 0.63171 0.02318 0.49382 0.0
C2355 C 0.53719 0.04652 0.48913 0.0
H2356 H 0.48879 0.03553 0.54199 0.0
H2357 H 0.48534 0.07254 0.51388 0.0
H2358 H 0.46458 0.03886 0.55353 0.0
H2359 H 0.45055 0.05873 0.54568 0.0
H2360 H 0.60352 0.04441 0.4918 0.0
H2361 H 0.60771 0.00792 0.52033 0.0
H2362 H 0.62795 0.04157 0.48048 0.0
H2363 H 0.64243 0.02219 0.48862 0.0
Gd2364 Gd 0.31507 0.28453 0.76868 0.0
Gd2365 Gd 0.27615 0.29384 0.76607 0.0
C2366 C 0.25401 0.29064 0.71552 0.0
C2367 C 0.25238 0.3188 0.71549 0.0
C2368 C 0.2627 0.31114 0.73936 0.0
C2369 C 0.26067 0.29523 0.73147 0.0
C2370 C 0.25807 0.32302 0.73167 0.0
C2371 C 0.25038 0.30261 0.70741 0.0
C2372 C 0.25052 0.27405 0.70849 0.0
C2373 C 0.25294 0.26249 0.7176 0.0
N2374 N 0.26395 0.28398 0.73984 0.0
C2375 C 0.25945 0.26768 0.73338 0.0
H2376 H 0.26131 0.25856 0.74006 0.0
C2377 C 0.26739 0.32938 0.76414 0.0
N2378 N 0.26791 0.31464 0.75503 0.0
C2379 C 0.26306 0.34165 0.75704 0.0
C2380 C 0.25864 0.33855 0.74067 0.0
H2381 H 0.27088 0.33182 0.7768 0.0
H2382 H 0.24545 0.29936 0.6951 0.0
H2383 H 0.32947 0.32221 0.79151 0.0
H2384 H 0.24543 0.27001 0.69627 0.0
H2385 H 0.24987 0.24957 0.71246 0.0
H2386 H 0.24895 0.3278 0.7093 0.0
H2387 H 0.31842 0.24543 0.76235 0.0
H2388 H 0.34739 0.31572 0.83668 0.0
H2389 H 0.34163 0.33385 0.81846 0.0
H2390 H 0.34379 0.25795 0.82984 0.0
H2391 H 0.26312 0.35346 0.76421 0.0
H2392 H 0.25516 0.34801 0.73521 0.0
H2393 H 0.34792 0.28735 0.84089 0.0
H2394 H 0.32632 0.2258 0.77775 0.0
N2395 N 0.32787 0.29732 0.79405 0.0
C2396 C 0.34204 0.31044 0.82473 0.0
C2397 C 0.33885 0.32071 0.81447 0.0
C2398 C 0.33873 0.29351 0.81927 0.0
C2399 C 0.33167 0.28724 0.80361 0.0
C2400 C 0.33191 0.31395 0.79905 0.0
N2401 N 0.32306 0.26521 0.78214 0.0
C2402 C 0.3292 0.27068 0.79747 0.0
C2403 C 0.32706 0.23835 0.78348 0.0
C2404 C 0.3325 0.24356 0.79957 0.0
C2405 C 0.32262 0.24946 0.77482 0.0
C2406 C 0.3339 0.25996 0.80669 0.0
H2407 H 0.33601 0.23496 0.80625 0.0
O2408 O 0.3276 0.27534 0.74901 0.0
O2409 O 0.29584 0.28785 0.75266 0.0
O2410 O 0.27418 0.26611 0.76583 0.0
O2411 O 0.29815 0.26214 0.7748 0.0
O2412 O 0.30438 0.26683 0.74656 0.0
O2413 O 0.33864 0.29723 0.76527 0.0
O2414 O 0.26263 0.30129 0.78565 0.0
O2415 O 0.29546 0.29062 0.78206 0.0
O2416 O 0.31724 0.31161 0.76596 0.0
O2417 O 0.29277 0.3174 0.76234 0.0
O2418 O 0.28631 0.31104 0.78871 0.0
O2419 O 0.25354 0.27898 0.76918 0.0
C2420 C 0.29508 0.27531 0.74196 0.0
C2421 C 0.34028 0.26603 0.82251 0.0
C2422 C 0.34265 0.28277 0.8288 0.0
C2423 C 0.34009 0.28683 0.75262 0.0
C2424 C 0.35508 0.28148 0.75116 0.0
C2425 C 0.35763 0.26901 0.75909 0.0
C2426 C 0.36643 0.28783 0.74114 0.0
C2427 C 0.38006 0.2815 0.73917 0.0
C2428 C 0.37055 0.26235 0.75674 0.0
C2429 C 0.38149 0.26835 0.74682 0.0
C2430 C 0.28301 0.25666 0.77079 0.0
C2431 C 0.29602 0.30291 0.793 0.0
C2432 C 0.25094 0.28895 0.7816 0.0
C2433 C 0.23531 0.29278 0.78189 0.0
C2434 C 0.23029 0.30053 0.77001 0.0
C2435 C 0.22552 0.28928 0.79422 0.0
C2436 C 0.21102 0.29392 0.7947 0.0
C2437 C 0.21606 0.30498 0.77035 0.0
C2438 C 0.20657 0.30179 0.78254 0.0
C2439 C 0.30816 0.32184 0.76357 0.0
H2440 H 0.34947 0.26414 0.76693 0.0
H2441 H 0.36471 0.29763 0.73509 0.0
H2442 H 0.37207 0.25239 0.76263 0.0
H2443 H 0.39117 0.26252 0.74514 0.0
H2444 H 0.23742 0.30322 0.76045 0.0
H2445 H 0.22929 0.28334 0.80351 0.0
H2446 H 0.21236 0.311 0.76111 0.0
H2447 H 0.19556 0.30535 0.78233 0.0
Gd2448 Gd 0.04955 0.01935 0.50899 0.0
Gd2449 Gd 0.04274 0.0583 0.52596 0.0
C2450 C 0.05463 0.07938 0.57921 0.0
C2451 C 0.02979 0.08339 0.58772 0.0
C2452 C 0.03214 0.07191 0.56003 0.0
C2453 C 0.04771 0.07292 0.56354 0.0
C2454 C 0.02308 0.07751 0.57199 0.0
C2455 C 0.04553 0.08428 0.59133 0.0
C2456 C 0.07059 0.08126 0.58214 0.0
C2457 C 0.07932 0.07733 0.5695 0.0
N2458 N 0.05626 0.06852 0.55146 0.0
C2459 C 0.07199 0.07123 0.55414 0.0
H2460 H 0.07905 0.06835 0.54462 0.0
C2461 C 0.01131 0.0673 0.54024 0.0
N2462 N 0.02606 0.06644 0.54468 0.0
C2463 C 1.00184 0.07265 0.55168 0.0
C2464 C 0.0077 0.07759 0.56767 0.0
H2465 H 0.00677 0.06356 0.52785 0.0
H2466 H 0.05064 0.0892 0.60343 0.0
H2467 H 0.01405 0.00928 0.48859 0.0
H2468 H 0.07633 0.08613 0.59401 0.0
H2469 H 0.09172 0.07905 0.57156 0.0
H2470 H 0.023 0.08765 0.59709 0.0
H2471 H 0.08517 0.01272 0.50895 0.0
H2472 H 0.01909 0.99284 0.43945 0.0
H2473 H 1.0026 0.99925 0.46111 0.0
H2474 H 0.07253 0.99104 0.43906 0.0
H2475 H 0.99007 0.073 0.54816 0.0
H2476 H 1.00039 0.08184 0.5765 0.0
H2477 H 0.04524 0.98993 0.43132 0.0
H2478 H 0.10281 0.00364 0.48957 0.0
N2479 N 0.03724 0.00959 0.48286 0.0
C2480 C 0.02429 0.99747 0.45157 0.0
C2481 C 0.01495 1.00101 0.46375 0.0
C2482 C 0.04014 0.9993 0.45527 0.0
C2483 C 0.04635 0.00542 0.47124 0.0
C2484 C 0.02159 0.00677 0.47943 0.0
N2485 N 0.06696 0.01101 0.49118 0.0
C2486 C 0.06169 0.00611 0.47555 0.0
C2487 C 0.09132 0.00439 0.48544 0.0
C2488 C 0.08634 1.0001 0.46919 0.0
C2489 C 0.08132 0.00956 0.49637 0.0
C2490 C 0.07127 1.00062 0.46408 0.0
H2491 H 0.09404 0.99593 0.46076 0.0
O2492 O 0.0571 1.0024 0.52234 0.0
O2493 O 0.04945 0.03605 0.53255 0.0
O2494 O 0.06723 0.06113 0.51832 0.0
O2495 O 0.06971 0.0371 0.50192 0.0
O2496 O 0.0689 0.02683 0.52871 0.0
O2497 O 0.0355 0.99471 0.50755 0.0
O2498 O 0.03345 0.07508 0.51386 0.0
O2499 O 0.04292 0.0417 0.50243 0.0
O2500 O 0.02466 0.01719 0.51532 0.0
O2501 O 0.0234 0.04015 0.53386 0.0
O2502 O 0.02334 0.05071 0.50624 0.0
O2503 O 0.05632 0.08294 0.52637 0.0
C2504 C 0.06232 0.03506 0.53937 0.0
C2505 C 0.06533 0.99521 0.44805 0.0
C2506 C 0.0498 0.99458 0.44365 0.0
C2507 C 0.04517 0.9906 0.51722 0.0
C2508 C 0.04829 0.9742 0.51331 0.0
C2509 C 0.05654 0.9698 0.5003 0.0
C2510 C 0.04376 0.96314 0.52359 0.0
C2511 C 0.04755 0.9477 0.52107 0.0
C2512 C 0.06041 0.95452 0.49772 0.0
C2513 C 0.05601 0.94354 0.50804 0.0
C2514 C 0.07498 0.05272 0.50844 0.0
C2515 C 0.03006 0.04267 0.49557 0.0
C2516 C 0.04563 0.08689 0.51779 0.0
C2517 C 0.0428 0.10336 0.52198 0.0
C2518 C 0.03531 0.10805 0.53552 0.0
C2519 C 0.04664 0.11415 0.51133 0.0
C2520 C 0.04289 0.12957 0.51396 0.0
C2521 C 0.03153 0.12338 0.53823 0.0
C2522 C 0.03522 0.13408 0.52749 0.0
C2523 C 0.01743 0.02502 0.52627 0.0
H2524 H 0.06012 0.97817 0.49225 0.0
H2525 H 0.03726 0.9666 0.53355 0.0
H2526 H 0.06695 0.95122 0.48777 0.0
H2527 H 0.05938 0.93189 0.50592 0.0
H2528 H 0.03223 0.09984 0.54383 0.0
H2529 H 0.0522 0.11034 0.50072 0.0
H2530 H 0.02567 0.12696 0.54864 0.0
H2531 H 0.03225 0.14594 0.52985 0.0
Gd2532 Gd 0.27849 0.77555 0.77002 0.0
Gd2533 Gd 0.31328 0.80328 0.76617 0.0
C2534 C 0.31427 0.8556 0.75928 0.0
C2535 C 0.32319 0.8554 0.73275 0.0
C2536 C 0.31996 0.83086 0.74451 0.0
C2537 C 0.315 0.83901 0.75807 0.0
C2538 C 0.3244 0.83905 0.73183 0.0
C2539 C 0.31812 0.86365 0.74644 0.0
C2540 C 0.31005 0.86373 0.7735 0.0
C2541 C 0.3071 0.85546 0.78622 0.0
N2542 N 0.31156 0.83095 0.77035 0.0
C2543 C 0.30809 0.83906 0.78451 0.0
H2544 H 0.30579 0.8329 0.79449 0.0
C2545 C 0.32781 0.80727 0.73184 0.0
N2546 N 0.32123 0.81515 0.7441 0.0
C2547 C 0.3322 0.81481 0.7189 0.0
C2548 C 0.33034 0.83072 0.71881 0.0
H2549 H 0.32939 0.79502 0.73192 0.0
H2550 H 0.31753 0.87636 0.74712 0.0
H2551 H 0.28733 0.74562 0.74297 0.0
H2552 H 0.30936 0.87647 0.77489 0.0
H2553 H 0.30406 0.8617 0.79737 0.0
H2554 H 0.32646 0.86187 0.72309 0.0
H2555 H 0.26024 0.78421 0.8027 0.0
H2556 H 0.27951 0.70157 0.76203 0.0
H2557 H 0.28761 0.71651 0.74027 0.0
H2558 H 0.25854 0.71644 0.81166 0.0
H2559 H 0.33708 0.80838 0.70904 0.0
H2560 H 0.33387 0.83659 0.70883 0.0
H2561 H 0.26886 0.70171 0.78875 0.0
H2562 H 0.24939 0.77065 0.82432 0.0
N2563 N 0.27963 0.74768 0.76642 0.0
C2564 C 0.27947 0.71447 0.76338 0.0
C2565 C 0.28402 0.72285 0.75106 0.0
C2566 C 0.27453 0.72273 0.7771 0.0
C2567 C 0.27471 0.73955 0.77828 0.0
C2568 C 0.28386 0.73947 0.7527 0.0
N2569 N 0.26851 0.76373 0.79143 0.0
C2570 C 0.269 0.74784 0.79121 0.0
C2571 C 0.25496 0.76412 0.81514 0.0
C2572 C 0.25597 0.748 0.81546 0.0
C2573 C 0.26115 0.77178 0.80286 0.0
C2574 C 0.26282 0.73956 0.80327 0.0
H2575 H 0.25107 0.74206 0.82493 0.0
O2576 O 0.25521 0.77943 0.7684 0.0
O2577 O 0.28766 0.80125 0.76569 0.0
O2578 O 0.3074 0.80471 0.79174 0.0
O2579 O 0.29179 0.77977 0.79392 0.0
O2580 O 0.27214 0.79898 0.78243 0.0
O2581 O 0.26185 0.76119 0.75071 0.0
O2582 O 0.33673 0.79997 0.76602 0.0
O2583 O 0.30431 0.77758 0.77076 0.0
O2584 O 0.28547 0.77334 0.74476 0.0
O2585 O 0.29923 0.79909 0.74292 0.0
O2586 O 0.31979 0.77998 0.75393 0.0
O2587 O 0.33078 0.8181 0.78443 0.0
C2588 C 0.27979 0.80942 0.77476 0.0
C2589 C 0.26315 0.72299 0.80247 0.0
C2590 C 0.26901 0.7146 0.78941 0.0
C2591 C 0.25071 0.76787 0.75598 0.0
C2592 C 0.23577 0.75697 0.75654 0.0
C2593 C 0.23429 0.74323 0.76393 0.0
C2594 C 0.22264 0.76092 0.75003 0.0
C2595 C 0.20798 0.75121 0.75079 0.0
C2596 C 0.21968 0.73357 0.76484 0.0
C2597 C 0.20654 0.7375 0.75826 0.0
C2598 C 0.3019 0.79339 0.80013 0.0
C2599 C 0.31242 0.76953 0.7618 0.0
C2600 C 0.34168 0.81148 0.77842 0.0
C2601 C 0.35649 0.82234 0.7774 0.0
C2602 C 0.3581 0.8343 0.76773 0.0
C2603 C 0.36947 0.81979 0.78561 0.0
C2604 C 0.38417 0.82905 0.78419 0.0
C2605 C 0.37274 0.84368 0.76636 0.0
C2606 C 0.38575 0.8411 0.77456 0.0
C2607 C 0.29044 0.78484 0.73648 0.0
H2608 H 0.24432 0.73999 0.76897 0.0
H2609 H 0.22385 0.77154 0.74428 0.0
H2610 H 0.21853 0.72306 0.77066 0.0
H2611 H 0.19527 0.72995 0.75915 0.0
H2612 H 0.34817 0.83628 0.76119 0.0
H2613 H 0.36814 0.81044 0.793 0.0
H2614 H 0.37401 0.85282 0.75878 0.0
H2615 H 0.39706 0.84824 0.77311 0.0
Gd2616 Gd 0.54146 0.045 0.99723 0.0
Gd2617 Gd 0.55069 0.03556 0.03779 0.0
C2618 C 0.59702 0.05682 0.06825 0.0
C2619 C 0.60987 0.03415 0.06386 0.0
C2620 C 0.58373 0.03112 0.05183 0.0
C2621 C 0.58395 0.04713 0.05841 0.0
C2622 C 0.5964 0.02419 0.05522 0.0
C2623 C 0.6102 0.05049 0.07032 0.0
C2624 C 0.59614 0.07222 0.0765 0.0
C2625 C 0.58208 0.07697 0.07596 0.0
N2626 N 0.57081 0.05266 0.05659 0.0
C2627 C 0.56937 0.06673 0.06641 0.0
H2628 H 0.55842 0.07025 0.06702 0.0
C2629 C 0.56851 0.00513 0.04056 0.0
N2630 N 0.57056 0.02186 0.04348 0.0
C2631 C 0.58063 0.99767 0.04378 0.0
C2632 C 0.59484 0.00731 0.05065 0.0
H2633 H 0.5576 0.99738 0.03521 0.0
H2634 H 0.6204 0.05785 0.07759 0.0
H2635 H 0.52576 0.00316 0.99138 0.0
H2636 H 0.60591 0.08004 0.08411 0.0
H2637 H 0.58092 0.08837 0.08313 0.0
H2638 H 0.61982 0.02913 0.06626 0.0
H2639 H 0.53262 0.08192 0.99792 0.0
H2640 H 0.48303 0.99347 0.96319 0.0
H2641 H 0.50371 0.98372 0.97642 0.0
H2642 H 0.47378 0.04652 0.96168 0.0
H2643 H 0.57902 0.98449 0.04086 0.0
H2644 H 0.60424 1.00152 0.05312 0.0
H2645 H 0.47197 0.01687 0.95787 0.0
H2646 H 0.51172 0.0933 0.98805 0.0
N2647 N 0.51932 0.02446 0.98535 0.0
C2648 C 0.4931 1.00224 0.96935 0.0
C2649 C 0.50478 0.9967 0.97671 0.0
C2650 C 0.49422 0.01905 0.97066 0.0
C2651 C 0.50755 0.03001 0.97895 0.0
C2652 C 0.51769 0.00797 0.98487 0.0
N2653 N 0.52076 0.05693 0.99042 0.0
C2654 C 0.50832 0.04671 0.98153 0.0
C2655 C 0.51046 0.08015 0.98634 0.0
C2656 C 0.49731 0.06976 0.9779 0.0
C2657 C 0.52221 0.07354 0.99225 0.0
C2658 C 0.49614 0.05285 0.97528 0.0
H2659 H 0.48824 0.07492 0.97324 0.0
O2660 O 0.5529 0.06712 0.98944 0.0
O2661 O 0.55748 0.04876 0.01867 0.0
O2662 O 0.55165 0.06258 0.03959 0.0
O2663 O 0.53697 0.06466 0.01678 0.0
O2664 O 0.56751 0.04782 0.99731 0.0
O2665 O 0.54499 0.04368 0.97219 0.0
O2666 O 0.53746 0.0131 0.04373 0.0
O2667 O 0.53391 0.03167 0.01644 0.0
O2668 O 0.54922 0.02163 0.99178 0.0
O2669 O 0.55621 0.01694 0.01743 0.0
O2670 O 0.52635 0.03869 0.03892 0.0
O2671 O 0.53981 0.03663 0.05979 0.0
C2672 C 0.56995 0.05001 0.01259 0.0
C2673 C 0.48318 0.04199 0.96658 0.0
C2674 C 0.48219 0.02513 0.96434 0.0
C2675 C 0.55134 0.05939 0.97463 0.0
C2676 C 0.557 0.06758 0.96171 0.0
C2677 C 0.55686 0.0841 0.96191 0.0
C2678 C 0.5627 0.05869 0.94903 0.0
C2679 C 0.56841 0.06615 0.93653 0.0
C2680 C 0.56229 0.09155 0.94923 0.0
C2681 C 0.56804 0.08259 0.9365 0.0
C2682 C 0.54325 0.07028 0.0316 0.0
C2683 C 0.52266 0.03462 0.0238 0.0
C2684 C 0.53448 0.0208 0.05743 0.0
C2685 C 0.53534 0.01329 0.07155 0.0
C2686 C 0.5435 1.00102 0.07278 0.0
C2687 C 0.52729 0.01875 0.08421 0.0
C2688 C 0.52714 0.0121 0.0981 0.0
C2689 C 0.54369 0.99454 0.08682 0.0
C2690 C 0.53556 1.00008 0.0995 0.0
C2691 C 0.55474 0.01321 0.00153 0.0
H2692 H 0.55247 0.09115 0.97175 0.0
H2693 H 0.56291 0.04595 0.94897 0.0
H2694 H 0.56216 0.10427 0.94932 0.0
H2695 H 0.57252 0.08856 0.92689 0.0
H2696 H 0.54961 0.99639 0.06302 0.0
H2697 H 0.52103 0.02828 0.0832 0.0
H2698 H 0.55 0.9851 0.0878 0.0
H2699 H 0.53555 0.99473 0.11018 0.0
Gd2700 Gd 0.28355 0.27001 0.25984 0.0
Gd2701 Gd 0.30915 0.31029 0.27596 0.0
C2702 C 0.35798 0.32263 0.25934 0.0
C2703 C 0.37401 0.32838 0.28436 0.0
C2704 C 0.34612 0.31838 0.2837 0.0
C2705 C 0.34465 0.31841 0.26751 0.0
C2706 C 0.36087 0.32339 0.29231 0.0
C2707 C 0.37258 0.32791 0.26789 0.0
C2708 C 0.35635 0.32101 0.24275 0.0
C2709 C 0.34184 0.31459 0.23462 0.0
N2710 N 0.33033 0.3134 0.25959 0.0
C2711 C 0.32901 0.31057 0.24319 0.0
H2712 H 0.31834 0.30442 0.23635 0.0
C2713 C 0.33442 0.3139 0.30727 0.0
N2714 N 0.33321 0.31335 0.29104 0.0
C2715 C 0.34874 0.31864 0.31621 0.0
C2716 C 0.36204 0.32342 0.30871 0.0
H2717 H 0.32437 0.31146 0.31379 0.0
H2718 H 0.38286 0.33142 0.26183 0.0
H2719 H 0.27395 0.27741 0.29935 0.0
H2720 H 0.3663 0.32403 0.23607 0.0
H2721 H 0.34053 0.31242 0.22169 0.0
H2722 H 0.38536 0.33242 0.29082 0.0
H2723 H 0.26844 0.26578 0.22191 0.0
H2724 H 0.22656 0.25554 0.29999 0.0
H2725 H 0.25198 0.26933 0.31422 0.0
H2726 H 0.20772 0.24289 0.24491 0.0
H2727 H 0.34943 0.31903 0.32899 0.0
H2728 H 0.37312 0.3273 0.31571 0.0
H2729 H 0.2102 0.24574 0.27414 0.0
H2730 H 0.24345 0.25579 0.20633 0.0
N2731 N 0.26236 0.2664 0.27626 0.0
C2732 C 0.23646 0.25859 0.29324 0.0
C2733 C 0.25078 0.26626 0.3013 0.0
C2734 C 0.2349 0.25579 0.27658 0.0
C2735 C 0.24815 0.26013 0.26834 0.0
C2736 C 0.26353 0.27036 0.29264 0.0
N2737 N 0.25939 0.26441 0.24457 0.0
C2738 C 0.24664 0.25909 0.25199 0.0
C2739 C 0.2441 0.25685 0.21919 0.0
C2740 C 0.23087 0.25187 0.22676 0.0
C2741 C 0.2583 0.26283 0.22825 0.0
C2742 C 0.23201 0.25289 0.24332 0.0
H2743 H 0.21988 0.2471 0.2197 0.0
O2744 O 0.2883 0.25739 0.23705 0.0
O2745 O 0.30671 0.28637 0.26041 0.0
O2746 O 0.3 0.3135 0.25187 0.0
O2747 O 0.28284 0.288 0.24254 0.0
O2748 O 0.306 0.26261 0.26419 0.0
O2749 O 0.27736 0.24345 0.25438 0.0
O2750 O 0.30702 0.3242 0.299 0.0
O2751 O 0.28604 0.29402 0.2752 0.0
O2752 O 0.29233 0.26641 0.28394 0.0
O2753 O 0.30742 0.29285 0.29387 0.0
O2754 O 0.28666 0.31814 0.27307 0.0
O2755 O 0.31538 0.33691 0.27988 0.0
C2756 C 0.31478 0.27644 0.26311 0.0
C2757 C 0.21898 0.2478 0.25139 0.0
C2758 C 0.22041 0.24933 0.268 0.0
C2759 C 0.28269 0.24293 0.24027 0.0
C2760 C 0.29101 0.23019 0.23462 0.0
C2761 C 0.29022 0.2244 0.21812 0.0
C2762 C 0.29942 0.22357 0.24517 0.0
C2763 C 0.30689 0.21104 0.23924 0.0
C2764 C 0.2977 0.21208 0.21217 0.0
C2765 C 0.30597 0.20538 0.22264 0.0
C2766 C 0.28974 0.30314 0.24098 0.0
C2767 C 0.27788 0.30408 0.27331 0.0
C2768 C 0.31139 0.33829 0.29457 0.0
C2769 C 0.30232 0.35042 0.30021 0.0
C2770 C 0.3008 0.3542 0.31667 0.0
C2771 C 0.29514 0.35815 0.28966 0.0
C2772 C 0.28643 0.36953 0.29554 0.0
C2773 C 0.2921 0.36543 0.32252 0.0
C2774 C 0.28491 0.37306 0.31202 0.0
C2775 C 0.30144 0.27748 0.29526 0.0
H2776 H 0.28371 0.22937 0.20983 0.0
H2777 H 0.3001 0.2281 0.25792 0.0
H2778 H 0.29694 0.20756 0.19943 0.0
H2779 H 0.31131 0.19548 0.21776 0.0
H2780 H 0.30633 0.34841 0.32501 0.0
H2781 H 0.2962 0.35528 0.27693 0.0
H2782 H 0.291 0.3683 0.33522 0.0
H2783 H 0.27844 0.38199 0.31683 0.0
Gd2784 Gd 0.54959 0.52016 0.01037 0.0
Gd2785 Gd 0.54248 0.5592 0.02595 0.0
C2786 C 0.55454 0.57965 0.07939 0.0
C2787 C 0.5296 0.58275 0.08828 0.0
C2788 C 0.53197 0.5723 0.06032 0.0
C2789 C 0.54758 0.5735 0.06368 0.0
C2790 C 0.52288 0.57733 0.07251 0.0
C2791 C 0.5454 0.58387 0.09172 0.0
C2792 C 0.57056 0.58197 0.08216 0.0
C2793 C 0.57931 0.57885 0.06934 0.0
N2794 N 0.55615 0.5697 0.05142 0.0
C2795 C 0.57193 0.57296 0.05397 0.0
H2796 H 0.57906 0.57062 0.04438 0.0
C2797 C 0.51104 0.56813 0.04073 0.0
N2798 N 0.52587 0.56725 0.04495 0.0
C2799 C 0.50154 0.57288 0.0524 0.0
C2800 C 0.50743 0.57731 0.0684 0.0
H2801 H 0.50647 0.56472 0.02834 0.0
H2802 H 0.55052 0.58849 0.10386 0.0
H2803 H 0.51319 0.51167 0.99161 0.0
H2804 H 0.57632 0.58663 0.09405 0.0
H2805 H 0.59175 0.58096 0.07127 0.0
H2806 H 0.52277 0.58653 0.09782 0.0
H2807 H 0.58561 0.51526 0.00834 0.0
H2808 H 0.51413 0.48608 0.94435 0.0
H2809 H 0.49976 0.49775 0.96579 0.0
H2810 H 0.56694 0.48241 0.94136 0.0
H2811 H 0.48972 0.57318 0.04904 0.0
H2812 H 0.50008 0.58112 0.07741 0.0
H2813 H 0.5392 0.48052 0.93533 0.0
H2814 H 0.60166 0.50352 0.98863 0.0
N2815 N 0.53553 0.50849 0.9853 0.0
C2816 C 0.52023 0.4923 0.95576 0.0
C2817 C 0.51209 0.49884 0.96783 0.0
C2818 C 0.53612 0.49368 0.95862 0.0
C2819 C 0.54354 0.50192 0.9737 0.0
C2820 C 0.51988 0.50677 0.9826 0.0
N2821 N 0.56579 0.51056 0.9918 0.0
C2822 C 0.55917 0.50315 0.977 0.0
C2823 C 0.58977 0.50346 0.98514 0.0
C2824 C 0.58332 0.49643 0.96964 0.0
C2825 C 0.58069 0.51019 0.99622 0.0
C2826 C 0.56778 0.49594 0.96547 0.0
H2827 H 0.59031 0.49102 0.96112 0.0
O2828 O 0.5595 0.50409 0.02293 0.0
O2829 O 0.54894 0.53725 0.03348 0.0
O2830 O 0.56704 0.562 0.01859 0.0
O2831 O 0.5696 0.53778 0.00271 0.0
O2832 O 0.56881 0.52862 0.03026 0.0
O2833 O 0.53609 0.49593 0.01186 0.0
O2834 O 0.53253 0.57594 0.01442 0.0
O2835 O 0.54338 0.5424 0.00256 0.0
O2836 O 0.52492 0.51706 0.01752 0.0
O2837 O 0.52235 0.54149 0.03299 0.0
O2838 O 0.5235 0.5507 0.00598 0.0
O2839 O 0.55602 0.58362 0.02526 0.0
C2840 C 0.56179 0.53667 0.0406 0.0
C2841 C 0.56051 0.488 0.95037 0.0
C2842 C 0.54471 0.48688 0.94695 0.0
C2843 C 0.54722 0.49229 0.02007 0.0
C2844 C 0.54987 0.47567 0.01619 0.0
C2845 C 0.55823 0.47101 0.00331 0.0
C2846 C 0.5451 0.46473 0.02653 0.0
C2847 C 0.54906 0.44942 0.02432 0.0
C2848 C 0.56213 0.45575 0.00105 0.0
C2849 C 0.55771 0.44504 0.01159 0.0
C2850 C 0.57494 0.55346 0.00903 0.0
C2851 C 0.53069 0.54335 0.99526 0.0
C2852 C 0.54489 0.5876 0.01739 0.0
C2853 C 0.54253 0.60429 0.02165 0.0
C2854 C 0.53385 0.60874 0.03428 0.0
C2855 C 0.54819 0.6156 0.01196 0.0
C2856 C 0.54508 0.63134 0.01465 0.0
C2857 C 0.53072 0.62437 0.03706 0.0
C2858 C 0.53624 0.6356 0.0273 0.0
C2859 C 0.51708 0.52584 0.02686 0.0
H2860 H 0.56193 0.47917 0.99517 0.0
H2861 H 0.53874 0.46833 0.03658 0.0
H2862 H 0.56871 0.45228 0.99119 0.0
H2863 H 0.56087 0.43326 0.0097 0.0
H2864 H 0.52934 0.60015 0.04182 0.0
H2865 H 0.55496 0.61206 0.00225 0.0
H2866 H 0.52383 0.62772 0.04669 0.0
H2867 H 0.53337 0.64751 0.02949 0.0
Gd2868 Gd 0.77812 0.27543 0.26987 0.0
Gd2869 Gd 0.8131 0.30304 0.26541 0.0
C2870 C 0.81377 0.35499 0.25725 0.0
C2871 C 0.82457 0.35485 0.23159 0.0
C2872 C 0.82078 0.33048 0.24366 0.0
C2873 C 0.81472 0.33851 0.2565 0.0
C2874 C 0.82622 0.33872 0.23131 0.0
C2875 C 0.81833 0.36296 0.24453 0.0
C2876 C 0.80883 0.36318 0.27102 0.0
C2877 C 0.80562 0.35515 0.28386 0.0
N2878 N 0.81083 0.33059 0.26877 0.0
C2879 C 0.80694 0.33888 0.28263 0.0
H2880 H 0.80444 0.33296 0.29274 0.0
C2881 C 0.83073 0.30763 0.23295 0.0
N2882 N 0.82252 0.31504 0.24393 0.0
C2883 C 0.83626 0.31525 0.2204 0.0
C2884 C 0.83377 0.33076 0.21942 0.0
H2885 H 0.8327 0.29564 0.23366 0.0
H2886 H 0.81756 0.37557 0.24484 0.0
H2887 H 0.78564 0.24595 0.2412 0.0
H2888 H 0.80791 0.37582 0.27205 0.0
H2889 H 0.80215 0.36148 0.29473 0.0
H2890 H 0.82855 0.36133 0.22213 0.0
H2891 H 0.75871 0.28119 0.30202 0.0
H2892 H 0.78536 0.20319 0.26135 0.0
H2893 H 0.7888 0.21764 0.23847 0.0
H2894 H 0.76737 0.21666 0.31289 0.0
H2895 H 0.84244 0.30917 0.2115 0.0
H2896 H 0.83815 0.33669 0.20974 0.0
H2897 H 0.77764 0.20305 0.28928 0.0
H2898 H 0.75102 0.26743 0.32471 0.0
N2899 N 0.78095 0.24803 0.26569 0.0
C2900 C 0.78402 0.21572 0.26268 0.0
C2901 C 0.78591 0.22381 0.24973 0.0
C2902 C 0.77976 0.22366 0.27698 0.0
C2903 C 0.7782 0.23999 0.27809 0.0
C2904 C 0.7841 0.23994 0.25137 0.0
N2905 N 0.76995 0.26284 0.29143 0.0
C2906 C 0.77251 0.24765 0.2914 0.0
C2907 C 0.75719 0.26179 0.31551 0.0
C2908 C 0.76073 0.24667 0.31629 0.0
C2909 C 0.76159 0.26957 0.3027 0.0
C2910 C 0.76811 0.23919 0.30392 0.0
H2911 H 0.75717 0.24058 0.32612 0.0
O2912 O 0.75483 0.27926 0.26915 0.0
O2913 O 0.78728 0.30089 0.26485 0.0
O2914 O 0.80753 0.30556 0.29107 0.0
O2915 O 0.79064 0.28161 0.29416 0.0
O2916 O 0.77163 0.29888 0.28171 0.0
O2917 O 0.76041 0.25961 0.25232 0.0
O2918 O 0.83623 0.2987 0.26686 0.0
O2919 O 0.80385 0.27768 0.27048 0.0
O2920 O 0.78339 0.27377 0.24414 0.0
O2921 O 0.80043 0.29768 0.24119 0.0
O2922 O 0.8192 0.27936 0.25335 0.0
O2923 O 0.83051 0.31844 0.28347 0.0
C2924 C 0.77925 0.30911 0.27376 0.0
C2925 C 0.77052 0.22329 0.30331 0.0
C2926 C 0.77636 0.21554 0.28986 0.0
C2927 C 0.74967 0.26691 0.25759 0.0
C2928 C 0.73471 0.2567 0.2594 0.0
C2929 C 0.73274 0.24643 0.27074 0.0
C2930 C 0.7219 0.25868 0.25048 0.0
C2931 C 0.70693 0.2511 0.25325 0.0
C2932 C 0.71789 0.23853 0.27337 0.0
C2933 C 0.70501 0.24094 0.26479 0.0
C2934 C 0.80081 0.29527 0.29991 0.0
C2935 C 0.8116 0.26928 0.26144 0.0
C2936 C 0.84127 0.31099 0.2785 0.0
C2937 C 0.85634 0.32114 0.27696 0.0
C2938 C 0.85809 0.33371 0.26798 0.0
C2939 C 0.86934 0.3175 0.28414 0.0
C2940 C 0.88407 0.32641 0.28247 0.0
C2941 C 0.87286 0.34255 0.26619 0.0
C2942 C 0.88586 0.33896 0.27347 0.0
C2943 C 0.78991 0.28429 0.23538 0.0
H2944 H 0.74254 0.24469 0.27767 0.0
H2945 H 0.72366 0.26649 0.24158 0.0
H2946 H 0.71635 0.23079 0.28231 0.0
H2947 H 0.6936 0.23517 0.26747 0.0
H2948 H 0.84815 0.33666 0.26236 0.0
H2949 H 0.86801 0.30773 0.29103 0.0
H2950 H 0.87423 0.35218 0.25918 0.0
H2951 H 0.89727 0.34589 0.27206 0.0
Gd2952 Gd 0.03935 0.54501 0.49865 0.0
Gd2953 Gd 0.05104 0.53185 0.53614 0.0
C2954 C 0.09606 0.55521 0.56782 0.0
C2955 C 0.10753 0.53177 0.56862 0.0
C2956 C 0.08309 0.52856 0.55295 0.0
C2957 C 0.08345 0.545 0.55773 0.0
C2958 C 0.09507 0.52171 0.55842 0.0
C2959 C 0.10805 0.5485 0.57327 0.0
C2960 C 0.0963 0.57189 0.57206 0.0
C2961 C 0.08419 0.57801 0.56627 0.0
N2962 N 0.07169 0.55109 0.55213 0.0
C2963 C 0.0719 0.56742 0.55638 0.0
H2964 H 0.06281 0.57261 0.55207 0.0
C2965 C 0.06973 0.50272 0.5386 0.0
N2966 N 0.071 0.51922 0.54294 0.0
C2967 C 0.08133 0.49537 0.54366 0.0
C2968 C 0.0941 0.50492 0.55357 0.0
H2969 H 0.05972 0.49525 0.53114 0.0
H2970 H 0.11778 0.55615 0.58108 0.0
H2971 H 0.02625 0.50436 0.48301 0.0
H2972 H 0.1058 0.58014 0.57973 0.0
H2973 H 0.08429 0.59092 0.56943 0.0
H2974 H 0.11683 0.52673 0.57297 0.0
H2975 H 0.03284 0.58229 0.50201 0.0
H2976 H 0.98436 0.49848 0.45394 0.0
H2977 H 0.00483 0.48675 0.46503 0.0
H2978 H 0.97559 0.55283 0.45992 0.0
H2979 H 0.08035 0.48234 0.54001 0.0
H2980 H 0.10304 0.4992 0.55754 0.0
H2981 H 0.97356 0.52318 0.45208 0.0
H2982 H 0.01319 0.59624 0.49277 0.0
N2983 N 0.01842 0.5264 0.48245 0.0
C2984 C 0.99383 0.50641 0.4619 0.0
C2985 C 0.00536 0.49976 0.46812 0.0
C2986 C 0.99462 0.52321 0.46607 0.0
C2987 C 0.00719 0.53299 0.4765 0.0
C2988 C 0.01764 0.50995 0.47835 0.0
N2989 N 0.0203 0.55849 0.49126 0.0
C2990 C 0.00815 0.54956 0.48112 0.0
C2991 C 0.0115 0.58307 0.48956 0.0
C2992 C 0.99856 0.57393 0.47966 0.0
C2993 C 0.02246 0.57514 0.49502 0.0
C2994 C 0.99684 0.55699 0.47514 0.0
H2995 H 0.99015 0.5801 0.4753 0.0
O2996 O 0.05235 0.56424 0.48797 0.0
O2997 O 0.05752 0.54618 0.51747 0.0
O2998 O 0.0401 0.55376 0.54148 0.0
O2999 O 0.027 0.55692 0.51789 0.0
O3000 O 0.05637 0.56796 0.51104 0.0
O3001 O 0.04901 0.53875 0.47616 0.0
O3002 O 0.04041 0.51225 0.54795 0.0
O3003 O 0.03275 0.53063 0.51742 0.0
O3004 O 0.0495 0.52248 0.49333 0.0
O3005 O 0.06378 0.52103 0.51671 0.0
O3006 O 0.03436 0.50881 0.52361 0.0
O3007 O 0.04007 0.53759 0.55778 0.0
C3008 C 0.06461 0.56085 0.51924 0.0
C3009 C 0.98437 0.54735 0.46466 0.0
C3010 C 0.98325 0.53048 0.46016 0.0
C3011 C 0.05449 0.55411 0.47548 0.0
C3012 C 0.05271 0.55906 0.46007 0.0
C3013 C 0.04301 0.56949 0.45703 0.0
C3014 C 0.06222 0.55421 0.44862 0.0
C3015 C 0.06279 0.56021 0.43433 0.0
C3016 C 0.04313 0.57515 0.44255 0.0
C3017 C 0.05306 0.57063 0.43124 0.0
C3018 C 0.03052 0.56028 0.53353 0.0
C3019 C 0.02587 0.51589 0.51565 0.0
C3020 C 0.03683 0.52236 0.55968 0.0
C3021 C 0.04004 0.51965 0.5758 0.0
C3022 C 0.05308 0.51411 0.58049 0.0
C3023 C 0.02961 0.52305 0.5868 0.0
C3024 C 0.03204 0.5212 0.60262 0.0
C3025 C 0.05549 0.51201 0.59627 0.0
C3026 C 0.045 0.51552 0.60735 0.0
C3027 C 0.06014 0.51719 0.50114 0.0
H3028 H 0.03561 0.57347 0.46584 0.0
H3029 H 0.06949 0.54596 0.45107 0.0
H3030 H 0.03576 0.5833 0.44023 0.0
H3031 H 0.05337 0.57554 0.4203 0.0
H3032 H 0.0613 0.5114 0.57207 0.0
H3033 H 0.01945 0.5271 0.58296 0.0
H3034 H 0.06553 0.50773 0.59994 0.0
H3035 H 0.04709 0.51401 0.61958 0.0
Gd3036 Gd 0.8147 0.78533 0.26896 0.0
Gd3037 Gd 0.77578 0.79432 0.26588 0.0
C3038 C 0.75323 0.78852 0.21503 0.0
C3039 C 0.75082 0.81626 0.21389 0.0
C3040 C 0.76164 0.80993 0.23824 0.0
C3041 C 0.7599 0.79384 0.23094 0.0
C3042 C 0.75664 0.82123 0.23 0.0
C3043 C 0.74917 0.79992 0.20639 0.0
C3044 C 0.75027 0.77183 0.2085 0.0
C3045 C 0.75328 0.76084 0.21802 0.0
N3046 N 0.76367 0.78315 0.23977 0.0
C3047 C 0.75979 0.7667 0.23374 0.0
H3048 H 0.76225 0.75793 0.24064 0.0
C3049 C 0.7665 0.82921 0.26236 0.0
N3050 N 0.76708 0.81421 0.25385 0.0
C3051 C 0.76177 0.84091 0.25471 0.0
C3052 C 0.75705 0.83699 0.23838 0.0
H3053 H 0.77017 0.83227 0.275 0.0
H3054 H 0.74421 0.79611 0.19411 0.0
H3055 H 0.8278 0.82273 0.2926 0.0
H3056 H 0.74521 0.76726 0.19633 0.0
H3057 H 0.75072 0.74784 0.21323 0.0
H3058 H 0.74709 0.82481 0.20729 0.0
H3059 H 0.81856 0.74651 0.26188 0.0
H3060 H 0.84718 0.81593 0.33703 0.0
H3061 H 0.84011 0.83415 0.31955 0.0
H3062 H 0.84567 0.75846 0.3287 0.0
H3063 H 0.76174 0.85291 0.26141 0.0
H3064 H 0.75328 0.84602 0.23249 0.0
H3065 H 0.84909 0.78764 0.34037 0.0
H3066 H 0.82754 0.7269 0.27652 0.0
N3067 N 0.82725 0.79785 0.2945 0.0
C3068 C 0.84172 0.81074 0.3251 0.0
C3069 C 0.83779 0.82107 0.31526 0.0
C3070 C 0.83897 0.7939 0.31925 0.0
C3071 C 0.83169 0.78775 0.30367 0.0
C3072 C 0.83078 0.81444 0.29985 0.0
N3073 N 0.82311 0.76595 0.28198 0.0
C3074 C 0.82955 0.7713 0.29721 0.0
C3075 C 0.82804 0.7393 0.28253 0.0
C3076 C 0.83383 0.74435 0.29853 0.0
C3077 C 0.82295 0.75039 0.2743 0.0
C3078 C 0.83491 0.76059 0.30599 0.0
H3079 H 0.83785 0.73577 0.30486 0.0
O3080 O 0.82761 0.77652 0.24943 0.0
O3081 O 0.79563 0.78855 0.2527 0.0
O3082 O 0.7738 0.76688 0.26673 0.0
O3083 O 0.79793 0.76246 0.27448 0.0
O3084 O 0.80432 0.76762 0.24672 0.0
O3085 O 0.83813 0.79852 0.26577 0.0
O3086 O 0.76263 0.80221 0.28558 0.0
O3087 O 0.79497 0.79139 0.28237 0.0
O3088 O 0.81685 0.81245 0.26638 0.0
O3089 O 0.79234 0.81791 0.26204 0.0
O3090 O 0.786 0.81218 0.2879 0.0
O3091 O 0.75295 0.77998 0.26919 0.0
C3092 C 0.79507 0.77607 0.24198 0.0
C3093 C 0.84162 0.76653 0.32171 0.0
C3094 C 0.8436 0.78315 0.32835 0.0
C3095 C 0.83992 0.78821 0.2532 0.0
C3096 C 0.85508 0.7832 0.25211 0.0
C3097 C 0.85817 0.77169 0.26107 0.0
C3098 C 0.86616 0.78899 0.24158 0.0
C3099 C 0.88003 0.78305 0.24012 0.0
C3100 C 0.87131 0.76534 0.25921 0.0
C3101 C 0.88198 0.77076 0.24879 0.0
C3102 C 0.78266 0.75721 0.27111 0.0
C3103 C 0.79539 0.80404 0.29291 0.0
C3104 C 0.75081 0.78998 0.28181 0.0
C3105 C 0.73529 0.79395 0.283 0.0
C3106 C 0.73015 0.80301 0.27236 0.0
C3107 C 0.72579 0.7894 0.29521 0.0
C3108 C 0.71144 0.79414 0.29673 0.0
C3109 C 0.71608 0.80772 0.27388 0.0
C3110 C 0.70685 0.80341 0.28596 0.0
C3111 C 0.80773 0.82255 0.26365 0.0
H3112 H 0.85029 0.76738 0.26941 0.0
H3113 H 0.86405 0.7981 0.23476 0.0
H3114 H 0.87324 0.75609 0.26592 0.0
H3115 H 0.89188 0.76522 0.24756 0.0
H3116 H 0.73708 0.80654 0.26291 0.0
H3117 H 0.7296 0.7824 0.30353 0.0
H3118 H 0.71232 0.81482 0.26565 0.0
H3119 H 0.69598 0.80724 0.28685 0.0
Gd3120 Gd 0.78443 0.29572 0.78687 0.0
Gd3121 Gd 0.80587 0.28558 0.75151 0.0
C3122 C 0.79108 0.23518 0.71828 0.0
C3123 C 0.81486 0.22545 0.71837 0.0
C3124 C 0.81387 0.25177 0.7344 0.0
C3125 C 0.79856 0.24961 0.72902 0.0
C3126 C 0.82226 0.23979 0.72898 0.0
C3127 C 0.7993 0.22315 0.71304 0.0
C3128 C 0.77552 0.23315 0.7132 0.0
C3129 C 0.76766 0.2451 0.71907 0.0
N3130 N 0.79087 0.26139 0.73456 0.0
C3131 C 0.77546 0.25908 0.72977 0.0
H3132 H 0.76859 0.26742 0.73452 0.0
C3133 C 0.83621 0.26891 0.74908 0.0
N3134 N 0.82067 0.26567 0.74478 0.0
C3135 C 0.84497 0.25742 0.74412 0.0
C3136 C 0.83793 0.24269 0.73415 0.0
H3137 H 0.84198 0.28059 0.75613 0.0
H3138 H 0.79371 0.21201 0.70485 0.0
H3139 H 0.82079 0.30856 0.80842 0.0
H3140 H 0.7694 0.22229 0.70494 0.0
H3141 H 0.75548 0.24347 0.71553 0.0
H3142 H 0.82111 0.21612 0.71413 0.0
H3143 H 0.75001 0.30547 0.78262 0.0
H3144 H 0.82683 0.35822 0.83006 0.0
H3145 H 0.83645 0.33285 0.82461 0.0
H3146 H 0.77903 0.3718 0.81673 0.0
H3147 H 0.85721 0.26005 0.74778 0.0
H3148 H 0.84476 0.23383 0.73021 0.0
H3149 H 0.80552 0.37259 0.82698 0.0
H3150 H 0.73845 0.32946 0.78761 0.0
N3151 N 0.80143 0.31901 0.80348 0.0
C3152 C 0.81965 0.34738 0.82261 0.0
C3153 C 0.82509 0.3331 0.8196 0.0
C3154 C 0.80492 0.34744 0.81622 0.0
C3155 C 0.796 0.33297 0.80652 0.0
C3156 C 0.81584 0.31904 0.81014 0.0
N3157 N 0.77282 0.31862 0.79144 0.0
C3158 C 0.7813 0.33275 0.8003 0.0
C3159 C 0.7506 0.3307 0.79098 0.0
C3160 C 0.75952 0.34564 0.79893 0.0
C3161 C 0.75734 0.31718 0.78781 0.0
C3162 C 0.7749 0.3467 0.80415 0.0
H3163 H 0.75423 0.35607 0.80164 0.0
O3164 O 0.76207 0.2856 0.79402 0.0
O3165 O 0.79159 0.27681 0.76983 0.0
O3166 O 0.78383 0.293 0.74293 0.0
O3167 O 0.77058 0.3 0.76528 0.0
O3168 O 0.76895 0.27139 0.77537 0.0
O3169 O 0.78286 0.29024 0.81088 0.0
O3170 O 0.82665 0.2981 0.74275 0.0
O3171 O 0.79856 0.30435 0.76858 0.0
O3172 O 0.80525 0.28533 0.79481 0.0
O3173 O 0.8196 0.28069 0.77265 0.0
O3174 O 0.82172 0.30874 0.76506 0.0
O3175 O 0.8042 0.29486 0.72964 0.0
C3176 C 0.77937 0.266 0.76749 0.0
C3177 C 0.78377 0.36102 0.81369 0.0
C3178 C 0.79881 0.36145 0.81957 0.0
C3179 C 0.76784 0.2852 0.8082 0.0
C3180 C 0.75792 0.2793 0.82007 0.0
C3181 C 0.74195 0.2785 0.8186 0.0
C3182 C 0.76426 0.2728 0.83204 0.0
C3183 C 0.75476 0.26463 0.84205 0.0
C3184 C 0.73245 0.271 0.82905 0.0
C3185 C 0.73879 0.26393 0.8407 0.0
C3186 C 0.77184 0.29775 0.74961 0.0
C3187 C 0.81101 0.31473 0.77187 0.0
C3188 C 0.81917 0.29965 0.72981 0.0
C3189 C 0.8259 0.29604 0.71467 0.0
C3190 C 0.84027 0.29166 0.71358 0.0
C3191 C 0.81867 0.29975 0.7014 0.0
C3192 C 0.82634 0.30128 0.68768 0.0
C3193 C 0.84739 0.2916 0.69929 0.0
C3194 C 0.84062 0.29674 0.68643 0.0
C3195 C 0.81769 0.28145 0.78811 0.0
H3196 H 0.73681 0.28343 0.80926 0.0
H3197 H 0.77661 0.2735 0.83314 0.0
H3198 H 0.72013 0.27029 0.82786 0.0
H3199 H 0.73122 0.25759 0.84831 0.0
H3200 H 0.84618 0.28882 0.7238 0.0
H3201 H 0.80754 0.30305 0.70231 0.0
H3202 H 0.85855 0.28846 0.69848 0.0
H3203 H 0.84688 0.29796 0.67595 0.0
Gd3204 Gd 0.78463 0.76323 0.75743 0.0
Gd3205 Gd 0.80194 0.80611 0.77543 0.0
C3206 C 0.8523 0.82648 0.76696 0.0
C3207 C 0.86514 0.83228 0.79376 0.0
C3208 C 0.83747 0.82062 0.7892 0.0
C3209 C 0.83814 0.82043 0.77303 0.0
C3210 C 0.85089 0.82705 0.79982 0.0
C3211 C 0.86585 0.83195 0.77734 0.0
C3212 C 0.85233 0.82755 0.75078 0.0
C3213 C 0.8384 0.82332 0.74123 0.0
N3214 N 0.82476 0.8155 0.76341 0.0
C3215 C 0.82467 0.81754 0.74782 0.0
H3216 H 0.81413 0.81485 0.74028 0.0
C3217 C 0.82191 0.8188 0.81078 0.0
N3218 N 0.82348 0.81588 0.79468 0.0
C3219 C 0.83487 0.82489 0.82177 0.0
C3220 C 0.84948 0.8288 0.81627 0.0
H3221 H 0.81058 0.81613 0.81511 0.0
H3222 H 0.87682 0.83652 0.77287 0.0
H3223 H 0.77813 0.73991 0.78688 0.0
H3224 H 0.86295 0.83216 0.74568 0.0
H3225 H 0.83819 0.82461 0.72881 0.0
H3226 H 0.87558 0.83713 0.80172 0.0
H3227 H 0.76613 0.76659 0.72275 0.0
H3228 H 0.73115 0.7353 0.79717 0.0
H3229 H 0.75734 0.73121 0.80339 0.0
H3230 H 0.70818 0.75288 0.75332 0.0
H3231 H 0.83356 0.82675 0.83447 0.0
H3232 H 0.8595 0.83375 0.8248 0.0
H3233 H 0.71289 0.74333 0.77837 0.0
H3234 H 0.74034 0.76725 0.71229 0.0
N3235 N 0.76481 0.75164 0.77277 0.0
C3236 C 0.74044 0.73978 0.79018 0.0
C3237 C 0.7552 0.7375 0.79374 0.0
C3238 C 0.73763 0.74681 0.77696 0.0
C3239 C 0.75017 0.75259 0.7683 0.0
C3240 C 0.76713 0.74294 0.78453 0.0
N3241 N 0.75972 0.7631 0.74601 0.0
C3242 C 0.74754 0.75834 0.75442 0.0
C3243 C 0.74222 0.76521 0.72436 0.0
C3244 C 0.72979 0.76194 0.73354 0.0
C3245 C 0.75706 0.76534 0.73065 0.0
C3246 C 0.73228 0.75802 0.74859 0.0
H3247 H 0.71825 0.76165 0.72857 0.0
O3248 O 0.78654 0.75085 0.73336 0.0
O3249 O 0.80528 0.78361 0.76012 0.0
O3250 O 0.79004 0.80488 0.75098 0.0
O3251 O 0.78939 0.77839 0.73807 0.0
O3252 O 0.80886 0.76077 0.76336 0.0
O3253 O 0.78138 0.73686 0.75215 0.0
O3254 O 0.79217 0.82323 0.79124 0.0
O3255 O 0.78023 0.78711 0.76781 0.0
O3256 O 0.7934 0.76433 0.7834 0.0
O3257 O 0.80801 0.79095 0.79297 0.0
O3258 O 0.7835 0.79892 0.79146 0.0
O3259 O 0.80015 0.82934 0.7689 0.0
C3260 C 0.81533 0.77586 0.76316 0.0
C3261 C 0.71992 0.75305 0.75756 0.0
C3262 C 0.7226 0.74758 0.77179 0.0
C3263 C 0.78441 0.73649 0.73731 0.0
C3264 C 0.79458 0.72582 0.73089 0.0
C3265 C 0.79554 0.72231 0.71432 0.0
C3266 C 0.8023 0.71802 0.74091 0.0
C3267 C 0.81045 0.70638 0.73444 0.0
C3268 C 0.80393 0.71096 0.70785 0.0
C3269 C 0.81124 0.70287 0.71784 0.0
C3270 C 0.78821 0.79361 0.73787 0.0
C3271 C 0.77387 0.78886 0.78065 0.0
C3272 C 0.79422 0.83408 0.78206 0.0
C3273 C 0.79931 0.85117 0.78985 0.0
C3274 C 0.81041 0.85659 0.80301 0.0
C3275 C 0.79168 0.86214 0.7844 0.0
C3276 C 0.79467 0.87848 0.79208 0.0
C3277 C 0.81372 0.87305 0.81057 0.0
C3278 C 0.80589 0.88404 0.80512 0.0
C3279 C 0.80228 0.77574 0.79458 0.0
H3280 H 0.78955 0.72812 0.70636 0.0
H3281 H 0.80142 0.72042 0.75371 0.0
H3282 H 0.80452 0.7082 0.69506 0.0
H3283 H 0.81744 0.69386 0.71263 0.0
H3284 H 0.81634 0.8482 0.80752 0.0
H3285 H 0.78313 0.85785 0.77418 0.0
H3286 H 0.82223 0.87724 0.82077 0.0
H3287 H 0.80837 0.8967 0.81116 0.0
Gd3288 Gd 0.56462 0.54921 0.52586 0.0
Gd3289 Gd 0.52649 0.52826 0.50893 0.0
C3290 C 0.50547 0.47404 0.50858 0.0
C3291 C 0.49857 0.46349 0.48027 0.0
C3292 C 0.51138 0.49209 0.4895 0.0
C3293 C 0.51179 0.48964 0.5051 0.0
C3294 C 0.50445 0.47913 0.47692 0.0
C3295 C 0.49912 0.46094 0.49607 0.0
C3296 C 0.50522 0.47215 0.52454 0.0
C3297 C 0.51072 0.48571 0.53659 0.0
N3298 N 0.51753 0.5027 0.51693 0.0
C3299 C 0.51657 0.50098 0.53258 0.0
H3300 H 0.52076 0.5111 0.54224 0.0
C3301 C 0.51466 0.51087 0.47174 0.0
N3302 N 0.51673 0.50743 0.48671 0.0
C3303 C 0.50807 0.4984 0.45886 0.0
C3304 C 0.50306 0.48242 0.46144 0.0
H3305 H 0.51831 0.52327 0.46971 0.0
H3306 H 0.49423 0.4489 0.49853 0.0
H3307 H 0.56867 0.56584 0.49201 0.0
H3308 H 0.5005 0.46038 0.52769 0.0
H3309 H 0.51041 0.48446 0.54901 0.0
H3310 H 0.49323 0.45339 0.47078 0.0
H3311 H 0.57166 0.55513 0.56533 0.0
H3312 H 0.59334 0.61538 0.50528 0.0
H3313 H 0.58063 0.5917 0.48455 0.0
H3314 H 0.60207 0.62321 0.56216 0.0
H3315 H 0.50672 0.50116 0.447 0.0
H3316 H 0.49776 0.47281 0.45148 0.0
H3317 H 0.60128 0.62699 0.53419 0.0
H3318 H 0.58438 0.57729 0.58756 0.0
N3319 N 0.57398 0.5743 0.5172 0.0
C3320 C 0.58795 0.60396 0.50875 0.0
C3321 C 0.58083 0.59063 0.49703 0.0
C3322 C 0.58819 0.60236 0.52481 0.0
C3323 C 0.58098 0.58721 0.52872 0.0
C3324 C 0.57404 0.57582 0.50143 0.0
N3325 N 0.57466 0.57032 0.54775 0.0
C3326 C 0.58123 0.58518 0.54447 0.0
C3327 C 0.58345 0.57973 0.57553 0.0
C3328 C 0.58982 0.59525 0.57243 0.0
C3329 C 0.57616 0.56727 0.56294 0.0
C3330 C 0.58897 0.59808 0.55674 0.0
H3331 H 0.59569 0.60483 0.58216 0.0
O3332 O 0.58128 0.53865 0.5373 0.0
O3333 O 0.54877 0.52467 0.51843 0.0
O3334 O 0.52641 0.53709 0.53623 0.0
O3335 O 0.54889 0.5569 0.54509 0.0
O3336 O 0.55958 0.53007 0.54135 0.0
O3337 O 0.58645 0.5482 0.51564 0.0
O3338 O 0.50951 0.5386 0.4976 0.0
O3339 O 0.54219 0.55306 0.51645 0.0
O3340 O 0.5649 0.54008 0.49865 0.0
O3341 O 0.54214 0.52077 0.48955 0.0
O3342 O 0.53196 0.54705 0.49337 0.0
O3343 O 0.50497 0.52958 0.5196 0.0
C3344 C 0.55086 0.51872 0.53083 0.0
C3345 C 0.59604 0.61319 0.55292 0.0
C3346 C 0.59563 0.61533 0.53699 0.0
C3347 C 0.59128 0.54137 0.52692 0.0
C3348 C 0.60735 0.54707 0.53342 0.0
C3349 C 0.61225 0.56099 0.54544 0.0
C3350 C 0.6176 0.5372 0.52859 0.0
C3351 C 0.63257 0.5409 0.53603 0.0
C3352 C 0.62728 0.56477 0.55281 0.0
C3353 C 0.63741 0.55465 0.54823 0.0
C3354 C 0.53494 0.54874 0.54759 0.0
C3355 C 0.54 0.55886 0.50395 0.0
C3356 C 0.49981 0.53613 0.50828 0.0
C3357 C 0.48366 0.53008 0.50225 0.0
C3358 C 0.47848 0.51518 0.49159 0.0
C3359 C 0.47337 0.53999 0.50683 0.0
C3360 C 0.45784 0.53503 0.50098 0.0
C3361 C 0.46299 0.51025 0.48559 0.0
C3362 C 0.45264 0.52009 0.49031 0.0
C3363 C 0.55624 0.52865 0.48719 0.0
H3364 H 0.60448 0.56873 0.54936 0.0
H3365 H 0.6138 0.5263 0.51944 0.0
H3366 H 0.63099 0.5754 0.5622 0.0
H3367 H 0.649 0.55753 0.55413 0.0
H3368 H 0.48633 0.50744 0.48785 0.0
H3369 H 0.47743 0.55154 0.51505 0.0
H3370 H 0.459 0.49881 0.47727 0.0
H3371 H 0.44066 0.51617 0.48552 0.0
Gd3372 Gd 0.02548 0.53666 0.02337 0.0
Gd3373 Gd 0.06542 0.54178 0.01213 0.0
C3374 C 0.0956 0.59291 0.01471 0.0
C3375 C 0.09871 0.59382 0.98667 0.0
C3376 C 0.0841 0.56922 0.99449 0.0
C3377 C 0.0867 0.57677 0.01035 0.0
C3378 C 0.09037 0.57751 0.98248 0.0
C3379 C 0.1013 0.60152 0.00276 0.0
C3380 C 0.09883 0.59977 0.03095 0.0
C3381 C 0.09368 0.59035 0.04236 0.0
N3382 N 0.08112 0.56805 0.02156 0.0
C3383 C 0.08496 0.57437 0.03743 0.0
H3384 H 0.08104 0.56732 0.04641 0.0
C3385 C 0.07474 0.54484 0.97562 0.0
N3386 N 0.07601 0.55348 0.99088 0.0
C3387 C 0.0807 0.55254 0.96328 0.0
C3388 C 0.08837 0.56901 0.96668 0.0
H3389 H 0.06873 0.53213 0.97291 0.0
H3390 H 0.10804 0.61399 0.00587 0.0
H3391 H 0.01178 0.50913 0.98976 0.0
H3392 H 0.10559 0.61215 0.0348 0.0
H3393 H 0.09637 0.59541 0.05497 0.0
H3394 H 0.10349 0.60046 0.9776 0.0
H3395 H 0.02452 0.54725 0.06294 0.0
H3396 H 0.98013 0.46894 0.00236 0.0
H3397 H 0.99362 0.4825 0.98188 0.0
H3398 H 0.98036 0.48388 0.05917 0.0
H3399 H 0.07935 0.54578 0.95115 0.0
H3400 H 0.09301 0.57495 0.9571 0.0
H3401 H 0.97527 0.46955 0.0312 0.0
H3402 H 0.01181 0.53578 0.08491 0.0
N3403 N 0.00894 0.51079 0.01462 0.0
C3404 C 0.98817 0.48067 0.00594 0.0
C3405 C 0.99575 0.48828 0.99435 0.0
C3406 C 0.99098 0.48832 0.022 0.0
C3407 C 1.00156 0.50359 0.02603 0.0
C3408 C 0.00607 0.50346 0.9989 0.0
N3409 N 0.01457 0.52636 0.04517 0.0
C3410 C 0.00454 0.51155 0.04179 0.0
C3411 C 0.00971 0.52881 0.07285 0.0
C3412 C 0.99969 0.51339 0.06963 0.0
C3413 C 0.01691 0.53526 0.06037 0.0
C3414 C 0.99686 0.50463 0.05394 0.0
H3415 H 0.99403 0.50848 0.0793 0.0
O3416 O 0.01485 0.55704 0.03128 0.0
O3417 O 0.04701 0.55422 0.02042 0.0
O3418 O 0.06319 0.54137 0.0385 0.0
O3419 O 0.0384 0.52635 0.0407 0.0
O3420 O 0.03653 0.55986 0.04091 0.0
O3421 O 0.0044 0.53904 0.01052 0.0
O3422 O 0.07673 0.52222 0.00309 0.0
O3423 O 0.04402 0.52369 0.01513 0.0
O3424 O 0.02729 0.53639 0.997 0.0
O3425 O 0.05196 0.55128 0.99443 0.0
O3426 O 0.05414 0.51946 0.99416 0.0
O3427 O 0.08619 0.53881 0.02504 0.0
C3428 C 0.04772 0.56506 0.03269 0.0
C3429 C 0.98638 0.4894 0.05 0.0
C3430 C 0.98346 0.48125 0.03407 0.0
C3431 C 0.00332 0.55225 0.02032 0.0
C3432 C 0.98807 0.55325 0.02599 0.0
C3433 C 0.98182 0.54367 0.03697 0.0
C3434 C 0.98031 0.56492 0.02153 0.0
C3435 C 0.96651 0.56715 0.02823 0.0
C3436 C 0.96816 0.54574 0.04356 0.0
C3437 C 0.96057 0.5574 0.03929 0.0
C3438 C 0.0529 0.53266 0.04623 0.0
C3439 C 0.04363 0.51311 0.0026 0.0
C3440 C 0.08784 0.52638 0.0145 0.0
C3441 C 0.10344 0.52636 0.0094 0.0
C3442 C 0.1098 0.53679 0.99916 0.0
C3443 C 0.11177 0.51527 0.01415 0.0
C3444 C 0.12652 0.51486 0.0089 0.0
C3445 C 0.12425 0.53622 0.9937 0.0
C3446 C 0.13258 0.5254 0.99855 0.0
C3447 C 0.03736 0.54511 0.9891 0.0
H3448 H 0.98759 0.53477 0.04065 0.0
H3449 H 0.98523 0.57255 0.01325 0.0
H3450 H 0.96347 0.53833 0.05209 0.0
H3451 H 0.94992 0.55864 0.04452 0.0
H3452 H 0.10357 0.54529 0.99529 0.0
H3453 H 0.10688 0.50715 0.02203 0.0
H3454 H 0.12902 0.54421 0.98568 0.0
H3455 H 0.14377 0.52518 0.99411 0.0
H3456 H 1.00024 0.18134 0.95962 0.0
H3457 H 0.00429 0.15758 0.97065 0.0
H3458 H 0.04428 0.18753 -1e-05 0.0
H3459 H 0.04027 0.21145 0.98912 0.0
H3460 H 0.03571 0.14842 0.96758 0.0
H3461 H 0.01874 0.15726 0.02994 0.0
H3462 H 0.01055 0.16633 0.01477 0.0
H3463 H 0.03022 0.17431 0.02278 0.0
C3464 C 0.00969 0.18303 0.9687 0.0
C3465 C 0.01999 0.19838 0.97332 0.0
C3466 C 0.01202 0.16938 0.97498 0.0
C3467 C 0.02454 0.17073 0.98624 0.0
C3468 C 0.03444 0.18617 0.99145 0.0
H3469 H 0.04984 0.08862 0.02706 0.0
H3470 H 0.04812 0.11651 0.02369 0.0
C3471 C 0.0322 0.19981 0.98508 0.0
C3472 C 0.02833 0.15566 0.9908 0.0
H3473 H 0.02746 0.1332 0.02071 0.0
C3474 C 0.03393 0.14512 0.97922 0.0
C3475 C 0.02653 0.1516 0.00615 0.0
C3476 C 0.02115 0.16288 0.01921 0.0
C3477 C 0.03752 0.13054 0.98236 0.0
C3478 C 0.03458 0.12567 0.99731 0.0
C3479 C 0.02951 0.1366 0.00917 0.0
C3480 C 0.03571 0.1089 0.00015 0.0
C3481 C 0.04478 0.12077 0.96957 0.0
C3482 C 0.02896 0.09515 0.9885 0.0
C3483 C 0.03107 0.07962 0.98985 0.0
C3484 C 0.0391 0.07689 0.00345 0.0
C3485 C 0.0445 0.09034 0.01599 0.0
C3486 C 0.04319 0.10627 0.01419 0.0
H3487 H 0.05189 0.12892 0.96251 0.0
H3488 H 0.05225 0.1136 0.97468 0.0
H3489 H 0.03554 0.11229 0.96111 0.0
H3490 H 0.02216 0.09639 0.97808 0.0
H3491 H 0.02608 0.06963 0.98012 0.0
H3492 H 0.14895 0.83028 0.18179 0.0
H3493 H 0.17227 0.82907 0.19763 0.0
H3494 H 0.18052 0.79096 0.16105 0.0
H3495 H 0.15772 0.79261 0.14483 0.0
H3496 H 0.17996 0.80548 0.21114 0.0
H3497 H 0.22282 0.81978 0.16787 0.0
H3498 H 0.20327 0.82231 0.16511 0.0
H3499 H 0.20762 0.80243 0.1596 0.0
C3500 C 0.15582 0.82182 0.17689 0.0
C3501 C 0.15118 0.81158 0.16182 0.0
C3502 C 0.1692 0.82105 0.18611 0.0
C3503 C 0.17854 0.8101 0.18059 0.0
C3504 C 0.17392 0.79983 0.1656 0.0
H3505 H 0.25996 0.78082 0.22 0.0
H3506 H 0.23785 0.78422 0.20351 0.0
C3507 C 0.16058 0.80062 0.15636 0.0
C3508 C 0.19269 0.809 0.1907 0.0
H3509 H 0.23139 0.80921 0.1901 0.0
C3510 C 0.19121 0.80643 0.20651 0.0
C3511 C 0.20755 0.81021 0.1849 0.0
C3512 C 0.21048 0.814 0.16851 0.0
C3513 C 0.20381 0.8046 0.21636 0.0
C3514 C 0.21862 0.8056 0.21049 0.0
C3515 C 0.22014 0.80829 0.19472 0.0
C3516 C 0.23259 0.80389 0.22048 0.0
C3517 C 0.20094 0.80109 0.23287 0.0
C3518 C 0.23758 0.81408 0.23545 0.0
C3519 C 0.25025 0.81211 0.24495 0.0
C3520 C 0.25848 0.79994 0.23986 0.0
C3521 C 0.2539 0.7902 0.22456 0.0
C3522 C 0.24118 0.79215 0.21504 0.0
H3523 H 0.18852 0.796 0.23385 0.0
H3524 H 0.20771 0.79233 0.2361 0.0
H3525 H 0.2045 0.81268 0.2417 0.0
H3526 H 0.2317 0.82367 0.23983 0.0
H3527 H 0.25367 0.82033 0.25627 0.0
H3528 H 0.51138 0.86203 0.4566 0.0
H3529 H 0.51407 0.89119 0.46675 0.0
H3530 H 0.54153 0.88734 0.50853 0.0
H3531 H 0.53939 0.85811 0.49795 0.0
H3532 H 0.50506 0.90743 0.49199 0.0
H3533 H 0.56924 0.92546 0.49625 0.0
H3534 H 0.55882 0.90525 0.48681 0.0
H3535 H 0.56156 0.91076 0.50826 0.0
C3536 C 0.51798 0.86738 0.46797 0.0
C3537 C 0.52517 0.85774 0.47645 0.0
C3538 C 0.51953 0.8841 0.47379 0.0
C3539 C 0.5282 0.8917 0.48834 0.0
C3540 C 0.53514 0.882 0.49706 0.0
H3541 H 0.53926 0.99782 0.52808 0.0
H3542 H 0.53448 0.9681 0.52724 0.0
C3543 C 0.53383 0.86525 0.49107 0.0
C3544 C 0.52973 0.90969 0.49407 0.0
H3545 H 0.55594 0.94649 0.5032 0.0
C3546 C 0.51622 0.9159 0.49455 0.0
C3547 C 0.54427 0.92092 0.49763 0.0
C3548 C 0.55931 0.91532 0.49711 0.0
C3549 C 0.51686 0.93285 0.49774 0.0
C3550 C 0.53134 0.94396 0.50062 0.0
C3551 C 0.54484 0.93788 0.50098 0.0
C3552 C 0.53273 0.96185 0.50144 0.0
C3553 C 0.50209 0.9389 0.49762 0.0
C3554 C 0.53301 0.96816 0.48724 0.0
C3555 C 0.53571 0.98506 0.48769 0.0
C3556 C 0.53803 0.99604 0.50234 0.0
C3557 C 0.53723 0.98969 0.51659 0.0
C3558 C 0.53462 0.97272 0.51614 0.0
H3559 H 0.49168 0.92875 0.49626 0.0
H3560 H 0.502 0.94757 0.50892 0.0
H3561 H 0.50148 0.94567 0.48763 0.0
H3562 H 0.53159 0.95999 0.47578 0.0
H3563 H 0.53642 0.9896 0.47654 0.0
H3564 H 0.50759 0.29319 0.6749 0.0
H3565 H 0.48404 0.2918 0.68881 0.0
H3566 H 0.46426 0.31415 0.65353 0.0
H3567 H 0.48771 0.31533 0.63932 0.0
H3568 H 0.47027 0.31822 0.70198 0.0
H3569 H 0.42965 0.27367 0.65542 0.0
H3570 H 0.45037 0.27638 0.65532 0.0
H3571 H 0.44094 0.29137 0.64923 0.0
C3572 C 0.49821 0.29765 0.66991 0.0
C3573 C 0.49973 0.3043 0.65582 0.0
C3574 C 0.4847 0.29693 0.67799 0.0
C3575 C 0.47214 0.30266 0.67221 0.0
C3576 C 0.47359 0.30938 0.6582 0.0
H3577 H 0.37905 0.29257 0.70999 0.0
H3578 H 0.40071 0.29992 0.69363 0.0
C3579 C 0.48716 0.31021 0.65014 0.0
C3580 C 0.45783 0.30195 0.68117 0.0
H3581 H 0.41931 0.28356 0.67907 0.0
C3582 C 0.45913 0.31066 0.69691 0.0
C3583 C 0.4431 0.29242 0.67459 0.0
C3584 C 0.44083 0.28282 0.65775 0.0
C3585 C 0.44635 0.30998 0.70624 0.0
C3586 C 0.43177 0.29966 0.70005 0.0
C3587 C 0.43035 0.29138 0.68406 0.0
C3588 C 0.41836 0.29636 0.71031 0.0
C3589 C 0.44872 0.32071 0.72258 0.0
C3590 C 0.42075 0.29199 0.72527 0.0
C3591 C 0.40851 0.28826 0.73477 0.0
C3592 C 0.39312 0.28805 0.72952 0.0
C3593 C 0.39064 0.29265 0.7146 0.0
C3594 C 0.40308 0.2967 0.70512 0.0
H3595 H 0.4576 0.33212 0.72283 0.0
H3596 H 0.43787 0.32412 0.72634 0.0
H3597 H 0.45298 0.31409 0.73143 0.0
H3598 H 0.43212 0.29103 0.72958 0.0
H3599 H 0.41117 0.28515 0.74624 0.0
H3600 H 0.0103 0.8548 0.62677 0.0
H3601 H 0.01482 0.87776 0.61216 0.0
H3602 H 0.01994 0.84473 0.56941 0.0
H3603 H 0.01574 0.82184 0.58404 0.0
H3604 H 0.04406 0.88493 0.59277 0.0
H3605 H 0.98633 0.87339 0.5592 0.0
H3606 H 0.9891 0.86671 0.57798 0.0
H3607 H 0.99472 0.85596 0.56004 0.0
C3608 C 0.01225 0.8525 0.61422 0.0
C3609 C 0.01269 0.83669 0.60644 0.0
C3610 C 0.01485 0.86555 0.60594 0.0
C3611 C 0.01759 0.86282 0.58975 0.0
C3612 C 0.01774 0.84697 0.5819 0.0
H3613 H 0.0366 0.91457 0.51306 0.0
H3614 H 0.02918 0.89517 0.53093 0.0
C3615 C 0.0154 0.83399 0.59022 0.0
C3616 C 0.02105 0.87662 0.58114 0.0
H3617 H 0.00637 0.89316 0.55169 0.0
C3618 C 0.03582 0.88692 0.58391 0.0
C3619 C 0.01021 0.87898 0.56961 0.0
C3620 C 0.99414 0.86827 0.56652 0.0
C3621 C 0.04028 0.89926 0.57493 0.0
C3622 C 0.02952 0.9015 0.56315 0.0
C3623 C 0.01459 0.89142 0.56072 0.0
C3624 C 0.03381 0.91353 0.55253 0.0
C3625 C 0.05666 0.90928 0.57765 0.0
C3626 C 0.03873 0.93033 0.55876 0.0
C3627 C 0.04322 0.94145 0.54858 0.0
C3628 C 0.0427 0.93598 0.53197 0.0
C3629 C 0.03744 0.91917 0.5258 0.0
C3630 C 0.03304 0.90808 0.53597 0.0
H3631 H 0.06436 0.90347 0.58433 0.0
H3632 H 0.06146 0.91103 0.56612 0.0
H3633 H 0.05678 0.92153 0.58475 0.0
H3634 H 0.03915 0.93482 0.57148 0.0
H3635 H 0.04729 0.95429 0.55376 0.0
H3636 H 0.51617 0.83681 0.84673 0.0
H3637 H 0.49034 0.83683 0.83569 0.0
H3638 H 0.48255 0.78504 0.81714 0.0
H3639 H 0.50864 0.78492 0.82802 0.0
H3640 H 0.47775 0.82491 0.80178 0.0
H3641 H 0.44598 0.79242 0.84607 0.0
H3642 H 0.4661 0.80277 0.85 0.0
H3643 H 0.46061 0.78378 0.83611 0.0
C3644 C 0.50907 0.82546 0.8401 0.0
C3645 C 0.51437 0.81085 0.8382 0.0
C3646 C 0.49431 0.82548 0.83392 0.0
C3647 C 0.48462 0.81091 0.82583 0.0
C3648 C 0.4899 0.79633 0.8236 0.0
H3649 H 0.3908 0.7992 0.78436 0.0
H3650 H 0.41454 0.79357 0.79573 0.0
C3651 C 0.50472 0.79629 0.8298 0.0
C3652 C 0.469 0.81124 0.81973 0.0
H3653 H 0.43119 0.80205 0.82754 0.0
C3654 C 0.46753 0.8198 0.80728 0.0
C3655 C 0.45582 0.8045 0.82702 0.0
C3656 C 0.45708 0.79539 0.8406 0.0
C3657 C 0.45314 0.82207 0.80204 0.0
C3658 C 0.44003 0.81593 0.80974 0.0
C3659 C 0.44138 0.80687 0.82185 0.0
C3660 C 0.42489 0.81901 0.80525 0.0
C3661 C 0.45208 0.83109 0.78834 0.0
C3662 C 0.42278 0.83511 0.80741 0.0
C3663 C 0.40937 0.83839 0.80082 0.0
C3664 C 0.39784 0.82555 0.79221 0.0
C3665 C 0.39957 0.80931 0.79094 0.0
C3666 C 0.41305 0.80607 0.79744 0.0
H3667 H 0.4623 0.8314 0.78129 0.0
H3668 H 0.4415 0.82533 0.78021 0.0
H3669 H 0.45152 0.84392 0.79315 0.0
H3670 H 0.43177 0.84519 0.81368 0.0
H3671 H 0.4081 0.85094 0.80223 0.0
H3672 H 0.4867 0.18966 0.07154 0.0
H3673 H 0.49085 0.1634 0.05806 0.0
H3674 H 0.48048 0.14289 0.1003 0.0
H3675 H 0.47615 0.16916 0.1138 0.0
H3676 H 0.51299 0.15031 0.09167 0.0
H3677 H 0.47125 0.11296 0.04156 0.0
H3678 H 0.47432 0.13488 0.04365 0.0
H3679 H 0.46531 0.12492 0.05884 0.0
C3680 C 0.48443 0.17925 0.07756 0.0
C3681 C 0.48129 0.18128 0.09365 0.0
C3682 C 0.48672 0.16427 0.06986 0.0
C3683 C 0.48598 0.15137 0.07828 0.0
C3684 C 0.48091 0.15277 0.09366 0.0
H3685 H 0.53326 0.07307 0.06089 0.0
H3686 H 0.52109 0.09444 0.07381 0.0
C3687 C 0.47845 0.16772 0.10132 0.0
C3688 C 0.49476 0.139 0.073 0.0
H3689 H 0.49668 0.10816 0.04258 0.0
C3690 C 0.50934 0.14087 0.08111 0.0
C3691 C 0.48999 0.12709 0.05906 0.0
C3692 C 0.47432 0.12469 0.05026 0.0
C3693 C 0.51953 0.13126 0.07533 0.0
C3694 C 0.51483 0.11953 0.06127 0.0
C3695 C 0.50016 0.11742 0.0533 0.0
C3696 C 0.52468 0.10866 0.05498 0.0
C3697 C 0.53539 0.13399 0.08391 0.0
C3698 C 0.53103 0.11008 0.04044 0.0
C3699 C 0.53822 0.09804 0.03318 0.0
C3700 C 0.5389 0.08456 0.04041 0.0
C3701 C 0.53325 0.08366 0.05538 0.0
C3702 C 0.52618 0.09571 0.06266 0.0
H3703 H 0.538 0.14514 0.09338 0.0
H3704 H 0.53614 0.12327 0.08952 0.0
H3705 H 0.54436 0.13513 0.07528 0.0
H3706 H 0.5299 0.12012 0.03446 0.0
H3707 H 0.54277 0.09899 0.02174 0.0
H3708 H 0.13913 0.30681 0.30851 0.0
H3709 H 0.16097 0.30398 0.29263 0.0
H3710 H 0.19243 0.33421 0.33152 0.0
H3711 H 0.17069 0.33696 0.34753 0.0
H3712 H 0.19099 0.32935 0.28623 0.0
H3713 H 0.19721 0.28337 0.32425 0.0
H3714 H 0.17945 0.29022 0.32177 0.0
H3715 H 0.19562 0.30328 0.33431 0.0
C3716 C 0.15069 0.31321 0.31345 0.0
C3717 C 0.15338 0.32184 0.32925 0.0
C3718 C 0.16306 0.31166 0.30438 0.0
C3719 C 0.17813 0.31873 0.31111 0.0
C3720 C 0.18076 0.32869 0.32628 0.0
H3721 H 0.2689 0.31086 0.30244 0.0
H3722 H 0.24277 0.31164 0.30953 0.0
C3723 C 0.16839 0.33028 0.33535 0.0
C3724 C 0.19106 0.31357 0.30344 0.0
H3725 H 0.21656 0.28928 0.30674 0.0
C3726 C 0.19659 0.32051 0.29053 0.0
C3727 C 0.198 0.3019 0.30917 0.0
C3728 C 0.19225 0.29413 0.32308 0.0
C3729 C 0.20972 0.31681 0.2837 0.0
C3730 C 0.21699 0.30546 0.28974 0.0
C3731 C 0.21085 0.29788 0.30212 0.0
C3732 C 0.23223 0.30326 0.28523 0.0
C3733 C 0.21617 0.32578 0.2708 0.0
C3734 C 0.23484 0.29808 0.26926 0.0
C3735 C 0.24986 0.29816 0.26519 0.0
C3736 C 0.26207 0.30253 0.27719 0.0
C3737 C 0.25942 0.30715 0.29315 0.0
C3738 C 0.24456 0.30752 0.29716 0.0
H3739 H 0.21091 0.33639 0.26985 0.0
H3740 H 0.22888 0.33029 0.2731 0.0
H3741 H 0.2137 0.31729 0.25911 0.0
H3742 H 0.22539 0.29446 0.25997 0.0
H3743 H 0.25196 0.29499 0.25276 0.0
H3744 H 0.99931 0.07508 0.19951 0.0
H3745 H 0.01108 0.07299 0.17393 0.0
H3746 H 0.96587 0.05771 0.14862 0.0
H3747 H 0.95405 0.0599 0.17399 0.0
H3748 H 0.01005 0.04679 0.14838 0.0
H3749 H 0.98561 0.09391 0.12525 0.0
H3750 H 0.98582 0.09194 0.14601 0.0
H3751 H 0.97122 0.0786 0.13159 0.0
C3752 C 0.99175 0.0714 0.18856 0.0
C3753 C 0.9755 0.06769 0.18929 0.0
C3754 C 0.9986 0.0701 0.17374 0.0
C3755 C 0.98956 0.06534 0.15889 0.0
C3756 C 0.97337 0.06166 0.1596 0.0
H3757 H 0.00432 0.04451 0.05546 0.0
H3758 H 0.99417 0.04874 0.08181 0.0
C3759 C 0.96653 0.06277 0.17436 0.0
C3760 C 0.99687 0.06396 0.14279 0.0
H3761 H 0.99694 0.07687 0.10645 0.0
C3762 C 0.0072 0.0535 0.13932 0.0
C3763 C 0.9935 0.07264 0.13061 0.0
C3764 C 0.98357 0.08503 0.13354 0.0
C3765 C 0.01362 0.05113 0.12426 0.0
C3766 C 0.00997 0.05954 0.11196 0.0
C3767 C 0.99981 0.07017 0.11551 0.0
C3768 C 0.01642 0.05739 0.09544 0.0
C3769 C 0.02396 0.03913 0.12148 0.0
C3770 C 0.03245 0.06107 0.09367 0.0
C3771 C 0.03833 0.05891 0.07841 0.0
C3772 C 0.02851 0.05277 0.06413 0.0
C3773 C 0.01245 0.04922 0.06592 0.0
C3774 C 0.00656 0.05166 0.08117 0.0
H3775 H 0.0227 0.03076 0.13027 0.0
H3776 H 0.02139 0.03167 0.10924 0.0
H3777 H 0.03618 0.04596 0.12268 0.0
H3778 H 0.04055 0.06575 0.10416 0.0
H3779 H 0.0507 0.06182 0.07791 0.0
H3780 H 0.2681 0.67389 0.43849 0.0
H3781 H 0.27019 0.6852 0.41389 0.0
H3782 H 0.2875 0.7337 0.44172 0.0
H3783 H 0.28583 0.72222 0.46643 0.0
H3784 H 0.25571 0.70989 0.40611 0.0
H3785 H 0.31995 0.72807 0.409 0.0
H3786 H 0.31003 0.71373 0.42054 0.0
H3787 H 0.31088 0.73522 0.4264 0.0
C3788 C 0.27221 0.68697 0.43926 0.0
C3789 C 0.27676 0.69733 0.45406 0.0
C3790 C 0.2735 0.69336 0.42533 0.0
C3791 C 0.27927 0.71016 0.42614 0.0
C3792 C 0.28339 0.72063 0.44099 0.0
H3793 H 0.28182 0.77026 0.35703 0.0
H3794 H 0.29011 0.75846 0.37922 0.0
C3795 C 0.28228 0.71418 0.45497 0.0
C3796 C 0.2804 0.71662 0.41131 0.0
H3797 H 0.3059 0.73403 0.38722 0.0
C3798 C 0.26666 0.7151 0.4019 0.0
C3799 C 0.29476 0.72347 0.40612 0.0
C3800 C 0.30979 0.72517 0.41596 0.0
C3801 C 0.26684 0.72038 0.3873 0.0
C3802 C 0.28122 0.72687 0.38186 0.0
C3803 C 0.29499 0.72861 0.39136 0.0
C3804 C 0.28173 0.73339 0.36704 0.0
C3805 C 0.25159 0.71941 0.37808 0.0
C3806 C 0.27538 0.72308 0.35257 0.0
C3807 C 0.27034 0.72977 0.34 0.0
C3808 C 0.27205 0.74676 0.3418 0.0
C3809 C 0.28037 0.75708 0.35546 0.0
C3810 C 0.28518 0.75039 0.36809 0.0
H3811 H 0.24171 0.71732 0.38555 0.0
H3812 H 0.25167 0.73084 0.37336 0.0
H3813 H 0.24959 0.70907 0.36779 0.0
H3814 H 0.27287 0.7099 0.35162 0.0
H3815 H 0.26416 0.72169 0.3294 0.0
H3816 H 0.61266 0.01431 0.68178 0.0
H3817 H 0.59418 0.00936 0.65821 0.0
H3818 H 0.62866 0.03768 0.63402 0.0
H3819 H 0.64719 0.04277 0.65761 0.0
H3820 H 0.58842 0.03969 0.64371 0.0
H3821 H 0.60785 0.99022 0.60372 0.0
H3822 H 0.61061 0.99314 0.62528 0.0
H3823 H 0.62258 0.00683 0.61475 0.0
C3824 C 0.61627 0.0193 0.67133 0.0
C3825 C 0.63118 0.02892 0.67131 0.0
C3826 C 0.60579 0.01647 0.658 0.0
C3827 C 0.61028 0.02305 0.64456 0.0
C3828 C 0.62522 0.03244 0.64439 0.0
H3829 H 0.58438 0.04567 0.55973 0.0
H3830 H 0.59491 0.04061 0.58474 0.0
C3831 C 0.63567 0.03542 0.65778 0.0
C3832 C 0.59902 0.02129 0.63108 0.0
H3833 H 0.59098 0.00411 0.59179 0.0
C3834 C 0.5886 0.03163 0.63243 0.0
C3835 C 0.5996 0.01079 0.61657 0.0
C3836 C 0.61069 0.9995 0.61491 0.0
C3837 C 0.57925 0.03246 0.6191 0.0
C3838 C 0.58036 0.02252 0.6044 0.0
C3839 C 0.59015 0.01151 0.60327 0.0
C3840 C 0.57353 0.02541 0.58961 0.0
C3841 C 0.56914 0.04477 0.62042 0.0
C3842 C 0.55805 0.01843 0.58434 0.0
C3843 C 0.55195 0.02122 0.56996 0.0
C3844 C 0.56131 0.0311 0.56092 0.0
C3845 C 0.57683 0.03806 0.56642 0.0
C3846 C 0.58289 0.0352 0.58067 0.0
H3847 H 0.56928 0.05126 0.63291 0.0
H3848 H 0.57318 0.05397 0.61284 0.0
H3849 H 0.55706 0.03852 0.61594 0.0
H3850 H 0.55081 0.01079 0.59125 0.0
H3851 H 0.54004 0.01547 0.56587 0.0
H3852 H 0.29833 0.31429 0.94853 0.0
H3853 H 0.30033 0.30317 0.92039 0.0
H3854 H 0.27865 0.33989 0.90591 0.0
H3855 H 0.27685 0.3513 0.93394 0.0
H3856 H 0.27046 0.29886 0.88841 0.0
H3857 H 0.32955 0.33866 0.89278 0.0
H3858 H 0.32265 0.32933 0.90937 0.0
H3859 H 0.31472 0.34561 0.90401 0.0
C3860 C 0.2939 0.31996 0.93937 0.0
C3861 C 0.28755 0.33381 0.94356 0.0
C3862 C 0.29495 0.31349 0.92329 0.0
C3863 C 0.28965 0.32072 0.9111 0.0
C3864 C 0.28272 0.33407 0.91516 0.0
H3865 H 0.30209 0.32998 0.81562 0.0
H3866 H 0.30175 0.33184 0.84443 0.0
C3867 C 0.28165 0.34055 0.93122 0.0
C3868 C 0.29265 0.31543 0.89424 0.0
H3869 H 0.31912 0.32394 0.86738 0.0
C3870 C 0.28115 0.30414 0.88379 0.0
C3871 C 0.30659 0.32237 0.88831 0.0
C3872 C 0.31918 0.33468 0.89911 0.0
C3873 C 0.28304 0.30008 0.86736 0.0
C3874 C 0.2969 0.30738 0.86131 0.0
C3875 C 0.30856 0.31824 0.87198 0.0
C3876 C 0.29871 0.30579 0.84382 0.0
C3877 C 0.26988 0.28869 0.85651 0.0
C3878 C 0.29773 0.29055 0.83379 0.0
C3879 C 0.29793 0.28947 0.81713 0.0
C3880 C 0.29932 0.30365 0.81036 0.0
C3881 C 0.30113 0.31888 0.82053 0.0
C3882 C 0.30089 0.31994 0.83702 0.0
H3883 H 0.25903 0.28652 0.86255 0.0
H3884 H 0.26768 0.29371 0.84561 0.0
H3885 H 0.27296 0.2767 0.85272 0.0
H3886 H 0.29638 0.27947 0.83876 0.0
H3887 H 0.2963 0.27754 0.80956 0.0
H3888 H 1.00031 0.06226 0.34479 0.0
H3889 H 0.01183 0.0575 0.36987 0.0
H3890 H 0.97348 0.06996 0.3942 0.0
H3891 H 0.9618 0.07459 0.36924 0.0
H3892 H 0.02052 0.07859 0.40281 0.0
H3893 H 0.97478 0.02326 0.40348 0.0
H3894 H 0.97862 0.03151 0.38553 0.0
H3895 H 0.96809 0.04114 0.40032 0.0
C3896 C 0.99417 0.06396 0.35538 0.0
C3897 C 0.97981 0.06874 0.35448 0.0
C3898 C 1.00094 0.06132 0.36994 0.0
C3899 C 0.99362 0.06311 0.38427 0.0
C3900 C 0.9795 0.06823 0.38351 0.0
H3901 H 1.00217 0.0433 0.48159 0.0
H3902 H 0.99502 0.04802 0.45512 0.0
C3903 C 0.9728 0.07104 0.36903 0.0
C3904 C 1.00024 0.05906 0.39976 0.0
H3905 H 0.99228 0.03279 0.42646 0.0
C3906 C 0.01435 0.0685 0.40789 0.0
C3907 C 0.99249 0.04589 0.40674 0.0
C3908 C 0.97772 0.03473 0.39858 0.0
C3909 C 0.02039 0.06559 0.42277 0.0
C3910 C 0.01248 0.05248 0.42987 0.0
C3911 C 0.99857 0.04288 0.42145 0.0
C3912 C 0.01758 0.0491 0.44635 0.0
C3913 C 0.03492 0.07714 0.43105 0.0
C3914 C 0.03276 0.04758 0.45089 0.0
C3915 C 0.03697 0.04481 0.46645 0.0
C3916 C 0.02613 0.04333 0.47802 0.0
C3917 C 0.01096 0.04433 0.47322 0.0
C3918 C 0.00679 0.04708 0.45786 0.0
H3919 H 0.03722 0.08887 0.42654 0.0
H3920 H 0.03419 0.07987 0.44417 0.0
H3921 H 0.0449 0.07137 0.42877 0.0
H3922 H 0.04144 0.04853 0.44243 0.0
H3923 H 0.04878 0.0442 0.4695 0.0
H3924 H 0.29854 0.70047 0.60966 0.0
H3925 H 0.29823 0.7201 0.63411 0.0
H3926 H 0.25727 0.73198 0.61437 0.0
H3927 H 0.25762 0.71258 0.58969 0.0
H3928 H 0.29753 0.75581 0.63476 0.0
H3929 H 0.24833 0.71824 0.65973 0.0
H3930 H 0.25987 0.7091 0.64551 0.0
H3931 H 0.24634 0.72012 0.63901 0.0
C3932 C 0.28954 0.70736 0.6105 0.0
C3933 C 0.27811 0.70509 0.59786 0.0
C3934 C 0.28935 0.71846 0.62442 0.0
C3935 C 0.27771 0.72731 0.62585 0.0
C3936 C 0.26624 0.72507 0.61335 0.0
H3937 H 0.26764 0.78862 0.7163 0.0
H3938 H 0.2636 0.77787 0.68733 0.0
C3939 C 0.26644 0.71399 0.59938 0.0
C3940 C 0.27775 0.73899 0.64052 0.0
H3941 H 0.26131 0.74312 0.67574 0.0
C3942 C 0.28947 0.75326 0.64365 0.0
C3943 C 0.26716 0.73541 0.6519 0.0
C3944 C 0.25471 0.71987 0.64901 0.0
C3945 C 0.29127 0.76388 0.65835 0.0
C3946 C 0.28113 0.75993 0.67002 0.0
C3947 C 0.26891 0.74609 0.66657 0.0
C3948 C 0.2844 0.76841 0.68661 0.0
C3949 C 0.30435 0.77885 0.66156 0.0
C3950 C 0.29738 0.76649 0.69549 0.0
C3951 C 0.29957 0.77241 0.71182 0.0
C3952 C 0.28884 0.78034 0.71929 0.0
C3953 C 0.27606 0.78265 0.71046 0.0
C3954 C 0.27378 0.7766 0.69408 0.0
H3955 H 0.30821 0.78261 0.65028 0.0
H3956 H 0.30091 0.78926 0.66914 0.0
H3957 H 0.31434 0.77604 0.66802 0.0
H3958 H 0.30542 0.75979 0.6899 0.0
H3959 H 0.30931 0.77031 0.71869 0.0
H3960 H 0.619 0.04478 0.81109 0.0
H3961 H 0.60677 0.0434 0.83611 0.0
H3962 H 0.6438 0.02411 0.85458 0.0
H3963 H 0.65625 0.02568 0.82969 0.0
H3964 H 0.59908 0.01253 0.85143 0.0
H3965 H 0.64019 0.0674 0.88685 0.0
H3966 H 0.63692 0.06465 0.8654 0.0
H3967 H 0.6477 0.05219 0.87413 0.0
C3968 C 0.62452 0.04029 0.82052 0.0
C3969 C 0.63846 0.03524 0.81856 0.0
C3970 C 0.61751 0.0394 0.83466 0.0
C3971 C 0.62444 0.03355 0.84693 0.0
C3972 C 0.63836 0.02854 0.84507 0.0
H3973 H 0.59071 0.04957 0.94077 0.0
H3974 H 0.60377 0.03542 0.92 0.0
C3975 C 0.64536 0.02939 0.83091 0.0
C3976 C 0.61724 0.03328 0.8619 0.0
H3977 H 0.61839 0.05614 0.89887 0.0
C3978 C 0.6034 0.02181 0.86198 0.0
C3979 C 0.62311 0.0454 0.87549 0.0
C3980 C 0.63777 0.05819 0.87559 0.0
C3981 C 0.59469 0.02279 0.87518 0.0
C3982 C 0.60007 0.03558 0.88833 0.0
C3983 C 0.61446 0.04628 0.88869 0.0
C3984 C 0.58996 0.04017 0.90047 0.0
C3985 C 0.57954 0.0107 0.87473 0.0
C3986 C 0.57789 0.04734 0.89615 0.0
C3987 C 0.57066 0.05568 0.90791 0.0
C3988 C 0.5754 0.05677 0.92404 0.0
C3989 C 0.58693 0.04884 0.92833 0.0
C3990 C 0.59426 0.04065 0.91657 0.0
H3991 H 0.57913 0.99923 0.86608 0.0
H3992 H 0.57755 0.00767 0.88675 0.0
H3993 H 0.56999 0.0162 0.87096 0.0
H3994 H 0.57472 0.04733 0.88371 0.0
H3995 H 0.56164 0.06156 0.90445 0.0
H3996 H 0.30967 0.35419 0.11199 0.0
H3997 H 0.30682 0.34478 0.13738 0.0
H3998 H 0.26179 0.31505 0.11949 0.0
H3999 H 0.26476 0.32396 0.09371 0.0
H4000 H 0.28321 0.35002 0.15709 0.0
H4001 H 0.28226 0.28355 0.14039 0.0
H4002 H 0.28928 0.29796 0.12763 0.0
H4003 H 0.26891 0.29134 0.12894 0.0
C4004 C 0.29931 0.34533 0.11323 0.0
C4005 C 0.28746 0.33984 0.10072 0.0
C4006 C 0.29765 0.34006 0.12785 0.0
C4007 C 0.28414 0.32915 0.13033 0.0
C4008 C 0.2724 0.32331 0.11779 0.0
H4009 H 0.26411 0.29207 0.21933 0.0
H4010 H 0.26096 0.29794 0.19237 0.0
C4011 C 0.27406 0.32857 0.10311 0.0
C4012 C 0.28211 0.32491 0.14644 0.0
H4013 H 0.27968 0.29368 0.16742 0.0
C4014 C 0.28237 0.33768 0.15933 0.0
C4015 C 0.28071 0.30876 0.14931 0.0
C4016 C 0.28036 0.29458 0.13589 0.0
C4017 C 0.28173 0.33486 0.17507 0.0
C4018 C 0.2812 0.31889 0.17808 0.0
C4019 C 0.28023 0.30595 0.16512 0.0
C4020 C 0.28271 0.31564 0.19462 0.0
C4021 C 0.28166 0.34906 0.18833 0.0
C4022 C 0.29588 0.32371 0.20492 0.0
C4023 C 0.29774 0.32026 0.22027 0.0
C4024 C 0.28665 0.30834 0.22555 0.0
C4025 C 0.2732 0.3007 0.21541 0.0
C4026 C 0.27131 0.30419 0.20004 0.0
H4027 H 0.27695 0.35874 0.1838 0.0
H4028 H 0.27471 0.34504 0.198 0.0
H4029 H 0.29369 0.3546 0.1935 0.0
H4030 H 0.30494 0.33244 0.20095 0.0
H4031 H 0.30817 0.32658 0.22775 0.0
H4032 H 0.24611 0.97804 0.99093 0.0
H4033 H 0.22292 0.9895 0.99209 0.0
H4034 H 0.21781 0.97964 0.03979 0.0
H4035 H 0.24048 0.96773 0.03861 0.0
H4036 H 0.1906 0.97004 0.00362 0.0
H4037 H 0.21997 0.03172 0.03756 0.0
H4038 H 0.22985 0.01918 0.02428 0.0
H4039 H 0.22556 0.01422 0.04345 0.0
C4040 C 0.23993 0.9782 0.00158 0.0
C4041 C 0.24507 0.97208 0.0147 0.0
C4042 C 0.22682 0.98478 0.00223 0.0
C4043 C 0.21889 0.98534 0.01603 0.0
C4044 C 0.22396 0.97929 0.02911 0.0
H4045 H 0.14843 0.02653 0.05834 0.0
H4046 H 0.16804 0.01064 0.05162 0.0
C4047 C 0.23694 0.97264 0.02844 0.0
C4048 C 0.20517 0.99219 0.01703 0.0
H4049 H 0.19269 0.02506 0.03567 0.0
C4050 C 0.19095 0.98215 0.01041 0.0
C4051 C 0.20595 0.00788 0.02603 0.0
C4052 C 0.22114 0.01899 0.0332 0.0
C4053 C 0.17717 0.98728 0.0131 0.0
C4054 C 0.17792 1.00285 0.02247 0.0
C4055 C 0.19224 0.01304 0.02865 0.0
C4056 C 0.16409 0.00912 0.02608 0.0
C4057 C 0.16198 0.97587 0.00645 0.0
C4058 C 0.15523 0.01301 0.01386 0.0
C4059 C 0.14407 0.022 0.01766 0.0
C4060 C 0.14186 0.02736 0.03373 0.0
C4061 C 0.15018 0.02271 0.0459 0.0
C4062 C 0.16122 0.01358 0.04208 0.0
H4063 H 0.16329 0.96313 0.00237 0.0
H4064 H 0.15345 0.9758 0.01555 0.0
H4065 H 0.15727 0.98018 0.99605 0.0
H4066 H 0.15754 0.00992 0.00148 0.0
H4067 H 0.13777 0.02552 0.00811 0.0
H4068 H 0.72049 0.61351 0.99322 0.0
H4069 H 0.69435 0.59675 0.99287 0.0
H4070 H 0.67696 0.64046 0.00561 0.0
H4071 H 0.70291 0.65728 0.00564 0.0
H4072 H 0.67472 0.59544 0.01802 0.0
H4073 H 0.64737 0.61498 0.9669 0.0
H4074 H 0.66806 0.61838 0.97082 0.0
H4075 H 0.65753 0.63163 0.98209 0.0
C4076 C 0.71108 0.6196 0.99574 0.0
C4077 C 0.71392 0.63683 0.99944 0.0
C4078 C 0.69613 0.60996 0.99563 0.0
C4079 C 0.68357 0.61728 0.99903 0.0
C4080 C 0.68635 0.63446 0.00269 0.0
H4081 H 0.58651 0.58652 0.01293 0.0
H4082 H 0.61271 0.60105 0.00988 0.0
C4083 C 0.70129 0.64409 0.00288 0.0
C4084 C 0.66766 0.60704 0.99921 0.0
H4085 H 0.63041 0.59988 0.98259 0.0
C4086 C 0.66507 0.59629 0.01016 0.0
C4087 C 0.65499 0.60811 0.98898 0.0
C4088 C 0.65709 0.61877 0.97642 0.0
C4089 C 0.65017 0.58704 0.01149 0.0
C4090 C 0.63747 0.5883 0.00142 0.0
C4091 C 0.64009 0.59888 0.99033 0.0
C4092 C 0.62131 0.57918 0.0026 0.0
C4093 C 0.64803 0.5764 0.02406 0.0
C4094 C 0.61717 0.56196 0.99918 0.0
C4095 C 0.60206 0.55355 0.00074 0.0
C4096 C 0.59072 0.56214 0.00593 0.0
C4097 C 0.59487 0.5794 0.00902 0.0
C4098 C 0.6099 0.58778 0.00727 0.0
H4099 H 0.6582 0.57942 0.03303 0.0
H4100 H 0.6376 0.57773 0.03036 0.0
H4101 H 0.64642 0.56338 0.01823 0.0
H4102 H 0.62567 0.555 0.99534 0.0
H4103 H 0.59941 0.54035 0.99824 0.0
H4104 H 0.69043 0.41701 0.27431 0.0
H4105 H 0.70451 0.39522 0.27501 0.0
H4106 H 0.74062 0.42069 0.25079 0.0
H4107 H 0.72695 0.44277 0.25052 0.0
H4108 H 0.71357 0.37246 0.25473 0.0
H4109 H 0.76818 0.41217 0.2847 0.0
H4110 H 0.75081 0.41973 0.28275 0.0
H4111 H 0.76274 0.41796 0.26633 0.0
C4112 C 0.70148 0.41832 0.26928 0.0
C4113 C 0.70725 0.43237 0.2625 0.0
C4114 C 0.70961 0.40549 0.26958 0.0
C4115 C 0.72416 0.40591 0.26331 0.0
C4116 C 0.72981 0.41974 0.25625 0.0
H4117 H 0.78073 0.32699 0.24798 0.0
H4118 H 0.76831 0.34996 0.24474 0.0
C4119 C 0.72166 0.43254 0.25589 0.0
C4120 C 0.73317 0.39204 0.26404 0.0
H4121 H 0.76884 0.3845 0.27476 0.0
C4122 C 0.72566 0.37531 0.25913 0.0
C4123 C 0.74911 0.39501 0.26981 0.0
C4124 C 0.75817 0.41215 0.27635 0.0
C4125 C 0.73337 0.3621 0.25962 0.0
C4126 C 0.74927 0.36512 0.26525 0.0
C4127 C 0.7568 0.38177 0.27018 0.0
C4128 C 0.75772 0.35118 0.26715 0.0
C4129 C 0.72438 0.34474 0.25411 0.0
C4130 C 0.75647 0.34384 0.28084 0.0
C4131 C 0.7638 0.33084 0.28281 0.0
C4132 C 0.77285 0.32425 0.27121 0.0
C4133 C 0.77421 0.3316 0.25743 0.0
C4134 C 0.76692 0.34483 0.25552 0.0
H4135 H 0.71254 0.34414 0.24885 0.0
H4136 H 0.73059 0.33817 0.24508 0.0
H4137 H 0.72351 0.33824 0.2644 0.0
H4138 H 0.74962 0.34811 0.29014 0.0
H4139 H 0.76218 0.32574 0.29358 0.0
H4140 H 0.88799 0.50263 0.56109 0.0
H4141 H 0.91613 0.51162 0.56184 0.0
H4142 H 0.91239 0.50998 0.51093 0.0
H4143 H 0.88444 0.50072 0.50999 0.0
H4144 H 0.92689 0.48476 0.52895 0.0
H4145 H 0.95087 0.55203 0.54558 0.0
H4146 H 0.93408 0.54222 0.55433 0.0
H4147 H 0.93259 0.54414 0.53374 0.0
C4148 C 0.89316 0.50488 0.55019 0.0
C4149 C 0.88416 0.50078 0.53545 0.0
C4150 C 0.90915 0.51005 0.55066 0.0
C4151 C 0.91612 0.51131 0.53643 0.0
C4152 C 0.90704 0.50916 0.52202 0.0
H4153 H 0.00511 0.53288 0.50721 0.0
H4154 H 0.97837 0.52914 0.5121 0.0
C4155 C 0.89108 0.50396 0.52152 0.0
C4156 C 0.93246 0.51099 0.53581 0.0
H4157 H 0.96829 0.5353 0.53804 0.0
C4158 C 0.93607 0.49574 0.53095 0.0
C4159 C 0.94409 0.52538 0.53858 0.0
C4160 C 0.94036 0.54195 0.54337 0.0
C4161 C 0.95109 0.49452 0.52767 0.0
C4162 C 0.96284 0.50902 0.53003 0.0
C4163 C 0.95926 0.5242 0.53602 0.0
C4164 C 0.9785 0.50915 0.5249 0.0
C4165 C 0.95382 0.47785 0.52085 0.0
C4166 C 0.98741 0.4986 0.52954 0.0
C4167 C 1.00238 0.49955 0.52492 0.0
C4168 C 0.00904 0.51182 0.51654 0.0
C4169 C 1.00013 0.52248 0.51229 0.0
C4170 C 0.9849 0.52076 0.51581 0.0
H4171 H 0.9429 0.46908 0.51572 0.0
H4172 H 0.96192 0.47857 0.51136 0.0
H4173 H 0.9588 0.47276 0.53055 0.0
H4174 H 0.98305 0.49001 0.53716 0.0
H4175 H 0.00911 0.49152 0.52899 0.0
H4176 H 0.38737 0.12589 0.28785 0.0
H4177 H 0.37442 0.14806 0.28489 0.0
H4178 H 0.3348 0.12388 0.30583 0.0
H4179 H 0.34789 0.10162 0.30903 0.0
H4180 H 0.33457 0.13137 0.26936 0.0
H4181 H 0.3562 0.18335 0.32003 0.0
H4182 H 0.36942 0.1711 0.31226 0.0
H4183 H 0.35348 0.16217 0.32236 0.0
C4184 C 0.37607 0.12557 0.29221 0.0
C4185 C 0.3685 0.11217 0.29858 0.0
C4186 C 0.36876 0.13821 0.29061 0.0
C4187 C 0.3538 0.13754 0.29529 0.0
C4188 C 0.34647 0.12459 0.30239 0.0
H4189 H 0.29709 0.20198 0.26696 0.0
H4190 H 0.30832 0.18526 0.28296 0.0
C4191 C 0.35389 0.11197 0.30419 0.0
C4192 C 0.34516 0.14898 0.29022 0.0
H4193 H 0.34318 0.18915 0.2973 0.0
C4194 C 0.33613 0.14392 0.2756 0.0
C4195 C 0.34749 0.16527 0.2984 0.0
C4196 C 0.35712 0.17091 0.3142 0.0
C4197 C 0.32983 0.15505 0.26853 0.0
C4198 C 0.33272 0.17155 0.27636 0.0
C4199 C 0.34114 0.17646 0.29137 0.0
C4200 C 0.32754 0.18387 0.26859 0.0
C4201 C 0.32064 0.14926 0.25247 0.0
C4202 C 0.33503 0.18897 0.25564 0.0
C4203 C 0.32874 0.19856 0.24655 0.0
C4204 C 0.31482 0.2031 0.25026 0.0
C4205 C 0.30787 0.19876 0.26386 0.0
C4206 C 0.31422 0.18919 0.27299 0.0
H4207 H 0.31709 0.13568 0.24945 0.0
H4208 H 0.31015 0.15441 0.25221 0.0
H4209 H 0.32782 0.1536 0.24309 0.0
H4210 H 0.3454 0.18495 0.2522 0.0
H4211 H 0.3345 0.202 0.23632 0.0
H4212 H 0.36094 0.13675 0.47962 0.0
H4213 H 0.38257 0.123 0.48075 0.0
H4214 H 0.39552 0.14749 0.52955 0.0
H4215 H 0.37432 0.16158 0.52846 0.0
H4216 H 0.41833 0.13799 0.49327 0.0
H4217 H 0.38356 0.09467 0.52689 0.0
H4218 H 0.37484 0.10574 0.51399 0.0
H4219 H 0.38394 0.11606 0.53331 0.0
C4220 C 0.36856 0.13947 0.4905 0.0
C4221 C 0.36567 0.1501 0.50404 0.0
C4222 C 0.38091 0.13158 0.49111 0.0
C4223 C 0.39056 0.13415 0.50527 0.0
C4224 C 0.38814 0.14526 0.51854 0.0
H4225 H 0.45553 0.08971 0.54887 0.0
H4226 H 0.43833 0.10681 0.54158 0.0
C4227 C 0.37589 0.15318 0.51793 0.0
C4228 C 0.40234 0.1243 0.50684 0.0
H4229 H 0.40982 0.09382 0.52538 0.0
C4230 C 0.41648 0.12821 0.50014 0.0
C4231 C 0.39985 0.11157 0.51579 0.0
C4232 C 0.38471 0.10661 0.52285 0.0
C4233 C 0.42843 0.12006 0.50272 0.0
C4234 C 0.42605 0.10759 0.51206 0.0
C4235 C 0.41172 0.10345 0.51833 0.0
C4236 C 0.43826 0.09892 0.51607 0.0
C4237 C 0.44368 0.12526 0.49594 0.0
C4238 C 0.4443 0.08904 0.50415 0.0
C4239 C 0.45425 0.07928 0.50832 0.0
C4240 C 0.45814 0.07905 0.52447 0.0
C4241 C 0.45258 0.08945 0.53633 0.0
C4242 C 0.44278 0.09927 0.53217 0.0
H4243 H 0.44481 0.13728 0.49209 0.0
H4244 H 0.45347 0.12606 0.50487 0.0
H4245 H 0.44459 0.116 0.48537 0.0
H4246 H 0.44079 0.08831 0.49165 0.0
H4247 H 0.45828 0.0713 0.49893 0.0
H4248 H 0.69591 0.6066 0.25196 0.0
H4249 H 0.70959 0.63496 0.25282 0.0
H4250 H 0.74233 0.63058 0.28984 0.0
H4251 H 0.72896 0.60208 0.2888 0.0
H4252 H 0.71555 0.66265 0.27617 0.0
H4253 H 0.77218 0.65026 0.26054 0.0
H4254 H 0.75494 0.63417 0.25833 0.0
H4255 H 0.76522 0.64229 0.27768 0.0
C4256 C 0.70614 0.61142 0.26019 0.0
C4257 C 0.71114 0.60143 0.27021 0.0
C4258 C 0.71399 0.62795 0.26075 0.0
C4259 C 0.7274 0.63534 0.27119 0.0
C4260 C 0.73234 0.62548 0.28133 0.0
H4261 H 0.79338 0.73365 0.28543 0.0
H4262 H 0.78024 0.70526 0.28604 0.0
C4263 C 0.72443 0.60898 0.28085 0.0
C4264 C 0.73586 0.65326 0.27166 0.0
H4265 H 0.77114 0.67807 0.26796 0.0
C4266 C 0.72771 0.66592 0.27431 0.0
C4267 C 0.75187 0.65808 0.26948 0.0
C4268 C 0.76158 0.64551 0.26621 0.0
C4269 C 0.73489 0.68277 0.27514 0.0
C4270 C 0.75085 0.68762 0.27251 0.0
C4271 C 0.75901 0.6749 0.26994 0.0
C4272 C 0.75917 0.70554 0.27224 0.0
C4273 C 0.7252 0.69518 0.27958 0.0
C4274 C 0.75231 0.71585 0.26413 0.0
C4275 C 0.75976 0.73234 0.26411 0.0
C4276 C 0.77478 0.73938 0.27165 0.0
C4277 C 0.78192 0.72899 0.27938 0.0
C4278 C 0.77428 0.71252 0.27972 0.0
H4279 H 0.71582 0.69055 0.2869 0.0
H4280 H 0.73224 0.70691 0.28643 0.0
H4281 H 0.71961 0.69752 0.26853 0.0
H4282 H 0.74112 0.71114 0.25753 0.0
H4283 H 0.75366 0.73954 0.25789 0.0
H4284 H 0.85179 0.4584 0.79847 0.0
H4285 H 0.83548 0.43106 0.79319 0.0
H4286 H 0.8237 0.43619 0.74489 0.0
H4287 H 0.8397 0.46418 0.75025 0.0
H4288 H 0.80192 0.41651 0.77737 0.0
H4289 H 0.85179 0.40006 0.74604 0.0
H4290 H 0.85444 0.41894 0.76022 0.0
H4291 H 0.84351 0.41656 0.74139 0.0
C4292 C 0.84527 0.45405 0.78691 0.0
C4293 C 0.84703 0.46335 0.77472 0.0
C4294 C 0.83598 0.43844 0.78394 0.0
C4295 C 0.82849 0.43185 0.76871 0.0
C4296 C 0.82942 0.44131 0.75672 0.0
H4297 H 0.78879 0.32809 0.76043 0.0
H4298 H 0.79075 0.35642 0.75834 0.0
C4299 C 0.83866 0.45711 0.75975 0.0
C4300 C 0.82217 0.41428 0.76512 0.0
H4301 H 0.83521 0.37931 0.75571 0.0
C4302 C 0.80882 0.40816 0.77219 0.0
C4303 C 0.8315 0.40376 0.75852 0.0
C4304 C 0.84613 0.41005 0.75108 0.0
C4305 C 0.8052 0.3918 0.77402 0.0
C4306 C 0.8152 0.38157 0.76848 0.0
C4307 C 0.82781 0.38741 0.76021 0.0
C4308 C 0.81323 0.36486 0.77152 0.0
C4309 C 0.79152 0.386 0.78299 0.0
C4310 C 0.82536 0.36024 0.77953 0.0
C4311 C 0.82449 0.34384 0.78028 0.0
C4312 C 0.81131 0.33211 0.77343 0.0
C4313 C 0.79893 0.33693 0.76613 0.0
C4314 C 0.79997 0.35316 0.76499 0.0
H4315 H 0.78689 0.39629 0.78925 0.0
H4316 H 0.78212 0.37779 0.77452 0.0
H4317 H 0.79486 0.37898 0.79189 0.0
H4318 H 0.83572 0.36925 0.78462 0.0
H4319 H 0.83417 0.34026 0.78583 0.0
H4320 H 0.05303 0.88866 0.08157 0.0
H4321 H 0.05 0.91254 0.07053 0.0
H4322 H 0.08268 0.90334 0.03633 0.0
H4323 H 0.08553 0.87891 0.04708 0.0
H4324 H 0.07514 0.94007 0.06911 0.0
H4325 H 0.04563 0.91167 0.00874 0.0
H4326 H 0.04574 0.89999 0.02462 0.0
H4327 H 0.063 0.90584 0.015 0.0
C4328 C 0.0594 0.8914 0.07149 0.0
C4329 C 0.06945 0.88158 0.06521 0.0
C4330 C 0.0577 0.90522 0.06523 0.0
C4331 C 0.06593 0.90973 0.05244 0.0
C4332 C 0.07598 0.90002 0.04603 0.0
H4333 H 0.05713 0.99527 0.00763 0.0
H4334 H 0.0621 0.96869 0.01167 0.0
C4335 C 0.07774 0.88613 0.05234 0.0
C4336 C 0.06453 0.92521 0.0468 0.0
H4337 H 0.04876 0.9402 0.0165 0.0
C4338 C 0.06945 0.94008 0.05756 0.0
C4339 C 0.05753 0.9254 0.03155 0.0
C4340 C 0.05259 0.90991 0.01924 0.0
C4341 C 0.0672 0.95498 0.05378 0.0
C4342 C 0.05894 0.95506 0.03907 0.0
C4343 C 0.05471 0.94026 0.02793 0.0
C4344 C 0.05431 0.97027 0.03549 0.0
C4345 C 0.07407 0.97048 0.06562 0.0
C4346 C 0.04751 0.97978 0.04703 0.0
C4347 C 0.04532 0.99517 0.04499 0.0
C4348 C 0.04869 1.00103 0.03083 0.0
C4349 C 0.05414 0.99095 0.01857 0.0
C4350 C 0.05705 0.97576 0.02093 0.0
H4351 H 0.08459 0.96926 0.07249 0.0
H4352 H 0.07724 0.98121 0.05963 0.0
H4353 H 0.06559 0.97286 0.07436 0.0
H4354 H 0.04445 0.97562 0.05801 0.0
H4355 H 0.04123 1.0027 0.0547 0.0
H4356 H 0.95126 0.2795 0.85565 0.0
H4357 H 0.92753 0.2807 0.84052 0.0
H4358 H 0.9004 0.25443 0.87229 0.0
H4359 H 0.92408 0.25348 0.88775 0.0
H4360 H 0.90327 0.2557 0.8241 0.0
H4361 H 0.88071 0.29395 0.87278 0.0
H4362 H 0.90045 0.29162 0.87371 0.0
H4363 H 0.88521 0.27562 0.87771 0.0
C4364 C 0.94028 0.2741 0.85961 0.0
C4365 C 0.93982 0.26652 0.87317 0.0
C4366 C 0.92663 0.27471 0.8508 0.0
C4367 C 0.91197 0.26792 0.85529 0.0
C4368 C 0.91144 0.26008 0.86864 0.0
H4369 H 0.81733 0.2698 0.81687 0.0
H4370 H 0.83943 0.26533 0.83288 0.0
C4371 C 0.9251 0.25938 0.87742 0.0
C4372 C 0.89739 0.26892 0.8459 0.0
H4373 H 0.86459 0.28425 0.84876 0.0
C4374 C 0.89483 0.26196 0.82954 0.0
C4375 C 0.88615 0.27693 0.85284 0.0
C4376 C 0.88825 0.28509 0.87019 0.0
C4377 C 0.8815 0.26263 0.82008 0.0
C4378 C 0.87042 0.27104 0.8269 0.0
C4379 C 0.8729 0.2778 0.84334 0.0
C4380 C 0.85664 0.27351 0.8171 0.0
C4381 C 0.87934 0.25388 0.8029 0.0
C4382 C 0.85865 0.27997 0.803 0.0
C4383 C 0.84603 0.28232 0.7938 0.0
C4384 C 0.83083 0.27857 0.79837 0.0
C4385 C 0.82877 0.27264 0.81278 0.0
C4386 C 0.84148 0.2701 0.82198 0.0
H4387 H 0.88523 0.24348 0.80125 0.0
H4388 H 0.86692 0.24911 0.79873 0.0
H4389 H 0.88456 0.26252 0.79522 0.0
H4390 H 0.87011 0.2835 0.79916 0.0
H4391 H 0.84833 0.2876 0.78324 0.0
H4392 H 0.56973 0.22457 0.5346 0.0
H4393 H 0.56678 0.19502 0.5243 0.0
H4394 H 0.55861 0.18502 0.5715 0.0
H4395 H 0.5614 0.21433 0.58164 0.0
H4396 H 0.58336 0.17254 0.53339 0.0
H4397 H 0.52185 0.15411 0.54396 0.0
H4398 H 0.53122 0.17511 0.54383 0.0
H4399 H 0.5331 0.16643 0.56151 0.0
C4400 C 0.56722 0.21597 0.54268 0.0
C4401 C 0.56568 0.22162 0.55887 0.0
C4402 C 0.56558 0.19914 0.53682 0.0
C4403 C 0.56223 0.18772 0.54706 0.0
C4404 C 0.56086 0.19349 0.56327 0.0
H4405 H 0.55487 0.08979 0.55826 0.0
H4406 H 0.55892 0.11935 0.55929 0.0
C4407 C 0.56252 0.21023 0.56909 0.0
C4408 C 0.56041 0.16977 0.54117 0.0
H4409 H 0.53626 0.1329 0.54195 0.0
C4410 C 0.57296 0.16385 0.53497 0.0
C4411 C 0.54676 0.15838 0.54296 0.0
C4412 C 0.53241 0.16382 0.54826 0.0
C4413 C 0.57259 0.14691 0.53164 0.0
C4414 C 0.55937 0.13566 0.53465 0.0
C4415 C 0.54651 0.14154 0.53992 0.0
C4416 C 0.55896 0.1179 0.53372 0.0
C4417 C 0.5866 0.14114 0.5258 0.0
C4418 C 0.55797 0.10722 0.51899 0.0
C4419 C 0.55565 0.09024 0.51839 0.0
C4420 C 0.55438 0.08368 0.53251 0.0
C4421 C 0.55597 0.09449 0.54721 0.0
C4422 C 0.55823 0.11137 0.54781 0.0
H4423 H 0.59632 0.15148 0.5249 0.0
H4424 H 0.59051 0.13369 0.53402 0.0
H4425 H 0.58355 0.13321 0.51383 0.0
H4426 H 0.5583 0.11193 0.50794 0.0
H4427 H 0.55413 0.08225 0.50684 0.0
H4428 H 0.60506 0.79819 0.39525 0.0
H4429 H 0.62837 0.80015 0.38088 0.0
H4430 H 0.60832 0.75381 0.35048 0.0
H4431 H 0.58473 0.75209 0.36424 0.0
H4432 H 0.64986 0.78178 0.37615 0.0
H4433 H 0.62032 0.78127 0.31729 0.0
H4434 H 0.61087 0.7836 0.33551 0.0
H4435 H 0.61244 0.76361 0.32564 0.0
C4436 C 0.60544 0.78849 0.38535 0.0
C4437 C 0.5927 0.77507 0.38091 0.0
C4438 C 0.61894 0.78957 0.3772 0.0
C4439 C 0.62017 0.77732 0.36426 0.0
C4440 C 0.60767 0.76369 0.36009 0.0
H4441 H 0.68996 0.76567 0.29582 0.0
H4442 H 0.66873 0.76077 0.31312 0.0
C4443 C 0.59416 0.76262 0.3682 0.0
C4444 C 0.63439 0.77887 0.3551 0.0
H4445 H 0.64647 0.77906 0.31747 0.0
C4446 C 0.64907 0.78123 0.36333 0.0
C4447 C 0.6336 0.7782 0.3383 0.0
C4448 C 0.61849 0.7767 0.32867 0.0
C4449 C 0.66275 0.78266 0.35529 0.0
C4450 C 0.66191 0.78193 0.3385 0.0
C4451 C 0.64725 0.77951 0.33029 0.0
C4452 C 0.67601 0.7841 0.32919 0.0
C4453 C 0.67798 0.78463 0.36485 0.0
C4454 C 0.68747 0.79874 0.33244 0.0
C4455 C 0.69964 0.80151 0.32254 0.0
C4456 C 0.70079 0.78968 0.30919 0.0
C4457 C 0.68964 0.77484 0.30623 0.0
C4458 C 0.6774 0.77211 0.31606 0.0
H4459 H 0.67636 0.78033 0.37639 0.0
H4460 H 0.68566 0.77777 0.35804 0.0
H4461 H 0.68386 0.79778 0.36753 0.0
H4462 H 0.68662 0.80839 0.34221 0.0
H4463 H 0.70779 0.81325 0.32489 0.0
H4464 H 0.0541 0.24489 0.43582 0.0
H4465 H 0.0491 0.22224 0.45054 0.0
H4466 H 0.09406 0.21281 0.44181 0.0
H4467 H 0.09906 0.23517 0.42671 0.0
H4468 H 0.05095 0.18784 0.43727 0.0
H4469 H 0.09081 0.21734 0.49166 0.0
H4470 H 0.08341 0.2291 0.47851 0.0
H4471 H 0.09826 0.21852 0.47252 0.0
C4472 C 0.06288 0.23791 0.43691 0.0
C4473 C 0.07695 0.24176 0.43004 0.0
C4474 C 0.06003 0.22508 0.44539 0.0
C4475 C 0.07126 0.216 0.44727 0.0
C4476 C 0.08536 0.21985 0.44059 0.0
H4477 H 0.07037 0.1372 0.50098 0.0
H4478 H 0.07753 0.15664 0.48297 0.0
C4479 C 0.08819 0.23264 0.43203 0.0
C4480 C 0.06798 0.2022 0.45589 0.0
H4481 H 0.07715 0.19022 0.49066 0.0
C4482 C 0.05668 0.18828 0.44893 0.0
C4483 C 0.07563 0.20289 0.47098 0.0
C4484 C 0.08766 0.21777 0.47898 0.0
C4485 C 0.05269 0.17499 0.4568 0.0
C4486 C 0.06 0.17586 0.47213 0.0
C4487 C 0.07158 0.18963 0.4789 0.0
C4488 C 0.05525 0.16307 0.48178 0.0
C4489 C 0.04076 0.16011 0.44865 0.0
C4490 C 0.04036 0.16028 0.48702 0.0
C4491 C 0.03627 0.14927 0.49735 0.0
C4492 C 0.04702 0.14086 0.5026 0.0
C4493 C 0.06183 0.14344 0.49706 0.0
C4494 C 0.06594 0.15454 0.48681 0.0
H4495 H 0.03955 0.15943 0.4355 0.0
H4496 H 0.04377 0.14868 0.45116 0.0
H4497 H 0.02938 0.16078 0.45322 0.0
H4498 H 0.03202 0.16694 0.48343 0.0
H4499 H 0.02472 0.14736 0.50128 0.0
H4500 H 0.5866 0.29222 0.19315 0.0
H4501 H 0.61319 0.29284 0.20245 0.0
H4502 H 0.59826 0.24605 0.21661 0.0
H4503 H 0.57149 0.24551 0.20789 0.0
H4504 H 0.62537 0.28649 0.23557 0.0
H4505 H 0.63162 0.24337 0.18068 0.0
H4506 H 0.61757 0.25603 0.18152 0.0
H4507 H 0.61423 0.23807 0.19044 0.0
C4508 C 0.58888 0.28226 0.19864 0.0
C4509 C 0.57697 0.26874 0.1997 0.0
C4510 C 0.60407 0.2826 0.2038 0.0
C4511 C 0.60752 0.26938 0.2099 0.0
C4512 C 0.59567 0.25624 0.21169 0.0
H4513 H 0.67949 0.22982 0.24184 0.0
H4514 H 0.65664 0.23616 0.2295 0.0
C4515 C 0.58045 0.25593 0.20667 0.0
C4516 C 0.6236 0.2689 0.21387 0.0
H4517 H 0.65127 0.24828 0.20201 0.0
C4518 C 0.6312 0.27835 0.22821 0.0
C4519 C 0.631 0.25835 0.20401 0.0
C4520 C 0.62328 0.24843 0.18822 0.0
C4521 C 0.64585 0.27672 0.23353 0.0
C4522 C 0.65301 0.26556 0.22402 0.0
C4523 C 0.64567 0.25676 0.20925 0.0
C4524 C 0.66733 0.26162 0.22997 0.0
C4525 C 0.65311 0.28625 0.24966 0.0
C4526 C 0.68091 0.27377 0.23394 0.0
C4527 C 0.69381 0.27032 0.24141 0.0
C4528 C 0.69344 0.25452 0.24464 0.0
C4529 C 0.68003 0.24217 0.23986 0.0
C4530 C 0.66705 0.24572 0.23262 0.0
H4531 H 0.64469 0.29169 0.25677 0.0
H4532 H 0.658 0.27831 0.25665 0.0
H4533 H 0.66265 0.2964 0.24795 0.0
H4534 H 0.68138 0.28603 0.23169 0.0
H4535 H 0.70389 0.2802 0.24506 0.0
H4536 H 0.60634 0.90515 0.91204 0.0
H4537 H 0.59975 0.93054 0.92451 0.0
H4538 H 0.61203 0.92108 0.97111 0.0
H4539 H 0.61836 0.89541 0.95864 0.0
H4540 H 0.58063 0.92069 0.96436 0.0
H4541 H 0.61869 0.97653 0.95023 0.0
H4542 H 0.6121 0.95998 0.93359 0.0
H4543 H 0.62484 0.95746 0.94955 0.0
C4544 C 0.6084 0.90893 0.9249 0.0
C4545 C 0.6127 0.8984 0.93448 0.0
C4546 C 0.60463 0.92342 0.932 0.0
C4547 C 0.60538 0.92753 0.94868 0.0
C4548 C 0.61142 0.91798 0.95819 0.0
H4549 H 0.57857 1.00129 0.01227 0.0
H4550 H 0.58847 0.97848 0.99909 0.0
C4551 C 0.61504 0.90342 0.95111 0.0
C4552 C 0.59691 0.9395 0.95603 0.0
H4553 H 0.59532 0.97969 0.96141 0.0
C4554 C 0.58387 0.93362 0.9638 0.0
C4555 C 0.60107 0.95619 0.95491 0.0
C4556 C 0.615 0.96299 0.94672 0.0
C4557 C 0.575 0.94419 0.97082 0.0
C4558 C 0.57933 0.96087 0.9699 0.0
C4559 C 0.59213 0.96674 0.96188 0.0
C4560 C 0.5717 0.97281 0.97858 0.0
C4561 C 0.56126 0.93765 0.97943 0.0
C4562 C 0.55888 0.97681 0.97138 0.0
C4563 C 0.55304 0.98978 0.97905 0.0
C4564 C 0.55997 0.99872 0.99399 0.0
C4565 C 0.57258 0.99428 0.0012 0.0
C4566 C 0.57839 0.98138 0.99358 0.0
H4567 H 0.55917 0.92417 0.97862 0.0
H4568 H 0.56316 0.94359 0.99222 0.0
H4569 H 0.55075 0.94074 0.9743 0.0
H4570 H 0.55374 0.97026 0.95968 0.0
H4571 H 0.54335 0.993 0.97315 0.0
H4572 H 0.92059 0.76834 0.68257 0.0
H4573 H 0.89935 0.76994 0.69958 0.0
H4574 H 0.92197 0.74938 0.73457 0.0
H4575 H 0.94329 0.74762 0.71743 0.0
H4576 H 0.8805 0.74305 0.71606 0.0
H4577 H 0.91745 0.79886 0.75455 0.0
H4578 H 0.9216 0.79203 0.73431 0.0
H4579 H 0.92484 0.78058 0.7495 0.0
C4580 C 0.92085 0.76394 0.69378 0.0
C4581 C 0.93346 0.75806 0.69893 0.0
C4582 C 0.90879 0.76479 0.70339 0.0
C4583 C 0.90937 0.75992 0.71826 0.0
C4584 C 0.92154 0.75321 0.72309 0.0
H4585 H 0.8395 0.7751 0.78327 0.0
H4586 H 0.86545 0.77388 0.77512 0.0
C4587 C 0.93358 0.7522 0.71337 0.0
C4588 C 0.89776 0.76332 0.72907 0.0
H4589 H 0.89082 0.79328 0.75798 0.0
C4590 C 0.88275 0.75378 0.72549 0.0
C4591 C 0.90095 0.77741 0.74121 0.0
C4592 C 0.91706 0.78792 0.7452 0.0
C4593 C 0.87056 0.7584 0.7334 0.0
C4594 C 0.87359 0.77309 0.74483 0.0
C4595 C 0.88871 0.78215 0.74906 0.0
C4596 C 0.86082 0.77937 0.75172 0.0
C4597 C 0.85445 0.74787 0.72901 0.0
C4598 C 0.8503 0.78388 0.74153 0.0
C4599 C 0.83555 0.78416 0.74597 0.0
C4600 C 0.83155 0.78072 0.7609 0.0
C4601 C 0.84262 0.77804 0.7718 0.0
C4602 C 0.85735 0.77742 0.76722 0.0
H4603 H 0.85469 0.73517 0.72331 0.0
H4604 H 0.8478 0.74738 0.73968 0.0
H4605 H 0.84822 0.75319 0.72035 0.0
H4606 H 0.85291 0.78537 0.7295 0.0
H4607 H 0.8269 0.78554 0.73721 0.0
H4608 H 0.11022 0.9846 0.84623 0.0
H4609 H 0.09855 0.98678 0.87173 0.0
H4610 H 0.1065 0.03903 0.87547 0.0
H4611 H 0.11849 0.03711 0.85031 0.0
H4612 H 0.10893 1.0017 0.90262 0.0
H4613 H 0.06163 0.02968 0.88444 0.0
H4614 H 0.07322 0.02074 0.87016 0.0
H4615 H 0.08031 0.04114 0.88139 0.0
C4616 C 0.10969 0.99667 0.85238 0.0
C4617 C 0.11552 0.01063 0.84555 0.0
C4618 C 0.10281 0.99788 0.86717 0.0
C4619 C 0.10119 0.01307 0.87586 0.0
C4620 C 0.10704 0.02701 0.86915 0.0
H4621 H 0.08511 0.04221 0.97772 0.0
H4622 H 0.09536 0.03754 0.95153 0.0
C4623 C 0.114 0.02584 0.85446 0.0
C4624 C 0.09381 0.01444 0.89192 0.0
H4625 H 0.06588 0.02998 0.91235 0.0
C4626 C 0.09951 0.00789 0.90461 0.0
C4627 C 0.08122 0.02222 0.89497 0.0
C4628 C 0.0736 0.02871 0.88199 0.0
C4629 C 0.09353 0.00942 0.91993 0.0
C4630 C 0.08136 0.01772 0.92311 0.0
C4631 C 0.07531 0.02379 0.91032 0.0
C4632 C 0.07497 0.02029 0.93958 0.0
C4633 C 0.1002 1.00192 0.93269 0.0
C4634 C 0.05994 0.01223 0.9422 0.0
C4635 C 0.05405 0.01472 0.95745 0.0
C4636 C 0.06277 0.02565 0.97076 0.0
C4637 C 0.07783 0.03368 0.96806 0.0
C4638 C 0.0838 0.031 0.9529 0.0
H4639 H 0.10781 0.99376 0.92786 0.0
H4640 H 0.10707 0.0118 0.9421 0.0
H4641 H 0.09077 0.99476 0.93841 0.0
H4642 H 0.05271 0.00383 0.9324 0.0
H4643 H 0.04257 0.00802 0.95873 0.0
H4644 H 0.79587 0.39758 0.59402 0.0
H4645 H 0.79392 0.3839 0.61715 0.0
H4646 H 0.83206 0.36212 0.60312 0.0
H4647 H 0.83385 0.37538 0.57968 0.0
H4648 H 0.79101 0.34568 0.61138 0.0
H4649 H 0.83913 0.38537 0.65369 0.0
H4650 H 0.82905 0.39299 0.63866 0.0
H4651 H 0.84305 0.38109 0.63305 0.0
C4652 C 0.80381 0.38984 0.59589 0.0
C4653 C 0.81486 0.38725 0.58506 0.0
C4654 C 0.80275 0.38222 0.60908 0.0
C4655 C 0.81286 0.37218 0.61161 0.0
C4656 C 0.82428 0.37002 0.60121 0.0
H4657 H 0.8251 0.29488 0.65493 0.0
H4658 H 0.81734 0.31195 0.63681 0.0
C4659 C 0.8253 0.37756 0.58794 0.0
C4660 C 0.81084 0.36282 0.6244 0.0
H4661 H 0.82918 0.35862 0.65875 0.0
C4662 C 0.79911 0.34856 0.62194 0.0
C4663 C 0.82139 0.36696 0.63806 0.0
C4664 C 0.83383 0.3825 0.64117 0.0
C4665 C 0.7983 0.3376 0.63252 0.0
C4666 C 0.80958 0.34115 0.64556 0.0
C4667 C 0.82065 0.35598 0.64856 0.0
C4668 C 0.81106 0.32925 0.65568 0.0
C4669 C 0.78577 0.32216 0.62949 0.0
C4670 C 0.81008 0.33356 0.67205 0.0
C4671 C 0.81487 0.32424 0.68231 0.0
C4672 C 0.82045 0.31025 0.67631 0.0
C4673 C 0.82086 0.30559 0.65979 0.0
C4674 C 0.8162 0.31512 0.64949 0.0
H4675 H 0.77599 0.32315 0.62135 0.0
H4676 H 0.7906 0.31177 0.62384 0.0
H4677 H 0.78132 0.31932 0.64088 0.0
H4678 H 0.8064 0.34463 0.67695 0.0
H4679 H 0.81481 0.32846 0.69503 0.0
H4680 H 0.47497 0.07283 0.35796 0.0
H4681 H 0.49391 0.07753 0.38105 0.0
H4682 H 0.46614 0.0373 0.39876 0.0
H4683 H 0.44699 0.03266 0.37586 0.0
H4684 H 0.48702 0.08118 0.41704 0.0
H4685 H 0.51159 0.02832 0.39129 0.0
H4686 H 0.50113 0.03867 0.37911 0.0
H4687 H 0.49086 0.02464 0.39053 0.0
C4688 C 0.4728 0.06517 0.36693 0.0
C4689 C 0.45963 0.05233 0.3652 0.0
C4690 C 0.48361 0.06785 0.37999 0.0
C4691 C 0.48132 0.05765 0.39131 0.0
C4692 C 0.468 0.04514 0.3899 0.0
H4693 H 0.50751 0.03696 0.47604 0.0
H4694 H 0.49685 0.04361 0.45184 0.0
C4695 C 0.45718 0.04246 0.37687 0.0
C4696 C 0.49311 0.05955 0.40438 0.0
H4697 H 0.51811 0.03922 0.41905 0.0
C4698 C 0.49416 0.07232 0.41741 0.0
C4699 C 0.5023 0.04791 0.40455 0.0
C4700 C 0.50155 0.03415 0.39058 0.0
C4701 C 0.5035 0.07301 0.43128 0.0
C4702 C 0.51191 0.06075 0.43179 0.0
C4703 C 0.51168 0.04867 0.41836 0.0
C4704 C 0.51848 0.05827 0.4469 0.0
C4705 C 0.50356 0.08604 0.4457 0.0
C4706 C 0.53413 0.06446 0.45188 0.0
C4707 C 0.54031 0.06077 0.46579 0.0
C4708 C 0.53088 0.05064 0.47456 0.0
C4709 C 0.51513 0.04468 0.4695 0.0
C4710 C 0.50898 0.04851 0.45575 0.0
H4711 H 0.49819 0.09596 0.44269 0.0
H4712 H 0.49702 0.0804 0.45488 0.0
H4713 H 0.51558 0.09143 0.45103 0.0
H4714 H 0.54152 0.07198 0.44497 0.0
H4715 H 0.55241 0.06582 0.4696 0.0
H4716 H 0.81268 0.76765 0.0887 0.0
H4717 H 0.81305 0.77985 0.11713 0.0
H4718 H 0.78987 0.73303 0.12676 0.0
H4719 H 0.78948 0.72081 0.09862 0.0
H4720 H 0.78278 0.77585 0.13749 0.0
H4721 H 0.83285 0.75246 0.15791 0.0
H4722 H 0.8302 0.75662 0.13796 0.0
H4723 H 0.8189 0.73846 0.14324 0.0
C4724 C 0.8077 0.75997 0.09691 0.0
C4725 C 0.80093 0.74327 0.09137 0.0
C4726 C 0.80785 0.76698 0.1131 0.0
C4727 C 0.80142 0.75733 0.12399 0.0
C4728 C 0.79482 0.74069 0.11851 0.0
H4729 H 0.78896 0.74915 0.2191 0.0
H4730 H 0.79042 0.74757 0.19039 0.0
C4731 C 0.79454 0.73374 0.10241 0.0
C4732 C 0.80164 0.76426 0.14123 0.0
H4733 H 0.81697 0.76111 0.17775 0.0
C4734 C 0.79042 0.77295 0.14636 0.0
C4735 C 0.81168 0.7605 0.1527 0.0
C4736 C 0.82419 0.7516 0.14777 0.0
C4737 C 0.78831 0.77701 0.16273 0.0
C4738 C 0.79777 0.77234 0.17417 0.0
C4739 C 0.80961 0.76455 0.16899 0.0
C4740 C 0.79475 0.77376 0.19134 0.0
C4741 C 0.77544 0.78539 0.16761 0.0
C4742 C 0.79611 0.78901 0.20145 0.0
C4743 C 0.79503 0.78991 0.21798 0.0
C4744 C 0.79269 0.77556 0.22457 0.0
C4745 C 0.79068 0.76037 0.21432 0.0
C4746 C 0.7916 0.75947 0.19792 0.0
H4747 H 0.76755 0.78567 0.15719 0.0
H4748 H 0.76859 0.77915 0.17625 0.0
H4749 H 0.78047 0.7982 0.17358 0.0
H4750 H 0.79875 0.80023 0.19672 0.0
H4751 H 0.79689 0.8018 0.22566 0.0
H4752 H 0.12667 0.99885 0.6656 0.0
H4753 H 0.11496 0.00368 0.64067 0.0
H4754 H 0.08319 0.02709 0.66738 0.0
H4755 H 0.09563 0.02329 0.6923 0.0
H4756 H 0.09063 0.99549 0.62289 0.0
H4757 H 0.09294 0.06138 0.6429 0.0
H4758 H 0.10188 0.0499 0.65504 0.0
H4759 H 0.08139 0.04908 0.65488 0.0
C4760 C 0.11725 0.00514 0.66624 0.0
C4761 C 0.11244 0.01088 0.68131 0.0
C4762 C 0.11043 0.00794 0.65179 0.0
C4763 C 0.09829 0.01641 0.65161 0.0
C4764 C 0.09296 0.02136 0.66667 0.0
H4765 H 0.04447 0.03667 0.56623 0.0
H4766 H 0.0517 0.03235 0.59342 0.0
C4767 C 0.10005 0.01896 0.68115 0.0
C4768 C 0.09128 0.01975 0.6358 0.0
H4769 H 0.07949 0.04924 0.61771 0.0
C4770 C 0.08833 0.00734 0.62196 0.0
C4771 C 0.08787 0.03511 0.63392 0.0
C4772 C 0.09131 0.04966 0.64742 0.0
C4773 C 0.08246 0.00978 0.60688 0.0
C4774 C 0.07925 0.02512 0.60503 0.0
C4775 C 0.08176 0.03741 0.61884 0.0
C4776 C 0.07464 0.02888 0.58867 0.0
C4777 C 0.07966 0.99574 0.59288 0.0
C4778 C 0.08503 0.02901 0.57673 0.0
C4779 C 0.08102 0.0318 0.56135 0.0
C4780 C 0.06633 0.03449 0.55694 0.0
C4781 C 0.05592 0.03481 0.56898 0.0
C4782 C 0.06007 0.03221 0.58462 0.0
H4783 H 0.07886 0.98379 0.5968 0.0
H4784 H 0.06887 0.99527 0.58549 0.0
H4785 H 0.0894 0.99752 0.58522 0.0
H4786 H 0.0964 0.0268 0.57926 0.0
H4787 H 0.0895 0.03147 0.55266 0.0
H4788 H 0.79445 0.35814 0.44419 0.0
H4789 H 0.79379 0.33924 0.41887 0.0
H4790 H 0.83586 0.36956 0.40791 0.0
H4791 H 0.83645 0.38871 0.43283 0.0
H4792 H 0.80451 0.36067 0.38533 0.0
H4793 H 0.82857 0.31002 0.40316 0.0
H4794 H 0.81569 0.31915 0.41567 0.0
H4795 H 0.8346 0.33085 0.41393 0.0
C4796 C 0.80357 0.36072 0.43638 0.0
C4797 C 0.81549 0.37487 0.44039 0.0
C4798 C 0.80326 0.34987 0.42211 0.0
C4799 C 0.81489 0.35308 0.41186 0.0
C4800 C 0.82695 0.36693 0.41594 0.0
H4801 H 0.82854 0.30891 0.31639 0.0
H4802 H 0.83304 0.32176 0.34477 0.0
C4803 C 0.82726 0.37778 0.43014 0.0
C4804 C 0.81363 0.34302 0.39603 0.0
H4805 H 0.82029 0.30736 0.37583 0.0
C4806 C 0.80795 0.34902 0.38318 0.0
C4807 C 0.81829 0.32799 0.39355 0.0
C4808 C 0.82469 0.32152 0.40725 0.0
C4809 C 0.80666 0.34016 0.36767 0.0
C4810 C 0.81106 0.32497 0.36519 0.0
C4811 C 0.81693 0.31904 0.378 0.0
C4812 C 0.809 0.31494 0.34927 0.0
C4813 C 0.80053 0.347 0.35403 0.0
C4814 C 0.79411 0.30668 0.34286 0.0
C4815 C 0.79155 0.29945 0.32683 0.0
C4816 C 0.80386 0.30036 0.31714 0.0
C4817 C 0.81891 0.30802 0.32377 0.0
C4818 C 0.8215 0.31525 0.33987 0.0
H4819 H 0.80007 0.36006 0.35767 0.0
H4820 H 0.80783 0.34588 0.34387 0.0
H4821 H 0.78867 0.33986 0.34974 0.0
H4822 H 0.78437 0.30664 0.35005 0.0
H4823 H 0.77984 0.29426 0.32187 0.0
H4824 H 0.47069 0.0319 0.22544 0.0
H4825 H 0.48229 0.02948 0.19998 0.0
H4826 H 0.44994 0.05436 0.18091 0.0
H4827 H 0.43818 0.05679 0.20642 0.0
H4828 H 0.46406 0.01335 0.16963 0.0
H4829 H 0.49436 0.07828 0.17136 0.0
H4830 H 0.48883 0.07073 0.18931 0.0
H4831 H 0.47437 0.07386 0.17549 0.0
C4832 C 0.46613 0.03694 0.21585 0.0
C4833 C 0.45362 0.04455 0.21779 0.0
C4834 C 0.47275 0.03559 0.2014 0.0
C4835 C 0.46695 0.04185 0.18877 0.0
C4836 C 0.45462 0.04969 0.1907 0.0
H4837 H 0.49757 0.01552 0.09429 0.0
H4838 H 0.48187 0.02527 0.11497 0.0
C4839 C 0.44799 0.0511 0.20521 0.0
C4840 C 0.47352 0.03932 0.1734 0.0
H4841 H 0.49898 0.05843 0.1503 0.0
C4842 C 0.47149 0.0232 0.1652 0.0
C4843 C 0.4831 0.05232 0.16784 0.0
C4844 C 0.48542 0.06981 0.17642 0.0
C4845 C 0.47951 0.01957 0.15188 0.0
C4846 C 0.48967 0.03245 0.14677 0.0
C4847 C 0.49115 0.04869 0.15446 0.0
C4848 C 0.49971 0.02885 0.13421 0.0
C4849 C 0.47768 1.00196 0.14378 0.0
C4850 C 0.51487 0.02781 0.13841 0.0
C4851 C 0.52385 0.02217 0.12669 0.0
C4852 C 0.51771 0.01763 0.1107 0.0
C4853 C 0.50258 0.01903 0.10656 0.0
C4854 C 0.49364 0.02464 0.11826 0.0
H4855 H 0.46998 0.99331 0.1499 0.0
H4856 H 0.47277 1.00037 0.13124 0.0
H4857 H 0.48914 0.99869 0.14346 0.0
H4858 H 0.51956 0.03093 0.1508 0.0
H4859 H 0.53555 0.02143 0.13007 0.0
H4860 H 0.79148 0.75425 0.93895 0.0
H4861 H 0.79332 0.76352 0.91327 0.0
H4862 H 0.82698 0.73466 0.90091 0.0
H4863 H 0.8247 0.72471 0.92607 0.0
H4864 H 0.81818 0.77964 0.89804 0.0
H4865 H 0.79274 0.7169 0.86465 0.0
H4866 H 0.79237 0.72247 0.88599 0.0
H4867 H 0.80964 0.71827 0.87767 0.0
C4868 C 0.79923 0.7498 0.93075 0.0
C4869 C 0.80779 0.73854 0.93457 0.0
C4870 C 0.80037 0.75524 0.91613 0.0
C4871 C 0.81008 0.74953 0.90506 0.0
C4872 C 0.81921 0.73898 0.90916 0.0
H4873 H 0.81966 0.7556 0.80449 0.0
H4874 H 0.82353 0.75072 0.83196 0.0
C4875 C 0.81801 0.73345 0.92368 0.0
C4876 C 0.81006 0.75385 0.88889 0.0
H4877 H 0.80195 0.73696 0.8493 0.0
C4878 C 0.81465 0.77033 0.88736 0.0
C4879 C 0.80541 0.74169 0.87498 0.0
C4880 C 0.79962 0.72386 0.87585 0.0
C4881 C 0.81491 0.77495 0.87226 0.0
C4882 C 0.81021 0.76274 0.85835 0.0
C4883 C 0.80571 0.74628 0.85993 0.0
C4884 C 0.80898 0.76668 0.84206 0.0
C4885 C 0.82044 0.7928 0.87137 0.0
C4886 C 0.79948 0.77714 0.83859 0.0
C4887 C 0.79743 0.78 0.82307 0.0
C4888 C 0.80452 0.77214 0.81065 0.0
C4889 C 0.81396 0.76159 0.81394 0.0
C4890 C 0.81621 0.75892 0.82959 0.0
H4891 H 0.82816 0.79955 0.88212 0.0
H4892 H 0.82672 0.79434 0.86058 0.0
H4893 H 0.81033 0.79851 0.87081 0.0
H4894 H 0.79336 0.78285 0.84782 0.0
H4895 H 0.79007 0.78816 0.82069 0.0
H4896 H 0.83461 0.0846 0.0192 0.0
H4897 H 0.85735 0.0724 0.01834 0.0
H4898 H 0.88566 0.11811 0.01125 0.0
H4899 H 0.86295 0.13034 0.01198 0.0
H4900 H 0.87983 0.07694 0.98876 0.0
H4901 H 0.90427 0.09783 0.05226 0.0
H4902 H 0.88369 0.09352 0.04687 0.0
H4903 H 0.89591 0.11128 0.04193 0.0
C4904 C 0.84573 0.092 0.01755 0.0
C4905 C 0.8472 0.10832 0.01563 0.0
C4906 C 0.85861 0.08509 0.01709 0.0
C4907 C 0.87302 0.09452 0.01492 0.0
C4908 C 0.87455 0.11081 0.01305 0.0
H4909 H 0.961 0.06778 0.00135 0.0
H4910 H 0.94127 0.0836 0.00768 0.0
C4911 C 0.86164 0.11769 0.01336 0.0
C4912 C 0.88635 0.087 0.01365 0.0
H4913 H 0.91759 0.08156 0.03517 0.0
C4914 C 0.88814 0.07796 0.99884 0.0
C4915 C 0.89705 0.08859 0.02691 0.0
C4916 C 0.89525 0.0983 0.04296 0.0
C4917 C 0.90046 0.07017 0.99694 0.0
C4918 C 0.91099 0.07138 0.01027 0.0
C4919 C 0.90938 0.08071 0.02505 0.0
C4920 C 0.92335 0.06238 0.00895 0.0
C4921 C 0.90215 0.06061 0.98076 0.0
C4922 C 0.91968 0.04538 0.00796 0.0
C4923 C 0.93083 0.03635 0.00435 0.0
C4924 C 0.94577 0.04423 0.0017 0.0
C4925 C 0.94957 0.0614 0.0034 0.0
C4926 C 0.93839 0.07044 0.00702 0.0
H4927 H 0.89449 0.06305 0.97117 0.0
H4928 H 0.9143 0.06368 0.9777 0.0
H4929 H 0.89912 0.04732 0.98107 0.0
H4930 H 0.90806 0.03908 0.00946 0.0
H4931 H 0.92771 0.02318 0.00343 0.0
H4932 H 0.37224 0.45526 0.01585 0.0
H4933 H 0.39852 0.47143 0.0161 0.0
H4934 H 0.41347 0.44965 0.05452 0.0
H4935 H 0.38737 0.43295 0.05397 0.0
H4936 H 0.4174 0.49439 0.04023 0.0
H4937 H 0.44463 0.44172 0.02233 0.0
H4938 H 0.42395 0.43962 0.02082 0.0
H4939 H 0.43427 0.44097 0.03985 0.0
C4940 C 0.38112 0.45369 0.02425 0.0
C4941 C 0.37754 0.44255 0.03477 0.0
C4942 C 0.39617 0.46311 0.02446 0.0
C4943 C 0.40815 0.46163 0.03513 0.0
C4944 C 0.40458 0.45082 0.04592 0.0
H4945 H 0.5084 0.502 0.04452 0.0
H4946 H 0.48206 0.48751 0.04774 0.0
C4947 C 0.38952 0.44139 0.04572 0.0
C4948 C 0.42429 0.47141 0.03494 0.0
H4949 H 0.46129 0.46787 0.02868 0.0
C4950 C 0.42701 0.48859 0.0377 0.0
C4951 C 0.43693 0.46393 0.03178 0.0
C4952 C 0.43485 0.44555 0.02839 0.0
C4953 C 0.44191 0.49846 0.03761 0.0
C4954 C 0.45455 0.49099 0.03406 0.0
C4955 C 0.45178 0.47376 0.0314 0.0
C4956 C 0.47064 0.50064 0.03288 0.0
C4957 C 0.44392 0.5168 0.04183 0.0
C4958 C 0.47329 0.51296 0.02349 0.0
C4959 C 0.48835 0.5216 0.02212 0.0
C4960 C 0.50118 0.51778 0.02965 0.0
C4961 C 0.49868 0.50531 0.03876 0.0
C4962 C 0.48359 0.49697 0.0405 0.0
H4963 H 0.43498 0.52017 0.04961 0.0
H4964 H 0.45547 0.52278 0.04808 0.0
H4965 H 0.44256 0.52175 0.03073 0.0
H4966 H 0.46375 0.5157 0.01688 0.0
H4967 H 0.49001 0.5309 0.0147 0.0
H4968 H 0.36155 0.63079 0.7678 0.0
H4969 H 0.34808 0.6532 0.76737 0.0
H4970 H 0.39155 0.68816 0.77638 0.0
H4971 H 0.40517 0.66583 0.77685 0.0
H4972 H 0.35498 0.68955 0.79566 0.0
H4973 H 0.3621 0.69236 0.73178 0.0
H4974 H 0.36076 0.67328 0.73892 0.0
H4975 H 0.3777 0.68935 0.74449 0.0
C4976 C 0.36843 0.64317 0.76964 0.0
C4977 C 0.38477 0.64598 0.77233 0.0
C4978 C 0.36056 0.65619 0.76949 0.0
C4979 C 0.36852 0.6728 0.77186 0.0
C4980 C 0.38481 0.6757 0.77457 0.0
H4981 H 0.33607 0.75881 0.74701 0.0
H4982 H 0.34913 0.73731 0.75088 0.0
C4983 C 0.3927 0.66269 0.77489 0.0
C4984 C 0.35994 0.68685 0.7711 0.0
H4985 H 0.34818 0.70998 0.74533 0.0
C4986 C 0.35356 0.69407 0.78464 0.0
C4987 C 0.35802 0.69328 0.75698 0.0
C4988 C 0.36494 0.68678 0.74212 0.0
C4989 C 0.34579 0.70731 0.78453 0.0
C4990 C 0.3433 0.7135 0.77013 0.0
C4991 C 0.34969 0.70598 0.75659 0.0
C4992 C 0.33492 0.72787 0.76868 0.0
C4993 C 0.34103 0.71484 0.80029 0.0
C4994 C 0.32226 0.73118 0.77744 0.0
C4995 C 0.31523 0.74468 0.77593 0.0
C4996 C 0.31955 0.75489 0.76462 0.0
C4997 C 0.3319 0.75137 0.75571 0.0
C4998 C 0.33946 0.7386 0.75785 0.0
H4999 H 0.34801 0.71261 0.81053 0.0
H5000 H 0.34237 0.72827 0.80134 0.0
H5001 H 0.32879 0.70911 0.80137 0.0
H5002 H 0.31747 0.72328 0.78547 0.0
H5003 H 0.30629 0.74695 0.78357 0.0
H5004 H 0.20428 0.58567 0.48369 0.0
H5005 H 0.17639 0.57493 0.48115 0.0
H5006 H 0.17902 0.56457 0.52893 0.0
H5007 H 0.207 0.57555 0.53165 0.0
H5008 H 0.15244 0.54632 0.48855 0.0
H5009 H 0.16026 0.60676 0.52908 0.0
H5010 H 0.17565 0.60078 0.51812 0.0
H5011 H 0.17046 0.59258 0.5357 0.0
C5012 C 0.19901 0.58037 0.49336 0.0
C5013 C 0.20759 0.5816 0.50796 0.0
C5014 C 0.18312 0.57422 0.49186 0.0
C5015 C 0.17582 0.56925 0.50494 0.0
C5016 C 0.18462 0.56847 0.51878 0.0
H5017 H 0.08487 0.54273 0.52655 0.0
H5018 H 0.1111 0.54521 0.52017 0.0
C5019 C 0.2005 0.57479 0.52035 0.0
C5020 C 0.15935 0.5689 0.50555 0.0
H5021 H 0.13488 0.59097 0.52319 0.0
C5022 C 0.14852 0.55605 0.49605 0.0
C5023 C 0.15449 0.58195 0.51501 0.0
C5024 C 0.1658 0.59639 0.52497 0.0
C5025 C 0.13269 0.55555 0.49639 0.0
C5026 C 0.12787 0.56823 0.5065 0.0
C5027 C 0.13875 0.5814 0.51539 0.0
C5028 C 0.11177 0.56696 0.50999 0.0
C5029 C 0.12128 0.54137 0.48623 0.0
C5030 C 0.10382 0.57905 0.50742 0.0
C5031 C 0.08872 0.57793 0.51174 0.0
C5032 C 0.08149 0.56468 0.51862 0.0
C5033 C 0.08993 0.55316 0.52167 0.0
C5034 C 0.10491 0.55431 0.51756 0.0
H5035 H 0.12658 0.53572 0.47579 0.0
H5036 H 0.11745 0.53181 0.49349 0.0
H5037 H 0.11093 0.54531 0.48188 0.0
H5038 H 0.1092 0.58913 0.50186 0.0
H5039 H 0.08249 0.58694 0.50898 0.0
H5040 H 0.70916 0.95577 0.72028 0.0
H5041 H 0.72118 0.93298 0.72404 0.0
H5042 H 0.75958 0.96713 0.7525 0.0
H5043 H 0.74763 0.98984 0.7489 0.0
H5044 H 0.75863 0.92917 0.72468 0.0
H5045 H 0.72731 0.93522 0.77966 0.0
H5046 H 0.72097 0.94119 0.76152 0.0
H5047 H 0.73718 0.95402 0.7742 0.0
C5048 C 0.72047 0.95838 0.72674 0.0
C5049 C 0.72749 0.97435 0.73449 0.0
C5050 C 0.72728 0.94544 0.72886 0.0
C5051 C 0.74112 0.94856 0.73857 0.0
C5052 C 0.74889 0.96466 0.7449 0.0
H5053 H 0.80592 0.90756 0.78296 0.0
H5054 H 0.79115 0.92261 0.76815 0.0
C5055 C 0.74207 0.97754 0.74291 0.0
C5056 C 0.74601 0.93534 0.74488 0.0
H5057 H 0.74735 0.92065 0.77954 0.0
C5058 C 0.75599 0.92699 0.73652 0.0
C5059 C 0.74224 0.93252 0.76023 0.0
C5060 C 0.73125 0.94111 0.76944 0.0
C5061 C 0.76313 0.91645 0.74366 0.0
C5062 C 0.76036 0.91473 0.75954 0.0
C5063 C 0.74956 0.92225 0.76743 0.0
C5064 C 0.76915 0.90595 0.7686 0.0
C5065 C 0.77378 0.9075 0.73435 0.0
C5066 C 0.7614 0.8923 0.77439 0.0
C5067 C 0.7697 0.88399 0.78306 0.0
C5068 C 0.78583 0.88926 0.78601 0.0
C5069 C 0.79348 0.90342 0.78089 0.0
C5070 C 0.78514 0.91176 0.77221 0.0
H5071 H 0.7715 0.90673 0.72127 0.0
H5072 H 0.78592 0.91417 0.73791 0.0
H5073 H 0.77249 0.89492 0.73691 0.0
H5074 H 0.74901 0.88789 0.77192 0.0
H5075 H 0.76361 0.87308 0.78698 0.0
H5076 H 0.73303 0.94529 0.55387 0.0
H5077 H 0.7111 0.95836 0.55294 0.0
H5078 H 0.69626 0.93105 0.50535 0.0
H5079 H 0.71735 0.91702 0.50662 0.0
H5080 H 0.70487 0.97811 0.53499 0.0
H5081 H 0.65577 0.92465 0.52335 0.0
H5082 H 0.67509 0.9229 0.52904 0.0
H5083 H 0.66912 0.92267 0.50845 0.0
C5084 C 0.72491 0.9417 0.54334 0.0
C5085 C 0.72714 0.93001 0.53031 0.0
C5086 C 0.71239 0.94933 0.54278 0.0
C5087 C 0.70176 0.94556 0.52918 0.0
C5088 C 0.70395 0.93391 0.51619 0.0
H5089 H 0.63811 0.99119 0.48571 0.0
H5090 H 0.6552 0.97408 0.49341 0.0
C5091 C 0.71631 0.92611 0.51681 0.0
C5092 C 0.68912 0.95461 0.52807 0.0
H5093 H 0.65073 0.94963 0.51633 0.0
C5094 C 0.69299 0.97184 0.5312 0.0
C5095 C 0.6735 0.94654 0.52323 0.0
C5096 C 0.66811 0.92818 0.52101 0.0
C5097 C 0.68196 0.98111 0.52885 0.0
C5098 C 0.6666 0.973 0.52318 0.0
C5099 C 0.66254 0.95583 0.52055 0.0
C5100 C 0.65497 0.98219 0.51883 0.0
C5101 C 0.6869 0.99954 0.53187 0.0
C5102 C 0.64883 0.99213 0.53058 0.0
C5103 C 0.63894 1.00186 0.5262 0.0
C5104 C 0.63519 1.00196 0.50999 0.0
C5105 C 0.64094 0.99154 0.49829 0.0
C5106 C 0.65065 0.9817 0.50267 0.0
H5107 H 0.69961 0.00391 0.53448 0.0
H5108 H 0.68318 0.00437 0.52135 0.0
H5109 H 0.68123 0.00471 0.54223 0.0
H5110 H 0.65195 0.99262 0.54313 0.0
H5111 H 0.63473 0.00979 0.53548 0.0
H5112 H 0.38836 0.46722 0.7433 0.0
H5113 H 0.3746 0.43888 0.74241 0.0
H5114 H 0.35692 0.4532 0.78747 0.0
H5115 H 0.37009 0.48162 0.78818 0.0
H5116 H 0.37618 0.41615 0.76054 0.0
H5117 H 0.31724 0.42722 0.76395 0.0
H5118 H 0.33336 0.44278 0.76062 0.0
H5119 H 0.3304 0.43886 0.78048 0.0
C5120 C 0.38137 0.46458 0.75298 0.0
C5121 C 0.38052 0.47734 0.76577 0.0
C5122 C 0.3735 0.44807 0.7525 0.0
C5123 C 0.36422 0.44342 0.76469 0.0
C5124 C 0.36351 0.45607 0.77757 0.0
H5125 H 0.30393 0.35057 0.78173 0.0
H5126 H 0.31769 0.37891 0.78204 0.0
C5127 C 0.37138 0.47256 0.77808 0.0
C5128 C 0.3557 0.4255 0.76409 0.0
H5129 H 0.32012 0.40068 0.76651 0.0
C5130 C 0.36389 0.41285 0.7618 0.0
C5131 C 0.3396 0.42066 0.76579 0.0
C5132 C 0.32958 0.43305 0.7677 0.0
C5133 C 0.35682 0.39608 0.76167 0.0
C5134 C 0.34061 0.39114 0.7632 0.0
C5135 C 0.33243 0.40387 0.76536 0.0
C5136 C 0.33198 0.3732 0.76288 0.0
C5137 C 0.36721 0.38407 0.76061 0.0
C5138 C 0.33476 0.35976 0.75194 0.0
C5139 C 0.32719 0.34332 0.75221 0.0
C5140 C 0.31587 0.33951 0.76285 0.0
C5141 C 0.31249 0.35286 0.77327 0.0
C5142 C 0.32046 0.36926 0.77341 0.0
H5143 H 0.3793 0.39025 0.76518 0.0
H5144 H 0.36322 0.37425 0.76752 0.0
H5145 H 0.36741 0.37848 0.74789 0.0
H5146 H 0.34275 0.36187 0.74296 0.0
H5147 H 0.33005 0.33353 0.74382 0.0
H5148 H 0.26042 0.6121 0.27151 0.0
H5149 H 0.27659 0.64004 0.27553 0.0
H5150 H 0.2452 0.65277 0.24204 0.0
H5151 H 0.22902 0.62537 0.23821 0.0
H5152 H 0.28025 0.66422 0.24068 0.0
H5153 H 0.25539 0.67818 0.29902 0.0
H5154 H 0.26309 0.66011 0.29391 0.0
H5155 H 0.24521 0.66125 0.28394 0.0
C5156 C 0.25719 0.62088 0.26488 0.0
C5157 C 0.24357 0.61672 0.25455 0.0
C5158 C 0.26641 0.63665 0.26711 0.0
C5159 C 0.26197 0.64817 0.259 0.0
C5160 C 0.2488 0.64381 0.24818 0.0
H5161 H 0.25218 0.74335 0.26441 0.0
H5162 H 0.2508 0.71371 0.2607 0.0
C5163 C 0.23962 0.62819 0.24599 0.0
C5164 C 0.26961 0.66541 0.26286 0.0
H5165 H 0.26446 0.70021 0.28609 0.0
C5166 C 0.27739 0.67223 0.25088 0.0
C5167 C 0.26545 0.67551 0.27607 0.0
C5168 C 0.25684 0.66849 0.28904 0.0
C5169 C 0.27996 0.68903 0.25109 0.0
C5170 C 0.27476 0.69899 0.26369 0.0
C5171 C 0.26815 0.69232 0.27634 0.0
C5172 C 0.2756 0.71634 0.26386 0.0
C5173 C 0.2869 0.69581 0.23722 0.0
C5174 C 0.28993 0.72726 0.26677 0.0
C5175 C 0.29069 0.74392 0.2689 0.0
C5176 C 0.27715 0.74991 0.26807 0.0
C5177 C 0.26275 0.73894 0.26499 0.0
C5178 C 0.26198 0.72215 0.26282 0.0
H5179 H 0.28943 0.68616 0.22784 0.0
H5180 H 0.27878 0.70209 0.23181 0.0
H5181 H 0.29783 0.70492 0.24151 0.0
H5182 H 0.30049 0.72292 0.26796 0.0
H5183 H 0.3019 0.75203 0.27159 0.0
H5184 H 0.49958 0.68215 0.46034 0.0
H5185 H 0.50315 0.65794 0.47083 0.0
H5186 H 0.54497 0.68614 0.49829 0.0
H5187 H 0.54144 0.71049 0.48797 0.0
H5188 H 0.53192 0.64593 0.46576 0.0
H5189 H 0.52143 0.65818 0.53004 0.0
H5190 H 0.51358 0.66831 0.51557 0.0
H5191 H 0.53376 0.67413 0.52216 0.0
C5192 C 0.50937 0.68337 0.46888 0.0
C5193 C 0.52027 0.69837 0.47315 0.0
C5194 C 0.51142 0.66944 0.47486 0.0
C5195 C 0.52429 0.67016 0.48547 0.0
C5196 C 0.53485 0.68525 0.49029 0.0
H5197 H 0.55075 0.58849 0.52587 0.0
H5198 H 0.54882 0.61611 0.52189 0.0
C5199 C 0.53289 0.69916 0.48421 0.0
C5200 C 0.52754 0.65475 0.48985 0.0
H5201 H 0.52898 0.63349 0.52049 0.0
C5202 C 0.53126 0.64322 0.47774 0.0
C5203 C 0.52719 0.65138 0.50557 0.0
C5204 C 0.52371 0.66357 0.51915 0.0
C5205 C 0.53454 0.62845 0.48077 0.0
C5206 C 0.53317 0.62442 0.49628 0.0
C5207 C 0.52985 0.63624 0.50856 0.0
C5208 C 0.53438 0.60776 0.4995 0.0
C5209 C 0.53992 0.61766 0.46723 0.0
C5210 C 0.52657 0.59365 0.48881 0.0
C5211 C 0.52882 0.5782 0.49035 0.0
C5212 C 0.53812 0.57595 0.50332 0.0
C5213 C 0.5445 0.58979 0.51515 0.0
C5214 C 0.54305 0.6056 0.51303 0.0
H5215 H 0.54624 0.62506 0.45905 0.0
H5216 H 0.54765 0.61034 0.47163 0.0
H5217 H 0.52972 0.60926 0.46004 0.0
H5218 H 0.51883 0.59454 0.47896 0.0
H5219 H 0.52299 0.56791 0.48129 0.0
H5220 H 0.6659 0.30909 0.64103 0.0
H5221 H 0.68898 0.30735 0.65703 0.0
H5222 H 0.66569 0.31488 0.69988 0.0
H5223 H 0.64246 0.31629 0.68401 0.0
H5224 H 0.70799 0.33002 0.68307 0.0
H5225 H 0.68039 0.27244 0.70246 0.0
H5226 H 0.67214 0.27956 0.68594 0.0
H5227 H 0.67006 0.28856 0.70614 0.0
C5228 C 0.66556 0.31026 0.65385 0.0
C5229 C 0.65204 0.31272 0.66107 0.0
C5230 C 0.67891 0.30938 0.66304 0.0
C5231 C 0.67918 0.31075 0.67975 0.0
C5232 C 0.66584 0.31352 0.68703 0.0
H5233 H 0.7425 0.30049 0.75686 0.0
H5234 H 0.72147 0.30473 0.73997 0.0
C5235 C 0.65253 0.3145 0.67787 0.0
C5236 C 0.69322 0.30902 0.6895 0.0
H5237 H 0.70534 0.28563 0.71454 0.0
C5238 C 0.70742 0.32026 0.68988 0.0
C5239 C 0.69265 0.29632 0.69849 0.0
C5240 C 0.67805 0.28342 0.69819 0.0
C5241 C 0.72078 0.31942 0.69925 0.0
C5242 C 0.72019 0.30671 0.70828 0.0
C5243 C 0.706 0.29541 0.70774 0.0
C5244 C 0.73385 0.3051 0.71877 0.0
C5245 C 0.73525 0.33256 0.69983 0.0
C5246 C 0.74818 0.30384 0.71278 0.0
C5247 C 0.76054 0.30166 0.7227 0.0
C5248 C 0.75896 0.30062 0.73892 0.0
C5249 C 0.74456 0.30176 0.74475 0.0
C5250 C 0.7323 0.30399 0.73491 0.0
H5251 H 0.73269 0.34369 0.69607 0.0
H5252 H 0.74128 0.33608 0.71205 0.0
H5253 H 0.74321 0.32785 0.69155 0.0
H5254 H 0.74975 0.30419 0.70032 0.0
H5255 H 0.7713 0.30066 0.71759 0.0
H5256 H 0.05309 0.36139 0.98539 0.0
H5257 H 0.05539 0.39073 0.99529 0.0
H5258 H 0.00637 0.38468 0.98495 0.0
H5259 H 0.00395 0.3556 0.97475 0.0
H5260 H 0.02868 0.40784 0.96897 0.0
H5261 H 0.03723 0.41901 0.03537 0.0
H5262 H 0.04639 0.40427 0.02399 0.0
H5263 H 0.02578 0.40007 0.02387 0.0
C5264 C 0.04276 0.36624 0.98536 0.0
C5265 C 0.02834 0.35601 0.97911 0.0
C5266 C 0.04408 0.383 0.99123 0.0
C5267 C 0.03102 0.38987 0.991 0.0
C5268 C 0.01657 0.3796 0.98543 0.0
H5269 H 0.02845 0.49373 0.02315 0.0
H5270 H 0.02414 0.46381 0.02043 0.0
C5271 C 0.01522 0.3629 0.97962 0.0
C5272 C 0.03264 0.40794 0.99403 0.0
H5273 H 0.03916 0.44226 0.02313 0.0
C5274 C 0.03094 0.41539 0.98081 0.0
C5275 C 0.03526 0.41767 0.0095 0.0
C5276 C 0.03623 0.40996 0.0241 0.0
C5277 C 0.03184 0.43229 0.98251 0.0
C5278 C 0.03529 0.44236 0.99794 0.0
C5279 C 0.03672 0.43478 0.01128 0.0
C5280 C 0.03782 0.46068 0.0002 0.0
C5281 C 0.02855 0.43886 0.9676 0.0
C5282 C 0.04724 0.46919 0.99023 0.0
C5283 C 0.0483 0.48585 0.99072 0.0
C5284 C 0.04105 0.49505 0.00213 0.0
C5285 C 0.03307 0.48695 0.01339 0.0
C5286 C 0.03104 0.46985 0.01213 0.0
H5287 H 0.02059 0.42939 0.95862 0.0
H5288 H 0.0233 0.44967 0.97022 0.0
H5289 H 0.03949 0.44233 0.96199 0.0
H5290 H 0.05367 0.46289 0.98177 0.0
H5291 H 0.05525 0.49159 0.98227 0.0
H5292 H 0.00757 0.79507 0.17587 0.0
H5293 H 0.984 0.79369 0.18975 0.0
H5294 H 0.96296 0.81261 0.15251 0.0
H5295 H 0.98645 0.81378 0.13836 0.0
H5296 H 0.96914 0.82001 0.20109 0.0
H5297 H 0.92978 0.77155 0.1567 0.0
H5298 H 0.95056 0.77499 0.15677 0.0
H5299 H 0.94049 0.78883 0.14935 0.0
C5300 C 0.99791 0.79878 0.17046 0.0
C5301 C 0.99908 0.80446 0.15583 0.0
C5302 C 0.98439 0.79807 0.17851 0.0
C5303 C 0.97148 0.80283 0.17217 0.0
C5304 C 0.97258 0.80859 0.15762 0.0
H5305 H 0.87836 0.79183 0.20989 0.0
H5306 H 0.89978 0.79872 0.1931 0.0
C5307 C 0.98617 0.80942 0.14959 0.0
C5308 C 0.95715 0.80213 0.18109 0.0
H5309 H 0.9191 0.78235 0.17977 0.0
C5310 C 0.9582 0.81179 0.19637 0.0
C5311 C 0.94267 0.79172 0.17493 0.0
C5312 C 0.94071 0.78108 0.15858 0.0
C5313 C 0.94541 0.81121 0.20567 0.0
C5314 C 0.93111 0.80007 0.19996 0.0
C5315 C 0.92993 0.79081 0.18439 0.0
C5316 C 0.91782 0.79699 0.21037 0.0
C5317 C 0.94744 0.82288 0.22146 0.0
C5318 C 0.9205 0.79377 0.22579 0.0
C5319 C 0.90839 0.7903 0.23549 0.0
C5320 C 0.89286 0.7892 0.23004 0.0
C5321 C 0.89007 0.79262 0.21465 0.0
C5322 C 0.90237 0.79641 0.20494 0.0
H5323 H 0.95594 0.83441 0.22104 0.0
H5324 H 0.93638 0.82602 0.22484 0.0
H5325 H 0.95204 0.8172 0.23091 0.0
H5326 H 0.93203 0.79355 0.23032 0.0
H5327 H 0.91127 0.7881 0.2473 0.0
H5328 H 0.53762 0.34419 0.11453 0.0
H5329 H 0.54199 0.36659 0.0996 0.0
H5330 H 0.49486 0.35165 0.07881 0.0
H5331 H 0.49044 0.32869 0.09323 0.0
H5332 H 0.53477 0.36095 0.06291 0.0
H5333 H 0.5046 0.40343 0.09965 0.0
H5334 H 0.51215 0.38807 0.10782 0.0
H5335 H 0.49523 0.38206 0.09402 0.0
C5336 C 0.52818 0.34551 0.10668 0.0
C5337 C 0.51369 0.33456 0.10502 0.0
C5338 C 0.53069 0.35842 0.09829 0.0
C5339 C 0.51871 0.36076 0.08828 0.0
C5340 C 0.50417 0.35006 0.08667 0.0
H5341 H 0.51982 0.43697 0.0311 0.0
H5342 H 0.51173 0.4156 0.04703 0.0
C5343 C 0.50167 0.33702 0.09497 0.0
C5344 C 0.52178 0.37403 0.07899 0.0
H5345 H 0.51695 0.41262 0.07792 0.0
C5346 C 0.53085 0.37224 0.06611 0.0
C5347 C 0.51644 0.38856 0.08317 0.0
C5348 C 0.50659 0.39081 0.09695 0.0
C5349 C 0.5349 0.38476 0.0573 0.0
C5350 C 0.53016 0.39966 0.06189 0.0
C5351 C 0.52072 0.40127 0.07455 0.0
C5352 C 0.53502 0.41367 0.05366 0.0
C5353 C 0.54404 0.38176 0.04304 0.0
C5354 C 0.55078 0.42007 0.05265 0.0
C5355 C 0.55536 0.43197 0.04335 0.0
C5356 C 0.54426 0.43797 0.03529 0.0
C5357 C 0.52854 0.43241 0.03718 0.0
C5358 C 0.52394 0.42026 0.04625 0.0
H5359 H 0.54252 0.36846 0.03828 0.0
H5360 H 0.54058 0.38778 0.03328 0.0
H5361 H 0.55651 0.38681 0.04671 0.0
H5362 H 0.55952 0.41555 0.05873 0.0
H5363 H 0.56756 0.43635 0.04228 0.0
H5364 H 0.01178 0.3329 0.35721 0.0
H5365 H 0.98576 0.33266 0.34662 0.0
H5366 H 0.98664 0.29071 0.31052 0.0
H5367 H 0.01296 0.29096 0.321 0.0
H5368 H 0.97734 0.33531 0.31469 0.0
H5369 H 0.94552 0.27789 0.33195 0.0
H5370 H 0.96458 0.28853 0.34087 0.0
H5371 H 0.96222 0.27644 0.32114 0.0
C5372 C 0.00652 0.32371 0.34692 0.0
C5373 C 0.0144 0.312 0.33984 0.0
C5374 C 0.99162 0.3235 0.341 0.0
C5375 C 0.98431 0.31154 0.32798 0.0
C5376 C 0.99208 0.29983 0.3208 0.0
H5377 H 0.89792 0.30151 0.27221 0.0
H5378 H 0.92159 0.29628 0.28453 0.0
C5379 C 0.00706 0.30002 0.32674 0.0
C5380 C 0.96882 0.31202 0.32154 0.0
H5381 H 0.931 0.2917 0.31703 0.0
C5382 C 0.96719 0.32579 0.31518 0.0
C5383 C 0.95572 0.29954 0.3223 0.0
C5384 C 0.95698 0.28479 0.32953 0.0
C5385 C 0.95273 0.32742 0.30943 0.0
C5386 C 0.93958 0.31505 0.31031 0.0
C5387 C 0.94117 0.30116 0.31651 0.0
C5388 C 0.92417 0.31644 0.30445 0.0
C5389 C 0.95164 0.34231 0.3023 0.0
C5390 C 0.91773 0.32918 0.31191 0.0
C5391 C 0.9045 0.33233 0.30478 0.0
C5392 C 0.89753 0.32261 0.29028 0.0
C5393 C 0.90339 0.30924 0.28332 0.0
C5394 C 0.91672 0.30618 0.29038 0.0
H5395 H 0.96308 0.34877 0.29937 0.0
H5396 H 0.9436 0.33886 0.29127 0.0
H5397 H 0.9471 0.35101 0.31104 0.0
H5398 H 0.92329 0.33706 0.32291 0.0
H5399 H 0.89985 0.34249 0.31041 0.0
H5400 H 0.97318 0.67177 0.61554 0.0
H5401 H 0.97525 0.64398 0.60416 0.0
H5402 H 0.99118 0.66043 0.56146 0.0
H5403 H 0.98908 0.68826 0.57271 0.0
H5404 H 0.9679 0.62067 0.56736 0.0
H5405 H 0.02795 0.6502 0.59371 0.0
H5406 H 0.01135 0.65737 0.60091 0.0
H5407 H 0.01813 0.66158 0.58224 0.0
C5408 C 0.97638 0.66929 0.60342 0.0
C5409 C 0.98123 0.68211 0.59505 0.0
C5410 C 0.97755 0.65344 0.59697 0.0
C5411 C 0.98348 0.65037 0.58212 0.0
C5412 C 0.98655 0.66271 0.57295 0.0
H5413 H 0.03271 0.59106 0.52874 0.0
H5414 H 0.02024 0.61165 0.54276 0.0
C5415 C 0.98544 0.67855 0.5794 0.0
C5416 C 0.98978 0.63579 0.57787 0.0
H5417 H 0.02412 0.62403 0.57753 0.0
C5418 C 0.98011 0.62121 0.56976 0.0
C5419 C 0.00571 0.63676 0.58121 0.0
C5420 C 0.01644 0.65227 0.59007 0.0
C5421 C 0.98625 0.60761 0.56413 0.0
C5422 C 1.00229 0.60884 0.5669 0.0
C5423 C 0.01179 0.62322 0.57561 0.0
C5424 C 0.0098 0.59629 0.55894 0.0
C5425 C 0.9758 0.59235 0.55453 0.0
C5426 C 0.00821 0.58106 0.5637 0.0
C5427 C 0.01527 0.56925 0.55559 0.0
C5428 C 0.02376 0.57267 0.54266 0.0
C5429 C 0.02569 0.58806 0.53828 0.0
C5430 C 0.01875 0.59982 0.54638 0.0
H5431 H 0.9638 0.59387 0.55237 0.0
H5432 H 0.98038 0.58901 0.54282 0.0
H5433 H 0.97549 0.58201 0.561 0.0
H5434 H 1.00148 0.57833 0.57356 0.0
H5435 H 0.01384 0.5574 0.55915 0.0
H5436 H 0.66189 0.7968 0.8366 0.0
H5437 H 0.68363 0.79848 0.82021 0.0
H5438 H 0.67598 0.84374 0.80837 0.0
H5439 H 0.65376 0.84203 0.8247 0.0
H5440 H 0.67986 0.80629 0.78302 0.0
H5441 H 0.72489 0.84468 0.82955 0.0
H5442 H 0.70885 0.83143 0.83624 0.0
H5443 H 0.70559 0.84829 0.82739 0.0
C5444 C 0.66469 0.80701 0.83037 0.0
C5445 C 0.65607 0.81915 0.83166 0.0
C5446 C 0.67711 0.808 0.82113 0.0
C5447 C 0.68114 0.82114 0.81311 0.0
C5448 C 0.67282 0.8335 0.81449 0.0
H5449 H 0.75753 0.79945 0.7586 0.0
H5450 H 0.73388 0.80934 0.76284 0.0
C5451 C 0.66028 0.83253 0.82382 0.0
C5452 C 0.6942 0.82136 0.8034 0.0
H5453 H 0.73295 0.82554 0.80977 0.0
C5454 C 0.6916 0.81098 0.78843 0.0
C5455 C 0.70932 0.82754 0.81073 0.0
C5456 C 0.71244 0.83871 0.82684 0.0
C5457 C 0.70367 0.80493 0.78148 0.0
C5458 C 0.71852 0.80976 0.78972 0.0
C5459 C 0.7214 0.82171 0.80369 0.0
C5460 C 0.7308 0.80117 0.78542 0.0
C5461 C 0.70022 0.79227 0.76631 0.0
C5462 C 0.73646 0.79287 0.79651 0.0
C5463 C 0.75006 0.7875 0.79428 0.0
C5464 C 0.75783 0.79006 0.78076 0.0
C5465 C 0.75148 0.79714 0.76901 0.0
C5466 C 0.73803 0.80279 0.77139 0.0
H5467 H 0.68768 0.78858 0.76239 0.0
H5468 H 0.70639 0.79729 0.75661 0.0
H5469 H 0.70442 0.78121 0.76806 0.0
H5470 H 0.73088 0.79147 0.80737 0.0
H5471 H 0.75495 0.78219 0.80348 0.0
H5472 H 0.46103 0.5447 0.6778 0.0
H5473 H 0.47307 0.54283 0.65258 0.0
H5474 H 0.50495 0.58876 0.67044 0.0
H5475 H 0.49325 0.59053 0.69594 0.0
H5476 H 0.47561 0.56102 0.62955 0.0
H5477 H 0.53555 0.56351 0.65262 0.0
H5478 H 0.51961 0.56072 0.66496 0.0
H5479 H 0.52805 0.58075 0.66118 0.0
C5480 C 0.47076 0.55438 0.67665 0.0
C5481 C 0.476 0.56774 0.68949 0.0
C5482 C 0.47766 0.55333 0.66192 0.0
C5483 C 0.49031 0.56545 0.6592 0.0
C5484 C 0.49554 0.57889 0.67192 0.0
H5485 H 0.54646 0.57337 0.57438 0.0
H5486 H 0.53603 0.57802 0.60058 0.0
C5487 C 0.48858 0.58 0.68667 0.0
C5488 C 0.49745 0.56415 0.64301 0.0
H5489 H 0.53145 0.5638 0.62504 0.0
C5490 C 0.48784 0.56157 0.6287 0.0
C5491 C 0.51351 0.56511 0.64135 0.0
C5492 C 0.5248 0.56754 0.65581 0.0
C5493 C 0.49357 0.56007 0.61329 0.0
C5494 C 0.50954 0.56042 0.61154 0.0
C5495 C 0.51923 0.56331 0.62589 0.0
C5496 C 0.51622 0.55759 0.59513 0.0
C5497 C 0.48231 0.55875 0.59904 0.0
C5498 C 0.50908 0.5444 0.58281 0.0
C5499 C 0.51497 0.54183 0.56764 0.0
C5500 C 0.52858 0.55208 0.56399 0.0
C5501 C 0.53599 0.5651 0.5764 0.0
C5502 C 0.52996 0.56778 0.5916 0.0
H5503 H 0.47263 0.56468 0.60246 0.0
H5504 H 0.48801 0.56453 0.58948 0.0
H5505 H 0.47725 0.54564 0.59418 0.0
H5506 H 0.49889 0.53578 0.58492 0.0
H5507 H 0.50883 0.53155 0.55875 0.0
H5508 H 0.79894 0.18056 0.94174 0.0
H5509 H 0.80192 0.19403 0.91844 0.0
H5510 H 0.76907 0.22258 0.9351 0.0
H5511 H 0.76614 0.20928 0.95846 0.0
H5512 H 0.77646 0.19463 0.89573 0.0
H5513 H 0.80841 0.25616 0.92643 0.0
H5514 H 0.80783 0.2379 0.93485 0.0
H5515 H 0.79194 0.24801 0.93635 0.0
C5516 C 0.79252 0.18985 0.94045 0.0
C5517 C 0.78246 0.19413 0.95183 0.0
C5518 C 0.79422 0.19745 0.92723 0.0
C5519 C 0.786 0.20946 0.92545 0.0
C5520 C 0.77575 0.21354 0.93664 0.0
H5521 H 0.74918 0.26459 0.87314 0.0
H5522 H 0.76118 0.25102 0.89185 0.0
C5523 C 0.77397 0.20589 0.9498 0.0
C5524 C 0.78728 0.21721 0.91143 0.0
H5525 H 0.79344 0.25498 0.90152 0.0
C5526 C 0.78058 0.20775 0.89673 0.0
C5527 C 0.79288 0.23424 0.913 0.0
C5528 C 0.80082 0.24466 0.92849 0.0
C5529 C 0.77772 0.21524 0.88386 0.0
C5530 C 0.78197 0.23249 0.88594 0.0
C5531 C 0.79012 0.24174 0.90015 0.0
C5532 C 0.77568 0.24122 0.87478 0.0
C5533 C 0.769 0.20484 0.8687 0.0
C5534 C 0.77995 0.24003 0.85914 0.0
C5535 C 0.77287 0.2474 0.8484 0.0
C5536 C 0.76168 0.2563 0.85331 0.0
C5537 C 0.75761 0.25763 0.86906 0.0
C5538 C 0.76458 0.25011 0.87975 0.0
H5539 H 0.76503 0.19181 0.86981 0.0
H5540 H 0.75877 0.2096 0.86543 0.0
H5541 H 0.7766 0.20537 0.85876 0.0
H5542 H 0.78856 0.23325 0.85522 0.0
H5543 H 0.77607 0.24604 0.83622 0.0
H5544 H 0.11965 0.50409 0.17279 0.0
H5545 H 0.1028 0.49911 0.14816 0.0
H5546 H 0.12587 0.5458 0.13789 0.0
H5547 H 0.14337 0.55046 0.16197 0.0
H5548 H 0.08295 0.51777 0.14128 0.0
H5549 H 0.12525 0.51551 0.09581 0.0
H5550 H 0.12989 0.51398 0.1163 0.0
H5551 H 0.13078 0.53369 0.11078 0.0
C5552 C 0.12137 0.51311 0.16508 0.0
C5553 C 0.13285 0.52762 0.16919 0.0
C5554 C 0.1117 0.51028 0.15111 0.0
C5555 C 0.11337 0.52195 0.14118 0.0
C5556 C 0.12474 0.53648 0.14527 0.0
H5557 H 0.07182 0.55476 0.06886 0.0
H5558 H 0.08413 0.54931 0.093 0.0
C5559 C 0.13453 0.53924 0.15913 0.0
C5560 C 0.1025 0.51958 0.12711 0.0
H5561 H 0.10106 0.52178 0.08765 0.0
C5562 C 0.08678 0.51824 0.12945 0.0
C5563 C 0.10767 0.52011 0.11178 0.0
C5564 C 0.12431 0.52073 0.10849 0.0
C5565 C 0.0762 0.51862 0.11693 0.0
C5566 C 0.08162 0.5203 0.10193 0.0
C5567 C 0.0971 0.52057 0.09934 0.0
C5568 C 0.07201 0.52388 0.08925 0.0
C5569 C 0.05956 0.51829 0.11995 0.0
C5570 C 0.0608 0.51144 0.07972 0.0
C5571 C 0.05367 0.51458 0.06601 0.0
C5572 C 0.05805 0.53003 0.06178 0.0
C5573 C 0.06858 0.54268 0.07186 0.0
C5574 C 0.0755 0.53962 0.0856 0.0
H5575 H 0.05733 0.51741 0.13252 0.0
H5576 H 0.05638 0.52953 0.11714 0.0
H5577 H 0.05195 0.50764 0.11193 0.0
H5578 H 0.05817 0.49921 0.08245 0.0
H5579 H 0.04553 0.50472 0.05825 0.0
H5580 H 0.77544 0.84979 0.43581 0.0
H5581 H 0.77699 0.83906 0.40759 0.0
H5582 H 0.80346 0.80549 0.42073 0.0
H5583 H 0.80184 0.81603 0.44911 0.0
H5584 H 0.81077 0.83888 0.39649 0.0
H5585 H 0.76741 0.77959 0.382 0.0
H5586 H 0.76452 0.79605 0.39721 0.0
H5587 H 0.77922 0.78522 0.40078 0.0
C5588 C 0.78127 0.83985 0.43277 0.0
C5589 C 0.7886 0.83387 0.44481 0.0
C5590 C 0.78218 0.83376 0.4166 0.0
C5591 C 0.79029 0.82144 0.41206 0.0
C5592 C 0.79706 0.81492 0.42397 0.0
H5593 H 0.79933 0.78037 0.31087 0.0
H5594 H 0.80047 0.7835 0.34026 0.0
C5595 C 0.79623 0.82107 0.44019 0.0
C5596 C 0.79318 0.81693 0.39501 0.0
H5597 H 0.78057 0.78883 0.36075 0.0
C5598 C 0.80426 0.82787 0.38869 0.0
C5599 C 0.78497 0.80237 0.38498 0.0
C5600 C 0.77332 0.79004 0.39146 0.0
C5601 C 0.80711 0.82492 0.3725 0.0
C5602 C 0.79809 0.81095 0.36205 0.0
C5603 C 0.78742 0.79961 0.36858 0.0
C5604 C 0.79858 0.80888 0.34428 0.0
C5605 C 0.8199 0.83686 0.36693 0.0
C5606 C 0.79718 0.82196 0.33663 0.0
C5607 C 0.79732 0.82042 0.32012 0.0
C5608 C 0.79815 0.80551 0.31051 0.0
C5609 C 0.7992 0.79217 0.31797 0.0
C5610 C 0.7996 0.79391 0.33475 0.0
H5611 H 0.82932 0.84216 0.37662 0.0
H5612 H 0.82493 0.83101 0.3564 0.0
H5613 H 0.81528 0.84718 0.36374 0.0
H5614 H 0.79559 0.83338 0.3434 0.0
H5615 H 0.79614 0.83085 0.31476 0.0
H5616 H 0.48592 0.54421 0.84392 0.0
H5617 H 0.49756 0.54072 0.86936 0.0
H5618 H 0.4897 0.58717 0.89198 0.0
H5619 H 0.4775 0.59052 0.86676 0.0
H5620 H 0.52252 0.55699 0.89075 0.0
H5621 H 0.46978 0.55949 0.92217 0.0
H5622 H 0.46968 0.55808 0.90082 0.0
H5623 H 0.47708 0.57741 0.91398 0.0
C5624 C 0.48638 0.5537 0.85426 0.0
C5625 C 0.48024 0.56758 0.85284 0.0
C5626 C 0.49331 0.55171 0.86898 0.0
C5627 C 0.49438 0.56341 0.88312 0.0
C5628 C 0.4888 0.57757 0.88164 0.0
H5629 H 0.51562 0.56557 0.98563 0.0
H5630 H 0.50941 0.57077 0.95945 0.0
C5631 C 0.48189 0.57959 0.86692 0.0
C5632 C 0.5009 0.56061 0.89927 0.0
H5633 H 0.49176 0.55796 0.93762 0.0
C5634 C 0.51577 0.55726 0.90102 0.0
C5635 C 0.49241 0.56091 0.913 0.0
C5636 C 0.47631 0.56402 0.91244 0.0
C5637 C 0.52239 0.55478 0.91582 0.0
C5638 C 0.51377 0.55483 0.92958 0.0
C5639 C 0.4988 0.55796 0.9276 0.0
C5640 C 0.51975 0.55229 0.9462 0.0
C5641 C 0.53887 0.55281 0.9165 0.0
C5642 C 0.52864 0.54064 0.94863 0.0
C5643 C 0.53324 0.53832 0.96425 0.0
C5644 C 0.52823 0.54664 0.97815 0.0
C5645 C 0.51961 0.5584 0.9756 0.0
C5646 C 0.51578 0.56134 0.96024 0.0
H5647 H 0.5453 0.55844 0.90724 0.0
H5648 H 0.54513 0.55848 0.92835 0.0
H5649 H 0.53892 0.53957 0.91409 0.0
H5650 H 0.53184 0.53293 0.9385 0.0
H5651 H 0.54039 0.52972 0.96528 0.0
H5652 H 0.75439 0.18943 0.10304 0.0
H5653 H 0.75354 0.20873 0.12745 0.0
H5654 H 0.79535 0.24032 0.11746 0.0
H5655 H 0.79582 0.22154 0.0925 0.0
H5656 H 0.77601 0.21641 0.15176 0.0
H5657 H 0.7683 0.27258 0.13026 0.0
H5658 H 0.76486 0.25282 0.11726 0.0
H5659 H 0.78424 0.2648 0.12247 0.0
C5660 C 0.76318 0.20069 0.10582 0.0
C5661 C 0.77516 0.20403 0.09589 0.0
C5662 C 0.7627 0.21164 0.11976 0.0
C5663 C 0.77423 0.226 0.12401 0.0
C5664 C 0.78615 0.22946 0.11411 0.0
H5665 H 0.80799 0.291 0.2113 0.0
H5666 H 0.80235 0.27844 0.18312 0.0
C5667 C 0.78655 0.2186 0.10005 0.0
C5668 C 0.77465 0.23644 0.13964 0.0
H5669 H 0.77597 0.27558 0.15816 0.0
C5670 C 0.77578 0.22929 0.15318 0.0
C5671 C 0.77448 0.25322 0.14129 0.0
C5672 C 0.77276 0.26129 0.12703 0.0
C5673 C 0.7771 0.23862 0.16849 0.0
C5674 C 0.77709 0.25544 0.17015 0.0
C5675 C 0.77586 0.26261 0.15666 0.0
C5676 C 0.77913 0.26576 0.18597 0.0
C5677 C 0.77893 0.23054 0.18276 0.0
C5678 C 0.76765 0.26324 0.19651 0.0
C5679 C 0.77094 0.27021 0.21258 0.0
C5680 C 0.78567 0.27988 0.21818 0.0
C5681 C 0.79662 0.2836 0.20731 0.0
C5682 C 0.79339 0.27647 0.19123 0.0
H5683 H 0.78134 0.21817 0.17928 0.0
H5684 H 0.78846 0.23818 0.19146 0.0
H5685 H 0.76812 0.22924 0.18888 0.0
H5686 H 0.75653 0.25507 0.19248 0.0
H5687 H 0.7622 0.26743 0.22074 0.0
H5688 H 0.15873 0.52507 0.32939 0.0
H5689 H 0.14817 0.52531 0.35553 0.0
H5690 H 0.10963 0.54302 0.33811 0.0
H5691 H 0.12012 0.54291 0.31204 0.0
H5692 H 0.1367 0.55881 0.3727 0.0
H5693 H 0.09618 0.49772 0.36043 0.0
H5694 H 0.11416 0.50191 0.35122 0.0
H5695 H 0.09795 0.50925 0.34444 0.0
C5696 C 0.1479 0.52879 0.33116 0.0
C5697 C 0.1401 0.53388 0.31886 0.0
C5698 C 0.14198 0.52898 0.346 0.0
C5699 C 0.12818 0.53405 0.34847 0.0
C5700 C 0.12029 0.53897 0.33618 0.0
H5701 H 0.05803 0.55195 0.40186 0.0
H5702 H 0.07632 0.54373 0.38334 0.0
C5703 C 0.12626 0.53895 0.32142 0.0
C5704 C 0.12204 0.53502 0.36406 0.0
H5705 H 0.0912 0.51737 0.38194 0.0
C5706 C 0.12703 0.54962 0.37509 0.0
C5707 C 0.10953 0.52289 0.36683 0.0
C5708 C 0.10413 0.50697 0.35518 0.0
C5709 C 0.11881 0.5531 0.38833 0.0
C5710 C 0.10552 0.54145 0.39047 0.0
C5711 C 0.10137 0.52625 0.38012 0.0
C5712 C 0.09457 0.54574 0.40186 0.0
C5713 C 0.12363 0.56967 0.3991 0.0
C5714 C 0.09894 0.5496 0.41827 0.0
C5715 C 0.08872 0.55474 0.42878 0.0
C5716 C 0.07385 0.55568 0.42303 0.0
C5717 C 0.06947 0.55157 0.40657 0.0
C5718 C 0.0798 0.54666 0.39605 0.0
H5719 H 0.13274 0.57814 0.39423 0.0
H5720 H 0.11356 0.57542 0.4009 0.0
H5721 H 0.12825 0.56817 0.41096 0.0
H5722 H 0.11027 0.54879 0.42291 0.0
H5723 H 0.0925 0.55804 0.44141 0.0
H5724 H 0.76501 0.84826 0.60717 0.0
H5725 H 0.7627 0.83789 0.63221 0.0
H5726 H 0.80613 0.82339 0.62729 0.0
H5727 H 0.80838 0.83324 0.60193 0.0
H5728 H 0.76445 0.80441 0.63895 0.0
H5729 H 0.81011 0.85635 0.67168 0.0
H5730 H 0.79994 0.8572 0.65306 0.0
H5731 H 0.81488 0.84588 0.65304 0.0
C5732 C 0.77397 0.84259 0.6112 0.0
C5733 C 0.78694 0.84167 0.60248 0.0
C5734 C 0.77264 0.83675 0.62558 0.0
C5735 C 0.7843 0.83002 0.63164 0.0
C5736 C 0.79708 0.82872 0.62287 0.0
H5737 H 0.79143 0.77702 0.70827 0.0
H5738 H 0.78867 0.78571 0.68259 0.0
C5739 C 0.79839 0.83446 0.60842 0.0
C5740 C 0.78343 0.82496 0.64744 0.0
H5741 H 0.80069 0.83493 0.68554 0.0
C5742 C 0.77232 0.81108 0.64917 0.0
C5743 C 0.79354 0.83387 0.66078 0.0
C5744 C 0.80524 0.84924 0.65969 0.0
C5745 C 0.77141 0.80559 0.66384 0.0
C5746 C 0.78193 0.81417 0.67702 0.0
C5747 C 0.7927 0.82833 0.67539 0.0
C5748 C 0.7824 0.80839 0.69248 0.0
C5749 C 0.75916 0.79073 0.66518 0.0
C5750 C 0.77999 0.81836 0.7066 0.0
C5751 C 0.78164 0.81347 0.72135 0.0
C5752 C 0.78581 0.79854 0.72223 0.0
C5753 C 0.78806 0.78851 0.70801 0.0
C5754 C 0.78641 0.79342 0.6933 0.0
H5755 H 0.74972 0.78802 0.65541 0.0
H5756 H 0.76445 0.77993 0.66442 0.0
H5757 H 0.7541 0.79246 0.67685 0.0
H5758 H 0.77697 0.83001 0.70623 0.0
H5759 H 0.77976 0.82144 0.73206 0.0
H5760 H 0.75005 0.48183 0.49797 0.0
H5761 H 0.72812 0.49524 0.49863 0.0
H5762 H 0.71296 0.47377 0.53916 0.0
H5763 H 0.73457 0.46014 0.53844 0.0
H5764 H 0.69512 0.47837 0.49729 0.0
H5765 H 0.71663 0.52429 0.55258 0.0
H5766 H 0.72918 0.51389 0.54075 0.0
H5767 H 0.7174 0.50365 0.55416 0.0
C5768 C 0.74195 0.4799 0.50692 0.0
C5769 C 0.74393 0.46999 0.51816 0.0
C5770 C 0.72955 0.48759 0.50732 0.0
C5771 C 0.71916 0.4855 0.51901 0.0
C5772 C 0.72108 0.47561 0.5302 0.0
H5773 H 0.64104 0.51918 0.55244 0.0
H5774 H 0.66053 0.50309 0.54575 0.0
C5775 C 0.7334 0.4679 0.52979 0.0
C5776 C 0.70602 0.49336 0.51951 0.0
H5777 H 0.69016 0.52041 0.54363 0.0
C5778 C 0.694 0.48769 0.50729 0.0
C5779 C 0.70482 0.50547 0.53262 0.0
C5780 C 0.71775 0.51231 0.54572 0.0
C5781 C 0.68034 0.49341 0.50821 0.0
C5782 C 0.67897 0.50517 0.52159 0.0
C5783 C 0.69124 0.51118 0.53352 0.0
C5784 C 0.66509 0.51182 0.52361 0.0
C5785 C 0.66736 0.48648 0.49521 0.0
C5786 C 0.66101 0.52156 0.51309 0.0
C5787 C 0.64987 0.5306 0.51686 0.0
C5788 C 0.643 0.53014 0.53127 0.0
C5789 C 0.64648 0.51978 0.54139 0.0
C5790 C 0.65745 0.51057 0.53752 0.0
H5791 H 0.66887 0.47489 0.48785 0.0
H5792 H 0.65604 0.48414 0.50036 0.0
H5793 H 0.66711 0.49546 0.48719 0.0
H5794 H 0.66702 0.52288 0.50247 0.0
H5795 H 0.64713 0.53853 0.50894 0.0
H5796 H 0.20467 0.14345 0.47868 0.0
H5797 H 0.17845 0.12707 0.47877 0.0
H5798 H 0.19299 0.10879 0.51984 0.0
H5799 H 0.21919 0.12494 0.51978 0.0
H5800 H 0.16673 0.09329 0.47643 0.0
H5801 H 0.15615 0.12721 0.53487 0.0
H5802 H 0.17218 0.13469 0.52389 0.0
H5803 H 0.17321 0.11906 0.53549 0.0
C5804 C 0.20237 0.13583 0.48766 0.0
C5805 C 0.21415 0.13573 0.49933 0.0
C5806 C 0.18731 0.12649 0.48773 0.0
C5807 C 0.18359 0.11688 0.49949 0.0
C5808 C 0.1954 0.11639 0.51087 0.0
H5809 H 0.10069 0.04024 0.50165 0.0
H5810 H 0.12673 0.05539 0.49859 0.0
C5811 C 0.21044 0.1257 0.51082 0.0
C5812 C 0.16739 0.10747 0.5 0.0
H5813 H 0.13746 0.10302 0.52388 0.0
C5814 C 0.16033 0.09544 0.4868 0.0
C5815 C 0.15887 0.11036 0.51342 0.0
C5816 C 0.1654 0.12363 0.52767 0.0
C5817 C 0.14518 0.08606 0.48679 0.0
C5818 C 0.13685 0.08865 0.50041 0.0
C5819 C 0.14383 0.10088 0.51348 0.0
C5820 C 0.12078 0.07909 0.50131 0.0
C5821 C 0.1381 0.0737 0.47207 0.0
C5822 C 0.10868 0.08726 0.50409 0.0
C5823 C 0.0938 0.0786 0.50599 0.0
C5824 C 0.09057 0.06151 0.5051 0.0
C5825 C 0.10262 0.05329 0.50206 0.0
C5826 C 0.11757 0.06199 0.5003 0.0
H5827 H 0.14453 0.07574 0.46147 0.0
H5828 H 0.13833 0.06122 0.4742 0.0
H5829 H 0.12587 0.07417 0.46934 0.0
H5830 H 0.11078 0.10042 0.50493 0.0
H5831 H 0.08482 0.08536 0.50826 0.0
H5832 H 0.22063 0.9361 0.74271 0.0
H5833 H 0.23396 0.91373 0.74332 0.0
H5834 H 0.21145 0.90255 0.78489 0.0
H5835 H 0.19751 0.92418 0.7839 0.0
H5836 H 0.25465 0.90571 0.76092 0.0
H5837 H 0.20334 0.85713 0.76272 0.0
H5838 H 0.20168 0.87707 0.7593 0.0
H5839 H 0.20476 0.87348 0.77938 0.0
C5840 C 0.21815 0.92883 0.75191 0.0
C5841 C 0.20751 0.93256 0.76319 0.0
C5842 C 0.22608 0.91584 0.75233 0.0
C5843 C 0.22384 0.90561 0.76396 0.0
C5844 C 0.21341 0.90946 0.77534 0.0
H5845 H 0.26222 0.82561 0.79435 0.0
H5846 H 0.24969 0.84796 0.79089 0.0
C5847 C 0.20545 0.92238 0.77491 0.0
C5848 C 0.23245 0.89137 0.76438 0.0
H5849 H 0.22759 0.85108 0.76958 0.0
C5850 C 0.24855 0.89377 0.76268 0.0
C5851 C 0.22503 0.8753 0.7665 0.0
C5852 C 0.20774 0.87051 0.76689 0.0
C5853 C 0.25715 0.88133 0.76364 0.0
C5854 C 0.24977 0.86548 0.76629 0.0
C5855 C 0.23367 0.863 0.76772 0.0
C5856 C 0.2584 0.85161 0.76824 0.0
C5857 C 0.27433 0.88555 0.76237 0.0
C5858 C 0.26786 0.84542 0.75678 0.0
C5859 C 0.2751 0.83217 0.7587 0.0
C5860 C 0.27345 0.8246 0.77232 0.0
C5861 C 0.2641 0.83093 0.78372 0.0
C5862 C 0.25676 0.8439 0.78171 0.0
H5863 H 0.27896 0.899 0.76431 0.0
H5864 H 0.28054 0.88039 0.77118 0.0
H5865 H 0.27683 0.88022 0.75022 0.0
H5866 H 0.26936 0.85051 0.746 0.0
H5867 H 0.28175 0.82766 0.74933 0.0
H5868 H 0.39663 0.96824 0.04533 0.0
H5869 H 0.42308 0.98021 0.04122 0.0
H5870 H 0.41022 0.02563 0.03685 0.0
H5871 H 0.38382 0.01409 0.04195 0.0
H5872 H 0.42594 0.98878 0.01101 0.0
H5873 H 0.45331 0.04041 0.05989 0.0
H5874 H 0.43672 0.02495 0.0624 0.0
H5875 H 0.43437 0.0414 0.05237 0.0
C5876 C 0.39955 0.98107 0.04446 0.0
C5877 C 0.38812 0.99017 0.04354 0.0
C5878 C 0.41464 0.9878 0.04191 0.0
C5879 C 0.41834 0.00359 0.03845 0.0
C5880 C 0.40746 0.01339 0.03956 0.0
H5881 H 0.50435 0.05475 0.01735 0.0
H5882 H 0.47635 0.04677 0.01094 0.0
C5883 C 0.3924 0.00676 0.04236 0.0
C5884 C 0.43257 0.00878 0.03112 0.0
H5885 H 0.46568 0.03787 0.03617 0.0
C5886 C 0.43469 0.99955 0.01641 0.0
C5887 C 0.44362 0.02292 0.03815 0.0
C5888 C 0.44199 0.03292 0.05414 0.0
C5889 C 0.44798 0.00398 0.00865 0.0
C5890 C 0.45928 0.0179 0.01594 0.0
C5891 C 0.45679 0.02742 0.03036 0.0
C5892 C 0.47505 0.02106 0.01117 0.0
C5893 C 0.44993 0.99349 0.99304 0.0
C5894 C 0.48352 0.00899 0.01206 0.0
C5895 C 0.49943 0.01347 0.01506 0.0
C5896 C 0.50687 0.02997 0.01719 0.0
C5897 C 0.49864 0.04191 0.01529 0.0
C5898 C 0.48278 0.03733 0.0115 0.0
H5899 H 0.43862 0.98848 0.98591 0.0
H5900 H 0.45802 1.00041 0.98578 0.0
H5901 H 0.45451 0.98289 0.99557 0.0
H5902 H 0.47784 0.99648 0.01238 0.0
H5903 H 0.50578 0.00427 0.01696 0.0
H5904 H 0.88129 0.62589 0.81628 0.0
H5905 H 0.86874 0.64861 0.81454 0.0
H5906 H 0.83188 0.61579 0.78263 0.0
H5907 H 0.844 0.59301 0.78485 0.0
H5908 H 0.86664 0.65673 0.78562 0.0
H5909 H 0.80844 0.64607 0.80713 0.0
H5910 H 0.82306 0.63579 0.81309 0.0
H5911 H 0.81127 0.62801 0.79446 0.0
C5912 C 0.87017 0.62342 0.80946 0.0
C5913 C 0.86369 0.60781 0.80049 0.0
C5914 C 0.86304 0.6364 0.80847 0.0
C5915 C 0.84935 0.63385 0.79856 0.0
C5916 C 0.84225 0.61798 0.79064 0.0
H5917 H 0.80613 0.67337 0.73116 0.0
H5918 H 0.81588 0.65795 0.74971 0.0
C5919 C 0.84931 0.60502 0.79169 0.0
C5920 C 0.84431 0.64785 0.79364 0.0
H5921 H 0.81191 0.66139 0.78511 0.0
C5922 C 0.8548 0.65814 0.78596 0.0
C5923 C 0.82884 0.64951 0.794 0.0
C5924 C 0.81732 0.63933 0.80277 0.0
C5925 C 0.84992 0.66919 0.77754 0.0
C5926 C 0.83423 0.67006 0.77701 0.0
C5927 C 0.82393 0.66055 0.78552 0.0
C5928 C 0.82807 0.67952 0.76635 0.0
C5929 C 0.86129 0.679 0.76831 0.0
C5930 C 0.83184 0.69666 0.76967 0.0
C5931 C 0.82637 0.70546 0.75909 0.0
C5932 C 0.81714 0.69717 0.74506 0.0
C5933 C 0.81345 0.67999 0.74177 0.0
C5934 C 0.81883 0.67122 0.7524 0.0
H5935 H 0.87263 0.67546 0.7685 0.0
H5936 H 0.85658 0.67735 0.75567 0.0
H5937 H 0.8632 0.6922 0.77357 0.0
H5938 H 0.83899 0.70319 0.78041 0.0
H5939 H 0.82932 0.71872 0.76184 0.0
H5940 H 0.86286 0.63988 0.9787 0.0
H5941 H 0.88462 0.62627 0.97972 0.0
H5942 H 0.89356 0.64504 0.03027 0.0
H5943 H 0.87224 0.659 0.02937 0.0
H5944 H 0.92001 0.64193 0.99736 0.0
H5945 H 0.88204 0.59071 0.01927 0.0
H5946 H 0.87451 0.60315 0.00697 0.0
H5947 H 0.88068 0.61126 0.02764 0.0
C5948 C 0.86963 0.64138 0.98999 0.0
C5949 C 0.86559 0.65037 0.00401 0.0
C5950 C 0.88205 0.63357 0.99053 0.0
C5951 C 0.89063 0.63462 0.00508 0.0
C5952 C 0.88703 0.64405 0.01893 0.0
H5953 H 0.95417 0.58877 0.04826 0.0
H5954 H 0.93704 0.60596 0.04104 0.0
C5955 C 0.87471 0.65188 0.01841 0.0
C5956 C 0.90255 0.62486 0.00628 0.0
H5957 H 0.90871 0.59117 0.02025 0.0
C5958 C 0.91755 0.63071 0.00215 0.0
C5959 C 0.89927 0.61027 0.01256 0.0
C5960 C 0.88325 0.60333 0.01681 0.0
C5961 C 0.9295 0.62256 0.00469 0.0
C5962 C 0.92628 0.60822 0.01144 0.0
C5963 C 0.91117 0.6022 0.01514 0.0
C5964 C 0.93843 0.59958 0.01558 0.0
C5965 C 0.9456 0.62961 0.00077 0.0
C5966 C 0.94521 0.59054 0.00366 0.0
C5967 C 0.95501 0.5806 0.00777 0.0
C5968 C 0.95807 0.57944 0.02385 0.0
C5969 C 0.95184 0.58916 0.03575 0.0
C5970 C 0.9421 0.59906 0.03165 0.0
H5971 H 0.94659 0.64182 0.99736 0.0
H5972 H 0.95403 0.63075 0.01119 0.0
H5973 H 0.94879 0.62121 0.99068 0.0
H5974 H 0.94239 0.5906 0.99117 0.0
H5975 H 0.95956 0.5732 0.99833 0.0
H5976 H 0.20149 0.10387 0.74728 0.0
H5977 H 0.21538 0.1321 0.7482 0.0
H5978 H 0.23695 0.13298 0.79475 0.0
H5979 H 0.2237 0.10452 0.79365 0.0
H5980 H 0.21542 0.16067 0.76612 0.0
H5981 H 0.27491 0.15214 0.776 0.0
H5982 H 0.25855 0.13503 0.77095 0.0
H5983 H 0.26283 0.14616 0.79118 0.0
C5984 C 0.20938 0.10978 0.75768 0.0
C5985 C 0.21131 0.10122 0.7703 0.0
C5986 C 0.21733 0.12626 0.75825 0.0
C5987 C 0.22774 0.13511 0.7714 0.0
C5988 C 0.2295 0.12672 0.78414 0.0
H5989 H 0.28863 0.23661 0.79235 0.0
H5990 H 0.27529 0.20823 0.79306 0.0
C5991 C 0.22157 0.11023 0.78358 0.0
C5992 C 0.23626 0.15301 0.77186 0.0
H5993 H 0.27213 0.1795 0.77788 0.0
C5994 C 0.22785 0.16465 0.76863 0.0
C5995 C 0.25256 0.15882 0.77531 0.0
C5996 C 0.26278 0.14738 0.77841 0.0
C5997 C 0.23492 0.18144 0.76901 0.0
C5998 C 0.25129 0.18722 0.77209 0.0
C5999 C 0.2597 0.17557 0.77544 0.0
C6000 C 0.25982 0.20502 0.77172 0.0
C6001 C 0.22443 0.19286 0.76668 0.0
C6002 C 0.25628 0.21327 0.75941 0.0
C6003 C 0.26363 0.22976 0.7593 0.0
C6004 C 0.27541 0.23877 0.77112 0.0
C6005 C 0.2796 0.23035 0.78304 0.0
C6006 C 0.27189 0.21392 0.78341 0.0
H6007 H 0.21274 0.18834 0.77043 0.0
H6008 H 0.22913 0.20538 0.77358 0.0
H6009 H 0.22299 0.19345 0.7538 0.0
H6010 H 0.24783 0.20695 0.7496 0.0
H6011 H 0.26021 0.23531 0.74961 0.0
H6012 H 0.35419 0.95352 0.25076 0.0
H6013 H 0.33858 0.92624 0.24959 0.0
H6014 H 0.3186 0.94284 0.29271 0.0
H6015 H 0.33344 0.9707 0.29349 0.0
H6016 H 0.34214 0.91967 0.29129 0.0
H6017 H 0.28998 0.90004 0.2479 0.0
H6018 H 0.30628 0.91403 0.24245 0.0
H6019 H 0.29624 0.92064 0.25922 0.0
C6020 C 0.34588 0.9517 0.25952 0.0
C6021 C 0.34529 0.96418 0.27244 0.0
C6022 C 0.33697 0.93607 0.25882 0.0
C6023 C 0.3276 0.93276 0.27109 0.0
C6024 C 0.32578 0.9454 0.28313 0.0
H6025 H 0.28998 0.83104 0.27016 0.0
H6026 H 0.29342 0.8604 0.27365 0.0
C6027 C 0.33443 0.96117 0.28366 0.0
C6028 C 0.32319 0.91587 0.27331 0.0
H6029 H 0.30118 0.87908 0.25545 0.0
C6030 C 0.33292 0.91072 0.28384 0.0
C6031 C 0.31125 0.90456 0.26347 0.0
C6032 C 0.30022 0.91002 0.25265 0.0
C6033 C 0.33133 0.89416 0.2844 0.0
C6034 C 0.32003 0.8826 0.27369 0.0
C6035 C 0.30993 0.88794 0.26358 0.0
C6036 C 0.3183 0.86492 0.27281 0.0
C6037 C 0.34184 0.8894 0.29639 0.0
C6038 C 0.33108 0.85763 0.27122 0.0
C6039 C 0.3292 0.8409 0.2709 0.0
C6040 C 0.3144 0.83125 0.27119 0.0
C6041 C 0.30156 0.83837 0.27124 0.0
C6042 C 0.30352 0.85513 0.27276 0.0
H6043 H 0.34573 0.89943 0.30688 0.0
H6044 H 0.33606 0.87823 0.30072 0.0
H6045 H 0.35234 0.88708 0.29073 0.0
H6046 H 0.34246 0.86479 0.27019 0.0
H6047 H 0.33921 0.83549 0.27005 0.0
H6048 H 0.54598 0.36866 0.55237 0.0
H6049 H 0.54171 0.39209 0.54104 0.0
H6050 H 0.58751 0.41904 0.55975 0.0
H6051 H 0.5919 0.39558 0.57107 0.0
H6052 H 0.54028 0.42113 0.55635 0.0
H6053 H 0.58673 0.43039 0.51587 0.0
H6054 H 0.58171 0.41201 0.52423 0.0
H6055 H 0.59428 0.43016 0.53571 0.0
C6056 C 0.55522 0.37952 0.55405 0.0
C6057 C 0.56926 0.38015 0.56284 0.0
C6058 C 0.55277 0.39295 0.54745 0.0
C6059 C 0.56429 0.40746 0.54934 0.0
C6060 C 0.5785 0.40797 0.55772 0.0
H6061 H 0.55369 0.50597 0.55742 0.0
H6062 H 0.55582 0.47832 0.5598 0.0
C6063 C 0.58099 0.39449 0.56428 0.0
C6064 C 0.56088 0.42241 0.54386 0.0
H6065 H 0.57484 0.45326 0.52354 0.0
C6066 C 0.54778 0.42798 0.54901 0.0
C6067 C 0.57039 0.43138 0.534 0.0
C6068 C 0.58396 0.42558 0.52698 0.0
C6069 C 0.54439 0.44248 0.54529 0.0
C6070 C 0.55447 0.45203 0.53638 0.0
C6071 C 0.56716 0.44611 0.53053 0.0
C6072 C 0.55273 0.46881 0.5344 0.0
C6073 C 0.53004 0.44753 0.55108 0.0
C6074 C 0.55042 0.47295 0.51924 0.0
C6075 C 0.54921 0.48898 0.51783 0.0
C6076 C 0.55039 0.50116 0.53155 0.0
C6077 C 0.55261 0.49689 0.5466 0.0
C6078 C 0.55378 0.48101 0.548 0.0
H6079 H 0.52127 0.43686 0.55319 0.0
H6080 H 0.53312 0.45631 0.56257 0.0
H6081 H 0.52479 0.4536 0.54236 0.0
H6082 H 0.5496 0.46381 0.50853 0.0
H6083 H 0.54768 0.49191 0.50605 0.0
H6084 H 0.45116 0.78615 0.36071 0.0
H6085 H 0.42741 0.78724 0.34549 0.0
H6086 H 0.40147 0.75017 0.36847 0.0
H6087 H 0.42516 0.74915 0.38393 0.0
H6088 H 0.40603 0.76216 0.32388 0.0
H6089 H 0.37683 0.78642 0.37575 0.0
H6090 H 0.39726 0.78684 0.37707 0.0
H6091 H 0.38347 0.76807 0.37708 0.0
C6092 C 0.44042 0.77829 0.3627 0.0
C6093 C 0.44028 0.76765 0.37379 0.0
C6094 C 0.42677 0.77887 0.35384 0.0
C6095 C 0.41242 0.76899 0.35588 0.0
C6096 C 0.41223 0.75817 0.36676 0.0
H6097 H 0.31712 0.76768 0.31698 0.0
H6098 H 0.33963 0.76314 0.33229 0.0
C6099 C 0.42592 0.75748 0.37553 0.0
C6100 C 0.3978 0.76999 0.34655 0.0
H6101 H 0.36266 0.78036 0.35057 0.0
C6102 C 0.39656 0.76615 0.32975 0.0
C6103 C 0.38519 0.77495 0.35403 0.0
C6104 C 0.3857 0.77944 0.37196 0.0
C6105 C 0.38325 0.76698 0.32035 0.0
C6106 C 0.37081 0.77256 0.32778 0.0
C6107 C 0.372 0.77617 0.34463 0.0
C6108 C 0.3568 0.77516 0.31838 0.0
C6109 C 0.38258 0.76129 0.30251 0.0
C6110 C 0.35857 0.78376 0.30558 0.0
C6111 C 0.34569 0.78597 0.29663 0.0
C6112 C 0.33051 0.78019 0.30043 0.0
C6113 C 0.32861 0.77223 0.31365 0.0
C6114 C 0.34156 0.76965 0.32242 0.0
H6115 H 0.38956 0.75193 0.29954 0.0
H6116 H 0.37055 0.75597 0.29721 0.0
H6117 H 0.38755 0.77183 0.29684 0.0
H6118 H 0.36998 0.78898 0.30249 0.0
H6119 H 0.34767 0.79257 0.28684 0.0
H6120 H 0.07847 0.71605 0.08061 0.0
H6121 H 0.07538 0.68688 0.07009 0.0
H6122 H 0.05118 0.69224 0.02695 0.0
H6123 H 0.05439 0.72172 0.03733 0.0
H6124 H 0.03992 0.66477 0.05436 0.0
H6125 H 0.09109 0.66534 0.01904 0.0
H6126 H 0.09216 0.6808 0.03671 0.0
H6127 H 0.07985 0.68082 0.01944 0.0
C6128 C 0.07273 0.71117 0.06876 0.0
C6129 C 0.06678 0.72135 0.05981 0.0
C6130 C 0.07091 0.69444 0.06279 0.0
C6131 C 0.06317 0.68742 0.04771 0.0
C6132 C 0.05728 0.69745 0.0386 0.0
H6133 H 0.05226 0.58201 0.00778 0.0
H6134 H 0.05603 0.61176 0.00953 0.0
C6135 C 0.05905 0.71427 0.0446 0.0
C6136 C 0.06058 0.66942 0.04219 0.0
H6137 H 0.07791 0.63966 0.02402 0.0
C6138 C 0.04811 0.65926 0.04755 0.0
C6139 C 0.07111 0.66226 0.03308 0.0
C6140 C 0.08434 0.67276 0.02662 0.0
C6141 C 0.04625 0.64215 0.04465 0.0
C6142 C 0.05748 0.63499 0.03663 0.0
C6143 C 0.06948 0.64512 0.03044 0.0
C6144 C 0.05722 0.61719 0.03537 0.0
C6145 C 0.03228 0.63191 0.05031 0.0
C6146 C 0.05743 0.61037 0.04928 0.0
C6147 C 0.05525 0.59344 0.0483 0.0
C6148 C 0.05317 0.58293 0.03339 0.0
C6149 C 0.05401 0.58979 0.01945 0.0
C6150 C 0.05607 0.6068 0.02043 0.0
H6151 H 0.02259 0.63833 0.05125 0.0
H6152 H 0.02823 0.61993 0.04212 0.0
H6153 H 0.03533 0.62959 0.06236 0.0
H6154 H 0.05875 0.61813 0.06095 0.0
H6155 H 0.05468 0.58849 0.05922 0.0
H6156 H 0.0942 0.24909 0.87889 0.0
H6157 H 0.11789 0.25121 0.86511 0.0
H6158 H 0.11914 0.30206 0.8646 0.0
H6159 H 0.09537 0.30004 0.87807 0.0
H6160 H 0.12432 0.25955 0.83541 0.0
H6161 H 0.16291 0.30412 0.88309 0.0
H6162 H 0.14414 0.29289 0.88659 0.0
H6163 H 0.14584 0.31073 0.87748 0.0
C6164 C 0.09938 0.26074 0.87578 0.0
C6165 C 0.09266 0.2744 0.87978 0.0
C6166 C 0.11308 0.26195 0.86793 0.0
C6167 C 0.12061 0.27687 0.86396 0.0
C6168 C 0.1139 0.29048 0.86783 0.0
H6169 H 0.1967 0.31573 0.81204 0.0
H6170 H 0.17582 0.31034 0.82934 0.0
C6171 C 0.1002 0.28929 0.87561 0.0
C6172 C 0.13518 0.27816 0.85539 0.0
H6173 H 0.17264 0.29987 0.85749 0.0
C6174 C 0.13493 0.26825 0.84033 0.0
C6175 C 0.14916 0.28943 0.86172 0.0
C6176 C 0.15064 0.2998 0.87817 0.0
C6177 C 0.14789 0.26981 0.83121 0.0
C6178 C 0.16177 0.2814 0.83736 0.0
C6179 C 0.16212 0.291 0.85262 0.0
C6180 C 0.17559 0.28462 0.82774 0.0
C6181 C 0.14632 0.25949 0.81472 0.0
C6182 C 0.1831 0.27216 0.82137 0.0
C6183 C 0.19524 0.27527 0.8114 0.0
C6184 C 0.20016 0.29091 0.80751 0.0
C6185 C 0.19316 0.30349 0.81459 0.0
C6186 C 0.18115 0.30041 0.82455 0.0
H6187 H 0.13403 0.25417 0.81029 0.0
H6188 H 0.1518 0.26682 0.80606 0.0
H6189 H 0.15219 0.24924 0.8151 0.0
H6190 H 0.17941 0.25994 0.82389 0.0
H6191 H 0.20029 0.26528 0.80619 0.0
H6192 H 0.59214 0.72948 0.91618 0.0
H6193 H 0.58738 0.70646 0.93054 0.0
H6194 H 0.56026 0.73171 0.96239 0.0
H6195 H 0.56482 0.75462 0.94799 0.0
H6196 H 0.59392 0.70498 0.9623 0.0
H6197 H 0.53075 0.68784 0.94563 0.0
H6198 H 0.54377 0.70184 0.93607 0.0
H6199 H 0.53735 0.70885 0.95519 0.0
C6200 C 0.58523 0.73011 0.9263 0.0
C6201 C 0.57869 0.7437 0.93089 0.0
C6202 C 0.5825 0.71698 0.93445 0.0
C6203 C 0.57321 0.71727 0.94729 0.0
C6204 C 0.56711 0.73108 0.95222 0.0
H6205 H 0.5574 0.6642 0.0233 0.0
H6206 H 0.56557 0.68384 0.00574 0.0
C6207 C 0.56973 0.74414 0.94402 0.0
C6208 C 0.56983 0.70315 0.95558 0.0
H6209 H 0.5401 0.67578 0.96648 0.0
C6210 C 0.58217 0.69849 0.96311 0.0
C6211 C 0.5545 0.69455 0.95636 0.0
C6212 C 0.54085 0.6984 0.94774 0.0
C6213 C 0.57949 0.68588 0.97205 0.0
C6214 C 0.56414 0.67789 0.97347 0.0
C6215 C 0.55186 0.68209 0.96542 0.0
C6216 C 0.56048 0.66575 0.98398 0.0
C6217 C 0.593 0.6812 0.98002 0.0
C6218 C 0.55488 0.64914 0.97745 0.0
C6219 C 0.55013 0.63789 0.98742 0.0
C6220 C 0.55076 0.64313 0.00407 0.0
C6221 C 0.55659 0.6598 0.01053 0.0
C6222 C 0.56141 0.671 0.00056 0.0
H6223 H 0.6042 0.68707 0.97606 0.0
H6224 H 0.59328 0.685 0.99317 0.0
H6225 H 0.59167 0.6677 0.9774 0.0
H6226 H 0.55397 0.64494 0.96463 0.0
H6227 H 0.54554 0.62518 0.98204 0.0
H6228 H 0.07455 0.78155 0.72091 0.0
H6229 H 0.10115 0.78356 0.73178 0.0
H6230 H 0.10976 0.75456 0.68787 0.0
H6231 H 0.08339 0.75266 0.67691 0.0
H6232 H 0.1143 0.75579 0.73469 0.0
H6233 H 0.14628 0.7957 0.69637 0.0
H6234 H 0.12613 0.79463 0.69947 0.0
H6235 H 0.13168 0.77883 0.68567 0.0
C6236 C 0.08219 0.7757 0.7136 0.0
C6237 C 0.07701 0.76691 0.69814 0.0
C6238 C 0.0973 0.77688 0.71978 0.0
C6239 C 0.10736 0.76949 0.71044 0.0
C6240 C 0.10217 0.76062 0.69507 0.0
H6241 H 0.18457 0.73094 0.73077 0.0
H6242 H 0.16092 0.73762 0.72047 0.0
C6243 C 0.08709 0.75934 0.68894 0.0
C6244 C 0.12302 0.76995 0.71707 0.0
H6245 H 0.16099 0.78078 0.7103 0.0
C6246 C 0.12454 0.76148 0.72957 0.0
C6247 C 0.13625 0.77749 0.71033 0.0
C6248 C 0.13508 0.78731 0.6973 0.0
C6249 C 0.13903 0.75962 0.73503 0.0
C6250 C 0.15216 0.76632 0.72767 0.0
C6251 C 0.15077 0.77553 0.71572 0.0
C6252 C 0.16726 0.7631 0.73194 0.0
C6253 C 0.14017 0.75015 0.74836 0.0
C6254 C 0.17869 0.77543 0.74132 0.0
C6255 C 0.19215 0.77164 0.74723 0.0
C6256 C 0.19423 0.75549 0.74382 0.0
C6257 C 0.18303 0.74338 0.73382 0.0
C6258 C 0.16965 0.74719 0.72785 0.0
H6259 H 0.12962 0.74881 0.75494 0.0
H6260 H 0.14166 0.73772 0.74324 0.0
H6261 H 0.15034 0.75627 0.75695 0.0
H6262 H 0.17692 0.78776 0.74456 0.0
H6263 H 0.20067 0.78118 0.75491 0.0
H6264 H 0.12811 0.40039 0.45131 0.0
H6265 H 0.12681 0.42872 0.46285 0.0
H6266 H 0.08279 0.42197 0.4359 0.0
H6267 H 0.08398 0.39386 0.42465 0.0
H6268 H 0.10731 0.45426 0.43761 0.0
H6269 H 0.09043 0.43378 0.49448 0.0
H6270 H 0.10699 0.42822 0.48551 0.0
H6271 H 0.08801 0.41949 0.47582 0.0
C6272 C 0.1183 0.40515 0.44786 0.0
C6273 C 0.10601 0.39519 0.43743 0.0
C6274 C 0.1176 0.4212 0.4543 0.0
C6275 C 0.10474 0.42723 0.45009 0.0
C6276 C 0.09282 0.41743 0.43914 0.0
H6277 H 0.04968 0.49405 0.47452 0.0
H6278 H 0.06368 0.47426 0.46131 0.0
C6279 C 0.09343 0.40145 0.43288 0.0
C6280 C 0.10255 0.44304 0.45822 0.0
H6281 H 0.08732 0.45978 0.49118 0.0
C6282 C 0.10331 0.45572 0.44948 0.0
C6283 C 0.09708 0.44455 0.47356 0.0
C6284 C 0.09548 0.43082 0.48296 0.0
C6285 C 0.09814 0.46981 0.45556 0.0
C6286 C 0.09215 0.471 0.47061 0.0
C6287 C 0.09205 0.45868 0.47965 0.0
C6288 C 0.08477 0.4843 0.47678 0.0
C6289 C 0.09856 0.4831 0.44578 0.0
C6290 C 0.09217 0.4963 0.48968 0.0
C6291 C 0.08419 0.50737 0.49731 0.0
C6292 C 0.06877 0.50652 0.49205 0.0
C6293 C 0.0616 0.49494 0.47866 0.0
C6294 C 0.06956 0.48375 0.47112 0.0
H6295 H 0.10518 0.48118 0.43516 0.0
H6296 H 0.08658 0.48333 0.44166 0.0
H6297 H 0.10381 0.49523 0.45326 0.0
H6298 H 0.1039 0.49672 0.49416 0.0
H6299 H 0.08998 0.51636 0.50753 0.0
H6300 H 0.42027 0.24027 0.18719 0.0
H6301 H 0.39891 0.24308 0.20382 0.0
H6302 H 0.43091 0.27568 0.24094 0.0
H6303 H 0.45227 0.27306 0.22428 0.0
H6304 H 0.39265 0.24008 0.23671 0.0
H6305 H 0.40204 0.30344 0.22392 0.0
H6306 H 0.41042 0.28781 0.21296 0.0
H6307 H 0.41863 0.29801 0.23264 0.0
C6308 C 0.42274 0.24763 0.19909 0.0
C6309 C 0.43771 0.25669 0.20448 0.0
C6310 C 0.41061 0.24922 0.20853 0.0
C6311 C 0.41346 0.2598 0.22338 0.0
C6312 C 0.4286 0.26765 0.22937 0.0
H6313 H 0.34017 0.28 0.28341 0.0
H6314 H 0.36619 0.27808 0.27563 0.0
C6315 C 0.4407 0.26617 0.2199 0.0
C6316 C 0.40048 0.26427 0.23158 0.0
H6317 H 0.38182 0.29552 0.23978 0.0
C6318 C 0.39037 0.25224 0.23765 0.0
C6319 C 0.39751 0.28009 0.23231 0.0
C6320 C 0.40761 0.29308 0.22501 0.0
C6321 C 0.37714 0.25564 0.24443 0.0
C6322 C 0.37427 0.27147 0.24527 0.0
C6323 C 0.38444 0.28355 0.23937 0.0
C6324 C 0.35968 0.27492 0.2503 0.0
C6325 C 0.36589 0.24217 0.24997 0.0
C6326 C 0.34785 0.27406 0.23854 0.0
C6327 C 0.33323 0.27515 0.24292 0.0
C6328 C 0.3305 0.27748 0.25908 0.0
C6329 C 0.34236 0.27859 0.2709 0.0
C6330 C 0.35705 0.27751 0.26651 0.0
H6331 H 0.36958 0.23033 0.24792 0.0
H6332 H 0.36472 0.24571 0.26292 0.0
H6333 H 0.35429 0.24039 0.24356 0.0
H6334 H 0.34977 0.27186 0.22597 0.0
H6335 H 0.32395 0.27377 0.2337 0.0
H6336 H 0.59719 0.48947 0.33852 0.0
H6337 H 0.58528 0.49178 0.36399 0.0
H6338 H 0.62039 0.53498 0.38303 0.0
H6339 H 0.63199 0.533 0.35761 0.0
H6340 H 0.59152 0.49012 0.39345 0.0
H6341 H 0.58568 0.55379 0.39688 0.0
H6342 H 0.59146 0.54251 0.37923 0.0
H6343 H 0.60551 0.55273 0.39577 0.0
C6344 C 0.60243 0.49954 0.34806 0.0
C6345 C 0.61563 0.51117 0.34549 0.0
C6346 C 0.5955 0.50089 0.36283 0.0
C6347 C 0.60142 0.51389 0.37581 0.0
C6348 C 0.61488 0.52517 0.37337 0.0
H6349 H 0.58352 0.54434 0.47668 0.0
H6350 H 0.59342 0.54001 0.45036 0.0
C6351 C 0.62168 0.52395 0.3586 0.0
C6352 C 0.59386 0.51551 0.39182 0.0
H6353 H 0.58295 0.54325 0.42111 0.0
C6354 C 0.58958 0.50178 0.39933 0.0
C6355 C 0.5909 0.53055 0.39993 0.0
C6356 C 0.59346 0.54566 0.39246 0.0
C6357 C 0.58323 0.50277 0.41449 0.0
C6358 C 0.58082 0.51795 0.42282 0.0
C6359 C 0.58484 0.53158 0.41519 0.0
C6360 C 0.57449 0.52013 0.43941 0.0
C6361 C 0.57961 0.4875 0.42166 0.0
C6362 C 0.56029 0.5106 0.44269 0.0
C6363 C 0.55449 0.5131 0.458 0.0
C6364 C 0.56258 0.5253 0.47077 0.0
C6365 C 0.57678 0.53478 0.46745 0.0
C6366 C 0.58252 0.53232 0.45217 0.0
H6367 H 0.58584 0.47816 0.41622 0.0
H6368 H 0.5827 0.49032 0.43477 0.0
H6369 H 0.56704 0.48204 0.41946 0.0
H6370 H 0.55344 0.50133 0.4333 0.0
H6371 H 0.54357 0.50545 0.45976 0.0
H6372 H 0.29197 0.86414 0.07204 0.0
H6373 H 0.29146 0.85062 0.09514 0.0
H6374 H 0.33214 0.88627 0.11745 0.0
H6375 H 0.33206 0.90057 0.09496 0.0
H6376 H 0.31259 0.83668 0.10535 0.0
H6377 H 0.30474 0.88608 0.15355 0.0
H6378 H 0.30216 0.88716 0.13264 0.0
H6379 H 0.32121 0.89257 0.14298 0.0
C6380 C 0.30059 0.86928 0.08204 0.0
C6381 C 0.31193 0.88347 0.08185 0.0
C6382 C 0.30032 0.86154 0.09514 0.0
C6383 C 0.31149 0.86779 0.1081 0.0
C6384 C 0.32311 0.88166 0.10776 0.0
H6385 H 0.34787 0.82268 0.17729 0.0
H6386 H 0.34252 0.84153 0.1599 0.0
C6387 C 0.32324 0.88959 0.09478 0.0
C6388 C 0.31174 0.85896 0.12138 0.0
H6389 H 0.3139 0.86364 0.162 0.0
C6390 C 0.31263 0.8425 0.11771 0.0
C6391 C 0.31168 0.86666 0.13743 0.0
C6392 C 0.30973 0.88404 0.14187 0.0
C6393 C 0.31404 0.83362 0.12978 0.0
C6394 C 0.31481 0.84154 0.14579 0.0
C6395 C 0.31346 0.85783 0.14958 0.0
C6396 C 0.3177 0.8329 0.15855 0.0
C6397 C 0.31505 0.8159 0.12544 0.0
C6398 C 0.30542 0.8221 0.16334 0.0
C6399 C 0.30844 0.81123 0.1729 0.0
C6400 C 0.32376 0.81111 0.17768 0.0
C6401 C 0.33603 0.82233 0.17329 0.0
C6402 C 0.33299 0.83326 0.16375 0.0
H6403 H 0.31469 0.81172 0.11233 0.0
H6404 H 0.32592 0.8141 0.13114 0.0
H6405 H 0.30527 0.80804 0.13005 0.0
H6406 H 0.29359 0.82164 0.15915 0.0
H6407 H 0.29884 0.80277 0.17642 0.0
H6408 H 0.94606 0.53305 0.87709 0.0
H6409 H 0.96552 0.53654 0.89948 0.0
H6410 H 0.99238 0.57883 0.88408 0.0
H6411 H 0.97299 0.57541 0.86164 0.0
H6412 H 0.9977 0.53631 0.89249 0.0
H6413 H 0.99049 0.59208 0.9339 0.0
H6414 H 0.97497 0.57959 0.91982 0.0
H6415 H 0.99083 0.59263 0.91287 0.0
C6416 C 0.95602 0.5432 0.87865 0.0
C6417 C 0.95818 0.55392 0.86772 0.0
C6418 C 0.96703 0.5452 0.89138 0.0
C6419 C 0.98023 0.55793 0.89325 0.0
C6420 C 0.9821 0.56908 0.88279 0.0
H6421 H 0.05135 0.56735 0.97165 0.0
H6422 H 0.04123 0.57184 0.94584 0.0
C6423 C 0.97107 0.56712 0.87007 0.0
C6424 C 0.99265 0.55848 0.90528 0.0
H6425 H 0.0088 0.57816 0.94224 0.0
C6426 C 1.0004 0.54561 0.90325 0.0
C6427 C 0.99605 0.57076 0.9191 0.0
C6428 C 0.98765 0.58456 0.9217 0.0
C6429 C 0.01092 0.54415 0.91529 0.0
C6430 C 0.01364 0.55587 0.92952 0.0
C6431 C 0.00672 0.56937 0.93111 0.0
C6432 C 0.02075 0.55245 0.94396 0.0
C6433 C 0.01832 0.52957 0.91317 0.0
C6434 C 0.01241 0.54015 0.95117 0.0
C6435 C 0.018 0.53764 0.96577 0.0
C6436 C 0.03203 0.54742 0.97335 0.0
C6437 C 0.04055 0.55957 0.96595 0.0
C6438 C 0.03485 0.56216 0.9513 0.0
H6439 H 0.01846 0.52432 0.90033 0.0
H6440 H 0.03033 0.53296 0.9189 0.0
H6441 H 0.01158 0.51991 0.91895 0.0
H6442 H 1.00135 0.53278 0.94568 0.0
H6443 H 0.01119 0.52817 0.97116 0.0
H6444 H 0.29004 0.2199 0.59885 0.0
H6445 H 0.29052 0.23211 0.62699 0.0
H6446 H 0.3132 0.27905 0.61721 0.0
H6447 H 0.31267 0.26688 0.58878 0.0
H6448 H 0.31979 0.25176 0.64798 0.0
H6449 H 0.27266 0.28509 0.64182 0.0
H6450 H 0.27389 0.26753 0.62706 0.0
H6451 H 0.28783 0.28641 0.62845 0.0
C6452 C 0.29501 0.23286 0.60261 0.0
C6453 C 0.30115 0.24245 0.59152 0.0
C6454 C 0.29535 0.2398 0.61872 0.0
C6455 C 0.30173 0.2565 0.62414 0.0
C6456 C 0.30808 0.26616 0.61322 0.0
H6457 H 0.29781 0.30099 0.72554 0.0
H6458 H 0.30002 0.29905 0.69658 0.0
C6459 C 0.30785 0.25917 0.59702 0.0
C6460 C 0.3018 0.26343 0.64134 0.0
H6461 H 0.28111 0.28306 0.6679 0.0
C6462 C 0.31152 0.25884 0.65235 0.0
C6463 C 0.29117 0.27287 0.647 0.0
C6464 C 0.28072 0.27833 0.63555 0.0
C6465 C 0.31038 0.26275 0.66885 0.0
C6466 C 0.29884 0.271 0.6745 0.0
C6467 C 0.28978 0.27653 0.66355 0.0
C6468 C 0.29528 0.27256 0.69149 0.0
C6469 C 0.32138 0.25769 0.68008 0.0
C6470 C 0.29101 0.25835 0.69805 0.0
C6471 C 0.28984 0.25943 0.71442 0.0
C6472 C 0.29252 0.27474 0.72459 0.0
C6473 C 0.29554 0.28903 0.71792 0.0
C6474 C 0.2969 0.28793 0.70143 0.0
H6475 H 0.33234 0.25667 0.67467 0.0
H6476 H 0.32413 0.26655 0.69156 0.0
H6477 H 0.31598 0.24549 0.68266 0.0
H6478 H 0.28928 0.24636 0.69056 0.0
H6479 H 0.28748 0.24826 0.71928 0.0
H6480 H 0.5897 0.50342 0.18682 0.0
H6481 H 0.57743 0.50727 0.16164 0.0
H6482 H 0.62223 0.52535 0.14643 0.0
H6483 H 0.63452 0.52127 0.17119 0.0
H6484 H 0.57721 0.53461 0.14691 0.0
H6485 H 0.60333 0.49131 0.10745 0.0
H6486 H 0.60357 0.49195 0.12873 0.0
H6487 H 0.61765 0.50632 0.12074 0.0
C6488 C 0.59706 0.50808 0.17812 0.0
C6489 C 0.61335 0.512 0.18154 0.0
C6490 C 0.58992 0.51042 0.16359 0.0
C6491 C 0.59871 0.51652 0.15163 0.0
C6492 C 0.61492 0.52041 0.15503 0.0
H6493 H 0.59005 0.54036 0.05612 0.0
H6494 H 0.59713 0.53574 0.0827 0.0
C6495 C 0.62204 0.51821 0.16953 0.0
C6496 C 0.59125 0.51892 0.13574 0.0
H6497 H 0.59249 0.50989 0.09492 0.0
C6498 C 0.58052 0.52908 0.13556 0.0
C6499 C 0.5951 0.51167 0.12059 0.0
C6500 C 0.6054 0.49956 0.11931 0.0
C6501 C 0.57443 0.53284 0.12111 0.0
C6502 C 0.57885 0.52612 0.10597 0.0
C6503 C 0.5891 0.51546 0.10621 0.0
C6504 C 0.57386 0.53041 0.08988 0.0
C6505 C 0.56374 0.54455 0.12234 0.0
C6506 C 0.55826 0.52951 0.08443 0.0
C6507 C 0.55414 0.53253 0.06896 0.0
C6508 C 0.56544 0.53637 0.05826 0.0
C6509 C 0.58094 0.53756 0.06387 0.0
C6510 C 0.58503 0.53475 0.07923 0.0
H6511 H 0.56475 0.55196 0.13455 0.0
H6512 H 0.56616 0.55297 0.11368 0.0
H6513 H 0.55163 0.53745 0.11965 0.0
H6514 H 0.54911 0.52585 0.09186 0.0
H6515 H 0.54205 0.53111 0.06514 0.0
H6516 H 0.3355 0.88955 0.92973 0.0
H6517 H 0.33536 0.8701 0.90502 0.0
H6518 H 0.29488 0.8382 0.91722 0.0
H6519 H 0.2951 0.85736 0.94221 0.0
H6520 H 0.32412 0.82454 0.90502 0.0
H6521 H 0.29728 0.86161 0.86822 0.0
H6522 H 0.31259 0.87204 0.88341 0.0
H6523 H 0.29431 0.86227 0.88912 0.0
C6524 C 0.32671 0.87829 0.92726 0.0
C6525 C 0.3153 0.87492 0.93783 0.0
C6526 C 0.32664 0.86728 0.91319 0.0
C6527 C 0.31515 0.85286 0.90954 0.0
C6528 C 0.30384 0.84932 0.92006 0.0
H6529 H 0.28647 0.78152 0.82426 0.0
H6530 H 0.29163 0.79344 0.85273 0.0
C6531 C 0.3039 0.86031 0.93416 0.0
C6532 C 0.31448 0.84186 0.89427 0.0
H6533 H 0.30393 0.83788 0.85469 0.0
C6534 C 0.31968 0.82734 0.89397 0.0
C6535 C 0.30869 0.84579 0.88008 0.0
C6536 C 0.30282 0.86123 0.88009 0.0
C6537 C 0.31933 0.81655 0.87952 0.0
C6538 C 0.31355 0.82052 0.86538 0.0
C6539 C 0.30833 0.83501 0.86573 0.0
C6540 C 0.31291 0.81007 0.8498 0.0
C6541 C 0.3253 0.80119 0.87928 0.0
C6542 C 0.32351 0.81516 0.83911 0.0
C6543 C 0.3204 0.8087 0.82292 0.0
C6544 C 0.30663 0.79712 0.81729 0.0
C6545 C 0.29692 0.79072 0.82825 0.0
C6546 C 0.29995 0.79735 0.8445 0.0
H6547 H 0.32998 0.80018 0.89131 0.0
H6548 H 0.31582 0.79033 0.87472 0.0
H6549 H 0.33454 0.80098 0.87097 0.0
H6550 H 0.33355 0.82502 0.84313 0.0
H6551 H 0.32834 0.8135 0.81475 0.0
H6552 H 0.94398 0.56204 0.71237 0.0
H6553 H 0.95406 0.56181 0.68614 0.0
H6554 H 0.96898 0.51728 0.68968 0.0
H6555 H 0.95946 0.51768 0.71613 0.0
H6556 H 0.9873 0.56027 0.68207 0.0
H6557 H 0.94383 0.51026 0.64384 0.0
H6558 H 0.93942 0.5223 0.66195 0.0
H6559 H 0.94934 0.50609 0.66307 0.0
C6560 C 0.94952 0.55226 0.7076 0.0
C6561 C 0.95106 0.53992 0.71629 0.0
C6562 C 0.95504 0.55206 0.69259 0.0
C6563 C 0.96191 0.53938 0.68604 0.0
C6564 C 0.96334 0.52695 0.69455 0.0
H6565 H 0.01882 0.50316 0.62389 0.0
H6566 H 0.99934 0.50959 0.64181 0.0
C6567 C 0.95796 0.52722 0.70961 0.0
C6568 C 0.96914 0.53982 0.67106 0.0
H6569 H 0.96918 0.51644 0.63452 0.0
C6570 C 0.98321 0.55103 0.67143 0.0
C6571 C 0.96356 0.52775 0.65737 0.0
C6572 C 0.94813 0.51598 0.65641 0.0
C6573 C 0.99266 0.54949 0.65891 0.0
C6574 C 0.98762 0.53659 0.64571 0.0
C6575 C 0.97296 0.52623 0.64477 0.0
C6576 C 0.9983 0.53235 0.634 0.0
C6577 C 0.00845 0.5608 0.66046 0.0
C6578 C 0.00399 0.54307 0.62383 0.0
C6579 C 0.01528 0.5396 0.61389 0.0
C6580 C 0.02084 0.52526 0.61389 0.0
C6581 C 0.01491 0.51442 0.62393 0.0
C6582 C 0.00367 0.51795 0.63392 0.0
H6583 H 0.01134 0.56867 0.67249 0.0
H6584 H 0.01748 0.55363 0.65815 0.0
H6585 H 0.00882 0.56888 0.65146 0.0
H6586 H 0.99987 0.55419 0.62376 0.0
H6587 H 0.01971 0.54817 0.60625 0.0
H6588 H 0.31687 0.21614 0.42165 0.0
H6589 H 0.31818 0.22572 0.39615 0.0
H6590 H 0.30165 0.26817 0.41671 0.0
H6591 H 0.30044 0.25876 0.4424 0.0
H6592 H 0.29003 0.23253 0.3798 0.0
H6593 H 0.34071 0.2854 0.39202 0.0
H6594 H 0.33849 0.2689 0.40323 0.0
H6595 H 0.32682 0.28377 0.4067 0.0
C6596 C 0.31382 0.22769 0.42088 0.0
C6597 C 0.30855 0.23668 0.43408 0.0
C6598 C 0.3145 0.2331 0.40627 0.0
C6599 C 0.3101 0.24768 0.40459 0.0
C6600 C 0.30523 0.25695 0.41782 0.0
H6601 H 0.30196 0.29674 0.3242 0.0
H6602 H 0.30455 0.28947 0.35059 0.0
C6603 C 0.30444 0.25149 0.43244 0.0
C6604 C 0.30944 0.25244 0.38866 0.0
H6605 H 0.32674 0.28018 0.36672 0.0
C6606 C 0.29808 0.24291 0.37689 0.0
C6607 C 0.31983 0.2661 0.38503 0.0
C6608 C 0.33224 0.27666 0.39733 0.0
C6609 C 0.2967 0.24675 0.36157 0.0
C6610 C 0.30736 0.26017 0.35772 0.0
C6611 C 0.31868 0.26979 0.36959 0.0
C6612 C 0.30662 0.26469 0.34162 0.0
C6613 C 0.28352 0.23668 0.34984 0.0
C6614 C 0.30718 0.25328 0.32774 0.0
C6615 C 0.30555 0.25738 0.31259 0.0
C6616 C 0.30378 0.2731 0.31111 0.0
C6617 C 0.30366 0.28463 0.325 0.0
C6618 C 0.30506 0.28047 0.3401 0.0
H6619 H 0.27402 0.23025 0.35601 0.0
H6620 H 0.27873 0.24444 0.34254 0.0
H6621 H 0.28776 0.22725 0.3417 0.0
H6622 H 0.30878 0.24116 0.32861 0.0
H6623 H 0.30577 0.24831 0.30206 0.0
H6624 H 0.36388 0.62974 0.50546 0.0
H6625 H 0.38599 0.61667 0.5048 0.0
H6626 H 0.35909 0.57606 0.52271 0.0
H6627 H 0.33683 0.58878 0.52297 0.0
H6628 H 0.40074 0.6068 0.53152 0.0
H6629 H 0.37584 0.55534 0.4815 0.0
H6630 H 0.36825 0.57359 0.4856 0.0
H6631 H 0.36365 0.55795 0.49751 0.0
C6632 C 0.36266 0.61793 0.50904 0.0
C6633 C 0.34873 0.61022 0.51425 0.0
C6634 C 0.37528 0.6106 0.5088 0.0
C6635 C 0.37402 0.59547 0.51366 0.0
C6636 C 0.36013 0.58772 0.51882 0.0
H6637 H 0.43095 0.52623 0.51408 0.0
H6638 H 0.41186 0.54281 0.52041 0.0
C6639 C 0.34752 0.59502 0.51906 0.0
C6640 C 0.38724 0.58768 0.51328 0.0
H6641 H 0.39903 0.55399 0.49546 0.0
C6642 C 0.40048 0.59527 0.52364 0.0
C6643 C 0.38669 0.57274 0.50291 0.0
C6644 C 0.37291 0.56446 0.49114 0.0
C6645 C 0.4132 0.58798 0.52415 0.0
C6646 C 0.41253 0.5729 0.51391 0.0
C6647 C 0.39935 0.56548 0.50343 0.0
C6648 C 0.42535 0.56445 0.51342 0.0
C6649 C 0.42706 0.59627 0.53577 0.0
C6650 C 0.43934 0.57137 0.5078 0.0
C6651 C 0.45023 0.56194 0.50425 0.0
C6652 C 0.44708 0.54546 0.50604 0.0
C6653 C 0.43342 0.53883 0.51237 0.0
C6654 C 0.42265 0.5483 0.51611 0.0
H6655 H 0.42422 0.60549 0.54538 0.0
H6656 H 0.43174 0.58716 0.54131 0.0
H6657 H 0.43626 0.60268 0.52926 0.0
H6658 H 0.44145 0.58372 0.50536 0.0
H6659 H 0.46077 0.56725 0.49939 0.0
H6660 H 0.88215 0.94952 0.56248 0.0
H6661 H 0.90828 0.96627 0.56294 0.0
H6662 H 0.90553 0.95545 0.51152 0.0
H6663 H 0.87972 0.9383 0.51088 0.0
H6664 H 0.9354 0.95723 0.54962 0.0
H6665 H 0.91781 0.00634 0.52259 0.0
H6666 H 0.90437 0.99189 0.5313 0.0
H6667 H 0.91015 0.98595 0.51166 0.0
C6668 C 0.8871 0.95052 0.55123 0.0
C6669 C 0.87855 0.94254 0.53662 0.0
C6670 C 0.90207 0.96023 0.55154 0.0
C6671 C 0.90883 0.9624 0.53726 0.0
C6672 C 0.90047 0.95431 0.5227 0.0
H6673 H 1.00175 0.99394 0.5128 0.0
H6674 H 0.97586 0.97975 0.51703 0.0
C6675 C 0.8856 0.94451 0.52238 0.0
C6676 C 0.9247 0.97284 0.53747 0.0
H6677 H 0.94472 0.00663 0.5245 0.0
C6678 C 0.93741 0.9681 0.54425 0.0
C6679 C 0.9274 0.98716 0.53062 0.0
C6680 C 0.91423 0.99328 0.52374 0.0
C6681 C 0.95269 0.97689 0.54378 0.0
C6682 C 0.9554 0.99082 0.53637 0.0
C6683 C 0.94268 0.99592 0.53012 0.0
C6684 C 0.97139 0.99966 0.53422 0.0
C6685 C 0.96588 0.97117 0.55113 0.0
C6686 C 0.9776 0.01571 0.54243 0.0
C6687 C 0.9926 0.02393 0.54014 0.0
C6688 C 1.00164 0.01637 0.52937 0.0
C6689 C 0.99528 1.00027 0.52119 0.0
C6690 C 0.98041 0.99206 0.52361 0.0
H6691 H 0.96186 0.96236 0.55913 0.0
H6692 H 0.97174 0.96501 0.54149 0.0
H6693 H 0.97453 0.98174 0.55807 0.0
H6694 H 0.97087 0.02186 0.55068 0.0
H6695 H 0.99708 0.03618 0.54679 0.0
H6696 H 0.88511 0.15446 0.29783 0.0
H6697 H 0.87118 0.17639 0.29713 0.0
H6698 H 0.86775 0.16613 0.24578 0.0
H6699 H 0.88167 0.14437 0.2463 0.0
H6700 H 0.87443 0.20511 0.28781 0.0
H6701 H 0.82376 0.16652 0.24983 0.0
H6702 H 0.8385 0.15789 0.25815 0.0
H6703 H 0.8411 0.16611 0.24003 0.0
C6704 C 0.88153 0.15671 0.28626 0.0
C6705 C 0.88472 0.14682 0.27213 0.0
C6706 C 0.87333 0.1695 0.28588 0.0
C6707 C 0.86766 0.17318 0.27138 0.0
C6708 C 0.87118 0.16363 0.2573 0.0
H6709 H 0.82277 0.24821 0.23941 0.0
H6710 H 0.83527 0.22569 0.24265 0.0
C6711 C 0.87937 0.15088 0.25764 0.0
C6712 C 0.85838 0.18685 0.27092 0.0
H6713 H 0.82589 0.19537 0.25294 0.0
C6714 C 0.86375 0.20276 0.28024 0.0
C6715 C 0.84416 0.18446 0.26127 0.0
C6716 C 0.83643 0.16779 0.25189 0.0
C6717 C 0.85594 0.2159 0.27973 0.0
C6718 C 0.84197 0.21357 0.26975 0.0
C6719 C 0.83651 0.19766 0.26061 0.0
C6720 C 0.83335 0.22747 0.26803 0.0
C6721 C 0.86307 0.23251 0.28959 0.0
C6722 C 0.8273 0.23636 0.28099 0.0
C6723 C 0.81964 0.24929 0.27905 0.0
C6724 C 0.81781 0.2541 0.26405 0.0
C6725 C 0.82373 0.24507 0.25117 0.0
C6726 C 0.83103 0.23202 0.25304 0.0
H6727 H 0.87524 0.23343 0.29404 0.0
H6728 H 0.86272 0.24229 0.28251 0.0
H6729 H 0.85636 0.23475 0.30007 0.0
H6730 H 0.82847 0.23331 0.29275 0.0
H6731 H 0.81551 0.25581 0.28941 0.0
H6732 H 0.70832 0.06278 0.00682 0.0
H6733 H 0.68144 0.0534 0.01225 0.0
H6734 H 0.6693 0.09355 0.9933 0.0
H6735 H 0.6959 0.10285 0.98777 0.0
H6736 H 0.66974 0.07553 0.03433 0.0
H6737 H 0.63298 0.05581 0.97676 0.0
H6738 H 0.65359 0.05741 0.97789 0.0
H6739 H 0.64589 0.07545 0.97854 0.0
C6740 C 0.69971 0.06906 0.00311 0.0
C6741 C 0.70407 0.08358 0.99707 0.0
C6742 C 0.6845 0.06383 0.00634 0.0
C6743 C 0.67365 0.07299 0.00334 0.0
C6744 C 0.6776 0.08632 0.99555 0.0
H6745 H 0.58531 0.07785 0.03139 0.0
H6746 H 0.6133 0.08478 0.03842 0.0
C6747 C 0.69277 0.09152 0.99227 0.0
C6748 C 0.65885 0.07003 0.0102 0.0
H6749 H 0.62027 0.06078 0.00025 0.0
C6750 C 0.65886 0.07208 0.02695 0.0
C6751 C 0.64489 0.06604 0.00042 0.0
C6752 C 0.64429 0.06342 0.9824 0.0
C6753 C 0.64497 0.06966 0.03417 0.0
C6754 C 0.63111 0.06517 0.0243 0.0
C6755 C 0.63115 0.06399 0.00767 0.0
C6756 C 0.61612 0.06013 0.03019 0.0
C6757 C 0.64507 0.07147 0.05207 0.0
C6758 C 0.60856 0.04381 0.02442 0.0
C6759 C 0.59307 0.04026 0.01906 0.0
C6760 C 0.58482 0.05259 0.02124 0.0
C6761 C 0.59174 0.06825 0.02971 0.0
C6762 C 0.60755 0.07211 0.0341 0.0
H6763 H 0.65676 0.07712 0.05818 0.0
H6764 H 0.63687 0.07906 0.05658 0.0
H6765 H 0.64113 0.0592 0.05524 0.0
H6766 H 0.61515 0.0345 0.02132 0.0
H6767 H 0.58783 0.02828 0.0123 0.0
H6768 H 0.24742 0.48519 0.23676 0.0
H6769 H 0.26166 0.46394 0.2402 0.0
H6770 H 0.21855 0.42983 0.24195 0.0
H6771 H 0.2044 0.45105 0.23859 0.0
H6772 H 0.25811 0.45023 0.26845 0.0
H6773 H 0.24398 0.40226 0.21371 0.0
H6774 H 0.24254 0.42322 0.21395 0.0
H6775 H 0.22763 0.40935 0.22141 0.0
C6776 C 0.24108 0.47297 0.23737 0.0
C6777 C 0.22496 0.46948 0.23731 0.0
C6778 C 0.24915 0.46092 0.23932 0.0
C6779 C 0.24109 0.44532 0.24105 0.0
C6780 C 0.2249 0.44169 0.24023 0.0
H6781 H 0.25707 0.3743 0.29415 0.0
H6782 H 0.24671 0.39199 0.27855 0.0
C6783 C 0.21686 0.45375 0.23841 0.0
C6784 C 0.24948 0.4337 0.24628 0.0
H6785 H 0.25363 0.39426 0.23733 0.0
C6786 C 0.25743 0.43811 0.26153 0.0
C6787 C 0.24837 0.41791 0.23721 0.0
C6788 C 0.24028 0.4129 0.22059 0.0
C6789 C 0.26378 0.42682 0.26827 0.0
C6790 C 0.26215 0.41084 0.25947 0.0
C6791 C 0.25474 0.40657 0.24398 0.0
C6792 C 0.26753 0.39834 0.26672 0.0
C6793 C 0.27174 0.43179 0.28498 0.0
C6794 C 0.28248 0.39592 0.26482 0.0
C6795 C 0.28843 0.38591 0.27371 0.0
C6796 C 0.27948 0.37832 0.28465 0.0
C6797 C 0.26423 0.38019 0.28593 0.0
C6798 C 0.25828 0.39014 0.27699 0.0
H6799 H 0.27304 0.44505 0.28974 0.0
H6800 H 0.26493 0.42471 0.29309 0.0
H6801 H 0.28335 0.42887 0.28513 0.0
H6802 H 0.28975 0.40234 0.257 0.0
H6803 H 0.30026 0.38475 0.27263 0.0
H6804 H 0.20989 0.40726 0.01877 0.0
H6805 H 0.18845 0.42114 0.01684 0.0
H6806 H 0.21793 0.4665 0.04119 0.0
H6807 H 0.23946 0.4529 0.04293 0.0
H6808 H 0.175 0.44305 0.04299 0.0
H6809 H 0.20222 0.47349 0.99532 0.0
H6810 H 0.20696 0.45517 0.00033 0.0
H6811 H 0.21462 0.47466 0.013 0.0
C6812 C 0.21183 0.42019 0.02372 0.0
C6813 C 0.2265 0.42897 0.03087 0.0
C6814 C 0.1995 0.42806 0.02275 0.0
C6815 C 0.20162 0.44486 0.0288 0.0
C6816 C 0.21606 0.45353 0.03641 0.0
H6817 H 0.1564 0.5232 0.0214 0.0
H6818 H 0.1731 0.50511 0.02727 0.0
C6819 C 0.22835 0.44569 0.03745 0.0
C6820 C 0.18924 0.45373 0.02611 0.0
H6821 H 0.18056 0.48225 0.00549 0.0
C6822 C 0.17611 0.45157 0.03474 0.0
C6823 C 0.19069 0.46474 0.01527 0.0
C6824 C 0.2043 0.46713 0.00532 0.0
C6825 C 0.16469 0.46067 0.03325 0.0
C6826 C 0.16635 0.47199 0.02264 0.0
C6827 C 0.1793 0.47371 0.01372 0.0
C6828 C 0.15535 0.48282 0.02095 0.0
C6829 C 0.15127 0.45852 0.04346 0.0
C6830 C 0.13963 0.47642 0.01577 0.0
C6831 C 0.12996 0.48686 0.01255 0.0
C6832 C 0.13593 0.50382 0.0142 0.0
C6833 C 0.15151 0.51018 0.01987 0.0
C6834 C 0.16106 0.49983 0.02324 0.0
H6835 H 0.15369 0.45266 0.05373 0.0
H6836 H 0.14842 0.47047 0.04809 0.0
H6837 H 0.14097 0.45053 0.0361 0.0
H6838 H 0.13497 0.46333 0.01359 0.0
H6839 H 0.11803 0.4816 0.00806 0.0
H6840 H 0.86913 0.98232 0.28752 0.0
H6841 H 0.85587 0.95381 0.28658 0.0
H6842 H 0.87608 0.9394 0.24308 0.0
H6843 H 0.88979 0.96775 0.24418 0.0
H6844 H 0.83414 0.93191 0.26576 0.0
H6845 H 0.88586 0.90536 0.26673 0.0
H6846 H 0.88724 0.92718 0.27076 0.0
H6847 H 0.88426 0.91606 0.25051 0.0
C6848 C 0.87105 0.97318 0.2778 0.0
C6849 C 0.88089 0.97792 0.266 0.0
C6850 C 0.86324 0.95664 0.27721 0.0
C6851 C 0.86495 0.94388 0.26491 0.0
C6852 C 0.87461 0.94856 0.25301 0.0
H6853 H 0.83183 0.83477 0.24639 0.0
H6854 H 0.84443 0.86335 0.24611 0.0
C6855 C 0.88239 0.96511 0.25355 0.0
C6856 C 0.85643 0.92598 0.26442 0.0
H6857 H 0.86169 0.88664 0.2625 0.0
C6858 C 0.84025 0.92206 0.26508 0.0
C6859 C 0.86401 0.91267 0.26335 0.0
C6860 C 0.88131 0.91548 0.26294 0.0
C6861 C 0.83161 0.9057 0.26432 0.0
C6862 C 0.83921 0.89234 0.26365 0.0
C6863 C 0.85545 0.89636 0.26302 0.0
C6864 C 0.83077 0.87433 0.26344 0.0
C6865 C 0.81425 0.90308 0.26352 0.0
C6866 C 0.81861 0.87004 0.27318 0.0
C6867 C 0.81087 0.8535 0.27276 0.0
C6868 C 0.81537 0.84032 0.26317 0.0
C6869 C 0.82784 0.84443 0.25386 0.0
C6870 C 0.83519 0.861 0.25382 0.0
H6871 H 0.8102 0.91274 0.25827 0.0
H6872 H 0.80851 0.89101 0.25624 0.0
H6873 H 0.8105 0.90382 0.2758 0.0
H6874 H 0.81515 0.87943 0.2815 0.0
H6875 H 0.80164 0.851 0.28045 0.0
H6876 H 0.75757 0.10865 0.738 0.0
H6877 H 0.77415 0.13542 0.73734 0.0
H6878 H 0.75437 0.15659 0.77885 0.0
H6879 H 0.73766 0.13018 0.77942 0.0
H6880 H 0.7593 0.16026 0.73273 0.0
H6881 H 0.79985 0.17981 0.78715 0.0
H6882 H 0.79117 0.15852 0.77927 0.0
H6883 H 0.78075 0.17106 0.79171 0.0
C6884 C 0.75706 0.11898 0.74719 0.0
C6885 C 0.74625 0.11746 0.75866 0.0
C6886 C 0.7666 0.13414 0.74686 0.0
C6887 C 0.76554 0.1478 0.75814 0.0
C6888 C 0.7556 0.14604 0.77031 0.0
H6889 H 0.75388 0.24161 0.75838 0.0
H6890 H 0.753 0.2122 0.75262 0.0
C6891 C 0.74602 0.13095 0.77059 0.0
C6892 C 0.77232 0.16432 0.75565 0.0
H6893 H 0.79063 0.20146 0.77681 0.0
C6894 C 0.76662 0.16926 0.74207 0.0
C6895 C 0.78187 0.17589 0.76782 0.0
C6896 C 0.78888 0.171 0.78223 0.0
C6897 C 0.76914 0.18582 0.74102 0.0
C6898 C 0.77736 0.19753 0.754 0.0
C6899 C 0.78418 0.19244 0.76691 0.0
C6900 C 0.77789 0.21508 0.75532 0.0
C6901 C 0.76244 0.19058 0.72637 0.0
C6902 C 0.79208 0.22629 0.75928 0.0
C6903 C 0.79249 0.24288 0.76327 0.0
C6904 C 0.77881 0.24857 0.76269 0.0
C6905 C 0.76459 0.23742 0.75855 0.0
C6906 C 0.76412 0.22071 0.75499 0.0
H6907 H 0.76162 0.18082 0.71569 0.0
H6908 H 0.75058 0.19229 0.72824 0.0
H6909 H 0.76953 0.20214 0.72392 0.0
H6910 H 0.80279 0.22214 0.75983 0.0
H6911 H 0.80353 0.25119 0.76694 0.0
loop_
_geom_bond_atom_site_label_1
_geom_bond_atom_site_label_2
_geom_bond_distance
_geom_bond_site_symmetry_2
_ccdc_geom_bond_type
Li0 N17 1.990 . S
Li0 O60 1.956 . S
Li0 O61 1.970 . S
Li0 O62 1.961 . S
Li1 N25 1.990 . S
Li1 O60 1.970 . S
Li1 O61 1.956 . S
Li1 O63 1.961 . S
Li2 N47 1.990 . S
Li2 O60 1.961 . S
Li2 O62 1.956 . S
Li2 O63 1.970 . S
Li3 N53 1.990 . S
Li3 O61 1.961 . S
Li3 O62 1.970 . S
Li3 O63 1.956 . S
C4 C6 1.348 . S
C4 C7 1.356 . S
C4 O60 1.325 . S
N5 C8 1.314 . S
N5 C9 1.279 . S
C6 C4 1.348 . S
C6 C8 1.353 . S
C6 H64 0.929 . S
C7 C4 1.356 . S
C7 C9 1.358 . S
C7 H65 0.930 . S
C8 N5 1.314 . S
C8 C6 1.353 . S
C8 H66 0.930 . S
C9 N5 1.279 . S
C9 C7 1.358 . S
C9 H67 0.930 . S
C10 C13 1.348 . S
C10 C14 1.356 . S
C10 O61 1.325 . S
C11 N12 1.279 . S
C11 C14 1.358 . S
C11 H68 0.930 . S
N12 C11 1.279 . S
N12 C15 1.314 . S
C13 C10 1.348 . S
C13 C15 1.353 . S
C13 H69 0.929 . S
C14 C10 1.356 . S
C14 C11 1.358 . S
C14 H70 0.930 . S
C15 N12 1.314 . S
C15 C13 1.353 . S
C15 H71 0.930 . S
C16 N17 1.314 . S
C16 C21 1.353 . S
C16 H22 0.930 . S
N17 Li0 1.990 . S
N17 C16 1.314 . S
N17 C19 1.279 . S
C18 C19 1.358 . S
C18 C20 1.356 . S
C18 H72 0.930 . S
C19 N17 1.279 . S
C19 C18 1.358 . S
C19 H23 0.930 . S
C20 C18 1.356 . S
C20 C21 1.348 . S
C21 C16 1.353 . S
C21 C20 1.348 . S
C21 H73 0.929 . S
H22 C16 0.930 . S
H23 C19 0.930 . S
C24 N25 1.314 . S
C24 C26 1.353 . S
C24 H30 0.930 . S
N25 Li1 1.990 . S
N25 C24 1.314 . S
N25 C28 1.279 . S
C26 C24 1.353 . S
C26 C29 1.348 . S
C26 H74 0.929 . S
C27 C28 1.358 . S
C27 C29 1.356 . S
C27 H75 0.930 . S
C28 N25 1.279 . S
C28 C27 1.358 . S
C28 H31 0.930 . S
C29 C26 1.348 . S
C29 C27 1.356 . S
H30 C24 0.930 . S
H31 C28 0.930 . S
C32 C34 1.348 . S
C32 C35 1.356 . S
C32 O62 1.325 . S
N33 C36 1.314 . S
N33 C37 1.279 . S
C34 C32 1.348 . S
C34 C36 1.353 . S
C34 H76 0.929 . S
C35 C32 1.356 . S
C35 C37 1.358 . S
C35 H77 0.930 . S
C36 N33 1.314 . S
C36 C34 1.353 . S
C36 H78 0.930 . S
C37 N33 1.279 . S
C37 C35 1.358 . S
C37 H79 0.930 . S
C38 C39 1.348 . S
C38 C40 1.356 . S
C38 O63 1.325 . S
C39 C38 1.348 . S
C39 C41 1.353 . S
C39 H80 0.929 . S
C40 C38 1.356 . S
C40 C42 1.358 . S
C40 H81 0.930 . S
C41 C39 1.353 . S
C41 N43 1.314 . S
C41 H82 0.930 . S
C42 C40 1.358 . S
C42 N43 1.279 . S
C42 H83 0.930 . S
N43 C41 1.314 . S
N43 C42 1.279 . S
C44 C46 1.353 . S
C44 N47 1.314 . S
C44 H50 0.930 . S
C45 N47 1.279 . S
C45 C48 1.358 . S
C45 H51 0.930 . S
C46 C44 1.353 . S
C46 C49 1.348 . S
C46 H84 0.929 . S
N47 Li2 1.990 . S
N47 C44 1.314 . S
N47 C45 1.279 . S
C48 C45 1.358 . S
C48 C49 1.356 . S
C48 H85 0.930 . S
C49 C46 1.348 . S
C49 C48 1.356 . S
H50 C44 0.930 . S
H51 C45 0.930 . S
C52 N53 1.314 . S
C52 C54 1.353 . S
C52 H58 0.930 . S
N53 Li3 1.990 . S
N53 C52 1.314 . S
N53 C56 1.279 . S
C54 C52 1.353 . S
C54 C57 1.348 . S
C54 H86 0.929 . S
C55 C56 1.358 . S
C55 C57 1.356 . S
C55 H87 0.930 . S
C56 N53 1.279 . S
C56 C55 1.358 . S
C56 H59 0.930 . S
C57 C54 1.348 . S
C57 C55 1.356 . S
H58 C52 0.930 . S
H59 C56 0.930 . S
O60 Li0 1.956 . S
O60 Li1 1.970 . S
O60 Li2 1.961 . S
O60 C4 1.325 . S
O61 Li0 1.970 . S
O61 Li1 1.956 . S
O61 Li3 1.961 . S
O61 C10 1.325 . S
O62 Li0 1.961 . S
O62 Li2 1.956 . S
O62 Li3 1.970 . S
O62 C32 1.325 . S
O63 Li1 1.961 . S
O63 Li2 1.970 . S
O63 Li3 1.956 . S
O63 C38 1.325 . S
H64 C6 0.929 . S
H65 C7 0.930 . S
H66 C8 0.930 . S
H67 C9 0.930 . S
H68 C11 0.930 . S
H69 C13 0.929 . S
H70 C14 0.930 . S
H71 C15 0.930 . S
H72 C18 0.930 . S
H73 C21 0.929 . S
H74 C26 0.929 . S
H75 C27 0.930 . S
H76 C34 0.929 . S
H77 C35 0.930 . S
H78 C36 0.930 . S
H79 C37 0.930 . S
H80 C39 0.929 . S
H81 C40 0.930 . S
H82 C41 0.930 . S
H83 C42 0.930 . S
H84 C46 0.929 . S
H85 C48 0.930 . S
H86 C54 0.929 . S
H87 C55 0.930 . S
Li88 N105 1.990 . S
Li88 O148 1.956 . S
Li88 O149 1.970 . S
Li88 O150 1.961 1_455 S
Li89 N113 1.990 . S
Li89 O148 1.970 . S
Li89 O149 1.956 . S
Li89 O151 1.927 1_455 S
Li90 N135 1.990 . S
Li90 O148 1.961 1_655 S
Li90 O150 1.956 . S
Li90 O151 1.973 . S
Li91 N141 1.990 . S
Li91 O149 1.961 1_655 S
Li91 O150 1.970 . S
Li91 O151 2.003 . S
C92 C94 1.348 . S
C92 C95 1.356 . S
C92 O148 1.325 . S
N93 C96 1.314 . S
N93 C97 1.279 . S
C94 C92 1.348 . S
C94 C96 1.353 . S
C94 H152 0.929 . S
C95 C92 1.356 . S
C95 C97 1.358 . S
C95 H153 0.930 . S
C96 N93 1.314 . S
C96 C94 1.353 . S
C96 H154 0.930 . S
C97 N93 1.279 . S
C97 C95 1.358 . S
C97 H155 0.930 . S
C98 C101 1.348 . S
C98 C102 1.356 . S
C98 O149 1.325 . S
C99 N100 1.279 . S
C99 C102 1.358 . S
C99 H156 0.930 . S
N100 C99 1.279 . S
N100 C103 1.314 . S
C101 C98 1.348 . S
C101 C103 1.353 . S
C101 H157 0.929 . S
C102 C98 1.356 . S
C102 C99 1.358 . S
C102 H158 0.924 1_455 S
C103 N100 1.314 . S
C103 C101 1.353 . S
C103 H159 0.930 . S
C104 N105 1.314 1_655 S
C104 C109 1.353 . S
C104 H110 0.930 . S
N105 Li88 1.990 . S
N105 C104 1.314 1_455 S
N105 C107 1.279 . S
C106 C107 1.358 . S
C106 C108 1.356 . S
C106 H160 0.930 . S
C107 N105 1.279 . S
C107 C106 1.358 . S
C107 H111 0.930 . S
C108 C106 1.356 . S
C108 C109 1.348 1_455 S
C109 C104 1.353 . S
C109 C108 1.348 1_655 S
C109 H161 0.929 . S
H110 C104 0.930 . S
H111 C107 0.930 . S
C112 N113 1.314 . S
C112 C114 1.353 . S
C112 H118 0.930 . S
N113 Li89 1.990 . S
N113 C112 1.314 . S
N113 C116 1.279 . S
C114 C112 1.353 . S
C114 C117 1.348 . S
C114 H162 0.929 . S
C115 C116 1.358 . S
C115 C117 1.356 . S
C115 H163 0.930 . S
C116 N113 1.279 . S
C116 C115 1.358 . S
C116 H119 0.930 . S
C117 C114 1.348 . S
C117 C115 1.356 . S
H118 C112 0.930 . S
H119 C116 0.930 . S
C120 C122 1.348 . S
C120 C123 1.356 . S
C120 O150 1.325 . S
N121 C124 1.314 . S
N121 C125 1.279 . S
C122 C120 1.348 . S
C122 C124 1.353 . S
C122 H164 0.929 . S
C123 C120 1.356 . S
C123 C125 1.358 . S
C123 H165 0.930 . S
C124 N121 1.314 . S
C124 C122 1.353 . S
C124 H166 0.930 . S
C125 N121 1.279 . S
C125 C123 1.358 . S
C125 H167 0.930 . S
C126 C127 1.348 . S
C126 C128 1.356 1_655 S
C126 O151 1.323 . S
C127 C126 1.348 . S
C127 C129 1.353 . S
C127 H168 0.929 . S
C128 C126 1.356 1_455 S
C128 C130 1.359 . S
C128 H169 0.930 . S
C129 C127 1.353 . S
C129 N131 1.314 . S
C129 H170 0.930 . S
C130 C128 1.359 . S
C130 N131 1.280 1_455 S
C130 H171 0.929 . S
N131 C129 1.314 . S
N131 C130 1.280 1_655 S
C132 C134 1.353 . S
C132 N135 1.314 1_455 S
C132 H138 0.930 . S
C133 N135 1.279 . S
C133 C136 1.358 . S
C133 H139 0.930 . S
C134 C132 1.353 . S
C134 C137 1.348 1_455 S
C134 H172 0.929 . S
N135 Li90 1.990 . S
N135 C132 1.314 1_655 S
N135 C133 1.279 . S
C136 C133 1.358 . S
C136 C137 1.356 . S
C136 H173 0.930 . S
C137 C134 1.348 1_655 S
C137 C136 1.356 . S
H138 C132 0.930 . S
H139 C133 0.930 . S
C140 N141 1.314 . S
C140 C142 1.353 . S
C140 H146 0.930 . S
N141 Li91 1.990 . S
N141 C140 1.314 . S
N141 C144 1.279 . S
C142 C140 1.353 . S
C142 C145 1.348 . S
C142 H174 0.929 . S
C143 C144 1.358 . S
C143 C145 1.356 . S
C143 H175 0.930 . S
C144 N141 1.279 . S
C144 C143 1.358 . S
C144 H147 0.930 . S
C145 C142 1.348 . S
C145 C143 1.356 . S
H146 C140 0.930 . S
H147 C144 0.930 . S
O148 Li88 1.956 . S
O148 Li89 1.970 . S
O148 Li90 1.961 1_455 S
O148 C92 1.325 . S
O149 Li88 1.970 . S
O149 Li89 1.956 . S
O149 Li91 1.961 1_455 S
O149 C98 1.325 . S
O150 Li88 1.961 1_655 S
O150 Li90 1.956 . S
O150 Li91 1.970 . S
O150 C120 1.325 . S
O151 Li89 1.927 1_655 S
O151 Li90 1.973 . S
O151 Li91 2.003 . S
O151 C126 1.323 . S
H152 C94 0.929 . S
H153 C95 0.930 . S
H154 C96 0.930 . S
H155 C97 0.930 . S
H156 C99 0.930 . S
H157 C101 0.929 . S
H158 C102 0.924 1_655 S
H159 C103 0.930 . S
H160 C106 0.930 . S
H161 C109 0.929 . S
H162 C114 0.929 . S
H163 C115 0.930 . S
H164 C122 0.929 . S
H165 C123 0.930 . S
H166 C124 0.930 . S
H167 C125 0.930 . S
H168 C127 0.929 . S
H169 C128 0.930 . S
H170 C129 0.930 . S
H171 C130 0.929 . S
H172 C134 0.929 . S
H173 C136 0.930 . S
H174 C142 0.929 . S
H175 C143 0.930 . S
Li176 N193 1.990 . S
Li176 O236 1.956 . S
Li176 O237 1.970 . S
Li176 O238 1.961 . S
Li177 N201 1.990 . S
Li177 O236 1.970 . S
Li177 O237 1.956 . S
Li177 O239 1.961 . S
Li178 N223 1.990 . S
Li178 O236 1.961 . S
Li178 O238 1.956 . S
Li178 O239 1.970 . S
Li179 N229 1.990 . S
Li179 O237 1.961 . S
Li179 O238 1.970 . S
Li179 O239 1.956 . S
C180 C182 1.348 . S
C180 C183 1.356 . S
C180 O236 1.325 . S
N181 C184 1.314 . S
N181 C185 1.279 . S
C182 C180 1.348 . S
C182 C184 1.353 . S
C182 H240 0.929 . S
C183 C180 1.356 . S
C183 C185 1.358 . S
C183 H241 0.930 . S
C184 N181 1.314 . S
C184 C182 1.353 . S
C184 H242 0.930 . S
C185 N181 1.279 . S
C185 C183 1.358 . S
C185 H243 0.930 . S
C186 C189 1.348 . S
C186 C190 1.356 . S
C186 O237 1.325 . S
C187 N188 1.279 . S
C187 C190 1.358 . S
C187 H244 0.930 . S
N188 C187 1.279 . S
N188 C191 1.314 . S
C189 C186 1.348 . S
C189 C191 1.353 . S
C189 H245 0.929 . S
C190 C186 1.356 . S
C190 C187 1.358 . S
C190 H246 0.930 . S
C191 N188 1.314 . S
C191 C189 1.353 . S
C191 H247 0.930 . S
C192 N193 1.314 . S
C192 C197 1.353 . S
C192 H198 0.930 . S
N193 Li176 1.990 . S
N193 C192 1.314 . S
N193 C195 1.279 . S
C194 C195 1.358 . S
C194 C196 1.356 . S
C194 H248 0.930 . S
C195 N193 1.279 . S
C195 C194 1.358 . S
C195 H199 0.930 . S
C196 C194 1.356 . S
C196 C197 1.348 . S
C197 C192 1.353 . S
C197 C196 1.348 . S
C197 H249 0.929 . S
H198 C192 0.930 . S
H199 C195 0.930 . S
C200 N201 1.314 . S
C200 C202 1.353 . S
C200 H206 0.930 . S
N201 Li177 1.990 . S
N201 C200 1.314 . S
N201 C204 1.279 . S
C202 C200 1.353 . S
C202 C205 1.348 . S
C202 H250 0.929 . S
C203 C204 1.358 . S
C203 C205 1.356 . S
C203 H251 0.930 . S
C204 N201 1.279 . S
C204 C203 1.358 . S
C204 H207 0.930 . S
C205 C202 1.348 . S
C205 C203 1.356 . S
H206 C200 0.930 . S
H207 C204 0.930 . S
C208 C210 1.348 . S
C208 C211 1.356 . S
C208 O238 1.325 . S
N209 C212 1.314 . S
N209 C213 1.279 . S
C210 C208 1.348 . S
C210 C212 1.353 . S
C210 H252 0.929 . S
C211 C208 1.356 . S
C211 C213 1.358 . S
C211 H253 0.930 . S
C212 N209 1.314 . S
C212 C210 1.353 . S
C212 H254 0.930 . S
C213 N209 1.279 . S
C213 C211 1.358 . S
C213 H255 0.930 . S
C214 C215 1.348 . S
C214 C216 1.356 . S
C214 O239 1.325 . S
C215 C214 1.348 . S
C215 C217 1.353 . S
C215 H256 0.929 . S
C216 C214 1.356 . S
C216 C218 1.358 . S
C216 H257 0.930 . S
C217 C215 1.353 . S
C217 N219 1.314 . S
C217 H258 0.930 . S
C218 C216 1.358 . S
C218 N219 1.279 . S
C218 H259 0.930 . S
N219 C217 1.314 . S
N219 C218 1.279 . S
C220 C222 1.353 . S
C220 N223 1.314 . S
C220 H226 0.930 . S
C221 N223 1.279 . S
C221 C224 1.358 . S
C221 H227 0.930 . S
C222 C220 1.353 . S
C222 C225 1.348 . S
C222 H260 0.929 . S
N223 Li178 1.990 . S
N223 C220 1.314 . S
N223 C221 1.279 . S
C224 C221 1.358 . S
C224 C225 1.356 . S
C224 H261 0.930 . S
C225 C222 1.348 . S
C225 C224 1.356 . S
H226 C220 0.930 . S
H227 C221 0.930 . S
C228 N229 1.314 . S
C228 C230 1.353 . S
C228 H234 0.930 . S
N229 Li179 1.990 . S
N229 C228 1.314 . S
N229 C232 1.279 . S
C230 C228 1.353 . S
C230 C233 1.348 . S
C230 H262 0.929 . S
C231 C232 1.358 . S
C231 C233 1.356 . S
C231 H263 0.930 . S
C232 N229 1.279 . S
C232 C231 1.358 . S
C232 H235 0.930 . S
C233 C230 1.348 . S
C233 C231 1.356 . S
H234 C228 0.930 . S
H235 C232 0.930 . S
O236 Li176 1.956 . S
O236 Li177 1.970 . S
O236 Li178 1.961 . S
O236 C180 1.325 . S
O237 Li176 1.970 . S
O237 Li177 1.956 . S
O237 Li179 1.961 . S
O237 C186 1.325 . S
O238 Li176 1.961 . S
O238 Li178 1.956 . S
O238 Li179 1.970 . S
O238 C208 1.325 . S
O239 Li177 1.961 . S
O239 Li178 1.970 . S
O239 Li179 1.956 . S
O239 C214 1.325 . S
H240 C182 0.929 . S
H241 C183 0.930 . S
H242 C184 0.930 . S
H243 C185 0.930 . S
H244 C187 0.930 . S
H245 C189 0.929 . S
H246 C190 0.930 . S
H247 C191 0.930 . S
H248 C194 0.930 . S
H249 C197 0.929 . S
H250 C202 0.929 . S
H251 C203 0.930 . S
H252 C210 0.929 . S
H253 C211 0.930 . S
H254 C212 0.930 . S
H255 C213 0.930 . S
H256 C215 0.929 . S
H257 C216 0.930 . S
H258 C217 0.930 . S
H259 C218 0.930 . S
H260 C222 0.929 . S
H261 C224 0.930 . S
H262 C230 0.929 . S
H263 C231 0.930 . S
Li264 N281 1.990 . S
Li264 O324 1.956 . S
Li264 O325 1.970 . S
Li264 O326 1.961 . S
Li265 N289 1.990 . S
Li265 O324 1.970 . S
Li265 O325 1.956 . S
Li265 O327 1.961 . S
Li266 N311 1.990 . S
Li266 O324 1.961 . S
Li266 O326 1.956 . S
Li266 O327 1.970 . S
Li267 N317 1.990 . S
Li267 O325 1.961 . S
Li267 O326 1.970 . S
Li267 O327 1.956 . S
C268 C270 1.348 . S
C268 C271 1.356 . S
C268 O324 1.325 . S
N269 C272 1.314 . S
N269 C273 1.279 . S
C270 C268 1.348 . S
C270 C272 1.353 . S
C270 H328 0.929 . S
C271 C268 1.356 . S
C271 C273 1.358 . S
C271 H329 0.930 . S
C272 N269 1.314 . S
C272 C270 1.353 . S
C272 H330 0.930 . S
C273 N269 1.279 . S
C273 C271 1.358 . S
C273 H331 0.930 . S
C274 C277 1.348 . S
C274 C278 1.356 . S
C274 O325 1.325 . S
C275 N276 1.279 . S
C275 C278 1.358 . S
C275 H332 0.930 . S
N276 C275 1.279 . S
N276 C279 1.314 . S
C277 C274 1.348 . S
C277 C279 1.353 . S
C277 H333 0.929 . S
C278 C274 1.356 . S
C278 C275 1.358 . S
C278 H334 0.930 . S
C279 N276 1.314 . S
C279 C277 1.353 . S
C279 H335 0.930 . S
C280 N281 1.314 . S
C280 C285 1.353 . S
C280 H286 0.930 . S
N281 Li264 1.990 . S
N281 C280 1.314 . S
N281 C283 1.279 . S
C282 C283 1.358 . S
C282 C284 1.356 . S
C282 H336 0.930 . S
C283 N281 1.279 . S
C283 C282 1.358 . S
C283 H287 0.930 . S
C284 C282 1.356 . S
C284 C285 1.348 . S
C285 C280 1.353 . S
C285 C284 1.348 . S
C285 H337 0.929 . S
H286 C280 0.930 . S
H287 C283 0.930 . S
C288 N289 1.314 . S
C288 C290 1.353 . S
C288 H294 0.930 . S
N289 Li265 1.990 . S
N289 C288 1.314 . S
N289 C292 1.279 . S
C290 C288 1.353 . S
C290 C293 1.348 . S
C290 H338 0.929 . S
C291 C292 1.358 . S
C291 C293 1.356 . S
C291 H339 0.930 . S
C292 N289 1.279 . S
C292 C291 1.358 . S
C292 H295 0.930 . S
C293 C290 1.348 . S
C293 C291 1.356 . S
H294 C288 0.930 . S
H295 C292 0.930 . S
C296 C298 1.348 . S
C296 C299 1.356 . S
C296 O326 1.325 . S
N297 C300 1.314 . S
N297 C301 1.279 . S
C298 C296 1.348 . S
C298 C300 1.353 . S
C298 H340 0.929 . S
C299 C296 1.356 . S
C299 C301 1.358 . S
C299 H341 0.930 . S
C300 N297 1.314 . S
C300 C298 1.353 . S
C300 H342 0.930 . S
C301 N297 1.279 . S
C301 C299 1.358 . S
C301 H343 0.930 . S
C302 C303 1.348 . S
C302 C304 1.356 . S
C302 O327 1.325 . S
C303 C302 1.348 . S
C303 C305 1.353 . S
C303 H344 0.929 . S
C304 C302 1.356 . S
C304 C306 1.358 . S
C304 H345 0.930 . S
C305 C303 1.353 . S
C305 N307 1.314 . S
C305 H346 0.930 . S
C306 C304 1.358 . S
C306 N307 1.279 . S
C306 H347 0.930 . S
N307 C305 1.314 . S
N307 C306 1.279 . S
C308 C310 1.353 . S
C308 N311 1.314 . S
C308 H314 0.930 . S
C309 N311 1.279 . S
C309 C312 1.358 . S
C309 H315 0.930 . S
C310 C308 1.353 . S
C310 C313 1.348 . S
C310 H348 0.929 . S
N311 Li266 1.990 . S
N311 C308 1.314 . S
N311 C309 1.279 . S
C312 C309 1.358 . S
C312 C313 1.356 . S
C312 H349 0.930 . S
C313 C310 1.348 . S
C313 C312 1.356 . S
H314 C308 0.930 . S
H315 C309 0.930 . S
C316 N317 1.314 . S
C316 C318 1.353 . S
C316 H322 0.930 . S
N317 Li267 1.990 . S
N317 C316 1.314 . S
N317 C320 1.279 . S
C318 C316 1.353 . S
C318 C321 1.348 . S
C318 H350 0.929 . S
C319 C320 1.358 . S
C319 C321 1.356 . S
C319 H351 0.930 . S
C320 N317 1.279 . S
C320 C319 1.358 . S
C320 H323 0.930 . S
C321 C318 1.348 . S
C321 C319 1.356 . S
H322 C316 0.930 . S
H323 C320 0.930 . S
O324 Li264 1.956 . S
O324 Li265 1.970 . S
O324 Li266 1.961 . S
O324 C268 1.325 . S
O325 Li264 1.970 . S
O325 Li265 1.956 . S
O325 Li267 1.961 . S
O325 C274 1.325 . S
O326 Li264 1.961 . S
O326 Li266 1.956 . S
O326 Li267 1.970 . S
O326 C296 1.325 . S
O327 Li265 1.961 . S
O327 Li266 1.970 . S
O327 Li267 1.956 . S
O327 C302 1.325 . S
H328 C270 0.929 . S
H329 C271 0.930 . S
H330 C272 0.930 . S
H331 C273 0.930 . S
H332 C275 0.930 . S
H333 C277 0.929 . S
H334 C278 0.930 . S
H335 C279 0.930 . S
H336 C282 0.930 . S
H337 C285 0.929 . S
H338 C290 0.929 . S
H339 C291 0.930 . S
H340 C298 0.929 . S
H341 C299 0.930 . S
H342 C300 0.930 . S
H343 C301 0.930 . S
H344 C303 0.929 . S
H345 C304 0.930 . S
H346 C305 0.930 . S
H347 C306 0.930 . S
H348 C310 0.929 . S
H349 C312 0.930 . S
H350 C318 0.929 . S
H351 C319 0.930 . S
Li352 N369 1.990 . S
Li352 O412 1.956 . S
Li352 O413 1.970 . S
Li352 O414 1.961 . S
Li353 N377 1.990 . S
Li353 O412 1.970 . S
Li353 O413 1.956 . S
Li353 O415 1.961 . S
Li354 N399 1.990 . S
Li354 O412 1.961 . S
Li354 O414 1.956 . S
Li354 O415 1.970 . S
Li355 N405 1.990 . S
Li355 O413 1.961 . S
Li355 O414 1.970 . S
Li355 O415 1.956 . S
C356 C358 1.348 . S
C356 C359 1.356 . S
C356 O412 1.325 . S
N357 C360 1.314 . S
N357 C361 1.279 . S
C358 C356 1.348 . S
C358 C360 1.353 . S
C358 H416 0.929 . S
C359 C356 1.356 . S
C359 C361 1.358 . S
C359 H417 0.930 . S
C360 N357 1.314 . S
C360 C358 1.353 . S
C360 H418 0.930 . S
C361 N357 1.279 . S
C361 C359 1.358 . S
C361 H419 0.930 . S
C362 C365 1.348 . S
C362 C366 1.356 . S
C362 O413 1.325 . S
C363 N364 1.279 . S
C363 C366 1.358 . S
C363 H420 0.930 . S
N364 C363 1.279 . S
N364 C367 1.314 . S
C365 C362 1.348 . S
C365 C367 1.353 . S
C365 H421 0.929 . S
C366 C362 1.356 . S
C366 C363 1.358 . S
C366 H422 0.930 . S
C367 N364 1.314 . S
C367 C365 1.353 . S
C367 H423 0.930 . S
C368 N369 1.314 . S
C368 C373 1.353 . S
C368 H374 0.930 . S
N369 Li352 1.990 . S
N369 C368 1.314 . S
N369 C371 1.279 . S
C370 C371 1.358 . S
C370 C372 1.356 . S
C370 H424 0.930 . S
C371 N369 1.279 . S
C371 C370 1.358 . S
C371 H375 0.930 . S
C372 C370 1.356 . S
C372 C373 1.348 . S
C373 C368 1.353 . S
C373 C372 1.348 . S
C373 H425 0.929 . S
H374 C368 0.930 . S
H375 C371 0.930 . S
C376 N377 1.314 . S
C376 C378 1.353 . S
C376 H382 0.930 . S
N377 Li353 1.990 . S
N377 C376 1.314 . S
N377 C380 1.279 . S
C378 C376 1.353 . S
C378 C381 1.348 . S
C378 H426 0.929 . S
C379 C380 1.358 . S
C379 C381 1.356 . S
C379 H427 0.930 . S
C380 N377 1.279 . S
C380 C379 1.358 . S
C380 H383 0.930 . S
C381 C378 1.348 . S
C381 C379 1.356 . S
H382 C376 0.930 . S
H383 C380 0.930 . S
C384 C386 1.348 . S
C384 C387 1.356 . S
C384 O414 1.325 . S
N385 C388 1.314 . S
N385 C389 1.279 . S
C386 C384 1.348 . S
C386 C388 1.353 . S
C386 H428 0.929 . S
C387 C384 1.356 . S
C387 C389 1.358 . S
C387 H429 0.930 . S
C388 N385 1.314 . S
C388 C386 1.353 . S
C388 H430 0.930 . S
C389 N385 1.279 . S
C389 C387 1.358 . S
C389 H431 0.930 . S
C390 C391 1.348 . S
C390 C392 1.356 . S
C390 O415 1.325 . S
C391 C390 1.348 . S
C391 C393 1.353 . S
C391 H432 0.929 . S
C392 C390 1.356 . S
C392 C394 1.358 . S
C392 H433 0.930 . S
C393 C391 1.353 . S
C393 N395 1.314 . S
C393 H434 0.930 . S
C394 C392 1.358 . S
C394 N395 1.279 . S
C394 H435 0.930 . S
N395 C393 1.314 . S
N395 C394 1.279 . S
C396 C398 1.353 . S
C396 N399 1.314 . S
C396 H402 0.930 . S
C397 N399 1.279 . S
C397 C400 1.358 . S
C397 H403 0.930 . S
C398 C396 1.353 . S
C398 C401 1.348 . S
C398 H436 0.929 . S
N399 Li354 1.990 . S
N399 C396 1.314 . S
N399 C397 1.279 . S
C400 C397 1.358 . S
C400 C401 1.356 . S
C400 H437 0.930 . S
C401 C398 1.348 . S
C401 C400 1.356 . S
H402 C396 0.930 . S
H403 C397 0.930 . S
C404 N405 1.314 . S
C404 C406 1.353 . S
C404 H410 0.930 . S
N405 Li355 1.990 . S
N405 C404 1.314 . S
N405 C408 1.279 . S
C406 C404 1.353 . S
C406 C409 1.348 . S
C406 H438 0.929 . S
C407 C408 1.358 . S
C407 C409 1.356 . S
C407 H439 0.930 . S
C408 N405 1.279 . S
C408 C407 1.358 . S
C408 H411 0.930 . S
C409 C406 1.348 . S
C409 C407 1.356 . S
H410 C404 0.930 . S
H411 C408 0.930 . S
O412 Li352 1.956 . S
O412 Li353 1.970 . S
O412 Li354 1.961 . S
O412 C356 1.325 . S
O413 Li352 1.970 . S
O413 Li353 1.956 . S
O413 Li355 1.961 . S
O413 C362 1.325 . S
O414 Li352 1.961 . S
O414 Li354 1.956 . S
O414 Li355 1.970 . S
O414 C384 1.325 . S
O415 Li353 1.961 . S
O415 Li354 1.970 . S
O415 Li355 1.956 . S
O415 C390 1.325 . S
H416 C358 0.929 . S
H417 C359 0.930 . S
H418 C360 0.930 . S
H419 C361 0.930 . S
H420 C363 0.930 . S
H421 C365 0.929 . S
H422 C366 0.930 . S
H423 C367 0.930 . S
H424 C370 0.930 . S
H425 C373 0.929 . S
H426 C378 0.929 . S
H427 C379 0.930 . S
H428 C386 0.929 . S
H429 C387 0.930 . S
H430 C388 0.930 . S
H431 C389 0.930 . S
H432 C391 0.929 . S
H433 C392 0.930 . S
H434 C393 0.930 . S
H435 C394 0.930 . S
H436 C398 0.929 . S
H437 C400 0.930 . S
H438 C406 0.929 . S
H439 C407 0.930 . S
Li440 N457 1.990 . S
Li440 O500 1.956 . S
Li440 O501 1.970 . S
Li440 O502 1.961 . S
Li441 N465 1.990 . S
Li441 O500 1.970 . S
Li441 O501 1.956 . S
Li441 O503 1.961 . S
Li442 N487 1.990 . S
Li442 O500 1.961 . S
Li442 O502 1.956 . S
Li442 O503 1.970 . S
Li443 N493 1.990 . S
Li443 O501 1.961 . S
Li443 O502 1.970 . S
Li443 O503 1.956 . S
C444 C446 1.348 . S
C444 C447 1.356 . S
C444 O500 1.325 . S
N445 C448 1.314 . S
N445 C449 1.279 . S
C446 C444 1.348 . S
C446 C448 1.353 . S
C446 H504 0.929 . S
C447 C444 1.356 . S
C447 C449 1.358 . S
C447 H505 0.930 . S
C448 N445 1.314 . S
C448 C446 1.353 . S
C448 H506 0.930 . S
C449 N445 1.279 . S
C449 C447 1.358 . S
C449 H507 0.930 . S
C450 C453 1.348 . S
C450 C454 1.356 . S
C450 O501 1.325 . S
C451 N452 1.279 . S
C451 C454 1.358 . S
C451 H508 0.930 . S
N452 C451 1.279 . S
N452 C455 1.314 . S
C453 C450 1.348 . S
C453 C455 1.353 . S
C453 H509 0.929 . S
C454 C450 1.356 . S
C454 C451 1.358 . S
C454 H510 0.930 . S
C455 N452 1.314 . S
C455 C453 1.353 . S
C455 H511 0.930 . S
C456 N457 1.314 . S
C456 C461 1.353 . S
C456 H462 0.930 . S
N457 Li440 1.990 . S
N457 C456 1.314 . S
N457 C459 1.279 . S
C458 C459 1.358 . S
C458 C460 1.356 . S
C458 H512 0.930 . S
C459 N457 1.279 . S
C459 C458 1.358 . S
C459 H463 0.930 . S
C460 C458 1.356 . S
C460 C461 1.348 . S
C461 C456 1.353 . S
C461 C460 1.348 . S
C461 H513 0.929 . S
H462 C456 0.930 . S
H463 C459 0.930 . S
C464 N465 1.314 . S
C464 C466 1.353 . S
C464 H470 0.930 . S
N465 Li441 1.990 . S
N465 C464 1.314 . S
N465 C468 1.279 . S
C466 C464 1.353 . S
C466 C469 1.348 . S
C466 H514 0.929 . S
C467 C468 1.358 . S
C467 C469 1.356 . S
C467 H515 0.930 . S
C468 N465 1.279 . S
C468 C467 1.358 . S
C468 H471 0.930 . S
C469 C466 1.348 . S
C469 C467 1.356 . S
H470 C464 0.930 . S
H471 C468 0.930 . S
C472 C474 1.348 . S
C472 C475 1.356 . S
C472 O502 1.325 . S
N473 C476 1.314 . S
N473 C477 1.279 . S
C474 C472 1.348 . S
C474 C476 1.353 . S
C474 H516 0.929 . S
C475 C472 1.356 . S
C475 C477 1.358 . S
C475 H517 0.930 . S
C476 N473 1.314 . S
C476 C474 1.353 . S
C476 H518 0.930 . S
C477 N473 1.279 . S
C477 C475 1.358 . S
C477 H519 0.930 . S
C478 C479 1.348 . S
C478 C480 1.356 . S
C478 O503 1.325 . S
C479 C478 1.348 . S
C479 C481 1.353 . S
C479 H520 0.929 . S
C480 C478 1.356 . S
C480 C482 1.358 . S
C480 H521 0.930 . S
C481 C479 1.353 . S
C481 N483 1.314 . S
C481 H522 0.930 . S
C482 C480 1.358 . S
C482 N483 1.279 . S
C482 H523 0.930 . S
N483 C481 1.314 . S
N483 C482 1.279 . S
C484 C486 1.353 . S
C484 N487 1.314 . S
C484 H490 0.930 . S
C485 N487 1.279 . S
C485 C488 1.358 . S
C485 H491 0.930 . S
C486 C484 1.353 . S
C486 C489 1.348 . S
C486 H524 0.929 . S
N487 Li442 1.990 . S
N487 C484 1.314 . S
N487 C485 1.279 . S
C488 C485 1.358 . S
C488 C489 1.356 . S
C488 H525 0.930 . S
C489 C486 1.348 . S
C489 C488 1.356 . S
H490 C484 0.930 . S
H491 C485 0.930 . S
C492 N493 1.314 . S
C492 C494 1.353 . S
C492 H498 0.930 . S
N493 Li443 1.990 . S
N493 C492 1.314 . S
N493 C496 1.279 . S
C494 C492 1.353 . S
C494 C497 1.348 . S
C494 H526 0.929 . S
C495 C496 1.358 . S
C495 C497 1.356 . S
C495 H527 0.930 . S
C496 N493 1.279 . S
C496 C495 1.358 . S
C496 H499 0.930 . S
C497 C494 1.348 . S
C497 C495 1.356 . S
H498 C492 0.930 . S
H499 C496 0.930 . S
O500 Li440 1.956 . S
O500 Li441 1.970 . S
O500 Li442 1.961 . S
O500 C444 1.325 . S
O501 Li440 1.970 . S
O501 Li441 1.956 . S
O501 Li443 1.961 . S
O501 C450 1.325 . S
O502 Li440 1.961 . S
O502 Li442 1.956 . S
O502 Li443 1.970 . S
O502 C472 1.325 . S
O503 Li441 1.961 . S
O503 Li442 1.970 . S
O503 Li443 1.956 . S
O503 C478 1.325 . S
H504 C446 0.929 . S
H505 C447 0.930 . S
H506 C448 0.930 . S
H507 C449 0.930 . S
H508 C451 0.930 . S
H509 C453 0.929 . S
H510 C454 0.930 . S
H511 C455 0.930 . S
H512 C458 0.930 . S
H513 C461 0.929 . S
H514 C466 0.929 . S
H515 C467 0.930 . S
H516 C474 0.929 . S
H517 C475 0.930 . S
H518 C476 0.930 . S
H519 C477 0.930 . S
H520 C479 0.929 . S
H521 C480 0.930 . S
H522 C481 0.930 . S
H523 C482 0.930 . S
H524 C486 0.929 . S
H525 C488 0.930 . S
H526 C494 0.929 . S
H527 C495 0.930 . S
Li528 N545 1.990 . S
Li528 O588 1.956 . S
Li528 O589 1.970 . S
Li528 O590 1.961 . S
Li529 N553 1.990 . S
Li529 O588 1.970 . S
Li529 O589 1.956 . S
Li529 O591 1.961 . S
Li530 N575 1.990 . S
Li530 O588 1.961 . S
Li530 O590 1.956 . S
Li530 O591 1.970 . S
Li531 N581 1.990 . S
Li531 O589 1.961 . S
Li531 O590 1.970 . S
Li531 O591 1.956 . S
C532 C534 1.348 . S
C532 C535 1.356 . S
C532 O588 1.325 . S
N533 C536 1.314 . S
N533 C537 1.279 . S
C534 C532 1.348 . S
C534 C536 1.353 . S
C534 H592 0.929 . S
C535 C532 1.356 . S
C535 C537 1.358 . S
C535 H593 0.930 . S
C536 N533 1.314 . S
C536 C534 1.353 . S
C536 H594 0.930 . S
C537 N533 1.279 . S
C537 C535 1.358 . S
C537 H595 0.930 . S
C538 C541 1.348 . S
C538 C542 1.356 . S
C538 O589 1.325 . S
C539 N540 1.279 . S
C539 C542 1.358 . S
C539 H596 0.930 . S
N540 C539 1.279 . S
N540 C543 1.314 . S
C541 C538 1.348 . S
C541 C543 1.353 . S
C541 H597 0.929 . S
C542 C538 1.356 . S
C542 C539 1.358 . S
C542 H598 0.930 . S
C543 N540 1.314 . S
C543 C541 1.353 . S
C543 H599 0.930 . S
C544 N545 1.314 . S
C544 C549 1.353 . S
C544 H550 0.930 . S
N545 Li528 1.990 . S
N545 C544 1.314 . S
N545 C547 1.279 . S
C546 C547 1.358 . S
C546 C548 1.356 . S
C546 H600 0.930 . S
C547 N545 1.279 . S
C547 C546 1.358 . S
C547 H551 0.930 . S
C548 C546 1.356 . S
C548 C549 1.348 . S
C549 C544 1.353 . S
C549 C548 1.348 . S
C549 H601 0.929 . S
H550 C544 0.930 . S
H551 C547 0.930 . S
C552 N553 1.314 . S
C552 C554 1.353 . S
C552 H558 0.930 . S
N553 Li529 1.990 . S
N553 C552 1.314 . S
N553 C556 1.279 . S
C554 C552 1.353 . S
C554 C557 1.348 . S
C554 H602 0.929 . S
C555 C556 1.358 . S
C555 C557 1.356 . S
C555 H603 0.930 . S
C556 N553 1.279 . S
C556 C555 1.358 . S
C556 H559 0.930 . S
C557 C554 1.348 . S
C557 C555 1.356 . S
H558 C552 0.930 . S
H559 C556 0.930 . S
C560 C562 1.348 . S
C560 C563 1.356 . S
C560 O590 1.325 . S
N561 C564 1.314 . S
N561 C565 1.279 . S
C562 C560 1.348 . S
C562 C564 1.353 . S
C562 H604 0.929 . S
C563 C560 1.356 . S
C563 C565 1.358 . S
C563 H605 0.930 . S
C564 N561 1.314 . S
C564 C562 1.353 . S
C564 H606 0.930 . S
C565 N561 1.279 . S
C565 C563 1.358 . S
C565 H607 0.930 . S
C566 C567 1.348 . S
C566 C568 1.356 . S
C566 O591 1.325 . S
C567 C566 1.348 . S
C567 C569 1.353 . S
C567 H608 0.929 . S
C568 C566 1.356 . S
C568 C570 1.358 . S
C568 H609 0.930 . S
C569 C567 1.353 . S
C569 N571 1.314 . S
C569 H610 0.930 . S
C570 C568 1.358 . S
C570 N571 1.279 . S
C570 H611 0.930 . S
N571 C569 1.314 . S
N571 C570 1.279 . S
C572 C574 1.353 . S
C572 N575 1.314 . S
C572 H578 0.930 . S
C573 N575 1.279 . S
C573 C576 1.358 . S
C573 H579 0.930 . S
C574 C572 1.353 . S
C574 C577 1.348 . S
C574 H612 0.929 . S
N575 Li530 1.990 . S
N575 C572 1.314 . S
N575 C573 1.279 . S
C576 C573 1.358 . S
C576 C577 1.356 . S
C576 H613 0.930 . S
C577 C574 1.348 . S
C577 C576 1.356 . S
H578 C572 0.930 . S
H579 C573 0.930 . S
C580 N581 1.314 . S
C580 C582 1.353 . S
C580 H586 0.930 . S
N581 Li531 1.990 . S
N581 C580 1.314 . S
N581 C584 1.279 . S
C582 C580 1.353 . S
C582 C585 1.348 . S
C582 H614 0.929 . S
C583 C584 1.358 . S
C583 C585 1.356 . S
C583 H615 0.930 . S
C584 N581 1.279 . S
C584 C583 1.358 . S
C584 H587 0.930 . S
C585 C582 1.348 . S
C585 C583 1.356 . S
H586 C580 0.930 . S
H587 C584 0.930 . S
O588 Li528 1.956 . S
O588 Li529 1.970 . S
O588 Li530 1.961 . S
O588 C532 1.325 . S
O589 Li528 1.970 . S
O589 Li529 1.956 . S
O589 Li531 1.961 . S
O589 C538 1.325 . S
O590 Li528 1.961 . S
O590 Li530 1.956 . S
O590 Li531 1.970 . S
O590 C560 1.325 . S
O591 Li529 1.961 . S
O591 Li530 1.970 . S
O591 Li531 1.956 . S
O591 C566 1.325 . S
H592 C534 0.929 . S
H593 C535 0.930 . S
H594 C536 0.930 . S
H595 C537 0.930 . S
H596 C539 0.930 . S
H597 C541 0.929 . S
H598 C542 0.930 . S
H599 C543 0.930 . S
H600 C546 0.930 . S
H601 C549 0.929 . S
H602 C554 0.929 . S
H603 C555 0.930 . S
H604 C562 0.929 . S
H605 C563 0.930 . S
H606 C564 0.930 . S
H607 C565 0.930 . S
H608 C567 0.929 . S
H609 C568 0.930 . S
H610 C569 0.930 . S
H611 C570 0.930 . S
H612 C574 0.929 . S
H613 C576 0.930 . S
H614 C582 0.929 . S
H615 C583 0.930 . S
Li616 N633 1.990 . S
Li616 O676 1.969 . S
Li616 O677 1.970 . S
Li616 O678 1.961 . S
Li617 N641 1.990 1_455 S
Li617 O676 1.972 . S
Li617 O677 1.956 . S
Li617 O679 1.961 . S
Li618 N663 1.990 . S
Li618 O676 1.977 . S
Li618 O678 1.956 . S
Li618 O679 1.970 . S
Li619 N669 1.990 . S
Li619 O677 1.961 . S
Li619 O678 1.970 . S
Li619 O679 1.956 . S
C620 C622 1.348 . S
C620 C623 1.356 . S
C620 O676 1.309 1_655 S
N621 C624 1.314 . S
N621 C625 1.279 . S
C622 C620 1.348 . S
C622 C624 1.353 . S
C622 H680 0.929 . S
C623 C620 1.356 . S
C623 C625 1.358 . S
C623 H681 0.977 . S
C624 N621 1.314 . S
C624 C622 1.353 . S
C624 H682 0.930 . S
C625 N621 1.279 . S
C625 C623 1.358 . S
C625 H683 0.930 . S
C626 C629 1.348 . S
C626 C630 1.356 . S
C626 O677 1.325 . S
C627 N628 1.279 . S
C627 C630 1.358 . S
C627 H684 0.930 . S
N628 C627 1.279 . S
N628 C631 1.314 . S
C629 C626 1.348 . S
C629 C631 1.353 . S
C629 H685 0.929 . S
C630 C626 1.356 . S
C630 C627 1.358 . S
C630 H686 0.930 . S
C631 N628 1.314 . S
C631 C629 1.353 . S
C631 H687 0.930 . S
C632 N633 1.314 . S
C632 C637 1.353 . S
C632 H638 0.930 . S
N633 Li616 1.990 . S
N633 C632 1.314 . S
N633 C635 1.279 . S
C634 C635 1.358 . S
C634 C636 1.356 . S
C634 H688 0.930 . S
C635 N633 1.279 . S
C635 C634 1.358 . S
C635 H639 0.946 . S
C636 C634 1.356 . S
C636 C637 1.348 . S
C637 C632 1.353 . S
C637 C636 1.348 . S
C637 H689 0.929 . S
H638 C632 0.930 . S
H639 C635 0.946 . S
C640 N641 1.314 . S
C640 C642 1.353 . S
C640 H646 0.930 . S
N641 Li617 1.990 1_655 S
N641 C640 1.314 . S
N641 C644 1.279 . S
C642 C640 1.353 . S
C642 C645 1.348 . S
C642 H690 0.929 . S
C643 C644 1.358 . S
C643 C645 1.356 . S
C643 H691 0.930 . S
C644 N641 1.279 . S
C644 C643 1.358 . S
C644 H647 0.930 . S
C645 C642 1.348 . S
C645 C643 1.356 . S
H646 C640 0.930 . S
H647 C644 0.930 . S
C648 C650 1.348 . S
C648 C651 1.356 . S
C648 O678 1.325 . S
N649 C652 1.314 . S
N649 C653 1.279 . S
C650 C648 1.348 . S
C650 C652 1.353 . S
C650 H692 0.929 . S
C651 C648 1.356 . S
C651 C653 1.358 . S
C651 H693 0.930 . S
C652 N649 1.314 . S
C652 C650 1.353 . S
C652 H694 0.930 . S
C653 N649 1.279 . S
C653 C651 1.358 . S
C653 H695 0.930 . S
C654 C655 1.348 . S
C654 C656 1.356 . S
C654 O679 1.325 . S
C655 C654 1.348 . S
C655 C657 1.353 . S
C655 H696 0.929 . S
C656 C654 1.356 . S
C656 C658 1.358 . S
C656 H697 0.930 . S
C657 C655 1.353 . S
C657 N659 1.314 . S
C657 H698 0.930 . S
C658 C656 1.358 . S
C658 N659 1.279 . S
C658 H699 0.930 . S
N659 C657 1.314 . S
N659 C658 1.279 . S
C660 C662 1.354 1_455 S
C660 N663 1.314 . S
C660 H666 0.930 1_455 S
C661 N663 1.279 . S
C661 C664 1.358 . S
C661 H667 0.930 . S
C662 C660 1.354 1_655 S
C662 C665 1.320 1_655 S
C662 H700 0.957 . S
N663 Li618 1.990 . S
N663 C660 1.314 . S
N663 C661 1.279 . S
C664 C661 1.358 . S
C664 C665 1.356 . S
C664 H701 0.930 . S
C665 C662 1.320 1_455 S
C665 C664 1.356 . S
H666 C660 0.930 1_655 S
H667 C661 0.930 . S
C668 N669 1.314 . S
C668 C670 1.353 . S
C668 H674 0.930 . S
N669 Li619 1.990 . S
N669 C668 1.314 . S
N669 C672 1.279 . S
C670 C668 1.353 . S
C670 C673 1.348 . S
C670 H702 0.929 . S
C671 C672 1.358 . S
C671 C673 1.356 . S
C671 H703 0.930 . S
C672 N669 1.279 . S
C672 C671 1.358 . S
C672 H675 0.930 . S
C673 C670 1.348 . S
C673 C671 1.356 . S
H674 C668 0.930 . S
H675 C672 0.930 . S
O676 Li616 1.969 . S
O676 Li617 1.972 . S
O676 Li618 1.977 . S
O676 C620 1.309 1_455 S
O677 Li616 1.970 . S
O677 Li617 1.956 . S
O677 Li619 1.961 . S
O677 C626 1.325 . S
O678 Li616 1.961 . S
O678 Li618 1.956 . S
O678 Li619 1.970 . S
O678 C648 1.325 . S
O679 Li617 1.961 . S
O679 Li618 1.970 . S
O679 Li619 1.956 . S
O679 C654 1.325 . S
H680 C622 0.929 . S
H681 C623 0.977 . S
H682 C624 0.930 . S
H683 C625 0.930 . S
H684 C627 0.930 . S
H685 C629 0.929 . S
H686 C630 0.930 . S
H687 C631 0.930 . S
H688 C634 0.930 . S
H689 C637 0.929 . S
H690 C642 0.929 . S
H691 C643 0.930 . S
H692 C650 0.929 . S
H693 C651 0.930 . S
H694 C652 0.930 . S
H695 C653 0.930 . S
H696 C655 0.929 . S
H697 C656 0.930 . S
H698 C657 0.930 . S
H699 C658 0.930 . S
H700 C662 0.957 . S
H701 C664 0.930 . S
H702 C670 0.929 . S
H703 C671 0.930 . S
Li704 N721 1.990 . S
Li704 O764 1.956 . S
Li704 O765 1.970 . S
Li704 O766 1.961 . S
Li705 N729 1.990 1_545 S
Li705 O764 1.970 . S
Li705 O765 1.956 . S
Li705 O767 1.961 . S
Li706 N751 1.990 . S
Li706 O764 1.961 . S
Li706 O766 1.956 . S
Li706 O767 1.970 . S
Li707 N757 1.990 . S
Li707 O765 1.961 . S
Li707 O766 1.970 . S
Li707 O767 1.956 . S
C708 C710 1.348 1_545 S
C708 C711 1.356 . S
C708 O764 1.325 . S
N709 C712 1.314 . S
N709 C713 1.279 . S
C710 C708 1.348 1_565 S
C710 C712 1.353 . S
C710 H768 0.929 . S
C711 C708 1.356 . S
C711 C713 1.358 1_545 S
C711 H769 0.930 . S
C712 N709 1.314 . S
C712 C710 1.353 . S
C712 H770 0.930 . S
C713 N709 1.279 . S
C713 C711 1.358 1_565 S
C713 H771 0.931 . S
C714 C717 1.348 . S
C714 C718 1.356 . S
C714 O765 1.325 . S
C715 N716 1.279 . S
C715 C718 1.358 . S
C715 H772 0.930 . S
N716 C715 1.279 . S
N716 C719 1.314 . S
C717 C714 1.348 . S
C717 C719 1.353 . S
C717 H773 0.929 . S
C718 C714 1.356 . S
C718 C715 1.358 . S
C718 H774 0.930 . S
C719 N716 1.314 . S
C719 C717 1.353 . S
C719 H775 0.930 . S
C720 N721 1.314 . S
C720 C725 1.353 . S
C720 H726 0.930 . S
N721 Li704 1.990 . S
N721 C720 1.314 . S
N721 C723 1.279 . S
C722 C723 1.358 . S
C722 C724 1.356 . S
C722 H776 0.930 . S
C723 N721 1.279 . S
C723 C722 1.358 . S
C723 H727 0.930 . S
C724 C722 1.356 . S
C724 C725 1.348 . S
C725 C720 1.353 . S
C725 C724 1.348 . S
C725 H777 0.929 . S
H726 C720 0.930 . S
H727 C723 0.930 . S
C728 N729 1.314 . S
C728 C730 1.353 . S
C728 H734 0.930 . S
N729 Li705 1.990 1_565 S
N729 C728 1.314 . S
N729 C732 1.279 . S
C730 C728 1.353 . S
C730 C733 1.348 . S
C730 H778 0.929 . S
C731 C732 1.358 . S
C731 C733 1.356 . S
C731 H779 0.930 . S
C732 N729 1.279 . S
C732 C731 1.358 . S
C732 H735 0.930 . S
C733 C730 1.348 . S
C733 C731 1.356 . S
H734 C728 0.930 . S
H735 C732 0.930 . S
C736 C738 1.348 . S
C736 C739 1.356 . S
C736 O766 1.325 . S
N737 C740 1.314 . S
N737 C741 1.279 . S
C738 C736 1.348 . S
C738 C740 1.353 . S
C738 H780 0.929 . S
C739 C736 1.356 . S
C739 C741 1.358 . S
C739 H781 0.930 . S
C740 N737 1.314 . S
C740 C738 1.353 . S
C740 H782 0.930 . S
C741 N737 1.279 . S
C741 C739 1.358 . S
C741 H783 0.930 . S
C742 C743 1.348 . S
C742 C744 1.356 . S
C742 O767 1.325 . S
C743 C742 1.348 . S
C743 C745 1.353 . S
C743 H784 0.929 . S
C744 C742 1.356 . S
C744 C746 1.358 . S
C744 H785 0.930 . S
C745 C743 1.353 . S
C745 N747 1.314 . S
C745 H786 0.930 . S
C746 C744 1.358 . S
C746 N747 1.279 . S
C746 H787 0.930 . S
N747 C745 1.314 . S
N747 C746 1.279 . S
C748 C750 1.353 . S
C748 N751 1.314 . S
C748 H754 0.930 . S
C749 N751 1.279 . S
C749 C752 1.358 . S
C749 H755 0.930 . S
C750 C748 1.353 . S
C750 C753 1.348 . S
C750 H788 0.929 . S
N751 Li706 1.990 . S
N751 C748 1.314 . S
N751 C749 1.279 . S
C752 C749 1.358 . S
C752 C753 1.356 . S
C752 H789 0.930 . S
C753 C750 1.348 . S
C753 C752 1.356 . S
H754 C748 0.930 . S
H755 C749 0.930 . S
C756 N757 1.314 . S
C756 C758 1.353 . S
C756 H762 0.930 . S
N757 Li707 1.990 . S
N757 C756 1.314 . S
N757 C760 1.279 . S
C758 C756 1.353 . S
C758 C761 1.348 . S
C758 H790 0.929 . S
C759 C760 1.358 . S
C759 C761 1.356 . S
C759 H791 0.930 . S
C760 N757 1.279 . S
C760 C759 1.358 . S
C760 H763 0.930 . S
C761 C758 1.348 . S
C761 C759 1.356 . S
H762 C756 0.930 . S
H763 C760 0.930 . S
O764 Li704 1.956 . S
O764 Li705 1.970 . S
O764 Li706 1.961 . S
O764 C708 1.325 . S
O765 Li704 1.970 . S
O765 Li705 1.956 . S
O765 Li707 1.961 . S
O765 C714 1.325 . S
O766 Li704 1.961 . S
O766 Li706 1.956 . S
O766 Li707 1.970 . S
O766 C736 1.325 . S
O767 Li705 1.961 . S
O767 Li706 1.970 . S
O767 Li707 1.956 . S
O767 C742 1.325 . S
H768 C710 0.929 . S
H769 C711 0.930 . S
H770 C712 0.930 . S
H771 C713 0.931 . S
H772 C715 0.930 . S
H773 C717 0.929 . S
H774 C718 0.930 . S
H775 C719 0.930 . S
H776 C722 0.930 . S
H777 C725 0.929 . S
H778 C730 0.929 . S
H779 C731 0.930 . S
H780 C738 0.929 . S
H781 C739 0.930 . S
H782 C740 0.930 . S
H783 C741 0.930 . S
H784 C743 0.929 . S
H785 C744 0.930 . S
H786 C745 0.930 . S
H787 C746 0.930 . S
H788 C750 0.929 . S
H789 C752 0.930 . S
H790 C758 0.929 . S
H791 C759 0.930 . S
Li792 N809 1.990 . S
Li792 O852 1.956 . S
Li792 O853 1.970 . S
Li792 O854 1.961 . S
Li793 N817 1.990 . S
Li793 O852 1.970 . S
Li793 O853 1.956 . S
Li793 O855 1.961 . S
Li794 N839 1.990 . S
Li794 O852 1.961 . S
Li794 O854 1.956 . S
Li794 O855 1.970 . S
Li795 N845 1.990 . S
Li795 O853 1.961 . S
Li795 O854 1.970 . S
Li795 O855 1.956 . S
C796 C798 1.348 . S
C796 C799 1.356 . S
C796 O852 1.325 . S
N797 C800 1.314 . S
N797 C801 1.279 . S
C798 C796 1.348 . S
C798 C800 1.353 . S
C798 H856 0.929 . S
C799 C796 1.356 . S
C799 C801 1.358 . S
C799 H857 0.930 . S
C800 N797 1.314 . S
C800 C798 1.353 . S
C800 H858 0.930 . S
C801 N797 1.279 . S
C801 C799 1.358 . S
C801 H859 0.930 . S
C802 C805 1.348 . S
C802 C806 1.356 . S
C802 O853 1.325 . S
C803 N804 1.279 . S
C803 C806 1.358 . S
C803 H860 0.930 . S
N804 C803 1.279 . S
N804 C807 1.314 . S
C805 C802 1.348 . S
C805 C807 1.353 . S
C805 H861 0.929 . S
C806 C802 1.356 . S
C806 C803 1.358 . S
C806 H862 0.930 . S
C807 N804 1.314 . S
C807 C805 1.353 . S
C807 H863 0.930 . S
C808 N809 1.314 . S
C808 C813 1.353 . S
C808 H814 0.930 . S
N809 Li792 1.990 . S
N809 C808 1.314 . S
N809 C811 1.279 . S
C810 C811 1.358 . S
C810 C812 1.356 . S
C810 H864 0.930 . S
C811 N809 1.279 . S
C811 C810 1.358 . S
C811 H815 0.930 . S
C812 C810 1.356 . S
C812 C813 1.348 . S
C813 C808 1.353 . S
C813 C812 1.348 . S
C813 H865 0.929 . S
H814 C808 0.930 . S
H815 C811 0.930 . S
C816 N817 1.314 . S
C816 C818 1.353 . S
C816 H822 0.930 . S
N817 Li793 1.990 . S
N817 C816 1.314 . S
N817 C820 1.279 . S
C818 C816 1.353 . S
C818 C821 1.348 . S
C818 H866 0.929 . S
C819 C820 1.358 . S
C819 C821 1.356 . S
C819 H867 0.930 . S
C820 N817 1.279 . S
C820 C819 1.358 . S
C820 H823 0.930 . S
C821 C818 1.348 . S
C821 C819 1.356 . S
H822 C816 0.930 . S
H823 C820 0.930 . S
C824 C826 1.348 . S
C824 C827 1.356 . S
C824 O854 1.325 . S
N825 C828 1.314 . S
N825 C829 1.279 . S
C826 C824 1.348 . S
C826 C828 1.353 . S
C826 H868 0.929 . S
C827 C824 1.356 . S
C827 C829 1.358 . S
C827 H869 0.930 . S
C828 N825 1.314 . S
C828 C826 1.353 . S
C828 H870 0.930 . S
C829 N825 1.279 . S
C829 C827 1.358 . S
C829 H871 0.930 . S
C830 C831 1.348 . S
C830 C832 1.356 . S
C830 O855 1.325 . S
C831 C830 1.348 . S
C831 C833 1.353 . S
C831 H872 0.929 . S
C832 C830 1.356 . S
C832 C834 1.358 . S
C832 H873 0.930 . S
C833 C831 1.353 . S
C833 N835 1.314 . S
C833 H874 0.930 . S
C834 C832 1.358 . S
C834 N835 1.279 . S
C834 H875 0.930 . S
N835 C833 1.314 . S
N835 C834 1.279 . S
C836 C838 1.353 . S
C836 N839 1.314 . S
C836 H842 0.930 . S
C837 N839 1.279 . S
C837 C840 1.358 . S
C837 H843 0.930 . S
C838 C836 1.353 . S
C838 C841 1.348 . S
C838 H876 0.929 . S
N839 Li794 1.990 . S
N839 C836 1.314 . S
N839 C837 1.279 . S
C840 C837 1.358 . S
C840 C841 1.356 . S
C840 H877 0.930 . S
C841 C838 1.348 . S
C841 C840 1.356 . S
H842 C836 0.930 . S
H843 C837 0.930 . S
C844 N845 1.314 . S
C844 C846 1.353 . S
C844 H850 0.930 . S
N845 Li795 1.990 . S
N845 C844 1.314 . S
N845 C848 1.279 . S
C846 C844 1.353 . S
C846 C849 1.348 . S
C846 H878 0.929 . S
C847 C848 1.358 . S
C847 C849 1.356 . S
C847 H879 0.930 . S
C848 N845 1.279 . S
C848 C847 1.358 . S
C848 H851 0.930 . S
C849 C846 1.348 . S
C849 C847 1.356 . S
H850 C844 0.930 . S
H851 C848 0.930 . S
O852 Li792 1.956 . S
O852 Li793 1.970 . S
O852 Li794 1.961 . S
O852 C796 1.325 . S
O853 Li792 1.970 . S
O853 Li793 1.956 . S
O853 Li795 1.961 . S
O853 C802 1.325 . S
O854 Li792 1.961 . S
O854 Li794 1.956 . S
O854 Li795 1.970 . S
O854 C824 1.325 . S
O855 Li793 1.961 . S
O855 Li794 1.970 . S
O855 Li795 1.956 . S
O855 C830 1.325 . S
H856 C798 0.929 . S
H857 C799 0.930 . S
H858 C800 0.930 . S
H859 C801 0.930 . S
H860 C803 0.930 . S
H861 C805 0.929 . S
H862 C806 0.930 . S
H863 C807 0.930 . S
H864 C810 0.930 . S
H865 C813 0.929 . S
H866 C818 0.929 . S
H867 C819 0.930 . S
H868 C826 0.929 . S
H869 C827 0.930 . S
H870 C828 0.930 . S
H871 C829 0.930 . S
H872 C831 0.929 . S
H873 C832 0.930 . S
H874 C833 0.930 . S
H875 C834 0.930 . S
H876 C838 0.929 . S
H877 C840 0.930 . S
H878 C846 0.929 . S
H879 C847 0.930 . S
Li880 N897 1.990 . S
Li880 O940 1.956 . S
Li880 O941 1.970 . S
Li880 O942 1.983 . S
Li881 N905 1.990 . S
Li881 O940 1.967 . S
Li881 O941 1.975 . S
Li881 O943 1.944 1_545 S
Li882 N927 1.990 . S
Li882 O940 1.961 1_565 S
Li882 O942 1.927 1_565 S
Li882 O943 1.970 . S
Li883 N933 1.990 . S
Li883 O941 1.961 1_565 S
Li883 O942 1.972 1_565 S
Li883 O943 1.956 . S
C884 C886 1.348 . S
C884 C887 1.356 . S
C884 O940 1.325 . S
N885 C888 1.314 . S
N885 C889 1.279 . S
C886 C884 1.348 . S
C886 C888 1.353 . S
C886 H944 0.929 . S
C887 C884 1.356 . S
C887 C889 1.358 . S
C887 H945 0.930 . S
C888 N885 1.314 . S
C888 C886 1.353 . S
C888 H946 0.930 . S
C889 N885 1.279 . S
C889 C887 1.358 . S
C889 H947 0.930 . S
C890 C893 1.348 . S
C890 C894 1.356 . S
C890 O941 1.325 . S
C891 N892 1.279 . S
C891 C894 1.358 . S
C891 H948 0.930 . S
N892 C891 1.279 . S
N892 C895 1.314 . S
C893 C890 1.348 . S
C893 C895 1.353 . S
C893 H949 0.929 . S
C894 C890 1.356 . S
C894 C891 1.358 . S
C894 H950 0.930 . S
C895 N892 1.314 . S
C895 C893 1.353 . S
C895 H951 0.930 . S
C896 N897 1.314 . S
C896 C901 1.353 . S
C896 H902 0.930 . S
N897 Li880 1.990 . S
N897 C896 1.314 . S
N897 C899 1.279 . S
C898 C899 1.358 . S
C898 C900 1.356 . S
C898 H952 0.930 . S
C899 N897 1.279 . S
C899 C898 1.358 . S
C899 H903 0.930 . S
C900 C898 1.356 . S
C900 C901 1.348 . S
C901 C896 1.353 . S
C901 C900 1.348 . S
C901 H953 0.929 . S
H902 C896 0.930 . S
H903 C899 0.930 . S
C904 N905 1.296 1_565 S
C904 C906 1.353 . S
C904 H910 0.930 . S
N905 Li881 1.990 . S
N905 C904 1.296 1_545 S
N905 C908 1.297 . S
C906 C904 1.353 . S
C906 C909 1.349 . S
C906 H954 0.929 . S
C907 C908 1.358 . S
C907 C909 1.354 1_545 S
C907 H955 0.930 . S
C908 N905 1.297 . S
C908 C907 1.358 . S
C908 H911 0.930 . S
C909 C906 1.349 . S
C909 C907 1.354 1_565 S
H910 C904 0.930 . S
H911 C908 0.930 . S
C912 C914 1.345 1_545 S
C912 C915 1.357 . S
C912 O942 1.325 . S
N913 C916 1.321 . S
N913 C917 1.274 1_565 S
C914 C912 1.345 1_565 S
C914 C916 1.353 . S
C914 H956 0.929 . S
C915 C912 1.357 . S
C915 C917 1.358 . S
C915 H957 0.930 . S
C916 N913 1.321 . S
C916 C914 1.353 . S
C916 H958 0.930 . S
C917 N913 1.274 1_545 S
C917 C915 1.358 . S
C917 H959 0.930 . S
C918 C919 1.348 . S
C918 C920 1.356 . S
C918 O943 1.325 . S
C919 C918 1.348 . S
C919 C921 1.353 . S
C919 H960 0.929 . S
C920 C918 1.356 . S
C920 C922 1.358 . S
C920 H961 0.930 . S
C921 C919 1.353 . S
C921 N923 1.314 . S
C921 H962 0.930 . S
C922 C920 1.358 . S
C922 N923 1.279 . S
C922 H963 0.930 . S
N923 C921 1.314 . S
N923 C922 1.279 . S
C924 C926 1.353 . S
C924 N927 1.314 . S
C924 H930 0.930 . S
C925 N927 1.279 . S
C925 C928 1.358 . S
C925 H931 0.930 . S
C926 C924 1.353 . S
C926 C929 1.348 . S
C926 H964 0.929 . S
N927 Li882 1.990 . S
N927 C924 1.314 . S
N927 C925 1.279 . S
C928 C925 1.358 . S
C928 C929 1.356 . S
C928 H965 0.930 . S
C929 C926 1.348 . S
C929 C928 1.356 . S
H930 C924 0.930 . S
H931 C925 0.930 . S
C932 N933 1.314 1_545 S
C932 C934 1.353 . S
C932 H938 0.930 . S
N933 Li883 1.990 . S
N933 C932 1.314 1_565 S
N933 C936 1.279 . S
C934 C932 1.353 . S
C934 C937 1.348 1_545 S
C934 H966 0.929 . S
C935 C936 1.358 . S
C935 C937 1.356 . S
C935 H967 0.930 . S
C936 N933 1.279 . S
C936 C935 1.358 . S
C936 H939 0.930 . S
C937 C934 1.348 1_565 S
C937 C935 1.356 . S
H938 C932 0.930 . S
H939 C936 0.930 . S
O940 Li880 1.956 . S
O940 Li881 1.967 . S
O940 Li882 1.961 1_545 S
O940 C884 1.325 . S
O941 Li880 1.970 . S
O941 Li881 1.975 . S
O941 Li883 1.961 1_545 S
O941 C890 1.325 . S
O942 Li880 1.983 . S
O942 Li882 1.927 1_545 S
O942 Li883 1.972 1_545 S
O942 C912 1.325 . S
O943 Li881 1.944 1_565 S
O943 Li882 1.970 . S
O943 Li883 1.956 . S
O943 C918 1.325 . S
H944 C886 0.929 . S
H945 C887 0.930 . S
H946 C888 0.930 . S
H947 C889 0.930 . S
H948 C891 0.930 . S
H949 C893 0.929 . S
H950 C894 0.930 . S
H951 C895 0.930 . S
H952 C898 0.930 . S
H953 C901 0.929 . S
H954 C906 0.929 . S
H955 C907 0.930 . S
H956 C914 0.929 . S
H957 C915 0.930 . S
H958 C916 0.930 . S
H959 C917 0.930 . S
H960 C919 0.929 . S
H961 C920 0.930 . S
H962 C921 0.930 . S
H963 C922 0.930 . S
H964 C926 0.929 . S
H965 C928 0.930 . S
H966 C934 0.929 . S
H967 C935 0.930 . S
Li968 N985 1.990 . S
Li968 O1028 1.956 . S
Li968 O1029 1.970 . S
Li968 O1030 1.961 . S
Li969 N993 1.990 . S
Li969 O1028 1.970 . S
Li969 O1029 1.956 . S
Li969 O1031 1.961 . S
Li970 N1015 1.990 . S
Li970 O1028 1.961 . S
Li970 O1030 1.956 . S
Li970 O1031 1.970 . S
Li971 N1021 1.990 1_554 S
Li971 O1029 1.961 . S
Li971 O1030 1.970 . S
Li971 O1031 1.956 . S
C972 C974 1.348 . S
C972 C975 1.356 . S
C972 O1028 1.325 . S
N973 C976 1.314 . S
N973 C977 1.279 . S
C974 C972 1.348 . S
C974 C976 1.353 . S
C974 H1032 0.929 . S
C975 C972 1.356 . S
C975 C977 1.358 . S
C975 H1033 0.930 . S
C976 N973 1.314 . S
C976 C974 1.353 . S
C976 H1034 0.930 . S
C977 N973 1.279 . S
C977 C975 1.358 . S
C977 H1035 0.930 . S
C978 C981 1.348 . S
C978 C982 1.356 . S
C978 O1029 1.325 . S
C979 N980 1.279 . S
C979 C982 1.358 . S
C979 H1036 0.930 . S
N980 C979 1.279 . S
N980 C983 1.314 . S
C981 C978 1.348 . S
C981 C983 1.353 . S
C981 H1037 0.929 . S
C982 C978 1.356 . S
C982 C979 1.358 . S
C982 H1038 0.930 . S
C983 N980 1.314 . S
C983 C981 1.353 . S
C983 H1039 0.930 . S
C984 N985 1.314 . S
C984 C989 1.353 . S
C984 H990 0.930 1_554 S
N985 Li968 1.990 . S
N985 C984 1.314 . S
N985 C987 1.279 . S
C986 C987 1.358 . S
C986 C988 1.356 . S
C986 H1040 0.930 . S
C987 N985 1.279 . S
C987 C986 1.358 . S
C987 H991 0.930 . S
C988 C986 1.356 . S
C988 C989 1.348 . S
C989 C984 1.353 . S
C989 C988 1.348 . S
C989 H1041 0.929 1_554 S
H990 C984 0.930 1_556 S
H991 C987 0.930 . S
C992 N993 1.314 . S
C992 C994 1.353 . S
C992 H998 0.930 . S
N993 Li969 1.990 . S
N993 C992 1.314 . S
N993 C996 1.279 . S
C994 C992 1.353 . S
C994 C997 1.348 . S
C994 H1042 0.929 . S
C995 C996 1.358 . S
C995 C997 1.356 . S
C995 H1043 0.930 . S
C996 N993 1.279 . S
C996 C995 1.358 . S
C996 H999 0.930 . S
C997 C994 1.348 . S
C997 C995 1.356 . S
H998 C992 0.930 . S
H999 C996 0.930 . S
C1000 C1002 1.348 . S
C1000 C1003 1.356 . S
C1000 O1030 1.325 1_556 S
N1001 C1004 1.314 . S
N1001 C1005 1.279 . S
C1002 C1000 1.348 . S
C1002 C1004 1.353 . S
C1002 H1044 0.929 . S
C1003 C1000 1.356 . S
C1003 C1005 1.358 . S
C1003 H1045 0.930 1_556 S
C1004 N1001 1.314 . S
C1004 C1002 1.353 . S
C1004 H1046 0.930 . S
C1005 N1001 1.279 . S
C1005 C1003 1.358 . S
C1005 H1047 0.930 . S
C1006 C1007 1.348 . S
C1006 C1008 1.356 . S
C1006 O1031 1.325 . S
C1007 C1006 1.348 . S
C1007 C1009 1.353 . S
C1007 H1048 0.929 . S
C1008 C1006 1.356 . S
C1008 C1010 1.358 . S
C1008 H1049 0.930 . S
C1009 C1007 1.353 . S
C1009 N1011 1.314 . S
C1009 H1050 0.930 . S
C1010 C1008 1.358 . S
C1010 N1011 1.279 . S
C1010 H1051 0.930 . S
N1011 C1009 1.314 . S
N1011 C1010 1.279 . S
C1012 C1014 1.353 . S
C1012 N1015 1.314 . S
C1012 H1018 0.930 . S
C1013 N1015 1.279 . S
C1013 C1016 1.358 . S
C1013 H1019 0.930 . S
C1014 C1012 1.353 . S
C1014 C1017 1.348 . S
C1014 H1052 0.929 . S
N1015 Li970 1.990 . S
N1015 C1012 1.314 . S
N1015 C1013 1.279 . S
C1016 C1013 1.358 . S
C1016 C1017 1.356 . S
C1016 H1053 0.930 . S
C1017 C1014 1.348 . S
C1017 C1016 1.356 . S
H1018 C1012 0.930 . S
H1019 C1013 0.930 . S
C1020 N1021 1.314 . S
C1020 C1022 1.353 . S
C1020 H1026 0.930 . S
N1021 Li971 1.990 1_556 S
N1021 C1020 1.314 . S
N1021 C1024 1.279 . S
C1022 C1020 1.353 . S
C1022 C1025 1.348 . S
C1022 H1054 0.929 . S
C1023 C1024 1.358 . S
C1023 C1025 1.356 . S
C1023 H1055 0.930 . S
C1024 N1021 1.279 . S
C1024 C1023 1.358 . S
C1024 H1027 0.930 . S
C1025 C1022 1.348 . S
C1025 C1023 1.356 . S
H1026 C1020 0.930 . S
H1027 C1024 0.930 . S
O1028 Li968 1.956 . S
O1028 Li969 1.970 . S
O1028 Li970 1.961 . S
O1028 C972 1.325 . S
O1029 Li968 1.970 . S
O1029 Li969 1.956 . S
O1029 Li971 1.961 . S
O1029 C978 1.325 . S
O1030 Li968 1.961 . S
O1030 Li970 1.956 . S
O1030 Li971 1.970 . S
O1030 C1000 1.325 1_554 S
O1031 Li969 1.961 . S
O1031 Li970 1.970 . S
O1031 Li971 1.956 . S
O1031 C1006 1.325 . S
H1032 C974 0.929 . S
H1033 C975 0.930 . S
H1034 C976 0.930 . S
H1035 C977 0.930 . S
H1036 C979 0.930 . S
H1037 C981 0.929 . S
H1038 C982 0.930 . S
H1039 C983 0.930 . S
H1040 C986 0.930 . S
H1041 C989 0.929 1_556 S
H1042 C994 0.929 . S
H1043 C995 0.930 . S
H1044 C1002 0.929 . S
H1045 C1003 0.930 1_554 S
H1046 C1004 0.930 . S
H1047 C1005 0.930 . S
H1048 C1007 0.929 . S
H1049 C1008 0.930 . S
H1050 C1009 0.930 . S
H1051 C1010 0.930 . S
H1052 C1014 0.929 . S
H1053 C1016 0.930 . S
H1054 C1022 0.929 . S
H1055 C1023 0.930 . S
Li1056 N1073 1.990 . S
Li1056 O1116 1.956 . S
Li1056 O1117 1.970 . S
Li1056 O1118 1.961 . S
Li1057 N1081 1.990 . S
Li1057 O1116 1.970 . S
Li1057 O1117 1.956 . S
Li1057 O1119 1.961 . S
Li1058 N1103 1.990 . S
Li1058 O1116 1.961 . S
Li1058 O1118 1.956 . S
Li1058 O1119 1.970 . S
Li1059 N1109 1.990 1_554 S
Li1059 O1117 1.961 . S
Li1059 O1118 1.970 . S
Li1059 O1119 1.956 . S
C1060 C1062 1.348 . S
C1060 C1063 1.356 . S
C1060 O1116 1.325 . S
N1061 C1064 1.314 . S
N1061 C1065 1.279 . S
C1062 C1060 1.348 . S
C1062 C1064 1.353 . S
C1062 H1120 0.929 . S
C1063 C1060 1.356 . S
C1063 C1065 1.358 . S
C1063 H1121 0.930 . S
C1064 N1061 1.314 . S
C1064 C1062 1.353 . S
C1064 H1122 0.930 . S
C1065 N1061 1.279 . S
C1065 C1063 1.358 . S
C1065 H1123 0.930 . S
C1066 C1069 1.348 . S
C1066 C1070 1.356 . S
C1066 O1117 1.325 . S
C1067 N1068 1.279 . S
C1067 C1070 1.358 . S
C1067 H1124 0.930 . S
N1068 C1067 1.279 . S
N1068 C1071 1.314 . S
C1069 C1066 1.348 . S
C1069 C1071 1.353 . S
C1069 H1125 0.929 . S
C1070 C1066 1.356 . S
C1070 C1067 1.358 . S
C1070 H1126 0.930 . S
C1071 N1068 1.314 . S
C1071 C1069 1.353 . S
C1071 H1127 0.930 . S
C1072 N1073 1.314 . S
C1072 C1077 1.353 . S
C1072 H1078 0.930 . S
N1073 Li1056 1.990 . S
N1073 C1072 1.314 . S
N1073 C1075 1.279 . S
C1074 C1075 1.358 . S
C1074 C1076 1.356 . S
C1074 H1128 0.930 . S
C1075 N1073 1.279 . S
C1075 C1074 1.358 . S
C1075 H1079 0.930 . S
C1076 C1074 1.356 . S
C1076 C1077 1.348 . S
C1077 C1072 1.353 . S
C1077 C1076 1.348 . S
C1077 H1129 0.929 . S
H1078 C1072 0.930 . S
H1079 C1075 0.930 . S
C1080 N1081 1.314 . S
C1080 C1082 1.353 . S
C1080 H1086 0.930 . S
N1081 Li1057 1.990 . S
N1081 C1080 1.314 . S
N1081 C1084 1.279 . S
C1082 C1080 1.353 . S
C1082 C1085 1.348 . S
C1082 H1130 0.929 . S
C1083 C1084 1.358 . S
C1083 C1085 1.356 . S
C1083 H1131 0.930 . S
C1084 N1081 1.279 . S
C1084 C1083 1.358 . S
C1084 H1087 0.930 . S
C1085 C1082 1.348 . S
C1085 C1083 1.356 . S
H1086 C1080 0.930 . S
H1087 C1084 0.930 . S
C1088 C1090 1.348 1_554 S
C1088 C1091 1.356 . S
C1088 O1118 1.325 . S
N1089 C1092 1.314 . S
N1089 C1093 1.330 . S
C1090 C1088 1.348 1_556 S
C1090 C1092 1.353 . S
C1090 H1132 0.929 . S
C1091 C1088 1.356 . S
C1091 C1093 1.311 1_554 S
C1091 H1133 0.930 . S
C1092 N1089 1.314 . S
C1092 C1090 1.353 . S
C1092 H1134 0.930 . S
C1093 N1089 1.330 . S
C1093 C1091 1.311 1_556 S
C1093 H1135 0.929 1_556 S
C1094 C1095 1.348 . S
C1094 C1096 1.356 . S
C1094 O1119 1.325 . S
C1095 C1094 1.348 . S
C1095 C1097 1.353 . S
C1095 H1136 0.929 . S
C1096 C1094 1.356 . S
C1096 C1098 1.358 . S
C1096 H1137 0.930 . S
C1097 C1095 1.353 . S
C1097 N1099 1.314 . S
C1097 H1138 0.930 . S
C1098 C1096 1.358 . S
C1098 N1099 1.279 . S
C1098 H1139 0.930 . S
N1099 C1097 1.314 . S
N1099 C1098 1.279 . S
C1100 C1102 1.353 . S
C1100 N1103 1.314 . S
C1100 H1106 0.930 . S
C1101 N1103 1.279 . S
C1101 C1104 1.358 . S
C1101 H1107 0.930 . S
C1102 C1100 1.353 . S
C1102 C1105 1.348 . S
C1102 H1140 0.929 . S
N1103 Li1058 1.990 . S
N1103 C1100 1.314 . S
N1103 C1101 1.279 . S
C1104 C1101 1.358 . S
C1104 C1105 1.356 . S
C1104 H1141 0.930 . S
C1105 C1102 1.348 . S
C1105 C1104 1.356 . S
H1106 C1100 0.930 . S
H1107 C1101 0.930 . S
C1108 N1109 1.314 . S
C1108 C1110 1.353 . S
C1108 H1114 0.930 . S
N1109 Li1059 1.990 1_556 S
N1109 C1108 1.314 . S
N1109 C1112 1.279 . S
C1110 C1108 1.353 . S
C1110 C1113 1.348 . S
C1110 H1142 0.929 . S
C1111 C1112 1.358 . S
C1111 C1113 1.356 . S
C1111 H1143 0.930 . S
C1112 N1109 1.279 . S
C1112 C1111 1.358 . S
C1112 H1115 0.930 . S
C1113 C1110 1.348 . S
C1113 C1111 1.356 . S
H1114 C1108 0.930 . S
H1115 C1112 0.930 . S
O1116 Li1056 1.956 . S
O1116 Li1057 1.970 . S
O1116 Li1058 1.961 . S
O1116 C1060 1.325 . S
O1117 Li1056 1.970 . S
O1117 Li1057 1.956 . S
O1117 Li1059 1.961 . S
O1117 C1066 1.325 . S
O1118 Li1056 1.961 . S
O1118 Li1058 1.956 . S
O1118 Li1059 1.970 . S
O1118 C1088 1.325 . S
O1119 Li1057 1.961 . S
O1119 Li1058 1.970 . S
O1119 Li1059 1.956 . S
O1119 C1094 1.325 . S
H1120 C1062 0.929 . S
H1121 C1063 0.930 . S
H1122 C1064 0.930 . S
H1123 C1065 0.930 . S
H1124 C1067 0.930 . S
H1125 C1069 0.929 . S
H1126 C1070 0.930 . S
H1127 C1071 0.930 . S
H1128 C1074 0.930 . S
H1129 C1077 0.929 . S
H1130 C1082 0.929 . S
H1131 C1083 0.930 . S
H1132 C1090 0.929 . S
H1133 C1091 0.930 . S
H1134 C1092 0.930 . S
H1135 C1093 0.929 1_554 S
H1136 C1095 0.929 . S
H1137 C1096 0.930 . S
H1138 C1097 0.930 . S
H1139 C1098 0.930 . S
H1140 C1102 0.929 . S
H1141 C1104 0.930 . S
H1142 C1110 0.929 . S
H1143 C1111 0.930 . S
Li1144 N1161 1.990 . S
Li1144 O1204 1.956 . S
Li1144 O1205 1.970 . S
Li1144 O1206 1.961 . S
Li1145 N1169 1.990 . S
Li1145 O1204 1.970 . S
Li1145 O1205 1.956 . S
Li1145 O1207 1.914 1_554 S
Li1146 N1191 1.990 1_554 S
Li1146 O1204 1.961 . S
Li1146 O1206 1.956 . S
Li1146 O1207 1.971 1_554 S
Li1147 N1197 1.990 . S
Li1147 O1205 1.961 . S
Li1147 O1206 1.970 . S
Li1147 O1207 1.909 1_554 S
C1148 C1150 1.348 . S
C1148 C1151 1.356 . S
C1148 O1204 1.325 . S
N1149 C1152 1.314 . S
N1149 C1153 1.279 . S
C1150 C1148 1.348 . S
C1150 C1152 1.353 . S
C1150 H1208 0.929 . S
C1151 C1148 1.356 . S
C1151 C1153 1.358 . S
C1151 H1209 0.930 . S
C1152 N1149 1.314 . S
C1152 C1150 1.353 . S
C1152 H1210 0.930 . S
C1153 N1149 1.279 . S
C1153 C1151 1.358 . S
C1153 H1211 0.930 . S
C1154 C1157 1.348 . S
C1154 C1158 1.356 . S
C1154 O1205 1.325 . S
C1155 N1156 1.279 . S
C1155 C1158 1.358 . S
C1155 H1212 0.930 . S
N1156 C1155 1.279 . S
N1156 C1159 1.314 . S
C1157 C1154 1.348 . S
C1157 C1159 1.353 . S
C1157 H1213 0.929 . S
C1158 C1154 1.356 . S
C1158 C1155 1.358 . S
C1158 H1214 0.930 . S
C1159 N1156 1.314 . S
C1159 C1157 1.353 . S
C1159 H1215 0.930 . S
C1160 N1161 1.314 . S
C1160 C1165 1.353 . S
C1160 H1166 0.930 . S
N1161 Li1144 1.990 . S
N1161 C1160 1.314 . S
N1161 C1163 1.279 . S
C1162 C1163 1.358 . S
C1162 C1164 1.356 . S
C1162 H1216 0.930 . S
C1163 N1161 1.279 . S
C1163 C1162 1.358 . S
C1163 H1167 0.930 . S
C1164 C1162 1.356 . S
C1164 C1165 1.348 . S
C1165 C1160 1.353 . S
C1165 C1164 1.348 . S
C1165 H1217 0.929 . S
H1166 C1160 0.930 . S
H1167 C1163 0.930 . S
C1168 N1169 1.314 . S
C1168 C1170 1.353 . S
C1168 H1174 0.930 1_554 S
N1169 Li1145 1.990 . S
N1169 C1168 1.314 . S
N1169 C1172 1.279 . S
C1170 C1168 1.353 . S
C1170 C1173 1.348 . S
C1170 H1218 0.929 1_554 S
C1171 C1172 1.358 . S
C1171 C1173 1.356 . S
C1171 H1219 0.930 . S
C1172 N1169 1.279 . S
C1172 C1171 1.358 . S
C1172 H1175 0.930 . S
C1173 C1170 1.348 . S
C1173 C1171 1.356 . S
H1174 C1168 0.930 1_556 S
H1175 C1172 0.930 . S
C1176 C1178 1.348 . S
C1176 C1179 1.356 . S
C1176 O1206 1.325 . S
N1177 C1180 1.314 . S
N1177 C1181 1.279 . S
C1178 C1176 1.348 . S
C1178 C1180 1.353 . S
C1178 H1220 0.929 . S
C1179 C1176 1.356 . S
C1179 C1181 1.358 . S
C1179 H1221 0.930 . S
C1180 N1177 1.314 . S
C1180 C1178 1.353 . S
C1180 H1222 0.930 . S
C1181 N1177 1.279 . S
C1181 C1179 1.358 . S
C1181 H1223 0.930 . S
C1182 C1183 1.348 . S
C1182 C1184 1.356 . S
C1182 O1207 1.373 . S
C1183 C1182 1.348 . S
C1183 C1185 1.353 . S
C1183 H1224 0.929 . S
C1184 C1182 1.356 . S
C1184 C1186 1.358 . S
C1184 H1225 0.930 . S
C1185 C1183 1.353 . S
C1185 N1187 1.314 . S
C1185 H1226 0.930 . S
C1186 C1184 1.358 . S
C1186 N1187 1.279 . S
C1186 H1227 0.930 . S
N1187 C1185 1.314 . S
N1187 C1186 1.279 . S
C1188 C1190 1.353 . S
C1188 N1191 1.314 . S
C1188 H1194 0.930 . S
C1189 N1191 1.279 . S
C1189 C1192 1.358 . S
C1189 H1195 0.930 . S
C1190 C1188 1.353 . S
C1190 C1193 1.348 . S
C1190 H1228 0.929 . S
N1191 Li1146 1.990 1_556 S
N1191 C1188 1.314 . S
N1191 C1189 1.279 . S
C1192 C1189 1.358 . S
C1192 C1193 1.356 . S
C1192 H1229 0.930 . S
C1193 C1190 1.348 . S
C1193 C1192 1.356 . S
H1194 C1188 0.930 . S
H1195 C1189 0.930 . S
C1196 N1197 1.314 . S
C1196 C1198 1.353 . S
C1196 H1202 0.930 . S
N1197 Li1147 1.990 . S
N1197 C1196 1.314 . S
N1197 C1200 1.264 1_554 S
C1198 C1196 1.353 . S
C1198 C1201 1.348 . S
C1198 H1230 0.929 . S
C1199 C1200 1.358 . S
C1199 C1201 1.356 1_556 S
C1199 H1231 0.930 . S
C1200 N1197 1.264 1_556 S
C1200 C1199 1.358 . S
C1200 H1203 0.948 . S
C1201 C1198 1.348 . S
C1201 C1199 1.356 1_554 S
H1202 C1196 0.930 . S
H1203 C1200 0.948 . S
O1204 Li1144 1.956 . S
O1204 Li1145 1.970 . S
O1204 Li1146 1.961 . S
O1204 C1148 1.325 . S
O1205 Li1144 1.970 . S
O1205 Li1145 1.956 . S
O1205 Li1147 1.961 . S
O1205 C1154 1.325 . S
O1206 Li1144 1.961 . S
O1206 Li1146 1.956 . S
O1206 Li1147 1.970 . S
O1206 C1176 1.325 . S
O1207 Li1145 1.914 1_556 S
O1207 Li1146 1.971 1_556 S
O1207 Li1147 1.909 1_556 S
O1207 C1182 1.373 . S
H1208 C1150 0.929 . S
H1209 C1151 0.930 . S
H1210 C1152 0.930 . S
H1211 C1153 0.930 . S
H1212 C1155 0.930 . S
H1213 C1157 0.929 . S
H1214 C1158 0.930 . S
H1215 C1159 0.930 . S
H1216 C1162 0.930 . S
H1217 C1165 0.929 . S
H1218 C1170 0.929 1_556 S
H1219 C1171 0.930 . S
H1220 C1178 0.929 . S
H1221 C1179 0.930 . S
H1222 C1180 0.930 . S
H1223 C1181 0.930 . S
H1224 C1183 0.929 . S
H1225 C1184 0.930 . S
H1226 C1185 0.930 . S
H1227 C1186 0.930 . S
H1228 C1190 0.929 . S
H1229 C1192 0.930 . S
H1230 C1198 0.929 . S
H1231 C1199 0.930 . S
Li1232 N1249 1.990 . S
Li1232 O1292 1.956 . S
Li1232 O1293 1.970 . S
Li1232 O1294 1.961 . S
Li1233 N1257 1.990 . S
Li1233 O1292 1.970 . S
Li1233 O1293 1.956 . S
Li1233 O1295 1.961 . S
Li1234 N1279 1.990 . S
Li1234 O1292 1.961 . S
Li1234 O1294 1.956 . S
Li1234 O1295 1.970 . S
Li1235 N1285 1.990 . S
Li1235 O1293 1.961 . S
Li1235 O1294 1.970 . S
Li1235 O1295 1.956 . S
C1236 C1238 1.348 . S
C1236 C1239 1.356 . S
C1236 O1292 1.325 . S
N1237 C1240 1.314 . S
N1237 C1241 1.279 . S
C1238 C1236 1.348 . S
C1238 C1240 1.353 . S
C1238 H1296 0.929 . S
C1239 C1236 1.356 . S
C1239 C1241 1.358 . S
C1239 H1297 0.930 . S
C1240 N1237 1.314 . S
C1240 C1238 1.353 . S
C1240 H1298 0.930 . S
C1241 N1237 1.279 . S
C1241 C1239 1.358 . S
C1241 H1299 0.930 . S
C1242 C1245 1.348 . S
C1242 C1246 1.356 . S
C1242 O1293 1.325 . S
C1243 N1244 1.279 . S
C1243 C1246 1.358 . S
C1243 H1300 0.930 . S
N1244 C1243 1.279 . S
N1244 C1247 1.314 . S
C1245 C1242 1.348 . S
C1245 C1247 1.353 . S
C1245 H1301 0.929 . S
C1246 C1242 1.356 . S
C1246 C1243 1.358 . S
C1246 H1302 0.930 . S
C1247 N1244 1.314 . S
C1247 C1245 1.353 . S
C1247 H1303 0.930 . S
C1248 N1249 1.314 . S
C1248 C1253 1.353 . S
C1248 H1254 0.930 . S
N1249 Li1232 1.990 . S
N1249 C1248 1.314 . S
N1249 C1251 1.279 . S
C1250 C1251 1.358 . S
C1250 C1252 1.356 . S
C1250 H1304 0.930 . S
C1251 N1249 1.279 . S
C1251 C1250 1.358 . S
C1251 H1255 0.930 . S
C1252 C1250 1.356 . S
C1252 C1253 1.348 . S
C1253 C1248 1.353 . S
C1253 C1252 1.348 . S
C1253 H1305 0.929 . S
H1254 C1248 0.930 . S
H1255 C1251 0.930 . S
C1256 N1257 1.314 . S
C1256 C1258 1.353 . S
C1256 H1262 0.930 . S
N1257 Li1233 1.990 . S
N1257 C1256 1.314 . S
N1257 C1260 1.279 . S
C1258 C1256 1.353 . S
C1258 C1261 1.348 . S
C1258 H1306 0.929 . S
C1259 C1260 1.358 . S
C1259 C1261 1.356 . S
C1259 H1307 0.930 . S
C1260 N1257 1.279 . S
C1260 C1259 1.358 . S
C1260 H1263 0.930 . S
C1261 C1258 1.348 . S
C1261 C1259 1.356 . S
H1262 C1256 0.930 . S
H1263 C1260 0.930 . S
C1264 C1266 1.348 . S
C1264 C1267 1.356 . S
C1264 O1294 1.325 . S
N1265 C1268 1.314 . S
N1265 C1269 1.279 . S
C1266 C1264 1.348 . S
C1266 C1268 1.353 . S
C1266 H1308 0.929 . S
C1267 C1264 1.356 . S
C1267 C1269 1.358 . S
C1267 H1309 0.930 . S
C1268 N1265 1.314 . S
C1268 C1266 1.353 . S
C1268 H1310 0.930 . S
C1269 N1265 1.279 . S
C1269 C1267 1.358 . S
C1269 H1311 0.930 . S
C1270 C1271 1.348 . S
C1270 C1272 1.356 . S
C1270 O1295 1.325 . S
C1271 C1270 1.348 . S
C1271 C1273 1.353 . S
C1271 H1312 0.929 . S
C1272 C1270 1.356 . S
C1272 C1274 1.358 . S
C1272 H1313 0.930 . S
C1273 C1271 1.353 . S
C1273 N1275 1.314 . S
C1273 H1314 0.930 . S
C1274 C1272 1.358 . S
C1274 N1275 1.279 . S
C1274 H1315 0.930 . S
N1275 C1273 1.314 . S
N1275 C1274 1.279 . S
C1276 C1278 1.353 . S
C1276 N1279 1.314 . S
C1276 H1282 0.930 . S
C1277 N1279 1.279 . S
C1277 C1280 1.358 . S
C1277 H1283 0.930 . S
C1278 C1276 1.353 . S
C1278 C1281 1.348 . S
C1278 H1316 0.929 . S
N1279 Li1234 1.990 . S
N1279 C1276 1.314 . S
N1279 C1277 1.279 . S
C1280 C1277 1.358 . S
C1280 C1281 1.356 . S
C1280 H1317 0.930 . S
C1281 C1278 1.348 . S
C1281 C1280 1.356 . S
H1282 C1276 0.930 . S
H1283 C1277 0.930 . S
C1284 N1285 1.314 . S
C1284 C1286 1.353 . S
C1284 H1290 0.930 . S
N1285 Li1235 1.990 . S
N1285 C1284 1.314 . S
N1285 C1288 1.279 . S
C1286 C1284 1.353 . S
C1286 C1289 1.348 . S
C1286 H1318 0.929 . S
C1287 C1288 1.358 . S
C1287 C1289 1.356 . S
C1287 H1319 0.930 . S
C1288 N1285 1.279 . S
C1288 C1287 1.358 . S
C1288 H1291 0.930 . S
C1289 C1286 1.348 . S
C1289 C1287 1.356 . S
H1290 C1284 0.930 . S
H1291 C1288 0.930 . S
O1292 Li1232 1.956 . S
O1292 Li1233 1.970 . S
O1292 Li1234 1.961 . S
O1292 C1236 1.325 . S
O1293 Li1232 1.970 . S
O1293 Li1233 1.956 . S
O1293 Li1235 1.961 . S
O1293 C1242 1.325 . S
O1294 Li1232 1.961 . S
O1294 Li1234 1.956 . S
O1294 Li1235 1.970 . S
O1294 C1264 1.325 . S
O1295 Li1233 1.961 . S
O1295 Li1234 1.970 . S
O1295 Li1235 1.956 . S
O1295 C1270 1.325 . S
H1296 C1238 0.929 . S
H1297 C1239 0.930 . S
H1298 C1240 0.930 . S
H1299 C1241 0.930 . S
H1300 C1243 0.930 . S
H1301 C1245 0.929 . S
H1302 C1246 0.930 . S
H1303 C1247 0.930 . S
H1304 C1250 0.930 . S
H1305 C1253 0.929 . S
H1306 C1258 0.929 . S
H1307 C1259 0.930 . S
H1308 C1266 0.929 . S
H1309 C1267 0.930 . S
H1310 C1268 0.930 . S
H1311 C1269 0.930 . S
H1312 C1271 0.929 . S
H1313 C1272 0.930 . S
H1314 C1273 0.930 . S
H1315 C1274 0.930 . S
H1316 C1278 0.929 . S
H1317 C1280 0.930 . S
H1318 C1286 0.929 . S
H1319 C1287 0.930 . S
Li1320 N1337 1.990 . S
Li1320 O1380 1.956 . S
Li1320 O1381 1.970 . S
Li1320 O1382 1.961 . S
Li1321 N1345 1.990 . S
Li1321 O1380 1.970 . S
Li1321 O1381 1.956 . S
Li1321 O1383 1.961 . S
Li1322 N1367 1.990 . S
Li1322 O1380 1.961 . S
Li1322 O1382 1.956 . S
Li1322 O1383 1.970 . S
Li1323 N1373 1.990 . S
Li1323 O1381 1.961 . S
Li1323 O1382 1.970 . S
Li1323 O1383 1.956 . S
C1324 C1326 1.348 . S
C1324 C1327 1.356 . S
C1324 O1380 1.325 . S
N1325 C1328 1.314 . S
N1325 C1329 1.279 . S
C1326 C1324 1.348 . S
C1326 C1328 1.353 . S
C1326 H1384 0.929 . S
C1327 C1324 1.356 . S
C1327 C1329 1.358 . S
C1327 H1385 0.930 . S
C1328 N1325 1.314 . S
C1328 C1326 1.353 . S
C1328 H1386 0.930 . S
C1329 N1325 1.279 . S
C1329 C1327 1.358 . S
C1329 H1387 0.930 . S
C1330 C1333 1.348 . S
C1330 C1334 1.356 . S
C1330 O1381 1.325 . S
C1331 N1332 1.279 . S
C1331 C1334 1.358 . S
C1331 H1388 0.930 . S
N1332 C1331 1.279 . S
N1332 C1335 1.314 . S
C1333 C1330 1.348 . S
C1333 C1335 1.353 . S
C1333 H1389 0.929 . S
C1334 C1330 1.356 . S
C1334 C1331 1.358 . S
C1334 H1390 0.930 . S
C1335 N1332 1.314 . S
C1335 C1333 1.353 . S
C1335 H1391 0.930 . S
C1336 N1337 1.314 . S
C1336 C1341 1.353 . S
C1336 H1342 0.930 . S
N1337 Li1320 1.990 . S
N1337 C1336 1.314 . S
N1337 C1339 1.279 . S
C1338 C1339 1.358 . S
C1338 C1340 1.356 . S
C1338 H1392 0.930 . S
C1339 N1337 1.279 . S
C1339 C1338 1.358 . S
C1339 H1343 0.930 . S
C1340 C1338 1.356 . S
C1340 C1341 1.348 . S
C1341 C1336 1.353 . S
C1341 C1340 1.348 . S
C1341 H1393 0.929 . S
H1342 C1336 0.930 . S
H1343 C1339 0.930 . S
C1344 N1345 1.314 . S
C1344 C1346 1.353 . S
C1344 H1350 0.930 . S
N1345 Li1321 1.990 . S
N1345 C1344 1.314 . S
N1345 C1348 1.279 . S
C1346 C1344 1.353 . S
C1346 C1349 1.348 . S
C1346 H1394 0.929 . S
C1347 C1348 1.358 . S
C1347 C1349 1.356 . S
C1347 H1395 0.930 . S
C1348 N1345 1.279 . S
C1348 C1347 1.358 . S
C1348 H1351 0.930 . S
C1349 C1346 1.348 . S
C1349 C1347 1.356 . S
H1350 C1344 0.930 . S
H1351 C1348 0.930 . S
C1352 C1354 1.348 . S
C1352 C1355 1.356 . S
C1352 O1382 1.325 . S
N1353 C1356 1.314 . S
N1353 C1357 1.279 . S
C1354 C1352 1.348 . S
C1354 C1356 1.353 . S
C1354 H1396 0.929 . S
C1355 C1352 1.356 . S
C1355 C1357 1.358 . S
C1355 H1397 0.930 . S
C1356 N1353 1.314 . S
C1356 C1354 1.353 . S
C1356 H1398 0.930 . S
C1357 N1353 1.279 . S
C1357 C1355 1.358 . S
C1357 H1399 0.930 . S
C1358 C1359 1.348 . S
C1358 C1360 1.356 . S
C1358 O1383 1.325 . S
C1359 C1358 1.348 . S
C1359 C1361 1.353 . S
C1359 H1400 0.929 . S
C1360 C1358 1.356 . S
C1360 C1362 1.358 . S
C1360 H1401 0.930 . S
C1361 C1359 1.353 . S
C1361 N1363 1.314 . S
C1361 H1402 0.930 . S
C1362 C1360 1.358 . S
C1362 N1363 1.279 . S
C1362 H1403 0.930 . S
N1363 C1361 1.314 . S
N1363 C1362 1.279 . S
C1364 C1366 1.353 . S
C1364 N1367 1.314 . S
C1364 H1370 0.930 . S
C1365 N1367 1.279 . S
C1365 C1368 1.358 . S
C1365 H1371 0.930 . S
C1366 C1364 1.353 . S
C1366 C1369 1.348 . S
C1366 H1404 0.929 . S
N1367 Li1322 1.990 . S
N1367 C1364 1.314 . S
N1367 C1365 1.279 . S
C1368 C1365 1.358 . S
C1368 C1369 1.356 . S
C1368 H1405 0.930 . S
C1369 C1366 1.348 . S
C1369 C1368 1.356 . S
H1370 C1364 0.930 . S
H1371 C1365 0.930 . S
C1372 N1373 1.314 . S
C1372 C1374 1.353 . S
C1372 H1378 0.930 . S
N1373 Li1323 1.990 . S
N1373 C1372 1.314 . S
N1373 C1376 1.279 . S
C1374 C1372 1.353 . S
C1374 C1377 1.348 . S
C1374 H1406 0.929 . S
C1375 C1376 1.358 . S
C1375 C1377 1.356 . S
C1375 H1407 0.930 . S
C1376 N1373 1.279 . S
C1376 C1375 1.358 . S
C1376 H1379 0.930 . S
C1377 C1374 1.348 . S
C1377 C1375 1.356 . S
H1378 C1372 0.930 . S
H1379 C1376 0.930 . S
O1380 Li1320 1.956 . S
O1380 Li1321 1.970 . S
O1380 Li1322 1.961 . S
O1380 C1324 1.325 . S
O1381 Li1320 1.970 . S
O1381 Li1321 1.956 . S
O1381 Li1323 1.961 . S
O1381 C1330 1.325 . S
O1382 Li1320 1.961 . S
O1382 Li1322 1.956 . S
O1382 Li1323 1.970 . S
O1382 C1352 1.325 . S
O1383 Li1321 1.961 . S
O1383 Li1322 1.970 . S
O1383 Li1323 1.956 . S
O1383 C1358 1.325 . S
H1384 C1326 0.929 . S
H1385 C1327 0.930 . S
H1386 C1328 0.930 . S
H1387 C1329 0.930 . S
H1388 C1331 0.930 . S
H1389 C1333 0.929 . S
H1390 C1334 0.930 . S
H1391 C1335 0.930 . S
H1392 C1338 0.930 . S
H1393 C1341 0.929 . S
H1394 C1346 0.929 . S
H1395 C1347 0.930 . S
H1396 C1354 0.929 . S
H1397 C1355 0.930 . S
H1398 C1356 0.930 . S
H1399 C1357 0.930 . S
H1400 C1359 0.929 . S
H1401 C1360 0.930 . S
H1402 C1361 0.930 . S
H1403 C1362 0.930 . S
H1404 C1366 0.929 . S
H1405 C1368 0.930 . S
H1406 C1374 0.929 . S
H1407 C1375 0.930 . S
Li1408 N1425 1.990 . S
Li1408 O1468 1.956 . S
Li1408 O1469 1.970 . S
Li1408 O1470 1.961 . S
Li1409 N1433 1.990 . S
Li1409 O1468 1.970 . S
Li1409 O1469 1.956 . S
Li1409 O1471 1.961 . S
Li1410 N1455 1.990 . S
Li1410 O1468 1.961 . S
Li1410 O1470 1.956 . S
Li1410 O1471 1.970 . S
Li1411 N1461 1.990 . S
Li1411 O1469 1.961 . S
Li1411 O1470 1.970 . S
Li1411 O1471 1.956 . S
C1412 C1414 1.348 . S
C1412 C1415 1.356 . S
C1412 O1468 1.325 . S
N1413 C1416 1.314 . S
N1413 C1417 1.279 . S
C1414 C1412 1.348 . S
C1414 C1416 1.353 . S
C1414 H1472 0.929 . S
C1415 C1412 1.356 . S
C1415 C1417 1.358 . S
C1415 H1473 0.930 . S
C1416 N1413 1.314 . S
C1416 C1414 1.353 . S
C1416 H1474 0.930 . S
C1417 N1413 1.279 . S
C1417 C1415 1.358 . S
C1417 H1475 0.930 . S
C1418 C1421 1.348 . S
C1418 C1422 1.356 . S
C1418 O1469 1.325 . S
C1419 N1420 1.279 . S
C1419 C1422 1.358 . S
C1419 H1476 0.930 . S
N1420 C1419 1.279 . S
N1420 C1423 1.314 . S
C1421 C1418 1.348 . S
C1421 C1423 1.353 . S
C1421 H1477 0.929 . S
C1422 C1418 1.356 . S
C1422 C1419 1.358 . S
C1422 H1478 0.930 . S
C1423 N1420 1.314 . S
C1423 C1421 1.353 . S
C1423 H1479 0.930 . S
C1424 N1425 1.314 . S
C1424 C1429 1.353 . S
C1424 H1430 0.930 . S
N1425 Li1408 1.990 . S
N1425 C1424 1.314 . S
N1425 C1427 1.279 . S
C1426 C1427 1.358 . S
C1426 C1428 1.356 . S
C1426 H1480 0.930 . S
C1427 N1425 1.279 . S
C1427 C1426 1.358 . S
C1427 H1431 0.930 . S
C1428 C1426 1.356 . S
C1428 C1429 1.348 . S
C1429 C1424 1.353 . S
C1429 C1428 1.348 . S
C1429 H1481 0.929 . S
H1430 C1424 0.930 . S
H1431 C1427 0.930 . S
C1432 N1433 1.314 . S
C1432 C1434 1.353 . S
C1432 H1438 0.930 . S
N1433 Li1409 1.990 . S
N1433 C1432 1.314 . S
N1433 C1436 1.279 . S
C1434 C1432 1.353 . S
C1434 C1437 1.348 . S
C1434 H1482 0.929 . S
C1435 C1436 1.358 . S
C1435 C1437 1.356 . S
C1435 H1483 0.930 . S
C1436 N1433 1.279 . S
C1436 C1435 1.358 . S
C1436 H1439 0.930 . S
C1437 C1434 1.348 . S
C1437 C1435 1.356 . S
H1438 C1432 0.930 . S
H1439 C1436 0.930 . S
C1440 C1442 1.348 . S
C1440 C1443 1.356 . S
C1440 O1470 1.325 . S
N1441 C1444 1.314 . S
N1441 C1445 1.279 . S
C1442 C1440 1.348 . S
C1442 C1444 1.353 . S
C1442 H1484 0.929 . S
C1443 C1440 1.356 . S
C1443 C1445 1.358 . S
C1443 H1485 0.930 . S
C1444 N1441 1.314 . S
C1444 C1442 1.353 . S
C1444 H1486 0.930 . S
C1445 N1441 1.279 . S
C1445 C1443 1.358 . S
C1445 H1487 0.930 . S
C1446 C1447 1.348 . S
C1446 C1448 1.356 . S
C1446 O1471 1.325 . S
C1447 C1446 1.348 . S
C1447 C1449 1.353 . S
C1447 H1488 0.929 . S
C1448 C1446 1.356 . S
C1448 C1450 1.358 . S
C1448 H1489 0.930 . S
C1449 C1447 1.353 . S
C1449 N1451 1.314 . S
C1449 H1490 0.930 . S
C1450 C1448 1.358 . S
C1450 N1451 1.279 . S
C1450 H1491 0.930 . S
N1451 C1449 1.314 . S
N1451 C1450 1.279 . S
C1452 C1454 1.353 . S
C1452 N1455 1.314 . S
C1452 H1458 0.930 . S
C1453 N1455 1.279 . S
C1453 C1456 1.358 . S
C1453 H1459 0.930 . S
C1454 C1452 1.353 . S
C1454 C1457 1.348 . S
C1454 H1492 0.929 . S
N1455 Li1410 1.990 . S
N1455 C1452 1.314 . S
N1455 C1453 1.279 . S
C1456 C1453 1.358 . S
C1456 C1457 1.356 . S
C1456 H1493 0.930 . S
C1457 C1454 1.348 . S
C1457 C1456 1.356 . S
H1458 C1452 0.930 . S
H1459 C1453 0.930 . S
C1460 N1461 1.314 . S
C1460 C1462 1.353 . S
C1460 H1466 0.930 . S
N1461 Li1411 1.990 . S
N1461 C1460 1.314 . S
N1461 C1464 1.279 . S
C1462 C1460 1.353 . S
C1462 C1465 1.348 . S
C1462 H1494 0.929 . S
C1463 C1464 1.358 . S
C1463 C1465 1.356 . S
C1463 H1495 0.930 . S
C1464 N1461 1.279 . S
C1464 C1463 1.358 . S
C1464 H1467 0.930 . S
C1465 C1462 1.348 . S
C1465 C1463 1.356 . S
H1466 C1460 0.930 . S
H1467 C1464 0.930 . S
O1468 Li1408 1.956 . S
O1468 Li1409 1.970 . S
O1468 Li1410 1.961 . S
O1468 C1412 1.325 . S
O1469 Li1408 1.970 . S
O1469 Li1409 1.956 . S
O1469 Li1411 1.961 . S
O1469 C1418 1.325 . S
O1470 Li1408 1.961 . S
O1470 Li1410 1.956 . S
O1470 Li1411 1.970 . S
O1470 C1440 1.325 . S
O1471 Li1409 1.961 . S
O1471 Li1410 1.970 . S
O1471 Li1411 1.956 . S
O1471 C1446 1.325 . S
H1472 C1414 0.929 . S
H1473 C1415 0.930 . S
H1474 C1416 0.930 . S
H1475 C1417 0.930 . S
H1476 C1419 0.930 . S
H1477 C1421 0.929 . S
H1478 C1422 0.930 . S
H1479 C1423 0.930 . S
H1480 C1426 0.930 . S
H1481 C1429 0.929 . S
H1482 C1434 0.929 . S
H1483 C1435 0.930 . S
H1484 C1442 0.929 . S
H1485 C1443 0.930 . S
H1486 C1444 0.930 . S
H1487 C1445 0.930 . S
H1488 C1447 0.929 . S
H1489 C1448 0.930 . S
H1490 C1449 0.930 . S
H1491 C1450 0.930 . S
H1492 C1454 0.929 . S
H1493 C1456 0.930 . S
H1494 C1462 0.929 . S
H1495 C1463 0.930 . S
Li1496 N1513 1.990 . S
Li1496 O1556 1.956 . S
Li1496 O1557 1.970 . S
Li1496 O1558 1.961 . S
Li1497 N1521 1.990 . S
Li1497 O1556 1.970 . S
Li1497 O1557 1.956 . S
Li1497 O1559 1.961 . S
Li1498 N1543 1.990 . S
Li1498 O1556 1.961 . S
Li1498 O1558 1.956 . S
Li1498 O1559 1.970 . S
Li1499 N1549 1.990 . S
Li1499 O1557 1.961 . S
Li1499 O1558 1.970 . S
Li1499 O1559 1.956 . S
C1500 C1502 1.348 . S
C1500 C1503 1.356 . S
C1500 O1556 1.325 . S
N1501 C1504 1.314 . S
N1501 C1505 1.279 . S
C1502 C1500 1.348 . S
C1502 C1504 1.353 . S
C1502 H1560 0.929 . S
C1503 C1500 1.356 . S
C1503 C1505 1.358 . S
C1503 H1561 0.930 . S
C1504 N1501 1.314 . S
C1504 C1502 1.353 . S
C1504 H1562 0.930 . S
C1505 N1501 1.279 . S
C1505 C1503 1.358 . S
C1505 H1563 0.930 . S
C1506 C1509 1.348 . S
C1506 C1510 1.356 . S
C1506 O1557 1.325 . S
C1507 N1508 1.279 . S
C1507 C1510 1.358 . S
C1507 H1564 0.930 . S
N1508 C1507 1.279 . S
N1508 C1511 1.314 . S
C1509 C1506 1.348 . S
C1509 C1511 1.353 . S
C1509 H1565 0.929 . S
C1510 C1506 1.356 . S
C1510 C1507 1.358 . S
C1510 H1566 0.930 . S
C1511 N1508 1.314 . S
C1511 C1509 1.353 . S
C1511 H1567 0.930 . S
C1512 N1513 1.314 . S
C1512 C1517 1.353 . S
C1512 H1518 0.930 . S
N1513 Li1496 1.990 . S
N1513 C1512 1.314 . S
N1513 C1515 1.279 . S
C1514 C1515 1.358 . S
C1514 C1516 1.356 . S
C1514 H1568 0.930 . S
C1515 N1513 1.279 . S
C1515 C1514 1.358 . S
C1515 H1519 0.930 . S
C1516 C1514 1.356 . S
C1516 C1517 1.348 . S
C1517 C1512 1.353 . S
C1517 C1516 1.348 . S
C1517 H1569 0.929 . S
H1518 C1512 0.930 . S
H1519 C1515 0.930 . S
C1520 N1521 1.314 . S
C1520 C1522 1.353 . S
C1520 H1526 0.930 . S
N1521 Li1497 1.990 . S
N1521 C1520 1.314 . S
N1521 C1524 1.279 . S
C1522 C1520 1.353 . S
C1522 C1525 1.348 . S
C1522 H1570 0.929 . S
C1523 C1524 1.358 . S
C1523 C1525 1.356 . S
C1523 H1571 0.930 . S
C1524 N1521 1.279 . S
C1524 C1523 1.358 . S
C1524 H1527 0.930 . S
C1525 C1522 1.348 . S
C1525 C1523 1.356 . S
H1526 C1520 0.930 . S
H1527 C1524 0.930 . S
C1528 C1530 1.348 . S
C1528 C1531 1.356 . S
C1528 O1558 1.325 . S
N1529 C1532 1.314 . S
N1529 C1533 1.279 . S
C1530 C1528 1.348 . S
C1530 C1532 1.353 . S
C1530 H1572 0.929 . S
C1531 C1528 1.356 . S
C1531 C1533 1.358 . S
C1531 H1573 0.930 . S
C1532 N1529 1.314 . S
C1532 C1530 1.353 . S
C1532 H1574 0.930 . S
C1533 N1529 1.279 . S
C1533 C1531 1.358 . S
C1533 H1575 0.930 . S
C1534 C1535 1.348 . S
C1534 C1536 1.356 . S
C1534 O1559 1.325 . S
C1535 C1534 1.348 . S
C1535 C1537 1.353 . S
C1535 H1576 0.929 . S
C1536 C1534 1.356 . S
C1536 C1538 1.358 . S
C1536 H1577 0.930 . S
C1537 C1535 1.353 . S
C1537 N1539 1.314 . S
C1537 H1578 0.930 . S
C1538 C1536 1.358 . S
C1538 N1539 1.279 . S
C1538 H1579 0.930 . S
N1539 C1537 1.314 . S
N1539 C1538 1.279 . S
C1540 C1542 1.353 . S
C1540 N1543 1.314 . S
C1540 H1546 0.930 . S
C1541 N1543 1.279 . S
C1541 C1544 1.358 . S
C1541 H1547 0.930 . S
C1542 C1540 1.353 . S
C1542 C1545 1.348 . S
C1542 H1580 0.929 . S
N1543 Li1498 1.990 . S
N1543 C1540 1.314 . S
N1543 C1541 1.279 . S
C1544 C1541 1.358 . S
C1544 C1545 1.356 . S
C1544 H1581 0.930 . S
C1545 C1542 1.348 . S
C1545 C1544 1.356 . S
H1546 C1540 0.930 . S
H1547 C1541 0.930 . S
C1548 N1549 1.314 . S
C1548 C1550 1.353 . S
C1548 H1554 0.930 . S
N1549 Li1499 1.990 . S
N1549 C1548 1.314 . S
N1549 C1552 1.279 . S
C1550 C1548 1.353 . S
C1550 C1553 1.348 . S
C1550 H1582 0.929 . S
C1551 C1552 1.358 . S
C1551 C1553 1.356 . S
C1551 H1583 0.930 . S
C1552 N1549 1.279 . S
C1552 C1551 1.358 . S
C1552 H1555 0.930 . S
C1553 C1550 1.348 . S
C1553 C1551 1.356 . S
H1554 C1548 0.930 . S
H1555 C1552 0.930 . S
O1556 Li1496 1.956 . S
O1556 Li1497 1.970 . S
O1556 Li1498 1.961 . S
O1556 C1500 1.325 . S
O1557 Li1496 1.970 . S
O1557 Li1497 1.956 . S
O1557 Li1499 1.961 . S
O1557 C1506 1.325 . S
O1558 Li1496 1.961 . S
O1558 Li1498 1.956 . S
O1558 Li1499 1.970 . S
O1558 C1528 1.325 . S
O1559 Li1497 1.961 . S
O1559 Li1498 1.970 . S
O1559 Li1499 1.956 . S
O1559 C1534 1.325 . S
H1560 C1502 0.929 . S
H1561 C1503 0.930 . S
H1562 C1504 0.930 . S
H1563 C1505 0.930 . S
H1564 C1507 0.930 . S
H1565 C1509 0.929 . S
H1566 C1510 0.930 . S
H1567 C1511 0.930 . S
H1568 C1514 0.930 . S
H1569 C1517 0.929 . S
H1570 C1522 0.929 . S
H1571 C1523 0.930 . S
H1572 C1530 0.929 . S
H1573 C1531 0.930 . S
H1574 C1532 0.930 . S
H1575 C1533 0.930 . S
H1576 C1535 0.929 . S
H1577 C1536 0.930 . S
H1578 C1537 0.930 . S
H1579 C1538 0.930 . S
H1580 C1542 0.929 . S
H1581 C1544 0.930 . S
H1582 C1550 0.929 . S
H1583 C1551 0.930 . S
Li1584 N1601 1.990 . S
Li1584 O1644 1.956 . S
Li1584 O1645 1.970 . S
Li1584 O1646 1.961 . S
Li1585 N1609 1.990 . S
Li1585 O1644 1.970 . S
Li1585 O1645 1.956 . S
Li1585 O1647 1.961 . S
Li1586 N1631 1.990 . S
Li1586 O1644 1.961 . S
Li1586 O1646 1.956 . S
Li1586 O1647 1.970 . S
Li1587 N1637 1.990 . S
Li1587 O1645 1.961 . S
Li1587 O1646 1.970 . S
Li1587 O1647 1.956 . S
C1588 C1590 1.348 . S
C1588 C1591 1.356 . S
C1588 O1644 1.325 . S
N1589 C1592 1.314 . S
N1589 C1593 1.279 . S
C1590 C1588 1.348 . S
C1590 C1592 1.353 . S
C1590 H1648 0.929 . S
C1591 C1588 1.356 . S
C1591 C1593 1.358 . S
C1591 H1649 0.930 . S
C1592 N1589 1.314 . S
C1592 C1590 1.353 . S
C1592 H1650 0.930 . S
C1593 N1589 1.279 . S
C1593 C1591 1.358 . S
C1593 H1651 0.930 . S
C1594 C1597 1.348 . S
C1594 C1598 1.356 . S
C1594 O1645 1.325 . S
C1595 N1596 1.279 . S
C1595 C1598 1.358 . S
C1595 H1652 0.930 . S
N1596 C1595 1.279 . S
N1596 C1599 1.314 . S
C1597 C1594 1.348 . S
C1597 C1599 1.353 . S
C1597 H1653 0.929 . S
C1598 C1594 1.356 . S
C1598 C1595 1.358 . S
C1598 H1654 0.930 . S
C1599 N1596 1.314 . S
C1599 C1597 1.353 . S
C1599 H1655 0.930 . S
C1600 N1601 1.314 . S
C1600 C1605 1.353 . S
C1600 H1606 0.930 . S
N1601 Li1584 1.990 . S
N1601 C1600 1.314 . S
N1601 C1603 1.279 . S
C1602 C1603 1.358 . S
C1602 C1604 1.356 . S
C1602 H1656 0.930 . S
C1603 N1601 1.279 . S
C1603 C1602 1.358 . S
C1603 H1607 0.930 . S
C1604 C1602 1.356 . S
C1604 C1605 1.348 . S
C1605 C1600 1.353 . S
C1605 C1604 1.348 . S
C1605 H1657 0.929 . S
H1606 C1600 0.930 . S
H1607 C1603 0.930 . S
C1608 N1609 1.314 . S
C1608 C1610 1.353 . S
C1608 H1614 0.930 . S
N1609 Li1585 1.990 . S
N1609 C1608 1.314 . S
N1609 C1612 1.279 . S
C1610 C1608 1.353 . S
C1610 C1613 1.348 . S
C1610 H1658 0.929 . S
C1611 C1612 1.358 . S
C1611 C1613 1.356 . S
C1611 H1659 0.930 . S
C1612 N1609 1.279 . S
C1612 C1611 1.358 . S
C1612 H1615 0.930 . S
C1613 C1610 1.348 . S
C1613 C1611 1.356 . S
H1614 C1608 0.930 . S
H1615 C1612 0.930 . S
C1616 C1618 1.348 . S
C1616 C1619 1.356 . S
C1616 O1646 1.325 . S
N1617 C1620 1.314 . S
N1617 C1621 1.279 . S
C1618 C1616 1.348 . S
C1618 C1620 1.353 . S
C1618 H1660 0.929 . S
C1619 C1616 1.356 . S
C1619 C1621 1.358 . S
C1619 H1661 0.930 . S
C1620 N1617 1.314 . S
C1620 C1618 1.353 . S
C1620 H1662 0.930 . S
C1621 N1617 1.279 . S
C1621 C1619 1.358 . S
C1621 H1663 0.930 . S
C1622 C1623 1.348 . S
C1622 C1624 1.356 . S
C1622 O1647 1.325 . S
C1623 C1622 1.348 . S
C1623 C1625 1.353 . S
C1623 H1664 0.929 . S
C1624 C1622 1.356 . S
C1624 C1626 1.358 . S
C1624 H1665 0.930 . S
C1625 C1623 1.353 . S
C1625 N1627 1.314 . S
C1625 H1666 0.930 . S
C1626 C1624 1.358 . S
C1626 N1627 1.279 . S
C1626 H1667 0.930 . S
N1627 C1625 1.314 . S
N1627 C1626 1.279 . S
C1628 C1630 1.353 . S
C1628 N1631 1.314 . S
C1628 H1634 0.930 . S
C1629 N1631 1.279 . S
C1629 C1632 1.358 . S
C1629 H1635 0.930 . S
C1630 C1628 1.353 . S
C1630 C1633 1.348 . S
C1630 H1668 0.929 . S
N1631 Li1586 1.990 . S
N1631 C1628 1.314 . S
N1631 C1629 1.279 . S
C1632 C1629 1.358 . S
C1632 C1633 1.356 . S
C1632 H1669 0.930 . S
C1633 C1630 1.348 . S
C1633 C1632 1.356 . S
H1634 C1628 0.930 . S
H1635 C1629 0.930 . S
C1636 N1637 1.314 . S
C1636 C1638 1.353 . S
C1636 H1642 0.930 . S
N1637 Li1587 1.990 . S
N1637 C1636 1.314 . S
N1637 C1640 1.279 . S
C1638 C1636 1.353 . S
C1638 C1641 1.348 . S
C1638 H1670 0.929 . S
C1639 C1640 1.358 . S
C1639 C1641 1.356 . S
C1639 H1671 0.930 . S
C1640 N1637 1.279 . S
C1640 C1639 1.358 . S
C1640 H1643 0.930 . S
C1641 C1638 1.348 . S
C1641 C1639 1.356 . S
H1642 C1636 0.930 . S
H1643 C1640 0.930 . S
O1644 Li1584 1.956 . S
O1644 Li1585 1.970 . S
O1644 Li1586 1.961 . S
O1644 C1588 1.325 . S
O1645 Li1584 1.970 . S
O1645 Li1585 1.956 . S
O1645 Li1587 1.961 . S
O1645 C1594 1.325 . S
O1646 Li1584 1.961 . S
O1646 Li1586 1.956 . S
O1646 Li1587 1.970 . S
O1646 C1616 1.325 . S
O1647 Li1585 1.961 . S
O1647 Li1586 1.970 . S
O1647 Li1587 1.956 . S
O1647 C1622 1.325 . S
H1648 C1590 0.929 . S
H1649 C1591 0.930 . S
H1650 C1592 0.930 . S
H1651 C1593 0.930 . S
H1652 C1595 0.930 . S
H1653 C1597 0.929 . S
H1654 C1598 0.930 . S
H1655 C1599 0.930 . S
H1656 C1602 0.930 . S
H1657 C1605 0.929 . S
H1658 C1610 0.929 . S
H1659 C1611 0.930 . S
H1660 C1618 0.929 . S
H1661 C1619 0.930 . S
H1662 C1620 0.930 . S
H1663 C1621 0.930 . S
H1664 C1623 0.929 . S
H1665 C1624 0.930 . S
H1666 C1625 0.930 . S
H1667 C1626 0.930 . S
H1668 C1630 0.929 . S
H1669 C1632 0.930 . S
H1670 C1638 0.929 . S
H1671 C1639 0.930 . S
Li1672 N1689 1.990 . S
Li1672 O1732 1.956 . S
Li1672 O1733 1.970 . S
Li1672 O1734 1.961 . S
Li1673 N1697 1.990 . S
Li1673 O1732 1.970 . S
Li1673 O1733 1.956 . S
Li1673 O1735 1.961 . S
Li1674 N1719 1.990 . S
Li1674 O1732 1.961 . S
Li1674 O1734 1.956 . S
Li1674 O1735 1.970 . S
Li1675 N1725 1.990 . S
Li1675 O1733 1.961 . S
Li1675 O1734 1.970 . S
Li1675 O1735 1.956 . S
C1676 C1678 1.348 . S
C1676 C1679 1.356 . S
C1676 O1732 1.325 . S
N1677 C1680 1.314 . S
N1677 C1681 1.279 . S
C1678 C1676 1.348 . S
C1678 C1680 1.353 . S
C1678 H1736 0.929 . S
C1679 C1676 1.356 . S
C1679 C1681 1.358 . S
C1679 H1737 0.930 . S
C1680 N1677 1.314 . S
C1680 C1678 1.353 . S
C1680 H1738 0.930 . S
C1681 N1677 1.279 . S
C1681 C1679 1.358 . S
C1681 H1739 0.930 . S
C1682 C1685 1.348 . S
C1682 C1686 1.356 . S
C1682 O1733 1.325 . S
C1683 N1684 1.279 . S
C1683 C1686 1.358 . S
C1683 H1740 0.930 . S
N1684 C1683 1.279 . S
N1684 C1687 1.314 . S
C1685 C1682 1.348 . S
C1685 C1687 1.353 . S
C1685 H1741 0.929 . S
C1686 C1682 1.356 . S
C1686 C1683 1.358 . S
C1686 H1742 0.930 . S
C1687 N1684 1.314 . S
C1687 C1685 1.353 . S
C1687 H1743 0.930 . S
C1688 N1689 1.314 . S
C1688 C1693 1.353 . S
C1688 H1694 0.930 . S
N1689 Li1672 1.990 . S
N1689 C1688 1.314 . S
N1689 C1691 1.279 . S
C1690 C1691 1.358 . S
C1690 C1692 1.356 . S
C1690 H1744 0.930 . S
C1691 N1689 1.279 . S
C1691 C1690 1.358 . S
C1691 H1695 0.930 . S
C1692 C1690 1.356 . S
C1692 C1693 1.348 . S
C1693 C1688 1.353 . S
C1693 C1692 1.348 . S
C1693 H1745 0.929 . S
H1694 C1688 0.930 . S
H1695 C1691 0.930 . S
C1696 N1697 1.314 . S
C1696 C1698 1.353 . S
C1696 H1702 0.930 . S
N1697 Li1673 1.990 . S
N1697 C1696 1.314 . S
N1697 C1700 1.279 . S
C1698 C1696 1.353 . S
C1698 C1701 1.348 . S
C1698 H1746 0.929 . S
C1699 C1700 1.358 . S
C1699 C1701 1.356 . S
C1699 H1747 0.930 . S
C1700 N1697 1.279 . S
C1700 C1699 1.358 . S
C1700 H1703 0.930 . S
C1701 C1698 1.348 . S
C1701 C1699 1.356 . S
H1702 C1696 0.930 . S
H1703 C1700 0.930 . S
C1704 C1706 1.348 1_545 S
C1704 C1707 1.356 . S
C1704 O1734 1.325 . S
N1705 C1708 1.314 . S
N1705 C1709 1.279 . S
C1706 C1704 1.348 1_565 S
C1706 C1708 1.353 . S
C1706 H1748 0.929 . S
C1707 C1704 1.356 . S
C1707 C1709 1.358 1_545 S
C1707 H1749 0.930 . S
C1708 N1705 1.314 . S
C1708 C1706 1.353 . S
C1708 H1750 0.930 . S
C1709 N1705 1.279 . S
C1709 C1707 1.358 1_565 S
C1709 H1751 0.930 . S
C1710 C1711 1.348 . S
C1710 C1712 1.356 . S
C1710 O1735 1.325 . S
C1711 C1710 1.348 . S
C1711 C1713 1.353 . S
C1711 H1752 0.929 . S
C1712 C1710 1.356 . S
C1712 C1714 1.358 . S
C1712 H1753 0.930 . S
C1713 C1711 1.353 . S
C1713 N1715 1.314 . S
C1713 H1754 0.930 . S
C1714 C1712 1.358 . S
C1714 N1715 1.279 . S
C1714 H1755 0.930 . S
N1715 C1713 1.314 . S
N1715 C1714 1.279 . S
C1716 C1718 1.353 . S
C1716 N1719 1.314 . S
C1716 H1722 0.930 . S
C1717 N1719 1.279 . S
C1717 C1720 1.358 . S
C1717 H1723 0.930 . S
C1718 C1716 1.353 . S
C1718 C1721 1.348 . S
C1718 H1756 0.929 . S
N1719 Li1674 1.990 . S
N1719 C1716 1.314 . S
N1719 C1717 1.279 . S
C1720 C1717 1.358 . S
C1720 C1721 1.356 . S
C1720 H1757 0.930 . S
C1721 C1718 1.348 . S
C1721 C1720 1.356 . S
H1722 C1716 0.930 . S
H1723 C1717 0.930 . S
C1724 N1725 1.360 . S
C1724 C1726 1.292 1_545 S
C1724 H1730 0.950 . S
N1725 Li1675 1.990 . S
N1725 C1724 1.360 . S
N1725 C1728 1.279 . S
C1726 C1724 1.292 1_565 S
C1726 C1729 1.348 . S
C1726 H1758 0.929 . S
C1727 C1728 1.358 1_565 S
C1727 C1729 1.356 . S
C1727 H1759 0.930 . S
C1728 N1725 1.279 . S
C1728 C1727 1.358 1_545 S
C1728 H1731 0.930 . S
C1729 C1726 1.348 . S
C1729 C1727 1.356 . S
H1730 C1724 0.950 . S
H1731 C1728 0.930 . S
O1732 Li1672 1.956 . S
O1732 Li1673 1.970 . S
O1732 Li1674 1.961 . S
O1732 C1676 1.325 . S
O1733 Li1672 1.970 . S
O1733 Li1673 1.956 . S
O1733 Li1675 1.961 . S
O1733 C1682 1.325 . S
O1734 Li1672 1.961 . S
O1734 Li1674 1.956 . S
O1734 Li1675 1.970 . S
O1734 C1704 1.325 . S
O1735 Li1673 1.961 . S
O1735 Li1674 1.970 . S
O1735 Li1675 1.956 . S
O1735 C1710 1.325 . S
H1736 C1678 0.929 . S
H1737 C1679 0.930 . S
H1738 C1680 0.930 . S
H1739 C1681 0.930 . S
H1740 C1683 0.930 . S
H1741 C1685 0.929 . S
H1742 C1686 0.930 . S
H1743 C1687 0.930 . S
H1744 C1690 0.930 . S
H1745 C1693 0.929 . S
H1746 C1698 0.929 . S
H1747 C1699 0.930 . S
H1748 C1706 0.929 . S
H1749 C1707 0.930 . S
H1750 C1708 0.930 . S
H1751 C1709 0.930 . S
H1752 C1711 0.929 . S
H1753 C1712 0.930 . S
H1754 C1713 0.930 . S
H1755 C1714 0.930 . S
H1756 C1718 0.929 . S
H1757 C1720 0.930 . S
H1758 C1726 0.929 . S
H1759 C1727 0.930 . S
Li1760 N1777 1.990 . S
Li1760 O1820 1.956 . S
Li1760 O1821 1.970 . S
Li1760 O1822 1.961 . S
Li1761 N1785 1.990 . S
Li1761 O1820 1.972 1_556 S
Li1761 O1821 1.942 1_556 S
Li1761 O1823 1.975 . S
Li1762 N1807 1.990 . S
Li1762 O1820 1.961 1_556 S
Li1762 O1822 1.956 1_556 S
Li1762 O1823 1.970 . S
Li1763 N1813 1.990 . S
Li1763 O1821 1.961 1_556 S
Li1763 O1822 1.970 1_556 S
Li1763 O1823 1.956 . S
C1764 C1766 1.348 . S
C1764 C1767 1.356 . S
C1764 O1820 1.325 . S
N1765 C1768 1.314 . S
N1765 C1769 1.279 . S
C1766 C1764 1.348 . S
C1766 C1768 1.353 . S
C1766 H1824 0.929 . S
C1767 C1764 1.356 . S
C1767 C1769 1.358 . S
C1767 H1825 0.942 . S
C1768 N1765 1.314 . S
C1768 C1766 1.353 . S
C1768 H1826 0.930 . S
C1769 N1765 1.279 . S
C1769 C1767 1.358 . S
C1769 H1827 0.930 . S
C1770 C1773 1.348 . S
C1770 C1774 1.356 . S
C1770 O1821 1.325 . S
C1771 N1772 1.279 . S
C1771 C1774 1.358 . S
C1771 H1828 0.930 . S
N1772 C1771 1.279 . S
N1772 C1775 1.314 . S
C1773 C1770 1.348 . S
C1773 C1775 1.353 . S
C1773 H1829 0.929 . S
C1774 C1770 1.356 . S
C1774 C1771 1.358 . S
C1774 H1830 0.930 . S
C1775 N1772 1.314 . S
C1775 C1773 1.353 . S
C1775 H1831 0.930 . S
C1776 N1777 1.314 . S
C1776 C1781 1.353 . S
C1776 H1782 0.930 . S
N1777 Li1760 1.990 . S
N1777 C1776 1.314 . S
N1777 C1779 1.279 . S
C1778 C1779 1.358 . S
C1778 C1780 1.356 . S
C1778 H1832 0.930 . S
C1779 N1777 1.279 . S
C1779 C1778 1.358 . S
C1779 H1783 0.930 . S
C1780 C1778 1.356 . S
C1780 C1781 1.348 . S
C1781 C1776 1.353 . S
C1781 C1780 1.348 . S
C1781 H1833 0.929 . S
H1782 C1776 0.930 . S
H1783 C1779 0.930 . S
C1784 N1785 1.314 . S
C1784 C1786 1.353 . S
C1784 H1790 0.930 . S
N1785 Li1761 1.990 . S
N1785 C1784 1.314 . S
N1785 C1788 1.279 1_556 S
C1786 C1784 1.353 . S
C1786 C1789 1.348 . S
C1786 H1834 0.929 . S
C1787 C1788 1.358 . S
C1787 C1789 1.356 1_554 S
C1787 H1835 0.930 . S
C1788 N1785 1.279 1_554 S
C1788 C1787 1.358 . S
C1788 H1791 0.930 . S
C1789 C1786 1.348 . S
C1789 C1787 1.356 1_556 S
H1790 C1784 0.930 . S
H1791 C1788 0.930 . S
C1792 C1794 1.348 1_554 S
C1792 C1795 1.356 . S
C1792 O1822 1.325 . S
N1793 C1796 1.314 1_554 S
N1793 C1797 1.279 . S
C1794 C1792 1.348 1_556 S
C1794 C1796 1.353 . S
C1794 H1836 0.929 . S
C1795 C1792 1.356 . S
C1795 C1797 1.358 . S
C1795 H1837 0.930 . S
C1796 N1793 1.314 1_556 S
C1796 C1794 1.353 . S
C1796 H1838 0.930 . S
C1797 N1793 1.279 . S
C1797 C1795 1.358 . S
C1797 H1839 0.930 . S
C1798 C1799 1.348 . S
C1798 C1800 1.356 . S
C1798 O1823 1.325 . S
C1799 C1798 1.348 . S
C1799 C1801 1.353 . S
C1799 H1840 0.929 . S
C1800 C1798 1.356 . S
C1800 C1802 1.358 . S
C1800 H1841 0.930 . S
C1801 C1799 1.353 . S
C1801 N1803 1.314 . S
C1801 H1842 0.930 . S
C1802 C1800 1.358 . S
C1802 N1803 1.279 . S
C1802 H1843 0.930 . S
N1803 C1801 1.314 . S
N1803 C1802 1.279 . S
C1804 C1806 1.353 . S
C1804 N1807 1.314 . S
C1804 H1810 0.930 . S
C1805 N1807 1.279 . S
C1805 C1808 1.358 . S
C1805 H1811 0.930 . S
C1806 C1804 1.353 . S
C1806 C1809 1.348 . S
C1806 H1844 0.929 . S
N1807 Li1762 1.990 . S
N1807 C1804 1.314 . S
N1807 C1805 1.279 . S
C1808 C1805 1.358 . S
C1808 C1809 1.356 . S
C1808 H1845 0.930 . S
C1809 C1806 1.348 . S
C1809 C1808 1.356 . S
H1810 C1804 0.930 . S
H1811 C1805 0.930 . S
C1812 N1813 1.314 1_554 S
C1812 C1814 1.353 . S
C1812 H1818 0.930 . S
N1813 Li1763 1.990 . S
N1813 C1812 1.314 1_556 S
N1813 C1816 1.279 . S
C1814 C1812 1.353 . S
C1814 C1817 1.348 1_554 S
C1814 H1846 0.929 . S
C1815 C1816 1.358 . S
C1815 C1817 1.356 . S
C1815 H1847 0.930 . S
C1816 N1813 1.279 . S
C1816 C1815 1.358 . S
C1816 H1819 0.930 . S
C1817 C1814 1.348 1_556 S
C1817 C1815 1.356 . S
H1818 C1812 0.930 . S
H1819 C1816 0.930 . S
O1820 Li1760 1.956 . S
O1820 Li1761 1.972 1_554 S
O1820 Li1762 1.961 1_554 S
O1820 C1764 1.325 . S
O1821 Li1760 1.970 . S
O1821 Li1761 1.942 1_554 S
O1821 Li1763 1.961 1_554 S
O1821 C1770 1.325 . S
O1822 Li1760 1.961 . S
O1822 Li1762 1.956 1_554 S
O1822 Li1763 1.970 1_554 S
O1822 C1792 1.325 . S
O1823 Li1761 1.975 . S
O1823 Li1762 1.970 . S
O1823 Li1763 1.956 . S
O1823 C1798 1.325 . S
H1824 C1766 0.929 . S
H1825 C1767 0.942 . S
H1826 C1768 0.930 . S
H1827 C1769 0.930 . S
H1828 C1771 0.930 . S
H1829 C1773 0.929 . S
H1830 C1774 0.930 . S
H1831 C1775 0.930 . S
H1832 C1778 0.930 . S
H1833 C1781 0.929 . S
H1834 C1786 0.929 . S
H1835 C1787 0.930 . S
H1836 C1794 0.929 . S
H1837 C1795 0.930 . S
H1838 C1796 0.930 . S
H1839 C1797 0.930 . S
H1840 C1799 0.929 . S
H1841 C1800 0.930 . S
H1842 C1801 0.930 . S
H1843 C1802 0.930 . S
H1844 C1806 0.929 . S
H1845 C1808 0.930 . S
H1846 C1814 0.929 . S
H1847 C1815 0.930 . S
Li1848 N1865 1.990 . S
Li1848 O1908 1.956 . S
Li1848 O1909 1.970 . S
Li1848 O1910 1.961 . S
Li1849 N1873 1.990 . S
Li1849 O1908 1.970 . S
Li1849 O1909 1.956 . S
Li1849 O1911 1.961 . S
Li1850 N1895 1.990 . S
Li1850 O1908 1.961 . S
Li1850 O1910 1.956 . S
Li1850 O1911 1.970 . S
Li1851 N1901 1.990 . S
Li1851 O1909 1.961 . S
Li1851 O1910 1.970 . S
Li1851 O1911 1.956 . S
C1852 C1854 1.348 . S
C1852 C1855 1.356 . S
C1852 O1908 1.325 . S
N1853 C1856 1.314 . S
N1853 C1857 1.279 . S
C1854 C1852 1.348 . S
C1854 C1856 1.353 . S
C1854 H1912 0.929 . S
C1855 C1852 1.356 . S
C1855 C1857 1.358 . S
C1855 H1913 0.930 . S
C1856 N1853 1.314 . S
C1856 C1854 1.353 . S
C1856 H1914 0.930 . S
C1857 N1853 1.279 . S
C1857 C1855 1.358 . S
C1857 H1915 0.930 . S
C1858 C1861 1.348 . S
C1858 C1862 1.356 . S
C1858 O1909 1.325 . S
C1859 N1860 1.279 . S
C1859 C1862 1.358 . S
C1859 H1916 0.930 . S
N1860 C1859 1.279 . S
N1860 C1863 1.314 . S
C1861 C1858 1.348 . S
C1861 C1863 1.353 . S
C1861 H1917 0.929 . S
C1862 C1858 1.356 . S
C1862 C1859 1.358 . S
C1862 H1918 0.930 . S
C1863 N1860 1.314 . S
C1863 C1861 1.353 . S
C1863 H1919 0.930 . S
C1864 N1865 1.314 . S
C1864 C1869 1.353 . S
C1864 H1870 0.930 . S
N1865 Li1848 1.990 . S
N1865 C1864 1.314 . S
N1865 C1867 1.279 . S
C1866 C1867 1.358 . S
C1866 C1868 1.356 . S
C1866 H1920 0.930 . S
C1867 N1865 1.279 . S
C1867 C1866 1.358 . S
C1867 H1871 0.930 . S
C1868 C1866 1.356 . S
C1868 C1869 1.348 . S
C1869 C1864 1.353 . S
C1869 C1868 1.348 . S
C1869 H1921 0.929 . S
H1870 C1864 0.930 . S
H1871 C1867 0.930 . S
C1872 N1873 1.314 . S
C1872 C1874 1.353 . S
C1872 H1878 0.930 . S
N1873 Li1849 1.990 . S
N1873 C1872 1.314 . S
N1873 C1876 1.279 . S
C1874 C1872 1.353 . S
C1874 C1877 1.348 . S
C1874 H1922 0.929 . S
C1875 C1876 1.358 . S
C1875 C1877 1.356 . S
C1875 H1923 0.930 . S
C1876 N1873 1.279 . S
C1876 C1875 1.358 . S
C1876 H1879 0.930 . S
C1877 C1874 1.348 . S
C1877 C1875 1.356 . S
H1878 C1872 0.930 . S
H1879 C1876 0.930 . S
C1880 C1882 1.348 . S
C1880 C1883 1.356 . S
C1880 O1910 1.325 . S
N1881 C1884 1.314 . S
N1881 C1885 1.279 . S
C1882 C1880 1.348 . S
C1882 C1884 1.353 . S
C1882 H1924 0.929 . S
C1883 C1880 1.356 . S
C1883 C1885 1.358 . S
C1883 H1925 0.930 . S
C1884 N1881 1.314 . S
C1884 C1882 1.353 . S
C1884 H1926 0.930 . S
C1885 N1881 1.279 . S
C1885 C1883 1.358 . S
C1885 H1927 0.930 . S
C1886 C1887 1.348 . S
C1886 C1888 1.356 . S
C1886 O1911 1.325 . S
C1887 C1886 1.348 . S
C1887 C1889 1.353 . S
C1887 H1928 0.929 . S
C1888 C1886 1.356 . S
C1888 C1890 1.358 . S
C1888 H1929 0.930 . S
C1889 C1887 1.353 . S
C1889 N1891 1.314 . S
C1889 H1930 0.930 . S
C1890 C1888 1.358 . S
C1890 N1891 1.279 . S
C1890 H1931 0.930 . S
N1891 C1889 1.314 . S
N1891 C1890 1.279 . S
C1892 C1894 1.353 . S
C1892 N1895 1.314 . S
C1892 H1898 0.930 . S
C1893 N1895 1.279 . S
C1893 C1896 1.358 . S
C1893 H1899 0.930 . S
C1894 C1892 1.353 . S
C1894 C1897 1.348 . S
C1894 H1932 0.929 . S
N1895 Li1850 1.990 . S
N1895 C1892 1.314 . S
N1895 C1893 1.279 . S
C1896 C1893 1.358 . S
C1896 C1897 1.356 . S
C1896 H1933 0.930 . S
C1897 C1894 1.348 . S
C1897 C1896 1.356 . S
H1898 C1892 0.930 . S
H1899 C1893 0.930 . S
C1900 N1901 1.314 . S
C1900 C1902 1.353 . S
C1900 H1906 0.930 . S
N1901 Li1851 1.990 . S
N1901 C1900 1.314 . S
N1901 C1904 1.279 . S
C1902 C1900 1.353 . S
C1902 C1905 1.348 . S
C1902 H1934 0.929 . S
C1903 C1904 1.358 . S
C1903 C1905 1.356 . S
C1903 H1935 0.930 . S
C1904 N1901 1.279 . S
C1904 C1903 1.358 . S
C1904 H1907 0.930 . S
C1905 C1902 1.348 . S
C1905 C1903 1.356 . S
H1906 C1900 0.930 . S
H1907 C1904 0.930 . S
O1908 Li1848 1.956 . S
O1908 Li1849 1.970 . S
O1908 Li1850 1.961 . S
O1908 C1852 1.325 . S
O1909 Li1848 1.970 . S
O1909 Li1849 1.956 . S
O1909 Li1851 1.961 . S
O1909 C1858 1.325 . S
O1910 Li1848 1.961 . S
O1910 Li1850 1.956 . S
O1910 Li1851 1.970 . S
O1910 C1880 1.325 . S
O1911 Li1849 1.961 . S
O1911 Li1850 1.970 . S
O1911 Li1851 1.956 . S
O1911 C1886 1.325 . S
H1912 C1854 0.929 . S
H1913 C1855 0.930 . S
H1914 C1856 0.930 . S
H1915 C1857 0.930 . S
H1916 C1859 0.930 . S
H1917 C1861 0.929 . S
H1918 C1862 0.930 . S
H1919 C1863 0.930 . S
H1920 C1866 0.930 . S
H1921 C1869 0.929 . S
H1922 C1874 0.929 . S
H1923 C1875 0.930 . S
H1924 C1882 0.929 . S
H1925 C1883 0.930 . S
H1926 C1884 0.930 . S
H1927 C1885 0.930 . S
H1928 C1887 0.929 . S
H1929 C1888 0.930 . S
H1930 C1889 0.930 . S
H1931 C1890 0.930 . S
H1932 C1894 0.929 . S
H1933 C1896 0.930 . S
H1934 C1902 0.929 . S
H1935 C1903 0.930 . S
Li1936 N1953 1.990 . S
Li1936 O1996 1.956 . S
Li1936 O1997 1.970 . S
Li1936 O1998 1.961 . S
Li1937 N1961 1.990 . S
Li1937 O1996 1.970 . S
Li1937 O1997 1.956 . S
Li1937 O1999 1.961 . S
Li1938 N1983 1.990 . S
Li1938 O1996 1.961 . S
Li1938 O1998 1.956 . S
Li1938 O1999 1.970 . S
Li1939 N1989 1.990 . S
Li1939 O1997 1.961 . S
Li1939 O1998 1.970 . S
Li1939 O1999 1.956 . S
C1940 C1942 1.348 . S
C1940 C1943 1.356 . S
C1940 O1996 1.325 . S
N1941 C1944 1.314 . S
N1941 C1945 1.279 . S
C1942 C1940 1.348 . S
C1942 C1944 1.353 . S
C1942 H2000 0.929 . S
C1943 C1940 1.356 . S
C1943 C1945 1.358 . S
C1943 H2001 0.930 . S
C1944 N1941 1.314 . S
C1944 C1942 1.353 . S
C1944 H2002 0.930 . S
C1945 N1941 1.279 . S
C1945 C1943 1.358 . S
C1945 H2003 0.930 . S
C1946 C1949 1.348 . S
C1946 C1950 1.356 . S
C1946 O1997 1.325 . S
C1947 N1948 1.279 . S
C1947 C1950 1.358 . S
C1947 H2004 0.930 . S
N1948 C1947 1.279 . S
N1948 C1951 1.314 . S
C1949 C1946 1.348 . S
C1949 C1951 1.353 . S
C1949 H2005 0.929 . S
C1950 C1946 1.356 . S
C1950 C1947 1.358 . S
C1950 H2006 0.930 . S
C1951 N1948 1.314 . S
C1951 C1949 1.353 . S
C1951 H2007 0.930 . S
C1952 N1953 1.314 . S
C1952 C1957 1.353 . S
C1952 H1958 0.930 . S
N1953 Li1936 1.990 . S
N1953 C1952 1.314 . S
N1953 C1955 1.279 . S
C1954 C1955 1.358 . S
C1954 C1956 1.356 . S
C1954 H2008 0.930 . S
C1955 N1953 1.279 . S
C1955 C1954 1.358 . S
C1955 H1959 0.930 . S
C1956 C1954 1.356 . S
C1956 C1957 1.348 . S
C1957 C1952 1.353 . S
C1957 C1956 1.348 . S
C1957 H2009 0.929 . S
H1958 C1952 0.930 . S
H1959 C1955 0.930 . S
C1960 N1961 1.314 . S
C1960 C1962 1.353 . S
C1960 H1966 0.930 . S
N1961 Li1937 1.990 . S
N1961 C1960 1.314 . S
N1961 C1964 1.279 . S
C1962 C1960 1.353 . S
C1962 C1965 1.348 . S
C1962 H2010 0.929 . S
C1963 C1964 1.358 . S
C1963 C1965 1.356 . S
C1963 H2011 0.930 . S
C1964 N1961 1.279 . S
C1964 C1963 1.358 . S
C1964 H1967 0.930 . S
C1965 C1962 1.348 . S
C1965 C1963 1.356 . S
H1966 C1960 0.930 . S
H1967 C1964 0.930 . S
C1968 C1970 1.348 . S
C1968 C1971 1.356 . S
C1968 O1998 1.325 . S
N1969 C1972 1.314 . S
N1969 C1973 1.279 . S
C1970 C1968 1.348 . S
C1970 C1972 1.353 . S
C1970 H2012 0.929 . S
C1971 C1968 1.356 . S
C1971 C1973 1.358 . S
C1971 H2013 0.930 . S
C1972 N1969 1.314 . S
C1972 C1970 1.353 . S
C1972 H2014 0.930 . S
C1973 N1969 1.279 . S
C1973 C1971 1.358 . S
C1973 H2015 0.930 . S
C1974 C1975 1.348 . S
C1974 C1976 1.356 . S
C1974 O1999 1.325 . S
C1975 C1974 1.348 . S
C1975 C1977 1.353 . S
C1975 H2016 0.929 . S
C1976 C1974 1.356 . S
C1976 C1978 1.358 . S
C1976 H2017 0.930 . S
C1977 C1975 1.353 . S
C1977 N1979 1.314 . S
C1977 H2018 0.930 . S
C1978 C1976 1.358 . S
C1978 N1979 1.279 . S
C1978 H2019 0.930 . S
N1979 C1977 1.314 . S
N1979 C1978 1.279 . S
C1980 C1982 1.353 . S
C1980 N1983 1.314 . S
C1980 H1986 0.930 . S
C1981 N1983 1.279 . S
C1981 C1984 1.358 . S
C1981 H1987 0.930 . S
C1982 C1980 1.353 . S
C1982 C1985 1.348 . S
C1982 H2020 0.929 . S
N1983 Li1938 1.990 . S
N1983 C1980 1.314 . S
N1983 C1981 1.279 . S
C1984 C1981 1.358 . S
C1984 C1985 1.356 . S
C1984 H2021 0.930 . S
C1985 C1982 1.348 . S
C1985 C1984 1.356 . S
H1986 C1980 0.930 . S
H1987 C1981 0.930 . S
C1988 N1989 1.314 . S
C1988 C1990 1.353 . S
C1988 H1994 0.930 . S
N1989 Li1939 1.990 . S
N1989 C1988 1.314 . S
N1989 C1992 1.279 . S
C1990 C1988 1.353 . S
C1990 C1993 1.348 . S
C1990 H2022 0.929 . S
C1991 C1992 1.358 . S
C1991 C1993 1.356 . S
C1991 H2023 0.930 . S
C1992 N1989 1.279 . S
C1992 C1991 1.358 . S
C1992 H1995 0.930 . S
C1993 C1990 1.348 . S
C1993 C1991 1.356 . S
H1994 C1988 0.930 . S
H1995 C1992 0.930 . S
O1996 Li1936 1.956 . S
O1996 Li1937 1.970 . S
O1996 Li1938 1.961 . S
O1996 C1940 1.325 . S
O1997 Li1936 1.970 . S
O1997 Li1937 1.956 . S
O1997 Li1939 1.961 . S
O1997 C1946 1.325 . S
O1998 Li1936 1.961 . S
O1998 Li1938 1.956 . S
O1998 Li1939 1.970 . S
O1998 C1968 1.325 . S
O1999 Li1937 1.961 . S
O1999 Li1938 1.970 . S
O1999 Li1939 1.956 . S
O1999 C1974 1.325 . S
H2000 C1942 0.929 . S
H2001 C1943 0.930 . S
H2002 C1944 0.930 . S
H2003 C1945 0.930 . S
H2004 C1947 0.930 . S
H2005 C1949 0.929 . S
H2006 C1950 0.930 . S
H2007 C1951 0.930 . S
H2008 C1954 0.930 . S
H2009 C1957 0.929 . S
H2010 C1962 0.929 . S
H2011 C1963 0.930 . S
H2012 C1970 0.929 . S
H2013 C1971 0.930 . S
H2014 C1972 0.930 . S
H2015 C1973 0.930 . S
H2016 C1975 0.929 . S
H2017 C1976 0.930 . S
H2018 C1977 0.930 . S
H2019 C1978 0.930 . S
H2020 C1982 0.929 . S
H2021 C1984 0.930 . S
H2022 C1990 0.929 . S
H2023 C1991 0.930 . S
Li2024 N2041 1.990 . S
Li2024 O2084 1.956 . S
Li2024 O2085 1.970 . S
Li2024 O2086 1.961 . S
Li2025 N2049 1.990 . S
Li2025 O2084 1.970 . S
Li2025 O2085 1.956 . S
Li2025 O2087 1.961 . S
Li2026 N2071 1.990 . S
Li2026 O2084 1.961 . S
Li2026 O2086 1.956 . S
Li2026 O2087 1.970 . S
Li2027 N2077 1.990 . S
Li2027 O2085 1.961 . S
Li2027 O2086 1.970 . S
Li2027 O2087 1.956 . S
C2028 C2030 1.348 . S
C2028 C2031 1.356 . S
C2028 O2084 1.325 . S
N2029 C2032 1.314 . S
N2029 C2033 1.279 . S
C2030 C2028 1.348 . S
C2030 C2032 1.353 . S
C2030 H2088 0.929 . S
C2031 C2028 1.356 . S
C2031 C2033 1.358 . S
C2031 H2089 0.930 . S
C2032 N2029 1.314 . S
C2032 C2030 1.353 . S
C2032 H2090 0.930 . S
C2033 N2029 1.279 . S
C2033 C2031 1.358 . S
C2033 H2091 0.930 . S
C2034 C2037 1.348 . S
C2034 C2038 1.356 . S
C2034 O2085 1.325 . S
C2035 N2036 1.279 . S
C2035 C2038 1.358 . S
C2035 H2092 0.930 . S
N2036 C2035 1.279 . S
N2036 C2039 1.314 . S
C2037 C2034 1.348 . S
C2037 C2039 1.353 . S
C2037 H2093 0.929 . S
C2038 C2034 1.356 . S
C2038 C2035 1.358 . S
C2038 H2094 0.930 . S
C2039 N2036 1.314 . S
C2039 C2037 1.353 . S
C2039 H2095 0.930 . S
C2040 N2041 1.314 . S
C2040 C2045 1.353 . S
C2040 H2046 0.930 . S
N2041 Li2024 1.990 . S
N2041 C2040 1.314 . S
N2041 C2043 1.279 . S
C2042 C2043 1.358 . S
C2042 C2044 1.356 . S
C2042 H2096 0.930 . S
C2043 N2041 1.279 . S
C2043 C2042 1.358 . S
C2043 H2047 0.930 . S
C2044 C2042 1.356 . S
C2044 C2045 1.348 . S
C2045 C2040 1.353 . S
C2045 C2044 1.348 . S
C2045 H2097 0.929 . S
H2046 C2040 0.930 . S
H2047 C2043 0.930 . S
C2048 N2049 1.314 . S
C2048 C2050 1.353 . S
C2048 H2054 0.930 . S
N2049 Li2025 1.990 . S
N2049 C2048 1.314 . S
N2049 C2052 1.279 . S
C2050 C2048 1.353 . S
C2050 C2053 1.348 . S
C2050 H2098 0.929 . S
C2051 C2052 1.358 . S
C2051 C2053 1.356 . S
C2051 H2099 0.930 . S
C2052 N2049 1.279 . S
C2052 C2051 1.358 . S
C2052 H2055 0.930 . S
C2053 C2050 1.348 . S
C2053 C2051 1.356 . S
H2054 C2048 0.930 . S
H2055 C2052 0.930 . S
C2056 C2058 1.348 . S
C2056 C2059 1.356 . S
C2056 O2086 1.325 . S
N2057 C2060 1.314 . S
N2057 C2061 1.279 . S
C2058 C2056 1.348 . S
C2058 C2060 1.353 . S
C2058 H2100 0.929 . S
C2059 C2056 1.356 . S
C2059 C2061 1.358 . S
C2059 H2101 0.930 . S
C2060 N2057 1.314 . S
C2060 C2058 1.353 . S
C2060 H2102 0.930 . S
C2061 N2057 1.279 . S
C2061 C2059 1.358 . S
C2061 H2103 0.930 . S
C2062 C2063 1.348 . S
C2062 C2064 1.356 . S
C2062 O2087 1.325 . S
C2063 C2062 1.348 . S
C2063 C2065 1.353 . S
C2063 H2104 0.929 . S
C2064 C2062 1.356 . S
C2064 C2066 1.358 . S
C2064 H2105 0.930 . S
C2065 C2063 1.353 . S
C2065 N2067 1.314 . S
C2065 H2106 0.930 . S
C2066 C2064 1.358 . S
C2066 N2067 1.279 . S
C2066 H2107 0.930 . S
N2067 C2065 1.314 . S
N2067 C2066 1.279 . S
C2068 C2070 1.353 . S
C2068 N2071 1.314 . S
C2068 H2074 0.930 . S
C2069 N2071 1.279 . S
C2069 C2072 1.358 . S
C2069 H2075 0.930 . S
C2070 C2068 1.353 . S
C2070 C2073 1.348 . S
C2070 H2108 0.929 . S
N2071 Li2026 1.990 . S
N2071 C2068 1.314 . S
N2071 C2069 1.279 . S
C2072 C2069 1.358 . S
C2072 C2073 1.356 . S
C2072 H2109 0.930 . S
C2073 C2070 1.348 . S
C2073 C2072 1.356 . S
H2074 C2068 0.930 . S
H2075 C2069 0.930 . S
C2076 N2077 1.314 . S
C2076 C2078 1.353 . S
C2076 H2082 0.930 . S
N2077 Li2027 1.990 . S
N2077 C2076 1.314 . S
N2077 C2080 1.279 . S
C2078 C2076 1.353 . S
C2078 C2081 1.348 . S
C2078 H2110 0.929 . S
C2079 C2080 1.358 . S
C2079 C2081 1.356 . S
C2079 H2111 0.930 . S
C2080 N2077 1.279 . S
C2080 C2079 1.358 . S
C2080 H2083 0.930 . S
C2081 C2078 1.348 . S
C2081 C2079 1.356 . S
H2082 C2076 0.930 . S
H2083 C2080 0.930 . S
O2084 Li2024 1.956 . S
O2084 Li2025 1.970 . S
O2084 Li2026 1.961 . S
O2084 C2028 1.325 . S
O2085 Li2024 1.970 . S
O2085 Li2025 1.956 . S
O2085 Li2027 1.961 . S
O2085 C2034 1.325 . S
O2086 Li2024 1.961 . S
O2086 Li2026 1.956 . S
O2086 Li2027 1.970 . S
O2086 C2056 1.325 . S
O2087 Li2025 1.961 . S
O2087 Li2026 1.970 . S
O2087 Li2027 1.956 . S
O2087 C2062 1.325 . S
H2088 C2030 0.929 . S
H2089 C2031 0.930 . S
H2090 C2032 0.930 . S
H2091 C2033 0.930 . S
H2092 C2035 0.930 . S
H2093 C2037 0.929 . S
H2094 C2038 0.930 . S
H2095 C2039 0.930 . S
H2096 C2042 0.930 . S
H2097 C2045 0.929 . S
H2098 C2050 0.929 . S
H2099 C2051 0.930 . S
H2100 C2058 0.929 . S
H2101 C2059 0.930 . S
H2102 C2060 0.930 . S
H2103 C2061 0.930 . S
H2104 C2063 0.929 . S
H2105 C2064 0.930 . S
H2106 C2065 0.930 . S
H2107 C2066 0.930 . S
H2108 C2070 0.929 . S
H2109 C2072 0.930 . S
H2110 C2078 0.929 . S
H2111 C2079 0.930 . S
Gd2112 N2143 2.661 . S
Gd2112 N2149 2.601 . S
Gd2112 O2156 2.545 . S
Gd2112 O2157 2.606 . S
Gd2112 O2159 2.429 . S
Gd2112 O2160 2.545 . S
Gd2112 O2161 2.412 . S
Gd2112 O2163 2.362 . S
Gd2112 O2164 2.330 . S
Gd2112 C2171 2.828 . S
Gd2113 N2122 2.661 . S
Gd2113 N2126 2.601 1_554 S
Gd2113 O2157 2.362 . S
Gd2113 O2158 2.324 . S
Gd2113 O2162 2.542 1_554 S
Gd2113 O2163 2.606 . S
Gd2113 O2165 2.429 1_554 S
Gd2113 O2166 2.545 . S
Gd2113 O2167 2.412 1_455 S
Gd2113 C2180 2.817 1_454 S
C2114 C2117 1.417 1_655 S
C2114 C2119 1.431 . S
C2114 C2120 1.412 . S
C2115 C2118 1.437 . S
C2115 C2119 1.317 1_556 S
C2115 H2134 0.929 . S
C2116 C2117 1.426 1_556 S
C2116 C2118 1.413 1_455 S
C2116 N2126 1.359 1_565 S
C2117 C2114 1.417 1_455 S
C2117 C2116 1.426 1_554 S
C2117 N2122 1.350 1_565 S
C2118 C2115 1.437 . S
C2118 C2116 1.413 1_655 S
C2118 C2128 1.391 . S
C2119 C2114 1.431 . S
C2119 C2115 1.317 1_554 S
C2119 H2130 0.930 . S
C2120 C2114 1.412 . S
C2120 C2121 1.355 1_655 S
C2120 H2132 0.930 . S
C2121 C2120 1.355 1_455 S
C2121 C2123 1.402 1_565 S
C2121 H2133 0.930 . S
N2122 Gd2113 2.661 . S
N2122 C2117 1.350 1_545 S
N2122 C2123 1.307 . S
C2123 C2121 1.402 1_545 S
C2123 N2122 1.307 . S
C2123 H2124 0.930 . S
H2124 C2123 0.930 . S
C2125 N2126 1.325 . S
C2125 C2127 1.354 1_545 S
C2125 H2129 0.985 . S
N2126 Gd2113 2.601 1_556 S
N2126 C2116 1.359 1_545 S
N2126 C2125 1.325 . S
C2127 C2125 1.354 1_565 S
C2127 C2128 1.359 1_455 S
C2127 H2139 0.930 . S
C2128 C2118 1.391 . S
C2128 C2127 1.359 1_655 S
C2128 H2140 0.929 . S
H2129 C2125 0.985 . S
H2130 C2119 0.930 . S
H2131 C2148 0.930 1_556 S
H2132 C2120 0.930 . S
H2133 C2121 0.930 . S
H2134 C2115 0.929 . S
H2135 C2153 0.930 . S
H2136 C2144 0.930 1_556 S
H2137 C2145 0.930 . S
H2138 C2169 0.929 . S
H2139 C2127 0.930 . S
H2140 C2128 0.929 . S
H2141 C2170 0.930 . S
H2142 C2151 0.930 . S
N2143 Gd2112 2.661 . S
N2143 C2147 1.350 . S
N2143 C2148 1.307 . S
C2144 H2136 0.930 1_554 S
C2144 C2145 1.355 1_554 S
C2144 C2146 1.412 . S
C2145 H2137 0.930 . S
C2145 C2144 1.355 1_556 S
C2145 C2148 1.402 1_556 S
C2146 C2144 1.412 . S
C2146 C2147 1.417 . S
C2146 C2170 1.431 . S
C2147 N2143 1.350 . S
C2147 C2146 1.417 . S
C2147 C2150 1.426 . S
C2148 H2131 0.930 1_554 S
C2148 N2143 1.307 . S
C2148 C2145 1.402 1_554 S
N2149 Gd2112 2.601 . S
N2149 C2150 1.359 . S
N2149 C2153 1.334 . S
C2150 C2147 1.426 . S
C2150 N2149 1.359 . S
C2150 C2154 1.413 . S
C2151 H2142 0.930 . S
C2151 C2152 1.359 . S
C2151 C2153 1.394 . S
C2152 C2151 1.359 . S
C2152 C2154 1.391 . S
C2152 H2155 0.929 . S
C2153 H2135 0.930 . S
C2153 N2149 1.334 . S
C2153 C2151 1.394 . S
C2154 C2150 1.413 . S
C2154 C2152 1.391 . S
C2154 C2169 1.437 . S
H2155 C2152 0.929 . S
O2156 Gd2112 2.545 . S
O2156 C2171 1.258 . S
O2157 Gd2112 2.606 . S
O2157 Gd2113 2.362 . S
O2157 C2168 1.284 . S
O2158 Gd2113 2.324 . S
O2158 C2178 1.254 . S
O2159 Gd2112 2.429 . S
O2159 C2178 1.268 . S
O2160 Gd2112 2.545 . S
O2160 C2168 1.250 . S
O2161 Gd2112 2.412 . S
O2161 C2171 1.252 . S
O2162 Gd2113 2.542 1_556 S
O2162 C2180 1.299 1_455 S
O2163 Gd2112 2.362 . S
O2163 Gd2113 2.606 . S
O2163 C2179 1.284 . S
O2164 Gd2112 2.330 . S
O2164 C2187 1.249 1_554 S
O2165 Gd2113 2.429 1_556 S
O2165 C2187 1.268 . S
O2166 Gd2113 2.545 . S
O2166 C2179 1.250 . S
O2167 Gd2113 2.412 1_655 S
O2167 C2180 1.205 1_554 S
C2168 O2157 1.284 . S
C2168 O2160 1.250 . S
C2169 H2138 0.929 . S
C2169 C2154 1.437 . S
C2169 C2170 1.317 . S
C2170 H2141 0.930 . S
C2170 C2146 1.431 . S
C2170 C2169 1.317 . S
C2171 Gd2112 2.828 . S
C2171 O2156 1.258 . S
C2171 O2161 1.252 . S
C2171 C2172 1.497 . S
C2172 C2171 1.497 . S
C2172 C2173 1.395 . S
C2172 C2174 1.380 . S
C2173 C2172 1.395 . S
C2173 C2176 1.398 . S
C2173 H2188 0.930 . S
C2174 C2172 1.380 . S
C2174 C2175 1.391 . S
C2174 H2189 0.930 . S
C2175 C2174 1.391 . S
C2175 C2177 1.387 . S
C2176 C2173 1.398 . S
C2176 C2177 1.380 . S
C2176 H2190 0.930 . S
C2177 C2175 1.387 . S
C2177 C2176 1.380 . S
C2177 H2191 0.930 . S
C2178 O2158 1.254 . S
C2178 O2159 1.268 . S
C2179 O2163 1.284 . S
C2179 O2166 1.250 . S
C2180 Gd2113 2.817 1_656 S
C2180 O2162 1.299 1_655 S
C2180 O2167 1.205 1_556 S
C2180 C2181 1.507 . S
C2181 C2180 1.507 . S
C2181 C2182 1.395 . S
C2181 C2183 1.380 1_556 S
C2182 C2181 1.395 . S
C2182 C2185 1.398 . S
C2182 H2192 0.930 . S
C2183 C2181 1.380 1_554 S
C2183 C2184 1.391 . S
C2183 H2193 0.930 . S
C2184 C2183 1.391 . S
C2184 C2186 1.387 1_554 S
C2185 C2182 1.398 . S
C2185 C2186 1.380 . S
C2185 H2194 0.930 . S
C2186 C2184 1.387 1_556 S
C2186 C2185 1.380 . S
C2186 H2195 0.930 . S
C2187 O2164 1.249 1_556 S
C2187 O2165 1.268 . S
H2188 C2173 0.930 . S
H2189 C2174 0.930 . S
H2190 C2176 0.930 . S
H2191 C2177 0.930 . S
H2192 C2182 0.930 . S
H2193 C2183 0.930 . S
H2194 C2185 0.930 . S
H2195 C2186 0.930 . S
Gd2196 N2227 2.661 . S
Gd2196 N2233 2.601 . S
Gd2196 O2240 2.545 . S
Gd2196 O2241 2.606 . S
Gd2196 O2243 2.429 . S
Gd2196 O2244 2.545 . S
Gd2196 O2245 2.412 . S
Gd2196 O2247 2.362 . S
Gd2196 O2248 2.324 . S
Gd2196 C2255 2.828 . S
Gd2197 N2206 2.661 . S
Gd2197 N2210 2.601 . S
Gd2197 O2241 2.362 . S
Gd2197 O2242 2.324 . S
Gd2197 O2246 2.545 . S
Gd2197 O2247 2.606 . S
Gd2197 O2249 2.429 . S
Gd2197 O2250 2.545 . S
Gd2197 O2251 2.412 . S
Gd2197 C2264 2.828 . S
C2198 C2201 1.417 . S
C2198 C2203 1.431 . S
C2198 C2204 1.412 . S
C2199 C2202 1.437 . S
C2199 C2203 1.317 . S
C2199 H2218 0.929 . S
C2200 C2201 1.426 . S
C2200 C2202 1.413 . S
C2200 N2210 1.359 . S
C2201 C2198 1.417 . S
C2201 C2200 1.426 . S
C2201 N2206 1.350 . S
C2202 C2199 1.437 . S
C2202 C2200 1.413 . S
C2202 C2212 1.391 . S
C2203 C2198 1.431 . S
C2203 C2199 1.317 . S
C2203 H2214 0.930 . S
C2204 C2198 1.412 . S
C2204 C2205 1.355 . S
C2204 H2216 0.930 . S
C2205 C2204 1.355 . S
C2205 C2207 1.402 . S
C2205 H2217 0.930 . S
N2206 Gd2197 2.661 . S
N2206 C2201 1.350 . S
N2206 C2207 1.307 . S
C2207 C2205 1.402 . S
C2207 N2206 1.307 . S
C2207 H2208 0.930 . S
H2208 C2207 0.930 . S
C2209 N2210 1.334 . S
C2209 C2211 1.394 . S
C2209 H2213 0.930 . S
N2210 Gd2197 2.601 . S
N2210 C2200 1.359 . S
N2210 C2209 1.334 . S
C2211 C2209 1.394 . S
C2211 C2212 1.359 . S
C2211 H2223 0.930 . S
C2212 C2202 1.391 . S
C2212 C2211 1.359 . S
C2212 H2224 0.929 . S
H2213 C2209 0.930 . S
H2214 C2203 0.930 . S
H2215 C2232 0.930 . S
H2216 C2204 0.930 . S
H2217 C2205 0.930 . S
H2218 C2199 0.929 . S
H2219 C2237 0.930 . S
H2220 C2228 0.930 . S
H2221 C2229 0.930 . S
H2222 C2253 0.929 . S
H2223 C2211 0.930 . S
H2224 C2212 0.929 . S
H2225 C2254 0.930 . S
H2226 C2235 0.930 . S
N2227 Gd2196 2.661 . S
N2227 C2231 1.350 . S
N2227 C2232 1.307 . S
C2228 H2220 0.930 . S
C2228 C2229 1.355 . S
C2228 C2230 1.412 . S
C2229 H2221 0.930 . S
C2229 C2228 1.355 . S
C2229 C2232 1.402 . S
C2230 C2228 1.412 . S
C2230 C2231 1.417 . S
C2230 C2254 1.431 . S
C2231 N2227 1.350 . S
C2231 C2230 1.417 . S
C2231 C2234 1.426 . S
C2232 H2215 0.930 . S
C2232 N2227 1.307 . S
C2232 C2229 1.402 . S
N2233 Gd2196 2.601 . S
N2233 C2234 1.359 . S
N2233 C2237 1.334 . S
C2234 C2231 1.426 . S
C2234 N2233 1.359 . S
C2234 C2238 1.413 . S
C2235 H2226 0.930 . S
C2235 C2236 1.359 . S
C2235 C2237 1.394 . S
C2236 C2235 1.359 . S
C2236 C2238 1.391 . S
C2236 H2239 0.929 . S
C2237 H2219 0.930 . S
C2237 N2233 1.334 . S
C2237 C2235 1.394 . S
C2238 C2234 1.413 . S
C2238 C2236 1.391 . S
C2238 C2253 1.437 . S
H2239 C2236 0.929 . S
O2240 Gd2196 2.545 . S
O2240 C2255 1.258 . S
O2241 Gd2196 2.606 . S
O2241 Gd2197 2.362 . S
O2241 C2252 1.284 . S
O2242 Gd2197 2.324 . S
O2242 C2262 1.254 . S
O2243 Gd2196 2.429 . S
O2243 C2262 1.268 . S
O2244 Gd2196 2.545 . S
O2244 C2252 1.250 . S
O2245 Gd2196 2.412 . S
O2245 C2255 1.252 . S
O2246 Gd2197 2.545 . S
O2246 C2264 1.258 . S
O2247 Gd2196 2.362 . S
O2247 Gd2197 2.606 . S
O2247 C2263 1.284 . S
O2248 Gd2196 2.324 . S
O2248 C2271 1.254 . S
O2249 Gd2197 2.429 . S
O2249 C2271 1.268 . S
O2250 Gd2197 2.545 . S
O2250 C2263 1.250 . S
O2251 Gd2197 2.412 . S
O2251 C2264 1.252 . S
C2252 O2241 1.284 . S
C2252 O2244 1.250 . S
C2253 H2222 0.929 . S
C2253 C2238 1.437 . S
C2253 C2254 1.317 . S
C2254 H2225 0.930 . S
C2254 C2230 1.431 . S
C2254 C2253 1.317 . S
C2255 Gd2196 2.828 . S
C2255 O2240 1.258 . S
C2255 O2245 1.252 . S
C2255 C2256 1.497 . S
C2256 C2255 1.497 . S
C2256 C2257 1.395 . S
C2256 C2258 1.380 . S
C2257 C2256 1.395 . S
C2257 C2260 1.398 . S
C2257 H2272 0.930 . S
C2258 C2256 1.380 . S
C2258 C2259 1.391 . S
C2258 H2273 0.930 . S
C2259 C2258 1.391 . S
C2259 C2261 1.387 . S
C2260 C2257 1.398 . S
C2260 C2261 1.380 . S
C2260 H2274 0.930 . S
C2261 C2259 1.387 . S
C2261 C2260 1.380 . S
C2261 H2275 0.930 . S
C2262 O2242 1.254 . S
C2262 O2243 1.268 . S
C2263 O2247 1.284 . S
C2263 O2250 1.250 . S
C2264 Gd2197 2.828 . S
C2264 O2246 1.258 . S
C2264 O2251 1.252 . S
C2264 C2265 1.497 . S
C2265 C2264 1.497 . S
C2265 C2266 1.395 . S
C2265 C2267 1.380 . S
C2266 C2265 1.395 . S
C2266 C2269 1.398 . S
C2266 H2276 0.930 . S
C2267 C2265 1.380 . S
C2267 C2268 1.391 . S
C2267 H2277 0.930 . S
C2268 C2267 1.391 . S
C2268 C2270 1.387 . S
C2269 C2266 1.398 . S
C2269 C2270 1.380 . S
C2269 H2278 0.930 . S
C2270 C2268 1.387 . S
C2270 C2269 1.380 . S
C2270 H2279 0.930 . S
C2271 O2248 1.254 . S
C2271 O2249 1.268 . S
H2272 C2257 0.930 . S
H2273 C2258 0.930 . S
H2274 C2260 0.930 . S
H2275 C2261 0.930 . S
H2276 C2266 0.930 . S
H2277 C2267 0.930 . S
H2278 C2269 0.930 . S
H2279 C2270 0.930 . S
Gd2280 N2311 2.661 . S
Gd2280 N2317 2.601 . S
Gd2280 O2324 2.545 . S
Gd2280 O2325 2.606 . S
Gd2280 O2327 2.429 . S
Gd2280 O2328 2.545 . S
Gd2280 O2329 2.412 . S
Gd2280 O2331 2.362 . S
Gd2280 O2332 2.324 . S
Gd2280 C2339 2.828 . S
Gd2281 N2290 2.661 . S
Gd2281 N2294 2.601 . S
Gd2281 O2325 2.362 . S
Gd2281 O2326 2.324 . S
Gd2281 O2330 2.545 . S
Gd2281 O2331 2.606 . S
Gd2281 O2333 2.429 . S
Gd2281 O2334 2.545 . S
Gd2281 O2335 2.412 . S
Gd2281 C2348 2.828 . S
C2282 C2285 1.417 . S
C2282 C2287 1.431 . S
C2282 C2288 1.412 . S
C2283 C2286 1.437 . S
C2283 C2287 1.317 . S
C2283 H2302 0.929 . S
C2284 C2285 1.426 . S
C2284 C2286 1.413 . S
C2284 N2294 1.359 . S
C2285 C2282 1.417 . S
C2285 C2284 1.426 . S
C2285 N2290 1.350 . S
C2286 C2283 1.437 . S
C2286 C2284 1.413 . S
C2286 C2296 1.391 . S
C2287 C2282 1.431 . S
C2287 C2283 1.317 . S
C2287 H2298 0.930 . S
C2288 C2282 1.412 . S
C2288 C2289 1.355 . S
C2288 H2300 0.930 . S
C2289 C2288 1.355 . S
C2289 C2291 1.402 . S
C2289 H2301 0.930 . S
N2290 Gd2281 2.661 . S
N2290 C2285 1.350 . S
N2290 C2291 1.307 . S
C2291 C2289 1.402 . S
C2291 N2290 1.307 . S
C2291 H2292 0.930 . S
H2292 C2291 0.930 . S
C2293 N2294 1.334 . S
C2293 C2295 1.394 . S
C2293 H2297 0.930 . S
N2294 Gd2281 2.601 . S
N2294 C2284 1.359 . S
N2294 C2293 1.334 . S
C2295 C2293 1.394 . S
C2295 C2296 1.359 . S
C2295 H2307 0.930 . S
C2296 C2286 1.391 . S
C2296 C2295 1.359 . S
C2296 H2308 0.929 . S
H2297 C2293 0.930 . S
H2298 C2287 0.930 . S
H2299 C2316 0.930 . S
H2300 C2288 0.930 . S
H2301 C2289 0.930 . S
H2302 C2283 0.929 . S
H2303 C2321 0.930 . S
H2304 C2312 0.930 . S
H2305 C2313 0.930 . S
H2306 C2337 0.929 . S
H2307 C2295 0.930 . S
H2308 C2296 0.929 . S
H2309 C2338 0.930 . S
H2310 C2319 0.930 . S
N2311 Gd2280 2.661 . S
N2311 C2315 1.350 1_545 S
N2311 C2316 1.307 . S
C2312 H2304 0.930 . S
C2312 C2313 1.355 . S
C2312 C2314 1.412 . S
C2313 H2305 0.930 . S
C2313 C2312 1.355 . S
C2313 C2316 1.402 1_565 S
C2314 C2312 1.412 . S
C2314 C2315 1.417 . S
C2314 C2338 1.431 . S
C2315 N2311 1.350 1_565 S
C2315 C2314 1.417 . S
C2315 C2318 1.426 1_565 S
C2316 H2299 0.930 . S
C2316 N2311 1.307 . S
C2316 C2313 1.402 1_545 S
N2317 Gd2280 2.601 . S
N2317 C2318 1.359 . S
N2317 C2321 1.334 . S
C2318 C2315 1.426 1_545 S
C2318 N2317 1.359 . S
C2318 C2322 1.413 1_545 S
C2319 H2310 0.930 . S
C2319 C2320 1.359 1_545 S
C2319 C2321 1.394 . S
C2320 C2319 1.359 1_565 S
C2320 C2322 1.391 . S
C2320 H2323 0.929 . S
C2321 H2303 0.930 . S
C2321 N2317 1.334 . S
C2321 C2319 1.394 . S
C2322 C2318 1.413 1_565 S
C2322 C2320 1.391 . S
C2322 C2337 1.437 . S
H2323 C2320 0.929 . S
O2324 Gd2280 2.545 . S
O2324 C2339 1.258 . S
O2325 Gd2280 2.606 . S
O2325 Gd2281 2.362 . S
O2325 C2336 1.284 . S
O2326 Gd2281 2.324 . S
O2326 C2346 1.254 . S
O2327 Gd2280 2.429 . S
O2327 C2346 1.268 . S
O2328 Gd2280 2.545 . S
O2328 C2336 1.250 . S
O2329 Gd2280 2.412 . S
O2329 C2339 1.252 . S
O2330 Gd2281 2.545 . S
O2330 C2348 1.258 . S
O2331 Gd2280 2.362 . S
O2331 Gd2281 2.606 . S
O2331 C2347 1.284 . S
O2332 Gd2280 2.324 . S
O2332 C2355 1.254 . S
O2333 Gd2281 2.429 . S
O2333 C2355 1.268 . S
O2334 Gd2281 2.545 . S
O2334 C2347 1.250 . S
O2335 Gd2281 2.412 . S
O2335 C2348 1.252 . S
C2336 O2325 1.284 . S
C2336 O2328 1.250 . S
C2337 H2306 0.929 . S
C2337 C2322 1.437 . S
C2337 C2338 1.317 . S
C2338 H2309 0.930 . S
C2338 C2314 1.431 . S
C2338 C2337 1.317 . S
C2339 Gd2280 2.828 . S
C2339 O2324 1.258 . S
C2339 O2329 1.252 . S
C2339 C2340 1.497 . S
C2340 C2339 1.497 . S
C2340 C2341 1.395 . S
C2340 C2342 1.380 . S
C2341 C2340 1.395 . S
C2341 C2344 1.398 . S
C2341 H2356 0.930 . S
C2342 C2340 1.380 . S
C2342 C2343 1.391 . S
C2342 H2357 0.930 . S
C2343 C2342 1.391 . S
C2343 C2345 1.387 . S
C2344 C2341 1.398 . S
C2344 C2345 1.380 . S
C2344 H2358 0.930 . S
C2345 C2343 1.387 . S
C2345 C2344 1.380 . S
C2345 H2359 0.930 . S
C2346 O2326 1.254 . S
C2346 O2327 1.268 . S
C2347 O2331 1.284 . S
C2347 O2334 1.250 . S
C2348 Gd2281 2.828 . S
C2348 O2330 1.258 . S
C2348 O2335 1.252 . S
C2348 C2349 1.497 . S
C2349 C2348 1.497 . S
C2349 C2350 1.395 . S
C2349 C2351 1.380 . S
C2350 C2349 1.395 . S
C2350 C2353 1.398 . S
C2350 H2360 0.930 . S
C2351 C2349 1.380 . S
C2351 C2352 1.391 . S
C2351 H2361 0.930 . S
C2352 C2351 1.391 . S
C2352 C2354 1.387 . S
C2353 C2350 1.398 . S
C2353 C2354 1.380 . S
C2353 H2362 0.930 . S
C2354 C2352 1.387 . S
C2354 C2353 1.380 . S
C2354 H2363 0.930 1_545 S
C2355 O2332 1.254 . S
C2355 O2333 1.268 . S
H2356 C2341 0.930 . S
H2357 C2342 0.930 . S
H2358 C2344 0.930 . S
H2359 C2345 0.930 . S
H2360 C2350 0.930 . S
H2361 C2351 0.930 . S
H2362 C2353 0.930 . S
H2363 C2354 0.930 1_565 S
Gd2364 N2395 2.661 . S
Gd2364 N2401 2.601 . S
Gd2364 O2408 2.545 . S
Gd2364 O2409 2.606 . S
Gd2364 O2411 2.429 . S
Gd2364 O2412 2.545 . S
Gd2364 O2413 2.412 . S
Gd2364 O2415 2.362 . S
Gd2364 O2416 2.324 . S
Gd2364 C2423 2.828 . S
Gd2365 N2374 2.661 . S
Gd2365 N2378 2.601 . S
Gd2365 O2409 2.362 . S
Gd2365 O2410 2.324 . S
Gd2365 O2414 2.545 . S
Gd2365 O2415 2.606 . S
Gd2365 O2417 2.429 . S
Gd2365 O2418 2.545 . S
Gd2365 O2419 2.412 . S
Gd2365 C2432 2.828 . S
C2366 C2369 1.417 . S
C2366 C2371 1.431 . S
C2366 C2372 1.412 . S
C2367 C2370 1.437 . S
C2367 C2371 1.317 . S
C2367 H2386 0.929 . S
C2368 C2369 1.426 . S
C2368 C2370 1.413 . S
C2368 N2378 1.359 . S
C2369 C2366 1.417 . S
C2369 C2368 1.426 . S
C2369 N2374 1.350 . S
C2370 C2367 1.437 . S
C2370 C2368 1.413 . S
C2370 C2380 1.391 . S
C2371 C2366 1.431 . S
C2371 C2367 1.317 . S
C2371 H2382 0.930 . S
C2372 C2366 1.412 . S
C2372 C2373 1.355 . S
C2372 H2384 0.930 . S
C2373 C2372 1.355 . S
C2373 C2375 1.402 . S
C2373 H2385 0.930 . S
N2374 Gd2365 2.661 . S
N2374 C2369 1.350 . S
N2374 C2375 1.307 . S
C2375 C2373 1.402 . S
C2375 N2374 1.307 . S
C2375 H2376 0.930 . S
H2376 C2375 0.930 . S
C2377 N2378 1.334 . S
C2377 C2379 1.394 . S
C2377 H2381 0.930 . S
N2378 Gd2365 2.601 . S
N2378 C2368 1.359 . S
N2378 C2377 1.334 . S
C2379 C2377 1.394 . S
C2379 C2380 1.359 . S
C2379 H2391 0.930 . S
C2380 C2370 1.391 . S
C2380 C2379 1.359 . S
C2380 H2392 0.929 . S
H2381 C2377 0.930 . S
H2382 C2371 0.930 . S
H2383 C2400 0.930 . S
H2384 C2372 0.930 . S
H2385 C2373 0.930 . S
H2386 C2367 0.929 . S
H2387 C2405 0.930 . S
H2388 C2396 0.930 . S
H2389 C2397 0.930 . S
H2390 C2421 0.929 . S
H2391 C2379 0.930 . S
H2392 C2380 0.929 . S
H2393 C2422 0.930 . S
H2394 C2403 0.930 . S
N2395 Gd2364 2.661 . S
N2395 C2399 1.350 . S
N2395 C2400 1.307 . S
C2396 H2388 0.930 . S
C2396 C2397 1.355 . S
C2396 C2398 1.412 . S
C2397 H2389 0.930 . S
C2397 C2396 1.355 . S
C2397 C2400 1.402 . S
C2398 C2396 1.412 . S
C2398 C2399 1.417 . S
C2398 C2422 1.431 . S
C2399 N2395 1.350 . S
C2399 C2398 1.417 . S
C2399 C2402 1.426 . S
C2400 H2383 0.930 . S
C2400 N2395 1.307 . S
C2400 C2397 1.402 . S
N2401 Gd2364 2.601 . S
N2401 C2402 1.359 . S
N2401 C2405 1.334 . S
C2402 C2399 1.426 . S
C2402 N2401 1.359 . S
C2402 C2406 1.413 . S
C2403 H2394 0.930 . S
C2403 C2404 1.359 . S
C2403 C2405 1.394 . S
C2404 C2403 1.359 . S
C2404 C2406 1.391 . S
C2404 H2407 0.929 . S
C2405 H2387 0.930 . S
C2405 N2401 1.334 . S
C2405 C2403 1.394 . S
C2406 C2402 1.413 . S
C2406 C2404 1.391 . S
C2406 C2421 1.437 . S
H2407 C2404 0.929 . S
O2408 Gd2364 2.545 . S
O2408 C2423 1.258 . S
O2409 Gd2364 2.606 . S
O2409 Gd2365 2.362 . S
O2409 C2420 1.284 . S
O2410 Gd2365 2.324 . S
O2410 C2430 1.254 . S
O2411 Gd2364 2.429 . S
O2411 C2430 1.268 . S
O2412 Gd2364 2.545 . S
O2412 C2420 1.250 . S
O2413 Gd2364 2.412 . S
O2413 C2423 1.252 . S
O2414 Gd2365 2.545 . S
O2414 C2432 1.258 . S
O2415 Gd2364 2.362 . S
O2415 Gd2365 2.606 . S
O2415 C2431 1.284 . S
O2416 Gd2364 2.324 . S
O2416 C2439 1.254 . S
O2417 Gd2365 2.429 . S
O2417 C2439 1.268 . S
O2418 Gd2365 2.545 . S
O2418 C2431 1.250 . S
O2419 Gd2365 2.412 . S
O2419 C2432 1.252 . S
C2420 O2409 1.284 . S
C2420 O2412 1.250 . S
C2421 H2390 0.929 . S
C2421 C2406 1.437 . S
C2421 C2422 1.317 . S
C2422 H2393 0.930 . S
C2422 C2398 1.431 . S
C2422 C2421 1.317 . S
C2423 Gd2364 2.828 . S
C2423 O2408 1.258 . S
C2423 O2413 1.252 . S
C2423 C2424 1.497 . S
C2424 C2423 1.497 . S
C2424 C2425 1.395 . S
C2424 C2426 1.380 . S
C2425 C2424 1.395 . S
C2425 C2428 1.398 . S
C2425 H2440 0.930 . S
C2426 C2424 1.380 . S
C2426 C2427 1.391 . S
C2426 H2441 0.930 . S
C2427 C2426 1.391 . S
C2427 C2429 1.387 . S
C2428 C2425 1.398 . S
C2428 C2429 1.380 . S
C2428 H2442 0.930 . S
C2429 C2427 1.387 . S
C2429 C2428 1.380 . S
C2429 H2443 0.930 . S
C2430 O2410 1.254 . S
C2430 O2411 1.268 . S
C2431 O2415 1.284 . S
C2431 O2418 1.250 . S
C2432 Gd2365 2.828 . S
C2432 O2414 1.258 . S
C2432 O2419 1.252 . S
C2432 C2433 1.497 . S
C2433 C2432 1.497 . S
C2433 C2434 1.395 . S
C2433 C2435 1.380 . S
C2434 C2433 1.395 . S
C2434 C2437 1.398 . S
C2434 H2444 0.930 . S
C2435 C2433 1.380 . S
C2435 C2436 1.391 . S
C2435 H2445 0.930 . S
C2436 C2435 1.391 . S
C2436 C2438 1.387 . S
C2437 C2434 1.398 . S
C2437 C2438 1.380 . S
C2437 H2446 0.930 . S
C2438 C2436 1.387 . S
C2438 C2437 1.380 . S
C2438 H2447 0.930 . S
C2439 O2416 1.254 . S
C2439 O2417 1.268 . S
H2440 C2425 0.930 . S
H2441 C2426 0.930 . S
H2442 C2428 0.930 . S
H2443 C2429 0.930 . S
H2444 C2434 0.930 . S
H2445 C2435 0.930 . S
H2446 C2437 0.930 . S
H2447 C2438 0.930 . S
Gd2448 N2479 2.661 . S
Gd2448 N2485 2.601 . S
Gd2448 O2492 2.545 1_545 S
Gd2448 O2493 2.606 . S
Gd2448 O2495 2.429 . S
Gd2448 O2496 2.545 . S
Gd2448 O2497 2.412 1_545 S
Gd2448 O2499 2.362 . S
Gd2448 O2500 2.324 . S
Gd2448 C2507 2.828 1_545 S
Gd2449 N2458 2.661 . S
Gd2449 N2462 2.601 . S
Gd2449 O2493 2.362 . S
Gd2449 O2494 2.324 . S
Gd2449 O2498 2.545 . S
Gd2449 O2499 2.606 . S
Gd2449 O2501 2.429 . S
Gd2449 O2502 2.545 . S
Gd2449 O2503 2.412 . S
Gd2449 C2516 2.828 . S
C2450 C2453 1.417 . S
C2450 C2455 1.431 . S
C2450 C2456 1.412 . S
C2451 C2454 1.437 . S
C2451 C2455 1.317 . S
C2451 H2470 0.929 . S
C2452 C2453 1.426 . S
C2452 C2454 1.413 . S
C2452 N2462 1.359 . S
C2453 C2450 1.417 . S
C2453 C2452 1.426 . S
C2453 N2458 1.350 . S
C2454 C2451 1.437 . S
C2454 C2452 1.413 . S
C2454 C2464 1.391 . S
C2455 C2450 1.431 . S
C2455 C2451 1.317 . S
C2455 H2466 0.930 . S
C2456 C2450 1.412 . S
C2456 C2457 1.355 . S
C2456 H2468 0.930 . S
C2457 C2456 1.355 . S
C2457 C2459 1.402 . S
C2457 H2469 0.930 . S
N2458 Gd2449 2.661 . S
N2458 C2453 1.350 . S
N2458 C2459 1.307 . S
C2459 C2457 1.402 . S
C2459 N2458 1.307 . S
C2459 H2460 0.930 . S
H2460 C2459 0.930 . S
C2461 N2462 1.334 . S
C2461 C2463 1.394 . S
C2461 H2465 0.930 . S
N2462 Gd2449 2.601 . S
N2462 C2452 1.359 . S
N2462 C2461 1.334 . S
C2463 C2461 1.394 . S
C2463 C2464 1.359 . S
C2463 H2475 0.930 1_455 S
C2464 C2454 1.391 . S
C2464 C2463 1.359 . S
C2464 H2476 0.929 . S
H2465 C2461 0.930 . S
H2466 C2455 0.930 . S
H2467 C2484 0.930 1_545 S
H2468 C2456 0.930 . S
H2469 C2457 0.930 . S
H2470 C2451 0.929 . S
H2471 C2489 0.930 . S
H2472 C2480 0.930 . S
H2473 C2481 0.930 1_655 S
H2474 C2505 0.929 . S
H2475 C2463 0.930 1_655 S
H2476 C2464 0.929 . S
H2477 C2506 0.930 . S
H2478 C2487 0.940 1_545 S
N2479 Gd2448 2.661 . S
N2479 C2483 1.350 1_545 S
N2479 C2484 1.307 1_545 S
C2480 H2472 0.930 . S
C2480 C2481 1.355 . S
C2480 C2482 1.412 . S
C2481 H2473 0.930 1_455 S
C2481 C2480 1.355 . S
C2481 C2484 1.402 . S
C2482 C2480 1.412 . S
C2482 C2483 1.417 . S
C2482 C2506 1.431 . S
C2483 N2479 1.350 1_565 S
C2483 C2482 1.417 . S
C2483 C2486 1.426 . S
C2484 H2467 0.930 1_565 S
C2484 N2479 1.307 1_565 S
C2484 C2481 1.402 . S
N2485 Gd2448 2.601 . S
N2485 C2486 1.359 1_545 S
N2485 C2489 1.334 . S
C2486 C2483 1.426 . S
C2486 N2485 1.359 1_565 S
C2486 C2490 1.413 . S
C2487 H2478 0.940 1_565 S
C2487 C2488 1.366 . S
C2487 C2489 1.383 1_565 S
C2488 C2487 1.366 . S
C2488 C2490 1.391 . S
C2488 H2491 0.929 . S
C2489 H2471 0.930 . S
C2489 N2485 1.334 . S
C2489 C2487 1.383 1_545 S
C2490 C2486 1.413 . S
C2490 C2488 1.391 . S
C2490 C2505 1.437 . S
H2491 C2488 0.929 . S
O2492 Gd2448 2.545 1_565 S
O2492 C2507 1.258 . S
O2493 Gd2448 2.606 . S
O2493 Gd2449 2.362 . S
O2493 C2504 1.284 . S
O2494 Gd2449 2.324 . S
O2494 C2514 1.254 . S
O2495 Gd2448 2.429 . S
O2495 C2514 1.268 . S
O2496 Gd2448 2.545 . S
O2496 C2504 1.250 . S
O2497 Gd2448 2.412 1_565 S
O2497 C2507 1.252 . S
O2498 Gd2449 2.545 . S
O2498 C2516 1.258 . S
O2499 Gd2448 2.362 . S
O2499 Gd2449 2.606 . S
O2499 C2515 1.284 . S
O2500 Gd2448 2.324 . S
O2500 C2523 1.254 . S
O2501 Gd2449 2.429 . S
O2501 C2523 1.268 . S
O2502 Gd2449 2.545 . S
O2502 C2515 1.250 . S
O2503 Gd2449 2.412 . S
O2503 C2516 1.252 . S
C2504 O2493 1.284 . S
C2504 O2496 1.250 . S
C2505 H2474 0.929 . S
C2505 C2490 1.437 . S
C2505 C2506 1.317 . S
C2506 H2477 0.930 . S
C2506 C2482 1.431 . S
C2506 C2505 1.317 . S
C2507 Gd2448 2.828 1_565 S
C2507 O2492 1.258 . S
C2507 O2497 1.252 . S
C2507 C2508 1.497 . S
C2508 C2507 1.497 . S
C2508 C2509 1.395 . S
C2508 C2510 1.380 . S
C2509 C2508 1.395 . S
C2509 C2512 1.398 . S
C2509 H2524 0.930 . S
C2510 C2508 1.380 . S
C2510 C2511 1.391 . S
C2510 H2525 0.930 . S
C2511 C2510 1.391 . S
C2511 C2513 1.387 . S
C2512 C2509 1.398 . S
C2512 C2513 1.380 . S
C2512 H2526 0.930 . S
C2513 C2511 1.387 . S
C2513 C2512 1.380 . S
C2513 H2527 0.930 . S
C2514 O2494 1.254 . S
C2514 O2495 1.268 . S
C2515 O2499 1.284 . S
C2515 O2502 1.250 . S
C2516 Gd2449 2.828 . S
C2516 O2498 1.258 . S
C2516 O2503 1.252 . S
C2516 C2517 1.497 . S
C2517 C2516 1.497 . S
C2517 C2518 1.395 . S
C2517 C2519 1.380 . S
C2518 C2517 1.395 . S
C2518 C2521 1.398 . S
C2518 H2528 0.930 . S
C2519 C2517 1.380 . S
C2519 C2520 1.391 . S
C2519 H2529 0.930 . S
C2520 C2519 1.391 . S
C2520 C2522 1.387 . S
C2521 C2518 1.398 . S
C2521 C2522 1.380 . S
C2521 H2530 0.930 . S
C2522 C2520 1.387 . S
C2522 C2521 1.380 . S
C2522 H2531 0.930 . S
C2523 O2500 1.254 . S
C2523 O2501 1.268 . S
H2524 C2509 0.930 . S
H2525 C2510 0.930 . S
H2526 C2512 0.930 . S
H2527 C2513 0.930 . S
H2528 C2518 0.930 . S
H2529 C2519 0.930 . S
H2530 C2521 0.930 . S
H2531 C2522 0.930 . S
Gd2532 N2563 2.661 . S
Gd2532 N2569 2.601 . S
Gd2532 O2576 2.545 . S
Gd2532 O2577 2.606 . S
Gd2532 O2579 2.429 . S
Gd2532 O2580 2.545 . S
Gd2532 O2581 2.412 . S
Gd2532 O2583 2.362 . S
Gd2532 O2584 2.324 . S
Gd2532 C2591 2.828 . S
Gd2533 N2542 2.661 . S
Gd2533 N2546 2.601 . S
Gd2533 O2577 2.362 . S
Gd2533 O2578 2.324 . S
Gd2533 O2582 2.545 . S
Gd2533 O2583 2.606 . S
Gd2533 O2585 2.429 . S
Gd2533 O2586 2.545 . S
Gd2533 O2587 2.412 . S
Gd2533 C2600 2.828 . S
C2534 C2537 1.417 . S
C2534 C2539 1.431 . S
C2534 C2540 1.412 . S
C2535 C2538 1.437 . S
C2535 C2539 1.317 . S
C2535 H2554 0.929 . S
C2536 C2537 1.426 . S
C2536 C2538 1.413 . S
C2536 N2546 1.359 . S
C2537 C2534 1.417 . S
C2537 C2536 1.426 . S
C2537 N2542 1.350 . S
C2538 C2535 1.437 . S
C2538 C2536 1.413 . S
C2538 C2548 1.391 . S
C2539 C2534 1.431 . S
C2539 C2535 1.317 . S
C2539 H2550 0.930 . S
C2540 C2534 1.412 . S
C2540 C2541 1.355 . S
C2540 H2552 0.930 . S
C2541 C2540 1.355 . S
C2541 C2543 1.402 . S
C2541 H2553 0.930 . S
N2542 Gd2533 2.661 . S
N2542 C2537 1.350 . S
N2542 C2543 1.307 . S
C2543 C2541 1.402 . S
C2543 N2542 1.307 . S
C2543 H2544 0.930 . S
H2544 C2543 0.930 . S
C2545 N2546 1.334 . S
C2545 C2547 1.394 . S
C2545 H2549 0.930 . S
N2546 Gd2533 2.601 . S
N2546 C2536 1.359 . S
N2546 C2545 1.334 . S
C2547 C2545 1.394 . S
C2547 C2548 1.359 . S
C2547 H2559 0.930 . S
C2548 C2538 1.391 . S
C2548 C2547 1.359 . S
C2548 H2560 0.929 . S
H2549 C2545 0.930 . S
H2550 C2539 0.930 . S
H2551 C2568 0.930 . S
H2552 C2540 0.930 . S
H2553 C2541 0.930 . S
H2554 C2535 0.929 . S
H2555 C2573 0.930 . S
H2556 C2564 0.930 . S
H2557 C2565 0.930 . S
H2558 C2589 0.929 . S
H2559 C2547 0.930 . S
H2560 C2548 0.929 . S
H2561 C2590 0.930 . S
H2562 C2571 0.930 . S
N2563 Gd2532 2.661 . S
N2563 C2567 1.350 . S
N2563 C2568 1.307 . S
C2564 H2556 0.930 . S
C2564 C2565 1.355 . S
C2564 C2566 1.412 . S
C2565 H2557 0.930 . S
C2565 C2564 1.355 . S
C2565 C2568 1.402 . S
C2566 C2564 1.412 . S
C2566 C2567 1.417 . S
C2566 C2590 1.431 . S
C2567 N2563 1.350 . S
C2567 C2566 1.417 . S
C2567 C2570 1.426 . S
C2568 H2551 0.930 . S
C2568 N2563 1.307 . S
C2568 C2565 1.402 . S
N2569 Gd2532 2.601 . S
N2569 C2570 1.359 . S
N2569 C2573 1.334 . S
C2570 C2567 1.426 . S
C2570 N2569 1.359 . S
C2570 C2574 1.413 . S
C2571 H2562 0.930 . S
C2571 C2572 1.359 . S
C2571 C2573 1.394 . S
C2572 C2571 1.359 . S
C2572 C2574 1.391 . S
C2572 H2575 0.929 . S
C2573 H2555 0.930 . S
C2573 N2569 1.334 . S
C2573 C2571 1.394 . S
C2574 C2570 1.413 . S
C2574 C2572 1.391 . S
C2574 C2589 1.437 . S
H2575 C2572 0.929 . S
O2576 Gd2532 2.545 . S
O2576 C2591 1.258 . S
O2577 Gd2532 2.606 . S
O2577 Gd2533 2.362 . S
O2577 C2588 1.284 . S
O2578 Gd2533 2.324 . S
O2578 C2598 1.254 . S
O2579 Gd2532 2.429 . S
O2579 C2598 1.268 . S
O2580 Gd2532 2.545 . S
O2580 C2588 1.250 . S
O2581 Gd2532 2.412 . S
O2581 C2591 1.252 . S
O2582 Gd2533 2.545 . S
O2582 C2600 1.258 . S
O2583 Gd2532 2.362 . S
O2583 Gd2533 2.606 . S
O2583 C2599 1.284 . S
O2584 Gd2532 2.324 . S
O2584 C2607 1.254 . S
O2585 Gd2533 2.429 . S
O2585 C2607 1.268 . S
O2586 Gd2533 2.545 . S
O2586 C2599 1.250 . S
O2587 Gd2533 2.412 . S
O2587 C2600 1.252 . S
C2588 O2577 1.284 . S
C2588 O2580 1.250 . S
C2589 H2558 0.929 . S
C2589 C2574 1.437 . S
C2589 C2590 1.317 . S
C2590 H2561 0.930 . S
C2590 C2566 1.431 . S
C2590 C2589 1.317 . S
C2591 Gd2532 2.828 . S
C2591 O2576 1.258 . S
C2591 O2581 1.252 . S
C2591 C2592 1.497 . S
C2592 C2591 1.497 . S
C2592 C2593 1.395 . S
C2592 C2594 1.380 . S
C2593 C2592 1.395 . S
C2593 C2596 1.398 . S
C2593 H2608 0.930 . S
C2594 C2592 1.380 . S
C2594 C2595 1.391 . S
C2594 H2609 0.930 . S
C2595 C2594 1.391 . S
C2595 C2597 1.387 . S
C2596 C2593 1.398 . S
C2596 C2597 1.380 . S
C2596 H2610 0.930 . S
C2597 C2595 1.387 . S
C2597 C2596 1.380 . S
C2597 H2611 0.930 . S
C2598 O2578 1.254 . S
C2598 O2579 1.268 . S
C2599 O2583 1.284 . S
C2599 O2586 1.250 . S
C2600 Gd2533 2.828 . S
C2600 O2582 1.258 . S
C2600 O2587 1.252 . S
C2600 C2601 1.497 . S
C2601 C2600 1.497 . S
C2601 C2602 1.395 . S
C2601 C2603 1.380 . S
C2602 C2601 1.395 . S
C2602 C2605 1.398 . S
C2602 H2612 0.930 . S
C2603 C2601 1.380 . S
C2603 C2604 1.391 . S
C2603 H2613 0.930 . S
C2604 C2603 1.391 . S
C2604 C2606 1.387 . S
C2605 C2602 1.398 . S
C2605 C2606 1.380 . S
C2605 H2614 0.930 . S
C2606 C2604 1.387 . S
C2606 C2605 1.380 . S
C2606 H2615 0.930 . S
C2607 O2584 1.254 . S
C2607 O2585 1.268 . S
H2608 C2593 0.930 . S
H2609 C2594 0.930 . S
H2610 C2596 0.930 . S
H2611 C2597 0.930 . S
H2612 C2602 0.930 . S
H2613 C2603 0.930 . S
H2614 C2605 0.930 . S
H2615 C2606 0.930 . S
Gd2616 N2647 2.661 . S
Gd2616 N2653 2.601 . S
Gd2616 O2660 2.545 . S
Gd2616 O2661 2.606 1_556 S
Gd2616 O2663 2.429 1_556 S
Gd2616 O2664 2.545 1_556 S
Gd2616 O2665 2.412 . S
Gd2616 O2667 2.362 1_556 S
Gd2616 O2668 2.324 . S
Gd2616 C2675 2.828 . S
Gd2617 N2626 2.661 . S
Gd2617 N2630 2.601 . S
Gd2617 O2661 2.362 . S
Gd2617 O2662 2.324 . S
Gd2617 O2666 2.545 . S
Gd2617 O2667 2.606 . S
Gd2617 O2669 2.429 . S
Gd2617 O2670 2.545 . S
Gd2617 O2671 2.412 . S
Gd2617 C2684 2.828 . S
C2618 C2621 1.417 . S
C2618 C2623 1.431 . S
C2618 C2624 1.412 . S
C2619 C2622 1.437 . S
C2619 C2623 1.317 . S
C2619 H2638 0.929 . S
C2620 C2621 1.426 . S
C2620 C2622 1.413 . S
C2620 N2630 1.359 . S
C2621 C2618 1.417 . S
C2621 C2620 1.426 . S
C2621 N2626 1.350 . S
C2622 C2619 1.437 . S
C2622 C2620 1.413 . S
C2622 C2632 1.391 . S
C2623 C2618 1.431 . S
C2623 C2619 1.317 . S
C2623 H2634 0.930 . S
C2624 C2618 1.412 . S
C2624 C2625 1.355 . S
C2624 H2636 0.930 . S
C2625 C2624 1.355 . S
C2625 C2627 1.402 . S
C2625 H2637 0.930 . S
N2626 Gd2617 2.661 . S
N2626 C2621 1.350 . S
N2626 C2627 1.307 . S
C2627 C2625 1.402 . S
C2627 N2626 1.307 . S
C2627 H2628 0.930 . S
H2628 C2627 0.930 . S
C2629 N2630 1.334 . S
C2629 C2631 1.394 1_545 S
C2629 H2633 0.930 1_545 S
N2630 Gd2617 2.601 . S
N2630 C2620 1.359 . S
N2630 C2629 1.334 . S
C2631 C2629 1.394 1_565 S
C2631 C2632 1.359 1_565 S
C2631 H2643 0.930 . S
C2632 C2622 1.391 . S
C2632 C2631 1.359 1_545 S
C2632 H2644 0.929 1_545 S
H2633 C2629 0.930 1_565 S
H2634 C2623 0.930 . S
H2635 C2652 0.930 . S
H2636 C2624 0.930 . S
H2637 C2625 0.930 . S
H2638 C2619 0.929 . S
H2639 C2657 0.930 . S
H2640 C2648 0.930 1_565 S
H2641 C2649 0.930 . S
H2642 C2673 0.929 . S
H2643 C2631 0.930 . S
H2644 C2632 0.929 1_565 S
H2645 C2674 0.930 . S
H2646 C2655 0.930 . S
N2647 Gd2616 2.661 . S
N2647 C2651 1.350 . S
N2647 C2652 1.307 . S
C2648 H2640 0.930 1_545 S
C2648 C2649 1.355 1_545 S
C2648 C2650 1.412 . S
C2649 H2641 0.930 . S
C2649 C2648 1.355 1_565 S
C2649 C2652 1.402 1_565 S
C2650 C2648 1.412 . S
C2650 C2651 1.417 . S
C2650 C2674 1.431 . S
C2651 N2647 1.350 . S
C2651 C2650 1.417 . S
C2651 C2654 1.426 . S
C2652 H2635 0.930 . S
C2652 N2647 1.307 . S
C2652 C2649 1.402 1_545 S
N2653 Gd2616 2.601 . S
N2653 C2654 1.359 . S
N2653 C2657 1.334 . S
C2654 C2651 1.426 . S
C2654 N2653 1.359 . S
C2654 C2658 1.413 . S
C2655 H2646 0.930 . S
C2655 C2656 1.359 . S
C2655 C2657 1.394 . S
C2656 C2655 1.359 . S
C2656 C2658 1.391 . S
C2656 H2659 0.929 . S
C2657 H2639 0.930 . S
C2657 N2653 1.334 . S
C2657 C2655 1.394 . S
C2658 C2654 1.413 . S
C2658 C2656 1.391 . S
C2658 C2673 1.437 . S
H2659 C2656 0.929 . S
O2660 Gd2616 2.545 . S
O2660 C2675 1.258 . S
O2661 Gd2616 2.606 1_554 S
O2661 Gd2617 2.362 . S
O2661 C2672 1.284 . S
O2662 Gd2617 2.324 . S
O2662 C2682 1.254 . S
O2663 Gd2616 2.429 1_554 S
O2663 C2682 1.268 . S
O2664 Gd2616 2.545 1_554 S
O2664 C2672 1.250 . S
O2665 Gd2616 2.412 . S
O2665 C2675 1.252 . S
O2666 Gd2617 2.545 . S
O2666 C2684 1.258 . S
O2667 Gd2616 2.362 1_554 S
O2667 Gd2617 2.606 . S
O2667 C2683 1.284 . S
O2668 Gd2616 2.324 . S
O2668 C2691 1.254 1_556 S
O2669 Gd2617 2.429 . S
O2669 C2691 1.268 . S
O2670 Gd2617 2.545 . S
O2670 C2683 1.250 . S
O2671 Gd2617 2.412 . S
O2671 C2684 1.252 . S
C2672 O2661 1.284 . S
C2672 O2664 1.250 . S
C2673 H2642 0.929 . S
C2673 C2658 1.437 . S
C2673 C2674 1.317 . S
C2674 H2645 0.930 . S
C2674 C2650 1.431 . S
C2674 C2673 1.317 . S
C2675 Gd2616 2.828 . S
C2675 O2660 1.258 . S
C2675 O2665 1.252 . S
C2675 C2676 1.497 . S
C2676 C2675 1.497 . S
C2676 C2677 1.395 . S
C2676 C2678 1.380 . S
C2677 C2676 1.395 . S
C2677 C2680 1.398 . S
C2677 H2692 0.930 . S
C2678 C2676 1.380 . S
C2678 C2679 1.391 . S
C2678 H2693 0.930 . S
C2679 C2678 1.391 . S
C2679 C2681 1.387 . S
C2680 C2677 1.398 . S
C2680 C2681 1.380 . S
C2680 H2694 0.930 . S
C2681 C2679 1.387 . S
C2681 C2680 1.380 . S
C2681 H2695 0.930 . S
C2682 O2662 1.254 . S
C2682 O2663 1.268 . S
C2683 O2667 1.284 . S
C2683 O2670 1.250 . S
C2684 Gd2617 2.828 . S
C2684 O2666 1.258 . S
C2684 O2671 1.252 . S
C2684 C2685 1.497 . S
C2685 C2684 1.497 . S
C2685 C2686 1.395 . S
C2685 C2687 1.380 . S
C2686 C2685 1.395 . S
C2686 C2689 1.398 . S
C2686 H2696 0.930 1_545 S
C2687 C2685 1.380 . S
C2687 C2688 1.391 . S
C2687 H2697 0.930 . S
C2688 C2687 1.391 . S
C2688 C2690 1.387 . S
C2689 C2686 1.398 . S
C2689 C2690 1.380 . S
C2689 H2698 0.930 1_545 S
C2690 C2688 1.387 . S
C2690 C2689 1.380 . S
C2690 H2699 0.930 . S
C2691 O2668 1.254 1_554 S
C2691 O2669 1.268 . S
H2692 C2677 0.930 . S
H2693 C2678 0.930 . S
H2694 C2680 0.930 . S
H2695 C2681 0.930 . S
H2696 C2686 0.930 1_565 S
H2697 C2687 0.930 . S
H2698 C2689 0.930 1_565 S
H2699 C2690 0.930 . S
Gd2700 N2731 2.661 . S
Gd2700 N2737 2.601 . S
Gd2700 O2744 2.545 . S
Gd2700 O2745 2.606 . S
Gd2700 O2747 2.429 . S
Gd2700 O2748 2.545 . S
Gd2700 O2749 2.412 . S
Gd2700 O2751 2.362 . S
Gd2700 O2752 2.324 . S
Gd2700 C2759 2.828 . S
Gd2701 N2710 2.661 . S
Gd2701 N2714 2.601 . S
Gd2701 O2745 2.362 . S
Gd2701 O2746 2.324 . S
Gd2701 O2750 2.545 . S
Gd2701 O2751 2.606 . S
Gd2701 O2753 2.429 . S
Gd2701 O2754 2.545 . S
Gd2701 O2755 2.412 . S
Gd2701 C2768 2.828 . S
C2702 C2705 1.417 . S
C2702 C2707 1.431 . S
C2702 C2708 1.412 . S
C2703 C2706 1.437 . S
C2703 C2707 1.317 . S
C2703 H2722 0.929 . S
C2704 C2705 1.426 . S
C2704 C2706 1.413 . S
C2704 N2714 1.359 . S
C2705 C2702 1.417 . S
C2705 C2704 1.426 . S
C2705 N2710 1.350 . S
C2706 C2703 1.437 . S
C2706 C2704 1.413 . S
C2706 C2716 1.391 . S
C2707 C2702 1.431 . S
C2707 C2703 1.317 . S
C2707 H2718 0.930 . S
C2708 C2702 1.412 . S
C2708 C2709 1.355 . S
C2708 H2720 0.930 . S
C2709 C2708 1.355 . S
C2709 C2711 1.402 . S
C2709 H2721 0.930 . S
N2710 Gd2701 2.661 . S
N2710 C2705 1.350 . S
N2710 C2711 1.307 . S
C2711 C2709 1.402 . S
C2711 N2710 1.307 . S
C2711 H2712 0.930 . S
H2712 C2711 0.930 . S
C2713 N2714 1.334 . S
C2713 C2715 1.394 . S
C2713 H2717 0.930 . S
N2714 Gd2701 2.601 . S
N2714 C2704 1.359 . S
N2714 C2713 1.334 . S
C2715 C2713 1.394 . S
C2715 C2716 1.359 . S
C2715 H2727 0.930 . S
C2716 C2706 1.391 . S
C2716 C2715 1.359 . S
C2716 H2728 0.929 . S
H2717 C2713 0.930 . S
H2718 C2707 0.930 . S
H2719 C2736 0.930 . S
H2720 C2708 0.930 . S
H2721 C2709 0.930 . S
H2722 C2703 0.929 . S
H2723 C2741 0.930 . S
H2724 C2732 0.930 . S
H2725 C2733 0.930 . S
H2726 C2757 0.929 . S
H2727 C2715 0.930 . S
H2728 C2716 0.929 . S
H2729 C2758 0.930 . S
H2730 C2739 0.930 . S
N2731 Gd2700 2.661 . S
N2731 C2735 1.350 . S
N2731 C2736 1.307 . S
C2732 H2724 0.930 . S
C2732 C2733 1.355 . S
C2732 C2734 1.412 . S
C2733 H2725 0.930 . S
C2733 C2732 1.355 . S
C2733 C2736 1.402 . S
C2734 C2732 1.412 . S
C2734 C2735 1.417 . S
C2734 C2758 1.431 . S
C2735 N2731 1.350 . S
C2735 C2734 1.417 . S
C2735 C2738 1.426 . S
C2736 H2719 0.930 . S
C2736 N2731 1.307 . S
C2736 C2733 1.402 . S
N2737 Gd2700 2.601 . S
N2737 C2738 1.359 . S
N2737 C2741 1.334 . S
C2738 C2735 1.426 . S
C2738 N2737 1.359 . S
C2738 C2742 1.413 . S
C2739 H2730 0.930 . S
C2739 C2740 1.359 . S
C2739 C2741 1.394 . S
C2740 C2739 1.359 . S
C2740 C2742 1.391 . S
C2740 H2743 0.929 . S
C2741 H2723 0.930 . S
C2741 N2737 1.334 . S
C2741 C2739 1.394 . S
C2742 C2738 1.413 . S
C2742 C2740 1.391 . S
C2742 C2757 1.437 . S
H2743 C2740 0.929 . S
O2744 Gd2700 2.545 . S
O2744 C2759 1.258 . S
O2745 Gd2700 2.606 . S
O2745 Gd2701 2.362 . S
O2745 C2756 1.284 . S
O2746 Gd2701 2.324 . S
O2746 C2766 1.254 . S
O2747 Gd2700 2.429 . S
O2747 C2766 1.268 . S
O2748 Gd2700 2.545 . S
O2748 C2756 1.250 . S
O2749 Gd2700 2.412 . S
O2749 C2759 1.252 . S
O2750 Gd2701 2.545 . S
O2750 C2768 1.258 . S
O2751 Gd2700 2.362 . S
O2751 Gd2701 2.606 . S
O2751 C2767 1.284 . S
O2752 Gd2700 2.324 . S
O2752 C2775 1.254 . S
O2753 Gd2701 2.429 . S
O2753 C2775 1.268 . S
O2754 Gd2701 2.545 . S
O2754 C2767 1.250 . S
O2755 Gd2701 2.412 . S
O2755 C2768 1.252 . S
C2756 O2745 1.284 . S
C2756 O2748 1.250 . S
C2757 H2726 0.929 . S
C2757 C2742 1.437 . S
C2757 C2758 1.317 . S
C2758 H2729 0.930 . S
C2758 C2734 1.431 . S
C2758 C2757 1.317 . S
C2759 Gd2700 2.828 . S
C2759 O2744 1.258 . S
C2759 O2749 1.252 . S
C2759 C2760 1.497 . S
C2760 C2759 1.497 . S
C2760 C2761 1.395 . S
C2760 C2762 1.380 . S
C2761 C2760 1.395 . S
C2761 C2764 1.398 . S
C2761 H2776 0.930 . S
C2762 C2760 1.380 . S
C2762 C2763 1.391 . S
C2762 H2777 0.930 . S
C2763 C2762 1.391 . S
C2763 C2765 1.387 . S
C2764 C2761 1.398 . S
C2764 C2765 1.380 . S
C2764 H2778 0.930 . S
C2765 C2763 1.387 . S
C2765 C2764 1.380 . S
C2765 H2779 0.930 . S
C2766 O2746 1.254 . S
C2766 O2747 1.268 . S
C2767 O2751 1.284 . S
C2767 O2754 1.250 . S
C2768 Gd2701 2.828 . S
C2768 O2750 1.258 . S
C2768 O2755 1.252 . S
C2768 C2769 1.497 . S
C2769 C2768 1.497 . S
C2769 C2770 1.395 . S
C2769 C2771 1.380 . S
C2770 C2769 1.395 . S
C2770 C2773 1.398 . S
C2770 H2780 0.930 . S
C2771 C2769 1.380 . S
C2771 C2772 1.391 . S
C2771 H2781 0.930 . S
C2772 C2771 1.391 . S
C2772 C2774 1.387 . S
C2773 C2770 1.398 . S
C2773 C2774 1.380 . S
C2773 H2782 0.930 . S
C2774 C2772 1.387 . S
C2774 C2773 1.380 . S
C2774 H2783 0.930 . S
C2775 O2752 1.254 . S
C2775 O2753 1.268 . S
H2776 C2761 0.930 . S
H2777 C2762 0.930 . S
H2778 C2764 0.930 . S
H2779 C2765 0.930 . S
H2780 C2770 0.930 . S
H2781 C2771 0.930 . S
H2782 C2773 0.930 . S
H2783 C2774 0.930 . S
Gd2784 N2815 2.661 1_554 S
Gd2784 N2821 2.601 1_554 S
Gd2784 O2828 2.545 . S
Gd2784 O2829 2.606 . S
Gd2784 O2831 2.429 . S
Gd2784 O2832 2.545 . S
Gd2784 O2833 2.412 . S
Gd2784 O2835 2.388 . S
Gd2784 O2836 2.324 . S
Gd2784 C2843 2.828 . S
Gd2785 N2794 2.661 . S
Gd2785 N2798 2.601 . S
Gd2785 O2829 2.362 . S
Gd2785 O2830 2.324 . S
Gd2785 O2834 2.545 . S
Gd2785 O2835 2.639 . S
Gd2785 O2837 2.429 . S
Gd2785 O2838 2.545 1_554 S
Gd2785 O2839 2.412 . S
Gd2785 C2852 2.828 . S
C2786 C2789 1.417 . S
C2786 C2791 1.431 . S
C2786 C2792 1.412 . S
C2787 C2790 1.437 . S
C2787 C2791 1.317 . S
C2787 H2806 0.929 . S
C2788 C2789 1.426 . S
C2788 C2790 1.413 . S
C2788 N2798 1.359 . S
C2789 C2786 1.417 . S
C2789 C2788 1.426 . S
C2789 N2794 1.350 . S
C2790 C2787 1.437 . S
C2790 C2788 1.413 . S
C2790 C2800 1.391 . S
C2791 C2786 1.431 . S
C2791 C2787 1.317 . S
C2791 H2802 0.930 . S
C2792 C2786 1.412 . S
C2792 C2793 1.355 . S
C2792 H2804 0.930 . S
C2793 C2792 1.355 . S
C2793 C2795 1.402 . S
C2793 H2805 0.930 . S
N2794 Gd2785 2.661 . S
N2794 C2789 1.350 . S
N2794 C2795 1.307 . S
C2795 C2793 1.402 . S
C2795 N2794 1.307 . S
C2795 H2796 0.930 . S
H2796 C2795 0.930 . S
C2797 N2798 1.334 . S
C2797 C2799 1.394 . S
C2797 H2801 0.930 . S
N2798 Gd2785 2.601 . S
N2798 C2788 1.359 . S
N2798 C2797 1.334 . S
C2799 C2797 1.394 . S
C2799 C2800 1.359 . S
C2799 H2811 0.930 . S
C2800 C2790 1.391 . S
C2800 C2799 1.359 . S
C2800 H2812 0.929 . S
H2801 C2797 0.930 . S
H2802 C2791 0.930 . S
H2803 C2820 0.930 . S
H2804 C2792 0.930 . S
H2805 C2793 0.930 . S
H2806 C2787 0.929 . S
H2807 C2825 0.930 . S
H2808 C2816 0.930 . S
H2809 C2817 0.930 . S
H2810 C2841 0.929 . S
H2811 C2799 0.930 . S
H2812 C2800 0.929 . S
H2813 C2842 0.930 . S
H2814 C2823 0.930 . S
N2815 Gd2784 2.661 1_556 S
N2815 C2819 1.350 . S
N2815 C2820 1.307 . S
C2816 H2808 0.930 . S
C2816 C2817 1.355 . S
C2816 C2818 1.412 . S
C2817 H2809 0.930 . S
C2817 C2816 1.355 . S
C2817 C2820 1.402 . S
C2818 C2816 1.412 . S
C2818 C2819 1.417 . S
C2818 C2842 1.431 . S
C2819 N2815 1.350 . S
C2819 C2818 1.417 . S
C2819 C2822 1.426 . S
C2820 H2803 0.930 . S
C2820 N2815 1.307 . S
C2820 C2817 1.402 . S
N2821 Gd2784 2.601 1_556 S
N2821 C2822 1.359 . S
N2821 C2825 1.334 . S
C2822 C2819 1.426 . S
C2822 N2821 1.359 . S
C2822 C2826 1.413 . S
C2823 H2814 0.930 . S
C2823 C2824 1.359 . S
C2823 C2825 1.394 . S
C2824 C2823 1.359 . S
C2824 C2826 1.391 . S
C2824 H2827 0.929 . S
C2825 H2807 0.930 . S
C2825 N2821 1.334 . S
C2825 C2823 1.394 . S
C2826 C2822 1.413 . S
C2826 C2824 1.391 . S
C2826 C2841 1.437 . S
H2827 C2824 0.929 . S
O2828 Gd2784 2.545 . S
O2828 C2843 1.258 . S
O2829 Gd2784 2.606 . S
O2829 Gd2785 2.362 . S
O2829 C2840 1.284 . S
O2830 Gd2785 2.324 . S
O2830 C2850 1.254 . S
O2831 Gd2784 2.429 . S
O2831 C2850 1.268 . S
O2832 Gd2784 2.545 . S
O2832 C2840 1.250 . S
O2833 Gd2784 2.412 . S
O2833 C2843 1.252 . S
O2834 Gd2785 2.545 . S
O2834 C2852 1.258 . S
O2835 Gd2784 2.388 . S
O2835 Gd2785 2.639 . S
O2835 C2851 1.247 1_554 S
O2836 Gd2784 2.324 . S
O2836 C2859 1.254 . S
O2837 Gd2785 2.429 . S
O2837 C2859 1.268 . S
O2838 Gd2785 2.545 1_556 S
O2838 C2851 1.250 . S
O2839 Gd2785 2.412 . S
O2839 C2852 1.252 . S
C2840 O2829 1.284 . S
C2840 O2832 1.250 . S
C2841 H2810 0.929 . S
C2841 C2826 1.437 . S
C2841 C2842 1.317 . S
C2842 H2813 0.930 . S
C2842 C2818 1.431 . S
C2842 C2841 1.317 . S
C2843 Gd2784 2.828 . S
C2843 O2828 1.258 . S
C2843 O2833 1.252 . S
C2843 C2844 1.497 . S
C2844 C2843 1.497 . S
C2844 C2845 1.395 . S
C2844 C2846 1.380 . S
C2845 C2844 1.395 . S
C2845 C2848 1.398 . S
C2845 H2860 0.930 . S
C2846 C2844 1.380 . S
C2846 C2847 1.391 . S
C2846 H2861 0.930 . S
C2847 C2846 1.391 . S
C2847 C2849 1.387 . S
C2848 C2845 1.398 . S
C2848 C2849 1.380 . S
C2848 H2862 0.930 . S
C2849 C2847 1.387 . S
C2849 C2848 1.380 . S
C2849 H2863 0.930 . S
C2850 O2830 1.254 . S
C2850 O2831 1.268 . S
C2851 O2835 1.247 1_556 S
C2851 O2838 1.250 . S
C2852 Gd2785 2.828 . S
C2852 O2834 1.258 . S
C2852 O2839 1.252 . S
C2852 C2853 1.497 . S
C2853 C2852 1.497 . S
C2853 C2854 1.395 . S
C2853 C2855 1.380 . S
C2854 C2853 1.395 . S
C2854 C2857 1.398 . S
C2854 H2864 0.930 . S
C2855 C2853 1.380 . S
C2855 C2856 1.422 . S
C2855 H2865 0.930 . S
C2856 C2855 1.422 . S
C2856 C2858 1.407 . S
C2857 C2854 1.398 . S
C2857 C2858 1.380 . S
C2857 H2866 0.930 . S
C2858 C2856 1.407 . S
C2858 C2857 1.380 . S
C2858 H2867 0.930 . S
C2859 O2836 1.254 . S
C2859 O2837 1.268 . S
H2860 C2845 0.930 . S
H2861 C2846 0.930 . S
H2862 C2848 0.930 . S
H2863 C2849 0.930 . S
H2864 C2854 0.930 . S
H2865 C2855 0.930 . S
H2866 C2857 0.930 . S
H2867 C2858 0.930 . S
Gd2868 N2899 2.661 . S
Gd2868 N2905 2.601 . S
Gd2868 O2912 2.545 . S
Gd2868 O2913 2.606 . S
Gd2868 O2915 2.429 . S
Gd2868 O2916 2.545 . S
Gd2868 O2917 2.412 . S
Gd2868 O2919 2.362 . S
Gd2868 O2920 2.324 . S
Gd2868 C2927 2.828 . S
Gd2869 N2878 2.661 . S
Gd2869 N2882 2.601 . S
Gd2869 O2913 2.362 . S
Gd2869 O2914 2.324 . S
Gd2869 O2918 2.545 . S
Gd2869 O2919 2.606 . S
Gd2869 O2921 2.429 . S
Gd2869 O2922 2.545 . S
Gd2869 O2923 2.412 . S
Gd2869 C2936 2.828 . S
C2870 C2873 1.417 . S
C2870 C2875 1.431 . S
C2870 C2876 1.412 . S
C2871 C2874 1.437 . S
C2871 C2875 1.317 . S
C2871 H2890 0.929 . S
C2872 C2873 1.426 . S
C2872 C2874 1.413 . S
C2872 N2882 1.359 . S
C2873 C2870 1.417 . S
C2873 C2872 1.426 . S
C2873 N2878 1.350 . S
C2874 C2871 1.437 . S
C2874 C2872 1.413 . S
C2874 C2884 1.391 . S
C2875 C2870 1.431 . S
C2875 C2871 1.317 . S
C2875 H2886 0.930 . S
C2876 C2870 1.412 . S
C2876 C2877 1.355 . S
C2876 H2888 0.930 . S
C2877 C2876 1.355 . S
C2877 C2879 1.402 . S
C2877 H2889 0.930 . S
N2878 Gd2869 2.661 . S
N2878 C2873 1.350 . S
N2878 C2879 1.307 . S
C2879 C2877 1.402 . S
C2879 N2878 1.307 . S
C2879 H2880 0.930 . S
H2880 C2879 0.930 . S
C2881 N2882 1.334 . S
C2881 C2883 1.394 . S
C2881 H2885 0.930 . S
N2882 Gd2869 2.601 . S
N2882 C2872 1.359 . S
N2882 C2881 1.334 . S
C2883 C2881 1.394 . S
C2883 C2884 1.359 . S
C2883 H2895 0.930 . S
C2884 C2874 1.391 . S
C2884 C2883 1.359 . S
C2884 H2896 0.929 . S
H2885 C2881 0.930 . S
H2886 C2875 0.930 . S
H2887 C2904 0.930 . S
H2888 C2876 0.930 . S
H2889 C2877 0.930 . S
H2890 C2871 0.929 . S
H2891 C2909 0.930 . S
H2892 C2900 0.930 . S
H2893 C2901 0.930 . S
H2894 C2925 0.929 . S
H2895 C2883 0.930 . S
H2896 C2884 0.929 . S
H2897 C2926 0.930 . S
H2898 C2907 0.930 . S
N2899 Gd2868 2.661 . S
N2899 C2903 1.350 . S
N2899 C2904 1.307 . S
C2900 H2892 0.930 . S
C2900 C2901 1.355 . S
C2900 C2902 1.412 . S
C2901 H2893 0.930 . S
C2901 C2900 1.355 . S
C2901 C2904 1.402 . S
C2902 C2900 1.412 . S
C2902 C2903 1.417 . S
C2902 C2926 1.431 . S
C2903 N2899 1.350 . S
C2903 C2902 1.417 . S
C2903 C2906 1.426 . S
C2904 H2887 0.930 . S
C2904 N2899 1.307 . S
C2904 C2901 1.402 . S
N2905 Gd2868 2.601 . S
N2905 C2906 1.359 . S
N2905 C2909 1.334 . S
C2906 C2903 1.426 . S
C2906 N2905 1.359 . S
C2906 C2910 1.413 . S
C2907 H2898 0.930 . S
C2907 C2908 1.359 . S
C2907 C2909 1.394 . S
C2908 C2907 1.359 . S
C2908 C2910 1.391 . S
C2908 H2911 0.929 . S
C2909 H2891 0.930 . S
C2909 N2905 1.334 . S
C2909 C2907 1.394 . S
C2910 C2906 1.413 . S
C2910 C2908 1.391 . S
C2910 C2925 1.437 . S
H2911 C2908 0.929 . S
O2912 Gd2868 2.545 . S
O2912 C2927 1.258 . S
O2913 Gd2868 2.606 . S
O2913 Gd2869 2.362 . S
O2913 C2924 1.284 . S
O2914 Gd2869 2.324 . S
O2914 C2934 1.254 . S
O2915 Gd2868 2.429 . S
O2915 C2934 1.268 . S
O2916 Gd2868 2.545 . S
O2916 C2924 1.250 . S
O2917 Gd2868 2.412 . S
O2917 C2927 1.252 . S
O2918 Gd2869 2.545 . S
O2918 C2936 1.258 . S
O2919 Gd2868 2.362 . S
O2919 Gd2869 2.606 . S
O2919 C2935 1.284 . S
O2920 Gd2868 2.324 . S
O2920 C2943 1.254 . S
O2921 Gd2869 2.429 . S
O2921 C2943 1.268 . S
O2922 Gd2869 2.545 . S
O2922 C2935 1.250 . S
O2923 Gd2869 2.412 . S
O2923 C2936 1.252 . S
C2924 O2913 1.284 . S
C2924 O2916 1.250 . S
C2925 H2894 0.929 . S
C2925 C2910 1.437 . S
C2925 C2926 1.317 . S
C2926 H2897 0.930 . S
C2926 C2902 1.431 . S
C2926 C2925 1.317 . S
C2927 Gd2868 2.828 . S
C2927 O2912 1.258 . S
C2927 O2917 1.252 . S
C2927 C2928 1.497 . S
C2928 C2927 1.497 . S
C2928 C2929 1.395 . S
C2928 C2930 1.380 . S
C2929 C2928 1.395 . S
C2929 C2932 1.398 . S
C2929 H2944 0.930 . S
C2930 C2928 1.380 . S
C2930 C2931 1.391 . S
C2930 H2945 0.930 . S
C2931 C2930 1.391 . S
C2931 C2933 1.387 . S
C2932 C2929 1.398 . S
C2932 C2933 1.380 . S
C2932 H2946 0.930 . S
C2933 C2931 1.387 . S
C2933 C2932 1.380 . S
C2933 H2947 0.930 . S
C2934 O2914 1.254 . S
C2934 O2915 1.268 . S
C2935 O2919 1.284 . S
C2935 O2922 1.250 . S
C2936 Gd2869 2.828 . S
C2936 O2918 1.258 . S
C2936 O2923 1.252 . S
C2936 C2937 1.497 . S
C2937 C2936 1.497 . S
C2937 C2938 1.395 . S
C2937 C2939 1.380 . S
C2938 C2937 1.395 . S
C2938 C2941 1.398 . S
C2938 H2948 0.930 . S
C2939 C2937 1.380 . S
C2939 C2940 1.391 . S
C2939 H2949 0.930 . S
C2940 C2939 1.391 . S
C2940 C2942 1.387 . S
C2941 C2938 1.398 . S
C2941 C2942 1.380 . S
C2941 H2950 0.930 . S
C2942 C2940 1.387 . S
C2942 C2941 1.380 . S
C2942 H2951 0.930 . S
C2943 O2920 1.254 . S
C2943 O2921 1.268 . S
H2944 C2929 0.930 . S
H2945 C2930 0.930 . S
H2946 C2932 0.930 . S
H2947 C2933 0.930 . S
H2948 C2938 0.930 . S
H2949 C2939 0.930 . S
H2950 C2941 0.930 . S
H2951 C2942 0.930 . S
Gd2952 N2983 2.661 . S
Gd2952 N2989 2.601 . S
Gd2952 O2996 2.545 . S
Gd2952 O2997 2.606 . S
Gd2952 O2999 2.429 . S
Gd2952 O3000 2.545 . S
Gd2952 O3001 2.412 . S
Gd2952 O3003 2.362 . S
Gd2952 O3004 2.324 . S
Gd2952 C3011 2.828 . S
Gd2953 N2962 2.661 . S
Gd2953 N2966 2.601 . S
Gd2953 O2997 2.362 . S
Gd2953 O2998 2.324 . S
Gd2953 O3002 2.545 . S
Gd2953 O3003 2.606 . S
Gd2953 O3005 2.429 . S
Gd2953 O3006 2.545 . S
Gd2953 O3007 2.412 . S
Gd2953 C3020 2.828 . S
C2954 C2957 1.417 . S
C2954 C2959 1.431 . S
C2954 C2960 1.412 . S
C2955 C2958 1.437 . S
C2955 C2959 1.317 . S
C2955 H2974 0.929 . S
C2956 C2957 1.426 . S
C2956 C2958 1.413 . S
C2956 N2966 1.359 . S
C2957 C2954 1.417 . S
C2957 C2956 1.426 . S
C2957 N2962 1.350 . S
C2958 C2955 1.437 . S
C2958 C2956 1.413 . S
C2958 C2968 1.391 . S
C2959 C2954 1.431 . S
C2959 C2955 1.317 . S
C2959 H2970 0.930 . S
C2960 C2954 1.412 . S
C2960 C2961 1.355 . S
C2960 H2972 0.930 . S
C2961 C2960 1.355 . S
C2961 C2963 1.402 . S
C2961 H2973 0.930 . S
N2962 Gd2953 2.661 . S
N2962 C2957 1.350 . S
N2962 C2963 1.307 . S
C2963 C2961 1.402 . S
C2963 N2962 1.307 . S
C2963 H2964 0.930 . S
H2964 C2963 0.930 . S
C2965 N2966 1.334 . S
C2965 C2967 1.394 . S
C2965 H2969 0.930 . S
N2966 Gd2953 2.601 . S
N2966 C2956 1.359 . S
N2966 C2965 1.334 . S
C2967 C2965 1.394 . S
C2967 C2968 1.359 . S
C2967 H2979 0.930 . S
C2968 C2958 1.391 . S
C2968 C2967 1.359 . S
C2968 H2980 0.929 . S
H2969 C2965 0.930 . S
H2970 C2959 0.930 . S
H2971 C2988 0.930 . S
H2972 C2960 0.930 . S
H2973 C2961 0.930 . S
H2974 C2955 0.929 . S
H2975 C2993 0.930 . S
H2976 C2984 0.930 . S
H2977 C2985 0.923 . S
H2978 C3009 0.929 . S
H2979 C2967 0.930 . S
H2980 C2968 0.929 . S
H2981 C3010 0.930 . S
H2982 C2991 0.930 . S
N2983 Gd2952 2.661 . S
N2983 C2987 1.350 . S
N2983 C2988 1.307 . S
C2984 H2976 0.930 . S
C2984 C2985 1.355 1_655 S
C2984 C2986 1.412 . S
C2985 H2977 0.923 . S
C2985 C2984 1.355 1_455 S
C2985 C2988 1.402 . S
C2986 C2984 1.412 . S
C2986 C2987 1.417 1_655 S
C2986 C3010 1.431 . S
C2987 N2983 1.350 . S
C2987 C2986 1.417 1_455 S
C2987 C2990 1.426 . S
C2988 H2971 0.930 . S
C2988 N2983 1.307 . S
C2988 C2985 1.402 . S
N2989 Gd2952 2.601 . S
N2989 C2990 1.359 . S
N2989 C2993 1.334 . S
C2990 C2987 1.426 . S
C2990 N2989 1.359 . S
C2990 C2994 1.413 1_455 S
C2991 H2982 0.930 . S
C2991 C2992 1.359 1_455 S
C2991 C2993 1.394 . S
C2992 C2991 1.359 1_655 S
C2992 C2994 1.391 . S
C2992 H2995 0.929 . S
C2993 H2975 0.930 . S
C2993 N2989 1.334 . S
C2993 C2991 1.394 . S
C2994 C2990 1.413 1_655 S
C2994 C2992 1.391 . S
C2994 C3009 1.437 . S
H2995 C2992 0.929 . S
O2996 Gd2952 2.545 . S
O2996 C3011 1.258 . S
O2997 Gd2952 2.606 . S
O2997 Gd2953 2.362 . S
O2997 C3008 1.284 . S
O2998 Gd2953 2.324 . S
O2998 C3018 1.254 . S
O2999 Gd2952 2.429 . S
O2999 C3018 1.268 . S
O3000 Gd2952 2.545 . S
O3000 C3008 1.250 . S
O3001 Gd2952 2.412 . S
O3001 C3011 1.252 . S
O3002 Gd2953 2.545 . S
O3002 C3020 1.258 . S
O3003 Gd2952 2.362 . S
O3003 Gd2953 2.606 . S
O3003 C3019 1.284 . S
O3004 Gd2952 2.324 . S
O3004 C3027 1.254 . S
O3005 Gd2953 2.429 . S
O3005 C3027 1.268 . S
O3006 Gd2953 2.545 . S
O3006 C3019 1.250 . S
O3007 Gd2953 2.412 . S
O3007 C3020 1.252 . S
C3008 O2997 1.284 . S
C3008 O3000 1.250 . S
C3009 H2978 0.929 . S
C3009 C2994 1.437 . S
C3009 C3010 1.317 . S
C3010 H2981 0.930 . S
C3010 C2986 1.431 . S
C3010 C3009 1.317 . S
C3011 Gd2952 2.828 . S
C3011 O2996 1.258 . S
C3011 O3001 1.252 . S
C3011 C3012 1.497 . S
C3012 C3011 1.497 . S
C3012 C3013 1.395 . S
C3012 C3014 1.380 . S
C3013 C3012 1.395 . S
C3013 C3016 1.398 . S
C3013 H3028 0.930 . S
C3014 C3012 1.380 . S
C3014 C3015 1.391 . S
C3014 H3029 0.930 . S
C3015 C3014 1.391 . S
C3015 C3017 1.387 . S
C3016 C3013 1.398 . S
C3016 C3017 1.380 . S
C3016 H3030 0.930 . S
C3017 C3015 1.387 . S
C3017 C3016 1.380 . S
C3017 H3031 0.930 . S
C3018 O2998 1.254 . S
C3018 O2999 1.268 . S
C3019 O3003 1.284 . S
C3019 O3006 1.250 . S
C3020 Gd2953 2.828 . S
C3020 O3002 1.258 . S
C3020 O3007 1.252 . S
C3020 C3021 1.497 . S
C3021 C3020 1.497 . S
C3021 C3022 1.395 . S
C3021 C3023 1.380 . S
C3022 C3021 1.395 . S
C3022 C3025 1.398 . S
C3022 H3032 0.930 . S
C3023 C3021 1.380 . S
C3023 C3024 1.391 . S
C3023 H3033 0.930 . S
C3024 C3023 1.391 . S
C3024 C3026 1.387 . S
C3025 C3022 1.398 . S
C3025 C3026 1.380 . S
C3025 H3034 0.930 . S
C3026 C3024 1.387 . S
C3026 C3025 1.380 . S
C3026 H3035 0.930 . S
C3027 O3004 1.254 . S
C3027 O3005 1.268 . S
H3028 C3013 0.930 . S
H3029 C3014 0.930 . S
H3030 C3016 0.930 . S
H3031 C3017 0.930 . S
H3032 C3022 0.930 . S
H3033 C3023 0.930 . S
H3034 C3025 0.930 . S
H3035 C3026 0.930 . S
Gd3036 N3067 2.661 . S
Gd3036 N3073 2.601 . S
Gd3036 O3080 2.545 . S
Gd3036 O3081 2.606 . S
Gd3036 O3083 2.429 . S
Gd3036 O3084 2.545 . S
Gd3036 O3085 2.412 . S
Gd3036 O3087 2.362 . S
Gd3036 O3088 2.324 . S
Gd3036 C3095 2.828 . S
Gd3037 N3046 2.661 . S
Gd3037 N3050 2.601 . S
Gd3037 O3081 2.362 . S
Gd3037 O3082 2.324 . S
Gd3037 O3086 2.545 . S
Gd3037 O3087 2.606 . S
Gd3037 O3089 2.429 . S
Gd3037 O3090 2.545 . S
Gd3037 O3091 2.412 . S
Gd3037 C3104 2.828 . S
C3038 C3041 1.417 . S
C3038 C3043 1.431 . S
C3038 C3044 1.412 . S
C3039 C3042 1.437 . S
C3039 C3043 1.317 . S
C3039 H3058 0.929 . S
C3040 C3041 1.426 . S
C3040 C3042 1.413 . S
C3040 N3050 1.359 . S
C3041 C3038 1.417 . S
C3041 C3040 1.426 . S
C3041 N3046 1.350 . S
C3042 C3039 1.437 . S
C3042 C3040 1.413 . S
C3042 C3052 1.391 . S
C3043 C3038 1.431 . S
C3043 C3039 1.317 . S
C3043 H3054 0.930 . S
C3044 C3038 1.412 . S
C3044 C3045 1.355 . S
C3044 H3056 0.930 . S
C3045 C3044 1.355 . S
C3045 C3047 1.402 . S
C3045 H3057 0.930 . S
N3046 Gd3037 2.661 . S
N3046 C3041 1.350 . S
N3046 C3047 1.307 . S
C3047 C3045 1.402 . S
C3047 N3046 1.307 . S
C3047 H3048 0.930 . S
H3048 C3047 0.930 . S
C3049 N3050 1.334 . S
C3049 C3051 1.394 . S
C3049 H3053 0.930 . S
N3050 Gd3037 2.601 . S
N3050 C3040 1.359 . S
N3050 C3049 1.334 . S
C3051 C3049 1.394 . S
C3051 C3052 1.359 . S
C3051 H3063 0.930 . S
C3052 C3042 1.391 . S
C3052 C3051 1.359 . S
C3052 H3064 0.929 . S
H3053 C3049 0.930 . S
H3054 C3043 0.930 . S
H3055 C3072 0.930 . S
H3056 C3044 0.930 . S
H3057 C3045 0.930 . S
H3058 C3039 0.929 . S
H3059 C3077 0.930 . S
H3060 C3068 0.930 . S
H3061 C3069 0.930 . S
H3062 C3093 0.929 . S
H3063 C3051 0.930 . S
H3064 C3052 0.929 . S
H3065 C3094 0.930 . S
H3066 C3075 0.930 . S
N3067 Gd3036 2.661 . S
N3067 C3071 1.350 . S
N3067 C3072 1.307 . S
C3068 H3060 0.930 . S
C3068 C3069 1.355 . S
C3068 C3070 1.412 . S
C3069 H3061 0.930 . S
C3069 C3068 1.355 . S
C3069 C3072 1.402 . S
C3070 C3068 1.412 . S
C3070 C3071 1.417 . S
C3070 C3094 1.431 . S
C3071 N3067 1.350 . S
C3071 C3070 1.417 . S
C3071 C3074 1.426 . S
C3072 H3055 0.930 . S
C3072 N3067 1.307 . S
C3072 C3069 1.402 . S
N3073 Gd3036 2.601 . S
N3073 C3074 1.359 . S
N3073 C3077 1.334 . S
C3074 C3071 1.426 . S
C3074 N3073 1.359 . S
C3074 C3078 1.413 . S
C3075 H3066 0.930 . S
C3075 C3076 1.359 . S
C3075 C3077 1.394 . S
C3076 C3075 1.359 . S
C3076 C3078 1.391 . S
C3076 H3079 0.929 . S
C3077 H3059 0.930 . S
C3077 N3073 1.334 . S
C3077 C3075 1.394 . S
C3078 C3074 1.413 . S
C3078 C3076 1.391 . S
C3078 C3093 1.437 . S
H3079 C3076 0.929 . S
O3080 Gd3036 2.545 . S
O3080 C3095 1.258 . S
O3081 Gd3036 2.606 . S
O3081 Gd3037 2.362 . S
O3081 C3092 1.284 . S
O3082 Gd3037 2.324 . S
O3082 C3102 1.254 . S
O3083 Gd3036 2.429 . S
O3083 C3102 1.268 . S
O3084 Gd3036 2.545 . S
O3084 C3092 1.250 . S
O3085 Gd3036 2.412 . S
O3085 C3095 1.252 . S
O3086 Gd3037 2.545 . S
O3086 C3104 1.258 . S
O3087 Gd3036 2.362 . S
O3087 Gd3037 2.606 . S
O3087 C3103 1.284 . S
O3088 Gd3036 2.324 . S
O3088 C3111 1.254 . S
O3089 Gd3037 2.429 . S
O3089 C3111 1.268 . S
O3090 Gd3037 2.545 . S
O3090 C3103 1.250 . S
O3091 Gd3037 2.412 . S
O3091 C3104 1.252 . S
C3092 O3081 1.284 . S
C3092 O3084 1.250 . S
C3093 H3062 0.929 . S
C3093 C3078 1.437 . S
C3093 C3094 1.317 . S
C3094 H3065 0.930 . S
C3094 C3070 1.431 . S
C3094 C3093 1.317 . S
C3095 Gd3036 2.828 . S
C3095 O3080 1.258 . S
C3095 O3085 1.252 . S
C3095 C3096 1.497 . S
C3096 C3095 1.497 . S
C3096 C3097 1.395 . S
C3096 C3098 1.380 . S
C3097 C3096 1.395 . S
C3097 C3100 1.398 . S
C3097 H3112 0.930 . S
C3098 C3096 1.380 . S
C3098 C3099 1.391 . S
C3098 H3113 0.930 . S
C3099 C3098 1.391 . S
C3099 C3101 1.387 . S
C3100 C3097 1.398 . S
C3100 C3101 1.380 . S
C3100 H3114 0.930 . S
C3101 C3099 1.387 . S
C3101 C3100 1.380 . S
C3101 H3115 0.930 . S
C3102 O3082 1.254 . S
C3102 O3083 1.268 . S
C3103 O3087 1.284 . S
C3103 O3090 1.250 . S
C3104 Gd3037 2.828 . S
C3104 O3086 1.258 . S
C3104 O3091 1.252 . S
C3104 C3105 1.497 . S
C3105 C3104 1.497 . S
C3105 C3106 1.395 . S
C3105 C3107 1.380 . S
C3106 C3105 1.395 . S
C3106 C3109 1.398 . S
C3106 H3116 0.930 . S
C3107 C3105 1.380 . S
C3107 C3108 1.391 . S
C3107 H3117 0.930 . S
C3108 C3107 1.391 . S
C3108 C3110 1.387 . S
C3109 C3106 1.398 . S
C3109 C3110 1.380 . S
C3109 H3118 0.930 . S
C3110 C3108 1.387 . S
C3110 C3109 1.380 . S
C3110 H3119 0.930 . S
C3111 O3088 1.254 . S
C3111 O3089 1.268 . S
H3112 C3097 0.930 . S
H3113 C3098 0.930 . S
H3114 C3100 0.930 . S
H3115 C3101 0.930 . S
H3116 C3106 0.930 . S
H3117 C3107 0.930 . S
H3118 C3109 0.930 . S
H3119 C3110 0.930 . S
Gd3120 N3151 2.661 . S
Gd3120 N3157 2.601 . S
Gd3120 O3164 2.545 . S
Gd3120 O3165 2.606 . S
Gd3120 O3167 2.429 . S
Gd3120 O3168 2.545 . S
Gd3120 O3169 2.412 . S
Gd3120 O3171 2.362 . S
Gd3120 O3172 2.324 . S
Gd3120 C3179 2.828 . S
Gd3121 N3130 2.661 . S
Gd3121 N3134 2.601 . S
Gd3121 O3165 2.362 . S
Gd3121 O3166 2.324 . S
Gd3121 O3170 2.545 . S
Gd3121 O3171 2.606 . S
Gd3121 O3173 2.429 . S
Gd3121 O3174 2.545 . S
Gd3121 O3175 2.412 . S
Gd3121 C3188 2.828 . S
C3122 C3125 1.417 . S
C3122 C3127 1.431 . S
C3122 C3128 1.412 . S
C3123 C3126 1.437 . S
C3123 C3127 1.317 . S
C3123 H3142 0.929 . S
C3124 C3125 1.426 . S
C3124 C3126 1.413 . S
C3124 N3134 1.359 . S
C3125 C3122 1.417 . S
C3125 C3124 1.426 . S
C3125 N3130 1.350 . S
C3126 C3123 1.437 . S
C3126 C3124 1.413 . S
C3126 C3136 1.391 . S
C3127 C3122 1.431 . S
C3127 C3123 1.317 . S
C3127 H3138 0.930 . S
C3128 C3122 1.412 . S
C3128 C3129 1.355 . S
C3128 H3140 0.930 . S
C3129 C3128 1.355 . S
C3129 C3131 1.402 . S
C3129 H3141 0.930 . S
N3130 Gd3121 2.661 . S
N3130 C3125 1.350 . S
N3130 C3131 1.307 . S
C3131 C3129 1.402 . S
C3131 N3130 1.307 . S
C3131 H3132 0.930 . S
H3132 C3131 0.930 . S
C3133 N3134 1.334 . S
C3133 C3135 1.394 . S
C3133 H3137 0.930 . S
N3134 Gd3121 2.601 . S
N3134 C3124 1.359 . S
N3134 C3133 1.334 . S
C3135 C3133 1.394 . S
C3135 C3136 1.359 . S
C3135 H3147 0.930 . S
C3136 C3126 1.391 . S
C3136 C3135 1.359 . S
C3136 H3148 0.929 . S
H3137 C3133 0.930 . S
H3138 C3127 0.930 . S
H3139 C3156 0.930 . S
H3140 C3128 0.930 . S
H3141 C3129 0.930 . S
H3142 C3123 0.929 . S
H3143 C3161 0.930 . S
H3144 C3152 0.930 . S
H3145 C3153 0.930 . S
H3146 C3177 0.929 . S
H3147 C3135 0.930 . S
H3148 C3136 0.929 . S
H3149 C3178 0.930 . S
H3150 C3159 0.930 . S
N3151 Gd3120 2.661 . S
N3151 C3155 1.350 . S
N3151 C3156 1.307 . S
C3152 H3144 0.930 . S
C3152 C3153 1.355 . S
C3152 C3154 1.412 . S
C3153 H3145 0.930 . S
C3153 C3152 1.355 . S
C3153 C3156 1.402 . S
C3154 C3152 1.412 . S
C3154 C3155 1.417 . S
C3154 C3178 1.431 . S
C3155 N3151 1.350 . S
C3155 C3154 1.417 . S
C3155 C3158 1.426 . S
C3156 H3139 0.930 . S
C3156 N3151 1.307 . S
C3156 C3153 1.402 . S
N3157 Gd3120 2.601 . S
N3157 C3158 1.359 . S
N3157 C3161 1.334 . S
C3158 C3155 1.426 . S
C3158 N3157 1.359 . S
C3158 C3162 1.413 . S
C3159 H3150 0.930 . S
C3159 C3160 1.359 . S
C3159 C3161 1.394 . S
C3160 C3159 1.359 . S
C3160 C3162 1.391 . S
C3160 H3163 0.929 . S
C3161 H3143 0.930 . S
C3161 N3157 1.334 . S
C3161 C3159 1.394 . S
C3162 C3158 1.413 . S
C3162 C3160 1.391 . S
C3162 C3177 1.437 . S
H3163 C3160 0.929 . S
O3164 Gd3120 2.545 . S
O3164 C3179 1.258 . S
O3165 Gd3120 2.606 . S
O3165 Gd3121 2.362 . S
O3165 C3176 1.284 . S
O3166 Gd3121 2.324 . S
O3166 C3186 1.254 . S
O3167 Gd3120 2.429 . S
O3167 C3186 1.268 . S
O3168 Gd3120 2.545 . S
O3168 C3176 1.250 . S
O3169 Gd3120 2.412 . S
O3169 C3179 1.252 . S
O3170 Gd3121 2.545 . S
O3170 C3188 1.258 . S
O3171 Gd3120 2.362 . S
O3171 Gd3121 2.606 . S
O3171 C3187 1.284 . S
O3172 Gd3120 2.324 . S
O3172 C3195 1.254 . S
O3173 Gd3121 2.429 . S
O3173 C3195 1.268 . S
O3174 Gd3121 2.545 . S
O3174 C3187 1.250 . S
O3175 Gd3121 2.412 . S
O3175 C3188 1.252 . S
C3176 O3165 1.284 . S
C3176 O3168 1.250 . S
C3177 H3146 0.929 . S
C3177 C3162 1.437 . S
C3177 C3178 1.317 . S
C3178 H3149 0.930 . S
C3178 C3154 1.431 . S
C3178 C3177 1.317 . S
C3179 Gd3120 2.828 . S
C3179 O3164 1.258 . S
C3179 O3169 1.252 . S
C3179 C3180 1.497 . S
C3180 C3179 1.497 . S
C3180 C3181 1.395 . S
C3180 C3182 1.380 . S
C3181 C3180 1.395 . S
C3181 C3184 1.398 . S
C3181 H3196 0.930 . S
C3182 C3180 1.380 . S
C3182 C3183 1.391 . S
C3182 H3197 0.930 . S
C3183 C3182 1.391 . S
C3183 C3185 1.387 . S
C3184 C3181 1.398 . S
C3184 C3185 1.380 . S
C3184 H3198 0.930 . S
C3185 C3183 1.387 . S
C3185 C3184 1.380 . S
C3185 H3199 0.930 . S
C3186 O3166 1.254 . S
C3186 O3167 1.268 . S
C3187 O3171 1.284 . S
C3187 O3174 1.250 . S
C3188 Gd3121 2.828 . S
C3188 O3170 1.258 . S
C3188 O3175 1.252 . S
C3188 C3189 1.497 . S
C3189 C3188 1.497 . S
C3189 C3190 1.395 . S
C3189 C3191 1.380 . S
C3190 C3189 1.395 . S
C3190 C3193 1.398 . S
C3190 H3200 0.930 . S
C3191 C3189 1.380 . S
C3191 C3192 1.391 . S
C3191 H3201 0.930 . S
C3192 C3191 1.391 . S
C3192 C3194 1.387 . S
C3193 C3190 1.398 . S
C3193 C3194 1.380 . S
C3193 H3202 0.930 . S
C3194 C3192 1.387 . S
C3194 C3193 1.380 . S
C3194 H3203 0.930 . S
C3195 O3172 1.254 . S
C3195 O3173 1.268 . S
H3196 C3181 0.930 . S
H3197 C3182 0.930 . S
H3198 C3184 0.930 . S
H3199 C3185 0.930 . S
H3200 C3190 0.930 . S
H3201 C3191 0.930 . S
H3202 C3193 0.930 . S
H3203 C3194 0.930 . S
Gd3204 N3235 2.661 . S
Gd3204 N3241 2.601 . S
Gd3204 O3248 2.545 . S
Gd3204 O3249 2.606 . S
Gd3204 O3251 2.429 . S
Gd3204 O3252 2.545 . S
Gd3204 O3253 2.412 . S
Gd3204 O3255 2.362 . S
Gd3204 O3256 2.324 . S
Gd3204 C3263 2.828 . S
Gd3205 N3214 2.661 . S
Gd3205 N3218 2.601 . S
Gd3205 O3249 2.362 . S
Gd3205 O3250 2.324 . S
Gd3205 O3254 2.545 . S
Gd3205 O3255 2.606 . S
Gd3205 O3257 2.429 . S
Gd3205 O3258 2.545 . S
Gd3205 O3259 2.412 . S
Gd3205 C3272 2.828 . S
C3206 C3209 1.417 . S
C3206 C3211 1.431 . S
C3206 C3212 1.412 . S
C3207 C3210 1.437 . S
C3207 C3211 1.317 . S
C3207 H3226 0.929 . S
C3208 C3209 1.426 . S
C3208 C3210 1.413 . S
C3208 N3218 1.359 . S
C3209 C3206 1.417 . S
C3209 C3208 1.426 . S
C3209 N3214 1.350 . S
C3210 C3207 1.437 . S
C3210 C3208 1.413 . S
C3210 C3220 1.391 . S
C3211 C3206 1.431 . S
C3211 C3207 1.317 . S
C3211 H3222 0.930 . S
C3212 C3206 1.412 . S
C3212 C3213 1.355 . S
C3212 H3224 0.930 . S
C3213 C3212 1.355 . S
C3213 C3215 1.402 . S
C3213 H3225 0.930 . S
N3214 Gd3205 2.661 . S
N3214 C3209 1.350 . S
N3214 C3215 1.307 . S
C3215 C3213 1.402 . S
C3215 N3214 1.307 . S
C3215 H3216 0.930 . S
H3216 C3215 0.930 . S
C3217 N3218 1.334 . S
C3217 C3219 1.394 . S
C3217 H3221 0.930 . S
N3218 Gd3205 2.601 . S
N3218 C3208 1.359 . S
N3218 C3217 1.334 . S
C3219 C3217 1.394 . S
C3219 C3220 1.359 . S
C3219 H3231 0.930 . S
C3220 C3210 1.391 . S
C3220 C3219 1.359 . S
C3220 H3232 0.929 . S
H3221 C3217 0.930 . S
H3222 C3211 0.930 . S
H3223 C3240 0.930 . S
H3224 C3212 0.930 . S
H3225 C3213 0.930 . S
H3226 C3207 0.929 . S
H3227 C3245 0.930 . S
H3228 C3236 0.930 . S
H3229 C3237 0.930 . S
H3230 C3261 0.929 . S
H3231 C3219 0.930 . S
H3232 C3220 0.929 . S
H3233 C3262 0.930 . S
H3234 C3243 0.930 . S
N3235 Gd3204 2.661 . S
N3235 C3239 1.350 . S
N3235 C3240 1.307 . S
C3236 H3228 0.930 . S
C3236 C3237 1.355 . S
C3236 C3238 1.412 . S
C3237 H3229 0.930 . S
C3237 C3236 1.355 . S
C3237 C3240 1.402 . S
C3238 C3236 1.412 . S
C3238 C3239 1.417 . S
C3238 C3262 1.431 . S
C3239 N3235 1.350 . S
C3239 C3238 1.417 . S
C3239 C3242 1.426 . S
C3240 H3223 0.930 . S
C3240 N3235 1.307 . S
C3240 C3237 1.402 . S
N3241 Gd3204 2.601 . S
N3241 C3242 1.359 . S
N3241 C3245 1.334 . S
C3242 C3239 1.426 . S
C3242 N3241 1.359 . S
C3242 C3246 1.413 . S
C3243 H3234 0.930 . S
C3243 C3244 1.359 . S
C3243 C3245 1.394 . S
C3244 C3243 1.359 . S
C3244 C3246 1.391 . S
C3244 H3247 0.929 . S
C3245 H3227 0.930 . S
C3245 N3241 1.334 . S
C3245 C3243 1.394 . S
C3246 C3242 1.413 . S
C3246 C3244 1.391 . S
C3246 C3261 1.437 . S
H3247 C3244 0.929 . S
O3248 Gd3204 2.545 . S
O3248 C3263 1.258 . S
O3249 Gd3204 2.606 . S
O3249 Gd3205 2.362 . S
O3249 C3260 1.284 . S
O3250 Gd3205 2.324 . S
O3250 C3270 1.254 . S
O3251 Gd3204 2.429 . S
O3251 C3270 1.268 . S
O3252 Gd3204 2.545 . S
O3252 C3260 1.250 . S
O3253 Gd3204 2.412 . S
O3253 C3263 1.252 . S
O3254 Gd3205 2.545 . S
O3254 C3272 1.258 . S
O3255 Gd3204 2.362 . S
O3255 Gd3205 2.606 . S
O3255 C3271 1.284 . S
O3256 Gd3204 2.324 . S
O3256 C3279 1.254 . S
O3257 Gd3205 2.429 . S
O3257 C3279 1.268 . S
O3258 Gd3205 2.545 . S
O3258 C3271 1.250 . S
O3259 Gd3205 2.412 . S
O3259 C3272 1.252 . S
C3260 O3249 1.284 . S
C3260 O3252 1.250 . S
C3261 H3230 0.929 . S
C3261 C3246 1.437 . S
C3261 C3262 1.317 . S
C3262 H3233 0.930 . S
C3262 C3238 1.431 . S
C3262 C3261 1.317 . S
C3263 Gd3204 2.828 . S
C3263 O3248 1.258 . S
C3263 O3253 1.252 . S
C3263 C3264 1.497 . S
C3264 C3263 1.497 . S
C3264 C3265 1.395 . S
C3264 C3266 1.380 . S
C3265 C3264 1.395 . S
C3265 C3268 1.398 . S
C3265 H3280 0.930 . S
C3266 C3264 1.380 . S
C3266 C3267 1.391 . S
C3266 H3281 0.930 . S
C3267 C3266 1.391 . S
C3267 C3269 1.387 . S
C3268 C3265 1.398 . S
C3268 C3269 1.380 . S
C3268 H3282 0.930 . S
C3269 C3267 1.387 . S
C3269 C3268 1.380 . S
C3269 H3283 0.930 . S
C3270 O3250 1.254 . S
C3270 O3251 1.268 . S
C3271 O3255 1.284 . S
C3271 O3258 1.250 . S
C3272 Gd3205 2.828 . S
C3272 O3254 1.258 . S
C3272 O3259 1.252 . S
C3272 C3273 1.497 . S
C3273 C3272 1.497 . S
C3273 C3274 1.395 . S
C3273 C3275 1.380 . S
C3274 C3273 1.395 . S
C3274 C3277 1.398 . S
C3274 H3284 0.930 . S
C3275 C3273 1.380 . S
C3275 C3276 1.391 . S
C3275 H3285 0.930 . S
C3276 C3275 1.391 . S
C3276 C3278 1.387 . S
C3277 C3274 1.398 . S
C3277 C3278 1.380 . S
C3277 H3286 0.930 . S
C3278 C3276 1.387 . S
C3278 C3277 1.380 . S
C3278 H3287 0.930 . S
C3279 O3256 1.254 . S
C3279 O3257 1.268 . S
H3280 C3265 0.930 . S
H3281 C3266 0.930 . S
H3282 C3268 0.930 . S
H3283 C3269 0.930 . S
H3284 C3274 0.930 . S
H3285 C3275 0.930 . S
H3286 C3277 0.930 . S
H3287 C3278 0.930 . S
Gd3288 N3319 2.661 . S
Gd3288 N3325 2.601 . S
Gd3288 O3332 2.545 . S
Gd3288 O3333 2.606 . S
Gd3288 O3335 2.429 . S
Gd3288 O3336 2.545 . S
Gd3288 O3337 2.412 . S
Gd3288 O3339 2.362 . S
Gd3288 O3340 2.324 . S
Gd3288 C3347 2.828 . S
Gd3289 N3298 2.661 . S
Gd3289 N3302 2.601 . S
Gd3289 O3333 2.362 . S
Gd3289 O3334 2.324 . S
Gd3289 O3338 2.545 . S
Gd3289 O3339 2.606 . S
Gd3289 O3341 2.429 . S
Gd3289 O3342 2.545 . S
Gd3289 O3343 2.412 . S
Gd3289 C3356 2.828 . S
C3290 C3293 1.417 . S
C3290 C3295 1.431 . S
C3290 C3296 1.412 . S
C3291 C3294 1.437 . S
C3291 C3295 1.317 . S
C3291 H3310 0.929 . S
C3292 C3293 1.426 . S
C3292 C3294 1.413 . S
C3292 N3302 1.359 . S
C3293 C3290 1.417 . S
C3293 C3292 1.426 . S
C3293 N3298 1.350 . S
C3294 C3291 1.437 . S
C3294 C3292 1.413 . S
C3294 C3304 1.391 . S
C3295 C3290 1.431 . S
C3295 C3291 1.317 . S
C3295 H3306 0.930 . S
C3296 C3290 1.412 . S
C3296 C3297 1.355 . S
C3296 H3308 0.930 . S
C3297 C3296 1.355 . S
C3297 C3299 1.402 . S
C3297 H3309 0.930 . S
N3298 Gd3289 2.661 . S
N3298 C3293 1.350 . S
N3298 C3299 1.307 . S
C3299 C3297 1.402 . S
C3299 N3298 1.307 . S
C3299 H3300 0.930 . S
H3300 C3299 0.930 . S
C3301 N3302 1.334 . S
C3301 C3303 1.394 . S
C3301 H3305 0.930 . S
N3302 Gd3289 2.601 . S
N3302 C3292 1.359 . S
N3302 C3301 1.334 . S
C3303 C3301 1.394 . S
C3303 C3304 1.359 . S
C3303 H3315 0.930 . S
C3304 C3294 1.391 . S
C3304 C3303 1.359 . S
C3304 H3316 0.929 . S
H3305 C3301 0.930 . S
H3306 C3295 0.930 . S
H3307 C3324 0.930 . S
H3308 C3296 0.930 . S
H3309 C3297 0.930 . S
H3310 C3291 0.929 . S
H3311 C3329 0.930 . S
H3312 C3320 0.930 . S
H3313 C3321 0.930 . S
H3314 C3345 0.929 . S
H3315 C3303 0.930 . S
H3316 C3304 0.929 . S
H3317 C3346 0.930 . S
H3318 C3327 0.930 . S
N3319 Gd3288 2.661 . S
N3319 C3323 1.350 . S
N3319 C3324 1.307 . S
C3320 H3312 0.930 . S
C3320 C3321 1.355 . S
C3320 C3322 1.412 . S
C3321 H3313 0.930 . S
C3321 C3320 1.355 . S
C3321 C3324 1.402 . S
C3322 C3320 1.412 . S
C3322 C3323 1.417 . S
C3322 C3346 1.431 . S
C3323 N3319 1.350 . S
C3323 C3322 1.417 . S
C3323 C3326 1.426 . S
C3324 H3307 0.930 . S
C3324 N3319 1.307 . S
C3324 C3321 1.402 . S
N3325 Gd3288 2.601 . S
N3325 C3326 1.359 . S
N3325 C3329 1.334 . S
C3326 C3323 1.426 . S
C3326 N3325 1.359 . S
C3326 C3330 1.413 . S
C3327 H3318 0.930 . S
C3327 C3328 1.359 . S
C3327 C3329 1.394 . S
C3328 C3327 1.359 . S
C3328 C3330 1.391 . S
C3328 H3331 0.929 . S
C3329 H3311 0.930 . S
C3329 N3325 1.334 . S
C3329 C3327 1.394 . S
C3330 C3326 1.413 . S
C3330 C3328 1.391 . S
C3330 C3345 1.437 . S
H3331 C3328 0.929 . S
O3332 Gd3288 2.545 . S
O3332 C3347 1.258 . S
O3333 Gd3288 2.606 . S
O3333 Gd3289 2.362 . S
O3333 C3344 1.284 . S
O3334 Gd3289 2.324 . S
O3334 C3354 1.254 . S
O3335 Gd3288 2.429 . S
O3335 C3354 1.268 . S
O3336 Gd3288 2.545 . S
O3336 C3344 1.250 . S
O3337 Gd3288 2.412 . S
O3337 C3347 1.252 . S
O3338 Gd3289 2.545 . S
O3338 C3356 1.258 . S
O3339 Gd3288 2.362 . S
O3339 Gd3289 2.606 . S
O3339 C3355 1.284 . S
O3340 Gd3288 2.324 . S
O3340 C3363 1.254 . S
O3341 Gd3289 2.429 . S
O3341 C3363 1.268 . S
O3342 Gd3289 2.545 . S
O3342 C3355 1.250 . S
O3343 Gd3289 2.412 . S
O3343 C3356 1.252 . S
C3344 O3333 1.284 . S
C3344 O3336 1.250 . S
C3345 H3314 0.929 . S
C3345 C3330 1.437 . S
C3345 C3346 1.317 . S
C3346 H3317 0.930 . S
C3346 C3322 1.431 . S
C3346 C3345 1.317 . S
C3347 Gd3288 2.828 . S
C3347 O3332 1.258 . S
C3347 O3337 1.252 . S
C3347 C3348 1.497 . S
C3348 C3347 1.497 . S
C3348 C3349 1.395 . S
C3348 C3350 1.380 . S
C3349 C3348 1.395 . S
C3349 C3352 1.398 . S
C3349 H3364 0.930 . S
C3350 C3348 1.380 . S
C3350 C3351 1.391 . S
C3350 H3365 0.930 . S
C3351 C3350 1.391 . S
C3351 C3353 1.387 . S
C3352 C3349 1.398 . S
C3352 C3353 1.380 . S
C3352 H3366 0.930 . S
C3353 C3351 1.387 . S
C3353 C3352 1.380 . S
C3353 H3367 0.930 . S
C3354 O3334 1.254 . S
C3354 O3335 1.268 . S
C3355 O3339 1.284 . S
C3355 O3342 1.250 . S
C3356 Gd3289 2.828 . S
C3356 O3338 1.258 . S
C3356 O3343 1.252 . S
C3356 C3357 1.497 . S
C3357 C3356 1.497 . S
C3357 C3358 1.395 . S
C3357 C3359 1.380 . S
C3358 C3357 1.395 . S
C3358 C3361 1.398 . S
C3358 H3368 0.930 . S
C3359 C3357 1.380 . S
C3359 C3360 1.391 . S
C3359 H3369 0.930 . S
C3360 C3359 1.391 . S
C3360 C3362 1.387 . S
C3361 C3358 1.398 . S
C3361 C3362 1.380 . S
C3361 H3370 0.930 . S
C3362 C3360 1.387 . S
C3362 C3361 1.380 . S
C3362 H3371 0.930 . S
C3363 O3340 1.254 . S
C3363 O3341 1.268 . S
H3364 C3349 0.930 . S
H3365 C3350 0.930 . S
H3366 C3352 0.930 . S
H3367 C3353 0.930 . S
H3368 C3358 0.930 . S
H3369 C3359 0.930 . S
H3370 C3361 0.930 . S
H3371 C3362 0.930 . S
Gd3372 N3403 2.661 . S
Gd3372 N3409 2.601 . S
Gd3372 O3416 2.545 . S
Gd3372 O3417 2.606 . S
Gd3372 O3419 2.429 . S
Gd3372 O3420 2.545 . S
Gd3372 O3421 2.412 1_455 S
Gd3372 O3423 2.362 . S
Gd3372 O3424 2.315 1_554 S
Gd3372 C3431 2.828 1_455 S
Gd3373 N3382 2.661 . S
Gd3373 N3386 2.601 1_554 S
Gd3373 O3417 2.362 . S
Gd3373 O3418 2.324 . S
Gd3373 O3422 2.545 1_554 S
Gd3373 O3423 2.606 . S
Gd3373 O3425 2.429 1_554 S
Gd3373 O3426 2.545 . S
Gd3373 O3427 2.412 . S
Gd3373 C3440 2.829 . S
C3374 C3377 1.417 . S
C3374 C3379 1.431 . S
C3374 C3380 1.412 . S
C3375 C3378 1.437 . S
C3375 C3379 1.317 1_556 S
C3375 H3394 0.929 . S
C3376 C3377 1.426 1_556 S
C3376 C3378 1.413 . S
C3376 N3386 1.359 . S
C3377 C3374 1.417 . S
C3377 C3376 1.426 1_554 S
C3377 N3382 1.350 . S
C3378 C3375 1.437 . S
C3378 C3376 1.413 . S
C3378 C3388 1.391 . S
C3379 C3374 1.431 . S
C3379 C3375 1.317 1_554 S
C3379 H3390 0.930 . S
C3380 C3374 1.412 . S
C3380 C3381 1.355 . S
C3380 H3392 0.930 . S
C3381 C3380 1.355 . S
C3381 C3383 1.402 . S
C3381 H3393 0.930 . S
N3382 Gd3373 2.661 . S
N3382 C3377 1.350 . S
N3382 C3383 1.307 . S
C3383 C3381 1.402 . S
C3383 N3382 1.307 . S
C3383 H3384 0.930 . S
H3384 C3383 0.930 . S
C3385 N3386 1.334 . S
C3385 C3387 1.394 . S
C3385 H3389 0.930 . S
N3386 Gd3373 2.601 1_556 S
N3386 C3376 1.359 . S
N3386 C3385 1.334 . S
C3387 C3385 1.394 . S
C3387 C3388 1.359 . S
C3387 H3399 0.930 . S
C3388 C3378 1.391 . S
C3388 C3387 1.359 . S
C3388 H3400 0.929 . S
H3389 C3385 0.930 . S
H3390 C3379 0.930 . S
H3391 C3408 0.930 . S
H3392 C3380 0.930 . S
H3393 C3381 0.930 . S
H3394 C3375 0.929 . S
H3395 C3413 0.930 . S
H3396 C3404 0.930 . S
H3397 C3405 0.930 . S
H3398 C3429 0.929 . S
H3399 C3387 0.930 . S
H3400 C3388 0.929 . S
H3401 C3430 0.930 . S
H3402 C3411 0.930 . S
N3403 Gd3372 2.661 . S
N3403 C3407 1.350 1_455 S
N3403 C3408 1.307 1_554 S
C3404 H3396 0.930 . S
C3404 C3405 1.355 . S
C3404 C3406 1.412 1_556 S
C3405 H3397 0.930 . S
C3405 C3404 1.355 . S
C3405 C3408 1.402 1_655 S
C3406 C3404 1.412 1_554 S
C3406 C3407 1.417 . S
C3406 C3430 1.431 . S
C3407 N3403 1.350 1_655 S
C3407 C3406 1.417 . S
C3407 C3410 1.427 1_655 S
C3408 H3391 0.930 . S
C3408 N3403 1.307 1_556 S
C3408 C3405 1.402 1_455 S
N3409 Gd3372 2.601 . S
N3409 C3410 1.357 . S
N3409 C3413 1.334 . S
C3410 C3407 1.427 1_455 S
C3410 N3409 1.357 . S
C3410 C3414 1.415 1_455 S
C3411 H3402 0.930 . S
C3411 C3412 1.359 1_455 S
C3411 C3413 1.394 . S
C3412 C3411 1.359 1_655 S
C3412 C3414 1.391 . S
C3412 H3415 0.929 . S
C3413 H3395 0.930 . S
C3413 N3409 1.334 . S
C3413 C3411 1.394 . S
C3414 C3410 1.415 1_655 S
C3414 C3412 1.391 . S
C3414 C3429 1.437 . S
H3415 C3412 0.929 . S
O3416 Gd3372 2.545 . S
O3416 C3431 1.258 1_455 S
O3417 Gd3372 2.606 . S
O3417 Gd3373 2.362 . S
O3417 C3428 1.284 . S
O3418 Gd3373 2.324 . S
O3418 C3438 1.254 . S
O3419 Gd3372 2.429 . S
O3419 C3438 1.268 . S
O3420 Gd3372 2.545 . S
O3420 C3428 1.250 . S
O3421 Gd3372 2.412 1_655 S
O3421 C3431 1.252 . S
O3422 Gd3373 2.545 1_556 S
O3422 C3440 1.256 1_556 S
O3423 Gd3372 2.362 . S
O3423 Gd3373 2.606 . S
O3423 C3439 1.284 . S
O3424 Gd3372 2.315 1_556 S
O3424 C3447 1.261 . S
O3425 Gd3373 2.429 1_556 S
O3425 C3447 1.268 . S
O3426 Gd3373 2.545 . S
O3426 C3439 1.250 . S
O3427 Gd3373 2.412 . S
O3427 C3440 1.254 . S
C3428 O3417 1.284 . S
C3428 O3420 1.250 . S
C3429 H3398 0.929 . S
C3429 C3414 1.437 . S
C3429 C3430 1.317 . S
C3430 H3401 0.930 . S
C3430 C3406 1.431 . S
C3430 C3429 1.317 . S
C3431 Gd3372 2.828 1_655 S
C3431 O3416 1.258 1_655 S
C3431 O3421 1.252 . S
C3431 C3432 1.497 . S
C3432 C3431 1.497 . S
C3432 C3433 1.395 . S
C3432 C3434 1.380 . S
C3433 C3432 1.395 . S
C3433 C3436 1.398 . S
C3433 H3448 0.930 . S
C3434 C3432 1.380 . S
C3434 C3435 1.391 . S
C3434 H3449 0.930 . S
C3435 C3434 1.391 . S
C3435 C3437 1.387 . S
C3436 C3433 1.398 . S
C3436 C3437 1.380 . S
C3436 H3450 0.930 . S
C3437 C3435 1.387 . S
C3437 C3436 1.380 . S
C3437 H3451 0.930 . S
C3438 O3418 1.254 . S
C3438 O3419 1.268 . S
C3439 O3423 1.284 . S
C3439 O3426 1.250 . S
C3440 Gd3373 2.829 . S
C3440 O3422 1.256 1_554 S
C3440 O3427 1.254 . S
C3440 C3441 1.497 1_554 S
C3441 C3440 1.497 1_556 S
C3441 C3442 1.395 . S
C3441 C3443 1.380 1_556 S
C3442 C3441 1.395 . S
C3442 C3445 1.398 . S
C3442 H3452 0.930 . S
C3443 C3441 1.380 1_554 S
C3443 C3444 1.391 . S
C3443 H3453 0.930 . S
C3444 C3443 1.391 . S
C3444 C3446 1.387 1_554 S
C3445 C3442 1.398 . S
C3445 C3446 1.380 . S
C3445 H3454 0.930 . S
C3446 C3444 1.387 1_556 S
C3446 C3445 1.380 . S
C3446 H3455 0.930 . S
C3447 O3424 1.261 . S
C3447 O3425 1.268 . S
H3448 C3433 0.930 . S
H3449 C3434 0.930 . S
H3450 C3436 0.930 . S
H3451 C3437 0.930 . S
H3452 C3442 0.930 . S
H3453 C3443 0.930 . S
H3454 C3445 0.930 . S
H3455 C3446 0.930 . S
H3456 C3464 0.929 1_655 S
H3457 C3466 0.930 1_655 S
H3458 C3468 0.934 1_554 S
H3459 C3471 0.929 . S
H3460 C3474 0.930 . S
H3461 C3476 0.960 . S
H3462 C3476 0.960 . S
H3463 C3476 0.960 . S
C3464 H3456 0.929 1_455 S
C3464 C3465 1.377 . S
C3464 C3466 1.384 . S
C3465 C3464 1.377 . S
C3465 C3471 1.390 . S
C3466 H3457 0.930 1_455 S
C3466 C3464 1.384 . S
C3466 C3467 1.372 . S
C3467 C3466 1.372 . S
C3467 C3468 1.400 . S
C3467 C3472 1.490 . S
C3468 H3458 0.934 1_556 S
C3468 C3467 1.400 . S
C3468 C3471 1.386 . S
H3469 C3485 0.930 . S
H3470 C3486 0.931 . S
C3471 H3459 0.929 . S
C3471 C3465 1.390 . S
C3471 C3468 1.386 . S
C3472 C3467 1.490 . S
C3472 C3474 1.395 . S
C3472 C3475 1.403 1_556 S
H3473 C3479 0.930 . S
C3474 H3460 0.930 . S
C3474 C3472 1.395 . S
C3474 C3477 1.403 . S
C3475 C3472 1.403 1_554 S
C3475 C3476 1.524 . S
C3475 C3479 1.400 . S
C3476 H3461 0.960 . S
C3476 H3462 0.960 . S
C3476 H3463 0.960 . S
C3476 C3475 1.524 . S
C3477 C3474 1.403 . S
C3477 C3478 1.392 . S
C3477 C3481 1.495 . S
C3478 C3477 1.392 . S
C3478 C3479 1.385 1_556 S
C3478 C3480 1.478 1_556 S
C3479 H3473 0.930 . S
C3479 C3475 1.400 . S
C3479 C3478 1.385 1_554 S
C3480 C3478 1.478 1_554 S
C3480 C3482 1.380 . S
C3480 C3486 1.383 . S
C3481 C3477 1.495 . S
C3481 H3487 0.959 . S
C3481 H3488 0.961 . S
C3481 H3489 0.960 . S
C3482 C3480 1.380 . S
C3482 C3483 1.407 . S
C3482 H3490 0.919 1_554 S
C3483 C3482 1.407 . S
C3483 C3484 1.383 . S
C3483 H3491 0.929 . S
C3484 C3483 1.383 . S
C3484 C3485 1.377 . S
C3485 H3469 0.930 . S
C3485 C3484 1.377 . S
C3485 C3486 1.379 . S
C3486 H3470 0.931 . S
C3486 C3480 1.383 . S
C3486 C3485 1.379 . S
H3487 C3481 0.959 . S
H3488 C3481 0.961 . S
H3489 C3481 0.960 . S
H3490 C3482 0.919 1_556 S
H3491 C3483 0.929 . S
H3492 C3500 0.929 . S
H3493 C3502 0.930 . S
H3494 C3504 0.930 . S
H3495 C3507 0.929 . S
H3496 C3510 0.930 . S
H3497 C3512 0.960 . S
H3498 C3512 0.960 . S
H3499 C3512 0.960 . S
C3500 H3492 0.929 . S
C3500 C3501 1.377 . S
C3500 C3502 1.384 . S
C3501 C3500 1.377 . S
C3501 C3507 1.390 . S
C3502 H3493 0.930 . S
C3502 C3500 1.384 . S
C3502 C3503 1.372 . S
C3503 C3502 1.372 . S
C3503 C3504 1.400 . S
C3503 C3508 1.490 . S
C3504 H3494 0.930 . S
C3504 C3503 1.400 . S
C3504 C3507 1.386 . S
H3505 C3521 0.930 . S
H3506 C3522 0.931 . S
C3507 H3495 0.929 . S
C3507 C3501 1.390 . S
C3507 C3504 1.386 . S
C3508 C3503 1.490 . S
C3508 C3510 1.395 . S
C3508 C3511 1.403 . S
H3509 C3515 0.930 . S
C3510 H3496 0.930 . S
C3510 C3508 1.395 . S
C3510 C3513 1.403 . S
C3511 C3508 1.403 . S
C3511 C3512 1.524 . S
C3511 C3515 1.400 . S
C3512 H3497 0.960 . S
C3512 H3498 0.960 . S
C3512 H3499 0.960 . S
C3512 C3511 1.524 . S
C3513 C3510 1.403 . S
C3513 C3514 1.392 . S
C3513 C3517 1.495 . S
C3514 C3513 1.392 . S
C3514 C3515 1.385 . S
C3514 C3516 1.478 . S
C3515 H3509 0.930 . S
C3515 C3511 1.400 . S
C3515 C3514 1.385 . S
C3516 C3514 1.478 . S
C3516 C3518 1.381 . S
C3516 C3522 1.383 . S
C3517 C3513 1.495 . S
C3517 H3523 0.959 . S
C3517 H3524 0.961 . S
C3517 H3525 0.960 . S
C3518 C3516 1.381 . S
C3518 C3519 1.394 . S
C3518 H3526 0.930 . S
C3519 C3518 1.394 . S
C3519 C3520 1.383 . S
C3519 H3527 0.929 . S
C3520 C3519 1.383 . S
C3520 C3521 1.377 . S
C3521 H3505 0.930 . S
C3521 C3520 1.377 . S
C3521 C3522 1.379 . S
C3522 H3506 0.931 . S
C3522 C3516 1.383 . S
C3522 C3521 1.379 . S
H3523 C3517 0.959 . S
H3524 C3517 0.961 . S
H3525 C3517 0.960 . S
H3526 C3518 0.930 . S
H3527 C3519 0.929 . S
H3528 C3536 0.929 . S
H3529 C3538 0.930 . S
H3530 C3540 0.930 . S
H3531 C3543 0.929 . S
H3532 C3546 0.930 . S
H3533 C3548 0.960 . S
H3534 C3548 0.960 . S
H3535 C3548 0.960 . S
C3536 H3528 0.929 . S
C3536 C3537 1.377 . S
C3536 C3538 1.384 . S
C3537 C3536 1.377 . S
C3537 C3543 1.390 . S
C3538 H3529 0.930 . S
C3538 C3536 1.384 . S
C3538 C3539 1.372 . S
C3539 C3538 1.372 . S
C3539 C3540 1.400 . S
C3539 C3544 1.490 . S
C3540 H3530 0.930 . S
C3540 C3539 1.400 . S
C3540 C3543 1.386 . S
H3541 C3557 0.930 . S
H3542 C3558 0.931 . S
C3543 H3531 0.929 . S
C3543 C3537 1.390 . S
C3543 C3540 1.386 . S
C3544 C3539 1.490 . S
C3544 C3546 1.395 . S
C3544 C3547 1.403 . S
H3545 C3551 0.930 . S
C3546 H3532 0.930 . S
C3546 C3544 1.395 . S
C3546 C3549 1.403 . S
C3547 C3544 1.403 . S
C3547 C3548 1.524 . S
C3547 C3551 1.400 . S
C3548 H3533 0.960 . S
C3548 H3534 0.960 . S
C3548 H3535 0.960 . S
C3548 C3547 1.524 . S
C3549 C3546 1.403 . S
C3549 C3550 1.392 . S
C3549 C3553 1.495 . S
C3550 C3549 1.392 . S
C3550 C3551 1.385 . S
C3550 C3552 1.478 . S
C3551 H3545 0.930 . S
C3551 C3547 1.400 . S
C3551 C3550 1.385 . S
C3552 C3550 1.478 . S
C3552 C3554 1.381 . S
C3552 C3558 1.383 . S
C3553 C3549 1.495 . S
C3553 H3559 0.959 . S
C3553 H3560 0.961 . S
C3553 H3561 0.960 . S
C3554 C3552 1.381 . S
C3554 C3555 1.394 . S
C3554 H3562 0.930 . S
C3555 C3554 1.394 . S
C3555 C3556 1.383 . S
C3555 H3563 0.929 . S
C3556 C3555 1.383 . S
C3556 C3557 1.377 . S
C3557 H3541 0.930 . S
C3557 C3556 1.377 . S
C3557 C3558 1.379 . S
C3558 H3542 0.931 . S
C3558 C3552 1.383 . S
C3558 C3557 1.379 . S
H3559 C3553 0.959 . S
H3560 C3553 0.961 . S
H3561 C3553 0.960 . S
H3562 C3554 0.930 . S
H3563 C3555 0.929 . S
H3564 C3572 0.929 . S
H3565 C3574 0.930 . S
H3566 C3576 0.930 . S
H3567 C3579 0.929 . S
H3568 C3582 0.930 . S
H3569 C3584 0.960 . S
H3570 C3584 0.960 . S
H3571 C3584 0.960 . S
C3572 H3564 0.929 . S
C3572 C3573 1.377 . S
C3572 C3574 1.384 . S
C3573 C3572 1.377 . S
C3573 C3579 1.390 . S
C3574 H3565 0.930 . S
C3574 C3572 1.384 . S
C3574 C3575 1.372 . S
C3575 C3574 1.372 . S
C3575 C3576 1.400 . S
C3575 C3580 1.490 . S
C3576 H3566 0.930 . S
C3576 C3575 1.400 . S
C3576 C3579 1.386 . S
H3577 C3593 0.930 . S
H3578 C3594 0.931 . S
C3579 H3567 0.929 . S
C3579 C3573 1.390 . S
C3579 C3576 1.386 . S
C3580 C3575 1.490 . S
C3580 C3582 1.395 . S
C3580 C3583 1.403 . S
H3581 C3587 0.930 . S
C3582 H3568 0.930 . S
C3582 C3580 1.395 . S
C3582 C3585 1.403 . S
C3583 C3580 1.403 . S
C3583 C3584 1.524 . S
C3583 C3587 1.400 . S
C3584 H3569 0.960 . S
C3584 H3570 0.960 . S
C3584 H3571 0.960 . S
C3584 C3583 1.524 . S
C3585 C3582 1.403 . S
C3585 C3586 1.392 . S
C3585 C3589 1.495 . S
C3586 C3585 1.392 . S
C3586 C3587 1.385 . S
C3586 C3588 1.478 . S
C3587 H3581 0.930 . S
C3587 C3583 1.400 . S
C3587 C3586 1.385 . S
C3588 C3586 1.478 . S
C3588 C3590 1.381 . S
C3588 C3594 1.383 . S
C3589 C3585 1.495 . S
C3589 H3595 0.959 . S
C3589 H3596 0.961 . S
C3589 H3597 0.960 . S
C3590 C3588 1.381 . S
C3590 C3591 1.394 . S
C3590 H3598 0.930 . S
C3591 C3590 1.394 . S
C3591 C3592 1.383 . S
C3591 H3599 0.929 . S
C3592 C3591 1.383 . S
C3592 C3593 1.377 . S
C3593 H3577 0.930 . S
C3593 C3592 1.377 . S
C3593 C3594 1.379 . S
C3594 H3578 0.931 . S
C3594 C3588 1.383 . S
C3594 C3593 1.379 . S
H3595 C3589 0.959 . S
H3596 C3589 0.961 . S
H3597 C3589 0.960 . S
H3598 C3590 0.930 . S
H3599 C3591 0.929 . S
H3600 C3608 0.929 . S
H3601 C3610 0.930 . S
H3602 C3612 0.930 . S
H3603 C3615 0.929 . S
H3604 C3618 0.930 . S
H3605 C3620 0.960 . S
H3606 C3620 0.960 . S
H3607 C3620 0.960 . S
C3608 H3600 0.929 . S
C3608 C3609 1.377 . S
C3608 C3610 1.384 . S
C3609 C3608 1.377 . S
C3609 C3615 1.390 . S
C3610 H3601 0.930 . S
C3610 C3608 1.384 . S
C3610 C3611 1.372 . S
C3611 C3610 1.372 . S
C3611 C3612 1.400 . S
C3611 C3616 1.490 . S
C3612 H3602 0.930 . S
C3612 C3611 1.400 . S
C3612 C3615 1.386 . S
H3613 C3629 0.930 . S
H3614 C3630 0.931 . S
C3615 H3603 0.929 . S
C3615 C3609 1.390 . S
C3615 C3612 1.386 . S
C3616 C3611 1.490 . S
C3616 C3618 1.395 . S
C3616 C3619 1.403 . S
H3617 C3623 0.930 . S
C3618 H3604 0.930 . S
C3618 C3616 1.395 . S
C3618 C3621 1.403 . S
C3619 C3616 1.403 . S
C3619 C3620 1.524 1_455 S
C3619 C3623 1.400 . S
C3620 H3605 0.960 . S
C3620 H3606 0.960 . S
C3620 H3607 0.960 . S
C3620 C3619 1.524 1_655 S
C3621 C3618 1.403 . S
C3621 C3622 1.392 . S
C3621 C3625 1.495 . S
C3622 C3621 1.392 . S
C3622 C3623 1.385 . S
C3622 C3624 1.478 . S
C3623 H3617 0.930 . S
C3623 C3619 1.400 . S
C3623 C3622 1.385 . S
C3624 C3622 1.478 . S
C3624 C3626 1.381 . S
C3624 C3630 1.383 . S
C3625 C3621 1.495 . S
C3625 H3631 0.959 . S
C3625 H3632 0.961 . S
C3625 H3633 0.960 . S
C3626 C3624 1.381 . S
C3626 C3627 1.394 . S
C3626 H3634 0.930 . S
C3627 C3626 1.394 . S
C3627 C3628 1.383 . S
C3627 H3635 0.929 . S
C3628 C3627 1.383 . S
C3628 C3629 1.377 . S
C3629 H3613 0.930 . S
C3629 C3628 1.377 . S
C3629 C3630 1.379 . S
C3630 H3614 0.931 . S
C3630 C3624 1.383 . S
C3630 C3629 1.379 . S
H3631 C3625 0.959 . S
H3632 C3625 0.961 . S
H3633 C3625 0.960 . S
H3634 C3626 0.930 . S
H3635 C3627 0.929 . S
H3636 C3644 0.929 . S
H3637 C3646 0.930 . S
H3638 C3648 0.930 . S
H3639 C3651 0.929 . S
H3640 C3654 0.930 . S
H3641 C3656 0.960 . S
H3642 C3656 0.960 . S
H3643 C3656 0.960 . S
C3644 H3636 0.929 . S
C3644 C3645 1.377 . S
C3644 C3646 1.384 . S
C3645 C3644 1.377 . S
C3645 C3651 1.390 . S
C3646 H3637 0.930 . S
C3646 C3644 1.384 . S
C3646 C3647 1.372 . S
C3647 C3646 1.372 . S
C3647 C3648 1.400 . S
C3647 C3652 1.490 . S
C3648 H3638 0.930 . S
C3648 C3647 1.400 . S
C3648 C3651 1.386 . S
H3649 C3665 0.930 . S
H3650 C3666 0.931 . S
C3651 H3639 0.929 . S
C3651 C3645 1.390 . S
C3651 C3648 1.386 . S
C3652 C3647 1.490 . S
C3652 C3654 1.395 . S
C3652 C3655 1.403 . S
H3653 C3659 0.930 . S
C3654 H3640 0.930 . S
C3654 C3652 1.395 . S
C3654 C3657 1.403 . S
C3655 C3652 1.403 . S
C3655 C3656 1.524 . S
C3655 C3659 1.400 . S
C3656 H3641 0.960 . S
C3656 H3642 0.960 . S
C3656 H3643 0.960 . S
C3656 C3655 1.524 . S
C3657 C3654 1.403 . S
C3657 C3658 1.392 . S
C3657 C3661 1.495 . S
C3658 C3657 1.392 . S
C3658 C3659 1.385 . S
C3658 C3660 1.478 . S
C3659 H3653 0.930 . S
C3659 C3655 1.400 . S
C3659 C3658 1.385 . S
C3660 C3658 1.478 . S
C3660 C3662 1.381 . S
C3660 C3666 1.383 . S
C3661 C3657 1.495 . S
C3661 H3667 0.959 . S
C3661 H3668 0.961 . S
C3661 H3669 0.960 . S
C3662 C3660 1.381 . S
C3662 C3663 1.394 . S
C3662 H3670 0.930 . S
C3663 C3662 1.394 . S
C3663 C3664 1.383 . S
C3663 H3671 0.929 . S
C3664 C3663 1.383 . S
C3664 C3665 1.377 . S
C3665 H3649 0.930 . S
C3665 C3664 1.377 . S
C3665 C3666 1.379 . S
C3666 H3650 0.931 . S
C3666 C3660 1.383 . S
C3666 C3665 1.379 . S
H3667 C3661 0.959 . S
H3668 C3661 0.961 . S
H3669 C3661 0.960 . S
H3670 C3662 0.930 . S
H3671 C3663 0.929 . S
H3672 C3680 0.929 . S
H3673 C3682 0.930 . S
H3674 C3684 0.930 . S
H3675 C3687 0.929 . S
H3676 C3690 0.930 . S
H3677 C3692 0.960 . S
H3678 C3692 0.960 . S
H3679 C3692 0.960 . S
C3680 H3672 0.929 . S
C3680 C3681 1.377 . S
C3680 C3682 1.384 . S
C3681 C3680 1.377 . S
C3681 C3687 1.390 . S
C3682 H3673 0.930 . S
C3682 C3680 1.384 . S
C3682 C3683 1.372 . S
C3683 C3682 1.372 . S
C3683 C3684 1.400 . S
C3683 C3688 1.490 . S
C3684 H3674 0.930 . S
C3684 C3683 1.400 . S
C3684 C3687 1.386 . S
H3685 C3701 0.930 . S
H3686 C3702 0.931 . S
C3687 H3675 0.929 . S
C3687 C3681 1.390 . S
C3687 C3684 1.386 . S
C3688 C3683 1.490 . S
C3688 C3690 1.395 . S
C3688 C3691 1.403 . S
H3689 C3695 0.930 . S
C3690 H3676 0.930 . S
C3690 C3688 1.395 . S
C3690 C3693 1.403 . S
C3691 C3688 1.403 . S
C3691 C3692 1.524 . S
C3691 C3695 1.400 . S
C3692 H3677 0.960 . S
C3692 H3678 0.960 . S
C3692 H3679 0.960 . S
C3692 C3691 1.524 . S
C3693 C3690 1.403 . S
C3693 C3694 1.392 . S
C3693 C3697 1.495 . S
C3694 C3693 1.392 . S
C3694 C3695 1.385 . S
C3694 C3696 1.478 . S
C3695 H3689 0.930 . S
C3695 C3691 1.400 . S
C3695 C3694 1.385 . S
C3696 C3694 1.478 . S
C3696 C3698 1.381 . S
C3696 C3702 1.383 . S
C3697 C3693 1.495 . S
C3697 H3703 0.959 . S
C3697 H3704 0.961 . S
C3697 H3705 0.960 . S
C3698 C3696 1.381 . S
C3698 C3699 1.394 . S
C3698 H3706 0.930 . S
C3699 C3698 1.394 . S
C3699 C3700 1.383 . S
C3699 H3707 0.929 . S
C3700 C3699 1.383 . S
C3700 C3701 1.377 . S
C3701 H3685 0.930 . S
C3701 C3700 1.377 . S
C3701 C3702 1.379 . S
C3702 H3686 0.931 . S
C3702 C3696 1.383 . S
C3702 C3701 1.379 . S
H3703 C3697 0.959 . S
H3704 C3697 0.961 . S
H3705 C3697 0.960 . S
H3706 C3698 0.930 . S
H3707 C3699 0.929 . S
H3708 C3716 0.929 . S
H3709 C3718 0.930 . S
H3710 C3720 0.930 . S
H3711 C3723 0.929 . S
H3712 C3726 0.930 . S
H3713 C3728 0.960 . S
H3714 C3728 0.960 . S
H3715 C3728 0.960 . S
C3716 H3708 0.929 . S
C3716 C3717 1.377 . S
C3716 C3718 1.384 . S
C3717 C3716 1.377 . S
C3717 C3723 1.390 . S
C3718 H3709 0.930 . S
C3718 C3716 1.384 . S
C3718 C3719 1.372 . S
C3719 C3718 1.372 . S
C3719 C3720 1.400 . S
C3719 C3724 1.490 . S
C3720 H3710 0.930 . S
C3720 C3719 1.400 . S
C3720 C3723 1.386 . S
H3721 C3737 0.930 . S
H3722 C3738 0.931 . S
C3723 H3711 0.929 . S
C3723 C3717 1.390 . S
C3723 C3720 1.386 . S
C3724 C3719 1.490 . S
C3724 C3726 1.395 . S
C3724 C3727 1.403 . S
H3725 C3731 0.930 . S
C3726 H3712 0.930 . S
C3726 C3724 1.395 . S
C3726 C3729 1.403 . S
C3727 C3724 1.403 . S
C3727 C3728 1.524 . S
C3727 C3731 1.400 . S
C3728 H3713 0.960 . S
C3728 H3714 0.960 . S
C3728 H3715 0.960 . S
C3728 C3727 1.524 . S
C3729 C3726 1.403 . S
C3729 C3730 1.392 . S
C3729 C3733 1.495 . S
C3730 C3729 1.392 . S
C3730 C3731 1.385 . S
C3730 C3732 1.478 . S
C3731 H3725 0.930 . S
C3731 C3727 1.400 . S
C3731 C3730 1.385 . S
C3732 C3730 1.478 . S
C3732 C3734 1.381 . S
C3732 C3738 1.383 . S
C3733 C3729 1.495 . S
C3733 H3739 0.959 . S
C3733 H3740 0.961 . S
C3733 H3741 0.960 . S
C3734 C3732 1.381 . S
C3734 C3735 1.394 . S
C3734 H3742 0.930 . S
C3735 C3734 1.394 . S
C3735 C3736 1.383 . S
C3735 H3743 0.929 . S
C3736 C3735 1.383 . S
C3736 C3737 1.377 . S
C3737 H3721 0.930 . S
C3737 C3736 1.377 . S
C3737 C3738 1.379 . S
C3738 H3722 0.931 . S
C3738 C3732 1.383 . S
C3738 C3737 1.379 . S
H3739 C3733 0.959 . S
H3740 C3733 0.961 . S
H3741 C3733 0.960 . S
H3742 C3734 0.930 . S
H3743 C3735 0.929 . S
H3744 C3752 0.933 . S
H3745 C3754 0.930 . S
H3746 C3756 0.930 . S
H3747 C3759 0.929 . S
H3748 C3762 0.930 . S
H3749 C3764 0.960 . S
H3750 C3764 0.947 1_455 S
H3751 C3764 0.960 . S
C3752 H3744 0.933 . S
C3752 C3753 1.372 1_455 S
C3752 C3754 1.386 . S
C3753 C3752 1.372 1_655 S
C3753 C3759 1.390 . S
C3754 H3745 0.930 . S
C3754 C3752 1.386 . S
C3754 C3755 1.372 1_455 S
C3755 C3754 1.372 1_655 S
C3755 C3756 1.400 . S
C3755 C3760 1.490 1_655 S
C3756 H3746 0.930 . S
C3756 C3755 1.400 . S
C3756 C3759 1.386 . S
H3757 C3773 0.930 . S
H3758 C3774 0.931 1_655 S
C3759 H3747 0.929 . S
C3759 C3753 1.390 . S
C3759 C3756 1.386 . S
C3760 C3755 1.490 1_455 S
C3760 C3762 1.395 . S
C3760 C3763 1.404 . S
H3761 C3767 0.930 . S
C3762 H3748 0.930 . S
C3762 C3760 1.395 . S
C3762 C3765 1.403 . S
C3763 C3760 1.404 . S
C3763 C3764 1.520 1_455 S
C3763 C3767 1.402 . S
C3764 H3749 0.960 . S
C3764 H3750 0.947 1_655 S
C3764 H3751 0.960 . S
C3764 C3763 1.520 1_655 S
C3765 C3762 1.403 . S
C3765 C3766 1.392 . S
C3765 C3769 1.495 . S
C3766 C3765 1.392 . S
C3766 C3767 1.385 . S
C3766 C3768 1.478 . S
C3767 H3761 0.930 . S
C3767 C3763 1.402 . S
C3767 C3766 1.385 . S
C3768 C3766 1.478 . S
C3768 C3770 1.381 . S
C3768 C3774 1.383 . S
C3769 C3765 1.495 . S
C3769 H3775 0.959 . S
C3769 H3776 0.961 . S
C3769 H3777 0.960 . S
C3770 C3768 1.381 . S
C3770 C3771 1.394 . S
C3770 H3778 0.930 . S
C3771 C3770 1.394 . S
C3771 C3772 1.383 . S
C3771 H3779 0.929 . S
C3772 C3771 1.383 . S
C3772 C3773 1.377 . S
C3773 H3757 0.930 . S
C3773 C3772 1.377 . S
C3773 C3774 1.379 . S
C3774 H3758 0.931 1_455 S
C3774 C3768 1.383 . S
C3774 C3773 1.379 . S
H3775 C3769 0.959 . S
H3776 C3769 0.961 . S
H3777 C3769 0.960 . S
H3778 C3770 0.930 . S
H3779 C3771 0.929 . S
H3780 C3788 0.929 . S
H3781 C3790 0.930 . S
H3782 C3792 0.930 . S
H3783 C3795 0.929 . S
H3784 C3798 0.930 . S
H3785 C3800 0.960 . S
H3786 C3800 0.960 . S
H3787 C3800 0.960 . S
C3788 H3780 0.929 . S
C3788 C3789 1.377 . S
C3788 C3790 1.384 . S
C3789 C3788 1.377 . S
C3789 C3795 1.390 . S
C3790 H3781 0.930 . S
C3790 C3788 1.384 . S
C3790 C3791 1.372 . S
C3791 C3790 1.372 . S
C3791 C3792 1.400 . S
C3791 C3796 1.490 . S
C3792 H3782 0.930 . S
C3792 C3791 1.400 . S
C3792 C3795 1.386 . S
H3793 C3809 0.930 . S
H3794 C3810 0.931 . S
C3795 H3783 0.929 . S
C3795 C3789 1.390 . S
C3795 C3792 1.386 . S
C3796 C3791 1.490 . S
C3796 C3798 1.395 . S
C3796 C3799 1.403 . S
H3797 C3803 0.930 . S
C3798 H3784 0.930 . S
C3798 C3796 1.395 . S
C3798 C3801 1.403 . S
C3799 C3796 1.403 . S
C3799 C3800 1.524 . S
C3799 C3803 1.400 . S
C3800 H3785 0.960 . S
C3800 H3786 0.960 . S
C3800 H3787 0.960 . S
C3800 C3799 1.524 . S
C3801 C3798 1.403 . S
C3801 C3802 1.392 . S
C3801 C3805 1.495 . S
C3802 C3801 1.392 . S
C3802 C3803 1.385 . S
C3802 C3804 1.478 . S
C3803 H3797 0.930 . S
C3803 C3799 1.400 . S
C3803 C3802 1.385 . S
C3804 C3802 1.478 . S
C3804 C3806 1.381 . S
C3804 C3810 1.383 . S
C3805 C3801 1.495 . S
C3805 H3811 0.959 . S
C3805 H3812 0.961 . S
C3805 H3813 0.960 . S
C3806 C3804 1.381 . S
C3806 C3807 1.394 . S
C3806 H3814 0.930 . S
C3807 C3806 1.394 . S
C3807 C3808 1.383 . S
C3807 H3815 0.929 . S
C3808 C3807 1.383 . S
C3808 C3809 1.377 . S
C3809 H3793 0.930 . S
C3809 C3808 1.377 . S
C3809 C3810 1.379 . S
C3810 H3794 0.931 . S
C3810 C3804 1.383 . S
C3810 C3809 1.379 . S
H3811 C3805 0.959 . S
H3812 C3805 0.961 . S
H3813 C3805 0.960 . S
H3814 C3806 0.930 . S
H3815 C3807 0.929 . S
H3816 C3824 0.929 . S
H3817 C3826 0.930 . S
H3818 C3828 0.930 . S
H3819 C3831 0.929 . S
H3820 C3834 0.930 . S
H3821 C3836 0.963 . S
H3822 C3836 0.960 1_565 S
H3823 C3836 0.960 . S
C3824 H3816 0.929 . S
C3824 C3825 1.377 . S
C3824 C3826 1.384 . S
C3825 C3824 1.377 . S
C3825 C3831 1.390 . S
C3826 H3817 0.930 . S
C3826 C3824 1.384 . S
C3826 C3827 1.372 . S
C3827 C3826 1.372 . S
C3827 C3828 1.400 . S
C3827 C3832 1.490 . S
C3828 H3818 0.930 . S
C3828 C3827 1.400 . S
C3828 C3831 1.386 . S
H3829 C3845 0.930 . S
H3830 C3846 0.931 . S
C3831 H3819 0.929 . S
C3831 C3825 1.390 . S
C3831 C3828 1.386 . S
C3832 C3827 1.490 . S
C3832 C3834 1.395 . S
C3832 C3835 1.403 . S
H3833 C3839 0.930 . S
C3834 H3820 0.930 . S
C3834 C3832 1.395 . S
C3834 C3837 1.403 . S
C3835 C3832 1.403 . S
C3835 C3836 1.524 . S
C3835 C3839 1.400 . S
C3836 H3821 0.963 . S
C3836 H3822 0.960 1_545 S
C3836 H3823 0.960 . S
C3836 C3835 1.524 . S
C3837 C3834 1.403 . S
C3837 C3838 1.392 . S
C3837 C3841 1.495 . S
C3838 C3837 1.392 . S
C3838 C3839 1.385 . S
C3838 C3840 1.478 . S
C3839 H3833 0.930 . S
C3839 C3835 1.400 . S
C3839 C3838 1.385 . S
C3840 C3838 1.478 . S
C3840 C3842 1.381 . S
C3840 C3846 1.383 . S
C3841 C3837 1.495 . S
C3841 H3847 0.959 . S
C3841 H3848 0.961 . S
C3841 H3849 0.960 . S
C3842 C3840 1.381 . S
C3842 C3843 1.394 . S
C3842 H3850 0.930 . S
C3843 C3842 1.394 . S
C3843 C3844 1.383 . S
C3843 H3851 0.929 . S
C3844 C3843 1.383 . S
C3844 C3845 1.377 . S
C3845 H3829 0.930 . S
C3845 C3844 1.377 . S
C3845 C3846 1.379 . S
C3846 H3830 0.931 . S
C3846 C3840 1.383 . S
C3846 C3845 1.379 . S
H3847 C3841 0.959 . S
H3848 C3841 0.961 . S
H3849 C3841 0.960 . S
H3850 C3842 0.930 . S
H3851 C3843 0.929 . S
H3852 C3860 0.929 . S
H3853 C3862 0.930 . S
H3854 C3864 0.930 . S
H3855 C3867 0.929 . S
H3856 C3870 0.930 . S
H3857 C3872 0.960 . S
H3858 C3872 0.960 . S
H3859 C3872 0.960 . S
C3860 H3852 0.929 . S
C3860 C3861 1.377 . S
C3860 C3862 1.384 . S
C3861 C3860 1.377 . S
C3861 C3867 1.390 . S
C3862 H3853 0.930 . S
C3862 C3860 1.384 . S
C3862 C3863 1.372 . S
C3863 C3862 1.372 . S
C3863 C3864 1.400 . S
C3863 C3868 1.490 . S
C3864 H3854 0.930 . S
C3864 C3863 1.400 . S
C3864 C3867 1.386 . S
H3865 C3881 0.930 . S
H3866 C3882 0.931 . S
C3867 H3855 0.929 . S
C3867 C3861 1.390 . S
C3867 C3864 1.386 . S
C3868 C3863 1.490 . S
C3868 C3870 1.395 . S
C3868 C3871 1.403 . S
H3869 C3875 0.930 . S
C3870 H3856 0.930 . S
C3870 C3868 1.395 . S
C3870 C3873 1.403 . S
C3871 C3868 1.403 . S
C3871 C3872 1.524 . S
C3871 C3875 1.400 . S
C3872 H3857 0.960 . S
C3872 H3858 0.960 . S
C3872 H3859 0.960 . S
C3872 C3871 1.524 . S
C3873 C3870 1.403 . S
C3873 C3874 1.392 . S
C3873 C3877 1.495 . S
C3874 C3873 1.392 . S
C3874 C3875 1.385 . S
C3874 C3876 1.478 . S
C3875 H3869 0.930 . S
C3875 C3871 1.400 . S
C3875 C3874 1.385 . S
C3876 C3874 1.478 . S
C3876 C3878 1.381 . S
C3876 C3882 1.383 . S
C3877 C3873 1.495 . S
C3877 H3883 0.959 . S
C3877 H3884 0.961 . S
C3877 H3885 0.960 . S
C3878 C3876 1.381 . S
C3878 C3879 1.394 . S
C3878 H3886 0.930 . S
C3879 C3878 1.394 . S
C3879 C3880 1.383 . S
C3879 H3887 0.929 . S
C3880 C3879 1.383 . S
C3880 C3881 1.377 . S
C3881 H3865 0.930 . S
C3881 C3880 1.377 . S
C3881 C3882 1.379 . S
C3882 H3866 0.931 . S
C3882 C3876 1.383 . S
C3882 C3881 1.379 . S
H3883 C3877 0.959 . S
H3884 C3877 0.961 . S
H3885 C3877 0.960 . S
H3886 C3878 0.930 . S
H3887 C3879 0.929 . S
H3888 C3896 0.929 . S
H3889 C3898 0.930 . S
H3890 C3900 0.930 . S
H3891 C3903 0.929 . S
H3892 C3906 0.930 . S
H3893 C3908 0.960 . S
H3894 C3908 0.960 . S
H3895 C3908 0.960 . S
C3896 H3888 0.929 . S
C3896 C3897 1.377 1_455 S
C3896 C3898 1.384 . S
C3897 C3896 1.377 1_655 S
C3897 C3903 1.390 . S
C3898 H3889 0.930 . S
C3898 C3896 1.384 . S
C3898 C3899 1.418 . S
C3899 C3898 1.418 . S
C3899 C3900 1.326 1_455 S
C3899 C3904 1.520 . S
C3900 H3890 0.930 . S
C3900 C3899 1.326 1_655 S
C3900 C3903 1.386 . S
H3901 C3917 0.930 . S
H3902 C3918 0.931 . S
C3903 H3891 0.929 . S
C3903 C3897 1.390 . S
C3903 C3900 1.386 . S
C3904 C3899 1.520 . S
C3904 C3906 1.395 . S
C3904 C3907 1.391 1_455 S
H3905 C3911 0.949 . S
C3906 H3892 0.930 . S
C3906 C3904 1.395 . S
C3906 C3909 1.403 . S
C3907 C3904 1.391 1_655 S
C3907 C3908 1.550 . S
C3907 C3911 1.384 1_655 S
C3908 H3893 0.960 . S
C3908 H3894 0.960 . S
C3908 H3895 0.960 . S
C3908 C3907 1.550 . S
C3909 C3906 1.403 . S
C3909 C3910 1.392 . S
C3909 C3913 1.495 . S
C3910 C3909 1.392 . S
C3910 C3911 1.385 . S
C3910 C3912 1.478 . S
C3911 H3905 0.949 . S
C3911 C3907 1.384 1_455 S
C3911 C3910 1.385 . S
C3912 C3910 1.478 . S
C3912 C3914 1.381 . S
C3912 C3918 1.383 . S
C3913 C3909 1.495 . S
C3913 H3919 0.959 . S
C3913 H3920 0.961 . S
C3913 H3921 0.960 . S
C3914 C3912 1.381 . S
C3914 C3915 1.394 . S
C3914 H3922 0.930 . S
C3915 C3914 1.394 . S
C3915 C3916 1.383 . S
C3915 H3923 0.929 . S
C3916 C3915 1.383 . S
C3916 C3917 1.377 . S
C3917 H3901 0.930 . S
C3917 C3916 1.377 . S
C3917 C3918 1.379 . S
C3918 H3902 0.931 . S
C3918 C3912 1.383 . S
C3918 C3917 1.379 . S
H3919 C3913 0.959 . S
H3920 C3913 0.961 . S
H3921 C3913 0.960 . S
H3922 C3914 0.930 . S
H3923 C3915 0.929 . S
H3924 C3932 0.929 . S
H3925 C3934 0.930 . S
H3926 C3936 0.930 . S
H3927 C3939 0.929 . S
H3928 C3942 0.930 . S
H3929 C3944 0.960 . S
H3930 C3944 0.960 . S
H3931 C3944 0.960 . S
C3932 H3924 0.929 . S
C3932 C3933 1.377 . S
C3932 C3934 1.384 . S
C3933 C3932 1.377 . S
C3933 C3939 1.390 . S
C3934 H3925 0.930 . S
C3934 C3932 1.384 . S
C3934 C3935 1.372 . S
C3935 C3934 1.372 . S
C3935 C3936 1.400 . S
C3935 C3940 1.490 . S
C3936 H3926 0.930 . S
C3936 C3935 1.400 . S
C3936 C3939 1.386 . S
H3937 C3953 0.930 . S
H3938 C3954 0.931 . S
C3939 H3927 0.929 . S
C3939 C3933 1.390 . S
C3939 C3936 1.386 . S
C3940 C3935 1.490 . S
C3940 C3942 1.395 . S
C3940 C3943 1.403 . S
H3941 C3947 0.930 . S
C3942 H3928 0.930 . S
C3942 C3940 1.395 . S
C3942 C3945 1.403 . S
C3943 C3940 1.403 . S
C3943 C3944 1.524 . S
C3943 C3947 1.400 . S
C3944 H3929 0.960 . S
C3944 H3930 0.960 . S
C3944 H3931 0.960 . S
C3944 C3943 1.524 . S
C3945 C3942 1.403 . S
C3945 C3946 1.392 . S
C3945 C3949 1.495 . S
C3946 C3945 1.392 . S
C3946 C3947 1.385 . S
C3946 C3948 1.478 . S
C3947 H3941 0.930 . S
C3947 C3943 1.400 . S
C3947 C3946 1.385 . S
C3948 C3946 1.478 . S
C3948 C3950 1.381 . S
C3948 C3954 1.383 . S
C3949 C3945 1.495 . S
C3949 H3955 0.959 . S
C3949 H3956 0.961 . S
C3949 H3957 0.960 . S
C3950 C3948 1.381 . S
C3950 C3951 1.394 . S
C3950 H3958 0.930 . S
C3951 C3950 1.394 . S
C3951 C3952 1.383 . S
C3951 H3959 0.929 . S
C3952 C3951 1.383 . S
C3952 C3953 1.377 . S
C3953 H3937 0.930 . S
C3953 C3952 1.377 . S
C3953 C3954 1.379 . S
C3954 H3938 0.931 . S
C3954 C3948 1.383 . S
C3954 C3953 1.379 . S
H3955 C3949 0.959 . S
H3956 C3949 0.961 . S
H3957 C3949 0.960 . S
H3958 C3950 0.930 . S
H3959 C3951 0.929 . S
H3960 C3968 0.929 . S
H3961 C3970 0.930 . S
H3962 C3972 0.930 . S
H3963 C3975 0.929 . S
H3964 C3978 0.930 . S
H3965 C3980 0.960 . S
H3966 C3980 0.960 . S
H3967 C3980 0.960 . S
C3968 H3960 0.929 . S
C3968 C3969 1.377 . S
C3968 C3970 1.384 . S
C3969 C3968 1.377 . S
C3969 C3975 1.390 . S
C3970 H3961 0.930 . S
C3970 C3968 1.384 . S
C3970 C3971 1.372 . S
C3971 C3970 1.372 . S
C3971 C3972 1.400 . S
C3971 C3976 1.490 . S
C3972 H3962 0.930 . S
C3972 C3971 1.400 . S
C3972 C3975 1.386 . S
H3973 C3989 0.930 . S
H3974 C3990 0.931 . S
C3975 H3963 0.929 . S
C3975 C3969 1.390 . S
C3975 C3972 1.386 . S
C3976 C3971 1.490 . S
C3976 C3978 1.395 . S
C3976 C3979 1.403 . S
H3977 C3983 0.930 . S
C3978 H3964 0.930 . S
C3978 C3976 1.395 . S
C3978 C3981 1.403 . S
C3979 C3976 1.403 . S
C3979 C3980 1.524 . S
C3979 C3983 1.400 . S
C3980 H3965 0.960 . S
C3980 H3966 0.960 . S
C3980 H3967 0.960 . S
C3980 C3979 1.524 . S
C3981 C3978 1.403 . S
C3981 C3982 1.392 . S
C3981 C3985 1.495 . S
C3982 C3981 1.392 . S
C3982 C3983 1.385 . S
C3982 C3984 1.478 . S
C3983 H3977 0.930 . S
C3983 C3979 1.400 . S
C3983 C3982 1.385 . S
C3984 C3982 1.478 . S
C3984 C3986 1.381 . S
C3984 C3990 1.383 . S
C3985 C3981 1.495 . S
C3985 H3991 0.959 . S
C3985 H3992 0.961 . S
C3985 H3993 0.960 . S
C3986 C3984 1.381 . S
C3986 C3987 1.394 . S
C3986 H3994 0.930 . S
C3987 C3986 1.394 . S
C3987 C3988 1.383 . S
C3987 H3995 0.929 . S
C3988 C3987 1.383 . S
C3988 C3989 1.377 . S
C3989 H3973 0.930 . S
C3989 C3988 1.377 . S
C3989 C3990 1.379 . S
C3990 H3974 0.931 . S
C3990 C3984 1.383 . S
C3990 C3989 1.379 . S
H3991 C3985 0.959 . S
H3992 C3985 0.961 . S
H3993 C3985 0.960 . S
H3994 C3986 0.930 . S
H3995 C3987 0.929 . S
H3996 C4004 0.929 . S
H3997 C4006 0.930 . S
H3998 C4008 0.930 . S
H3999 C4011 0.929 . S
H4000 C4014 0.930 . S
H4001 C4016 0.960 . S
H4002 C4016 0.960 . S
H4003 C4016 0.960 . S
C4004 H3996 0.929 . S
C4004 C4005 1.377 . S
C4004 C4006 1.384 . S
C4005 C4004 1.377 . S
C4005 C4011 1.390 . S
C4006 H3997 0.930 . S
C4006 C4004 1.384 . S
C4006 C4007 1.372 . S
C4007 C4006 1.372 . S
C4007 C4008 1.400 . S
C4007 C4012 1.490 . S
C4008 H3998 0.930 . S
C4008 C4007 1.400 . S
C4008 C4011 1.386 . S
H4009 C4025 0.930 . S
H4010 C4026 0.931 . S
C4011 H3999 0.929 . S
C4011 C4005 1.390 . S
C4011 C4008 1.386 . S
C4012 C4007 1.490 . S
C4012 C4014 1.395 . S
C4012 C4015 1.403 . S
H4013 C4019 0.930 . S
C4014 H4000 0.930 . S
C4014 C4012 1.395 . S
C4014 C4017 1.403 . S
C4015 C4012 1.403 . S
C4015 C4016 1.524 . S
C4015 C4019 1.400 . S
C4016 H4001 0.960 . S
C4016 H4002 0.960 . S
C4016 H4003 0.960 . S
C4016 C4015 1.524 . S
C4017 C4014 1.403 . S
C4017 C4018 1.392 . S
C4017 C4021 1.495 . S
C4018 C4017 1.392 . S
C4018 C4019 1.385 . S
C4018 C4020 1.478 . S
C4019 H4013 0.930 . S
C4019 C4015 1.400 . S
C4019 C4018 1.385 . S
C4020 C4018 1.478 . S
C4020 C4022 1.381 . S
C4020 C4026 1.383 . S
C4021 C4017 1.495 . S
C4021 H4027 0.959 . S
C4021 H4028 0.961 . S
C4021 H4029 0.960 . S
C4022 C4020 1.381 . S
C4022 C4023 1.394 . S
C4022 H4030 0.930 . S
C4023 C4022 1.394 . S
C4023 C4024 1.383 . S
C4023 H4031 0.929 . S
C4024 C4023 1.383 . S
C4024 C4025 1.377 . S
C4025 H4009 0.930 . S
C4025 C4024 1.377 . S
C4025 C4026 1.379 . S
C4026 H4010 0.931 . S
C4026 C4020 1.383 . S
C4026 C4025 1.379 . S
H4027 C4021 0.959 . S
H4028 C4021 0.961 . S
H4029 C4021 0.960 . S
H4030 C4022 0.930 . S
H4031 C4023 0.929 . S
H4032 C4040 0.929 1_556 S
H4033 C4042 0.930 1_556 S
H4034 C4044 0.930 . S
H4035 C4047 0.929 . S
H4036 C4050 0.930 . S
H4037 C4052 0.960 . S
H4038 C4052 0.960 . S
H4039 C4052 0.960 . S
C4040 H4032 0.929 1_554 S
C4040 C4041 1.377 . S
C4040 C4042 1.384 . S
C4041 C4040 1.377 . S
C4041 C4047 1.390 . S
C4042 H4033 0.930 1_554 S
C4042 C4040 1.384 . S
C4042 C4043 1.372 . S
C4043 C4042 1.372 . S
C4043 C4044 1.400 . S
C4043 C4048 1.490 . S
C4044 H4034 0.930 . S
C4044 C4043 1.400 . S
C4044 C4047 1.386 . S
H4045 C4061 0.930 . S
H4046 C4062 0.931 . S
C4047 H4035 0.929 . S
C4047 C4041 1.390 . S
C4047 C4044 1.386 . S
C4048 C4043 1.490 . S
C4048 C4050 1.395 . S
C4048 C4051 1.403 1_565 S
H4049 C4055 0.930 . S
C4050 H4036 0.930 . S
C4050 C4048 1.395 . S
C4050 C4053 1.403 . S
C4051 C4048 1.403 1_545 S
C4051 C4052 1.524 . S
C4051 C4055 1.400 . S
C4052 H4037 0.960 . S
C4052 H4038 0.960 . S
C4052 H4039 0.960 . S
C4052 C4051 1.524 . S
C4053 C4050 1.403 . S
C4053 C4054 1.392 . S
C4053 C4057 1.495 . S
C4054 C4053 1.392 . S
C4054 C4055 1.385 1_565 S
C4054 C4056 1.480 1_565 S
C4055 H4049 0.930 . S
C4055 C4051 1.400 . S
C4055 C4054 1.385 1_545 S
C4056 C4054 1.480 1_545 S
C4056 C4058 1.379 . S
C4056 C4062 1.382 . S
C4057 C4053 1.495 . S
C4057 H4063 0.959 . S
C4057 H4064 0.961 . S
C4057 H4065 0.960 1_554 S
C4058 C4056 1.379 . S
C4058 C4059 1.394 . S
C4058 H4066 0.871 1_544 S
C4059 C4058 1.394 . S
C4059 C4060 1.383 . S
C4059 H4067 0.971 . S
C4060 C4059 1.383 . S
C4060 C4061 1.377 . S
C4061 H4045 0.930 . S
C4061 C4060 1.377 . S
C4061 C4062 1.379 . S
C4062 H4046 0.931 . S
C4062 C4056 1.382 . S
C4062 C4061 1.379 . S
H4063 C4057 0.959 . S
H4064 C4057 0.961 . S
H4065 C4057 0.960 1_556 S
H4066 C4058 0.871 1_566 S
H4067 C4059 0.971 . S
H4068 C4076 0.929 . S
H4069 C4078 0.930 . S
H4070 C4080 0.930 . S
H4071 C4083 0.929 . S
H4072 C4086 0.930 . S
H4073 C4088 0.960 . S
H4074 C4088 0.960 . S
H4075 C4088 0.960 . S
C4076 H4068 0.929 . S
C4076 C4077 1.377 . S
C4076 C4078 1.384 . S
C4077 C4076 1.377 . S
C4077 C4083 1.390 . S
C4078 H4069 0.930 . S
C4078 C4076 1.384 . S
C4078 C4079 1.372 . S
C4079 C4078 1.372 . S
C4079 C4080 1.400 . S
C4079 C4084 1.490 . S
C4080 H4070 0.930 . S
C4080 C4079 1.400 . S
C4080 C4083 1.386 . S
H4081 C4097 0.930 . S
H4082 C4098 0.931 . S
C4083 H4071 0.929 . S
C4083 C4077 1.390 . S
C4083 C4080 1.386 . S
C4084 C4079 1.490 . S
C4084 C4086 1.395 1_556 S
C4084 C4087 1.403 . S
H4085 C4091 0.930 . S
C4086 H4072 0.930 . S
C4086 C4084 1.395 1_554 S
C4086 C4089 1.403 . S
C4087 C4084 1.403 . S
C4087 C4088 1.524 . S
C4087 C4091 1.400 . S
C4088 H4073 0.960 . S
C4088 H4074 0.960 . S
C4088 H4075 0.960 . S
C4088 C4087 1.524 . S
C4089 C4086 1.403 . S
C4089 C4090 1.392 . S
C4089 C4093 1.495 . S
C4090 C4089 1.392 . S
C4090 C4091 1.385 1_554 S
C4090 C4092 1.478 . S
C4091 H4085 0.930 . S
C4091 C4087 1.400 . S
C4091 C4090 1.385 1_556 S
C4092 C4090 1.478 . S
C4092 C4094 1.381 . S
C4092 C4098 1.383 . S
C4093 C4089 1.495 . S
C4093 H4099 0.959 . S
C4093 H4100 0.961 . S
C4093 H4101 0.960 . S
C4094 C4092 1.381 . S
C4094 C4095 1.394 . S
C4094 H4102 0.935 . S
C4095 C4094 1.394 . S
C4095 C4096 1.383 . S
C4095 H4103 0.929 . S
C4096 C4095 1.383 . S
C4096 C4097 1.377 . S
C4097 H4081 0.930 . S
C4097 C4096 1.377 . S
C4097 C4098 1.379 . S
C4098 H4082 0.931 . S
C4098 C4092 1.383 . S
C4098 C4097 1.379 . S
H4099 C4093 0.959 . S
H4100 C4093 0.961 . S
H4101 C4093 0.960 . S
H4102 C4094 0.935 . S
H4103 C4095 0.929 . S
H4104 C4112 0.929 . S
H4105 C4114 0.930 . S
H4106 C4116 0.930 . S
H4107 C4119 0.929 . S
H4108 C4122 0.930 . S
H4109 C4124 0.960 . S
H4110 C4124 0.960 . S
H4111 C4124 0.960 . S
C4112 H4104 0.929 . S
C4112 C4113 1.377 . S
C4112 C4114 1.384 . S
C4113 C4112 1.377 . S
C4113 C4119 1.390 . S
C4114 H4105 0.930 . S
C4114 C4112 1.384 . S
C4114 C4115 1.372 . S
C4115 C4114 1.372 . S
C4115 C4116 1.400 . S
C4115 C4120 1.490 . S
C4116 H4106 0.930 . S
C4116 C4115 1.400 . S
C4116 C4119 1.386 . S
H4117 C4133 0.930 . S
H4118 C4134 0.931 . S
C4119 H4107 0.929 . S
C4119 C4113 1.390 . S
C4119 C4116 1.386 . S
C4120 C4115 1.490 . S
C4120 C4122 1.395 . S
C4120 C4123 1.403 . S
H4121 C4127 0.930 . S
C4122 H4108 0.930 . S
C4122 C4120 1.395 . S
C4122 C4125 1.403 . S
C4123 C4120 1.403 . S
C4123 C4124 1.524 . S
C4123 C4127 1.400 . S
C4124 H4109 0.960 . S
C4124 H4110 0.960 . S
C4124 H4111 0.960 . S
C4124 C4123 1.524 . S
C4125 C4122 1.403 . S
C4125 C4126 1.392 . S
C4125 C4129 1.495 . S
C4126 C4125 1.392 . S
C4126 C4127 1.385 . S
C4126 C4128 1.478 . S
C4127 H4121 0.930 . S
C4127 C4123 1.400 . S
C4127 C4126 1.385 . S
C4128 C4126 1.478 . S
C4128 C4130 1.381 . S
C4128 C4134 1.383 . S
C4129 C4125 1.495 . S
C4129 H4135 0.959 . S
C4129 H4136 0.961 . S
C4129 H4137 0.960 . S
C4130 C4128 1.381 . S
C4130 C4131 1.394 . S
C4130 H4138 0.930 . S
C4131 C4130 1.394 . S
C4131 C4132 1.383 . S
C4131 H4139 0.929 . S
C4132 C4131 1.383 . S
C4132 C4133 1.377 . S
C4133 H4117 0.930 . S
C4133 C4132 1.377 . S
C4133 C4134 1.379 . S
C4134 H4118 0.931 . S
C4134 C4128 1.383 . S
C4134 C4133 1.379 . S
H4135 C4129 0.959 . S
H4136 C4129 0.961 . S
H4137 C4129 0.960 . S
H4138 C4130 0.930 . S
H4139 C4131 0.929 . S
H4140 C4148 0.929 . S
H4141 C4150 0.930 . S
H4142 C4152 0.930 . S
H4143 C4155 0.929 . S
H4144 C4158 0.930 . S
H4145 C4160 0.960 . S
H4146 C4160 0.960 . S
H4147 C4160 0.960 . S
C4148 H4140 0.929 . S
C4148 C4149 1.377 . S
C4148 C4150 1.384 . S
C4149 C4148 1.377 . S
C4149 C4155 1.390 . S
C4150 H4141 0.930 . S
C4150 C4148 1.384 . S
C4150 C4151 1.372 . S
C4151 C4150 1.372 . S
C4151 C4152 1.400 . S
C4151 C4156 1.490 . S
C4152 H4142 0.930 . S
C4152 C4151 1.400 . S
C4152 C4155 1.386 . S
H4153 C4169 0.930 . S
H4154 C4170 0.931 . S
C4155 H4143 0.929 . S
C4155 C4149 1.390 . S
C4155 C4152 1.386 . S
C4156 C4151 1.490 . S
C4156 C4158 1.395 . S
C4156 C4159 1.403 . S
H4157 C4163 0.930 . S
C4158 H4144 0.930 . S
C4158 C4156 1.395 . S
C4158 C4161 1.403 . S
C4159 C4156 1.403 . S
C4159 C4160 1.524 . S
C4159 C4163 1.400 . S
C4160 H4145 0.960 . S
C4160 H4146 0.960 . S
C4160 H4147 0.960 . S
C4160 C4159 1.524 . S
C4161 C4158 1.403 . S
C4161 C4162 1.392 . S
C4161 C4165 1.495 . S
C4162 C4161 1.392 . S
C4162 C4163 1.385 . S
C4162 C4164 1.478 . S
C4163 H4157 0.930 . S
C4163 C4159 1.400 . S
C4163 C4162 1.385 . S
C4164 C4162 1.478 . S
C4164 C4166 1.381 . S
C4164 C4170 1.383 . S
C4165 C4161 1.495 . S
C4165 H4171 0.959 . S
C4165 H4172 0.961 . S
C4165 H4173 0.960 . S
C4166 C4164 1.381 . S
C4166 C4167 1.394 1_655 S
C4166 H4174 0.930 . S
C4167 C4166 1.394 1_455 S
C4167 C4168 1.383 . S
C4167 H4175 0.929 . S
C4168 C4167 1.383 . S
C4168 C4169 1.377 . S
C4169 H4153 0.930 . S
C4169 C4168 1.377 . S
C4169 C4170 1.379 1_455 S
C4170 H4154 0.931 . S
C4170 C4164 1.383 . S
C4170 C4169 1.379 1_655 S
H4171 C4165 0.959 . S
H4172 C4165 0.961 . S
H4173 C4165 0.960 . S
H4174 C4166 0.930 . S
H4175 C4167 0.929 . S
H4176 C4184 0.929 . S
H4177 C4186 0.930 . S
H4178 C4188 0.930 . S
H4179 C4191 0.929 . S
H4180 C4194 0.930 . S
H4181 C4196 0.960 . S
H4182 C4196 0.960 . S
H4183 C4196 0.960 . S
C4184 H4176 0.929 . S
C4184 C4185 1.377 . S
C4184 C4186 1.384 . S
C4185 C4184 1.377 . S
C4185 C4191 1.390 . S
C4186 H4177 0.930 . S
C4186 C4184 1.384 . S
C4186 C4187 1.372 . S
C4187 C4186 1.372 . S
C4187 C4188 1.400 . S
C4187 C4192 1.490 . S
C4188 H4178 0.930 . S
C4188 C4187 1.400 . S
C4188 C4191 1.386 . S
H4189 C4205 0.930 . S
H4190 C4206 0.931 . S
C4191 H4179 0.929 . S
C4191 C4185 1.390 . S
C4191 C4188 1.386 . S
C4192 C4187 1.490 . S
C4192 C4194 1.395 . S
C4192 C4195 1.403 . S
H4193 C4199 0.930 . S
C4194 H4180 0.930 . S
C4194 C4192 1.395 . S
C4194 C4197 1.403 . S
C4195 C4192 1.403 . S
C4195 C4196 1.524 . S
C4195 C4199 1.400 . S
C4196 H4181 0.960 . S
C4196 H4182 0.960 . S
C4196 H4183 0.960 . S
C4196 C4195 1.524 . S
C4197 C4194 1.403 . S
C4197 C4198 1.392 . S
C4197 C4201 1.495 . S
C4198 C4197 1.392 . S
C4198 C4199 1.385 . S
C4198 C4200 1.478 . S
C4199 H4193 0.930 . S
C4199 C4195 1.400 . S
C4199 C4198 1.385 . S
C4200 C4198 1.478 . S
C4200 C4202 1.381 . S
C4200 C4206 1.383 . S
C4201 C4197 1.495 . S
C4201 H4207 0.959 . S
C4201 H4208 0.961 . S
C4201 H4209 0.960 . S
C4202 C4200 1.381 . S
C4202 C4203 1.394 . S
C4202 H4210 0.930 . S
C4203 C4202 1.394 . S
C4203 C4204 1.383 . S
C4203 H4211 0.929 . S
C4204 C4203 1.383 . S
C4204 C4205 1.377 . S
C4205 H4189 0.930 . S
C4205 C4204 1.377 . S
C4205 C4206 1.379 . S
C4206 H4190 0.931 . S
C4206 C4200 1.383 . S
C4206 C4205 1.379 . S
H4207 C4201 0.959 . S
H4208 C4201 0.961 . S
H4209 C4201 0.960 . S
H4210 C4202 0.930 . S
H4211 C4203 0.929 . S
H4212 C4220 0.929 . S
H4213 C4222 0.930 . S
H4214 C4224 0.930 . S
H4215 C4227 0.929 . S
H4216 C4230 0.930 . S
H4217 C4232 0.960 . S
H4218 C4232 0.960 . S
H4219 C4232 0.960 . S
C4220 H4212 0.929 . S
C4220 C4221 1.377 . S
C4220 C4222 1.384 . S
C4221 C4220 1.377 . S
C4221 C4227 1.390 . S
C4222 H4213 0.930 . S
C4222 C4220 1.384 . S
C4222 C4223 1.372 . S
C4223 C4222 1.372 . S
C4223 C4224 1.400 . S
C4223 C4228 1.490 . S
C4224 H4214 0.930 . S
C4224 C4223 1.400 . S
C4224 C4227 1.386 . S
H4225 C4241 0.930 . S
H4226 C4242 0.931 . S
C4227 H4215 0.929 . S
C4227 C4221 1.390 . S
C4227 C4224 1.386 . S
C4228 C4223 1.490 . S
C4228 C4230 1.395 . S
C4228 C4231 1.403 . S
H4229 C4235 0.930 . S
C4230 H4216 0.930 . S
C4230 C4228 1.395 . S
C4230 C4233 1.403 . S
C4231 C4228 1.403 . S
C4231 C4232 1.524 . S
C4231 C4235 1.400 . S
C4232 H4217 0.960 . S
C4232 H4218 0.960 . S
C4232 H4219 0.960 . S
C4232 C4231 1.524 . S
C4233 C4230 1.403 . S
C4233 C4234 1.392 . S
C4233 C4237 1.495 . S
C4234 C4233 1.392 . S
C4234 C4235 1.385 . S
C4234 C4236 1.478 . S
C4235 H4229 0.930 . S
C4235 C4231 1.400 . S
C4235 C4234 1.385 . S
C4236 C4234 1.478 . S
C4236 C4238 1.381 . S
C4236 C4242 1.383 . S
C4237 C4233 1.495 . S
C4237 H4243 0.959 . S
C4237 H4244 0.961 . S
C4237 H4245 0.960 . S
C4238 C4236 1.381 . S
C4238 C4239 1.394 . S
C4238 H4246 0.930 . S
C4239 C4238 1.394 . S
C4239 C4240 1.383 . S
C4239 H4247 0.929 . S
C4240 C4239 1.383 . S
C4240 C4241 1.377 . S
C4241 H4225 0.930 . S
C4241 C4240 1.377 . S
C4241 C4242 1.379 . S
C4242 H4226 0.931 . S
C4242 C4236 1.383 . S
C4242 C4241 1.379 . S
H4243 C4237 0.959 . S
H4244 C4237 0.961 . S
H4245 C4237 0.960 . S
H4246 C4238 0.930 . S
H4247 C4239 0.929 . S
H4248 C4256 0.929 . S
H4249 C4258 0.930 . S
H4250 C4260 0.930 . S
H4251 C4263 0.929 . S
H4252 C4266 0.930 . S
H4253 C4268 0.960 . S
H4254 C4268 0.960 . S
H4255 C4268 0.960 . S
C4256 H4248 0.929 . S
C4256 C4257 1.377 . S
C4256 C4258 1.384 . S
C4257 C4256 1.377 . S
C4257 C4263 1.390 . S
C4258 H4249 0.930 . S
C4258 C4256 1.384 . S
C4258 C4259 1.372 . S
C4259 C4258 1.372 . S
C4259 C4260 1.400 . S
C4259 C4264 1.490 . S
C4260 H4250 0.930 . S
C4260 C4259 1.400 . S
C4260 C4263 1.386 . S
H4261 C4277 0.930 . S
H4262 C4278 0.931 . S
C4263 H4251 0.929 . S
C4263 C4257 1.390 . S
C4263 C4260 1.386 . S
C4264 C4259 1.490 . S
C4264 C4266 1.395 . S
C4264 C4267 1.403 . S
H4265 C4271 0.930 . S
C4266 H4252 0.930 . S
C4266 C4264 1.395 . S
C4266 C4269 1.403 . S
C4267 C4264 1.403 . S
C4267 C4268 1.524 . S
C4267 C4271 1.400 . S
C4268 H4253 0.960 . S
C4268 H4254 0.960 . S
C4268 H4255 0.960 . S
C4268 C4267 1.524 . S
C4269 C4266 1.403 . S
C4269 C4270 1.392 . S
C4269 C4273 1.495 . S
C4270 C4269 1.392 . S
C4270 C4271 1.385 . S
C4270 C4272 1.478 . S
C4271 H4265 0.930 . S
C4271 C4267 1.400 . S
C4271 C4270 1.385 . S
C4272 C4270 1.478 . S
C4272 C4274 1.381 . S
C4272 C4278 1.383 . S
C4273 C4269 1.495 . S
C4273 H4279 0.959 . S
C4273 H4280 0.961 . S
C4273 H4281 0.960 . S
C4274 C4272 1.381 . S
C4274 C4275 1.394 . S
C4274 H4282 0.930 . S
C4275 C4274 1.394 . S
C4275 C4276 1.383 . S
C4275 H4283 0.929 . S
C4276 C4275 1.383 . S
C4276 C4277 1.377 . S
C4277 H4261 0.930 . S
C4277 C4276 1.377 . S
C4277 C4278 1.379 . S
C4278 H4262 0.931 . S
C4278 C4272 1.383 . S
C4278 C4277 1.379 . S
H4279 C4273 0.959 . S
H4280 C4273 0.961 . S
H4281 C4273 0.960 . S
H4282 C4274 0.930 . S
H4283 C4275 0.929 . S
H4284 C4292 0.929 . S
H4285 C4294 0.930 . S
H4286 C4296 0.930 . S
H4287 C4299 0.929 . S
H4288 C4302 0.930 . S
H4289 C4304 0.960 . S
H4290 C4304 0.960 . S
H4291 C4304 0.960 . S
C4292 H4284 0.929 . S
C4292 C4293 1.377 . S
C4292 C4294 1.384 . S
C4293 C4292 1.377 . S
C4293 C4299 1.390 . S
C4294 H4285 0.930 . S
C4294 C4292 1.384 . S
C4294 C4295 1.372 . S
C4295 C4294 1.372 . S
C4295 C4296 1.400 . S
C4295 C4300 1.490 . S
C4296 H4286 0.930 . S
C4296 C4295 1.400 . S
C4296 C4299 1.386 . S
H4297 C4313 0.930 . S
H4298 C4314 0.931 . S
C4299 H4287 0.929 . S
C4299 C4293 1.390 . S
C4299 C4296 1.386 . S
C4300 C4295 1.490 . S
C4300 C4302 1.395 . S
C4300 C4303 1.403 . S
H4301 C4307 0.930 . S
C4302 H4288 0.930 . S
C4302 C4300 1.395 . S
C4302 C4305 1.403 . S
C4303 C4300 1.403 . S
C4303 C4304 1.524 . S
C4303 C4307 1.400 . S
C4304 H4289 0.960 . S
C4304 H4290 0.960 . S
C4304 H4291 0.960 . S
C4304 C4303 1.524 . S
C4305 C4302 1.403 . S
C4305 C4306 1.392 . S
C4305 C4309 1.495 . S
C4306 C4305 1.392 . S
C4306 C4307 1.385 . S
C4306 C4308 1.478 . S
C4307 H4301 0.930 . S
C4307 C4303 1.400 . S
C4307 C4306 1.385 . S
C4308 C4306 1.478 . S
C4308 C4310 1.381 . S
C4308 C4314 1.383 . S
C4309 C4305 1.495 . S
C4309 H4315 0.959 . S
C4309 H4316 0.961 . S
C4309 H4317 0.960 . S
C4310 C4308 1.381 . S
C4310 C4311 1.394 . S
C4310 H4318 0.930 . S
C4311 C4310 1.394 . S
C4311 C4312 1.383 . S
C4311 H4319 0.929 . S
C4312 C4311 1.383 . S
C4312 C4313 1.377 . S
C4313 H4297 0.930 . S
C4313 C4312 1.377 . S
C4313 C4314 1.379 . S
C4314 H4298 0.931 . S
C4314 C4308 1.383 . S
C4314 C4313 1.379 . S
H4315 C4309 0.959 . S
H4316 C4309 0.961 . S
H4317 C4309 0.960 . S
H4318 C4310 0.930 . S
H4319 C4311 0.929 . S
H4320 C4328 0.929 . S
H4321 C4330 0.930 . S
H4322 C4332 0.930 . S
H4323 C4335 0.929 . S
H4324 C4338 0.930 . S
H4325 C4340 0.960 . S
H4326 C4340 0.960 . S
H4327 C4340 0.960 . S
C4328 H4320 0.929 . S
C4328 C4329 1.377 . S
C4328 C4330 1.384 . S
C4329 C4328 1.377 . S
C4329 C4335 1.390 . S
C4330 H4321 0.930 . S
C4330 C4328 1.384 . S
C4330 C4331 1.372 . S
C4331 C4330 1.372 . S
C4331 C4332 1.400 . S
C4331 C4336 1.490 . S
C4332 H4322 0.930 . S
C4332 C4331 1.400 . S
C4332 C4335 1.386 . S
H4333 C4349 0.930 . S
H4334 C4350 0.931 . S
C4335 H4323 0.929 . S
C4335 C4329 1.390 . S
C4335 C4332 1.386 . S
C4336 C4331 1.490 . S
C4336 C4338 1.395 . S
C4336 C4339 1.403 . S
H4337 C4343 0.930 . S
C4338 H4324 0.930 . S
C4338 C4336 1.395 . S
C4338 C4341 1.403 . S
C4339 C4336 1.403 . S
C4339 C4340 1.524 . S
C4339 C4343 1.400 . S
C4340 H4325 0.960 . S
C4340 H4326 0.960 . S
C4340 H4327 0.960 . S
C4340 C4339 1.524 . S
C4341 C4338 1.403 . S
C4341 C4342 1.392 . S
C4341 C4345 1.495 . S
C4342 C4341 1.392 . S
C4342 C4343 1.385 . S
C4342 C4344 1.478 . S
C4343 H4337 0.930 . S
C4343 C4339 1.400 . S
C4343 C4342 1.385 . S
C4344 C4342 1.478 . S
C4344 C4346 1.381 . S
C4344 C4350 1.383 . S
C4345 C4341 1.495 . S
C4345 H4351 0.959 . S
C4345 H4352 0.961 . S
C4345 H4353 0.960 . S
C4346 C4344 1.381 . S
C4346 C4347 1.394 . S
C4346 H4354 0.930 . S
C4347 C4346 1.394 . S
C4347 C4348 1.383 . S
C4347 H4355 0.929 . S
C4348 C4347 1.383 . S
C4348 C4349 1.377 . S
C4349 H4333 0.930 . S
C4349 C4348 1.377 . S
C4349 C4350 1.379 . S
C4350 H4334 0.931 . S
C4350 C4344 1.383 . S
C4350 C4349 1.379 . S
H4351 C4345 0.959 . S
H4352 C4345 0.961 . S
H4353 C4345 0.960 . S
H4354 C4346 0.930 . S
H4355 C4347 0.929 . S
H4356 C4364 0.929 . S
H4357 C4366 0.930 . S
H4358 C4368 0.930 . S
H4359 C4371 0.929 . S
H4360 C4374 0.930 . S
H4361 C4376 0.960 . S
H4362 C4376 0.960 . S
H4363 C4376 0.960 . S
C4364 H4356 0.929 . S
C4364 C4365 1.377 . S
C4364 C4366 1.384 . S
C4365 C4364 1.377 . S
C4365 C4371 1.390 . S
C4366 H4357 0.930 . S
C4366 C4364 1.384 . S
C4366 C4367 1.372 . S
C4367 C4366 1.372 . S
C4367 C4368 1.400 . S
C4367 C4372 1.490 . S
C4368 H4358 0.930 . S
C4368 C4367 1.400 . S
C4368 C4371 1.386 . S
H4369 C4385 0.930 . S
H4370 C4386 0.931 . S
C4371 H4359 0.929 . S
C4371 C4365 1.390 . S
C4371 C4368 1.386 . S
C4372 C4367 1.490 . S
C4372 C4374 1.395 . S
C4372 C4375 1.403 . S
H4373 C4379 0.930 . S
C4374 H4360 0.930 . S
C4374 C4372 1.395 . S
C4374 C4377 1.403 . S
C4375 C4372 1.403 . S
C4375 C4376 1.524 . S
C4375 C4379 1.400 . S
C4376 H4361 0.960 . S
C4376 H4362 0.960 . S
C4376 H4363 0.960 . S
C4376 C4375 1.524 . S
C4377 C4374 1.403 . S
C4377 C4378 1.392 . S
C4377 C4381 1.495 . S
C4378 C4377 1.392 . S
C4378 C4379 1.385 . S
C4378 C4380 1.478 . S
C4379 H4373 0.930 . S
C4379 C4375 1.400 . S
C4379 C4378 1.385 . S
C4380 C4378 1.478 . S
C4380 C4382 1.381 . S
C4380 C4386 1.383 . S
C4381 C4377 1.495 . S
C4381 H4387 0.959 . S
C4381 H4388 0.961 . S
C4381 H4389 0.960 . S
C4382 C4380 1.381 . S
C4382 C4383 1.394 . S
C4382 H4390 0.930 . S
C4383 C4382 1.394 . S
C4383 C4384 1.383 . S
C4383 H4391 0.929 . S
C4384 C4383 1.383 . S
C4384 C4385 1.377 . S
C4385 H4369 0.930 . S
C4385 C4384 1.377 . S
C4385 C4386 1.379 . S
C4386 H4370 0.931 . S
C4386 C4380 1.383 . S
C4386 C4385 1.379 . S
H4387 C4381 0.959 . S
H4388 C4381 0.961 . S
H4389 C4381 0.960 . S
H4390 C4382 0.930 . S
H4391 C4383 0.929 . S
H4392 C4400 0.929 . S
H4393 C4402 0.930 . S
H4394 C4404 0.930 . S
H4395 C4407 0.929 . S
H4396 C4410 0.930 . S
H4397 C4412 0.960 . S
H4398 C4412 0.960 . S
H4399 C4412 0.960 . S
C4400 H4392 0.929 . S
C4400 C4401 1.377 . S
C4400 C4402 1.384 . S
C4401 C4400 1.377 . S
C4401 C4407 1.390 . S
C4402 H4393 0.930 . S
C4402 C4400 1.384 . S
C4402 C4403 1.372 . S
C4403 C4402 1.372 . S
C4403 C4404 1.400 . S
C4403 C4408 1.490 . S
C4404 H4394 0.930 . S
C4404 C4403 1.400 . S
C4404 C4407 1.386 . S
H4405 C4421 0.930 . S
H4406 C4422 0.931 . S
C4407 H4395 0.929 . S
C4407 C4401 1.390 . S
C4407 C4404 1.386 . S
C4408 C4403 1.490 . S
C4408 C4410 1.395 . S
C4408 C4411 1.403 . S
H4409 C4415 0.930 . S
C4410 H4396 0.930 . S
C4410 C4408 1.395 . S
C4410 C4413 1.403 . S
C4411 C4408 1.403 . S
C4411 C4412 1.524 . S
C4411 C4415 1.400 . S
C4412 H4397 0.960 . S
C4412 H4398 0.960 . S
C4412 H4399 0.960 . S
C4412 C4411 1.524 . S
C4413 C4410 1.403 . S
C4413 C4414 1.392 . S
C4413 C4417 1.495 . S
C4414 C4413 1.392 . S
C4414 C4415 1.385 . S
C4414 C4416 1.478 . S
C4415 H4409 0.930 . S
C4415 C4411 1.400 . S
C4415 C4414 1.385 . S
C4416 C4414 1.478 . S
C4416 C4418 1.381 . S
C4416 C4422 1.383 . S
C4417 C4413 1.495 . S
C4417 H4423 0.959 . S
C4417 H4424 0.961 . S
C4417 H4425 0.960 . S
C4418 C4416 1.381 . S
C4418 C4419 1.394 . S
C4418 H4426 0.930 . S
C4419 C4418 1.394 . S
C4419 C4420 1.383 . S
C4419 H4427 0.929 . S
C4420 C4419 1.383 . S
C4420 C4421 1.377 . S
C4421 H4405 0.930 . S
C4421 C4420 1.377 . S
C4421 C4422 1.379 . S
C4422 H4406 0.931 . S
C4422 C4416 1.383 . S
C4422 C4421 1.379 . S
H4423 C4417 0.959 . S
H4424 C4417 0.961 . S
H4425 C4417 0.960 . S
H4426 C4418 0.930 . S
H4427 C4419 0.929 . S
H4428 C4436 0.929 . S
H4429 C4438 0.930 . S
H4430 C4440 0.930 . S
H4431 C4443 0.929 . S
H4432 C4446 0.930 . S
H4433 C4448 0.960 . S
H4434 C4448 0.960 . S
H4435 C4448 0.960 . S
C4436 H4428 0.929 . S
C4436 C4437 1.377 . S
C4436 C4438 1.384 . S
C4437 C4436 1.377 . S
C4437 C4443 1.390 . S
C4438 H4429 0.930 . S
C4438 C4436 1.384 . S
C4438 C4439 1.372 . S
C4439 C4438 1.372 . S
C4439 C4440 1.400 . S
C4439 C4444 1.490 . S
C4440 H4430 0.930 . S
C4440 C4439 1.400 . S
C4440 C4443 1.386 . S
H4441 C4457 0.930 . S
H4442 C4458 0.931 . S
C4443 H4431 0.929 . S
C4443 C4437 1.390 . S
C4443 C4440 1.386 . S
C4444 C4439 1.490 . S
C4444 C4446 1.395 . S
C4444 C4447 1.403 . S
H4445 C4451 0.930 . S
C4446 H4432 0.930 . S
C4446 C4444 1.395 . S
C4446 C4449 1.403 . S
C4447 C4444 1.403 . S
C4447 C4448 1.524 . S
C4447 C4451 1.400 . S
C4448 H4433 0.960 . S
C4448 H4434 0.960 . S
C4448 H4435 0.960 . S
C4448 C4447 1.524 . S
C4449 C4446 1.403 . S
C4449 C4450 1.392 . S
C4449 C4453 1.495 . S
C4450 C4449 1.392 . S
C4450 C4451 1.385 . S
C4450 C4452 1.478 . S
C4451 H4445 0.930 . S
C4451 C4447 1.400 . S
C4451 C4450 1.385 . S
C4452 C4450 1.478 . S
C4452 C4454 1.381 . S
C4452 C4458 1.383 . S
C4453 C4449 1.495 . S
C4453 H4459 0.959 . S
C4453 H4460 0.961 . S
C4453 H4461 0.960 . S
C4454 C4452 1.381 . S
C4454 C4455 1.394 . S
C4454 H4462 0.930 . S
C4455 C4454 1.394 . S
C4455 C4456 1.383 . S
C4455 H4463 0.929 . S
C4456 C4455 1.383 . S
C4456 C4457 1.377 . S
C4457 H4441 0.930 . S
C4457 C4456 1.377 . S
C4457 C4458 1.379 . S
C4458 H4442 0.931 . S
C4458 C4452 1.383 . S
C4458 C4457 1.379 . S
H4459 C4453 0.959 . S
H4460 C4453 0.961 . S
H4461 C4453 0.960 . S
H4462 C4454 0.930 . S
H4463 C4455 0.929 . S
H4464 C4472 0.929 . S
H4465 C4474 0.930 . S
H4466 C4476 0.930 . S
H4467 C4479 0.929 . S
H4468 C4482 0.930 . S
H4469 C4484 0.960 . S
H4470 C4484 0.960 . S
H4471 C4484 0.960 . S
C4472 H4464 0.929 . S
C4472 C4473 1.377 . S
C4472 C4474 1.384 . S
C4473 C4472 1.377 . S
C4473 C4479 1.390 . S
C4474 H4465 0.930 . S
C4474 C4472 1.384 . S
C4474 C4475 1.372 . S
C4475 C4474 1.372 . S
C4475 C4476 1.400 . S
C4475 C4480 1.490 . S
C4476 H4466 0.930 . S
C4476 C4475 1.400 . S
C4476 C4479 1.386 . S
H4477 C4493 0.930 . S
H4478 C4494 0.931 . S
C4479 H4467 0.929 . S
C4479 C4473 1.390 . S
C4479 C4476 1.386 . S
C4480 C4475 1.490 . S
C4480 C4482 1.395 . S
C4480 C4483 1.403 . S
H4481 C4487 0.930 . S
C4482 H4468 0.930 . S
C4482 C4480 1.395 . S
C4482 C4485 1.403 . S
C4483 C4480 1.403 . S
C4483 C4484 1.524 . S
C4483 C4487 1.400 . S
C4484 H4469 0.960 . S
C4484 H4470 0.960 . S
C4484 H4471 0.960 . S
C4484 C4483 1.524 . S
C4485 C4482 1.403 . S
C4485 C4486 1.392 . S
C4485 C4489 1.495 . S
C4486 C4485 1.392 . S
C4486 C4487 1.385 . S
C4486 C4488 1.478 . S
C4487 H4481 0.930 . S
C4487 C4483 1.400 . S
C4487 C4486 1.385 . S
C4488 C4486 1.478 . S
C4488 C4490 1.381 . S
C4488 C4494 1.383 . S
C4489 C4485 1.495 . S
C4489 H4495 0.959 . S
C4489 H4496 0.961 . S
C4489 H4497 0.960 . S
C4490 C4488 1.381 . S
C4490 C4491 1.394 . S
C4490 H4498 0.930 . S
C4491 C4490 1.394 . S
C4491 C4492 1.383 . S
C4491 H4499 0.929 . S
C4492 C4491 1.383 . S
C4492 C4493 1.377 . S
C4493 H4477 0.930 . S
C4493 C4492 1.377 . S
C4493 C4494 1.379 . S
C4494 H4478 0.931 . S
C4494 C4488 1.383 . S
C4494 C4493 1.379 . S
H4495 C4489 0.959 . S
H4496 C4489 0.961 . S
H4497 C4489 0.960 . S
H4498 C4490 0.930 . S
H4499 C4491 0.929 . S
H4500 C4508 0.929 . S
H4501 C4510 0.930 . S
H4502 C4512 0.930 . S
H4503 C4515 0.929 . S
H4504 C4518 0.930 . S
H4505 C4520 0.960 . S
H4506 C4520 0.960 . S
H4507 C4520 0.960 . S
C4508 H4500 0.929 . S
C4508 C4509 1.377 . S
C4508 C4510 1.384 . S
C4509 C4508 1.377 . S
C4509 C4515 1.390 . S
C4510 H4501 0.930 . S
C4510 C4508 1.384 . S
C4510 C4511 1.372 . S
C4511 C4510 1.372 . S
C4511 C4512 1.400 . S
C4511 C4516 1.490 . S
C4512 H4502 0.930 . S
C4512 C4511 1.400 . S
C4512 C4515 1.386 . S
H4513 C4529 0.930 . S
H4514 C4530 0.931 . S
C4515 H4503 0.929 . S
C4515 C4509 1.390 . S
C4515 C4512 1.386 . S
C4516 C4511 1.490 . S
C4516 C4518 1.395 . S
C4516 C4519 1.403 . S
H4517 C4523 0.930 . S
C4518 H4504 0.930 . S
C4518 C4516 1.395 . S
C4518 C4521 1.403 . S
C4519 C4516 1.403 . S
C4519 C4520 1.524 . S
C4519 C4523 1.400 . S
C4520 H4505 0.960 . S
C4520 H4506 0.960 . S
C4520 H4507 0.960 . S
C4520 C4519 1.524 . S
C4521 C4518 1.403 . S
C4521 C4522 1.392 . S
C4521 C4525 1.495 . S
C4522 C4521 1.392 . S
C4522 C4523 1.385 . S
C4522 C4524 1.478 . S
C4523 H4517 0.930 . S
C4523 C4519 1.400 . S
C4523 C4522 1.385 . S
C4524 C4522 1.478 . S
C4524 C4526 1.381 . S
C4524 C4530 1.383 . S
C4525 C4521 1.495 . S
C4525 H4531 0.959 . S
C4525 H4532 0.961 . S
C4525 H4533 0.960 . S
C4526 C4524 1.381 . S
C4526 C4527 1.394 . S
C4526 H4534 0.930 . S
C4527 C4526 1.394 . S
C4527 C4528 1.383 . S
C4527 H4535 0.929 . S
C4528 C4527 1.383 . S
C4528 C4529 1.377 . S
C4529 H4513 0.930 . S
C4529 C4528 1.377 . S
C4529 C4530 1.379 . S
C4530 H4514 0.931 . S
C4530 C4524 1.383 . S
C4530 C4529 1.379 . S
H4531 C4525 0.959 . S
H4532 C4525 0.961 . S
H4533 C4525 0.960 . S
H4534 C4526 0.930 . S
H4535 C4527 0.929 . S
H4536 C4544 0.929 . S
H4537 C4546 0.930 . S
H4538 C4548 0.930 . S
H4539 C4551 0.929 . S
H4540 C4554 0.930 . S
H4541 C4556 0.960 . S
H4542 C4556 0.960 . S
H4543 C4556 0.960 . S
C4544 H4536 0.929 . S
C4544 C4545 1.377 . S
C4544 C4546 1.384 . S
C4545 C4544 1.377 . S
C4545 C4551 1.390 . S
C4546 H4537 0.930 . S
C4546 C4544 1.384 . S
C4546 C4547 1.372 . S
C4547 C4546 1.372 . S
C4547 C4548 1.400 . S
C4547 C4552 1.490 . S
C4548 H4538 0.930 . S
C4548 C4547 1.400 . S
C4548 C4551 1.386 . S
H4549 C4565 0.930 . S
H4550 C4566 0.916 1_554 S
C4551 H4539 0.929 . S
C4551 C4545 1.390 . S
C4551 C4548 1.386 . S
C4552 C4547 1.490 . S
C4552 C4554 1.395 . S
C4552 C4555 1.403 . S
H4553 C4559 0.930 . S
C4554 H4540 0.930 . S
C4554 C4552 1.395 . S
C4554 C4557 1.403 . S
C4555 C4552 1.403 . S
C4555 C4556 1.524 . S
C4555 C4559 1.400 . S
C4556 H4541 0.960 . S
C4556 H4542 0.960 . S
C4556 H4543 0.960 . S
C4556 C4555 1.524 . S
C4557 C4554 1.403 . S
C4557 C4558 1.392 . S
C4557 C4561 1.495 . S
C4558 C4557 1.392 . S
C4558 C4559 1.385 . S
C4558 C4560 1.478 . S
C4559 H4553 0.930 . S
C4559 C4555 1.400 . S
C4559 C4558 1.385 . S
C4560 C4558 1.478 . S
C4560 C4562 1.381 . S
C4560 C4566 1.415 . S
C4561 C4557 1.495 . S
C4561 H4567 0.959 . S
C4561 H4568 0.961 . S
C4561 H4569 0.960 . S
C4562 C4560 1.381 . S
C4562 C4563 1.394 . S
C4562 H4570 0.930 . S
C4563 C4562 1.394 . S
C4563 C4564 1.383 1_566 S
C4563 H4571 0.929 . S
C4564 C4563 1.383 1_544 S
C4564 C4565 1.377 . S
C4565 H4549 0.930 . S
C4565 C4564 1.377 . S
C4565 C4566 1.365 1_544 S
C4566 H4550 0.916 1_556 S
C4566 C4560 1.415 . S
C4566 C4565 1.365 1_566 S
H4567 C4561 0.959 . S
H4568 C4561 0.961 . S
H4569 C4561 0.960 . S
H4570 C4562 0.930 . S
H4571 C4563 0.929 . S
H4572 C4580 0.929 . S
H4573 C4582 0.930 . S
H4574 C4584 0.930 . S
H4575 C4587 0.929 . S
H4576 C4590 0.930 . S
H4577 C4592 0.960 . S
H4578 C4592 0.960 . S
H4579 C4592 0.960 . S
C4580 H4572 0.929 . S
C4580 C4581 1.377 . S
C4580 C4582 1.384 . S
C4581 C4580 1.377 . S
C4581 C4587 1.390 . S
C4582 H4573 0.930 . S
C4582 C4580 1.384 . S
C4582 C4583 1.372 . S
C4583 C4582 1.372 . S
C4583 C4584 1.400 . S
C4583 C4588 1.490 . S
C4584 H4574 0.930 . S
C4584 C4583 1.400 . S
C4584 C4587 1.386 . S
H4585 C4601 0.930 . S
H4586 C4602 0.931 . S
C4587 H4575 0.929 . S
C4587 C4581 1.390 . S
C4587 C4584 1.386 . S
C4588 C4583 1.490 . S
C4588 C4590 1.395 . S
C4588 C4591 1.403 . S
H4589 C4595 0.930 . S
C4590 H4576 0.930 . S
C4590 C4588 1.395 . S
C4590 C4593 1.403 . S
C4591 C4588 1.403 . S
C4591 C4592 1.524 . S
C4591 C4595 1.400 . S
C4592 H4577 0.960 . S
C4592 H4578 0.960 . S
C4592 H4579 0.960 . S
C4592 C4591 1.524 . S
C4593 C4590 1.403 . S
C4593 C4594 1.392 . S
C4593 C4597 1.495 . S
C4594 C4593 1.392 . S
C4594 C4595 1.385 . S
C4594 C4596 1.478 . S
C4595 H4589 0.930 . S
C4595 C4591 1.400 . S
C4595 C4594 1.385 . S
C4596 C4594 1.478 . S
C4596 C4598 1.381 . S
C4596 C4602 1.383 . S
C4597 C4593 1.495 . S
C4597 H4603 0.959 . S
C4597 H4604 0.961 . S
C4597 H4605 0.960 . S
C4598 C4596 1.381 . S
C4598 C4599 1.394 . S
C4598 H4606 0.930 . S
C4599 C4598 1.394 . S
C4599 C4600 1.383 . S
C4599 H4607 0.929 . S
C4600 C4599 1.383 . S
C4600 C4601 1.377 . S
C4601 H4585 0.930 . S
C4601 C4600 1.377 . S
C4601 C4602 1.379 . S
C4602 H4586 0.931 . S
C4602 C4596 1.383 . S
C4602 C4601 1.379 . S
H4603 C4597 0.959 . S
H4604 C4597 0.961 . S
H4605 C4597 0.960 . S
H4606 C4598 0.930 . S
H4607 C4599 0.929 . S
H4608 C4616 0.929 . S
H4609 C4618 0.930 . S
H4610 C4620 0.930 . S
H4611 C4623 0.929 . S
H4612 C4626 0.904 1_565 S
H4613 C4628 0.960 . S
H4614 C4628 0.960 . S
H4615 C4628 0.960 . S
C4616 H4608 0.929 . S
C4616 C4617 1.377 1_565 S
C4616 C4618 1.384 . S
C4617 C4616 1.377 1_545 S
C4617 C4623 1.390 . S
C4618 H4609 0.930 . S
C4618 C4616 1.384 . S
C4618 C4619 1.372 1_565 S
C4619 C4618 1.372 1_545 S
C4619 C4620 1.400 . S
C4619 C4624 1.490 . S
C4620 H4610 0.930 . S
C4620 C4619 1.400 . S
C4620 C4623 1.386 . S
H4621 C4637 0.930 . S
H4622 C4638 0.931 . S
C4623 H4611 0.929 . S
C4623 C4617 1.390 . S
C4623 C4620 1.386 . S
C4624 C4619 1.490 . S
C4624 C4626 1.421 . S
C4624 C4627 1.403 . S
H4625 C4631 0.930 . S
C4626 H4612 0.904 1_545 S
C4626 C4624 1.421 . S
C4626 C4629 1.404 . S
C4627 C4624 1.403 . S
C4627 C4628 1.524 . S
C4627 C4631 1.400 . S
C4628 H4613 0.960 . S
C4628 H4614 0.960 . S
C4628 H4615 0.960 . S
C4628 C4627 1.524 . S
C4629 C4626 1.404 . S
C4629 C4630 1.392 . S
C4629 C4633 1.495 1_545 S
C4630 C4629 1.392 . S
C4630 C4631 1.385 . S
C4630 C4632 1.478 . S
C4631 H4625 0.930 . S
C4631 C4627 1.400 . S
C4631 C4630 1.385 . S
C4632 C4630 1.478 . S
C4632 C4634 1.406 . S
C4632 C4638 1.383 . S
C4633 C4629 1.495 1_565 S
C4633 H4639 0.959 . S
C4633 H4640 0.961 1_565 S
C4633 H4641 0.960 . S
C4634 C4632 1.406 . S
C4634 C4635 1.397 . S
C4634 H4642 0.902 1_545 S
C4635 C4634 1.397 . S
C4635 C4636 1.383 . S
C4635 H4643 0.929 1_545 S
C4636 C4635 1.383 . S
C4636 C4637 1.377 . S
C4637 H4621 0.930 . S
C4637 C4636 1.377 . S
C4637 C4638 1.379 . S
C4638 H4622 0.931 . S
C4638 C4632 1.383 . S
C4638 C4637 1.379 . S
H4639 C4633 0.959 . S
H4640 C4633 0.961 1_545 S
H4641 C4633 0.960 . S
H4642 C4634 0.902 1_565 S
H4643 C4635 0.929 1_565 S
H4644 C4652 0.929 . S
H4645 C4654 0.930 . S
H4646 C4656 0.930 . S
H4647 C4659 0.929 . S
H4648 C4662 0.930 . S
H4649 C4664 0.960 . S
H4650 C4664 0.960 . S
H4651 C4664 0.960 . S
C4652 H4644 0.929 . S
C4652 C4653 1.377 . S
C4652 C4654 1.384 . S
C4653 C4652 1.377 . S
C4653 C4659 1.390 . S
C4654 H4645 0.930 . S
C4654 C4652 1.384 . S
C4654 C4655 1.372 . S
C4655 C4654 1.372 . S
C4655 C4656 1.400 . S
C4655 C4660 1.490 . S
C4656 H4646 0.930 . S
C4656 C4655 1.400 . S
C4656 C4659 1.386 . S
H4657 C4673 0.930 . S
H4658 C4674 0.931 . S
C4659 H4647 0.929 . S
C4659 C4653 1.390 . S
C4659 C4656 1.386 . S
C4660 C4655 1.490 . S
C4660 C4662 1.395 . S
C4660 C4663 1.403 . S
H4661 C4667 0.930 . S
C4662 H4648 0.930 . S
C4662 C4660 1.395 . S
C4662 C4665 1.403 . S
C4663 C4660 1.403 . S
C4663 C4664 1.524 . S
C4663 C4667 1.400 . S
C4664 H4649 0.960 . S
C4664 H4650 0.960 . S
C4664 H4651 0.960 . S
C4664 C4663 1.524 . S
C4665 C4662 1.403 . S
C4665 C4666 1.392 . S
C4665 C4669 1.495 . S
C4666 C4665 1.392 . S
C4666 C4667 1.385 . S
C4666 C4668 1.478 . S
C4667 H4661 0.930 . S
C4667 C4663 1.400 . S
C4667 C4666 1.385 . S
C4668 C4666 1.478 . S
C4668 C4670 1.381 . S
C4668 C4674 1.383 . S
C4669 C4665 1.495 . S
C4669 H4675 0.959 . S
C4669 H4676 0.961 . S
C4669 H4677 0.960 . S
C4670 C4668 1.381 . S
C4670 C4671 1.394 . S
C4670 H4678 0.930 . S
C4671 C4670 1.394 . S
C4671 C4672 1.383 . S
C4671 H4679 0.929 . S
C4672 C4671 1.383 . S
C4672 C4673 1.377 . S
C4673 H4657 0.930 . S
C4673 C4672 1.377 . S
C4673 C4674 1.379 . S
C4674 H4658 0.931 . S
C4674 C4668 1.383 . S
C4674 C4673 1.379 . S
H4675 C4669 0.959 . S
H4676 C4669 0.961 . S
H4677 C4669 0.960 . S
H4678 C4670 0.930 . S
H4679 C4671 0.929 . S
H4680 C4688 0.929 . S
H4681 C4690 0.930 . S
H4682 C4692 0.930 . S
H4683 C4695 0.929 . S
H4684 C4698 0.930 . S
H4685 C4700 0.960 . S
H4686 C4700 0.960 . S
H4687 C4700 0.960 . S
C4688 H4680 0.929 . S
C4688 C4689 1.377 . S
C4688 C4690 1.384 . S
C4689 C4688 1.377 . S
C4689 C4695 1.390 . S
C4690 H4681 0.930 . S
C4690 C4688 1.384 . S
C4690 C4691 1.372 . S
C4691 C4690 1.372 . S
C4691 C4692 1.400 . S
C4691 C4696 1.490 . S
C4692 H4682 0.930 . S
C4692 C4691 1.400 . S
C4692 C4695 1.386 . S
H4693 C4709 0.930 . S
H4694 C4710 0.931 . S
C4695 H4683 0.929 . S
C4695 C4689 1.390 . S
C4695 C4692 1.386 . S
C4696 C4691 1.490 . S
C4696 C4698 1.395 . S
C4696 C4699 1.403 . S
H4697 C4703 0.930 . S
C4698 H4684 0.930 . S
C4698 C4696 1.395 . S
C4698 C4701 1.403 . S
C4699 C4696 1.403 . S
C4699 C4700 1.524 . S
C4699 C4703 1.400 . S
C4700 H4685 0.960 . S
C4700 H4686 0.960 . S
C4700 H4687 0.960 . S
C4700 C4699 1.524 . S
C4701 C4698 1.403 . S
C4701 C4702 1.392 . S
C4701 C4705 1.495 . S
C4702 C4701 1.392 . S
C4702 C4703 1.385 . S
C4702 C4704 1.478 . S
C4703 H4697 0.930 . S
C4703 C4699 1.400 . S
C4703 C4702 1.385 . S
C4704 C4702 1.478 . S
C4704 C4706 1.381 . S
C4704 C4710 1.383 . S
C4705 C4701 1.495 . S
C4705 H4711 0.959 . S
C4705 H4712 0.961 . S
C4705 H4713 0.960 . S
C4706 C4704 1.381 . S
C4706 C4707 1.394 . S
C4706 H4714 0.930 . S
C4707 C4706 1.394 . S
C4707 C4708 1.383 . S
C4707 H4715 0.929 . S
C4708 C4707 1.383 . S
C4708 C4709 1.377 . S
C4709 H4693 0.930 . S
C4709 C4708 1.377 . S
C4709 C4710 1.379 . S
C4710 H4694 0.931 . S
C4710 C4704 1.383 . S
C4710 C4709 1.379 . S
H4711 C4705 0.959 . S
H4712 C4705 0.961 . S
H4713 C4705 0.960 . S
H4714 C4706 0.930 . S
H4715 C4707 0.929 . S
H4716 C4724 0.929 . S
H4717 C4726 0.930 . S
H4718 C4728 0.930 . S
H4719 C4731 0.929 . S
H4720 C4734 0.930 . S
H4721 C4736 0.960 . S
H4722 C4736 0.960 . S
H4723 C4736 0.960 . S
C4724 H4716 0.929 . S
C4724 C4725 1.377 . S
C4724 C4726 1.384 . S
C4725 C4724 1.377 . S
C4725 C4731 1.390 . S
C4726 H4717 0.930 . S
C4726 C4724 1.384 . S
C4726 C4727 1.372 . S
C4727 C4726 1.372 . S
C4727 C4728 1.400 . S
C4727 C4732 1.490 . S
C4728 H4718 0.930 . S
C4728 C4727 1.400 . S
C4728 C4731 1.386 . S
H4729 C4745 0.930 . S
H4730 C4746 0.931 . S
C4731 H4719 0.929 . S
C4731 C4725 1.390 . S
C4731 C4728 1.386 . S
C4732 C4727 1.490 . S
C4732 C4734 1.395 . S
C4732 C4735 1.403 . S
H4733 C4739 0.930 . S
C4734 H4720 0.930 . S
C4734 C4732 1.395 . S
C4734 C4737 1.403 . S
C4735 C4732 1.403 . S
C4735 C4736 1.524 . S
C4735 C4739 1.400 . S
C4736 H4721 0.960 . S
C4736 H4722 0.960 . S
C4736 H4723 0.960 . S
C4736 C4735 1.524 . S
C4737 C4734 1.403 . S
C4737 C4738 1.392 . S
C4737 C4741 1.495 . S
C4738 C4737 1.392 . S
C4738 C4739 1.385 . S
C4738 C4740 1.478 . S
C4739 H4733 0.930 . S
C4739 C4735 1.400 . S
C4739 C4738 1.385 . S
C4740 C4738 1.478 . S
C4740 C4742 1.381 . S
C4740 C4746 1.383 . S
C4741 C4737 1.495 . S
C4741 H4747 0.959 . S
C4741 H4748 0.961 . S
C4741 H4749 0.960 . S
C4742 C4740 1.381 . S
C4742 C4743 1.394 . S
C4742 H4750 0.930 . S
C4743 C4742 1.394 . S
C4743 C4744 1.383 . S
C4743 H4751 0.929 . S
C4744 C4743 1.383 . S
C4744 C4745 1.377 . S
C4745 H4729 0.930 . S
C4745 C4744 1.377 . S
C4745 C4746 1.379 . S
C4746 H4730 0.931 . S
C4746 C4740 1.383 . S
C4746 C4745 1.379 . S
H4747 C4741 0.959 . S
H4748 C4741 0.961 . S
H4749 C4741 0.960 . S
H4750 C4742 0.930 . S
H4751 C4743 0.929 . S
H4752 C4760 0.929 . S
H4753 C4762 0.930 . S
H4754 C4764 0.930 . S
H4755 C4767 0.929 . S
H4756 C4770 0.930 . S
H4757 C4772 0.960 . S
H4758 C4772 0.960 . S
H4759 C4772 0.960 . S
C4760 H4752 0.929 . S
C4760 C4761 1.377 . S
C4760 C4762 1.384 . S
C4761 C4760 1.377 . S
C4761 C4767 1.390 . S
C4762 H4753 0.930 . S
C4762 C4760 1.384 . S
C4762 C4763 1.360 1_565 S
C4763 C4762 1.360 1_545 S
C4763 C4764 1.400 . S
C4763 C4768 1.501 . S
C4764 H4754 0.930 . S
C4764 C4763 1.400 . S
C4764 C4767 1.386 1_545 S
H4765 C4781 0.930 . S
H4766 C4782 0.931 . S
C4767 H4755 0.929 . S
C4767 C4761 1.390 . S
C4767 C4764 1.386 1_565 S
C4768 C4763 1.501 . S
C4768 C4770 1.395 1_545 S
C4768 C4771 1.403 . S
H4769 C4775 0.930 . S
C4770 H4756 0.930 . S
C4770 C4768 1.395 1_565 S
C4770 C4773 1.403 . S
C4771 C4768 1.403 . S
C4771 C4772 1.524 . S
C4771 C4775 1.400 . S
C4772 H4757 0.960 . S
C4772 H4758 0.960 . S
C4772 H4759 0.960 . S
C4772 C4771 1.524 . S
C4773 C4770 1.403 . S
C4773 C4774 1.392 1_565 S
C4773 C4777 1.495 . S
C4774 C4773 1.392 1_545 S
C4774 C4775 1.385 . S
C4774 C4776 1.478 . S
C4775 H4769 0.930 . S
C4775 C4771 1.400 . S
C4775 C4774 1.385 . S
C4776 C4774 1.478 . S
C4776 C4778 1.381 . S
C4776 C4782 1.383 . S
C4777 C4773 1.495 . S
C4777 H4783 0.959 . S
C4777 H4784 0.961 . S
C4777 H4785 0.960 . S
C4778 C4776 1.381 . S
C4778 C4779 1.394 . S
C4778 H4786 0.930 . S
C4779 C4778 1.394 . S
C4779 C4780 1.383 . S
C4779 H4787 0.929 . S
C4780 C4779 1.383 . S
C4780 C4781 1.377 . S
C4781 H4765 0.930 . S
C4781 C4780 1.377 . S
C4781 C4782 1.379 . S
C4782 H4766 0.931 . S
C4782 C4776 1.383 . S
C4782 C4781 1.379 . S
H4783 C4777 0.959 . S
H4784 C4777 0.961 . S
H4785 C4777 0.960 . S
H4786 C4778 0.930 . S
H4787 C4779 0.929 . S
H4788 C4796 0.929 . S
H4789 C4798 0.930 . S
H4790 C4800 0.930 . S
H4791 C4803 0.929 . S
H4792 C4806 0.930 . S
H4793 C4808 0.960 . S
H4794 C4808 0.960 . S
H4795 C4808 0.960 . S
C4796 H4788 0.929 . S
C4796 C4797 1.377 . S
C4796 C4798 1.384 . S
C4797 C4796 1.377 . S
C4797 C4803 1.390 . S
C4798 H4789 0.930 . S
C4798 C4796 1.384 . S
C4798 C4799 1.372 . S
C4799 C4798 1.372 . S
C4799 C4800 1.400 . S
C4799 C4804 1.490 . S
C4800 H4790 0.930 . S
C4800 C4799 1.400 . S
C4800 C4803 1.386 . S
H4801 C4817 0.930 . S
H4802 C4818 0.931 . S
C4803 H4791 0.929 . S
C4803 C4797 1.390 . S
C4803 C4800 1.386 . S
C4804 C4799 1.490 . S
C4804 C4806 1.395 . S
C4804 C4807 1.403 . S
H4805 C4811 0.930 . S
C4806 H4792 0.930 . S
C4806 C4804 1.395 . S
C4806 C4809 1.403 . S
C4807 C4804 1.403 . S
C4807 C4808 1.524 . S
C4807 C4811 1.400 . S
C4808 H4793 0.960 . S
C4808 H4794 0.960 . S
C4808 H4795 0.960 . S
C4808 C4807 1.524 . S
C4809 C4806 1.403 . S
C4809 C4810 1.392 . S
C4809 C4813 1.495 . S
C4810 C4809 1.392 . S
C4810 C4811 1.385 . S
C4810 C4812 1.478 . S
C4811 H4805 0.930 . S
C4811 C4807 1.400 . S
C4811 C4810 1.385 . S
C4812 C4810 1.478 . S
C4812 C4814 1.381 . S
C4812 C4818 1.383 . S
C4813 C4809 1.495 . S
C4813 H4819 0.959 . S
C4813 H4820 0.961 . S
C4813 H4821 0.960 . S
C4814 C4812 1.381 . S
C4814 C4815 1.394 . S
C4814 H4822 0.930 . S
C4815 C4814 1.394 . S
C4815 C4816 1.383 . S
C4815 H4823 0.929 . S
C4816 C4815 1.383 . S
C4816 C4817 1.377 . S
C4817 H4801 0.930 . S
C4817 C4816 1.377 . S
C4817 C4818 1.379 . S
C4818 H4802 0.931 . S
C4818 C4812 1.383 . S
C4818 C4817 1.379 . S
H4819 C4813 0.959 . S
H4820 C4813 0.961 . S
H4821 C4813 0.960 . S
H4822 C4814 0.930 . S
H4823 C4815 0.929 . S
H4824 C4832 0.929 . S
H4825 C4834 0.930 . S
H4826 C4836 0.930 . S
H4827 C4839 0.929 . S
H4828 C4842 0.930 . S
H4829 C4844 0.960 . S
H4830 C4844 0.960 . S
H4831 C4844 0.960 . S
C4832 H4824 0.929 . S
C4832 C4833 1.377 . S
C4832 C4834 1.384 . S
C4833 C4832 1.377 . S
C4833 C4839 1.390 . S
C4834 H4825 0.930 . S
C4834 C4832 1.384 . S
C4834 C4835 1.372 . S
C4835 C4834 1.372 . S
C4835 C4836 1.400 . S
C4835 C4840 1.490 . S
C4836 H4826 0.930 . S
C4836 C4835 1.400 . S
C4836 C4839 1.386 . S
H4837 C4853 0.930 . S
H4838 C4854 0.931 . S
C4839 H4827 0.929 . S
C4839 C4833 1.390 . S
C4839 C4836 1.386 . S
C4840 C4835 1.490 . S
C4840 C4842 1.395 . S
C4840 C4843 1.403 . S
H4841 C4847 0.930 . S
C4842 H4828 0.930 . S
C4842 C4840 1.395 . S
C4842 C4845 1.403 . S
C4843 C4840 1.403 . S
C4843 C4844 1.524 . S
C4843 C4847 1.400 . S
C4844 H4829 0.960 . S
C4844 H4830 0.960 . S
C4844 H4831 0.960 . S
C4844 C4843 1.524 . S
C4845 C4842 1.403 . S
C4845 C4846 1.392 . S
C4845 C4849 1.495 1_545 S
C4846 C4845 1.392 . S
C4846 C4847 1.385 . S
C4846 C4848 1.478 . S
C4847 H4841 0.930 . S
C4847 C4843 1.400 . S
C4847 C4846 1.385 . S
C4848 C4846 1.478 . S
C4848 C4850 1.381 . S
C4848 C4854 1.383 . S
C4849 C4845 1.495 1_565 S
C4849 H4855 0.959 . S
C4849 H4856 0.961 . S
C4849 H4857 0.960 . S
C4850 C4848 1.381 . S
C4850 C4851 1.394 . S
C4850 H4858 0.930 . S
C4851 C4850 1.394 . S
C4851 C4852 1.383 . S
C4851 H4859 0.929 . S
C4852 C4851 1.383 . S
C4852 C4853 1.377 . S
C4853 H4837 0.930 . S
C4853 C4852 1.377 . S
C4853 C4854 1.379 . S
C4854 H4838 0.931 . S
C4854 C4848 1.383 . S
C4854 C4853 1.379 . S
H4855 C4849 0.959 . S
H4856 C4849 0.961 . S
H4857 C4849 0.960 . S
H4858 C4850 0.930 . S
H4859 C4851 0.929 . S
H4860 C4868 0.929 . S
H4861 C4870 0.930 . S
H4862 C4872 0.930 . S
H4863 C4875 0.929 . S
H4864 C4878 0.930 . S
H4865 C4880 0.960 . S
H4866 C4880 0.960 . S
H4867 C4880 0.960 . S
C4868 H4860 0.929 . S
C4868 C4869 1.377 . S
C4868 C4870 1.384 . S
C4869 C4868 1.377 . S
C4869 C4875 1.390 . S
C4870 H4861 0.930 . S
C4870 C4868 1.384 . S
C4870 C4871 1.372 . S
C4871 C4870 1.372 . S
C4871 C4872 1.400 . S
C4871 C4876 1.490 . S
C4872 H4862 0.930 . S
C4872 C4871 1.400 . S
C4872 C4875 1.386 . S
H4873 C4889 0.930 . S
H4874 C4890 0.931 . S
C4875 H4863 0.929 . S
C4875 C4869 1.390 . S
C4875 C4872 1.386 . S
C4876 C4871 1.490 . S
C4876 C4878 1.395 . S
C4876 C4879 1.403 . S
H4877 C4883 0.930 . S
C4878 H4864 0.930 . S
C4878 C4876 1.395 . S
C4878 C4881 1.403 . S
C4879 C4876 1.403 . S
C4879 C4880 1.524 . S
C4879 C4883 1.400 . S
C4880 H4865 0.960 . S
C4880 H4866 0.960 . S
C4880 H4867 0.960 . S
C4880 C4879 1.524 . S
C4881 C4878 1.403 . S
C4881 C4882 1.392 . S
C4881 C4885 1.495 . S
C4882 C4881 1.392 . S
C4882 C4883 1.385 . S
C4882 C4884 1.478 . S
C4883 H4877 0.930 . S
C4883 C4879 1.400 . S
C4883 C4882 1.385 . S
C4884 C4882 1.478 . S
C4884 C4886 1.381 . S
C4884 C4890 1.383 . S
C4885 C4881 1.495 . S
C4885 H4891 0.959 . S
C4885 H4892 0.961 . S
C4885 H4893 0.960 . S
C4886 C4884 1.381 . S
C4886 C4887 1.394 . S
C4886 H4894 0.930 . S
C4887 C4886 1.394 . S
C4887 C4888 1.383 . S
C4887 H4895 0.929 . S
C4888 C4887 1.383 . S
C4888 C4889 1.377 . S
C4889 H4873 0.930 . S
C4889 C4888 1.377 . S
C4889 C4890 1.379 . S
C4890 H4874 0.931 . S
C4890 C4884 1.383 . S
C4890 C4889 1.379 . S
H4891 C4885 0.959 . S
H4892 C4885 0.961 . S
H4893 C4885 0.960 . S
H4894 C4886 0.930 . S
H4895 C4887 0.929 . S
H4896 C4904 0.929 . S
H4897 C4906 0.930 . S
H4898 C4908 0.930 . S
H4899 C4911 0.929 . S
H4900 C4914 0.930 . S
H4901 C4916 0.960 . S
H4902 C4916 0.960 . S
H4903 C4916 0.960 . S
C4904 H4896 0.929 . S
C4904 C4905 1.377 . S
C4904 C4906 1.384 . S
C4905 C4904 1.377 . S
C4905 C4911 1.390 . S
C4906 H4897 0.930 . S
C4906 C4904 1.384 . S
C4906 C4907 1.372 . S
C4907 C4906 1.372 . S
C4907 C4908 1.400 . S
C4907 C4912 1.490 . S
C4908 H4898 0.930 . S
C4908 C4907 1.400 . S
C4908 C4911 1.386 . S
H4909 C4925 0.930 . S
H4910 C4926 0.931 . S
C4911 H4899 0.929 . S
C4911 C4905 1.390 . S
C4911 C4908 1.386 . S
C4912 C4907 1.490 . S
C4912 C4914 1.395 1_554 S
C4912 C4915 1.403 . S
H4913 C4919 0.930 . S
C4914 H4900 0.930 . S
C4914 C4912 1.395 1_556 S
C4914 C4917 1.403 . S
C4915 C4912 1.403 . S
C4915 C4916 1.524 . S
C4915 C4919 1.400 . S
C4916 H4901 0.960 . S
C4916 H4902 0.960 . S
C4916 H4903 0.960 . S
C4916 C4915 1.524 . S
C4917 C4914 1.403 . S
C4917 C4918 1.392 1_556 S
C4917 C4921 1.495 . S
C4918 C4917 1.392 1_554 S
C4918 C4919 1.385 . S
C4918 C4920 1.478 . S
C4919 H4913 0.930 . S
C4919 C4915 1.400 . S
C4919 C4918 1.385 . S
C4920 C4918 1.478 . S
C4920 C4922 1.381 . S
C4920 C4926 1.383 . S
C4921 C4917 1.495 . S
C4921 H4927 0.959 . S
C4921 H4928 0.961 . S
C4921 H4929 0.960 . S
C4922 C4920 1.381 . S
C4922 C4923 1.394 . S
C4922 H4930 0.930 . S
C4923 C4922 1.394 . S
C4923 C4924 1.383 . S
C4923 H4931 0.929 . S
C4924 C4923 1.383 . S
C4924 C4925 1.377 . S
C4925 H4909 0.930 . S
C4925 C4924 1.377 . S
C4925 C4926 1.379 . S
C4926 H4910 0.931 . S
C4926 C4920 1.383 . S
C4926 C4925 1.379 . S
H4927 C4921 0.959 . S
H4928 C4921 0.961 . S
H4929 C4921 0.960 . S
H4930 C4922 0.930 . S
H4931 C4923 0.929 . S
H4932 C4940 0.929 . S
H4933 C4942 0.930 . S
H4934 C4944 0.930 . S
H4935 C4947 0.929 . S
H4936 C4950 0.930 . S
H4937 C4952 0.960 . S
H4938 C4952 0.960 . S
H4939 C4952 0.960 . S
C4940 H4932 0.929 . S
C4940 C4941 1.377 . S
C4940 C4942 1.384 . S
C4941 C4940 1.377 . S
C4941 C4947 1.390 . S
C4942 H4933 0.930 . S
C4942 C4940 1.384 . S
C4942 C4943 1.372 . S
C4943 C4942 1.372 . S
C4943 C4944 1.400 . S
C4943 C4948 1.490 . S
C4944 H4934 0.930 . S
C4944 C4943 1.400 . S
C4944 C4947 1.386 . S
H4945 C4961 0.930 . S
H4946 C4962 0.931 . S
C4947 H4935 0.929 . S
C4947 C4941 1.390 . S
C4947 C4944 1.386 . S
C4948 C4943 1.490 . S
C4948 C4950 1.395 . S
C4948 C4951 1.403 . S
H4949 C4955 0.930 . S
C4950 H4936 0.930 . S
C4950 C4948 1.395 . S
C4950 C4953 1.403 . S
C4951 C4948 1.403 . S
C4951 C4952 1.524 . S
C4951 C4955 1.400 . S
C4952 H4937 0.960 . S
C4952 H4938 0.960 . S
C4952 H4939 0.960 . S
C4952 C4951 1.524 . S
C4953 C4950 1.403 . S
C4953 C4954 1.392 . S
C4953 C4957 1.495 . S
C4954 C4953 1.392 . S
C4954 C4955 1.385 . S
C4954 C4956 1.478 . S
C4955 H4949 0.930 . S
C4955 C4951 1.400 . S
C4955 C4954 1.385 . S
C4956 C4954 1.478 . S
C4956 C4958 1.381 . S
C4956 C4962 1.383 . S
C4957 C4953 1.495 . S
C4957 H4963 0.959 . S
C4957 H4964 0.961 . S
C4957 H4965 0.960 . S
C4958 C4956 1.381 . S
C4958 C4959 1.394 . S
C4958 H4966 0.930 . S
C4959 C4958 1.394 . S
C4959 C4960 1.383 . S
C4959 H4967 0.929 . S
C4960 C4959 1.383 . S
C4960 C4961 1.377 . S
C4961 H4945 0.930 . S
C4961 C4960 1.377 . S
C4961 C4962 1.379 . S
C4962 H4946 0.931 . S
C4962 C4956 1.383 . S
C4962 C4961 1.379 . S
H4963 C4957 0.959 . S
H4964 C4957 0.961 . S
H4965 C4957 0.960 . S
H4966 C4958 0.930 . S
H4967 C4959 0.929 . S
H4968 C4976 0.929 . S
H4969 C4978 0.930 . S
H4970 C4980 0.930 . S
H4971 C4983 0.929 . S
H4972 C4986 0.930 . S
H4973 C4988 0.960 . S
H4974 C4988 0.960 . S
H4975 C4988 0.960 . S
C4976 H4968 0.929 . S
C4976 C4977 1.377 . S
C4976 C4978 1.384 . S
C4977 C4976 1.377 . S
C4977 C4983 1.390 . S
C4978 H4969 0.930 . S
C4978 C4976 1.384 . S
C4978 C4979 1.372 . S
C4979 C4978 1.372 . S
C4979 C4980 1.400 . S
C4979 C4984 1.490 . S
C4980 H4970 0.930 . S
C4980 C4979 1.400 . S
C4980 C4983 1.386 . S
H4981 C4997 0.930 . S
H4982 C4998 0.931 . S
C4983 H4971 0.929 . S
C4983 C4977 1.390 . S
C4983 C4980 1.386 . S
C4984 C4979 1.490 . S
C4984 C4986 1.395 . S
C4984 C4987 1.403 . S
H4985 C4991 0.930 . S
C4986 H4972 0.930 . S
C4986 C4984 1.395 . S
C4986 C4989 1.403 . S
C4987 C4984 1.403 . S
C4987 C4988 1.524 . S
C4987 C4991 1.400 . S
C4988 H4973 0.960 . S
C4988 H4974 0.960 . S
C4988 H4975 0.960 . S
C4988 C4987 1.524 . S
C4989 C4986 1.403 . S
C4989 C4990 1.392 . S
C4989 C4993 1.495 . S
C4990 C4989 1.392 . S
C4990 C4991 1.385 . S
C4990 C4992 1.478 . S
C4991 H4985 0.930 . S
C4991 C4987 1.400 . S
C4991 C4990 1.385 . S
C4992 C4990 1.478 . S
C4992 C4994 1.381 . S
C4992 C4998 1.383 . S
C4993 C4989 1.495 . S
C4993 H4999 0.959 . S
C4993 H5000 0.961 . S
C4993 H5001 0.960 . S
C4994 C4992 1.381 . S
C4994 C4995 1.394 . S
C4994 H5002 0.930 . S
C4995 C4994 1.394 . S
C4995 C4996 1.383 . S
C4995 H5003 0.929 . S
C4996 C4995 1.383 . S
C4996 C4997 1.377 . S
C4997 H4981 0.930 . S
C4997 C4996 1.377 . S
C4997 C4998 1.379 . S
C4998 H4982 0.931 . S
C4998 C4992 1.383 . S
C4998 C4997 1.379 . S
H4999 C4993 0.959 . S
H5000 C4993 0.961 . S
H5001 C4993 0.960 . S
H5002 C4994 0.930 . S
H5003 C4995 0.929 . S
H5004 C5012 0.929 . S
H5005 C5014 0.930 . S
H5006 C5016 0.930 . S
H5007 C5019 0.929 . S
H5008 C5022 0.930 . S
H5009 C5024 0.960 . S
H5010 C5024 0.960 . S
H5011 C5024 0.960 . S
C5012 H5004 0.929 . S
C5012 C5013 1.377 . S
C5012 C5014 1.384 . S
C5013 C5012 1.377 . S
C5013 C5019 1.390 . S
C5014 H5005 0.930 . S
C5014 C5012 1.384 . S
C5014 C5015 1.372 . S
C5015 C5014 1.372 . S
C5015 C5016 1.400 . S
C5015 C5020 1.490 . S
C5016 H5006 0.930 . S
C5016 C5015 1.400 . S
C5016 C5019 1.386 . S
H5017 C5033 0.930 . S
H5018 C5034 0.931 . S
C5019 H5007 0.929 . S
C5019 C5013 1.390 . S
C5019 C5016 1.386 . S
C5020 C5015 1.490 . S
C5020 C5022 1.395 . S
C5020 C5023 1.403 . S
H5021 C5027 0.930 . S
C5022 H5008 0.930 . S
C5022 C5020 1.395 . S
C5022 C5025 1.403 . S
C5023 C5020 1.403 . S
C5023 C5024 1.524 . S
C5023 C5027 1.400 . S
C5024 H5009 0.960 . S
C5024 H5010 0.960 . S
C5024 H5011 0.960 . S
C5024 C5023 1.524 . S
C5025 C5022 1.403 . S
C5025 C5026 1.392 . S
C5025 C5029 1.495 . S
C5026 C5025 1.392 . S
C5026 C5027 1.385 . S
C5026 C5028 1.478 . S
C5027 H5021 0.930 . S
C5027 C5023 1.400 . S
C5027 C5026 1.385 . S
C5028 C5026 1.478 . S
C5028 C5030 1.381 . S
C5028 C5034 1.383 . S
C5029 C5025 1.495 . S
C5029 H5035 0.959 . S
C5029 H5036 0.961 . S
C5029 H5037 0.960 . S
C5030 C5028 1.381 . S
C5030 C5031 1.394 . S
C5030 H5038 0.930 . S
C5031 C5030 1.394 . S
C5031 C5032 1.383 . S
C5031 H5039 0.929 . S
C5032 C5031 1.383 . S
C5032 C5033 1.377 . S
C5033 H5017 0.930 . S
C5033 C5032 1.377 . S
C5033 C5034 1.379 . S
C5034 H5018 0.931 . S
C5034 C5028 1.383 . S
C5034 C5033 1.379 . S
H5035 C5029 0.959 . S
H5036 C5029 0.961 . S
H5037 C5029 0.960 . S
H5038 C5030 0.930 . S
H5039 C5031 0.929 . S
H5040 C5048 0.929 . S
H5041 C5050 0.930 . S
H5042 C5052 0.930 . S
H5043 C5055 0.929 . S
H5044 C5058 0.930 . S
H5045 C5060 0.960 . S
H5046 C5060 0.960 . S
H5047 C5060 0.960 . S
C5048 H5040 0.929 . S
C5048 C5049 1.377 . S
C5048 C5050 1.384 . S
C5049 C5048 1.377 . S
C5049 C5055 1.390 . S
C5050 H5041 0.930 . S
C5050 C5048 1.384 . S
C5050 C5051 1.372 . S
C5051 C5050 1.372 . S
C5051 C5052 1.400 . S
C5051 C5056 1.490 . S
C5052 H5042 0.930 . S
C5052 C5051 1.400 . S
C5052 C5055 1.386 . S
H5053 C5069 0.930 . S
H5054 C5070 0.931 . S
C5055 H5043 0.929 . S
C5055 C5049 1.390 . S
C5055 C5052 1.386 . S
C5056 C5051 1.490 . S
C5056 C5058 1.395 . S
C5056 C5059 1.403 . S
H5057 C5063 0.930 . S
C5058 H5044 0.930 . S
C5058 C5056 1.395 . S
C5058 C5061 1.403 . S
C5059 C5056 1.403 . S
C5059 C5060 1.524 . S
C5059 C5063 1.400 . S
C5060 H5045 0.960 . S
C5060 H5046 0.960 . S
C5060 H5047 0.960 . S
C5060 C5059 1.524 . S
C5061 C5058 1.403 . S
C5061 C5062 1.392 . S
C5061 C5065 1.495 . S
C5062 C5061 1.392 . S
C5062 C5063 1.385 . S
C5062 C5064 1.478 . S
C5063 H5057 0.930 . S
C5063 C5059 1.400 . S
C5063 C5062 1.385 . S
C5064 C5062 1.478 . S
C5064 C5066 1.381 . S
C5064 C5070 1.383 . S
C5065 C5061 1.495 . S
C5065 H5071 0.959 . S
C5065 H5072 0.961 . S
C5065 H5073 0.960 . S
C5066 C5064 1.381 . S
C5066 C5067 1.394 . S
C5066 H5074 0.930 . S
C5067 C5066 1.394 . S
C5067 C5068 1.383 . S
C5067 H5075 0.929 . S
C5068 C5067 1.383 . S
C5068 C5069 1.377 . S
C5069 H5053 0.930 . S
C5069 C5068 1.377 . S
C5069 C5070 1.379 . S
C5070 H5054 0.931 . S
C5070 C5064 1.383 . S
C5070 C5069 1.379 . S
H5071 C5065 0.959 . S
H5072 C5065 0.961 . S
H5073 C5065 0.960 . S
H5074 C5066 0.930 . S
H5075 C5067 0.929 . S
H5076 C5084 0.929 . S
H5077 C5086 0.930 . S
H5078 C5088 0.930 . S
H5079 C5091 0.929 . S
H5080 C5094 0.930 . S
H5081 C5096 0.960 . S
H5082 C5096 0.960 . S
H5083 C5096 0.960 . S
C5084 H5076 0.929 . S
C5084 C5085 1.377 . S
C5084 C5086 1.384 . S
C5085 C5084 1.377 . S
C5085 C5091 1.390 . S
C5086 H5077 0.930 . S
C5086 C5084 1.384 . S
C5086 C5087 1.372 . S
C5087 C5086 1.372 . S
C5087 C5088 1.400 . S
C5087 C5092 1.490 . S
C5088 H5078 0.930 . S
C5088 C5087 1.400 . S
C5088 C5091 1.386 . S
H5089 C5105 0.930 . S
H5090 C5106 0.931 . S
C5091 H5079 0.929 . S
C5091 C5085 1.390 . S
C5091 C5088 1.386 . S
C5092 C5087 1.490 . S
C5092 C5094 1.395 . S
C5092 C5095 1.403 . S
H5093 C5099 0.930 . S
C5094 H5080 0.930 . S
C5094 C5092 1.395 . S
C5094 C5097 1.403 . S
C5095 C5092 1.403 . S
C5095 C5096 1.524 . S
C5095 C5099 1.400 . S
C5096 H5081 0.960 . S
C5096 H5082 0.960 . S
C5096 H5083 0.960 . S
C5096 C5095 1.524 . S
C5097 C5094 1.403 . S
C5097 C5098 1.392 . S
C5097 C5101 1.495 . S
C5098 C5097 1.392 . S
C5098 C5099 1.385 . S
C5098 C5100 1.478 . S
C5099 H5093 0.930 . S
C5099 C5095 1.400 . S
C5099 C5098 1.385 . S
C5100 C5098 1.478 . S
C5100 C5102 1.381 . S
C5100 C5106 1.383 . S
C5101 C5097 1.495 . S
C5101 H5107 0.959 . S
C5101 H5108 0.961 1_565 S
C5101 H5109 0.944 1_565 S
C5102 C5100 1.381 . S
C5102 C5103 1.394 . S
C5102 H5110 0.930 . S
C5103 C5102 1.394 . S
C5103 C5104 1.383 . S
C5103 H5111 0.931 1_565 S
C5104 C5103 1.383 . S
C5104 C5105 1.377 . S
C5105 H5089 0.930 . S
C5105 C5104 1.377 . S
C5105 C5106 1.379 . S
C5106 H5090 0.931 . S
C5106 C5100 1.383 . S
C5106 C5105 1.379 . S
H5107 C5101 0.959 . S
H5108 C5101 0.961 1_545 S
H5109 C5101 0.944 1_545 S
H5110 C5102 0.930 . S
H5111 C5103 0.931 1_545 S
H5112 C5120 0.929 . S
H5113 C5122 0.930 . S
H5114 C5124 0.930 . S
H5115 C5127 0.929 . S
H5116 C5130 0.930 . S
H5117 C5132 0.960 . S
H5118 C5132 0.960 . S
H5119 C5132 0.960 . S
C5120 H5112 0.929 . S
C5120 C5121 1.377 . S
C5120 C5122 1.384 . S
C5121 C5120 1.377 . S
C5121 C5127 1.390 . S
C5122 H5113 0.930 . S
C5122 C5120 1.384 . S
C5122 C5123 1.372 . S
C5123 C5122 1.372 . S
C5123 C5124 1.400 . S
C5123 C5128 1.490 . S
C5124 H5114 0.930 . S
C5124 C5123 1.400 . S
C5124 C5127 1.386 . S
H5125 C5141 0.930 . S
H5126 C5142 0.931 . S
C5127 H5115 0.929 . S
C5127 C5121 1.390 . S
C5127 C5124 1.386 . S
C5128 C5123 1.490 . S
C5128 C5130 1.395 . S
C5128 C5131 1.403 . S
H5129 C5135 0.930 . S
C5130 H5116 0.930 . S
C5130 C5128 1.395 . S
C5130 C5133 1.403 . S
C5131 C5128 1.403 . S
C5131 C5132 1.524 . S
C5131 C5135 1.400 . S
C5132 H5117 0.960 . S
C5132 H5118 0.960 . S
C5132 H5119 0.960 . S
C5132 C5131 1.524 . S
C5133 C5130 1.403 . S
C5133 C5134 1.392 . S
C5133 C5137 1.495 . S
C5134 C5133 1.392 . S
C5134 C5135 1.385 . S
C5134 C5136 1.478 . S
C5135 H5129 0.930 . S
C5135 C5131 1.400 . S
C5135 C5134 1.385 . S
C5136 C5134 1.478 . S
C5136 C5138 1.381 . S
C5136 C5142 1.383 . S
C5137 C5133 1.495 . S
C5137 H5143 0.959 . S
C5137 H5144 0.961 . S
C5137 H5145 0.960 . S
C5138 C5136 1.381 . S
C5138 C5139 1.394 . S
C5138 H5146 0.930 . S
C5139 C5138 1.394 . S
C5139 C5140 1.383 . S
C5139 H5147 0.929 . S
C5140 C5139 1.383 . S
C5140 C5141 1.377 . S
C5141 H5125 0.930 . S
C5141 C5140 1.377 . S
C5141 C5142 1.379 . S
C5142 H5126 0.931 . S
C5142 C5136 1.383 . S
C5142 C5141 1.379 . S
H5143 C5137 0.959 . S
H5144 C5137 0.961 . S
H5145 C5137 0.960 . S
H5146 C5138 0.930 . S
H5147 C5139 0.929 . S
H5148 C5156 0.929 . S
H5149 C5158 0.930 . S
H5150 C5160 0.930 . S
H5151 C5163 0.929 . S
H5152 C5166 0.930 . S
H5153 C5168 0.960 . S
H5154 C5168 0.960 . S
H5155 C5168 0.960 . S
C5156 H5148 0.929 . S
C5156 C5157 1.377 . S
C5156 C5158 1.384 . S
C5157 C5156 1.377 . S
C5157 C5163 1.390 . S
C5158 H5149 0.930 . S
C5158 C5156 1.384 . S
C5158 C5159 1.372 . S
C5159 C5158 1.372 . S
C5159 C5160 1.400 . S
C5159 C5164 1.490 . S
C5160 H5150 0.930 . S
C5160 C5159 1.400 . S
C5160 C5163 1.386 . S
H5161 C5177 0.930 . S
H5162 C5178 0.931 . S
C5163 H5151 0.929 . S
C5163 C5157 1.390 . S
C5163 C5160 1.386 . S
C5164 C5159 1.490 . S
C5164 C5166 1.395 . S
C5164 C5167 1.403 . S
H5165 C5171 0.930 . S
C5166 H5152 0.930 . S
C5166 C5164 1.395 . S
C5166 C5169 1.403 . S
C5167 C5164 1.403 . S
C5167 C5168 1.524 . S
C5167 C5171 1.400 . S
C5168 H5153 0.960 . S
C5168 H5154 0.960 . S
C5168 H5155 0.960 . S
C5168 C5167 1.524 . S
C5169 C5166 1.403 . S
C5169 C5170 1.392 . S
C5169 C5173 1.495 . S
C5170 C5169 1.392 . S
C5170 C5171 1.385 . S
C5170 C5172 1.478 . S
C5171 H5165 0.930 . S
C5171 C5167 1.400 . S
C5171 C5170 1.385 . S
C5172 C5170 1.478 . S
C5172 C5174 1.381 . S
C5172 C5178 1.383 . S
C5173 C5169 1.495 . S
C5173 H5179 0.959 . S
C5173 H5180 0.961 . S
C5173 H5181 0.960 . S
C5174 C5172 1.381 . S
C5174 C5175 1.394 . S
C5174 H5182 0.930 . S
C5175 C5174 1.394 . S
C5175 C5176 1.383 . S
C5175 H5183 0.929 . S
C5176 C5175 1.383 . S
C5176 C5177 1.377 . S
C5177 H5161 0.930 . S
C5177 C5176 1.377 . S
C5177 C5178 1.379 . S
C5178 H5162 0.931 . S
C5178 C5172 1.383 . S
C5178 C5177 1.379 . S
H5179 C5173 0.959 . S
H5180 C5173 0.961 . S
H5181 C5173 0.960 . S
H5182 C5174 0.930 . S
H5183 C5175 0.929 . S
H5184 C5192 0.929 . S
H5185 C5194 0.930 . S
H5186 C5196 0.930 . S
H5187 C5199 0.929 . S
H5188 C5202 0.930 . S
H5189 C5204 0.960 . S
H5190 C5204 0.960 . S
H5191 C5204 0.960 . S
C5192 H5184 0.929 . S
C5192 C5193 1.377 . S
C5192 C5194 1.384 . S
C5193 C5192 1.377 . S
C5193 C5199 1.390 . S
C5194 H5185 0.930 . S
C5194 C5192 1.384 . S
C5194 C5195 1.372 . S
C5195 C5194 1.372 . S
C5195 C5196 1.400 . S
C5195 C5200 1.490 . S
C5196 H5186 0.930 . S
C5196 C5195 1.400 . S
C5196 C5199 1.386 . S
H5197 C5213 0.930 . S
H5198 C5214 0.931 . S
C5199 H5187 0.929 . S
C5199 C5193 1.390 . S
C5199 C5196 1.386 . S
C5200 C5195 1.490 . S
C5200 C5202 1.395 . S
C5200 C5203 1.403 . S
H5201 C5207 0.930 . S
C5202 H5188 0.930 . S
C5202 C5200 1.395 . S
C5202 C5205 1.403 . S
C5203 C5200 1.403 . S
C5203 C5204 1.524 . S
C5203 C5207 1.400 . S
C5204 H5189 0.960 . S
C5204 H5190 0.960 . S
C5204 H5191 0.960 . S
C5204 C5203 1.524 . S
C5205 C5202 1.403 . S
C5205 C5206 1.392 . S
C5205 C5209 1.495 . S
C5206 C5205 1.392 . S
C5206 C5207 1.385 . S
C5206 C5208 1.478 . S
C5207 H5201 0.930 . S
C5207 C5203 1.400 . S
C5207 C5206 1.385 . S
C5208 C5206 1.478 . S
C5208 C5210 1.381 . S
C5208 C5214 1.383 . S
C5209 C5205 1.495 . S
C5209 H5215 0.959 . S
C5209 H5216 0.961 . S
C5209 H5217 0.960 . S
C5210 C5208 1.381 . S
C5210 C5211 1.394 . S
C5210 H5218 0.930 . S
C5211 C5210 1.394 . S
C5211 C5212 1.383 . S
C5211 H5219 0.929 . S
C5212 C5211 1.383 . S
C5212 C5213 1.377 . S
C5213 H5197 0.930 . S
C5213 C5212 1.377 . S
C5213 C5214 1.379 . S
C5214 H5198 0.931 . S
C5214 C5208 1.383 . S
C5214 C5213 1.379 . S
H5215 C5209 0.959 . S
H5216 C5209 0.961 . S
H5217 C5209 0.960 . S
H5218 C5210 0.930 . S
H5219 C5211 0.929 . S
H5220 C5228 0.929 . S
H5221 C5230 0.930 . S
H5222 C5232 0.930 . S
H5223 C5235 0.929 . S
H5224 C5238 0.930 . S
H5225 C5240 0.960 . S
H5226 C5240 0.960 . S
H5227 C5240 0.960 . S
C5228 H5220 0.929 . S
C5228 C5229 1.377 . S
C5228 C5230 1.384 . S
C5229 C5228 1.377 . S
C5229 C5235 1.390 . S
C5230 H5221 0.930 . S
C5230 C5228 1.384 . S
C5230 C5231 1.372 . S
C5231 C5230 1.372 . S
C5231 C5232 1.400 . S
C5231 C5236 1.490 . S
C5232 H5222 0.930 . S
C5232 C5231 1.400 . S
C5232 C5235 1.386 . S
H5233 C5249 0.930 . S
H5234 C5250 0.931 . S
C5235 H5223 0.929 . S
C5235 C5229 1.390 . S
C5235 C5232 1.386 . S
C5236 C5231 1.490 . S
C5236 C5238 1.395 . S
C5236 C5239 1.403 . S
H5237 C5243 0.930 . S
C5238 H5224 0.930 . S
C5238 C5236 1.395 . S
C5238 C5241 1.403 . S
C5239 C5236 1.403 . S
C5239 C5240 1.524 . S
C5239 C5243 1.400 . S
C5240 H5225 0.960 . S
C5240 H5226 0.960 . S
C5240 H5227 0.960 . S
C5240 C5239 1.524 . S
C5241 C5238 1.403 . S
C5241 C5242 1.392 . S
C5241 C5245 1.495 . S
C5242 C5241 1.392 . S
C5242 C5243 1.385 . S
C5242 C5244 1.478 . S
C5243 H5237 0.930 . S
C5243 C5239 1.400 . S
C5243 C5242 1.385 . S
C5244 C5242 1.478 . S
C5244 C5246 1.381 . S
C5244 C5250 1.383 . S
C5245 C5241 1.495 . S
C5245 H5251 0.959 . S
C5245 H5252 0.961 . S
C5245 H5253 0.960 . S
C5246 C5244 1.381 . S
C5246 C5247 1.394 . S
C5246 H5254 0.930 . S
C5247 C5246 1.394 . S
C5247 C5248 1.383 . S
C5247 H5255 0.929 . S
C5248 C5247 1.383 . S
C5248 C5249 1.377 . S
C5249 H5233 0.930 . S
C5249 C5248 1.377 . S
C5249 C5250 1.379 . S
C5250 H5234 0.931 . S
C5250 C5244 1.383 . S
C5250 C5249 1.379 . S
H5251 C5245 0.959 . S
H5252 C5245 0.961 . S
H5253 C5245 0.960 . S
H5254 C5246 0.930 . S
H5255 C5247 0.929 . S
H5256 C5264 0.929 . S
H5257 C5266 0.930 . S
H5258 C5268 0.926 1_554 S
H5259 C5271 0.929 . S
H5260 C5274 0.930 . S
H5261 C5276 0.960 . S
H5262 C5276 0.960 . S
H5263 C5276 0.960 . S
C5264 H5256 0.929 . S
C5264 C5265 1.377 . S
C5264 C5266 1.384 . S
C5265 C5264 1.377 . S
C5265 C5271 1.390 . S
C5266 H5257 0.930 . S
C5266 C5264 1.384 . S
C5266 C5267 1.372 . S
C5267 C5266 1.372 . S
C5267 C5268 1.400 . S
C5267 C5272 1.490 . S
C5268 H5258 0.926 1_556 S
C5268 C5267 1.400 . S
C5268 C5271 1.386 . S
H5269 C5285 0.930 . S
H5270 C5286 0.931 . S
C5271 H5259 0.929 . S
C5271 C5265 1.390 . S
C5271 C5268 1.386 . S
C5272 C5267 1.490 . S
C5272 C5274 1.395 . S
C5272 C5275 1.403 1_556 S
H5273 C5279 0.930 . S
C5274 H5260 0.930 . S
C5274 C5272 1.395 . S
C5274 C5277 1.403 . S
C5275 C5272 1.403 1_554 S
C5275 C5276 1.524 . S
C5275 C5279 1.400 . S
C5276 H5261 0.960 . S
C5276 H5262 0.960 . S
C5276 H5263 0.960 . S
C5276 C5275 1.524 . S
C5277 C5274 1.403 . S
C5277 C5278 1.392 1_556 S
C5277 C5281 1.495 . S
C5278 C5277 1.392 1_554 S
C5278 C5279 1.385 . S
C5278 C5280 1.478 . S
C5279 H5273 0.930 . S
C5279 C5275 1.400 . S
C5279 C5278 1.385 . S
C5280 C5278 1.478 . S
C5280 C5282 1.381 . S
C5280 C5286 1.383 . S
C5281 C5277 1.495 . S
C5281 H5287 0.959 . S
C5281 H5288 0.961 . S
C5281 H5289 0.960 . S
C5282 C5280 1.381 . S
C5282 C5283 1.394 . S
C5282 H5290 0.930 . S
C5283 C5282 1.394 . S
C5283 C5284 1.383 . S
C5283 H5291 0.929 . S
C5284 C5283 1.383 . S
C5284 C5285 1.377 . S
C5285 H5269 0.930 . S
C5285 C5284 1.377 . S
C5285 C5286 1.379 . S
C5286 H5270 0.931 . S
C5286 C5280 1.383 . S
C5286 C5285 1.379 . S
H5287 C5281 0.959 . S
H5288 C5281 0.961 . S
H5289 C5281 0.960 . S
H5290 C5282 0.930 . S
H5291 C5283 0.929 . S
H5292 C5300 0.929 1_455 S
H5293 C5302 0.930 . S
H5294 C5304 0.930 . S
H5295 C5307 0.929 . S
H5296 C5310 0.930 . S
H5297 C5312 0.960 . S
H5298 C5312 0.960 . S
H5299 C5312 0.960 . S
C5300 H5292 0.929 1_655 S
C5300 C5301 1.377 . S
C5300 C5302 1.384 . S
C5301 C5300 1.377 . S
C5301 C5307 1.390 . S
C5302 H5293 0.930 . S
C5302 C5300 1.384 . S
C5302 C5303 1.372 . S
C5303 C5302 1.372 . S
C5303 C5304 1.400 . S
C5303 C5308 1.490 . S
C5304 H5294 0.930 . S
C5304 C5303 1.400 . S
C5304 C5307 1.386 . S
H5305 C5321 0.930 . S
H5306 C5322 0.931 . S
C5307 H5295 0.929 . S
C5307 C5301 1.390 . S
C5307 C5304 1.386 . S
C5308 C5303 1.490 . S
C5308 C5310 1.395 . S
C5308 C5311 1.403 . S
H5309 C5315 0.930 . S
C5310 H5296 0.930 . S
C5310 C5308 1.395 . S
C5310 C5313 1.403 . S
C5311 C5308 1.403 . S
C5311 C5312 1.524 . S
C5311 C5315 1.400 . S
C5312 H5297 0.960 . S
C5312 H5298 0.960 . S
C5312 H5299 0.960 . S
C5312 C5311 1.524 . S
C5313 C5310 1.403 . S
C5313 C5314 1.392 . S
C5313 C5317 1.495 . S
C5314 C5313 1.392 . S
C5314 C5315 1.385 . S
C5314 C5316 1.478 . S
C5315 H5309 0.930 . S
C5315 C5311 1.400 . S
C5315 C5314 1.385 . S
C5316 C5314 1.478 . S
C5316 C5318 1.381 . S
C5316 C5322 1.383 . S
C5317 C5313 1.495 . S
C5317 H5323 0.959 . S
C5317 H5324 0.961 . S
C5317 H5325 0.960 . S
C5318 C5316 1.381 . S
C5318 C5319 1.394 . S
C5318 H5326 0.930 . S
C5319 C5318 1.394 . S
C5319 C5320 1.383 . S
C5319 H5327 0.929 . S
C5320 C5319 1.383 . S
C5320 C5321 1.377 . S
C5321 H5305 0.930 . S
C5321 C5320 1.377 . S
C5321 C5322 1.379 . S
C5322 H5306 0.931 . S
C5322 C5316 1.383 . S
C5322 C5321 1.379 . S
H5323 C5317 0.959 . S
H5324 C5317 0.961 . S
H5325 C5317 0.960 . S
H5326 C5318 0.930 . S
H5327 C5319 0.929 . S
H5328 C5336 0.929 . S
H5329 C5338 0.930 . S
H5330 C5340 0.930 . S
H5331 C5343 0.929 . S
H5332 C5346 0.930 . S
H5333 C5348 0.960 . S
H5334 C5348 0.960 . S
H5335 C5348 0.960 . S
C5336 H5328 0.929 . S
C5336 C5337 1.377 . S
C5336 C5338 1.384 . S
C5337 C5336 1.377 . S
C5337 C5343 1.390 . S
C5338 H5329 0.930 . S
C5338 C5336 1.384 . S
C5338 C5339 1.372 . S
C5339 C5338 1.372 . S
C5339 C5340 1.400 . S
C5339 C5344 1.490 . S
C5340 H5330 0.930 . S
C5340 C5339 1.400 . S
C5340 C5343 1.386 . S
H5341 C5357 0.930 . S
H5342 C5358 0.931 . S
C5343 H5331 0.929 . S
C5343 C5337 1.390 . S
C5343 C5340 1.386 . S
C5344 C5339 1.490 . S
C5344 C5346 1.395 . S
C5344 C5347 1.403 . S
H5345 C5351 0.930 . S
C5346 H5332 0.930 . S
C5346 C5344 1.395 . S
C5346 C5349 1.403 . S
C5347 C5344 1.403 . S
C5347 C5348 1.524 . S
C5347 C5351 1.400 . S
C5348 H5333 0.960 . S
C5348 H5334 0.960 . S
C5348 H5335 0.960 . S
C5348 C5347 1.524 . S
C5349 C5346 1.403 . S
C5349 C5350 1.392 . S
C5349 C5353 1.495 . S
C5350 C5349 1.392 . S
C5350 C5351 1.385 . S
C5350 C5352 1.478 . S
C5351 H5345 0.930 . S
C5351 C5347 1.400 . S
C5351 C5350 1.385 . S
C5352 C5350 1.478 . S
C5352 C5354 1.381 . S
C5352 C5358 1.383 . S
C5353 C5349 1.495 . S
C5353 H5359 0.959 . S
C5353 H5360 0.961 . S
C5353 H5361 0.960 . S
C5354 C5352 1.381 . S
C5354 C5355 1.394 . S
C5354 H5362 0.930 . S
C5355 C5354 1.394 . S
C5355 C5356 1.383 . S
C5355 H5363 0.929 . S
C5356 C5355 1.383 . S
C5356 C5357 1.377 . S
C5357 H5341 0.930 . S
C5357 C5356 1.377 . S
C5357 C5358 1.379 . S
C5358 H5342 0.931 . S
C5358 C5352 1.383 . S
C5358 C5357 1.379 . S
H5359 C5353 0.959 . S
H5360 C5353 0.961 . S
H5361 C5353 0.960 . S
H5362 C5354 0.930 . S
H5363 C5355 0.929 . S
H5364 C5372 0.929 . S
H5365 C5374 0.930 . S
H5366 C5376 0.930 . S
H5367 C5379 0.929 . S
H5368 C5382 0.930 . S
H5369 C5384 0.960 . S
H5370 C5384 0.960 . S
H5371 C5384 0.960 . S
C5372 H5364 0.929 . S
C5372 C5373 1.377 . S
C5372 C5374 1.384 1_455 S
C5373 C5372 1.377 . S
C5373 C5379 1.390 . S
C5374 H5365 0.930 . S
C5374 C5372 1.384 1_655 S
C5374 C5375 1.372 . S
C5375 C5374 1.372 . S
C5375 C5376 1.400 . S
C5375 C5380 1.490 . S
C5376 H5366 0.930 . S
C5376 C5375 1.400 . S
C5376 C5379 1.386 1_655 S
H5377 C5393 0.930 . S
H5378 C5394 0.931 . S
C5379 H5367 0.929 . S
C5379 C5373 1.390 . S
C5379 C5376 1.386 1_455 S
C5380 C5375 1.490 . S
C5380 C5382 1.395 . S
C5380 C5383 1.403 . S
H5381 C5387 0.930 . S
C5382 H5368 0.930 . S
C5382 C5380 1.395 . S
C5382 C5385 1.403 . S
C5383 C5380 1.403 . S
C5383 C5384 1.524 . S
C5383 C5387 1.400 . S
C5384 H5369 0.960 . S
C5384 H5370 0.960 . S
C5384 H5371 0.960 . S
C5384 C5383 1.524 . S
C5385 C5382 1.403 . S
C5385 C5386 1.392 . S
C5385 C5389 1.495 . S
C5386 C5385 1.392 . S
C5386 C5387 1.385 . S
C5386 C5388 1.478 . S
C5387 H5381 0.930 . S
C5387 C5383 1.400 . S
C5387 C5386 1.385 . S
C5388 C5386 1.478 . S
C5388 C5390 1.381 . S
C5388 C5394 1.383 . S
C5389 C5385 1.495 . S
C5389 H5395 0.959 . S
C5389 H5396 0.961 . S
C5389 H5397 0.960 . S
C5390 C5388 1.381 . S
C5390 C5391 1.394 . S
C5390 H5398 0.930 . S
C5391 C5390 1.394 . S
C5391 C5392 1.383 . S
C5391 H5399 0.929 . S
C5392 C5391 1.383 . S
C5392 C5393 1.377 . S
C5393 H5377 0.930 . S
C5393 C5392 1.377 . S
C5393 C5394 1.379 . S
C5394 H5378 0.931 . S
C5394 C5388 1.383 . S
C5394 C5393 1.379 . S
H5395 C5389 0.959 . S
H5396 C5389 0.961 . S
H5397 C5389 0.960 . S
H5398 C5390 0.930 . S
H5399 C5391 0.929 . S
H5400 C5408 0.929 . S
H5401 C5410 0.930 . S
H5402 C5412 0.930 . S
H5403 C5415 0.930 1_455 S
H5404 C5418 0.930 . S
H5405 C5420 0.960 . S
H5406 C5420 0.960 . S
H5407 C5420 0.960 . S
C5408 H5400 0.929 . S
C5408 C5409 1.377 . S
C5408 C5410 1.384 . S
C5409 C5408 1.377 . S
C5409 C5415 1.390 . S
C5410 H5401 0.930 . S
C5410 C5408 1.384 . S
C5410 C5411 1.382 . S
C5411 C5410 1.382 . S
C5411 C5412 1.399 1_655 S
C5411 C5416 1.481 1_655 S
C5412 H5402 0.930 . S
C5412 C5411 1.399 1_455 S
C5412 C5415 1.386 1_455 S
H5413 C5429 0.930 . S
H5414 C5430 0.931 . S
C5415 H5403 0.930 1_655 S
C5415 C5409 1.390 . S
C5415 C5412 1.386 1_655 S
C5416 C5411 1.481 1_455 S
C5416 C5418 1.395 1_455 S
C5416 C5419 1.403 . S
H5417 C5423 0.930 . S
C5418 H5404 0.930 . S
C5418 C5416 1.395 1_655 S
C5418 C5421 1.403 . S
C5419 C5416 1.403 . S
C5419 C5420 1.524 . S
C5419 C5423 1.400 . S
C5420 H5405 0.960 . S
C5420 H5406 0.960 . S
C5420 H5407 0.960 . S
C5420 C5419 1.524 . S
C5421 C5418 1.403 . S
C5421 C5422 1.392 1_655 S
C5421 C5425 1.495 . S
C5422 C5421 1.392 1_455 S
C5422 C5423 1.385 . S
C5422 C5424 1.478 . S
C5423 H5417 0.930 . S
C5423 C5419 1.400 . S
C5423 C5422 1.385 . S
C5424 C5422 1.478 . S
C5424 C5426 1.381 . S
C5424 C5430 1.383 . S
C5425 C5421 1.495 . S
C5425 H5431 0.959 . S
C5425 H5432 0.961 . S
C5425 H5433 0.960 . S
C5426 C5424 1.381 . S
C5426 C5427 1.394 . S
C5426 H5434 0.930 . S
C5427 C5426 1.394 . S
C5427 C5428 1.383 . S
C5427 H5435 0.929 . S
C5428 C5427 1.383 . S
C5428 C5429 1.377 . S
C5429 H5413 0.930 . S
C5429 C5428 1.377 . S
C5429 C5430 1.379 . S
C5430 H5414 0.931 . S
C5430 C5424 1.383 . S
C5430 C5429 1.379 . S
H5431 C5425 0.959 . S
H5432 C5425 0.961 . S
H5433 C5425 0.960 . S
H5434 C5426 0.930 . S
H5435 C5427 0.929 . S
H5436 C5444 0.929 . S
H5437 C5446 0.930 . S
H5438 C5448 0.930 . S
H5439 C5451 0.929 . S
H5440 C5454 0.930 . S
H5441 C5456 0.960 . S
H5442 C5456 0.960 . S
H5443 C5456 0.960 . S
C5444 H5436 0.929 . S
C5444 C5445 1.377 . S
C5444 C5446 1.384 . S
C5445 C5444 1.377 . S
C5445 C5451 1.390 . S
C5446 H5437 0.930 . S
C5446 C5444 1.384 . S
C5446 C5447 1.372 . S
C5447 C5446 1.372 . S
C5447 C5448 1.400 . S
C5447 C5452 1.490 . S
C5448 H5438 0.930 . S
C5448 C5447 1.400 . S
C5448 C5451 1.386 . S
H5449 C5465 0.930 . S
H5450 C5466 0.931 . S
C5451 H5439 0.929 . S
C5451 C5445 1.390 . S
C5451 C5448 1.386 . S
C5452 C5447 1.490 . S
C5452 C5454 1.395 . S
C5452 C5455 1.403 . S
H5453 C5459 0.930 . S
C5454 H5440 0.930 . S
C5454 C5452 1.395 . S
C5454 C5457 1.403 . S
C5455 C5452 1.403 . S
C5455 C5456 1.524 . S
C5455 C5459 1.400 . S
C5456 H5441 0.960 . S
C5456 H5442 0.960 . S
C5456 H5443 0.960 . S
C5456 C5455 1.524 . S
C5457 C5454 1.403 . S
C5457 C5458 1.392 . S
C5457 C5461 1.495 . S
C5458 C5457 1.392 . S
C5458 C5459 1.385 . S
C5458 C5460 1.478 . S
C5459 H5453 0.930 . S
C5459 C5455 1.400 . S
C5459 C5458 1.385 . S
C5460 C5458 1.478 . S
C5460 C5462 1.381 . S
C5460 C5466 1.383 . S
C5461 C5457 1.495 . S
C5461 H5467 0.959 . S
C5461 H5468 0.961 . S
C5461 H5469 0.960 . S
C5462 C5460 1.381 . S
C5462 C5463 1.394 . S
C5462 H5470 0.930 . S
C5463 C5462 1.394 . S
C5463 C5464 1.383 . S
C5463 H5471 0.929 . S
C5464 C5463 1.383 . S
C5464 C5465 1.377 . S
C5465 H5449 0.930 . S
C5465 C5464 1.377 . S
C5465 C5466 1.379 . S
C5466 H5450 0.931 . S
C5466 C5460 1.383 . S
C5466 C5465 1.379 . S
H5467 C5461 0.959 . S
H5468 C5461 0.961 . S
H5469 C5461 0.960 . S
H5470 C5462 0.930 . S
H5471 C5463 0.929 . S
H5472 C5480 0.929 . S
H5473 C5482 0.930 . S
H5474 C5484 0.930 . S
H5475 C5487 0.929 . S
H5476 C5490 0.930 . S
H5477 C5492 0.960 . S
H5478 C5492 0.960 . S
H5479 C5492 0.960 . S
C5480 H5472 0.929 . S
C5480 C5481 1.377 . S
C5480 C5482 1.384 . S
C5481 C5480 1.377 . S
C5481 C5487 1.390 . S
C5482 H5473 0.930 . S
C5482 C5480 1.384 . S
C5482 C5483 1.372 . S
C5483 C5482 1.372 . S
C5483 C5484 1.400 . S
C5483 C5488 1.490 . S
C5484 H5474 0.930 . S
C5484 C5483 1.400 . S
C5484 C5487 1.386 . S
H5485 C5501 0.930 . S
H5486 C5502 0.931 . S
C5487 H5475 0.929 . S
C5487 C5481 1.390 . S
C5487 C5484 1.386 . S
C5488 C5483 1.490 . S
C5488 C5490 1.395 . S
C5488 C5491 1.403 . S
H5489 C5495 0.930 . S
C5490 H5476 0.930 . S
C5490 C5488 1.395 . S
C5490 C5493 1.403 . S
C5491 C5488 1.403 . S
C5491 C5492 1.524 . S
C5491 C5495 1.400 . S
C5492 H5477 0.960 . S
C5492 H5478 0.960 . S
C5492 H5479 0.960 . S
C5492 C5491 1.524 . S
C5493 C5490 1.403 . S
C5493 C5494 1.392 . S
C5493 C5497 1.495 . S
C5494 C5493 1.392 . S
C5494 C5495 1.385 . S
C5494 C5496 1.478 . S
C5495 H5489 0.930 . S
C5495 C5491 1.400 . S
C5495 C5494 1.385 . S
C5496 C5494 1.478 . S
C5496 C5498 1.381 . S
C5496 C5502 1.383 . S
C5497 C5493 1.495 . S
C5497 H5503 0.959 . S
C5497 H5504 0.961 . S
C5497 H5505 0.960 . S
C5498 C5496 1.381 . S
C5498 C5499 1.394 . S
C5498 H5506 0.930 . S
C5499 C5498 1.394 . S
C5499 C5500 1.383 . S
C5499 H5507 0.929 . S
C5500 C5499 1.383 . S
C5500 C5501 1.377 . S
C5501 H5485 0.930 . S
C5501 C5500 1.377 . S
C5501 C5502 1.379 . S
C5502 H5486 0.931 . S
C5502 C5496 1.383 . S
C5502 C5501 1.379 . S
H5503 C5497 0.959 . S
H5504 C5497 0.961 . S
H5505 C5497 0.960 . S
H5506 C5498 0.930 . S
H5507 C5499 0.929 . S
H5508 C5516 0.929 . S
H5509 C5518 0.930 . S
H5510 C5520 0.930 . S
H5511 C5523 0.929 . S
H5512 C5526 0.930 . S
H5513 C5528 0.960 . S
H5514 C5528 0.960 . S
H5515 C5528 0.960 . S
C5516 H5508 0.929 . S
C5516 C5517 1.377 . S
C5516 C5518 1.384 . S
C5517 C5516 1.377 . S
C5517 C5523 1.390 . S
C5518 H5509 0.930 . S
C5518 C5516 1.384 . S
C5518 C5519 1.372 . S
C5519 C5518 1.372 . S
C5519 C5520 1.400 . S
C5519 C5524 1.490 . S
C5520 H5510 0.930 . S
C5520 C5519 1.400 . S
C5520 C5523 1.386 . S
H5521 C5537 0.930 . S
H5522 C5538 0.931 . S
C5523 H5511 0.929 . S
C5523 C5517 1.390 . S
C5523 C5520 1.386 . S
C5524 C5519 1.490 . S
C5524 C5526 1.395 . S
C5524 C5527 1.403 . S
H5525 C5531 0.930 . S
C5526 H5512 0.930 . S
C5526 C5524 1.395 . S
C5526 C5529 1.403 . S
C5527 C5524 1.403 . S
C5527 C5528 1.524 . S
C5527 C5531 1.400 . S
C5528 H5513 0.960 . S
C5528 H5514 0.960 . S
C5528 H5515 0.960 . S
C5528 C5527 1.524 . S
C5529 C5526 1.403 . S
C5529 C5530 1.392 . S
C5529 C5533 1.495 . S
C5530 C5529 1.392 . S
C5530 C5531 1.385 . S
C5530 C5532 1.478 . S
C5531 H5525 0.930 . S
C5531 C5527 1.400 . S
C5531 C5530 1.385 . S
C5532 C5530 1.478 . S
C5532 C5534 1.381 . S
C5532 C5538 1.383 . S
C5533 C5529 1.495 . S
C5533 H5539 0.959 . S
C5533 H5540 0.961 . S
C5533 H5541 0.960 . S
C5534 C5532 1.381 . S
C5534 C5535 1.394 . S
C5534 H5542 0.930 . S
C5535 C5534 1.394 . S
C5535 C5536 1.383 . S
C5535 H5543 0.929 . S
C5536 C5535 1.383 . S
C5536 C5537 1.377 . S
C5537 H5521 0.930 . S
C5537 C5536 1.377 . S
C5537 C5538 1.379 . S
C5538 H5522 0.931 . S
C5538 C5532 1.383 . S
C5538 C5537 1.379 . S
H5539 C5533 0.959 . S
H5540 C5533 0.961 . S
H5541 C5533 0.960 . S
H5542 C5534 0.930 . S
H5543 C5535 0.929 . S
H5544 C5552 0.929 . S
H5545 C5554 0.930 . S
H5546 C5556 0.930 . S
H5547 C5559 0.929 . S
H5548 C5562 0.930 . S
H5549 C5564 0.960 . S
H5550 C5564 0.960 . S
H5551 C5564 0.960 . S
C5552 H5544 0.929 . S
C5552 C5553 1.377 . S
C5552 C5554 1.384 . S
C5553 C5552 1.377 . S
C5553 C5559 1.390 . S
C5554 H5545 0.930 . S
C5554 C5552 1.384 . S
C5554 C5555 1.372 . S
C5555 C5554 1.372 . S
C5555 C5556 1.400 . S
C5555 C5560 1.490 . S
C5556 H5546 0.930 . S
C5556 C5555 1.400 . S
C5556 C5559 1.386 . S
H5557 C5573 0.930 . S
H5558 C5574 0.931 . S
C5559 H5547 0.929 . S
C5559 C5553 1.390 . S
C5559 C5556 1.386 . S
C5560 C5555 1.490 . S
C5560 C5562 1.395 . S
C5560 C5563 1.403 . S
H5561 C5567 0.930 . S
C5562 H5548 0.930 . S
C5562 C5560 1.395 . S
C5562 C5565 1.403 . S
C5563 C5560 1.403 . S
C5563 C5564 1.524 . S
C5563 C5567 1.400 . S
C5564 H5549 0.960 . S
C5564 H5550 0.960 . S
C5564 H5551 0.960 . S
C5564 C5563 1.524 . S
C5565 C5562 1.403 . S
C5565 C5566 1.392 . S
C5565 C5569 1.495 . S
C5566 C5565 1.392 . S
C5566 C5567 1.385 . S
C5566 C5568 1.478 . S
C5567 H5561 0.930 . S
C5567 C5563 1.400 . S
C5567 C5566 1.385 . S
C5568 C5566 1.478 . S
C5568 C5570 1.381 . S
C5568 C5574 1.383 . S
C5569 C5565 1.495 . S
C5569 H5575 0.959 . S
C5569 H5576 0.961 . S
C5569 H5577 0.960 . S
C5570 C5568 1.381 . S
C5570 C5571 1.394 . S
C5570 H5578 0.930 . S
C5571 C5570 1.394 . S
C5571 C5572 1.383 . S
C5571 H5579 0.929 . S
C5572 C5571 1.383 . S
C5572 C5573 1.377 . S
C5573 H5557 0.930 . S
C5573 C5572 1.377 . S
C5573 C5574 1.379 . S
C5574 H5558 0.931 . S
C5574 C5568 1.383 . S
C5574 C5573 1.379 . S
H5575 C5569 0.959 . S
H5576 C5569 0.961 . S
H5577 C5569 0.960 . S
H5578 C5570 0.930 . S
H5579 C5571 0.929 . S
H5580 C5588 0.929 . S
H5581 C5590 0.930 . S
H5582 C5592 0.930 . S
H5583 C5595 0.929 . S
H5584 C5598 0.930 . S
H5585 C5600 0.960 . S
H5586 C5600 0.960 . S
H5587 C5600 0.960 . S
C5588 H5580 0.929 . S
C5588 C5589 1.377 . S
C5588 C5590 1.384 . S
C5589 C5588 1.377 . S
C5589 C5595 1.390 . S
C5590 H5581 0.930 . S
C5590 C5588 1.384 . S
C5590 C5591 1.372 . S
C5591 C5590 1.372 . S
C5591 C5592 1.400 . S
C5591 C5596 1.490 . S
C5592 H5582 0.930 . S
C5592 C5591 1.400 . S
C5592 C5595 1.386 . S
H5593 C5609 0.930 . S
H5594 C5610 0.931 . S
C5595 H5583 0.929 . S
C5595 C5589 1.390 . S
C5595 C5592 1.386 . S
C5596 C5591 1.490 . S
C5596 C5598 1.395 . S
C5596 C5599 1.403 . S
H5597 C5603 0.930 . S
C5598 H5584 0.930 . S
C5598 C5596 1.395 . S
C5598 C5601 1.403 . S
C5599 C5596 1.403 . S
C5599 C5600 1.524 . S
C5599 C5603 1.400 . S
C5600 H5585 0.960 . S
C5600 H5586 0.960 . S
C5600 H5587 0.960 . S
C5600 C5599 1.524 . S
C5601 C5598 1.403 . S
C5601 C5602 1.392 . S
C5601 C5605 1.495 . S
C5602 C5601 1.392 . S
C5602 C5603 1.385 . S
C5602 C5604 1.478 . S
C5603 H5597 0.930 . S
C5603 C5599 1.400 . S
C5603 C5602 1.385 . S
C5604 C5602 1.478 . S
C5604 C5606 1.381 . S
C5604 C5610 1.383 . S
C5605 C5601 1.495 . S
C5605 H5611 0.959 . S
C5605 H5612 0.961 . S
C5605 H5613 0.960 . S
C5606 C5604 1.381 . S
C5606 C5607 1.394 . S
C5606 H5614 0.930 . S
C5607 C5606 1.394 . S
C5607 C5608 1.383 . S
C5607 H5615 0.929 . S
C5608 C5607 1.383 . S
C5608 C5609 1.377 . S
C5609 H5593 0.930 . S
C5609 C5608 1.377 . S
C5609 C5610 1.379 . S
C5610 H5594 0.931 . S
C5610 C5604 1.383 . S
C5610 C5609 1.379 . S
H5611 C5605 0.959 . S
H5612 C5605 0.961 . S
H5613 C5605 0.960 . S
H5614 C5606 0.930 . S
H5615 C5607 0.929 . S
H5616 C5624 0.929 . S
H5617 C5626 0.930 . S
H5618 C5628 0.930 . S
H5619 C5631 0.929 . S
H5620 C5634 0.930 . S
H5621 C5636 0.960 . S
H5622 C5636 0.960 . S
H5623 C5636 0.960 . S
C5624 H5616 0.929 . S
C5624 C5625 1.377 . S
C5624 C5626 1.384 . S
C5625 C5624 1.377 . S
C5625 C5631 1.390 . S
C5626 H5617 0.930 . S
C5626 C5624 1.384 . S
C5626 C5627 1.372 . S
C5627 C5626 1.372 . S
C5627 C5628 1.400 . S
C5627 C5632 1.490 . S
C5628 H5618 0.930 . S
C5628 C5627 1.400 . S
C5628 C5631 1.386 . S
H5629 C5645 0.930 . S
H5630 C5646 0.931 . S
C5631 H5619 0.929 . S
C5631 C5625 1.390 . S
C5631 C5628 1.386 . S
C5632 C5627 1.490 . S
C5632 C5634 1.395 . S
C5632 C5635 1.403 . S
H5633 C5639 0.930 . S
C5634 H5620 0.930 . S
C5634 C5632 1.395 . S
C5634 C5637 1.403 . S
C5635 C5632 1.403 . S
C5635 C5636 1.524 . S
C5635 C5639 1.400 . S
C5636 H5621 0.960 . S
C5636 H5622 0.960 . S
C5636 H5623 0.960 . S
C5636 C5635 1.524 . S
C5637 C5634 1.403 . S
C5637 C5638 1.392 . S
C5637 C5641 1.495 . S
C5638 C5637 1.392 . S
C5638 C5639 1.385 . S
C5638 C5640 1.478 . S
C5639 H5633 0.930 . S
C5639 C5635 1.400 . S
C5639 C5638 1.385 . S
C5640 C5638 1.478 . S
C5640 C5642 1.381 . S
C5640 C5646 1.383 . S
C5641 C5637 1.495 . S
C5641 H5647 0.959 . S
C5641 H5648 0.961 . S
C5641 H5649 0.960 . S
C5642 C5640 1.381 . S
C5642 C5643 1.394 . S
C5642 H5650 0.930 . S
C5643 C5642 1.394 . S
C5643 C5644 1.383 . S
C5643 H5651 0.929 . S
C5644 C5643 1.383 . S
C5644 C5645 1.377 . S
C5645 H5629 0.930 . S
C5645 C5644 1.377 . S
C5645 C5646 1.379 . S
C5646 H5630 0.931 . S
C5646 C5640 1.383 . S
C5646 C5645 1.379 . S
H5647 C5641 0.959 . S
H5648 C5641 0.961 . S
H5649 C5641 0.960 . S
H5650 C5642 0.930 . S
H5651 C5643 0.929 . S
H5652 C5660 0.929 . S
H5653 C5662 0.930 . S
H5654 C5664 0.930 . S
H5655 C5667 0.929 . S
H5656 C5670 0.930 . S
H5657 C5672 0.960 . S
H5658 C5672 0.960 . S
H5659 C5672 0.960 . S
C5660 H5652 0.929 . S
C5660 C5661 1.377 . S
C5660 C5662 1.384 . S
C5661 C5660 1.377 . S
C5661 C5667 1.390 . S
C5662 H5653 0.930 . S
C5662 C5660 1.384 . S
C5662 C5663 1.372 . S
C5663 C5662 1.372 . S
C5663 C5664 1.400 . S
C5663 C5668 1.490 . S
C5664 H5654 0.930 . S
C5664 C5663 1.400 . S
C5664 C5667 1.386 . S
H5665 C5681 0.930 . S
H5666 C5682 0.931 . S
C5667 H5655 0.929 . S
C5667 C5661 1.390 . S
C5667 C5664 1.386 . S
C5668 C5663 1.490 . S
C5668 C5670 1.395 . S
C5668 C5671 1.403 . S
H5669 C5675 0.930 . S
C5670 H5656 0.930 . S
C5670 C5668 1.395 . S
C5670 C5673 1.403 . S
C5671 C5668 1.403 . S
C5671 C5672 1.524 . S
C5671 C5675 1.400 . S
C5672 H5657 0.960 . S
C5672 H5658 0.960 . S
C5672 H5659 0.960 . S
C5672 C5671 1.524 . S
C5673 C5670 1.403 . S
C5673 C5674 1.392 . S
C5673 C5677 1.495 . S
C5674 C5673 1.392 . S
C5674 C5675 1.385 . S
C5674 C5676 1.478 . S
C5675 H5669 0.930 . S
C5675 C5671 1.400 . S
C5675 C5674 1.385 . S
C5676 C5674 1.478 . S
C5676 C5678 1.381 . S
C5676 C5682 1.383 . S
C5677 C5673 1.495 . S
C5677 H5683 0.959 . S
C5677 H5684 0.961 . S
C5677 H5685 0.960 . S
C5678 C5676 1.381 . S
C5678 C5679 1.394 . S
C5678 H5686 0.930 . S
C5679 C5678 1.394 . S
C5679 C5680 1.383 . S
C5679 H5687 0.929 . S
C5680 C5679 1.383 . S
C5680 C5681 1.377 . S
C5681 H5665 0.930 . S
C5681 C5680 1.377 . S
C5681 C5682 1.379 . S
C5682 H5666 0.931 . S
C5682 C5676 1.383 . S
C5682 C5681 1.379 . S
H5683 C5677 0.959 . S
H5684 C5677 0.961 . S
H5685 C5677 0.960 . S
H5686 C5678 0.930 . S
H5687 C5679 0.929 . S
H5688 C5696 0.929 . S
H5689 C5698 0.930 . S
H5690 C5700 0.930 . S
H5691 C5703 0.929 . S
H5692 C5706 0.930 . S
H5693 C5708 0.960 . S
H5694 C5708 0.960 . S
H5695 C5708 0.960 . S
C5696 H5688 0.929 . S
C5696 C5697 1.377 . S
C5696 C5698 1.384 . S
C5697 C5696 1.377 . S
C5697 C5703 1.390 . S
C5698 H5689 0.930 . S
C5698 C5696 1.384 . S
C5698 C5699 1.372 . S
C5699 C5698 1.372 . S
C5699 C5700 1.400 . S
C5699 C5704 1.490 . S
C5700 H5690 0.930 . S
C5700 C5699 1.400 . S
C5700 C5703 1.386 . S
H5701 C5717 0.930 . S
H5702 C5718 0.931 . S
C5703 H5691 0.929 . S
C5703 C5697 1.390 . S
C5703 C5700 1.386 . S
C5704 C5699 1.490 . S
C5704 C5706 1.395 . S
C5704 C5707 1.403 . S
H5705 C5711 0.930 . S
C5706 H5692 0.930 . S
C5706 C5704 1.395 . S
C5706 C5709 1.403 . S
C5707 C5704 1.403 . S
C5707 C5708 1.524 . S
C5707 C5711 1.400 . S
C5708 H5693 0.960 . S
C5708 H5694 0.960 . S
C5708 H5695 0.960 . S
C5708 C5707 1.524 . S
C5709 C5706 1.403 . S
C5709 C5710 1.392 . S
C5709 C5713 1.495 . S
C5710 C5709 1.392 . S
C5710 C5711 1.385 . S
C5710 C5712 1.478 . S
C5711 H5705 0.930 . S
C5711 C5707 1.400 . S
C5711 C5710 1.385 . S
C5712 C5710 1.478 . S
C5712 C5714 1.381 . S
C5712 C5718 1.383 . S
C5713 C5709 1.495 . S
C5713 H5719 0.959 . S
C5713 H5720 0.961 . S
C5713 H5721 0.960 . S
C5714 C5712 1.381 . S
C5714 C5715 1.394 . S
C5714 H5722 0.930 . S
C5715 C5714 1.394 . S
C5715 C5716 1.383 . S
C5715 H5723 0.929 . S
C5716 C5715 1.383 . S
C5716 C5717 1.377 . S
C5717 H5701 0.930 . S
C5717 C5716 1.377 . S
C5717 C5718 1.379 . S
C5718 H5702 0.931 . S
C5718 C5712 1.383 . S
C5718 C5717 1.379 . S
H5719 C5713 0.959 . S
H5720 C5713 0.961 . S
H5721 C5713 0.960 . S
H5722 C5714 0.930 . S
H5723 C5715 0.929 . S
H5724 C5732 0.929 . S
H5725 C5734 0.930 . S
H5726 C5736 0.930 . S
H5727 C5739 0.929 . S
H5728 C5742 0.930 . S
H5729 C5744 0.960 . S
H5730 C5744 0.960 . S
H5731 C5744 0.960 . S
C5732 H5724 0.929 . S
C5732 C5733 1.377 . S
C5732 C5734 1.384 . S
C5733 C5732 1.377 . S
C5733 C5739 1.390 . S
C5734 H5725 0.930 . S
C5734 C5732 1.384 . S
C5734 C5735 1.372 . S
C5735 C5734 1.372 . S
C5735 C5736 1.400 . S
C5735 C5740 1.490 . S
C5736 H5726 0.930 . S
C5736 C5735 1.400 . S
C5736 C5739 1.386 . S
H5737 C5753 0.930 . S
H5738 C5754 0.931 . S
C5739 H5727 0.929 . S
C5739 C5733 1.390 . S
C5739 C5736 1.386 . S
C5740 C5735 1.490 . S
C5740 C5742 1.395 . S
C5740 C5743 1.403 . S
H5741 C5747 0.930 . S
C5742 H5728 0.930 . S
C5742 C5740 1.395 . S
C5742 C5745 1.403 . S
C5743 C5740 1.403 . S
C5743 C5744 1.524 . S
C5743 C5747 1.400 . S
C5744 H5729 0.960 . S
C5744 H5730 0.960 . S
C5744 H5731 0.960 . S
C5744 C5743 1.524 . S
C5745 C5742 1.403 . S
C5745 C5746 1.392 . S
C5745 C5749 1.495 . S
C5746 C5745 1.392 . S
C5746 C5747 1.385 . S
C5746 C5748 1.478 . S
C5747 H5741 0.930 . S
C5747 C5743 1.400 . S
C5747 C5746 1.385 . S
C5748 C5746 1.478 . S
C5748 C5750 1.381 . S
C5748 C5754 1.383 . S
C5749 C5745 1.495 . S
C5749 H5755 0.959 . S
C5749 H5756 0.961 . S
C5749 H5757 0.960 . S
C5750 C5748 1.381 . S
C5750 C5751 1.394 . S
C5750 H5758 0.930 . S
C5751 C5750 1.394 . S
C5751 C5752 1.383 . S
C5751 H5759 0.929 . S
C5752 C5751 1.383 . S
C5752 C5753 1.377 . S
C5753 H5737 0.930 . S
C5753 C5752 1.377 . S
C5753 C5754 1.379 . S
C5754 H5738 0.931 . S
C5754 C5748 1.383 . S
C5754 C5753 1.379 . S
H5755 C5749 0.959 . S
H5756 C5749 0.961 . S
H5757 C5749 0.960 . S
H5758 C5750 0.930 . S
H5759 C5751 0.929 . S
H5760 C5768 0.929 . S
H5761 C5770 0.930 . S
H5762 C5772 0.930 . S
H5763 C5775 0.929 . S
H5764 C5778 0.930 . S
H5765 C5780 0.960 . S
H5766 C5780 0.960 . S
H5767 C5780 0.960 . S
C5768 H5760 0.929 . S
C5768 C5769 1.377 . S
C5768 C5770 1.384 . S
C5769 C5768 1.377 . S
C5769 C5775 1.390 . S
C5770 H5761 0.930 . S
C5770 C5768 1.384 . S
C5770 C5771 1.372 . S
C5771 C5770 1.372 . S
C5771 C5772 1.400 . S
C5771 C5776 1.490 . S
C5772 H5762 0.930 . S
C5772 C5771 1.400 . S
C5772 C5775 1.386 . S
H5773 C5789 0.930 . S
H5774 C5790 0.931 . S
C5775 H5763 0.929 . S
C5775 C5769 1.390 . S
C5775 C5772 1.386 . S
C5776 C5771 1.490 . S
C5776 C5778 1.395 . S
C5776 C5779 1.403 . S
H5777 C5783 0.930 . S
C5778 H5764 0.930 . S
C5778 C5776 1.395 . S
C5778 C5781 1.403 . S
C5779 C5776 1.403 . S
C5779 C5780 1.524 . S
C5779 C5783 1.400 . S
C5780 H5765 0.960 . S
C5780 H5766 0.960 . S
C5780 H5767 0.960 . S
C5780 C5779 1.524 . S
C5781 C5778 1.403 . S
C5781 C5782 1.392 . S
C5781 C5785 1.495 . S
C5782 C5781 1.392 . S
C5782 C5783 1.385 . S
C5782 C5784 1.478 . S
C5783 H5777 0.930 . S
C5783 C5779 1.400 . S
C5783 C5782 1.385 . S
C5784 C5782 1.478 . S
C5784 C5786 1.381 . S
C5784 C5790 1.383 . S
C5785 C5781 1.495 . S
C5785 H5791 0.959 . S
C5785 H5792 0.961 . S
C5785 H5793 0.960 . S
C5786 C5784 1.381 . S
C5786 C5787 1.394 . S
C5786 H5794 0.930 . S
C5787 C5786 1.394 . S
C5787 C5788 1.383 . S
C5787 H5795 0.929 . S
C5788 C5787 1.383 . S
C5788 C5789 1.377 . S
C5789 H5773 0.930 . S
C5789 C5788 1.377 . S
C5789 C5790 1.379 . S
C5790 H5774 0.931 . S
C5790 C5784 1.383 . S
C5790 C5789 1.379 . S
H5791 C5785 0.959 . S
H5792 C5785 0.961 . S
H5793 C5785 0.960 . S
H5794 C5786 0.930 . S
H5795 C5787 0.929 . S
H5796 C5804 0.929 . S
H5797 C5806 0.930 . S
H5798 C5808 0.930 . S
H5799 C5811 0.929 . S
H5800 C5814 0.930 . S
H5801 C5816 0.960 . S
H5802 C5816 0.960 . S
H5803 C5816 0.960 . S
C5804 H5796 0.929 . S
C5804 C5805 1.377 . S
C5804 C5806 1.384 . S
C5805 C5804 1.377 . S
C5805 C5811 1.390 . S
C5806 H5797 0.930 . S
C5806 C5804 1.384 . S
C5806 C5807 1.372 . S
C5807 C5806 1.372 . S
C5807 C5808 1.400 . S
C5807 C5812 1.490 . S
C5808 H5798 0.930 . S
C5808 C5807 1.400 . S
C5808 C5811 1.386 . S
H5809 C5825 0.930 . S
H5810 C5826 0.931 . S
C5811 H5799 0.929 . S
C5811 C5805 1.390 . S
C5811 C5808 1.386 . S
C5812 C5807 1.490 . S
C5812 C5814 1.395 . S
C5812 C5815 1.403 . S
H5813 C5819 0.930 . S
C5814 H5800 0.930 . S
C5814 C5812 1.395 . S
C5814 C5817 1.403 . S
C5815 C5812 1.403 . S
C5815 C5816 1.524 . S
C5815 C5819 1.400 . S
C5816 H5801 0.960 . S
C5816 H5802 0.960 . S
C5816 H5803 0.960 . S
C5816 C5815 1.524 . S
C5817 C5814 1.403 . S
C5817 C5818 1.392 . S
C5817 C5821 1.495 . S
C5818 C5817 1.392 . S
C5818 C5819 1.385 . S
C5818 C5820 1.478 . S
C5819 H5813 0.930 . S
C5819 C5815 1.400 . S
C5819 C5818 1.385 . S
C5820 C5818 1.478 . S
C5820 C5822 1.381 . S
C5820 C5826 1.383 . S
C5821 C5817 1.495 . S
C5821 H5827 0.959 . S
C5821 H5828 0.961 . S
C5821 H5829 0.960 . S
C5822 C5820 1.381 . S
C5822 C5823 1.394 . S
C5822 H5830 0.930 . S
C5823 C5822 1.394 . S
C5823 C5824 1.383 . S
C5823 H5831 0.929 . S
C5824 C5823 1.383 . S
C5824 C5825 1.377 . S
C5825 H5809 0.930 . S
C5825 C5824 1.377 . S
C5825 C5826 1.379 . S
C5826 H5810 0.931 . S
C5826 C5820 1.383 . S
C5826 C5825 1.379 . S
H5827 C5821 0.959 . S
H5828 C5821 0.961 . S
H5829 C5821 0.960 . S
H5830 C5822 0.930 . S
H5831 C5823 0.929 . S
H5832 C5840 0.929 . S
H5833 C5842 0.930 . S
H5834 C5844 0.930 . S
H5835 C5847 0.929 . S
H5836 C5850 0.930 . S
H5837 C5852 0.960 . S
H5838 C5852 0.960 . S
H5839 C5852 0.960 . S
C5840 H5832 0.929 . S
C5840 C5841 1.377 . S
C5840 C5842 1.384 . S
C5841 C5840 1.377 . S
C5841 C5847 1.390 . S
C5842 H5833 0.930 . S
C5842 C5840 1.384 . S
C5842 C5843 1.372 . S
C5843 C5842 1.372 . S
C5843 C5844 1.400 . S
C5843 C5848 1.490 . S
C5844 H5834 0.930 . S
C5844 C5843 1.400 . S
C5844 C5847 1.386 . S
H5845 C5861 0.930 . S
H5846 C5862 0.931 . S
C5847 H5835 0.929 . S
C5847 C5841 1.390 . S
C5847 C5844 1.386 . S
C5848 C5843 1.490 . S
C5848 C5850 1.395 . S
C5848 C5851 1.403 . S
H5849 C5855 0.930 . S
C5850 H5836 0.930 . S
C5850 C5848 1.395 . S
C5850 C5853 1.403 . S
C5851 C5848 1.403 . S
C5851 C5852 1.524 . S
C5851 C5855 1.400 . S
C5852 H5837 0.960 . S
C5852 H5838 0.960 . S
C5852 H5839 0.960 . S
C5852 C5851 1.524 . S
C5853 C5850 1.403 . S
C5853 C5854 1.392 . S
C5853 C5857 1.495 . S
C5854 C5853 1.392 . S
C5854 C5855 1.385 . S
C5854 C5856 1.478 . S
C5855 H5849 0.930 . S
C5855 C5851 1.400 . S
C5855 C5854 1.385 . S
C5856 C5854 1.478 . S
C5856 C5858 1.381 . S
C5856 C5862 1.383 . S
C5857 C5853 1.495 . S
C5857 H5863 0.959 . S
C5857 H5864 0.961 . S
C5857 H5865 0.960 . S
C5858 C5856 1.381 . S
C5858 C5859 1.394 . S
C5858 H5866 0.930 . S
C5859 C5858 1.394 . S
C5859 C5860 1.383 . S
C5859 H5867 0.929 . S
C5860 C5859 1.383 . S
C5860 C5861 1.377 . S
C5861 H5845 0.930 . S
C5861 C5860 1.377 . S
C5861 C5862 1.379 . S
C5862 H5846 0.931 . S
C5862 C5856 1.383 . S
C5862 C5861 1.379 . S
H5863 C5857 0.959 . S
H5864 C5857 0.961 . S
H5865 C5857 0.960 . S
H5866 C5858 0.930 . S
H5867 C5859 0.929 . S
H5868 C5876 0.929 . S
H5869 C5878 0.930 . S
H5870 C5880 0.930 1_545 S
H5871 C5883 0.929 . S
H5872 C5886 0.930 . S
H5873 C5888 0.960 . S
H5874 C5888 0.960 . S
H5875 C5888 0.960 . S
C5876 H5868 0.929 . S
C5876 C5877 1.377 . S
C5876 C5878 1.384 . S
C5877 C5876 1.377 . S
C5877 C5883 1.390 . S
C5878 H5869 0.930 . S
C5878 C5876 1.384 . S
C5878 C5879 1.372 . S
C5879 C5878 1.372 . S
C5879 C5880 1.400 . S
C5879 C5884 1.490 . S
C5880 H5870 0.930 1_565 S
C5880 C5879 1.400 . S
C5880 C5883 1.386 . S
H5881 C5897 0.930 . S
H5882 C5898 0.931 . S
C5883 H5871 0.929 . S
C5883 C5877 1.390 . S
C5883 C5880 1.386 . S
C5884 C5879 1.490 . S
C5884 C5886 1.395 . S
C5884 C5887 1.403 1_565 S
H5885 C5891 0.930 . S
C5886 H5872 0.930 . S
C5886 C5884 1.395 . S
C5886 C5889 1.403 . S
C5887 C5884 1.403 1_545 S
C5887 C5888 1.524 . S
C5887 C5891 1.400 . S
C5888 H5873 0.960 . S
C5888 H5874 0.960 . S
C5888 H5875 0.960 . S
C5888 C5887 1.524 . S
C5889 C5886 1.403 . S
C5889 C5890 1.392 1_565 S
C5889 C5893 1.495 . S
C5890 C5889 1.392 1_545 S
C5890 C5891 1.385 . S
C5890 C5892 1.478 . S
C5891 H5885 0.930 . S
C5891 C5887 1.400 . S
C5891 C5890 1.385 . S
C5892 C5890 1.478 . S
C5892 C5894 1.381 . S
C5892 C5898 1.383 . S
C5893 C5889 1.495 . S
C5893 H5899 0.957 1_554 S
C5893 H5900 0.961 1_554 S
C5893 H5901 0.960 . S
C5894 C5892 1.381 . S
C5894 C5895 1.394 . S
C5894 H5902 0.930 1_545 S
C5895 C5894 1.394 . S
C5895 C5896 1.383 . S
C5895 H5903 0.929 . S
C5896 C5895 1.383 . S
C5896 C5897 1.377 . S
C5897 H5881 0.930 . S
C5897 C5896 1.377 . S
C5897 C5898 1.379 . S
C5898 H5882 0.931 . S
C5898 C5892 1.383 . S
C5898 C5897 1.379 . S
H5899 C5893 0.957 1_556 S
H5900 C5893 0.961 1_556 S
H5901 C5893 0.960 . S
H5902 C5894 0.930 1_565 S
H5903 C5895 0.929 . S
H5904 C5912 0.929 . S
H5905 C5914 0.930 . S
H5906 C5916 0.930 . S
H5907 C5919 0.929 . S
H5908 C5922 0.930 . S
H5909 C5924 0.960 . S
H5910 C5924 0.960 . S
H5911 C5924 0.960 . S
C5912 H5904 0.929 . S
C5912 C5913 1.377 . S
C5912 C5914 1.384 . S
C5913 C5912 1.377 . S
C5913 C5919 1.390 . S
C5914 H5905 0.930 . S
C5914 C5912 1.384 . S
C5914 C5915 1.372 . S
C5915 C5914 1.372 . S
C5915 C5916 1.400 . S
C5915 C5920 1.490 . S
C5916 H5906 0.930 . S
C5916 C5915 1.400 . S
C5916 C5919 1.386 . S
H5917 C5933 0.930 . S
H5918 C5934 0.931 . S
C5919 H5907 0.929 . S
C5919 C5913 1.390 . S
C5919 C5916 1.386 . S
C5920 C5915 1.490 . S
C5920 C5922 1.395 . S
C5920 C5923 1.403 . S
H5921 C5927 0.930 . S
C5922 H5908 0.930 . S
C5922 C5920 1.395 . S
C5922 C5925 1.403 . S
C5923 C5920 1.403 . S
C5923 C5924 1.524 . S
C5923 C5927 1.400 . S
C5924 H5909 0.960 . S
C5924 H5910 0.960 . S
C5924 H5911 0.960 . S
C5924 C5923 1.524 . S
C5925 C5922 1.403 . S
C5925 C5926 1.392 . S
C5925 C5929 1.495 . S
C5926 C5925 1.392 . S
C5926 C5927 1.385 . S
C5926 C5928 1.478 . S
C5927 H5921 0.930 . S
C5927 C5923 1.400 . S
C5927 C5926 1.385 . S
C5928 C5926 1.478 . S
C5928 C5930 1.381 . S
C5928 C5934 1.383 . S
C5929 C5925 1.495 . S
C5929 H5935 0.959 . S
C5929 H5936 0.961 . S
C5929 H5937 0.960 . S
C5930 C5928 1.381 . S
C5930 C5931 1.394 . S
C5930 H5938 0.930 . S
C5931 C5930 1.394 . S
C5931 C5932 1.383 . S
C5931 H5939 0.929 . S
C5932 C5931 1.383 . S
C5932 C5933 1.377 . S
C5933 H5917 0.930 . S
C5933 C5932 1.377 . S
C5933 C5934 1.379 . S
C5934 H5918 0.931 . S
C5934 C5928 1.383 . S
C5934 C5933 1.379 . S
H5935 C5929 0.959 . S
H5936 C5929 0.961 . S
H5937 C5929 0.960 . S
H5938 C5930 0.930 . S
H5939 C5931 0.929 . S
H5940 C5948 0.929 . S
H5941 C5950 0.930 . S
H5942 C5952 0.930 . S
H5943 C5955 0.929 . S
H5944 C5958 0.894 1_556 S
H5945 C5960 0.960 . S
H5946 C5960 0.960 . S
H5947 C5960 0.960 . S
C5948 H5940 0.929 . S
C5948 C5949 1.377 . S
C5948 C5950 1.384 . S
C5949 C5948 1.377 . S
C5949 C5955 1.390 1_556 S
C5950 H5941 0.930 . S
C5950 C5948 1.384 . S
C5950 C5951 1.372 1_556 S
C5951 C5950 1.372 1_554 S
C5951 C5952 1.400 . S
C5951 C5956 1.490 . S
C5952 H5942 0.930 . S
C5952 C5951 1.400 . S
C5952 C5955 1.386 . S
H5953 C5969 0.930 . S
H5954 C5970 0.931 . S
C5955 H5943 0.929 . S
C5955 C5949 1.390 1_554 S
C5955 C5952 1.386 . S
C5956 C5951 1.490 . S
C5956 C5958 1.395 . S
C5956 C5959 1.403 . S
H5957 C5963 0.930 . S
C5958 H5944 0.894 1_554 S
C5958 C5956 1.395 . S
C5958 C5961 1.403 . S
C5959 C5956 1.403 . S
C5959 C5960 1.524 . S
C5959 C5963 1.400 . S
C5960 H5945 0.960 . S
C5960 H5946 0.960 . S
C5960 H5947 0.960 . S
C5960 C5959 1.524 . S
C5961 C5958 1.403 . S
C5961 C5962 1.392 . S
C5961 C5965 1.495 . S
C5962 C5961 1.392 . S
C5962 C5963 1.385 . S
C5962 C5964 1.478 . S
C5963 H5957 0.930 . S
C5963 C5959 1.400 . S
C5963 C5962 1.385 . S
C5964 C5962 1.478 . S
C5964 C5966 1.381 . S
C5964 C5970 1.383 . S
C5965 C5961 1.495 . S
C5965 H5971 0.959 1_554 S
C5965 H5972 0.961 . S
C5965 H5973 0.960 1_554 S
C5966 C5964 1.381 . S
C5966 C5967 1.394 . S
C5966 H5974 0.930 1_554 S
C5967 C5966 1.394 . S
C5967 C5968 1.383 . S
C5967 H5975 0.914 1_554 S
C5968 C5967 1.383 . S
C5968 C5969 1.377 . S
C5969 H5953 0.930 . S
C5969 C5968 1.377 . S
C5969 C5970 1.379 . S
C5970 H5954 0.931 . S
C5970 C5964 1.383 . S
C5970 C5969 1.379 . S
H5971 C5965 0.959 1_556 S
H5972 C5965 0.961 . S
H5973 C5965 0.960 1_556 S
H5974 C5966 0.930 1_556 S
H5975 C5967 0.914 1_556 S
H5976 C5984 0.929 . S
H5977 C5986 0.930 . S
H5978 C5988 0.930 . S
H5979 C5991 0.929 . S
H5980 C5994 0.930 . S
H5981 C5996 0.960 . S
H5982 C5996 0.960 . S
H5983 C5996 0.960 . S
C5984 H5976 0.929 . S
C5984 C5985 1.377 . S
C5984 C5986 1.384 . S
C5985 C5984 1.377 . S
C5985 C5991 1.390 . S
C5986 H5977 0.930 . S
C5986 C5984 1.384 . S
C5986 C5987 1.372 . S
C5987 C5986 1.372 . S
C5987 C5988 1.400 . S
C5987 C5992 1.490 . S
C5988 H5978 0.930 . S
C5988 C5987 1.400 . S
C5988 C5991 1.386 . S
H5989 C6005 0.930 . S
H5990 C6006 0.931 . S
C5991 H5979 0.929 . S
C5991 C5985 1.390 . S
C5991 C5988 1.386 . S
C5992 C5987 1.490 . S
C5992 C5994 1.395 . S
C5992 C5995 1.403 . S
H5993 C5999 0.930 . S
C5994 H5980 0.930 . S
C5994 C5992 1.395 . S
C5994 C5997 1.403 . S
C5995 C5992 1.403 . S
C5995 C5996 1.524 . S
C5995 C5999 1.400 . S
C5996 H5981 0.960 . S
C5996 H5982 0.960 . S
C5996 H5983 0.960 . S
C5996 C5995 1.524 . S
C5997 C5994 1.403 . S
C5997 C5998 1.392 . S
C5997 C6001 1.495 . S
C5998 C5997 1.392 . S
C5998 C5999 1.385 . S
C5998 C6000 1.478 . S
C5999 H5993 0.930 . S
C5999 C5995 1.400 . S
C5999 C5998 1.385 . S
C6000 C5998 1.478 . S
C6000 C6002 1.381 . S
C6000 C6006 1.383 . S
C6001 C5997 1.495 . S
C6001 H6007 0.959 . S
C6001 H6008 0.961 . S
C6001 H6009 0.960 . S
C6002 C6000 1.381 . S
C6002 C6003 1.394 . S
C6002 H6010 0.930 . S
C6003 C6002 1.394 . S
C6003 C6004 1.383 . S
C6003 H6011 0.929 . S
C6004 C6003 1.383 . S
C6004 C6005 1.377 . S
C6005 H5989 0.930 . S
C6005 C6004 1.377 . S
C6005 C6006 1.379 . S
C6006 H5990 0.931 . S
C6006 C6000 1.383 . S
C6006 C6005 1.379 . S
H6007 C6001 0.959 . S
H6008 C6001 0.961 . S
H6009 C6001 0.960 . S
H6010 C6002 0.930 . S
H6011 C6003 0.929 . S
H6012 C6020 0.929 . S
H6013 C6022 0.930 . S
H6014 C6024 0.930 . S
H6015 C6027 0.929 . S
H6016 C6030 0.930 . S
H6017 C6032 0.960 . S
H6018 C6032 0.960 . S
H6019 C6032 0.960 . S
C6020 H6012 0.929 . S
C6020 C6021 1.377 . S
C6020 C6022 1.384 . S
C6021 C6020 1.377 . S
C6021 C6027 1.390 . S
C6022 H6013 0.930 . S
C6022 C6020 1.384 . S
C6022 C6023 1.372 . S
C6023 C6022 1.372 . S
C6023 C6024 1.400 . S
C6023 C6028 1.490 . S
C6024 H6014 0.930 . S
C6024 C6023 1.400 . S
C6024 C6027 1.386 . S
H6025 C6041 0.930 . S
H6026 C6042 0.931 . S
C6027 H6015 0.929 . S
C6027 C6021 1.390 . S
C6027 C6024 1.386 . S
C6028 C6023 1.490 . S
C6028 C6030 1.395 . S
C6028 C6031 1.403 . S
H6029 C6035 0.930 . S
C6030 H6016 0.930 . S
C6030 C6028 1.395 . S
C6030 C6033 1.403 . S
C6031 C6028 1.403 . S
C6031 C6032 1.524 . S
C6031 C6035 1.400 . S
C6032 H6017 0.960 . S
C6032 H6018 0.960 . S
C6032 H6019 0.960 . S
C6032 C6031 1.524 . S
C6033 C6030 1.403 . S
C6033 C6034 1.392 . S
C6033 C6037 1.495 . S
C6034 C6033 1.392 . S
C6034 C6035 1.385 . S
C6034 C6036 1.478 . S
C6035 H6029 0.930 . S
C6035 C6031 1.400 . S
C6035 C6034 1.385 . S
C6036 C6034 1.478 . S
C6036 C6038 1.381 . S
C6036 C6042 1.383 . S
C6037 C6033 1.495 . S
C6037 H6043 0.959 . S
C6037 H6044 0.961 . S
C6037 H6045 0.960 . S
C6038 C6036 1.381 . S
C6038 C6039 1.394 . S
C6038 H6046 0.930 . S
C6039 C6038 1.394 . S
C6039 C6040 1.383 . S
C6039 H6047 0.929 . S
C6040 C6039 1.383 . S
C6040 C6041 1.377 . S
C6041 H6025 0.930 . S
C6041 C6040 1.377 . S
C6041 C6042 1.379 . S
C6042 H6026 0.931 . S
C6042 C6036 1.383 . S
C6042 C6041 1.379 . S
H6043 C6037 0.959 . S
H6044 C6037 0.961 . S
H6045 C6037 0.960 . S
H6046 C6038 0.930 . S
H6047 C6039 0.929 . S
H6048 C6056 0.929 . S
H6049 C6058 0.930 . S
H6050 C6060 0.930 . S
H6051 C6063 0.929 . S
H6052 C6066 0.930 . S
H6053 C6068 0.960 . S
H6054 C6068 0.960 . S
H6055 C6068 0.960 . S
C6056 H6048 0.929 . S
C6056 C6057 1.377 . S
C6056 C6058 1.384 . S
C6057 C6056 1.377 . S
C6057 C6063 1.390 . S
C6058 H6049 0.930 . S
C6058 C6056 1.384 . S
C6058 C6059 1.372 . S
C6059 C6058 1.372 . S
C6059 C6060 1.400 . S
C6059 C6064 1.490 . S
C6060 H6050 0.930 . S
C6060 C6059 1.400 . S
C6060 C6063 1.386 . S
H6061 C6077 0.930 . S
H6062 C6078 0.931 . S
C6063 H6051 0.929 . S
C6063 C6057 1.390 . S
C6063 C6060 1.386 . S
C6064 C6059 1.490 . S
C6064 C6066 1.395 . S
C6064 C6067 1.403 . S
H6065 C6071 0.930 . S
C6066 H6052 0.930 . S
C6066 C6064 1.395 . S
C6066 C6069 1.403 . S
C6067 C6064 1.403 . S
C6067 C6068 1.524 . S
C6067 C6071 1.400 . S
C6068 H6053 0.960 . S
C6068 H6054 0.960 . S
C6068 H6055 0.960 . S
C6068 C6067 1.524 . S
C6069 C6066 1.403 . S
C6069 C6070 1.392 . S
C6069 C6073 1.495 . S
C6070 C6069 1.392 . S
C6070 C6071 1.385 . S
C6070 C6072 1.478 . S
C6071 H6065 0.930 . S
C6071 C6067 1.400 . S
C6071 C6070 1.385 . S
C6072 C6070 1.478 . S
C6072 C6074 1.381 . S
C6072 C6078 1.383 . S
C6073 C6069 1.495 . S
C6073 H6079 0.959 . S
C6073 H6080 0.961 . S
C6073 H6081 0.960 . S
C6074 C6072 1.381 . S
C6074 C6075 1.394 . S
C6074 H6082 0.930 . S
C6075 C6074 1.394 . S
C6075 C6076 1.383 . S
C6075 H6083 0.929 . S
C6076 C6075 1.383 . S
C6076 C6077 1.377 . S
C6077 H6061 0.930 . S
C6077 C6076 1.377 . S
C6077 C6078 1.379 . S
C6078 H6062 0.931 . S
C6078 C6072 1.383 . S
C6078 C6077 1.379 . S
H6079 C6073 0.959 . S
H6080 C6073 0.961 . S
H6081 C6073 0.960 . S
H6082 C6074 0.930 . S
H6083 C6075 0.929 . S
H6084 C6092 0.929 . S
H6085 C6094 0.930 . S
H6086 C6096 0.930 . S
H6087 C6099 0.929 . S
H6088 C6102 0.930 . S
H6089 C6104 0.960 . S
H6090 C6104 0.960 . S
H6091 C6104 0.960 . S
C6092 H6084 0.929 . S
C6092 C6093 1.377 . S
C6092 C6094 1.384 . S
C6093 C6092 1.377 . S
C6093 C6099 1.390 . S
C6094 H6085 0.930 . S
C6094 C6092 1.384 . S
C6094 C6095 1.372 . S
C6095 C6094 1.372 . S
C6095 C6096 1.400 . S
C6095 C6100 1.490 . S
C6096 H6086 0.930 . S
C6096 C6095 1.400 . S
C6096 C6099 1.386 . S
H6097 C6113 0.930 . S
H6098 C6114 0.931 . S
C6099 H6087 0.929 . S
C6099 C6093 1.390 . S
C6099 C6096 1.386 . S
C6100 C6095 1.490 . S
C6100 C6102 1.395 . S
C6100 C6103 1.403 . S
H6101 C6107 0.930 . S
C6102 H6088 0.930 . S
C6102 C6100 1.395 . S
C6102 C6105 1.403 . S
C6103 C6100 1.403 . S
C6103 C6104 1.524 . S
C6103 C6107 1.400 . S
C6104 H6089 0.960 . S
C6104 H6090 0.960 . S
C6104 H6091 0.960 . S
C6104 C6103 1.524 . S
C6105 C6102 1.403 . S
C6105 C6106 1.392 . S
C6105 C6109 1.495 . S
C6106 C6105 1.392 . S
C6106 C6107 1.385 . S
C6106 C6108 1.478 . S
C6107 H6101 0.930 . S
C6107 C6103 1.400 . S
C6107 C6106 1.385 . S
C6108 C6106 1.478 . S
C6108 C6110 1.381 . S
C6108 C6114 1.383 . S
C6109 C6105 1.495 . S
C6109 H6115 0.959 . S
C6109 H6116 0.961 . S
C6109 H6117 0.960 . S
C6110 C6108 1.381 . S
C6110 C6111 1.394 . S
C6110 H6118 0.930 . S
C6111 C6110 1.394 . S
C6111 C6112 1.383 . S
C6111 H6119 0.929 . S
C6112 C6111 1.383 . S
C6112 C6113 1.377 . S
C6113 H6097 0.930 . S
C6113 C6112 1.377 . S
C6113 C6114 1.379 . S
C6114 H6098 0.931 . S
C6114 C6108 1.383 . S
C6114 C6113 1.379 . S
H6115 C6109 0.959 . S
H6116 C6109 0.961 . S
H6117 C6109 0.960 . S
H6118 C6110 0.930 . S
H6119 C6111 0.929 . S
H6120 C6128 0.929 . S
H6121 C6130 0.930 . S
H6122 C6132 0.930 . S
H6123 C6135 0.929 . S
H6124 C6138 0.930 . S
H6125 C6140 0.960 . S
H6126 C6140 0.960 . S
H6127 C6140 0.960 . S
C6128 H6120 0.929 . S
C6128 C6129 1.377 . S
C6128 C6130 1.384 . S
C6129 C6128 1.377 . S
C6129 C6135 1.390 . S
C6130 H6121 0.930 . S
C6130 C6128 1.384 . S
C6130 C6131 1.372 . S
C6131 C6130 1.372 . S
C6131 C6132 1.400 . S
C6131 C6136 1.490 . S
C6132 H6122 0.930 . S
C6132 C6131 1.400 . S
C6132 C6135 1.386 . S
H6133 C6149 0.930 . S
H6134 C6150 0.931 . S
C6135 H6123 0.929 . S
C6135 C6129 1.390 . S
C6135 C6132 1.386 . S
C6136 C6131 1.490 . S
C6136 C6138 1.395 . S
C6136 C6139 1.403 . S
H6137 C6143 0.930 . S
C6138 H6124 0.930 . S
C6138 C6136 1.395 . S
C6138 C6141 1.403 . S
C6139 C6136 1.403 . S
C6139 C6140 1.524 . S
C6139 C6143 1.400 . S
C6140 H6125 0.960 . S
C6140 H6126 0.960 . S
C6140 H6127 0.960 . S
C6140 C6139 1.524 . S
C6141 C6138 1.403 . S
C6141 C6142 1.392 . S
C6141 C6145 1.495 . S
C6142 C6141 1.392 . S
C6142 C6143 1.385 . S
C6142 C6144 1.478 . S
C6143 H6137 0.930 . S
C6143 C6139 1.400 . S
C6143 C6142 1.385 . S
C6144 C6142 1.478 . S
C6144 C6146 1.381 . S
C6144 C6150 1.383 . S
C6145 C6141 1.495 . S
C6145 H6151 0.959 . S
C6145 H6152 0.961 . S
C6145 H6153 0.960 . S
C6146 C6144 1.381 . S
C6146 C6147 1.394 . S
C6146 H6154 0.930 . S
C6147 C6146 1.394 . S
C6147 C6148 1.383 . S
C6147 H6155 0.929 . S
C6148 C6147 1.383 . S
C6148 C6149 1.377 . S
C6149 H6133 0.930 . S
C6149 C6148 1.377 . S
C6149 C6150 1.379 . S
C6150 H6134 0.931 . S
C6150 C6144 1.383 . S
C6150 C6149 1.379 . S
H6151 C6145 0.959 . S
H6152 C6145 0.961 . S
H6153 C6145 0.960 . S
H6154 C6146 0.930 . S
H6155 C6147 0.929 . S
H6156 C6164 0.929 . S
H6157 C6166 0.930 . S
H6158 C6168 0.930 . S
H6159 C6171 0.929 . S
H6160 C6174 0.930 . S
H6161 C6176 0.960 . S
H6162 C6176 0.960 . S
H6163 C6176 0.960 . S
C6164 H6156 0.929 . S
C6164 C6165 1.377 . S
C6164 C6166 1.384 . S
C6165 C6164 1.377 . S
C6165 C6171 1.390 . S
C6166 H6157 0.930 . S
C6166 C6164 1.384 . S
C6166 C6167 1.372 . S
C6167 C6166 1.372 . S
C6167 C6168 1.400 . S
C6167 C6172 1.490 . S
C6168 H6158 0.930 . S
C6168 C6167 1.400 . S
C6168 C6171 1.386 . S
H6169 C6185 0.930 . S
H6170 C6186 0.931 . S
C6171 H6159 0.929 . S
C6171 C6165 1.390 . S
C6171 C6168 1.386 . S
C6172 C6167 1.490 . S
C6172 C6174 1.395 . S
C6172 C6175 1.403 . S
H6173 C6179 0.930 . S
C6174 H6160 0.930 . S
C6174 C6172 1.395 . S
C6174 C6177 1.403 . S
C6175 C6172 1.403 . S
C6175 C6176 1.524 . S
C6175 C6179 1.400 . S
C6176 H6161 0.960 . S
C6176 H6162 0.960 . S
C6176 H6163 0.960 . S
C6176 C6175 1.524 . S
C6177 C6174 1.403 . S
C6177 C6178 1.392 . S
C6177 C6181 1.495 . S
C6178 C6177 1.392 . S
C6178 C6179 1.385 . S
C6178 C6180 1.478 . S
C6179 H6173 0.930 . S
C6179 C6175 1.400 . S
C6179 C6178 1.385 . S
C6180 C6178 1.478 . S
C6180 C6182 1.381 . S
C6180 C6186 1.383 . S
C6181 C6177 1.495 . S
C6181 H6187 0.959 . S
C6181 H6188 0.961 . S
C6181 H6189 0.960 . S
C6182 C6180 1.381 . S
C6182 C6183 1.394 . S
C6182 H6190 0.930 . S
C6183 C6182 1.394 . S
C6183 C6184 1.383 . S
C6183 H6191 0.929 . S
C6184 C6183 1.383 . S
C6184 C6185 1.377 . S
C6185 H6169 0.930 . S
C6185 C6184 1.377 . S
C6185 C6186 1.379 . S
C6186 H6170 0.931 . S
C6186 C6180 1.383 . S
C6186 C6185 1.379 . S
H6187 C6181 0.959 . S
H6188 C6181 0.961 . S
H6189 C6181 0.960 . S
H6190 C6182 0.930 . S
H6191 C6183 0.929 . S
H6192 C6200 0.929 . S
H6193 C6202 0.930 . S
H6194 C6204 0.930 . S
H6195 C6207 0.929 . S
H6196 C6210 0.930 . S
H6197 C6212 0.960 . S
H6198 C6212 0.960 . S
H6199 C6212 0.960 . S
C6200 H6192 0.929 . S
C6200 C6201 1.377 . S
C6200 C6202 1.384 . S
C6201 C6200 1.377 . S
C6201 C6207 1.390 . S
C6202 H6193 0.930 . S
C6202 C6200 1.384 . S
C6202 C6203 1.372 . S
C6203 C6202 1.372 . S
C6203 C6204 1.400 . S
C6203 C6208 1.490 . S
C6204 H6194 0.930 . S
C6204 C6203 1.400 . S
C6204 C6207 1.386 . S
H6205 C6221 0.930 1_554 S
H6206 C6222 0.931 . S
C6207 H6195 0.929 . S
C6207 C6201 1.390 . S
C6207 C6204 1.386 . S
C6208 C6203 1.490 . S
C6208 C6210 1.395 . S
C6208 C6211 1.403 . S
H6209 C6215 0.930 . S
C6210 H6196 0.930 . S
C6210 C6208 1.395 . S
C6210 C6213 1.403 . S
C6211 C6208 1.403 . S
C6211 C6212 1.524 . S
C6211 C6215 1.400 . S
C6212 H6197 0.960 . S
C6212 H6198 0.960 . S
C6212 H6199 0.960 . S
C6212 C6211 1.524 . S
C6213 C6210 1.403 . S
C6213 C6214 1.392 . S
C6213 C6217 1.495 . S
C6214 C6213 1.392 . S
C6214 C6215 1.385 . S
C6214 C6216 1.478 . S
C6215 H6209 0.930 . S
C6215 C6211 1.400 . S
C6215 C6214 1.385 . S
C6216 C6214 1.478 . S
C6216 C6218 1.381 . S
C6216 C6222 1.383 . S
C6217 C6213 1.495 . S
C6217 H6223 0.959 . S
C6217 H6224 0.961 . S
C6217 H6225 0.960 . S
C6218 C6216 1.381 . S
C6218 C6219 1.394 . S
C6218 H6226 0.930 . S
C6219 C6218 1.394 . S
C6219 C6220 1.383 . S
C6219 H6227 0.929 . S
C6220 C6219 1.383 . S
C6220 C6221 1.377 . S
C6221 H6205 0.930 1_556 S
C6221 C6220 1.377 . S
C6221 C6222 1.379 . S
C6222 H6206 0.931 . S
C6222 C6216 1.383 . S
C6222 C6221 1.379 . S
H6223 C6217 0.959 . S
H6224 C6217 0.961 . S
H6225 C6217 0.960 . S
H6226 C6218 0.930 . S
H6227 C6219 0.929 . S
H6228 C6236 0.929 . S
H6229 C6238 0.930 . S
H6230 C6240 0.930 . S
H6231 C6243 0.929 . S
H6232 C6246 0.930 . S
H6233 C6248 0.960 . S
H6234 C6248 0.960 . S
H6235 C6248 0.960 . S
C6236 H6228 0.929 . S
C6236 C6237 1.377 . S
C6236 C6238 1.384 . S
C6237 C6236 1.377 . S
C6237 C6243 1.390 . S
C6238 H6229 0.930 . S
C6238 C6236 1.384 . S
C6238 C6239 1.372 . S
C6239 C6238 1.372 . S
C6239 C6240 1.400 . S
C6239 C6244 1.490 . S
C6240 H6230 0.930 . S
C6240 C6239 1.400 . S
C6240 C6243 1.386 . S
H6241 C6257 0.930 . S
H6242 C6258 0.931 . S
C6243 H6231 0.929 . S
C6243 C6237 1.390 . S
C6243 C6240 1.386 . S
C6244 C6239 1.490 . S
C6244 C6246 1.395 . S
C6244 C6247 1.403 . S
H6245 C6251 0.930 . S
C6246 H6232 0.930 . S
C6246 C6244 1.395 . S
C6246 C6249 1.403 . S
C6247 C6244 1.403 . S
C6247 C6248 1.524 . S
C6247 C6251 1.400 . S
C6248 H6233 0.960 . S
C6248 H6234 0.960 . S
C6248 H6235 0.960 . S
C6248 C6247 1.524 . S
C6249 C6246 1.403 . S
C6249 C6250 1.392 . S
C6249 C6253 1.495 . S
C6250 C6249 1.392 . S
C6250 C6251 1.385 . S
C6250 C6252 1.478 . S
C6251 H6245 0.930 . S
C6251 C6247 1.400 . S
C6251 C6250 1.385 . S
C6252 C6250 1.478 . S
C6252 C6254 1.381 . S
C6252 C6258 1.383 . S
C6253 C6249 1.495 . S
C6253 H6259 0.959 . S
C6253 H6260 0.961 . S
C6253 H6261 0.960 . S
C6254 C6252 1.381 . S
C6254 C6255 1.394 . S
C6254 H6262 0.930 . S
C6255 C6254 1.394 . S
C6255 C6256 1.383 . S
C6255 H6263 0.929 . S
C6256 C6255 1.383 . S
C6256 C6257 1.377 . S
C6257 H6241 0.930 . S
C6257 C6256 1.377 . S
C6257 C6258 1.379 . S
C6258 H6242 0.931 . S
C6258 C6252 1.383 . S
C6258 C6257 1.379 . S
H6259 C6253 0.959 . S
H6260 C6253 0.961 . S
H6261 C6253 0.960 . S
H6262 C6254 0.930 . S
H6263 C6255 0.929 . S
H6264 C6272 0.929 . S
H6265 C6274 0.930 . S
H6266 C6276 0.930 . S
H6267 C6279 0.929 . S
H6268 C6282 0.930 . S
H6269 C6284 0.960 . S
H6270 C6284 0.960 . S
H6271 C6284 0.960 . S
C6272 H6264 0.929 . S
C6272 C6273 1.377 . S
C6272 C6274 1.384 . S
C6273 C6272 1.377 . S
C6273 C6279 1.390 . S
C6274 H6265 0.930 . S
C6274 C6272 1.384 . S
C6274 C6275 1.372 . S
C6275 C6274 1.372 . S
C6275 C6276 1.400 . S
C6275 C6280 1.490 . S
C6276 H6266 0.930 . S
C6276 C6275 1.400 . S
C6276 C6279 1.386 . S
H6277 C6293 0.930 . S
H6278 C6294 0.931 . S
C6279 H6267 0.929 . S
C6279 C6273 1.390 . S
C6279 C6276 1.386 . S
C6280 C6275 1.490 . S
C6280 C6282 1.395 . S
C6280 C6283 1.403 . S
H6281 C6287 0.930 . S
C6282 H6268 0.930 . S
C6282 C6280 1.395 . S
C6282 C6285 1.403 . S
C6283 C6280 1.403 . S
C6283 C6284 1.524 . S
C6283 C6287 1.400 . S
C6284 H6269 0.960 . S
C6284 H6270 0.960 . S
C6284 H6271 0.960 . S
C6284 C6283 1.524 . S
C6285 C6282 1.403 . S
C6285 C6286 1.392 . S
C6285 C6289 1.495 . S
C6286 C6285 1.392 . S
C6286 C6287 1.385 . S
C6286 C6288 1.478 . S
C6287 H6281 0.930 . S
C6287 C6283 1.400 . S
C6287 C6286 1.385 . S
C6288 C6286 1.478 . S
C6288 C6290 1.381 . S
C6288 C6294 1.383 . S
C6289 C6285 1.495 . S
C6289 H6295 0.959 . S
C6289 H6296 0.961 . S
C6289 H6297 0.960 . S
C6290 C6288 1.381 . S
C6290 C6291 1.394 . S
C6290 H6298 0.930 . S
C6291 C6290 1.394 . S
C6291 C6292 1.383 . S
C6291 H6299 0.929 . S
C6292 C6291 1.383 . S
C6292 C6293 1.377 . S
C6293 H6277 0.930 . S
C6293 C6292 1.377 . S
C6293 C6294 1.379 . S
C6294 H6278 0.931 . S
C6294 C6288 1.383 . S
C6294 C6293 1.379 . S
H6295 C6289 0.959 . S
H6296 C6289 0.961 . S
H6297 C6289 0.960 . S
H6298 C6290 0.930 . S
H6299 C6291 0.929 . S
H6300 C6308 0.929 . S
H6301 C6310 0.930 . S
H6302 C6312 0.930 . S
H6303 C6315 0.929 . S
H6304 C6318 0.930 . S
H6305 C6320 0.960 . S
H6306 C6320 0.960 . S
H6307 C6320 0.960 . S
C6308 H6300 0.929 . S
C6308 C6309 1.377 . S
C6308 C6310 1.384 . S
C6309 C6308 1.377 . S
C6309 C6315 1.390 . S
C6310 H6301 0.930 . S
C6310 C6308 1.384 . S
C6310 C6311 1.372 . S
C6311 C6310 1.372 . S
C6311 C6312 1.400 . S
C6311 C6316 1.490 . S
C6312 H6302 0.930 . S
C6312 C6311 1.400 . S
C6312 C6315 1.386 . S
H6313 C6329 0.930 . S
H6314 C6330 0.931 . S
C6315 H6303 0.929 . S
C6315 C6309 1.390 . S
C6315 C6312 1.386 . S
C6316 C6311 1.490 . S
C6316 C6318 1.395 . S
C6316 C6319 1.403 . S
H6317 C6323 0.930 . S
C6318 H6304 0.930 . S
C6318 C6316 1.395 . S
C6318 C6321 1.403 . S
C6319 C6316 1.403 . S
C6319 C6320 1.524 . S
C6319 C6323 1.400 . S
C6320 H6305 0.960 . S
C6320 H6306 0.960 . S
C6320 H6307 0.960 . S
C6320 C6319 1.524 . S
C6321 C6318 1.403 . S
C6321 C6322 1.392 . S
C6321 C6325 1.495 . S
C6322 C6321 1.392 . S
C6322 C6323 1.385 . S
C6322 C6324 1.478 . S
C6323 H6317 0.930 . S
C6323 C6319 1.400 . S
C6323 C6322 1.385 . S
C6324 C6322 1.478 . S
C6324 C6326 1.381 . S
C6324 C6330 1.383 . S
C6325 C6321 1.495 . S
C6325 H6331 0.959 . S
C6325 H6332 0.961 . S
C6325 H6333 0.960 . S
C6326 C6324 1.381 . S
C6326 C6327 1.394 . S
C6326 H6334 0.930 . S
C6327 C6326 1.394 . S
C6327 C6328 1.383 . S
C6327 H6335 0.929 . S
C6328 C6327 1.383 . S
C6328 C6329 1.377 . S
C6329 H6313 0.930 . S
C6329 C6328 1.377 . S
C6329 C6330 1.379 . S
C6330 H6314 0.931 . S
C6330 C6324 1.383 . S
C6330 C6329 1.379 . S
H6331 C6325 0.959 . S
H6332 C6325 0.961 . S
H6333 C6325 0.960 . S
H6334 C6326 0.930 . S
H6335 C6327 0.929 . S
H6336 C6344 0.929 . S
H6337 C6346 0.930 . S
H6338 C6348 0.930 . S
H6339 C6351 0.929 . S
H6340 C6354 0.930 . S
H6341 C6356 0.960 . S
H6342 C6356 0.960 . S
H6343 C6356 0.960 . S
C6344 H6336 0.929 . S
C6344 C6345 1.377 . S
C6344 C6346 1.384 . S
C6345 C6344 1.377 . S
C6345 C6351 1.390 . S
C6346 H6337 0.930 . S
C6346 C6344 1.384 . S
C6346 C6347 1.372 . S
C6347 C6346 1.372 . S
C6347 C6348 1.400 . S
C6347 C6352 1.490 . S
C6348 H6338 0.930 . S
C6348 C6347 1.400 . S
C6348 C6351 1.386 . S
H6349 C6365 0.930 . S
H6350 C6366 0.931 . S
C6351 H6339 0.929 . S
C6351 C6345 1.390 . S
C6351 C6348 1.386 . S
C6352 C6347 1.490 . S
C6352 C6354 1.395 . S
C6352 C6355 1.403 . S
H6353 C6359 0.930 . S
C6354 H6340 0.930 . S
C6354 C6352 1.395 . S
C6354 C6357 1.403 . S
C6355 C6352 1.403 . S
C6355 C6356 1.524 . S
C6355 C6359 1.400 . S
C6356 H6341 0.960 . S
C6356 H6342 0.960 . S
C6356 H6343 0.960 . S
C6356 C6355 1.524 . S
C6357 C6354 1.403 . S
C6357 C6358 1.392 . S
C6357 C6361 1.495 . S
C6358 C6357 1.392 . S
C6358 C6359 1.385 . S
C6358 C6360 1.478 . S
C6359 H6353 0.930 . S
C6359 C6355 1.400 . S
C6359 C6358 1.385 . S
C6360 C6358 1.478 . S
C6360 C6362 1.381 . S
C6360 C6366 1.383 . S
C6361 C6357 1.495 . S
C6361 H6367 0.959 . S
C6361 H6368 0.961 . S
C6361 H6369 0.960 . S
C6362 C6360 1.381 . S
C6362 C6363 1.394 . S
C6362 H6370 0.930 . S
C6363 C6362 1.394 . S
C6363 C6364 1.383 . S
C6363 H6371 0.929 . S
C6364 C6363 1.383 . S
C6364 C6365 1.377 . S
C6365 H6349 0.930 . S
C6365 C6364 1.377 . S
C6365 C6366 1.379 . S
C6366 H6350 0.931 . S
C6366 C6360 1.383 . S
C6366 C6365 1.379 . S
H6367 C6361 0.959 . S
H6368 C6361 0.961 . S
H6369 C6361 0.960 . S
H6370 C6362 0.930 . S
H6371 C6363 0.929 . S
H6372 C6380 0.929 . S
H6373 C6382 0.930 . S
H6374 C6384 0.930 . S
H6375 C6387 0.929 . S
H6376 C6390 0.930 . S
H6377 C6392 0.960 . S
H6378 C6392 0.960 . S
H6379 C6392 0.960 . S
C6380 H6372 0.929 . S
C6380 C6381 1.377 . S
C6380 C6382 1.384 . S
C6381 C6380 1.377 . S
C6381 C6387 1.390 . S
C6382 H6373 0.930 . S
C6382 C6380 1.384 . S
C6382 C6383 1.372 . S
C6383 C6382 1.372 . S
C6383 C6384 1.400 . S
C6383 C6388 1.490 . S
C6384 H6374 0.930 . S
C6384 C6383 1.400 . S
C6384 C6387 1.386 . S
H6385 C6401 0.930 . S
H6386 C6402 0.931 . S
C6387 H6375 0.929 . S
C6387 C6381 1.390 . S
C6387 C6384 1.386 . S
C6388 C6383 1.490 . S
C6388 C6390 1.395 . S
C6388 C6391 1.403 . S
H6389 C6395 0.930 . S
C6390 H6376 0.930 . S
C6390 C6388 1.395 . S
C6390 C6393 1.403 . S
C6391 C6388 1.403 . S
C6391 C6392 1.524 . S
C6391 C6395 1.400 . S
C6392 H6377 0.960 . S
C6392 H6378 0.960 . S
C6392 H6379 0.960 . S
C6392 C6391 1.524 . S
C6393 C6390 1.403 . S
C6393 C6394 1.392 . S
C6393 C6397 1.495 . S
C6394 C6393 1.392 . S
C6394 C6395 1.385 . S
C6394 C6396 1.478 . S
C6395 H6389 0.930 . S
C6395 C6391 1.400 . S
C6395 C6394 1.385 . S
C6396 C6394 1.478 . S
C6396 C6398 1.381 . S
C6396 C6402 1.383 . S
C6397 C6393 1.495 . S
C6397 H6403 0.959 . S
C6397 H6404 0.961 . S
C6397 H6405 0.960 . S
C6398 C6396 1.381 . S
C6398 C6399 1.394 . S
C6398 H6406 0.930 . S
C6399 C6398 1.394 . S
C6399 C6400 1.383 . S
C6399 H6407 0.929 . S
C6400 C6399 1.383 . S
C6400 C6401 1.377 . S
C6401 H6385 0.930 . S
C6401 C6400 1.377 . S
C6401 C6402 1.379 . S
C6402 H6386 0.931 . S
C6402 C6396 1.383 . S
C6402 C6401 1.379 . S
H6403 C6397 0.959 . S
H6404 C6397 0.961 . S
H6405 C6397 0.960 . S
H6406 C6398 0.930 . S
H6407 C6399 0.929 . S
H6408 C6416 0.929 . S
H6409 C6418 0.930 . S
H6410 C6420 0.930 . S
H6411 C6423 0.929 . S
H6412 C6426 0.930 . S
H6413 C6428 0.960 . S
H6414 C6428 0.960 . S
H6415 C6428 0.960 . S
C6416 H6408 0.929 . S
C6416 C6417 1.377 . S
C6416 C6418 1.384 . S
C6417 C6416 1.377 . S
C6417 C6423 1.390 . S
C6418 H6409 0.930 . S
C6418 C6416 1.384 . S
C6418 C6419 1.372 . S
C6419 C6418 1.372 . S
C6419 C6420 1.400 . S
C6419 C6424 1.490 . S
C6420 H6410 0.930 . S
C6420 C6419 1.400 . S
C6420 C6423 1.386 . S
H6421 C6437 0.930 . S
H6422 C6438 0.931 . S
C6423 H6411 0.929 . S
C6423 C6417 1.390 . S
C6423 C6420 1.386 . S
C6424 C6419 1.490 . S
C6424 C6426 1.395 . S
C6424 C6427 1.403 . S
H6425 C6431 0.930 . S
C6426 H6412 0.930 . S
C6426 C6424 1.395 . S
C6426 C6429 1.403 . S
C6427 C6424 1.403 . S
C6427 C6428 1.524 . S
C6427 C6431 1.400 . S
C6428 H6413 0.960 . S
C6428 H6414 0.960 . S
C6428 H6415 0.960 . S
C6428 C6427 1.524 . S
C6429 C6426 1.403 . S
C6429 C6430 1.393 1_655 S
C6429 C6433 1.495 1_655 S
C6430 C6429 1.393 1_455 S
C6430 C6431 1.381 1_455 S
C6430 C6432 1.481 . S
C6431 H6425 0.930 . S
C6431 C6427 1.400 . S
C6431 C6430 1.381 1_655 S
C6432 C6430 1.481 . S
C6432 C6434 1.381 . S
C6432 C6438 1.383 . S
C6433 C6429 1.495 1_455 S
C6433 H6439 0.959 . S
C6433 H6440 0.961 . S
C6433 H6441 0.960 . S
C6434 C6432 1.381 . S
C6434 C6435 1.394 . S
C6434 H6442 0.930 1_455 S
C6435 C6434 1.394 . S
C6435 C6436 1.383 . S
C6435 H6443 0.929 . S
C6436 C6435 1.383 . S
C6436 C6437 1.377 . S
C6437 H6421 0.930 . S
C6437 C6436 1.377 . S
C6437 C6438 1.379 . S
C6438 H6422 0.931 . S
C6438 C6432 1.383 . S
C6438 C6437 1.379 . S
H6439 C6433 0.959 . S
H6440 C6433 0.961 . S
H6441 C6433 0.960 . S
H6442 C6434 0.930 1_655 S
H6443 C6435 0.929 . S
H6444 C6452 0.929 . S
H6445 C6454 0.930 . S
H6446 C6456 0.930 . S
H6447 C6459 0.929 . S
H6448 C6462 0.930 . S
H6449 C6464 0.960 . S
H6450 C6464 0.960 . S
H6451 C6464 0.960 . S
C6452 H6444 0.929 . S
C6452 C6453 1.377 . S
C6452 C6454 1.384 . S
C6453 C6452 1.377 . S
C6453 C6459 1.390 . S
C6454 H6445 0.930 . S
C6454 C6452 1.384 . S
C6454 C6455 1.372 . S
C6455 C6454 1.372 . S
C6455 C6456 1.400 . S
C6455 C6460 1.490 . S
C6456 H6446 0.930 . S
C6456 C6455 1.400 . S
C6456 C6459 1.386 . S
H6457 C6473 0.930 . S
H6458 C6474 0.931 . S
C6459 H6447 0.929 . S
C6459 C6453 1.390 . S
C6459 C6456 1.386 . S
C6460 C6455 1.490 . S
C6460 C6462 1.395 . S
C6460 C6463 1.403 . S
H6461 C6467 0.930 . S
C6462 H6448 0.930 . S
C6462 C6460 1.395 . S
C6462 C6465 1.403 . S
C6463 C6460 1.403 . S
C6463 C6464 1.524 . S
C6463 C6467 1.400 . S
C6464 H6449 0.960 . S
C6464 H6450 0.960 . S
C6464 H6451 0.960 . S
C6464 C6463 1.524 . S
C6465 C6462 1.403 . S
C6465 C6466 1.392 . S
C6465 C6469 1.495 . S
C6466 C6465 1.392 . S
C6466 C6467 1.385 . S
C6466 C6468 1.478 . S
C6467 H6461 0.930 . S
C6467 C6463 1.400 . S
C6467 C6466 1.385 . S
C6468 C6466 1.478 . S
C6468 C6470 1.381 . S
C6468 C6474 1.383 . S
C6469 C6465 1.495 . S
C6469 H6475 0.959 . S
C6469 H6476 0.961 . S
C6469 H6477 0.960 . S
C6470 C6468 1.381 . S
C6470 C6471 1.394 . S
C6470 H6478 0.930 . S
C6471 C6470 1.394 . S
C6471 C6472 1.383 . S
C6471 H6479 0.929 . S
C6472 C6471 1.383 . S
C6472 C6473 1.377 . S
C6473 H6457 0.930 . S
C6473 C6472 1.377 . S
C6473 C6474 1.379 . S
C6474 H6458 0.931 . S
C6474 C6468 1.383 . S
C6474 C6473 1.379 . S
H6475 C6469 0.959 . S
H6476 C6469 0.961 . S
H6477 C6469 0.960 . S
H6478 C6470 0.930 . S
H6479 C6471 0.929 . S
H6480 C6488 0.929 . S
H6481 C6490 0.930 . S
H6482 C6492 0.930 . S
H6483 C6495 0.929 . S
H6484 C6498 0.930 . S
H6485 C6500 0.960 . S
H6486 C6500 0.960 . S
H6487 C6500 0.960 . S
C6488 H6480 0.929 . S
C6488 C6489 1.377 . S
C6488 C6490 1.384 . S
C6489 C6488 1.377 . S
C6489 C6495 1.390 . S
C6490 H6481 0.930 . S
C6490 C6488 1.384 . S
C6490 C6491 1.372 . S
C6491 C6490 1.372 . S
C6491 C6492 1.400 . S
C6491 C6496 1.490 . S
C6492 H6482 0.930 . S
C6492 C6491 1.400 . S
C6492 C6495 1.386 . S
H6493 C6509 0.930 . S
H6494 C6510 0.931 . S
C6495 H6483 0.929 . S
C6495 C6489 1.390 . S
C6495 C6492 1.386 . S
C6496 C6491 1.490 . S
C6496 C6498 1.395 . S
C6496 C6499 1.403 . S
H6497 C6503 0.930 . S
C6498 H6484 0.930 . S
C6498 C6496 1.395 . S
C6498 C6501 1.403 . S
C6499 C6496 1.403 . S
C6499 C6500 1.524 . S
C6499 C6503 1.400 . S
C6500 H6485 0.960 . S
C6500 H6486 0.960 . S
C6500 H6487 0.960 . S
C6500 C6499 1.524 . S
C6501 C6498 1.403 . S
C6501 C6502 1.392 . S
C6501 C6505 1.495 . S
C6502 C6501 1.392 . S
C6502 C6503 1.385 . S
C6502 C6504 1.478 . S
C6503 H6497 0.930 . S
C6503 C6499 1.400 . S
C6503 C6502 1.385 . S
C6504 C6502 1.478 . S
C6504 C6506 1.381 . S
C6504 C6510 1.383 . S
C6505 C6501 1.495 . S
C6505 H6511 0.959 . S
C6505 H6512 0.961 . S
C6505 H6513 0.960 . S
C6506 C6504 1.381 . S
C6506 C6507 1.394 . S
C6506 H6514 0.930 . S
C6507 C6506 1.394 . S
C6507 C6508 1.383 . S
C6507 H6515 0.929 . S
C6508 C6507 1.383 . S
C6508 C6509 1.377 . S
C6509 H6493 0.930 . S
C6509 C6508 1.377 . S
C6509 C6510 1.379 . S
C6510 H6494 0.931 . S
C6510 C6504 1.383 . S
C6510 C6509 1.379 . S
H6511 C6505 0.959 . S
H6512 C6505 0.961 . S
H6513 C6505 0.960 . S
H6514 C6506 0.930 . S
H6515 C6507 0.929 . S
H6516 C6524 0.929 . S
H6517 C6526 0.930 . S
H6518 C6528 0.930 . S
H6519 C6531 0.929 . S
H6520 C6534 0.930 . S
H6521 C6536 0.960 . S
H6522 C6536 0.960 . S
H6523 C6536 0.960 . S
C6524 H6516 0.929 . S
C6524 C6525 1.377 . S
C6524 C6526 1.384 . S
C6525 C6524 1.377 . S
C6525 C6531 1.390 . S
C6526 H6517 0.930 . S
C6526 C6524 1.384 . S
C6526 C6527 1.372 . S
C6527 C6526 1.372 . S
C6527 C6528 1.400 . S
C6527 C6532 1.490 . S
C6528 H6518 0.930 . S
C6528 C6527 1.400 . S
C6528 C6531 1.386 . S
H6529 C6545 0.930 . S
H6530 C6546 0.931 . S
C6531 H6519 0.929 . S
C6531 C6525 1.390 . S
C6531 C6528 1.386 . S
C6532 C6527 1.490 . S
C6532 C6534 1.395 . S
C6532 C6535 1.403 . S
H6533 C6539 0.930 . S
C6534 H6520 0.930 . S
C6534 C6532 1.395 . S
C6534 C6537 1.403 . S
C6535 C6532 1.403 . S
C6535 C6536 1.524 . S
C6535 C6539 1.400 . S
C6536 H6521 0.960 . S
C6536 H6522 0.960 . S
C6536 H6523 0.960 . S
C6536 C6535 1.524 . S
C6537 C6534 1.403 . S
C6537 C6538 1.392 . S
C6537 C6541 1.495 . S
C6538 C6537 1.392 . S
C6538 C6539 1.385 . S
C6538 C6540 1.478 . S
C6539 H6533 0.930 . S
C6539 C6535 1.400 . S
C6539 C6538 1.385 . S
C6540 C6538 1.478 . S
C6540 C6542 1.381 . S
C6540 C6546 1.383 . S
C6541 C6537 1.495 . S
C6541 H6547 0.959 . S
C6541 H6548 0.961 . S
C6541 H6549 0.960 . S
C6542 C6540 1.381 . S
C6542 C6543 1.394 . S
C6542 H6550 0.930 . S
C6543 C6542 1.394 . S
C6543 C6544 1.383 . S
C6543 H6551 0.929 . S
C6544 C6543 1.383 . S
C6544 C6545 1.377 . S
C6545 H6529 0.930 . S
C6545 C6544 1.377 . S
C6545 C6546 1.379 . S
C6546 H6530 0.931 . S
C6546 C6540 1.383 . S
C6546 C6545 1.379 . S
H6547 C6541 0.959 . S
H6548 C6541 0.961 . S
H6549 C6541 0.960 . S
H6550 C6542 0.930 . S
H6551 C6543 0.929 . S
H6552 C6560 0.929 . S
H6553 C6562 0.930 . S
H6554 C6564 0.930 . S
H6555 C6567 0.929 . S
H6556 C6570 0.930 . S
H6557 C6572 0.960 . S
H6558 C6572 0.960 . S
H6559 C6572 0.960 . S
C6560 H6552 0.929 . S
C6560 C6561 1.377 . S
C6560 C6562 1.384 . S
C6561 C6560 1.377 . S
C6561 C6567 1.390 . S
C6562 H6553 0.930 . S
C6562 C6560 1.384 . S
C6562 C6563 1.372 . S
C6563 C6562 1.372 . S
C6563 C6564 1.400 . S
C6563 C6568 1.490 . S
C6564 H6554 0.930 . S
C6564 C6563 1.400 . S
C6564 C6567 1.386 . S
H6565 C6581 0.930 . S
H6566 C6582 0.931 . S
C6567 H6555 0.929 . S
C6567 C6561 1.390 . S
C6567 C6564 1.386 . S
C6568 C6563 1.490 . S
C6568 C6570 1.395 . S
C6568 C6571 1.403 . S
H6569 C6575 0.930 . S
C6570 H6556 0.930 . S
C6570 C6568 1.395 . S
C6570 C6573 1.403 . S
C6571 C6568 1.403 . S
C6571 C6572 1.524 . S
C6571 C6575 1.400 . S
C6572 H6557 0.960 . S
C6572 H6558 0.960 . S
C6572 H6559 0.960 . S
C6572 C6571 1.524 . S
C6573 C6570 1.403 . S
C6573 C6574 1.392 . S
C6573 C6577 1.495 1_655 S
C6574 C6573 1.392 . S
C6574 C6575 1.385 . S
C6574 C6576 1.478 . S
C6575 H6569 0.930 . S
C6575 C6571 1.400 . S
C6575 C6574 1.385 . S
C6576 C6574 1.478 . S
C6576 C6578 1.381 . S
C6576 C6582 1.383 1_655 S
C6577 C6573 1.495 1_455 S
C6577 H6583 0.959 . S
C6577 H6584 0.961 . S
C6577 H6585 0.960 . S
C6578 C6576 1.381 . S
C6578 C6579 1.394 1_655 S
C6578 H6586 0.930 . S
C6579 C6578 1.394 1_455 S
C6579 C6580 1.383 . S
C6579 H6587 0.929 . S
C6580 C6579 1.383 . S
C6580 C6581 1.377 . S
C6581 H6565 0.930 . S
C6581 C6580 1.377 . S
C6581 C6582 1.379 . S
C6582 H6566 0.931 . S
C6582 C6576 1.383 1_455 S
C6582 C6581 1.379 . S
H6583 C6577 0.959 . S
H6584 C6577 0.961 . S
H6585 C6577 0.960 . S
H6586 C6578 0.930 . S
H6587 C6579 0.929 . S
H6588 C6596 0.929 . S
H6589 C6598 0.930 . S
H6590 C6600 0.930 . S
H6591 C6603 0.929 . S
H6592 C6606 0.930 . S
H6593 C6608 0.960 . S
H6594 C6608 0.960 . S
H6595 C6608 0.960 . S
C6596 H6588 0.929 . S
C6596 C6597 1.377 . S
C6596 C6598 1.384 . S
C6597 C6596 1.377 . S
C6597 C6603 1.390 . S
C6598 H6589 0.930 . S
C6598 C6596 1.384 . S
C6598 C6599 1.372 . S
C6599 C6598 1.372 . S
C6599 C6600 1.400 . S
C6599 C6604 1.490 . S
C6600 H6590 0.930 . S
C6600 C6599 1.400 . S
C6600 C6603 1.386 . S
H6601 C6617 0.930 . S
H6602 C6618 0.931 . S
C6603 H6591 0.929 . S
C6603 C6597 1.390 . S
C6603 C6600 1.386 . S
C6604 C6599 1.490 . S
C6604 C6606 1.395 . S
C6604 C6607 1.403 . S
H6605 C6611 0.930 . S
C6606 H6592 0.930 . S
C6606 C6604 1.395 . S
C6606 C6609 1.403 . S
C6607 C6604 1.403 . S
C6607 C6608 1.524 . S
C6607 C6611 1.400 . S
C6608 H6593 0.960 . S
C6608 H6594 0.960 . S
C6608 H6595 0.960 . S
C6608 C6607 1.524 . S
C6609 C6606 1.403 . S
C6609 C6610 1.392 . S
C6609 C6613 1.495 . S
C6610 C6609 1.392 . S
C6610 C6611 1.385 . S
C6610 C6612 1.478 . S
C6611 H6605 0.930 . S
C6611 C6607 1.400 . S
C6611 C6610 1.385 . S
C6612 C6610 1.478 . S
C6612 C6614 1.381 . S
C6612 C6618 1.383 . S
C6613 C6609 1.495 . S
C6613 H6619 0.959 . S
C6613 H6620 0.961 . S
C6613 H6621 0.960 . S
C6614 C6612 1.381 . S
C6614 C6615 1.394 . S
C6614 H6622 0.930 . S
C6615 C6614 1.394 . S
C6615 C6616 1.383 . S
C6615 H6623 0.929 . S
C6616 C6615 1.383 . S
C6616 C6617 1.377 . S
C6617 H6601 0.930 . S
C6617 C6616 1.377 . S
C6617 C6618 1.379 . S
C6618 H6602 0.931 . S
C6618 C6612 1.383 . S
C6618 C6617 1.379 . S
H6619 C6613 0.959 . S
H6620 C6613 0.961 . S
H6621 C6613 0.960 . S
H6622 C6614 0.930 . S
H6623 C6615 0.929 . S
H6624 C6632 0.929 . S
H6625 C6634 0.930 . S
H6626 C6636 0.930 . S
H6627 C6639 0.929 . S
H6628 C6642 0.930 . S
H6629 C6644 0.960 . S
H6630 C6644 0.960 . S
H6631 C6644 0.960 . S
C6632 H6624 0.929 . S
C6632 C6633 1.377 . S
C6632 C6634 1.384 . S
C6633 C6632 1.377 . S
C6633 C6639 1.390 . S
C6634 H6625 0.930 . S
C6634 C6632 1.384 . S
C6634 C6635 1.372 . S
C6635 C6634 1.372 . S
C6635 C6636 1.400 . S
C6635 C6640 1.490 . S
C6636 H6626 0.930 . S
C6636 C6635 1.400 . S
C6636 C6639 1.386 . S
H6637 C6653 0.930 . S
H6638 C6654 0.931 . S
C6639 H6627 0.929 . S
C6639 C6633 1.390 . S
C6639 C6636 1.386 . S
C6640 C6635 1.490 . S
C6640 C6642 1.395 . S
C6640 C6643 1.403 . S
H6641 C6647 0.930 . S
C6642 H6628 0.930 . S
C6642 C6640 1.395 . S
C6642 C6645 1.403 . S
C6643 C6640 1.403 . S
C6643 C6644 1.524 . S
C6643 C6647 1.400 . S
C6644 H6629 0.960 . S
C6644 H6630 0.960 . S
C6644 H6631 0.960 . S
C6644 C6643 1.524 . S
C6645 C6642 1.403 . S
C6645 C6646 1.392 . S
C6645 C6649 1.495 . S
C6646 C6645 1.392 . S
C6646 C6647 1.385 . S
C6646 C6648 1.478 . S
C6647 H6641 0.930 . S
C6647 C6643 1.400 . S
C6647 C6646 1.385 . S
C6648 C6646 1.478 . S
C6648 C6650 1.381 . S
C6648 C6654 1.383 . S
C6649 C6645 1.495 . S
C6649 H6655 0.959 . S
C6649 H6656 0.961 . S
C6649 H6657 0.960 . S
C6650 C6648 1.381 . S
C6650 C6651 1.394 . S
C6650 H6658 0.930 . S
C6651 C6650 1.394 . S
C6651 C6652 1.383 . S
C6651 H6659 0.929 . S
C6652 C6651 1.383 . S
C6652 C6653 1.377 . S
C6653 H6637 0.930 . S
C6653 C6652 1.377 . S
C6653 C6654 1.379 . S
C6654 H6638 0.931 . S
C6654 C6648 1.383 . S
C6654 C6653 1.379 . S
H6655 C6649 0.959 . S
H6656 C6649 0.961 . S
H6657 C6649 0.960 . S
H6658 C6650 0.930 . S
H6659 C6651 0.929 . S
H6660 C6668 0.929 . S
H6661 C6670 0.930 . S
H6662 C6672 0.930 . S
H6663 C6675 0.929 . S
H6664 C6678 0.930 . S
H6665 C6680 0.960 . S
H6666 C6680 0.960 . S
H6667 C6680 0.960 . S
C6668 H6660 0.929 . S
C6668 C6669 1.377 . S
C6668 C6670 1.384 . S
C6669 C6668 1.377 . S
C6669 C6675 1.390 . S
C6670 H6661 0.930 . S
C6670 C6668 1.384 . S
C6670 C6671 1.372 . S
C6671 C6670 1.372 . S
C6671 C6672 1.400 . S
C6671 C6676 1.490 . S
C6672 H6662 0.930 . S
C6672 C6671 1.400 . S
C6672 C6675 1.386 . S
H6673 C6689 0.929 . S
H6674 C6690 0.931 . S
C6675 H6663 0.929 . S
C6675 C6669 1.390 . S
C6675 C6672 1.386 . S
C6676 C6671 1.490 . S
C6676 C6678 1.395 . S
C6676 C6679 1.403 . S
H6677 C6683 0.930 . S
C6678 H6664 0.930 . S
C6678 C6676 1.395 . S
C6678 C6681 1.403 . S
C6679 C6676 1.403 . S
C6679 C6680 1.524 . S
C6679 C6683 1.400 . S
C6680 H6665 0.960 . S
C6680 H6666 0.960 . S
C6680 H6667 0.960 . S
C6680 C6679 1.524 . S
C6681 C6678 1.403 . S
C6681 C6682 1.392 . S
C6681 C6685 1.495 . S
C6682 C6681 1.392 . S
C6682 C6683 1.385 . S
C6682 C6684 1.478 . S
C6683 H6677 0.930 . S
C6683 C6679 1.400 . S
C6683 C6682 1.385 . S
C6684 C6682 1.478 . S
C6684 C6686 1.374 1_565 S
C6684 C6690 1.383 . S
C6685 C6681 1.495 . S
C6685 H6691 0.959 . S
C6685 H6692 0.961 . S
C6685 H6693 0.960 . S
C6686 C6684 1.374 1_545 S
C6686 C6687 1.406 . S
C6686 H6694 0.928 . S
C6687 C6686 1.406 . S
C6687 C6688 1.383 . S
C6687 H6695 0.929 . S
C6688 C6687 1.383 . S
C6688 C6689 1.397 . S
C6689 H6673 0.929 . S
C6689 C6688 1.397 . S
C6689 C6690 1.355 1_545 S
C6690 H6674 0.931 . S
C6690 C6684 1.383 . S
C6690 C6689 1.355 1_565 S
H6691 C6685 0.959 . S
H6692 C6685 0.961 . S
H6693 C6685 0.960 . S
H6694 C6686 0.928 . S
H6695 C6687 0.929 . S
H6696 C6704 0.929 . S
H6697 C6706 0.930 . S
H6698 C6708 0.930 . S
H6699 C6711 0.929 . S
H6700 C6714 0.930 . S
H6701 C6716 0.960 . S
H6702 C6716 0.960 . S
H6703 C6716 0.960 . S
C6704 H6696 0.929 . S
C6704 C6705 1.377 . S
C6704 C6706 1.384 . S
C6705 C6704 1.377 . S
C6705 C6711 1.390 . S
C6706 H6697 0.930 . S
C6706 C6704 1.384 . S
C6706 C6707 1.372 . S
C6707 C6706 1.372 . S
C6707 C6708 1.400 . S
C6707 C6712 1.490 . S
C6708 H6698 0.930 . S
C6708 C6707 1.400 . S
C6708 C6711 1.386 . S
H6709 C6725 0.930 . S
H6710 C6726 0.931 . S
C6711 H6699 0.929 . S
C6711 C6705 1.390 . S
C6711 C6708 1.386 . S
C6712 C6707 1.490 . S
C6712 C6714 1.395 . S
C6712 C6715 1.403 . S
H6713 C6719 0.930 . S
C6714 H6700 0.930 . S
C6714 C6712 1.395 . S
C6714 C6717 1.403 . S
C6715 C6712 1.403 . S
C6715 C6716 1.524 . S
C6715 C6719 1.400 . S
C6716 H6701 0.960 . S
C6716 H6702 0.960 . S
C6716 H6703 0.960 . S
C6716 C6715 1.524 . S
C6717 C6714 1.403 . S
C6717 C6718 1.392 . S
C6717 C6721 1.495 . S
C6718 C6717 1.392 . S
C6718 C6719 1.385 . S
C6718 C6720 1.478 . S
C6719 H6713 0.930 . S
C6719 C6715 1.400 . S
C6719 C6718 1.385 . S
C6720 C6718 1.478 . S
C6720 C6722 1.381 . S
C6720 C6726 1.383 . S
C6721 C6717 1.495 . S
C6721 H6727 0.959 . S
C6721 H6728 0.961 . S
C6721 H6729 0.960 . S
C6722 C6720 1.381 . S
C6722 C6723 1.394 . S
C6722 H6730 0.930 . S
C6723 C6722 1.394 . S
C6723 C6724 1.383 . S
C6723 H6731 0.929 . S
C6724 C6723 1.383 . S
C6724 C6725 1.377 . S
C6725 H6709 0.930 . S
C6725 C6724 1.377 . S
C6725 C6726 1.379 . S
C6726 H6710 0.931 . S
C6726 C6720 1.383 . S
C6726 C6725 1.379 . S
H6727 C6721 0.959 . S
H6728 C6721 0.961 . S
H6729 C6721 0.960 . S
H6730 C6722 0.930 . S
H6731 C6723 0.929 . S
H6732 C6740 0.929 . S
H6733 C6742 0.930 . S
H6734 C6744 0.930 1_556 S
H6735 C6747 0.929 1_556 S
H6736 C6750 0.930 . S
H6737 C6752 0.960 . S
H6738 C6752 0.960 . S
H6739 C6752 0.960 . S
C6740 H6732 0.929 . S
C6740 C6741 1.377 . S
C6740 C6742 1.384 . S
C6741 C6740 1.377 . S
C6741 C6747 1.390 . S
C6742 H6733 0.930 . S
C6742 C6740 1.384 . S
C6742 C6743 1.372 . S
C6743 C6742 1.372 . S
C6743 C6744 1.400 . S
C6743 C6748 1.490 . S
C6744 H6734 0.930 1_554 S
C6744 C6743 1.400 . S
C6744 C6747 1.386 . S
H6745 C6761 0.930 . S
H6746 C6762 0.931 . S
C6747 H6735 0.929 1_554 S
C6747 C6741 1.390 . S
C6747 C6744 1.386 . S
C6748 C6743 1.490 . S
C6748 C6750 1.395 . S
C6748 C6751 1.397 1_554 S
H6749 C6755 0.930 1_556 S
C6750 H6736 0.930 . S
C6750 C6748 1.395 . S
C6750 C6753 1.403 . S
C6751 C6748 1.397 1_556 S
C6751 C6752 1.531 . S
C6751 C6755 1.398 1_556 S
C6752 H6737 0.960 . S
C6752 H6738 0.960 . S
C6752 H6739 0.960 . S
C6752 C6751 1.531 . S
C6753 C6750 1.403 . S
C6753 C6754 1.392 . S
C6753 C6757 1.495 . S
C6754 C6753 1.392 . S
C6754 C6755 1.385 . S
C6754 C6756 1.478 . S
C6755 H6749 0.930 1_554 S
C6755 C6751 1.398 1_554 S
C6755 C6754 1.385 . S
C6756 C6754 1.478 . S
C6756 C6758 1.381 . S
C6756 C6762 1.383 . S
C6757 C6753 1.495 . S
C6757 H6763 0.959 . S
C6757 H6764 0.961 . S
C6757 H6765 0.960 . S
C6758 C6756 1.381 . S
C6758 C6759 1.394 . S
C6758 H6766 0.930 . S
C6759 C6758 1.394 . S
C6759 C6760 1.383 . S
C6759 H6767 0.929 . S
C6760 C6759 1.383 . S
C6760 C6761 1.377 . S
C6761 H6745 0.930 . S
C6761 C6760 1.377 . S
C6761 C6762 1.379 . S
C6762 H6746 0.931 . S
C6762 C6756 1.383 . S
C6762 C6761 1.379 . S
H6763 C6757 0.959 . S
H6764 C6757 0.961 . S
H6765 C6757 0.960 . S
H6766 C6758 0.930 . S
H6767 C6759 0.929 . S
H6768 C6776 0.929 . S
H6769 C6778 0.930 . S
H6770 C6780 0.930 . S
H6771 C6783 0.929 . S
H6772 C6786 0.930 . S
H6773 C6788 0.960 . S
H6774 C6788 0.960 . S
H6775 C6788 0.960 . S
C6776 H6768 0.929 . S
C6776 C6777 1.377 . S
C6776 C6778 1.384 . S
C6777 C6776 1.377 . S
C6777 C6783 1.390 . S
C6778 H6769 0.930 . S
C6778 C6776 1.384 . S
C6778 C6779 1.372 . S
C6779 C6778 1.372 . S
C6779 C6780 1.400 . S
C6779 C6784 1.490 . S
C6780 H6770 0.930 . S
C6780 C6779 1.400 . S
C6780 C6783 1.386 . S
H6781 C6797 0.930 . S
H6782 C6798 0.931 . S
C6783 H6771 0.929 . S
C6783 C6777 1.390 . S
C6783 C6780 1.386 . S
C6784 C6779 1.490 . S
C6784 C6786 1.395 . S
C6784 C6787 1.403 . S
H6785 C6791 0.930 . S
C6786 H6772 0.930 . S
C6786 C6784 1.395 . S
C6786 C6789 1.403 . S
C6787 C6784 1.403 . S
C6787 C6788 1.524 . S
C6787 C6791 1.400 . S
C6788 H6773 0.960 . S
C6788 H6774 0.960 . S
C6788 H6775 0.960 . S
C6788 C6787 1.524 . S
C6789 C6786 1.403 . S
C6789 C6790 1.392 . S
C6789 C6793 1.495 . S
C6790 C6789 1.392 . S
C6790 C6791 1.385 . S
C6790 C6792 1.478 . S
C6791 H6785 0.930 . S
C6791 C6787 1.400 . S
C6791 C6790 1.385 . S
C6792 C6790 1.478 . S
C6792 C6794 1.381 . S
C6792 C6798 1.383 . S
C6793 C6789 1.495 . S
C6793 H6799 0.959 . S
C6793 H6800 0.961 . S
C6793 H6801 0.960 . S
C6794 C6792 1.381 . S
C6794 C6795 1.394 . S
C6794 H6802 0.930 . S
C6795 C6794 1.394 . S
C6795 C6796 1.383 . S
C6795 H6803 0.929 . S
C6796 C6795 1.383 . S
C6796 C6797 1.377 . S
C6797 H6781 0.930 . S
C6797 C6796 1.377 . S
C6797 C6798 1.379 . S
C6798 H6782 0.931 . S
C6798 C6792 1.383 . S
C6798 C6797 1.379 . S
H6799 C6793 0.959 . S
H6800 C6793 0.961 . S
H6801 C6793 0.960 . S
H6802 C6794 0.930 . S
H6803 C6795 0.929 . S
H6804 C6812 0.929 . S
H6805 C6814 0.930 . S
H6806 C6816 0.930 . S
H6807 C6819 0.929 . S
H6808 C6822 0.930 . S
H6809 C6824 0.960 1_556 S
H6810 C6824 0.939 1_556 S
H6811 C6824 0.960 . S
C6812 H6804 0.929 . S
C6812 C6813 1.377 . S
C6812 C6814 1.384 . S
C6813 C6812 1.377 . S
C6813 C6819 1.390 . S
C6814 H6805 0.930 . S
C6814 C6812 1.384 . S
C6814 C6815 1.372 . S
C6815 C6814 1.372 . S
C6815 C6816 1.400 . S
C6815 C6820 1.490 . S
C6816 H6806 0.930 . S
C6816 C6815 1.400 . S
C6816 C6819 1.386 . S
H6817 C6833 0.930 . S
H6818 C6834 0.931 . S
C6819 H6807 0.929 . S
C6819 C6813 1.390 . S
C6819 C6816 1.386 . S
C6820 C6815 1.490 . S
C6820 C6822 1.395 . S
C6820 C6823 1.403 . S
H6821 C6827 0.930 . S
C6822 H6808 0.930 . S
C6822 C6820 1.395 . S
C6822 C6825 1.403 . S
C6823 C6820 1.403 . S
C6823 C6824 1.524 . S
C6823 C6827 1.400 . S
C6824 H6809 0.960 1_554 S
C6824 H6810 0.939 1_554 S
C6824 H6811 0.960 . S
C6824 C6823 1.524 . S
C6825 C6822 1.403 . S
C6825 C6826 1.392 . S
C6825 C6829 1.495 . S
C6826 C6825 1.392 . S
C6826 C6827 1.385 . S
C6826 C6828 1.478 . S
C6827 H6821 0.930 . S
C6827 C6823 1.400 . S
C6827 C6826 1.385 . S
C6828 C6826 1.478 . S
C6828 C6830 1.381 . S
C6828 C6834 1.383 . S
C6829 C6825 1.495 . S
C6829 H6835 0.959 . S
C6829 H6836 0.961 . S
C6829 H6837 0.960 . S
C6830 C6828 1.381 . S
C6830 C6831 1.394 . S
C6830 H6838 0.930 . S
C6831 C6830 1.394 . S
C6831 C6832 1.383 . S
C6831 H6839 0.929 . S
C6832 C6831 1.383 . S
C6832 C6833 1.377 . S
C6833 H6817 0.930 . S
C6833 C6832 1.377 . S
C6833 C6834 1.379 . S
C6834 H6818 0.931 . S
C6834 C6828 1.383 . S
C6834 C6833 1.379 . S
H6835 C6829 0.959 . S
H6836 C6829 0.961 . S
H6837 C6829 0.960 . S
H6838 C6830 0.930 . S
H6839 C6831 0.929 . S
H6840 C6848 0.929 . S
H6841 C6850 0.930 . S
H6842 C6852 0.930 . S
H6843 C6855 0.929 . S
H6844 C6858 0.930 . S
H6845 C6860 0.960 . S
H6846 C6860 0.960 . S
H6847 C6860 0.960 . S
C6848 H6840 0.929 . S
C6848 C6849 1.377 . S
C6848 C6850 1.384 . S
C6849 C6848 1.377 . S
C6849 C6855 1.390 . S
C6850 H6841 0.930 . S
C6850 C6848 1.384 . S
C6850 C6851 1.372 . S
C6851 C6850 1.372 . S
C6851 C6852 1.400 . S
C6851 C6856 1.490 . S
C6852 H6842 0.930 . S
C6852 C6851 1.400 . S
C6852 C6855 1.386 . S
H6853 C6869 0.930 . S
H6854 C6870 0.931 . S
C6855 H6843 0.929 . S
C6855 C6849 1.390 . S
C6855 C6852 1.386 . S
C6856 C6851 1.490 . S
C6856 C6858 1.395 . S
C6856 C6859 1.403 . S
H6857 C6863 0.930 . S
C6858 H6844 0.930 . S
C6858 C6856 1.395 . S
C6858 C6861 1.403 . S
C6859 C6856 1.403 . S
C6859 C6860 1.524 . S
C6859 C6863 1.400 . S
C6860 H6845 0.960 . S
C6860 H6846 0.960 . S
C6860 H6847 0.960 . S
C6860 C6859 1.524 . S
C6861 C6858 1.403 . S
C6861 C6862 1.392 . S
C6861 C6865 1.495 . S
C6862 C6861 1.392 . S
C6862 C6863 1.385 . S
C6862 C6864 1.478 . S
C6863 H6857 0.930 . S
C6863 C6859 1.400 . S
C6863 C6862 1.385 . S
C6864 C6862 1.478 . S
C6864 C6866 1.381 . S
C6864 C6870 1.383 . S
C6865 C6861 1.495 . S
C6865 H6871 0.959 . S
C6865 H6872 0.961 . S
C6865 H6873 0.960 . S
C6866 C6864 1.381 . S
C6866 C6867 1.394 . S
C6866 H6874 0.930 . S
C6867 C6866 1.394 . S
C6867 C6868 1.383 . S
C6867 H6875 0.929 . S
C6868 C6867 1.383 . S
C6868 C6869 1.377 . S
C6869 H6853 0.930 . S
C6869 C6868 1.377 . S
C6869 C6870 1.379 . S
C6870 H6854 0.931 . S
C6870 C6864 1.383 . S
C6870 C6869 1.379 . S
H6871 C6865 0.959 . S
H6872 C6865 0.961 . S
H6873 C6865 0.960 . S
H6874 C6866 0.930 . S
H6875 C6867 0.929 . S
H6876 C6884 0.929 . S
H6877 C6886 0.930 . S
H6878 C6888 0.930 . S
H6879 C6891 0.929 . S
H6880 C6894 0.930 . S
H6881 C6896 0.960 . S
H6882 C6896 0.960 . S
H6883 C6896 0.960 . S
C6884 H6876 0.929 . S
C6884 C6885 1.377 . S
C6884 C6886 1.384 . S
C6885 C6884 1.377 . S
C6885 C6891 1.390 . S
C6886 H6877 0.930 . S
C6886 C6884 1.384 . S
C6886 C6887 1.372 . S
C6887 C6886 1.372 . S
C6887 C6888 1.400 . S
C6887 C6892 1.490 . S
C6888 H6878 0.930 . S
C6888 C6887 1.400 . S
C6888 C6891 1.386 . S
H6889 C6905 0.930 . S
H6890 C6906 0.931 . S
C6891 H6879 0.929 . S
C6891 C6885 1.390 . S
C6891 C6888 1.386 . S
C6892 C6887 1.490 . S
C6892 C6894 1.395 . S
C6892 C6895 1.403 . S
H6893 C6899 0.930 . S
C6894 H6880 0.930 . S
C6894 C6892 1.395 . S
C6894 C6897 1.403 . S
C6895 C6892 1.403 . S
C6895 C6896 1.524 . S
C6895 C6899 1.400 . S
C6896 H6881 0.960 . S
C6896 H6882 0.960 . S
C6896 H6883 0.960 . S
C6896 C6895 1.524 . S
C6897 C6894 1.403 . S
C6897 C6898 1.392 . S
C6897 C6901 1.495 . S
C6898 C6897 1.392 . S
C6898 C6899 1.385 . S
C6898 C6900 1.478 . S
C6899 H6893 0.930 . S
C6899 C6895 1.400 . S
C6899 C6898 1.385 . S
C6900 C6898 1.478 . S
C6900 C6902 1.381 . S
C6900 C6906 1.383 . S
C6901 C6897 1.495 . S
C6901 H6907 0.959 . S
C6901 H6908 0.961 . S
C6901 H6909 0.960 . S
C6902 C6900 1.381 . S
C6902 C6903 1.394 . S
C6902 H6910 0.930 . S
C6903 C6902 1.394 . S
C6903 C6904 1.383 . S
C6903 H6911 0.929 . S
C6904 C6903 1.383 . S
C6904 C6905 1.377 . S
C6905 H6889 0.930 . S
C6905 C6904 1.377 . S
C6905 C6906 1.379 . S
C6906 H6890 0.931 . S
C6906 C6900 1.383 . S
C6906 C6905 1.379 . S
H6907 C6901 0.959 . S
H6908 C6901 0.961 . S
H6909 C6901 0.960 . S
H6910 C6902 0.930 . S
H6911 C6903 0.929 . S
C3465 C665 1.428 . S
C3484 C2179 1.318 . S
C3501 C381 2.160 . S
C3520 C2262 2.110 . S
C3537 C460 1.424 . S
C3556 C2347 1.419 1_565 S
C3592 C2427 1.616 . S
C3573 C585 1.772 . S
C3609 C108 1.620 . S
C3628 C2511 1.507 . S
C3664 C2604 0.797 . S
C3645 C196 0.912 . S
C3700 C2682 0.497 . S
C3681 C313 0.549 . S
C3717 C49 1.040 . S
C3736 C2767 0.984 . S
C3772 C2178 1.822 . S
C3753 C1457 1.938 . S
C3789 C1545 0.376 . S
C3808 C2259 0.494 . S
C3844 C2346 1.113 . S
C3825 C1721 1.173 . S
C3880 C2431 1.544 . S
C3861 C1113 1.616 . S
C3897 C1428 2.013 . S
C3916 C2515 1.876 . S
C3952 C2607 0.997 . S
C3933 C1516 1.035 . S
C3988 C2679 0.673 . S
C3969 C1692 0.605 . S
C4024 C2766 1.189 . S
C4005 C1085 1.258 . S
C4060 C2175 1.444 . S
C4041 C988 1.548 . S
C4077 C1817 2.039 . S
C4096 C2850 1.941 . S
C4132 C2924 1.986 . S
C4113 C2081 2.164 . S
C4168 C3019 0.403 . S
C4149 C1993 0.252 . S
C4185 C761 0.488 . S
C4204 C2763 0.463 . S
C4221 C821 1.388 . S
C4240 C2343 1.350 . S
C4257 C2053 2.421 . S
C4276 C3102 2.342 . S
C4312 C3187 0.692 . S
C4293 C1868 0.587 . S
C4348 C2168 1.307 1_565 S
C4329 C372 1.421 . S
C4384 C3195 2.122 . S
C4365 C645 2.149 . S
C4401 C577 1.426 . S
C4420 C2336 1.419 . S
C4437 C497 1.769 . S
C4456 C3108 1.633 . S
C4492 C2520 1.526 . S
C4473 C57 1.617 . S
C4509 C293 0.909 . S
C4528 C2931 0.800 . S
C4564 C2691 0.486 . S
C4545 C205 0.539 . S
C4600 C3260 0.903 . S
C4581 C145 1.037 . S
C4636 C2187 1.863 . S
C4617 C909 1.933 1_545 S
C4672 C3192 0.574 . S
C4653 C1956 0.370 . S
C4689 C724 1.167 . S
C4708 C2355 1.162 . S
C4725 C1780 1.614 . S
C4744 C3092 1.572 . S
C4761 C937 2.013 . S
C4780 C2504 1.851 . S
C4816 C2934 0.934 . S
C4797 C1985 1.034 . S
C4833 C753 0.603 . S
C4852 C2688 0.601 . S
C4869 C1809 1.250 . S
C4888 C3279 1.181 . S
C4905 C1173 1.545 . S
C4924 C2184 1.371 . S
C4941 C1105 2.030 . S
C4960 C2859 1.957 . S
C4977 C1633 2.161 . S
C4996 C2599 2.013 . S
C5013 C1553 0.208 . S
C5032 C3008 0.490 . S
C5068 C3276 0.585 . S
C5049 C1729 0.480 . S
C5085 C1340 1.389 . S
C5104 C2352 1.308 1_565 S
C5140 C2439 2.339 . S
C5121 C1604 2.418 . S
C5176 C2252 0.697 . S
C5157 C1252 0.590 . S
C5193 C489 1.428 . S
C5212 C3355 1.314 . S
C5248 C3186 2.131 . S
C5229 C557 2.156 . S
C5265 C636 1.432 . S
C5284 C3439 1.371 . S
C5301 C409 1.771 1_655 S
C5320 C3099 1.620 . S
C5337 C284 1.617 . S
C5356 C2847 1.498 . S
C5392 C2940 0.826 . S
C5373 C20 0.913 . S
C5428 C3018 0.588 . S
C5409 C137 0.537 . S
C5464 C3271 1.023 . S
C5445 C225 1.040 . S
C5500 C3354 1.856 . S
C5481 C1641 1.937 . S
C5517 C1193 0.378 . S
C5536 C3183 0.591 . S
C5572 C3438 1.144 . S
C5553 C1289 1.172 . S
C5608 C3103 1.550 . S
C5589 C1377 1.618 . S
C5644 C2851 1.908 . S
C5625 C1613 2.012 . S
C5661 C1164 1.037 . S
C5680 C2943 0.946 . S
C5716 C3015 0.637 . S
C5697 C1261 0.606 . S
C5733 C1349 1.253 . S
C5752 C3270 1.196 . S
C5788 C3351 1.453 . S
C5769 C1965 1.549 . S
C5805 C849 2.037 . S
C5824 C2514 1.979 . S
C5860 C2588 2.015 . S
C5841 C929 2.172 . S
C5896 C2683 0.485 . S
C5877 C1017 0.240 . S
C5932 C3267 0.574 . S
C5913 C1897 0.502 . S
C5949 C1789 1.388 . S
C5968 C3435 1.341 . S
C6004 C2430 2.335 . S
C5985 C900 2.413 . S
C6040 C2263 0.573 . S
C6021 C733 0.598 . S
C6057 C548 1.425 . S
C6076 C3344 1.342 . S
C6112 C2271 2.117 . S
C6093 C469 2.149 . S
C6129 C401 1.419 . S
C6148 C3428 1.357 . S
C6165 C673 1.769 . S
C6184 C2436 1.614 . S
C6201 C233 1.617 . S
C6220 C2856 1.503 1_556 S
C6256 C2595 0.797 . S
C6237 C117 0.917 . S
C6273 C29 0.555 . S
C6292 C3027 0.562 . S
C6309 C321 1.039 . S
C6328 C2756 0.932 . S
C6364 C3363 1.867 . S
C6345 C2044 1.933 . S
C6381 C997 0.372 . S
C6400 C2268 0.496 . S
C6436 C3447 1.109 . S
C6417 C1877 1.166 . S
C6453 C812 1.609 . S
C6472 C2420 1.519 . S
C6489 C2073 2.019 . S
C6508 C2840 1.911 . S
C6544 C2598 1.031 . S
C6525 C1025 1.031 . S
C6561 C1905 0.599 . S
C6580 C3024 0.664 . S
C6616 C2775 1.148 . S
C6597 C841 1.249 . S
C6652 C3360 1.449 . S
C6633 C1525 1.543 . S
C6688 C2523 1.975 1_655 S
C6669 C1369 2.034 . S
C6705 C1465 2.160 . S
C6724 C2935 1.974 . S
C6760 C2672 0.549 . S
C6741 C1201 0.242 . S
C6777 C1281 0.494 . S
C6796 C2772 0.464 . S
C6813 C1076 1.385 . S
C6832 C3444 1.353 . S
C6868 C3111 2.325 . S
C6849 C1437 2.415 1_565 S
C6904 C3176 0.627 . S
C6885 C1701 0.594 . S
